# Generated by pormake.
# Topology cha, (4)-cn, num edge types: 1
# Building blocks:
#     Node 0, Type 0, BuildingBlock: CEKHIL_clean_sbu_0, # of connection points: 4
#     Node 1, Type 0, BuildingBlock: CEKHIL_clean_sbu_0, # of connection points: 4
#     Node 2, Type 0, BuildingBlock: CEKHIL_clean_sbu_0, # of connection points: 4
#     Node 3, Type 0, BuildingBlock: CEKHIL_clean_sbu_0, # of connection points: 4
#     Node 4, Type 0, BuildingBlock: CEKHIL_clean_sbu_0, # of connection points: 4
#     Node 5, Type 0, BuildingBlock: CEKHIL_clean_sbu_0, # of connection points: 4
#     Node 6, Type 0, BuildingBlock: CEKHIL_clean_sbu_0, # of connection points: 4
#     Node 7, Type 0, BuildingBlock: CEKHIL_clean_sbu_0, # of connection points: 4
#     Node 8, Type 0, BuildingBlock: CEKHIL_clean_sbu_0, # of connection points: 4
#     Node 9, Type 0, BuildingBlock: CEKHIL_clean_sbu_0, # of connection points: 4
#     Node 10, Type 0, BuildingBlock: CEKHIL_clean_sbu_0, # of connection points: 4
#     Node 11, Type 0, BuildingBlock: CEKHIL_clean_sbu_0, # of connection points: 4
#     Node 12, Type 0, BuildingBlock: CEKHIL_clean_sbu_0, # of connection points: 4
#     Node 13, Type 0, BuildingBlock: CEKHIL_clean_sbu_0, # of connection points: 4
#     Node 14, Type 0, BuildingBlock: CEKHIL_clean_sbu_0, # of connection points: 4
#     Node 15, Type 0, BuildingBlock: CEKHIL_clean_sbu_0, # of connection points: 4
#     Node 16, Type 0, BuildingBlock: CEKHIL_clean_sbu_0, # of connection points: 4
#     Node 17, Type 0, BuildingBlock: CEKHIL_clean_sbu_0, # of connection points: 4
#     Node 18, Type 0, BuildingBlock: CEKHIL_clean_sbu_0, # of connection points: 4
#     Node 19, Type 0, BuildingBlock: CEKHIL_clean_sbu_0, # of connection points: 4
#     Node 20, Type 0, BuildingBlock: CEKHIL_clean_sbu_0, # of connection points: 4
#     Node 21, Type 0, BuildingBlock: CEKHIL_clean_sbu_0, # of connection points: 4
#     Node 22, Type 0, BuildingBlock: CEKHIL_clean_sbu_0, # of connection points: 4
#     Node 23, Type 0, BuildingBlock: CEKHIL_clean_sbu_0, # of connection points: 4
#     Node 24, Type 0, BuildingBlock: CEKHIL_clean_sbu_0, # of connection points: 4
#     Node 25, Type 0, BuildingBlock: CEKHIL_clean_sbu_0, # of connection points: 4
#     Node 26, Type 0, BuildingBlock: CEKHIL_clean_sbu_0, # of connection points: 4
#     Node 27, Type 0, BuildingBlock: CEKHIL_clean_sbu_0, # of connection points: 4
#     Node 28, Type 0, BuildingBlock: CEKHIL_clean_sbu_0, # of connection points: 4
#     Node 29, Type 0, BuildingBlock: CEKHIL_clean_sbu_0, # of connection points: 4
#     Node 30, Type 0, BuildingBlock: CEKHIL_clean_sbu_0, # of connection points: 4
#     Node 31, Type 0, BuildingBlock: CEKHIL_clean_sbu_0, # of connection points: 4
#     Node 32, Type 0, BuildingBlock: CEKHIL_clean_sbu_0, # of connection points: 4
#     Node 33, Type 0, BuildingBlock: CEKHIL_clean_sbu_0, # of connection points: 4
#     Node 34, Type 0, BuildingBlock: CEKHIL_clean_sbu_0, # of connection points: 4
#     Node 35, Type 0, BuildingBlock: CEKHIL_clean_sbu_0, # of connection points: 4
#     Edge 36, Type (0, 0), BuildingBlock: ZUJKAS_clean_linker_0, # of connection points: 2
#     Edge 37, Type (0, 0), BuildingBlock: ZUJKAS_clean_linker_0, # of connection points: 2
#     Edge 38, Type (0, 0), BuildingBlock: ZUJKAS_clean_linker_0, # of connection points: 2
#     Edge 39, Type (0, 0), BuildingBlock: ZUJKAS_clean_linker_0, # of connection points: 2
#     Edge 40, Type (0, 0), BuildingBlock: ZUJKAS_clean_linker_0, # of connection points: 2
#     Edge 41, Type (0, 0), BuildingBlock: ZUJKAS_clean_linker_0, # of connection points: 2
#     Edge 42, Type (0, 0), BuildingBlock: ZUJKAS_clean_linker_0, # of connection points: 2
#     Edge 43, Type (0, 0), BuildingBlock: ZUJKAS_clean_linker_0, # of connection points: 2
#     Edge 44, Type (0, 0), BuildingBlock: ZUJKAS_clean_linker_0, # of connection points: 2
#     Edge 45, Type (0, 0), BuildingBlock: ZUJKAS_clean_linker_0, # of connection points: 2
#     Edge 46, Type (0, 0), BuildingBlock: ZUJKAS_clean_linker_0, # of connection points: 2
#     Edge 47, Type (0, 0), BuildingBlock: ZUJKAS_clean_linker_0, # of connection points: 2
#     Edge 48, Type (0, 0), BuildingBlock: ZUJKAS_clean_linker_0, # of connection points: 2
#     Edge 49, Type (0, 0), BuildingBlock: ZUJKAS_clean_linker_0, # of connection points: 2
#     Edge 50, Type (0, 0), BuildingBlock: ZUJKAS_clean_linker_0, # of connection points: 2
#     Edge 51, Type (0, 0), BuildingBlock: ZUJKAS_clean_linker_0, # of connection points: 2
#     Edge 52, Type (0, 0), BuildingBlock: ZUJKAS_clean_linker_0, # of connection points: 2
#     Edge 53, Type (0, 0), BuildingBlock: ZUJKAS_clean_linker_0, # of connection points: 2
#     Edge 54, Type (0, 0), BuildingBlock: ZUJKAS_clean_linker_0, # of connection points: 2
#     Edge 55, Type (0, 0), BuildingBlock: ZUJKAS_clean_linker_0, # of connection points: 2
#     Edge 56, Type (0, 0), BuildingBlock: ZUJKAS_clean_linker_0, # of connection points: 2
#     Edge 57, Type (0, 0), BuildingBlock: ZUJKAS_clean_linker_0, # of connection points: 2
#     Edge 58, Type (0, 0), BuildingBlock: ZUJKAS_clean_linker_0, # of connection points: 2
#     Edge 59, Type (0, 0), BuildingBlock: ZUJKAS_clean_linker_0, # of connection points: 2
#     Edge 60, Type (0, 0), BuildingBlock: ZUJKAS_clean_linker_0, # of connection points: 2
#     Edge 61, Type (0, 0), BuildingBlock: ZUJKAS_clean_linker_0, # of connection points: 2
#     Edge 62, Type (0, 0), BuildingBlock: ZUJKAS_clean_linker_0, # of connection points: 2
#     Edge 63, Type (0, 0), BuildingBlock: ZUJKAS_clean_linker_0, # of connection points: 2
#     Edge 64, Type (0, 0), BuildingBlock: ZUJKAS_clean_linker_0, # of connection points: 2
#     Edge 65, Type (0, 0), BuildingBlock: ZUJKAS_clean_linker_0, # of connection points: 2
#     Edge 66, Type (0, 0), BuildingBlock: ZUJKAS_clean_linker_0, # of connection points: 2
#     Edge 67, Type (0, 0), BuildingBlock: ZUJKAS_clean_linker_0, # of connection points: 2
#     Edge 68, Type (0, 0), BuildingBlock: ZUJKAS_clean_linker_0, # of connection points: 2
#     Edge 69, Type (0, 0), BuildingBlock: ZUJKAS_clean_linker_0, # of connection points: 2
#     Edge 70, Type (0, 0), BuildingBlock: ZUJKAS_clean_linker_0, # of connection points: 2
#     Edge 71, Type (0, 0), BuildingBlock: ZUJKAS_clean_linker_0, # of connection points: 2
#     Edge 72, Type (0, 0), BuildingBlock: ZUJKAS_clean_linker_0, # of connection points: 2
#     Edge 73, Type (0, 0), BuildingBlock: ZUJKAS_clean_linker_0, # of connection points: 2
#     Edge 74, Type (0, 0), BuildingBlock: ZUJKAS_clean_linker_0, # of connection points: 2
#     Edge 75, Type (0, 0), BuildingBlock: ZUJKAS_clean_linker_0, # of connection points: 2
#     Edge 76, Type (0, 0), BuildingBlock: ZUJKAS_clean_linker_0, # of connection points: 2
#     Edge 77, Type (0, 0), BuildingBlock: ZUJKAS_clean_linker_0, # of connection points: 2
#     Edge 78, Type (0, 0), BuildingBlock: ZUJKAS_clean_linker_0, # of connection points: 2
#     Edge 79, Type (0, 0), BuildingBlock: ZUJKAS_clean_linker_0, # of connection points: 2
#     Edge 80, Type (0, 0), BuildingBlock: ZUJKAS_clean_linker_0, # of connection points: 2
#     Edge 81, Type (0, 0), BuildingBlock: ZUJKAS_clean_linker_0, # of connection points: 2
#     Edge 82, Type (0, 0), BuildingBlock: ZUJKAS_clean_linker_0, # of connection points: 2
#     Edge 83, Type (0, 0), BuildingBlock: ZUJKAS_clean_linker_0, # of connection points: 2
#     Edge 84, Type (0, 0), BuildingBlock: ZUJKAS_clean_linker_0, # of connection points: 2
#     Edge 85, Type (0, 0), BuildingBlock: ZUJKAS_clean_linker_0, # of connection points: 2
#     Edge 86, Type (0, 0), BuildingBlock: ZUJKAS_clean_linker_0, # of connection points: 2
#     Edge 87, Type (0, 0), BuildingBlock: ZUJKAS_clean_linker_0, # of connection points: 2
#     Edge 88, Type (0, 0), BuildingBlock: ZUJKAS_clean_linker_0, # of connection points: 2
#     Edge 89, Type (0, 0), BuildingBlock: ZUJKAS_clean_linker_0, # of connection points: 2
#     Edge 90, Type (0, 0), BuildingBlock: ZUJKAS_clean_linker_0, # of connection points: 2
#     Edge 91, Type (0, 0), BuildingBlock: ZUJKAS_clean_linker_0, # of connection points: 2
#     Edge 92, Type (0, 0), BuildingBlock: ZUJKAS_clean_linker_0, # of connection points: 2
#     Edge 93, Type (0, 0), BuildingBlock: ZUJKAS_clean_linker_0, # of connection points: 2
#     Edge 94, Type (0, 0), BuildingBlock: ZUJKAS_clean_linker_0, # of connection points: 2
#     Edge 95, Type (0, 0), BuildingBlock: ZUJKAS_clean_linker_0, # of connection points: 2
#     Edge 96, Type (0, 0), BuildingBlock: ZUJKAS_clean_linker_0, # of connection points: 2
#     Edge 97, Type (0, 0), BuildingBlock: ZUJKAS_clean_linker_0, # of connection points: 2
#     Edge 98, Type (0, 0), BuildingBlock: ZUJKAS_clean_linker_0, # of connection points: 2
#     Edge 99, Type (0, 0), BuildingBlock: ZUJKAS_clean_linker_0, # of connection points: 2
#     Edge 100, Type (0, 0), BuildingBlock: ZUJKAS_clean_linker_0, # of connection points: 2
#     Edge 101, Type (0, 0), BuildingBlock: ZUJKAS_clean_linker_0, # of connection points: 2
#     Edge 102, Type (0, 0), BuildingBlock: ZUJKAS_clean_linker_0, # of connection points: 2
#     Edge 103, Type (0, 0), BuildingBlock: ZUJKAS_clean_linker_0, # of connection points: 2
#     Edge 104, Type (0, 0), BuildingBlock: ZUJKAS_clean_linker_0, # of connection points: 2
#     Edge 105, Type (0, 0), BuildingBlock: ZUJKAS_clean_linker_0, # of connection points: 2
#     Edge 106, Type (0, 0), BuildingBlock: ZUJKAS_clean_linker_0, # of connection points: 2
#     Edge 107, Type (0, 0), BuildingBlock: ZUJKAS_clean_linker_0, # of connection points: 2
# Relax obj value: 0.071
# Max RMSD: 0.095
# Mean RMSD: 0.095
data_MOF--net-cha--node1-CEKHIL_clean_sbu_0--edge1-ZUJKAS_clean_linker_0
_symmetry_space_group_name_H-M    P1
_symmetry_Int_Tables_number       1
_symmetry_cell_setting            triclinic
loop_
_symmetry_equiv_pos_as_xyz
'x, y, z'
_cell_length_a     69.913714
_cell_length_b     69.894495
_cell_length_c     110.06647
_cell_angle_alpha  89.99899
_cell_angle_beta   90.002122
_cell_angle_gamma 119.98149
loop_
_atom_site_label
_atom_site_type_symbol
_atom_site_fract_x
_atom_site_fract_y
_atom_site_fract_z
_atom_type_partial_charge
Co0 Co 0.03493 0.30311 0.09133 0.0
O1 O 0.03383 0.29817 0.10851 0.0
O2 O 0.02067 0.31741 0.0994 0.0
C3 C 0.07059 0.31237 0.08914 0.0
O4 O 0.03397 0.31197 0.0737 0.0
Co5 Co 0.04423 0.27366 0.07398 0.0
O6 O 0.05051 0.29768 0.06229 0.0
C7 C -9e-05 0.25592 0.08488 0.0
C8 C 0.02416 0.3098 0.10946 0.0
C9 C 0.04251 0.31042 0.06361 0.0
O10 O 0.00564 0.27507 0.08935 0.0
O11 O 0.01332 0.25167 0.07917 0.0
O12 O 0.06553 0.32705 0.09262 0.0
O13 O 0.05421 0.29247 0.08813 0.0
Co14 Co 0.7494 0.75469 0.0905 0.0
O15 O 0.75437 0.76083 0.10756 0.0
O16 O 0.73471 0.72735 0.09971 0.0
C17 C 0.74104 0.78134 0.08663 0.0
O18 O 0.74017 0.74243 0.07327 0.0
Co19 Co 0.7793 0.79058 0.07178 0.0
O20 O 0.75598 0.77107 0.0602 0.0
C21 C 0.79626 0.76506 0.08471 0.0
C22 C 0.74245 0.73973 0.10934 0.0
C23 C 0.74247 0.75087 0.06258 0.0
O24 O 0.77709 0.75256 0.0894 0.0
O25 O 0.8008 0.78189 0.0781 0.0
O26 O 0.726 0.76227 0.09077 0.0
O27 O 0.76071 0.78414 0.08592 0.0
Co28 Co 0.29836 0.02137 0.09118 0.0
O29 O 0.29342 0.02253 0.10823 0.0
O30 O 0.32629 0.03481 0.09988 0.0
C31 C 0.2712 0.98607 0.08879 0.0
O32 O 0.30927 0.02192 0.07382 0.0
Co33 Co 0.26127 0.01285 0.07269 0.0
O34 O 0.27892 0.00462 0.06209 0.0
C35 C 0.28796 0.05717 0.08372 0.0
C36 C 0.31456 0.03149 0.10968 0.0
C37 C 0.29954 0.01251 0.06379 0.0
O38 O 0.30065 0.05112 0.08886 0.0
O39 O 0.27081 0.044 0.07756 0.0
O40 O 0.29046 0.99035 0.09272 0.0
O41 O 0.26863 0.00296 0.08738 0.0
Co42 Co 0.3074 0.03728 0.91463 0.0
O43 O 0.30297 0.03637 0.89742 0.0
O44 O 0.32128 0.02239 0.90675 0.0
C45 C 0.31747 0.07306 0.9168 0.0
O46 O 0.31574 0.03617 0.93237 0.0
Co47 Co 0.2777 0.04723 0.93142 0.0
O48 O 0.30079 0.05245 0.9435 0.0
C49 C 0.25944 0.00325 0.92013 0.0
C50 C 0.31418 0.02625 0.8966 0.0
C51 C 0.31373 0.04464 0.94237 0.0
O52 O 0.27886 0.00833 0.9164 0.0
O53 O 0.25529 0.01704 0.92549 0.0
O54 O 0.33191 0.06766 0.91339 0.0
O55 O 0.29735 0.0571 0.91761 0.0
Co56 Co 0.0229 0.3006 0.91466 0.0
O57 O 0.02531 0.29723 0.89753 0.0
O58 O 0.03695 0.32932 0.90682 0.0
C59 C 0.98739 0.27358 0.91627 0.0
O60 O 0.02254 0.30998 0.93225 0.0
Co61 Co 0.01316 0.26177 0.93212 0.0
O62 O 0.00536 0.27889 0.94344 0.0
C63 C 0.05796 0.28901 0.9218 0.0
C64 C 0.03451 0.31851 0.89676 0.0
C65 C 0.01319 0.29959 0.94214 0.0
O66 O 0.05234 0.30243 0.91723 0.0
O67 O 0.04437 0.27119 0.92734 0.0
O68 O 0.99215 0.29322 0.91278 0.0
O69 O 0.00402 0.27055 0.91763 0.0
Co70 Co 0.75831 0.75246 0.91445 0.0
O71 O 0.76232 0.75616 0.89723 0.0
O72 O 0.72982 0.73758 0.90629 0.0
C73 C 0.78492 0.74367 0.91734 0.0
O74 O 0.74843 0.74468 0.93217 0.0
Co75 Co 0.79705 0.78352 0.93145 0.0
O76 O 0.7793 0.76043 0.94358 0.0
C77 C 0.77106 0.80035 0.91895 0.0
C78 C 0.74106 0.74447 0.89622 0.0
C79 C 0.75865 0.74716 0.94233 0.0
O80 O 0.75698 0.78062 0.91551 0.0
O81 O 0.78895 0.80512 0.92456 0.0
O82 O 0.76527 0.72858 0.91397 0.0
O83 O 0.78814 0.76351 0.91783 0.0
Co84 Co 0.02319 0.75343 0.91455 0.0
O85 O 0.02408 0.75837 0.89738 0.0
O86 O 0.03729 0.73907 0.90635 0.0
C87 C 0.98762 0.74445 0.91687 0.0
O88 O 0.02409 0.74434 0.93216 0.0
Co89 Co 0.01416 0.78312 0.93196 0.0
O90 O 0.00792 0.75904 0.94358 0.0
C91 C 0.0578 0.80099 0.92023 0.0
C92 C 0.03366 0.74668 0.89633 0.0
C93 C 0.0155 0.74594 0.94222 0.0
O94 O 0.05255 0.78155 0.91642 0.0
O95 O 0.0442 0.80523 0.92575 0.0
O96 O 0.99241 0.72961 0.91332 0.0
O97 O 0.00417 0.76422 0.91786 0.0
Co98 Co 0.3067 0.30073 0.91454 0.0
O99 O 0.30073 0.29453 0.89753 0.0
O100 O 0.32044 0.32806 0.90528 0.0
C101 C 0.31594 0.27456 0.91794 0.0
O102 O 0.3168 0.31306 0.93171 0.0
Co103 Co 0.27844 0.26447 0.93358 0.0
O104 O 0.30259 0.28423 0.94469 0.0
C105 C 0.25984 0.28913 0.92124 0.0
C106 C 0.31232 0.31563 0.89569 0.0
C107 C 0.3155 0.30456 0.9423 0.0
O108 O 0.27877 0.30226 0.91643 0.0
O109 O 0.25607 0.27222 0.92757 0.0
O110 O 0.33046 0.29364 0.91355 0.0
O111 O 0.29622 0.27142 0.9191 0.0
Co112 Co 0.76031 0.0371 0.91413 0.0
O113 O 0.76302 0.03778 0.89682 0.0
O114 O 0.73117 0.02312 0.90663 0.0
C115 C 0.78659 0.07261 0.91701 0.0
O116 O 0.75201 0.0347 0.93217 0.0
Co117 Co 0.80102 0.04495 0.92948 0.0
O118 O 0.78394 0.0489 0.94262 0.0
C119 C 0.77419 0.00237 0.91706 0.0
C120 C 0.74169 0.02782 0.8963 0.0
C121 C 0.76323 0.04181 0.94212 0.0
O122 O 0.75956 0.00782 0.91456 0.0
O123 O 0.79273 0.01562 0.92205 0.0
O124 O 0.76662 0.06773 0.91416 0.0
O125 O 0.79029 0.05629 0.91685 0.0
Co126 Co 0.75049 0.01981 0.09036 0.0
O127 O 0.75203 0.0193 0.1077 0.0
O128 O 0.73436 0.0331 0.09754 0.0
C129 C 0.74247 0.98457 0.08778 0.0
O130 O 0.74494 0.02172 0.07222 0.0
Co131 Co 0.7847 0.01296 0.07566 0.0
O132 O 0.7641 0.00861 0.06219 0.0
C133 C 0.7988 0.0554 0.08785 0.0
C134 C 0.73998 0.02854 0.10798 0.0
C135 C 0.74989 0.015 0.06241 0.0
O136 O 0.77849 0.04957 0.08995 0.0
O137 O 0.8048 0.04237 0.08329 0.0
O138 O 0.72684 0.98883 0.09035 0.0
O139 O 0.7622 0.00133 0.08803 0.0
Co140 Co 0.03385 0.75723 0.08985 0.0
O141 O 0.03631 0.76084 0.10711 0.0
O142 O 0.02114 0.72852 0.09776 0.0
C143 C 0.0688 0.78387 0.08586 0.0
O144 O 0.02957 0.74793 0.07196 0.0
Co145 Co 0.03903 0.79699 0.0745 0.0
O146 O 0.03768 0.7781 0.06075 0.0
C147 C 0.99837 0.77029 0.08847 0.0
C148 C 0.02669 0.73955 0.10793 0.0
C149 C 0.03237 0.75784 0.06167 0.0
O150 O 0.00427 0.75581 0.09037 0.0
O151 O 0.01096 0.78893 0.08339 0.0
O152 O 0.06462 0.76415 0.08882 0.0
O153 O 0.05225 0.78715 0.08655 0.0
Co154 Co 0.30006 0.30671 0.0905 0.0
O155 O 0.29543 0.30128 0.10763 0.0
O156 O 0.32821 0.32078 0.09901 0.0
C157 C 0.27358 0.31584 0.08808 0.0
O158 O 0.31079 0.31629 0.07302 0.0
Co159 Co 0.26231 0.27832 0.07233 0.0
O160 O 0.28052 0.30318 0.06122 0.0
C161 C 0.28816 0.25986 0.08352 0.0
C162 C 0.31665 0.313 0.10891 0.0
C163 C 0.30121 0.31561 0.06288 0.0
O164 O 0.30136 0.27866 0.08843 0.0
O165 O 0.27101 0.25616 0.07744 0.0
O166 O 0.29312 0.33052 0.09183 0.0
O167 O 0.27034 0.29609 0.08685 0.0
Co168 Co 0.70327 0.63984 0.42396 0.0
O169 O 0.70426 0.63858 0.44128 0.0
O170 O 0.68936 0.65529 0.43121 0.0
C171 C 0.73874 0.64903 0.42098 0.0
O172 O 0.70052 0.64483 0.40583 0.0
Co173 Co 0.71096 0.60608 0.40934 0.0
O174 O 0.71349 0.62567 0.39569 0.0
C175 C 0.66838 0.5911 0.42156 0.0
C176 C 0.69429 0.64996 0.44162 0.0
C177 C 0.70662 0.6395 0.39593 0.0
O178 O 0.67399 0.61131 0.42384 0.0
O179 O 0.68156 0.58548 0.41681 0.0
O180 O 0.73386 0.66421 0.42363 0.0
O181 O 0.72249 0.62902 0.42147 0.0
Co182 Co 0.41751 0.09122 0.423 0.0
O183 O 0.42315 0.09548 0.4401 0.0
O184 O 0.40262 0.06293 0.4314 0.0
C185 C 0.40963 0.1186 0.42079 0.0
O186 O 0.40768 0.08119 0.40544 0.0
Co187 Co 0.44766 0.12935 0.40539 0.0
O188 O 0.42304 0.11202 0.39398 0.0
C189 C 0.46413 0.10176 0.41637 0.0
C190 C 0.41089 0.07431 0.44132 0.0
C191 C 0.40949 0.09145 0.39537 0.0
O192 O 0.44485 0.08869 0.4208 0.0
O193 O 0.46889 0.1196 0.4107 0.0
O194 O 0.39448 0.09923 0.4245 0.0
O195 O 0.42912 0.12114 0.4196 0.0
Co196 Co 0.96515 0.35565 0.42445 0.0
O197 O 0.96493 0.35674 0.44181 0.0
O198 O 0.99522 0.36919 0.43061 0.0
C199 C 0.93782 0.3203 0.42268 0.0
O200 O 0.97081 0.35645 0.40613 0.0
Co201 Co 0.92263 0.3481 0.41105 0.0
O202 O 0.93814 0.34491 0.3968 0.0
C203 C 0.95204 0.39095 0.42251 0.0
C204 C 0.98622 0.3661 0.44132 0.0
C205 C 0.95859 0.35073 0.39651 0.0
O206 O 0.96689 0.38536 0.42381 0.0
O207 O 0.93246 0.3776 0.41874 0.0
O208 O 0.9579 0.32473 0.4248 0.0
O209 O 0.93476 0.33702 0.42302 0.0
Co210 Co 0.97258 0.37157 0.24708 0.0
O211 O 0.97006 0.37179 0.22978 0.0
O212 O 0.9877 0.35757 0.23958 0.0
C213 C 0.98161 0.40709 0.24971 0.0
O214 O 0.97905 0.3696 0.26507 0.0
Co215 Co 0.94033 0.3798 0.26279 0.0
O216 O 0.96212 0.38453 0.27563 0.0
C217 C 0.92441 0.33637 0.25121 0.0
C218 C 0.98163 0.36202 0.22926 0.0
C219 C 0.97549 0.37715 0.27502 0.0
O220 O 0.94425 0.34218 0.24792 0.0
O221 O 0.91924 0.34958 0.25638 0.0
O222 O 0.99672 0.40227 0.24679 0.0
O223 O 0.96166 0.39068 0.2498 0.0
Co224 Co 0.68801 0.63084 0.24802 0.0
O225 O 0.68889 0.62795 0.23077 0.0
O226 O 0.70099 0.65977 0.24034 0.0
C227 C 0.65292 0.60313 0.25025 0.0
O228 O 0.68862 0.63941 0.26589 0.0
Co229 Co 0.68107 0.59132 0.2642 0.0
O230 O 0.67492 0.60791 0.2767 0.0
C231 C 0.72433 0.61974 0.25269 0.0
C232 C 0.69765 0.64918 0.2301 0.0
C233 C 0.68121 0.62843 0.27588 0.0
O234 O 0.71806 0.63346 0.24947 0.0
O235 O 0.71141 0.60115 0.25775 0.0
O236 O 0.65686 0.6227 0.24713 0.0
O237 O 0.66999 0.60067 0.25079 0.0
Co238 Co 0.4258 0.08589 0.24778 0.0
O239 O 0.4282 0.08693 0.23046 0.0
O240 O 0.39655 0.06966 0.24044 0.0
C241 C 0.45282 0.07779 0.25093 0.0
O242 O 0.41798 0.08107 0.26591 0.0
Co243 Co 0.46664 0.12081 0.26229 0.0
O244 O 0.44976 0.1017 0.27613 0.0
C245 C 0.43864 0.13438 0.2493 0.0
C246 C 0.4069 0.07516 0.23004 0.0
C247 C 0.42927 0.08722 0.27587 0.0
O248 O 0.42417 0.11394 0.24756 0.0
O249 O 0.45761 0.14063 0.254 0.0
O250 O 0.43294 0.06215 0.24836 0.0
O251 O 0.45593 0.09757 0.25033 0.0
Co252 Co 0.69047 0.08594 0.24706 0.0
O253 O 0.6916 0.09113 0.22991 0.0
O254 O 0.70404 0.07109 0.23881 0.0
C255 C 0.65511 0.07762 0.24932 0.0
O256 O 0.69122 0.07681 0.26468 0.0
Co257 Co 0.68189 0.11585 0.26456 0.0
O258 O 0.67498 0.09145 0.27609 0.0
C259 C 0.72585 0.13297 0.25322 0.0
C260 C 0.70079 0.07908 0.22883 0.0
C261 C 0.68263 0.07841 0.27474 0.0
O262 O 0.72009 0.11363 0.24902 0.0
O263 O 0.71252 0.13745 0.25885 0.0
O264 O 0.65954 0.06253 0.24577 0.0
O265 O 0.67188 0.09724 0.25037 0.0
Co266 Co 0.97368 0.63526 0.24777 0.0
O267 O 0.968 0.63 0.2307 0.0
O268 O 0.98809 0.66306 0.23897 0.0
C269 C 0.98227 0.60852 0.25064 0.0
O270 O 0.98353 0.6466 0.26511 0.0
Co271 Co 0.94481 0.59854 0.2663 0.0
O272 O 0.96986 0.61676 0.27731 0.0
C273 C 0.9273 0.62492 0.25482 0.0
C274 C 0.97997 0.65116 0.2292 0.0
C275 C 0.98269 0.63728 0.27536 0.0
O276 O 0.94608 0.63734 0.2497 0.0
O277 O 0.92314 0.60793 0.26119 0.0
O278 O 0.9971 0.62782 0.24667 0.0
O279 O 0.9626 0.60556 0.25179 0.0
Co280 Co 0.4218 0.36676 0.24881 0.0
O281 O 0.427 0.36819 0.23164 0.0
O282 O 0.39398 0.35448 0.24004 0.0
C283 C 0.44891 0.40159 0.25271 0.0
O284 O 0.41055 0.36353 0.26633 0.0
Co285 Co 0.45895 0.37181 0.26642 0.0
O286 O 0.43897 0.37191 0.27909 0.0
C287 C 0.43224 0.32988 0.25331 0.0
C288 C 0.40585 0.35911 0.23019 0.0
C289 C 0.41904 0.36685 0.27706 0.0
O290 O 0.41938 0.33673 0.24937 0.0
O291 O 0.44977 0.34198 0.25945 0.0
O292 O 0.42971 0.39787 0.24897 0.0
O293 O 0.45151 0.38459 0.25295 0.0
Co294 Co 0.41841 0.35675 0.42454 0.0
O295 O 0.42345 0.35679 0.44166 0.0
O296 O 0.40381 0.37014 0.43326 0.0
C297 C 0.40985 0.32143 0.42159 0.0
O298 O 0.40927 0.3584 0.40702 0.0
Co299 Co 0.44852 0.34908 0.40671 0.0
O300 O 0.42436 0.34307 0.39521 0.0
C301 C 0.46569 0.39227 0.41889 0.0
C302 C 0.41155 0.36606 0.4431 0.0
C303 C 0.41109 0.35039 0.39679 0.0
O304 O 0.44625 0.3864 0.42296 0.0
O305 O 0.47021 0.37918 0.41303 0.0
O306 O 0.39486 0.3258 0.4254 0.0
O307 O 0.42953 0.33818 0.42073 0.0
Co308 Co 0.70109 0.09145 0.42411 0.0
O309 O 0.69963 0.09518 0.44127 0.0
O310 O 0.68743 0.0629 0.43219 0.0
C311 C 0.73644 0.11866 0.42208 0.0
O312 O 0.70078 0.08176 0.40649 0.0
Co313 Co 0.70976 0.12984 0.40658 0.0
O314 O 0.71772 0.11283 0.39528 0.0
C315 C 0.66529 0.10221 0.4172 0.0
C316 C 0.69054 0.07393 0.44224 0.0
C317 C 0.71002 0.09215 0.39659 0.0
O318 O 0.67141 0.08929 0.42194 0.0
O319 O 0.67847 0.11987 0.41141 0.0
O320 O 0.732 0.0991 0.42556 0.0
O321 O 0.71965 0.12147 0.42093 0.0
Co322 Co 0.96532 0.63929 0.42399 0.0
O323 O 0.96111 0.63491 0.44119 0.0
O324 O 0.9937 0.6538 0.43225 0.0
C325 C 0.93891 0.64835 0.42123 0.0
O326 O 0.97548 0.64769 0.40636 0.0
Co327 Co 0.92698 0.60919 0.40656 0.0
O328 O 0.94478 0.63309 0.39484 0.0
C329 C 0.95353 0.59199 0.41809 0.0
C330 C 0.98238 0.64652 0.44227 0.0
C331 C 0.96547 0.64595 0.39621 0.0
O332 O 0.96669 0.61124 0.42251 0.0
O333 O 0.93603 0.58749 0.41212 0.0
O334 O 0.95853 0.66321 0.42478 0.0
O335 O 0.93551 0.62846 0.42052 0.0
Co336 Co 0.36857 0.97149 0.75784 0.0
O337 O 0.3691 0.96705 0.77499 0.0
O338 O 0.35458 0.98554 0.76645 0.0
C339 C 0.4041 0.98113 0.75465 0.0
O340 O 0.36608 0.97992 0.74033 0.0
Co341 Co 0.37683 0.94175 0.74009 0.0
O342 O 0.3818 0.96539 0.72838 0.0
C343 C 0.33408 0.92362 0.7528 0.0
C344 C 0.35919 0.97839 0.77633 0.0
C345 C 0.37402 0.97823 0.73007 0.0
O346 O 0.33941 0.9431 0.75655 0.0
O347 O 0.34738 0.91937 0.74696 0.0
O348 O 0.39914 0.99575 0.7584 0.0
O349 O 0.3878 0.96115 0.75399 0.0
Co350 Co 0.08342 0.4238 0.75773 0.0
O351 O 0.08842 0.42581 0.77493 0.0
O352 O 0.06821 0.39449 0.76488 0.0
C353 C 0.07523 0.45111 0.75664 0.0
O354 O 0.07453 0.41589 0.7399 0.0
Co355 Co 0.11378 0.46395 0.74136 0.0
O356 O 0.08975 0.4478 0.72941 0.0
C357 C 0.13038 0.43556 0.75117 0.0
C358 C 0.07625 0.4045 0.77518 0.0
C359 C 0.07653 0.42705 0.73018 0.0
O360 O 0.111 0.42186 0.75524 0.0
O361 O 0.13513 0.45394 0.74612 0.0
O362 O 0.06011 0.43127 0.75969 0.0
O363 O 0.0949 0.45409 0.75547 0.0
Co364 Co 0.63196 0.68872 0.7574 0.0
O365 O 0.62742 0.68891 0.77456 0.0
O366 O 0.66018 0.70257 0.76583 0.0
C367 C 0.60551 0.65322 0.75468 0.0
O368 O 0.64246 0.69052 0.73984 0.0
Co369 Co 0.59385 0.68019 0.73967 0.0
O370 O 0.61205 0.67433 0.72809 0.0
C371 C 0.61916 0.72347 0.75189 0.0
C372 C 0.64866 0.69853 0.77577 0.0
C373 C 0.63272 0.68225 0.72965 0.0
O374 O 0.63317 0.71806 0.75581 0.0
O375 O 0.60155 0.71009 0.74612 0.0
O376 O 0.62507 0.65792 0.75829 0.0
O377 O 0.60226 0.66977 0.75379 0.0
Co378 Co 0.6394 0.70361 0.58048 0.0
O379 O 0.63453 0.70392 0.56336 0.0
O380 O 0.65352 0.68981 0.57176 0.0
C381 C 0.64883 0.73909 0.58369 0.0
O382 O 0.64823 0.7013 0.59793 0.0
Co383 Co 0.60986 0.71171 0.59848 0.0
O384 O 0.63385 0.71701 0.61 0.0
C385 C 0.59183 0.66876 0.58593 0.0
C386 C 0.64599 0.69416 0.56193 0.0
C387 C 0.64671 0.70928 0.60821 0.0
O388 O 0.61122 0.6743 0.58193 0.0
O389 O 0.5876 0.68198 0.59188 0.0
O390 O 0.66346 0.73428 0.5798 0.0
O391 O 0.62892 0.72268 0.58446 0.0
Co392 Co 0.35608 0.9665 0.58051 0.0
O393 O 0.35566 0.96262 0.56327 0.0
O394 O 0.36992 0.99509 0.5724 0.0
C395 C 0.32061 0.94015 0.5834 0.0
O396 O 0.35838 0.97617 0.59829 0.0
Co397 Co 0.34795 0.92728 0.59729 0.0
O398 O 0.34277 0.94505 0.60952 0.0
C399 C 0.39071 0.95302 0.58474 0.0
C400 C 0.3654 0.9839 0.5623 0.0
C401 C 0.35049 0.96579 0.60839 0.0
O402 O 0.38538 0.96744 0.58151 0.0
O403 O 0.3774 0.935 0.59019 0.0
O404 O 0.32534 0.95988 0.5801 0.0
O405 O 0.33708 0.93672 0.58381 0.0
Co406 Co 0.09128 0.41812 0.5803 0.0
O407 O 0.0945 0.42331 0.56313 0.0
O408 O 0.0625 0.403 0.5725 0.0
C409 C 0.11843 0.40983 0.58208 0.0
O410 O 0.0822 0.40897 0.59801 0.0
Co411 Co 0.13046 0.44817 0.59737 0.0
O412 O 0.11361 0.42368 0.60895 0.0
C413 C 0.10275 0.46501 0.58685 0.0
C414 C 0.07326 0.41101 0.56238 0.0
C415 C 0.09289 0.41058 0.60787 0.0
O416 O 0.08927 0.44574 0.58255 0.0
O417 O 0.12077 0.46958 0.59227 0.0
O418 O 0.0988 0.39479 0.57869 0.0
O419 O 0.12137 0.4295 0.58319 0.0
Co420 Co 0.35558 0.41969 0.5818 0.0
O421 O 0.35602 0.42309 0.56453 0.0
O422 O 0.3697 0.40478 0.5741 0.0
C423 C 0.31997 0.41054 0.58409 0.0
O424 O 0.3568 0.41239 0.59976 0.0
Co425 Co 0.34689 0.45152 0.59761 0.0
O426 O 0.34232 0.42969 0.61038 0.0
C427 C 0.39029 0.46792 0.58599 0.0
C428 C 0.36571 0.41147 0.56385 0.0
C429 C 0.34934 0.41602 0.60973 0.0
O430 O 0.38492 0.44803 0.58301 0.0
O431 O 0.37678 0.4729 0.59095 0.0
O432 O 0.32492 0.39556 0.58108 0.0
O433 O 0.33637 0.43049 0.58447 0.0
Co434 Co 0.63957 0.96588 0.58136 0.0
O435 O 0.63509 0.96108 0.56419 0.0
O436 O 0.65377 0.99398 0.57282 0.0
C437 C 0.64895 0.93974 0.5844 0.0
O438 O 0.64818 0.97675 0.59888 0.0
Co439 Co 0.61017 0.92821 0.5993 0.0
O440 O 0.63455 0.94643 0.61069 0.0
C441 C 0.59222 0.95373 0.58729 0.0
C442 C 0.64658 0.98232 0.56291 0.0
C443 C 0.64711 0.96709 0.60905 0.0
O444 O 0.61134 0.96694 0.58275 0.0
O445 O 0.5881 0.93659 0.59352 0.0
O446 O 0.66365 0.9593 0.5807 0.0
O447 O 0.62902 0.93621 0.58517 0.0
Co448 Co 0.09168 0.70206 0.58102 0.0
O449 O 0.09584 0.7011 0.56387 0.0
O450 O 0.0633 0.68818 0.57276 0.0
C451 C 0.11848 0.73754 0.58331 0.0
O452 O 0.08159 0.70114 0.5986 0.0
Co453 Co 0.12995 0.71085 0.59868 0.0
O454 O 0.11228 0.71769 0.61012 0.0
C455 C 0.10309 0.6666 0.58768 0.0
C456 C 0.0746 0.69172 0.56276 0.0
C457 C 0.09159 0.7098 0.6087 0.0
O458 O 0.08996 0.67254 0.58303 0.0
O459 O 0.12064 0.67986 0.59353 0.0
O460 O 0.09893 0.73291 0.57972 0.0
O461 O 0.12153 0.72088 0.58441 0.0
Co462 Co 0.08444 0.68812 0.75762 0.0
O463 O 0.08935 0.68845 0.77478 0.0
O464 O 0.07029 0.70217 0.76605 0.0
C465 C 0.07522 0.65256 0.75495 0.0
O466 O 0.07539 0.68974 0.7401 0.0
Co467 Co 0.11342 0.67933 0.73962 0.0
O468 O 0.08861 0.67251 0.72841 0.0
C469 C 0.13147 0.72331 0.75106 0.0
C470 C 0.07776 0.69812 0.77599 0.0
C471 C 0.07614 0.68073 0.73001 0.0
O472 O 0.11255 0.71743 0.75588 0.0
O473 O 0.13545 0.71017 0.74485 0.0
O474 O 0.06052 0.65744 0.75865 0.0
O475 O 0.09507 0.66901 0.75395 0.0
Co476 Co 0.36714 0.42385 0.75671 0.0
O477 O 0.36548 0.42681 0.77391 0.0
O478 O 0.35325 0.39489 0.76445 0.0
C479 C 0.4026 0.45107 0.75499 0.0
O480 O 0.36726 0.41524 0.73887 0.0
Co481 Co 0.37594 0.46374 0.74029 0.0
O482 O 0.38244 0.4469 0.72813 0.0
C483 C 0.33154 0.43547 0.75066 0.0
C484 C 0.35632 0.40555 0.77465 0.0
C485 C 0.37549 0.42625 0.72895 0.0
O486 O 0.33747 0.42189 0.75466 0.0
O487 O 0.3449 0.45379 0.74549 0.0
O488 O 0.39805 0.43135 0.75818 0.0
O489 O 0.38584 0.45397 0.75405 0.0
Co490 Co 0.63096 0.97202 0.75787 0.0
O491 O 0.62616 0.96682 0.775 0.0
O492 O 0.65903 0.98624 0.76645 0.0
C493 C 0.60462 0.98118 0.7551 0.0
O494 O 0.64172 0.98123 0.74037 0.0
Co495 Co 0.59329 0.94284 0.73986 0.0
O496 O 0.61134 0.96755 0.72863 0.0
C497 C 0.6196 0.92514 0.75117 0.0
C498 C 0.64737 0.97848 0.77632 0.0
C499 C 0.63202 0.98018 0.73021 0.0
O500 O 0.63242 0.94405 0.75607 0.0
O501 O 0.60244 0.921 0.74497 0.0
O502 O 0.62409 0.99586 0.75892 0.0
O503 O 0.60126 0.96133 0.75412 0.0
H504 H 0.0847 0.2846 0.08128 0.0
H505 H 0.12277 0.29269 0.07897 0.0
H506 H 0.1465 0.36038 0.08935 0.0
H507 H 0.10832 0.35236 0.09181 0.0
H508 H 0.15833 0.32491 0.06435 0.0
H509 H 0.17546 0.33782 0.11403 0.0
H510 H 0.14778 0.32481 0.10799 0.0
H511 H 0.16545 0.35417 0.10677 0.0
C512 C 0.098 0.30125 0.083 0.0
C513 C 0.09355 0.31781 0.08684 0.0
C514 C 0.11973 0.30585 0.08164 0.0
C515 C 0.1374 0.32705 0.08413 0.0
C516 C 0.13305 0.34384 0.08755 0.0
H517 H 0.27412 0.3548 0.09211 0.0
H518 H 0.24322 0.36177 0.08966 0.0
C519 C 0.11127 0.33925 0.08891 0.0
C520 C 0.16024 0.33102 0.08361 0.0
H521 H 0.20317 0.33867 0.10168 0.0
C522 C 0.1683 0.32823 0.07248 0.0
C523 C 0.17321 0.33546 0.09422 0.0
C524 C 0.16509 0.33812 0.10647 0.0
C525 C 0.1887 0.329 0.07174 0.0
C526 C 0.20112 0.33226 0.08246 0.0
C527 C 0.1936 0.33619 0.09348 0.0
C528 C 0.22055 0.32914 0.08273 0.0
C529 C 0.19658 0.32591 0.05953 0.0
C530 C 0.218 0.30852 0.07964 0.0
C531 C 0.2355 0.3045 0.08106 0.0
C532 C 0.25587 0.32098 0.08566 0.0
C533 C 0.25861 0.34181 0.0885 0.0
C534 C 0.24101 0.34582 0.08711 0.0
H535 H 0.18953 0.33109 0.05202 0.0
H536 H 0.21487 0.33544 0.05889 0.0
H537 H 0.19105 0.30815 0.05822 0.0
H538 H 0.20222 0.29524 0.07653 0.0
H539 H 0.23285 0.28826 0.07882 0.0
H540 H 0.70351 0.94548 0.09001 0.0
H541 H 0.6982 0.90808 0.08829 0.0
H542 H 0.76667 0.93566 0.07842 0.0
H543 H 0.77218 0.97287 0.08024 0.0
H544 H 0.70763 0.88519 0.06856 0.0
H545 H 0.75815 0.89944 0.11004 0.0
H546 H 0.74667 0.91667 0.10599 0.0
H547 H 0.77137 0.92053 0.09869 0.0
C548 C 0.71734 0.94352 0.08733 0.0
C549 C 0.73833 0.96206 0.08541 0.0
C550 C 0.71426 0.92219 0.08634 0.0
C551 C 0.73214 0.91923 0.08342 0.0
C552 C 0.75278 0.93768 0.08086 0.0
H553 H 0.76989 0.82195 0.07766 0.0
H554 H 0.7645 0.85376 0.07597 0.0
C555 C 0.75588 0.95892 0.0819 0.0
C556 C 0.7299 0.89708 0.0838 0.0
H557 H 0.7507 0.86811 0.09806 0.0
C558 C 0.71679 0.88126 0.07508 0.0
C559 C 0.74172 0.89204 0.09242 0.0
C560 C 0.75511 0.90797 0.1024 0.0
C561 C 0.71611 0.86084 0.0744 0.0
C562 C 0.72878 0.85632 0.08268 0.0
C563 C 0.74118 0.8718 0.09166 0.0
C564 C 0.73048 0.83614 0.08193 0.0
C565 C 0.70261 0.84457 0.06461 0.0
C566 C 0.71294 0.81563 0.08562 0.0
C567 C 0.71598 0.79736 0.08662 0.0
C568 C 0.73665 0.79948 0.08402 0.0
C569 C 0.75382 0.81982 0.07978 0.0
C570 C 0.75077 0.838 0.07879 0.0
H571 H 0.69557 0.85155 0.0581 0.0
H572 H 0.71294 0.83932 0.05954 0.0
H573 H 0.68884 0.82962 0.06885 0.0
H574 H 0.69724 0.814 0.08821 0.0
H575 H 0.70247 0.78187 0.08991 0.0
H576 H 0.08065 0.82537 0.07837 0.0
H577 H 0.11793 0.85706 0.07689 0.0
H578 H 0.14513 0.81562 0.08638 0.0
H579 H 0.10772 0.78362 0.08776 0.0
H580 H 0.14601 0.87053 0.09769 0.0
H581 H 0.1846 0.85425 0.05769 0.0
H582 H 0.15501 0.841 0.05961 0.0
H583 H 0.17071 0.83223 0.06852 0.0
C584 C 0.09455 0.82288 0.07992 0.0
C585 C 0.09129 0.80208 0.08327 0.0
C586 C 0.11583 0.84099 0.07905 0.0
C587 C 0.13423 0.83863 0.08148 0.0
C588 C 0.13112 0.81769 0.0843 0.0
H589 H 0.2702 0.9469 0.09301 0.0
H590 H 0.23816 0.90952 0.09091 0.0
C591 C 0.10976 0.79948 0.08514 0.0
C592 C 0.15627 0.85859 0.08241 0.0
H593 H 0.20697 0.8868 0.06893 0.0
C594 C 0.15938 0.87403 0.09144 0.0
C595 C 0.17368 0.86292 0.07433 0.0
C596 C 0.17095 0.84685 0.06442 0.0
C597 C 0.17928 0.894 0.09243 0.0
C598 C 0.19641 0.89875 0.08407 0.0
C599 C 0.19369 0.88302 0.07529 0.0
C600 C 0.21652 0.92071 0.0839 0.0
C601 C 0.18176 0.91008 0.1023 0.0
C602 C 0.21495 0.93912 0.08035 0.0
C603 C 0.23303 0.96031 0.08158 0.0
C604 C 0.25305 0.96347 0.08635 0.0
C605 C 0.25493 0.94493 0.08935 0.0
C606 C 0.23673 0.92362 0.08813 0.0
H607 H 0.16927 0.90197 0.1096 0.0
H608 H 0.1985 0.91779 0.10641 0.0
H609 H 0.17955 0.92343 0.09831 0.0
H610 H 0.19948 0.9371 0.07699 0.0
H611 H 0.23111 0.97425 0.07909 0.0
H612 H 0.32277 0.09548 0.93787 0.0
H613 H 0.32715 0.1325 0.94 0.0
H614 H 0.32806 0.13874 0.90099 0.0
H615 H 0.32383 0.10183 0.89886 0.0
H616 H 0.36057 0.17697 0.92875 0.0
H617 H 0.27291 0.14227 0.91489 0.0
H618 H 0.28384 0.12522 0.92021 0.0
H619 H 0.28948 0.13593 0.905 0.0
C620 C 0.32426 0.10497 0.92979 0.0
C621 C 0.32297 0.09606 0.91821 0.0
C622 C 0.32683 0.12605 0.93101 0.0
C623 C 0.32781 0.13819 0.92065 0.0
C624 C 0.32733 0.12955 0.90907 0.0
H625 H 0.35049 0.27039 0.90963 0.0
H626 H 0.35525 0.23814 0.91181 0.0
C627 C 0.32497 0.1086 0.90786 0.0
C628 C 0.32735 0.15898 0.92186 0.0
H629 H 0.29433 0.18106 0.91668 0.0
C630 C 0.3461 0.17796 0.92619 0.0
C631 C 0.3083 0.15997 0.91869 0.0
C632 C 0.28738 0.13975 0.91452 0.0
C633 C 0.34645 0.19819 0.92714 0.0
C634 C 0.32764 0.19937 0.92351 0.0
C635 C 0.30877 0.18019 0.91943 0.0
C636 C 0.32695 0.22023 0.92361 0.0
C637 C 0.36681 0.21797 0.93215 0.0
C638 C 0.30952 0.22093 0.92951 0.0
C639 C 0.30651 0.23906 0.92805 0.0
C640 C 0.321 0.25696 0.92075 0.0
C641 C 0.33916 0.25685 0.91537 0.0
C642 C 0.34198 0.2385 0.91668 0.0
H643 H 0.37659 0.21292 0.9379 0.0
H644 H 0.37746 0.22792 0.92449 0.0
H645 H 0.36246 0.2286 0.93762 0.0
H646 H 0.29773 0.20703 0.9349 0.0
H647 H 0.29245 0.23877 0.93237 0.0
H648 H 0.97399 0.23143 0.92324 0.0
H649 H 0.93622 0.20116 0.92589 0.0
H650 H 0.91138 0.24507 0.91755 0.0
H651 H 0.94931 0.27553 0.91466 0.0
H652 H 0.90206 0.19617 0.94141 0.0
H653 H 0.88047 0.19523 0.89258 0.0
H654 H 0.90859 0.21029 0.89795 0.0
H655 H 0.89027 0.22091 0.90054 0.0
C656 C 0.96052 0.23471 0.92201 0.0
C657 C 0.96457 0.25578 0.91861 0.0
C658 C 0.93895 0.21741 0.92357 0.0
C659 C 0.92103 0.22083 0.92176 0.0
C660 C 0.925 0.24203 0.91878 0.0
H661 H 0.78463 0.11067 0.91553 0.0
H662 H 0.8151 0.14858 0.91849 0.0
C663 C 0.94665 0.2594 0.91718 0.0
C664 C 0.89832 0.20178 0.92253 0.0
H665 H 0.85408 0.16731 0.90501 0.0
C666 C 0.89141 0.19 0.9335 0.0
C667 C 0.88444 0.19387 0.91221 0.0
C668 C 0.89127 0.20557 0.90011 0.0
C669 C 0.87134 0.17004 0.93429 0.0
C670 C 0.85805 0.16154 0.9238 0.0
C671 C 0.86435 0.17391 0.91303 0.0
C672 C 0.83898 0.13881 0.92337 0.0
C673 C 0.86478 0.15796 0.94628 0.0
C674 C 0.84236 0.12084 0.92516 0.0
C675 C 0.8251 0.09929 0.92343 0.0
C676 C 0.80416 0.09531 0.91982 0.0
C677 C 0.8006 0.11327 0.91833 0.0
C678 C 0.81795 0.13489 0.92002 0.0
H679 H 0.87244 0.16952 0.95403 0.0
H680 H 0.84657 0.14889 0.94746 0.0
H681 H 0.87062 0.14584 0.94657 0.0
H682 H 0.85858 0.12352 0.92747 0.0
H683 H 0.82836 0.0858 0.92462 0.0
H684 H 0.82586 0.7721 0.92604 0.0
H685 H 0.8574 0.76624 0.92734 0.0
H686 H 0.8168 0.69919 0.91494 0.0
H687 H 0.78488 0.70487 0.91368 0.0
H688 H 0.84981 0.70775 0.93532 0.0
H689 H 0.88433 0.75996 0.89417 0.0
H690 H 0.87586 0.77195 0.90594 0.0
H691 H 0.85556 0.74738 0.89833 0.0
C692 C 0.82351 0.756 0.92375 0.0
C693 C 0.80299 0.73902 0.91961 0.0
C694 C 0.84154 0.75269 0.9245 0.0
C695 C 0.83941 0.7324 0.92108 0.0
C696 C 0.8187 0.71498 0.91759 0.0
H697 H 0.94907 0.70538 0.91326 0.0
H698 H 0.91131 0.69914 0.91489 0.0
C699 C 0.80054 0.71826 0.91685 0.0
C700 C 0.85935 0.7303 0.92024 0.0
H701 H 0.90863 0.75207 0.90538 0.0
C702 C 0.86259 0.71715 0.92869 0.0
C703 C 0.87582 0.74248 0.9115 0.0
C704 C 0.87272 0.7561 0.90188 0.0
C705 C 0.88254 0.71681 0.929 0.0
C706 C 0.89936 0.72984 0.9206 0.0
C707 C 0.89569 0.74223 0.91186 0.0
C708 C 0.92155 0.73223 0.92112 0.0
C709 C 0.88595 0.70338 0.93856 0.0
C710 C 0.93964 0.7528 0.9242 0.0
C711 C 0.96107 0.75643 0.92324 0.0
C712 C 0.96482 0.73956 0.91911 0.0
C713 C 0.94664 0.71866 0.91647 0.0
C714 C 0.9251 0.71504 0.91744 0.0
H715 H 0.87215 0.69601 0.94521 0.0
H716 H 0.88729 0.68983 0.93413 0.0
H717 H 0.90163 0.71385 0.94352 0.0
H718 H 0.93717 0.76627 0.92703 0.0
H719 H 0.97471 0.77267 0.92539 0.0
H720 H 0.7768 0.68903 0.4222 0.0
H721 H 0.81463 0.69639 0.41896 0.0
H722 H 0.78935 0.6278 0.41006 0.0
H723 H 0.75171 0.62035 0.41323 0.0
H724 H 0.83335 0.67576 0.43237 0.0
H725 H 0.83501 0.6601 0.38322 0.0
H726 H 0.81466 0.6656 0.38995 0.0
H727 H 0.8113 0.63837 0.39073 0.0
C728 C 0.77934 0.67562 0.41936 0.0
C729 C 0.76135 0.6541 0.418 0.0
C730 C 0.80091 0.67986 0.41751 0.0
C731 C 0.80473 0.66271 0.4141 0.0
C732 C 0.78673 0.64136 0.41242 0.0
H733 H 0.89695 0.61984 0.41388 0.0
H734 H 0.86683 0.62755 0.41107 0.0
C735 C 0.76524 0.6371 0.41433 0.0
C736 C 0.82742 0.66632 0.41354 0.0
H737 H 0.8618 0.65704 0.39565 0.0
C738 C 0.83987 0.67219 0.42428 0.0
C739 C 0.83579 0.66163 0.40296 0.0
C740 C 0.82358 0.65628 0.39103 0.0
C741 C 0.85979 0.67197 0.42497 0.0
C742 C 0.86759 0.66613 0.41455 0.0
C743 C 0.85573 0.66145 0.40363 0.0
C744 C 0.8866 0.6624 0.4152 0.0
C745 C 0.87156 0.67658 0.43704 0.0
C746 C 0.90783 0.67957 0.41817 0.0
C747 C 0.9251 0.67517 0.41986 0.0
C748 C 0.92136 0.65356 0.41852 0.0
C749 C 0.9003 0.63663 0.41505 0.0
C750 C 0.8831 0.64102 0.41339 0.0
H751 H 0.86131 0.67699 0.44464 0.0
H752 H 0.87617 0.66384 0.43908 0.0
H753 H 0.88695 0.69286 0.43665 0.0
H754 H 0.91092 0.69625 0.41941 0.0
H755 H 0.94121 0.68857 0.42245 0.0
H756 H 0.43783 0.30944 0.41163 0.0
H757 H 0.43227 0.27225 0.40969 0.0
H758 H 0.36639 0.24503 0.42411 0.0
H759 H 0.37174 0.28241 0.42597 0.0
H760 H 0.42274 0.24521 0.43078 0.0
H761 H 0.35932 0.20433 0.39459 0.0
H762 H 0.37576 0.23403 0.39595 0.0
H763 H 0.35359 0.2186 0.40639 0.0
C764 C 0.422 0.29555 0.4142 0.0
C765 C 0.40526 0.29881 0.41904 0.0
C766 C 0.41885 0.27431 0.41306 0.0
C767 C 0.39891 0.25594 0.4167 0.0
C768 C 0.38178 0.25901 0.42108 0.0
H769 H 0.37206 0.12009 0.42591 0.0
H770 H 0.36717 0.15247 0.42457 0.0
C771 C 0.3849 0.28035 0.42219 0.0
C772 C 0.39727 0.23405 0.41718 0.0
H773 H 0.37225 0.18273 0.40429 0.0
C774 C 0.41165 0.23153 0.42502 0.0
C775 C 0.38257 0.21621 0.40975 0.0
C776 C 0.36697 0.21831 0.40112 0.0
C777 C 0.4121 0.21176 0.42547 0.0
C778 C 0.39805 0.19419 0.41771 0.0
C779 C 0.38308 0.19636 0.41015 0.0
C780 C 0.39962 0.17391 0.41707 0.0
C781 C 0.42773 0.20989 0.43422 0.0
C782 C 0.41918 0.17519 0.41292 0.0
C783 C 0.42207 0.1569 0.41375 0.0
C784 C 0.40536 0.13695 0.41865 0.0
C785 C 0.38525 0.13531 0.42215 0.0
C786 C 0.38241 0.15372 0.42137 0.0
H787 H 0.433 0.22234 0.44161 0.0
H788 H 0.41998 0.19317 0.43835 0.0
H789 H 0.44272 0.21273 0.42924 0.0
H790 H 0.43252 0.19059 0.40941 0.0
H791 H 0.43766 0.1586 0.41085 0.0
H792 H 0.93925 0.2819 0.42268 0.0
H793 H 0.9083 0.24433 0.4195 0.0
H794 H 0.86463 0.27043 0.41386 0.0
H795 H 0.89533 0.30785 0.41694 0.0
H796 H 0.87002 0.22431 0.4337 0.0
H797 H 0.84924 0.2273 0.38549 0.0
H798 H 0.87548 0.24714 0.39204 0.0
H799 H 0.85157 0.25012 0.39415 0.0
C800 C 0.92309 0.27961 0.42061 0.0
C801 C 0.91967 0.29778 0.42007 0.0
C802 C 0.90548 0.25818 0.41878 0.0
C803 C 0.88429 0.25467 0.41625 0.0
C804 C 0.88096 0.27283 0.41552 0.0
H805 H 0.7493 0.16115 0.41623 0.0
H806 H 0.78686 0.19188 0.41378 0.0
C807 C 0.89849 0.29419 0.41738 0.0
C808 C 0.86513 0.23203 0.41544 0.0
H809 H 0.82047 0.19909 0.39781 0.0
C810 C 0.85938 0.21852 0.42578 0.0
C811 C 0.85139 0.2246 0.40507 0.0
C812 C 0.85734 0.23797 0.39351 0.0
C813 C 0.83939 0.19841 0.42634 0.0
C814 C 0.82507 0.19151 0.41617 0.0
C815 C 0.83145 0.20447 0.4056 0.0
C816 C 0.80246 0.17223 0.4168 0.0
C817 C 0.83317 0.18546 0.43806 0.0
C818 C 0.79875 0.15087 0.41907 0.0
C819 C 0.77722 0.13324 0.42059 0.0
C820 C 0.75913 0.13672 0.41973 0.0
C821 C 0.7629 0.15796 0.41699 0.0
C822 C 0.78436 0.17553 0.41555 0.0
H823 H 0.84408 0.19518 0.4457 0.0
H824 H 0.81582 0.18009 0.44057 0.0
H825 H 0.83461 0.17047 0.43686 0.0
H826 H 0.8125 0.1479 0.41982 0.0
H827 H 0.77476 0.11698 0.42258 0.0
H828 H 0.02143 0.44531 0.24798 0.0
H829 H 0.02872 0.48313 0.2512 0.0
H830 H 0.9604 0.45766 0.26081 0.0
H831 H 0.95304 0.42004 0.25769 0.0
H832 H 0.00779 0.50191 0.23822 0.0
H833 H 0.9932 0.50318 0.28754 0.0
H834 H 0.99842 0.4828 0.2806 0.0
H835 H 0.97124 0.4796 0.28008 0.0
C836 C 0.00807 0.44781 0.25096 0.0
C837 C 0.98666 0.42976 0.25256 0.0
C838 C 0.01226 0.46937 0.2528 0.0
C839 C 0.99517 0.47314 0.25642 0.0
C840 C 0.97393 0.45509 0.25829 0.0
H841 H 0.95356 0.56671 0.25819 0.0
H842 H 0.96073 0.53614 0.26058 0.0
C843 C 0.96971 0.4336 0.2564 0.0
C844 C -0.00126 0.49583 0.2571 0.0
H845 H 0.99009 0.53021 0.27538 0.0
C846 C 0.00442 0.50839 0.2464 0.0
C847 C 0.99431 0.50413 0.26779 0.0
C848 C 0.98916 0.49181 0.27969 0.0
C849 C 0.00431 0.52839 0.24588 0.0
C850 C -0.0012 0.53617 0.25643 0.0
C851 C 0.99425 0.52416 0.2673 0.0
C852 C 0.99542 0.55543 0.25603 0.0
C853 C 0.00874 0.54028 0.23386 0.0
C854 C 0.0127 0.57655 0.25296 0.0
C855 C 0.00861 0.59407 0.2515 0.0
C856 C 0.98722 0.59072 0.25318 0.0
C857 C 0.9702 0.56978 0.25677 0.0
C858 C 0.97427 0.55231 0.25818 0.0
H859 H 0.00865 0.52995 0.22617 0.0
H860 H 0.99621 0.54528 0.23206 0.0
H861 H 0.0252 0.55546 0.23415 0.0
H862 H 0.02923 0.57937 0.25148 0.0
H863 H 0.02208 0.61009 0.24883 0.0
H864 H 0.64158 0.56191 0.25804 0.0
H865 H 0.60451 0.53006 0.26006 0.0
H866 H 0.57635 0.57022 0.24965 0.0
H867 H 0.6136 0.60244 0.24769 0.0
H868 H 0.55428 0.53854 0.27003 0.0
H869 H 0.56746 0.50114 0.22865 0.0
H870 H 0.58894 0.50973 0.23983 0.0
H871 H 0.58451 0.53005 0.23234 0.0
C872 C 0.62753 0.56407 0.25629 0.0
C873 C 0.63047 0.58459 0.25257 0.0
C874 C 0.60638 0.54586 0.25744 0.0
C875 C 0.5878 0.54779 0.25483 0.0
C876 C 0.59056 0.56846 0.25166 0.0
H877 H 0.44994 0.44107 0.25002 0.0
H878 H 0.48251 0.47815 0.25149 0.0
C879 C 0.6118 0.58678 0.25052 0.0
C880 C 0.5657 0.52782 0.25472 0.0
H881 H 0.53627 0.47779 0.24079 0.0
C882 C 0.55016 0.52532 0.26357 0.0
C883 C 0.56043 0.51076 0.2462 0.0
C884 C 0.57611 0.51305 0.23614 0.0
C885 C 0.52975 0.50562 0.26445 0.0
C886 C 0.52492 0.48826 0.25623 0.0
C887 C 0.54018 0.49111 0.24715 0.0
C888 C 0.50459 0.46651 0.25708 0.0
C889 C 0.51382 0.50309 0.2744 0.0
C890 C 0.50627 0.44784 0.25989 0.0
C891 C 0.48784 0.42677 0.25902 0.0
C892 C 0.4674 0.42398 0.25524 0.0
C893 C 0.46549 0.44275 0.25296 0.0
C894 C 0.48402 0.46391 0.25384 0.0
H895 H 0.52126 0.51695 0.28101 0.0
H896 H 0.49905 0.50256 0.27031 0.0
H897 H 0.5082 0.48731 0.27934 0.0
H898 H 0.52206 0.44957 0.26237 0.0
H899 H 0.48982 0.41264 0.26089 0.0
H900 H 0.49456 0.10761 0.25796 0.0
H901 H 0.52628 0.10201 0.25922 0.0
H902 H 0.48464 0.03321 0.25021 0.0
H903 H 0.45257 0.03861 0.24904 0.0
H904 H 0.51893 0.04391 0.26939 0.0
H905 H 0.55068 0.09155 0.22659 0.0
H906 H 0.54366 0.10527 0.23806 0.0
H907 H 0.52237 0.08005 0.23144 0.0
C908 C 0.49205 0.09121 0.25641 0.0
C909 C 0.47117 0.0736 0.25324 0.0
C910 C 0.51019 0.08805 0.25713 0.0
C911 C 0.50778 0.0673 0.25462 0.0
C912 C 0.48676 0.04936 0.25213 0.0
H913 H 0.61623 0.03865 0.24627 0.0
H914 H 0.57867 0.03285 0.24821 0.0
C915 C 0.46852 0.05249 0.25145 0.0
C916 C 0.52761 0.06502 0.2537 0.0
H917 H 0.57575 0.08482 0.23788 0.0
C918 C 0.53127 0.05257 0.26243 0.0
C919 C 0.54347 0.07617 0.2445 0.0
C920 C 0.53982 0.08886 0.23453 0.0
C921 C 0.55109 0.05199 0.26256 0.0
C922 C 0.56735 0.06407 0.25371 0.0
C923 C 0.56323 0.07572 0.2447 0.0
C924 C 0.58946 0.06629 0.25402 0.0
C925 C 0.555 0.03933 0.2724 0.0
C926 C 0.60776 0.08691 0.25675 0.0
C927 C 0.62907 0.09028 0.25562 0.0
C928 C 0.63246 0.0731 0.25166 0.0
C929 C 0.61407 0.05218 0.24934 0.0
C930 C 0.59266 0.04881 0.25049 0.0
H931 H 0.54151 0.03241 0.27923 0.0
H932 H 0.55627 0.02553 0.26826 0.0
H933 H 0.57088 0.05025 0.27708 0.0
H934 H 0.60555 0.10059 0.25944 0.0
H935 H 0.64288 0.10656 0.25752 0.0
H936 H 0.4178 0.95324 0.7465 0.0
H937 H 0.45572 0.9611 0.74393 0.0
H938 H 0.47998 0.02911 0.75385 0.0
H939 H 0.44191 0.02129 0.75661 0.0
H940 H 0.4914 0.99216 0.72936 0.0
H941 H 0.50831 0.00702 0.77897 0.0
H942 H 0.48071 0.99439 0.77285 0.0
H943 H 0.499 0.0236 0.77131 0.0
C944 C 0.43117 0.96993 0.74804 0.0
C945 C 0.42692 0.9866 0.7519 0.0
C946 C 0.45282 0.9744 0.74653 0.0
C947 C 0.47061 0.99559 0.74886 0.0
C948 C 0.46644 0.01256 0.75218 0.0
H949 H 0.60605 0.02072 0.75811 0.0
H950 H 0.57582 0.02843 0.75492 0.0
C951 C 0.44472 0.00809 0.75372 0.0
C952 C 0.49334 -0.00075 0.7485 0.0
H953 H 0.53573 0.00666 0.76694 0.0
C954 C 0.50127 0.99566 0.73753 0.0
C955 C 0.50617 0.00389 0.75918 0.0
C956 C 0.49816 0.00732 0.77129 0.0
C957 C 0.52138 0.99579 0.73704 0.0
C958 C 0.53362 -0.00075 0.74785 0.0
C959 C 0.52628 0.00402 0.75868 0.0
C960 C 0.55269 0.99559 0.74845 0.0
C961 C 0.52912 0.99176 0.72502 0.0
C962 C 0.54966 0.97459 0.74587 0.0
C963 C 0.56678 0.97014 0.74772 0.0
C964 C 0.58723 0.98657 0.75226 0.0
C965 C 0.59046 0.00776 0.75458 0.0
C966 C 0.57325 0.01219 0.75276 0.0
H967 H 0.5223 0.99673 0.7173 0.0
H968 H 0.54742 0.00092 0.72439 0.0
H969 H 0.52324 0.97386 0.72406 0.0
H970 H 0.53376 0.96139 0.74283 0.0
H971 H 0.56378 0.95364 0.74587 0.0
H972 H 0.10397 0.49314 0.74943 0.0
H973 H 0.09667 0.52362 0.74696 0.0
H974 H 0.02834 0.4804 0.7564 0.0
H975 H 0.03557 0.44971 0.75901 0.0
H976 H 0.06552 0.5276 0.73172 0.0
H977 H 0.05037 0.53185 0.7811 0.0
H978 H 0.06332 0.51686 0.77542 0.0
H979 H 0.0341 0.5056 0.77373 0.0
C980 C 0.08736 0.49006 0.75093 0.0
C981 C 0.07037 0.46909 0.75451 0.0
C982 C 0.08321 0.50747 0.74948 0.0
C983 C 0.06204 0.50428 0.75163 0.0
C984 C 0.04486 0.48323 0.75486 0.0
H985 H 0.03587 0.6144 0.75841 0.0
H986 H 0.02856 0.57642 0.75599 0.0
C987 C 0.049 0.46574 0.75631 0.0
C988 C 0.05847 0.52339 0.75089 0.0
H989 H 0.05066 0.55905 0.76853 0.0
C990 C 0.06197 0.53434 0.73972 0.0
C991 C 0.05371 0.53203 0.76135 0.0
C992 C 0.05028 0.52114 0.77362 0.0
C993 C 0.0616 0.55417 0.73882 0.0
C994 C 0.05803 0.56342 0.7494 0.0
C995 C 0.05339 0.55189 0.76044 0.0
C996 C 0.06141 0.58608 0.74956 0.0
C997 C 0.06544 0.56524 0.72659 0.0
C998 C 0.08226 0.60403 0.74672 0.0
C999 C 0.08647 0.62562 0.74812 0.0
C1000 C 0.06995 0.62969 0.75247 0.0
C1001 C 0.04889 0.61173 0.75502 0.0
C1002 C 0.04469 0.59007 0.75364 0.0
H1003 H 0.06049 0.55303 0.71908 0.0
H1004 H 0.05615 0.57422 0.7257 0.0
H1005 H 0.0833 0.57729 0.72552 0.0
H1006 H 0.09555 0.60135 0.74383 0.0
H1007 H 0.10288 0.63911 0.7461 0.0
H1008 H 0.44132 0.45104 0.75881 0.0
H1009 H 0.47893 0.48293 0.75768 0.0
H1010 H 0.45264 0.52396 0.74577 0.0
H1011 H 0.41522 0.49245 0.74694 0.0
H1012 H 0.50318 0.51509 0.73758 0.0
H1013 H 0.48682 0.55179 0.77822 0.0
H1014 H 0.46997 0.52297 0.77427 0.0
H1015 H 0.46629 0.54353 0.7665 0.0
C1016 C 0.44362 0.46682 0.75582 0.0
C1017 C 0.42535 0.46936 0.75311 0.0
C1018 C 0.46506 0.48495 0.75516 0.0
C1019 C 0.46842 0.50577 0.75181 0.0
C1020 C 0.45029 0.50804 0.74852 0.0
H1021 H 0.56461 0.64046 0.74586 0.0
H1022 H 0.53321 0.60302 0.74456 0.0
C1023 C 0.42894 0.49002 0.7492 0.0
C1024 C 0.49059 0.52558 0.75245 0.0
H1025 H 0.51881 0.57548 0.76665 0.0
C1026 C 0.5068 0.52822 0.74403 0.0
C1027 C 0.49521 0.5425 0.76096 0.0
C1028 C 0.47875 0.54005 0.77058 0.0
C1029 C 0.52721 0.54799 0.74349 0.0
C1030 C 0.53133 0.56526 0.75163 0.0
C1031 C 0.51546 0.5622 0.76036 0.0
C1032 C 0.55129 0.58729 0.75084 0.0
C1033 C 0.54387 0.55073 0.73395 0.0
C1034 C 0.57195 0.59072 0.7546 0.0
C1035 C 0.59002 0.6122 0.75537 0.0
C1036 C 0.58753 0.63043 0.75247 0.0
C1037 C 0.56703 0.62677 0.74822 0.0
C1038 C 0.54907 0.6054 0.74745 0.0
H1039 H 0.53722 0.53661 0.72751 0.0
H1040 H 0.54917 0.5662 0.72875 0.0
H1041 H 0.55872 0.5521 0.73843 0.0
H1042 H 0.57386 0.57691 0.75739 0.0
H1043 H 0.60565 0.61456 0.75869 0.0
H1044 H 0.68851 0.77719 0.58105 0.0
H1045 H 0.69621 0.81511 0.58437 0.0
H1046 H 0.62897 0.79005 0.5961 0.0
H1047 H 0.62124 0.75233 0.59293 0.0
H1048 H 0.67485 0.83362 0.57225 0.0
H1049 H 0.6636 0.8366 0.62179 0.0
H1050 H 0.66787 0.81568 0.61475 0.0
H1051 H 0.64084 0.81291 0.61488 0.0
C1052 C 0.6755 0.7798 0.58453 0.0
C1053 C 0.65426 0.76183 0.5867 0.0
C1054 C 0.67993 0.80143 0.58643 0.0
C1055 C 0.66326 0.80536 0.59066 0.0
C1056 C 0.64223 0.78739 0.59312 0.0
H1057 H 0.62083 0.89801 0.59229 0.0
H1058 H 0.62859 0.86787 0.59487 0.0
C1059 C 0.63778 0.76583 0.5912 0.0
C1060 C 0.6669 0.8281 0.59128 0.0
H1061 H 0.65919 0.863 0.60965 0.0
C1062 C 0.67195 0.84033 0.58048 0.0
C1063 C 0.6631 0.83675 0.60204 0.0
C1064 C 0.65877 0.82488 0.61405 0.0
C1065 C 0.67179 0.8603 0.57994 0.0
C1066 C 0.66682 0.86837 0.59056 0.0
C1067 C 0.66294 0.85672 0.60152 0.0
C1068 C 0.66317 0.88746 0.59015 0.0
C1069 C 0.67555 0.87186 0.56785 0.0
C1070 C 0.68021 0.90861 0.58693 0.0
C1071 C 0.67579 0.9259 0.58539 0.0
C1072 C 0.6543 0.92226 0.58709 0.0
C1073 C 0.63753 0.9013 0.59084 0.0
C1074 C 0.64194 0.88407 0.59236 0.0
H1075 H 0.67542 0.86147 0.56018 0.0
H1076 H 0.66268 0.87644 0.56617 0.0
H1077 H 0.69183 0.88727 0.56795 0.0
H1078 H 0.69678 0.91161 0.58537 0.0
H1079 H 0.68906 0.94194 0.58259 0.0
H1080 H 0.11895 0.77622 0.57845 0.0
H1081 H 0.15087 0.81381 0.57976 0.0
H1082 H 0.19037 0.78762 0.5943 0.0
H1083 H 0.15886 0.75023 0.59293 0.0
H1084 H 0.18182 0.83898 0.6003 0.0
H1085 H 0.22049 0.81973 0.56167 0.0
H1086 H 0.19142 0.80338 0.56514 0.0
H1087 H 0.21126 0.79989 0.5738 0.0
C1088 C 0.13437 0.77855 0.58208 0.0
C1089 C 0.13654 0.76031 0.58544 0.0
C1090 C 0.15252 0.79998 0.58284 0.0
C1091 C 0.17295 0.80334 0.58696 0.0
C1092 C 0.17476 0.78526 0.59095 0.0
H1093 H 0.30803 0.89954 0.5926 0.0
H1094 H 0.27065 0.86817 0.5942 0.0
C1095 C 0.15674 0.76393 0.59016 0.0
C1096 C 0.19296 0.82536 0.58629 0.0
H1097 H 0.2436 0.85241 0.57283 0.0
C1098 C 0.19527 0.84211 0.59421 0.0
C1099 C 0.2103 0.82932 0.57823 0.0
C1100 C 0.20825 0.81222 0.56914 0.0
C1101 C 0.21511 0.86247 0.59472 0.0
C1102 C 0.23277 0.86599 0.58703 0.0
C1103 C 0.23004 0.84953 0.57878 0.0
C1104 C 0.25478 0.88603 0.58774 0.0
C1105 C 0.21744 0.87971 0.60375 0.0
C1106 C 0.25816 0.90659 0.58381 0.0
C1107 C 0.27961 0.92466 0.5829 0.0
C1108 C 0.29788 0.92225 0.58581 0.0
C1109 C 0.2943 0.90187 0.59023 0.0
C1110 C 0.27296 0.88394 0.59117 0.0
H1111 H 0.20341 0.87319 0.61025 0.0
H1112 H 0.23307 0.88601 0.60894 0.0
H1113 H 0.21809 0.89388 0.59882 0.0
H1114 H 0.24432 0.90842 0.58096 0.0
H1115 H 0.28192 0.94019 0.57945 0.0
H1116 H 0.28204 0.37051 0.58219 0.0
H1117 H 0.24398 0.36306 0.58435 0.0
H1118 H 0.2684 0.43157 0.59311 0.0
H1119 H 0.30632 0.43909 0.5911 0.0
H1120 H 0.23243 0.40072 0.60797 0.0
H1121 H 0.21614 0.38461 0.55838 0.0
H1122 H 0.22561 0.36847 0.56637 0.0
H1123 H 0.24369 0.39766 0.5646 0.0
C1124 C 0.27926 0.38391 0.58469 0.0
C1125 C 0.29711 0.40542 0.58637 0.0
C1126 C 0.25755 0.37964 0.58588 0.0
C1127 C 0.25345 0.39684 0.58873 0.0
C1128 C 0.27126 0.4181 0.59088 0.0
H1129 H 0.15957 0.43815 0.59066 0.0
H1130 H 0.18996 0.43094 0.59365 0.0
C1131 C 0.2929 0.42237 0.58969 0.0
C1132 C 0.23075 0.39324 0.58889 0.0
H1133 H 0.18855 0.38529 0.57013 0.0
C1134 C 0.22266 0.39703 0.59974 0.0
C1135 C 0.21807 0.38834 0.57814 0.0
C1136 C 0.22627 0.38465 0.56617 0.0
C1137 C 0.20249 0.39681 0.60005 0.0
C1138 C 0.19038 0.39308 0.58916 0.0
C1139 C 0.19791 0.38815 0.57845 0.0
C1140 C 0.17122 0.39655 0.58837 0.0
C1141 C 0.19455 0.401 0.61195 0.0
C1142 C 0.15067 0.37966 0.58424 0.0
C1143 C 0.13323 0.38377 0.58245 0.0
C1144 C 0.13623 0.40491 0.58464 0.0
C1145 C 0.15674 0.42167 0.58892 0.0
C1146 C 0.17408 0.41754 0.59074 0.0
H1147 H 0.20141 0.39637 0.61979 0.0
H1148 H 0.20019 0.41888 0.61274 0.0
H1149 H 0.17624 0.39166 0.61253 0.0
H1150 H 0.14823 0.36341 0.58224 0.0
H1151 H 0.1176 0.37056 0.57912 0.0
H1152 H 0.02469 0.29079 0.13087 0.0
H1153 H 0.01692 0.29922 0.15113 0.0
H1154 H 0.00299 0.34788 0.13599 0.0
H1155 H 0.01039 0.33919 0.11551 0.0
H1156 H 0.03864 0.339 0.1631 0.0
H1157 H 0.94966 0.31187 0.15785 0.0
H1158 H 0.96441 0.30451 0.14709 0.0
H1159 H 0.96736 0.33157 0.14672 0.0
C1160 C 0.01979 0.30318 0.1318 0.0
C1161 C 0.01812 0.31432 0.12157 0.0
C1162 C 0.01539 0.30798 0.14341 0.0
C1163 C 0.0092 0.32403 0.14508 0.0
C1164 C 0.00734 0.33513 0.13489 0.0
H1165 H 0.97962 0.37879 0.20745 0.0
H1166 H 0.98745 0.36952 0.18746 0.0
C1167 C 0.01164 0.33022 0.1232 0.0
C1168 C 0.00552 0.32952 0.15757 0.0
H1169 H 0.96682 0.33024 0.17615 0.0
C1170 C 0.02292 0.33703 0.16598 0.0
C1171 C 0.98499 0.32687 0.1613 0.0
C1172 C 0.96545 0.31808 0.15282 0.0
C1173 C 0.02051 0.34243 0.17796 0.0
C1174 C -2e-05 0.33983 0.18169 0.0
C1175 C 0.98255 0.33219 0.17329 0.0
C1176 C 0.99639 0.34589 0.19408 0.0
C1177 C 0.04014 0.35144 0.18639 0.0
C1178 C -0.00105 0.33579 0.20453 0.0
C1179 C 0.9947 0.34129 0.21609 0.0
C1180 C 0.98746 0.35667 0.21731 0.0
C1181 C 0.98504 0.36676 0.20683 0.0
C1182 C 0.9895 0.36148 0.19537 0.0
H1183 H 0.05589 0.35771 0.18132 0.0
H1184 H 0.04115 0.36504 0.19208 0.0
H1185 H 0.03841 0.33806 0.19252 0.0
H1186 H 0.00381 0.32337 0.20374 0.0
H1187 H 0.99654 0.33315 0.22401 0.0
H1188 H 0.75464 0.76297 0.13046 0.0
H1189 H 0.74735 0.74876 0.15117 0.0
H1190 H 0.71311 0.68205 0.13744 0.0
H1191 H 0.72002 0.69624 0.11652 0.0
H1192 H 0.69053 0.6894 0.15601 0.0
H1193 H 0.7778 0.72074 0.16927 0.0
H1194 H 0.77263 0.7417 0.1634 0.0
H1195 H 0.76939 0.71961 0.15366 0.0
C1196 C 0.74563 0.74524 0.1318 0.0
C1197 C 0.73801 0.7307 0.12183 0.0
C1198 C 0.74161 0.73716 0.14367 0.0
C1199 C 0.73009 0.71436 0.14586 0.0
C1200 C 0.7222 0.69973 0.13594 0.0
H1201 H 0.69011 0.62939 0.20805 0.0
H1202 H 0.69783 0.64649 0.18807 0.0
C1203 C 0.72617 0.70784 0.12401 0.0
C1204 C 0.72577 0.7059 0.15851 0.0
H1205 H 0.75119 0.70628 0.18512 0.0
C1206 C 0.70379 0.69302 0.16236 0.0
C1207 C 0.74311 0.7108 0.16681 0.0
C1208 C 0.76706 0.7238 0.16307 0.0
C1209 C 0.69867 0.68499 0.1743 0.0
C1210 C 0.716 0.68975 0.18256 0.0
C1211 C 0.73797 0.70284 0.17878 0.0
C1212 C 0.71158 0.67982 0.19485 0.0
C1213 C 0.67475 0.67154 0.17802 0.0
C1214 C 0.71727 0.693 0.20535 0.0
C1215 C 0.71287 0.68323 0.21691 0.0
C1216 C 0.70294 0.66018 0.21809 0.0
C1217 C 0.69768 0.64719 0.20751 0.0
C1218 C 0.70197 0.6569 0.19604 0.0
H1219 H 0.66381 0.67428 0.17181 0.0
H1220 H 0.66959 0.65374 0.17771 0.0
H1221 H 0.67231 0.67562 0.18744 0.0
H1222 H 0.72488 0.71078 0.20459 0.0
H1223 H 0.71717 0.69366 0.22489 0.0
H1224 H 0.29263 0.0249 0.13103 0.0
H1225 H 0.30772 0.03225 0.15155 0.0
H1226 H 0.37322 0.05698 0.13706 0.0
H1227 H 0.35819 0.04975 0.11632 0.0
H1228 H 0.33185 0.01468 0.16291 0.0
H1229 H 0.37961 0.10633 0.16033 0.0
H1230 H 0.35842 0.08962 0.14947 0.0
H1231 H 0.38524 0.09218 0.14845 0.0
C1232 C 0.31029 0.03203 0.13215 0.0
C1233 C 0.32425 0.03682 0.12202 0.0
C1234 C 0.31886 0.03616 0.14392 0.0
C1235 C 0.34158 0.04531 0.14583 0.0
C1236 C 0.35565 0.05019 0.13576 0.0
H1237 H 0.42628 0.0816 0.20798 0.0
H1238 H 0.40897 0.07326 0.18807 0.0
C1239 C 0.34705 0.046 0.12393 0.0
C1240 C 0.3503 0.04927 0.15841 0.0
H1241 H 0.38412 0.08991 0.1781 0.0
C1242 C 0.34322 0.03112 0.16627 0.0
C1243 C 0.365 0.07074 0.16276 0.0
C1244 C 0.37242 0.0909 0.15488 0.0
C1245 C 0.35095 0.03383 0.17829 0.0
C1246 C 0.36581 0.0553 0.1826 0.0
C1247 C 0.37266 0.07346 0.17478 0.0
C1248 C 0.37566 0.0593 0.19493 0.0
C1249 C 0.34371 0.01366 0.18613 0.0
C1250 C 0.36264 0.05411 0.20549 0.0
C1251 C 0.37256 0.05881 0.21702 0.0
C1252 C 0.39562 0.06892 0.21811 0.0
C1253 C 0.40847 0.07388 0.2075 0.0
C1254 C 0.39861 0.06914 0.19607 0.0
H1255 H 0.33613 0.99821 0.18068 0.0
H1256 H 0.3579 0.0148 0.19129 0.0
H1257 H 0.33125 0.01252 0.19278 0.0
H1258 H 0.3449 0.0468 0.20481 0.0
H1259 H 0.36227 0.05492 0.22503 0.0
H1260 H 0.33846 0.00617 0.89109 0.0
H1261 H 0.34673 0.9977 0.87071 0.0
H1262 H 0.30842 0.02397 0.85465 0.0
H1263 H 0.30022 0.03251 0.87474 0.0
H1264 H 0.31582 0.97082 0.85178 0.0
H1265 H 0.36904 0.05805 0.8375 0.0
H1266 H 0.36243 0.05004 0.85322 0.0
H1267 H 0.34269 0.05185 0.84354 0.0
C1268 C 0.33181 0.0101 0.8832 0.0
C1269 C 0.31881 0.02013 0.88453 0.0
C1270 C 0.33655 0.00527 0.87159 0.0
C1271 C 0.32849 0.01059 0.86119 0.0
C1272 C 0.31516 0.02016 0.86254 0.0
H1273 H 0.33662 -0.00023 0.78275 0.0
H1274 H 0.32844 0.00694 0.80343 0.0
C1275 C 0.31041 0.02492 0.87407 0.0
C1276 C 0.33359 0.00595 0.84884 0.0
H1277 H 0.35777 0.03083 0.82201 0.0
C1278 C 0.32515 0.98391 0.84529 0.0
C1279 C 0.3456 0.02309 0.84038 0.0
C1280 C 0.35564 0.04711 0.84385 0.0
C1281 C 0.32797 0.97851 0.83338 0.0
C1282 C 0.33993 0.99566 0.8249 0.0
C1283 C 0.34848 0.01771 0.8285 0.0
C1284 C 0.34446 0.9911 0.81238 0.0
C1285 C 0.31761 0.95446 0.82992 0.0
C1286 C 0.35642 0.98015 0.81059 0.0
C1287 C 0.36098 0.97599 0.79887 0.0
C1288 C 0.35392 0.98291 0.78865 0.0
C1289 C 0.34219 0.99417 0.79043 0.0
C1290 C 0.33754 0.99827 0.80223 0.0
H1291 H 0.30388 0.94372 0.83615 0.0
H1292 H 0.31118 0.95162 0.82048 0.0
H1293 H 0.33027 0.94935 0.83051 0.0
H1294 H 0.36243 0.975 0.81827 0.0
H1295 H 0.37024 0.96746 0.79784 0.0
H1296 H 0.1061 0.41088 0.7925 0.0
H1297 H 0.09905 0.39495 0.81289 0.0
H1298 H 0.02925 0.35784 0.80494 0.0
H1299 H 0.03665 0.37262 0.78419 0.0
H1300 H 0.07883 0.40038 0.83028 0.0
H1301 H 0.03478 0.31062 0.82089 0.0
H1302 H 0.04826 0.3308 0.80906 0.0
H1303 H 0.021 0.32376 0.81415 0.0
C1304 C 0.08933 0.39886 0.79505 0.0
C1305 C 0.07193 0.3927 0.78681 0.0
C1306 C 0.08527 0.38987 0.80672 0.0
C1307 C 0.06361 0.37497 0.81051 0.0
C1308 C 0.04617 0.36871 0.80219 0.0
H1309 H 0.03238 0.35431 0.88851 0.0
H1310 H 0.03913 0.36873 0.86768 0.0
C1311 C 0.05036 0.37721 0.79034 0.0
C1312 C 0.05944 0.36722 0.82336 0.0
H1313 H 0.03346 0.32132 0.84126 0.0
C1314 C 0.06906 0.38304 0.83266 0.0
C1315 C 0.04683 0.34461 0.82654 0.0
C1316 C 0.03734 0.32648 0.81713 0.0
C1317 C 0.06671 0.37695 0.84496 0.0
C1318 C 0.05341 0.35442 0.84816 0.0
C1319 C 0.04356 0.33862 0.83887 0.0
C1320 C 0.05009 0.3466 0.86099 0.0
C1321 C 0.07921 0.39471 0.85431 0.0
C1322 C 0.05349 0.32907 0.86418 0.0
C1323 C 0.04894 0.32041 0.87592 0.0
C1324 C 0.04136 0.3294 0.88483 0.0
C1325 C 0.03859 0.34738 0.88183 0.0
C1326 C 0.04255 0.35567 0.86994 0.0
H1327 H 0.09378 0.40923 0.85024 0.0
H1328 H 0.06823 0.4005 0.85802 0.0
H1329 H 0.085 0.38847 0.86192 0.0
H1330 H 0.05935 0.32179 0.85751 0.0
H1331 H 0.05118 0.30651 0.87802 0.0
H1332 H 0.69254 0.71716 0.78202 0.0
H1333 H 0.70818 0.72477 0.80265 0.0
H1334 H 0.64305 0.70005 0.81767 0.0
H1335 H 0.62738 0.6923 0.7973 0.0
H1336 H 0.7047 0.75198 0.82113 0.0
H1337 H 0.66659 0.66445 0.83575 0.0
H1338 H 0.66864 0.6724 0.81999 0.0
H1339 H 0.64751 0.67194 0.8295 0.0
C1340 C 0.6816 0.71336 0.78973 0.0
C1341 C 0.65872 0.704 0.78803 0.0
C1342 C 0.69053 0.71769 0.80149 0.0
C1343 C 0.67669 0.71258 0.81168 0.0
C1344 C 0.65395 0.70366 0.80996 0.0
H1345 H 0.69685 0.72412 0.89037 0.0
H1346 H 0.68067 0.7168 0.86987 0.0
C1347 C 0.64506 0.69936 0.79827 0.0
C1348 C 0.68588 0.71691 0.82416 0.0
H1349 H 0.68373 0.69166 0.85112 0.0
C1350 C 0.70025 0.73881 0.82768 0.0
C1351 C 0.67982 0.69968 0.8327 0.0
C1352 C 0.66494 0.67577 0.8293 0.0
C1353 C 0.7085 0.744 0.83958 0.0
C1354 C 0.70259 0.72676 0.84811 0.0
C1355 C 0.68815 0.70485 0.84459 0.0
C1356 C 0.71209 0.73106 0.86053 0.0
C1357 C 0.72314 0.76797 0.84296 0.0
C1358 C 0.73499 0.74106 0.86205 0.0
C1359 C 0.74419 0.74533 0.87366 0.0
C1360 C 0.73068 0.73942 0.88404 0.0
C1361 C 0.70766 0.72893 0.88255 0.0
C1362 C 0.69843 0.72475 0.87086 0.0
H1363 H 0.72058 0.77907 0.83679 0.0
H1364 H 0.72006 0.77114 0.85245 0.0
H1365 H 0.74068 0.7723 0.8422 0.0
H1366 H 0.74581 0.7455 0.85424 0.0
H1367 H 0.76198 0.7532 0.87446 0.0
H1368 H 0.05284 0.72177 0.89041 0.0
H1369 H 0.06144 0.71414 0.86992 0.0
H1370 H 0.03565 0.7533 0.8544 0.0
H1371 H 0.02738 0.76121 0.87464 0.0
H1372 H 0.0323 0.69358 0.85047 0.0
H1373 H 0.0958 0.77906 0.83814 0.0
H1374 H 0.08673 0.77087 0.85359 0.0
H1375 H 0.07041 0.77682 0.84328 0.0
C1376 C 0.04921 0.72888 0.88262 0.0
C1377 C 0.03956 0.74219 0.88416 0.0
C1378 C 0.05408 0.72449 0.87094 0.0
C1379 C 0.04953 0.73348 0.86066 0.0
C1380 C 0.03979 0.74663 0.8622 0.0
H1381 H 0.05644 0.72092 0.78205 0.0
H1382 H 0.04888 0.72927 0.80262 0.0
C1383 C 0.03496 0.75101 0.87381 0.0
C1384 C 0.0541 0.72855 0.84823 0.0
H1385 H 0.08162 0.7529 0.82196 0.0
C1386 C 0.04323 0.70652 0.84427 0.0
C1387 C 0.06825 0.74549 0.84012 0.0
C1388 C 0.08114 0.76937 0.84402 0.0
C1389 C 0.04581 0.70101 0.83235 0.0
C1390 C 0.05983 0.71796 0.82424 0.0
C1391 C 0.07074 0.73998 0.82819 0.0
C1392 C 0.06423 0.71301 0.81181 0.0
C1393 C 0.03326 0.67713 0.82844 0.0
C1394 C 0.07561 0.70145 0.81021 0.0
C1395 C 0.08003 0.6968 0.79856 0.0
C1396 C 0.07315 0.70363 0.78823 0.0
C1397 C 0.06188 0.7154 0.78983 0.0
C1398 C 0.05757 0.72017 0.80155 0.0
H1399 H 0.01938 0.66692 0.8347 0.0
H1400 H 0.02661 0.67559 0.81911 0.0
H1401 H 0.04462 0.67035 0.8284 0.0
H1402 H 0.0812 0.69609 0.818 0.0
H1403 H 0.0888 0.68775 0.79768 0.0
H1404 H 0.33495 0.361 0.78003 0.0
H1405 H 0.32552 0.34404 0.80037 0.0
H1406 H 0.35549 0.40877 0.81665 0.0
H1407 H 0.36449 0.42563 0.79663 0.0
H1408 H 0.35325 0.34924 0.81987 0.0
H1409 H 0.29538 0.37816 0.83279 0.0
H1410 H 0.3043 0.37892 0.81732 0.0
H1411 H 0.32164 0.40027 0.82788 0.0
C1412 C 0.33935 0.37154 0.78796 0.0
C1413 C 0.35028 0.39464 0.7867 0.0
C1414 C 0.33399 0.36187 0.79956 0.0
C1415 C 0.33939 0.37515 0.81002 0.0
C1416 C 0.3506 0.39816 0.80872 0.0
H1417 H 0.33494 0.3591 0.88842 0.0
H1418 H 0.34159 0.37319 0.86747 0.0
C1419 C 0.35586 0.40778 0.79723 0.0
C1420 C 0.33408 0.36529 0.82237 0.0
H1421 H 0.30879 0.36519 0.84897 0.0
C1422 C 0.34332 0.35249 0.82619 0.0
C1423 C 0.32119 0.36964 0.83064 0.0
C1424 C 0.30988 0.38232 0.82692 0.0
C1425 C 0.34056 0.34451 0.83815 0.0
C1426 C 0.32804 0.34925 0.84647 0.0
C1427 C 0.31857 0.36178 0.84261 0.0
C1428 C 0.32411 0.34086 0.85913 0.0
C1429 C 0.35153 0.33153 0.84191 0.0
C1430 C 0.31181 0.3181 0.86134 0.0
C1431 C 0.30793 0.31006 0.87323 0.0
C1432 C 0.31625 0.32462 0.88318 0.0
C1433 C 0.32837 0.34747 0.88096 0.0
C1434 C 0.33218 0.35553 0.86901 0.0
H1435 H 0.36468 0.33377 0.83543 0.0
H1436 H 0.35887 0.33651 0.85112 0.0
H1437 H 0.33899 0.3137 0.84219 0.0
H1438 H 0.30509 0.30652 0.85386 0.0
H1439 H 0.29845 0.29236 0.8746 0.0
H1440 H 0.69734 0.00137 0.89116 0.0
H1441 H 0.68017 0.99159 0.87089 0.0
H1442 H 0.74381 0.03271 0.85434 0.0
H1443 H 0.76097 0.04215 0.8743 0.0
H1444 H 0.67977 0.01865 0.85208 0.0
H1445 H 0.72255 0.97402 0.83714 0.0
H1446 H 0.72172 0.98106 0.85284 0.0
H1447 H 0.74117 0.00143 0.84249 0.0
C1448 C 0.7076 0.00827 0.88318 0.0
C1449 C 0.73052 0.02232 0.88433 0.0
C1450 C 0.69781 0.00268 0.87163 0.0
C1451 C 0.71082 0.01102 0.86111 0.0
C1452 C 0.73355 0.02557 0.8623 0.0
H1453 H 0.69088 0.00515 0.78286 0.0
H1454 H 0.70611 0.01315 0.80357 0.0
C1455 C 0.7433 0.03104 0.87376 0.0
C1456 C 0.70088 0.00498 0.8488 0.0
H1457 H 0.70478 0.98342 0.82166 0.0
C1458 C 0.68505 0.01074 0.84546 0.0
C1459 C 0.7079 0.99477 0.84016 0.0
C1460 C 0.72411 0.98726 0.84335 0.0
C1461 C 0.67649 0.00712 0.8336 0.0
C1462 C 0.68374 0.99717 0.82492 0.0
C1463 C 0.6994 0.99121 0.8283 0.0
C1464 C 0.67475 0.9922 0.81239 0.0
C1465 C 0.66018 0.01448 0.83038 0.0
C1466 C 0.65224 0.97744 0.81051 0.0
C1467 C 0.64356 0.97288 0.79877 0.0
C1468 C 0.65724 0.98286 0.78863 0.0
C1469 C 0.67993 0.99726 0.79049 0.0
C1470 C 0.68863 0.00184 0.8023 0.0
H1471 H 0.66082 0.02688 0.83693 0.0
H1472 H 0.66331 0.02167 0.82111 0.0
H1473 H 0.64322 -2e-05 0.83059 0.0
H1474 H 0.64133 0.96941 0.81814 0.0
H1475 H 0.62603 0.96156 0.79767 0.0
H1476 H 0.73601 0.00724 0.12907 0.0
H1477 H 0.72818 0.01599 0.14921 0.0
H1478 H 0.72182 0.06954 0.13415 0.0
H1479 H 0.72901 0.06027 0.11371 0.0
H1480 H 0.75278 0.05342 0.16148 0.0
H1481 H 0.66806 0.04011 0.15582 0.0
H1482 H 0.68059 0.03068 0.14477 0.0
H1483 H 0.68782 0.05924 0.14518 0.0
C1484 C 0.73268 0.02074 0.13 0.0
C1485 C 0.73316 0.03313 0.11982 0.0
C1486 C 0.72822 0.02572 0.14153 0.0
C1487 C 0.72431 0.04335 0.14322 0.0
C1488 C 0.72436 0.05558 0.13304 0.0
H1489 H 0.7042 0.10124 0.20799 0.0
H1490 H 0.71098 0.09284 0.1875 0.0
C1491 C 0.72853 0.05035 0.12138 0.0
C1492 C 0.7215 0.04941 0.15578 0.0
H1493 H 0.68599 0.05552 0.1745 0.0
C1494 C 0.73814 0.05383 0.16434 0.0
C1495 C 0.70241 0.04995 0.15949 0.0
C1496 C 0.6836 0.04455 0.15088 0.0
C1497 C 0.73633 0.05895 0.17646 0.0
C1498 C 0.7172 0.05938 0.1802 0.0
C1499 C 0.70062 0.05512 0.17163 0.0
C1500 C 0.71425 0.06483 0.19286 0.0
C1501 C 0.75512 0.06426 0.18509 0.0
C1502 C 0.71402 0.05198 0.20276 0.0
C1503 C 0.71038 0.05693 0.21459 0.0
C1504 C 0.70655 0.07457 0.21664 0.0
C1505 C 0.70701 0.08747 0.20672 0.0
C1506 C 0.71084 0.08267 0.19497 0.0
H1507 H 0.77071 0.06891 0.18015 0.0
H1508 H 0.75801 0.07796 0.1913 0.0
H1509 H 0.75095 0.04946 0.19067 0.0
H1510 H 0.71617 0.03785 0.20131 0.0
H1511 H 0.7099 0.04658 0.22204 0.0
H1512 H 0.04231 0.75997 0.12956 0.0
H1513 H 0.03416 0.74377 0.14977 0.0
H1514 H 0.99251 0.67926 0.13425 0.0
H1515 H 0.00098 0.69546 0.11376 0.0
H1516 H 0.99368 0.72174 0.16074 0.0
H1517 H 0.03145 0.66833 0.15765 0.0
H1518 H 0.03705 0.68973 0.1467 0.0
H1519 H 0.01163 0.66381 0.146 0.0
C1520 C 0.03152 0.74229 0.13038 0.0
C1521 C 0.02226 0.72897 0.12004 0.0
C1522 C 0.02688 0.73307 0.14198 0.0
C1523 C 0.01287 0.71031 0.14354 0.0
C1524 C 0.00368 0.69683 0.13324 0.0
H1525 H 0.96318 0.62927 0.20797 0.0
H1526 H 0.97097 0.64413 0.1874 0.0
C1527 C 0.00845 0.70609 0.12155 0.0
C1528 C 0.0074 0.70115 0.15603 0.0
H1529 H 0.01172 0.66565 0.17564 0.0
C1530 C 0.99764 0.70948 0.16401 0.0
C1531 C 0.01264 0.68522 0.16027 0.0
C1532 C 0.02395 0.67634 0.15227 0.0
C1533 C 0.99278 0.70218 0.17609 0.0
C1534 C 0.99811 0.68633 0.18035 0.0
C1535 C 0.00773 0.67787 0.17235 0.0
C1536 C 0.99325 0.67779 0.19297 0.0
C1537 C 0.98161 0.71118 0.18412 0.0
C1538 C 0.00324 0.69182 0.20297 0.0
C1539 C -0.00125 0.68337 0.21483 0.0
C1540 C 0.98433 0.66073 0.21683 0.0
C1541 C 0.97437 0.6468 0.20677 0.0
C1542 C 0.97882 0.65524 0.19498 0.0
H1543 H 0.97397 0.71907 0.17875 0.0
H1544 H 0.96865 0.69789 0.1898 0.0
H1545 H 0.99405 0.72385 0.19029 0.0
H1546 H 0.01472 0.70924 0.2016 0.0
H1547 H 0.00678 0.69446 0.22238 0.0
H1548 H 0.29513 0.29918 0.13049 0.0
H1549 H 0.31074 0.30747 0.15089 0.0
H1550 H 0.37618 0.34545 0.13585 0.0
H1551 H 0.36061 0.33715 0.1152 0.0
H1552 H 0.3708 0.31435 0.15507 0.0
H1553 H 0.3369 0.36843 0.16788 0.0
H1554 H 0.31706 0.34207 0.16169 0.0
H1555 H 0.33916 0.36176 0.15228 0.0
C1556 C 0.31287 0.30931 0.13146 0.0
C1557 C 0.32664 0.3176 0.1212 0.0
C1558 C 0.32173 0.31411 0.14316 0.0
C1559 C 0.34455 0.32736 0.14488 0.0
C1560 C 0.35848 0.33532 0.13469 0.0
H1561 H 0.42804 0.37018 0.20874 0.0
H1562 H 0.4129 0.36218 0.18825 0.0
C1563 C 0.34959 0.33056 0.12292 0.0
C1564 C 0.35368 0.33251 0.15737 0.0
H1565 H 0.35267 0.35781 0.18374 0.0
C1566 C 0.36699 0.32398 0.16133 0.0
C1567 C 0.34848 0.3449 0.16553 0.0
C1568 C 0.33477 0.355 0.16164 0.0
C1569 C 0.37494 0.32716 0.17331 0.0
C1570 C 0.36981 0.33963 0.18147 0.0
C1571 C 0.3565 0.34818 0.1775 0.0
C1572 C 0.37876 0.34464 0.19403 0.0
C1573 C 0.38833 0.3167 0.1772 0.0
C1574 C 0.36458 0.33809 0.20414 0.0
C1575 C 0.37323 0.34284 0.21596 0.0
C1576 C 0.39619 0.3543 0.21783 0.0
C1577 C 0.41026 0.36113 0.20765 0.0
C1578 C 0.40165 0.35646 0.1959 0.0
H1579 H 0.3853 0.30267 0.1712 0.0
H1580 H 0.40615 0.32918 0.17665 0.0
H1581 H 0.38448 0.31064 0.1867 0.0
H1582 H 0.34684 0.32911 0.20288 0.0
H1583 H 0.36197 0.33742 0.22361 0.0
H1584 H 0.62914 0.69908 0.54069 0.0
H1585 H 0.63652 0.69143 0.52016 0.0
H1586 H 0.6802 0.67002 0.53444 0.0
H1587 H 0.67259 0.67736 0.55519 0.0
H1588 H 0.6764 0.70994 0.50807 0.0
H1589 H 0.63946 0.61904 0.5121 0.0
H1590 H 0.63453 0.6352 0.52314 0.0
H1591 H 0.65995 0.63463 0.5234 0.0
C1592 C 0.64023 0.69261 0.53952 0.0
C1593 C 0.65024 0.68875 0.54959 0.0
C1594 C 0.64445 0.68829 0.52775 0.0
C1595 C 0.65872 0.67996 0.52577 0.0
C1596 C 0.6688 0.67608 0.53579 0.0
H1597 H 0.70945 0.64632 0.46362 0.0
H1598 H 0.70032 0.65467 0.4835 0.0
C1599 C 0.66452 0.68035 0.54762 0.0
C1600 C 0.66332 0.67589 0.51316 0.0
H1601 H 0.65937 0.63564 0.49404 0.0
C1602 C 0.67259 0.69368 0.50497 0.0
C1603 C 0.65819 0.65464 0.50913 0.0
C1604 C 0.64729 0.63472 0.51735 0.0
C1605 C 0.67749 0.69092 0.49293 0.0
C1606 C 0.67262 0.66972 0.48895 0.0
C1607 C 0.66306 0.65189 0.49711 0.0
C1608 C 0.67855 0.6658 0.47663 0.0
C1609 C 0.68844 0.71082 0.4847 0.0
C1610 C 0.66943 0.66942 0.46608 0.0
C1611 C 0.67477 0.66476 0.45457 0.0
C1612 C 0.68909 0.65618 0.4535 0.0
C1613 C 0.69825 0.6528 0.4641 0.0
C1614 C 0.69306 0.65755 0.4755 0.0
H1615 H 0.69544 0.72654 0.48989 0.0
H1616 H 0.70188 0.71076 0.47935 0.0
H1617 H 0.67605 0.71036 0.47824 0.0
H1618 H 0.6579 0.67545 0.46675 0.0
H1619 H 0.66737 0.66742 0.44657 0.0
H1620 H 0.42635 0.09563 0.4628 0.0
H1621 H 0.41879 0.08006 0.48319 0.0
H1622 H 0.37774 0.01491 0.46831 0.0
H1623 H 0.38537 0.03045 0.44767 0.0
H1624 H 0.37706 0.0557 0.49455 0.0
H1625 H 0.42096 0.00797 0.49125 0.0
H1626 H 0.42548 0.02947 0.48058 0.0
H1627 H 0.4011 0.00277 0.47948 0.0
C1628 C 0.41579 0.07795 0.4638 0.0
C1629 C 0.40649 0.06425 0.45358 0.0
C1630 C 0.41146 0.0691 0.47549 0.0
C1631 C 0.39787 0.04635 0.47727 0.0
C1632 C 0.38855 0.03251 0.46712 0.0
H1633 H 0.35343 0.96298 0.54054 0.0
H1634 H 0.36148 0.97915 0.52031 0.0
C1635 C 0.39284 0.0414 0.45534 0.0
C1636 C 0.39324 0.0374 0.48981 0.0
H1637 H 0.40115 0.00406 0.50934 0.0
C1638 C 0.38233 0.04442 0.49781 0.0
C1639 C 0.40025 0.02281 0.49403 0.0
C1640 C 0.41276 0.0154 0.48595 0.0
C1641 C 0.3778 0.03685 0.50987 0.0
C1642 C 0.38482 0.02224 0.5141 0.0
C1643 C 0.39584 0.01532 0.5061 0.0
C1644 C 0.37992 0.01295 0.52659 0.0
C1645 C 0.36502 0.04408 0.51785 0.0
C1646 C 0.38769 0.02659 0.53693 0.0
C1647 C 0.38296 0.01735 0.54862 0.0
C1648 C 0.3706 0.99431 0.55012 0.0
C1649 C 0.36303 0.98079 0.53974 0.0
C1650 C 0.36763 0.99 0.52813 0.0
H1651 H 0.35625 0.05076 0.51243 0.0
H1652 H 0.35273 0.03014 0.52346 0.0
H1653 H 0.37663 0.05732 0.52406 0.0
H1654 H 0.39759 0.04435 0.53595 0.0
H1655 H 0.38911 0.02816 0.55644 0.0
H1656 H 0.01611 0.35486 0.44971 0.0
H1657 H 0.03088 0.36041 0.47052 0.0
H1658 H -0.00015 0.39888 0.479 0.0
H1659 H 0.9841 0.39217 0.45858 0.0
H1660 H 0.05692 0.39314 0.48442 0.0
H1661 H 0.97419 0.35433 0.50525 0.0
H1662 H 0.97805 0.3538 0.48909 0.0
H1663 H 0.97853 0.37736 0.49612 0.0
C1664 C 0.01281 0.36476 0.45602 0.0
C1665 C -0.001 0.37307 0.45266 0.0
C1666 C 0.02109 0.36782 0.4679 0.0
C1667 C 0.01582 0.37941 0.47649 0.0
C1668 C 0.00339 0.38909 0.47274 0.0
H1669 H 0.08579 0.43787 0.54279 0.0
H1670 H 0.07107 0.42877 0.52219 0.0
C1671 C 0.99469 0.38557 0.46103 0.0
C1672 C 0.02302 0.3813 0.48937 0.0
H1673 H 0.00462 0.37672 0.51857 0.0
C1674 C 0.04544 0.38932 0.49189 0.0
C1675 C 0.00798 0.37561 0.49918 0.0
C1676 C 0.98333 0.36455 0.49727 0.0
C1677 C 0.05336 0.3928 0.50388 0.0
C1678 C 0.03862 0.38911 0.51362 0.0
C1679 C 0.01605 0.38008 0.51113 0.0
C1680 C 0.04637 0.39501 0.5264 0.0
C1681 C 0.0774 0.40011 0.50592 0.0
C1682 C 0.03634 0.37963 0.53588 0.0
C1683 C 0.04424 0.38513 0.54781 0.0
C1684 C 0.06247 0.40597 0.55038 0.0
C1685 C 0.07188 0.42157 0.541 0.0
C1686 C 0.06367 0.41628 0.52919 0.0
H1687 H 0.08397 0.39429 0.49847 0.0
H1688 H 0.08716 0.41842 0.50599 0.0
H1689 H 0.07997 0.39382 0.51467 0.0
H1690 H 0.02278 0.36319 0.534 0.0
H1691 H 0.03678 0.3728 0.55489 0.0
H1692 H 0.35777 0.42364 0.54189 0.0
H1693 H 0.3657 0.4148 0.52183 0.0
H1694 H 0.39407 0.37849 0.53803 0.0
H1695 H 0.38616 0.3874 0.55842 0.0
H1696 H 0.41978 0.40939 0.51863 0.0
H1697 H 0.33257 0.35345 0.50528 0.0
H1698 H 0.33801 0.37964 0.51122 0.0
H1699 H 0.34101 0.3606 0.52091 0.0
C1700 C 0.36567 0.41372 0.54127 0.0
C1701 C 0.37124 0.40612 0.55179 0.0
C1702 C 0.37008 0.40859 0.52975 0.0
C1703 C 0.3801 0.39568 0.52844 0.0
C1704 C 0.38612 0.38833 0.53888 0.0
H1705 H 0.42386 0.35598 0.46445 0.0
H1706 H 0.41641 0.36338 0.48498 0.0
C1707 C 0.38162 0.39343 0.5505 0.0
C1708 C 0.3846 0.39046 0.51608 0.0
H1709 H 0.35929 0.36549 0.48946 0.0
C1710 C 0.40659 0.3996 0.51228 0.0
C1711 C 0.36733 0.37791 0.50778 0.0
C1712 C 0.34338 0.36715 0.5115 0.0
C1713 C 0.4118 0.39698 0.50029 0.0
C1714 C 0.39451 0.38447 0.49196 0.0
C1715 C 0.37251 0.37519 0.49581 0.0
C1716 C 0.39893 0.38013 0.47936 0.0
C1717 C 0.43576 0.40814 0.49656 0.0
C1718 C 0.39097 0.38648 0.4693 0.0
C1719 C 0.39504 0.38206 0.45744 0.0
C1720 C 0.40704 0.37114 0.45548 0.0
C1721 C 0.41474 0.36463 0.4656 0.0
C1722 C 0.41062 0.36896 0.47738 0.0
H1723 H 0.44634 0.42211 0.5027 0.0
H1724 H 0.44158 0.39602 0.49703 0.0
H1725 H 0.43804 0.41446 0.4871 0.0
H1726 H 0.38173 0.39497 0.47064 0.0
H1727 H 0.38882 0.38718 0.44983 0.0
H1728 H 0.63728 0.96068 0.54132 0.0
H1729 H 0.64506 0.97631 0.52094 0.0
H1730 H 0.67373 0.04188 0.53606 0.0
H1731 H 0.66644 0.02627 0.55665 0.0
H1732 H 0.63015 0.00052 0.50955 0.0
H1733 H 0.72158 0.04846 0.5128 0.0
H1734 H 0.70464 0.02809 0.52397 0.0
H1735 H 0.70775 0.05523 0.52431 0.0
C1736 C 0.64532 0.97846 0.54036 0.0
C1737 C 0.65133 0.99226 0.55062 0.0
C1738 C 0.64973 0.98736 0.52867 0.0
C1739 C 0.66024 0.01027 0.52695 0.0
C1740 C 0.66605 0.02416 0.53717 0.0
H1741 H 0.69537 0.09423 0.46398 0.0
H1742 H 0.68729 0.07777 0.48417 0.0
C1743 C 0.66176 0.01524 0.54893 0.0
C1744 C 0.66456 0.01934 0.51441 0.0
H1745 H 0.70556 0.05384 0.49505 0.0
C1746 C 0.64665 0.01212 0.50636 0.0
C1747 C 0.68612 0.03435 0.51024 0.0
C1748 C 0.70616 0.04185 0.51823 0.0
C1749 C 0.64965 0.01983 0.49434 0.0
C1750 C 0.67116 0.03499 0.49023 0.0
C1751 C 0.68908 0.04217 0.49824 0.0
C1752 C 0.67537 0.04444 0.4778 0.0
C1753 C 0.62975 0.01211 0.48622 0.0
C1754 C 0.67134 0.03111 0.46748 0.0
C1755 C 0.67594 0.0405 0.45583 0.0
C1756 C 0.68472 0.06336 0.45437 0.0
C1757 C 0.6886 0.07655 0.46475 0.0
C1758 C 0.68404 0.0672 0.47633 0.0
H1759 H 0.61406 0.00407 0.49146 0.0
H1760 H 0.63067 0.02615 0.48101 0.0
H1761 H 0.62932 -9e-05 0.47961 0.0
H1762 H 0.66494 0.01352 0.46844 0.0
H1763 H 0.67288 0.02994 0.44801 0.0
H1764 H 0.96133 0.63404 0.46401 0.0
H1765 H 0.97748 0.64191 0.48426 0.0
H1766 H 0.04274 0.67694 0.46864 0.0
H1767 H 0.02657 0.66942 0.44817 0.0
H1768 H 0.00562 0.6302 0.4947 0.0
H1769 H 0.04389 0.72151 0.49299 0.0
H1770 H 0.02395 0.70356 0.48191 0.0
H1771 H 0.05219 0.70991 0.48093 0.0
C1772 C 0.97915 0.64348 0.46483 0.0
C1773 C 0.99269 0.65121 0.45446 0.0
C1774 C 0.98834 0.64793 0.47645 0.0
C1775 C 0.01128 0.66025 0.47799 0.0
C1776 C 0.02495 0.66777 0.46767 0.0
H1777 H 0.09567 0.7001 0.54104 0.0
H1778 H 0.07953 0.69178 0.52077 0.0
C1779 C 0.01572 0.66336 0.45598 0.0
C1780 C 0.02064 0.66483 0.49045 0.0
H1781 H 0.05151 0.70647 0.51039 0.0
C1782 C 0.01562 0.64688 0.49814 0.0
C1783 C 0.03355 0.6866 0.49495 0.0
C1784 C 0.03858 0.70652 0.48732 0.0
C1785 C 0.02345 0.6501 0.51015 0.0
C1786 C 0.03643 0.67185 0.5146 0.0
C1787 C 0.04148 0.68981 0.50693 0.0
C1788 C 0.04576 0.67638 0.52705 0.0
C1789 C 0.01818 0.63026 0.5179 0.0
C1790 C 0.03207 0.67053 0.53734 0.0
C1791 C 0.04127 0.67532 0.54904 0.0
C1792 C 0.0643 0.68602 0.55057 0.0
C1793 C 0.07786 0.69178 0.54021 0.0
C1794 C 0.06869 0.68709 0.52859 0.0
H1795 H 0.01169 0.61491 0.51241 0.0
H1796 H 0.0331 0.63283 0.52288 0.0
H1797 H 0.00548 0.62788 0.52471 0.0
H1798 H 0.0143 0.66249 0.53633 0.0
H1799 H 0.03042 0.67076 0.55684 0.0
H1800 H 0.00934 0.31852 0.05721 0.0
H1801 H 0.00207 0.32711 0.03665 0.0
H1802 H 0.06411 0.33489 0.02439 0.0
H1803 H 0.07133 0.32609 0.04476 0.0
H1804 H 0.04496 0.36593 0.01375 0.0
H1805 H 0.99376 0.27402 0.01158 0.0
H1806 H 0.99162 0.28853 0.02458 0.0
H1807 H 0.01638 0.2874 0.02217 0.0
C1808 C 0.02179 0.3229 0.05024 0.0
C1809 C 0.04079 0.32142 0.05253 0.0
C1810 C 0.01761 0.32779 0.03851 0.0
C1811 C 0.03256 0.33157 0.02904 0.0
C1812 C 0.05246 0.33214 0.0316 0.0
H1813 H 0.04918 0.33378 0.95267 0.0
H1814 H 0.05179 0.34564 0.97381 0.0
C1815 C 0.0565 0.327 0.04323 0.0
C1816 C 0.02592 0.33071 0.01619 0.0
H1817 H -5e-05 0.29348 0.99348 0.0
C1818 C 0.03477 0.35017 0.0093 0.0
C1819 C 0.01268 0.31012 0.01046 0.0
C1820 C 0.00302 0.28873 0.01749 0.0
C1821 C 0.03102 0.34949 0.99669 0.0
C1822 C 0.01869 0.32876 0.99083 0.0
C1823 C 0.00928 0.30942 0.9979 0.0
C1824 C 0.01664 0.32615 0.97736 0.0
C1825 C 0.04035 0.37098 0.98982 0.0
C1826 C 0.99603 0.31157 0.97214 0.0
C1827 C 0.99467 0.30431 0.96018 0.0
C1828 C 0.0138 0.31193 0.95311 0.0
C1829 C 0.03415 0.32804 0.95789 0.0
C1830 C 0.03561 0.33489 0.96999 0.0
H1831 H 0.04138 0.38435 0.99573 0.0
H1832 H 0.05736 0.37601 0.98679 0.0
H1833 H 0.03022 0.36945 0.98172 0.0
H1834 H 0.98114 0.30458 0.97759 0.0
H1835 H 0.97882 0.29172 0.95669 0.0
H1836 H 0.71542 0.73369 0.94817 0.0
H1837 H 0.69821 0.72172 0.96832 0.0
H1838 H 0.75707 0.7235 0.98166 0.0
H1839 H 0.77417 0.73523 0.96174 0.0
H1840 H 0.71585 0.6874 0.99115 0.0
H1841 H 0.72298 0.77032 0.9951 0.0
H1842 H 0.70761 0.7529 0.98255 0.0
H1843 H 0.73696 0.76427 0.98324 0.0
C1844 C 0.72441 0.73094 0.95533 0.0
C1845 C 0.74626 0.73572 0.95344 0.0
C1846 C 0.71462 0.72421 0.96684 0.0
C1847 C 0.72651 0.72204 0.97652 0.0
C1848 C 0.74761 0.72511 0.97434 0.0
H1849 H 0.75641 0.72795 0.04926 0.0
H1850 H 0.74506 0.71478 0.02853 0.0
C1851 C 0.75741 0.73195 0.96295 0.0
C1852 C 0.7187 0.71939 0.98927 0.0
H1853 H 0.71695 0.75009 0.01286 0.0
C1854 C 0.71552 0.70084 0.99588 0.0
C1855 C 0.71814 0.73687 0.99542 0.0
C1856 C 0.72168 0.75731 0.9888 0.0
C1857 C 0.71306 0.69989 0.00859 0.0
C1858 C 0.71444 0.71824 0.01486 0.0
C1859 C 0.71593 0.73601 0.00811 0.0
C1860 C 0.71765 0.72104 0.02826 0.0
C1861 C 0.7096 0.67946 0.01515 0.0
C1862 C 0.70597 0.72878 0.03519 0.0
C1863 C 0.71279 0.73669 0.047 0.0
C1864 C 0.73112 0.73665 0.05213 0.0
C1865 C 0.74182 0.72751 0.04558 0.0
C1866 C 0.73523 0.71989 0.03373 0.0
H1867 H 0.69982 0.66451 0.00948 0.0
H1868 H 0.72587 0.68081 0.01687 0.0
H1869 H 0.70099 0.67722 0.02396 0.0
H1870 H 0.69251 0.73004 0.03117 0.0
H1871 H 0.70467 0.74418 0.05182 0.0
H1872 H 0.33078 0.07558 0.96003 0.0
H1873 H 0.33971 0.07045 0.98077 0.0
H1874 H 0.32979 0.00632 0.97114 0.0
H1875 H 0.32104 0.01152 0.95017 0.0
H1876 H 0.30314 0.03183 0.99223 0.0
H1877 H 0.38358 0.03398 0.99652 0.0
H1878 H 0.3786 0.04921 0.98486 0.0
H1879 H 0.36613 0.01981 0.9837 0.0
C1880 C 0.33129 0.06071 0.96221 0.0
C1881 C 0.32502 0.04384 0.95355 0.0
C1882 C 0.33647 0.05784 0.97405 0.0
C1883 C 0.33541 0.03803 0.97749 0.0
C1884 C 0.33101 0.02187 0.96861 0.0
H1885 H 0.28927 0.97982 0.04749 0.0
H1886 H 0.30271 0.98467 0.02658 0.0
C1887 C 0.32599 0.02484 0.95665 0.0
C1888 C 0.33425 0.03273 0.99059 0.0
H1889 H 0.36121 0.02461 0.01422 0.0
C1890 C 0.31586 0.03027 0.99703 0.0
C1891 C 0.35086 0.0307 0.99678 0.0
C1892 C 0.37103 0.03364 0.99019 0.0
C1893 C 0.3136 0.02594 0.00951 0.0
C1894 C 0.33008 0.02373 0.01575 0.0
C1895 C 0.34858 0.02621 0.00936 0.0
C1896 C 0.32774 0.01891 0.02893 0.0
C1897 C 0.29359 0.02389 0.01597 0.0
C1898 C 0.33839 0.03618 0.03736 0.0
C1899 C 0.33089 0.03335 0.0494 0.0
C1900 C 0.3125 0.01332 0.05303 0.0
C1901 C 0.30347 0.99543 0.04489 0.0
C1902 C 0.31115 0.99816 0.03296 0.0
H1903 H 0.28442 0.02976 0.01028 0.0
H1904 H 0.28221 0.0063 0.01828 0.0
H1905 H 0.29849 0.03346 0.02458 0.0
H1906 H 0.35111 0.05237 0.03437 0.0
H1907 H 0.33797 0.04745 0.05546 0.0
H1908 H 0.04538 0.73291 0.9486 0.0
H1909 H 0.04913 0.71984 0.96874 0.0
H1910 H 0.9901 0.71938 0.98063 0.0
H1911 H 0.98616 0.73192 0.96074 0.0
H1912 H 0.05682 0.74435 0.98845 0.0
H1913 H 0.98168 0.66546 0.99772 0.0
H1914 H 0.9897 0.6759 0.98244 0.0
H1915 H 0.97366 0.68415 0.99164 0.0
C1916 C 0.03281 0.72921 0.95541 0.0
C1917 C 0.01558 0.73361 0.95314 0.0
C1918 C 0.03498 0.7218 0.96691 0.0
C1919 C 0.01974 0.7183 0.97621 0.0
C1920 C 0.00176 0.72131 0.9736 0.0
H1921 H 0.01623 0.76427 0.04077 0.0
H1922 H 0.01486 0.74846 0.02087 0.0
C1923 C -0.00032 0.72879 0.96222 0.0
C1924 C 0.0243 0.71557 0.9891 0.0
H1925 H 0.99658 0.69145 0.01534 0.0
C1926 C 0.04402 0.73217 0.99428 0.0
C1927 C 0.0078 0.69959 0.9968 0.0
C1928 C 0.98715 0.68016 0.9918 0.0
C1929 C 0.04646 0.73479 0.00693 0.0
C1930 C 0.02874 0.72057 0.01454 0.0
C1931 C 0.01008 0.70248 0.00946 0.0
C1932 C 0.02738 0.72746 0.02707 0.0
C1933 C 0.06707 0.75409 0.01207 0.0
C1934 C 0.03431 0.72034 0.03723 0.0
C1935 C 0.03498 0.72932 0.04876 0.0
C1936 C 0.02898 0.74566 0.05014 0.0
C1937 C 0.02121 0.75191 0.03998 0.0
C1938 C 0.02034 0.74285 0.0286 0.0
H1939 H 0.08084 0.76091 0.0054 0.0
H1940 H 0.06352 0.76737 0.01461 0.0
H1941 H 0.07241 0.74908 0.02041 0.0
H1942 H 0.03985 0.70847 0.03616 0.0
H1943 H 0.04111 0.72428 0.05644 0.0
H1944 H 0.34183 0.32227 0.05617 0.0
H1945 H 0.35819 0.33254 0.03578 0.0
H1946 H 0.30598 0.34457 0.02468 0.0
H1947 H 0.28961 0.33425 0.04487 0.0
H1948 H 0.33214 0.30634 0.01644 0.0
H1949 H 0.35988 0.39411 0.00715 0.0
H1950 H 0.35689 0.38326 0.02238 0.0
H1951 H 0.33313 0.37983 0.01415 0.0
C1952 C 0.33439 0.32797 0.04951 0.0
C1953 C 0.3144 0.32737 0.05206 0.0
C1954 C 0.3437 0.33377 0.03786 0.0
C1955 C 0.33342 0.33951 0.02872 0.0
C1956 C 0.31447 0.34065 0.03161 0.0
H1957 H 0.30342 0.32996 0.95484 0.0
H1958 H 0.3141 0.34274 0.97576 0.0
C1959 C 0.30503 0.33458 0.04315 0.0
C1960 C 0.33957 0.3401 0.01575 0.0
H1961 H 0.34936 0.36998 0.98963 0.0
C1962 C 0.33652 0.32043 0.01059 0.0
C1963 C 0.34498 0.35842 0.00815 0.0
C1964 C 0.34912 0.38017 0.01326 0.0
C1965 C 0.33707 0.31797 0.99797 0.0
C1966 C 0.34164 0.33604 0.99026 0.0
C1967 C 0.34594 0.35616 0.99549 0.0
C1968 C 0.33927 0.33336 0.97683 0.0
C1969 C 0.33099 0.29546 0.99303 0.0
C1970 C 0.35078 0.32513 0.97018 0.0
C1971 C 0.3444 0.31748 0.95828 0.0
C1972 C 0.32703 0.3188 0.95273 0.0
C1973 C 0.31714 0.32917 0.95889 0.0
C1974 C 0.32318 0.33638 0.97087 0.0
H1975 H 0.32315 0.28233 1.00004 0.0
H1976 H 0.31942 0.29097 0.98525 0.0
H1977 H 0.34614 0.29565 0.98984 0.0
H1978 H 0.36365 0.32319 0.97446 0.0
H1979 H 0.35204 0.30927 0.95372 0.0
H1980 H 0.71857 0.01931 0.94765 0.0
H1981 H 0.70185 0.0154 0.96784 0.0
H1982 H 0.76648 0.05795 0.98299 0.0
H1983 H 0.78292 0.06249 0.96316 0.0
H1984 H 0.70718 0.99677 0.98696 0.0
H1985 H 0.73375 0.08158 1.00076 0.0
H1986 H 0.73498 0.07461 0.98509 0.0
H1987 H 0.7578 0.08151 0.99529 0.0
C1988 C 0.72908 0.02826 0.95525 0.0
C1989 C 0.75211 0.0411 0.95376 0.0
C1990 C 0.71951 0.026 0.96679 0.0
C1991 C 0.73281 0.03676 0.97696 0.0
C1992 C 0.75567 0.05007 0.97532 0.0
H1993 H 0.75258 0.9967 0.04117 0.0
H1994 H 0.7402 0.00014 0.02126 0.0
C1995 C 0.76514 0.05237 0.96391 0.0
C1996 C 0.72387 0.03207 0.98957 0.0
H1997 H 0.73463 0.05734 0.01725 0.0
C1998 C 0.71252 0.01004 0.99354 0.0
C1999 C 0.72991 0.04915 0.99823 0.0
C2000 C 0.73953 0.07299 0.99454 0.0
C2001 C 0.70976 0.00485 0.00598 0.0
C2002 C 0.7193 0.02213 0.01464 0.0
C2003 C 0.72792 0.04401 0.01067 0.0
C2004 C 0.72423 0.01822 0.02727 0.0
C2005 C 0.69765 0.98086 0.00966 0.0
C2006 C 0.71996 0.02772 0.03744 0.0
C2007 C 0.72752 0.02614 0.04903 0.0
C2008 C 0.73969 0.01523 0.05059 0.0
C2009 C 0.74334 0.00529 0.0404 0.0
C2010 C 0.73592 0.00694 0.02894 0.0
H2011 H 0.68362 0.97108 0.0034 0.0
H2012 H 0.709 0.97411 0.00901 0.0
H2013 H 0.69121 0.9786 0.01909 0.0
H2014 H 0.71123 0.03678 0.03636 0.0
H2015 H 0.72446 0.03402 0.05666 0.0
H2016 H 0.70246 0.67326 0.28091 0.0
H2017 H 0.70632 0.69041 0.30095 0.0
H2018 H 0.66434 0.62603 0.31658 0.0
H2019 H 0.65968 0.60916 0.29682 0.0
H2020 H 0.65716 0.65603 0.32735 0.0
H2021 H 0.74783 0.68763 0.32507 0.0
H2022 H 0.73612 0.69792 0.31413 0.0
H2023 H 0.72938 0.66952 0.31355 0.0
C2024 C 0.69371 0.66288 0.28859 0.0
C2025 C 0.68117 0.63978 0.28729 0.0
C2026 C 0.69607 0.67268 0.30006 0.0
C2027 C 0.68609 0.65947 0.31037 0.0
C2028 C 0.67232 0.63665 0.30883 0.0
H2029 H 0.71657 0.62989 0.37371 0.0
H2030 H 0.71271 0.64276 0.35404 0.0
C2031 C 0.66983 0.62695 0.29747 0.0
C2032 C 0.69135 0.66825 0.323 0.0
H2033 H 0.73225 0.68401 0.34413 0.0
C2034 C 0.67368 0.66275 0.33103 0.0
C2035 C 0.71296 0.67726 0.32778 0.0
C2036 C 0.73271 0.68337 0.31975 0.0
C2037 C 0.67658 0.66333 0.34369 0.0
C2038 C 0.69786 0.67026 0.34844 0.0
C2039 C 0.71592 0.67851 0.34044 0.0
C2040 C 0.70101 0.6641 0.3609 0.0
C2041 C 0.65654 0.65442 0.35181 0.0
C2042 C 0.6958 0.67185 0.37148 0.0
C2043 C 0.69776 0.66419 0.38299 0.0
C2044 C 0.70512 0.64881 0.38404 0.0
C2045 C 0.71079 0.64166 0.37338 0.0
C2046 C 0.7087 0.64912 0.36203 0.0
H2047 H 0.64095 0.64795 0.34656 0.0
H2048 H 0.65548 0.64093 0.35762 0.0
H2049 H 0.65799 0.66777 0.35787 0.0
H2050 H 0.69011 0.68366 0.37086 0.0
H2051 H 0.69338 0.67015 0.391 0.0
H2052 H 0.39812 0.10787 0.37617 0.0
H2053 H 0.38699 0.09172 0.35616 0.0
H2054 H 0.38189 0.03111 0.36923 0.0
H2055 H 0.39396 0.04777 0.38946 0.0
H2056 H 0.40727 0.04433 0.35067 0.0
H2057 H 0.33538 0.05035 0.33686 0.0
H2058 H 0.3549 0.07672 0.34296 0.0
H2059 H 0.34345 0.05258 0.35262 0.0
C2060 C 0.39406 0.09087 0.37492 0.0
C2061 C 0.39722 0.07921 0.38437 0.0
C2062 C 0.38733 0.08147 0.36344 0.0
C2063 C 0.38325 0.06001 0.36111 0.0
C2064 C 0.38478 0.04765 0.37079 0.0
H2065 H 0.38649 0.05357 0.28067 0.0
H2066 H 0.37013 0.03895 0.30079 0.0
C2067 C 0.3916 0.05714 0.38237 0.0
C2068 C 0.38169 0.0527 0.34824 0.0
H2069 H 0.36409 0.06007 0.32059 0.0
C2070 C 0.39719 0.04697 0.34414 0.0
C2071 C 0.36821 0.0554 0.33958 0.0
C2072 C 0.34939 0.05884 0.3433 0.0
C2073 C 0.40152 0.04677 0.33171 0.0
C2074 C 0.39053 0.05306 0.32318 0.0
C2075 C 0.37303 0.0559 0.32713 0.0
C2076 C 0.39979 0.06079 0.31083 0.0
C2077 C 0.41892 0.04124 0.3279 0.0
C2078 C 0.42158 0.0782 0.30982 0.0
C2079 C 0.43086 0.08648 0.2985 0.0
C2080 C 0.41855 0.0778 0.28777 0.0
C2081 C 0.39648 0.06056 0.28873 0.0
C2082 C 0.38713 0.05217 0.30021 0.0
H2083 H 0.41908 0.02879 0.33412 0.0
H2084 H 0.4162 0.03477 0.31847 0.0
H2085 H 0.43543 0.05634 0.32843 0.0
H2086 H 0.43146 0.08567 0.31787 0.0
H2087 H 0.44778 0.09993 0.29825 0.0
H2088 H 0.00074 0.35915 0.3907 0.0
H2089 H 0.01586 0.36124 0.37022 0.0
H2090 H 0.95352 0.34693 0.35456 0.0
H2091 H 0.93833 0.34429 0.3746 0.0
H2092 H 0.97024 0.32313 0.34385 0.0
H2093 H 0.03417 0.41234 0.34644 0.0
H2094 H 0.03482 0.39375 0.35752 0.0
H2095 H 0.0126 0.39963 0.35768 0.0
C2096 C 0.99028 0.35636 0.38287 0.0
C2097 C 0.96831 0.35159 0.38436 0.0
C2098 C -0.00103 0.35765 0.37117 0.0
C2099 C 0.98586 0.35438 0.36083 0.0
C2100 C 0.96395 0.34938 0.36237 0.0
H2101 H 0.9797 0.40011 0.29566 0.0
H2102 H 0.98955 0.3938 0.31576 0.0
C2103 C 0.95529 0.34795 0.37392 0.0
C2104 C 0.99438 0.35668 0.34822 0.0
H2105 H 0.02469 0.39629 0.32719 0.0
C2106 C 0.98258 0.33896 0.34019 0.0
C2107 C 0.01062 0.3773 0.34351 0.0
C2108 C 0.0238 0.39694 0.35167 0.0
C2109 C 0.98468 0.34192 0.32754 0.0
C2110 C -0.0004 0.36308 0.32278 0.0
C2111 C 0.01321 0.38012 0.33084 0.0
C2112 C 0.99767 0.36907 0.31004 0.0
C2113 C 0.96929 0.32295 0.31946 0.0
C2114 C -0.0002 0.35794 0.29993 0.0
C2115 C 0.99381 0.36134 0.28828 0.0
C2116 C 0.98574 0.37602 0.28661 0.0
C2117 C 0.98542 0.38836 0.29662 0.0
C2118 C 0.99125 0.38489 0.30816 0.0
H2119 H 0.95684 0.30853 0.32474 0.0
H2120 H 0.96043 0.3282 0.31312 0.0
H2121 H 0.97899 0.31747 0.31398 0.0
H2122 H 0.00523 0.34601 0.30111 0.0
H2123 H 0.99444 0.35172 0.28074 0.0
H2124 H 0.67472 0.05634 0.38647 0.0
H2125 H 0.67215 0.0441 0.36538 0.0
H2126 H 0.74208 0.08863 0.36081 0.0
H2127 H 0.74433 0.10165 0.38165 0.0
H2128 H 0.72033 0.09757 0.3452 0.0
H2129 H 0.68611 0.00725 0.34346 0.0
H2130 H 0.66931 0.01428 0.35262 0.0
H2131 H 0.6972 0.02296 0.35725 0.0
C2132 C 0.68966 0.0628 0.38108 0.0
C2133 C 0.70972 0.07989 0.38563 0.0
C2134 C 0.68822 0.05575 0.36902 0.0
C2135 C 0.70695 0.06534 0.36145 0.0
C2136 C 0.72739 0.08097 0.36643 0.0
H2137 H 0.71616 0.07141 0.28188 0.0
H2138 H 0.72273 0.06338 0.30272 0.0
C2139 C 0.72871 0.08835 0.37835 0.0
C2140 C 0.70463 0.06239 0.34802 0.0
H2141 H 0.68147 0.02418 0.32523 0.0
C2142 C 0.71231 0.08149 0.34086 0.0
C2143 C 0.69396 0.04143 0.34227 0.0
C2144 C 0.68638 0.02035 0.3493 0.0
C2145 C 0.70897 0.08026 0.32828 0.0
C2146 C 0.69756 0.05936 0.32262 0.0
C2147 C 0.69029 0.04018 0.32963 0.0
C2148 C 0.69137 0.05769 0.30964 0.0
C2149 C 0.71682 0.10133 0.32113 0.0
C2150 C 0.67122 0.05621 0.3066 0.0
C2151 C 0.66756 0.06102 0.29481 0.0
C2152 C 0.68393 0.0672 0.28584 0.0
C2153 C 0.70321 0.06651 0.28859 0.0
C2154 C 0.70698 0.06195 0.30048 0.0
H2155 H 0.72519 0.11629 0.32694 0.0
H2156 H 0.72854 0.1025 0.31396 0.0
H2157 H 0.7026 0.10116 0.31654 0.0
H2158 H 0.65906 0.05311 0.31357 0.0
H2159 H 0.65253 0.06138 0.29292 0.0
H2160 H 0.95189 0.66095 0.37726 0.0
H2161 H 0.96845 0.67081 0.35706 0.0
H2162 H 0.02385 0.66524 0.36964 0.0
H2163 H 0.00734 0.65542 0.39004 0.0
H2164 H 0.01408 0.70334 0.34664 0.0
H2165 H 0.98756 0.61374 0.34408 0.0
H2166 H 0.97682 0.62435 0.35551 0.0
H2167 H 0.00466 0.62968 0.3566 0.0
C2168 C 0.96792 0.66245 0.37583 0.0
C2169 C 0.97821 0.65716 0.38517 0.0
C2170 C 0.9774 0.6682 0.3643 0.0
C2171 C 0.99724 0.66856 0.36185 0.0
C2172 C 0.0085 0.66503 0.37138 0.0
H2173 H 0.01448 0.63521 0.28835 0.0
H2174 H 0.02594 0.64886 0.30908 0.0
C2175 C -0.0009 0.65949 0.38302 0.0
C2176 C 0.00382 0.66897 0.34902 0.0
H2177 H 0.99818 0.6338 0.32608 0.0
C2178 C 0.0111 0.68829 0.34213 0.0
C2179 C -9e-05 0.64932 0.34319 0.0
C2180 C 0.99172 0.628 0.35015 0.0
C2181 C 0.01393 0.68829 0.32947 0.0
C2182 C 0.00862 0.66825 0.32352 0.0
C2183 C 0.00236 0.64923 0.33056 0.0
C2184 C 0.007 0.66565 0.31004 0.0
C2185 C 0.02238 0.70972 0.32264 0.0
C2186 C 0.9935 0.6715 0.30338 0.0
C2187 C 0.98758 0.6643 0.29138 0.0
C2188 C 0.99462 0.65071 0.28597 0.0
C2189 C 0.00917 0.64599 0.29231 0.0
C2190 C 0.01556 0.65365 0.30418 0.0
H2191 H 0.03383 0.72396 0.32838 0.0
H2192 H 0.03109 0.70991 0.31417 0.0
H2193 H 0.00825 0.71205 0.32026 0.0
H2194 H 0.98605 0.68008 0.30771 0.0
H2195 H 0.97587 0.66763 0.28675 0.0
H2196 H 0.39983 0.38154 0.3903 0.0
H2197 H 0.38723 0.38577 0.37011 0.0
H2198 H 0.38353 0.32504 0.35853 0.0
H2199 H 0.39573 0.3207 0.37847 0.0
H2200 H 0.41139 0.3914 0.35002 0.0
H2201 H 0.32949 0.31891 0.34226 0.0
H2202 H 0.34093 0.32732 0.35733 0.0
H2203 H 0.3476 0.31 0.3482 0.0
C2204 C 0.39551 0.36873 0.38356 0.0
C2205 C 0.39884 0.35084 0.38593 0.0
C2206 C 0.3884 0.37119 0.37202 0.0
C2207 C 0.38412 0.35558 0.36281 0.0
C2208 C 0.38612 0.33703 0.36551 0.0
H2209 H 0.40905 0.33603 0.29422 0.0
H2210 H 0.39431 0.33496 0.31448 0.0
C2211 C 0.39334 0.33468 0.37691 0.0
C2212 C 0.38123 0.36002 0.34991 0.0
H2213 H 0.35373 0.33281 0.3242 0.0
C2214 C 0.39832 0.37901 0.3444 0.0
C2215 C 0.36414 0.34393 0.34256 0.0
C2216 C 0.34441 0.32403 0.34795 0.0
C2217 C 0.40007 0.38115 0.33169 0.0
C2218 C 0.38419 0.36392 0.32433 0.0
C2219 C 0.36598 0.34595 0.32985 0.0
C2220 C 0.38864 0.36228 0.3113 0.0
C2221 C 0.42 0.40082 0.32623 0.0
C2222 C 0.38949 0.37743 0.3026 0.0
C2223 C 0.39772 0.37786 0.2909 0.0
C2224 C 0.40525 0.36323 0.28786 0.0
C2225 C 0.40312 0.34731 0.29634 0.0
C2226 C 0.39473 0.34672 0.30791 0.0
H2227 H 0.43156 0.41205 0.33326 0.0
H2228 H 0.42905 0.39522 0.32026 0.0
H2229 H 0.41456 0.41034 0.32055 0.0
H2230 H 0.38481 0.38954 0.30504 0.0
H2231 H 0.39955 0.39049 0.28453 0.0
H2232 H 0.40808 0.00958 0.71708 0.0
H2233 H 0.40633 0.02136 0.69636 0.0
H2234 H 0.33518 0.98215 0.69743 0.0
H2235 H 0.33702 0.97154 0.71839 0.0
H2236 H 0.39328 0.99372 0.67912 0.0
H2237 H 0.34041 0.03133 0.67727 0.0
H2238 H 0.35148 0.02794 0.69141 0.0
H2239 H 0.32637 0.00553 0.68518 0.0
C2240 C 0.39208 0.00442 0.71305 0.0
C2241 C 0.37267 0.98995 0.71931 0.0
C2242 C 0.39106 0.01101 0.70119 0.0
C2243 C 0.37062 0.00279 0.69526 0.0
C2244 C 0.35114 0.98932 0.70183 0.0
H2245 H 0.32134 0.95178 0.62704 0.0
H2246 H 0.32768 0.96721 0.64752 0.0
C2247 C 0.35217 0.98315 0.71382 0.0
C2248 C 0.36987 0.00488 0.6818 0.0
H2249 H 0.34154 0.01248 0.65874 0.0
C2250 C 0.38244 0.99849 0.67469 0.0
C2251 C 0.35568 0.01098 0.67592 0.0
C2252 C 0.34293 0.01955 0.68287 0.0
C2253 C 0.38024 0.99673 0.66202 0.0
C2254 C 0.36506 0.00151 0.65623 0.0
C2255 C 0.35319 0.00886 0.66321 0.0
C2256 C 0.35926 0.99577 0.64328 0.0
C2257 C 0.39313 0.98838 0.65496 0.0
C2258 C 0.37448 0.00731 0.63396 0.0
C2259 C 0.3708 0.99857 0.62216 0.0
C2260 C 0.352 0.97806 0.61963 0.0
C2261 C 0.33605 0.96753 0.62877 0.0
C2262 C 0.33959 0.97637 0.64046 0.0
H2263 H 0.40272 0.98349 0.66098 0.0
H2264 H 0.38178 0.97392 0.64933 0.0
H2265 H 0.40483 0.00152 0.64874 0.0
H2266 H 0.38977 0.02232 0.63599 0.0
H2267 H 0.3834 0.00696 0.6153 0.0
H2268 H 0.06806 0.38636 0.72229 0.0
H2269 H 0.06062 0.37321 0.70118 0.0
H2270 H 0.05383 0.42913 0.69117 0.0
H2271 H 0.0615 0.44248 0.7121 0.0
H2272 H 0.02561 0.36979 0.67982 0.0
H2273 H 0.11463 0.43388 0.67673 0.0
H2274 H 0.10178 0.42096 0.69094 0.0
H2275 H 0.09665 0.44147 0.68439 0.0
C2276 C 0.06406 0.39532 0.71569 0.0
C2277 C 0.06562 0.41558 0.71878 0.0
C2278 C 0.05981 0.38779 0.70364 0.0
C2279 C 0.0568 0.40029 0.69464 0.0
C2280 C 0.05606 0.41924 0.698 0.0
H2281 H 0.0539 0.40543 0.61653 0.0
H2282 H 0.04125 0.39732 0.63769 0.0
C2283 C 0.06054 0.42689 0.70995 0.0
C2284 C 0.05909 0.39645 0.68164 0.0
H2285 H 0.0964 0.41748 0.65851 0.0
C2286 C 0.04108 0.38003 0.67513 0.0
C2287 C 0.07935 0.4098 0.67561 0.0
C2288 C 0.09931 0.42746 0.68224 0.0
C2289 C 0.04281 0.37692 0.6626 0.0
C2290 C 0.06297 0.39069 0.65653 0.0
C2291 C 0.08097 0.40683 0.66316 0.0
C2292 C 0.06619 0.38941 0.64328 0.0
C2293 C 0.0232 0.35893 0.65597 0.0
C2294 C 0.08387 0.38689 0.63928 0.0
C2295 C 0.09127 0.39183 0.6273 0.0
C2296 C 0.08099 0.39916 0.61905 0.0
C2297 C 0.06193 0.39956 0.62269 0.0
C2298 C 0.05468 0.39489 0.63478 0.0
H2299 H 0.01109 0.3464 0.66234 0.0
H2300 H 0.01476 0.36633 0.6509 0.0
H2301 H 0.0285 0.35055 0.64931 0.0
H2302 H 0.09301 0.3827 0.64566 0.0
H2303 H 0.10599 0.39137 0.62471 0.0
H2304 H 0.62198 0.65174 0.71187 0.0
H2305 H 0.63766 0.65822 0.69143 0.0
H2306 H 0.68741 0.72405 0.70183 0.0
H2307 H 0.672 0.71743 0.72247 0.0
H2308 H 0.6546 0.71833 0.68284 0.0
H2309 H 0.6961 0.66988 0.67321 0.0
H2310 H 0.67098 0.65607 0.68192 0.0
H2311 H 0.69479 0.67952 0.68828 0.0
C2312 C 0.63681 0.66727 0.70993 0.0
C2313 C 0.64577 0.68411 0.71872 0.0
C2314 C 0.64582 0.67091 0.69827 0.0
C2315 C 0.66378 0.69155 0.69514 0.0
C2316 C 0.67373 0.7079 0.70413 0.0
H2317 H 0.67813 0.74302 0.62141 0.0
H2318 H 0.68885 0.74068 0.64232 0.0
C2319 C 0.66495 0.7041 0.71591 0.0
C2320 C 0.66875 0.69724 0.68212 0.0
H2321 H 0.68461 0.68254 0.65603 0.0
C2322 C 0.66164 0.71095 0.67698 0.0
C2323 C 0.67747 0.68715 0.67454 0.0
C2324 C 0.68544 0.67242 0.67973 0.0
C2325 C 0.6619 0.71397 0.66438 0.0
C2326 C 0.67044 0.70372 0.65669 0.0
C2327 C 0.67828 0.69057 0.6619 0.0
C2328 C 0.66938 0.70501 0.64324 0.0
C2329 C 0.65156 0.72688 0.65944 0.0
C2330 C 0.65665 0.68567 0.63644 0.0
C2331 C 0.6512 0.68699 0.62434 0.0
C2332 C 0.65828 0.70766 0.61896 0.0
C2333 C 0.6726 0.72691 0.6254 0.0
C2334 C 0.67849 0.72557 0.63737 0.0
H2335 H 0.64086 0.72869 0.66627 0.0
H2336 H 0.66477 0.74371 0.65687 0.0
H2337 H 0.64142 0.71876 0.65126 0.0
H2338 H 0.64952 0.66961 0.64074 0.0
H2339 H 0.63987 0.67196 0.61958 0.0
H2340 H 0.35262 0.38156 0.7235 0.0
H2341 H 0.34925 0.36475 0.70341 0.0
H2342 H 0.39441 0.42903 0.68862 0.0
H2343 H 0.3986 0.44545 0.70841 0.0
H2344 H 0.33174 0.37017 0.68446 0.0
H2345 H 0.41587 0.39556 0.67032 0.0
H2346 H 0.40943 0.39732 0.68602 0.0
H2347 H 0.41677 0.42011 0.67571 0.0
C2348 C 0.36235 0.39192 0.71602 0.0
C2349 C 0.37574 0.41489 0.71758 0.0
C2350 C 0.36037 0.38231 0.70452 0.0
C2351 C 0.37187 0.39549 0.69444 0.0
C2352 C 0.38592 0.41823 0.69621 0.0
H2353 H 0.33056 0.41685 0.63118 0.0
H2354 H 0.33427 0.40362 0.65074 0.0
C2355 C 0.38802 0.42772 0.7076 0.0
C2356 C 0.36702 0.38675 0.68176 0.0
H2357 H 0.39198 0.39807 0.65398 0.0
C2358 C 0.34495 0.37561 0.67785 0.0
C2359 C 0.38396 0.39279 0.67301 0.0
C2360 C 0.40778 0.40185 0.67657 0.0
C2361 C 0.33964 0.37317 0.66543 0.0
C2362 C 0.35682 0.38295 0.65672 0.0
C2363 C 0.37871 0.39127 0.66059 0.0
C2364 C 0.35282 0.38846 0.64423 0.0
C2365 C 0.31561 0.3611 0.66183 0.0
C2366 C 0.36253 0.385 0.63386 0.0
C2367 C 0.36085 0.39315 0.62246 0.0
C2368 C 0.34959 0.40505 0.62127 0.0
C2369 C 0.33942 0.40783 0.63163 0.0
C2370 C 0.34122 0.3999 0.64291 0.0
H2371 H 0.30601 0.34672 0.66791 0.0
H2372 H 0.30873 0.37228 0.66289 0.0
H2373 H 0.31325 0.35516 0.65229 0.0
H2374 H 0.37183 0.37647 0.63465 0.0
H2375 H 0.36893 0.39075 0.61469 0.0
H2376 H 0.62002 0.99787 0.71187 0.0
H2377 H 0.63583 0.00672 0.69147 0.0
H2378 H 0.6885 0.99579 0.70304 0.0
H2379 H 0.67278 0.98705 0.72363 0.0
H2380 H 0.68242 0.03574 0.68002 0.0
H2381 H 0.64565 0.94421 0.6785 0.0
H2382 H 0.63772 0.95745 0.68991 0.0
H2383 H 0.66417 0.95922 0.69076 0.0
C2384 C 0.63541 0.99812 0.71019 0.0
C2385 C 0.64507 0.99156 0.71929 0.0
C2386 C 0.64447 0.00327 0.69854 0.0
C2387 C 0.6632 0.00172 0.69574 0.0
C2388 C 0.67404 0.99711 0.70506 0.0
H2389 H 0.67609 0.96214 0.62305 0.0
H2390 H 0.68727 0.97589 0.64376 0.0
C2391 C 0.66509 0.99219 0.71681 0.0
C2392 C 0.66851 0.0008 0.6828 0.0
H2393 H 0.6581 0.96338 0.66029 0.0
C2394 C 0.67754 0.02002 0.67568 0.0
C2395 C 0.66201 0.98025 0.6772 0.0
C2396 C 0.65174 0.95901 0.6844 0.0
C2397 C 0.67988 0.01914 0.66301 0.0
C2398 C 0.67234 0.99839 0.65732 0.0
C2399 C 0.66404 0.97934 0.66458 0.0
C2400 C 0.671 0.99536 0.64388 0.0
C2401 C 0.6903 0.04041 0.6559 0.0
C2402 C 0.65913 0.00261 0.63675 0.0
C2403 C 0.65332 0.99526 0.62475 0.0
C2404 C 0.65884 0.98014 0.61983 0.0
C2405 C 0.67187 0.974 0.62664 0.0
C2406 C 0.67814 0.98176 0.6385 0.0
H2407 H 0.70242 0.05442 0.66155 0.0
H2408 H 0.69879 0.03931 0.64763 0.0
H2409 H 0.67728 0.04418 0.65311 0.0
H2410 H 0.65284 0.01255 0.64071 0.0
H2411 H 0.64285 -0.0002 0.61974 0.0
H2412 H 0.07922 0.71746 0.71962 0.0
H2413 H 0.0695 0.72042 0.69862 0.0
H2414 H 0.03728 0.64952 0.69492 0.0
H2415 H 0.0482 0.6468 0.71567 0.0
H2416 H 0.06703 0.66758 0.67873 0.0
H2417 H 0.01987 0.71149 0.67736 0.0
H2418 H 0.04463 0.72679 0.68607 0.0
H2419 H 0.02357 0.69994 0.69124 0.0
C2420 C 0.06927 0.70249 0.71446 0.0
C2421 C 0.06435 0.6819 0.71921 0.0
C2422 C 0.06362 0.70415 0.70244 0.0
C2423 C 0.05249 0.68517 0.69512 0.0
C2424 C 0.04585 0.66442 0.70033 0.0
H2425 H 0.05074 0.67625 0.61538 0.0
H2426 H 0.03531 0.66928 0.63603 0.0
C2427 C 0.05198 0.66283 0.71221 0.0
C2428 C 0.05149 0.68718 0.68168 0.0
H2429 H 0.04055 0.71387 0.65902 0.0
C2430 C 0.06064 0.67721 0.67444 0.0
C2431 C 0.04338 0.69991 0.676 0.0
C2432 C 0.03211 0.70993 0.68309 0.0
C2433 C 0.06284 0.68041 0.66184 0.0
C2434 C 0.05572 0.69396 0.65625 0.0
C2435 C 0.04592 0.70342 0.66335 0.0
C2436 C 0.06096 0.70032 0.64333 0.0
C2437 C 0.07387 0.6702 0.65463 0.0
C2438 C 0.07986 0.72045 0.64054 0.0
C2439 C 0.08878 0.72434 0.62885 0.0
C2440 C 0.07882 0.70824 0.61972 0.0
C2441 C 0.05866 0.689 0.62222 0.0
C2442 C 0.04987 0.68498 0.634 0.0
H2443 H 0.07992 0.66141 0.6605 0.0
H2444 H 0.06195 0.65823 0.64799 0.0
H2445 H 0.08805 0.68316 0.64943 0.0
H2446 H 0.08871 0.73242 0.64763 0.0
H2447 H 0.10429 0.73935 0.62716 0.0
H2448 H 0.8424 0.07058 0.09206 0.0
H2449 H 0.87197 0.10892 0.09391 0.0
H2450 H 0.82462 0.13099 0.09053 0.0
H2451 H 0.79463 0.09241 0.08887 0.0
H2452 H 0.86559 0.14794 0.07272 0.0
H2453 H 0.88395 0.15774 0.1222 0.0
H2454 H 0.87774 0.13167 0.11559 0.0
H2455 H 0.85672 0.13923 0.11618 0.0
C2456 C 0.83817 0.08353 0.09188 0.0
C2457 C 0.81619 0.07848 0.09025 0.0
C2458 C 0.85508 0.1054 0.093 0.0
C2459 C 0.85039 0.12266 0.09241 0.0
C2460 C 0.82846 0.11779 0.0911 0.0
H2461 H 0.9662 0.25687 0.09728 0.0
H2462 H 0.92778 0.22697 0.0992 0.0
C2463 C 0.8114 0.09579 0.09016 0.0
C2464 C 0.86891 0.14564 0.09203 0.0
H2465 H 0.91231 0.18335 0.10897 0.0
C2466 C 0.87557 0.15598 0.08067 0.0
C2467 C 0.88173 0.15605 0.10243 0.0
C2468 C 0.87468 0.14575 0.11484 0.0
C2469 C 0.8956 0.17584 0.07933 0.0
C2470 C 0.90931 0.18538 0.0896 0.0
C2471 C 0.90185 0.17587 0.1011 0.0
C2472 C 0.93232 0.20375 0.08834 0.0
C2473 C 0.90232 0.18602 0.06686 0.0
C2474 C 0.94759 0.20042 0.08178 0.0
C2475 C 0.96948 0.21732 0.0807 0.0
C2476 C 0.97663 0.23798 0.0862 0.0
C2477 C 0.96128 0.24121 0.09288 0.0
C2478 C 0.93932 0.22418 0.09399 0.0
H2479 H 0.88773 0.18079 0.06089 0.0
H2480 H 0.91165 0.20433 0.0674 0.0
H2481 H 0.91313 0.1805 0.06259 0.0
H2482 H 0.9426 0.1846 0.07756 0.0
H2483 H 0.98077 0.21414 0.07553 0.0
H2484 H 0.98275 0.79889 0.0907 0.0
H2485 H 0.94473 0.78999 0.094 0.0
H2486 H 0.92425 0.72082 0.09667 0.0
H2487 H 0.9625 0.72958 0.09337 0.0
H2488 H 0.90035 0.73113 0.07954 0.0
H2489 H 0.90425 0.76942 0.12413 0.0
H2490 H 0.92618 0.78761 0.11417 0.0
H2491 H 0.9247 0.76243 0.11926 0.0
C2492 C 0.97027 0.78179 0.09216 0.0
C2493 C 0.97566 0.76493 0.09171 0.0
C2494 C 0.94855 0.77676 0.09415 0.0
C2495 C 0.93175 0.75479 0.09575 0.0
C2496 C 0.93706 0.73791 0.09559 0.0
H2497 H 0.79811 0.73814 0.10233 0.0
H2498 H 0.82838 0.73063 0.10612 0.0
C2499 C 0.9589 0.74295 0.0937 0.0
C2500 C 0.90851 0.74965 0.09624 0.0
H2501 H 0.87511 0.76522 0.11053 0.0
C2502 C 0.89459 0.73807 0.08648 0.0
C2503 C 0.90093 0.7585 0.10537 0.0
C2504 C 0.91472 0.77 0.11639 0.0
C2505 C 0.87401 0.73673 0.08509 0.0
C2506 C 0.86735 0.74734 0.09363 0.0
C2507 C 0.88041 0.7573 0.10392 0.0
C2508 C 0.84849 0.75077 0.0912 0.0
C2509 C 0.85999 0.72486 0.0742 0.0
C2510 C 0.84998 0.76472 0.08165 0.0
C2511 C 0.83297 0.76922 0.07954 0.0
C2512 C 0.81401 0.75977 0.08692 0.0
C2513 C 0.81244 0.74559 0.09644 0.0
C2514 C 0.82968 0.74129 0.09863 0.0
H2515 H 0.8642 0.71266 0.07047 0.0
H2516 H 0.84216 0.71622 0.07656 0.0
H2517 H 0.8629 0.73709 0.06696 0.0
H2518 H 0.86454 0.77244 0.07593 0.0
H2519 H 0.83471 0.78014 0.07212 0.0
H2520 H 0.27037 0.07788 0.07078 0.0
H2521 H 0.27645 0.11502 0.0736 0.0
H2522 H 0.32279 0.12646 0.10239 0.0
H2523 H 0.31694 0.08903 0.09958 0.0
H2524 H 0.26823 0.12985 0.09663 0.0
H2525 H 0.35443 0.18258 0.07986 0.0
H2526 H 0.33793 0.15393 0.07547 0.0
H2527 H 0.3487 0.16089 0.0906 0.0
C2528 C 0.28199 0.08824 0.07768 0.0
C2529 C 0.29304 0.08036 0.08502 0.0
C2530 C 0.28548 0.10952 0.07925 0.0
C2531 C 0.3001 0.12347 0.08817 0.0
C2532 C 0.31163 0.116 0.09536 0.0
H2533 H 0.31745 0.25687 0.09907 0.0
H2534 H 0.32267 0.2249 0.10202 0.0
C2535 C 0.3082 0.0946 0.09376 0.0
C2536 C 0.3018 0.14517 0.09027 0.0
H2537 H 0.3342 0.20033 0.08448 0.0
C2538 C 0.28278 0.14531 0.09417 0.0
C2539 C 0.32089 0.1653 0.08718 0.0
C2540 C 0.34171 0.16588 0.083 0.0
C2541 C 0.28191 0.16489 0.09445 0.0
C2542 C 0.30044 0.18479 0.09053 0.0
C2543 C 0.31999 0.18497 0.08739 0.0
C2544 C 0.29873 0.20478 0.08839 0.0
C2545 C 0.26087 0.16396 0.09856 0.0
C2546 C 0.28402 0.20417 0.07954 0.0
C2547 C 0.28094 0.22219 0.07787 0.0
C2548 C 0.29266 0.24138 0.08495 0.0
C2549 C 0.3081 0.24231 0.09351 0.0
C2550 C 0.31112 0.22411 0.0952 0.0
H2551 H 0.25103 0.14955 0.10458 0.0
H2552 H 0.26441 0.17927 0.10346 0.0
H2553 H 0.25062 0.16226 0.09048 0.0
H2554 H 0.27464 0.18954 0.07402 0.0
H2555 H 0.26917 0.22096 0.07107 0.0
H2556 H 0.21592 0.98681 0.92574 0.0
H2557 H 0.18537 0.94942 0.92269 0.0
H2558 H 0.22986 0.93023 0.90712 0.0
H2559 H 0.26085 0.96782 0.91017 0.0
H2560 H 0.17211 0.9257 0.89935 0.0
H2561 H 0.19521 0.88385 0.93482 0.0
H2562 H 0.20591 0.91332 0.93507 0.0
H2563 H 0.21573 0.90154 0.92395 0.0
C2564 C 0.21936 0.97473 0.92169 0.0
C2565 C 0.24094 0.98039 0.91823 0.0
C2566 C 0.20182 0.95334 0.91993 0.0
C2567 C 0.20541 0.93709 0.91476 0.0
C2568 C 0.22683 0.94254 0.91125 0.0
H2569 H 0.09368 0.79955 0.91091 0.0
H2570 H 0.13109 0.83084 0.90759 0.0
C2571 C 0.24448 0.96404 0.91297 0.0
C2572 C 0.18637 0.91459 0.91303 0.0
H2573 H 0.16022 0.8632 0.92581 0.0
C2574 C 0.16967 0.91189 0.90496 0.0
C2575 C 0.18337 0.8966 0.92027 0.0
C2576 C 0.2009 0.89879 0.92907 0.0
C2577 C 0.14951 0.892 0.90444 0.0
C2578 C 0.14587 0.87456 0.91234 0.0
C2579 C 0.1631 0.87669 0.9198 0.0
C2580 C 0.12346 0.85543 0.91415 0.0
C2581 C 0.13194 0.8901 0.89576 0.0
C2582 C 0.10701 0.85894 0.91911 0.0
C2583 C 0.08582 0.84125 0.92108 0.0
C2584 C 0.08054 0.81956 0.91815 0.0
C2585 C 0.09714 0.81603 0.91324 0.0
C2586 C 0.11851 0.83385 0.91133 0.0
H2587 H 0.13926 0.90165 0.88798 0.0
H2588 H 0.12204 0.873 0.89221 0.0
H2589 H 0.12065 0.89434 0.90062 0.0
H2590 H 0.11064 0.87544 0.92154 0.0
H2591 H 0.07356 0.84469 0.92489 0.0
H2592 H 0.21823 0.26603 0.93063 0.0
H2593 H 0.18836 0.27416 0.92881 0.0
H2594 H 0.22956 0.33113 0.90676 0.0
H2595 H 0.2599 0.32312 0.90848 0.0
H2596 H 0.19182 0.31676 0.93598 0.0
H2597 H 0.16949 0.29363 0.88739 0.0
H2598 H 0.18423 0.2831 0.89602 0.0
H2599 H 0.19802 0.31151 0.89147 0.0
C2600 C 0.22107 0.28027 0.92534 0.0
C2601 C 0.24156 0.29393 0.91971 0.0
C2602 C 0.20393 0.28489 0.92432 0.0
C2603 C 0.20677 0.30317 0.91763 0.0
C2604 C 0.22705 0.31683 0.91189 0.0
H2605 H 0.09144 0.3219 0.90833 0.0
H2606 H 0.12986 0.33012 0.90679 0.0
C2607 C 0.24434 0.31224 0.91292 0.0
C2608 C 0.18835 0.30781 0.91706 0.0
H2609 H 0.14519 0.30005 0.89915 0.0
C2610 C 0.18185 0.31356 0.92787 0.0
C2611 C 0.17555 0.30381 0.90643 0.0
C2612 C 0.182 0.29761 0.89463 0.0
C2613 C 0.16214 0.31416 0.92851 0.0
C2614 C 0.14846 0.30849 0.91814 0.0
C2615 C 0.15571 0.30427 0.9071 0.0
C2616 C 0.12549 0.30406 0.91904 0.0
C2617 C 0.15571 0.32006 0.94042 0.0
C2618 C 0.11035 0.2865 0.92628 0.0
C2619 C 0.08851 0.2817 0.92716 0.0
C2620 C 0.08127 0.29435 0.92077 0.0
C2621 C 0.09648 0.3119 0.91343 0.0
C2622 C 0.11841 0.31662 0.91251 0.0
H2623 H 0.17042 0.33034 0.94616 0.0
H2624 H 0.14662 0.32911 0.93893 0.0
H2625 H 0.14478 0.30467 0.9455 0.0
H2626 H 0.11542 0.27636 0.93122 0.0
H2627 H 0.07732 0.26804 0.93288 0.0
H2628 H 0.79873 0.8445 0.92245 0.0
H2629 H 0.79157 0.8746 0.91846 0.0
H2630 H 0.72629 0.82819 0.90555 0.0
H2631 H 0.73324 0.79761 0.90952 0.0
H2632 H 0.77681 0.88393 0.89438 0.0
H2633 H 0.7196 0.86728 0.93339 0.0
H2634 H 0.73894 0.85729 0.93341 0.0
H2635 H 0.71554 0.84503 0.92346 0.0
C2636 C 0.78279 0.84054 0.91878 0.0
C2637 C 0.76653 0.81855 0.91636 0.0
C2638 C 0.77878 0.85782 0.91646 0.0
C2639 C 0.75841 0.85356 0.91177 0.0
C2640 C 0.74208 0.83173 0.90925 0.0
H2641 H 0.73461 0.96641 0.91025 0.0
H2642 H 0.72698 0.92858 0.90656 0.0
C2643 C 0.74612 0.81433 0.91151 0.0
C2644 C 0.75468 0.87233 0.90968 0.0
H2645 H 0.73357 0.90148 0.92349 0.0
C2646 C 0.76696 0.88757 0.90056 0.0
C2647 C 0.74164 0.87687 0.91768 0.0
C2648 C 0.72814 0.86086 0.92758 0.0
C2649 C 0.76764 0.90792 0.89971 0.0
C2650 C 0.75612 0.91327 0.90837 0.0
C2651 C 0.74248 0.89734 0.91691 0.0
C2652 C 0.76056 0.93619 0.90982 0.0
C2653 C 0.78139 0.92387 0.88985 0.0
C2654 C 0.78189 0.95286 0.91298 0.0
C2655 C 0.78628 0.97432 0.91516 0.0
C2656 C 0.7694 0.97963 0.91427 0.0
C2657 C 0.74801 0.96292 0.91098 0.0
C2658 C 0.7436 0.94131 0.90887 0.0
H2659 H 0.78287 0.91502 0.88184 0.0
H2660 H 0.77421 0.93413 0.88687 0.0
H2661 H 0.79827 0.93501 0.89337 0.0
H2662 H 0.79512 0.94916 0.91401 0.0
H2663 H 0.80293 0.98671 0.91766 0.0
H2664 H 0.50884 0.41019 0.41217 0.0
H2665 H 0.53867 0.44795 0.41491 0.0
H2666 H 0.49405 0.46475 0.43265 0.0
H2667 H 0.46374 0.42661 0.43002 0.0
H2668 H 0.53853 0.48711 0.40585 0.0
H2669 H 0.5488 0.4867 0.45611 0.0
H2670 H 0.53511 0.46134 0.44748 0.0
H2671 H 0.52165 0.47712 0.44991 0.0
C2672 C 0.50522 0.42178 0.41669 0.0
C2673 C 0.4838 0.41528 0.42085 0.0
C2674 C 0.52235 0.4434 0.41824 0.0
C2675 C 0.51856 0.45906 0.42401 0.0
C2676 C 0.49731 0.45279 0.42827 0.0
H2677 H 0.63265 0.59561 0.42772 0.0
H2678 H 0.59397 0.56603 0.42957 0.0
C2679 C 0.48003 0.43103 0.42672 0.0
C2680 C 0.53712 0.48196 0.42519 0.0
H2681 H 0.57635 0.51694 0.44524 0.0
C2682 C 0.54651 0.49392 0.4145 0.0
C2683 C 0.54742 0.49073 0.43649 0.0
C2684 C 0.53789 0.47839 0.4482 0.0
C2685 C 0.56667 0.51381 0.41472 0.0
C2686 C 0.5777 0.52182 0.4259 0.0
C2687 C 0.5677 0.51066 0.4367 0.0
C2688 C 0.60096 0.53968 0.42616 0.0
C2689 C 0.57681 0.52551 0.40293 0.0
C2690 C 0.61751 0.53446 0.42383 0.0
C2691 C 0.63946 0.55116 0.42272 0.0
C2692 C 0.64531 0.57348 0.42392 0.0
C2693 C 0.62872 0.57861 0.42673 0.0
C2694 C 0.60665 0.56179 0.42781 0.0
H2695 H 0.56483 0.51903 0.39529 0.0
H2696 H 0.58313 0.54351 0.40388 0.0
H2697 H 0.59104 0.52327 0.40065 0.0
H2698 H 0.61333 0.51744 0.42253 0.0
H2699 H 0.65176 0.54654 0.42065 0.0
H2700 H 0.63278 0.07035 0.43162 0.0
H2701 H 0.59403 0.06116 0.43309 0.0
H2702 H 0.6062 0.11156 0.40669 0.0
H2703 H 0.64461 0.12086 0.40513 0.0
H2704 H 0.57808 0.09176 0.43926 0.0
H2705 H 0.55128 0.05459 0.39361 0.0
H2706 H 0.57546 0.05713 0.4011 0.0
H2707 H 0.5768 0.08043 0.39335 0.0
C2708 C 0.62716 0.0794 0.42608 0.0
C2709 C 0.64183 0.09633 0.41823 0.0
C2710 C 0.60505 0.07412 0.42695 0.0
C2711 C 0.59726 0.08546 0.41986 0.0
C2712 C 0.61184 0.10236 0.41208 0.0
H2713 H 0.50484 0.12212 0.40577 0.0
H2714 H 0.53409 0.11314 0.40791 0.0
C2715 C 0.63387 0.10775 0.41127 0.0
C2716 C 0.57414 0.08057 0.42073 0.0
H2717 H 0.52996 0.06929 0.40278 0.0
C2718 C 0.56722 0.08625 0.43142 0.0
C2719 C 0.56003 0.07323 0.41051 0.0
C2720 C 0.56616 0.06578 0.39902 0.0
C2721 C 0.5473 0.08659 0.43179 0.0
C2722 C 0.53408 0.08098 0.42123 0.0
C2723 C 0.54023 0.07371 0.41085 0.0
C2724 C 0.51577 0.08569 0.42013 0.0
C2725 C 0.54126 0.09448 0.44314 0.0
C2726 C 0.4957 0.07311 0.42628 0.0
C2727 C 0.47877 0.07818 0.42507 0.0
C2728 C 0.48174 0.09596 0.41771 0.0
C2729 C 0.50192 0.10839 0.41155 0.0
C2730 C 0.51869 0.10325 0.41273 0.0
H2731 H 0.55397 0.0994 0.45036 0.0
H2732 H 0.53909 0.1088 0.44098 0.0
H2733 H 0.5253 0.08111 0.44673 0.0
H2734 H 0.49314 0.05938 0.43198 0.0
H2735 H 0.46344 0.06827 0.42994 0.0
H2736 H 0.99326 0.42786 0.42299 0.0
H2737 H 0.00212 0.46641 0.42513 0.0
H2738 H 0.93296 0.44463 0.42969 0.0
H2739 H 0.92396 0.40631 0.42748 0.0
H2740 H 0.98399 0.48604 0.40897 0.0
H2741 H 0.96422 0.49107 0.45717 0.0
H2742 H 0.97053 0.47049 0.45162 0.0
H2743 H 0.94337 0.4668 0.44959 0.0
C2744 C 0.98 0.43129 0.42465 0.0
C2745 C 0.95789 0.41405 0.42498 0.0
C2746 C 0.98509 0.45329 0.42586 0.0
C2747 C 0.96821 0.45829 0.42771 0.0
C2748 C 0.94626 0.44108 0.42847 0.0
H2749 H 0.93394 0.55143 0.40722 0.0
H2750 H 0.94245 0.52193 0.41008 0.0
C2751 C 0.94113 0.41919 0.4271 0.0
C2752 C 0.97287 0.48138 0.42755 0.0
H2753 H 0.96278 0.51731 0.44346 0.0
C2754 C 0.97988 0.49315 0.4166 0.0
C2755 C 0.96773 0.4907 0.43755 0.0
C2756 C 0.96125 0.47922 0.44969 0.0
C2757 C 0.98022 0.51324 0.41509 0.0
C2758 C 0.9732 0.52158 0.42476 0.0
C2759 C 0.9679 0.51072 0.43602 0.0
C2760 C 0.96889 0.54004 0.42292 0.0
C2761 C 0.98723 0.52494 0.40302 0.0
C2762 C 0.9807 0.55987 0.42939 0.0
C2763 C 0.97588 0.5769 0.42778 0.0
C2764 C 0.95894 0.57418 0.4198 0.0
C2765 C 0.94708 0.55415 0.41344 0.0
C2766 C 0.95202 0.53729 0.41498 0.0
H2767 H 0.99802 0.52025 0.39796 0.0
H2768 H 0.97234 0.52024 0.3974 0.0
H2769 H 0.99613 0.54315 0.40423 0.0
H2770 H 0.99365 0.56218 0.43565 0.0
H2771 H 0.98528 0.59207 0.43287 0.0
H2772 H 0.74398 0.17569 0.26084 0.0
H2773 H 0.78188 0.20547 0.25856 0.0
H2774 H 0.79862 0.16154 0.23995 0.0
H2775 H 0.76033 0.13131 0.24208 0.0
H2776 H 0.82078 0.20493 0.26741 0.0
H2777 H 0.82118 0.21715 0.21729 0.0
H2778 H 0.79569 0.20293 0.22576 0.0
H2779 H 0.81171 0.18978 0.22314 0.0
C2780 C 0.75558 0.17221 0.25622 0.0
C2781 C 0.74901 0.15102 0.25164 0.0
C2782 C 0.77729 0.18931 0.25494 0.0
C2783 C 0.79298 0.18571 0.24905 0.0
C2784 C 0.78665 0.16467 0.24442 0.0
H2785 H 0.92787 0.30169 0.24173 0.0
H2786 H 0.89856 0.26282 0.24031 0.0
C2787 C 0.7648 0.14743 0.2457 0.0
C2788 C 0.81591 0.20428 0.24806 0.0
H2789 H 0.85117 0.24431 0.22846 0.0
C2790 C 0.82768 0.21327 0.25886 0.0
C2791 C 0.82489 0.215 0.23688 0.0
C2792 C 0.8128 0.20588 0.22506 0.0
C2793 C 0.84752 0.23348 0.25887 0.0
C2794 C 0.85562 0.24505 0.24782 0.0
C2795 C 0.84478 0.23533 0.2369 0.0
C2796 C 0.87323 0.26845 0.24782 0.0
C2797 C 0.8591 0.24297 0.27077 0.0
C2798 C 0.86844 0.28437 0.25226 0.0
C2799 C 0.88496 0.30643 0.25307 0.0
C2800 C 0.90671 0.31309 0.24945 0.0
C2801 C 0.91133 0.29714 0.24464 0.0
C2802 C 0.89466 0.27495 0.24381 0.0
H2803 H 0.85395 0.23004 0.27788 0.0
H2804 H 0.8773 0.25126 0.26963 0.0
H2805 H 0.85493 0.25551 0.27398 0.0
H2806 H 0.85191 0.27961 0.2553 0.0
H2807 H 0.88068 0.31818 0.25674 0.0
H2808 H 0.92508 0.6535 0.23846 0.0
H2809 H 0.89498 0.66167 0.23601 0.0
H2810 H 0.85957 0.61728 0.26545 0.0
H2811 H 0.88926 0.60894 0.26796 0.0
H2812 H 0.84876 0.6285 0.23133 0.0
H2813 H 0.85944 0.67557 0.27372 0.0
H2814 H 0.8814 0.67248 0.26707 0.0
H2815 H 0.86031 0.65057 0.27603 0.0
C2816 C 0.91096 0.64561 0.24448 0.0
C2817 C 0.90958 0.63053 0.25341 0.0
C2818 C 0.89382 0.65032 0.24306 0.0
C2819 C 0.87527 0.64033 0.25067 0.0
C2820 C 0.87395 0.62546 0.25963 0.0
H2821 H 0.74207 0.59294 0.25514 0.0
H2822 H 0.7805 0.60262 0.25272 0.0
C2823 C 0.89089 0.62058 0.26098 0.0
C2824 C 0.85641 0.64406 0.24892 0.0
H2825 H 0.82317 0.65817 0.26462 0.0
C2826 C 0.84343 0.63552 0.23844 0.0
C2827 C 0.84963 0.6534 0.25818 0.0
C2828 C 0.86353 0.66373 0.26934 0.0
C2829 C 0.8229 0.63445 0.23746 0.0
C2830 C 0.81533 0.64211 0.24717 0.0
C2831 C 0.82906 0.65223 0.25721 0.0
C2832 C 0.79206 0.63665 0.2479 0.0
C2833 C 0.80884 0.62405 0.22636 0.0
C2834 C 0.78594 0.6527 0.246 0.0
C2835 C 0.76382 0.64721 0.24731 0.0
C2836 C 0.74764 0.62566 0.25072 0.0
C2837 C 0.75402 0.6097 0.25254 0.0
C2838 C 0.77597 0.61515 0.25112 0.0
H2839 H 0.8186 0.62293 0.21872 0.0
H2840 H 0.79548 0.60712 0.22865 0.0
H2841 H 0.80096 0.63368 0.22338 0.0
H2842 H 0.79825 0.66942 0.24356 0.0
H2843 H 0.7595 0.6599 0.24585 0.0
H2844 H 0.40516 0.30192 0.23546 0.0
H2845 H 0.39725 0.26407 0.23124 0.0
H2846 H 0.43835 0.2681 0.26145 0.0
H2847 H 0.44651 0.30565 0.26564 0.0
H2848 H 0.43295 0.25206 0.22708 0.0
H2849 H 0.37716 0.20853 0.26576 0.0
H2850 H 0.38087 0.2342 0.25965 0.0
H2851 H 0.40111 0.23434 0.26977 0.0
C2852 C 0.41235 0.29463 0.24124 0.0
C2853 C 0.42652 0.3068 0.25086 0.0
C2854 C 0.40783 0.27308 0.23881 0.0
C2855 C 0.41704 0.26332 0.24613 0.0
C2856 C 0.43089 0.2753 0.2558 0.0
H2857 H 0.4666 0.17887 0.24776 0.0
H2858 H 0.45714 0.20753 0.24421 0.0
C2859 C 0.43564 0.29682 0.25813 0.0
C2860 C 0.41356 0.24109 0.24346 0.0
H2861 H 0.39661 0.19144 0.25718 0.0
C2862 C 0.42451 0.23854 0.23346 0.0
C2863 C 0.40231 0.22345 0.25171 0.0
C2864 C 0.3895 0.22511 0.26228 0.0
C2865 C 0.42609 0.21941 0.23209 0.0
C2866 C 0.41664 0.20264 0.24102 0.0
C2867 C 0.40402 0.2044 0.2504 0.0
C2868 C 0.42219 0.18484 0.24178 0.0
C2869 C 0.43868 0.21773 0.22142 0.0
C2870 C 0.40563 0.16252 0.2417 0.0
C2871 C 0.41098 0.14598 0.24376 0.0
C2872 C 0.43296 0.15156 0.24615 0.0
C2873 C 0.4495 0.17395 0.246 0.0
C2874 C 0.44416 0.19038 0.24384 0.0
H2875 H 0.43839 0.22763 0.2136 0.0
H2876 H 0.45618 0.22431 0.22407 0.0
H2877 H 0.4318 0.2003 0.21848 0.0
H2878 H 0.38853 0.15795 0.24025 0.0
H2879 H 0.39783 0.12891 0.24384 0.0
H2880 H 0.29747 0.92606 0.75943 0.0
H2881 H 0.25969 0.89525 0.76225 0.0
H2882 H 0.28173 0.84898 0.75432 0.0
H2883 H 0.31931 0.87942 0.75139 0.0
H2884 H 0.2351 0.86134 0.74337 0.0
H2885 H 0.24477 0.82637 0.78664 0.0
H2886 H 0.26312 0.85468 0.78214 0.0
H2887 H 0.2663 0.83277 0.77574 0.0
C2888 C 0.29431 0.90931 0.75839 0.0
C2889 C 0.31141 0.9052 0.75514 0.0
C2890 C 0.27273 0.89177 0.76001 0.0
C2891 C 0.26805 0.8699 0.75863 0.0
C2892 C 0.28511 0.86576 0.7556 0.0
H2893 H 0.16955 0.74499 0.73794 0.0
H2894 H 0.20004 0.78257 0.74084 0.0
C2895 C 0.30656 0.88321 0.75384 0.0
C2896 C 0.24517 0.85122 0.75948 0.0
H2897 H 0.21387 0.80216 0.77412 0.0
C2898 C 0.23023 0.84862 0.75024 0.0
C2899 C 0.23886 0.83479 0.76852 0.0
C2900 C 0.25401 0.83731 0.7789 0.0
C2901 C 0.20968 0.82919 0.74932 0.0
C2902 C 0.20407 0.81207 0.75784 0.0
C2903 C 0.21833 0.81532 0.76757 0.0
C2904 C 0.18487 0.7898 0.75593 0.0
C2905 C 0.19445 0.82663 0.73897 0.0
C2906 C 0.16632 0.78147 0.76353 0.0
C2907 C 0.14869 0.75995 0.76184 0.0
C2908 C 0.14961 0.74637 0.75268 0.0
C2909 C 0.16831 0.75492 0.74511 0.0
C2910 C 0.18571 0.77643 0.74671 0.0
H2911 H 0.19878 0.84281 0.73485 0.0
H2912 H 0.19573 0.81612 0.73183 0.0
H2913 H 0.17703 0.81838 0.74211 0.0
H2914 H 0.16551 0.79157 0.77075 0.0
H2915 H 0.13457 0.75383 0.76785 0.0
H2916 H 0.29822 0.40159 0.76377 0.0
H2917 H 0.25948 0.39253 0.76526 0.0
H2918 H 0.27335 0.44711 0.7416 0.0
H2919 H 0.31169 0.45629 0.74004 0.0
H2920 H 0.24339 0.42271 0.77313 0.0
H2921 H 0.21911 0.39219 0.72606 0.0
H2922 H 0.24266 0.3933 0.73356 0.0
H2923 H 0.24481 0.41781 0.72689 0.0
C2924 C 0.29297 0.41159 0.75885 0.0
C2925 C 0.30809 0.42964 0.75176 0.0
C2926 C 0.27087 0.4064 0.75973 0.0
C2927 C 0.26356 0.41896 0.75339 0.0
C2928 C 0.27862 0.43699 0.7464 0.0
H2929 H 0.17165 0.4575 0.74123 0.0
H2930 H 0.20101 0.44854 0.74289 0.0
C2931 C 0.3006 0.44229 0.74558 0.0
C2932 C 0.24044 0.41408 0.75418 0.0
H2933 H 0.19744 0.40572 0.736 0.0
C2934 C 0.23299 0.41837 0.76513 0.0
C2935 C 0.22694 0.40831 0.74373 0.0
C2936 C 0.23367 0.40242 0.73192 0.0
C2937 C 0.21315 0.41887 0.7656 0.0
C2938 C 0.20056 0.41484 0.75488 0.0
C2939 C 0.20723 0.40894 0.74418 0.0
C2940 C 0.18227 0.41965 0.75411 0.0
C2941 C 0.20653 0.42524 0.7773 0.0
C2942 C 0.16193 0.40625 0.75985 0.0
C2943 C 0.14495 0.41131 0.75891 0.0
C2944 C 0.14812 0.42987 0.75222 0.0
C2945 C 0.16858 0.44314 0.74649 0.0
C2946 C 0.1854 0.43803 0.74739 0.0
H2947 H 0.21891 0.42927 0.78462 0.0
H2948 H 0.20437 0.43976 0.77577 0.0
H2949 H 0.19045 0.41139 0.78042 0.0
H2950 H 0.15918 0.39189 0.765 0.0
H2951 H 0.12941 0.40074 0.76345 0.0
H2952 H 0.6577 0.75975 0.75953 0.0
H2953 H 0.66461 0.79753 0.76243 0.0
H2954 H 0.59751 0.77636 0.752 0.0
H2955 H 0.59044 0.73884 0.74901 0.0
H2956 H 0.65744 0.82386 0.74338 0.0
H2957 H 0.60787 0.81031 0.78516 0.0
H2958 H 0.61847 0.79244 0.78075 0.0
H2959 H 0.5941 0.7897 0.77361 0.0
C2960 C 0.64438 0.76312 0.75793 0.0
C2961 C 0.62351 0.74624 0.75403 0.0
C2962 C 0.64837 0.78468 0.75959 0.0
C2963 C 0.63147 0.78958 0.75757 0.0
C2964 C 0.61066 0.77279 0.75377 0.0
H2965 H 0.60357 0.88717 0.73796 0.0
H2966 H 0.61131 0.85705 0.74068 0.0
C2967 C 0.60671 0.75137 0.752 0.0
C2968 C 0.63549 0.81235 0.75877 0.0
H2969 H 0.61555 0.84207 0.77312 0.0
C2970 C 0.64874 0.82808 0.75006 0.0
C2971 C 0.62422 0.8178 0.76755 0.0
C2972 C 0.61051 0.80176 0.77738 0.0
C2973 C 0.64967 0.84858 0.74936 0.0
C2974 C 0.63708 0.85333 0.75757 0.0
C2975 C 0.62511 0.83827 0.76681 0.0
C2976 C 0.6338 0.8724 0.75571 0.0
C2977 C 0.66324 0.86467 0.73951 0.0
C2978 C 0.64391 0.89095 0.76331 0.0
C2979 C 0.63964 0.90836 0.76174 0.0
C2980 C 0.62489 0.90722 0.75267 0.0
C2981 C 0.6149 0.88856 0.74508 0.0
C2982 C 0.61938 0.87137 0.74656 0.0
H2983 H 0.67522 0.8605 0.73541 0.0
H2984 H 0.65208 0.86435 0.73224 0.0
H2985 H 0.67237 0.88174 0.74319 0.0
H2986 H 0.65498 0.89188 0.77047 0.0
H2987 H 0.64756 0.92247 0.76776 0.0
H2988 H 0.59417 0.63278 0.57775 0.0
H2989 H 0.56334 0.59517 0.57435 0.0
H2990 H 0.51735 0.61587 0.58547 0.0
H2991 H 0.54775 0.65321 0.58894 0.0
H2992 H 0.52929 0.56735 0.59273 0.0
H2993 H 0.4946 0.58461 0.55166 0.0
H2994 H 0.52293 0.60202 0.55642 0.0
H2995 H 0.50114 0.60442 0.56364 0.0
C2996 C 0.57747 0.62934 0.57941 0.0
C2997 C 0.57344 0.64604 0.58362 0.0
C2998 C 0.55993 0.60786 0.57747 0.0
C2999 C 0.53812 0.6029 0.57952 0.0
C3000 C 0.53407 0.61949 0.58368 0.0
H3001 H 0.40656 0.51212 0.5891 0.0
H3002 H 0.44411 0.54209 0.58586 0.0
C3003 C 0.55151 0.64082 0.58573 0.0
C3004 C 0.51931 0.58028 0.57781 0.0
H3005 H 0.46972 0.55252 0.56327 0.0
C3006 C 0.51647 0.5638 0.58609 0.0
C3007 C 0.50276 0.57578 0.56909 0.0
C3008 C 0.50555 0.59257 0.55961 0.0
C3009 C 0.4966 0.54349 0.58651 0.0
C3010 C 0.4794 0.53968 0.57838 0.0
C3011 C 0.48292 0.55557 0.56954 0.0
C3012 C 0.45671 0.52095 0.58001 0.0
C3013 C 0.4935 0.5269 0.59619 0.0
C3014 C 0.45133 0.49907 0.5777 0.0
C3015 C 0.4297 0.48172 0.57954 0.0
C3016 C 0.41319 0.48605 0.58374 0.0
C3017 C 0.41877 0.50808 0.58591 0.0
C3018 C 0.44025 0.52529 0.58403 0.0
H3019 H 0.50787 0.53318 0.60244 0.0
H3020 H 0.47846 0.52252 0.60161 0.0
H3021 H 0.49116 0.51155 0.59184 0.0
H3022 H 0.46381 0.49545 0.57448 0.0
H3023 H 0.42597 0.46497 0.57774 0.0
H3024 H 0.42761 0.99266 0.57922 0.0
H3025 H 0.46546 -0.00023 0.57636 0.0
H3026 H 0.44282 0.93062 0.58183 0.0
H3027 H 0.40523 0.92336 0.58477 0.0
H3028 H 0.48919 0.9886 0.59457 0.0
H3029 H 0.48117 0.94779 0.55018 0.0
H3030 H 0.46253 0.95719 0.55504 0.0
H3031 H 0.45919 0.93152 0.56063 0.0
C3032 C 0.43067 0.97894 0.57968 0.0
C3033 C 0.4134 0.95745 0.58227 0.0
C3034 C 0.45228 0.98305 0.57805 0.0
C3035 C 0.45681 0.96566 0.57873 0.0
C3036 C 0.43957 0.94419 0.58108 0.0
H3037 H 0.55183 0.93406 0.59833 0.0
H3038 H 0.5217 0.94157 0.59513 0.0
C3039 C 0.41811 0.94012 0.58285 0.0
C3040 C 0.47968 0.9698 0.57797 0.0
H3041 H 0.51112 0.95248 0.56304 0.0
C3042 C 0.49425 0.98121 0.58753 0.0
C3043 C 0.48623 0.96024 0.56872 0.0
C3044 C 0.47155 0.94866 0.55798 0.0
C3045 C 0.51456 0.98184 0.58854 0.0
C3046 C 0.52033 0.97083 0.57979 0.0
C3047 C 0.50652 0.96081 0.56977 0.0
C3048 C 0.53912 0.96714 0.58175 0.0
C3049 C 0.52931 0.99332 0.59927 0.0
C3050 C 0.55883 0.97902 0.5752 0.0
C3051 C 0.57625 0.97487 0.57705 0.0
C3052 C 0.57405 0.95856 0.58537 0.0
C3053 C 0.55414 0.94669 0.59184 0.0
C3054 C 0.5369 0.95099 0.59006 0.0
H3055 H 0.52459 0.00442 0.60397 0.0
H3056 H 0.52807 0.98073 0.60587 0.0
H3057 H 0.54681 0.00311 0.59632 0.0
H3058 H 0.56072 0.99149 0.56869 0.0
H3059 H 0.59132 0.98427 0.57188 0.0
H3060 H 0.07025 0.63355 0.57395 0.0
H3061 H 0.0614 0.59492 0.5724 0.0
H3062 H 0.11456 0.60837 0.59707 0.0
H3063 H 0.12351 0.64666 0.59872 0.0
H3064 H 0.09104 0.57881 0.565 0.0
H3065 H 0.05968 0.55387 0.61185 0.0
H3066 H 0.0614 0.57783 0.60453 0.0
H3067 H 0.08553 0.57934 0.61131 0.0
C3068 C 0.08 0.62826 0.57908 0.0
C3069 C 0.09756 0.64324 0.5865 0.0
C3070 C 0.07491 0.6062 0.57817 0.0
C3071 C 0.0871 0.59878 0.58478 0.0
C3072 C 0.1047 0.61371 0.59208 0.0
H3073 H 0.12494 0.50636 0.59666 0.0
H3074 H 0.1162 0.53585 0.59497 0.0
C3075 C 0.10987 0.63567 0.59294 0.0
C3076 C 0.08226 0.57566 0.58393 0.0
H3077 H 0.07327 0.53221 0.60192 0.0
C3078 C 0.08656 0.56829 0.57295 0.0
C3079 C 0.07624 0.56197 0.59432 0.0
C3080 C 0.07022 0.56855 0.60614 0.0
C3081 C 0.08683 0.54833 0.57239 0.0
C3082 C 0.08257 0.53556 0.58306 0.0
C3083 C 0.07667 0.54216 0.59378 0.0
C3084 C 0.08727 0.51719 0.58378 0.0
C3085 C 0.09319 0.54177 0.56068 0.0
C3086 C 0.07379 0.49686 0.57804 0.0
C3087 C 0.07873 0.47979 0.57899 0.0
C3088 C 0.09724 0.48286 0.58569 0.0
C3089 C 0.1106 0.50334 0.5914 0.0
C3090 C 0.10562 0.52025 0.59048 0.0
H3091 H 0.09721 0.55419 0.55338 0.0
H3092 H 0.1077 0.53962 0.56219 0.0
H3093 H 0.07935 0.52569 0.55754 0.0
H3094 H 0.05945 0.49419 0.5729 0.0
H3095 H 0.06808 0.46424 0.57448 0.0
loop_
_geom_bond_atom_site_label_1
_geom_bond_atom_site_label_2
_geom_bond_distance
_geom_bond_site_symmetry_2
_ccdc_geom_bond_type
Co0 O1 2.216 . S
Co0 O2 2.091 . S
Co0 O4 2.004 . S
Co0 O10 2.021 . S
Co0 O12 2.137 . S
Co0 O13 2.244 . S
O1 Co0 2.216 . S
O1 C8 1.247 . S
O2 Co0 2.091 . S
O2 C8 1.261 . S
C3 O12 1.247 . S
C3 O13 1.272 . S
O4 Co0 2.004 . S
O4 C9 1.259 . S
Co5 O6 2.061 . S
Co5 O11 2.052 . S
Co5 O13 2.135 . S
O6 Co5 2.061 . S
O6 C9 1.235 . S
C7 O10 1.238 1_655 S
C7 O11 1.241 1_655 S
C8 O1 1.247 . S
C8 O2 1.261 . S
C9 O4 1.259 . S
C9 O6 1.235 . S
O10 Co0 2.021 . S
O10 C7 1.238 1_455 S
O11 Co5 2.052 . S
O11 C7 1.241 1_455 S
O12 Co0 2.137 . S
O12 C3 1.247 . S
O13 Co0 2.244 . S
O13 C3 1.272 . S
O13 Co5 2.135 . S
Co14 O15 2.216 . S
Co14 O16 2.091 . S
Co14 O18 2.004 . S
Co14 O24 2.021 . S
Co14 O26 2.137 . S
Co14 O27 2.244 . S
O15 Co14 2.216 . S
O15 C22 1.247 . S
O16 Co14 2.091 . S
O16 C22 1.261 . S
C17 O26 1.247 . S
C17 O27 1.272 . S
O18 Co14 2.004 . S
O18 C23 1.259 . S
Co19 O20 2.061 . S
Co19 O25 2.052 . S
Co19 O27 2.135 . S
O20 Co19 2.061 . S
O20 C23 1.235 . S
C21 O24 1.238 . S
C21 O25 1.241 . S
C22 O15 1.247 . S
C22 O16 1.261 . S
C23 O18 1.259 . S
C23 O20 1.235 . S
O24 Co14 2.021 . S
O24 C21 1.238 . S
O25 Co19 2.052 . S
O25 C21 1.241 . S
O26 Co14 2.137 . S
O26 C17 1.247 . S
O27 Co14 2.244 . S
O27 C17 1.272 . S
O27 Co19 2.135 . S
Co28 O29 2.216 . S
Co28 O30 2.091 . S
Co28 O32 2.004 . S
Co28 O38 2.021 . S
Co28 O40 2.137 1_545 S
Co28 O41 2.244 . S
O29 Co28 2.216 . S
O29 C36 1.247 . S
O30 Co28 2.091 . S
O30 C36 1.261 . S
C31 O40 1.247 . S
C31 O41 1.272 1_565 S
O32 Co28 2.004 . S
O32 C37 1.259 . S
Co33 O34 2.061 . S
Co33 O39 2.052 . S
Co33 O41 2.135 . S
O34 Co33 2.061 . S
O34 C37 1.235 . S
C35 O38 1.238 . S
C35 O39 1.241 . S
C36 O29 1.247 . S
C36 O30 1.261 . S
C37 O32 1.259 . S
C37 O34 1.235 . S
O38 Co28 2.021 . S
O38 C35 1.238 . S
O39 Co33 2.052 . S
O39 C35 1.241 . S
O40 Co28 2.137 1_565 S
O40 C31 1.247 . S
O41 Co28 2.244 . S
O41 C31 1.272 1_545 S
O41 Co33 2.135 . S
Co42 O43 2.216 . S
Co42 O44 2.091 . S
Co42 O46 2.004 . S
Co42 O52 2.021 . S
Co42 O54 2.137 . S
Co42 O55 2.244 . S
O43 Co42 2.216 . S
O43 C50 1.247 . S
O44 Co42 2.091 . S
O44 C50 1.261 . S
C45 O54 1.247 . S
C45 O55 1.272 . S
O46 Co42 2.004 . S
O46 C51 1.259 . S
Co47 O48 2.061 . S
Co47 O53 2.052 . S
Co47 O55 2.135 . S
O48 Co47 2.061 . S
O48 C51 1.235 . S
C49 O52 1.238 1_565 S
C49 O53 1.241 1_565 S
C50 O43 1.247 . S
C50 O44 1.261 . S
C51 O46 1.259 . S
C51 O48 1.235 . S
O52 Co42 2.021 . S
O52 C49 1.238 1_545 S
O53 Co47 2.052 . S
O53 C49 1.241 1_545 S
O54 Co42 2.137 . S
O54 C45 1.247 . S
O55 Co42 2.244 . S
O55 C45 1.272 . S
O55 Co47 2.135 . S
Co56 O57 2.216 . S
Co56 O58 2.091 . S
Co56 O60 2.004 . S
Co56 O66 2.021 . S
Co56 O68 2.137 1_455 S
Co56 O69 2.244 . S
O57 Co56 2.216 . S
O57 C64 1.247 . S
O58 Co56 2.091 . S
O58 C64 1.261 . S
C59 O68 1.247 . S
C59 O69 1.272 1_655 S
O60 Co56 2.004 . S
O60 C65 1.259 . S
Co61 O62 2.061 . S
Co61 O67 2.052 . S
Co61 O69 2.135 . S
O62 Co61 2.061 . S
O62 C65 1.235 . S
C63 O66 1.238 . S
C63 O67 1.241 . S
C64 O57 1.247 . S
C64 O58 1.261 . S
C65 O60 1.259 . S
C65 O62 1.235 . S
O66 Co56 2.021 . S
O66 C63 1.238 . S
O67 Co61 2.052 . S
O67 C63 1.241 . S
O68 Co56 2.137 1_655 S
O68 C59 1.247 . S
O69 Co56 2.244 . S
O69 C59 1.272 1_455 S
O69 Co61 2.135 . S
Co70 O71 2.216 . S
Co70 O72 2.091 . S
Co70 O74 2.004 . S
Co70 O80 2.021 . S
Co70 O82 2.137 . S
Co70 O83 2.244 . S
O71 Co70 2.216 . S
O71 C78 1.247 . S
O72 Co70 2.091 . S
O72 C78 1.261 . S
C73 O82 1.247 . S
C73 O83 1.272 . S
O74 Co70 2.004 . S
O74 C79 1.259 . S
Co75 O76 2.061 . S
Co75 O81 2.052 . S
Co75 O83 2.135 . S
O76 Co75 2.061 . S
O76 C79 1.235 . S
C77 O80 1.238 . S
C77 O81 1.241 . S
C78 O71 1.247 . S
C78 O72 1.261 . S
C79 O74 1.259 . S
C79 O76 1.235 . S
O80 Co70 2.021 . S
O80 C77 1.238 . S
O81 Co75 2.052 . S
O81 C77 1.241 . S
O82 Co70 2.137 . S
O82 C73 1.247 . S
O83 Co70 2.244 . S
O83 C73 1.272 . S
O83 Co75 2.135 . S
Co84 O85 2.216 . S
Co84 O86 2.091 . S
Co84 O88 2.004 . S
Co84 O94 2.021 . S
Co84 O96 2.137 1_455 S
Co84 O97 2.244 . S
O85 Co84 2.216 . S
O85 C92 1.247 . S
O86 Co84 2.091 . S
O86 C92 1.261 . S
C87 O96 1.247 . S
C87 O97 1.272 1_655 S
O88 Co84 2.004 . S
O88 C93 1.259 . S
Co89 O90 2.061 . S
Co89 O95 2.052 . S
Co89 O97 2.135 . S
O90 Co89 2.061 . S
O90 C93 1.235 . S
C91 O94 1.238 . S
C91 O95 1.241 . S
C92 O85 1.247 . S
C92 O86 1.261 . S
C93 O88 1.259 . S
C93 O90 1.235 . S
O94 Co84 2.021 . S
O94 C91 1.238 . S
O95 Co89 2.052 . S
O95 C91 1.241 . S
O96 Co84 2.137 1_655 S
O96 C87 1.247 . S
O97 Co84 2.244 . S
O97 C87 1.272 1_455 S
O97 Co89 2.135 . S
Co98 O99 2.216 . S
Co98 O100 2.091 . S
Co98 O102 2.004 . S
Co98 O108 2.021 . S
Co98 O110 2.137 . S
Co98 O111 2.244 . S
O99 Co98 2.216 . S
O99 C106 1.247 . S
O100 Co98 2.091 . S
O100 C106 1.261 . S
C101 O110 1.247 . S
C101 O111 1.272 . S
O102 Co98 2.004 . S
O102 C107 1.259 . S
Co103 O104 2.061 . S
Co103 O109 2.052 . S
Co103 O111 2.135 . S
O104 Co103 2.061 . S
O104 C107 1.235 . S
C105 O108 1.238 . S
C105 O109 1.241 . S
C106 O99 1.247 . S
C106 O100 1.261 . S
C107 O102 1.259 . S
C107 O104 1.235 . S
O108 Co98 2.021 . S
O108 C105 1.238 . S
O109 Co103 2.052 . S
O109 C105 1.241 . S
O110 Co98 2.137 . S
O110 C101 1.247 . S
O111 Co98 2.244 . S
O111 C101 1.272 . S
O111 Co103 2.135 . S
Co112 O113 2.216 . S
Co112 O114 2.091 . S
Co112 O116 2.004 . S
Co112 O122 2.021 . S
Co112 O124 2.137 . S
Co112 O125 2.244 . S
O113 Co112 2.216 . S
O113 C120 1.247 . S
O114 Co112 2.091 . S
O114 C120 1.261 . S
C115 O124 1.247 . S
C115 O125 1.272 . S
O116 Co112 2.004 . S
O116 C121 1.259 . S
Co117 O118 2.061 . S
Co117 O123 2.052 . S
Co117 O125 2.135 . S
O118 Co117 2.061 . S
O118 C121 1.235 . S
C119 O122 1.238 1_565 S
C119 O123 1.241 1_565 S
C120 O113 1.247 . S
C120 O114 1.261 . S
C121 O116 1.259 . S
C121 O118 1.235 . S
O122 Co112 2.021 . S
O122 C119 1.238 1_545 S
O123 Co117 2.052 . S
O123 C119 1.241 1_545 S
O124 Co112 2.137 . S
O124 C115 1.247 . S
O125 Co112 2.244 . S
O125 C115 1.272 . S
O125 Co117 2.135 . S
Co126 O127 2.216 . S
Co126 O128 2.091 . S
Co126 O130 2.004 . S
Co126 O136 2.021 . S
Co126 O138 2.137 1_545 S
Co126 O139 2.244 . S
O127 Co126 2.216 . S
O127 C134 1.247 . S
O128 Co126 2.091 . S
O128 C134 1.261 . S
C129 O138 1.247 . S
C129 O139 1.272 1_565 S
O130 Co126 2.004 . S
O130 C135 1.259 . S
Co131 O132 2.061 . S
Co131 O137 2.052 . S
Co131 O139 2.135 . S
O132 Co131 2.061 . S
O132 C135 1.235 . S
C133 O136 1.238 . S
C133 O137 1.241 . S
C134 O127 1.247 . S
C134 O128 1.261 . S
C135 O130 1.259 . S
C135 O132 1.235 . S
O136 Co126 2.021 . S
O136 C133 1.238 . S
O137 Co131 2.052 . S
O137 C133 1.241 . S
O138 Co126 2.137 1_565 S
O138 C129 1.247 . S
O139 Co126 2.244 . S
O139 C129 1.272 1_545 S
O139 Co131 2.135 . S
Co140 O141 2.216 . S
Co140 O142 2.091 . S
Co140 O144 2.004 . S
Co140 O150 2.021 . S
Co140 O152 2.137 . S
Co140 O153 2.244 . S
O141 Co140 2.216 . S
O141 C148 1.247 . S
O142 Co140 2.091 . S
O142 C148 1.261 . S
C143 O152 1.247 . S
C143 O153 1.272 . S
O144 Co140 2.004 . S
O144 C149 1.259 . S
Co145 O146 2.061 . S
Co145 O151 2.052 . S
Co145 O153 2.135 . S
O146 Co145 2.061 . S
O146 C149 1.235 . S
C147 O150 1.238 1_655 S
C147 O151 1.241 1_655 S
C148 O141 1.247 . S
C148 O142 1.261 . S
C149 O144 1.259 . S
C149 O146 1.235 . S
O150 Co140 2.021 . S
O150 C147 1.238 1_455 S
O151 Co145 2.052 . S
O151 C147 1.241 1_455 S
O152 Co140 2.137 . S
O152 C143 1.247 . S
O153 Co140 2.244 . S
O153 C143 1.272 . S
O153 Co145 2.135 . S
Co154 O155 2.216 . S
Co154 O156 2.091 . S
Co154 O158 2.004 . S
Co154 O164 2.021 . S
Co154 O166 2.137 . S
Co154 O167 2.244 . S
O155 Co154 2.216 . S
O155 C162 1.247 . S
O156 Co154 2.091 . S
O156 C162 1.261 . S
C157 O166 1.247 . S
C157 O167 1.272 . S
O158 Co154 2.004 . S
O158 C163 1.259 . S
Co159 O160 2.061 . S
Co159 O165 2.052 . S
Co159 O167 2.135 . S
O160 Co159 2.061 . S
O160 C163 1.235 . S
C161 O164 1.238 . S
C161 O165 1.241 . S
C162 O155 1.247 . S
C162 O156 1.261 . S
C163 O158 1.259 . S
C163 O160 1.235 . S
O164 Co154 2.021 . S
O164 C161 1.238 . S
O165 Co159 2.052 . S
O165 C161 1.241 . S
O166 Co154 2.137 . S
O166 C157 1.247 . S
O167 Co154 2.244 . S
O167 C157 1.272 . S
O167 Co159 2.135 . S
Co168 O169 2.216 . S
Co168 O170 2.091 . S
Co168 O172 2.004 . S
Co168 O178 2.021 . S
Co168 O180 2.137 . S
Co168 O181 2.244 . S
O169 Co168 2.216 . S
O169 C176 1.247 . S
O170 Co168 2.091 . S
O170 C176 1.261 . S
C171 O180 1.247 . S
C171 O181 1.272 . S
O172 Co168 2.004 . S
O172 C177 1.259 . S
Co173 O174 2.061 . S
Co173 O179 2.052 . S
Co173 O181 2.135 . S
O174 Co173 2.061 . S
O174 C177 1.235 . S
C175 O178 1.238 . S
C175 O179 1.241 . S
C176 O169 1.247 . S
C176 O170 1.261 . S
C177 O172 1.259 . S
C177 O174 1.235 . S
O178 Co168 2.021 . S
O178 C175 1.238 . S
O179 Co173 2.052 . S
O179 C175 1.241 . S
O180 Co168 2.137 . S
O180 C171 1.247 . S
O181 Co168 2.244 . S
O181 C171 1.272 . S
O181 Co173 2.135 . S
Co182 O183 2.216 . S
Co182 O184 2.091 . S
Co182 O186 2.004 . S
Co182 O192 2.021 . S
Co182 O194 2.137 . S
Co182 O195 2.244 . S
O183 Co182 2.216 . S
O183 C190 1.247 . S
O184 Co182 2.091 . S
O184 C190 1.261 . S
C185 O194 1.247 . S
C185 O195 1.272 . S
O186 Co182 2.004 . S
O186 C191 1.259 . S
Co187 O188 2.061 . S
Co187 O193 2.052 . S
Co187 O195 2.135 . S
O188 Co187 2.061 . S
O188 C191 1.235 . S
C189 O192 1.238 . S
C189 O193 1.241 . S
C190 O183 1.247 . S
C190 O184 1.261 . S
C191 O186 1.259 . S
C191 O188 1.235 . S
O192 Co182 2.021 . S
O192 C189 1.238 . S
O193 Co187 2.052 . S
O193 C189 1.241 . S
O194 Co182 2.137 . S
O194 C185 1.247 . S
O195 Co182 2.244 . S
O195 C185 1.272 . S
O195 Co187 2.135 . S
Co196 O197 2.216 . S
Co196 O198 2.091 1_655 S
Co196 O200 2.004 . S
Co196 O206 2.021 . S
Co196 O208 2.137 . S
Co196 O209 2.244 . S
O197 Co196 2.216 . S
O197 C204 1.247 . S
O198 Co196 2.091 1_455 S
O198 C204 1.261 1_455 S
C199 O208 1.247 . S
C199 O209 1.272 . S
O200 Co196 2.004 . S
O200 C205 1.259 . S
Co201 O202 2.061 . S
Co201 O207 2.052 . S
Co201 O209 2.135 . S
O202 Co201 2.061 . S
O202 C205 1.235 . S
C203 O206 1.238 . S
C203 O207 1.241 . S
C204 O197 1.247 . S
C204 O198 1.261 1_655 S
C205 O200 1.259 . S
C205 O202 1.235 . S
O206 Co196 2.021 . S
O206 C203 1.238 . S
O207 Co201 2.052 . S
O207 C203 1.241 . S
O208 Co196 2.137 . S
O208 C199 1.247 . S
O209 Co196 2.244 . S
O209 C199 1.272 . S
O209 Co201 2.135 . S
Co210 O211 2.216 . S
Co210 O212 2.091 1_655 S
Co210 O214 2.004 . S
Co210 O220 2.021 . S
Co210 O222 2.136 . S
Co210 O223 2.244 . S
O211 Co210 2.216 . S
O211 C218 1.247 . S
O212 Co210 2.091 1_455 S
O212 C218 1.261 1_455 S
C213 O222 1.265 . S
C213 O223 1.272 . S
O214 Co210 2.004 . S
O214 C219 1.259 . S
Co215 O216 2.061 . S
Co215 O221 2.052 . S
Co215 O223 2.135 . S
O216 Co215 2.061 . S
O216 C219 1.235 . S
C217 O220 1.238 . S
C217 O221 1.241 . S
C218 O211 1.247 . S
C218 O212 1.261 1_655 S
C219 O214 1.259 . S
C219 O216 1.235 . S
O220 Co210 2.021 . S
O220 C217 1.238 . S
O221 Co215 2.052 . S
O221 C217 1.241 . S
O222 Co210 2.136 . S
O222 C213 1.265 . S
O223 Co210 2.244 . S
O223 C213 1.272 . S
O223 Co215 2.135 . S
Co224 O225 2.216 . S
Co224 O226 2.091 . S
Co224 O228 2.004 . S
Co224 O234 2.021 . S
Co224 O236 2.137 . S
Co224 O237 2.244 . S
O225 Co224 2.216 . S
O225 C232 1.247 . S
O226 Co224 2.091 . S
O226 C232 1.261 . S
C227 O236 1.247 . S
C227 O237 1.272 . S
O228 Co224 2.004 . S
O228 C233 1.259 . S
Co229 O230 2.061 . S
Co229 O235 2.052 . S
Co229 O237 2.135 . S
O230 Co229 2.061 . S
O230 C233 1.235 . S
C231 O234 1.238 . S
C231 O235 1.241 . S
C232 O225 1.247 . S
C232 O226 1.261 . S
C233 O228 1.259 . S
C233 O230 1.235 . S
O234 Co224 2.021 . S
O234 C231 1.238 . S
O235 Co229 2.052 . S
O235 C231 1.241 . S
O236 Co224 2.137 . S
O236 C227 1.247 . S
O237 Co224 2.244 . S
O237 C227 1.272 . S
O237 Co229 2.135 . S
Co238 O239 2.216 . S
Co238 O240 2.091 . S
Co238 O242 2.004 . S
Co238 O248 2.021 . S
Co238 O250 2.137 . S
Co238 O251 2.244 . S
O239 Co238 2.216 . S
O239 C246 1.247 . S
O240 Co238 2.091 . S
O240 C246 1.261 . S
C241 O250 1.247 . S
C241 O251 1.272 . S
O242 Co238 2.004 . S
O242 C247 1.259 . S
Co243 O244 2.061 . S
Co243 O249 2.052 . S
Co243 O251 2.135 . S
O244 Co243 2.061 . S
O244 C247 1.235 . S
C245 O248 1.238 . S
C245 O249 1.241 . S
C246 O239 1.247 . S
C246 O240 1.261 . S
C247 O242 1.259 . S
C247 O244 1.235 . S
O248 Co238 2.021 . S
O248 C245 1.238 . S
O249 Co243 2.052 . S
O249 C245 1.241 . S
O250 Co238 2.137 . S
O250 C241 1.247 . S
O251 Co238 2.244 . S
O251 C241 1.272 . S
O251 Co243 2.135 . S
Co252 O253 2.216 . S
Co252 O254 2.091 . S
Co252 O256 2.004 . S
Co252 O262 2.021 . S
Co252 O264 2.137 . S
Co252 O265 2.244 . S
O253 Co252 2.216 . S
O253 C260 1.247 . S
O254 Co252 2.091 . S
O254 C260 1.261 . S
C255 O264 1.247 . S
C255 O265 1.272 . S
O256 Co252 2.004 . S
O256 C261 1.259 . S
Co257 O258 2.061 . S
Co257 O263 2.052 . S
Co257 O265 2.135 . S
O258 Co257 2.061 . S
O258 C261 1.235 . S
C259 O262 1.238 . S
C259 O263 1.241 . S
C260 O253 1.247 . S
C260 O254 1.261 . S
C261 O256 1.259 . S
C261 O258 1.235 . S
O262 Co252 2.021 . S
O262 C259 1.238 . S
O263 Co257 2.052 . S
O263 C259 1.241 . S
O264 Co252 2.137 . S
O264 C255 1.247 . S
O265 Co252 2.244 . S
O265 C255 1.272 . S
O265 Co257 2.135 . S
Co266 O267 2.216 . S
Co266 O268 2.091 1_655 S
Co266 O270 2.004 . S
Co266 O276 2.021 . S
Co266 O278 2.153 . S
Co266 O279 2.244 . S
O267 Co266 2.216 . S
O267 C274 1.247 . S
O268 Co266 2.091 1_455 S
O268 C274 1.261 1_455 S
C269 O278 1.256 . S
C269 O279 1.272 . S
O270 Co266 2.004 . S
O270 C275 1.259 . S
Co271 O272 2.061 . S
Co271 O277 2.052 . S
Co271 O279 2.135 . S
O272 Co271 2.061 . S
O272 C275 1.235 . S
C273 O276 1.238 . S
C273 O277 1.241 . S
C274 O267 1.247 . S
C274 O268 1.261 1_655 S
C275 O270 1.259 . S
C275 O272 1.235 . S
O276 Co266 2.021 . S
O276 C273 1.238 . S
O277 Co271 2.052 . S
O277 C273 1.241 . S
O278 Co266 2.153 . S
O278 C269 1.256 . S
O279 Co266 2.244 . S
O279 C269 1.272 . S
O279 Co271 2.135 . S
Co280 O281 2.216 . S
Co280 O282 2.091 . S
Co280 O284 2.004 . S
Co280 O290 2.021 . S
Co280 O292 2.137 . S
Co280 O293 2.244 . S
O281 Co280 2.216 . S
O281 C288 1.247 . S
O282 Co280 2.091 . S
O282 C288 1.261 . S
C283 O292 1.247 . S
C283 O293 1.272 . S
O284 Co280 2.004 . S
O284 C289 1.259 . S
Co285 O286 2.061 . S
Co285 O291 2.052 . S
Co285 O293 2.135 . S
O286 Co285 2.061 . S
O286 C289 1.235 . S
C287 O290 1.238 . S
C287 O291 1.241 . S
C288 O281 1.247 . S
C288 O282 1.261 . S
C289 O284 1.259 . S
C289 O286 1.235 . S
O290 Co280 2.021 . S
O290 C287 1.238 . S
O291 Co285 2.052 . S
O291 C287 1.241 . S
O292 Co280 2.137 . S
O292 C283 1.247 . S
O293 Co280 2.244 . S
O293 C283 1.272 . S
O293 Co285 2.135 . S
Co294 O295 2.216 . S
Co294 O296 2.091 . S
Co294 O298 2.004 . S
Co294 O304 2.021 . S
Co294 O306 2.137 . S
Co294 O307 2.244 . S
O295 Co294 2.216 . S
O295 C302 1.247 . S
O296 Co294 2.091 . S
O296 C302 1.261 . S
C297 O306 1.247 . S
C297 O307 1.272 . S
O298 Co294 2.004 . S
O298 C303 1.259 . S
Co299 O300 2.061 . S
Co299 O305 2.052 . S
Co299 O307 2.135 . S
O300 Co299 2.061 . S
O300 C303 1.235 . S
C301 O304 1.238 . S
C301 O305 1.241 . S
C302 O295 1.247 . S
C302 O296 1.261 . S
C303 O298 1.259 . S
C303 O300 1.235 . S
O304 Co294 2.021 . S
O304 C301 1.238 . S
O305 Co299 2.052 . S
O305 C301 1.241 . S
O306 Co294 2.137 . S
O306 C297 1.247 . S
O307 Co294 2.244 . S
O307 C297 1.272 . S
O307 Co299 2.135 . S
Co308 O309 2.216 . S
Co308 O310 2.091 . S
Co308 O312 2.004 . S
Co308 O318 2.021 . S
Co308 O320 2.137 . S
Co308 O321 2.244 . S
O309 Co308 2.216 . S
O309 C316 1.247 . S
O310 Co308 2.091 . S
O310 C316 1.261 . S
C311 O320 1.247 . S
C311 O321 1.272 . S
O312 Co308 2.004 . S
O312 C317 1.259 . S
Co313 O314 2.061 . S
Co313 O319 2.052 . S
Co313 O321 2.135 . S
O314 Co313 2.061 . S
O314 C317 1.235 . S
C315 O318 1.238 . S
C315 O319 1.241 . S
C316 O309 1.247 . S
C316 O310 1.261 . S
C317 O312 1.259 . S
C317 O314 1.235 . S
O318 Co308 2.021 . S
O318 C315 1.238 . S
O319 Co313 2.052 . S
O319 C315 1.241 . S
O320 Co308 2.137 . S
O320 C311 1.247 . S
O321 Co308 2.244 . S
O321 C311 1.272 . S
O321 Co313 2.135 . S
Co322 O323 2.216 . S
Co322 O324 2.091 1_655 S
Co322 O326 2.004 . S
Co322 O332 2.021 . S
Co322 O334 2.137 . S
Co322 O335 2.244 . S
O323 Co322 2.216 . S
O323 C330 1.247 . S
O324 Co322 2.091 1_455 S
O324 C330 1.261 1_455 S
C325 O334 1.247 . S
C325 O335 1.272 . S
O326 Co322 2.004 . S
O326 C331 1.259 . S
Co327 O328 2.061 . S
Co327 O333 2.052 . S
Co327 O335 2.135 . S
O328 Co327 2.061 . S
O328 C331 1.235 . S
C329 O332 1.238 . S
C329 O333 1.241 . S
C330 O323 1.247 . S
C330 O324 1.261 1_655 S
C331 O326 1.259 . S
C331 O328 1.235 . S
O332 Co322 2.021 . S
O332 C329 1.238 . S
O333 Co327 2.052 . S
O333 C329 1.241 . S
O334 Co322 2.137 . S
O334 C325 1.247 . S
O335 Co322 2.244 . S
O335 C325 1.272 . S
O335 Co327 2.135 . S
Co336 O337 2.216 . S
Co336 O338 2.091 1_565 S
Co336 O340 2.004 . S
Co336 O346 2.021 . S
Co336 O348 2.136 . S
Co336 O349 2.244 . S
O337 Co336 2.216 . S
O337 C344 1.247 . S
O338 Co336 2.091 1_545 S
O338 C344 1.261 1_545 S
C339 O348 1.265 . S
C339 O349 1.272 . S
O340 Co336 2.004 . S
O340 C345 1.259 . S
Co341 O342 2.061 . S
Co341 O347 2.052 . S
Co341 O349 2.135 . S
O342 Co341 2.061 . S
O342 C345 1.235 . S
C343 O346 1.238 . S
C343 O347 1.241 . S
C344 O337 1.247 . S
C344 O338 1.261 1_565 S
C345 O340 1.259 . S
C345 O342 1.235 . S
O346 Co336 2.021 . S
O346 C343 1.238 . S
O347 Co341 2.052 . S
O347 C343 1.241 . S
O348 Co336 2.136 . S
O348 C339 1.265 . S
O349 Co336 2.244 . S
O349 C339 1.272 . S
O349 Co341 2.135 . S
Co350 O351 2.216 . S
Co350 O352 2.091 . S
Co350 O354 2.004 . S
Co350 O360 2.021 . S
Co350 O362 2.137 . S
Co350 O363 2.244 . S
O351 Co350 2.216 . S
O351 C358 1.247 . S
O352 Co350 2.091 . S
O352 C358 1.261 . S
C353 O362 1.247 . S
C353 O363 1.272 . S
O354 Co350 2.004 . S
O354 C359 1.259 . S
Co355 O356 2.061 . S
Co355 O361 2.052 . S
Co355 O363 2.135 . S
O356 Co355 2.061 . S
O356 C359 1.235 . S
C357 O360 1.238 . S
C357 O361 1.241 . S
C358 O351 1.247 . S
C358 O352 1.261 . S
C359 O354 1.259 . S
C359 O356 1.235 . S
O360 Co350 2.021 . S
O360 C357 1.238 . S
O361 Co355 2.052 . S
O361 C357 1.241 . S
O362 Co350 2.137 . S
O362 C353 1.247 . S
O363 Co350 2.244 . S
O363 C353 1.272 . S
O363 Co355 2.135 . S
Co364 O365 2.216 . S
Co364 O366 2.091 . S
Co364 O368 2.004 . S
Co364 O374 2.021 . S
Co364 O376 2.137 . S
Co364 O377 2.244 . S
O365 Co364 2.216 . S
O365 C372 1.247 . S
O366 Co364 2.091 . S
O366 C372 1.261 . S
C367 O376 1.247 . S
C367 O377 1.272 . S
O368 Co364 2.004 . S
O368 C373 1.259 . S
Co369 O370 2.061 . S
Co369 O375 2.052 . S
Co369 O377 2.135 . S
O370 Co369 2.061 . S
O370 C373 1.235 . S
C371 O374 1.238 . S
C371 O375 1.241 . S
C372 O365 1.247 . S
C372 O366 1.261 . S
C373 O368 1.259 . S
C373 O370 1.235 . S
O374 Co364 2.021 . S
O374 C371 1.238 . S
O375 Co369 2.052 . S
O375 C371 1.241 . S
O376 Co364 2.137 . S
O376 C367 1.247 . S
O377 Co364 2.244 . S
O377 C367 1.272 . S
O377 Co369 2.135 . S
Co378 O379 2.216 . S
Co378 O380 2.091 . S
Co378 O382 2.004 . S
Co378 O388 2.021 . S
Co378 O390 2.137 . S
Co378 O391 2.244 . S
O379 Co378 2.216 . S
O379 C386 1.247 . S
O380 Co378 2.091 . S
O380 C386 1.261 . S
C381 O390 1.247 . S
C381 O391 1.272 . S
O382 Co378 2.004 . S
O382 C387 1.259 . S
Co383 O384 2.061 . S
Co383 O389 2.052 . S
Co383 O391 2.135 . S
O384 Co383 2.061 . S
O384 C387 1.235 . S
C385 O388 1.238 . S
C385 O389 1.241 . S
C386 O379 1.247 . S
C386 O380 1.261 . S
C387 O382 1.259 . S
C387 O384 1.235 . S
O388 Co378 2.021 . S
O388 C385 1.238 . S
O389 Co383 2.052 . S
O389 C385 1.241 . S
O390 Co378 2.137 . S
O390 C381 1.247 . S
O391 Co378 2.244 . S
O391 C381 1.272 . S
O391 Co383 2.135 . S
Co392 O393 2.216 . S
Co392 O394 2.091 1_565 S
Co392 O396 2.004 . S
Co392 O402 2.021 . S
Co392 O404 2.137 . S
Co392 O405 2.244 . S
O393 Co392 2.216 . S
O393 C400 1.247 . S
O394 Co392 2.091 1_545 S
O394 C400 1.261 1_545 S
C395 O404 1.247 . S
C395 O405 1.272 . S
O396 Co392 2.004 . S
O396 C401 1.259 . S
Co397 O398 2.061 . S
Co397 O403 2.052 . S
Co397 O405 2.135 . S
O398 Co397 2.061 . S
O398 C401 1.235 . S
C399 O402 1.238 . S
C399 O403 1.241 . S
C400 O393 1.247 . S
C400 O394 1.261 1_565 S
C401 O396 1.259 . S
C401 O398 1.235 . S
O402 Co392 2.021 . S
O402 C399 1.238 . S
O403 Co397 2.052 . S
O403 C399 1.241 . S
O404 Co392 2.137 . S
O404 C395 1.247 . S
O405 Co392 2.244 . S
O405 C395 1.272 . S
O405 Co397 2.135 . S
Co406 O407 2.216 . S
Co406 O408 2.091 . S
Co406 O410 2.004 . S
Co406 O416 2.021 . S
Co406 O418 2.137 . S
Co406 O419 2.244 . S
O407 Co406 2.216 . S
O407 C414 1.247 . S
O408 Co406 2.091 . S
O408 C414 1.261 . S
C409 O418 1.247 . S
C409 O419 1.272 . S
O410 Co406 2.004 . S
O410 C415 1.259 . S
Co411 O412 2.061 . S
Co411 O417 2.052 . S
Co411 O419 2.135 . S
O412 Co411 2.061 . S
O412 C415 1.235 . S
C413 O416 1.238 . S
C413 O417 1.241 . S
C414 O407 1.247 . S
C414 O408 1.261 . S
C415 O410 1.259 . S
C415 O412 1.235 . S
O416 Co406 2.021 . S
O416 C413 1.238 . S
O417 Co411 2.052 . S
O417 C413 1.241 . S
O418 Co406 2.137 . S
O418 C409 1.247 . S
O419 Co406 2.244 . S
O419 C409 1.272 . S
O419 Co411 2.135 . S
Co420 O421 2.216 . S
Co420 O422 2.091 . S
Co420 O424 2.004 . S
Co420 O430 2.021 . S
Co420 O432 2.137 . S
Co420 O433 2.244 . S
O421 Co420 2.216 . S
O421 C428 1.247 . S
O422 Co420 2.091 . S
O422 C428 1.261 . S
C423 O432 1.247 . S
C423 O433 1.272 . S
O424 Co420 2.004 . S
O424 C429 1.259 . S
Co425 O426 2.061 . S
Co425 O431 2.052 . S
Co425 O433 2.135 . S
O426 Co425 2.061 . S
O426 C429 1.235 . S
C427 O430 1.238 . S
C427 O431 1.241 . S
C428 O421 1.247 . S
C428 O422 1.261 . S
C429 O424 1.259 . S
C429 O426 1.235 . S
O430 Co420 2.021 . S
O430 C427 1.238 . S
O431 Co425 2.052 . S
O431 C427 1.241 . S
O432 Co420 2.137 . S
O432 C423 1.247 . S
O433 Co420 2.244 . S
O433 C423 1.272 . S
O433 Co425 2.135 . S
Co434 O435 2.216 . S
Co434 O436 2.091 1_565 S
Co434 O438 2.004 . S
Co434 O444 2.021 . S
Co434 O446 2.137 . S
Co434 O447 2.244 . S
O435 Co434 2.216 . S
O435 C442 1.247 . S
O436 Co434 2.091 1_545 S
O436 C442 1.261 1_545 S
C437 O446 1.247 . S
C437 O447 1.272 . S
O438 Co434 2.004 . S
O438 C443 1.259 . S
Co439 O440 2.061 . S
Co439 O445 2.052 . S
Co439 O447 2.135 . S
O440 Co439 2.061 . S
O440 C443 1.235 . S
C441 O444 1.238 . S
C441 O445 1.241 . S
C442 O435 1.247 . S
C442 O436 1.261 1_565 S
C443 O438 1.259 . S
C443 O440 1.235 . S
O444 Co434 2.021 . S
O444 C441 1.238 . S
O445 Co439 2.052 . S
O445 C441 1.241 . S
O446 Co434 2.137 . S
O446 C437 1.247 . S
O447 Co434 2.244 . S
O447 C437 1.272 . S
O447 Co439 2.135 . S
Co448 O449 2.216 . S
Co448 O450 2.091 . S
Co448 O452 2.004 . S
Co448 O458 2.021 . S
Co448 O460 2.137 . S
Co448 O461 2.244 . S
O449 Co448 2.216 . S
O449 C456 1.247 . S
O450 Co448 2.091 . S
O450 C456 1.261 . S
C451 O460 1.247 . S
C451 O461 1.272 . S
O452 Co448 2.004 . S
O452 C457 1.259 . S
Co453 O454 2.061 . S
Co453 O459 2.052 . S
Co453 O461 2.135 . S
O454 Co453 2.061 . S
O454 C457 1.235 . S
C455 O458 1.238 . S
C455 O459 1.241 . S
C456 O449 1.247 . S
C456 O450 1.261 . S
C457 O452 1.259 . S
C457 O454 1.235 . S
O458 Co448 2.021 . S
O458 C455 1.238 . S
O459 Co453 2.052 . S
O459 C455 1.241 . S
O460 Co448 2.137 . S
O460 C451 1.247 . S
O461 Co448 2.244 . S
O461 C451 1.272 . S
O461 Co453 2.135 . S
Co462 O463 2.216 . S
Co462 O464 2.091 . S
Co462 O466 2.004 . S
Co462 O472 2.021 . S
Co462 O474 2.137 . S
Co462 O475 2.244 . S
O463 Co462 2.216 . S
O463 C470 1.247 . S
O464 Co462 2.091 . S
O464 C470 1.261 . S
C465 O474 1.247 . S
C465 O475 1.272 . S
O466 Co462 2.004 . S
O466 C471 1.259 . S
Co467 O468 2.061 . S
Co467 O473 2.052 . S
Co467 O475 2.135 . S
O468 Co467 2.061 . S
O468 C471 1.235 . S
C469 O472 1.238 . S
C469 O473 1.241 . S
C470 O463 1.247 . S
C470 O464 1.261 . S
C471 O466 1.259 . S
C471 O468 1.235 . S
O472 Co462 2.021 . S
O472 C469 1.238 . S
O473 Co467 2.052 . S
O473 C469 1.241 . S
O474 Co462 2.137 . S
O474 C465 1.247 . S
O475 Co462 2.244 . S
O475 C465 1.272 . S
O475 Co467 2.135 . S
Co476 O477 2.216 . S
Co476 O478 2.091 . S
Co476 O480 2.004 . S
Co476 O486 2.021 . S
Co476 O488 2.137 . S
Co476 O489 2.244 . S
O477 Co476 2.216 . S
O477 C484 1.247 . S
O478 Co476 2.091 . S
O478 C484 1.261 . S
C479 O488 1.247 . S
C479 O489 1.272 . S
O480 Co476 2.004 . S
O480 C485 1.259 . S
Co481 O482 2.061 . S
Co481 O487 2.052 . S
Co481 O489 2.135 . S
O482 Co481 2.061 . S
O482 C485 1.235 . S
C483 O486 1.238 . S
C483 O487 1.241 . S
C484 O477 1.247 . S
C484 O478 1.261 . S
C485 O480 1.259 . S
C485 O482 1.235 . S
O486 Co476 2.021 . S
O486 C483 1.238 . S
O487 Co481 2.052 . S
O487 C483 1.241 . S
O488 Co476 2.137 . S
O488 C479 1.247 . S
O489 Co476 2.244 . S
O489 C479 1.272 . S
O489 Co481 2.135 . S
Co490 O491 2.216 . S
Co490 O492 2.091 1_565 S
Co490 O494 2.004 . S
Co490 O500 2.021 . S
Co490 O502 2.153 . S
Co490 O503 2.244 . S
O491 Co490 2.216 . S
O491 C498 1.247 . S
O492 Co490 2.091 1_545 S
O492 C498 1.261 1_545 S
C493 O502 1.256 . S
C493 O503 1.272 . S
O494 Co490 2.004 . S
O494 C499 1.259 . S
Co495 O496 2.061 . S
Co495 O501 2.052 . S
Co495 O503 2.135 . S
O496 Co495 2.061 . S
O496 C499 1.235 . S
C497 O500 1.238 . S
C497 O501 1.241 . S
C498 O491 1.247 . S
C498 O492 1.261 1_565 S
C499 O494 1.259 . S
C499 O496 1.235 . S
O500 Co490 2.021 . S
O500 C497 1.238 . S
O501 Co495 2.052 . S
O501 C497 1.241 . S
O502 Co490 2.153 . S
O502 C493 1.256 . S
O503 Co490 2.244 . S
O503 C493 1.272 . S
O503 Co495 2.135 . S
H504 C512 0.929 . S
H505 C514 0.930 . S
H506 C516 0.930 . S
H507 C519 0.929 . S
H508 C522 0.930 . S
H509 C524 0.960 . S
H510 C524 0.960 . S
H511 C524 0.960 . S
C512 H504 0.929 . S
C512 C513 1.377 . S
C512 C514 1.384 . S
C513 C512 1.377 . S
C513 C519 1.390 . S
C514 H505 0.930 . S
C514 C512 1.384 . S
C514 C515 1.372 . S
C515 C514 1.372 . S
C515 C516 1.400 . S
C515 C520 1.490 . S
C516 H506 0.930 . S
C516 C515 1.400 . S
C516 C519 1.386 . S
H517 C533 0.930 . S
H518 C534 0.931 . S
C519 H507 0.929 . S
C519 C513 1.390 . S
C519 C516 1.386 . S
C520 C515 1.490 . S
C520 C522 1.395 . S
C520 C523 1.403 . S
H521 C527 0.930 . S
C522 H508 0.930 . S
C522 C520 1.395 . S
C522 C525 1.403 . S
C523 C520 1.403 . S
C523 C524 1.524 . S
C523 C527 1.400 . S
C524 H509 0.960 . S
C524 H510 0.960 . S
C524 H511 0.960 . S
C524 C523 1.524 . S
C525 C522 1.403 . S
C525 C526 1.392 . S
C525 C529 1.495 . S
C526 C525 1.392 . S
C526 C527 1.385 . S
C526 C528 1.478 . S
C527 H521 0.930 . S
C527 C523 1.400 . S
C527 C526 1.385 . S
C528 C526 1.478 . S
C528 C530 1.381 . S
C528 C534 1.383 . S
C529 C525 1.495 . S
C529 H535 0.959 . S
C529 H536 0.961 . S
C529 H537 0.960 . S
C530 C528 1.381 . S
C530 C531 1.394 . S
C530 H538 0.930 . S
C531 C530 1.394 . S
C531 C532 1.383 . S
C531 H539 0.929 . S
C532 C531 1.383 . S
C532 C533 1.377 . S
C533 H517 0.930 . S
C533 C532 1.377 . S
C533 C534 1.379 . S
C534 H518 0.931 . S
C534 C528 1.383 . S
C534 C533 1.379 . S
H535 C529 0.959 . S
H536 C529 0.961 . S
H537 C529 0.960 . S
H538 C530 0.930 . S
H539 C531 0.929 . S
H540 C548 0.929 . S
H541 C550 0.930 . S
H542 C552 0.930 . S
H543 C555 0.929 . S
H544 C558 0.930 . S
H545 C560 0.960 . S
H546 C560 0.960 . S
H547 C560 0.960 . S
C548 H540 0.929 . S
C548 C549 1.377 . S
C548 C550 1.384 . S
C549 C548 1.377 . S
C549 C555 1.390 . S
C550 H541 0.930 . S
C550 C548 1.384 . S
C550 C551 1.372 . S
C551 C550 1.372 . S
C551 C552 1.400 . S
C551 C556 1.490 . S
C552 H542 0.930 . S
C552 C551 1.400 . S
C552 C555 1.386 . S
H553 C569 0.930 . S
H554 C570 0.931 . S
C555 H543 0.929 . S
C555 C549 1.390 . S
C555 C552 1.386 . S
C556 C551 1.490 . S
C556 C558 1.395 . S
C556 C559 1.403 . S
H557 C563 0.930 . S
C558 H544 0.930 . S
C558 C556 1.395 . S
C558 C561 1.403 . S
C559 C556 1.403 . S
C559 C560 1.524 . S
C559 C563 1.400 . S
C560 H545 0.960 . S
C560 H546 0.960 . S
C560 H547 0.960 . S
C560 C559 1.524 . S
C561 C558 1.403 . S
C561 C562 1.392 . S
C561 C565 1.495 . S
C562 C561 1.392 . S
C562 C563 1.385 . S
C562 C564 1.478 . S
C563 H557 0.930 . S
C563 C559 1.400 . S
C563 C562 1.385 . S
C564 C562 1.478 . S
C564 C566 1.381 . S
C564 C570 1.383 . S
C565 C561 1.495 . S
C565 H571 0.959 . S
C565 H572 0.961 . S
C565 H573 0.960 . S
C566 C564 1.381 . S
C566 C567 1.394 . S
C566 H574 0.930 . S
C567 C566 1.394 . S
C567 C568 1.383 . S
C567 H575 0.929 . S
C568 C567 1.383 . S
C568 C569 1.377 . S
C569 H553 0.930 . S
C569 C568 1.377 . S
C569 C570 1.379 . S
C570 H554 0.931 . S
C570 C564 1.383 . S
C570 C569 1.379 . S
H571 C565 0.959 . S
H572 C565 0.961 . S
H573 C565 0.960 . S
H574 C566 0.930 . S
H575 C567 0.929 . S
H576 C584 0.929 . S
H577 C586 0.930 . S
H578 C588 0.930 . S
H579 C591 0.929 . S
H580 C594 0.930 . S
H581 C596 0.960 . S
H582 C596 0.960 . S
H583 C596 0.960 . S
C584 H576 0.929 . S
C584 C585 1.377 . S
C584 C586 1.384 . S
C585 C584 1.377 . S
C585 C591 1.390 . S
C586 H577 0.930 . S
C586 C584 1.384 . S
C586 C587 1.372 . S
C587 C586 1.372 . S
C587 C588 1.400 . S
C587 C592 1.490 . S
C588 H578 0.930 . S
C588 C587 1.400 . S
C588 C591 1.386 . S
H589 C605 0.930 . S
H590 C606 0.931 . S
C591 H579 0.929 . S
C591 C585 1.390 . S
C591 C588 1.386 . S
C592 C587 1.490 . S
C592 C594 1.395 . S
C592 C595 1.403 . S
H593 C599 0.930 . S
C594 H580 0.930 . S
C594 C592 1.395 . S
C594 C597 1.403 . S
C595 C592 1.403 . S
C595 C596 1.524 . S
C595 C599 1.400 . S
C596 H581 0.960 . S
C596 H582 0.960 . S
C596 H583 0.960 . S
C596 C595 1.524 . S
C597 C594 1.403 . S
C597 C598 1.392 . S
C597 C601 1.495 . S
C598 C597 1.392 . S
C598 C599 1.385 . S
C598 C600 1.478 . S
C599 H593 0.930 . S
C599 C595 1.400 . S
C599 C598 1.385 . S
C600 C598 1.478 . S
C600 C602 1.381 . S
C600 C606 1.383 . S
C601 C597 1.495 . S
C601 H607 0.959 . S
C601 H608 0.961 . S
C601 H609 0.960 . S
C602 C600 1.381 . S
C602 C603 1.394 . S
C602 H610 0.930 . S
C603 C602 1.394 . S
C603 C604 1.383 . S
C603 H611 0.929 . S
C604 C603 1.383 . S
C604 C605 1.377 . S
C605 H589 0.930 . S
C605 C604 1.377 . S
C605 C606 1.379 . S
C606 H590 0.931 . S
C606 C600 1.383 . S
C606 C605 1.379 . S
H607 C601 0.959 . S
H608 C601 0.961 . S
H609 C601 0.960 . S
H610 C602 0.930 . S
H611 C603 0.929 . S
H612 C620 0.929 . S
H613 C622 0.930 . S
H614 C624 0.930 . S
H615 C627 0.929 . S
H616 C630 0.930 . S
H617 C632 0.960 . S
H618 C632 0.960 . S
H619 C632 0.960 . S
C620 H612 0.929 . S
C620 C621 1.377 . S
C620 C622 1.384 . S
C621 C620 1.377 . S
C621 C627 1.390 . S
C622 H613 0.930 . S
C622 C620 1.384 . S
C622 C623 1.372 . S
C623 C622 1.372 . S
C623 C624 1.400 . S
C623 C628 1.490 . S
C624 H614 0.930 . S
C624 C623 1.400 . S
C624 C627 1.386 . S
H625 C641 0.930 . S
H626 C642 0.931 . S
C627 H615 0.929 . S
C627 C621 1.390 . S
C627 C624 1.386 . S
C628 C623 1.490 . S
C628 C630 1.395 . S
C628 C631 1.403 . S
H629 C635 0.930 . S
C630 H616 0.930 . S
C630 C628 1.395 . S
C630 C633 1.403 . S
C631 C628 1.403 . S
C631 C632 1.524 . S
C631 C635 1.400 . S
C632 H617 0.960 . S
C632 H618 0.960 . S
C632 H619 0.960 . S
C632 C631 1.524 . S
C633 C630 1.403 . S
C633 C634 1.392 . S
C633 C637 1.495 . S
C634 C633 1.392 . S
C634 C635 1.385 . S
C634 C636 1.478 . S
C635 H629 0.930 . S
C635 C631 1.400 . S
C635 C634 1.385 . S
C636 C634 1.478 . S
C636 C638 1.381 . S
C636 C642 1.383 . S
C637 C633 1.495 . S
C637 H643 0.959 . S
C637 H644 0.961 . S
C637 H645 0.960 . S
C638 C636 1.381 . S
C638 C639 1.394 . S
C638 H646 0.930 . S
C639 C638 1.394 . S
C639 C640 1.383 . S
C639 H647 0.929 . S
C640 C639 1.383 . S
C640 C641 1.377 . S
C641 H625 0.930 . S
C641 C640 1.377 . S
C641 C642 1.379 . S
C642 H626 0.931 . S
C642 C636 1.383 . S
C642 C641 1.379 . S
H643 C637 0.959 . S
H644 C637 0.961 . S
H645 C637 0.960 . S
H646 C638 0.930 . S
H647 C639 0.929 . S
H648 C656 0.929 . S
H649 C658 0.930 . S
H650 C660 0.930 . S
H651 C663 0.929 . S
H652 C666 0.930 . S
H653 C668 0.960 . S
H654 C668 0.960 . S
H655 C668 0.960 . S
C656 H648 0.929 . S
C656 C657 1.377 . S
C656 C658 1.384 . S
C657 C656 1.377 . S
C657 C663 1.390 . S
C658 H649 0.930 . S
C658 C656 1.384 . S
C658 C659 1.372 . S
C659 C658 1.372 . S
C659 C660 1.400 . S
C659 C664 1.490 . S
C660 H650 0.930 . S
C660 C659 1.400 . S
C660 C663 1.386 . S
H661 C677 0.930 . S
H662 C678 0.931 . S
C663 H651 0.929 . S
C663 C657 1.390 . S
C663 C660 1.386 . S
C664 C659 1.490 . S
C664 C666 1.395 . S
C664 C667 1.403 . S
H665 C671 0.930 . S
C666 H652 0.930 . S
C666 C664 1.395 . S
C666 C669 1.403 . S
C667 C664 1.403 . S
C667 C668 1.524 . S
C667 C671 1.400 . S
C668 H653 0.960 . S
C668 H654 0.960 . S
C668 H655 0.960 . S
C668 C667 1.524 . S
C669 C666 1.403 . S
C669 C670 1.392 . S
C669 C673 1.495 . S
C670 C669 1.392 . S
C670 C671 1.385 . S
C670 C672 1.478 . S
C671 H665 0.930 . S
C671 C667 1.400 . S
C671 C670 1.385 . S
C672 C670 1.478 . S
C672 C674 1.381 . S
C672 C678 1.383 . S
C673 C669 1.495 . S
C673 H679 0.959 . S
C673 H680 0.961 . S
C673 H681 0.960 . S
C674 C672 1.381 . S
C674 C675 1.394 . S
C674 H682 0.930 . S
C675 C674 1.394 . S
C675 C676 1.383 . S
C675 H683 0.929 . S
C676 C675 1.383 . S
C676 C677 1.377 . S
C677 H661 0.930 . S
C677 C676 1.377 . S
C677 C678 1.379 . S
C678 H662 0.931 . S
C678 C672 1.383 . S
C678 C677 1.379 . S
H679 C673 0.959 . S
H680 C673 0.961 . S
H681 C673 0.960 . S
H682 C674 0.930 . S
H683 C675 0.929 . S
H684 C692 0.929 . S
H685 C694 0.930 . S
H686 C696 0.930 . S
H687 C699 0.929 . S
H688 C702 0.930 . S
H689 C704 0.960 . S
H690 C704 0.960 . S
H691 C704 0.960 . S
C692 H684 0.929 . S
C692 C693 1.377 . S
C692 C694 1.384 . S
C693 C692 1.377 . S
C693 C699 1.390 . S
C694 H685 0.930 . S
C694 C692 1.384 . S
C694 C695 1.372 . S
C695 C694 1.372 . S
C695 C696 1.400 . S
C695 C700 1.490 . S
C696 H686 0.930 . S
C696 C695 1.400 . S
C696 C699 1.386 . S
H697 C713 0.930 . S
H698 C714 0.931 . S
C699 H687 0.929 . S
C699 C693 1.390 . S
C699 C696 1.386 . S
C700 C695 1.490 . S
C700 C702 1.395 . S
C700 C703 1.403 . S
H701 C707 0.930 . S
C702 H688 0.930 . S
C702 C700 1.395 . S
C702 C705 1.403 . S
C703 C700 1.403 . S
C703 C704 1.524 . S
C703 C707 1.400 . S
C704 H689 0.960 . S
C704 H690 0.960 . S
C704 H691 0.960 . S
C704 C703 1.524 . S
C705 C702 1.403 . S
C705 C706 1.392 . S
C705 C709 1.495 . S
C706 C705 1.392 . S
C706 C707 1.385 . S
C706 C708 1.478 . S
C707 H701 0.930 . S
C707 C703 1.400 . S
C707 C706 1.385 . S
C708 C706 1.478 . S
C708 C710 1.381 . S
C708 C714 1.383 . S
C709 C705 1.495 . S
C709 H715 0.959 . S
C709 H716 0.961 . S
C709 H717 0.960 . S
C710 C708 1.381 . S
C710 C711 1.394 . S
C710 H718 0.930 . S
C711 C710 1.394 . S
C711 C712 1.383 . S
C711 H719 0.929 . S
C712 C711 1.383 . S
C712 C713 1.377 . S
C713 H697 0.930 . S
C713 C712 1.377 . S
C713 C714 1.379 . S
C714 H698 0.931 . S
C714 C708 1.383 . S
C714 C713 1.379 . S
H715 C709 0.959 . S
H716 C709 0.961 . S
H717 C709 0.960 . S
H718 C710 0.930 . S
H719 C711 0.929 . S
H720 C728 0.929 . S
H721 C730 0.930 . S
H722 C732 0.930 . S
H723 C735 0.929 . S
H724 C738 0.930 . S
H725 C740 0.960 . S
H726 C740 0.960 . S
H727 C740 0.960 . S
C728 H720 0.929 . S
C728 C729 1.377 . S
C728 C730 1.384 . S
C729 C728 1.377 . S
C729 C735 1.390 . S
C730 H721 0.930 . S
C730 C728 1.384 . S
C730 C731 1.372 . S
C731 C730 1.372 . S
C731 C732 1.400 . S
C731 C736 1.490 . S
C732 H722 0.930 . S
C732 C731 1.400 . S
C732 C735 1.386 . S
H733 C749 0.930 . S
H734 C750 0.931 . S
C735 H723 0.929 . S
C735 C729 1.390 . S
C735 C732 1.386 . S
C736 C731 1.490 . S
C736 C738 1.395 . S
C736 C739 1.403 . S
H737 C743 0.930 . S
C738 H724 0.930 . S
C738 C736 1.395 . S
C738 C741 1.403 . S
C739 C736 1.403 . S
C739 C740 1.524 . S
C739 C743 1.400 . S
C740 H725 0.960 . S
C740 H726 0.960 . S
C740 H727 0.960 . S
C740 C739 1.524 . S
C741 C738 1.403 . S
C741 C742 1.392 . S
C741 C745 1.495 . S
C742 C741 1.392 . S
C742 C743 1.385 . S
C742 C744 1.478 . S
C743 H737 0.930 . S
C743 C739 1.400 . S
C743 C742 1.385 . S
C744 C742 1.478 . S
C744 C746 1.381 . S
C744 C750 1.383 . S
C745 C741 1.495 . S
C745 H751 0.959 . S
C745 H752 0.961 . S
C745 H753 0.960 . S
C746 C744 1.381 . S
C746 C747 1.394 . S
C746 H754 0.930 . S
C747 C746 1.394 . S
C747 C748 1.383 . S
C747 H755 0.929 . S
C748 C747 1.383 . S
C748 C749 1.377 . S
C749 H733 0.930 . S
C749 C748 1.377 . S
C749 C750 1.379 . S
C750 H734 0.931 . S
C750 C744 1.383 . S
C750 C749 1.379 . S
H751 C745 0.959 . S
H752 C745 0.961 . S
H753 C745 0.960 . S
H754 C746 0.930 . S
H755 C747 0.929 . S
H756 C764 0.929 . S
H757 C766 0.930 . S
H758 C768 0.930 . S
H759 C771 0.929 . S
H760 C774 0.930 . S
H761 C776 0.960 . S
H762 C776 0.960 . S
H763 C776 0.960 . S
C764 H756 0.929 . S
C764 C765 1.377 . S
C764 C766 1.384 . S
C765 C764 1.377 . S
C765 C771 1.390 . S
C766 H757 0.930 . S
C766 C764 1.384 . S
C766 C767 1.372 . S
C767 C766 1.372 . S
C767 C768 1.400 . S
C767 C772 1.490 . S
C768 H758 0.930 . S
C768 C767 1.400 . S
C768 C771 1.386 . S
H769 C785 0.930 . S
H770 C786 0.931 . S
C771 H759 0.929 . S
C771 C765 1.390 . S
C771 C768 1.386 . S
C772 C767 1.490 . S
C772 C774 1.395 . S
C772 C775 1.403 . S
H773 C779 0.930 . S
C774 H760 0.930 . S
C774 C772 1.395 . S
C774 C777 1.403 . S
C775 C772 1.403 . S
C775 C776 1.524 . S
C775 C779 1.400 . S
C776 H761 0.960 . S
C776 H762 0.960 . S
C776 H763 0.960 . S
C776 C775 1.524 . S
C777 C774 1.403 . S
C777 C778 1.392 . S
C777 C781 1.495 . S
C778 C777 1.392 . S
C778 C779 1.385 . S
C778 C780 1.478 . S
C779 H773 0.930 . S
C779 C775 1.400 . S
C779 C778 1.385 . S
C780 C778 1.478 . S
C780 C782 1.381 . S
C780 C786 1.383 . S
C781 C777 1.495 . S
C781 H787 0.959 . S
C781 H788 0.961 . S
C781 H789 0.960 . S
C782 C780 1.381 . S
C782 C783 1.394 . S
C782 H790 0.930 . S
C783 C782 1.394 . S
C783 C784 1.383 . S
C783 H791 0.929 . S
C784 C783 1.383 . S
C784 C785 1.377 . S
C785 H769 0.930 . S
C785 C784 1.377 . S
C785 C786 1.379 . S
C786 H770 0.931 . S
C786 C780 1.383 . S
C786 C785 1.379 . S
H787 C781 0.959 . S
H788 C781 0.961 . S
H789 C781 0.960 . S
H790 C782 0.930 . S
H791 C783 0.929 . S
H792 C800 0.929 . S
H793 C802 0.930 . S
H794 C804 0.930 . S
H795 C807 0.929 . S
H796 C810 0.930 . S
H797 C812 0.960 . S
H798 C812 0.960 . S
H799 C812 0.960 . S
C800 H792 0.929 . S
C800 C801 1.377 . S
C800 C802 1.384 . S
C801 C800 1.377 . S
C801 C807 1.390 . S
C802 H793 0.930 . S
C802 C800 1.384 . S
C802 C803 1.372 . S
C803 C802 1.372 . S
C803 C804 1.400 . S
C803 C808 1.490 . S
C804 H794 0.930 . S
C804 C803 1.400 . S
C804 C807 1.386 . S
H805 C821 0.930 . S
H806 C822 0.931 . S
C807 H795 0.929 . S
C807 C801 1.390 . S
C807 C804 1.386 . S
C808 C803 1.490 . S
C808 C810 1.395 . S
C808 C811 1.403 . S
H809 C815 0.930 . S
C810 H796 0.930 . S
C810 C808 1.395 . S
C810 C813 1.403 . S
C811 C808 1.403 . S
C811 C812 1.524 . S
C811 C815 1.400 . S
C812 H797 0.960 . S
C812 H798 0.960 . S
C812 H799 0.960 . S
C812 C811 1.524 . S
C813 C810 1.403 . S
C813 C814 1.392 . S
C813 C817 1.495 . S
C814 C813 1.392 . S
C814 C815 1.385 . S
C814 C816 1.478 . S
C815 H809 0.930 . S
C815 C811 1.400 . S
C815 C814 1.385 . S
C816 C814 1.478 . S
C816 C818 1.381 . S
C816 C822 1.383 . S
C817 C813 1.495 . S
C817 H823 0.959 . S
C817 H824 0.961 . S
C817 H825 0.960 . S
C818 C816 1.381 . S
C818 C819 1.394 . S
C818 H826 0.930 . S
C819 C818 1.394 . S
C819 C820 1.383 . S
C819 H827 0.929 . S
C820 C819 1.383 . S
C820 C821 1.377 . S
C821 H805 0.930 . S
C821 C820 1.377 . S
C821 C822 1.379 . S
C822 H806 0.931 . S
C822 C816 1.383 . S
C822 C821 1.379 . S
H823 C817 0.959 . S
H824 C817 0.961 . S
H825 C817 0.960 . S
H826 C818 0.930 . S
H827 C819 0.929 . S
H828 C836 0.929 . S
H829 C838 0.930 . S
H830 C840 0.930 . S
H831 C843 0.929 . S
H832 C846 0.930 1_455 S
H833 C848 0.960 . S
H834 C848 0.960 . S
H835 C848 0.960 . S
C836 H828 0.929 . S
C836 C837 1.377 1_455 S
C836 C838 1.384 . S
C837 C836 1.377 1_655 S
C837 C843 1.390 . S
C838 H829 0.930 . S
C838 C836 1.384 . S
C838 C839 1.372 1_455 S
C839 C838 1.372 1_655 S
C839 C840 1.400 . S
C839 C844 1.490 . S
C840 H830 0.930 . S
C840 C839 1.400 . S
C840 C843 1.386 . S
H841 C857 0.930 . S
H842 C858 0.931 . S
C843 H831 0.929 . S
C843 C837 1.390 . S
C843 C840 1.386 . S
C844 C839 1.490 . S
C844 C846 1.395 . S
C844 C847 1.403 . S
H845 C851 0.930 . S
C846 H832 0.930 1_655 S
C846 C844 1.395 . S
C846 C849 1.403 . S
C847 C844 1.403 . S
C847 C848 1.524 . S
C847 C851 1.400 . S
C848 H833 0.960 . S
C848 H834 0.960 . S
C848 H835 0.960 . S
C848 C847 1.524 . S
C849 C846 1.403 . S
C849 C850 1.392 . S
C849 C853 1.495 1_655 S
C850 C849 1.392 . S
C850 C851 1.385 . S
C850 C852 1.478 . S
C851 H845 0.930 . S
C851 C847 1.400 . S
C851 C850 1.385 . S
C852 C850 1.478 . S
C852 C854 1.381 1_655 S
C852 C858 1.383 . S
C853 C849 1.495 1_455 S
C853 H859 0.959 . S
C853 H860 0.961 1_455 S
C853 H861 0.960 . S
C854 C852 1.381 1_455 S
C854 C855 1.394 . S
C854 H862 0.930 . S
C855 C854 1.394 . S
C855 C856 1.383 1_455 S
C855 H863 0.929 . S
C856 C855 1.383 1_655 S
C856 C857 1.377 . S
C857 H841 0.930 . S
C857 C856 1.377 . S
C857 C858 1.379 . S
C858 H842 0.931 . S
C858 C852 1.383 . S
C858 C857 1.379 . S
H859 C853 0.959 . S
H860 C853 0.961 1_655 S
H861 C853 0.960 . S
H862 C854 0.930 . S
H863 C855 0.929 . S
H864 C872 0.929 . S
H865 C874 0.930 . S
H866 C876 0.930 . S
H867 C879 0.929 . S
H868 C882 0.930 . S
H869 C884 0.960 . S
H870 C884 0.960 . S
H871 C884 0.960 . S
C872 H864 0.929 . S
C872 C873 1.377 . S
C872 C874 1.384 . S
C873 C872 1.377 . S
C873 C879 1.390 . S
C874 H865 0.930 . S
C874 C872 1.384 . S
C874 C875 1.372 . S
C875 C874 1.372 . S
C875 C876 1.400 . S
C875 C880 1.490 . S
C876 H866 0.930 . S
C876 C875 1.400 . S
C876 C879 1.386 . S
H877 C893 0.930 . S
H878 C894 0.931 . S
C879 H867 0.929 . S
C879 C873 1.390 . S
C879 C876 1.386 . S
C880 C875 1.490 . S
C880 C882 1.395 . S
C880 C883 1.403 . S
H881 C887 0.930 . S
C882 H868 0.930 . S
C882 C880 1.395 . S
C882 C885 1.403 . S
C883 C880 1.403 . S
C883 C884 1.524 . S
C883 C887 1.400 . S
C884 H869 0.960 . S
C884 H870 0.960 . S
C884 H871 0.960 . S
C884 C883 1.524 . S
C885 C882 1.403 . S
C885 C886 1.392 . S
C885 C889 1.495 . S
C886 C885 1.392 . S
C886 C887 1.385 . S
C886 C888 1.478 . S
C887 H881 0.930 . S
C887 C883 1.400 . S
C887 C886 1.385 . S
C888 C886 1.478 . S
C888 C890 1.381 . S
C888 C894 1.383 . S
C889 C885 1.495 . S
C889 H895 0.959 . S
C889 H896 0.961 . S
C889 H897 0.960 . S
C890 C888 1.381 . S
C890 C891 1.394 . S
C890 H898 0.930 . S
C891 C890 1.394 . S
C891 C892 1.383 . S
C891 H899 0.929 . S
C892 C891 1.383 . S
C892 C893 1.377 . S
C893 H877 0.930 . S
C893 C892 1.377 . S
C893 C894 1.379 . S
C894 H878 0.931 . S
C894 C888 1.383 . S
C894 C893 1.379 . S
H895 C889 0.959 . S
H896 C889 0.961 . S
H897 C889 0.960 . S
H898 C890 0.930 . S
H899 C891 0.929 . S
H900 C908 0.929 . S
H901 C910 0.930 . S
H902 C912 0.930 . S
H903 C915 0.929 . S
H904 C918 0.930 . S
H905 C920 0.960 . S
H906 C920 0.960 . S
H907 C920 0.960 . S
C908 H900 0.929 . S
C908 C909 1.377 . S
C908 C910 1.384 . S
C909 C908 1.377 . S
C909 C915 1.390 . S
C910 H901 0.930 . S
C910 C908 1.384 . S
C910 C911 1.372 . S
C911 C910 1.372 . S
C911 C912 1.400 . S
C911 C916 1.490 . S
C912 H902 0.930 . S
C912 C911 1.400 . S
C912 C915 1.386 . S
H913 C929 0.930 . S
H914 C930 0.931 . S
C915 H903 0.929 . S
C915 C909 1.390 . S
C915 C912 1.386 . S
C916 C911 1.490 . S
C916 C918 1.395 . S
C916 C919 1.403 . S
H917 C923 0.930 . S
C918 H904 0.930 . S
C918 C916 1.395 . S
C918 C921 1.403 . S
C919 C916 1.403 . S
C919 C920 1.524 . S
C919 C923 1.400 . S
C920 H905 0.960 . S
C920 H906 0.960 . S
C920 H907 0.960 . S
C920 C919 1.524 . S
C921 C918 1.403 . S
C921 C922 1.392 . S
C921 C925 1.495 . S
C922 C921 1.392 . S
C922 C923 1.385 . S
C922 C924 1.478 . S
C923 H917 0.930 . S
C923 C919 1.400 . S
C923 C922 1.385 . S
C924 C922 1.478 . S
C924 C926 1.381 . S
C924 C930 1.383 . S
C925 C921 1.495 . S
C925 H931 0.959 . S
C925 H932 0.961 . S
C925 H933 0.960 . S
C926 C924 1.381 . S
C926 C927 1.394 . S
C926 H934 0.930 . S
C927 C926 1.394 . S
C927 C928 1.383 . S
C927 H935 0.929 . S
C928 C927 1.383 . S
C928 C929 1.377 . S
C929 H913 0.930 . S
C929 C928 1.377 . S
C929 C930 1.379 . S
C930 H914 0.931 . S
C930 C924 1.383 . S
C930 C929 1.379 . S
H931 C925 0.959 . S
H932 C925 0.961 . S
H933 C925 0.960 . S
H934 C926 0.930 . S
H935 C927 0.929 . S
H936 C944 0.929 . S
H937 C946 0.930 . S
H938 C948 0.935 . S
H939 C951 0.978 . S
H940 C954 0.930 . S
H941 C956 0.960 . S
H942 C956 0.960 . S
H943 C956 0.960 1_545 S
C944 H936 0.929 . S
C944 C945 1.377 . S
C944 C946 1.384 . S
C945 C944 1.377 . S
C945 C951 1.368 1_565 S
C946 H937 0.930 . S
C946 C944 1.384 . S
C946 C947 1.372 . S
C947 C946 1.372 . S
C947 C948 1.389 1_565 S
C947 C952 1.490 . S
C948 H938 0.935 . S
C948 C947 1.389 1_545 S
C948 C951 1.366 . S
H949 C965 0.930 . S
H950 C966 0.973 . S
C951 H939 0.978 . S
C951 C945 1.368 1_545 S
C951 C948 1.366 . S
C952 C947 1.490 . S
C952 C954 1.395 . S
C952 C955 1.403 . S
H953 C959 0.930 . S
C954 H940 0.930 . S
C954 C952 1.395 . S
C954 C957 1.403 . S
C955 C952 1.403 . S
C955 C956 1.524 . S
C955 C959 1.400 . S
C956 H941 0.960 . S
C956 H942 0.960 . S
C956 H943 0.960 1_565 S
C956 C955 1.524 . S
C957 C954 1.403 . S
C957 C958 1.392 . S
C957 C961 1.495 . S
C958 C957 1.392 . S
C958 C959 1.385 . S
C958 C960 1.478 . S
C959 H953 0.930 . S
C959 C955 1.400 . S
C959 C958 1.385 . S
C960 C958 1.478 . S
C960 C962 1.381 . S
C960 C966 1.362 1_565 S
C961 C957 1.495 . S
C961 H967 0.959 . S
C961 H968 0.961 . S
C961 H969 0.960 . S
C962 C960 1.381 . S
C962 C963 1.394 . S
C962 H970 0.930 . S
C963 C962 1.394 . S
C963 C964 1.383 . S
C963 H971 0.929 . S
C964 C963 1.383 . S
C964 C965 1.377 1_565 S
C965 H949 0.930 . S
C965 C964 1.377 1_545 S
C965 C966 1.360 . S
C966 H950 0.973 . S
C966 C960 1.362 1_545 S
C966 C965 1.360 . S
H967 C961 0.959 . S
H968 C961 0.961 . S
H969 C961 0.960 . S
H970 C962 0.930 . S
H971 C963 0.929 . S
H972 C980 0.929 . S
H973 C982 0.930 . S
H974 C984 0.930 . S
H975 C987 0.929 . S
H976 C990 0.930 . S
H977 C992 0.960 . S
H978 C992 0.960 . S
H979 C992 0.960 . S
C980 H972 0.929 . S
C980 C981 1.377 . S
C980 C982 1.384 . S
C981 C980 1.377 . S
C981 C987 1.390 . S
C982 H973 0.930 . S
C982 C980 1.384 . S
C982 C983 1.372 . S
C983 C982 1.372 . S
C983 C984 1.400 . S
C983 C988 1.490 . S
C984 H974 0.930 . S
C984 C983 1.400 . S
C984 C987 1.386 . S
H985 C1001 0.930 . S
H986 C1002 0.931 . S
C987 H975 0.929 . S
C987 C981 1.390 . S
C987 C984 1.386 . S
C988 C983 1.490 . S
C988 C990 1.395 . S
C988 C991 1.403 . S
H989 C995 0.930 . S
C990 H976 0.930 . S
C990 C988 1.395 . S
C990 C993 1.403 . S
C991 C988 1.403 . S
C991 C992 1.524 . S
C991 C995 1.400 . S
C992 H977 0.960 . S
C992 H978 0.960 . S
C992 H979 0.960 . S
C992 C991 1.524 . S
C993 C990 1.403 . S
C993 C994 1.392 . S
C993 C997 1.495 . S
C994 C993 1.392 . S
C994 C995 1.385 . S
C994 C996 1.478 . S
C995 H989 0.930 . S
C995 C991 1.400 . S
C995 C994 1.385 . S
C996 C994 1.478 . S
C996 C998 1.381 . S
C996 C1002 1.383 . S
C997 C993 1.495 . S
C997 H1003 0.959 . S
C997 H1004 0.961 . S
C997 H1005 0.960 . S
C998 C996 1.381 . S
C998 C999 1.394 . S
C998 H1006 0.930 . S
C999 C998 1.394 . S
C999 C1000 1.383 . S
C999 H1007 0.929 . S
C1000 C999 1.383 . S
C1000 C1001 1.377 . S
C1001 H985 0.930 . S
C1001 C1000 1.377 . S
C1001 C1002 1.379 . S
C1002 H986 0.931 . S
C1002 C996 1.383 . S
C1002 C1001 1.379 . S
H1003 C997 0.959 . S
H1004 C997 0.961 . S
H1005 C997 0.960 . S
H1006 C998 0.930 . S
H1007 C999 0.929 . S
H1008 C1016 0.929 . S
H1009 C1018 0.930 . S
H1010 C1020 0.930 . S
H1011 C1023 0.929 . S
H1012 C1026 0.930 . S
H1013 C1028 0.960 . S
H1014 C1028 0.960 . S
H1015 C1028 0.960 . S
C1016 H1008 0.929 . S
C1016 C1017 1.377 . S
C1016 C1018 1.384 . S
C1017 C1016 1.377 . S
C1017 C1023 1.390 . S
C1018 H1009 0.930 . S
C1018 C1016 1.384 . S
C1018 C1019 1.372 . S
C1019 C1018 1.372 . S
C1019 C1020 1.400 . S
C1019 C1024 1.490 . S
C1020 H1010 0.930 . S
C1020 C1019 1.400 . S
C1020 C1023 1.386 . S
H1021 C1037 0.930 . S
H1022 C1038 0.931 . S
C1023 H1011 0.929 . S
C1023 C1017 1.390 . S
C1023 C1020 1.386 . S
C1024 C1019 1.490 . S
C1024 C1026 1.395 . S
C1024 C1027 1.403 . S
H1025 C1031 0.930 . S
C1026 H1012 0.930 . S
C1026 C1024 1.395 . S
C1026 C1029 1.403 . S
C1027 C1024 1.403 . S
C1027 C1028 1.524 . S
C1027 C1031 1.400 . S
C1028 H1013 0.960 . S
C1028 H1014 0.960 . S
C1028 H1015 0.960 . S
C1028 C1027 1.524 . S
C1029 C1026 1.403 . S
C1029 C1030 1.392 . S
C1029 C1033 1.495 . S
C1030 C1029 1.392 . S
C1030 C1031 1.385 . S
C1030 C1032 1.478 . S
C1031 H1025 0.930 . S
C1031 C1027 1.400 . S
C1031 C1030 1.385 . S
C1032 C1030 1.478 . S
C1032 C1034 1.381 . S
C1032 C1038 1.383 . S
C1033 C1029 1.495 . S
C1033 H1039 0.959 . S
C1033 H1040 0.961 . S
C1033 H1041 0.960 . S
C1034 C1032 1.381 . S
C1034 C1035 1.394 . S
C1034 H1042 0.930 . S
C1035 C1034 1.394 . S
C1035 C1036 1.383 . S
C1035 H1043 0.929 . S
C1036 C1035 1.383 . S
C1036 C1037 1.377 . S
C1037 H1021 0.930 . S
C1037 C1036 1.377 . S
C1037 C1038 1.379 . S
C1038 H1022 0.931 . S
C1038 C1032 1.383 . S
C1038 C1037 1.379 . S
H1039 C1033 0.959 . S
H1040 C1033 0.961 . S
H1041 C1033 0.960 . S
H1042 C1034 0.930 . S
H1043 C1035 0.929 . S
H1044 C1052 0.929 . S
H1045 C1054 0.930 . S
H1046 C1056 0.930 . S
H1047 C1059 0.929 . S
H1048 C1062 0.930 . S
H1049 C1064 0.960 . S
H1050 C1064 0.960 . S
H1051 C1064 0.960 . S
C1052 H1044 0.929 . S
C1052 C1053 1.377 . S
C1052 C1054 1.384 . S
C1053 C1052 1.377 . S
C1053 C1059 1.390 . S
C1054 H1045 0.930 . S
C1054 C1052 1.384 . S
C1054 C1055 1.372 . S
C1055 C1054 1.372 . S
C1055 C1056 1.400 . S
C1055 C1060 1.490 . S
C1056 H1046 0.930 . S
C1056 C1055 1.400 . S
C1056 C1059 1.386 . S
H1057 C1073 0.930 . S
H1058 C1074 0.931 . S
C1059 H1047 0.929 . S
C1059 C1053 1.390 . S
C1059 C1056 1.386 . S
C1060 C1055 1.490 . S
C1060 C1062 1.395 . S
C1060 C1063 1.403 . S
H1061 C1067 0.930 . S
C1062 H1048 0.930 . S
C1062 C1060 1.395 . S
C1062 C1065 1.403 . S
C1063 C1060 1.403 . S
C1063 C1064 1.524 . S
C1063 C1067 1.400 . S
C1064 H1049 0.960 . S
C1064 H1050 0.960 . S
C1064 H1051 0.960 . S
C1064 C1063 1.524 . S
C1065 C1062 1.403 . S
C1065 C1066 1.392 . S
C1065 C1069 1.495 . S
C1066 C1065 1.392 . S
C1066 C1067 1.385 . S
C1066 C1068 1.478 . S
C1067 H1061 0.930 . S
C1067 C1063 1.400 . S
C1067 C1066 1.385 . S
C1068 C1066 1.478 . S
C1068 C1070 1.381 . S
C1068 C1074 1.383 . S
C1069 C1065 1.495 . S
C1069 H1075 0.959 . S
C1069 H1076 0.961 . S
C1069 H1077 0.960 . S
C1070 C1068 1.381 . S
C1070 C1071 1.394 . S
C1070 H1078 0.930 . S
C1071 C1070 1.394 . S
C1071 C1072 1.383 . S
C1071 H1079 0.929 . S
C1072 C1071 1.383 . S
C1072 C1073 1.377 . S
C1073 H1057 0.930 . S
C1073 C1072 1.377 . S
C1073 C1074 1.379 . S
C1074 H1058 0.931 . S
C1074 C1068 1.383 . S
C1074 C1073 1.379 . S
H1075 C1069 0.959 . S
H1076 C1069 0.961 . S
H1077 C1069 0.960 . S
H1078 C1070 0.930 . S
H1079 C1071 0.929 . S
H1080 C1088 0.929 . S
H1081 C1090 0.930 . S
H1082 C1092 0.930 . S
H1083 C1095 0.929 . S
H1084 C1098 0.930 . S
H1085 C1100 0.960 . S
H1086 C1100 0.960 . S
H1087 C1100 0.960 . S
C1088 H1080 0.929 . S
C1088 C1089 1.377 . S
C1088 C1090 1.384 . S
C1089 C1088 1.377 . S
C1089 C1095 1.390 . S
C1090 H1081 0.930 . S
C1090 C1088 1.384 . S
C1090 C1091 1.372 . S
C1091 C1090 1.372 . S
C1091 C1092 1.400 . S
C1091 C1096 1.490 . S
C1092 H1082 0.930 . S
C1092 C1091 1.400 . S
C1092 C1095 1.386 . S
H1093 C1109 0.930 . S
H1094 C1110 0.931 . S
C1095 H1083 0.929 . S
C1095 C1089 1.390 . S
C1095 C1092 1.386 . S
C1096 C1091 1.490 . S
C1096 C1098 1.395 . S
C1096 C1099 1.403 . S
H1097 C1103 0.930 . S
C1098 H1084 0.930 . S
C1098 C1096 1.395 . S
C1098 C1101 1.403 . S
C1099 C1096 1.403 . S
C1099 C1100 1.524 . S
C1099 C1103 1.400 . S
C1100 H1085 0.960 . S
C1100 H1086 0.960 . S
C1100 H1087 0.960 . S
C1100 C1099 1.524 . S
C1101 C1098 1.403 . S
C1101 C1102 1.392 . S
C1101 C1105 1.495 . S
C1102 C1101 1.392 . S
C1102 C1103 1.385 . S
C1102 C1104 1.478 . S
C1103 H1097 0.930 . S
C1103 C1099 1.400 . S
C1103 C1102 1.385 . S
C1104 C1102 1.478 . S
C1104 C1106 1.381 . S
C1104 C1110 1.383 . S
C1105 C1101 1.495 . S
C1105 H1111 0.959 . S
C1105 H1112 0.961 . S
C1105 H1113 0.960 . S
C1106 C1104 1.381 . S
C1106 C1107 1.394 . S
C1106 H1114 0.930 . S
C1107 C1106 1.394 . S
C1107 C1108 1.383 . S
C1107 H1115 0.929 . S
C1108 C1107 1.383 . S
C1108 C1109 1.377 . S
C1109 H1093 0.930 . S
C1109 C1108 1.377 . S
C1109 C1110 1.379 . S
C1110 H1094 0.931 . S
C1110 C1104 1.383 . S
C1110 C1109 1.379 . S
H1111 C1105 0.959 . S
H1112 C1105 0.961 . S
H1113 C1105 0.960 . S
H1114 C1106 0.930 . S
H1115 C1107 0.929 . S
H1116 C1124 0.929 . S
H1117 C1126 0.930 . S
H1118 C1128 0.930 . S
H1119 C1131 0.929 . S
H1120 C1134 0.930 . S
H1121 C1136 0.960 . S
H1122 C1136 0.960 . S
H1123 C1136 0.960 . S
C1124 H1116 0.929 . S
C1124 C1125 1.377 . S
C1124 C1126 1.384 . S
C1125 C1124 1.377 . S
C1125 C1131 1.390 . S
C1126 H1117 0.930 . S
C1126 C1124 1.384 . S
C1126 C1127 1.372 . S
C1127 C1126 1.372 . S
C1127 C1128 1.400 . S
C1127 C1132 1.490 . S
C1128 H1118 0.930 . S
C1128 C1127 1.400 . S
C1128 C1131 1.386 . S
H1129 C1145 0.930 . S
H1130 C1146 0.931 . S
C1131 H1119 0.929 . S
C1131 C1125 1.390 . S
C1131 C1128 1.386 . S
C1132 C1127 1.490 . S
C1132 C1134 1.395 . S
C1132 C1135 1.403 . S
H1133 C1139 0.930 . S
C1134 H1120 0.930 . S
C1134 C1132 1.395 . S
C1134 C1137 1.403 . S
C1135 C1132 1.403 . S
C1135 C1136 1.524 . S
C1135 C1139 1.400 . S
C1136 H1121 0.960 . S
C1136 H1122 0.960 . S
C1136 H1123 0.960 . S
C1136 C1135 1.524 . S
C1137 C1134 1.403 . S
C1137 C1138 1.392 . S
C1137 C1141 1.495 . S
C1138 C1137 1.392 . S
C1138 C1139 1.385 . S
C1138 C1140 1.478 . S
C1139 H1133 0.930 . S
C1139 C1135 1.400 . S
C1139 C1138 1.385 . S
C1140 C1138 1.478 . S
C1140 C1142 1.381 . S
C1140 C1146 1.383 . S
C1141 C1137 1.495 . S
C1141 H1147 0.959 . S
C1141 H1148 0.961 . S
C1141 H1149 0.960 . S
C1142 C1140 1.381 . S
C1142 C1143 1.394 . S
C1142 H1150 0.930 . S
C1143 C1142 1.394 . S
C1143 C1144 1.383 . S
C1143 H1151 0.929 . S
C1144 C1143 1.383 . S
C1144 C1145 1.377 . S
C1145 H1129 0.930 . S
C1145 C1144 1.377 . S
C1145 C1146 1.379 . S
C1146 H1130 0.931 . S
C1146 C1140 1.383 . S
C1146 C1145 1.379 . S
H1147 C1141 0.959 . S
H1148 C1141 0.961 . S
H1149 C1141 0.960 . S
H1150 C1142 0.930 . S
H1151 C1143 0.929 . S
H1152 C1160 0.929 1_655 S
H1153 C1162 0.930 1_655 S
H1154 C1164 0.930 . S
H1155 C1167 0.929 . S
H1156 C1170 0.930 . S
H1157 C1172 0.960 . S
H1158 C1172 0.960 1_655 S
H1159 C1172 0.960 . S
C1160 H1152 0.929 1_455 S
C1160 C1161 1.377 . S
C1160 C1162 1.384 . S
C1161 C1160 1.377 . S
C1161 C1167 1.390 . S
C1162 H1153 0.930 1_455 S
C1162 C1160 1.384 . S
C1162 C1163 1.372 . S
C1163 C1162 1.372 . S
C1163 C1164 1.400 . S
C1163 C1168 1.490 . S
C1164 H1154 0.930 . S
C1164 C1163 1.400 . S
C1164 C1167 1.386 . S
H1165 C1181 0.930 . S
H1166 C1182 0.931 . S
C1167 H1155 0.929 . S
C1167 C1161 1.390 . S
C1167 C1164 1.386 . S
C1168 C1163 1.490 . S
C1168 C1170 1.395 . S
C1168 C1171 1.403 . S
H1169 C1175 0.930 . S
C1170 H1156 0.930 . S
C1170 C1168 1.395 . S
C1170 C1173 1.403 . S
C1171 C1168 1.403 . S
C1171 C1172 1.524 . S
C1171 C1175 1.400 . S
C1172 H1157 0.960 . S
C1172 H1158 0.960 1_455 S
C1172 H1159 0.960 . S
C1172 C1171 1.524 . S
C1173 C1170 1.403 . S
C1173 C1174 1.392 . S
C1173 C1177 1.495 . S
C1174 C1173 1.392 . S
C1174 C1175 1.385 . S
C1174 C1176 1.478 . S
C1175 H1169 0.930 . S
C1175 C1171 1.400 . S
C1175 C1174 1.385 . S
C1176 C1174 1.478 . S
C1176 C1178 1.381 1_455 S
C1176 C1182 1.383 . S
C1177 C1173 1.495 . S
C1177 H1183 0.959 . S
C1177 H1184 0.961 . S
C1177 H1185 0.960 . S
C1178 C1176 1.381 1_655 S
C1178 C1179 1.394 . S
C1178 H1186 0.930 . S
C1179 C1178 1.394 . S
C1179 C1180 1.383 1_655 S
C1179 H1187 0.929 . S
C1180 C1179 1.383 1_455 S
C1180 C1181 1.377 . S
C1181 H1165 0.930 . S
C1181 C1180 1.377 . S
C1181 C1182 1.379 . S
C1182 H1166 0.931 . S
C1182 C1176 1.383 . S
C1182 C1181 1.379 . S
H1183 C1177 0.959 . S
H1184 C1177 0.961 . S
H1185 C1177 0.960 . S
H1186 C1178 0.930 . S
H1187 C1179 0.929 . S
H1188 C1196 0.929 . S
H1189 C1198 0.930 . S
H1190 C1200 0.930 . S
H1191 C1203 0.929 . S
H1192 C1206 0.930 . S
H1193 C1208 0.960 . S
H1194 C1208 0.960 . S
H1195 C1208 0.960 . S
C1196 H1188 0.929 . S
C1196 C1197 1.377 . S
C1196 C1198 1.384 . S
C1197 C1196 1.377 . S
C1197 C1203 1.390 . S
C1198 H1189 0.930 . S
C1198 C1196 1.384 . S
C1198 C1199 1.372 . S
C1199 C1198 1.372 . S
C1199 C1200 1.400 . S
C1199 C1204 1.490 . S
C1200 H1190 0.930 . S
C1200 C1199 1.400 . S
C1200 C1203 1.386 . S
H1201 C1217 0.930 . S
H1202 C1218 0.931 . S
C1203 H1191 0.929 . S
C1203 C1197 1.390 . S
C1203 C1200 1.386 . S
C1204 C1199 1.490 . S
C1204 C1206 1.395 . S
C1204 C1207 1.403 . S
H1205 C1211 0.930 . S
C1206 H1192 0.930 . S
C1206 C1204 1.395 . S
C1206 C1209 1.403 . S
C1207 C1204 1.403 . S
C1207 C1208 1.524 . S
C1207 C1211 1.400 . S
C1208 H1193 0.960 . S
C1208 H1194 0.960 . S
C1208 H1195 0.960 . S
C1208 C1207 1.524 . S
C1209 C1206 1.403 . S
C1209 C1210 1.392 . S
C1209 C1213 1.495 . S
C1210 C1209 1.392 . S
C1210 C1211 1.385 . S
C1210 C1212 1.478 . S
C1211 H1205 0.930 . S
C1211 C1207 1.400 . S
C1211 C1210 1.385 . S
C1212 C1210 1.478 . S
C1212 C1214 1.381 . S
C1212 C1218 1.383 . S
C1213 C1209 1.495 . S
C1213 H1219 0.959 . S
C1213 H1220 0.961 . S
C1213 H1221 0.960 . S
C1214 C1212 1.381 . S
C1214 C1215 1.394 . S
C1214 H1222 0.930 . S
C1215 C1214 1.394 . S
C1215 C1216 1.383 . S
C1215 H1223 0.929 . S
C1216 C1215 1.383 . S
C1216 C1217 1.377 . S
C1217 H1201 0.930 . S
C1217 C1216 1.377 . S
C1217 C1218 1.379 . S
C1218 H1202 0.931 . S
C1218 C1212 1.383 . S
C1218 C1217 1.379 . S
H1219 C1213 0.959 . S
H1220 C1213 0.961 . S
H1221 C1213 0.960 . S
H1222 C1214 0.930 . S
H1223 C1215 0.929 . S
H1224 C1232 0.929 . S
H1225 C1234 0.930 . S
H1226 C1236 0.930 . S
H1227 C1239 0.929 . S
H1228 C1242 0.930 . S
H1229 C1244 0.960 . S
H1230 C1244 0.960 . S
H1231 C1244 0.960 . S
C1232 H1224 0.929 . S
C1232 C1233 1.377 . S
C1232 C1234 1.384 . S
C1233 C1232 1.377 . S
C1233 C1239 1.390 . S
C1234 H1225 0.930 . S
C1234 C1232 1.384 . S
C1234 C1235 1.372 . S
C1235 C1234 1.372 . S
C1235 C1236 1.400 . S
C1235 C1240 1.490 . S
C1236 H1226 0.930 . S
C1236 C1235 1.400 . S
C1236 C1239 1.386 . S
H1237 C1253 0.930 . S
H1238 C1254 0.931 . S
C1239 H1227 0.929 . S
C1239 C1233 1.390 . S
C1239 C1236 1.386 . S
C1240 C1235 1.490 . S
C1240 C1242 1.395 . S
C1240 C1243 1.403 . S
H1241 C1247 0.930 . S
C1242 H1228 0.930 . S
C1242 C1240 1.395 . S
C1242 C1245 1.403 . S
C1243 C1240 1.403 . S
C1243 C1244 1.524 . S
C1243 C1247 1.400 . S
C1244 H1229 0.960 . S
C1244 H1230 0.960 . S
C1244 H1231 0.960 . S
C1244 C1243 1.524 . S
C1245 C1242 1.403 . S
C1245 C1246 1.392 . S
C1245 C1249 1.495 . S
C1246 C1245 1.392 . S
C1246 C1247 1.385 . S
C1246 C1248 1.478 . S
C1247 H1241 0.930 . S
C1247 C1243 1.400 . S
C1247 C1246 1.385 . S
C1248 C1246 1.478 . S
C1248 C1250 1.381 . S
C1248 C1254 1.383 . S
C1249 C1245 1.495 . S
C1249 H1255 0.959 1_545 S
C1249 H1256 0.961 . S
C1249 H1257 0.955 . S
C1250 C1248 1.381 . S
C1250 C1251 1.394 . S
C1250 H1258 0.930 . S
C1251 C1250 1.394 . S
C1251 C1252 1.383 . S
C1251 H1259 0.929 . S
C1252 C1251 1.383 . S
C1252 C1253 1.377 . S
C1253 H1237 0.930 . S
C1253 C1252 1.377 . S
C1253 C1254 1.379 . S
C1254 H1238 0.931 . S
C1254 C1248 1.383 . S
C1254 C1253 1.379 . S
H1255 C1249 0.959 1_565 S
H1256 C1249 0.961 . S
H1257 C1249 0.955 . S
H1258 C1250 0.930 . S
H1259 C1251 0.929 . S
H1260 C1268 0.929 . S
H1261 C1270 0.930 . S
H1262 C1272 0.930 . S
H1263 C1275 0.929 . S
H1264 C1278 0.952 . S
H1265 C1280 0.960 . S
H1266 C1280 0.960 . S
H1267 C1280 0.960 . S
C1268 H1260 0.929 . S
C1268 C1269 1.377 . S
C1268 C1270 1.384 . S
C1269 C1268 1.377 . S
C1269 C1275 1.390 . S
C1270 H1261 0.930 . S
C1270 C1268 1.384 . S
C1270 C1271 1.372 . S
C1271 C1270 1.372 . S
C1271 C1272 1.400 . S
C1271 C1276 1.490 . S
C1272 H1262 0.930 . S
C1272 C1271 1.400 . S
C1272 C1275 1.386 . S
H1273 C1289 0.930 . S
H1274 C1290 0.931 . S
C1275 H1263 0.929 . S
C1275 C1269 1.390 . S
C1275 C1272 1.386 . S
C1276 C1271 1.490 . S
C1276 C1278 1.363 1_545 S
C1276 C1279 1.403 . S
H1277 C1283 0.930 . S
C1278 H1264 0.952 . S
C1278 C1276 1.363 1_565 S
C1278 C1281 1.414 . S
C1279 C1276 1.403 . S
C1279 C1280 1.524 . S
C1279 C1283 1.400 . S
C1280 H1265 0.960 . S
C1280 H1266 0.960 . S
C1280 H1267 0.960 . S
C1280 C1279 1.524 . S
C1281 C1278 1.414 . S
C1281 C1282 1.392 1_565 S
C1281 C1285 1.495 . S
C1282 C1281 1.392 1_545 S
C1282 C1283 1.385 . S
C1282 C1284 1.478 . S
C1283 H1277 0.930 . S
C1283 C1279 1.400 . S
C1283 C1282 1.385 . S
C1284 C1282 1.478 . S
C1284 C1286 1.381 . S
C1284 C1290 1.383 1_545 S
C1285 C1281 1.495 . S
C1285 H1291 0.959 . S
C1285 H1292 0.961 . S
C1285 H1293 0.960 . S
C1286 C1284 1.381 . S
C1286 C1287 1.394 . S
C1286 H1294 0.930 . S
C1287 C1286 1.394 . S
C1287 C1288 1.382 . S
C1287 H1295 0.929 . S
C1288 C1287 1.382 . S
C1288 C1289 1.381 1_545 S
C1289 H1273 0.930 . S
C1289 C1288 1.381 1_565 S
C1289 C1290 1.379 . S
C1290 H1274 0.931 . S
C1290 C1284 1.383 1_565 S
C1290 C1289 1.379 . S
H1291 C1285 0.959 . S
H1292 C1285 0.961 . S
H1293 C1285 0.960 . S
H1294 C1286 0.930 . S
H1295 C1287 0.929 . S
H1296 C1304 0.929 . S
H1297 C1306 0.930 . S
H1298 C1308 0.930 . S
H1299 C1311 0.929 . S
H1300 C1314 0.930 . S
H1301 C1316 0.960 . S
H1302 C1316 0.960 . S
H1303 C1316 0.960 . S
C1304 H1296 0.929 . S
C1304 C1305 1.377 . S
C1304 C1306 1.384 . S
C1305 C1304 1.377 . S
C1305 C1311 1.390 . S
C1306 H1297 0.930 . S
C1306 C1304 1.384 . S
C1306 C1307 1.372 . S
C1307 C1306 1.372 . S
C1307 C1308 1.400 . S
C1307 C1312 1.490 . S
C1308 H1298 0.930 . S
C1308 C1307 1.400 . S
C1308 C1311 1.386 . S
H1309 C1325 0.930 . S
H1310 C1326 0.931 . S
C1311 H1299 0.929 . S
C1311 C1305 1.390 . S
C1311 C1308 1.386 . S
C1312 C1307 1.490 . S
C1312 C1314 1.395 . S
C1312 C1315 1.403 . S
H1313 C1319 0.930 . S
C1314 H1300 0.930 . S
C1314 C1312 1.395 . S
C1314 C1317 1.403 . S
C1315 C1312 1.403 . S
C1315 C1316 1.524 . S
C1315 C1319 1.400 . S
C1316 H1301 0.960 . S
C1316 H1302 0.960 . S
C1316 H1303 0.960 . S
C1316 C1315 1.524 . S
C1317 C1314 1.403 . S
C1317 C1318 1.392 . S
C1317 C1321 1.495 . S
C1318 C1317 1.392 . S
C1318 C1319 1.385 . S
C1318 C1320 1.478 . S
C1319 H1313 0.930 . S
C1319 C1315 1.400 . S
C1319 C1318 1.385 . S
C1320 C1318 1.478 . S
C1320 C1322 1.381 . S
C1320 C1326 1.383 . S
C1321 C1317 1.495 . S
C1321 H1327 0.959 . S
C1321 H1328 0.961 . S
C1321 H1329 0.960 . S
C1322 C1320 1.381 . S
C1322 C1323 1.394 . S
C1322 H1330 0.930 . S
C1323 C1322 1.394 . S
C1323 C1324 1.383 . S
C1323 H1331 0.929 . S
C1324 C1323 1.383 . S
C1324 C1325 1.377 . S
C1325 H1309 0.930 . S
C1325 C1324 1.377 . S
C1325 C1326 1.379 . S
C1326 H1310 0.931 . S
C1326 C1320 1.383 . S
C1326 C1325 1.379 . S
H1327 C1321 0.959 . S
H1328 C1321 0.961 . S
H1329 C1321 0.960 . S
H1330 C1322 0.930 . S
H1331 C1323 0.929 . S
H1332 C1340 0.929 . S
H1333 C1342 0.930 . S
H1334 C1344 0.930 . S
H1335 C1347 0.929 . S
H1336 C1350 0.930 . S
H1337 C1352 0.960 . S
H1338 C1352 0.960 . S
H1339 C1352 0.960 . S
C1340 H1332 0.929 . S
C1340 C1341 1.377 . S
C1340 C1342 1.384 . S
C1341 C1340 1.377 . S
C1341 C1347 1.390 . S
C1342 H1333 0.930 . S
C1342 C1340 1.384 . S
C1342 C1343 1.372 . S
C1343 C1342 1.372 . S
C1343 C1344 1.400 . S
C1343 C1348 1.490 . S
C1344 H1334 0.930 . S
C1344 C1343 1.400 . S
C1344 C1347 1.386 . S
H1345 C1361 0.930 . S
H1346 C1362 0.931 . S
C1347 H1335 0.929 . S
C1347 C1341 1.390 . S
C1347 C1344 1.386 . S
C1348 C1343 1.490 . S
C1348 C1350 1.395 . S
C1348 C1351 1.403 . S
H1349 C1355 0.930 . S
C1350 H1336 0.930 . S
C1350 C1348 1.395 . S
C1350 C1353 1.403 . S
C1351 C1348 1.403 . S
C1351 C1352 1.524 . S
C1351 C1355 1.400 . S
C1352 H1337 0.960 . S
C1352 H1338 0.960 . S
C1352 H1339 0.960 . S
C1352 C1351 1.524 . S
C1353 C1350 1.403 . S
C1353 C1354 1.392 . S
C1353 C1357 1.495 . S
C1354 C1353 1.392 . S
C1354 C1355 1.385 . S
C1354 C1356 1.478 . S
C1355 H1349 0.930 . S
C1355 C1351 1.400 . S
C1355 C1354 1.385 . S
C1356 C1354 1.478 . S
C1356 C1358 1.381 . S
C1356 C1362 1.383 . S
C1357 C1353 1.495 . S
C1357 H1363 0.959 . S
C1357 H1364 0.961 . S
C1357 H1365 0.960 . S
C1358 C1356 1.381 . S
C1358 C1359 1.394 . S
C1358 H1366 0.930 . S
C1359 C1358 1.394 . S
C1359 C1360 1.383 . S
C1359 H1367 0.929 . S
C1360 C1359 1.383 . S
C1360 C1361 1.377 . S
C1361 H1345 0.930 . S
C1361 C1360 1.377 . S
C1361 C1362 1.379 . S
C1362 H1346 0.931 . S
C1362 C1356 1.383 . S
C1362 C1361 1.379 . S
H1363 C1357 0.959 . S
H1364 C1357 0.961 . S
H1365 C1357 0.960 . S
H1366 C1358 0.930 . S
H1367 C1359 0.929 . S
H1368 C1376 0.929 . S
H1369 C1378 0.930 . S
H1370 C1380 0.930 . S
H1371 C1383 0.929 . S
H1372 C1386 0.930 . S
H1373 C1388 0.960 . S
H1374 C1388 0.960 . S
H1375 C1388 0.960 . S
C1376 H1368 0.929 . S
C1376 C1377 1.377 . S
C1376 C1378 1.384 . S
C1377 C1376 1.377 . S
C1377 C1383 1.390 . S
C1378 H1369 0.930 . S
C1378 C1376 1.384 . S
C1378 C1379 1.372 . S
C1379 C1378 1.372 . S
C1379 C1380 1.400 . S
C1379 C1384 1.490 . S
C1380 H1370 0.930 . S
C1380 C1379 1.400 . S
C1380 C1383 1.386 . S
H1381 C1397 0.930 . S
H1382 C1398 0.931 . S
C1383 H1371 0.929 . S
C1383 C1377 1.390 . S
C1383 C1380 1.386 . S
C1384 C1379 1.490 . S
C1384 C1386 1.395 . S
C1384 C1387 1.403 . S
H1385 C1391 0.930 . S
C1386 H1372 0.930 . S
C1386 C1384 1.395 . S
C1386 C1389 1.403 . S
C1387 C1384 1.403 . S
C1387 C1388 1.524 . S
C1387 C1391 1.400 . S
C1388 H1373 0.960 . S
C1388 H1374 0.960 . S
C1388 H1375 0.960 . S
C1388 C1387 1.524 . S
C1389 C1386 1.403 . S
C1389 C1390 1.392 . S
C1389 C1393 1.495 . S
C1390 C1389 1.392 . S
C1390 C1391 1.385 . S
C1390 C1392 1.478 . S
C1391 H1385 0.930 . S
C1391 C1387 1.400 . S
C1391 C1390 1.385 . S
C1392 C1390 1.478 . S
C1392 C1394 1.381 . S
C1392 C1398 1.383 . S
C1393 C1389 1.495 . S
C1393 H1399 0.959 . S
C1393 H1400 0.961 . S
C1393 H1401 0.960 . S
C1394 C1392 1.381 . S
C1394 C1395 1.394 . S
C1394 H1402 0.930 . S
C1395 C1394 1.394 . S
C1395 C1396 1.383 . S
C1395 H1403 0.929 . S
C1396 C1395 1.383 . S
C1396 C1397 1.377 . S
C1397 H1381 0.930 . S
C1397 C1396 1.377 . S
C1397 C1398 1.379 . S
C1398 H1382 0.931 . S
C1398 C1392 1.383 . S
C1398 C1397 1.379 . S
H1399 C1393 0.959 . S
H1400 C1393 0.961 . S
H1401 C1393 0.960 . S
H1402 C1394 0.930 . S
H1403 C1395 0.929 . S
H1404 C1412 0.929 . S
H1405 C1414 0.930 . S
H1406 C1416 0.930 . S
H1407 C1419 0.929 . S
H1408 C1422 0.930 . S
H1409 C1424 0.960 . S
H1410 C1424 0.960 . S
H1411 C1424 0.960 . S
C1412 H1404 0.929 . S
C1412 C1413 1.377 . S
C1412 C1414 1.384 . S
C1413 C1412 1.377 . S
C1413 C1419 1.390 . S
C1414 H1405 0.930 . S
C1414 C1412 1.384 . S
C1414 C1415 1.372 . S
C1415 C1414 1.372 . S
C1415 C1416 1.400 . S
C1415 C1420 1.490 . S
C1416 H1406 0.930 . S
C1416 C1415 1.400 . S
C1416 C1419 1.386 . S
H1417 C1433 0.930 . S
H1418 C1434 0.931 . S
C1419 H1407 0.929 . S
C1419 C1413 1.390 . S
C1419 C1416 1.386 . S
C1420 C1415 1.490 . S
C1420 C1422 1.395 . S
C1420 C1423 1.403 . S
H1421 C1427 0.930 . S
C1422 H1408 0.930 . S
C1422 C1420 1.395 . S
C1422 C1425 1.403 . S
C1423 C1420 1.403 . S
C1423 C1424 1.524 . S
C1423 C1427 1.400 . S
C1424 H1409 0.960 . S
C1424 H1410 0.960 . S
C1424 H1411 0.960 . S
C1424 C1423 1.524 . S
C1425 C1422 1.403 . S
C1425 C1426 1.392 . S
C1425 C1429 1.495 . S
C1426 C1425 1.392 . S
C1426 C1427 1.385 . S
C1426 C1428 1.478 . S
C1427 H1421 0.930 . S
C1427 C1423 1.400 . S
C1427 C1426 1.385 . S
C1428 C1426 1.478 . S
C1428 C1430 1.381 . S
C1428 C1434 1.383 . S
C1429 C1425 1.495 . S
C1429 H1435 0.959 . S
C1429 H1436 0.961 . S
C1429 H1437 0.960 . S
C1430 C1428 1.381 . S
C1430 C1431 1.394 . S
C1430 H1438 0.930 . S
C1431 C1430 1.394 . S
C1431 C1432 1.383 . S
C1431 H1439 0.929 . S
C1432 C1431 1.383 . S
C1432 C1433 1.377 . S
C1433 H1417 0.930 . S
C1433 C1432 1.377 . S
C1433 C1434 1.379 . S
C1434 H1418 0.931 . S
C1434 C1428 1.383 . S
C1434 C1433 1.379 . S
H1435 C1429 0.959 . S
H1436 C1429 0.961 . S
H1437 C1429 0.960 . S
H1438 C1430 0.930 . S
H1439 C1431 0.929 . S
H1440 C1448 0.929 1_565 S
H1441 C1450 0.903 1_565 S
H1442 C1452 0.930 . S
H1443 C1455 0.929 . S
H1444 C1458 0.930 1_565 S
H1445 C1460 0.960 . S
H1446 C1460 0.960 . S
H1447 C1460 0.960 . S
C1448 H1440 0.929 1_545 S
C1448 C1449 1.377 . S
C1448 C1450 1.385 . S
C1449 C1448 1.377 . S
C1449 C1455 1.390 . S
C1450 H1441 0.903 1_545 S
C1450 C1448 1.385 . S
C1450 C1451 1.398 . S
C1451 C1450 1.398 . S
C1451 C1452 1.400 . S
C1451 C1456 1.490 . S
C1452 H1442 0.930 . S
C1452 C1451 1.400 . S
C1452 C1455 1.386 . S
H1453 C1469 0.930 . S
H1454 C1470 0.931 . S
C1455 H1443 0.929 . S
C1455 C1449 1.390 . S
C1455 C1452 1.386 . S
C1456 C1451 1.490 . S
C1456 C1458 1.395 . S
C1456 C1459 1.403 . S
H1457 C1463 0.930 . S
C1458 H1444 0.930 1_545 S
C1458 C1456 1.395 . S
C1458 C1461 1.403 1_545 S
C1459 C1456 1.403 . S
C1459 C1460 1.524 . S
C1459 C1463 1.400 . S
C1460 H1445 0.960 . S
C1460 H1446 0.960 . S
C1460 H1447 0.960 . S
C1460 C1459 1.524 . S
C1461 C1458 1.403 1_565 S
C1461 C1462 1.392 1_565 S
C1461 C1465 1.495 . S
C1462 C1461 1.392 1_545 S
C1462 C1463 1.385 . S
C1462 C1464 1.478 . S
C1463 H1457 0.930 . S
C1463 C1459 1.400 . S
C1463 C1462 1.385 . S
C1464 C1462 1.478 . S
C1464 C1466 1.381 1_545 S
C1464 C1470 1.383 . S
C1465 C1461 1.495 . S
C1465 H1471 0.959 . S
C1465 H1472 0.961 . S
C1465 H1473 0.960 . S
C1466 C1464 1.381 1_565 S
C1466 C1467 1.394 . S
C1466 H1474 0.930 . S
C1467 C1466 1.394 . S
C1467 C1468 1.339 1_565 S
C1467 H1475 0.929 . S
C1468 C1467 1.339 1_545 S
C1468 C1469 1.421 . S
C1469 H1453 0.930 . S
C1469 C1468 1.421 . S
C1469 C1470 1.379 . S
C1470 H1454 0.931 . S
C1470 C1464 1.383 . S
C1470 C1469 1.379 . S
H1471 C1465 0.959 . S
H1472 C1465 0.961 . S
H1473 C1465 0.960 . S
H1474 C1466 0.930 . S
H1475 C1467 0.929 . S
H1476 C1484 0.929 . S
H1477 C1486 0.930 . S
H1478 C1488 0.930 . S
H1479 C1491 0.929 . S
H1480 C1494 0.930 . S
H1481 C1496 0.960 . S
H1482 C1496 0.960 . S
H1483 C1496 0.960 . S
C1484 H1476 0.929 . S
C1484 C1485 1.377 . S
C1484 C1486 1.384 . S
C1485 C1484 1.377 . S
C1485 C1491 1.390 . S
C1486 H1477 0.930 . S
C1486 C1484 1.384 . S
C1486 C1487 1.372 . S
C1487 C1486 1.372 . S
C1487 C1488 1.400 . S
C1487 C1492 1.490 . S
C1488 H1478 0.930 . S
C1488 C1487 1.400 . S
C1488 C1491 1.386 . S
H1489 C1505 0.930 . S
H1490 C1506 0.931 . S
C1491 H1479 0.929 . S
C1491 C1485 1.390 . S
C1491 C1488 1.386 . S
C1492 C1487 1.490 . S
C1492 C1494 1.395 . S
C1492 C1495 1.403 . S
H1493 C1499 0.930 . S
C1494 H1480 0.930 . S
C1494 C1492 1.395 . S
C1494 C1497 1.403 . S
C1495 C1492 1.403 . S
C1495 C1496 1.524 . S
C1495 C1499 1.400 . S
C1496 H1481 0.960 . S
C1496 H1482 0.960 . S
C1496 H1483 0.960 . S
C1496 C1495 1.524 . S
C1497 C1494 1.403 . S
C1497 C1498 1.392 . S
C1497 C1501 1.495 . S
C1498 C1497 1.392 . S
C1498 C1499 1.385 . S
C1498 C1500 1.478 . S
C1499 H1493 0.930 . S
C1499 C1495 1.400 . S
C1499 C1498 1.385 . S
C1500 C1498 1.478 . S
C1500 C1502 1.381 . S
C1500 C1506 1.383 . S
C1501 C1497 1.495 . S
C1501 H1507 0.959 . S
C1501 H1508 0.961 . S
C1501 H1509 0.960 . S
C1502 C1500 1.381 . S
C1502 C1503 1.394 . S
C1502 H1510 0.930 . S
C1503 C1502 1.394 . S
C1503 C1504 1.383 . S
C1503 H1511 0.929 . S
C1504 C1503 1.383 . S
C1504 C1505 1.377 . S
C1505 H1489 0.930 . S
C1505 C1504 1.377 . S
C1505 C1506 1.379 . S
C1506 H1490 0.931 . S
C1506 C1500 1.383 . S
C1506 C1505 1.379 . S
H1507 C1501 0.959 . S
H1508 C1501 0.961 . S
H1509 C1501 0.960 . S
H1510 C1502 0.930 . S
H1511 C1503 0.929 . S
H1512 C1520 0.929 . S
H1513 C1522 0.930 . S
H1514 C1524 0.930 1_655 S
H1515 C1527 0.929 1_655 S
H1516 C1530 0.930 . S
H1517 C1532 0.960 . S
H1518 C1532 0.960 1_455 S
H1519 C1532 0.960 . S
C1520 H1512 0.929 . S
C1520 C1521 1.377 . S
C1520 C1522 1.384 . S
C1521 C1520 1.377 . S
C1521 C1527 1.390 . S
C1522 H1513 0.930 . S
C1522 C1520 1.384 . S
C1522 C1523 1.372 . S
C1523 C1522 1.372 . S
C1523 C1524 1.400 . S
C1523 C1528 1.490 . S
C1524 H1514 0.930 1_455 S
C1524 C1523 1.400 . S
C1524 C1527 1.386 . S
H1525 C1541 0.930 . S
H1526 C1542 0.931 . S
C1527 H1515 0.929 1_455 S
C1527 C1521 1.390 . S
C1527 C1524 1.386 . S
C1528 C1523 1.490 . S
C1528 C1530 1.395 . S
C1528 C1531 1.403 . S
H1529 C1535 0.930 1_655 S
C1530 H1516 0.930 . S
C1530 C1528 1.395 . S
C1530 C1533 1.403 . S
C1531 C1528 1.403 . S
C1531 C1532 1.524 1_455 S
C1531 C1535 1.400 . S
C1532 H1517 0.960 . S
C1532 H1518 0.960 1_655 S
C1532 H1519 0.960 . S
C1532 C1531 1.524 1_655 S
C1533 C1530 1.403 . S
C1533 C1534 1.392 . S
C1533 C1537 1.495 . S
C1534 C1533 1.392 . S
C1534 C1535 1.385 . S
C1534 C1536 1.478 . S
C1535 H1529 0.930 1_455 S
C1535 C1531 1.400 . S
C1535 C1534 1.385 . S
C1536 C1534 1.478 . S
C1536 C1538 1.381 . S
C1536 C1542 1.383 1_455 S
C1537 C1533 1.495 . S
C1537 H1543 0.959 . S
C1537 H1544 0.961 . S
C1537 H1545 0.960 . S
C1538 C1536 1.381 . S
C1538 C1539 1.394 . S
C1538 H1546 0.930 . S
C1539 C1538 1.394 . S
C1539 C1540 1.383 . S
C1539 H1547 0.929 . S
C1540 C1539 1.383 . S
C1540 C1541 1.377 1_455 S
C1541 H1525 0.930 . S
C1541 C1540 1.377 1_655 S
C1541 C1542 1.379 . S
C1542 H1526 0.931 . S
C1542 C1536 1.383 1_655 S
C1542 C1541 1.379 . S
H1543 C1537 0.959 . S
H1544 C1537 0.961 . S
H1545 C1537 0.960 . S
H1546 C1538 0.930 . S
H1547 C1539 0.929 . S
H1548 C1556 0.929 . S
H1549 C1558 0.930 . S
H1550 C1560 0.930 . S
H1551 C1563 0.929 . S
H1552 C1566 0.930 . S
H1553 C1568 0.960 . S
H1554 C1568 0.960 . S
H1555 C1568 0.960 . S
C1556 H1548 0.929 . S
C1556 C1557 1.377 . S
C1556 C1558 1.384 . S
C1557 C1556 1.377 . S
C1557 C1563 1.390 . S
C1558 H1549 0.930 . S
C1558 C1556 1.384 . S
C1558 C1559 1.372 . S
C1559 C1558 1.372 . S
C1559 C1560 1.400 . S
C1559 C1564 1.490 . S
C1560 H1550 0.930 . S
C1560 C1559 1.400 . S
C1560 C1563 1.386 . S
H1561 C1577 0.930 . S
H1562 C1578 0.931 . S
C1563 H1551 0.929 . S
C1563 C1557 1.390 . S
C1563 C1560 1.386 . S
C1564 C1559 1.490 . S
C1564 C1566 1.395 . S
C1564 C1567 1.403 . S
H1565 C1571 0.930 . S
C1566 H1552 0.930 . S
C1566 C1564 1.395 . S
C1566 C1569 1.403 . S
C1567 C1564 1.403 . S
C1567 C1568 1.524 . S
C1567 C1571 1.400 . S
C1568 H1553 0.960 . S
C1568 H1554 0.960 . S
C1568 H1555 0.960 . S
C1568 C1567 1.524 . S
C1569 C1566 1.403 . S
C1569 C1570 1.392 . S
C1569 C1573 1.495 . S
C1570 C1569 1.392 . S
C1570 C1571 1.385 . S
C1570 C1572 1.478 . S
C1571 H1565 0.930 . S
C1571 C1567 1.400 . S
C1571 C1570 1.385 . S
C1572 C1570 1.478 . S
C1572 C1574 1.381 . S
C1572 C1578 1.383 . S
C1573 C1569 1.495 . S
C1573 H1579 0.959 . S
C1573 H1580 0.961 . S
C1573 H1581 0.960 . S
C1574 C1572 1.381 . S
C1574 C1575 1.394 . S
C1574 H1582 0.930 . S
C1575 C1574 1.394 . S
C1575 C1576 1.383 . S
C1575 H1583 0.929 . S
C1576 C1575 1.383 . S
C1576 C1577 1.377 . S
C1577 H1561 0.930 . S
C1577 C1576 1.377 . S
C1577 C1578 1.379 . S
C1578 H1562 0.931 . S
C1578 C1572 1.383 . S
C1578 C1577 1.379 . S
H1579 C1573 0.959 . S
H1580 C1573 0.961 . S
H1581 C1573 0.960 . S
H1582 C1574 0.930 . S
H1583 C1575 0.929 . S
H1584 C1592 0.929 . S
H1585 C1594 0.930 . S
H1586 C1596 0.930 . S
H1587 C1599 0.929 . S
H1588 C1602 0.930 . S
H1589 C1604 0.960 . S
H1590 C1604 0.960 . S
H1591 C1604 0.960 . S
C1592 H1584 0.929 . S
C1592 C1593 1.377 . S
C1592 C1594 1.384 . S
C1593 C1592 1.377 . S
C1593 C1599 1.390 . S
C1594 H1585 0.930 . S
C1594 C1592 1.384 . S
C1594 C1595 1.372 . S
C1595 C1594 1.372 . S
C1595 C1596 1.400 . S
C1595 C1600 1.490 . S
C1596 H1586 0.930 . S
C1596 C1595 1.400 . S
C1596 C1599 1.386 . S
H1597 C1613 0.930 . S
H1598 C1614 0.931 . S
C1599 H1587 0.929 . S
C1599 C1593 1.390 . S
C1599 C1596 1.386 . S
C1600 C1595 1.490 . S
C1600 C1602 1.395 . S
C1600 C1603 1.403 . S
H1601 C1607 0.930 . S
C1602 H1588 0.930 . S
C1602 C1600 1.395 . S
C1602 C1605 1.403 . S
C1603 C1600 1.403 . S
C1603 C1604 1.524 . S
C1603 C1607 1.400 . S
C1604 H1589 0.960 . S
C1604 H1590 0.960 . S
C1604 H1591 0.960 . S
C1604 C1603 1.524 . S
C1605 C1602 1.403 . S
C1605 C1606 1.392 . S
C1605 C1609 1.495 . S
C1606 C1605 1.392 . S
C1606 C1607 1.385 . S
C1606 C1608 1.478 . S
C1607 H1601 0.930 . S
C1607 C1603 1.400 . S
C1607 C1606 1.385 . S
C1608 C1606 1.478 . S
C1608 C1610 1.381 . S
C1608 C1614 1.383 . S
C1609 C1605 1.495 . S
C1609 H1615 0.959 . S
C1609 H1616 0.961 . S
C1609 H1617 0.960 . S
C1610 C1608 1.381 . S
C1610 C1611 1.394 . S
C1610 H1618 0.930 . S
C1611 C1610 1.394 . S
C1611 C1612 1.383 . S
C1611 H1619 0.929 . S
C1612 C1611 1.383 . S
C1612 C1613 1.377 . S
C1613 H1597 0.930 . S
C1613 C1612 1.377 . S
C1613 C1614 1.379 . S
C1614 H1598 0.931 . S
C1614 C1608 1.383 . S
C1614 C1613 1.379 . S
H1615 C1609 0.959 . S
H1616 C1609 0.961 . S
H1617 C1609 0.960 . S
H1618 C1610 0.930 . S
H1619 C1611 0.929 . S
H1620 C1628 0.929 . S
H1621 C1630 0.930 . S
H1622 C1632 0.930 . S
H1623 C1635 0.929 . S
H1624 C1638 0.930 . S
H1625 C1640 0.960 1_565 S
H1626 C1640 0.960 . S
H1627 C1640 0.960 1_565 S
C1628 H1620 0.929 . S
C1628 C1629 1.377 . S
C1628 C1630 1.384 . S
C1629 C1628 1.377 . S
C1629 C1635 1.390 . S
C1630 H1621 0.930 . S
C1630 C1628 1.384 . S
C1630 C1631 1.372 . S
C1631 C1630 1.372 . S
C1631 C1632 1.400 . S
C1631 C1636 1.490 . S
C1632 H1622 0.930 . S
C1632 C1631 1.400 . S
C1632 C1635 1.386 . S
H1633 C1649 0.930 . S
H1634 C1650 0.931 1_565 S
C1635 H1623 0.929 . S
C1635 C1629 1.390 . S
C1635 C1632 1.386 . S
C1636 C1631 1.490 . S
C1636 C1638 1.395 . S
C1636 C1639 1.403 . S
H1637 C1643 0.930 . S
C1638 H1624 0.930 . S
C1638 C1636 1.395 . S
C1638 C1641 1.403 . S
C1639 C1636 1.403 . S
C1639 C1640 1.524 . S
C1639 C1643 1.400 . S
C1640 H1625 0.960 1_545 S
C1640 H1626 0.960 . S
C1640 H1627 0.960 1_545 S
C1640 C1639 1.524 . S
C1641 C1638 1.403 . S
C1641 C1642 1.392 . S
C1641 C1645 1.495 . S
C1642 C1641 1.392 . S
C1642 C1643 1.385 . S
C1642 C1644 1.478 . S
C1643 H1637 0.930 . S
C1643 C1639 1.400 . S
C1643 C1642 1.385 . S
C1644 C1642 1.478 . S
C1644 C1646 1.381 . S
C1644 C1650 1.383 . S
C1645 C1641 1.495 . S
C1645 H1651 0.959 . S
C1645 H1652 0.961 . S
C1645 H1653 0.960 . S
C1646 C1644 1.381 . S
C1646 C1647 1.394 . S
C1646 H1654 0.930 . S
C1647 C1646 1.394 . S
C1647 C1648 1.383 . S
C1647 H1655 0.929 . S
C1648 C1647 1.383 . S
C1648 C1649 1.377 1_545 S
C1649 H1633 0.930 . S
C1649 C1648 1.377 1_565 S
C1649 C1650 1.379 1_565 S
C1650 H1634 0.931 1_545 S
C1650 C1644 1.383 . S
C1650 C1649 1.379 1_545 S
H1651 C1645 0.959 . S
H1652 C1645 0.961 . S
H1653 C1645 0.960 . S
H1654 C1646 0.930 . S
H1655 C1647 0.929 . S
H1656 C1664 0.929 . S
H1657 C1666 0.930 . S
H1658 C1668 0.930 . S
H1659 C1671 0.929 . S
H1660 C1674 0.930 . S
H1661 C1676 0.960 . S
H1662 C1676 0.960 . S
H1663 C1676 0.960 . S
C1664 H1656 0.929 . S
C1664 C1665 1.377 . S
C1664 C1666 1.384 . S
C1665 C1664 1.377 . S
C1665 C1671 1.390 . S
C1666 H1657 0.930 . S
C1666 C1664 1.384 . S
C1666 C1667 1.372 . S
C1667 C1666 1.372 . S
C1667 C1668 1.400 . S
C1667 C1672 1.490 . S
C1668 H1658 0.930 . S
C1668 C1667 1.400 . S
C1668 C1671 1.386 . S
H1669 C1685 0.930 . S
H1670 C1686 0.931 . S
C1671 H1659 0.929 . S
C1671 C1665 1.390 . S
C1671 C1668 1.386 . S
C1672 C1667 1.490 . S
C1672 C1674 1.395 . S
C1672 C1675 1.403 . S
H1673 C1679 0.930 . S
C1674 H1660 0.930 . S
C1674 C1672 1.395 . S
C1674 C1677 1.403 . S
C1675 C1672 1.403 . S
C1675 C1676 1.524 1_455 S
C1675 C1679 1.400 . S
C1676 H1661 0.960 . S
C1676 H1662 0.960 . S
C1676 H1663 0.960 . S
C1676 C1675 1.524 1_655 S
C1677 C1674 1.403 . S
C1677 C1678 1.392 . S
C1677 C1681 1.495 . S
C1678 C1677 1.392 . S
C1678 C1679 1.385 . S
C1678 C1680 1.478 . S
C1679 H1673 0.930 . S
C1679 C1675 1.400 . S
C1679 C1678 1.385 . S
C1680 C1678 1.478 . S
C1680 C1682 1.381 . S
C1680 C1686 1.383 . S
C1681 C1677 1.495 . S
C1681 H1687 0.959 . S
C1681 H1688 0.961 . S
C1681 H1689 0.960 . S
C1682 C1680 1.381 . S
C1682 C1683 1.394 . S
C1682 H1690 0.930 . S
C1683 C1682 1.394 . S
C1683 C1684 1.383 . S
C1683 H1691 0.929 . S
C1684 C1683 1.383 . S
C1684 C1685 1.377 . S
C1685 H1669 0.930 . S
C1685 C1684 1.377 . S
C1685 C1686 1.379 . S
C1686 H1670 0.931 . S
C1686 C1680 1.383 . S
C1686 C1685 1.379 . S
H1687 C1681 0.959 . S
H1688 C1681 0.961 . S
H1689 C1681 0.960 . S
H1690 C1682 0.930 . S
H1691 C1683 0.929 . S
H1692 C1700 0.929 . S
H1693 C1702 0.930 . S
H1694 C1704 0.930 . S
H1695 C1707 0.929 . S
H1696 C1710 0.930 . S
H1697 C1712 0.960 . S
H1698 C1712 0.960 . S
H1699 C1712 0.960 . S
C1700 H1692 0.929 . S
C1700 C1701 1.377 . S
C1700 C1702 1.384 . S
C1701 C1700 1.377 . S
C1701 C1707 1.390 . S
C1702 H1693 0.930 . S
C1702 C1700 1.384 . S
C1702 C1703 1.372 . S
C1703 C1702 1.372 . S
C1703 C1704 1.400 . S
C1703 C1708 1.490 . S
C1704 H1694 0.930 . S
C1704 C1703 1.400 . S
C1704 C1707 1.386 . S
H1705 C1721 0.930 . S
H1706 C1722 0.931 . S
C1707 H1695 0.929 . S
C1707 C1701 1.390 . S
C1707 C1704 1.386 . S
C1708 C1703 1.490 . S
C1708 C1710 1.395 . S
C1708 C1711 1.403 . S
H1709 C1715 0.930 . S
C1710 H1696 0.930 . S
C1710 C1708 1.395 . S
C1710 C1713 1.403 . S
C1711 C1708 1.403 . S
C1711 C1712 1.524 . S
C1711 C1715 1.400 . S
C1712 H1697 0.960 . S
C1712 H1698 0.960 . S
C1712 H1699 0.960 . S
C1712 C1711 1.524 . S
C1713 C1710 1.403 . S
C1713 C1714 1.392 . S
C1713 C1717 1.495 . S
C1714 C1713 1.392 . S
C1714 C1715 1.385 . S
C1714 C1716 1.478 . S
C1715 H1709 0.930 . S
C1715 C1711 1.400 . S
C1715 C1714 1.385 . S
C1716 C1714 1.478 . S
C1716 C1718 1.381 . S
C1716 C1722 1.383 . S
C1717 C1713 1.495 . S
C1717 H1723 0.959 . S
C1717 H1724 0.961 . S
C1717 H1725 0.960 . S
C1718 C1716 1.381 . S
C1718 C1719 1.394 . S
C1718 H1726 0.930 . S
C1719 C1718 1.394 . S
C1719 C1720 1.383 . S
C1719 H1727 0.929 . S
C1720 C1719 1.383 . S
C1720 C1721 1.377 . S
C1721 H1705 0.930 . S
C1721 C1720 1.377 . S
C1721 C1722 1.379 . S
C1722 H1706 0.931 . S
C1722 C1716 1.383 . S
C1722 C1721 1.379 . S
H1723 C1717 0.959 . S
H1724 C1717 0.961 . S
H1725 C1717 0.960 . S
H1726 C1718 0.930 . S
H1727 C1719 0.929 . S
H1728 C1736 0.929 . S
H1729 C1738 0.930 1_565 S
H1730 C1740 0.930 . S
H1731 C1743 0.929 . S
H1732 C1746 0.930 1_565 S
H1733 C1748 0.960 . S
H1734 C1748 0.960 . S
H1735 C1748 0.960 . S
C1736 H1728 0.929 . S
C1736 C1737 1.377 1_565 S
C1736 C1738 1.384 1_565 S
C1737 C1736 1.377 1_545 S
C1737 C1743 1.390 . S
C1738 H1729 0.930 1_545 S
C1738 C1736 1.384 1_545 S
C1738 C1739 1.372 . S
C1739 C1738 1.372 . S
C1739 C1740 1.400 . S
C1739 C1744 1.490 . S
C1740 H1730 0.930 . S
C1740 C1739 1.400 . S
C1740 C1743 1.386 . S
H1741 C1757 0.930 . S
H1742 C1758 0.931 . S
C1743 H1731 0.929 . S
C1743 C1737 1.390 . S
C1743 C1740 1.386 . S
C1744 C1739 1.490 . S
C1744 C1746 1.395 . S
C1744 C1747 1.403 . S
H1745 C1751 0.930 . S
C1746 H1732 0.930 1_545 S
C1746 C1744 1.395 . S
C1746 C1749 1.403 . S
C1747 C1744 1.403 . S
C1747 C1748 1.524 . S
C1747 C1751 1.400 . S
C1748 H1733 0.960 . S
C1748 H1734 0.960 . S
C1748 H1735 0.960 . S
C1748 C1747 1.524 . S
C1749 C1746 1.403 . S
C1749 C1750 1.392 . S
C1749 C1753 1.495 1_545 S
C1750 C1749 1.392 . S
C1750 C1751 1.385 . S
C1750 C1752 1.478 . S
C1751 H1745 0.930 . S
C1751 C1747 1.400 . S
C1751 C1750 1.385 . S
C1752 C1750 1.478 . S
C1752 C1754 1.381 . S
C1752 C1758 1.383 . S
C1753 C1749 1.495 1_565 S
C1753 H1759 0.959 . S
C1753 H1760 0.961 . S
C1753 H1761 0.960 . S
C1754 C1752 1.381 . S
C1754 C1755 1.394 . S
C1754 H1762 0.930 . S
C1755 C1754 1.394 . S
C1755 C1756 1.383 . S
C1755 H1763 0.929 . S
C1756 C1755 1.383 . S
C1756 C1757 1.377 . S
C1757 H1741 0.930 . S
C1757 C1756 1.377 . S
C1757 C1758 1.379 . S
C1758 H1742 0.931 . S
C1758 C1752 1.383 . S
C1758 C1757 1.379 . S
H1759 C1753 0.959 . S
H1760 C1753 0.961 . S
H1761 C1753 0.960 . S
H1762 C1754 0.930 . S
H1763 C1755 0.929 . S
H1764 C1772 0.929 . S
H1765 C1774 0.930 . S
H1766 C1776 0.930 . S
H1767 C1779 0.929 . S
H1768 C1782 0.930 . S
H1769 C1784 0.960 . S
H1770 C1784 0.960 . S
H1771 C1784 0.960 . S
C1772 H1764 0.929 . S
C1772 C1773 1.377 1_655 S
C1772 C1774 1.384 . S
C1773 C1772 1.377 1_455 S
C1773 C1779 1.390 . S
C1774 H1765 0.930 . S
C1774 C1772 1.384 . S
C1774 C1775 1.372 1_655 S
C1775 C1774 1.372 1_455 S
C1775 C1776 1.400 . S
C1775 C1780 1.490 . S
C1776 H1766 0.930 . S
C1776 C1775 1.400 . S
C1776 C1779 1.386 . S
H1777 C1793 0.930 . S
H1778 C1794 0.931 . S
C1779 H1767 0.929 . S
C1779 C1773 1.390 . S
C1779 C1776 1.386 . S
C1780 C1775 1.490 . S
C1780 C1782 1.395 . S
C1780 C1783 1.403 . S
H1781 C1787 0.930 . S
C1782 H1768 0.930 . S
C1782 C1780 1.395 . S
C1782 C1785 1.403 . S
C1783 C1780 1.403 . S
C1783 C1784 1.524 . S
C1783 C1787 1.400 . S
C1784 H1769 0.960 . S
C1784 H1770 0.960 . S
C1784 H1771 0.960 . S
C1784 C1783 1.524 . S
C1785 C1782 1.403 . S
C1785 C1786 1.392 . S
C1785 C1789 1.495 . S
C1786 C1785 1.392 . S
C1786 C1787 1.385 . S
C1786 C1788 1.478 . S
C1787 H1781 0.930 . S
C1787 C1783 1.400 . S
C1787 C1786 1.385 . S
C1788 C1786 1.478 . S
C1788 C1790 1.381 . S
C1788 C1794 1.383 . S
C1789 C1785 1.495 . S
C1789 H1795 0.959 . S
C1789 H1796 0.961 . S
C1789 H1797 0.960 . S
C1790 C1788 1.381 . S
C1790 C1791 1.394 . S
C1790 H1798 0.930 . S
C1791 C1790 1.394 . S
C1791 C1792 1.383 . S
C1791 H1799 0.929 . S
C1792 C1791 1.383 . S
C1792 C1793 1.377 . S
C1793 H1777 0.930 . S
C1793 C1792 1.377 . S
C1793 C1794 1.379 . S
C1794 H1778 0.931 . S
C1794 C1788 1.383 . S
C1794 C1793 1.379 . S
H1795 C1789 0.959 . S
H1796 C1789 0.961 . S
H1797 C1789 0.960 . S
H1798 C1790 0.930 . S
H1799 C1791 0.929 . S
H1800 C1808 0.929 . S
H1801 C1810 0.930 . S
H1802 C1812 0.930 . S
H1803 C1815 0.929 . S
H1804 C1818 0.930 . S
H1805 C1820 0.960 . S
H1806 C1820 0.960 . S
H1807 C1820 0.960 . S
C1808 H1800 0.929 . S
C1808 C1809 1.377 . S
C1808 C1810 1.384 . S
C1809 C1808 1.377 . S
C1809 C1815 1.390 . S
C1810 H1801 0.930 . S
C1810 C1808 1.384 . S
C1810 C1811 1.372 . S
C1811 C1810 1.372 . S
C1811 C1812 1.400 . S
C1811 C1816 1.490 . S
C1812 H1802 0.930 . S
C1812 C1811 1.400 . S
C1812 C1815 1.386 . S
H1813 C1829 0.930 . S
H1814 C1830 0.931 . S
C1815 H1803 0.929 . S
C1815 C1809 1.390 . S
C1815 C1812 1.386 . S
C1816 C1811 1.490 . S
C1816 C1818 1.395 . S
C1816 C1819 1.403 . S
H1817 C1823 0.930 . S
C1818 H1804 0.930 . S
C1818 C1816 1.395 . S
C1818 C1821 1.403 1_554 S
C1819 C1816 1.403 . S
C1819 C1820 1.524 . S
C1819 C1823 1.400 1_554 S
C1820 H1805 0.960 . S
C1820 H1806 0.960 . S
C1820 H1807 0.960 . S
C1820 C1819 1.524 . S
C1821 C1818 1.403 1_556 S
C1821 C1822 1.392 . S
C1821 C1825 1.495 . S
C1822 C1821 1.392 . S
C1822 C1823 1.385 . S
C1822 C1824 1.478 . S
C1823 H1817 0.930 . S
C1823 C1819 1.400 1_556 S
C1823 C1822 1.385 . S
C1824 C1822 1.478 . S
C1824 C1826 1.381 . S
C1824 C1830 1.383 . S
C1825 C1821 1.495 . S
C1825 H1831 0.959 . S
C1825 H1832 0.961 . S
C1825 H1833 0.960 . S
C1826 C1824 1.381 . S
C1826 C1827 1.394 . S
C1826 H1834 0.930 . S
C1827 C1826 1.394 . S
C1827 C1828 1.383 . S
C1827 H1835 0.929 . S
C1828 C1827 1.383 . S
C1828 C1829 1.377 . S
C1829 H1813 0.930 . S
C1829 C1828 1.377 . S
C1829 C1830 1.379 . S
C1830 H1814 0.931 . S
C1830 C1824 1.383 . S
C1830 C1829 1.379 . S
H1831 C1825 0.959 . S
H1832 C1825 0.961 . S
H1833 C1825 0.960 . S
H1834 C1826 0.930 . S
H1835 C1827 0.929 . S
H1836 C1844 0.929 . S
H1837 C1846 0.930 . S
H1838 C1848 0.930 . S
H1839 C1851 0.929 . S
H1840 C1854 0.930 . S
H1841 C1856 0.960 . S
H1842 C1856 0.960 . S
H1843 C1856 0.960 . S
C1844 H1836 0.929 . S
C1844 C1845 1.377 . S
C1844 C1846 1.384 . S
C1845 C1844 1.377 . S
C1845 C1851 1.390 . S
C1846 H1837 0.930 . S
C1846 C1844 1.384 . S
C1846 C1847 1.372 . S
C1847 C1846 1.372 . S
C1847 C1848 1.400 . S
C1847 C1852 1.490 . S
C1848 H1838 0.930 . S
C1848 C1847 1.400 . S
C1848 C1851 1.386 . S
H1849 C1865 0.930 . S
H1850 C1866 0.931 . S
C1851 H1839 0.929 . S
C1851 C1845 1.390 . S
C1851 C1848 1.386 . S
C1852 C1847 1.490 . S
C1852 C1854 1.395 . S
C1852 C1855 1.403 . S
H1853 C1859 0.930 . S
C1854 H1840 0.930 . S
C1854 C1852 1.395 . S
C1854 C1857 1.403 1_556 S
C1855 C1852 1.403 . S
C1855 C1856 1.524 . S
C1855 C1859 1.400 1_556 S
C1856 H1841 0.960 . S
C1856 H1842 0.960 . S
C1856 H1843 0.960 . S
C1856 C1855 1.524 . S
C1857 C1854 1.403 1_554 S
C1857 C1858 1.392 . S
C1857 C1861 1.495 . S
C1858 C1857 1.392 . S
C1858 C1859 1.385 . S
C1858 C1860 1.478 . S
C1859 H1853 0.930 . S
C1859 C1855 1.400 1_554 S
C1859 C1858 1.385 . S
C1860 C1858 1.478 . S
C1860 C1862 1.381 . S
C1860 C1866 1.383 . S
C1861 C1857 1.495 . S
C1861 H1867 0.959 . S
C1861 H1868 0.961 . S
C1861 H1869 0.960 . S
C1862 C1860 1.381 . S
C1862 C1863 1.394 . S
C1862 H1870 0.930 . S
C1863 C1862 1.394 . S
C1863 C1864 1.383 . S
C1863 H1871 0.929 . S
C1864 C1863 1.383 . S
C1864 C1865 1.377 . S
C1865 H1849 0.930 . S
C1865 C1864 1.377 . S
C1865 C1866 1.379 . S
C1866 H1850 0.931 . S
C1866 C1860 1.383 . S
C1866 C1865 1.379 . S
H1867 C1861 0.959 . S
H1868 C1861 0.961 . S
H1869 C1861 0.960 . S
H1870 C1862 0.930 . S
H1871 C1863 0.929 . S
H1872 C1880 0.929 . S
H1873 C1882 0.930 . S
H1874 C1884 0.930 . S
H1875 C1887 0.929 . S
H1876 C1890 0.930 . S
H1877 C1892 0.960 . S
H1878 C1892 0.960 . S
H1879 C1892 0.960 . S
C1880 H1872 0.929 . S
C1880 C1881 1.377 . S
C1880 C1882 1.384 . S
C1881 C1880 1.377 . S
C1881 C1887 1.390 . S
C1882 H1873 0.930 . S
C1882 C1880 1.384 . S
C1882 C1883 1.372 . S
C1883 C1882 1.372 . S
C1883 C1884 1.400 . S
C1883 C1888 1.490 . S
C1884 H1874 0.930 . S
C1884 C1883 1.400 . S
C1884 C1887 1.386 . S
H1885 C1901 0.982 . S
H1886 C1902 0.931 . S
C1887 H1875 0.929 . S
C1887 C1881 1.390 . S
C1887 C1884 1.386 . S
C1888 C1883 1.490 . S
C1888 C1890 1.395 . S
C1888 C1891 1.403 . S
H1889 C1895 0.930 . S
C1890 H1876 0.930 . S
C1890 C1888 1.395 . S
C1890 C1893 1.403 1_556 S
C1891 C1888 1.403 . S
C1891 C1892 1.524 . S
C1891 C1895 1.400 1_556 S
C1892 H1877 0.960 . S
C1892 H1878 0.960 . S
C1892 H1879 0.960 . S
C1892 C1891 1.524 . S
C1893 C1890 1.403 1_554 S
C1893 C1894 1.392 . S
C1893 C1897 1.495 . S
C1894 C1893 1.392 . S
C1894 C1895 1.385 . S
C1894 C1896 1.478 . S
C1895 H1889 0.930 . S
C1895 C1891 1.400 1_554 S
C1895 C1894 1.385 . S
C1896 C1894 1.478 . S
C1896 C1898 1.381 . S
C1896 C1902 1.383 . S
C1897 C1893 1.495 . S
C1897 H1903 0.959 . S
C1897 H1904 0.961 . S
C1897 H1905 0.960 . S
C1898 C1896 1.381 . S
C1898 C1899 1.394 . S
C1898 H1906 0.930 . S
C1899 C1898 1.394 . S
C1899 C1900 1.383 . S
C1899 H1907 0.929 . S
C1900 C1899 1.383 . S
C1900 C1901 1.377 . S
C1901 H1885 0.982 . S
C1901 C1900 1.377 . S
C1901 C1902 1.379 . S
C1902 H1886 0.931 . S
C1902 C1896 1.383 . S
C1902 C1901 1.379 . S
H1903 C1897 0.959 . S
H1904 C1897 0.961 . S
H1905 C1897 0.960 . S
H1906 C1898 0.930 . S
H1907 C1899 0.929 . S
H1908 C1916 0.929 . S
H1909 C1918 0.930 . S
H1910 C1920 0.934 . S
H1911 C1923 0.929 1_655 S
H1912 C1926 0.930 . S
H1913 C1928 0.960 . S
H1914 C1928 0.932 1_455 S
H1915 C1928 0.960 . S
C1916 H1908 0.929 . S
C1916 C1917 1.377 . S
C1916 C1918 1.384 . S
C1917 C1916 1.377 . S
C1917 C1923 1.390 . S
C1918 H1909 0.930 . S
C1918 C1916 1.384 . S
C1918 C1919 1.372 . S
C1919 C1918 1.372 . S
C1919 C1920 1.400 . S
C1919 C1924 1.490 . S
C1920 H1910 0.934 . S
C1920 C1919 1.400 . S
C1920 C1923 1.386 . S
H1921 C1937 0.930 . S
H1922 C1938 0.931 . S
C1923 H1911 0.929 1_455 S
C1923 C1917 1.390 . S
C1923 C1920 1.386 . S
C1924 C1919 1.490 . S
C1924 C1926 1.395 . S
C1924 C1927 1.403 . S
H1925 C1931 0.930 . S
C1926 H1912 0.930 . S
C1926 C1924 1.395 . S
C1926 C1929 1.403 1_556 S
C1927 C1924 1.403 . S
C1927 C1928 1.524 1_455 S
C1927 C1931 1.400 1_556 S
C1928 H1913 0.960 . S
C1928 H1914 0.932 1_655 S
C1928 H1915 0.960 . S
C1928 C1927 1.524 1_655 S
C1929 C1926 1.403 1_554 S
C1929 C1930 1.392 . S
C1929 C1933 1.495 . S
C1930 C1929 1.392 . S
C1930 C1931 1.385 . S
C1930 C1932 1.478 . S
C1931 H1925 0.930 . S
C1931 C1927 1.400 1_554 S
C1931 C1930 1.385 . S
C1932 C1930 1.478 . S
C1932 C1934 1.381 . S
C1932 C1938 1.383 . S
C1933 C1929 1.495 . S
C1933 H1939 0.959 . S
C1933 H1940 0.961 . S
C1933 H1941 0.960 . S
C1934 C1932 1.381 . S
C1934 C1935 1.394 . S
C1934 H1942 0.930 . S
C1935 C1934 1.394 . S
C1935 C1936 1.383 . S
C1935 H1943 0.929 . S
C1936 C1935 1.383 . S
C1936 C1937 1.377 . S
C1937 H1921 0.930 . S
C1937 C1936 1.377 . S
C1937 C1938 1.379 . S
C1938 H1922 0.931 . S
C1938 C1932 1.383 . S
C1938 C1937 1.379 . S
H1939 C1933 0.959 . S
H1940 C1933 0.961 . S
H1941 C1933 0.960 . S
H1942 C1934 0.930 . S
H1943 C1935 0.929 . S
H1944 C1952 0.929 . S
H1945 C1954 0.930 . S
H1946 C1956 0.930 . S
H1947 C1959 0.929 . S
H1948 C1962 0.930 . S
H1949 C1964 0.960 . S
H1950 C1964 0.960 . S
H1951 C1964 0.960 . S
C1952 H1944 0.929 . S
C1952 C1953 1.377 . S
C1952 C1954 1.384 . S
C1953 C1952 1.377 . S
C1953 C1959 1.390 . S
C1954 H1945 0.930 . S
C1954 C1952 1.384 . S
C1954 C1955 1.372 . S
C1955 C1954 1.372 . S
C1955 C1956 1.400 . S
C1955 C1960 1.490 . S
C1956 H1946 0.930 . S
C1956 C1955 1.400 . S
C1956 C1959 1.386 . S
H1957 C1973 0.930 . S
H1958 C1974 0.931 . S
C1959 H1947 0.929 . S
C1959 C1953 1.390 . S
C1959 C1956 1.386 . S
C1960 C1955 1.490 . S
C1960 C1962 1.395 . S
C1960 C1963 1.403 . S
H1961 C1967 0.930 . S
C1962 H1948 0.930 . S
C1962 C1960 1.395 . S
C1962 C1965 1.403 1_554 S
C1963 C1960 1.403 . S
C1963 C1964 1.524 . S
C1963 C1967 1.400 1_554 S
C1964 H1949 0.960 . S
C1964 H1950 0.960 . S
C1964 H1951 0.960 . S
C1964 C1963 1.524 . S
C1965 C1962 1.403 1_556 S
C1965 C1966 1.392 . S
C1965 C1969 1.495 . S
C1966 C1965 1.392 . S
C1966 C1967 1.385 . S
C1966 C1968 1.478 . S
C1967 H1961 0.930 . S
C1967 C1963 1.400 1_556 S
C1967 C1966 1.385 . S
C1968 C1966 1.478 . S
C1968 C1970 1.381 . S
C1968 C1974 1.383 . S
C1969 C1965 1.495 . S
C1969 H1975 0.959 . S
C1969 H1976 0.961 . S
C1969 H1977 0.960 . S
C1970 C1968 1.381 . S
C1970 C1971 1.394 . S
C1970 H1978 0.930 . S
C1971 C1970 1.394 . S
C1971 C1972 1.383 . S
C1971 H1979 0.929 . S
C1972 C1971 1.383 . S
C1972 C1973 1.377 . S
C1973 H1957 0.930 . S
C1973 C1972 1.377 . S
C1973 C1974 1.379 . S
C1974 H1958 0.931 . S
C1974 C1968 1.383 . S
C1974 C1973 1.379 . S
H1975 C1969 0.959 . S
H1976 C1969 0.961 . S
H1977 C1969 0.960 . S
H1978 C1970 0.930 . S
H1979 C1971 0.929 . S
H1980 C1988 0.929 . S
H1981 C1990 0.930 . S
H1982 C1992 0.930 . S
H1983 C1995 0.929 . S
H1984 C1998 0.930 1_565 S
H1985 C2000 0.960 . S
H1986 C2000 0.960 . S
H1987 C2000 0.960 . S
C1988 H1980 0.929 . S
C1988 C1989 1.377 . S
C1988 C1990 1.384 . S
C1989 C1988 1.377 . S
C1989 C1995 1.390 . S
C1990 H1981 0.930 . S
C1990 C1988 1.384 . S
C1990 C1991 1.372 . S
C1991 C1990 1.372 . S
C1991 C1992 1.400 . S
C1991 C1996 1.490 . S
C1992 H1982 0.930 . S
C1992 C1991 1.400 . S
C1992 C1995 1.386 . S
H1993 C2009 0.930 . S
H1994 C2010 0.931 . S
C1995 H1983 0.929 . S
C1995 C1989 1.390 . S
C1995 C1992 1.386 . S
C1996 C1991 1.490 . S
C1996 C1998 1.395 . S
C1996 C1999 1.403 . S
H1997 C2003 0.930 . S
C1998 H1984 0.930 1_545 S
C1998 C1996 1.395 . S
C1998 C2001 1.403 1_556 S
C1999 C1996 1.403 . S
C1999 C2000 1.524 . S
C1999 C2003 1.400 1_556 S
C2000 H1985 0.960 . S
C2000 H1986 0.960 . S
C2000 H1987 0.960 . S
C2000 C1999 1.524 . S
C2001 C1998 1.403 1_554 S
C2001 C2002 1.392 . S
C2001 C2005 1.495 1_545 S
C2002 C2001 1.392 . S
C2002 C2003 1.385 . S
C2002 C2004 1.478 . S
C2003 H1997 0.930 . S
C2003 C1999 1.400 1_554 S
C2003 C2002 1.385 . S
C2004 C2002 1.478 . S
C2004 C2006 1.381 . S
C2004 C2010 1.383 . S
C2005 C2001 1.495 1_565 S
C2005 H2011 0.959 . S
C2005 H2012 0.961 . S
C2005 H2013 0.960 . S
C2006 C2004 1.381 . S
C2006 C2007 1.394 . S
C2006 H2014 0.930 . S
C2007 C2006 1.394 . S
C2007 C2008 1.383 . S
C2007 H2015 0.929 . S
C2008 C2007 1.383 . S
C2008 C2009 1.377 . S
C2009 H1993 0.930 . S
C2009 C2008 1.377 . S
C2009 C2010 1.379 . S
C2010 H1994 0.931 . S
C2010 C2004 1.383 . S
C2010 C2009 1.379 . S
H2011 C2005 0.959 . S
H2012 C2005 0.961 . S
H2013 C2005 0.960 . S
H2014 C2006 0.930 . S
H2015 C2007 0.929 . S
H2016 C2024 0.929 . S
H2017 C2026 0.930 . S
H2018 C2028 0.930 . S
H2019 C2031 0.929 . S
H2020 C2034 0.930 . S
H2021 C2036 0.960 . S
H2022 C2036 0.960 . S
H2023 C2036 0.960 . S
C2024 H2016 0.929 . S
C2024 C2025 1.377 . S
C2024 C2026 1.384 . S
C2025 C2024 1.377 . S
C2025 C2031 1.390 . S
C2026 H2017 0.930 . S
C2026 C2024 1.384 . S
C2026 C2027 1.372 . S
C2027 C2026 1.372 . S
C2027 C2028 1.400 . S
C2027 C2032 1.490 . S
C2028 H2018 0.930 . S
C2028 C2027 1.400 . S
C2028 C2031 1.386 . S
H2029 C2045 0.930 . S
H2030 C2046 0.931 . S
C2031 H2019 0.929 . S
C2031 C2025 1.390 . S
C2031 C2028 1.386 . S
C2032 C2027 1.490 . S
C2032 C2034 1.395 . S
C2032 C2035 1.403 . S
H2033 C2039 0.930 . S
C2034 H2020 0.930 . S
C2034 C2032 1.395 . S
C2034 C2037 1.403 . S
C2035 C2032 1.403 . S
C2035 C2036 1.524 . S
C2035 C2039 1.400 . S
C2036 H2021 0.960 . S
C2036 H2022 0.960 . S
C2036 H2023 0.960 . S
C2036 C2035 1.524 . S
C2037 C2034 1.403 . S
C2037 C2038 1.392 . S
C2037 C2041 1.495 . S
C2038 C2037 1.392 . S
C2038 C2039 1.385 . S
C2038 C2040 1.478 . S
C2039 H2033 0.930 . S
C2039 C2035 1.400 . S
C2039 C2038 1.385 . S
C2040 C2038 1.478 . S
C2040 C2042 1.381 . S
C2040 C2046 1.383 . S
C2041 C2037 1.495 . S
C2041 H2047 0.959 . S
C2041 H2048 0.961 . S
C2041 H2049 0.960 . S
C2042 C2040 1.381 . S
C2042 C2043 1.394 . S
C2042 H2050 0.930 . S
C2043 C2042 1.394 . S
C2043 C2044 1.383 . S
C2043 H2051 0.929 . S
C2044 C2043 1.383 . S
C2044 C2045 1.377 . S
C2045 H2029 0.930 . S
C2045 C2044 1.377 . S
C2045 C2046 1.379 . S
C2046 H2030 0.931 . S
C2046 C2040 1.383 . S
C2046 C2045 1.379 . S
H2047 C2041 0.959 . S
H2048 C2041 0.961 . S
H2049 C2041 0.960 . S
H2050 C2042 0.930 . S
H2051 C2043 0.929 . S
H2052 C2060 0.929 . S
H2053 C2062 0.930 . S
H2054 C2064 0.930 . S
H2055 C2067 0.929 . S
H2056 C2070 0.930 . S
H2057 C2072 0.960 . S
H2058 C2072 0.960 . S
H2059 C2072 0.960 . S
C2060 H2052 0.929 . S
C2060 C2061 1.377 . S
C2060 C2062 1.384 . S
C2061 C2060 1.377 . S
C2061 C2067 1.390 . S
C2062 H2053 0.930 . S
C2062 C2060 1.384 . S
C2062 C2063 1.372 . S
C2063 C2062 1.372 . S
C2063 C2064 1.400 . S
C2063 C2068 1.490 . S
C2064 H2054 0.930 . S
C2064 C2063 1.400 . S
C2064 C2067 1.386 . S
H2065 C2081 0.930 . S
H2066 C2082 0.931 . S
C2067 H2055 0.929 . S
C2067 C2061 1.390 . S
C2067 C2064 1.386 . S
C2068 C2063 1.490 . S
C2068 C2070 1.395 . S
C2068 C2071 1.403 . S
H2069 C2075 0.930 . S
C2070 H2056 0.930 . S
C2070 C2068 1.395 . S
C2070 C2073 1.403 . S
C2071 C2068 1.403 . S
C2071 C2072 1.524 . S
C2071 C2075 1.400 . S
C2072 H2057 0.960 . S
C2072 H2058 0.960 . S
C2072 H2059 0.960 . S
C2072 C2071 1.524 . S
C2073 C2070 1.403 . S
C2073 C2074 1.392 . S
C2073 C2077 1.495 . S
C2074 C2073 1.392 . S
C2074 C2075 1.385 . S
C2074 C2076 1.478 . S
C2075 H2069 0.930 . S
C2075 C2071 1.400 . S
C2075 C2074 1.385 . S
C2076 C2074 1.478 . S
C2076 C2078 1.381 . S
C2076 C2082 1.383 . S
C2077 C2073 1.495 . S
C2077 H2083 0.959 . S
C2077 H2084 0.961 . S
C2077 H2085 0.960 . S
C2078 C2076 1.381 . S
C2078 C2079 1.394 . S
C2078 H2086 0.930 . S
C2079 C2078 1.394 . S
C2079 C2080 1.383 . S
C2079 H2087 0.929 . S
C2080 C2079 1.383 . S
C2080 C2081 1.377 . S
C2081 H2065 0.930 . S
C2081 C2080 1.377 . S
C2081 C2082 1.379 . S
C2082 H2066 0.931 . S
C2082 C2076 1.383 . S
C2082 C2081 1.379 . S
H2083 C2077 0.959 . S
H2084 C2077 0.961 . S
H2085 C2077 0.960 . S
H2086 C2078 0.930 . S
H2087 C2079 0.929 . S
H2088 C2096 0.929 . S
H2089 C2098 0.930 . S
H2090 C2100 0.930 . S
H2091 C2103 0.929 . S
H2092 C2106 0.930 . S
H2093 C2108 0.960 . S
H2094 C2108 0.960 . S
H2095 C2108 0.960 . S
C2096 H2088 0.929 . S
C2096 C2097 1.377 . S
C2096 C2098 1.384 . S
C2097 C2096 1.377 . S
C2097 C2103 1.390 . S
C2098 H2089 0.930 . S
C2098 C2096 1.384 . S
C2098 C2099 1.372 . S
C2099 C2098 1.372 . S
C2099 C2100 1.400 . S
C2099 C2104 1.490 . S
C2100 H2090 0.930 . S
C2100 C2099 1.400 . S
C2100 C2103 1.386 . S
H2101 C2117 0.930 . S
H2102 C2118 0.931 . S
C2103 H2091 0.929 . S
C2103 C2097 1.390 . S
C2103 C2100 1.386 . S
C2104 C2099 1.490 . S
C2104 C2106 1.395 . S
C2104 C2107 1.403 1_655 S
H2105 C2111 0.930 . S
C2106 H2092 0.930 . S
C2106 C2104 1.395 . S
C2106 C2109 1.403 . S
C2107 C2104 1.403 1_455 S
C2107 C2108 1.524 . S
C2107 C2111 1.400 . S
C2108 H2093 0.960 . S
C2108 H2094 0.960 . S
C2108 H2095 0.960 . S
C2108 C2107 1.524 . S
C2109 C2106 1.403 . S
C2109 C2110 1.392 . S
C2109 C2113 1.495 . S
C2110 C2109 1.392 . S
C2110 C2111 1.385 1_655 S
C2110 C2112 1.478 . S
C2111 H2105 0.930 . S
C2111 C2107 1.400 . S
C2111 C2110 1.385 1_455 S
C2112 C2110 1.478 . S
C2112 C2114 1.381 . S
C2112 C2118 1.383 . S
C2113 C2109 1.495 . S
C2113 H2119 0.959 . S
C2113 H2120 0.961 . S
C2113 H2121 0.960 . S
C2114 C2112 1.381 . S
C2114 C2115 1.394 . S
C2114 H2122 0.930 . S
C2115 C2114 1.394 . S
C2115 C2116 1.383 . S
C2115 H2123 0.965 . S
C2116 C2115 1.383 . S
C2116 C2117 1.377 . S
C2117 H2101 0.930 . S
C2117 C2116 1.377 . S
C2117 C2118 1.379 . S
C2118 H2102 0.931 . S
C2118 C2112 1.383 . S
C2118 C2117 1.379 . S
H2119 C2113 0.959 . S
H2120 C2113 0.961 . S
H2121 C2113 0.960 . S
H2122 C2114 0.930 . S
H2123 C2115 0.965 . S
H2124 C2132 0.929 . S
H2125 C2134 0.930 . S
H2126 C2136 0.930 . S
H2127 C2139 0.929 . S
H2128 C2142 0.930 . S
H2129 C2144 0.960 . S
H2130 C2144 0.960 . S
H2131 C2144 0.960 . S
C2132 H2124 0.929 . S
C2132 C2133 1.377 . S
C2132 C2134 1.384 . S
C2133 C2132 1.377 . S
C2133 C2139 1.390 . S
C2134 H2125 0.930 . S
C2134 C2132 1.384 . S
C2134 C2135 1.372 . S
C2135 C2134 1.372 . S
C2135 C2136 1.400 . S
C2135 C2140 1.490 . S
C2136 H2126 0.930 . S
C2136 C2135 1.400 . S
C2136 C2139 1.386 . S
H2137 C2153 0.930 . S
H2138 C2154 0.931 . S
C2139 H2127 0.929 . S
C2139 C2133 1.390 . S
C2139 C2136 1.386 . S
C2140 C2135 1.490 . S
C2140 C2142 1.395 . S
C2140 C2143 1.403 . S
H2141 C2147 0.930 . S
C2142 H2128 0.930 . S
C2142 C2140 1.395 . S
C2142 C2145 1.403 . S
C2143 C2140 1.403 . S
C2143 C2144 1.524 . S
C2143 C2147 1.400 . S
C2144 H2129 0.960 . S
C2144 H2130 0.960 . S
C2144 H2131 0.960 . S
C2144 C2143 1.524 . S
C2145 C2142 1.403 . S
C2145 C2146 1.392 . S
C2145 C2149 1.495 . S
C2146 C2145 1.392 . S
C2146 C2147 1.385 . S
C2146 C2148 1.478 . S
C2147 H2141 0.930 . S
C2147 C2143 1.400 . S
C2147 C2146 1.385 . S
C2148 C2146 1.478 . S
C2148 C2150 1.381 . S
C2148 C2154 1.383 . S
C2149 C2145 1.495 . S
C2149 H2155 0.959 . S
C2149 H2156 0.961 . S
C2149 H2157 0.960 . S
C2150 C2148 1.381 . S
C2150 C2151 1.394 . S
C2150 H2158 0.930 . S
C2151 C2150 1.394 . S
C2151 C2152 1.383 . S
C2151 H2159 0.929 . S
C2152 C2151 1.383 . S
C2152 C2153 1.377 . S
C2153 H2137 0.930 . S
C2153 C2152 1.377 . S
C2153 C2154 1.379 . S
C2154 H2138 0.931 . S
C2154 C2148 1.383 . S
C2154 C2153 1.379 . S
H2155 C2149 0.959 . S
H2156 C2149 0.961 . S
H2157 C2149 0.960 . S
H2158 C2150 0.930 . S
H2159 C2151 0.929 . S
H2160 C2168 0.929 . S
H2161 C2170 0.930 . S
H2162 C2172 0.930 . S
H2163 C2175 0.929 . S
H2164 C2178 0.930 . S
H2165 C2180 0.960 . S
H2166 C2180 0.960 . S
H2167 C2180 0.960 . S
C2168 H2160 0.929 . S
C2168 C2169 1.377 . S
C2168 C2170 1.384 . S
C2169 C2168 1.377 . S
C2169 C2175 1.390 1_655 S
C2170 H2161 0.930 . S
C2170 C2168 1.384 . S
C2170 C2171 1.372 . S
C2171 C2170 1.372 . S
C2171 C2172 1.400 1_655 S
C2171 C2176 1.490 . S
C2172 H2162 0.930 . S
C2172 C2171 1.400 1_455 S
C2172 C2175 1.386 . S
H2173 C2189 0.930 . S
H2174 C2190 0.931 . S
C2175 H2163 0.929 . S
C2175 C2169 1.390 1_455 S
C2175 C2172 1.386 . S
C2176 C2171 1.490 . S
C2176 C2178 1.395 . S
C2176 C2179 1.403 . S
H2177 C2183 0.930 . S
C2178 H2164 0.930 . S
C2178 C2176 1.395 . S
C2178 C2181 1.403 . S
C2179 C2176 1.403 . S
C2179 C2180 1.524 . S
C2179 C2183 1.400 . S
C2180 H2165 0.960 . S
C2180 H2166 0.960 . S
C2180 H2167 0.960 . S
C2180 C2179 1.524 . S
C2181 C2178 1.403 . S
C2181 C2182 1.392 . S
C2181 C2185 1.495 . S
C2182 C2181 1.392 . S
C2182 C2183 1.385 . S
C2182 C2184 1.478 . S
C2183 H2177 0.930 . S
C2183 C2179 1.400 . S
C2183 C2182 1.385 . S
C2184 C2182 1.478 . S
C2184 C2186 1.381 . S
C2184 C2190 1.383 1_655 S
C2185 C2181 1.495 . S
C2185 H2191 0.959 . S
C2185 H2192 0.961 1_655 S
C2185 H2193 0.960 . S
C2186 C2184 1.381 . S
C2186 C2187 1.394 . S
C2186 H2194 0.930 . S
C2187 C2186 1.394 . S
C2187 C2188 1.383 . S
C2187 H2195 0.929 . S
C2188 C2187 1.383 . S
C2188 C2189 1.377 1_655 S
C2189 H2173 0.930 . S
C2189 C2188 1.377 1_455 S
C2189 C2190 1.379 . S
C2190 H2174 0.931 . S
C2190 C2184 1.383 1_455 S
C2190 C2189 1.379 . S
H2191 C2185 0.959 . S
H2192 C2185 0.961 1_455 S
H2193 C2185 0.960 . S
H2194 C2186 0.930 . S
H2195 C2187 0.929 . S
H2196 C2204 0.929 . S
H2197 C2206 0.930 . S
H2198 C2208 0.930 . S
H2199 C2211 0.929 . S
H2200 C2214 0.930 . S
H2201 C2216 0.960 . S
H2202 C2216 0.960 . S
H2203 C2216 0.960 . S
C2204 H2196 0.929 . S
C2204 C2205 1.377 . S
C2204 C2206 1.384 . S
C2205 C2204 1.377 . S
C2205 C2211 1.390 . S
C2206 H2197 0.930 . S
C2206 C2204 1.384 . S
C2206 C2207 1.372 . S
C2207 C2206 1.372 . S
C2207 C2208 1.400 . S
C2207 C2212 1.490 . S
C2208 H2198 0.930 . S
C2208 C2207 1.400 . S
C2208 C2211 1.386 . S
H2209 C2225 0.930 . S
H2210 C2226 0.931 . S
C2211 H2199 0.929 . S
C2211 C2205 1.390 . S
C2211 C2208 1.386 . S
C2212 C2207 1.490 . S
C2212 C2214 1.395 . S
C2212 C2215 1.403 . S
H2213 C2219 0.930 . S
C2214 H2200 0.930 . S
C2214 C2212 1.395 . S
C2214 C2217 1.403 . S
C2215 C2212 1.403 . S
C2215 C2216 1.524 . S
C2215 C2219 1.400 . S
C2216 H2201 0.960 . S
C2216 H2202 0.960 . S
C2216 H2203 0.960 . S
C2216 C2215 1.524 . S
C2217 C2214 1.403 . S
C2217 C2218 1.392 . S
C2217 C2221 1.495 . S
C2218 C2217 1.392 . S
C2218 C2219 1.385 . S
C2218 C2220 1.478 . S
C2219 H2213 0.930 . S
C2219 C2215 1.400 . S
C2219 C2218 1.385 . S
C2220 C2218 1.478 . S
C2220 C2222 1.381 . S
C2220 C2226 1.383 . S
C2221 C2217 1.495 . S
C2221 H2227 0.959 . S
C2221 H2228 0.961 . S
C2221 H2229 0.960 . S
C2222 C2220 1.381 . S
C2222 C2223 1.394 . S
C2222 H2230 0.930 . S
C2223 C2222 1.394 . S
C2223 C2224 1.383 . S
C2223 H2231 0.929 . S
C2224 C2223 1.383 . S
C2224 C2225 1.377 . S
C2225 H2209 0.930 . S
C2225 C2224 1.377 . S
C2225 C2226 1.379 . S
C2226 H2210 0.931 . S
C2226 C2220 1.383 . S
C2226 C2225 1.379 . S
H2227 C2221 0.959 . S
H2228 C2221 0.961 . S
H2229 C2221 0.960 . S
H2230 C2222 0.930 . S
H2231 C2223 0.929 . S
H2232 C2240 0.929 . S
H2233 C2242 0.930 . S
H2234 C2244 0.930 . S
H2235 C2247 0.929 . S
H2236 C2250 0.930 . S
H2237 C2252 0.960 . S
H2238 C2252 0.960 . S
H2239 C2252 0.971 . S
C2240 H2232 0.929 . S
C2240 C2241 1.377 1_545 S
C2240 C2242 1.384 . S
C2241 C2240 1.377 1_565 S
C2241 C2247 1.390 . S
C2242 H2233 0.930 . S
C2242 C2240 1.384 . S
C2242 C2243 1.372 1_545 S
C2243 C2242 1.372 1_565 S
C2243 C2244 1.400 . S
C2243 C2248 1.490 . S
C2244 H2234 0.930 . S
C2244 C2243 1.400 . S
C2244 C2247 1.386 . S
H2245 C2261 0.930 . S
H2246 C2262 0.931 . S
C2247 H2235 0.929 . S
C2247 C2241 1.390 . S
C2247 C2244 1.386 . S
C2248 C2243 1.490 . S
C2248 C2250 1.395 . S
C2248 C2251 1.432 . S
H2249 C2255 0.930 1_545 S
C2250 H2236 0.930 . S
C2250 C2248 1.395 . S
C2250 C2253 1.403 . S
C2251 C2248 1.432 . S
C2251 C2252 1.491 1_565 S
C2251 C2255 1.404 . S
C2252 H2237 0.960 . S
C2252 H2238 0.960 . S
C2252 H2239 0.971 . S
C2252 C2251 1.491 1_545 S
C2253 C2250 1.403 . S
C2253 C2254 1.392 . S
C2253 C2257 1.495 . S
C2254 C2253 1.392 . S
C2254 C2255 1.385 . S
C2254 C2256 1.478 . S
C2255 H2249 0.930 1_565 S
C2255 C2251 1.404 . S
C2255 C2254 1.385 . S
C2256 C2254 1.478 . S
C2256 C2258 1.378 1_565 S
C2256 C2262 1.383 . S
C2257 C2253 1.495 . S
C2257 H2263 0.959 . S
C2257 H2264 0.961 . S
C2257 H2265 0.960 . S
C2258 C2256 1.378 1_545 S
C2258 C2259 1.393 . S
C2258 H2266 0.933 . S
C2259 C2258 1.393 . S
C2259 C2260 1.377 1_545 S
C2259 H2267 0.941 . S
C2260 C2259 1.377 1_565 S
C2260 C2261 1.377 . S
C2261 H2245 0.930 . S
C2261 C2260 1.377 . S
C2261 C2262 1.379 . S
C2262 H2246 0.931 . S
C2262 C2256 1.383 . S
C2262 C2261 1.379 . S
H2263 C2257 0.959 . S
H2264 C2257 0.961 . S
H2265 C2257 0.960 . S
H2266 C2258 0.933 . S
H2267 C2259 0.941 . S
H2268 C2276 0.929 . S
H2269 C2278 0.930 . S
H2270 C2280 0.930 . S
H2271 C2283 0.929 . S
H2272 C2286 0.930 . S
H2273 C2288 0.960 . S
H2274 C2288 0.960 . S
H2275 C2288 0.960 . S
C2276 H2268 0.929 . S
C2276 C2277 1.377 . S
C2276 C2278 1.384 . S
C2277 C2276 1.377 . S
C2277 C2283 1.390 . S
C2278 H2269 0.930 . S
C2278 C2276 1.384 . S
C2278 C2279 1.372 . S
C2279 C2278 1.372 . S
C2279 C2280 1.400 . S
C2279 C2284 1.490 . S
C2280 H2270 0.930 . S
C2280 C2279 1.400 . S
C2280 C2283 1.386 . S
H2281 C2297 0.930 . S
H2282 C2298 0.931 . S
C2283 H2271 0.929 . S
C2283 C2277 1.390 . S
C2283 C2280 1.386 . S
C2284 C2279 1.490 . S
C2284 C2286 1.395 . S
C2284 C2287 1.403 . S
H2285 C2291 0.930 . S
C2286 H2272 0.930 . S
C2286 C2284 1.395 . S
C2286 C2289 1.403 . S
C2287 C2284 1.403 . S
C2287 C2288 1.524 . S
C2287 C2291 1.400 . S
C2288 H2273 0.960 . S
C2288 H2274 0.960 . S
C2288 H2275 0.960 . S
C2288 C2287 1.524 . S
C2289 C2286 1.403 . S
C2289 C2290 1.392 . S
C2289 C2293 1.495 . S
C2290 C2289 1.392 . S
C2290 C2291 1.385 . S
C2290 C2292 1.478 . S
C2291 H2285 0.930 . S
C2291 C2287 1.400 . S
C2291 C2290 1.385 . S
C2292 C2290 1.478 . S
C2292 C2294 1.381 . S
C2292 C2298 1.383 . S
C2293 C2289 1.495 . S
C2293 H2299 0.959 . S
C2293 H2300 0.961 . S
C2293 H2301 0.960 . S
C2294 C2292 1.381 . S
C2294 C2295 1.394 . S
C2294 H2302 0.930 . S
C2295 C2294 1.394 . S
C2295 C2296 1.383 . S
C2295 H2303 0.929 . S
C2296 C2295 1.383 . S
C2296 C2297 1.377 . S
C2297 H2281 0.930 . S
C2297 C2296 1.377 . S
C2297 C2298 1.379 . S
C2298 H2282 0.931 . S
C2298 C2292 1.383 . S
C2298 C2297 1.379 . S
H2299 C2293 0.959 . S
H2300 C2293 0.961 . S
H2301 C2293 0.960 . S
H2302 C2294 0.930 . S
H2303 C2295 0.929 . S
H2304 C2312 0.929 . S
H2305 C2314 0.930 . S
H2306 C2316 0.930 . S
H2307 C2319 0.929 . S
H2308 C2322 0.930 . S
H2309 C2324 0.960 . S
H2310 C2324 0.960 . S
H2311 C2324 0.960 . S
C2312 H2304 0.929 . S
C2312 C2313 1.377 . S
C2312 C2314 1.384 . S
C2313 C2312 1.377 . S
C2313 C2319 1.390 . S
C2314 H2305 0.930 . S
C2314 C2312 1.384 . S
C2314 C2315 1.372 . S
C2315 C2314 1.372 . S
C2315 C2316 1.400 . S
C2315 C2320 1.490 . S
C2316 H2306 0.930 . S
C2316 C2315 1.400 . S
C2316 C2319 1.386 . S
H2317 C2333 0.930 . S
H2318 C2334 0.931 . S
C2319 H2307 0.929 . S
C2319 C2313 1.390 . S
C2319 C2316 1.386 . S
C2320 C2315 1.490 . S
C2320 C2322 1.395 . S
C2320 C2323 1.403 . S
H2321 C2327 0.930 . S
C2322 H2308 0.930 . S
C2322 C2320 1.395 . S
C2322 C2325 1.403 . S
C2323 C2320 1.403 . S
C2323 C2324 1.524 . S
C2323 C2327 1.400 . S
C2324 H2309 0.960 . S
C2324 H2310 0.960 . S
C2324 H2311 0.960 . S
C2324 C2323 1.524 . S
C2325 C2322 1.403 . S
C2325 C2326 1.392 . S
C2325 C2329 1.495 . S
C2326 C2325 1.392 . S
C2326 C2327 1.385 . S
C2326 C2328 1.478 . S
C2327 H2321 0.930 . S
C2327 C2323 1.400 . S
C2327 C2326 1.385 . S
C2328 C2326 1.478 . S
C2328 C2330 1.381 . S
C2328 C2334 1.383 . S
C2329 C2325 1.495 . S
C2329 H2335 0.959 . S
C2329 H2336 0.961 . S
C2329 H2337 0.960 . S
C2330 C2328 1.381 . S
C2330 C2331 1.394 . S
C2330 H2338 0.930 . S
C2331 C2330 1.394 . S
C2331 C2332 1.383 . S
C2331 H2339 0.929 . S
C2332 C2331 1.383 . S
C2332 C2333 1.377 . S
C2333 H2317 0.930 . S
C2333 C2332 1.377 . S
C2333 C2334 1.379 . S
C2334 H2318 0.931 . S
C2334 C2328 1.383 . S
C2334 C2333 1.379 . S
H2335 C2329 0.959 . S
H2336 C2329 0.961 . S
H2337 C2329 0.960 . S
H2338 C2330 0.930 . S
H2339 C2331 0.929 . S
H2340 C2348 0.929 . S
H2341 C2350 0.930 . S
H2342 C2352 0.930 . S
H2343 C2355 0.929 . S
H2344 C2358 0.930 . S
H2345 C2360 0.960 . S
H2346 C2360 0.960 . S
H2347 C2360 0.960 . S
C2348 H2340 0.929 . S
C2348 C2349 1.377 . S
C2348 C2350 1.384 . S
C2349 C2348 1.377 . S
C2349 C2355 1.390 . S
C2350 H2341 0.930 . S
C2350 C2348 1.384 . S
C2350 C2351 1.372 . S
C2351 C2350 1.372 . S
C2351 C2352 1.400 . S
C2351 C2356 1.490 . S
C2352 H2342 0.930 . S
C2352 C2351 1.400 . S
C2352 C2355 1.386 . S
H2353 C2369 0.930 . S
H2354 C2370 0.931 . S
C2355 H2343 0.929 . S
C2355 C2349 1.390 . S
C2355 C2352 1.386 . S
C2356 C2351 1.490 . S
C2356 C2358 1.395 . S
C2356 C2359 1.403 . S
H2357 C2363 0.930 . S
C2358 H2344 0.930 . S
C2358 C2356 1.395 . S
C2358 C2361 1.403 . S
C2359 C2356 1.403 . S
C2359 C2360 1.524 . S
C2359 C2363 1.400 . S
C2360 H2345 0.960 . S
C2360 H2346 0.960 . S
C2360 H2347 0.960 . S
C2360 C2359 1.524 . S
C2361 C2358 1.403 . S
C2361 C2362 1.392 . S
C2361 C2365 1.495 . S
C2362 C2361 1.392 . S
C2362 C2363 1.385 . S
C2362 C2364 1.478 . S
C2363 H2357 0.930 . S
C2363 C2359 1.400 . S
C2363 C2362 1.385 . S
C2364 C2362 1.478 . S
C2364 C2366 1.381 . S
C2364 C2370 1.383 . S
C2365 C2361 1.495 . S
C2365 H2371 0.959 . S
C2365 H2372 0.961 . S
C2365 H2373 0.960 . S
C2366 C2364 1.381 . S
C2366 C2367 1.394 . S
C2366 H2374 0.930 . S
C2367 C2366 1.394 . S
C2367 C2368 1.383 . S
C2367 H2375 0.929 . S
C2368 C2367 1.383 . S
C2368 C2369 1.377 . S
C2369 H2353 0.930 . S
C2369 C2368 1.377 . S
C2369 C2370 1.379 . S
C2370 H2354 0.931 . S
C2370 C2364 1.383 . S
C2370 C2369 1.379 . S
H2371 C2365 0.959 . S
H2372 C2365 0.961 . S
H2373 C2365 0.960 . S
H2374 C2366 0.930 . S
H2375 C2367 0.929 . S
H2376 C2384 0.929 . S
H2377 C2386 0.930 . S
H2378 C2388 0.930 . S
H2379 C2391 0.929 . S
H2380 C2394 0.930 . S
H2381 C2396 0.960 . S
H2382 C2396 0.960 . S
H2383 C2396 0.960 . S
C2384 H2376 0.929 . S
C2384 C2385 1.377 1_545 S
C2384 C2386 1.384 . S
C2385 C2384 1.377 1_565 S
C2385 C2391 1.390 . S
C2386 H2377 0.930 . S
C2386 C2384 1.384 . S
C2386 C2387 1.372 1_545 S
C2387 C2386 1.372 1_565 S
C2387 C2388 1.400 . S
C2387 C2392 1.490 . S
C2388 H2378 0.930 . S
C2388 C2387 1.400 . S
C2388 C2391 1.386 . S
H2389 C2405 0.930 . S
H2390 C2406 0.931 . S
C2391 H2379 0.929 . S
C2391 C2385 1.390 . S
C2391 C2388 1.386 . S
C2392 C2387 1.490 . S
C2392 C2394 1.395 1_565 S
C2392 C2395 1.403 . S
H2393 C2399 0.930 . S
C2394 H2380 0.930 . S
C2394 C2392 1.395 1_545 S
C2394 C2397 1.403 . S
C2395 C2392 1.403 . S
C2395 C2396 1.524 . S
C2395 C2399 1.400 . S
C2396 H2381 0.960 . S
C2396 H2382 0.960 . S
C2396 H2383 0.960 . S
C2396 C2395 1.524 . S
C2397 C2394 1.403 . S
C2397 C2398 1.392 1_545 S
C2397 C2401 1.495 . S
C2398 C2397 1.392 1_565 S
C2398 C2399 1.385 . S
C2398 C2400 1.478 . S
C2399 H2393 0.930 . S
C2399 C2395 1.400 . S
C2399 C2398 1.385 . S
C2400 C2398 1.478 . S
C2400 C2402 1.381 1_565 S
C2400 C2406 1.383 . S
C2401 C2397 1.495 . S
C2401 H2407 0.959 . S
C2401 H2408 0.961 . S
C2401 H2409 0.960 . S
C2402 C2400 1.381 1_545 S
C2402 C2403 1.394 . S
C2402 H2410 0.930 . S
C2403 C2402 1.394 . S
C2403 C2404 1.383 1_545 S
C2403 H2411 0.929 . S
C2404 C2403 1.383 1_565 S
C2404 C2405 1.377 . S
C2405 H2389 0.930 . S
C2405 C2404 1.377 . S
C2405 C2406 1.379 . S
C2406 H2390 0.931 . S
C2406 C2400 1.383 . S
C2406 C2405 1.379 . S
H2407 C2401 0.959 . S
H2408 C2401 0.961 . S
H2409 C2401 0.960 . S
H2410 C2402 0.930 . S
H2411 C2403 0.929 . S
H2412 C2420 0.929 . S
H2413 C2422 0.930 . S
H2414 C2424 0.930 . S
H2415 C2427 0.929 . S
H2416 C2430 0.930 . S
H2417 C2432 0.960 . S
H2418 C2432 0.960 . S
H2419 C2432 0.960 . S
C2420 H2412 0.929 . S
C2420 C2421 1.377 . S
C2420 C2422 1.384 . S
C2421 C2420 1.377 . S
C2421 C2427 1.390 . S
C2422 H2413 0.930 . S
C2422 C2420 1.384 . S
C2422 C2423 1.372 . S
C2423 C2422 1.372 . S
C2423 C2424 1.400 . S
C2423 C2428 1.490 . S
C2424 H2414 0.930 . S
C2424 C2423 1.400 . S
C2424 C2427 1.386 . S
H2425 C2441 0.930 . S
H2426 C2442 0.931 . S
C2427 H2415 0.929 . S
C2427 C2421 1.390 . S
C2427 C2424 1.386 . S
C2428 C2423 1.490 . S
C2428 C2430 1.395 . S
C2428 C2431 1.403 . S
H2429 C2435 0.930 . S
C2430 H2416 0.930 . S
C2430 C2428 1.395 . S
C2430 C2433 1.403 . S
C2431 C2428 1.403 . S
C2431 C2432 1.524 . S
C2431 C2435 1.400 . S
C2432 H2417 0.960 . S
C2432 H2418 0.960 . S
C2432 H2419 0.960 . S
C2432 C2431 1.524 . S
C2433 C2430 1.403 . S
C2433 C2434 1.392 . S
C2433 C2437 1.495 . S
C2434 C2433 1.392 . S
C2434 C2435 1.385 . S
C2434 C2436 1.478 . S
C2435 H2429 0.930 . S
C2435 C2431 1.400 . S
C2435 C2434 1.385 . S
C2436 C2434 1.478 . S
C2436 C2438 1.381 . S
C2436 C2442 1.383 . S
C2437 C2433 1.495 . S
C2437 H2443 0.959 . S
C2437 H2444 0.961 . S
C2437 H2445 0.960 . S
C2438 C2436 1.381 . S
C2438 C2439 1.394 . S
C2438 H2446 0.930 . S
C2439 C2438 1.394 . S
C2439 C2440 1.383 . S
C2439 H2447 0.929 . S
C2440 C2439 1.383 . S
C2440 C2441 1.377 . S
C2441 H2425 0.930 . S
C2441 C2440 1.377 . S
C2441 C2442 1.379 . S
C2442 H2426 0.931 . S
C2442 C2436 1.383 . S
C2442 C2441 1.379 . S
H2443 C2437 0.959 . S
H2444 C2437 0.961 . S
H2445 C2437 0.960 . S
H2446 C2438 0.930 . S
H2447 C2439 0.929 . S
H2448 C2456 0.929 . S
H2449 C2458 0.930 . S
H2450 C2460 0.930 . S
H2451 C2463 0.929 . S
H2452 C2466 0.930 . S
H2453 C2468 0.960 . S
H2454 C2468 0.960 . S
H2455 C2468 0.960 . S
C2456 H2448 0.929 . S
C2456 C2457 1.377 . S
C2456 C2458 1.384 . S
C2457 C2456 1.377 . S
C2457 C2463 1.390 . S
C2458 H2449 0.930 . S
C2458 C2456 1.384 . S
C2458 C2459 1.372 . S
C2459 C2458 1.372 . S
C2459 C2460 1.400 . S
C2459 C2464 1.490 . S
C2460 H2450 0.930 . S
C2460 C2459 1.400 . S
C2460 C2463 1.386 . S
H2461 C2477 0.930 . S
H2462 C2478 0.931 . S
C2463 H2451 0.929 . S
C2463 C2457 1.390 . S
C2463 C2460 1.386 . S
C2464 C2459 1.490 . S
C2464 C2466 1.395 . S
C2464 C2467 1.403 . S
H2465 C2471 0.930 . S
C2466 H2452 0.930 . S
C2466 C2464 1.395 . S
C2466 C2469 1.403 . S
C2467 C2464 1.403 . S
C2467 C2468 1.524 . S
C2467 C2471 1.400 . S
C2468 H2453 0.960 . S
C2468 H2454 0.960 . S
C2468 H2455 0.960 . S
C2468 C2467 1.524 . S
C2469 C2466 1.403 . S
C2469 C2470 1.392 . S
C2469 C2473 1.495 . S
C2470 C2469 1.392 . S
C2470 C2471 1.385 . S
C2470 C2472 1.478 . S
C2471 H2465 0.930 . S
C2471 C2467 1.400 . S
C2471 C2470 1.385 . S
C2472 C2470 1.478 . S
C2472 C2474 1.381 . S
C2472 C2478 1.383 . S
C2473 C2469 1.495 . S
C2473 H2479 0.959 . S
C2473 H2480 0.961 . S
C2473 H2481 0.960 . S
C2474 C2472 1.381 . S
C2474 C2475 1.394 . S
C2474 H2482 0.930 . S
C2475 C2474 1.394 . S
C2475 C2476 1.383 . S
C2475 H2483 0.929 . S
C2476 C2475 1.383 . S
C2476 C2477 1.377 . S
C2477 H2461 0.930 . S
C2477 C2476 1.377 . S
C2477 C2478 1.379 . S
C2478 H2462 0.931 . S
C2478 C2472 1.383 . S
C2478 C2477 1.379 . S
H2479 C2473 0.959 . S
H2480 C2473 0.961 . S
H2481 C2473 0.960 . S
H2482 C2474 0.930 . S
H2483 C2475 0.929 . S
H2484 C2492 0.929 . S
H2485 C2494 0.930 . S
H2486 C2496 0.930 . S
H2487 C2499 0.929 . S
H2488 C2502 0.930 . S
H2489 C2504 0.960 . S
H2490 C2504 0.960 . S
H2491 C2504 0.960 . S
C2492 H2484 0.929 . S
C2492 C2493 1.377 . S
C2492 C2494 1.384 . S
C2493 C2492 1.377 . S
C2493 C2499 1.390 . S
C2494 H2485 0.930 . S
C2494 C2492 1.384 . S
C2494 C2495 1.372 . S
C2495 C2494 1.372 . S
C2495 C2496 1.400 . S
C2495 C2500 1.490 . S
C2496 H2486 0.930 . S
C2496 C2495 1.400 . S
C2496 C2499 1.386 . S
H2497 C2513 0.930 . S
H2498 C2514 0.931 . S
C2499 H2487 0.929 . S
C2499 C2493 1.390 . S
C2499 C2496 1.386 . S
C2500 C2495 1.490 . S
C2500 C2502 1.395 . S
C2500 C2503 1.403 . S
H2501 C2507 0.930 . S
C2502 H2488 0.930 . S
C2502 C2500 1.395 . S
C2502 C2505 1.403 . S
C2503 C2500 1.403 . S
C2503 C2504 1.524 . S
C2503 C2507 1.400 . S
C2504 H2489 0.960 . S
C2504 H2490 0.960 . S
C2504 H2491 0.960 . S
C2504 C2503 1.524 . S
C2505 C2502 1.403 . S
C2505 C2506 1.392 . S
C2505 C2509 1.495 . S
C2506 C2505 1.392 . S
C2506 C2507 1.385 . S
C2506 C2508 1.478 . S
C2507 H2501 0.930 . S
C2507 C2503 1.400 . S
C2507 C2506 1.385 . S
C2508 C2506 1.478 . S
C2508 C2510 1.381 . S
C2508 C2514 1.383 . S
C2509 C2505 1.495 . S
C2509 H2515 0.959 . S
C2509 H2516 0.961 . S
C2509 H2517 0.960 . S
C2510 C2508 1.381 . S
C2510 C2511 1.394 . S
C2510 H2518 0.930 . S
C2511 C2510 1.394 . S
C2511 C2512 1.383 . S
C2511 H2519 0.929 . S
C2512 C2511 1.383 . S
C2512 C2513 1.377 . S
C2513 H2497 0.930 . S
C2513 C2512 1.377 . S
C2513 C2514 1.379 . S
C2514 H2498 0.931 . S
C2514 C2508 1.383 . S
C2514 C2513 1.379 . S
H2515 C2509 0.959 . S
H2516 C2509 0.961 . S
H2517 C2509 0.960 . S
H2518 C2510 0.930 . S
H2519 C2511 0.929 . S
H2520 C2528 0.929 . S
H2521 C2530 0.930 . S
H2522 C2532 0.930 . S
H2523 C2535 0.929 . S
H2524 C2538 0.930 . S
H2525 C2540 0.960 . S
H2526 C2540 0.960 . S
H2527 C2540 0.960 . S
C2528 H2520 0.929 . S
C2528 C2529 1.377 . S
C2528 C2530 1.384 . S
C2529 C2528 1.377 . S
C2529 C2535 1.390 . S
C2530 H2521 0.930 . S
C2530 C2528 1.384 . S
C2530 C2531 1.372 . S
C2531 C2530 1.372 . S
C2531 C2532 1.400 . S
C2531 C2536 1.490 . S
C2532 H2522 0.930 . S
C2532 C2531 1.400 . S
C2532 C2535 1.386 . S
H2533 C2549 0.930 . S
H2534 C2550 0.931 . S
C2535 H2523 0.929 . S
C2535 C2529 1.390 . S
C2535 C2532 1.386 . S
C2536 C2531 1.490 . S
C2536 C2538 1.395 . S
C2536 C2539 1.403 . S
H2537 C2543 0.930 . S
C2538 H2524 0.930 . S
C2538 C2536 1.395 . S
C2538 C2541 1.403 . S
C2539 C2536 1.403 . S
C2539 C2540 1.524 . S
C2539 C2543 1.400 . S
C2540 H2525 0.960 . S
C2540 H2526 0.960 . S
C2540 H2527 0.960 . S
C2540 C2539 1.524 . S
C2541 C2538 1.403 . S
C2541 C2542 1.392 . S
C2541 C2545 1.495 . S
C2542 C2541 1.392 . S
C2542 C2543 1.385 . S
C2542 C2544 1.478 . S
C2543 H2537 0.930 . S
C2543 C2539 1.400 . S
C2543 C2542 1.385 . S
C2544 C2542 1.478 . S
C2544 C2546 1.381 . S
C2544 C2550 1.383 . S
C2545 C2541 1.495 . S
C2545 H2551 0.959 . S
C2545 H2552 0.961 . S
C2545 H2553 0.960 . S
C2546 C2544 1.381 . S
C2546 C2547 1.394 . S
C2546 H2554 0.930 . S
C2547 C2546 1.394 . S
C2547 C2548 1.383 . S
C2547 H2555 0.929 . S
C2548 C2547 1.383 . S
C2548 C2549 1.377 . S
C2549 H2533 0.930 . S
C2549 C2548 1.377 . S
C2549 C2550 1.379 . S
C2550 H2534 0.931 . S
C2550 C2544 1.383 . S
C2550 C2549 1.379 . S
H2551 C2545 0.959 . S
H2552 C2545 0.961 . S
H2553 C2545 0.960 . S
H2554 C2546 0.930 . S
H2555 C2547 0.929 . S
H2556 C2564 0.929 . S
H2557 C2566 0.930 . S
H2558 C2568 0.930 . S
H2559 C2571 0.929 . S
H2560 C2574 0.930 . S
H2561 C2576 0.960 . S
H2562 C2576 0.960 . S
H2563 C2576 0.960 . S
C2564 H2556 0.929 . S
C2564 C2565 1.377 . S
C2564 C2566 1.384 . S
C2565 C2564 1.377 . S
C2565 C2571 1.390 . S
C2566 H2557 0.930 . S
C2566 C2564 1.384 . S
C2566 C2567 1.372 . S
C2567 C2566 1.372 . S
C2567 C2568 1.400 . S
C2567 C2572 1.490 . S
C2568 H2558 0.930 . S
C2568 C2567 1.400 . S
C2568 C2571 1.386 . S
H2569 C2585 0.930 . S
H2570 C2586 0.931 . S
C2571 H2559 0.929 . S
C2571 C2565 1.390 . S
C2571 C2568 1.386 . S
C2572 C2567 1.490 . S
C2572 C2574 1.395 . S
C2572 C2575 1.403 . S
H2573 C2579 0.930 . S
C2574 H2560 0.930 . S
C2574 C2572 1.395 . S
C2574 C2577 1.403 . S
C2575 C2572 1.403 . S
C2575 C2576 1.524 . S
C2575 C2579 1.400 . S
C2576 H2561 0.960 . S
C2576 H2562 0.960 . S
C2576 H2563 0.960 . S
C2576 C2575 1.524 . S
C2577 C2574 1.403 . S
C2577 C2578 1.392 . S
C2577 C2581 1.495 . S
C2578 C2577 1.392 . S
C2578 C2579 1.385 . S
C2578 C2580 1.478 . S
C2579 H2573 0.930 . S
C2579 C2575 1.400 . S
C2579 C2578 1.385 . S
C2580 C2578 1.478 . S
C2580 C2582 1.381 . S
C2580 C2586 1.383 . S
C2581 C2577 1.495 . S
C2581 H2587 0.959 . S
C2581 H2588 0.961 . S
C2581 H2589 0.960 . S
C2582 C2580 1.381 . S
C2582 C2583 1.394 . S
C2582 H2590 0.930 . S
C2583 C2582 1.394 . S
C2583 C2584 1.383 . S
C2583 H2591 0.929 . S
C2584 C2583 1.383 . S
C2584 C2585 1.377 . S
C2585 H2569 0.930 . S
C2585 C2584 1.377 . S
C2585 C2586 1.379 . S
C2586 H2570 0.931 . S
C2586 C2580 1.383 . S
C2586 C2585 1.379 . S
H2587 C2581 0.959 . S
H2588 C2581 0.961 . S
H2589 C2581 0.960 . S
H2590 C2582 0.930 . S
H2591 C2583 0.929 . S
H2592 C2600 0.929 . S
H2593 C2602 0.930 . S
H2594 C2604 0.930 . S
H2595 C2607 0.929 . S
H2596 C2610 0.930 . S
H2597 C2612 0.960 . S
H2598 C2612 0.960 . S
H2599 C2612 0.960 . S
C2600 H2592 0.929 . S
C2600 C2601 1.377 . S
C2600 C2602 1.384 . S
C2601 C2600 1.377 . S
C2601 C2607 1.390 . S
C2602 H2593 0.930 . S
C2602 C2600 1.384 . S
C2602 C2603 1.372 . S
C2603 C2602 1.372 . S
C2603 C2604 1.400 . S
C2603 C2608 1.490 . S
C2604 H2594 0.930 . S
C2604 C2603 1.400 . S
C2604 C2607 1.386 . S
H2605 C2621 0.930 . S
H2606 C2622 0.931 . S
C2607 H2595 0.929 . S
C2607 C2601 1.390 . S
C2607 C2604 1.386 . S
C2608 C2603 1.490 . S
C2608 C2610 1.395 . S
C2608 C2611 1.403 . S
H2609 C2615 0.930 . S
C2610 H2596 0.930 . S
C2610 C2608 1.395 . S
C2610 C2613 1.403 . S
C2611 C2608 1.403 . S
C2611 C2612 1.524 . S
C2611 C2615 1.400 . S
C2612 H2597 0.960 . S
C2612 H2598 0.960 . S
C2612 H2599 0.960 . S
C2612 C2611 1.524 . S
C2613 C2610 1.403 . S
C2613 C2614 1.392 . S
C2613 C2617 1.495 . S
C2614 C2613 1.392 . S
C2614 C2615 1.385 . S
C2614 C2616 1.478 . S
C2615 H2609 0.930 . S
C2615 C2611 1.400 . S
C2615 C2614 1.385 . S
C2616 C2614 1.478 . S
C2616 C2618 1.381 . S
C2616 C2622 1.383 . S
C2617 C2613 1.495 . S
C2617 H2623 0.959 . S
C2617 H2624 0.961 . S
C2617 H2625 0.960 . S
C2618 C2616 1.381 . S
C2618 C2619 1.394 . S
C2618 H2626 0.930 . S
C2619 C2618 1.394 . S
C2619 C2620 1.383 . S
C2619 H2627 0.929 . S
C2620 C2619 1.383 . S
C2620 C2621 1.377 . S
C2621 H2605 0.930 . S
C2621 C2620 1.377 . S
C2621 C2622 1.379 . S
C2622 H2606 0.931 . S
C2622 C2616 1.383 . S
C2622 C2621 1.379 . S
H2623 C2617 0.959 . S
H2624 C2617 0.961 . S
H2625 C2617 0.960 . S
H2626 C2618 0.930 . S
H2627 C2619 0.929 . S
H2628 C2636 0.929 . S
H2629 C2638 0.930 . S
H2630 C2640 0.930 . S
H2631 C2643 0.929 . S
H2632 C2646 0.930 . S
H2633 C2648 0.960 . S
H2634 C2648 0.960 . S
H2635 C2648 0.960 . S
C2636 H2628 0.929 . S
C2636 C2637 1.377 . S
C2636 C2638 1.384 . S
C2637 C2636 1.377 . S
C2637 C2643 1.390 . S
C2638 H2629 0.930 . S
C2638 C2636 1.384 . S
C2638 C2639 1.372 . S
C2639 C2638 1.372 . S
C2639 C2640 1.400 . S
C2639 C2644 1.490 . S
C2640 H2630 0.930 . S
C2640 C2639 1.400 . S
C2640 C2643 1.386 . S
H2641 C2657 0.930 . S
H2642 C2658 0.931 . S
C2643 H2631 0.929 . S
C2643 C2637 1.390 . S
C2643 C2640 1.386 . S
C2644 C2639 1.490 . S
C2644 C2646 1.395 . S
C2644 C2647 1.403 . S
H2645 C2651 0.930 . S
C2646 H2632 0.930 . S
C2646 C2644 1.395 . S
C2646 C2649 1.403 . S
C2647 C2644 1.403 . S
C2647 C2648 1.524 . S
C2647 C2651 1.400 . S
C2648 H2633 0.960 . S
C2648 H2634 0.960 . S
C2648 H2635 0.960 . S
C2648 C2647 1.524 . S
C2649 C2646 1.403 . S
C2649 C2650 1.392 . S
C2649 C2653 1.495 . S
C2650 C2649 1.392 . S
C2650 C2651 1.385 . S
C2650 C2652 1.478 . S
C2651 H2645 0.930 . S
C2651 C2647 1.400 . S
C2651 C2650 1.385 . S
C2652 C2650 1.478 . S
C2652 C2654 1.381 . S
C2652 C2658 1.383 . S
C2653 C2649 1.495 . S
C2653 H2659 0.959 . S
C2653 H2660 0.961 . S
C2653 H2661 0.960 . S
C2654 C2652 1.381 . S
C2654 C2655 1.394 . S
C2654 H2662 0.930 . S
C2655 C2654 1.394 . S
C2655 C2656 1.383 . S
C2655 H2663 0.929 . S
C2656 C2655 1.383 . S
C2656 C2657 1.377 . S
C2657 H2641 0.930 . S
C2657 C2656 1.377 . S
C2657 C2658 1.379 . S
C2658 H2642 0.931 . S
C2658 C2652 1.383 . S
C2658 C2657 1.379 . S
H2659 C2653 0.959 . S
H2660 C2653 0.961 . S
H2661 C2653 0.960 . S
H2662 C2654 0.930 . S
H2663 C2655 0.929 . S
H2664 C2672 0.929 . S
H2665 C2674 0.930 . S
H2666 C2676 0.930 . S
H2667 C2679 0.929 . S
H2668 C2682 0.930 . S
H2669 C2684 0.960 . S
H2670 C2684 0.960 . S
H2671 C2684 0.960 . S
C2672 H2664 0.929 . S
C2672 C2673 1.377 . S
C2672 C2674 1.384 . S
C2673 C2672 1.377 . S
C2673 C2679 1.390 . S
C2674 H2665 0.930 . S
C2674 C2672 1.384 . S
C2674 C2675 1.372 . S
C2675 C2674 1.372 . S
C2675 C2676 1.400 . S
C2675 C2680 1.490 . S
C2676 H2666 0.930 . S
C2676 C2675 1.400 . S
C2676 C2679 1.386 . S
H2677 C2693 0.930 . S
H2678 C2694 0.931 . S
C2679 H2667 0.929 . S
C2679 C2673 1.390 . S
C2679 C2676 1.386 . S
C2680 C2675 1.490 . S
C2680 C2682 1.395 . S
C2680 C2683 1.403 . S
H2681 C2687 0.930 . S
C2682 H2668 0.930 . S
C2682 C2680 1.395 . S
C2682 C2685 1.403 . S
C2683 C2680 1.403 . S
C2683 C2684 1.524 . S
C2683 C2687 1.400 . S
C2684 H2669 0.960 . S
C2684 H2670 0.960 . S
C2684 H2671 0.960 . S
C2684 C2683 1.524 . S
C2685 C2682 1.403 . S
C2685 C2686 1.392 . S
C2685 C2689 1.495 . S
C2686 C2685 1.392 . S
C2686 C2687 1.385 . S
C2686 C2688 1.478 . S
C2687 H2681 0.930 . S
C2687 C2683 1.400 . S
C2687 C2686 1.385 . S
C2688 C2686 1.478 . S
C2688 C2690 1.381 . S
C2688 C2694 1.383 . S
C2689 C2685 1.495 . S
C2689 H2695 0.959 . S
C2689 H2696 0.961 . S
C2689 H2697 0.960 . S
C2690 C2688 1.381 . S
C2690 C2691 1.394 . S
C2690 H2698 0.930 . S
C2691 C2690 1.394 . S
C2691 C2692 1.383 . S
C2691 H2699 0.929 . S
C2692 C2691 1.383 . S
C2692 C2693 1.377 . S
C2693 H2677 0.930 . S
C2693 C2692 1.377 . S
C2693 C2694 1.379 . S
C2694 H2678 0.931 . S
C2694 C2688 1.383 . S
C2694 C2693 1.379 . S
H2695 C2689 0.959 . S
H2696 C2689 0.961 . S
H2697 C2689 0.960 . S
H2698 C2690 0.930 . S
H2699 C2691 0.929 . S
H2700 C2708 0.929 . S
H2701 C2710 0.930 . S
H2702 C2712 0.930 . S
H2703 C2715 0.929 . S
H2704 C2718 0.930 . S
H2705 C2720 0.960 . S
H2706 C2720 0.960 . S
H2707 C2720 0.960 . S
C2708 H2700 0.929 . S
C2708 C2709 1.377 . S
C2708 C2710 1.384 . S
C2709 C2708 1.377 . S
C2709 C2715 1.390 . S
C2710 H2701 0.930 . S
C2710 C2708 1.384 . S
C2710 C2711 1.372 . S
C2711 C2710 1.372 . S
C2711 C2712 1.400 . S
C2711 C2716 1.490 . S
C2712 H2702 0.930 . S
C2712 C2711 1.400 . S
C2712 C2715 1.386 . S
H2713 C2729 0.930 . S
H2714 C2730 0.931 . S
C2715 H2703 0.929 . S
C2715 C2709 1.390 . S
C2715 C2712 1.386 . S
C2716 C2711 1.490 . S
C2716 C2718 1.395 . S
C2716 C2719 1.403 . S
H2717 C2723 0.930 . S
C2718 H2704 0.930 . S
C2718 C2716 1.395 . S
C2718 C2721 1.403 . S
C2719 C2716 1.403 . S
C2719 C2720 1.524 . S
C2719 C2723 1.400 . S
C2720 H2705 0.960 . S
C2720 H2706 0.960 . S
C2720 H2707 0.960 . S
C2720 C2719 1.524 . S
C2721 C2718 1.403 . S
C2721 C2722 1.392 . S
C2721 C2725 1.495 . S
C2722 C2721 1.392 . S
C2722 C2723 1.385 . S
C2722 C2724 1.478 . S
C2723 H2717 0.930 . S
C2723 C2719 1.400 . S
C2723 C2722 1.385 . S
C2724 C2722 1.478 . S
C2724 C2726 1.381 . S
C2724 C2730 1.383 . S
C2725 C2721 1.495 . S
C2725 H2731 0.959 . S
C2725 H2732 0.961 . S
C2725 H2733 0.960 . S
C2726 C2724 1.381 . S
C2726 C2727 1.394 . S
C2726 H2734 0.930 . S
C2727 C2726 1.394 . S
C2727 C2728 1.383 . S
C2727 H2735 0.929 . S
C2728 C2727 1.383 . S
C2728 C2729 1.377 . S
C2729 H2713 0.930 . S
C2729 C2728 1.377 . S
C2729 C2730 1.379 . S
C2730 H2714 0.931 . S
C2730 C2724 1.383 . S
C2730 C2729 1.379 . S
H2731 C2725 0.959 . S
H2732 C2725 0.961 . S
H2733 C2725 0.960 . S
H2734 C2726 0.930 . S
H2735 C2727 0.929 . S
H2736 C2744 0.929 . S
H2737 C2746 0.930 . S
H2738 C2748 0.930 . S
H2739 C2751 0.929 . S
H2740 C2754 0.930 . S
H2741 C2756 0.960 . S
H2742 C2756 0.960 . S
H2743 C2756 0.960 1_655 S
C2744 H2736 0.929 . S
C2744 C2745 1.377 . S
C2744 C2746 1.384 . S
C2745 C2744 1.377 . S
C2745 C2751 1.390 . S
C2746 H2737 0.930 . S
C2746 C2744 1.384 . S
C2746 C2747 1.372 . S
C2747 C2746 1.372 . S
C2747 C2748 1.400 . S
C2747 C2752 1.490 . S
C2748 H2738 0.930 . S
C2748 C2747 1.400 . S
C2748 C2751 1.386 . S
H2749 C2765 0.930 . S
H2750 C2766 0.931 . S
C2751 H2739 0.929 . S
C2751 C2745 1.390 . S
C2751 C2748 1.386 . S
C2752 C2747 1.490 . S
C2752 C2754 1.395 . S
C2752 C2755 1.403 . S
H2753 C2759 0.930 . S
C2754 H2740 0.930 . S
C2754 C2752 1.395 . S
C2754 C2757 1.403 . S
C2755 C2752 1.403 . S
C2755 C2756 1.524 1_655 S
C2755 C2759 1.400 . S
C2756 H2741 0.960 . S
C2756 H2742 0.960 . S
C2756 H2743 0.960 1_455 S
C2756 C2755 1.524 1_455 S
C2757 C2754 1.403 . S
C2757 C2758 1.392 . S
C2757 C2761 1.495 . S
C2758 C2757 1.392 . S
C2758 C2759 1.385 . S
C2758 C2760 1.478 . S
C2759 H2753 0.930 . S
C2759 C2755 1.400 . S
C2759 C2758 1.385 . S
C2760 C2758 1.478 . S
C2760 C2762 1.381 . S
C2760 C2766 1.383 . S
C2761 C2757 1.495 . S
C2761 H2767 0.959 . S
C2761 H2768 0.961 . S
C2761 H2769 0.960 . S
C2762 C2760 1.381 . S
C2762 C2763 1.394 . S
C2762 H2770 0.930 . S
C2763 C2762 1.394 . S
C2763 C2764 1.383 . S
C2763 H2771 0.929 . S
C2764 C2763 1.383 . S
C2764 C2765 1.377 . S
C2765 H2749 0.930 . S
C2765 C2764 1.377 . S
C2765 C2766 1.379 . S
C2766 H2750 0.931 . S
C2766 C2760 1.383 . S
C2766 C2765 1.379 . S
H2767 C2761 0.959 . S
H2768 C2761 0.961 . S
H2769 C2761 0.960 . S
H2770 C2762 0.930 . S
H2771 C2763 0.929 . S
H2772 C2780 0.929 . S
H2773 C2782 0.930 . S
H2774 C2784 0.930 . S
H2775 C2787 0.929 . S
H2776 C2790 0.930 . S
H2777 C2792 0.960 . S
H2778 C2792 0.960 . S
H2779 C2792 0.960 . S
C2780 H2772 0.929 . S
C2780 C2781 1.377 . S
C2780 C2782 1.384 . S
C2781 C2780 1.377 . S
C2781 C2787 1.390 . S
C2782 H2773 0.930 . S
C2782 C2780 1.384 . S
C2782 C2783 1.372 . S
C2783 C2782 1.372 . S
C2783 C2784 1.400 . S
C2783 C2788 1.490 . S
C2784 H2774 0.930 . S
C2784 C2783 1.400 . S
C2784 C2787 1.386 . S
H2785 C2801 0.930 . S
H2786 C2802 0.931 . S
C2787 H2775 0.929 . S
C2787 C2781 1.390 . S
C2787 C2784 1.386 . S
C2788 C2783 1.490 . S
C2788 C2790 1.395 . S
C2788 C2791 1.403 . S
H2789 C2795 0.930 . S
C2790 H2776 0.930 . S
C2790 C2788 1.395 . S
C2790 C2793 1.403 . S
C2791 C2788 1.403 . S
C2791 C2792 1.524 . S
C2791 C2795 1.400 . S
C2792 H2777 0.960 . S
C2792 H2778 0.960 . S
C2792 H2779 0.960 . S
C2792 C2791 1.524 . S
C2793 C2790 1.403 . S
C2793 C2794 1.392 . S
C2793 C2797 1.495 . S
C2794 C2793 1.392 . S
C2794 C2795 1.385 . S
C2794 C2796 1.478 . S
C2795 H2789 0.930 . S
C2795 C2791 1.400 . S
C2795 C2794 1.385 . S
C2796 C2794 1.478 . S
C2796 C2798 1.381 . S
C2796 C2802 1.383 . S
C2797 C2793 1.495 . S
C2797 H2803 0.959 . S
C2797 H2804 0.961 . S
C2797 H2805 0.960 . S
C2798 C2796 1.381 . S
C2798 C2799 1.394 . S
C2798 H2806 0.930 . S
C2799 C2798 1.394 . S
C2799 C2800 1.383 . S
C2799 H2807 0.929 . S
C2800 C2799 1.383 . S
C2800 C2801 1.377 . S
C2801 H2785 0.930 . S
C2801 C2800 1.377 . S
C2801 C2802 1.379 . S
C2802 H2786 0.931 . S
C2802 C2796 1.383 . S
C2802 C2801 1.379 . S
H2803 C2797 0.959 . S
H2804 C2797 0.961 . S
H2805 C2797 0.960 . S
H2806 C2798 0.930 . S
H2807 C2799 0.929 . S
H2808 C2816 0.929 . S
H2809 C2818 0.930 . S
H2810 C2820 0.930 . S
H2811 C2823 0.929 . S
H2812 C2826 0.930 . S
H2813 C2828 0.960 . S
H2814 C2828 0.960 . S
H2815 C2828 0.960 . S
C2816 H2808 0.929 . S
C2816 C2817 1.377 . S
C2816 C2818 1.384 . S
C2817 C2816 1.377 . S
C2817 C2823 1.390 . S
C2818 H2809 0.930 . S
C2818 C2816 1.384 . S
C2818 C2819 1.372 . S
C2819 C2818 1.372 . S
C2819 C2820 1.400 . S
C2819 C2824 1.490 . S
C2820 H2810 0.930 . S
C2820 C2819 1.400 . S
C2820 C2823 1.386 . S
H2821 C2837 0.930 . S
H2822 C2838 0.931 . S
C2823 H2811 0.929 . S
C2823 C2817 1.390 . S
C2823 C2820 1.386 . S
C2824 C2819 1.490 . S
C2824 C2826 1.395 . S
C2824 C2827 1.403 . S
H2825 C2831 0.930 . S
C2826 H2812 0.930 . S
C2826 C2824 1.395 . S
C2826 C2829 1.403 . S
C2827 C2824 1.403 . S
C2827 C2828 1.524 . S
C2827 C2831 1.400 . S
C2828 H2813 0.960 . S
C2828 H2814 0.960 . S
C2828 H2815 0.960 . S
C2828 C2827 1.524 . S
C2829 C2826 1.403 . S
C2829 C2830 1.392 . S
C2829 C2833 1.495 . S
C2830 C2829 1.392 . S
C2830 C2831 1.385 . S
C2830 C2832 1.478 . S
C2831 H2825 0.930 . S
C2831 C2827 1.400 . S
C2831 C2830 1.385 . S
C2832 C2830 1.478 . S
C2832 C2834 1.381 . S
C2832 C2838 1.383 . S
C2833 C2829 1.495 . S
C2833 H2839 0.959 . S
C2833 H2840 0.961 . S
C2833 H2841 0.960 . S
C2834 C2832 1.381 . S
C2834 C2835 1.394 . S
C2834 H2842 0.930 . S
C2835 C2834 1.394 . S
C2835 C2836 1.383 . S
C2835 H2843 0.929 . S
C2836 C2835 1.383 . S
C2836 C2837 1.377 . S
C2837 H2821 0.930 . S
C2837 C2836 1.377 . S
C2837 C2838 1.379 . S
C2838 H2822 0.931 . S
C2838 C2832 1.383 . S
C2838 C2837 1.379 . S
H2839 C2833 0.959 . S
H2840 C2833 0.961 . S
H2841 C2833 0.960 . S
H2842 C2834 0.930 . S
H2843 C2835 0.929 . S
H2844 C2852 0.929 . S
H2845 C2854 0.930 . S
H2846 C2856 0.930 . S
H2847 C2859 0.929 . S
H2848 C2862 0.930 . S
H2849 C2864 0.960 . S
H2850 C2864 0.960 . S
H2851 C2864 0.960 . S
C2852 H2844 0.929 . S
C2852 C2853 1.377 . S
C2852 C2854 1.384 . S
C2853 C2852 1.377 . S
C2853 C2859 1.390 . S
C2854 H2845 0.930 . S
C2854 C2852 1.384 . S
C2854 C2855 1.372 . S
C2855 C2854 1.372 . S
C2855 C2856 1.400 . S
C2855 C2860 1.490 . S
C2856 H2846 0.930 . S
C2856 C2855 1.400 . S
C2856 C2859 1.386 . S
H2857 C2873 0.930 . S
H2858 C2874 0.931 . S
C2859 H2847 0.929 . S
C2859 C2853 1.390 . S
C2859 C2856 1.386 . S
C2860 C2855 1.490 . S
C2860 C2862 1.395 . S
C2860 C2863 1.403 . S
H2861 C2867 0.930 . S
C2862 H2848 0.930 . S
C2862 C2860 1.395 . S
C2862 C2865 1.403 . S
C2863 C2860 1.403 . S
C2863 C2864 1.524 . S
C2863 C2867 1.400 . S
C2864 H2849 0.960 . S
C2864 H2850 0.960 . S
C2864 H2851 0.960 . S
C2864 C2863 1.524 . S
C2865 C2862 1.403 . S
C2865 C2866 1.392 . S
C2865 C2869 1.495 . S
C2866 C2865 1.392 . S
C2866 C2867 1.385 . S
C2866 C2868 1.478 . S
C2867 H2861 0.930 . S
C2867 C2863 1.400 . S
C2867 C2866 1.385 . S
C2868 C2866 1.478 . S
C2868 C2870 1.381 . S
C2868 C2874 1.383 . S
C2869 C2865 1.495 . S
C2869 H2875 0.959 . S
C2869 H2876 0.961 . S
C2869 H2877 0.960 . S
C2870 C2868 1.381 . S
C2870 C2871 1.394 . S
C2870 H2878 0.930 . S
C2871 C2870 1.394 . S
C2871 C2872 1.383 . S
C2871 H2879 0.929 . S
C2872 C2871 1.383 . S
C2872 C2873 1.377 . S
C2873 H2857 0.930 . S
C2873 C2872 1.377 . S
C2873 C2874 1.379 . S
C2874 H2858 0.931 . S
C2874 C2868 1.383 . S
C2874 C2873 1.379 . S
H2875 C2869 0.959 . S
H2876 C2869 0.961 . S
H2877 C2869 0.960 . S
H2878 C2870 0.930 . S
H2879 C2871 0.929 . S
H2880 C2888 0.929 . S
H2881 C2890 0.930 . S
H2882 C2892 0.930 . S
H2883 C2895 0.929 . S
H2884 C2898 0.930 . S
H2885 C2900 0.960 . S
H2886 C2900 0.960 . S
H2887 C2900 0.960 . S
C2888 H2880 0.929 . S
C2888 C2889 1.377 . S
C2888 C2890 1.384 . S
C2889 C2888 1.377 . S
C2889 C2895 1.390 . S
C2890 H2881 0.930 . S
C2890 C2888 1.384 . S
C2890 C2891 1.372 . S
C2891 C2890 1.372 . S
C2891 C2892 1.400 . S
C2891 C2896 1.490 . S
C2892 H2882 0.930 . S
C2892 C2891 1.400 . S
C2892 C2895 1.386 . S
H2893 C2909 0.930 . S
H2894 C2910 0.931 . S
C2895 H2883 0.929 . S
C2895 C2889 1.390 . S
C2895 C2892 1.386 . S
C2896 C2891 1.490 . S
C2896 C2898 1.395 . S
C2896 C2899 1.403 . S
H2897 C2903 0.930 . S
C2898 H2884 0.930 . S
C2898 C2896 1.395 . S
C2898 C2901 1.403 . S
C2899 C2896 1.403 . S
C2899 C2900 1.524 . S
C2899 C2903 1.400 . S
C2900 H2885 0.960 . S
C2900 H2886 0.960 . S
C2900 H2887 0.960 . S
C2900 C2899 1.524 . S
C2901 C2898 1.403 . S
C2901 C2902 1.392 . S
C2901 C2905 1.495 . S
C2902 C2901 1.392 . S
C2902 C2903 1.385 . S
C2902 C2904 1.478 . S
C2903 H2897 0.930 . S
C2903 C2899 1.400 . S
C2903 C2902 1.385 . S
C2904 C2902 1.478 . S
C2904 C2906 1.381 . S
C2904 C2910 1.383 . S
C2905 C2901 1.495 . S
C2905 H2911 0.959 . S
C2905 H2912 0.961 . S
C2905 H2913 0.960 . S
C2906 C2904 1.381 . S
C2906 C2907 1.394 . S
C2906 H2914 0.930 . S
C2907 C2906 1.394 . S
C2907 C2908 1.383 . S
C2907 H2915 0.929 . S
C2908 C2907 1.383 . S
C2908 C2909 1.377 . S
C2909 H2893 0.930 . S
C2909 C2908 1.377 . S
C2909 C2910 1.379 . S
C2910 H2894 0.931 . S
C2910 C2904 1.383 . S
C2910 C2909 1.379 . S
H2911 C2905 0.959 . S
H2912 C2905 0.961 . S
H2913 C2905 0.960 . S
H2914 C2906 0.930 . S
H2915 C2907 0.929 . S
H2916 C2924 0.929 . S
H2917 C2926 0.930 . S
H2918 C2928 0.930 . S
H2919 C2931 0.929 . S
H2920 C2934 0.930 . S
H2921 C2936 0.960 . S
H2922 C2936 0.960 . S
H2923 C2936 0.960 . S
C2924 H2916 0.929 . S
C2924 C2925 1.377 . S
C2924 C2926 1.384 . S
C2925 C2924 1.377 . S
C2925 C2931 1.390 . S
C2926 H2917 0.930 . S
C2926 C2924 1.384 . S
C2926 C2927 1.372 . S
C2927 C2926 1.372 . S
C2927 C2928 1.400 . S
C2927 C2932 1.490 . S
C2928 H2918 0.930 . S
C2928 C2927 1.400 . S
C2928 C2931 1.386 . S
H2929 C2945 0.930 . S
H2930 C2946 0.931 . S
C2931 H2919 0.929 . S
C2931 C2925 1.390 . S
C2931 C2928 1.386 . S
C2932 C2927 1.490 . S
C2932 C2934 1.395 . S
C2932 C2935 1.403 . S
H2933 C2939 0.930 . S
C2934 H2920 0.930 . S
C2934 C2932 1.395 . S
C2934 C2937 1.403 . S
C2935 C2932 1.403 . S
C2935 C2936 1.524 . S
C2935 C2939 1.400 . S
C2936 H2921 0.960 . S
C2936 H2922 0.960 . S
C2936 H2923 0.960 . S
C2936 C2935 1.524 . S
C2937 C2934 1.403 . S
C2937 C2938 1.392 . S
C2937 C2941 1.495 . S
C2938 C2937 1.392 . S
C2938 C2939 1.385 . S
C2938 C2940 1.478 . S
C2939 H2933 0.930 . S
C2939 C2935 1.400 . S
C2939 C2938 1.385 . S
C2940 C2938 1.478 . S
C2940 C2942 1.381 . S
C2940 C2946 1.383 . S
C2941 C2937 1.495 . S
C2941 H2947 0.959 . S
C2941 H2948 0.961 . S
C2941 H2949 0.960 . S
C2942 C2940 1.381 . S
C2942 C2943 1.394 . S
C2942 H2950 0.930 . S
C2943 C2942 1.394 . S
C2943 C2944 1.383 . S
C2943 H2951 0.929 . S
C2944 C2943 1.383 . S
C2944 C2945 1.377 . S
C2945 H2929 0.930 . S
C2945 C2944 1.377 . S
C2945 C2946 1.379 . S
C2946 H2930 0.931 . S
C2946 C2940 1.383 . S
C2946 C2945 1.379 . S
H2947 C2941 0.959 . S
H2948 C2941 0.961 . S
H2949 C2941 0.960 . S
H2950 C2942 0.930 . S
H2951 C2943 0.929 . S
H2952 C2960 0.929 . S
H2953 C2962 0.930 . S
H2954 C2964 0.930 . S
H2955 C2967 0.929 . S
H2956 C2970 0.930 . S
H2957 C2972 0.960 . S
H2958 C2972 0.960 . S
H2959 C2972 0.960 . S
C2960 H2952 0.929 . S
C2960 C2961 1.377 . S
C2960 C2962 1.384 . S
C2961 C2960 1.377 . S
C2961 C2967 1.390 . S
C2962 H2953 0.930 . S
C2962 C2960 1.384 . S
C2962 C2963 1.372 . S
C2963 C2962 1.372 . S
C2963 C2964 1.400 . S
C2963 C2968 1.490 . S
C2964 H2954 0.930 . S
C2964 C2963 1.400 . S
C2964 C2967 1.386 . S
H2965 C2981 0.930 . S
H2966 C2982 0.931 . S
C2967 H2955 0.929 . S
C2967 C2961 1.390 . S
C2967 C2964 1.386 . S
C2968 C2963 1.490 . S
C2968 C2970 1.395 . S
C2968 C2971 1.403 . S
H2969 C2975 0.930 . S
C2970 H2956 0.930 . S
C2970 C2968 1.395 . S
C2970 C2973 1.403 . S
C2971 C2968 1.403 . S
C2971 C2972 1.524 . S
C2971 C2975 1.400 . S
C2972 H2957 0.960 . S
C2972 H2958 0.960 . S
C2972 H2959 0.960 . S
C2972 C2971 1.524 . S
C2973 C2970 1.403 . S
C2973 C2974 1.392 . S
C2973 C2977 1.495 . S
C2974 C2973 1.392 . S
C2974 C2975 1.385 . S
C2974 C2976 1.478 . S
C2975 H2969 0.930 . S
C2975 C2971 1.400 . S
C2975 C2974 1.385 . S
C2976 C2974 1.478 . S
C2976 C2978 1.381 . S
C2976 C2982 1.383 . S
C2977 C2973 1.495 . S
C2977 H2983 0.959 . S
C2977 H2984 0.961 . S
C2977 H2985 0.960 . S
C2978 C2976 1.381 . S
C2978 C2979 1.394 . S
C2978 H2986 0.930 . S
C2979 C2978 1.394 . S
C2979 C2980 1.383 . S
C2979 H2987 0.929 . S
C2980 C2979 1.383 . S
C2980 C2981 1.377 . S
C2981 H2965 0.930 . S
C2981 C2980 1.377 . S
C2981 C2982 1.379 . S
C2982 H2966 0.931 . S
C2982 C2976 1.383 . S
C2982 C2981 1.379 . S
H2983 C2977 0.959 . S
H2984 C2977 0.961 . S
H2985 C2977 0.960 . S
H2986 C2978 0.930 . S
H2987 C2979 0.929 . S
H2988 C2996 0.929 . S
H2989 C2998 0.930 . S
H2990 C3000 0.930 . S
H2991 C3003 0.929 . S
H2992 C3006 0.930 . S
H2993 C3008 0.960 . S
H2994 C3008 0.960 . S
H2995 C3008 0.960 . S
C2996 H2988 0.929 . S
C2996 C2997 1.377 . S
C2996 C2998 1.384 . S
C2997 C2996 1.377 . S
C2997 C3003 1.390 . S
C2998 H2989 0.930 . S
C2998 C2996 1.384 . S
C2998 C2999 1.372 . S
C2999 C2998 1.372 . S
C2999 C3000 1.400 . S
C2999 C3004 1.490 . S
C3000 H2990 0.930 . S
C3000 C2999 1.400 . S
C3000 C3003 1.386 . S
H3001 C3017 0.930 . S
H3002 C3018 0.931 . S
C3003 H2991 0.929 . S
C3003 C2997 1.390 . S
C3003 C3000 1.386 . S
C3004 C2999 1.490 . S
C3004 C3006 1.395 . S
C3004 C3007 1.403 . S
H3005 C3011 0.930 . S
C3006 H2992 0.930 . S
C3006 C3004 1.395 . S
C3006 C3009 1.403 . S
C3007 C3004 1.403 . S
C3007 C3008 1.524 . S
C3007 C3011 1.400 . S
C3008 H2993 0.960 . S
C3008 H2994 0.960 . S
C3008 H2995 0.960 . S
C3008 C3007 1.524 . S
C3009 C3006 1.403 . S
C3009 C3010 1.392 . S
C3009 C3013 1.495 . S
C3010 C3009 1.392 . S
C3010 C3011 1.385 . S
C3010 C3012 1.478 . S
C3011 H3005 0.930 . S
C3011 C3007 1.400 . S
C3011 C3010 1.385 . S
C3012 C3010 1.478 . S
C3012 C3014 1.381 . S
C3012 C3018 1.383 . S
C3013 C3009 1.495 . S
C3013 H3019 0.959 . S
C3013 H3020 0.961 . S
C3013 H3021 0.960 . S
C3014 C3012 1.381 . S
C3014 C3015 1.394 . S
C3014 H3022 0.930 . S
C3015 C3014 1.394 . S
C3015 C3016 1.383 . S
C3015 H3023 0.929 . S
C3016 C3015 1.383 . S
C3016 C3017 1.377 . S
C3017 H3001 0.930 . S
C3017 C3016 1.377 . S
C3017 C3018 1.379 . S
C3018 H3002 0.931 . S
C3018 C3012 1.383 . S
C3018 C3017 1.379 . S
H3019 C3013 0.959 . S
H3020 C3013 0.961 . S
H3021 C3013 0.960 . S
H3022 C3014 0.930 . S
H3023 C3015 0.929 . S
H3024 C3032 0.929 1_545 S
H3025 C3034 0.930 1_545 S
H3026 C3036 0.930 . S
H3027 C3039 0.929 . S
H3028 C3042 0.930 . S
H3029 C3044 0.960 . S
H3030 C3044 0.960 . S
H3031 C3044 0.960 . S
C3032 H3024 0.929 1_565 S
C3032 C3033 1.377 . S
C3032 C3034 1.384 . S
C3033 C3032 1.377 . S
C3033 C3039 1.390 . S
C3034 H3025 0.930 1_565 S
C3034 C3032 1.384 . S
C3034 C3035 1.372 . S
C3035 C3034 1.372 . S
C3035 C3036 1.400 . S
C3035 C3040 1.490 . S
C3036 H3026 0.930 . S
C3036 C3035 1.400 . S
C3036 C3039 1.386 . S
H3037 C3053 0.930 . S
H3038 C3054 0.931 . S
C3039 H3027 0.929 . S
C3039 C3033 1.390 . S
C3039 C3036 1.386 . S
C3040 C3035 1.490 . S
C3040 C3042 1.395 . S
C3040 C3043 1.403 . S
H3041 C3047 0.930 . S
C3042 H3028 0.930 . S
C3042 C3040 1.395 . S
C3042 C3045 1.403 . S
C3043 C3040 1.403 . S
C3043 C3044 1.524 . S
C3043 C3047 1.400 . S
C3044 H3029 0.960 . S
C3044 H3030 0.960 . S
C3044 H3031 0.960 . S
C3044 C3043 1.524 . S
C3045 C3042 1.403 . S
C3045 C3046 1.392 . S
C3045 C3049 1.495 . S
C3046 C3045 1.392 . S
C3046 C3047 1.385 . S
C3046 C3048 1.478 . S
C3047 H3041 0.930 . S
C3047 C3043 1.400 . S
C3047 C3046 1.385 . S
C3048 C3046 1.478 . S
C3048 C3050 1.381 . S
C3048 C3054 1.383 . S
C3049 C3045 1.495 . S
C3049 H3055 0.959 . S
C3049 H3056 0.961 . S
C3049 H3057 0.960 . S
C3050 C3048 1.381 . S
C3050 C3051 1.394 . S
C3050 H3058 0.930 1_565 S
C3051 C3050 1.394 . S
C3051 C3052 1.383 . S
C3051 H3059 0.929 1_565 S
C3052 C3051 1.383 . S
C3052 C3053 1.377 . S
C3053 H3037 0.930 . S
C3053 C3052 1.377 . S
C3053 C3054 1.379 . S
C3054 H3038 0.931 . S
C3054 C3048 1.383 . S
C3054 C3053 1.379 . S
H3055 C3049 0.959 . S
H3056 C3049 0.961 . S
H3057 C3049 0.960 . S
H3058 C3050 0.930 1_545 S
H3059 C3051 0.929 1_545 S
H3060 C3068 0.929 . S
H3061 C3070 0.930 . S
H3062 C3072 0.930 . S
H3063 C3075 0.929 . S
H3064 C3078 0.930 . S
H3065 C3080 0.960 . S
H3066 C3080 0.960 . S
H3067 C3080 0.960 . S
C3068 H3060 0.929 . S
C3068 C3069 1.377 . S
C3068 C3070 1.384 . S
C3069 C3068 1.377 . S
C3069 C3075 1.390 . S
C3070 H3061 0.930 . S
C3070 C3068 1.384 . S
C3070 C3071 1.372 . S
C3071 C3070 1.372 . S
C3071 C3072 1.400 . S
C3071 C3076 1.490 . S
C3072 H3062 0.930 . S
C3072 C3071 1.400 . S
C3072 C3075 1.386 . S
H3073 C3089 0.930 . S
H3074 C3090 0.931 . S
C3075 H3063 0.929 . S
C3075 C3069 1.390 . S
C3075 C3072 1.386 . S
C3076 C3071 1.490 . S
C3076 C3078 1.395 . S
C3076 C3079 1.403 . S
H3077 C3083 0.930 . S
C3078 H3064 0.930 . S
C3078 C3076 1.395 . S
C3078 C3081 1.403 . S
C3079 C3076 1.403 . S
C3079 C3080 1.524 . S
C3079 C3083 1.400 . S
C3080 H3065 0.960 . S
C3080 H3066 0.960 . S
C3080 H3067 0.960 . S
C3080 C3079 1.524 . S
C3081 C3078 1.403 . S
C3081 C3082 1.392 . S
C3081 C3085 1.495 . S
C3082 C3081 1.392 . S
C3082 C3083 1.385 . S
C3082 C3084 1.478 . S
C3083 H3077 0.930 . S
C3083 C3079 1.400 . S
C3083 C3082 1.385 . S
C3084 C3082 1.478 . S
C3084 C3086 1.381 . S
C3084 C3090 1.383 . S
C3085 C3081 1.495 . S
C3085 H3091 0.959 . S
C3085 H3092 0.961 . S
C3085 H3093 0.960 . S
C3086 C3084 1.381 . S
C3086 C3087 1.394 . S
C3086 H3094 0.930 . S
C3087 C3086 1.394 . S
C3087 C3088 1.383 . S
C3087 H3095 0.929 . S
C3088 C3087 1.383 . S
C3088 C3089 1.377 . S
C3089 H3073 0.930 . S
C3089 C3088 1.377 . S
C3089 C3090 1.379 . S
C3090 H3074 0.931 . S
C3090 C3084 1.383 . S
C3090 C3089 1.379 . S
H3091 C3085 0.959 . S
H3092 C3085 0.961 . S
H3093 C3085 0.960 . S
H3094 C3086 0.930 . S
H3095 C3087 0.929 . S
C513 C3 1.624 . S
C532 C157 1.618 . S
C549 C129 1.624 . S
C568 C17 1.620 . S
C585 C143 1.623 . S
C604 C31 1.621 . S
C621 C45 1.623 . S
C640 C101 1.619 . S
C657 C59 1.623 . S
C676 C115 1.619 . S
C693 C73 1.623 . S
C712 C87 1.618 . S
C729 C171 1.623 . S
C748 C325 1.622 . S
C765 C297 1.623 . S
C784 C185 1.620 . S
C801 C199 1.623 . S
C820 C311 1.619 . S
C837 C213 1.623 . S
C856 C269 1.621 . S
C873 C227 1.623 . S
C892 C283 1.618 . S
C909 C241 1.623 . S
C928 C255 1.618 . S
C945 C339 1.624 . S
C964 C493 1.618 . S
C981 C353 1.623 . S
C1000 C465 1.618 . S
C1017 C479 1.624 . S
C1036 C367 1.618 . S
C1053 C381 1.623 . S
C1072 C437 1.621 . S
C1089 C451 1.624 . S
C1108 C395 1.620 . S
C1125 C423 1.624 . S
C1144 C409 1.618 . S
C1161 C8 1.172 . S
C1180 C218 1.181 1_455 S
C1197 C22 1.168 . S
C1216 C232 1.164 . S
C1233 C36 1.167 . S
C1252 C246 1.179 . S
C1269 C50 1.172 . S
C1288 C344 1.147 1_545 S
C1305 C358 1.172 . S
C1324 C64 1.179 . S
C1341 C372 1.171 . S
C1360 C78 1.152 . S
C1377 C92 1.173 . S
C1396 C470 1.176 . S
C1413 C484 1.170 . S
C1432 C106 1.162 . S
C1449 C120 1.168 . S
C1468 C498 1.150 1_545 S
C1485 C134 1.174 . S
C1504 C260 1.185 . S
C1521 C148 1.174 . S
C1540 C274 1.183 1_455 S
C1557 C162 1.167 . S
C1576 C288 1.153 . S
C1593 C386 1.170 . S
C1612 C176 1.185 . S
C1629 C190 1.168 . S
C1648 C400 1.184 1_545 S
C1665 C204 1.170 1_455 S
C1684 C414 1.156 . S
C1701 C428 1.167 . S
C1720 C302 1.152 . S
C1737 C442 1.173 1_545 S
C1756 C316 1.180 . S
C1773 C330 1.169 1_455 S
C1792 C456 1.162 . S
C1809 C9 1.171 . S
C1828 C65 1.201 . S
C1845 C79 1.175 . S
C1864 C23 1.189 . S
C1881 C51 1.173 . S
C1900 C37 1.137 . S
C1917 C93 1.179 . S
C1936 C149 1.149 . S
C1953 C163 1.179 . S
C1972 C107 1.149 . S
C1989 C121 1.178 . S
C2008 C135 1.172 . S
C2025 C233 1.177 . S
C2044 C177 1.180 . S
C2061 C191 1.169 . S
C2080 C247 1.152 . S
C2097 C205 1.179 . S
C2116 C219 1.155 . S
C2133 C317 1.174 . S
C2152 C261 1.135 . S
C2169 C331 1.165 . S
C2188 C275 1.190 . S
C2205 C303 1.179 . S
C2224 C289 1.155 . S
C2241 C345 1.178 . S
C2260 C401 1.140 . S
C2277 C359 1.167 . S
C2296 C415 1.202 . S
C2313 C373 1.172 . S
C2332 C387 1.138 . S
C2349 C485 1.178 . S
C2368 C429 1.168 . S
C2385 C499 1.167 . S
C2404 C443 1.202 . S
C2421 C471 1.174 . S
C2440 C457 1.136 . S
C2457 C133 1.597 . S
C2476 C7 1.571 . S
C2493 C147 1.591 . S
C2512 C21 1.596 . S
C2529 C35 1.597 . S
C2548 C161 1.571 . S
C2565 C49 1.592 . S
C2584 C91 1.585 . S
C2601 C105 1.594 . S
C2620 C63 1.577 . S
C2637 C77 1.591 . S
C2656 C119 1.589 . S
C2673 C301 1.596 . S
C2692 C175 1.572 . S
C2709 C315 1.597 . S
C2728 C189 1.599 . S
C2745 C203 1.597 . S
C2764 C329 1.572 . S
C2781 C259 1.596 . S
C2800 C217 1.572 . S
C2817 C273 1.598 . S
C2836 C231 1.591 . S
C2853 C287 1.599 . S
C2872 C245 1.579 . S
C2889 C343 1.599 . S
C2908 C469 1.588 . S
C2925 C483 1.596 . S
C2944 C357 1.604 . S
C2961 C371 1.597 . S
C2980 C497 1.598 . S
C2997 C385 1.599 . S
C3016 C427 1.588 . S
C3033 C399 1.599 . S
C3052 C441 1.578 . S
C3069 C455 1.596 . S
C3088 C413 1.605 . S
