# Generated by pormake.
# Topology wjd, (6)-cn, num edge types: 1
# Building blocks:
#     Node 0, Type 0, BuildingBlock: KUMJIN_clean_sbu_0, # of connection points: 6
#     Node 1, Type 0, BuildingBlock: KUMJIN_clean_sbu_0, # of connection points: 6
#     Node 2, Type 0, BuildingBlock: KUMJIN_clean_sbu_0, # of connection points: 6
#     Node 3, Type 0, BuildingBlock: KUMJIN_clean_sbu_0, # of connection points: 6
#     Node 4, Type 0, BuildingBlock: KUMJIN_clean_sbu_0, # of connection points: 6
#     Node 5, Type 0, BuildingBlock: KUMJIN_clean_sbu_0, # of connection points: 6
#     Node 6, Type 0, BuildingBlock: KUMJIN_clean_sbu_0, # of connection points: 6
#     Node 7, Type 0, BuildingBlock: KUMJIN_clean_sbu_0, # of connection points: 6
#     Node 8, Type 0, BuildingBlock: KUMJIN_clean_sbu_0, # of connection points: 6
#     Node 9, Type 0, BuildingBlock: KUMJIN_clean_sbu_0, # of connection points: 6
#     Node 10, Type 0, BuildingBlock: KUMJIN_clean_sbu_0, # of connection points: 6
#     Node 11, Type 0, BuildingBlock: KUMJIN_clean_sbu_0, # of connection points: 6
#     Edge 12, Type (0, 0), BuildingBlock: OJICUG_clean_linker_0, # of connection points: 2
#     Edge 13, Type (0, 0), BuildingBlock: OJICUG_clean_linker_0, # of connection points: 2
#     Edge 14, Type (0, 0), BuildingBlock: OJICUG_clean_linker_0, # of connection points: 2
#     Edge 15, Type (0, 0), BuildingBlock: OJICUG_clean_linker_0, # of connection points: 2
#     Edge 16, Type (0, 0), BuildingBlock: OJICUG_clean_linker_0, # of connection points: 2
#     Edge 17, Type (0, 0), BuildingBlock: OJICUG_clean_linker_0, # of connection points: 2
#     Edge 18, Type (0, 0), BuildingBlock: OJICUG_clean_linker_0, # of connection points: 2
#     Edge 19, Type (0, 0), BuildingBlock: OJICUG_clean_linker_0, # of connection points: 2
#     Edge 20, Type (0, 0), BuildingBlock: OJICUG_clean_linker_0, # of connection points: 2
#     Edge 21, Type (0, 0), BuildingBlock: OJICUG_clean_linker_0, # of connection points: 2
#     Edge 22, Type (0, 0), BuildingBlock: OJICUG_clean_linker_0, # of connection points: 2
#     Edge 23, Type (0, 0), BuildingBlock: OJICUG_clean_linker_0, # of connection points: 2
#     Edge 24, Type (0, 0), BuildingBlock: OJICUG_clean_linker_0, # of connection points: 2
#     Edge 25, Type (0, 0), BuildingBlock: OJICUG_clean_linker_0, # of connection points: 2
#     Edge 26, Type (0, 0), BuildingBlock: OJICUG_clean_linker_0, # of connection points: 2
#     Edge 27, Type (0, 0), BuildingBlock: OJICUG_clean_linker_0, # of connection points: 2
#     Edge 28, Type (0, 0), BuildingBlock: OJICUG_clean_linker_0, # of connection points: 2
#     Edge 29, Type (0, 0), BuildingBlock: OJICUG_clean_linker_0, # of connection points: 2
#     Edge 30, Type (0, 0), BuildingBlock: OJICUG_clean_linker_0, # of connection points: 2
#     Edge 31, Type (0, 0), BuildingBlock: OJICUG_clean_linker_0, # of connection points: 2
#     Edge 32, Type (0, 0), BuildingBlock: OJICUG_clean_linker_0, # of connection points: 2
#     Edge 33, Type (0, 0), BuildingBlock: OJICUG_clean_linker_0, # of connection points: 2
#     Edge 34, Type (0, 0), BuildingBlock: OJICUG_clean_linker_0, # of connection points: 2
#     Edge 35, Type (0, 0), BuildingBlock: OJICUG_clean_linker_0, # of connection points: 2
#     Edge 36, Type (0, 0), BuildingBlock: OJICUG_clean_linker_0, # of connection points: 2
#     Edge 37, Type (0, 0), BuildingBlock: OJICUG_clean_linker_0, # of connection points: 2
#     Edge 38, Type (0, 0), BuildingBlock: OJICUG_clean_linker_0, # of connection points: 2
#     Edge 39, Type (0, 0), BuildingBlock: OJICUG_clean_linker_0, # of connection points: 2
#     Edge 40, Type (0, 0), BuildingBlock: OJICUG_clean_linker_0, # of connection points: 2
#     Edge 41, Type (0, 0), BuildingBlock: OJICUG_clean_linker_0, # of connection points: 2
#     Edge 42, Type (0, 0), BuildingBlock: OJICUG_clean_linker_0, # of connection points: 2
#     Edge 43, Type (0, 0), BuildingBlock: OJICUG_clean_linker_0, # of connection points: 2
#     Edge 44, Type (0, 0), BuildingBlock: OJICUG_clean_linker_0, # of connection points: 2
#     Edge 45, Type (0, 0), BuildingBlock: OJICUG_clean_linker_0, # of connection points: 2
#     Edge 46, Type (0, 0), BuildingBlock: OJICUG_clean_linker_0, # of connection points: 2
#     Edge 47, Type (0, 0), BuildingBlock: OJICUG_clean_linker_0, # of connection points: 2
# Relax obj value: 0.094
# Max RMSD: 0.225
# Mean RMSD: 0.225
data_MOF--net-wjd--node1-KUMJIN_clean_sbu_0--edge1-OJICUG_clean_linker_0
_symmetry_space_group_name_H-M    P1
_symmetry_Int_Tables_number       1
_symmetry_cell_setting            triclinic
loop_
_symmetry_equiv_pos_as_xyz
'x, y, z'
_cell_length_a     30.512056
_cell_length_b     30.453883
_cell_length_c     40.545956
_cell_angle_alpha  90.03671
_cell_angle_beta   89.883515
_cell_angle_gamma 119.90905
loop_
_atom_site_label
_atom_site_type_symbol
_atom_site_fract_x
_atom_site_fract_y
_atom_site_fract_z
_atom_type_partial_charge
Eu0 Eu 0.40395 0.20318 0.08911 0.0
C1 C 0.35873 0.02578 0.17846 0.0
C2 C 0.40694 0.99059 0.1539 0.0
C3 C 0.39096 0.98229 0.21268 0.0
C4 C 0.3803 1.01742 0.15086 0.0
C5 C 0.36186 1.00592 0.20933 0.0
C6 C 0.41387 0.97504 0.18503 0.0
C7 C 0.30403 0.0304 0.23131 0.0
N8 N 0.3302 0.04825 0.17467 0.0
C9 C 0.30113 0.04862 0.20041 0.0
C10 C 0.33382 1.00825 0.23574 0.0
Eu11 Eu 0.32589 0.07641 0.12048 0.0
N12 N 0.37061 0.03028 0.12078 0.0
C13 C 0.38175 1.01194 0.09302 0.0
C14 C 0.42295 0.97694 0.12541 0.0
C15 C 0.40899 0.98641 0.09486 0.0
H16 H 0.27644 0.06432 0.19742 0.0
H17 H 0.41886 0.97372 0.07256 0.0
H18 H 0.43457 0.9549 0.18771 0.0
H19 H 0.28387 0.03401 0.25185 0.0
H20 H 0.37046 1.01634 0.06888 0.0
H21 H 0.32705 0.29862 0.1626 0.0
H22 H 0.44348 0.95647 0.12674 0.0
H23 H 0.42665 0.21001 0.00826 0.0
H24 H 0.36569 0.24592 0.15255 0.0
H25 H 0.41635 0.25162 0.95908 0.0
H26 H 0.39443 0.96781 0.23636 0.0
H27 H 0.30285 0.33359 0.11552 0.0
H28 H 0.30267 0.34594 0.0545 0.0
H29 H 0.33461 0.9927 0.25962 0.0
H30 H 0.32945 0.33519 -0.00063 0.0
N31 N 0.36034 0.24743 0.10032 0.0
C32 C 0.3541 0.25951 0.13177 0.0
C33 C 0.31874 0.3093 0.11097 0.0
C34 C 0.32731 0.29869 0.0788 0.0
C35 C 0.33253 0.28986 0.13759 0.0
C36 C 0.348 0.26673 0.07416 0.0
H37 H 0.37421 0.30239 0.9642 0.0
N38 N 0.38328 0.23009 0.03961 0.0
C39 C 0.39939 0.25278 0.9823 0.0
C40 C 0.35967 0.25768 0.04281 0.0
C41 C 0.40446 0.22867 0.01006 0.0
C42 C 0.37483 0.28079 0.98516 0.0
C43 C 0.35443 0.28345 0.01552 0.0
O44 O 0.47956 0.25625 0.06921 0.0
O45 O 0.40826 0.1363 0.10893 0.0
O46 O 0.34444 0.12957 0.16339 0.0
O47 O 0.41615 0.20264 0.14616 0.0
O48 O 0.44438 0.16847 0.06435 0.0
O49 O 0.45657 0.27468 0.11424 0.0
O50 O 0.24823 0.03948 0.13868 0.0
O51 O 0.33027 0.15176 0.11225 0.0
O52 O 0.35771 0.14558 0.04553 0.0
O53 O 0.33798 0.06771 0.06756 0.0
O54 O 0.26921 0.09022 0.09226 0.0
O55 O 0.27047 1.00161 0.10244 0.0
C56 C 0.4373 0.13519 0.08645 0.0
C57 C 0.50893 0.34415 0.07914 0.0
C58 C 0.56511 0.43731 0.08064 0.0
C59 C 0.55043 0.38805 0.0933 0.0
C60 C 0.53572 0.44142 0.05543 0.0
C61 C 0.4838 0.35088 0.05249 0.0
C62 C 0.49596 0.39867 0.04133 0.0
C63 C 0.38492 0.17324 0.1699 0.0
C64 C 0.49091 0.2913 0.09134 0.0
C65 C 0.33309 0.31458 0.01995 0.0
C66 C 0.31843 0.32123 0.05141 0.0
C67 C 0.28919 0.13791 0.09722 0.0
C68 C 0.19878 0.95062 0.13544 0.0
C69 C 0.14696 0.92935 0.12903 0.0
C70 C 0.11185 0.8812 0.14143 0.0
C71 C 0.1302 0.85539 0.16086 0.0
C72 C 0.21607 0.92481 0.15519 0.0
C73 C 0.18172 0.87736 0.16794 0.0
C74 C 0.34155 0.09579 0.04232 0.0
C75 C 0.23388 0.99935 0.12049 0.0
H76 H 0.5717 0.38378 0.11316 0.0
H77 H 0.54398 0.47804 0.04602 0.0
H78 H 0.45497 0.31914 0.03973 0.0
H79 H 0.47486 0.40253 0.0212 0.0
H80 H 0.13436 0.95068 0.11436 0.0
H81 H 0.10512 0.8177 0.17019 0.0
H82 H 0.25597 0.94102 0.1604 0.0
H83 H 0.19514 0.85713 0.18295 0.0
Eu84 Eu 0.80279 0.73572 0.3615 0.0
C85 C 0.9485 0.73129 0.43022 0.0
C86 C 1.01819 0.74797 0.39384 0.0
C87 C 0.03388 0.79698 0.44408 0.0
C88 C 0.966 0.72205 0.40107 0.0
C89 C 0.98264 0.76763 0.45265 0.0
C90 C 0.05175 0.78681 0.41485 0.0
C91 C 0.91464 0.73801 0.49209 0.0
N92 N 0.89843 0.70332 0.43723 0.0
C93 C 0.88234 0.70279 0.46888 0.0
C94 C 0.96458 0.77205 0.48347 0.0
Eu95 Eu 0.84519 0.65359 0.39265 0.0
N96 N 0.93203 0.68799 0.37961 0.0
C97 C 0.9483 0.67259 0.35289 0.0
C98 C 0.03486 0.73459 0.36541 0.0
C99 C 0.99979 0.69593 0.34522 0.0
H100 H 0.84483 0.67512 0.47687 0.0
H101 H 1.01229 0.68444 0.32356 0.0
H102 H 0.09174 0.80837 0.40914 0.0
H103 H 0.9011 0.73849 0.51672 0.0
H104 H 0.92188 0.64234 0.3372 0.0
H105 H 0.63722 0.69496 0.43619 0.0
H106 H 0.07464 0.75347 0.35903 0.0
H107 H 0.79929 0.72293 0.27623 0.0
H108 H 0.72617 0.74424 0.41868 0.0
H109 H 0.7437 0.6599 0.2359 0.0
H110 H 0.06041 0.82604 0.4606 0.0
H111 H 0.57518 0.62478 0.40126 0.0
H112 H 0.5564 0.57705 0.34768 0.0
H113 H 0.98964 0.79925 0.5015 0.0
H114 H 0.58571 0.56745 0.29295 0.0
N115 N 0.71618 0.699 0.37631 0.0
C116 C 0.70012 0.71238 0.40398 0.0
C117 C 0.61448 0.6459 0.39376 0.0
C118 C 0.63026 0.63626 0.36356 0.0
C119 C 0.64938 0.68525 0.41361 0.0
C120 C 0.68189 0.66477 0.35509 0.0
H121 H 0.65562 0.59777 0.25107 0.0
N122 N 0.74763 0.69049 0.31645 0.0
C123 C 0.73053 0.6587 0.26088 0.0
C124 C 0.69825 0.65986 0.32429 0.0
C125 C 0.76259 0.69361 0.28429 0.0
C126 C 0.68086 0.6239 0.26948 0.0
C127 C 0.66357 0.62549 0.30117 0.0
O128 O 0.81614 0.79456 0.32511 0.0
O129 O 0.87196 0.72904 0.36927 0.0
O130 O 0.79415 0.66607 0.43196 0.0
O131 O 0.80602 0.74403 0.41591 0.0
O132 O 0.8759 0.79443 0.38564 0.0
O133 O 0.80198 0.80418 0.37616 0.0
O134 O 0.83673 0.59839 0.4308 0.0
O135 O 0.77417 0.65648 0.38284 0.0
O136 O 0.84704 0.7236 0.32108 0.0
O137 O 0.84843 0.65055 0.33568 0.0
O138 O 0.78086 0.59795 0.36174 0.0
O139 O 0.8476 0.5847 0.38048 0.0
C140 C 0.9019 0.77235 0.38102 0.0
C141 C 0.79419 0.85827 0.33784 0.0
C142 C 0.80223 0.94241 0.3405 0.0
C143 C 0.81889 0.90854 0.34973 0.0
C144 C 0.75995 0.92466 0.3196 0.0
C145 C 0.75204 0.84145 0.31735 0.0
C146 C 0.7351 0.87465 0.30825 0.0
C147 C 0.79211 0.70851 0.43813 0.0
C148 C 0.81378 0.82467 0.34709 0.0
C149 C 0.6127 0.59462 0.3102 0.0
C150 C 0.59603 0.60006 0.34134 0.0
C151 C 0.75042 0.61497 0.36677 0.0
C152 C 0.8845 0.55643 0.42011 0.0
C153 C 0.88338 0.51247 0.40711 0.0
C154 C 0.921 0.49993 0.41586 0.0
C155 C 0.95974 0.53274 0.43737 0.0
C156 C 0.92416 0.58814 0.44123 0.0
C157 C 0.96124 0.57622 0.4498 0.0
C158 C 0.85159 0.68382 0.31332 0.0
C159 C 0.84558 0.57017 0.4107 0.0
H160 H 0.85174 0.92151 0.36549 0.0
H161 H 0.74574 0.94939 0.31218 0.0
H162 H 0.73238 0.80281 0.30844 0.0
H163 H 0.7026 0.86161 0.29226 0.0
H164 H 0.85306 0.48797 0.39061 0.0
H165 H 0.98973 0.52535 0.44424 0.0
H166 H 0.92672 0.62242 0.45107 0.0
H167 H 0.99163 0.60107 0.46612 0.0
Eu168 Eu 0.85536 0.2209 0.09158 0.0
C169 C 0.04516 0.33119 0.18159 0.0
C170 C 0.07807 0.42058 0.17087 0.0
C171 C 0.09901 0.39402 0.22204 0.0
C172 C 0.04965 0.36944 0.16088 0.0
C173 C 0.07128 0.34327 0.21189 0.0
C174 C 0.10186 0.4325 0.20176 0.0
C175 C 0.04176 0.25415 0.21977 0.0
N176 N 1.01778 0.28237 0.17133 0.0
C177 C 1.01702 0.24403 0.1894 0.0
C178 C 0.06913 0.30401 0.23102 0.0
Eu179 Eu 0.98539 0.26939 0.11707 0.0
N180 N 1.02856 0.35706 0.1304 0.0
C181 C 0.03577 0.39443 0.1086 0.0
C182 C 0.08315 0.45848 0.14915 0.0
C183 C 0.06203 0.44527 0.11782 0.0
H184 H 0.99677 0.20554 0.18029 0.0
H185 H 0.0665 0.47428 0.10051 0.0
H186 H 0.12369 0.47154 0.20981 0.0
H187 H 0.04022 0.22363 0.23432 0.0
H188 H 1.02131 0.38622 0.08391 0.0
H189 H 0.73439 0.05362 0.16731 0.0
H190 H 0.10434 0.4981 0.15601 0.0
H191 H 0.84931 0.22125 0.00644 0.0
H192 H 0.78175 0.14375 0.15446 0.0
H193 H 0.84113 0.16379 0.96109 0.0
H194 H 0.11858 0.40391 0.24549 0.0
H195 H 0.72577 0.99055 0.12565 0.0
H196 H 0.74583 0.97236 0.06912 0.0
H197 H 0.08865 0.31187 0.2544 0.0
H198 H 0.78141 1.00351 0.01393 0.0
N199 N 0.80451 0.13387 0.10627 0.0
C200 C 0.78059 0.11761 0.13612 0.0
C201 C 0.74752 0.03055 0.11988 0.0
C202 C 0.7697 0.04707 0.08885 0.0
C203 C 0.75242 0.066 0.14346 0.0
C204 C 0.79702 0.09961 0.08233 0.0
H205 H 0.81778 0.07523 0.97322 0.0
N206 N 0.83559 0.16703 0.04434 0.0
C207 C 0.8345 0.15023 0.98629 0.0
C208 C 0.81489 0.11688 0.05084 0.0
C209 C 0.83944 0.18267 0.01217 0.0
C210 C 0.821 0.10024 -0.00678 0.0
C211 C 0.80774 0.08217 0.02549 0.0
O212 O 0.81648 0.25168 0.06217 0.0
O213 O 0.92968 0.29295 0.09752 0.0
O214 O 0.94098 0.25325 0.1645 0.0
O215 O 0.85648 0.21862 0.14816 0.0
O216 O 0.86771 0.28857 0.12089 0.0
O217 O 0.77871 0.20416 0.1041 0.0
O218 O 1.02298 0.22406 0.11673 0.0
O219 O 0.90788 0.19973 0.1138 0.0
O220 O 0.91439 0.24533 0.04709 0.0
O221 O 0.9911 0.30435 0.06854 0.0
O222 O 0.96498 0.19455 0.09186 0.0
O223 O 0.06137 0.29924 0.09601 0.0
C224 C 0.91412 0.31882 0.1133 0.0
C225 C 0.72536 0.20234 0.06108 0.0
C226 C 0.6323 0.16441 0.05966 0.0
C227 C 0.6786 0.18756 0.07743 0.0
C228 C 0.63456 0.15796 0.02533 0.0
C229 C 0.72506 0.19326 0.02716 0.0
C230 C 0.68009 0.17148 0.00953 0.0
C231 C 0.8923 0.23366 0.17095 0.0
C232 C 0.77435 0.22833 0.07912 0.0
C233 C 0.78539 0.0304 0.03281 0.0
C234 C 0.76521 1.0127 0.06421 0.0
C235 C 0.9182 0.16933 0.09966 0.0
C236 C 0.11185 0.26629 0.11816 0.0
C237 C 0.13146 0.23426 0.10957 0.0
C238 C 0.17517 0.23949 0.12539 0.0
C239 C 0.19864 0.27738 0.14958 0.0
C240 C 0.13656 0.30373 0.14217 0.0
C241 C 0.17954 0.30909 0.15779 0.0
C242 C 0.96318 0.28057 0.04329 0.0
C243 C 0.06443 0.25899 0.10324 0.0
H244 H 0.67842 0.19392 0.1037 0.0
H245 H 0.60101 0.14302 0.01016 0.0
H246 H 0.75975 0.20389 0.01396 0.0
H247 H 0.68058 0.16564 0.98322 0.0
H248 H 0.11226 0.2049 0.09121 0.0
H249 H 0.23246 0.2831 0.16201 0.0
H250 H 0.12268 0.32894 0.1489 0.0
H251 H 0.19824 0.33809 0.17637 0.0
Eu252 Eu 0.3201 0.07792 0.35842 0.0
C253 C 0.35145 0.25409 0.44152 0.0
C254 C 0.31739 0.29562 0.40761 0.0
C255 C 0.32475 0.30954 0.46669 0.0
C256 C 0.33879 0.26405 0.41075 0.0
C257 C 0.34649 0.27856 0.46968 0.0
C258 C 0.30893 0.31692 0.43587 0.0
C259 C 0.39378 0.24834 0.50065 0.0
N260 N 0.37654 0.22776 0.44317 0.0
C261 C 0.39906 0.22606 0.47197 0.0
C262 C 0.36779 0.2751 0.49941 0.0
Eu263 Eu 0.39655 0.20334 0.39241 0.0
N264 N 0.35185 0.247 0.38369 0.0
C265 C 0.34595 0.26126 0.35286 0.0
C266 C 0.30845 0.3078 0.376 0.0
C267 C 0.32341 0.29101 0.3485 0.0
H268 H 0.42204 0.20815 0.47251 0.0
H269 H 0.3183 0.30153 0.32393 0.0
H270 H 0.29294 0.34158 0.43392 0.0
H271 H 0.41155 0.24669 0.52333 0.0
H272 H 0.35866 0.24995 0.33144 0.0
H273 H 0.29266 0.91287 0.43027 0.0
H274 H 0.29184 0.33168 0.37258 0.0
H275 H 0.37032 0.10146 0.27984 0.0
H276 H 0.26831 0.97301 0.408 0.0
H277 H 0.44292 0.10443 0.25222 0.0
H278 H 0.32186 0.32966 0.48785 0.0
H279 H 0.37065 0.91536 0.41041 0.0
H280 H 0.44315 0.95044 0.37017 0.0
H281 H 0.36678 0.29519 0.52113 0.0
H282 H 0.48515 1.00407 0.32183 0.0
N283 N 0.33341 1.01113 0.37712 0.0
C284 C 0.30216 0.97408 0.39885 0.0
C285 C 0.36002 0.94175 0.4005 0.0
C286 C 0.38836 0.97556 0.37536 0.0
C287 C 0.31593 0.9401 0.41168 0.0
C288 C 0.37328 1.00958 0.36363 0.0
H289 H 0.48515 0.0614 0.27736 0.0
N290 N 0.37715 0.06715 0.3237 0.0
C291 C 0.43145 0.08727 0.27639 0.0
C292 C 0.39638 0.03913 0.33625 0.0
C293 C 0.39132 0.08749 0.29288 0.0
C294 C 0.45483 0.06261 0.29052 0.0
C295 C 0.43605 0.0364 0.3202 0.0
O296 O 0.2744 0.0406 0.31476 0.0
O297 O 0.32337 0.15184 0.36879 0.0
O298 O 0.35008 0.14434 0.43513 0.0
O299 O 0.33086 0.06741 0.41165 0.0
O300 O 0.26199 0.08867 0.38747 0.0
O301 O 0.24101 1.01731 0.36384 0.0
O302 O 0.47226 0.2556 0.41241 0.0
O303 O 0.40121 0.13864 0.36965 0.0
O304 O 0.33482 0.1344 0.31757 0.0
O305 O 0.40863 0.20486 0.33534 0.0
O306 O 0.43686 0.16668 0.41482 0.0
O307 O 0.44899 0.27554 0.36811 0.0
C308 C 0.28149 0.13667 0.38311 0.0
C309 C 0.18502 0.97474 0.31724 0.0
C310 C 0.09643 0.9067 0.32146 0.0
C311 C 0.1435 0.93946 0.33655 0.0
C312 C 0.09189 0.91007 0.2871 0.0
C313 C 0.17829 0.9774 0.28326 0.0
C314 C 0.13248 0.94488 0.26829 0.0
C315 C 0.33329 0.09435 0.43734 0.0
C316 C 0.23395 1.01211 0.33218 0.0
C317 C 0.45412 1.00592 0.33347 0.0
C318 C 0.43017 0.97537 0.36096 0.0
C319 C 0.42981 0.13534 0.39129 0.0
C320 C 0.5023 0.34376 0.40335 0.0
C321 C 0.54595 0.38698 0.39056 0.0
C322 C 0.56068 0.43651 0.4027 0.0
C323 C 0.52936 0.44141 0.42623 0.0
C324 C 0.4751 0.35106 0.42846 0.0
C325 C 0.48762 0.39911 0.43927 0.0
C326 C 0.37623 0.17803 0.31147 0.0
C327 C 0.48366 0.29118 0.39068 0.0
H328 H 0.14766 0.93765 0.36297 0.0
H329 H 0.05628 0.88666 0.27466 0.0
H330 H 0.20773 1.00596 0.2682 0.0
H331 H 0.12801 0.94755 0.24201 0.0
H332 H 0.56849 0.38185 0.37194 0.0
H333 H 0.53712 0.47817 0.43499 0.0
H334 H 0.44408 0.31955 0.44001 0.0
H335 H 0.4649 0.40356 0.4581 0.0
Eu336 Eu 0.84267 0.65694 0.09354 0.0
C337 C 0.71916 0.71705 0.18004 0.0
C338 C 0.63646 0.66332 0.15587 0.0
C339 C 0.64307 0.69088 0.21273 0.0
C340 C 0.68967 0.69062 0.15309 0.0
C341 C 0.69582 0.71966 0.20949 0.0
C342 C 0.6135 0.66222 0.18612 0.0
C343 C 0.77811 0.78166 0.22991 0.0
N344 N 0.77024 0.74389 0.17658 0.0
C345 C 0.79975 0.77689 0.20073 0.0
C346 C 0.72593 0.7527 0.23439 0.0
Eu347 Eu 0.80169 0.74221 0.12342 0.0
N348 N 0.71253 0.69465 0.1236 0.0
C349 C 0.68445 0.67503 0.09571 0.0
C350 C 0.60768 0.63978 0.12777 0.0
C351 C 0.63181 0.64627 0.09745 0.0
H352 H 0.84021 0.79979 0.19735 0.0
H353 H 0.60992 0.62939 0.07537 0.0
H354 H 0.57274 0.64113 0.18874 0.0
H355 H 0.80168 0.80753 0.24898 0.0
H356 H 0.70236 0.6801 0.07213 0.0
H357 H 1.01335 0.69087 0.15927 0.0
H358 H 0.56679 0.6181 0.12898 0.0
H359 H 0.83826 0.66547 0.00792 0.0
H360 H 0.92238 0.65039 0.14886 0.0
H361 H 0.89254 0.72188 0.96432 0.0
H362 H 0.62467 0.69154 0.23546 0.0
H363 H 0.07421 0.75303 0.11951 0.0
H364 H 0.08922 0.80143 0.06672 0.0
H365 H 0.70919 0.75613 0.25711 0.0
H366 H 0.0552 0.81435 0.01491 0.0
N367 N 0.93034 0.69103 0.10421 0.0
C368 C 0.94793 0.6782 0.13146 0.0
C369 C 0.03402 0.73522 0.11473 0.0
C370 C 1.01593 0.74603 0.08601 0.0
C371 C 0.99982 0.70044 0.13729 0.0
C372 C 0.96323 0.72163 0.08085 0.0
H373 H 0.98211 0.7836 0.97591 0.0
N374 N 0.8937 0.7001 0.04617 0.0
C375 C 0.90733 0.72527 0.98902 0.0
C376 C 0.94421 0.72798 0.05148 0.0
C377 C 0.87618 0.69425 0.01438 0.0
C378 C 0.95783 0.75984 -0.0044 0.0
C379 C 0.97744 0.75973 0.0267 0.0
O380 O 0.82686 0.59582 0.05828 0.0
O381 O 0.77253 0.66209 0.1027 0.0
O382 O 0.82416 0.71543 0.16896 0.0
O383 O 0.85059 0.6596 0.15028 0.0
O384 O 0.77777 0.60363 0.12503 0.0
O385 O 0.84689 0.5897 0.10789 0.0
O386 O 0.84276 0.82228 0.13688 0.0
O387 O 0.86887 0.73136 0.1174 0.0
O388 O 0.79639 0.67293 0.05269 0.0
O389 O 0.79681 0.7457 0.06969 0.0
O390 O 0.87702 0.79827 0.1008 0.0
O391 O 0.77611 0.79318 0.10563 0.0
C392 C 0.74782 0.62093 0.11923 0.0
C393 C 0.87729 0.55653 0.06693 0.0
C394 C 0.91454 0.50066 0.06863 0.0
C395 C 0.87787 0.51329 0.07961 0.0
C396 C 0.95077 0.53267 0.04542 0.0
C397 C 0.9144 0.58741 0.04395 0.0
C398 C 0.95067 0.57548 0.03333 0.0
C399 C 0.84075 0.68339 0.17419 0.0
C400 C 0.83961 0.57077 0.07849 0.0
C401 C 0.02941 0.78828 0.03317 0.0
C402 C 0.04876 0.78077 0.06257 0.0
C403 C 0.90021 0.77362 0.1053 0.0
C404 C 0.80112 0.87002 0.13435 0.0
C405 C 0.83089 0.92143 0.12563 0.0
C406 C 0.82009 0.95799 0.13858 0.0
C407 C 0.77883 0.94158 0.16048 0.0
C408 C 0.76057 0.85485 0.15619 0.0
C409 C 0.74966 0.89061 0.16926 0.0
C410 C 0.79222 0.71417 0.0466 0.0
C411 C 0.81289 0.83295 0.12002 0.0
H412 H 0.84959 0.4894 0.09753 0.0
H413 H 0.97997 0.52507 0.03683 0.0
H414 H 0.91558 0.62104 0.03418 0.0
H415 H 0.9791 0.59973 0.01563 0.0
H416 H 0.86259 0.93274 0.10898 0.0
H417 H 0.76825 0.96787 0.17057 0.0
H418 H 0.73716 0.81545 0.16291 0.0
H419 H 0.71811 0.87873 0.18605 0.0
Eu420 Eu 0.96932 0.25047 0.36411 0.0
C421 C 0.78937 0.1112 0.42538 0.0
C422 C 0.7431 0.04558 0.38463 0.0
C423 C 0.73486 0.0235 0.44248 0.0
C424 C 0.77603 0.09703 0.39275 0.0
C425 C 0.76688 0.07457 0.45059 0.0
C426 C 0.724 1.00886 0.40955 0.0
C427 C 0.8049 0.14164 0.49065 0.0
N428 N 0.82013 0.16104 0.43277 0.0
C429 C 0.82682 0.17653 0.46504 0.0
C430 C 0.77441 0.09059 0.48333 0.0
Eu431 Eu 0.84518 0.21842 0.38749 0.0
N432 N 0.7931 0.13349 0.36912 0.0
C433 C 0.77468 0.1211 0.33762 0.0
C434 C 0.72831 0.03263 0.35185 0.0
C435 C 0.74357 0.0707 0.32834 0.0
H436 H 0.84532 0.21602 0.47165 0.0
H437 H 0.73041 0.06142 0.30316 0.0
H438 H 0.69874 0.96933 0.40372 0.0
H439 H 0.80943 0.15449 0.51596 0.0
H440 H 0.78201 0.14939 0.31933 0.0
H441 H 0.09056 0.4089 0.44496 0.0
H442 H 0.70341 0.9936 0.34471 0.0
H443 H 0.97603 0.25945 0.27909 0.0
H444 H 0.04881 0.32055 0.42547 0.0
H445 H 0.97664 0.31889 0.23784 0.0
H446 H 0.71697 0.99516 0.46156 0.0
H447 H 0.09158 0.47557 0.40948 0.0
H448 H 0.07205 0.49984 0.35426 0.0
H449 H 0.75425 0.06423 0.50298 0.0
H450 H 0.04041 0.47498 0.29754 0.0
N451 N 1.02145 0.33576 0.38134 0.0
C452 C 0.0469 0.34874 0.41055 0.0
C453 C 0.07252 0.4366 0.40112 0.0
C454 C 0.05118 0.42371 0.36963 0.0
C455 C 0.07174 0.39908 0.42129 0.0
C456 C 1.02682 0.37241 0.36009 0.0
H457 H 1.00405 0.40728 0.25377 0.0
N458 N 0.99028 0.30937 0.31964 0.0
C459 C 0.98601 0.33072 0.26324 0.0
C460 C 1.00978 0.35859 0.32826 0.0
C461 C 0.98403 0.29654 0.28698 0.0
C462 C 1.00117 0.38042 0.27236 0.0
C463 C 1.01552 0.3955 0.305 0.0
O464 O 1.0114 0.22859 0.33036 0.0
O465 O 0.89 0.18488 0.36793 0.0
O466 O 0.90432 0.25781 0.43145 0.0
O467 O 0.96746 0.24034 0.41803 0.0
O468 O 0.94511 0.17532 0.38974 0.0
O469 O 0.03693 0.2496 0.38058 0.0
O470 O 0.80424 0.24481 0.4188 0.0
O471 O 0.92329 0.2859 0.38411 0.0
O472 O 0.91647 0.21243 0.32118 0.0
O473 O 0.85056 0.22768 0.33112 0.0
O474 O 0.86573 0.28742 0.35754 0.0
O475 O 0.77148 0.20823 0.37282 0.0
C476 C 0.89785 0.15275 0.3825 0.0
C477 C 0.09582 0.24853 0.34317 0.0
C478 C 0.16739 0.23344 0.34458 0.0
C479 C 0.11845 0.22092 0.3549 0.0
C480 C 0.1935 0.27459 0.32289 0.0
C481 C 0.12279 0.28983 0.3221 0.0
C482 C 0.17149 0.30272 0.312 0.0
C483 C 0.94514 0.25418 0.43968 0.0
C484 C 0.04367 0.23252 0.35284 0.0
C485 C 0.03643 0.44621 0.31492 0.0
C486 C 0.05445 0.46035 0.34719 0.0
C487 C 0.9114 0.31465 0.36798 0.0
C488 C 0.71369 0.19483 0.41605 0.0
C489 C 0.66814 0.1828 0.39927 0.0
C490 C 0.62044 0.15411 0.41511 0.0
C491 C 0.6199 0.13866 0.44798 0.0
C492 C 0.71078 0.17761 0.4485 0.0
C493 C 0.66438 0.14975 0.46419 0.0
C494 C 0.87843 0.21779 0.31071 0.0
C495 C 0.76409 0.22582 0.40011 0.0
H496 H 0.09745 0.18888 0.37122 0.0
H497 H 0.23115 0.28521 0.31442 0.0
H498 H 0.10604 0.31176 0.31338 0.0
H499 H 0.19217 0.33441 0.29546 0.0
H500 H 0.66998 0.19572 0.37415 0.0
H501 H 0.585 0.11883 0.46184 0.0
H502 H 0.74445 0.18646 0.46221 0.0
H503 H 0.66291 0.13741 0.48941 0.0
Eu504 Eu 0.07417 0.30084 0.62144 0.0
C505 C 0.23491 0.31252 0.55431 0.0
C506 C 0.29185 0.30193 0.59075 0.0
C507 C 0.26423 0.25381 0.53992 0.0
C508 C 0.26107 0.32326 0.58377 0.0
C509 C 0.23734 0.27849 0.53169 0.0
C510 C 0.29229 0.26626 0.56909 0.0
C511 C 0.19391 0.30185 0.49223 0.0
N512 N 0.20894 0.33682 0.54713 0.0
C513 C 0.19331 0.33571 0.51523 0.0
C514 C 0.21414 0.27149 0.50098 0.0
Eu515 Eu 0.20089 0.38505 0.5915 0.0
N516 N 0.25708 0.35501 0.60545 0.0
C517 C 0.28812 0.37203 0.63244 0.0
C518 C 0.32106 0.31678 0.61943 0.0
C519 C 0.31969 0.35255 0.64013 0.0
H520 H 0.18143 0.36147 0.50643 0.0
H521 H 0.34324 0.36549 0.66192 0.0
H522 H 0.31438 0.24826 0.5746 0.0
H523 H 0.17967 0.29998 0.46752 0.0
H524 H 0.28965 0.40138 0.64814 0.0
H525 H 0.99456 0.41978 0.58536 0.0
H526 H 0.34559 0.30172 0.62542 0.0
H527 H 0.05914 0.23717 0.69242 0.0
H528 H 0.03772 0.37151 0.57683 0.0
H529 H 1.01515 0.22421 0.74577 0.0
H530 H 0.26503 0.22635 0.52331 0.0
H531 H 0.96115 0.42225 0.64047 0.0
H532 H 0.94431 0.39129 0.69874 0.0
H533 H 0.21487 0.24545 0.48304 0.0
H534 H 0.94795 0.33645 0.74178 0.0
N535 N 0.03219 0.34822 0.6269 0.0
C536 C 1.02402 0.37206 0.60108 0.0
C537 C 0.98092 0.40131 0.63696 0.0
C538 C 0.98645 0.37424 0.66291 0.0
C539 C 0.99942 0.3998 0.60582 0.0
C540 C 1.01304 0.348 0.65718 0.0
H541 H 0.97179 0.27253 0.7586 0.0
N542 N 0.04214 0.29337 0.67574 0.0
C543 C 1.0156 0.25107 0.72811 0.0
C544 C 1.01703 0.31884 0.68199 0.0
C545 C 0.04064 0.25874 0.69798 0.0
C546 C 0.99109 0.27823 0.73527 0.0
C547 C 0.99172 0.31269 0.71227 0.0
O548 O 0.03725 0.21951 0.6316 0.0
O549 O 0.15181 0.31016 0.61461 0.0
O550 O 0.14013 0.37013 0.54964 0.0
O551 O 0.06122 0.30833 0.56914 0.0
O552 O 0.0927 0.24582 0.59576 0.0
O553 O 0.99795 0.24985 0.60343 0.0
O554 O 0.24707 0.44215 0.5542 0.0
O555 O 0.12648 0.38095 0.60132 0.0
O556 O 0.12296 0.32799 0.667 0.0
O557 O 0.20535 0.38131 0.64805 0.0
O558 O 0.19025 0.43961 0.6227 0.0
O559 O 0.27065 0.45494 0.60461 0.0
C560 C 0.14017 0.26845 0.60124 0.0
C561 C 0.94803 0.17156 0.63107 0.0
C562 C 0.88051 0.08306 0.63665 0.0
C563 C 0.92733 0.11983 0.62315 0.0
C564 C 0.85537 0.09973 0.65821 0.0
C565 C 0.92237 0.18665 0.65278 0.0
C566 C 0.87635 0.15082 0.66633 0.0
C567 C 0.09054 0.33649 0.54544 0.0
C568 C 0.99595 0.20934 0.61598 0.0
C569 C 0.96663 0.33994 0.71837 0.0
C570 C 0.96456 0.37116 0.69389 0.0
C571 C 0.14289 0.42228 0.61755 0.0
C572 C 0.33636 0.48283 0.56509 0.0
C573 C 0.3798 0.52591 0.57827 0.0
C574 C 0.42952 0.53709 0.56921 0.0
C575 C 0.43435 0.50371 0.54746 0.0
C576 C 0.34343 0.45077 0.54355 0.0
C577 C 0.39189 0.46119 0.53489 0.0
C578 C 0.17174 0.35854 0.67199 0.0
C579 C 0.2838 0.4699 0.5745 0.0
H580 H 0.94792 0.10856 0.60664 0.0
H581 H 0.81883 0.0736 0.66859 0.0
H582 H 0.93753 0.22615 0.65894 0.0
H583 H 0.85645 0.16275 0.68292 0.0
H584 H 0.37484 0.55078 0.59507 0.0
H585 H 0.47128 0.50996 0.54042 0.0
H586 H 0.3114 0.4173 0.53339 0.0
H587 H 0.39661 0.43595 0.51832 0.0
Eu588 Eu 0.21796 0.83764 0.89321 0.0
C589 C 0.3735 0.9954 0.82511 0.0
C590 C 0.43424 0.04592 0.86699 0.0
C591 C 0.46299 0.02503 0.81667 0.0
C592 C 0.38376 1.01727 0.85599 0.0
C593 C 0.41334 1.00072 0.8046 0.0
C594 C 0.47348 0.04779 0.84781 0.0
C595 C 0.35395 0.9661 0.75993 0.0
N596 N 0.32534 0.9735 0.8139 0.0
C597 C 0.31612 0.96275 0.78099 0.0
C598 C 0.40257 0.98395 0.77199 0.0
Eu599 Eu 0.26159 0.95848 0.8539 0.0
N600 N 0.34486 1.01404 0.87414 0.0
C601 C 0.35495 0.04508 0.90087 0.0
C602 C 0.44389 0.07292 0.8965 0.0
C603 C 0.40413 0.07353 0.91306 0.0
H604 H 0.27961 0.95153 0.77043 0.0
H605 H 0.4114 0.09655 0.93493 0.0
H606 H 0.51226 0.06839 0.85629 0.0
H607 H 0.34579 0.95593 0.7342 0.0
H608 H 0.3257 0.04939 0.91271 0.0
H609 H 0.04799 0.72579 0.82024 0.0
H610 H 0.48204 0.09513 0.90588 0.0
H611 H 0.23294 0.83792 0.97506 0.0
H612 H 0.13787 0.78431 0.82979 0.0
H613 H 0.18154 0.79941 0.02447 0.0
H614 H 0.49385 0.02857 0.80148 0.0
H615 H 0.98912 0.69157 0.8675 0.0
H616 H 0.97581 0.68549 0.9284 0.0
H617 H 0.43204 0.98744 0.75542 0.0
H618 H 1.01259 0.70414 0.9839 0.0
N619 N 0.13044 0.78825 0.8818 0.0
C620 C 0.11285 0.77166 0.85064 0.0
C621 C 1.02851 0.71903 0.87173 0.0
C622 C 0.04696 0.73398 0.90371 0.0
C623 C 0.06165 0.73789 0.84507 0.0
C624 C 0.09882 0.76931 0.90808 0.0
H625 H 0.08953 0.7436 0.01928 0.0
N626 N 0.16974 0.81276 0.94266 0.0
C627 C 0.16333 0.79535 0.00088 0.0
C628 C 0.11896 0.78232 0.93946 0.0
C629 C 0.19222 0.8183 0.9728 0.0
C630 C 0.11126 0.76444 -0.00204 0.0
C631 C 0.08829 0.75772 0.96716 0.0
O632 O 0.23858 0.78643 0.91825 0.0
O633 O 0.28553 0.90094 0.86798 0.0
O634 O 0.22828 0.90225 0.81287 0.0
O635 O 0.22905 0.83302 0.83622 0.0
O636 O 0.2954 0.87686 0.91427 0.0
O637 O 0.20701 0.76723 0.86993 0.0
O638 O 0.26452 1.01471 0.81926 0.0
O639 O 0.19422 0.89427 0.87962 0.0
O640 O 0.24694 0.90029 0.93477 0.0
O641 O 0.25325 0.97037 0.90778 0.0
O642 O 0.18263 0.91935 0.83412 0.0
O643 O 0.23939 1.0132 0.8694 0.0
C644 C 0.31833 0.90645 0.88967 0.0
C645 C 0.18438 0.69812 0.90701 0.0
C646 C 0.14638 0.60467 0.90405 0.0
C647 C 0.1821 0.65434 0.89248 0.0
C648 C 0.11155 0.60038 0.92846 0.0
C649 C 0.15168 0.69098 0.93332 0.0
C650 C 0.11477 0.64299 0.94321 0.0
C651 C 0.22585 0.85821 0.81022 0.0
C652 C 0.22027 0.75128 0.8957 0.0
C653 C 0.03651 0.72364 0.96294 0.0
C654 C 1.01568 0.71257 0.93131 0.0
C655 C 0.16079 0.89004 0.85903 0.0
C656 C 0.27119 0.09026 0.84093 0.0
C657 C 0.24067 0.11156 0.84836 0.0
C658 C 0.26052 0.16416 0.84635 0.0
C659 C 0.31146 0.19495 0.83716 0.0
C660 C 0.32221 0.12168 0.83279 0.0
C661 C 0.34216 0.17392 0.83091 0.0
C662 C 0.25566 0.94796 0.93473 0.0
C663 C 0.24822 0.03513 0.84076 0.0
H664 H 0.20866 0.65908 0.87315 0.0
H665 H 0.08184 0.56375 0.93681 0.0
H666 H 0.15492 0.72257 0.94681 0.0
H667 H 0.08892 0.63879 0.96289 0.0
H668 H 0.20121 0.08707 0.85475 0.0
H669 H 0.32775 0.2354 0.83491 0.0
H670 H 0.34629 0.10579 0.82745 0.0
H671 H 0.38142 0.19819 0.82422 0.0
Eu672 Eu 0.73143 0.77299 0.62173 0.0
C673 C 0.71588 0.92248 0.55836 0.0
C674 C 0.73319 0.98821 0.59849 0.0
C675 C 0.77576 1.01057 0.54551 0.0
C676 C 0.70949 0.93648 0.5897 0.0
C677 C 0.74826 0.95974 0.53564 0.0
C678 C 0.76685 0.02508 0.5764 0.0
C679 C 0.71934 0.89501 0.49394 0.0
N680 N 0.68985 0.87276 0.54984 0.0
C681 C 0.68734 0.85967 0.51725 0.0
C682 C 0.75159 0.94492 0.50356 0.0
Eu683 Eu 0.64653 0.8144 0.59386 0.0
N684 N 0.68038 0.89975 0.61166 0.0
C685 C 0.66894 0.91267 0.64152 0.0
C686 C 0.72337 1.00131 0.62956 0.0
C687 C 0.69066 0.96334 0.65102 0.0
H688 H 0.66066 0.82215 0.50861 0.0
H689 H 0.6819 0.97303 0.67488 0.0
H690 H 0.78702 0.06475 0.58324 0.0
H691 H 0.71877 0.8838 0.46853 0.0
H692 H 0.64202 0.88446 0.65809 0.0
H693 H 0.64756 0.58953 0.55919 0.0
H694 H 0.74038 0.04057 0.63703 0.0
H695 H 0.75298 0.78837 0.70539 0.0
H696 H 0.70844 0.68005 0.56646 0.0
H697 H 0.70461 0.74633 0.75536 0.0
H698 H 0.80353 0.03906 0.52926 0.0
H699 H 0.59131 0.54004 0.60535 0.0
H700 H 0.56639 0.53713 0.66494 0.0
H701 H 0.77678 0.97222 0.4856 0.0
H702 H 0.58162 0.58033 0.71861 0.0
N703 N 0.68447 0.68349 0.61516 0.0
C704 C 0.68324 0.65963 0.5864 0.0
C705 C 0.61778 0.58007 0.60853 0.0
C706 C 0.62233 0.60387 0.63885 0.0
C707 C 0.64932 0.60788 0.58241 0.0
C708 C 0.65715 0.65611 0.64151 0.0
H709 H 0.63281 0.65882 0.75271 0.0
N710 N 0.70243 0.72938 0.67319 0.0
C711 C 0.69349 0.72692 0.73201 0.0
C712 C 0.6657 0.68019 0.67146 0.0
C713 C 0.7202 0.75098 0.70338 0.0
C714 C 0.65257 0.67781 0.73031 0.0
C715 C 0.63962 0.65296 0.6999 0.0
O716 O 0.80133 0.79985 0.65017 0.0
O717 O 0.7236 0.84173 0.61415 0.0
O718 O 0.66515 0.77368 0.55026 0.0
O719 O 0.73493 0.76812 0.56775 0.0
O720 O 0.7864 0.84434 0.59398 0.0
O721 O 0.79186 0.76012 0.60427 0.0
O722 O 0.58171 0.78971 0.56063 0.0
O723 O 0.65182 0.74385 0.60045 0.0
O724 O 0.71988 0.81809 0.66183 0.0
O725 O 0.6414 0.80846 0.65059 0.0
O726 O 0.59409 0.74789 0.62477 0.0
O727 O 0.5843 0.82861 0.60537 0.0
C728 C 0.76497 0.87064 0.59974 0.0
C729 C 0.85845 0.76965 0.63892 0.0
C730 C 0.94529 0.78558 0.64132 0.0
C731 C 0.91013 0.79957 0.63054 0.0
C732 C 0.92772 0.74082 0.65985 0.0
C733 C 0.84187 0.72537 0.65741 0.0
C734 C 0.87648 0.71097 0.66768 0.0
C735 C 0.70384 0.7651 0.5447 0.0
C736 C 0.82261 0.78545 0.6281 0.0
C737 C 0.60258 0.60168 0.69713 0.0
C738 C 0.59401 0.57709 0.66662 0.0
C739 C 0.61023 0.71778 0.61616 0.0
C740 C 0.53818 0.83754 0.56118 0.0
C741 C 0.50345 0.84914 0.57725 0.0
C742 C 0.48072 0.8732 0.55977 0.0
C743 C 0.49236 0.88319 0.5259 0.0
C744 C 0.55036 0.85102 0.52798 0.0
C745 C 0.52723 0.87312 0.51053 0.0
C746 C 0.67785 0.81658 0.67155 0.0
C747 C 0.55976 0.80922 0.57829 0.0
H748 H 0.92308 0.83428 0.6166 0.0
H749 H 0.9539 0.72921 0.66864 0.0
H750 H 0.80231 0.70217 0.66393 0.0
H751 H 0.86367 0.67681 0.68209 0.0
H752 H 0.49442 0.83958 0.60304 0.0
H753 H 0.47409 0.89854 0.51071 0.0
H754 H 0.57701 0.8434 0.51512 0.0
H755 H 0.5359 0.88198 0.48465 0.0
Eu756 Eu 0.21046 0.38824 0.88968 0.0
C757 C 0.05221 0.37493 0.82572 0.0
C758 C 1.00684 0.39481 0.86662 0.0
C759 C 1.02794 0.43817 0.81377 0.0
C760 C 0.03175 0.36841 0.85692 0.0
C761 C 0.04965 0.40921 0.8035 0.0
C762 C 1.0064 0.43086 0.84526 0.0
C763 C 0.08499 0.37972 0.7617 0.0
N764 N 0.07267 0.34611 0.81669 0.0
C765 C 0.08445 0.3448 0.78428 0.0
C766 C 0.06817 0.41267 0.77148 0.0
Eu767 Eu 0.08648 0.3014 0.86037 0.0
N768 N 0.03401 0.33431 0.87722 0.0
C769 C 1.00508 0.31874 0.90509 0.0
C770 C 0.9819 0.38305 0.89709 0.0
C771 C 0.97972 0.34368 0.91595 0.0
H772 H 0.09337 0.31684 0.77538 0.0
H773 H 0.95824 0.33224 0.93869 0.0
H774 H 0.98832 0.45226 0.85252 0.0
H775 H 0.09688 0.38003 0.73648 0.0
H776 H 1.00104 0.28678 0.91894 0.0
H777 H 0.35623 0.37265 0.82109 0.0
H778 H 0.96229 0.40241 0.90549 0.0
H779 H 0.18988 0.36628 0.97406 0.0
H780 H 0.29787 0.40396 0.83283 0.0
H781 H 0.18865 0.30578 0.01412 0.0
H782 H 1.0263 0.46521 0.79721 0.0
H783 H 0.3618 0.31247 0.85923 0.0
H784 H 0.32713 0.25554 0.90881 0.0
H785 H 0.06738 0.43884 0.75372 0.0
H786 H 0.27545 0.23206 0.95938 0.0
N787 N 0.26723 0.35919 0.87627 0.0
C788 C 0.29809 0.37618 0.84919 0.0
C789 C 0.33492 0.325 0.86413 0.0
C790 C 0.30411 0.30857 0.89217 0.0
C791 C 0.33204 0.35913 0.84262 0.0
C792 C 0.27193 0.32847 0.89843 0.0
H793 H 0.22474 0.25153 -0.00055 0.0
N794 N 0.21855 0.34122 0.93438 0.0
C795 C 0.20329 0.30743 0.98953 0.0
C796 C 0.24508 0.31739 0.92767 0.0
C797 C 0.2026 0.34073 0.96609 0.0
C798 C 0.22397 0.27717 0.98124 0.0
C799 C 0.24752 0.28384 0.95059 0.0
O800 O 0.25323 0.44524 0.92773 0.0
O801 O 0.13486 0.38221 0.88077 0.0
O802 O 0.14191 0.31471 0.81903 0.0
O803 O 0.21458 0.38993 0.83271 0.0
O804 O 0.19813 0.44061 0.85772 0.0
O805 O 0.28056 0.45848 0.87799 0.0
O806 O 0.04236 0.24131 0.82443 0.0
O807 O 0.16392 0.31193 0.86744 0.0
O808 O 0.14709 0.37294 0.92914 0.0
O809 O 0.08475 0.29263 0.91465 0.0
O810 O 0.10483 0.24518 0.88442 0.0
O811 O 1.01862 0.2318 0.87546 0.0
C812 C 0.15107 0.42335 0.86426 0.0
C813 C 0.34312 0.48777 0.91933 0.0
C814 C 0.43583 0.5441 0.91694 0.0
C815 C 0.38637 0.53132 0.90659 0.0
C816 C 0.44085 0.512 0.93967 0.0
C817 C 0.35009 0.45672 0.9418 0.0
C818 C 0.3985 0.46884 0.95183 0.0
C819 C 0.18517 0.35535 0.81082 0.0
C820 C 0.29111 0.47352 0.90828 0.0
C821 C 0.2749 0.25952 0.94268 0.0
C822 C 0.30424 0.27283 0.9139 0.0
C823 C 0.15285 0.26964 0.87988 0.0
C824 C 0.95827 0.17408 0.83746 0.0
C825 C 0.93494 0.12423 0.85031 0.0
C826 C 0.88593 0.0875 0.84008 0.0
C827 C 0.8606 0.10183 0.81733 0.0
C828 C 0.93171 0.18747 0.81544 0.0
C829 C 0.88317 0.15142 0.80535 0.0
C830 C 0.10526 0.32888 0.93634 0.0
C831 C 1.01079 0.21075 0.84663 0.0
H832 H 0.38142 0.55533 0.88906 0.0
H833 H 0.47785 0.5198 0.94778 0.0
H834 H 0.31808 0.42281 0.9516 0.0
H835 H 0.40327 0.44448 0.96912 0.0
H836 H 0.95541 0.11373 0.86744 0.0
H837 H 0.82298 0.07464 0.80894 0.0
H838 H 0.94864 0.22571 0.80605 0.0
H839 H 0.86301 0.16187 0.78802 0.0
Eu840 Eu 0.26528 0.96225 0.62559 0.0
C841 C 0.1129 0.78283 0.53988 0.0
C842 C 0.03874 0.73462 0.57416 0.0
C843 C 0.03171 0.72502 0.51476 0.0
C844 C 0.09097 0.76952 0.57084 0.0
C845 C 0.08379 0.75881 0.51159 0.0
C846 C 1.009 0.7139 0.54591 0.0
C847 C 0.16087 0.79659 0.47955 0.0
N848 N 0.16387 0.81287 0.53774 0.0
C849 C 0.18818 0.81895 0.50823 0.0
C850 C 0.10853 0.76593 0.48133 0.0
Eu851 Eu 0.20946 0.83753 0.58792 0.0
N852 N 0.12132 0.78703 0.59773 0.0
C853 C 0.10206 0.76885 0.62844 0.0
C854 C 1.01844 0.71901 0.60576 0.0
C855 C 0.05041 0.7358 0.63299 0.0
H856 H 0.22904 0.83996 0.50707 0.0
H857 H 0.03545 0.72291 0.65751 0.0
H858 H 0.96892 0.68703 0.548 0.0
H859 H 0.18037 0.80132 0.45636 0.0
H860 H 0.12591 0.78027 0.64988 0.0
H861 H 0.46274 0.05642 0.58663 0.0
H862 H 0.97852 0.69264 0.60931 0.0
H863 H 0.21622 0.9777 0.69684 0.0
H864 H 0.37093 1.00893 0.57976 0.0
H865 H 0.24544 0.02347 0.74885 0.0
H866 H 1.00894 0.70582 0.49337 0.0
H867 H 0.49936 0.09224 0.64111 0.0
H868 H 0.48521 0.11007 0.69934 0.0
H869 H 0.08788 0.74587 0.45953 0.0
H870 H 0.42599 0.104 0.74276 0.0
N871 N 0.35447 1.01043 0.6305 0.0
C872 C 0.38584 0.02116 0.60404 0.0
C873 C 0.45872 0.06946 0.63844 0.0
C874 C 0.42634 0.06252 0.66484 0.0
C875 C 0.43826 0.04934 0.6077 0.0
C876 C 0.37368 0.03222 0.66007 0.0
H877 H 0.33685 0.07407 0.76069 0.0
N878 N 0.29026 0.99978 0.67871 0.0
C879 C 0.27266 0.02489 0.7311 0.0
C880 C 0.34053 0.02782 0.6847 0.0
C881 C 0.25625 0.99823 0.70144 0.0
C882 C 0.32423 0.05349 0.73765 0.0
C883 C 0.35891 0.05504 0.71444 0.0
O884 O 0.21985 0.99966 0.62945 0.0
O885 O 0.19279 0.89664 0.60536 0.0
O886 O 0.22054 0.89915 0.5479 0.0
O887 O 0.28472 0.97192 0.57181 0.0
O888 O 0.1899 0.92465 0.65127 0.0
O889 O 0.28573 0.03185 0.59832 0.0
O890 O 0.23265 0.78624 0.56585 0.0
O891 O 0.28184 0.89983 0.60876 0.0
O892 O 0.27016 0.91596 0.66696 0.0
O893 O 0.21289 0.8359 0.64591 0.0
O894 O 0.28493 0.86963 0.5634 0.0
O895 O 0.195 0.76683 0.61254 0.0
C896 C 0.16353 0.89288 0.62882 0.0
C897 C 0.26313 0.08811 0.62326 0.0
C898 C 0.24414 0.15704 0.63023 0.0
C899 C 0.23092 0.10836 0.61815 0.0
C900 C 0.29026 0.18451 0.64735 0.0
C901 C 0.30819 0.1162 0.64083 0.0
C902 C 0.32159 0.16409 0.65275 0.0
C903 C 0.25675 0.94817 0.54628 0.0
C904 C 0.24937 0.03749 0.61068 0.0
C905 C 0.41122 0.08364 0.71983 0.0
C906 C 0.44491 0.08695 0.69518 0.0
C907 C 0.31188 0.90089 0.5862 0.0
C908 C 0.17692 0.698 0.57619 0.0
C909 C 0.17473 0.65425 0.59067 0.0
C910 C 0.14092 0.60486 0.57796 0.0
C911 C 0.10783 0.60051 0.5524 0.0
C912 C 0.14575 0.69108 0.54907 0.0
C913 C 0.11071 0.64313 0.53794 0.0
C914 C 0.24019 0.86663 0.67064 0.0
C915 C 0.2114 0.75098 0.58823 0.0
H916 H 0.19565 0.08594 0.6051 0.0
H917 H 0.30294 0.22239 0.65632 0.0
H918 H 0.33331 0.10132 0.64509 0.0
H919 H 0.35674 0.18574 0.66602 0.0
H920 H 0.19996 0.65877 0.61076 0.0
H921 H 0.07993 0.56381 0.54295 0.0
H922 H 0.14894 0.72285 0.53587 0.0
H923 H 0.08617 0.63901 0.51749 0.0
Eu924 Eu 0.65518 0.82534 0.8901 0.0
C925 C 0.74719 0.71911 0.80509 0.0
C926 C 0.6914 0.62894 0.8125 0.0
C927 C 0.74798 0.65975 0.76527 0.0
C928 C 0.71054 0.6793 0.82328 0.0
C929 C 0.76724 0.70975 0.77629 0.0
C930 C 0.70976 0.61947 0.78316 0.0
C931 C 0.82313 0.80012 0.77101 0.0
N932 N 0.76421 0.76702 0.816 0.0
C933 C 0.8025 0.80742 0.79993 0.0
C934 C 0.80559 0.75104 0.7592 0.0
Eu935 Eu 0.73602 0.77586 0.86854 0.0
N936 N 0.69557 0.68957 0.85238 0.0
C937 C 0.66295 0.65087 0.87243 0.0
C938 C 0.65556 0.58947 0.83206 0.0
C939 C 0.64151 0.60055 0.86227 0.0
H940 H 0.81702 0.84523 0.80966 0.0
H941 H 0.61499 0.57032 0.87814 0.0
H942 H 0.69542 0.58105 0.77449 0.0
H943 H 0.8529 0.83225 0.75806 0.0
H944 H 0.6534 0.65791 0.8966 0.0
H945 H 0.73202 0.99799 0.81483 0.0
H946 H 0.6397 0.55032 0.82455 0.0
H947 H 0.63294 0.81094 0.97231 0.0
H948 H 0.69547 0.90801 0.82425 0.0
H949 H 0.64385 0.86431 0.02061 0.0
H950 H 0.76233 0.65184 0.74292 0.0
H951 H 0.7515 0.05648 0.86169 0.0
H952 H 0.74606 0.06857 0.92193 0.0
H953 H 0.82168 0.74544 0.73683 0.0
H954 H 0.71907 0.03185 0.97709 0.0
N955 N 0.69546 0.9129 0.87704 0.0
C956 C 0.70375 0.93174 0.84554 0.0
C957 C 0.73577 1.01635 0.86631 0.0
C958 C 0.72494 0.99692 0.89836 0.0
C959 C 0.7247 0.98352 0.83981 0.0
C960 C 0.70505 0.94436 0.90324 0.0
H961 H 0.68253 0.95671 0.01404 0.0
N962 N 0.67219 0.87322 0.93928 0.0
C963 C 0.65849 0.88167 -0.00316 0.0
C964 C 0.69261 0.92402 0.93497 0.0
C965 C 0.65337 0.85171 0.96947 0.0
C966 C 0.68041 0.93381 -0.00699 0.0
C967 C 0.69736 0.95559 0.96189 0.0
O968 O 0.58056 0.79125 0.91358 0.0
O969 O 0.65636 0.75239 0.88673 0.0
O970 O 0.70932 0.7898 0.81946 0.0
O971 O 0.65734 0.82343 0.83371 0.0
O972 O 0.59999 0.75624 0.8618 0.0
O973 O 0.60012 0.84784 0.8754 0.0
O974 O 0.81842 0.81572 0.87419 0.0
O975 O 0.72968 0.84691 0.86899 0.0
O976 O 0.69554 0.80955 0.93583 0.0
O977 O 0.69665 0.74086 0.91548 0.0
O978 O 0.79197 0.85275 0.89081 0.0
O979 O 0.77325 0.74218 0.89642 0.0
C980 C 0.61552 0.72598 0.87076 0.0
C981 C 0.53865 0.84063 0.91462 0.0
C982 C 0.48288 0.87784 0.91458 0.0
C983 C 0.50981 0.85816 0.89723 0.0
C984 C 0.48527 0.87912 0.9493 0.0
C985 C 0.53918 0.84221 0.94919 0.0
C986 C 0.51326 0.8618 0.96627 0.0
C987 C 0.67927 0.8081 0.81181 0.0
C988 C 0.56614 0.81874 0.89687 0.0
C989 C 0.71648 1.00751 0.95682 0.0
C990 C 0.73133 0.02832 0.92534 0.0
C991 C 0.77026 0.8779 0.883 0.0
C992 C 0.85545 0.76411 0.87699 0.0
C993 C 0.90827 0.797 0.88031 0.0
C994 C 0.94253 0.7841 0.86586 0.0
C995 C 0.92325 0.73819 0.84849 0.0
C996 C 0.83769 0.7183 0.85985 0.0
C997 C 0.8714 0.70553 0.84575 0.0
C998 C 0.70203 0.76959 0.94059 0.0
C999 C 0.81897 0.77864 0.88965 0.0
H1000 H 0.5083 0.8564 0.87054 0.0
H1001 H 0.46422 0.89238 0.96369 0.0
H1002 H 0.55854 0.82711 0.96331 0.0
H1003 H 0.51401 0.86262 -0.00703 0.0
H1004 H 0.92248 0.83291 0.89297 0.0
H1005 H 0.94849 0.72779 0.83651 0.0
H1006 H 0.79761 0.69241 0.85701 0.0
H1007 H 0.85727 0.6704 0.83224 0.0
C1008 C 0.2055 0.19679 0.08462 0.0
C1009 C 0.1975 0.20661 0.11742 0.0
H1010 H 0.24129 0.16748 0.05242 0.0
C1011 C 0.21596 0.1891 0.14306 0.0
H1012 H 0.19188 0.20968 0.06425 0.0
C1013 C 0.24472 0.16599 0.13627 0.0
C1014 C 0.25587 0.15963 0.10365 0.0
H1015 H 0.20959 0.19483 0.1686 0.0
H1016 H 0.2596 0.15439 0.15661 0.0
C1017 C 0.23412 0.17307 0.07782 0.0
C1018 C 1.01768 0.82242 0.32617 0.0
C1019 C 0.05079 0.86963 0.34043 0.0
H1020 H 0.94556 0.75613 0.32702 0.0
C1021 C 0.03634 0.8826 0.37028 0.0
H1022 H 1.0278 0.81038 0.30367 0.0
C1023 C 0.98857 0.85013 0.38428 0.0
C1024 C 0.95471 0.80407 0.36886 0.0
H1025 H 0.06074 0.91877 0.38189 0.0
H1026 H 0.97755 0.86155 0.40667 0.0
C1027 C 0.9702 0.79082 0.33976 0.0
C1028 C 0.8941 0.07909 0.08766 0.0
C1029 C 0.89626 0.1157 0.10969 0.0
H1030 H 0.86684 1.00026 0.07885 0.0
C1031 C 0.87887 0.10114 0.14203 0.0
H1032 H 0.90823 0.08969 0.06271 0.0
C1033 C 0.85694 0.05058 0.15177 0.0
C1034 C 0.85053 1.01276 0.12913 0.0
H1035 H 0.88144 0.12884 0.15971 0.0
H1036 H 0.84388 0.04113 0.17699 0.0
C1037 C 0.87087 0.02794 0.09713 0.0
C1038 C 0.22289 0.16987 0.39801 0.0
C1039 C 0.24787 0.15691 0.37408 0.0
H1040 H 0.1777 0.20483 0.40748 0.0
C1041 C 0.24123 0.16395 0.34063 0.0
H1042 H 0.22692 0.16413 0.42394 0.0
C1043 C 0.21351 0.18703 0.33126 0.0
C1044 C 0.19113 0.20316 0.35507 0.0
H1045 H 0.2589 0.15305 0.32164 0.0
H1046 H 0.21063 0.19345 0.30527 0.0
C1047 C 0.1947 0.19295 0.38857 0.0
C1048 C 0.04036 0.86713 0.1032 0.0
C1049 C 0.05681 0.85716 0.13335 0.0
H1050 H 0.97766 0.84827 0.07092 0.0
C1051 C 1.02007 0.8219 0.1551 0.0
H1052 H 0.06694 0.89354 0.08546 0.0
C1053 C 0.96933 0.79447 0.14587 0.0
C1054 C 0.95375 0.80255 0.11512 0.0
H1055 H 0.03041 0.8145 0.17912 0.0
H1056 H 0.94241 0.76639 0.16261 0.0
C1057 C 0.9892 0.84066 0.09449 0.0
C1058 C 0.83737 0.03498 0.32911 0.0
C1059 C 0.82906 0.99644 0.35158 0.0
H1060 H 0.86499 0.11376 0.32124 0.0
C1061 C 0.84517 1.01009 0.38444 0.0
H1062 H 0.82672 0.02619 0.30346 0.0
C1063 C 0.86737 0.0609 0.39467 0.0
C1064 C 0.87339 0.0988 0.37233 0.0
H1065 H 0.83957 0.98143 0.4024 0.0
H1066 H 0.87903 0.07049 0.42011 0.0
C1067 C 0.85929 0.08536 0.33932 0.0
C1068 C 0.21208 0.21591 0.64715 0.0
C1069 C 0.21169 0.18055 0.62447 0.0
H1070 H 0.19181 0.27259 0.65704 0.0
C1071 C 0.18318 0.17125 0.59534 0.0
H1072 H 0.23143 0.2228 0.67054 0.0
C1073 C 0.15883 0.19894 0.58828 0.0
C1074 C 0.16364 0.23744 0.60962 0.0
H1075 H 0.18167 0.14454 0.57713 0.0
H1076 H 0.13832 0.19203 0.56531 0.0
C1077 C 0.189 0.24441 0.63962 0.0
C1078 C 0.08038 0.85793 0.89371 0.0
C1079 C 0.1051 0.86628 0.86306 0.0
H1080 H 1.00838 0.82484 0.91889 0.0
C1081 C 0.07614 0.85434 0.83413 0.0
H1082 H 0.10198 0.86853 0.91638 0.0
C1083 C 1.0237 0.83087 0.8355 0.0
C1084 C 0.9983 0.81871 0.86587 0.0
H1085 H 0.09404 0.86142 0.8101 0.0
H1086 H 1.00267 0.82023 0.81259 0.0
C1087 C 1.02707 0.83381 0.89512 0.0
C1088 C 0.83403 0.95989 0.58773 0.0
C1089 C 0.79781 0.92443 0.60949 0.0
H1090 H 0.88736 0.03808 0.57839 0.0
C1091 C 0.79455 0.9403 0.64141 0.0
H1092 H 0.8383 0.94834 0.56321 0.0
C1093 C 0.82403 0.99088 0.65074 0.0
C1094 C 0.85659 0.02783 0.62805 0.0
H1095 H 0.76842 0.9139 0.65918 0.0
H1096 H 0.81991 1.00101 0.67567 0.0
C1097 C 0.86265 1.01127 0.59669 0.0
C1098 C 0.20598 0.25163 0.84103 0.0
C1099 C 0.17812 0.2407 0.87046 0.0
H1100 H 0.25341 0.23574 0.81027 0.0
C1101 C 0.17264 0.20031 0.89012 0.0
H1102 H 0.20955 0.28127 0.82476 0.0
C1103 C 0.19785 0.17392 0.88177 0.0
C1104 C 0.22862 0.18734 0.85343 0.0
H1105 H 0.15033 0.19039 0.91254 0.0
H1106 H 0.195 0.14456 0.89818 0.0
C1107 C 0.23108 0.22541 0.83268 0.0
C1108 C 0.08436 0.85825 0.66099 0.0
C1109 C 0.10741 0.86847 0.62976 0.0
H1110 H 1.01575 0.82443 0.68883 0.0
C1111 C 0.07664 0.85751 0.60163 0.0
H1112 H 0.10689 0.86817 0.68321 0.0
C1113 C 1.02345 0.83261 0.60496 0.0
C1114 C 1.00078 0.81884 0.63645 0.0
H1115 H 0.09349 0.86687 0.57727 0.0
H1116 H 1.00016 0.82214 0.58304 0.0
C1117 C 0.03201 0.83344 0.66429 0.0
C1118 C 0.83907 0.99412 0.82874 0.0
C1119 C 0.86093 0.03382 0.8518 0.0
H1120 H 0.79351 0.91416 0.82074 0.0
C1121 C 0.8551 0.02155 0.88563 0.0
H1122 H 0.84347 1.00217 0.80254 0.0
C1123 C 0.8259 0.97079 0.896 0.0
C1124 C 0.80185 0.93164 0.87273 0.0
H1125 H 0.87149 0.05126 0.904 0.0
H1126 H 0.82088 0.96225 0.92213 0.0
C1127 C 0.81028 0.94374 0.83909 0.0
C1128 C 0.34377 0.18398 0.25616 0.0
C1129 C 0.38559 0.19368 0.27578 0.0
H1130 H 0.31166 0.17151 0.20788 0.0
C1131 C 0.43119 0.20556 0.25946 0.0
H1132 H 0.30792 0.17415 0.26762 0.0
C1133 C 0.43325 0.2035 0.2245 0.0
C1134 C 0.38987 0.19001 0.20525 0.0
H1135 H 0.46377 0.21176 0.27372 0.0
H1136 H 0.46742 0.20854 0.21285 0.0
C1137 C 0.3459 0.18227 0.22169 0.0
C1138 C 0.88936 0.72455 0.25997 0.0
C1139 C 0.86185 0.67951 0.27807 0.0
H1140 H 0.90281 0.76083 0.21314 0.0
C1141 C 0.83428 0.63359 0.26082 0.0
H1142 H 0.91054 0.76063 0.27246 0.0
C1143 C 0.83066 0.63367 0.22615 0.0
C1144 C 0.85419 0.67969 0.20866 0.0
H1145 H 0.81181 0.59851 0.27416 0.0
H1146 H 0.80609 0.59855 0.21343 0.0
C1147 C 0.88487 0.72473 0.22584 0.0
C1148 C 0.85668 0.24693 0.22352 0.0
C1149 C 0.87742 0.22199 0.20574 0.0
H1150 H 0.8403 0.26503 0.27171 0.0
C1151 C 0.89006 0.18961 0.22237 0.0
H1152 H 0.84718 0.27252 0.21105 0.0
C1153 C 0.88474 0.1841 0.2564 0.0
C1154 C 0.86847 0.21243 0.27483 0.0
H1155 H 0.9066 0.1704 0.20931 0.0
H1156 H 0.89734 0.16067 0.26851 0.0
C1157 C 0.8524 0.24234 0.25806 0.0
C1158 C 0.21061 0.40726 0.72415 0.0
C1159 C 0.18916 0.3617 0.70624 0.0
H1160 H 0.22709 0.4413 0.77244 0.0
C1161 C 0.1766 0.31651 0.72274 0.0
H1162 H 0.21985 0.44244 0.71189 0.0
C1163 C 0.18192 0.31602 0.75681 0.0
C1164 C 0.19855 0.36051 0.77538 0.0
H1165 H 0.15956 0.28085 0.70955 0.0
H1166 H 0.16853 0.27984 0.76895 0.0
C1167 C 0.21517 0.40667 0.75868 0.0
C1168 C 0.18186 0.83464 0.75587 0.0
C1169 C 0.22225 0.84009 0.77557 0.0
H1170 H 0.1552 0.8363 0.70713 0.0
C1171 C 0.26546 0.84512 0.7595 0.0
H1172 H 0.14864 0.83224 0.76739 0.0
C1173 C 0.27011 0.84988 0.72483 0.0
C1174 C 0.23084 0.84761 0.70538 0.0
H1175 H 0.29793 0.85123 0.77386 0.0
H1176 H 0.30572 0.85871 0.71343 0.0
C1177 C 0.18579 0.83751 0.72126 0.0
C1178 C 0.62848 0.79359 0.72472 0.0
C1179 C 0.67356 0.82415 0.70726 0.0
H1180 H 0.59486 0.76436 0.77233 0.0
C1181 C 0.71815 0.85439 0.72513 0.0
H1182 H 0.59379 0.76928 0.71157 0.0
C1183 C 0.719 0.85046 0.7593 0.0
C1184 C 0.67505 0.81731 0.7766 0.0
H1185 H 0.75357 0.8781 0.71251 0.0
H1186 H 0.75472 0.87154 0.77201 0.0
C1187 C 0.62921 0.79037 0.75935 0.0
C1188 C 0.3206 0.99363 0.9797 0.0
C1189 C 0.27483 0.98254 0.96448 0.0
H1190 H 0.37975 0.04098 0.01348 0.0
C1191 C 0.25507 1.01474 0.97215 0.0
H1192 H 0.33869 0.97186 0.97336 0.0
C1193 C 0.2789 0.05495 -0.0048 0.0
C1194 C 0.32454 0.06579 0.0106 0.0
H1195 H 0.22082 1.00872 0.96016 0.0
H1196 H 0.26057 0.07634 0.00187 0.0
C1197 C 0.34497 0.03448 0.00208 0.0
C1198 C 0.72093 0.6835 0.48071 0.0
C1199 C 0.76906 0.71846 0.46808 0.0
H1200 H 0.65969 0.67124 0.51338 0.0
C1201 C 0.79 0.76946 0.47802 0.0
H1202 H 0.70258 0.64429 0.47305 0.0
C1203 C 0.76431 0.78524 0.49928 0.0
C1204 C 0.71664 0.75081 0.51231 0.0
H1205 H 0.82652 0.79796 0.46859 0.0
H1206 H 0.78336 0.82447 0.50719 0.0
C1207 C 0.69524 0.69947 0.5027 0.0
C1208 C 0.06539 0.35672 0.9808 0.0
C1209 C 0.07296 0.31917 0.96633 0.0
H1210 H 1.02205 0.37327 0.01542 0.0
C1211 C 0.03986 0.26814 0.97552 0.0
H1212 H 0.08918 0.39607 0.97406 0.0
C1213 C 0.9997 0.25483 -0.00243 0.0
C1214 C 0.99197 0.29216 0.01194 0.0
H1215 H 0.04425 0.23792 0.96485 0.0
H1216 H 0.97645 0.21551 0.00478 0.0
C1217 C 1.02566 0.34335 0.00354 0.0
C1218 C 0.26688 0.04524 0.48151 0.0
C1219 C 0.31612 0.06353 0.46874 0.0
H1220 H 0.20844 0.99342 0.51495 0.0
C1221 C 0.34222 0.03875 0.47941 0.0
H1222 H 0.24435 0.06133 0.47286 0.0
C1223 C 0.32095 0.99867 0.50251 0.0
C1224 C 0.27179 0.98015 0.51531 0.0
H1225 H 0.37914 0.04976 0.46918 0.0
H1226 H 0.34355 0.98248 0.51085 0.0
C1227 C 0.24538 1.00474 0.50471 0.0
C1228 C 0.79417 0.77607 0.00554 0.0
C1229 C 0.77269 0.72479 0.01554 0.0
H1230 H 0.78788 0.83131 0.97577 0.0
C1231 C 0.72546 0.68984 0.0024 0.0
H1232 H 0.83009 0.80442 0.01573 0.0
C1233 C 0.70067 0.70584 0.98017 0.0
C1234 C 0.72173 0.75731 0.97082 0.0
H1235 H 0.7067 0.65066 0.01028 0.0
H1236 H 0.66495 0.67755 0.96973 0.0
C1237 C 0.76919 0.79209 0.98363 0.0
C1238 C 0.03169 0.34644 0.50618 0.0
C1239 C 0.06239 0.32503 0.51369 0.0
H1240 H 0.96879 0.34069 0.4781 0.0
C1241 C 0.04839 0.27757 0.49993 0.0
H1242 H 0.03933 0.38159 0.51777 0.0
C1243 C 1.00601 0.25249 0.47952 0.0
C1244 C 0.97638 0.27442 0.47055 0.0
H1245 H 0.06866 0.25808 0.50667 0.0
H1246 H 0.9976 0.21615 0.46942 0.0
C1247 C 0.9897 0.32189 0.48451 0.0
C1248 C 0.57388 0.17598 0.10008 0.0
C1249 C 0.58124 0.1478 0.0752 0.0
H1250 H 0.52061 0.19162 0.12499 0.0
C1251 C 0.53775 0.10663 0.06142 0.0
H1252 H 0.60603 0.20815 0.11129 0.0
C1253 C 0.48951 0.09888 0.06816 0.0
C1254 C 0.48186 0.12852 0.09137 0.0
H1255 H 0.54102 0.08269 0.04299 0.0
H1256 H 0.4588 0.0727 0.05258 0.0
C1257 C 0.52464 0.16609 0.10826 0.0
C1258 C 0.6724 0.53466 0.35112 0.0
C1259 C 0.69767 0.57468 0.37376 0.0
H1260 H 0.60958 0.46026 0.3419 0.0
C1261 C 0.67758 0.56901 0.40554 0.0
H1262 H 0.68796 0.53746 0.32666 0.0
C1263 C 0.63414 0.5241 0.41477 0.0
C1264 C 0.60833 0.48368 0.39223 0.0
H1265 H 0.69703 0.59804 0.42392 0.0
H1266 H 0.62185 0.52073 0.44015 0.0
C1267 C 0.62806 0.48992 0.36009 0.0
C1268 C 0.93111 0.38397 0.06958 0.0
C1269 C 0.92377 0.36983 0.10299 0.0
H1270 H 0.93254 0.43478 0.03259 0.0
C1271 C 0.91256 0.39862 0.12508 0.0
H1272 H 0.93722 0.3613 0.05157 0.0
C1273 C 0.90887 0.44051 0.11414 0.0
C1274 C 0.91625 0.45477 0.08069 0.0
H1275 H 0.90479 0.38749 0.15075 0.0
H1276 H 0.90027 0.46173 0.1319 0.0
C1277 C 0.92764 0.42587 0.05866 0.0
C1278 C 0.51815 0.17004 0.37131 0.0
C1279 C 0.47389 0.12889 0.38447 0.0
H1280 H 0.59944 0.21135 0.37109 0.0
C1281 C 0.47853 0.09236 0.4026 0.0
H1282 H 0.51596 0.20005 0.35842 0.0
C1283 C 0.526 0.09763 0.40876 0.0
C1284 C 0.57087 0.14183 0.39929 0.0
H1285 H 0.44579 0.06191 0.41466 0.0
H1286 H 0.52742 0.06874 0.42348 0.0
C1287 C 0.5662 0.17674 0.37887 0.0
C1288 C 0.62536 0.4956 0.12504 0.0
C1289 C 0.61124 0.48528 0.0917 0.0
H1290 H 0.67879 0.54822 0.16004 0.0
C1291 C 0.64041 0.52301 0.06821 0.0
H1292 H 0.6041 0.46773 0.14384 0.0
C1293 C 0.68181 0.56939 0.07757 0.0
C1294 C 0.69599 0.57983 0.11078 0.0
H1295 H 0.63204 0.51627 0.04214 0.0
H1296 H 0.70436 0.59592 0.05849 0.0
C1297 C 0.66736 0.54223 0.1344 0.0
C1298 C 0.93639 0.42574 0.42321 0.0
C1299 C 0.92118 0.45352 0.40292 0.0
H1300 H 0.94716 0.36146 0.42796 0.0
C1301 C 0.90816 0.43748 0.37006 0.0
H1302 H 0.94605 0.43614 0.44881 0.0
C1303 C 0.90938 0.39471 0.35818 0.0
C1304 C 0.92345 0.36643 0.37871 0.0
H1305 H 0.89692 0.4579 0.35345 0.0
H1306 H 0.89736 0.38244 0.33308 0.0
C1307 C 0.93753 0.38294 0.41127 0.0
C1308 C 0.14427 0.54738 0.62267 0.0
C1309 C 0.13967 0.55709 0.5893 0.0
H1310 H 0.14661 0.49567 0.65793 0.0
C1311 C 0.13131 0.51907 0.56605 0.0
H1312 H 0.15079 0.57544 0.64132 0.0
C1313 C 0.12723 0.47306 0.57568 0.0
C1314 C 0.13181 0.46327 0.60891 0.0
H1315 H 0.12917 0.52529 0.53996 0.0
H1316 H 0.12322 0.4463 0.55672 0.0
C1317 C 0.14062 0.50114 0.63229 0.0
C1318 C 0.37395 0.87525 0.86659 0.0
C1319 C 0.3692 0.91333 0.88328 0.0
H1320 H 0.41366 0.83336 0.8635 0.0
C1321 C 0.4077 0.9448 0.90511 0.0
H1322 H 0.34365 0.84873 0.85079 0.0
C1323 C 0.44844 0.9373 0.91149 0.0
C1324 C 0.45019 0.89549 0.89815 0.0
H1325 H 0.40375 0.97226 0.91989 0.0
H1326 H 0.47598 0.96135 0.92966 0.0
C1327 C 0.41395 0.86614 0.87411 0.0
C1328 C 0.56457 0.65088 0.57264 0.0
C1329 C 0.56879 0.6669 0.60554 0.0
H1330 H 0.51749 0.5993 0.53526 0.0
C1331 C 0.52674 0.63988 0.62652 0.0
H1332 H 0.5952 0.67176 0.55542 0.0
C1333 C 0.48155 0.59844 0.61491 0.0
C1334 C 0.47697 0.58263 0.58187 0.0
H1335 H 0.5283 0.65209 0.65181 0.0
H1336 H 0.45022 0.57878 0.63188 0.0
C1337 C 0.51946 0.60945 0.56102 0.0
C1338 C 0.12992 0.51555 0.91456 0.0
C1339 C 0.1447 0.55666 0.89248 0.0
H1340 H 0.11702 0.4405 0.92257 0.0
C1341 C 0.15621 0.55021 0.85984 0.0
H1342 H 0.1224 0.5189 0.94026 0.0
C1343 C 0.1538 0.50469 0.84997 0.0
C1344 C 0.13922 0.46409 0.87222 0.0
H1345 H 0.16747 0.58036 0.84197 0.0
H1346 H 0.16523 0.50183 0.82511 0.0
C1347 C 0.12654 0.46994 0.90448 0.0
C1348 C 0.40083 0.93649 0.56825 0.0
C1349 C 0.36267 0.90572 0.59065 0.0
H1350 H 0.47004 0.95494 0.54454 0.0
C1351 C 0.36732 0.86701 0.60666 0.0
H1352 H 0.39709 0.96357 0.55305 0.0
C1353 C 0.40737 0.85781 0.59874 0.0
C1354 C 0.44422 0.88776 0.57498 0.0
H1355 H 0.33723 0.84059 0.62269 0.0
H1356 H 0.40721 0.82514 0.60938 0.0
C1357 C 0.44195 0.92951 0.56199 0.0
C1358 C 0.56791 0.66148 0.91506 0.0
C1359 C 0.57406 0.67542 0.88161 0.0
H1360 H 0.51965 0.61049 0.95238 0.0
C1361 C 0.53386 0.64641 0.85987 0.0
H1362 H 0.59677 0.6843 0.93285 0.0
C1363 C 0.48883 0.60441 0.87117 0.0
C1364 C 0.48274 0.59022 0.90461 0.0
H1365 H 0.53672 0.65732 0.83418 0.0
H1366 H 0.45887 0.58296 0.85366 0.0
C1367 C 0.52313 0.6194 0.92632 0.0
loop_
_geom_bond_atom_site_label_1
_geom_bond_atom_site_label_2
_geom_bond_distance
_geom_bond_site_symmetry_2
_ccdc_geom_bond_type
Eu0 N31 2.657 . S
Eu0 N38 2.609 . S
Eu0 O44 2.558 . S
Eu0 O45 2.612 . S
Eu0 O47 2.339 . S
Eu0 O48 2.563 . S
Eu0 O49 2.419 . S
Eu0 O51 2.380 . S
Eu0 O52 2.432 . S
Eu0 C64 2.848 . S
C1 C4 1.429 . S
C1 C5 1.411 1_545 S
C1 N8 1.377 . S
C2 C4 1.420 1_565 S
C2 C6 1.423 . S
C2 C14 1.392 . S
C3 C5 1.420 . S
C3 C6 1.351 . S
C3 H26 0.931 . S
C4 C1 1.429 . S
C4 C2 1.420 1_545 S
C4 N12 1.362 . S
C5 C1 1.411 1_565 S
C5 C3 1.420 . S
C5 C10 1.391 1_565 S
C6 C2 1.423 . S
C6 C3 1.351 . S
C6 H18 0.930 . S
C7 C9 1.400 . S
C7 C10 1.398 . S
C7 H19 0.930 . S
N8 C1 1.377 . S
N8 C9 1.321 . S
N8 Eu11 2.609 . S
C9 C7 1.400 . S
C9 N8 1.321 . S
C9 H16 0.930 . S
C10 C5 1.391 1_545 S
C10 C7 1.398 . S
C10 H29 0.921 1_545 S
Eu11 N8 2.609 . S
Eu11 N12 2.657 . S
Eu11 O45 2.380 . S
Eu11 O46 2.432 . S
Eu11 O50 2.558 . S
Eu11 O51 2.612 . S
Eu11 O53 2.339 . S
Eu11 O54 2.563 . S
Eu11 O55 2.419 . S
Eu11 C75 2.848 1_545 S
N12 C4 1.362 . S
N12 Eu11 2.657 . S
N12 C13 1.334 . S
C13 N12 1.334 . S
C13 C15 1.413 . S
C13 H20 0.929 . S
C14 C2 1.392 . S
C14 C15 1.367 1_565 S
C14 H22 0.930 . S
C15 C13 1.413 . S
C15 C14 1.367 1_545 S
C15 H17 0.930 . S
H16 C9 0.930 . S
H17 C15 0.930 . S
H18 C6 0.930 . S
H19 C7 0.930 . S
H20 C13 0.929 . S
H21 C35 0.930 . S
H22 C14 0.930 . S
H23 C41 0.930 . S
H24 C32 0.929 . S
H25 C39 0.930 . S
H26 C3 0.931 . S
H27 C33 0.930 . S
H28 C66 0.930 . S
H29 C10 0.921 1_565 S
H30 C65 0.931 . S
N31 Eu0 2.657 . S
N31 C32 1.334 . S
N31 C36 1.362 . S
C32 H24 0.929 . S
C32 N31 1.334 . S
C32 C35 1.413 . S
C33 H27 0.930 . S
C33 C34 1.392 . S
C33 C35 1.367 . S
C34 C33 1.392 . S
C34 C36 1.420 . S
C34 C66 1.423 . S
C35 H21 0.930 . S
C35 C32 1.413 . S
C35 C33 1.367 . S
C36 N31 1.362 . S
C36 C34 1.420 . S
C36 C40 1.429 . S
H37 C42 0.930 . S
N38 Eu0 2.609 . S
N38 C40 1.377 . S
N38 C41 1.321 . S
C39 H25 0.930 . S
C39 C41 1.400 1_556 S
C39 C42 1.386 . S
C40 C36 1.429 . S
C40 N38 1.377 . S
C40 C43 1.411 . S
C41 H23 0.930 . S
C41 N38 1.321 . S
C41 C39 1.400 1_554 S
C42 H37 0.930 . S
C42 C39 1.386 . S
C42 C43 1.395 1_556 S
C43 C40 1.411 . S
C43 C42 1.395 1_554 S
C43 C65 1.420 . S
O44 Eu0 2.558 . S
O44 C64 1.257 . S
O45 Eu0 2.612 . S
O45 Eu11 2.380 . S
O45 C56 1.276 . S
O46 Eu11 2.432 . S
O46 C63 1.264 . S
O47 Eu0 2.339 . S
O47 C63 1.254 . S
O48 Eu0 2.563 . S
O48 C56 1.235 . S
O49 Eu0 2.419 . S
O49 C64 1.249 . S
O50 Eu11 2.558 . S
O50 C75 1.257 1_545 S
O51 Eu0 2.380 . S
O51 Eu11 2.612 . S
O51 C67 1.276 . S
O52 Eu0 2.432 . S
O52 C74 1.264 . S
O53 Eu11 2.339 . S
O53 C74 1.254 . S
O54 Eu11 2.563 . S
O54 C67 1.235 . S
O55 Eu11 2.419 . S
O55 C75 1.249 1_545 S
C56 O45 1.276 . S
C56 O48 1.235 . S
C57 C59 1.393 . S
C57 C61 1.395 . S
C57 C64 1.492 . S
C58 C59 1.392 . S
C58 C60 1.386 . S
C59 C57 1.393 . S
C59 C58 1.392 . S
C59 H76 0.930 . S
C60 C58 1.386 . S
C60 C62 1.395 . S
C60 H77 0.930 . S
C61 C57 1.395 . S
C61 C62 1.379 . S
C61 H78 0.930 . S
C62 C60 1.395 . S
C62 C61 1.379 . S
C62 H79 0.930 . S
C63 O46 1.264 . S
C63 O47 1.254 . S
C64 Eu0 2.848 . S
C64 O44 1.257 . S
C64 O49 1.249 . S
C64 C57 1.492 . S
C65 H30 0.931 . S
C65 C43 1.420 . S
C65 C66 1.351 . S
C66 H28 0.930 . S
C66 C34 1.423 . S
C66 C65 1.351 . S
C67 O51 1.276 . S
C67 O54 1.235 . S
C68 C69 1.393 . S
C68 C72 1.395 . S
C68 C75 1.492 . S
C69 C68 1.393 . S
C69 C70 1.392 . S
C69 H80 0.930 . S
C70 C69 1.392 . S
C70 C71 1.386 . S
C71 C70 1.386 . S
C71 C73 1.395 . S
C71 H81 0.930 . S
C72 C68 1.395 . S
C72 C73 1.379 . S
C72 H82 0.930 . S
C73 C71 1.395 . S
C73 C72 1.379 . S
C73 H83 0.930 . S
C74 O52 1.264 . S
C74 O53 1.254 . S
C75 Eu11 2.848 1_565 S
C75 O50 1.257 1_565 S
C75 O55 1.249 1_565 S
C75 C68 1.492 . S
H76 C59 0.930 . S
H77 C60 0.930 . S
H78 C61 0.930 . S
H79 C62 0.930 . S
H80 C69 0.930 . S
H81 C71 0.930 . S
H82 C72 0.930 . S
H83 C73 0.930 . S
Eu84 N115 2.657 . S
Eu84 N122 2.609 . S
Eu84 O128 2.558 . S
Eu84 O129 2.612 . S
Eu84 O131 2.339 . S
Eu84 O132 2.563 . S
Eu84 O133 2.419 . S
Eu84 O135 2.380 . S
Eu84 O136 2.432 . S
Eu84 C148 2.848 . S
C85 C88 1.429 . S
C85 C89 1.411 . S
C85 N92 1.377 . S
C86 C88 1.420 1_455 S
C86 C90 1.423 . S
C86 C98 1.392 . S
C87 C89 1.420 1_455 S
C87 C90 1.351 . S
C87 H110 0.931 . S
C88 C85 1.429 . S
C88 C86 1.420 1_655 S
C88 N96 1.362 . S
C89 C85 1.411 . S
C89 C87 1.420 1_655 S
C89 C94 1.395 . S
C90 C86 1.423 . S
C90 C87 1.351 . S
C90 H102 0.930 . S
C91 C93 1.400 . S
C91 C94 1.386 . S
C91 H103 0.930 . S
N92 C85 1.377 . S
N92 C93 1.321 . S
N92 Eu95 2.609 . S
C93 C91 1.400 . S
C93 N92 1.321 . S
C93 H100 0.930 . S
C94 C89 1.395 . S
C94 C91 1.386 . S
C94 H113 0.930 . S
Eu95 N92 2.609 . S
Eu95 N96 2.657 . S
Eu95 O129 2.380 . S
Eu95 O130 2.432 . S
Eu95 O134 2.558 . S
Eu95 O135 2.612 . S
Eu95 O137 2.339 . S
Eu95 O138 2.563 . S
Eu95 O139 2.419 . S
Eu95 C159 2.848 . S
N96 C88 1.362 . S
N96 Eu95 2.657 . S
N96 C97 1.334 . S
C97 N96 1.334 . S
C97 C99 1.413 1_655 S
C97 H104 0.929 . S
C98 C86 1.392 . S
C98 C99 1.367 . S
C98 H106 0.930 . S
C99 C97 1.413 1_455 S
C99 C98 1.367 . S
C99 H101 0.930 . S
H100 C93 0.930 . S
H101 C99 0.930 . S
H102 C90 0.930 . S
H103 C91 0.930 . S
H104 C97 0.929 . S
H105 C119 0.930 . S
H106 C98 0.930 . S
H107 C125 0.930 . S
H108 C116 0.929 . S
H109 C123 0.930 . S
H110 C87 0.931 . S
H111 C117 0.930 . S
H112 C150 0.930 . S
H113 C94 0.930 . S
H114 C149 0.931 . S
N115 Eu84 2.657 . S
N115 C116 1.334 . S
N115 C120 1.362 . S
C116 H108 0.929 . S
C116 N115 1.334 . S
C116 C119 1.413 . S
C117 H111 0.930 . S
C117 C118 1.392 . S
C117 C119 1.367 . S
C118 C117 1.392 . S
C118 C120 1.420 . S
C118 C150 1.423 . S
C119 H105 0.930 . S
C119 C116 1.413 . S
C119 C117 1.367 . S
C120 N115 1.362 . S
C120 C118 1.420 . S
C120 C124 1.429 . S
H121 C126 0.930 . S
N122 Eu84 2.609 . S
N122 C124 1.377 . S
N122 C125 1.321 . S
C123 H109 0.930 . S
C123 C125 1.400 . S
C123 C126 1.386 . S
C124 C120 1.429 . S
C124 N122 1.377 . S
C124 C127 1.411 . S
C125 H107 0.930 . S
C125 N122 1.321 . S
C125 C123 1.400 . S
C126 H121 0.930 . S
C126 C123 1.386 . S
C126 C127 1.395 . S
C127 C124 1.411 . S
C127 C126 1.395 . S
C127 C149 1.420 . S
O128 Eu84 2.558 . S
O128 C148 1.257 . S
O129 Eu84 2.612 . S
O129 Eu95 2.380 . S
O129 C140 1.276 . S
O130 Eu95 2.432 . S
O130 C147 1.264 . S
O131 Eu84 2.339 . S
O131 C147 1.254 . S
O132 Eu84 2.563 . S
O132 C140 1.235 . S
O133 Eu84 2.419 . S
O133 C148 1.249 . S
O134 Eu95 2.558 . S
O134 C159 1.257 . S
O135 Eu84 2.380 . S
O135 Eu95 2.612 . S
O135 C151 1.276 . S
O136 Eu84 2.432 . S
O136 C158 1.264 . S
O137 Eu95 2.339 . S
O137 C158 1.254 . S
O138 Eu95 2.563 . S
O138 C151 1.235 . S
O139 Eu95 2.419 . S
O139 C159 1.249 . S
C140 O129 1.276 . S
C140 O132 1.235 . S
C141 C143 1.393 . S
C141 C145 1.395 . S
C141 C148 1.492 . S
C142 C143 1.392 . S
C142 C144 1.386 . S
C143 C141 1.393 . S
C143 C142 1.392 . S
C143 H160 0.930 . S
C144 C142 1.386 . S
C144 C146 1.395 . S
C144 H161 0.930 . S
C145 C141 1.395 . S
C145 C146 1.379 . S
C145 H162 0.930 . S
C146 C144 1.395 . S
C146 C145 1.379 . S
C146 H163 0.930 . S
C147 O130 1.264 . S
C147 O131 1.254 . S
C148 Eu84 2.848 . S
C148 O128 1.257 . S
C148 O133 1.249 . S
C148 C141 1.492 . S
C149 H114 0.931 . S
C149 C127 1.420 . S
C149 C150 1.351 . S
C150 H112 0.930 . S
C150 C118 1.423 . S
C150 C149 1.351 . S
C151 O135 1.276 . S
C151 O138 1.235 . S
C152 C153 1.393 . S
C152 C156 1.395 . S
C152 C159 1.492 . S
C153 C152 1.393 . S
C153 C154 1.392 . S
C153 H164 0.930 . S
C154 C153 1.392 . S
C154 C155 1.386 . S
C155 C154 1.386 . S
C155 C157 1.395 . S
C155 H165 0.930 . S
C156 C152 1.395 . S
C156 C157 1.379 . S
C156 H166 0.930 . S
C157 C155 1.395 . S
C157 C156 1.379 . S
C157 H167 0.930 . S
C158 O136 1.264 . S
C158 O137 1.254 . S
C159 Eu95 2.848 . S
C159 O134 1.257 . S
C159 O139 1.249 . S
C159 C152 1.492 . S
H160 C143 0.930 . S
H161 C144 0.930 . S
H162 C145 0.930 . S
H163 C146 0.930 . S
H164 C153 0.930 . S
H165 C155 0.930 . S
H166 C156 0.930 . S
H167 C157 0.930 . S
Eu168 N199 2.657 . S
Eu168 N206 2.609 . S
Eu168 O212 2.558 . S
Eu168 O213 2.612 . S
Eu168 O215 2.339 . S
Eu168 O216 2.563 . S
Eu168 O217 2.419 . S
Eu168 O219 2.380 . S
Eu168 O220 2.432 . S
Eu168 C232 2.848 . S
C169 C172 1.429 . S
C169 C173 1.411 1_655 S
C169 N176 1.377 . S
C170 C172 1.420 1_455 S
C170 C174 1.423 . S
C170 C182 1.392 . S
C171 C173 1.420 . S
C171 C174 1.351 . S
C171 H194 0.931 . S
C172 C169 1.429 . S
C172 C170 1.420 1_655 S
C172 N180 1.362 . S
C173 C169 1.411 1_455 S
C173 C171 1.420 . S
C173 C178 1.397 1_455 S
C174 C170 1.423 . S
C174 C171 1.351 . S
C174 H186 0.930 . S
C175 C177 1.400 . S
C175 C178 1.387 . S
C175 H187 0.930 . S
N176 C169 1.377 . S
N176 C177 1.321 . S
N176 Eu179 2.609 . S
C177 C175 1.400 . S
C177 N176 1.321 . S
C177 H184 0.930 . S
C178 C173 1.397 1_655 S
C178 C175 1.387 . S
C178 H197 0.927 1_655 S
Eu179 N176 2.609 . S
Eu179 N180 2.657 . S
Eu179 O213 2.380 . S
Eu179 O214 2.432 . S
Eu179 O218 2.558 . S
Eu179 O219 2.612 . S
Eu179 O221 2.339 . S
Eu179 O222 2.563 . S
Eu179 O223 2.419 . S
Eu179 C243 2.848 1_655 S
N180 C172 1.362 . S
N180 Eu179 2.657 . S
N180 C181 1.334 . S
C181 N180 1.334 . S
C181 C183 1.413 . S
C181 H188 0.929 . S
C182 C170 1.392 . S
C182 C183 1.367 1_455 S
C182 H190 0.930 . S
C183 C181 1.413 . S
C183 C182 1.367 1_655 S
C183 H185 0.930 . S
H184 C177 0.930 . S
H185 C183 0.930 . S
H186 C174 0.930 . S
H187 C175 0.930 . S
H188 C181 0.929 . S
H189 C203 0.930 . S
H190 C182 0.930 . S
H191 C209 0.930 . S
H192 C200 0.929 . S
H193 C207 0.930 . S
H194 C171 0.931 . S
H195 C201 0.930 . S
H196 C234 0.930 . S
H197 C178 0.927 1_455 S
H198 C233 0.931 . S
N199 Eu168 2.657 . S
N199 C200 1.334 . S
N199 C204 1.362 . S
C200 H192 0.929 . S
C200 N199 1.334 . S
C200 C203 1.413 1_545 S
C201 H195 0.930 . S
C201 C202 1.392 . S
C201 C203 1.367 . S
C202 C201 1.392 . S
C202 C204 1.420 1_565 S
C202 C234 1.423 . S
C203 H189 0.930 . S
C203 C200 1.413 1_565 S
C203 C201 1.367 . S
C204 N199 1.362 . S
C204 C202 1.420 1_545 S
C204 C208 1.429 . S
H205 C210 0.930 . S
N206 Eu168 2.609 . S
N206 C208 1.377 . S
N206 C209 1.321 . S
C207 H193 0.930 . S
C207 C209 1.400 1_556 S
C207 C210 1.386 . S
C208 C204 1.429 . S
C208 N206 1.377 . S
C208 C211 1.411 . S
C209 H191 0.930 . S
C209 N206 1.321 . S
C209 C207 1.400 1_554 S
C210 H205 0.930 . S
C210 C207 1.386 . S
C210 C211 1.395 1_556 S
C211 C208 1.411 . S
C211 C210 1.395 1_554 S
C211 C233 1.420 1_545 S
O212 Eu168 2.558 . S
O212 C232 1.257 . S
O213 Eu168 2.612 . S
O213 Eu179 2.380 . S
O213 C224 1.276 . S
O214 Eu179 2.432 . S
O214 C231 1.264 . S
O215 Eu168 2.339 . S
O215 C231 1.254 . S
O216 Eu168 2.563 . S
O216 C224 1.235 . S
O217 Eu168 2.419 . S
O217 C232 1.249 . S
O218 Eu179 2.558 . S
O218 C243 1.257 1_655 S
O219 Eu168 2.380 . S
O219 Eu179 2.612 . S
O219 C235 1.276 . S
O220 Eu168 2.432 . S
O220 C242 1.264 . S
O221 Eu179 2.339 . S
O221 C242 1.254 . S
O222 Eu179 2.563 . S
O222 C235 1.235 . S
O223 Eu179 2.419 . S
O223 C243 1.249 1_655 S
C224 O213 1.276 . S
C224 O216 1.235 . S
C225 C227 1.393 . S
C225 C229 1.395 . S
C225 C232 1.492 . S
C226 C227 1.392 . S
C226 C228 1.386 . S
C227 C225 1.393 . S
C227 C226 1.392 . S
C227 H244 0.930 . S
C228 C226 1.386 . S
C228 C230 1.395 . S
C228 H245 0.930 . S
C229 C225 1.395 . S
C229 C230 1.379 . S
C229 H246 0.930 . S
C230 C228 1.395 . S
C230 C229 1.379 . S
C230 H247 0.930 . S
C231 O214 1.264 . S
C231 O215 1.254 . S
C232 Eu168 2.848 . S
C232 O212 1.257 . S
C232 O217 1.249 . S
C232 C225 1.492 . S
C233 H198 0.931 . S
C233 C211 1.420 1_565 S
C233 C234 1.351 . S
C234 H196 0.930 . S
C234 C202 1.423 . S
C234 C233 1.351 . S
C235 O219 1.276 . S
C235 O222 1.235 . S
C236 C237 1.393 . S
C236 C240 1.395 . S
C236 C243 1.492 . S
C237 C236 1.393 . S
C237 C238 1.392 . S
C237 H248 0.930 . S
C238 C237 1.392 . S
C238 C239 1.386 . S
C239 C238 1.386 . S
C239 C241 1.395 . S
C239 H249 0.930 . S
C240 C236 1.395 . S
C240 C241 1.379 . S
C240 H250 0.930 . S
C241 C239 1.395 . S
C241 C240 1.379 . S
C241 H251 0.930 . S
C242 O220 1.264 . S
C242 O221 1.254 . S
C243 Eu179 2.848 1_455 S
C243 O218 1.257 1_455 S
C243 O223 1.249 1_455 S
C243 C236 1.492 . S
H244 C227 0.930 . S
H245 C228 0.930 . S
H246 C229 0.930 . S
H247 C230 0.930 . S
H248 C237 0.930 . S
H249 C239 0.930 . S
H250 C240 0.930 . S
H251 C241 0.930 . S
Eu252 N283 2.657 . S
Eu252 N290 2.609 . S
Eu252 O296 2.558 . S
Eu252 O297 2.612 . S
Eu252 O299 2.339 . S
Eu252 O300 2.563 . S
Eu252 O301 2.419 . S
Eu252 O303 2.380 . S
Eu252 O304 2.432 . S
Eu252 C316 2.848 1_545 S
C253 C256 1.429 . S
C253 C257 1.411 . S
C253 N260 1.377 . S
C254 C256 1.420 . S
C254 C258 1.423 . S
C254 C266 1.392 . S
C255 C257 1.420 . S
C255 C258 1.351 . S
C255 H278 0.931 . S
C256 C253 1.429 . S
C256 C254 1.420 . S
C256 N264 1.362 . S
C257 C253 1.411 . S
C257 C255 1.420 . S
C257 C262 1.395 . S
C258 C254 1.423 . S
C258 C255 1.351 . S
C258 H270 0.930 . S
C259 C261 1.400 . S
C259 C262 1.386 . S
C259 H271 0.930 . S
N260 C253 1.377 . S
N260 C261 1.321 . S
N260 Eu263 2.609 . S
C261 C259 1.400 . S
C261 N260 1.321 . S
C261 H268 0.930 . S
C262 C257 1.395 . S
C262 C259 1.386 . S
C262 H281 0.930 . S
Eu263 N260 2.609 . S
Eu263 N264 2.657 . S
Eu263 O297 2.380 . S
Eu263 O298 2.432 . S
Eu263 O302 2.558 . S
Eu263 O303 2.612 . S
Eu263 O305 2.339 . S
Eu263 O306 2.563 . S
Eu263 O307 2.419 . S
Eu263 C327 2.848 . S
N264 C256 1.362 . S
N264 Eu263 2.657 . S
N264 C265 1.334 . S
C265 N264 1.334 . S
C265 C267 1.413 . S
C265 H272 0.929 . S
C266 C254 1.392 . S
C266 C267 1.367 . S
C266 H274 0.930 . S
C267 C265 1.413 . S
C267 C266 1.367 . S
C267 H269 0.930 . S
H268 C261 0.930 . S
H269 C267 0.930 . S
H270 C258 0.930 . S
H271 C259 0.930 . S
H272 C265 0.929 . S
H273 C287 0.930 . S
H274 C266 0.930 . S
H275 C293 0.930 . S
H276 C284 0.929 . S
H277 C291 0.930 . S
H278 C255 0.931 . S
H279 C285 0.930 . S
H280 C318 0.930 . S
H281 C262 0.930 . S
H282 C317 0.931 . S
N283 Eu252 2.657 . S
N283 C284 1.334 . S
N283 C288 1.362 . S
C284 H276 0.929 . S
C284 N283 1.334 . S
C284 C287 1.413 . S
C285 H279 0.930 . S
C285 C286 1.392 . S
C285 C287 1.367 1_565 S
C286 C285 1.392 . S
C286 C288 1.420 1_565 S
C286 C318 1.423 . S
C287 H273 0.930 . S
C287 C284 1.413 . S
C287 C285 1.367 1_545 S
C288 N283 1.362 . S
C288 C286 1.420 1_545 S
C288 C292 1.429 . S
H289 C294 0.921 1_565 S
N290 Eu252 2.609 . S
N290 C292 1.377 . S
N290 C293 1.321 . S
C291 H277 0.930 . S
C291 C293 1.400 . S
C291 C294 1.398 . S
C292 C288 1.429 . S
C292 N290 1.377 . S
C292 C295 1.411 1_545 S
C293 H275 0.930 . S
C293 N290 1.321 . S
C293 C291 1.400 . S
C294 H289 0.921 1_545 S
C294 C291 1.398 . S
C294 C295 1.391 1_545 S
C295 C292 1.411 1_565 S
C295 C294 1.391 1_565 S
C295 C317 1.420 . S
O296 Eu252 2.558 . S
O296 C316 1.257 1_545 S
O297 Eu252 2.612 . S
O297 Eu263 2.380 . S
O297 C308 1.276 . S
O298 Eu263 2.432 . S
O298 C315 1.264 . S
O299 Eu252 2.339 . S
O299 C315 1.254 . S
O300 Eu252 2.563 . S
O300 C308 1.235 . S
O301 Eu252 2.419 . S
O301 C316 1.249 1_545 S
O302 Eu263 2.558 . S
O302 C327 1.257 . S
O303 Eu252 2.380 . S
O303 Eu263 2.612 . S
O303 C319 1.276 . S
O304 Eu252 2.432 . S
O304 C326 1.264 . S
O305 Eu263 2.339 . S
O305 C326 1.254 . S
O306 Eu263 2.563 . S
O306 C319 1.235 . S
O307 Eu263 2.419 . S
O307 C327 1.249 . S
C308 O297 1.276 . S
C308 O300 1.235 . S
C309 C311 1.393 . S
C309 C313 1.395 . S
C309 C316 1.492 . S
C310 C311 1.392 . S
C310 C312 1.386 . S
C311 C309 1.393 . S
C311 C310 1.392 . S
C311 H328 0.930 . S
C312 C310 1.386 . S
C312 C314 1.395 . S
C312 H329 0.930 . S
C313 C309 1.395 . S
C313 C314 1.379 . S
C313 H330 0.930 . S
C314 C312 1.395 . S
C314 C313 1.379 . S
C314 H331 0.930 . S
C315 O298 1.264 . S
C315 O299 1.254 . S
C316 Eu252 2.848 1_565 S
C316 O296 1.257 1_565 S
C316 O301 1.249 1_565 S
C316 C309 1.492 . S
C317 H282 0.931 . S
C317 C295 1.420 . S
C317 C318 1.351 . S
C318 H280 0.930 . S
C318 C286 1.423 . S
C318 C317 1.351 . S
C319 O303 1.276 . S
C319 O306 1.235 . S
C320 C321 1.393 . S
C320 C324 1.395 . S
C320 C327 1.492 . S
C321 C320 1.393 . S
C321 C322 1.392 . S
C321 H332 0.930 . S
C322 C321 1.392 . S
C322 C323 1.386 . S
C323 C322 1.386 . S
C323 C325 1.395 . S
C323 H333 0.930 . S
C324 C320 1.395 . S
C324 C325 1.379 . S
C324 H334 0.930 . S
C325 C323 1.395 . S
C325 C324 1.379 . S
C325 H335 0.930 . S
C326 O304 1.264 . S
C326 O305 1.254 . S
C327 Eu263 2.848 . S
C327 O302 1.257 . S
C327 O307 1.249 . S
C327 C320 1.492 . S
H328 C311 0.930 . S
H329 C312 0.930 . S
H330 C313 0.930 . S
H331 C314 0.930 . S
H332 C321 0.930 . S
H333 C323 0.930 . S
H334 C324 0.930 . S
H335 C325 0.930 . S
Eu336 N367 2.657 . S
Eu336 N374 2.609 . S
Eu336 O380 2.558 . S
Eu336 O381 2.612 . S
Eu336 O383 2.339 . S
Eu336 O384 2.563 . S
Eu336 O385 2.419 . S
Eu336 O387 2.380 . S
Eu336 O388 2.432 . S
Eu336 C400 2.848 . S
C337 C340 1.429 . S
C337 C341 1.411 . S
C337 N344 1.377 . S
C338 C340 1.420 . S
C338 C342 1.423 . S
C338 C350 1.392 . S
C339 C341 1.420 . S
C339 C342 1.351 . S
C339 H362 0.931 . S
C340 C337 1.429 . S
C340 C338 1.420 . S
C340 N348 1.362 . S
C341 C337 1.411 . S
C341 C339 1.420 . S
C341 C346 1.395 . S
C342 C338 1.423 . S
C342 C339 1.351 . S
C342 H354 0.930 . S
C343 C345 1.400 . S
C343 C346 1.386 . S
C343 H355 0.930 . S
N344 C337 1.377 . S
N344 C345 1.321 . S
N344 Eu347 2.609 . S
C345 C343 1.400 . S
C345 N344 1.321 . S
C345 H352 0.930 . S
C346 C341 1.395 . S
C346 C343 1.386 . S
C346 H365 0.930 . S
Eu347 N344 2.609 . S
Eu347 N348 2.657 . S
Eu347 O381 2.380 . S
Eu347 O382 2.432 . S
Eu347 O386 2.558 . S
Eu347 O387 2.612 . S
Eu347 O389 2.339 . S
Eu347 O390 2.563 . S
Eu347 O391 2.419 . S
Eu347 C411 2.848 . S
N348 C340 1.362 . S
N348 Eu347 2.657 . S
N348 C349 1.334 . S
C349 N348 1.334 . S
C349 C351 1.413 . S
C349 H356 0.929 . S
C350 C338 1.392 . S
C350 C351 1.367 . S
C350 H358 0.930 . S
C351 C349 1.413 . S
C351 C350 1.367 . S
C351 H353 0.930 . S
H352 C345 0.930 . S
H353 C351 0.930 . S
H354 C342 0.930 . S
H355 C343 0.930 . S
H356 C349 0.929 . S
H357 C371 0.930 . S
H358 C350 0.930 . S
H359 C377 0.930 . S
H360 C368 0.929 . S
H361 C375 0.930 . S
H362 C339 0.931 . S
H363 C369 0.930 . S
H364 C402 0.930 . S
H365 C346 0.930 . S
H366 C401 0.931 . S
N367 Eu336 2.657 . S
N367 C368 1.334 . S
N367 C372 1.362 . S
C368 H360 0.929 . S
C368 N367 1.334 . S
C368 C371 1.413 1_655 S
C369 H363 0.930 . S
C369 C370 1.392 . S
C369 C371 1.367 . S
C370 C369 1.392 . S
C370 C372 1.420 1_455 S
C370 C402 1.423 . S
C371 H357 0.930 . S
C371 C368 1.413 1_455 S
C371 C369 1.367 . S
C372 N367 1.362 . S
C372 C370 1.420 1_655 S
C372 C376 1.429 . S
H373 C378 0.930 . S
N374 Eu336 2.609 . S
N374 C376 1.377 . S
N374 C377 1.321 . S
C375 H361 0.930 . S
C375 C377 1.400 1_556 S
C375 C378 1.386 . S
C376 C372 1.429 . S
C376 N374 1.377 . S
C376 C379 1.411 . S
C377 H359 0.930 . S
C377 N374 1.321 . S
C377 C375 1.400 1_554 S
C378 H373 0.930 . S
C378 C375 1.386 . S
C378 C379 1.395 1_556 S
C379 C376 1.411 . S
C379 C378 1.395 1_554 S
C379 C401 1.420 1_655 S
O380 Eu336 2.558 . S
O380 C400 1.257 . S
O381 Eu336 2.612 . S
O381 Eu347 2.380 . S
O381 C392 1.276 . S
O382 Eu347 2.432 . S
O382 C399 1.264 . S
O383 Eu336 2.339 . S
O383 C399 1.254 . S
O384 Eu336 2.563 . S
O384 C392 1.235 . S
O385 Eu336 2.419 . S
O385 C400 1.249 . S
O386 Eu347 2.558 . S
O386 C411 1.257 . S
O387 Eu336 2.380 . S
O387 Eu347 2.612 . S
O387 C403 1.276 . S
O388 Eu336 2.432 . S
O388 C410 1.264 . S
O389 Eu347 2.339 . S
O389 C410 1.254 . S
O390 Eu347 2.563 . S
O390 C403 1.235 . S
O391 Eu347 2.419 . S
O391 C411 1.249 . S
C392 O381 1.276 . S
C392 O384 1.235 . S
C393 C395 1.393 . S
C393 C397 1.395 . S
C393 C400 1.492 . S
C394 C395 1.392 . S
C394 C396 1.386 . S
C395 C393 1.393 . S
C395 C394 1.392 . S
C395 H412 0.930 . S
C396 C394 1.386 . S
C396 C398 1.395 . S
C396 H413 0.930 . S
C397 C393 1.395 . S
C397 C398 1.379 . S
C397 H414 0.930 . S
C398 C396 1.395 . S
C398 C397 1.379 . S
C398 H415 0.930 . S
C399 O382 1.264 . S
C399 O383 1.254 . S
C400 Eu336 2.848 . S
C400 O380 1.257 . S
C400 O385 1.249 . S
C400 C393 1.492 . S
C401 H366 0.931 . S
C401 C379 1.420 1_455 S
C401 C402 1.351 . S
C402 H364 0.930 . S
C402 C370 1.423 . S
C402 C401 1.351 . S
C403 O387 1.276 . S
C403 O390 1.235 . S
C404 C405 1.393 . S
C404 C408 1.395 . S
C404 C411 1.492 . S
C405 C404 1.393 . S
C405 C406 1.392 . S
C405 H416 0.930 . S
C406 C405 1.392 . S
C406 C407 1.386 . S
C407 C406 1.386 . S
C407 C409 1.395 . S
C407 H417 0.930 . S
C408 C404 1.395 . S
C408 C409 1.379 . S
C408 H418 0.930 . S
C409 C407 1.395 . S
C409 C408 1.379 . S
C409 H419 0.930 . S
C410 O388 1.264 . S
C410 O389 1.254 . S
C411 Eu347 2.848 . S
C411 O386 1.257 . S
C411 O391 1.249 . S
C411 C404 1.492 . S
H412 C395 0.930 . S
H413 C396 0.930 . S
H414 C397 0.930 . S
H415 C398 0.930 . S
H416 C405 0.930 . S
H417 C407 0.930 . S
H418 C408 0.930 . S
H419 C409 0.930 . S
Eu420 N451 2.657 . S
Eu420 N458 2.609 . S
Eu420 O464 2.558 . S
Eu420 O465 2.612 . S
Eu420 O467 2.339 . S
Eu420 O468 2.563 . S
Eu420 O469 2.419 . S
Eu420 O471 2.380 . S
Eu420 O472 2.432 . S
Eu420 C484 2.848 1_655 S
C421 C424 1.429 . S
C421 C425 1.411 . S
C421 N428 1.377 . S
C422 C424 1.420 1_565 S
C422 C426 1.423 . S
C422 C434 1.392 . S
C423 C425 1.420 1_565 S
C423 C426 1.351 . S
C423 H446 0.931 . S
C424 C421 1.429 . S
C424 C422 1.420 1_545 S
C424 N432 1.362 . S
C425 C421 1.411 . S
C425 C423 1.420 1_545 S
C425 C430 1.395 . S
C426 C422 1.423 . S
C426 C423 1.351 . S
C426 H438 0.930 . S
C427 C429 1.400 . S
C427 C430 1.386 . S
C427 H439 0.930 . S
N428 C421 1.377 . S
N428 C429 1.321 . S
N428 Eu431 2.609 . S
C429 C427 1.400 . S
C429 N428 1.321 . S
C429 H436 0.930 . S
C430 C425 1.395 . S
C430 C427 1.386 . S
C430 H449 0.930 . S
Eu431 N428 2.609 . S
Eu431 N432 2.657 . S
Eu431 O465 2.380 . S
Eu431 O466 2.432 . S
Eu431 O470 2.558 . S
Eu431 O471 2.612 . S
Eu431 O473 2.339 . S
Eu431 O474 2.563 . S
Eu431 O475 2.419 . S
Eu431 C495 2.848 . S
N432 C424 1.362 . S
N432 Eu431 2.657 . S
N432 C433 1.334 . S
C433 N432 1.334 . S
C433 C435 1.413 1_545 S
C433 H440 0.929 . S
C434 C422 1.392 . S
C434 C435 1.367 . S
C434 H442 0.930 . S
C435 C433 1.413 1_565 S
C435 C434 1.367 . S
C435 H437 0.930 . S
H436 C429 0.930 . S
H437 C435 0.930 . S
H438 C426 0.930 . S
H439 C427 0.930 . S
H440 C433 0.929 . S
H441 C455 0.930 . S
H442 C434 0.930 . S
H443 C461 0.930 . S
H444 C452 0.929 . S
H445 C459 0.930 . S
H446 C423 0.931 . S
H447 C453 0.930 . S
H448 C486 0.930 . S
H449 C430 0.930 . S
H450 C485 0.931 . S
N451 Eu420 2.657 . S
N451 C452 1.334 . S
N451 C456 1.362 . S
C452 H444 0.929 . S
C452 N451 1.334 . S
C452 C455 1.413 . S
C453 H447 0.930 . S
C453 C454 1.392 . S
C453 C455 1.367 1_455 S
C454 C453 1.392 . S
C454 C456 1.420 1_455 S
C454 C486 1.423 . S
C455 H441 0.930 . S
C455 C452 1.413 . S
C455 C453 1.367 1_655 S
C456 N451 1.362 . S
C456 C454 1.420 1_655 S
C456 C460 1.429 . S
H457 C462 0.927 1_455 S
N458 Eu420 2.609 . S
N458 C460 1.377 . S
N458 C461 1.321 . S
C459 H445 0.930 . S
C459 C461 1.400 . S
C459 C462 1.387 . S
C460 C456 1.429 . S
C460 N458 1.377 . S
C460 C463 1.411 1_655 S
C461 H443 0.930 . S
C461 N458 1.321 . S
C461 C459 1.400 . S
C462 H457 0.927 1_655 S
C462 C459 1.387 . S
C462 C463 1.397 1_655 S
C463 C460 1.411 1_455 S
C463 C462 1.397 1_455 S
C463 C485 1.420 . S
O464 Eu420 2.558 . S
O464 C484 1.257 1_655 S
O465 Eu420 2.612 . S
O465 Eu431 2.380 . S
O465 C476 1.276 . S
O466 Eu431 2.432 . S
O466 C483 1.264 . S
O467 Eu420 2.339 . S
O467 C483 1.254 . S
O468 Eu420 2.563 . S
O468 C476 1.235 . S
O469 Eu420 2.419 . S
O469 C484 1.249 1_655 S
O470 Eu431 2.558 . S
O470 C495 1.257 . S
O471 Eu420 2.380 . S
O471 Eu431 2.612 . S
O471 C487 1.276 . S
O472 Eu420 2.432 . S
O472 C494 1.264 . S
O473 Eu431 2.339 . S
O473 C494 1.254 . S
O474 Eu431 2.563 . S
O474 C487 1.235 . S
O475 Eu431 2.419 . S
O475 C495 1.249 . S
C476 O465 1.276 . S
C476 O468 1.235 . S
C477 C479 1.393 . S
C477 C481 1.395 . S
C477 C484 1.492 . S
C478 C479 1.392 . S
C478 C480 1.386 . S
C479 C477 1.393 . S
C479 C478 1.392 . S
C479 H496 0.930 . S
C480 C478 1.386 . S
C480 C482 1.395 . S
C480 H497 0.930 . S
C481 C477 1.395 . S
C481 C482 1.379 . S
C481 H498 0.930 . S
C482 C480 1.395 . S
C482 C481 1.379 . S
C482 H499 0.930 . S
C483 O466 1.264 . S
C483 O467 1.254 . S
C484 Eu420 2.848 1_455 S
C484 O464 1.257 1_455 S
C484 O469 1.249 1_455 S
C484 C477 1.492 . S
C485 H450 0.931 . S
C485 C463 1.420 . S
C485 C486 1.351 . S
C486 H448 0.930 . S
C486 C454 1.423 . S
C486 C485 1.351 . S
C487 O471 1.276 . S
C487 O474 1.235 . S
C488 C489 1.393 . S
C488 C492 1.395 . S
C488 C495 1.492 . S
C489 C488 1.393 . S
C489 C490 1.392 . S
C489 H500 0.930 . S
C490 C489 1.392 . S
C490 C491 1.386 . S
C491 C490 1.386 . S
C491 C493 1.395 . S
C491 H501 0.930 . S
C492 C488 1.395 . S
C492 C493 1.379 . S
C492 H502 0.930 . S
C493 C491 1.395 . S
C493 C492 1.379 . S
C493 H503 0.930 . S
C494 O472 1.264 . S
C494 O473 1.254 . S
C495 Eu431 2.848 . S
C495 O470 1.257 . S
C495 O475 1.249 . S
C495 C488 1.492 . S
H496 C479 0.930 . S
H497 C480 0.930 . S
H498 C481 0.930 . S
H499 C482 0.930 . S
H500 C489 0.930 . S
H501 C491 0.930 . S
H502 C492 0.930 . S
H503 C493 0.930 . S
Eu504 N535 2.657 . S
Eu504 N542 2.609 . S
Eu504 O548 2.558 . S
Eu504 O549 2.612 . S
Eu504 O551 2.339 . S
Eu504 O552 2.563 . S
Eu504 O553 2.419 . S
Eu504 O555 2.380 . S
Eu504 O556 2.432 . S
Eu504 C568 2.848 1_455 S
C505 C508 1.429 . S
C505 C509 1.411 . S
C505 N512 1.377 . S
C506 C508 1.420 . S
C506 C510 1.423 . S
C506 C518 1.392 . S
C507 C509 1.420 . S
C507 C510 1.351 . S
C507 H530 0.931 . S
C508 C505 1.429 . S
C508 C506 1.420 . S
C508 N516 1.362 . S
C509 C505 1.411 . S
C509 C507 1.420 . S
C509 C514 1.395 . S
C510 C506 1.423 . S
C510 C507 1.351 . S
C510 H522 0.930 . S
C511 C513 1.400 . S
C511 C514 1.386 . S
C511 H523 0.930 . S
N512 C505 1.377 . S
N512 C513 1.321 . S
N512 Eu515 2.609 . S
C513 C511 1.400 . S
C513 N512 1.321 . S
C513 H520 0.930 . S
C514 C509 1.395 . S
C514 C511 1.386 . S
C514 H533 0.930 . S
Eu515 N512 2.609 . S
Eu515 N516 2.657 . S
Eu515 O549 2.380 . S
Eu515 O550 2.432 . S
Eu515 O554 2.558 . S
Eu515 O555 2.612 . S
Eu515 O557 2.339 . S
Eu515 O558 2.563 . S
Eu515 O559 2.419 . S
Eu515 C579 2.848 . S
N516 C508 1.362 . S
N516 Eu515 2.657 . S
N516 C517 1.334 . S
C517 N516 1.334 . S
C517 C519 1.413 . S
C517 H524 0.929 . S
C518 C506 1.392 . S
C518 C519 1.367 . S
C518 H526 0.930 . S
C519 C517 1.413 . S
C519 C518 1.367 . S
C519 H521 0.930 . S
H520 C513 0.930 . S
H521 C519 0.930 . S
H522 C510 0.930 . S
H523 C511 0.930 . S
H524 C517 0.929 . S
H525 C539 0.930 . S
H526 C518 0.930 . S
H527 C545 0.930 . S
H528 C536 0.929 . S
H529 C543 0.930 . S
H530 C507 0.931 . S
H531 C537 0.930 . S
H532 C570 0.930 . S
H533 C514 0.930 . S
H534 C569 0.931 . S
N535 Eu504 2.657 . S
N535 C536 1.334 . S
N535 C540 1.362 . S
C536 H528 0.929 . S
C536 N535 1.334 . S
C536 C539 1.413 . S
C537 H531 0.930 . S
C537 C538 1.392 . S
C537 C539 1.367 1_655 S
C538 C537 1.392 . S
C538 C540 1.420 1_655 S
C538 C570 1.423 . S
C539 H525 0.930 . S
C539 C536 1.413 . S
C539 C537 1.367 1_455 S
C540 N535 1.362 . S
C540 C538 1.420 1_455 S
C540 C544 1.429 . S
H541 C546 0.921 1_655 S
N542 Eu504 2.609 . S
N542 C544 1.377 . S
N542 C545 1.321 . S
C543 H529 0.930 . S
C543 C545 1.400 . S
C543 C546 1.398 . S
C544 C540 1.429 . S
C544 N542 1.377 . S
C544 C547 1.411 1_455 S
C545 H527 0.930 . S
C545 N542 1.321 . S
C545 C543 1.400 . S
C546 H541 0.921 1_455 S
C546 C543 1.398 . S
C546 C547 1.391 1_455 S
C547 C544 1.411 1_655 S
C547 C546 1.391 1_655 S
C547 C569 1.420 . S
O548 Eu504 2.558 . S
O548 C568 1.257 1_455 S
O549 Eu504 2.612 . S
O549 Eu515 2.380 . S
O549 C560 1.276 . S
O550 Eu515 2.432 . S
O550 C567 1.264 . S
O551 Eu504 2.339 . S
O551 C567 1.254 . S
O552 Eu504 2.563 . S
O552 C560 1.235 . S
O553 Eu504 2.419 . S
O553 C568 1.249 1_455 S
O554 Eu515 2.558 . S
O554 C579 1.257 . S
O555 Eu504 2.380 . S
O555 Eu515 2.612 . S
O555 C571 1.276 . S
O556 Eu504 2.432 . S
O556 C578 1.264 . S
O557 Eu515 2.339 . S
O557 C578 1.254 . S
O558 Eu515 2.563 . S
O558 C571 1.235 . S
O559 Eu515 2.419 . S
O559 C579 1.249 . S
C560 O549 1.276 . S
C560 O552 1.235 . S
C561 C563 1.393 . S
C561 C565 1.395 . S
C561 C568 1.492 . S
C562 C563 1.392 . S
C562 C564 1.386 . S
C563 C561 1.393 . S
C563 C562 1.392 . S
C563 H580 0.930 . S
C564 C562 1.386 . S
C564 C566 1.395 . S
C564 H581 0.930 . S
C565 C561 1.395 . S
C565 C566 1.379 . S
C565 H582 0.930 . S
C566 C564 1.395 . S
C566 C565 1.379 . S
C566 H583 0.930 . S
C567 O550 1.264 . S
C567 O551 1.254 . S
C568 Eu504 2.848 1_655 S
C568 O548 1.257 1_655 S
C568 O553 1.249 1_655 S
C568 C561 1.492 . S
C569 H534 0.931 . S
C569 C547 1.420 . S
C569 C570 1.351 . S
C570 H532 0.930 . S
C570 C538 1.423 . S
C570 C569 1.351 . S
C571 O555 1.276 . S
C571 O558 1.235 . S
C572 C573 1.393 . S
C572 C576 1.395 . S
C572 C579 1.492 . S
C573 C572 1.393 . S
C573 C574 1.392 . S
C573 H584 0.930 . S
C574 C573 1.392 . S
C574 C575 1.386 . S
C575 C574 1.386 . S
C575 C577 1.395 . S
C575 H585 0.930 . S
C576 C572 1.395 . S
C576 C577 1.379 . S
C576 H586 0.930 . S
C577 C575 1.395 . S
C577 C576 1.379 . S
C577 H587 0.930 . S
C578 O556 1.264 . S
C578 O557 1.254 . S
C579 Eu515 2.848 . S
C579 O554 1.257 . S
C579 O559 1.249 . S
C579 C572 1.492 . S
H580 C563 0.930 . S
H581 C564 0.930 . S
H582 C565 0.930 . S
H583 C566 0.930 . S
H584 C573 0.930 . S
H585 C575 0.930 . S
H586 C576 0.930 . S
H587 C577 0.930 . S
Eu588 N619 2.657 . S
Eu588 N626 2.609 . S
Eu588 O632 2.558 . S
Eu588 O633 2.612 . S
Eu588 O635 2.339 . S
Eu588 O636 2.563 . S
Eu588 O637 2.419 . S
Eu588 O639 2.380 . S
Eu588 O640 2.432 . S
Eu588 C652 2.848 . S
C589 C592 1.429 . S
C589 C593 1.411 1_565 S
C589 N596 1.377 . S
C590 C592 1.420 1_545 S
C590 C594 1.423 . S
C590 C602 1.392 . S
C591 C593 1.420 . S
C591 C594 1.351 . S
C591 H614 0.931 . S
C592 C589 1.429 . S
C592 C590 1.420 1_565 S
C592 N600 1.362 . S
C593 C589 1.411 1_545 S
C593 C591 1.420 . S
C593 C598 1.397 1_545 S
C594 C590 1.423 . S
C594 C591 1.351 . S
C594 H606 0.930 . S
C595 C597 1.400 . S
C595 C598 1.387 . S
C595 H607 0.930 . S
N596 C589 1.377 . S
N596 C597 1.321 . S
N596 Eu599 2.609 . S
C597 C595 1.400 . S
C597 N596 1.321 . S
C597 H604 0.930 . S
C598 C593 1.397 1_565 S
C598 C595 1.387 . S
C598 H617 0.927 1_565 S
Eu599 N596 2.609 . S
Eu599 N600 2.657 . S
Eu599 O633 2.380 . S
Eu599 O634 2.432 . S
Eu599 O638 2.558 . S
Eu599 O639 2.612 . S
Eu599 O641 2.339 . S
Eu599 O642 2.563 . S
Eu599 O643 2.419 . S
Eu599 C663 2.848 1_565 S
N600 C592 1.362 . S
N600 Eu599 2.657 . S
N600 C601 1.334 . S
C601 N600 1.334 . S
C601 C603 1.413 . S
C601 H608 0.929 . S
C602 C590 1.392 . S
C602 C603 1.367 1_545 S
C602 H610 0.930 . S
C603 C601 1.413 . S
C603 C602 1.367 1_565 S
C603 H605 0.930 . S
H604 C597 0.930 . S
H605 C603 0.930 . S
H606 C594 0.930 . S
H607 C595 0.930 . S
H608 C601 0.929 . S
H609 C623 0.930 . S
H610 C602 0.930 . S
H611 C629 0.930 . S
H612 C620 0.929 . S
H613 C627 0.930 . S
H614 C591 0.931 . S
H615 C621 0.930 . S
H616 C654 0.930 . S
H617 C598 0.927 1_545 S
H618 C653 0.931 . S
N619 Eu588 2.657 . S
N619 C620 1.334 . S
N619 C624 1.362 . S
C620 H612 0.929 . S
C620 N619 1.334 . S
C620 C623 1.413 1_455 S
C621 H615 0.930 . S
C621 C622 1.392 . S
C621 C623 1.367 . S
C622 C621 1.392 . S
C622 C624 1.420 1_655 S
C622 C654 1.423 . S
C623 H609 0.930 . S
C623 C620 1.413 1_655 S
C623 C621 1.367 . S
C624 N619 1.362 . S
C624 C622 1.420 1_455 S
C624 C628 1.429 . S
H625 C630 0.930 . S
N626 Eu588 2.609 . S
N626 C628 1.377 . S
N626 C629 1.321 . S
C627 H613 0.930 . S
C627 C629 1.400 1_554 S
C627 C630 1.386 . S
C628 C624 1.429 . S
C628 N626 1.377 . S
C628 C631 1.411 . S
C629 H611 0.930 . S
C629 N626 1.321 . S
C629 C627 1.400 1_556 S
C630 H625 0.930 . S
C630 C627 1.386 . S
C630 C631 1.395 1_554 S
C631 C628 1.411 . S
C631 C630 1.395 1_556 S
C631 C653 1.420 1_455 S
O632 Eu588 2.558 . S
O632 C652 1.257 . S
O633 Eu588 2.612 . S
O633 Eu599 2.380 . S
O633 C644 1.276 . S
O634 Eu599 2.432 . S
O634 C651 1.264 . S
O635 Eu588 2.339 . S
O635 C651 1.254 . S
O636 Eu588 2.563 . S
O636 C644 1.235 . S
O637 Eu588 2.419 . S
O637 C652 1.249 . S
O638 Eu599 2.558 . S
O638 C663 1.257 1_565 S
O639 Eu588 2.380 . S
O639 Eu599 2.612 . S
O639 C655 1.276 . S
O640 Eu588 2.432 . S
O640 C662 1.264 . S
O641 Eu599 2.339 . S
O641 C662 1.254 . S
O642 Eu599 2.563 . S
O642 C655 1.235 . S
O643 Eu599 2.419 . S
O643 C663 1.249 1_565 S
C644 O633 1.276 . S
C644 O636 1.235 . S
C645 C647 1.393 . S
C645 C649 1.395 . S
C645 C652 1.492 . S
C646 C647 1.392 . S
C646 C648 1.386 . S
C647 C645 1.393 . S
C647 C646 1.392 . S
C647 H664 0.930 . S
C648 C646 1.386 . S
C648 C650 1.395 . S
C648 H665 0.930 . S
C649 C645 1.395 . S
C649 C650 1.379 . S
C649 H666 0.930 . S
C650 C648 1.395 . S
C650 C649 1.379 . S
C650 H667 0.930 . S
C651 O634 1.264 . S
C651 O635 1.254 . S
C652 Eu588 2.848 . S
C652 O632 1.257 . S
C652 O637 1.249 . S
C652 C645 1.492 . S
C653 H618 0.931 . S
C653 C631 1.420 1_655 S
C653 C654 1.351 . S
C654 H616 0.930 . S
C654 C622 1.423 . S
C654 C653 1.351 . S
C655 O639 1.276 . S
C655 O642 1.235 . S
C656 C657 1.393 . S
C656 C660 1.395 . S
C656 C663 1.492 . S
C657 C656 1.393 . S
C657 C658 1.392 . S
C657 H668 0.930 . S
C658 C657 1.392 . S
C658 C659 1.386 . S
C659 C658 1.386 . S
C659 C661 1.395 . S
C659 H669 0.930 . S
C660 C656 1.395 . S
C660 C661 1.379 . S
C660 H670 0.930 . S
C661 C659 1.395 . S
C661 C660 1.379 . S
C661 H671 0.930 . S
C662 O640 1.264 . S
C662 O641 1.254 . S
C663 Eu599 2.848 1_545 S
C663 O638 1.257 1_545 S
C663 O643 1.249 1_545 S
C663 C656 1.492 . S
H664 C647 0.930 . S
H665 C648 0.930 . S
H666 C649 0.930 . S
H667 C650 0.930 . S
H668 C657 0.930 . S
H669 C659 0.930 . S
H670 C660 0.930 . S
H671 C661 0.930 . S
Eu672 N703 2.657 . S
Eu672 N710 2.609 . S
Eu672 O716 2.558 . S
Eu672 O717 2.612 . S
Eu672 O719 2.339 . S
Eu672 O720 2.563 . S
Eu672 O721 2.419 . S
Eu672 O723 2.380 . S
Eu672 O724 2.432 . S
Eu672 C736 2.848 . S
C673 C676 1.429 . S
C673 C677 1.411 . S
C673 N680 1.377 . S
C674 C676 1.420 1_545 S
C674 C678 1.423 . S
C674 C686 1.392 . S
C675 C677 1.420 1_545 S
C675 C678 1.351 . S
C675 H698 0.931 . S
C676 C673 1.429 . S
C676 C674 1.420 1_565 S
C676 N684 1.362 . S
C677 C673 1.411 . S
C677 C675 1.420 1_565 S
C677 C682 1.395 . S
C678 C674 1.423 . S
C678 C675 1.351 . S
C678 H690 0.930 . S
C679 C681 1.400 . S
C679 C682 1.386 . S
C679 H691 0.930 . S
N680 C673 1.377 . S
N680 C681 1.321 . S
N680 Eu683 2.609 . S
C681 C679 1.400 . S
C681 N680 1.321 . S
C681 H688 0.930 . S
C682 C677 1.395 . S
C682 C679 1.386 . S
C682 H701 0.930 . S
Eu683 N680 2.609 . S
Eu683 N684 2.657 . S
Eu683 O717 2.380 . S
Eu683 O718 2.432 . S
Eu683 O722 2.558 . S
Eu683 O723 2.612 . S
Eu683 O725 2.339 . S
Eu683 O726 2.563 . S
Eu683 O727 2.419 . S
Eu683 C747 2.848 . S
N684 C676 1.362 . S
N684 Eu683 2.657 . S
N684 C685 1.334 . S
C685 N684 1.334 . S
C685 C687 1.413 1_565 S
C685 H692 0.929 . S
C686 C674 1.392 . S
C686 C687 1.367 . S
C686 H694 0.930 . S
C687 C685 1.413 1_545 S
C687 C686 1.367 . S
C687 H689 0.930 . S
H688 C681 0.930 . S
H689 C687 0.930 . S
H690 C678 0.930 . S
H691 C679 0.930 . S
H692 C685 0.929 . S
H693 C707 0.930 . S
H694 C686 0.930 . S
H695 C713 0.930 . S
H696 C704 0.929 . S
H697 C711 0.930 . S
H698 C675 0.931 . S
H699 C705 0.930 . S
H700 C738 0.930 . S
H701 C682 0.930 . S
H702 C737 0.931 . S
N703 Eu672 2.657 . S
N703 C704 1.334 . S
N703 C708 1.362 . S
C704 H696 0.929 . S
C704 N703 1.334 . S
C704 C707 1.413 . S
C705 H699 0.930 . S
C705 C706 1.392 . S
C705 C707 1.367 . S
C706 C705 1.392 . S
C706 C708 1.420 . S
C706 C738 1.423 . S
C707 H693 0.930 . S
C707 C704 1.413 . S
C707 C705 1.367 . S
C708 N703 1.362 . S
C708 C706 1.420 . S
C708 C712 1.429 . S
H709 C714 0.930 . S
N710 Eu672 2.609 . S
N710 C712 1.377 . S
N710 C713 1.321 . S
C711 H697 0.930 . S
C711 C713 1.400 . S
C711 C714 1.386 . S
C712 C708 1.429 . S
C712 N710 1.377 . S
C712 C715 1.411 . S
C713 H695 0.930 . S
C713 N710 1.321 . S
C713 C711 1.400 . S
C714 H709 0.930 . S
C714 C711 1.386 . S
C714 C715 1.395 . S
C715 C712 1.411 . S
C715 C714 1.395 . S
C715 C737 1.420 . S
O716 Eu672 2.558 . S
O716 C736 1.257 . S
O717 Eu672 2.612 . S
O717 Eu683 2.380 . S
O717 C728 1.276 . S
O718 Eu683 2.432 . S
O718 C735 1.264 . S
O719 Eu672 2.339 . S
O719 C735 1.254 . S
O720 Eu672 2.563 . S
O720 C728 1.235 . S
O721 Eu672 2.419 . S
O721 C736 1.249 . S
O722 Eu683 2.558 . S
O722 C747 1.257 . S
O723 Eu672 2.380 . S
O723 Eu683 2.612 . S
O723 C739 1.276 . S
O724 Eu672 2.432 . S
O724 C746 1.264 . S
O725 Eu683 2.339 . S
O725 C746 1.254 . S
O726 Eu683 2.563 . S
O726 C739 1.235 . S
O727 Eu683 2.419 . S
O727 C747 1.249 . S
C728 O717 1.276 . S
C728 O720 1.235 . S
C729 C731 1.393 . S
C729 C733 1.395 . S
C729 C736 1.492 . S
C730 C731 1.392 . S
C730 C732 1.386 . S
C731 C729 1.393 . S
C731 C730 1.392 . S
C731 H748 0.930 . S
C732 C730 1.386 . S
C732 C734 1.395 . S
C732 H749 0.930 . S
C733 C729 1.395 . S
C733 C734 1.379 . S
C733 H750 0.930 . S
C734 C732 1.395 . S
C734 C733 1.379 . S
C734 H751 0.930 . S
C735 O718 1.264 . S
C735 O719 1.254 . S
C736 Eu672 2.848 . S
C736 O716 1.257 . S
C736 O721 1.249 . S
C736 C729 1.492 . S
C737 H702 0.931 . S
C737 C715 1.420 . S
C737 C738 1.351 . S
C738 H700 0.930 . S
C738 C706 1.423 . S
C738 C737 1.351 . S
C739 O723 1.276 . S
C739 O726 1.235 . S
C740 C741 1.393 . S
C740 C744 1.395 . S
C740 C747 1.492 . S
C741 C740 1.393 . S
C741 C742 1.392 . S
C741 H752 0.930 . S
C742 C741 1.392 . S
C742 C743 1.386 . S
C743 C742 1.386 . S
C743 C745 1.395 . S
C743 H753 0.930 . S
C744 C740 1.395 . S
C744 C745 1.379 . S
C744 H754 0.930 . S
C745 C743 1.395 . S
C745 C744 1.379 . S
C745 H755 0.930 . S
C746 O724 1.264 . S
C746 O725 1.254 . S
C747 Eu683 2.848 . S
C747 O722 1.257 . S
C747 O727 1.249 . S
C747 C740 1.492 . S
H748 C731 0.930 . S
H749 C732 0.930 . S
H750 C733 0.930 . S
H751 C734 0.930 . S
H752 C741 0.930 . S
H753 C743 0.930 . S
H754 C744 0.930 . S
H755 C745 0.930 . S
Eu756 N787 2.657 . S
Eu756 N794 2.609 . S
Eu756 O800 2.558 . S
Eu756 O801 2.612 . S
Eu756 O803 2.339 . S
Eu756 O804 2.563 . S
Eu756 O805 2.419 . S
Eu756 O807 2.380 . S
Eu756 O808 2.432 . S
Eu756 C820 2.848 . S
C757 C760 1.429 . S
C757 C761 1.411 1_455 S
C757 N764 1.377 . S
C758 C760 1.420 1_655 S
C758 C762 1.423 . S
C758 C770 1.392 . S
C759 C761 1.420 . S
C759 C762 1.351 . S
C759 H782 0.931 . S
C760 C757 1.429 . S
C760 C758 1.420 1_455 S
C760 N768 1.362 . S
C761 C757 1.411 1_655 S
C761 C759 1.420 . S
C761 C766 1.391 1_655 S
C762 C758 1.423 . S
C762 C759 1.351 . S
C762 H774 0.930 . S
C763 C765 1.400 . S
C763 C766 1.398 . S
C763 H775 0.930 . S
N764 C757 1.377 . S
N764 C765 1.321 . S
N764 Eu767 2.609 . S
C765 C763 1.400 . S
C765 N764 1.321 . S
C765 H772 0.930 . S
C766 C761 1.391 1_455 S
C766 C763 1.398 . S
C766 H785 0.921 1_455 S
Eu767 N764 2.609 . S
Eu767 N768 2.657 . S
Eu767 O801 2.380 . S
Eu767 O802 2.432 . S
Eu767 O806 2.558 . S
Eu767 O807 2.612 . S
Eu767 O809 2.339 . S
Eu767 O810 2.563 . S
Eu767 O811 2.419 . S
Eu767 C831 2.848 1_455 S
N768 C760 1.362 . S
N768 Eu767 2.657 . S
N768 C769 1.334 . S
C769 N768 1.334 . S
C769 C771 1.413 . S
C769 H776 0.929 . S
C770 C758 1.392 . S
C770 C771 1.367 1_655 S
C770 H778 0.930 . S
C771 C769 1.413 . S
C771 C770 1.367 1_455 S
C771 H773 0.930 . S
H772 C765 0.930 . S
H773 C771 0.930 . S
H774 C762 0.930 . S
H775 C763 0.930 . S
H776 C769 0.929 . S
H777 C791 0.930 . S
H778 C770 0.930 . S
H779 C797 0.930 . S
H780 C788 0.929 . S
H781 C795 0.930 . S
H782 C759 0.931 . S
H783 C789 0.930 . S
H784 C822 0.930 . S
H785 C766 0.921 1_655 S
H786 C821 0.931 . S
N787 Eu756 2.657 . S
N787 C788 1.334 . S
N787 C792 1.362 . S
C788 H780 0.929 . S
C788 N787 1.334 . S
C788 C791 1.413 . S
C789 H783 0.930 . S
C789 C790 1.392 . S
C789 C791 1.367 . S
C790 C789 1.392 . S
C790 C792 1.420 . S
C790 C822 1.423 . S
C791 H777 0.930 . S
C791 C788 1.413 . S
C791 C789 1.367 . S
C792 N787 1.362 . S
C792 C790 1.420 . S
C792 C796 1.429 . S
H793 C798 0.930 . S
N794 Eu756 2.609 . S
N794 C796 1.377 . S
N794 C797 1.321 . S
C795 H781 0.930 . S
C795 C797 1.400 1_554 S
C795 C798 1.386 . S
C796 C792 1.429 . S
C796 N794 1.377 . S
C796 C799 1.411 . S
C797 H779 0.930 . S
C797 N794 1.321 . S
C797 C795 1.400 1_556 S
C798 H793 0.930 . S
C798 C795 1.386 . S
C798 C799 1.395 1_554 S
C799 C796 1.411 . S
C799 C798 1.395 1_556 S
C799 C821 1.420 . S
O800 Eu756 2.558 . S
O800 C820 1.257 . S
O801 Eu756 2.612 . S
O801 Eu767 2.380 . S
O801 C812 1.276 . S
O802 Eu767 2.432 . S
O802 C819 1.264 . S
O803 Eu756 2.339 . S
O803 C819 1.254 . S
O804 Eu756 2.563 . S
O804 C812 1.235 . S
O805 Eu756 2.419 . S
O805 C820 1.249 . S
O806 Eu767 2.558 . S
O806 C831 1.257 1_455 S
O807 Eu756 2.380 . S
O807 Eu767 2.612 . S
O807 C823 1.276 . S
O808 Eu756 2.432 . S
O808 C830 1.264 . S
O809 Eu767 2.339 . S
O809 C830 1.254 . S
O810 Eu767 2.563 . S
O810 C823 1.235 . S
O811 Eu767 2.419 . S
O811 C831 1.249 1_455 S
C812 O801 1.276 . S
C812 O804 1.235 . S
C813 C815 1.393 . S
C813 C817 1.395 . S
C813 C820 1.492 . S
C814 C815 1.392 . S
C814 C816 1.386 . S
C815 C813 1.393 . S
C815 C814 1.392 . S
C815 H832 0.930 . S
C816 C814 1.386 . S
C816 C818 1.395 . S
C816 H833 0.930 . S
C817 C813 1.395 . S
C817 C818 1.379 . S
C817 H834 0.930 . S
C818 C816 1.395 . S
C818 C817 1.379 . S
C818 H835 0.930 . S
C819 O802 1.264 . S
C819 O803 1.254 . S
C820 Eu756 2.848 . S
C820 O800 1.257 . S
C820 O805 1.249 . S
C820 C813 1.492 . S
C821 H786 0.931 . S
C821 C799 1.420 . S
C821 C822 1.351 . S
C822 H784 0.930 . S
C822 C790 1.423 . S
C822 C821 1.351 . S
C823 O807 1.276 . S
C823 O810 1.235 . S
C824 C825 1.393 . S
C824 C828 1.395 . S
C824 C831 1.492 . S
C825 C824 1.393 . S
C825 C826 1.392 . S
C825 H836 0.930 . S
C826 C825 1.392 . S
C826 C827 1.386 . S
C827 C826 1.386 . S
C827 C829 1.395 . S
C827 H837 0.930 . S
C828 C824 1.395 . S
C828 C829 1.379 . S
C828 H838 0.930 . S
C829 C827 1.395 . S
C829 C828 1.379 . S
C829 H839 0.930 . S
C830 O808 1.264 . S
C830 O809 1.254 . S
C831 Eu767 2.848 1_655 S
C831 O806 1.257 1_655 S
C831 O811 1.249 1_655 S
C831 C824 1.492 . S
H832 C815 0.930 . S
H833 C816 0.930 . S
H834 C817 0.930 . S
H835 C818 0.930 . S
H836 C825 0.930 . S
H837 C827 0.930 . S
H838 C828 0.930 . S
H839 C829 0.930 . S
Eu840 N871 2.657 . S
Eu840 N878 2.609 . S
Eu840 O884 2.558 . S
Eu840 O885 2.612 . S
Eu840 O887 2.339 . S
Eu840 O888 2.563 . S
Eu840 O889 2.419 . S
Eu840 O891 2.380 . S
Eu840 O892 2.432 . S
Eu840 C904 2.848 1_565 S
C841 C844 1.429 . S
C841 C845 1.411 . S
C841 N848 1.377 . S
C842 C844 1.420 1_655 S
C842 C846 1.423 . S
C842 C854 1.392 . S
C843 C845 1.420 1_655 S
C843 C846 1.351 . S
C843 H866 0.931 . S
C844 C841 1.429 . S
C844 C842 1.420 1_455 S
C844 N852 1.362 . S
C845 C841 1.411 . S
C845 C843 1.420 1_455 S
C845 C850 1.395 . S
C846 C842 1.423 . S
C846 C843 1.351 . S
C846 H858 0.930 . S
C847 C849 1.400 . S
C847 C850 1.386 . S
C847 H859 0.930 . S
N848 C841 1.377 . S
N848 C849 1.321 . S
N848 Eu851 2.609 . S
C849 C847 1.400 . S
C849 N848 1.321 . S
C849 H856 0.930 . S
C850 C845 1.395 . S
C850 C847 1.386 . S
C850 H869 0.930 . S
Eu851 N848 2.609 . S
Eu851 N852 2.657 . S
Eu851 O885 2.380 . S
Eu851 O886 2.432 . S
Eu851 O890 2.558 . S
Eu851 O891 2.612 . S
Eu851 O893 2.339 . S
Eu851 O894 2.563 . S
Eu851 O895 2.419 . S
Eu851 C915 2.848 . S
N852 C844 1.362 . S
N852 Eu851 2.657 . S
N852 C853 1.334 . S
C853 N852 1.334 . S
C853 C855 1.413 1_455 S
C853 H860 0.929 . S
C854 C842 1.392 . S
C854 C855 1.367 . S
C854 H862 0.930 . S
C855 C853 1.413 1_655 S
C855 C854 1.367 . S
C855 H857 0.930 . S
H856 C849 0.930 . S
H857 C855 0.930 . S
H858 C846 0.930 . S
H859 C847 0.930 . S
H860 C853 0.929 . S
H861 C875 0.930 . S
H862 C854 0.930 . S
H863 C881 0.930 . S
H864 C872 0.929 . S
H865 C879 0.930 . S
H866 C843 0.931 . S
H867 C873 0.930 . S
H868 C906 0.930 . S
H869 C850 0.930 . S
H870 C905 0.931 . S
N871 Eu840 2.657 . S
N871 C872 1.334 . S
N871 C876 1.362 . S
C872 H864 0.929 . S
C872 N871 1.334 . S
C872 C875 1.413 . S
C873 H867 0.930 . S
C873 C874 1.392 . S
C873 C875 1.367 1_545 S
C874 C873 1.392 . S
C874 C876 1.420 1_545 S
C874 C906 1.423 . S
C875 H861 0.930 . S
C875 C872 1.413 . S
C875 C873 1.367 1_565 S
C876 N871 1.362 . S
C876 C874 1.420 1_565 S
C876 C880 1.429 . S
H877 C882 0.927 1_545 S
N878 Eu840 2.609 . S
N878 C880 1.377 . S
N878 C881 1.321 . S
C879 H865 0.930 . S
C879 C881 1.400 . S
C879 C882 1.387 . S
C880 C876 1.429 . S
C880 N878 1.377 . S
C880 C883 1.411 1_565 S
C881 H863 0.930 . S
C881 N878 1.321 . S
C881 C879 1.400 . S
C882 H877 0.927 1_565 S
C882 C879 1.387 . S
C882 C883 1.397 1_565 S
C883 C880 1.411 1_545 S
C883 C882 1.397 1_545 S
C883 C905 1.420 . S
O884 Eu840 2.558 . S
O884 C904 1.257 1_565 S
O885 Eu840 2.612 . S
O885 Eu851 2.380 . S
O885 C896 1.276 . S
O886 Eu851 2.432 . S
O886 C903 1.264 . S
O887 Eu840 2.339 . S
O887 C903 1.254 . S
O888 Eu840 2.563 . S
O888 C896 1.235 . S
O889 Eu840 2.419 . S
O889 C904 1.249 1_565 S
O890 Eu851 2.558 . S
O890 C915 1.257 . S
O891 Eu840 2.380 . S
O891 Eu851 2.612 . S
O891 C907 1.276 . S
O892 Eu840 2.432 . S
O892 C914 1.264 . S
O893 Eu851 2.339 . S
O893 C914 1.254 . S
O894 Eu851 2.563 . S
O894 C907 1.235 . S
O895 Eu851 2.419 . S
O895 C915 1.249 . S
C896 O885 1.276 . S
C896 O888 1.235 . S
C897 C899 1.393 . S
C897 C901 1.395 . S
C897 C904 1.492 . S
C898 C899 1.392 . S
C898 C900 1.386 . S
C899 C897 1.393 . S
C899 C898 1.392 . S
C899 H916 0.930 . S
C900 C898 1.386 . S
C900 C902 1.395 . S
C900 H917 0.930 . S
C901 C897 1.395 . S
C901 C902 1.379 . S
C901 H918 0.930 . S
C902 C900 1.395 . S
C902 C901 1.379 . S
C902 H919 0.930 . S
C903 O886 1.264 . S
C903 O887 1.254 . S
C904 Eu840 2.848 1_545 S
C904 O884 1.257 1_545 S
C904 O889 1.249 1_545 S
C904 C897 1.492 . S
C905 H870 0.931 . S
C905 C883 1.420 . S
C905 C906 1.351 . S
C906 H868 0.930 . S
C906 C874 1.423 . S
C906 C905 1.351 . S
C907 O891 1.276 . S
C907 O894 1.235 . S
C908 C909 1.393 . S
C908 C912 1.395 . S
C908 C915 1.492 . S
C909 C908 1.393 . S
C909 C910 1.392 . S
C909 H920 0.930 . S
C910 C909 1.392 . S
C910 C911 1.386 . S
C911 C910 1.386 . S
C911 C913 1.395 . S
C911 H921 0.930 . S
C912 C908 1.395 . S
C912 C913 1.379 . S
C912 H922 0.930 . S
C913 C911 1.395 . S
C913 C912 1.379 . S
C913 H923 0.930 . S
C914 O892 1.264 . S
C914 O893 1.254 . S
C915 Eu851 2.848 . S
C915 O890 1.257 . S
C915 O895 1.249 . S
C915 C908 1.492 . S
H916 C899 0.930 . S
H917 C900 0.930 . S
H918 C901 0.930 . S
H919 C902 0.930 . S
H920 C909 0.930 . S
H921 C911 0.930 . S
H922 C912 0.930 . S
H923 C913 0.930 . S
Eu924 N955 2.657 . S
Eu924 N962 2.609 . S
Eu924 O968 2.558 . S
Eu924 O969 2.612 . S
Eu924 O971 2.339 . S
Eu924 O972 2.563 . S
Eu924 O973 2.419 . S
Eu924 O975 2.380 . S
Eu924 O976 2.432 . S
Eu924 C988 2.848 . S
C925 C928 1.429 . S
C925 C929 1.411 . S
C925 N932 1.377 . S
C926 C928 1.420 . S
C926 C930 1.423 . S
C926 C938 1.392 . S
C927 C929 1.420 . S
C927 C930 1.351 . S
C927 H950 0.931 . S
C928 C925 1.429 . S
C928 C926 1.420 . S
C928 N936 1.362 . S
C929 C925 1.411 . S
C929 C927 1.420 . S
C929 C934 1.395 . S
C930 C926 1.423 . S
C930 C927 1.351 . S
C930 H942 0.930 . S
C931 C933 1.400 . S
C931 C934 1.386 . S
C931 H943 0.930 . S
N932 C925 1.377 . S
N932 C933 1.321 . S
N932 Eu935 2.609 . S
C933 C931 1.400 . S
C933 N932 1.321 . S
C933 H940 0.930 . S
C934 C929 1.395 . S
C934 C931 1.386 . S
C934 H953 0.930 . S
Eu935 N932 2.609 . S
Eu935 N936 2.657 . S
Eu935 O969 2.380 . S
Eu935 O970 2.432 . S
Eu935 O974 2.558 . S
Eu935 O975 2.612 . S
Eu935 O977 2.339 . S
Eu935 O978 2.563 . S
Eu935 O979 2.419 . S
Eu935 C999 2.848 . S
N936 C928 1.362 . S
N936 Eu935 2.657 . S
N936 C937 1.334 . S
C937 N936 1.334 . S
C937 C939 1.413 . S
C937 H944 0.929 . S
C938 C926 1.392 . S
C938 C939 1.367 . S
C938 H946 0.930 . S
C939 C937 1.413 . S
C939 C938 1.367 . S
C939 H941 0.930 . S
H940 C933 0.930 . S
H941 C939 0.930 . S
H942 C930 0.930 . S
H943 C931 0.930 . S
H944 C937 0.929 . S
H945 C959 0.930 . S
H946 C938 0.930 . S
H947 C965 0.930 . S
H948 C956 0.929 . S
H949 C963 0.930 . S
H950 C927 0.931 . S
H951 C957 0.930 . S
H952 C990 0.930 . S
H953 C934 0.930 . S
H954 C989 0.931 . S
N955 Eu924 2.657 . S
N955 C956 1.334 . S
N955 C960 1.362 . S
C956 H948 0.929 . S
C956 N955 1.334 . S
C956 C959 1.413 1_565 S
C957 H951 0.930 . S
C957 C958 1.392 . S
C957 C959 1.367 . S
C958 C957 1.392 . S
C958 C960 1.420 1_545 S
C958 C990 1.423 . S
C959 H945 0.930 . S
C959 C956 1.413 1_545 S
C959 C957 1.367 . S
C960 N955 1.362 . S
C960 C958 1.420 1_565 S
C960 C964 1.429 . S
H961 C966 0.930 . S
N962 Eu924 2.609 . S
N962 C964 1.377 . S
N962 C965 1.321 . S
C963 H949 0.930 . S
C963 C965 1.400 1_554 S
C963 C966 1.386 . S
C964 C960 1.429 . S
C964 N962 1.377 . S
C964 C967 1.411 . S
C965 H947 0.930 . S
C965 N962 1.321 . S
C965 C963 1.400 1_556 S
C966 H961 0.930 . S
C966 C963 1.386 . S
C966 C967 1.395 1_554 S
C967 C964 1.411 . S
C967 C966 1.395 1_556 S
C967 C989 1.420 1_565 S
O968 Eu924 2.558 . S
O968 C988 1.257 . S
O969 Eu924 2.612 . S
O969 Eu935 2.380 . S
O969 C980 1.276 . S
O970 Eu935 2.432 . S
O970 C987 1.264 . S
O971 Eu924 2.339 . S
O971 C987 1.254 . S
O972 Eu924 2.563 . S
O972 C980 1.235 . S
O973 Eu924 2.419 . S
O973 C988 1.249 . S
O974 Eu935 2.558 . S
O974 C999 1.257 . S
O975 Eu924 2.380 . S
O975 Eu935 2.612 . S
O975 C991 1.276 . S
O976 Eu924 2.432 . S
O976 C998 1.264 . S
O977 Eu935 2.339 . S
O977 C998 1.254 . S
O978 Eu935 2.563 . S
O978 C991 1.235 . S
O979 Eu935 2.419 . S
O979 C999 1.249 . S
C980 O969 1.276 . S
C980 O972 1.235 . S
C981 C983 1.393 . S
C981 C985 1.395 . S
C981 C988 1.492 . S
C982 C983 1.392 . S
C982 C984 1.386 . S
C983 C981 1.393 . S
C983 C982 1.392 . S
C983 H1000 0.930 . S
C984 C982 1.386 . S
C984 C986 1.395 . S
C984 H1001 0.930 . S
C985 C981 1.395 . S
C985 C986 1.379 . S
C985 H1002 0.930 . S
C986 C984 1.395 . S
C986 C985 1.379 . S
C986 H1003 0.930 . S
C987 O970 1.264 . S
C987 O971 1.254 . S
C988 Eu924 2.848 . S
C988 O968 1.257 . S
C988 O973 1.249 . S
C988 C981 1.492 . S
C989 H954 0.931 . S
C989 C967 1.420 1_545 S
C989 C990 1.351 . S
C990 H952 0.930 . S
C990 C958 1.423 . S
C990 C989 1.351 . S
C991 O975 1.276 . S
C991 O978 1.235 . S
C992 C993 1.393 . S
C992 C996 1.395 . S
C992 C999 1.492 . S
C993 C992 1.393 . S
C993 C994 1.392 . S
C993 H1004 0.930 . S
C994 C993 1.392 . S
C994 C995 1.386 . S
C995 C994 1.386 . S
C995 C997 1.395 . S
C995 H1005 0.930 . S
C996 C992 1.395 . S
C996 C997 1.379 . S
C996 H1006 0.930 . S
C997 C995 1.395 . S
C997 C996 1.379 . S
C997 H1007 0.930 . S
C998 O976 1.264 . S
C998 O977 1.254 . S
C999 Eu935 2.848 . S
C999 O974 1.257 . S
C999 O979 1.249 . S
C999 C992 1.492 . S
H1000 C983 0.930 . S
H1001 C984 0.930 . S
H1002 C985 0.930 . S
H1003 C986 0.930 . S
H1004 C993 0.930 . S
H1005 C995 0.930 . S
H1006 C996 0.930 . S
H1007 C997 0.930 . S
C1008 C1009 1.387 . S
C1008 H1012 0.950 . S
C1008 C1017 1.390 . S
C1009 C1008 1.387 . S
C1009 C1011 1.387 . S
H1010 C1017 0.950 . S
C1011 C1009 1.387 . S
C1011 C1013 1.390 . S
C1011 H1015 0.950 . S
H1012 C1008 0.950 . S
C1013 C1011 1.390 . S
C1013 C1014 1.387 . S
C1013 H1016 0.950 . S
C1014 C1013 1.387 . S
C1014 C1017 1.387 . S
H1015 C1011 0.950 . S
H1016 C1013 0.950 . S
C1017 C1008 1.390 . S
C1017 H1010 0.950 . S
C1017 C1014 1.387 . S
C1018 C1019 1.387 . S
C1018 H1022 0.950 . S
C1018 C1027 1.390 1_455 S
C1019 C1018 1.387 . S
C1019 C1021 1.387 . S
H1020 C1027 0.950 . S
C1021 C1019 1.387 . S
C1021 C1023 1.390 1_455 S
C1021 H1025 0.950 . S
H1022 C1018 0.950 . S
C1023 C1021 1.390 1_655 S
C1023 C1024 1.387 . S
C1023 H1026 0.950 . S
C1024 C1023 1.387 . S
C1024 C1027 1.387 . S
H1025 C1021 0.950 . S
H1026 C1023 0.950 . S
C1027 C1018 1.390 1_655 S
C1027 H1020 0.950 . S
C1027 C1024 1.387 . S
C1028 C1029 1.387 . S
C1028 H1032 0.950 . S
C1028 C1037 1.390 1_545 S
C1029 C1028 1.387 . S
C1029 C1031 1.387 . S
H1030 C1037 0.950 . S
C1031 C1029 1.387 . S
C1031 C1033 1.390 1_545 S
C1031 H1035 0.950 . S
H1032 C1028 0.950 . S
C1033 C1031 1.390 1_565 S
C1033 C1034 1.387 . S
C1033 H1036 0.950 . S
C1034 C1033 1.387 . S
C1034 C1037 1.387 . S
H1035 C1031 0.950 . S
H1036 C1033 0.950 . S
C1037 C1028 1.390 1_565 S
C1037 H1030 0.950 . S
C1037 C1034 1.387 . S
C1038 C1039 1.387 . S
C1038 H1042 0.950 . S
C1038 C1047 1.390 . S
C1039 C1038 1.387 . S
C1039 C1041 1.387 . S
H1040 C1047 0.950 . S
C1041 C1039 1.387 . S
C1041 C1043 1.390 . S
C1041 H1045 0.950 . S
H1042 C1038 0.950 . S
C1043 C1041 1.390 . S
C1043 C1044 1.387 . S
C1043 H1046 0.950 . S
C1044 C1043 1.387 . S
C1044 C1047 1.387 . S
H1045 C1041 0.950 . S
H1046 C1043 0.950 . S
C1047 C1038 1.390 . S
C1047 H1040 0.950 . S
C1047 C1044 1.387 . S
C1048 C1049 1.387 . S
C1048 H1052 0.950 . S
C1048 C1057 1.390 1_455 S
C1049 C1048 1.387 . S
C1049 C1051 1.387 . S
H1050 C1057 0.950 . S
C1051 C1049 1.387 . S
C1051 C1053 1.390 1_455 S
C1051 H1055 0.950 . S
H1052 C1048 0.950 . S
C1053 C1051 1.390 1_655 S
C1053 C1054 1.387 . S
C1053 H1056 0.950 . S
C1054 C1053 1.387 . S
C1054 C1057 1.387 . S
H1055 C1051 0.950 . S
H1056 C1053 0.950 . S
C1057 C1048 1.390 1_655 S
C1057 H1050 0.950 . S
C1057 C1054 1.387 . S
C1058 C1059 1.387 . S
C1058 H1062 0.950 . S
C1058 C1067 1.390 1_565 S
C1059 C1058 1.387 . S
C1059 C1061 1.387 . S
H1060 C1067 0.950 . S
C1061 C1059 1.387 . S
C1061 C1063 1.390 1_565 S
C1061 H1065 0.950 . S
H1062 C1058 0.950 . S
C1063 C1061 1.390 1_545 S
C1063 C1064 1.387 . S
C1063 H1066 0.950 . S
C1064 C1063 1.387 . S
C1064 C1067 1.387 . S
H1065 C1061 0.950 . S
H1066 C1063 0.950 . S
C1067 C1058 1.390 1_545 S
C1067 H1060 0.950 . S
C1067 C1064 1.387 . S
C1068 C1069 1.387 . S
C1068 H1072 0.950 . S
C1068 C1077 1.390 . S
C1069 C1068 1.387 . S
C1069 C1071 1.387 . S
H1070 C1077 0.950 . S
C1071 C1069 1.387 . S
C1071 C1073 1.390 . S
C1071 H1075 0.950 . S
H1072 C1068 0.950 . S
C1073 C1071 1.390 . S
C1073 C1074 1.387 . S
C1073 H1076 0.950 . S
C1074 C1073 1.387 . S
C1074 C1077 1.387 . S
H1075 C1071 0.950 . S
H1076 C1073 0.950 . S
C1077 C1068 1.390 . S
C1077 H1070 0.950 . S
C1077 C1074 1.387 . S
C1078 C1079 1.387 . S
C1078 H1082 0.950 . S
C1078 C1087 1.390 1_455 S
C1079 C1078 1.387 . S
C1079 C1081 1.387 . S
H1080 C1087 0.950 . S
C1081 C1079 1.387 . S
C1081 C1083 1.390 1_455 S
C1081 H1085 0.950 . S
H1082 C1078 0.950 . S
C1083 C1081 1.390 1_655 S
C1083 C1084 1.387 . S
C1083 H1086 0.950 . S
C1084 C1083 1.387 . S
C1084 C1087 1.387 . S
H1085 C1081 0.950 . S
H1086 C1083 0.950 . S
C1087 C1078 1.390 1_655 S
C1087 H1080 0.950 . S
C1087 C1084 1.387 . S
C1088 C1089 1.387 . S
C1088 H1092 0.950 . S
C1088 C1097 1.390 1_565 S
C1089 C1088 1.387 . S
C1089 C1091 1.387 . S
H1090 C1097 0.950 . S
C1091 C1089 1.387 . S
C1091 C1093 1.390 1_565 S
C1091 H1095 0.950 . S
H1092 C1088 0.950 . S
C1093 C1091 1.390 1_545 S
C1093 C1094 1.387 . S
C1093 H1096 0.950 . S
C1094 C1093 1.387 . S
C1094 C1097 1.387 . S
H1095 C1091 0.950 . S
H1096 C1093 0.950 . S
C1097 C1088 1.390 1_545 S
C1097 H1090 0.950 . S
C1097 C1094 1.387 . S
C1098 C1099 1.387 . S
C1098 H1102 0.950 . S
C1098 C1107 1.390 . S
C1099 C1098 1.387 . S
C1099 C1101 1.387 . S
H1100 C1107 0.950 . S
C1101 C1099 1.387 . S
C1101 C1103 1.390 . S
C1101 H1105 0.950 . S
H1102 C1098 0.950 . S
C1103 C1101 1.390 . S
C1103 C1104 1.387 . S
C1103 H1106 0.950 . S
C1104 C1103 1.387 . S
C1104 C1107 1.387 . S
H1105 C1101 0.950 . S
H1106 C1103 0.950 . S
C1107 C1098 1.390 . S
C1107 H1100 0.950 . S
C1107 C1104 1.387 . S
C1108 C1109 1.387 . S
C1108 H1112 0.950 . S
C1108 C1117 1.390 1_455 S
C1109 C1108 1.387 . S
C1109 C1111 1.387 . S
H1110 C1117 0.950 . S
C1111 C1109 1.387 . S
C1111 C1113 1.390 1_455 S
C1111 H1115 0.950 . S
H1112 C1108 0.950 . S
C1113 C1111 1.390 1_655 S
C1113 C1114 1.387 . S
C1113 H1116 0.950 . S
C1114 C1113 1.387 . S
C1114 C1117 1.387 . S
H1115 C1111 0.950 . S
H1116 C1113 0.950 . S
C1117 C1108 1.390 1_655 S
C1117 H1110 0.950 . S
C1117 C1114 1.387 . S
C1118 C1119 1.387 . S
C1118 H1122 0.950 . S
C1118 C1127 1.390 1_545 S
C1119 C1118 1.387 . S
C1119 C1121 1.387 . S
H1120 C1127 0.950 . S
C1121 C1119 1.387 . S
C1121 C1123 1.390 1_545 S
C1121 H1125 0.950 . S
H1122 C1118 0.950 . S
C1123 C1121 1.390 1_565 S
C1123 C1124 1.387 . S
C1123 H1126 0.950 . S
C1124 C1123 1.387 . S
C1124 C1127 1.387 . S
H1125 C1121 0.950 . S
H1126 C1123 0.950 . S
C1127 C1118 1.390 1_565 S
C1127 H1120 0.950 . S
C1127 C1124 1.387 . S
C1128 C1129 1.387 . S
C1128 H1132 0.950 . S
C1128 C1137 1.390 . S
C1129 C1128 1.387 . S
C1129 C1131 1.387 . S
H1130 C1137 0.950 . S
C1131 C1129 1.387 . S
C1131 C1133 1.390 . S
C1131 H1135 0.950 . S
H1132 C1128 0.950 . S
C1133 C1131 1.390 . S
C1133 C1134 1.387 . S
C1133 H1136 0.950 . S
C1134 C1133 1.387 . S
C1134 C1137 1.387 . S
H1135 C1131 0.950 . S
H1136 C1133 0.950 . S
C1137 C1128 1.390 . S
C1137 H1130 0.950 . S
C1137 C1134 1.387 . S
C1138 C1139 1.387 . S
C1138 H1142 0.950 . S
C1138 C1147 1.390 . S
C1139 C1138 1.387 . S
C1139 C1141 1.387 . S
H1140 C1147 0.950 . S
C1141 C1139 1.387 . S
C1141 C1143 1.390 . S
C1141 H1145 0.950 . S
H1142 C1138 0.950 . S
C1143 C1141 1.390 . S
C1143 C1144 1.387 . S
C1143 H1146 0.950 . S
C1144 C1143 1.387 . S
C1144 C1147 1.387 . S
H1145 C1141 0.950 . S
H1146 C1143 0.950 . S
C1147 C1138 1.390 . S
C1147 H1140 0.950 . S
C1147 C1144 1.387 . S
C1148 C1149 1.387 . S
C1148 H1152 0.950 . S
C1148 C1157 1.390 . S
C1149 C1148 1.387 . S
C1149 C1151 1.387 . S
H1150 C1157 0.950 . S
C1151 C1149 1.387 . S
C1151 C1153 1.390 . S
C1151 H1155 0.950 . S
H1152 C1148 0.950 . S
C1153 C1151 1.390 . S
C1153 C1154 1.387 . S
C1153 H1156 0.950 . S
C1154 C1153 1.387 . S
C1154 C1157 1.387 . S
H1155 C1151 0.950 . S
H1156 C1153 0.950 . S
C1157 C1148 1.390 . S
C1157 H1150 0.950 . S
C1157 C1154 1.387 . S
C1158 C1159 1.387 . S
C1158 H1162 0.950 . S
C1158 C1167 1.390 . S
C1159 C1158 1.387 . S
C1159 C1161 1.387 . S
H1160 C1167 0.950 . S
C1161 C1159 1.387 . S
C1161 C1163 1.390 . S
C1161 H1165 0.950 . S
H1162 C1158 0.950 . S
C1163 C1161 1.390 . S
C1163 C1164 1.387 . S
C1163 H1166 0.950 . S
C1164 C1163 1.387 . S
C1164 C1167 1.387 . S
H1165 C1161 0.950 . S
H1166 C1163 0.950 . S
C1167 C1158 1.390 . S
C1167 H1160 0.950 . S
C1167 C1164 1.387 . S
C1168 C1169 1.387 . S
C1168 H1172 0.950 . S
C1168 C1177 1.390 . S
C1169 C1168 1.387 . S
C1169 C1171 1.387 . S
H1170 C1177 0.950 . S
C1171 C1169 1.387 . S
C1171 C1173 1.390 . S
C1171 H1175 0.950 . S
H1172 C1168 0.950 . S
C1173 C1171 1.390 . S
C1173 C1174 1.387 . S
C1173 H1176 0.950 . S
C1174 C1173 1.387 . S
C1174 C1177 1.387 . S
H1175 C1171 0.950 . S
H1176 C1173 0.950 . S
C1177 C1168 1.390 . S
C1177 H1170 0.950 . S
C1177 C1174 1.387 . S
C1178 C1179 1.387 . S
C1178 H1182 0.950 . S
C1178 C1187 1.390 . S
C1179 C1178 1.387 . S
C1179 C1181 1.387 . S
H1180 C1187 0.950 . S
C1181 C1179 1.387 . S
C1181 C1183 1.390 . S
C1181 H1185 0.950 . S
H1182 C1178 0.950 . S
C1183 C1181 1.390 . S
C1183 C1184 1.387 . S
C1183 H1186 0.950 . S
C1184 C1183 1.387 . S
C1184 C1187 1.387 . S
H1185 C1181 0.950 . S
H1186 C1183 0.950 . S
C1187 C1178 1.390 . S
C1187 H1180 0.950 . S
C1187 C1184 1.387 . S
C1188 C1189 1.387 . S
C1188 H1192 0.950 . S
C1188 C1197 1.390 1_566 S
C1189 C1188 1.387 . S
C1189 C1191 1.387 . S
H1190 C1197 0.950 . S
C1191 C1189 1.387 . S
C1191 C1193 1.390 1_566 S
C1191 H1195 0.950 . S
H1192 C1188 0.950 . S
C1193 C1191 1.390 1_544 S
C1193 C1194 1.387 . S
C1193 H1196 0.950 . S
C1194 C1193 1.387 . S
C1194 C1197 1.387 . S
H1195 C1191 0.950 . S
H1196 C1193 0.950 . S
C1197 C1188 1.390 1_544 S
C1197 H1190 0.950 . S
C1197 C1194 1.387 . S
C1198 C1199 1.387 . S
C1198 H1202 0.950 . S
C1198 C1207 1.390 . S
C1199 C1198 1.387 . S
C1199 C1201 1.387 . S
H1200 C1207 0.950 . S
C1201 C1199 1.387 . S
C1201 C1203 1.390 . S
C1201 H1205 0.950 . S
H1202 C1198 0.950 . S
C1203 C1201 1.390 . S
C1203 C1204 1.387 . S
C1203 H1206 0.950 . S
C1204 C1203 1.387 . S
C1204 C1207 1.387 . S
H1205 C1201 0.950 . S
H1206 C1203 0.950 . S
C1207 C1198 1.390 . S
C1207 H1200 0.950 . S
C1207 C1204 1.387 . S
C1208 C1209 1.387 1_554 S
C1208 H1212 0.950 . S
C1208 C1217 1.390 1_455 S
C1209 C1208 1.387 1_556 S
C1209 C1211 1.387 . S
H1210 C1217 0.950 . S
C1211 C1209 1.387 . S
C1211 C1213 1.390 1_455 S
C1211 H1215 0.950 . S
H1212 C1208 0.950 . S
C1213 C1211 1.390 1_655 S
C1213 C1214 1.387 1_556 S
C1213 H1216 0.950 . S
C1214 C1213 1.387 1_554 S
C1214 C1217 1.387 . S
H1215 C1211 0.950 . S
H1216 C1213 0.950 . S
C1217 C1208 1.390 1_655 S
C1217 H1210 0.950 . S
C1217 C1214 1.387 . S
C1218 C1219 1.387 . S
C1218 H1222 0.950 . S
C1218 C1227 1.390 1_545 S
C1219 C1218 1.387 . S
C1219 C1221 1.387 . S
H1220 C1227 0.950 . S
C1221 C1219 1.387 . S
C1221 C1223 1.390 1_545 S
C1221 H1225 0.950 . S
H1222 C1218 0.950 . S
C1223 C1221 1.390 1_565 S
C1223 C1224 1.387 . S
C1223 H1226 0.950 . S
C1224 C1223 1.387 . S
C1224 C1227 1.387 . S
H1225 C1221 0.950 . S
H1226 C1223 0.950 . S
C1227 C1218 1.390 1_565 S
C1227 H1220 0.950 . S
C1227 C1224 1.387 . S
C1228 C1229 1.387 . S
C1228 H1232 0.950 . S
C1228 C1237 1.390 . S
C1229 C1228 1.387 . S
C1229 C1231 1.387 1_554 S
H1230 C1237 0.950 . S
C1231 C1229 1.387 1_556 S
C1231 C1233 1.390 . S
C1231 H1235 0.950 . S
H1232 C1228 0.950 . S
C1233 C1231 1.390 . S
C1233 C1234 1.387 . S
C1233 H1236 0.950 . S
C1234 C1233 1.387 . S
C1234 C1237 1.387 1_556 S
H1235 C1231 0.950 . S
H1236 C1233 0.950 . S
C1237 C1228 1.390 . S
C1237 H1230 0.950 . S
C1237 C1234 1.387 1_554 S
C1238 C1239 1.387 . S
C1238 H1242 0.950 . S
C1238 C1247 1.390 1_455 S
C1239 C1238 1.387 . S
C1239 C1241 1.387 . S
H1240 C1247 0.950 . S
C1241 C1239 1.387 . S
C1241 C1243 1.390 1_455 S
C1241 H1245 0.950 . S
H1242 C1238 0.950 . S
C1243 C1241 1.390 1_655 S
C1243 C1244 1.387 . S
C1243 H1246 0.950 . S
C1244 C1243 1.387 . S
C1244 C1247 1.387 . S
H1245 C1241 0.950 . S
H1246 C1243 0.950 . S
C1247 C1238 1.390 1_655 S
C1247 H1240 0.950 . S
C1247 C1244 1.387 . S
C1248 C1249 1.387 . S
C1248 H1252 0.950 . S
C1248 C1257 1.390 . S
C1249 C1248 1.387 . S
C1249 C1251 1.387 . S
H1250 C1257 0.950 . S
C1251 C1249 1.387 . S
C1251 C1253 1.390 . S
C1251 H1255 0.950 . S
H1252 C1248 0.950 . S
C1253 C1251 1.390 . S
C1253 C1254 1.387 . S
C1253 H1256 0.950 . S
C1254 C1253 1.387 . S
C1254 C1257 1.387 . S
H1255 C1251 0.950 . S
H1256 C1253 0.950 . S
C1257 C1248 1.390 . S
C1257 H1250 0.950 . S
C1257 C1254 1.387 . S
C1258 C1259 1.387 . S
C1258 H1262 0.950 . S
C1258 C1267 1.390 . S
C1259 C1258 1.387 . S
C1259 C1261 1.387 . S
H1260 C1267 0.950 . S
C1261 C1259 1.387 . S
C1261 C1263 1.390 . S
C1261 H1265 0.950 . S
H1262 C1258 0.950 . S
C1263 C1261 1.390 . S
C1263 C1264 1.387 . S
C1263 H1266 0.950 . S
C1264 C1263 1.387 . S
C1264 C1267 1.387 . S
H1265 C1261 0.950 . S
H1266 C1263 0.950 . S
C1267 C1258 1.390 . S
C1267 H1260 0.950 . S
C1267 C1264 1.387 . S
C1268 C1269 1.387 . S
C1268 H1272 0.950 . S
C1268 C1277 1.390 . S
C1269 C1268 1.387 . S
C1269 C1271 1.387 . S
H1270 C1277 0.950 . S
C1271 C1269 1.387 . S
C1271 C1273 1.390 . S
C1271 H1275 0.950 . S
H1272 C1268 0.950 . S
C1273 C1271 1.390 . S
C1273 C1274 1.387 . S
C1273 H1276 0.950 . S
C1274 C1273 1.387 . S
C1274 C1277 1.387 . S
H1275 C1271 0.950 . S
H1276 C1273 0.950 . S
C1277 C1268 1.390 . S
C1277 H1270 0.950 . S
C1277 C1274 1.387 . S
C1278 C1279 1.387 . S
C1278 H1282 0.950 . S
C1278 C1287 1.390 . S
C1279 C1278 1.387 . S
C1279 C1281 1.387 . S
H1280 C1287 0.950 . S
C1281 C1279 1.387 . S
C1281 C1283 1.390 . S
C1281 H1285 0.950 . S
H1282 C1278 0.950 . S
C1283 C1281 1.390 . S
C1283 C1284 1.387 . S
C1283 H1286 0.950 . S
C1284 C1283 1.387 . S
C1284 C1287 1.387 . S
H1285 C1281 0.950 . S
H1286 C1283 0.950 . S
C1287 C1278 1.390 . S
C1287 H1280 0.950 . S
C1287 C1284 1.387 . S
C1288 C1289 1.387 . S
C1288 H1292 0.950 . S
C1288 C1297 1.390 . S
C1289 C1288 1.387 . S
C1289 C1291 1.387 . S
H1290 C1297 0.950 . S
C1291 C1289 1.387 . S
C1291 C1293 1.390 . S
C1291 H1295 0.950 . S
H1292 C1288 0.950 . S
C1293 C1291 1.390 . S
C1293 C1294 1.387 . S
C1293 H1296 0.950 . S
C1294 C1293 1.387 . S
C1294 C1297 1.387 . S
H1295 C1291 0.950 . S
H1296 C1293 0.950 . S
C1297 C1288 1.390 . S
C1297 H1290 0.950 . S
C1297 C1294 1.387 . S
C1298 C1299 1.387 . S
C1298 H1302 0.950 . S
C1298 C1307 1.390 . S
C1299 C1298 1.387 . S
C1299 C1301 1.387 . S
H1300 C1307 0.950 . S
C1301 C1299 1.387 . S
C1301 C1303 1.390 . S
C1301 H1305 0.950 . S
H1302 C1298 0.950 . S
C1303 C1301 1.390 . S
C1303 C1304 1.387 . S
C1303 H1306 0.950 . S
C1304 C1303 1.387 . S
C1304 C1307 1.387 . S
H1305 C1301 0.950 . S
H1306 C1303 0.950 . S
C1307 C1298 1.390 . S
C1307 H1300 0.950 . S
C1307 C1304 1.387 . S
C1308 C1309 1.387 . S
C1308 H1312 0.950 . S
C1308 C1317 1.390 . S
C1309 C1308 1.387 . S
C1309 C1311 1.387 . S
H1310 C1317 0.950 . S
C1311 C1309 1.387 . S
C1311 C1313 1.390 . S
C1311 H1315 0.950 . S
H1312 C1308 0.950 . S
C1313 C1311 1.390 . S
C1313 C1314 1.387 . S
C1313 H1316 0.950 . S
C1314 C1313 1.387 . S
C1314 C1317 1.387 . S
H1315 C1311 0.950 . S
H1316 C1313 0.950 . S
C1317 C1308 1.390 . S
C1317 H1310 0.950 . S
C1317 C1314 1.387 . S
C1318 C1319 1.387 . S
C1318 H1322 0.950 . S
C1318 C1327 1.390 . S
C1319 C1318 1.387 . S
C1319 C1321 1.387 . S
H1320 C1327 0.950 . S
C1321 C1319 1.387 . S
C1321 C1323 1.390 . S
C1321 H1325 0.950 . S
H1322 C1318 0.950 . S
C1323 C1321 1.390 . S
C1323 C1324 1.387 . S
C1323 H1326 0.950 . S
C1324 C1323 1.387 . S
C1324 C1327 1.387 . S
H1325 C1321 0.950 . S
H1326 C1323 0.950 . S
C1327 C1318 1.390 . S
C1327 H1320 0.950 . S
C1327 C1324 1.387 . S
C1328 C1329 1.387 . S
C1328 H1332 0.950 . S
C1328 C1337 1.390 . S
C1329 C1328 1.387 . S
C1329 C1331 1.387 . S
H1330 C1337 0.950 . S
C1331 C1329 1.387 . S
C1331 C1333 1.390 . S
C1331 H1335 0.950 . S
H1332 C1328 0.950 . S
C1333 C1331 1.390 . S
C1333 C1334 1.387 . S
C1333 H1336 0.950 . S
C1334 C1333 1.387 . S
C1334 C1337 1.387 . S
H1335 C1331 0.950 . S
H1336 C1333 0.950 . S
C1337 C1328 1.390 . S
C1337 H1330 0.950 . S
C1337 C1334 1.387 . S
C1338 C1339 1.387 . S
C1338 H1342 0.950 . S
C1338 C1347 1.390 . S
C1339 C1338 1.387 . S
C1339 C1341 1.387 . S
H1340 C1347 0.950 . S
C1341 C1339 1.387 . S
C1341 C1343 1.390 . S
C1341 H1345 0.950 . S
H1342 C1338 0.950 . S
C1343 C1341 1.390 . S
C1343 C1344 1.387 . S
C1343 H1346 0.950 . S
C1344 C1343 1.387 . S
C1344 C1347 1.387 . S
H1345 C1341 0.950 . S
H1346 C1343 0.950 . S
C1347 C1338 1.390 . S
C1347 H1340 0.950 . S
C1347 C1344 1.387 . S
C1348 C1349 1.387 . S
C1348 H1352 0.950 . S
C1348 C1357 1.390 . S
C1349 C1348 1.387 . S
C1349 C1351 1.387 . S
H1350 C1357 0.950 . S
C1351 C1349 1.387 . S
C1351 C1353 1.390 . S
C1351 H1355 0.950 . S
H1352 C1348 0.950 . S
C1353 C1351 1.390 . S
C1353 C1354 1.387 . S
C1353 H1356 0.950 . S
C1354 C1353 1.387 . S
C1354 C1357 1.387 . S
H1355 C1351 0.950 . S
H1356 C1353 0.950 . S
C1357 C1348 1.390 . S
C1357 H1350 0.950 . S
C1357 C1354 1.387 . S
C1358 C1359 1.387 . S
C1358 H1362 0.950 . S
C1358 C1367 1.390 . S
C1359 C1358 1.387 . S
C1359 C1361 1.387 . S
H1360 C1367 0.950 . S
C1361 C1359 1.387 . S
C1361 C1363 1.390 . S
C1361 H1365 0.950 . S
H1362 C1358 0.950 . S
C1363 C1361 1.390 . S
C1363 C1364 1.387 . S
C1363 H1366 0.950 . S
C1364 C1363 1.387 . S
C1364 C1367 1.387 . S
H1365 C1361 0.950 . S
H1366 C1363 0.950 . S
C1367 C1358 1.390 . S
C1367 H1360 0.950 . S
C1367 C1364 1.387 . S
C1009 C238 1.289 . S
C1014 C67 1.364 . S
C1019 C310 1.286 . S
C1024 C140 1.365 . S
C1029 C235 1.364 . S
C1034 C406 1.288 . S
C1039 C308 1.364 . S
C1044 C478 1.287 . S
C1049 C70 1.289 . S
C1054 C403 1.364 . S
C1059 C142 1.288 . S
C1064 C476 1.365 . S
C1069 C898 1.288 . S
C1074 C560 1.364 . S
C1079 C655 1.363 . S
C1084 C994 1.290 . S
C1089 C728 1.363 . S
C1094 C562 1.288 . S
C1099 C823 1.363 . S
C1104 C658 1.288 . S
C1109 C896 1.362 . S
C1114 C730 1.291 . S
C1119 C826 1.288 . S
C1124 C991 1.363 . S
C1129 C326 1.906 . S
C1134 C63 1.905 . S
C1139 C158 1.905 . S
C1144 C399 1.905 . S
C1149 C231 1.904 . S
C1154 C494 1.906 . S
C1159 C578 1.906 . S
C1164 C819 1.904 . S
C1169 C651 1.904 . S
C1174 C914 1.906 . S
C1179 C746 1.906 . S
C1184 C987 1.904 . S
C1189 C662 2.216 . S
C1194 C74 2.216 . S
C1199 C147 2.213 . S
C1204 C735 2.215 . S
C1209 C830 2.216 . S
C1214 C242 2.214 . S
C1219 C315 2.216 . S
C1224 C903 2.215 . S
C1229 C410 2.213 . S
C1234 C998 2.214 . S
C1239 C567 2.213 . S
C1244 C483 2.214 . S
C1249 C226 1.337 . S
C1254 C56 1.398 . S
C1259 C151 1.402 . S
C1264 C322 1.337 . S
C1269 C224 1.402 . S
C1274 C394 1.337 . S
C1279 C319 1.402 . S
C1284 C490 1.335 . S
C1289 C58 1.335 . S
C1294 C392 1.398 . S
C1299 C154 1.333 . S
C1304 C487 1.399 . S
C1309 C910 1.337 . S
C1314 C571 1.402 . S
C1319 C644 1.398 . S
C1324 C982 1.336 . S
C1329 C739 1.399 . S
C1334 C574 1.334 . S
C1339 C646 1.336 . S
C1344 C812 1.402 . S
C1349 C907 1.398 . S
C1354 C742 1.335 . S
C1359 C980 1.402 . S
C1364 C814 1.337 . S
