# Generated by pormake.
# Topology lcy, (6)-cn, num edge types: 1
# Building blocks:
#     Node 0, Type 0, BuildingBlock: OJICUG_clean_sbu_0, # of connection points: 6
#     Node 1, Type 0, BuildingBlock: OJICUG_clean_sbu_0, # of connection points: 6
#     Node 2, Type 0, BuildingBlock: OJICUG_clean_sbu_0, # of connection points: 6
#     Node 3, Type 0, BuildingBlock: OJICUG_clean_sbu_0, # of connection points: 6
#     Edge 4, Type (0, 0), BuildingBlock: XUDNAN_clean_linker_2, # of connection points: 2
#     Edge 5, Type (0, 0), BuildingBlock: XUDNAN_clean_linker_2, # of connection points: 2
#     Edge 6, Type (0, 0), BuildingBlock: XUDNAN_clean_linker_2, # of connection points: 2
#     Edge 7, Type (0, 0), BuildingBlock: XUDNAN_clean_linker_2, # of connection points: 2
#     Edge 8, Type (0, 0), BuildingBlock: XUDNAN_clean_linker_2, # of connection points: 2
#     Edge 9, Type (0, 0), BuildingBlock: XUDNAN_clean_linker_2, # of connection points: 2
#     Edge 10, Type (0, 0), BuildingBlock: XUDNAN_clean_linker_2, # of connection points: 2
#     Edge 11, Type (0, 0), BuildingBlock: XUDNAN_clean_linker_2, # of connection points: 2
#     Edge 12, Type (0, 0), BuildingBlock: XUDNAN_clean_linker_2, # of connection points: 2
#     Edge 13, Type (0, 0), BuildingBlock: XUDNAN_clean_linker_2, # of connection points: 2
#     Edge 14, Type (0, 0), BuildingBlock: XUDNAN_clean_linker_2, # of connection points: 2
#     Edge 15, Type (0, 0), BuildingBlock: XUDNAN_clean_linker_2, # of connection points: 2
# Relax obj value: 0.357
# Max RMSD: 0.279
# Mean RMSD: 0.279
data_MOF--net-lcy--node1-OJICUG_clean_sbu_0--edge1-XUDNAN_clean_linker_2
_symmetry_space_group_name_H-M    P1
_symmetry_Int_Tables_number       1
_symmetry_cell_setting            triclinic
loop_
_symmetry_equiv_pos_as_xyz
'x, y, z'
_cell_length_a     25.752984
_cell_length_b     25.680765
_cell_length_c     25.813013
_cell_angle_alpha  89.910528
_cell_angle_beta   90.171543
_cell_angle_gamma 90.365273
loop_
_atom_site_label
_atom_site_type_symbol
_atom_site_fract_x
_atom_site_fract_y
_atom_site_fract_z
_atom_type_partial_charge
Sc0 Sc 0.33586 0.43003 0.37321 0.0
Sc1 Sc 0.34556 0.29885 0.39767 0.0
Sc2 Sc 0.44667 0.3655 0.33617 0.0
O3 O 0.37665 0.36431 0.36905 0.0
C4 C 0.37285 0.43247 0.26053 0.0
C5 C 0.24546 0.34485 0.36225 0.0
C6 C 0.40396 0.2579 0.29637 0.0
C7 C 0.31459 0.38793 0.47986 0.0
C8 C 0.45188 0.47534 0.37983 0.0
C9 C 0.4607 0.29213 0.43627 0.0
O10 O 0.33439 0.43267 0.29132 0.0
O11 O 0.27745 0.30921 0.35181 0.0
O12 O 0.42879 0.29999 0.28865 0.0
O13 O 0.33766 0.42451 0.45552 0.0
O14 O 0.47158 0.43044 0.38151 0.0
O15 O 0.41252 0.28584 0.44467 0.0
O16 O 0.40348 0.48157 0.37206 0.0
O17 O 0.31008 0.34186 0.46145 0.0
O18 O 0.47912 0.31595 0.3968 0.0
O19 O 0.26102 0.39018 0.37494 0.0
O20 O 0.41822 0.41638 0.27331 0.0
O21 O 0.37575 0.25006 0.33615 0.0
Sc22 Sc 0.94132 0.12353 0.65797 0.0
Sc23 Sc 0.83097 0.0637 0.61187 0.0
Sc24 Sc 0.84243 0.19653 0.60225 0.0
O25 O 0.87214 0.1286 0.62426 0.0
C26 C 0.89917 0.22544 0.70963 0.0
C27 C 0.86498 0.04834 0.72359 0.0
C28 C 0.74105 0.14605 0.6306 0.0
C29 C 0.94654 0.01965 0.60546 0.0
C30 C 0.9585 0.20985 0.56876 0.0
C31 C 0.8165 0.11644 0.50859 0.0
O32 O 0.92268 0.18228 0.71298 0.0
O33 O 0.82651 0.05268 0.69292 0.0
O34 O 0.77345 0.18028 0.64511 0.0
O35 O 0.9652 0.06521 0.60457 0.0
O36 O 0.91045 0.21649 0.5599 0.0
O37 O 0.83737 0.07775 0.53122 0.0
O38 O 0.97572 0.18053 0.60499 0.0
O39 O 0.89814 0.01225 0.61221 0.0
O40 O 0.80964 0.16024 0.53153 0.0
O41 O 0.91086 0.06519 0.71326 0.0
O42 O 0.8722 0.23826 0.67004 0.0
O43 O 0.75619 0.10347 0.61069 0.0
Sc44 Sc 0.17188 0.5632 0.87067 0.0
Sc45 Sc 0.1617 0.69389 0.89523 0.0
Sc46 Sc 0.06048 0.62796 0.83259 0.0
O47 O 0.13052 0.62854 0.86638 0.0
C48 C 0.13346 0.56107 0.75752 0.0
C49 C 0.26124 0.64929 0.85764 0.0
C50 C 0.10167 0.7365 0.79483 0.0
C51 C 0.19536 0.60502 0.97702 0.0
C52 C 0.05596 0.51755 0.87776 0.0
C53 C 0.0472 0.69971 0.93395 0.0
O54 O 0.17173 0.55981 0.78874 0.0
O55 O 0.2287 0.68476 0.848 0.0
O56 O 0.07842 0.69386 0.78577 0.0
O57 O 0.17202 0.56849 0.95297 0.0
O58 O 0.03453 0.5617 0.87554 0.0
O59 O 0.09547 0.70469 0.94317 0.0
O60 O 0.10461 0.51179 0.87206 0.0
O61 O 0.19947 0.65105 0.95835 0.0
O62 O 0.02879 0.67767 0.89332 0.0
O63 O 0.24636 0.60375 0.87052 0.0
O64 O 0.08838 0.57792 0.76967 0.0
O65 O 0.12953 0.74398 0.83507 0.0
Sc66 Sc 0.66193 0.80092 0.09934 0.0
Sc67 Sc 0.66772 0.93369 0.10996 0.0
Sc68 Sc 0.56152 0.86878 0.15896 0.0
O69 O 0.62975 0.86701 0.12312 0.0
C70 C 0.54479 0.78405 0.0686 0.0
C71 C 0.67939 0.88363 0.00571 0.0
C72 C 0.55119 0.97432 0.10831 0.0
C73 C 0.76209 0.85558 0.12292 0.0
C74 C 0.60884 0.76631 0.20652 0.0
C75 C 0.63887 0.94455 0.22372 0.0
O76 O 0.59288 0.77803 0.05981 0.0
O77 O 0.65765 0.92097 0.02946 0.0
O78 O 0.53319 0.92851 0.10895 0.0
O79 O 0.73257 0.81975 0.1393 0.0
O80 O 0.5822 0.80748 0.21094 0.0
O81 O 0.6757 0.94289 0.19098 0.0
O82 O 0.63776 0.75718 0.16756 0.0
O83 O 0.74346 0.89713 0.10392 0.0
O84 O 0.59316 0.92588 0.21526 0.0
O85 O 0.68884 0.83977 0.02778 0.0
O86 O 0.52721 0.81321 0.10459 0.0
O87 O 0.59953 0.98278 0.11368 0.0
H88 H 0.18089 0.52246 0.04175 0.0
H89 H 0.28502 0.65219 0.01072 0.0
H90 H 0.34749 0.61739 0.07484 0.0
H91 H 0.20585 0.51459 0.17942 0.0
H92 H 0.20075 0.44455 0.17994 0.0
H93 H 0.16496 0.48169 0.13287 0.0
H94 H 0.20741 0.42763 0.05965 0.0
H95 H 0.24462 0.39149 0.10651 0.0
H96 H 0.27719 0.42563 0.05478 0.0
H97 H 0.39987 0.56546 0.1414 0.0
H98 H 0.43054 0.50868 0.2131 0.0
H99 H 0.29164 0.41393 0.19756 0.0
C100 C 0.21645 0.54403 0.04903 0.0
C101 C 0.22795 0.59018 0.02166 0.0
C102 C 0.27501 0.61722 0.03206 0.0
C103 C 0.31105 0.59735 0.06783 0.0
C104 C 0.29922 0.5506 0.09283 0.0
C105 C 0.25257 0.52492 0.08448 0.0
C106 C 0.24828 0.47606 0.11674 0.0
C107 C 0.20226 0.47946 0.15449 0.0
C108 C 0.24414 0.42734 0.08234 0.0
C109 C 0.2997 0.47819 0.14486 0.0
C110 C 0.32905 0.521 0.13028 0.0
C111 C 0.37735 0.53164 0.15282 0.0
C112 C 0.39484 0.49891 0.19292 0.0
C113 C 0.36367 0.45673 0.2099 0.0
C114 C 0.31648 0.44551 0.18447 0.0
H115 H 0.71287 0.92272 0.29391 0.0
H116 H 0.59402 0.03487 0.25548 0.0
H117 H 0.63122 0.0964 0.32019 0.0
H118 H 0.71786 0.95106 0.43327 0.0
H119 H 0.78691 0.94027 0.43591 0.0
H120 H 0.74767 0.90579 0.38929 0.0
H121 H 0.80734 0.94089 0.31613 0.0
H122 H 0.84552 0.97711 0.36236 0.0
H123 H 0.81584 0.0102 0.30834 0.0
H124 H 0.68866 0.14828 0.38355 0.0
H125 H 0.7458 0.17735 0.45556 0.0
H126 H 0.82651 0.02956 0.44913 0.0
C127 C 0.6937 0.95955 0.30055 0.0
C128 C 0.65017 0.974 0.27096 0.0
C129 C 0.62663 0.02289 0.27918 0.0
C130 C 0.64804 0.05824 0.31508 0.0
C131 C 0.69265 0.0436 0.3422 0.0
C132 C 0.7142 0.99477 0.33627 0.0
C133 C 0.76159 0.98784 0.37002 0.0
C134 C 0.75297 0.94365 0.40947 0.0
C135 C 0.81044 0.97847 0.33723 0.0
C136 C 0.76362 0.0404 0.39601 0.0
C137 C 0.72425 0.07251 0.37904 0.0
C138 C 0.71891 0.12302 0.39799 0.0
C139 C 0.752 0.13947 0.43836 0.0
C140 C 0.79027 0.10555 0.45856 0.0
C141 C 0.79737 0.05642 0.43515 0.0
H142 H 0.21431 0.58094 0.69524 0.0
H143 H 0.0759 0.48538 0.70933 0.0
H144 H 0.10749 0.4286 0.63843 0.0
H145 H 0.23023 0.56777 0.5521 0.0
H146 H 0.29993 0.56686 0.55857 0.0
H147 H 0.26144 0.60319 0.60391 0.0
H148 H 0.30479 0.55237 0.67918 0.0
H149 H 0.34184 0.5144 0.63415 0.0
H150 H 0.30034 0.48229 0.68052 0.0
H151 H 0.16128 0.37601 0.57453 0.0
H152 H 0.22515 0.34035 0.51292 0.0
H153 H 0.32797 0.47134 0.54356 0.0
C154 C 0.18974 0.54927 0.68182 0.0
C155 C 0.14256 0.53761 0.70677 0.0
C156 C 0.11164 0.49536 0.68951 0.0
C157 C 0.12963 0.46267 0.64986 0.0
C158 C 0.17808 0.47355 0.62804 0.0
C159 C 0.20697 0.51671 0.64256 0.0
C160 C 0.25888 0.51872 0.61561 0.0
C161 C 0.26282 0.56698 0.58044 0.0
C162 C 0.30409 0.51682 0.65472 0.0
C163 C 0.25548 0.46925 0.58442 0.0
C164 C 0.20877 0.44351 0.59203 0.0
C165 C 0.19773 0.39615 0.56798 0.0
C166 C 0.23459 0.37579 0.5337 0.0
C167 C 0.28166 0.40298 0.52384 0.0
C168 C 0.29243 0.44965 0.55046 0.0
H169 H 0.69254 0.98026 0.96357 0.0
H170 H 0.72552 0.81721 0.93621 0.0
H171 H 0.78618 0.84262 0.86575 0.0
H172 H 0.69485 0.01986 0.82863 0.0
H173 H 0.72256 0.08252 0.84437 0.0
H174 H 0.68145 0.04959 0.89034 0.0
H175 H 0.75513 0.05706 0.95878 0.0
H176 H 0.79725 0.08809 0.91233 0.0
H177 H 0.81786 0.02965 0.94501 0.0
H178 H 0.84766 0.88783 0.80197 0.0
H179 H 0.88946 0.94722 0.73827 0.0
H180 H 0.81316 0.07878 0.80854 0.0
C181 C 0.71167 0.94951 0.94241 0.0
C182 C 0.70548 0.89661 0.95632 0.0
C183 C 0.73097 0.85799 0.92699 0.0
C184 C 0.7654 0.8721 0.88708 0.0
C185 C 0.77328 0.92496 0.87696 0.0
C186 C 0.74586 0.96286 0.90286 0.0
C187 C 0.7596 0.01688 0.88405 0.0
C188 C 0.71179 0.04377 0.86042 0.0
C189 C 0.7839 0.04983 0.92765 0.0
C190 C 0.79925 0.00374 0.84331 0.0
C191 C 0.80741 0.95061 0.84022 0.0
C192 C 0.84163 0.92944 0.80426 0.0
C193 C 0.86584 0.96332 0.76889 0.0
C194 C 0.85545 0.01727 0.77 0.0
C195 C 0.82287 0.03779 0.80833 0.0
H196 H 0.05578 0.17922 0.53863 0.0
H197 H 0.94333 0.30325 0.52148 0.0
H198 H 0.00178 0.34872 0.46056 0.0
H199 H 0.16953 0.25978 0.5337 0.0
H200 H 0.20713 0.21398 0.49684 0.0
H201 H 0.15653 0.19097 0.5392 0.0
H202 H 0.11281 0.14221 0.4629 0.0
H203 H 0.16308 0.16485 0.41984 0.0
H204 H 0.09592 0.17752 0.40488 0.0
H205 H 0.07445 0.38297 0.4052 0.0
H206 H 0.15677 0.40307 0.35966 0.0
H207 H 0.21783 0.25337 0.4073 0.0
C208 C 0.04373 0.2161 0.5223 0.0
C209 C 0.99523 0.23783 0.5348 0.0
C210 C 0.98038 0.28587 0.51221 0.0
C211 C 0.01321 0.31196 0.47754 0.0
C212 C 0.06039 0.28909 0.46525 0.0
C213 C 0.07561 0.24223 0.48681 0.0
C214 C 0.1283 0.2261 0.46704 0.0
C215 C 0.16771 0.22253 0.51184 0.0
C216 C 0.12478 0.17462 0.43687 0.0
C217 C 0.14043 0.2714 0.43141 0.0
C218 C 0.10095 0.3075 0.43106 0.0
C219 C 0.10528 0.35456 0.40429 0.0
C220 C 0.15189 0.36554 0.3783 0.0
C221 C 0.19292 0.3292 0.37868 0.0
C222 C 0.18639 0.28108 0.40456 0.0
H223 H 0.01394 0.75344 0.73931 0.0
H224 H 0.16706 0.81786 0.76961 0.0
H225 H 0.14822 0.89087 0.70947 0.0
H226 H 0.00065 0.79443 0.60237 0.0
H227 H 0.933 0.80995 0.61045 0.0
H228 H 0.96184 0.75875 0.64852 0.0
H229 H 0.93168 0.80399 0.73258 0.0
H230 H 0.90287 0.85544 0.69533 0.0
H231 H 0.95049 0.87059 0.74455 0.0
H232 H 0.11019 0.95912 0.65055 0.0
H233 H 0.05286 0.02428 0.61075 0.0
H234 H 0.92253 0.91698 0.62416 0.0
C235 C 0.04405 0.78223 0.73232 0.0
C236 C 0.0923 0.77971 0.75831 0.0
C237 C 0.13 0.81904 0.74972 0.0
C238 C 0.11978 0.86024 0.7153 0.0
C239 C 0.07159 0.86155 0.69033 0.0
C240 C 0.03413 0.82384 0.69906 0.0
C241 C 0.98309 0.83755 0.67342 0.0
C242 C 0.96883 0.7978 0.63117 0.0
C243 C 0.93949 0.84222 0.71386 0.0
C244 C 0.99705 0.88979 0.65002 0.0
C245 C 0.04868 0.90219 0.65882 0.0
C246 C 0.06982 0.94966 0.64319 0.0
C247 C 0.03682 0.98641 0.62038 0.0
C248 C 0.98291 0.97598 0.61451 0.0
C249 C 0.9635 0.92611 0.62759 0.0
H250 H 0.28922 0.74177 0.90027 0.0
H251 H 0.34984 0.59096 0.85646 0.0
H252 H 0.43155 0.61106 0.90338 0.0
H253 H 0.41276 0.81627 0.89973 0.0
H254 H 0.39448 0.85267 0.95639 0.0
H255 H 0.34531 0.82994 0.91191 0.0
H256 H 0.29816 0.78279 0.98779 0.0
H257 H 0.34754 0.80537 0.03196 0.0
H258 H 0.33365 0.73675 0.02681 0.0
H259 H 0.50283 0.6447 0.96091 0.0
H260 H 0.55994 0.68984 0.02354 0.0
H261 H 0.44868 0.81541 0.03535 0.0
C262 C 0.32051 0.71385 0.89853 0.0
C263 C 0.3139 0.66531 0.87357 0.0
C264 C 0.35477 0.62878 0.87441 0.0
C265 C 0.40103 0.63976 0.9012 0.0
C266 C 0.40526 0.68709 0.92735 0.0
C267 C 0.36616 0.72362 0.92607 0.0
C268 C 0.37791 0.76909 0.9616 0.0
C269 C 0.38293 0.82 0.93054 0.0
C270 C 0.33686 0.77372 0.00455 0.0
C271 C 0.42964 0.75231 0.98347 0.0
C272 C 0.44496 0.70519 0.9628 0.0
C273 C 0.49136 0.6817 0.97713 0.0
C274 C 0.52338 0.70755 0.0128 0.0
C275 C 0.50846 0.75593 0.03433 0.0
C276 C 0.46068 0.77821 0.01989 0.0
H277 H 0.48858 0.24178 0.23638 0.0
H278 H 0.33678 0.17766 0.2727 0.0
H279 H 0.35251 0.10496 0.21181 0.0
H280 H 0.49591 0.20011 0.09861 0.0
H281 H 0.56379 0.18447 0.10472 0.0
H282 H 0.53656 0.23618 0.14299 0.0
H283 H 0.56989 0.19166 0.22673 0.0
H284 H 0.59712 0.1398 0.18922 0.0
H285 H 0.55144 0.12518 0.24005 0.0
H286 H 0.38845 0.03545 0.15413 0.0
H287 H 0.445 0.9689 0.116 0.0
H288 H 0.5748 0.07754 0.12092 0.0
C289 C 0.45798 0.21326 0.23044 0.0
C290 C 0.41113 0.21562 0.25853 0.0
C291 C 0.37281 0.17659 0.25121 0.0
C292 C 0.38123 0.13556 0.21637 0.0
C293 C 0.42821 0.13419 0.18954 0.0
C294 C 0.46613 0.17183 0.19668 0.0
C295 C 0.51609 0.15774 0.16964 0.0
C296 C 0.52881 0.19696 0.12641 0.0
C297 C 0.56126 0.1533 0.20872 0.0
C298 C 0.50109 0.10532 0.14751 0.0
C299 C 0.44981 0.09307 0.15808 0.0
C300 C 0.42844 0.04488 0.14511 0.0
C301 C 0.46096 0.00732 0.12327 0.0
C302 C 0.51457 0.01786 0.11569 0.0
C303 C 0.534 0.06837 0.12571 0.0
H304 H 0.66951 0.10676 0.56223 0.0
H305 H 0.69184 0.22597 0.67925 0.0
H306 H 0.61364 0.27094 0.64799 0.0
H307 H 0.6416 0.18328 0.46519 0.0
H308 H 0.59118 0.1455 0.4341 0.0
H309 H 0.63854 0.11348 0.47389 0.0
H310 H 0.56723 0.07341 0.53135 0.0
H311 H 0.51879 0.10367 0.49089 0.0
H312 H 0.51889 0.11491 0.5598 0.0
H313 H 0.54711 0.31295 0.59282 0.0
H314 H 0.48945 0.3441 0.52246 0.0
H315 H 0.51017 0.19878 0.44046 0.0
C316 C 0.65635 0.14075 0.58308 0.0
C317 C 0.68672 0.16283 0.62323 0.0
C318 C 0.6691 0.2083 0.64851 0.0
C319 C 0.62466 0.23413 0.63104 0.0
C320 C 0.59776 0.2135 0.58885 0.0
C321 C 0.61196 0.16701 0.56605 0.0
C322 C 0.5802 0.15659 0.51755 0.0
C323 C 0.61499 0.14935 0.46987 0.0
C324 C 0.54412 0.10935 0.52539 0.0
C325 C 0.54952 0.20652 0.51415 0.0
C326 C 0.55918 0.23819 0.55643 0.0
C327 C 0.53834 0.28802 0.56015 0.0
C328 C 0.5063 0.30563 0.51992 0.0
C329 C 0.49632 0.27381 0.47642 0.0
C330 C 0.51774 0.22362 0.47355 0.0
H331 H 0.97677 0.50441 0.81078 0.0
H332 H 0.06391 0.4254 0.93075 0.0
H333 H 0.01705 0.34326 0.91052 0.0
H334 H 0.85272 0.42522 0.81658 0.0
H335 H 0.84705 0.42549 0.74696 0.0
H336 H 0.87642 0.48018 0.77987 0.0
H337 H 0.95892 0.47044 0.72352 0.0
H338 H 0.93011 0.41578 0.69074 0.0
H339 H 0.99218 0.4089 0.72241 0.0
H340 H 0.97093 0.26863 0.86948 0.0
H341 H 0.93721 0.20526 0.80634 0.0
H342 H 0.88538 0.33174 0.70751 0.0
C343 C 0.98401 0.47031 0.83442 0.0
C344 C 0.02241 0.47124 0.87354 0.0
C345 C 0.03354 0.42542 0.90163 0.0
C346 C 0.00702 0.37882 0.89042 0.0
C347 C 0.97031 0.37877 0.85044 0.0
C348 C 0.95909 0.42333 0.82259 0.0
C349 C 0.92576 0.41125 0.77555 0.0
C350 C 0.8723 0.43707 0.78003 0.0
C351 C 0.95341 0.42753 0.72512 0.0
C352 C 0.92135 0.35263 0.78018 0.0
C353 C 0.94607 0.33493 0.82446 0.0
C354 C 0.9509 0.28208 0.8351 0.0
C355 C 0.93173 0.24636 0.79878 0.0
C356 C 0.90871 0.2635 0.75177 0.0
C357 C 0.90194 0.31739 0.74336 0.0
H358 H 0.95792 0.75228 0.91388 0.0
H359 H 0.05703 0.69923 0.03905 0.0
H360 H -0.00179 0.73971 0.10294 0.0
H361 H 0.92672 0.87685 0.96914 0.0
H362 H 0.86023 0.87606 0.94752 0.0
H363 H 0.9091 0.84288 0.91051 0.0
H364 H 0.858 0.75736 0.91533 0.0
H365 H 0.80769 0.78656 0.9533 0.0
H366 H 0.84056 0.73019 0.97744 0.0
H367 H 0.92325 0.77917 0.15291 0.0
H368 H 0.84094 0.8183 0.18393 0.0
H369 H 0.79786 0.85333 0.02545 0.0
C370 C 0.96713 0.74921 0.95475 0.0
C371 C 0.01141 0.72236 0.97182 0.0
C372 C 0.02289 0.71962 0.02547 0.0
C373 C 0.98992 0.74261 0.06192 0.0
C374 C 0.94653 0.7692 0.04382 0.0
C375 C 0.93558 0.77314 0.99145 0.0
C376 C 0.88606 0.80264 0.98191 0.0
C377 C 0.89616 0.85254 0.95038 0.0
C378 C 0.84574 0.76709 0.95538 0.0
C379 C 0.87078 0.81498 0.03699 0.0
C380 C 0.90565 0.79477 0.07237 0.0
C381 C 0.8964 0.79646 0.12564 0.0
C382 C 0.8499 0.81882 0.14296 0.0
C383 C 0.81441 0.84025 0.10708 0.0
C384 C 0.82552 0.83905 0.05369 0.0
H385 H 0.52027 0.74778 0.25995 0.0
H386 H 0.67644 0.6898 0.23825 0.0
H387 H 0.65664 0.61586 0.29701 0.0
H388 H 0.49936 0.70282 0.39598 0.0
H389 H 0.43297 0.68476 0.38229 0.0
H390 H 0.46276 0.7384 0.34812 0.0
H391 H 0.4401 0.69458 0.26029 0.0
H392 H 0.41008 0.64127 0.29417 0.0
H393 H 0.46121 0.62887 0.24838 0.0
H394 H 0.61664 0.54388 0.34986 0.0
H395 H 0.55839 0.47465 0.38158 0.0
H396 H 0.42659 0.57779 0.36363 0.0
C397 C 0.55097 0.72056 0.269 0.0
C398 C 0.60029 0.72501 0.24553 0.0
C399 C 0.63865 0.68736 0.25643 0.0
C400 C 0.6278 0.64554 0.28999 0.0
C401 C 0.57831 0.64184 0.31179 0.0
C402 C 0.54039 0.6782 0.30127 0.0
C403 C 0.48813 0.66146 0.32247 0.0
C404 C 0.46974 0.69911 0.36474 0.0
C405 C 0.44755 0.65622 0.27873 0.0
C406 C 0.50199 0.60905 0.34517 0.0
C407 C 0.55446 0.59909 0.33999 0.0
C408 C 0.57565 0.55154 0.35463 0.0
C409 C 0.5421 0.51239 0.37273 0.0
C410 C 0.48767 0.52059 0.37497 0.0
C411 C 0.46794 0.57036 0.36298 0.0
loop_
_geom_bond_atom_site_label_1
_geom_bond_atom_site_label_2
_geom_bond_distance
_geom_bond_site_symmetry_2
_ccdc_geom_bond_type
Sc0 O3 2.025 . S
Sc0 O10 2.105 . S
Sc0 O13 2.105 . S
Sc0 O16 2.105 . S
Sc0 O19 2.105 . S
Sc1 O3 2.025 . S
Sc1 O11 2.105 . S
Sc1 O15 2.105 . S
Sc1 O17 2.105 . S
Sc1 O21 2.105 . S
Sc2 O3 2.025 . S
Sc2 O12 2.105 . S
Sc2 O14 2.105 . S
Sc2 O18 2.105 . S
Sc2 O20 2.105 . S
O3 Sc0 2.025 . S
O3 Sc1 2.025 . S
O3 Sc2 2.025 . S
C4 O10 1.268 . S
C4 O20 1.268 . S
C5 O11 1.268 . S
C5 O19 1.268 . S
C6 O12 1.268 . S
C6 O21 1.268 . S
C7 O13 1.268 . S
C7 O17 1.268 . S
C8 O14 1.268 . S
C8 O16 1.268 . S
C9 O15 1.268 . S
C9 O18 1.268 . S
O10 Sc0 2.105 . S
O10 C4 1.268 . S
O11 Sc1 2.105 . S
O11 C5 1.268 . S
O12 Sc2 2.105 . S
O12 C6 1.268 . S
O13 Sc0 2.105 . S
O13 C7 1.268 . S
O14 Sc2 2.105 . S
O14 C8 1.268 . S
O15 Sc1 2.105 . S
O15 C9 1.268 . S
O16 Sc0 2.105 . S
O16 C8 1.268 . S
O17 Sc1 2.105 . S
O17 C7 1.268 . S
O18 Sc2 2.105 . S
O18 C9 1.268 . S
O19 Sc0 2.105 . S
O19 C5 1.268 . S
O20 Sc2 2.105 . S
O20 C4 1.268 . S
O21 Sc1 2.105 . S
O21 C6 1.268 . S
Sc22 O25 2.025 . S
Sc22 O32 2.105 . S
Sc22 O35 2.105 . S
Sc22 O38 2.105 . S
Sc22 O41 2.105 . S
Sc23 O25 2.025 . S
Sc23 O33 2.105 . S
Sc23 O37 2.105 . S
Sc23 O39 2.105 . S
Sc23 O43 2.105 . S
Sc24 O25 2.025 . S
Sc24 O34 2.105 . S
Sc24 O36 2.105 . S
Sc24 O40 2.105 . S
Sc24 O42 2.105 . S
O25 Sc22 2.025 . S
O25 Sc23 2.025 . S
O25 Sc24 2.025 . S
C26 O32 1.268 . S
C26 O42 1.268 . S
C27 O33 1.268 . S
C27 O41 1.268 . S
C28 O34 1.268 . S
C28 O43 1.268 . S
C29 O35 1.268 . S
C29 O39 1.268 . S
C30 O36 1.268 . S
C30 O38 1.268 . S
C31 O37 1.268 . S
C31 O40 1.268 . S
O32 Sc22 2.105 . S
O32 C26 1.268 . S
O33 Sc23 2.105 . S
O33 C27 1.268 . S
O34 Sc24 2.105 . S
O34 C28 1.268 . S
O35 Sc22 2.105 . S
O35 C29 1.268 . S
O36 Sc24 2.105 . S
O36 C30 1.268 . S
O37 Sc23 2.105 . S
O37 C31 1.268 . S
O38 Sc22 2.105 . S
O38 C30 1.268 . S
O39 Sc23 2.105 . S
O39 C29 1.268 . S
O40 Sc24 2.105 . S
O40 C31 1.268 . S
O41 Sc22 2.105 . S
O41 C27 1.268 . S
O42 Sc24 2.105 . S
O42 C26 1.268 . S
O43 Sc23 2.105 . S
O43 C28 1.268 . S
Sc44 O47 2.025 . S
Sc44 O54 2.105 . S
Sc44 O57 2.105 . S
Sc44 O60 2.105 . S
Sc44 O63 2.105 . S
Sc45 O47 2.025 . S
Sc45 O55 2.105 . S
Sc45 O59 2.105 . S
Sc45 O61 2.105 . S
Sc45 O65 2.105 . S
Sc46 O47 2.025 . S
Sc46 O56 2.105 . S
Sc46 O58 2.105 . S
Sc46 O62 2.105 . S
Sc46 O64 2.105 . S
O47 Sc44 2.025 . S
O47 Sc45 2.025 . S
O47 Sc46 2.025 . S
C48 O54 1.268 . S
C48 O64 1.268 . S
C49 O55 1.268 . S
C49 O63 1.268 . S
C50 O56 1.268 . S
C50 O65 1.268 . S
C51 O57 1.268 . S
C51 O61 1.268 . S
C52 O58 1.268 . S
C52 O60 1.268 . S
C53 O59 1.268 . S
C53 O62 1.268 . S
O54 Sc44 2.105 . S
O54 C48 1.268 . S
O55 Sc45 2.105 . S
O55 C49 1.268 . S
O56 Sc46 2.105 . S
O56 C50 1.268 . S
O57 Sc44 2.105 . S
O57 C51 1.268 . S
O58 Sc46 2.105 . S
O58 C52 1.268 . S
O59 Sc45 2.105 . S
O59 C53 1.268 . S
O60 Sc44 2.105 . S
O60 C52 1.268 . S
O61 Sc45 2.105 . S
O61 C51 1.268 . S
O62 Sc46 2.105 . S
O62 C53 1.268 . S
O63 Sc44 2.105 . S
O63 C49 1.268 . S
O64 Sc46 2.105 . S
O64 C48 1.268 . S
O65 Sc45 2.105 . S
O65 C50 1.268 . S
Sc66 O69 2.025 . S
Sc66 O76 2.105 . S
Sc66 O79 2.105 . S
Sc66 O82 2.105 . S
Sc66 O85 2.105 . S
Sc67 O69 2.025 . S
Sc67 O77 2.105 . S
Sc67 O81 2.105 . S
Sc67 O83 2.105 . S
Sc67 O87 2.105 . S
Sc68 O69 2.025 . S
Sc68 O78 2.105 . S
Sc68 O80 2.105 . S
Sc68 O84 2.105 . S
Sc68 O86 2.105 . S
O69 Sc66 2.025 . S
O69 Sc67 2.025 . S
O69 Sc68 2.025 . S
C70 O76 1.268 . S
C70 O86 1.268 . S
C71 O77 1.268 . S
C71 O85 1.268 . S
C72 O78 1.268 . S
C72 O87 1.268 . S
C73 O79 1.268 . S
C73 O83 1.268 . S
C74 O80 1.268 . S
C74 O82 1.268 . S
C75 O81 1.268 . S
C75 O84 1.268 . S
O76 Sc66 2.105 . S
O76 C70 1.268 . S
O77 Sc67 2.105 . S
O77 C71 1.268 . S
O78 Sc68 2.105 . S
O78 C72 1.268 . S
O79 Sc66 2.105 . S
O79 C73 1.268 . S
O80 Sc68 2.105 . S
O80 C74 1.268 . S
O81 Sc67 2.105 . S
O81 C75 1.268 . S
O82 Sc66 2.105 . S
O82 C74 1.268 . S
O83 Sc67 2.105 . S
O83 C73 1.268 . S
O84 Sc68 2.105 . S
O84 C75 1.268 . S
O85 Sc66 2.105 . S
O85 C71 1.268 . S
O86 Sc68 2.105 . S
O86 C70 1.268 . S
O87 Sc67 2.105 . S
O87 C72 1.268 . S
H88 C100 0.930 . S
H89 C102 0.930 . S
H90 C103 0.930 . S
H91 C107 0.959 . S
H92 C107 0.959 . S
H93 C107 0.961 . S
H94 C108 0.960 . S
H95 C108 0.961 . S
H96 C108 0.959 . S
H97 C111 0.929 . S
H98 C112 0.931 . S
H99 C114 0.930 . S
C100 H88 0.930 . S
C100 C101 1.399 . S
C100 C105 1.399 . S
C101 C100 1.399 . S
C101 C102 1.376 . S
C102 H89 0.930 . S
C102 C101 1.376 . S
C102 C103 1.388 . S
C103 H90 0.930 . S
C103 C102 1.388 . S
C103 C104 1.390 . S
C104 C103 1.390 . S
C104 C105 1.394 . S
C104 C110 1.465 . S
C105 C100 1.399 . S
C105 C104 1.394 . S
C105 C106 1.516 . S
C106 C105 1.516 . S
C106 C107 1.502 . S
C106 C108 1.561 . S
C106 C109 1.526 . S
C107 H91 0.959 . S
C107 H92 0.959 . S
C107 H93 0.961 . S
C107 C106 1.502 . S
C108 H94 0.960 . S
C108 H95 0.961 . S
C108 H96 0.959 . S
C108 C106 1.561 . S
C109 C106 1.526 . S
C109 C110 1.396 . S
C109 C114 1.390 . S
C110 C104 1.465 . S
C110 C109 1.396 . S
C110 C111 1.399 . S
C111 H97 0.929 . S
C111 C110 1.399 . S
C111 C112 1.385 . S
C112 H98 0.931 . S
C112 C111 1.385 . S
C112 C113 1.389 . S
C113 C112 1.389 . S
C113 C114 1.387 . S
C114 H99 0.930 . S
C114 C109 1.390 . S
C114 C113 1.387 . S
H115 C127 0.930 . S
H116 C129 0.930 . S
H117 C130 0.930 . S
H118 C134 0.959 . S
H119 C134 0.959 . S
H120 C134 0.961 . S
H121 C135 0.960 . S
H122 C135 0.961 . S
H123 C135 0.959 . S
H124 C138 0.929 . S
H125 C139 0.931 . S
H126 C141 0.930 1_565 S
C127 H115 0.930 . S
C127 C128 1.399 . S
C127 C132 1.399 . S
C128 C127 1.399 . S
C128 C129 1.376 . S
C129 H116 0.930 . S
C129 C128 1.376 . S
C129 C130 1.388 1_565 S
C130 H117 0.930 . S
C130 C129 1.388 1_545 S
C130 C131 1.390 1_545 S
C131 C130 1.390 1_565 S
C131 C132 1.394 . S
C131 C137 1.465 1_565 S
C132 C127 1.399 . S
C132 C131 1.394 . S
C132 C133 1.516 . S
C133 C132 1.516 . S
C133 C134 1.502 . S
C133 C135 1.561 . S
C133 C136 1.526 . S
C134 H118 0.959 . S
C134 H119 0.959 . S
C134 H120 0.961 . S
C134 C133 1.502 . S
C135 H121 0.960 . S
C135 H122 0.961 . S
C135 H123 0.959 . S
C135 C133 1.561 . S
C136 C133 1.526 . S
C136 C137 1.396 1_565 S
C136 C141 1.390 1_565 S
C137 C131 1.465 1_545 S
C137 C136 1.396 1_545 S
C137 C138 1.399 . S
C138 H124 0.929 . S
C138 C137 1.399 . S
C138 C139 1.385 . S
C139 H125 0.931 . S
C139 C138 1.385 . S
C139 C140 1.389 . S
C140 C139 1.389 . S
C140 C141 1.387 . S
C141 H126 0.930 1_545 S
C141 C136 1.390 1_545 S
C141 C140 1.387 . S
H142 C154 0.930 . S
H143 C156 0.930 . S
H144 C157 0.930 . S
H145 C161 0.959 . S
H146 C161 0.959 . S
H147 C161 0.961 . S
H148 C162 0.960 . S
H149 C162 0.961 . S
H150 C162 0.959 . S
H151 C165 0.929 . S
H152 C166 0.931 . S
H153 C168 0.930 . S
C154 H142 0.930 . S
C154 C155 1.399 . S
C154 C159 1.399 . S
C155 C154 1.399 . S
C155 C156 1.376 . S
C156 H143 0.930 . S
C156 C155 1.376 . S
C156 C157 1.388 . S
C157 H144 0.930 . S
C157 C156 1.388 . S
C157 C158 1.390 . S
C158 C157 1.390 . S
C158 C159 1.394 . S
C158 C164 1.465 . S
C159 C154 1.399 . S
C159 C158 1.394 . S
C159 C160 1.516 . S
C160 C159 1.516 . S
C160 C161 1.502 . S
C160 C162 1.561 . S
C160 C163 1.526 . S
C161 H145 0.959 . S
C161 H146 0.959 . S
C161 H147 0.961 . S
C161 C160 1.502 . S
C162 H148 0.960 . S
C162 H149 0.961 . S
C162 H150 0.959 . S
C162 C160 1.561 . S
C163 C160 1.526 . S
C163 C164 1.396 . S
C163 C168 1.390 . S
C164 C158 1.465 . S
C164 C163 1.396 . S
C164 C165 1.399 . S
C165 H151 0.929 . S
C165 C164 1.399 . S
C165 C166 1.385 . S
C166 H152 0.931 . S
C166 C165 1.385 . S
C166 C167 1.389 . S
C167 C166 1.389 . S
C167 C168 1.387 . S
C168 H153 0.930 . S
C168 C163 1.390 . S
C168 C167 1.387 . S
H169 C181 0.930 1_545 S
H170 C183 0.930 . S
H171 C184 0.930 . S
H172 C188 0.959 . S
H173 C188 0.959 . S
H174 C188 0.961 . S
H175 C189 0.960 . S
H176 C189 0.961 . S
H177 C189 0.959 . S
H178 C192 0.929 . S
H179 C193 0.931 . S
H180 C195 0.930 . S
C181 H169 0.930 1_565 S
C181 C182 1.399 . S
C181 C186 1.399 1_565 S
C182 C181 1.399 . S
C182 C183 1.376 . S
C183 H170 0.930 . S
C183 C182 1.376 . S
C183 C184 1.388 . S
C184 H171 0.930 . S
C184 C183 1.388 . S
C184 C185 1.390 . S
C185 C184 1.390 . S
C185 C186 1.394 1_565 S
C185 C191 1.465 1_565 S
C186 C181 1.399 1_545 S
C186 C185 1.394 1_545 S
C186 C187 1.516 . S
C187 C186 1.516 . S
C187 C188 1.502 . S
C187 C189 1.561 . S
C187 C190 1.526 . S
C188 H172 0.959 . S
C188 H173 0.959 . S
C188 H174 0.961 . S
C188 C187 1.502 . S
C189 H175 0.960 . S
C189 H176 0.961 . S
C189 H177 0.959 . S
C189 C187 1.561 . S
C190 C187 1.526 . S
C190 C191 1.396 . S
C190 C195 1.390 . S
C191 C185 1.465 1_545 S
C191 C190 1.396 . S
C191 C192 1.399 1_545 S
C192 H178 0.929 . S
C192 C191 1.399 1_565 S
C192 C193 1.385 1_565 S
C193 H179 0.931 . S
C193 C192 1.385 1_545 S
C193 C194 1.389 . S
C194 C193 1.389 . S
C194 C195 1.387 . S
C195 H180 0.930 . S
C195 C190 1.390 . S
C195 C194 1.387 . S
H196 C208 0.930 . S
H197 C210 0.930 1_655 S
H198 C211 0.930 . S
H199 C215 0.959 . S
H200 C215 0.959 . S
H201 C215 0.961 . S
H202 C216 0.960 . S
H203 C216 0.961 . S
H204 C216 0.959 . S
H205 C219 0.929 . S
H206 C220 0.931 . S
H207 C222 0.930 . S
C208 H196 0.930 . S
C208 C209 1.399 . S
C208 C213 1.399 . S
C209 C208 1.399 . S
C209 C210 1.376 . S
C210 H197 0.930 1_455 S
C210 C209 1.376 . S
C210 C211 1.388 . S
C211 H198 0.930 . S
C211 C210 1.388 . S
C211 C212 1.390 . S
C212 C211 1.390 . S
C212 C213 1.394 . S
C212 C218 1.465 . S
C213 C208 1.399 . S
C213 C212 1.394 . S
C213 C214 1.516 . S
C214 C213 1.516 . S
C214 C215 1.502 . S
C214 C216 1.561 . S
C214 C217 1.526 . S
C215 H199 0.959 . S
C215 H200 0.959 . S
C215 H201 0.961 . S
C215 C214 1.502 . S
C216 H202 0.960 . S
C216 H203 0.961 . S
C216 H204 0.959 . S
C216 C214 1.561 . S
C217 C214 1.526 . S
C217 C218 1.396 . S
C217 C222 1.390 . S
C218 C212 1.465 . S
C218 C217 1.396 . S
C218 C219 1.399 . S
C219 H205 0.929 . S
C219 C218 1.399 . S
C219 C220 1.385 . S
C220 H206 0.931 . S
C220 C219 1.385 . S
C220 C221 1.389 . S
C221 C220 1.389 . S
C221 C222 1.387 . S
C222 H207 0.930 . S
C222 C217 1.390 . S
C222 C221 1.387 . S
H223 C235 0.930 . S
H224 C237 0.930 . S
H225 C238 0.930 . S
H226 C242 0.959 . S
H227 C242 0.959 . S
H228 C242 0.961 . S
H229 C243 0.957 1_455 S
H230 C243 0.961 . S
H231 C243 0.959 . S
H232 C246 0.929 . S
H233 C247 0.931 1_545 S
H234 C249 0.930 . S
C235 H223 0.930 . S
C235 C236 1.399 . S
C235 C240 1.399 . S
C236 C235 1.399 . S
C236 C237 1.376 . S
C237 H224 0.930 . S
C237 C236 1.376 . S
C237 C238 1.388 . S
C238 H225 0.930 . S
C238 C237 1.388 . S
C238 C239 1.390 . S
C239 C238 1.390 . S
C239 C240 1.394 . S
C239 C245 1.465 1_455 S
C240 C235 1.399 . S
C240 C239 1.394 . S
C240 C241 1.516 . S
C241 C240 1.516 . S
C241 C242 1.502 . S
C241 C243 1.561 1_455 S
C241 C244 1.526 1_455 S
C242 H226 0.959 . S
C242 H227 0.959 . S
C242 H228 0.961 . S
C242 C241 1.502 . S
C243 H229 0.957 1_655 S
C243 H230 0.961 . S
C243 H231 0.959 . S
C243 C241 1.561 1_655 S
C244 C241 1.526 1_655 S
C244 C245 1.396 . S
C244 C249 1.390 . S
C245 C239 1.465 1_655 S
C245 C244 1.396 . S
C245 C246 1.399 . S
C246 H232 0.929 . S
C246 C245 1.399 . S
C246 C247 1.385 . S
C247 H233 0.931 1_565 S
C247 C246 1.385 . S
C247 C248 1.389 . S
C248 C247 1.389 . S
C248 C249 1.387 . S
C249 H234 0.930 . S
C249 C244 1.390 . S
C249 C248 1.387 . S
H250 C262 0.930 . S
H251 C264 0.930 . S
H252 C265 0.930 . S
H253 C269 0.959 . S
H254 C269 0.959 . S
H255 C269 0.961 . S
H256 C270 0.960 . S
H257 C270 0.961 . S
H258 C270 0.959 . S
H259 C273 0.929 . S
H260 C274 0.931 . S
H261 C276 0.930 1_556 S
C262 H250 0.930 . S
C262 C263 1.399 . S
C262 C267 1.399 . S
C263 C262 1.399 . S
C263 C264 1.376 . S
C264 H251 0.930 . S
C264 C263 1.376 . S
C264 C265 1.388 1_556 S
C265 H252 0.930 . S
C265 C264 1.388 1_554 S
C265 C266 1.390 1_554 S
C266 C265 1.390 1_556 S
C266 C267 1.394 . S
C266 C272 1.465 1_556 S
C267 C262 1.399 . S
C267 C266 1.394 . S
C267 C268 1.516 . S
C268 C267 1.516 . S
C268 C269 1.502 . S
C268 C270 1.561 . S
C268 C271 1.526 . S
C269 H253 0.959 . S
C269 H254 0.959 . S
C269 H255 0.961 . S
C269 C268 1.502 . S
C270 H256 0.960 . S
C270 H257 0.961 . S
C270 H258 0.959 . S
C270 C268 1.561 . S
C271 C268 1.526 . S
C271 C272 1.396 1_556 S
C271 C276 1.390 1_556 S
C272 C266 1.465 1_554 S
C272 C271 1.396 1_554 S
C272 C273 1.399 . S
C273 H259 0.929 . S
C273 C272 1.399 . S
C273 C274 1.385 . S
C274 H260 0.931 . S
C274 C273 1.385 . S
C274 C275 1.389 . S
C275 C274 1.389 . S
C275 C276 1.387 . S
C276 H261 0.930 1_554 S
C276 C271 1.390 1_554 S
C276 C275 1.387 . S
H277 C289 0.930 . S
H278 C291 0.930 . S
H279 C292 0.930 . S
H280 C296 0.959 . S
H281 C296 0.959 . S
H282 C296 0.961 . S
H283 C297 0.960 . S
H284 C297 0.961 . S
H285 C297 0.959 . S
H286 C300 0.929 . S
H287 C301 0.931 1_565 S
H288 C303 0.930 . S
C289 H277 0.930 . S
C289 C290 1.399 . S
C289 C294 1.399 . S
C290 C289 1.399 . S
C290 C291 1.376 . S
C291 H278 0.930 . S
C291 C290 1.376 . S
C291 C292 1.388 . S
C292 H279 0.930 . S
C292 C291 1.388 . S
C292 C293 1.390 . S
C293 C292 1.390 . S
C293 C294 1.394 . S
C293 C299 1.465 . S
C294 C289 1.399 . S
C294 C293 1.394 . S
C294 C295 1.516 . S
C295 C294 1.516 . S
C295 C296 1.502 . S
C295 C297 1.561 . S
C295 C298 1.526 . S
C296 H280 0.959 . S
C296 H281 0.959 . S
C296 H282 0.961 . S
C296 C295 1.502 . S
C297 H283 0.960 . S
C297 H284 0.961 . S
C297 H285 0.959 . S
C297 C295 1.561 . S
C298 C295 1.526 . S
C298 C299 1.396 . S
C298 C303 1.390 . S
C299 C293 1.465 . S
C299 C298 1.396 . S
C299 C300 1.399 . S
C300 H286 0.929 . S
C300 C299 1.399 . S
C300 C301 1.385 . S
C301 H287 0.931 1_545 S
C301 C300 1.385 . S
C301 C302 1.389 . S
C302 C301 1.389 . S
C302 C303 1.387 . S
C303 H288 0.930 . S
C303 C298 1.390 . S
C303 C302 1.387 . S
H304 C316 0.930 . S
H305 C318 0.930 . S
H306 C319 0.930 . S
H307 C323 0.959 . S
H308 C323 0.959 . S
H309 C323 0.961 . S
H310 C324 0.960 . S
H311 C324 0.961 . S
H312 C324 0.959 . S
H313 C327 0.929 . S
H314 C328 0.931 . S
H315 C330 0.930 . S
C316 H304 0.930 . S
C316 C317 1.399 . S
C316 C321 1.399 . S
C317 C316 1.399 . S
C317 C318 1.376 . S
C318 H305 0.930 . S
C318 C317 1.376 . S
C318 C319 1.388 . S
C319 H306 0.930 . S
C319 C318 1.388 . S
C319 C320 1.390 . S
C320 C319 1.390 . S
C320 C321 1.394 . S
C320 C326 1.465 . S
C321 C316 1.399 . S
C321 C320 1.394 . S
C321 C322 1.516 . S
C322 C321 1.516 . S
C322 C323 1.502 . S
C322 C324 1.561 . S
C322 C325 1.526 . S
C323 H307 0.959 . S
C323 H308 0.959 . S
C323 H309 0.961 . S
C323 C322 1.502 . S
C324 H310 0.960 . S
C324 H311 0.961 . S
C324 H312 0.959 . S
C324 C322 1.561 . S
C325 C322 1.526 . S
C325 C326 1.396 . S
C325 C330 1.390 . S
C326 C320 1.465 . S
C326 C325 1.396 . S
C326 C327 1.399 . S
C327 H313 0.929 . S
C327 C326 1.399 . S
C327 C328 1.385 . S
C328 H314 0.931 . S
C328 C327 1.385 . S
C328 C329 1.389 . S
C329 C328 1.389 . S
C329 C330 1.387 . S
C330 H315 0.930 . S
C330 C325 1.390 . S
C330 C329 1.387 . S
H331 C343 0.930 . S
H332 C345 0.930 . S
H333 C346 0.938 . S
H334 C350 0.959 . S
H335 C350 0.959 . S
H336 C350 0.961 1_455 S
H337 C351 0.960 . S
H338 C351 0.961 . S
H339 C351 0.959 . S
H340 C354 0.929 . S
H341 C355 0.931 . S
H342 C357 0.930 . S
C343 H331 0.930 . S
C343 C344 1.399 . S
C343 C348 1.399 . S
C344 C343 1.399 . S
C344 C345 1.376 . S
C345 H332 0.930 . S
C345 C344 1.376 . S
C345 C346 1.378 1_455 S
C346 H333 0.938 . S
C346 C345 1.378 1_655 S
C346 C347 1.392 . S
C347 C346 1.392 . S
C347 C348 1.394 1_655 S
C347 C353 1.465 . S
C348 C343 1.399 . S
C348 C347 1.394 1_455 S
C348 C349 1.516 . S
C349 C348 1.516 . S
C349 C350 1.502 1_455 S
C349 C351 1.561 . S
C349 C352 1.526 1_455 S
C350 H334 0.959 . S
C350 H335 0.959 . S
C350 H336 0.961 1_655 S
C350 C349 1.502 1_655 S
C351 H337 0.960 . S
C351 H338 0.961 . S
C351 H339 0.959 . S
C351 C349 1.561 . S
C352 C349 1.526 1_655 S
C352 C353 1.396 . S
C352 C357 1.390 . S
C353 C347 1.465 . S
C353 C352 1.396 . S
C353 C354 1.399 . S
C354 H340 0.929 . S
C354 C353 1.399 . S
C354 C355 1.385 . S
C355 H341 0.931 . S
C355 C354 1.385 . S
C355 C356 1.389 . S
C356 C355 1.389 . S
C356 C357 1.387 . S
C357 H342 0.930 . S
C357 C352 1.390 . S
C357 C356 1.387 . S
H358 C370 0.930 . S
H359 C372 0.930 1_455 S
H360 C373 0.930 . S
H361 C377 0.959 . S
H362 C377 0.959 . S
H363 C377 0.961 . S
H364 C378 0.960 . S
H365 C378 0.961 . S
H366 C378 0.959 . S
H367 C381 0.929 . S
H368 C382 0.931 . S
H369 C384 0.930 . S
C370 H358 0.930 . S
C370 C371 1.399 . S
C370 C375 1.399 . S
C371 C370 1.399 . S
C371 C372 1.376 1_556 S
C372 H359 0.930 1_655 S
C372 C371 1.376 1_554 S
C372 C373 1.388 . S
C373 H360 0.930 . S
C373 C372 1.388 . S
C373 C374 1.390 . S
C374 C373 1.390 . S
C374 C375 1.394 1_554 S
C374 C380 1.465 . S
C375 C370 1.399 . S
C375 C374 1.394 1_556 S
C375 C376 1.516 . S
C376 C375 1.516 . S
C376 C377 1.502 . S
C376 C378 1.561 . S
C376 C379 1.526 1_556 S
C377 H361 0.959 . S
C377 H362 0.959 . S
C377 H363 0.961 . S
C377 C376 1.502 . S
C378 H364 0.960 . S
C378 H365 0.961 . S
C378 H366 0.959 . S
C378 C376 1.561 . S
C379 C376 1.526 1_554 S
C379 C380 1.396 . S
C379 C384 1.390 . S
C380 C374 1.465 . S
C380 C379 1.396 . S
C380 C381 1.399 . S
C381 H367 0.929 . S
C381 C380 1.399 . S
C381 C382 1.385 . S
C382 H368 0.931 . S
C382 C381 1.385 . S
C382 C383 1.389 . S
C383 C382 1.389 . S
C383 C384 1.387 . S
C384 H369 0.930 . S
C384 C379 1.390 . S
C384 C383 1.387 . S
H385 C397 0.930 . S
H386 C399 0.930 . S
H387 C400 0.930 . S
H388 C404 0.959 . S
H389 C404 0.959 . S
H390 C404 0.961 . S
H391 C405 0.960 . S
H392 C405 0.961 . S
H393 C405 0.959 . S
H394 C408 0.929 . S
H395 C409 0.931 . S
H396 C411 0.930 . S
C397 H385 0.930 . S
C397 C398 1.399 . S
C397 C402 1.399 . S
C398 C397 1.399 . S
C398 C399 1.376 . S
C399 H386 0.930 . S
C399 C398 1.376 . S
C399 C400 1.388 . S
C400 H387 0.930 . S
C400 C399 1.388 . S
C400 C401 1.390 . S
C401 C400 1.390 . S
C401 C402 1.394 . S
C401 C407 1.465 . S
C402 C397 1.399 . S
C402 C401 1.394 . S
C402 C403 1.516 . S
C403 C402 1.516 . S
C403 C404 1.502 . S
C403 C405 1.561 . S
C403 C406 1.526 . S
C404 H388 0.959 . S
C404 H389 0.959 . S
C404 H390 0.961 . S
C404 C403 1.502 . S
C405 H391 0.960 . S
C405 H392 0.961 . S
C405 H393 0.959 . S
C405 C403 1.561 . S
C406 C403 1.526 . S
C406 C407 1.396 . S
C406 C411 1.390 . S
C407 C401 1.465 . S
C407 C406 1.396 . S
C407 C408 1.399 . S
C408 H394 0.929 . S
C408 C407 1.399 . S
C408 C409 1.385 . S
C409 H395 0.931 . S
C409 C408 1.385 . S
C409 C410 1.389 . S
C410 C409 1.389 . S
C410 C411 1.387 . S
C411 H396 0.930 . S
C411 C406 1.390 . S
C411 C410 1.387 . S
C101 C51 1.284 1_554 S
C113 C4 1.252 . S
C128 C75 1.251 . S
C140 C31 1.285 . S
C155 C48 1.270 . S
C167 C7 1.256 . S
C182 C71 1.267 1_556 S
C194 C27 1.258 . S
C209 C30 1.264 1_455 S
C221 C5 1.327 . S
C236 C50 1.282 . S
C248 C29 1.252 1_565 S
C263 C49 1.254 . S
C275 C70 1.311 . S
C290 C6 1.286 . S
C302 C72 1.252 1_545 S
C317 C28 1.321 . S
C329 C9 1.360 . S
C344 C52 1.359 . S
C356 C26 1.310 . S
C371 C53 1.335 1_655 S
C383 C73 1.358 . S
C398 C74 1.284 . S
C410 C8 1.252 . S
