# Generated by pormake.
# Topology upc, (4)-cn, num edge types: 1
# Building blocks:
#     Node 0, Type 0, BuildingBlock: QUQFOY_clean_sbu_3, # of connection points: 4
#     Node 1, Type 0, BuildingBlock: QUQFOY_clean_sbu_3, # of connection points: 4
#     Node 2, Type 0, BuildingBlock: QUQFOY_clean_sbu_3, # of connection points: 4
#     Node 3, Type 0, BuildingBlock: QUQFOY_clean_sbu_3, # of connection points: 4
#     Node 4, Type 0, BuildingBlock: QUQFOY_clean_sbu_3, # of connection points: 4
#     Node 5, Type 0, BuildingBlock: QUQFOY_clean_sbu_3, # of connection points: 4
#     Node 6, Type 0, BuildingBlock: QUQFOY_clean_sbu_3, # of connection points: 4
#     Node 7, Type 0, BuildingBlock: QUQFOY_clean_sbu_3, # of connection points: 4
#     Node 8, Type 0, BuildingBlock: QUQFOY_clean_sbu_3, # of connection points: 4
#     Node 9, Type 0, BuildingBlock: QUQFOY_clean_sbu_3, # of connection points: 4
#     Node 10, Type 0, BuildingBlock: QUQFOY_clean_sbu_3, # of connection points: 4
#     Node 11, Type 0, BuildingBlock: QUQFOY_clean_sbu_3, # of connection points: 4
#     Node 12, Type 0, BuildingBlock: QUQFOY_clean_sbu_3, # of connection points: 4
#     Node 13, Type 0, BuildingBlock: QUQFOY_clean_sbu_3, # of connection points: 4
#     Node 14, Type 0, BuildingBlock: QUQFOY_clean_sbu_3, # of connection points: 4
#     Node 15, Type 0, BuildingBlock: QUQFOY_clean_sbu_3, # of connection points: 4
#     Edge 16, Type (0, 0), BuildingBlock: EZIPEK_clean_linker_0, # of connection points: 2
#     Edge 17, Type (0, 0), BuildingBlock: EZIPEK_clean_linker_0, # of connection points: 2
#     Edge 18, Type (0, 0), BuildingBlock: EZIPEK_clean_linker_0, # of connection points: 2
#     Edge 19, Type (0, 0), BuildingBlock: EZIPEK_clean_linker_0, # of connection points: 2
#     Edge 20, Type (0, 0), BuildingBlock: EZIPEK_clean_linker_0, # of connection points: 2
#     Edge 21, Type (0, 0), BuildingBlock: EZIPEK_clean_linker_0, # of connection points: 2
#     Edge 22, Type (0, 0), BuildingBlock: EZIPEK_clean_linker_0, # of connection points: 2
#     Edge 23, Type (0, 0), BuildingBlock: EZIPEK_clean_linker_0, # of connection points: 2
#     Edge 24, Type (0, 0), BuildingBlock: EZIPEK_clean_linker_0, # of connection points: 2
#     Edge 25, Type (0, 0), BuildingBlock: EZIPEK_clean_linker_0, # of connection points: 2
#     Edge 26, Type (0, 0), BuildingBlock: EZIPEK_clean_linker_0, # of connection points: 2
#     Edge 27, Type (0, 0), BuildingBlock: EZIPEK_clean_linker_0, # of connection points: 2
#     Edge 28, Type (0, 0), BuildingBlock: EZIPEK_clean_linker_0, # of connection points: 2
#     Edge 29, Type (0, 0), BuildingBlock: EZIPEK_clean_linker_0, # of connection points: 2
#     Edge 30, Type (0, 0), BuildingBlock: EZIPEK_clean_linker_0, # of connection points: 2
#     Edge 31, Type (0, 0), BuildingBlock: EZIPEK_clean_linker_0, # of connection points: 2
#     Edge 32, Type (0, 0), BuildingBlock: EZIPEK_clean_linker_0, # of connection points: 2
#     Edge 33, Type (0, 0), BuildingBlock: EZIPEK_clean_linker_0, # of connection points: 2
#     Edge 34, Type (0, 0), BuildingBlock: EZIPEK_clean_linker_0, # of connection points: 2
#     Edge 35, Type (0, 0), BuildingBlock: EZIPEK_clean_linker_0, # of connection points: 2
#     Edge 36, Type (0, 0), BuildingBlock: EZIPEK_clean_linker_0, # of connection points: 2
#     Edge 37, Type (0, 0), BuildingBlock: EZIPEK_clean_linker_0, # of connection points: 2
#     Edge 38, Type (0, 0), BuildingBlock: EZIPEK_clean_linker_0, # of connection points: 2
#     Edge 39, Type (0, 0), BuildingBlock: EZIPEK_clean_linker_0, # of connection points: 2
#     Edge 40, Type (0, 0), BuildingBlock: EZIPEK_clean_linker_0, # of connection points: 2
#     Edge 41, Type (0, 0), BuildingBlock: EZIPEK_clean_linker_0, # of connection points: 2
#     Edge 42, Type (0, 0), BuildingBlock: EZIPEK_clean_linker_0, # of connection points: 2
#     Edge 43, Type (0, 0), BuildingBlock: EZIPEK_clean_linker_0, # of connection points: 2
#     Edge 44, Type (0, 0), BuildingBlock: EZIPEK_clean_linker_0, # of connection points: 2
#     Edge 45, Type (0, 0), BuildingBlock: EZIPEK_clean_linker_0, # of connection points: 2
#     Edge 46, Type (0, 0), BuildingBlock: EZIPEK_clean_linker_0, # of connection points: 2
#     Edge 47, Type (0, 0), BuildingBlock: EZIPEK_clean_linker_0, # of connection points: 2
# Relax obj value: 0.240
# Max RMSD: 0.293
# Mean RMSD: 0.293
data_MOF--net-upc--node1-QUQFOY_clean_sbu_3--edge1-EZIPEK_clean_linker_0
_symmetry_space_group_name_H-M    P1
_symmetry_Int_Tables_number       1
_symmetry_cell_setting            triclinic
loop_
_symmetry_equiv_pos_as_xyz
'x, y, z'
_cell_length_a     25.51788
_cell_length_b     34.309579
_cell_length_c     1.8356898
_cell_angle_alpha  90.414642
_cell_angle_beta   89.055267
_cell_angle_gamma 25.667843
loop_
_atom_site_label
_atom_site_type_symbol
_atom_site_fract_x
_atom_site_fract_y
_atom_site_fract_z
_atom_type_partial_charge
C0 C -1.23902 1.15537 2.02489 0.0
O1 O -1.18339 1.11396 2.60683 0.0
Cd2 Cd -1.19672 1.06296 3.2712 0.0
O3 O -1.27862 1.15238 1.68634 0.0
Cd4 Cd -1.25606 1.06475 1.70631 0.0
C5 C -1.49154 1.23131 2.79495 0.0
O6 O -1.10883 0.95222 2.61671 0.0
O7 O -0.22293 0.98571 2.3504 0.0
O8 O -1.11802 0.97632 0.67264 0.0
C9 C -1.14799 0.94433 2.75361 0.0
O10 O -1.40854 1.18865 3.18893 0.0
C11 C -1.16281 0.97716 0.35421 0.0
O12 O -1.46882 1.20553 2.13573 0.0
O13 O -0.25633 1.02983 0.61825 0.0
C14 C 0.48333 0.25644 1.92349 0.0
O15 O 0.47577 0.27828 2.54595 0.0
Cd16 Cd 0.63624 0.17446 3.36952 0.0
O17 O 0.58499 0.17698 1.62766 0.0
Cd18 Cd 0.81303 0.02329 1.75265 0.0
C19 C 0.751 0.00678 2.82343 0.0
O20 O 0.81643 0.07181 2.70769 0.0
O21 O -1.09081 1.64544 2.60174 0.0
O22 O 0.8779 0.03254 1.06375 0.0
C23 C 0.91915 -0.00678 2.9306 0.0
O24 O 0.71858 0.06347 2.81037 0.0
C25 C 0.9119 -0.0083 0.48759 0.0
O26 O -1.25031 1.66983 2.26465 0.0
O27 O -1.16402 1.67953 0.48349 0.0
C28 C -1.37832 1.40721 2.04345 0.0
O29 O -1.42764 1.446 2.68128 0.0
Cd30 Cd -1.43912 1.51154 3.42057 0.0
O31 O -1.33185 1.40445 1.67638 0.0
Cd32 Cd -1.30274 1.45843 1.64094 0.0
C33 C -1.1509 1.34485 2.83475 0.0
O34 O -1.46819 1.58018 2.57697 0.0
O35 O -1.37047 1.56576 2.22238 0.0
O36 O -1.40773 1.52001 0.55546 0.0
C37 C -1.44333 1.59904 2.68864 0.0
O38 O -1.26104 1.41101 2.80454 0.0
C39 C -1.37472 1.53075 0.30269 0.0
O40 O -1.09677 1.31917 2.2405 0.0
O41 O -1.28802 1.49009 0.59688 0.0
C42 C -0.00869 0.56447 1.95816 0.0
O43 O -0.0225 0.56358 2.6257 0.0
Cd44 Cd -0.20562 0.68531 3.37643 0.0
O45 O -0.09935 0.63466 1.58917 0.0
Cd46 Cd -0.32811 0.7958 1.57787 0.0
C47 C -0.30855 0.84019 2.71376 0.0
O48 O -0.34527 0.75781 2.54926 0.0
O49 O -0.51355 0.89172 2.18269 0.0
O50 O -0.4439 0.87335 0.49803 0.0
C51 C -0.45872 0.83661 2.66234 0.0
O52 O -0.27545 0.78315 2.69137 0.0
C53 C -0.3808 0.80383 0.19371 0.0
O54 O -0.34677 0.87895 2.12397 0.0
O55 O -0.28605 0.73069 0.50652 0.0
C56 C -1.54894 1.40476 6.43229 0.0
O57 O -1.58958 1.44902 5.88047 0.0
Cd58 Cd -1.74646 1.53082 5.12953 0.0
O59 O -1.60181 1.4107 6.72833 0.0
Cd60 Cd -1.78989 1.4961 6.68981 0.0
C61 C -1.6733 1.38389 5.40267 0.0
O62 O -1.91115 1.62057 5.88439 0.0
O63 O -0.9484 1.58871 5.9777 0.0
O64 O -1.85325 1.56811 7.82571 0.0
C65 C -1.97615 1.63577 5.68596 0.0
O66 O -1.70451 1.43958 5.50096 0.0
C67 C -1.92198 1.58601 8.01603 0.0
O68 O -0.67028 1.36518 5.9759 0.0
O69 O -0.90327 1.54546 7.66424 0.0
C70 C 0.31034 0.28935 6.40561 0.0
O71 O 0.306 0.28561 5.72071 0.0
Cd72 Cd 0.41728 0.16906 4.88527 0.0
O73 O 0.38204 0.2224 6.79923 0.0
Cd74 Cd 0.5337 0.06556 6.72605 0.0
C75 C -1.38187 1.72481 5.69678 0.0
O76 O 0.44294 0.09873 5.64447 0.0
O77 O -1.48137 1.68721 6.07413 0.0
O78 O 0.41414 0.116 7.63099 0.0
C79 C 0.51617 0.02156 5.54808 0.0
O80 O 0.57538 0.06866 5.64265 0.0
C81 C 0.50295 0.04642 7.99602 0.0
O82 O -1.33597 1.6889 6.30664 0.0
O83 O -1.45695 1.70762 7.83125 0.0
C84 C -1.10225 1.17846 6.31833 0.0
O85 O -1.07066 1.15093 5.64862 0.0
Cd86 Cd -0.92841 1.09243 4.89913 0.0
O87 O -1.05015 1.16985 6.68536 0.0
Cd88 Cd -0.88464 1.10935 6.67333 0.0
C89 C -1.02842 1.24756 5.69071 0.0
O90 O -0.76823 0.99778 5.65909 0.0
O91 O -0.70319 1.01061 5.97385 0.0
O92 O -0.81811 1.0265 7.62288 0.0
C93 C -0.69563 0.9771 5.52959 0.0
O94 O -0.98013 1.18249 5.58022 0.0
C95 C -0.77864 1.02852 7.98183 0.0
O96 O -1.01836 1.25605 6.31565 0.0
O97 O -0.80199 1.07859 7.7767 0.0
C98 C 0.09832 0.57736 6.37745 0.0
O99 O 0.14432 0.55901 5.77205 0.0
Cd100 Cd 0.05285 0.66644 4.98207 0.0
O101 O 0.00608 0.65556 6.69814 0.0
Cd102 Cd -0.11969 0.80056 6.65454 0.0
C103 C -0.26187 0.85519 5.51371 0.0
O104 O 0.00149 0.75326 5.71323 0.0
O105 O -0.16492 0.89283 6.05918 0.0
O106 O -0.01952 0.76037 7.62814 0.0
C107 C -0.0781 0.83186 5.5834 0.0
O108 O -0.15258 0.78966 5.32987 0.0
C109 C -0.11613 0.8347 7.98763 0.0
O110 O -0.30132 0.88984 6.15884 0.0
O111 O -0.21615 0.88801 7.78777 0.0
C112 C 0.05292 0.607 15.93479 0.0
O113 O 0.02689 0.62641 15.27283 0.0
Cd114 Cd 0.05706 0.65886 14.49174 0.0
O115 O 0.08794 0.61394 16.26196 0.0
Cd116 Cd 0.07795 0.69064 15.88069 0.0
C117 C 0.32841 0.52158 14.89943 0.0
O118 O -0.06386 0.79313 14.87394 0.0
O119 O -0.93665 0.74915 15.02297 0.0
O120 O -0.07778 0.80175 16.82214 0.0
C121 C -0.02119 0.79773 14.69362 0.0
O122 O 0.26001 0.54849 14.48833 0.0
C123 C -0.03325 0.80221 17.10084 0.0
O124 O -0.71394 0.55606 15.54243 0.0
O125 O -0.93558 0.74408 16.85245 0.0
C126 C -1.68301 1.5198 15.79908 0.0
O127 O -1.67393 1.49581 15.18858 0.0
Cd128 Cd -1.83333 1.59803 14.37598 0.0
O129 O -1.78543 1.60008 16.081 0.0
Cd130 Cd -2.01469 1.75367 15.95041 0.0
C131 C -1.9515 1.76836 14.89049 0.0
O132 O -2.00505 1.69081 15.0624 0.0
O133 O -0.10034 0.11698 15.07087 0.0
O134 O -0.11736 0.13757 16.80678 0.0
C135 C -2.10723 1.76624 14.80488 0.0
O136 O -1.91831 1.71126 14.91326 0.0
C137 C -2.11676 1.79311 17.24669 0.0
O138 O 0.05342 0.10397 15.45432 0.0
O139 O -2.00275 1.71934 17.15073 0.0
C140 C 0.17186 0.37142 15.874 0.0
O141 O 0.24949 0.31615 15.34214 0.0
Cd142 Cd 0.21037 0.28875 14.548 0.0
O143 O 0.10858 0.38458 16.08705 0.0
Cd144 Cd 0.11843 0.30548 15.97722 0.0
C145 C -0.08031 0.4541 14.73417 0.0
O146 O 0.29193 0.17862 15.12643 0.0
O147 O 0.20757 0.18387 15.57669 0.0
O148 O 0.20886 0.25693 17.10407 0.0
C149 C 0.27642 0.15224 15.08144 0.0
O150 O -0.01334 0.43916 14.69313 0.0
C151 C 0.17831 0.24431 17.35736 0.0
O152 O -0.0626 0.4176 15.23516 0.0
O153 O 0.09624 0.28047 17.04353 0.0
C154 C -1.19136 1.21071 15.72889 0.0
O155 O -1.1783 1.21114 15.05667 0.0
Cd156 Cd -0.99372 1.08803 14.31745 0.0
O157 O -1.1001 1.14221 16.1067 0.0
Cd158 Cd -0.87158 0.98496 16.09719 0.0
C159 C -0.9015 0.94081 15.11696 0.0
O160 O -0.85102 1.01906 15.08962 0.0
O161 O -0.68795 0.87964 15.34852 0.0
O162 O -0.90377 1.0523 17.05282 0.0
C163 C -0.73942 0.9381 14.94284 0.0
O164 O -0.92521 0.99189 15.02084 0.0
C165 C -0.81926 0.98405 17.43677 0.0
O166 O -0.8634 0.90639 15.73383 0.0
O167 O -0.76331 0.91592 17.21215 0.0
C168 C 0.33282 0.40017 11.36117 0.0
O169 O 0.35613 0.37362 11.99897 0.0
Cd170 Cd 0.49287 0.31612 12.72186 0.0
O171 O 0.39684 0.38292 11.02102 0.0
Cd172 Cd 0.59771 0.27978 11.16399 0.0
C173 C -0.53248 0.42345 12.35495 0.0
O174 O 0.67696 0.18039 12.04217 0.0
O175 O -0.2119 0.14746 11.6608 0.0
O176 O 0.63912 0.22232 9.98811 0.0
C177 C 0.77751 0.13032 12.09308 0.0
O178 O 0.41011 0.43536 12.44905 0.0
C179 C 0.71944 0.19346 9.80435 0.0
O180 O -0.45417 0.37192 11.82386 0.0
O181 O -0.28171 0.22123 10.18545 0.0
C182 C -1.47478 1.46677 11.31503 0.0
O183 O -1.43511 1.45501 11.89473 0.0
Cd184 Cd -1.55798 1.577 12.72313 0.0
O185 O -1.56664 1.54246 11.01279 0.0
Cd186 Cd -1.70292 1.69253 11.0322 0.0
C187 C -1.8499 1.74722 12.07138 0.0
O188 O -1.60338 1.65914 12.00477 0.0
O189 O 0.29883 0.07859 11.69108 0.0
O190 O -1.59088 1.6448 10.06254 0.0
C191 C -1.68654 1.73928 12.16321 0.0
O192 O -1.74434 1.68764 12.19695 0.0
C193 C -1.68327 1.71488 9.71221 0.0
O194 O 0.17532 0.06334 11.44864 0.0
O195 O 0.27905 0.0518 9.92137 0.0
C196 C -0.06839 0.57972 11.3341 0.0
O197 O -0.07254 0.57904 12.02496 0.0
Cd198 Cd -0.15367 0.5784 12.65988 0.0
O199 O -0.12917 0.598 10.93589 0.0
Cd200 Cd -0.29461 0.66027 11.13181 0.0
C201 C -0.15212 0.50118 11.77926 0.0
O202 O -0.36346 0.71971 12.40491 0.0
O203 O -0.50078 0.81121 11.61292 0.0
O204 O -0.37846 0.74945 10.17247 0.0
C205 C -0.47469 0.79463 12.27374 0.0
O206 O -0.09481 0.49448 11.71341 0.0
C207 C -0.41119 0.74065 9.8505 0.0
O208 O -0.23908 0.5549 11.37081 0.0
O209 O -0.3773 0.68508 10.08408 0.0
C210 C -1.26705 1.17691 10.72953 0.0
O211 O -1.31551 1.17672 10.60895 0.0
Cd212 Cd -1.14465 1.02778 11.10306 0.0
O213 O -1.16012 1.10527 10.94195 0.0
Cd214 Cd -1.07653 0.97966 11.04711 0.0
C215 C -0.98163 0.9581 12.24418 0.0
O216 O -1.20794 1.02151 11.87012 0.0
O217 O -1.01296 0.89155 11.95137 0.0
O218 O -1.15259 0.99854 9.98958 0.0
C219 C -1.11501 0.94649 12.17196 0.0
O220 O -1.09385 1.02855 12.18092 0.0
C221 C -1.04863 0.91811 9.74388 0.0
O222 O -0.91222 0.90093 11.706 0.0
O223 O -0.95613 0.87049 10.0318 0.0
C224 C -1.39219 1.30995 2.28685 0.0
C225 C -1.28808 1.22728 1.87159 0.0
C226 C -1.2695 1.27924 1.29746 0.0
C227 C -1.36652 1.35776 1.77996 0.0
N228 N -1.5565 1.46642 2.37502 0.0
N229 N -1.14706 1.14181 0.84511 0.0
C230 C -1.43988 1.37914 2.15591 0.0
C231 C -1.23291 1.21467 1.3285 0.0
N232 N -1.44307 1.32165 2.83248 0.0
N233 N -1.21357 1.26667 0.81158 0.0
H234 H -1.1192 1.09412 0.8669 0.0
H235 H -1.10893 1.13116 0.39823 0.0
H236 H -1.2521 1.31884 0.66804 0.0
H237 H -1.13221 1.20603 0.52231 0.0
H238 H -1.5071 1.37572 3.21598 0.0
H239 H -1.41518 1.27459 2.93662 0.0
H240 H -1.6171 1.48676 2.60665 0.0
H241 H -1.59584 1.51926 2.23891 0.0
C242 C 0.29588 0.39903 1.28802 0.0
C243 C 0.36836 0.32185 1.60428 0.0
C244 C 0.19262 0.39697 1.79356 0.0
C245 C 0.11707 0.47932 1.61901 0.0
N246 N 0.09717 0.55095 0.90215 0.0
N247 N 0.39722 0.23554 1.92907 0.0
C248 C 0.16865 0.47795 1.26214 0.0
C249 C 0.32034 0.31671 1.77261 0.0
N250 N 0.34911 0.39702 1.0407 0.0
N251 N 0.14041 0.39727 1.99492 0.0
H252 H 0.49112 0.17584 1.8905 0.0
H253 H 0.37027 0.22536 2.05712 0.0
H254 H 0.04791 0.45411 1.95298 0.0
H255 H 0.18677 0.34243 2.19022 0.0
H256 H 0.3018 0.45287 0.86757 0.0
H257 H 0.443 0.33786 1.02093 0.0
H258 H 0.13039 0.55203 0.59373 0.0
H259 H 0.00527 0.60791 0.84415 0.0
C260 C -1.32474 1.2463 6.37698 0.0
C261 C -1.42863 1.33606 6.666 0.0
C262 C -1.30195 1.30494 7.07234 0.0
C263 C -1.20261 1.22152 6.65381 0.0
N264 N -1.1052 1.097 6.23771 0.0
N265 N -1.5173 1.44521 7.4476 0.0
C266 C -1.20965 1.18698 6.41757 0.0
C267 C -1.4171 1.36318 7.0743 0.0
N268 N -1.33718 1.21983 6.02108 0.0
N269 N -1.28642 1.3281 7.46146 0.0
H270 H -1.60025 1.48619 7.47132 0.0
H271 H -1.51939 1.47237 7.74872 0.0
H272 H -1.20196 1.28356 7.54136 0.0
H273 H -1.35523 1.389 7.75514 0.0
H274 H -1.26705 1.15914 5.71673 0.0
H275 H -1.41976 1.26058 6.00415 0.0
H276 H -1.10224 1.0654 6.11114 0.0
H277 H -1.01999 1.05242 6.29158 0.0
C278 C 0.21219 0.45399 7.1471 0.0
C279 C 0.13103 0.51547 6.589 0.0
C280 C 0.12069 0.45273 6.35159 0.0
C281 C 0.22783 0.3756 6.71839 0.0
N282 N 0.35784 0.31179 7.64443 0.0
N283 N 0.015 0.56792 5.61218 0.0
C284 C 0.26728 0.37938 7.18542 0.0
C285 C 0.08491 0.51479 6.1891 0.0
N286 N 0.23696 0.46659 7.62584 0.0
N287 N 0.05741 0.46351 6.12627 0.0
H288 H -0.01265 0.61413 5.4614 0.0
H289 H -0.00466 0.55893 5.24549 0.0
H290 H 0.08364 0.41757 6.24976 0.0
H291 H -0.02614 0.52186 5.89121 0.0
H292 H 0.28795 0.42857 8.08046 0.0
H293 H 0.19811 0.52026 7.59474 0.0
H294 H 0.40016 0.30518 7.93583 0.0
H295 H 0.38935 0.26275 7.74539 0.0
C296 C 0.14464 0.49214 16.68843 0.0
C297 C 0.04961 0.5698 16.26904 0.0
C298 C 0.02555 0.52287 15.70901 0.0
C299 C 0.12663 0.44102 16.06915 0.0
N300 N 0.26186 0.35716 17.04874 0.0
N301 N -0.13853 0.67925 15.75137 0.0
C302 C 0.17947 0.4287 16.61379 0.0
C303 C -0.02466 0.59253 15.92618 0.0
N304 N 0.20121 0.47905 17.14305 0.0
N305 N -0.01513 0.53134 15.11208 0.0
H306 H -0.17502 0.73083 15.9049 0.0
H307 H -0.1986 0.69992 15.52661 0.0
H308 H 0.03011 0.47726 14.87287 0.0
H309 H -0.08282 0.58799 14.79954 0.0
H310 H 0.27944 0.41961 17.40514 0.0
H311 H 0.16681 0.52973 17.27237 0.0
H312 H 0.29751 0.34754 17.49105 0.0
H313 H 0.28866 0.31011 16.99149 0.0
C314 C -1.39168 1.37759 15.93697 0.0
C315 C -1.31666 1.29478 16.0692 0.0
C316 C -1.49578 1.37556 16.40812 0.0
C317 C -1.56859 1.4541 16.1309 0.0
N318 N -1.59617 1.54032 15.86439 0.0
N319 N -1.29426 1.21807 16.67669 0.0
C320 C -1.51969 1.45871 15.98174 0.0
C321 C -1.36764 1.2948 16.39619 0.0
N322 N -1.33891 1.37704 15.74905 0.0
N323 N -1.55027 1.37849 16.64983 0.0
H324 H -1.20066 1.15814 16.67967 0.0
H325 H -1.32564 1.21455 16.95605 0.0
H326 H -1.64448 1.43876 16.69113 0.0
H327 H -1.50441 1.32301 16.80812 0.0
H328 H -1.38543 1.43266 15.58389 0.0
H329 H -1.24573 1.31915 15.76899 0.0
H330 H -1.56863 1.55026 15.75449 0.0
H331 H -1.69009 1.60037 15.919 0.0
C332 C 0.0019 0.6007 11.35625 0.0
C333 C 0.00929 0.55887 11.01155 0.0
C334 C 0.21779 0.43218 10.57412 0.0
C335 C 0.2182 0.46369 11.07166 0.0
N336 N 0.11053 0.58299 11.83709 0.0
N337 N 0.10151 0.45772 10.0425 0.0
C338 C 0.109 0.55103 11.41516 0.0
C339 C 0.10975 0.48223 10.52944 0.0
N340 N -0.10799 0.68737 11.63346 0.0
N341 N 0.32227 0.35232 10.18475 0.0
H342 H 0.02121 0.49633 9.97993 0.0
H343 H 0.16963 0.40433 9.65605 0.0
H344 H 0.40066 0.31665 10.20123 0.0
H345 H 0.33245 0.32096 9.85128 0.0
H346 H -0.12287 0.72499 11.85713 0.0
H347 H -0.18692 0.72402 11.57749 0.0
H348 H 0.03776 0.64129 12.17494 0.0
H349 H 0.18723 0.54922 11.86005 0.0
C350 C -1.31312 1.27485 10.28288 0.0
C351 C -1.33842 1.26101 10.78004 0.0
C352 C -1.45577 1.38354 11.59695 0.0
C353 C -1.43187 1.39854 11.10083 0.0
N354 N -1.35367 1.36885 9.92876 0.0
N355 N -1.45353 1.31285 11.82791 0.0
C356 C -1.36623 1.34784 10.42533 0.0
C357 C -1.41663 1.31916 11.4075 0.0
N358 N -1.23598 1.21668 9.68709 0.0
N359 N -1.51188 1.42832 12.26683 0.0
H360 H -1.4224 1.26362 11.73973 0.0
H361 H -1.52305 1.36109 12.23263 0.0
H362 H -1.55144 1.48141 12.41839 0.0
H363 H -1.51337 1.40954 12.69462 0.0
H364 H -1.20294 1.21636 9.34003 0.0
H365 H -1.20127 1.16583 9.55301 0.0
H366 H -1.31623 1.3401 9.40055 0.0
H367 H -1.38719 1.41934 10.03271 0.0
C368 C -0.20773 0.93678 4.55299 0.0
C369 C -0.09085 0.85662 4.83965 0.0
C370 C -1.01055 0.82606 3.6894 0.0
C371 C -0.12324 0.91284 3.46406 0.0
N372 N -0.33885 1.05937 3.78814 0.0
N373 N -0.88415 0.7308 4.70831 0.0
C374 C -0.22497 0.97069 3.92644 0.0
C375 C 0.01109 0.80236 4.41401 0.0
N376 N -0.30236 0.97893 4.84777 0.0
N377 N -0.9133 0.7654 3.20679 0.0
H378 H -0.86935 0.71312 5.24396 0.0
H379 H -0.80981 0.69444 4.44419 0.0
H380 H -0.92186 0.7803 2.67115 0.0
H381 H -0.826 0.69804 3.31665 0.0
H382 H -0.38607 1.03365 4.61436 0.0
H383 H -0.29419 0.95322 5.25964 0.0
H384 H -0.41185 1.1062 4.1696 0.0
H385 H -0.35884 1.08851 3.33132 0.0
C386 C -2.04976 1.69303 3.69263 0.0
C387 C -1.10503 1.69775 3.64034 0.0
C388 C -1.12079 1.70355 4.96221 0.0
C389 C -2.04893 1.68379 5.0229 0.0
N390 N -1.97064 1.69046 4.48025 0.0
N391 N -1.16665 1.67909 4.22521 0.0
C392 C -2.01978 1.68728 4.39645 0.0
C393 C -1.13495 1.69605 4.274 0.0
N394 N -2.01605 1.68993 3.06729 0.0
N395 N 0.8832 0.01232 5.56942 0.0
H396 H -1.16952 1.66638 3.7298 0.0
H397 H -1.17114 1.66401 4.67892 0.0
H398 H 0.88778 0.02256 6.08095 0.0
H399 H 0.81923 0.03295 5.54579 0.0
H400 H -1.96321 1.67956 3.04802 0.0
H401 H -2.03637 1.69335 2.55088 0.0
H402 H -1.9467 1.69312 4.0541 0.0
H403 H -1.96547 1.70017 4.9902 0.0
C404 C 0.44662 0.03684 4.39781 0.0
C405 C -1.52102 1.70305 4.81157 0.0
C406 C -1.37325 1.58479 3.82501 0.0
C407 C -1.46983 1.63542 3.41195 0.0
N408 N 0.38053 0.05713 3.23478 0.0
N409 N -1.30548 1.5675 4.93787 0.0
C410 C 0.47219 0.00456 3.68079 0.0
C411 C -1.39879 1.61818 4.52858 0.0
N412 N 0.33124 0.11326 4.70724 0.0
N413 N -1.25662 1.50632 3.53488 0.0
H414 H -1.31554 1.5938 5.37203 0.0
H415 H -1.21676 1.49812 4.85098 0.0
H416 H -1.22776 1.47127 3.07302 0.0
H417 H -1.18752 1.47693 3.73595 0.0
H418 H 0.25837 0.14899 4.4668 0.0
H419 H 0.30879 0.13773 5.23803 0.0
H420 H 0.2897 0.12429 3.35901 0.0
H421 H 0.39559 0.03612 2.70598 0.0
C422 C -0.58333 0.94653 3.73599 0.0
C423 C -0.51585 0.86999 3.40585 0.0
C424 C -0.5503 0.85515 4.52785 0.0
C425 C -0.63213 0.93904 4.80433 0.0
N426 N -0.74613 1.07413 4.58283 0.0
N427 N -0.44402 0.75553 3.46185 0.0
C428 C -0.65406 0.98733 4.38486 0.0
C429 C -0.50117 0.82498 3.79616 0.0
N430 N -0.57623 0.97855 3.45509 0.0
N431 N -0.51645 0.80299 4.97103 0.0
H432 H -0.40808 0.73219 2.92538 0.0
H433 H -0.44122 0.72609 3.69419 0.0
H434 H -0.54986 0.82272 5.51071 0.0
H435 H -0.4474 0.73704 4.82625 0.0
H436 H -0.61235 1.02713 3.73084 0.0
H437 H -0.52329 0.95043 2.99297 0.0
H438 H -0.77368 1.11478 4.24412 0.0
H439 H -0.8034 1.10896 5.04371 0.0
C440 C -0.06332 0.85236 12.7177 0.0
C441 C -1.1213 0.92472 12.80484 0.0
C442 C -1.12664 0.92166 14.13464 0.0
C443 C -0.05919 0.84422 14.04477 0.0
N444 N 0.05722 0.72196 13.25465 0.0
N445 N -1.18715 1.02266 13.58057 0.0
C446 C -0.02356 0.80613 13.33725 0.0
C447 C -1.14825 0.95882 13.50967 0.0
N448 N -0.04984 0.82686 12.0377 0.0
N449 N -1.16296 0.95884 14.81818 0.0
H450 H -1.20853 1.054 13.13696 0.0
H451 H -1.1924 1.04146 14.07297 0.0
H452 H -1.14179 0.92998 15.28933 0.0
H453 H -1.21946 1.02063 14.91936 0.0
H454 H -0.0222 0.77961 11.94549 0.0
H455 H -0.07752 0.85941 11.57147 0.0
H456 H 0.09681 0.68656 12.75308 0.0
H457 H 0.09604 0.68297 13.69429 0.0
C458 C -2.09937 1.76118 13.43971 0.0
C459 C -2.14153 1.77202 14.10148 0.0
C460 C 0.81112 0.08687 13.40338 0.0
C461 C 0.8525 0.07806 12.74945 0.0
N462 N -2.04954 1.71688 12.16254 0.0
N463 N 0.8246 0.07195 14.72171 0.0
C464 C -2.12036 1.75646 12.77552 0.0
C465 C 0.85416 0.07118 14.08594 0.0
N466 N -2.04818 1.76292 13.43371 0.0
N467 N 0.73208 0.10945 13.37057 0.0
H468 H -1.21141 1.77967 15.22586 0.0
H469 H 0.77793 0.07693 14.75021 0.0
H470 H 0.71688 0.10518 12.88253 0.0
H471 H 0.68469 0.12959 13.82298 0.0
H472 H -2.03097 1.76679 12.95192 0.0
H473 H -2.0395 1.77337 13.90592 0.0
H474 H -1.97373 1.68417 12.16878 0.0
H475 H -2.05856 1.70748 11.67596 0.0
C476 C -1.63848 1.75172 14.04722 0.0
C477 C 0.30901 0.10802 14.39618 0.0
C478 C 0.23759 0.12484 13.28722 0.0
C479 C -1.71013 1.76901 12.92996 0.0
N480 N -1.50036 1.64711 12.99721 0.0
N481 N 0.11417 0.20458 14.39959 0.0
C482 C -1.61439 1.72123 13.32151 0.0
C483 C 0.219 0.14655 14.03816 0.0
N484 N -1.55084 1.71193 14.41129 0.0
N485 N 0.14154 0.17624 12.91327 0.0
H486 H 0.08557 0.23067 14.93045 0.0
H487 H 0.05631 0.22291 14.18087 0.0
H488 H 0.14874 0.15584 12.4264 0.0
H489 H 0.05195 0.24204 13.08875 0.0
H490 H -1.46926 1.66685 14.16744 0.0
H491 H -1.56085 1.72556 14.96564 0.0
H492 H -1.42322 1.60139 13.27879 0.0
H493 H -1.48104 1.62888 12.44376 0.0
C494 C -0.62606 0.85532 12.96398 0.0
C495 C -0.56786 0.85286 12.87046 0.0
C496 C -0.64286 0.92298 14.09888 0.0
C497 C -0.68259 0.91083 14.22696 0.0
N498 N -0.70547 0.86005 13.783 0.0
N499 N -0.52265 0.88654 13.32265 0.0
C500 C -0.67299 0.87611 13.66002 0.0
C501 C -0.5779 0.88829 13.42935 0.0
N502 N -0.63267 0.83318 12.41152 0.0
N503 N -0.6672 0.96746 14.6162 0.0
H504 H -0.48178 0.86716 12.82006 0.0
H505 H -0.51374 0.90131 13.73263 0.0
H506 H -0.71094 0.99086 15.12091 0.0
H507 H -0.65124 0.98631 14.53062 0.0
H508 H -0.60117 0.81662 11.87373 0.0
H509 H -0.60117 0.81662 11.87373 0.0
H510 H -0.69821 0.83374 13.37682 0.0
H511 H -0.73101 0.86669 14.29678 0.0
C512 C -0.63089 1.29777 3.6361 0.0
C513 C -0.60845 1.31337 3.13916 0.0
C514 C -1.63083 1.37134 4.09379 0.0
C515 C -1.64599 1.35193 4.63668 0.0
N516 N -0.67702 1.30726 4.86379 0.0
N517 N -1.664 1.41228 2.86309 0.0
C518 C -0.65115 1.31974 4.39363 0.0
C519 C -1.64782 1.37326 3.36514 0.0
N520 N -0.62712 1.25773 3.39585 0.0
N521 N -1.58289 1.37491 4.22952 0.0
H522 H -1.66383 1.40541 2.30696 0.0
H523 H -1.68437 1.45464 3.01876 0.0
H524 H -1.54345 1.35611 4.71468 0.0
H525 H -1.54345 1.35611 4.71468 0.0
H526 H -0.61161 1.24009 2.84484 0.0
H527 H -0.61161 1.24009 2.84484 0.0
H528 H -0.68371 1.28294 4.68271 0.0
H529 H -0.69348 1.32178 5.42217 0.0
C530 C 0.64163 0.07692 4.00384 0.0
C531 C 0.73157 -0.00075 3.52999 0.0
C532 C -1.24122 1.62687 4.60135 0.0
C533 C -1.32401 1.70447 5.0533 0.0
N534 N 0.6026 0.13374 5.17593 0.0
N535 N -1.16351 1.55845 3.36802 0.0
C536 C 0.66282 0.06639 4.74417 0.0
C537 C -1.243 1.63178 3.82431 0.0
N538 N 0.5357 0.16084 3.74112 0.0
N539 N -1.16377 1.55017 4.92087 0.0
H540 H -1.17443 1.56351 2.80963 0.0
H541 H -1.08982 1.49343 3.54077 0.0
H542 H -1.15861 1.5457 5.48656 0.0
H543 H -1.10608 1.49209 4.63715 0.0
H544 H 0.46437 0.21957 4.07756 0.0
H545 H 0.51571 0.16992 3.19747 0.0
H546 H 0.5493 0.19134 4.96498 0.0
H547 H 0.61669 0.12654 5.73319 0.0
C548 C -1.03507 1.29798 4.66216 0.0
C549 C -1.09336 1.30764 5.08918 0.0
C550 C -1.15312 1.31399 4.01122 0.0
C551 C -1.09925 1.30721 3.55969 0.0
N552 N -0.98578 1.29119 3.45113 0.0
N553 N -1.23893 1.35352 5.18672 0.0
C554 C -1.03898 1.29878 3.88315 0.0
C555 C -1.16691 1.32927 4.76278 0.0
N556 N -0.9735 1.28525 5.00799 0.0
N557 N -1.19136 1.30511 3.73325 0.0
H558 H -1.24866 1.36381 5.75245 0.0
H559 H -1.29196 1.36722 4.96567 0.0
H560 H -1.17695 1.2873 3.18614 0.0
H561 H -1.17695 1.2873 3.18614 0.0
H562 H -0.9212 1.27156 4.74475 0.0
H563 H -0.97603 1.28899 5.57624 0.0
H564 H -0.94741 1.29086 3.64743 0.0
H565 H -0.97929 1.28471 2.88487 0.0
C566 C -0.22476 0.78641 3.8977 0.0
C567 C -0.30606 0.85853 3.43322 0.0
C568 C -0.40991 0.95638 4.53594 0.0
C569 C -0.33179 0.88205 4.96341 0.0
N570 N -0.22493 0.7502 5.00715 0.0
N571 N -0.48782 1.01906 3.33117 0.0
C572 C -0.26337 0.8067 4.62183 0.0
C573 C -0.40345 0.94663 3.75549 0.0
N574 N -0.11276 0.69914 3.6442 0.0
N575 N -0.48936 1.03487 4.88035 0.0
H576 H -0.48068 1.01273 2.76414 0.0
H577 H -0.56565 1.08525 3.5421 0.0
H578 H -0.49585 1.04146 5.44905 0.0
H579 H -0.54584 1.09138 4.60965 0.0
H580 H -0.05111 0.64546 3.98751 0.0
H581 H -0.07991 0.68285 3.11125 0.0
H582 H -0.1802 0.69681 4.74549 0.0
H583 H -0.24936 0.76366 5.56197 0.0
C584 C -0.43608 0.36052 13.52984 0.0
C585 C -0.50821 0.42862 13.03226 0.0
C586 C -0.6168 0.53222 14.07005 0.0
C587 C -0.57758 0.47532 14.51253 0.0
N588 N -0.42707 0.32627 14.72413 0.0
N589 N -0.65893 0.5782 12.83001 0.0
C590 C -0.47715 0.38561 14.26712 0.0
C591 C -0.59343 0.51362 13.30339 0.0
N592 N -0.33425 0.27284 13.29875 0.0
N593 N -0.68583 0.60764 14.38089 0.0
H594 H -0.64081 0.56412 12.26653 0.0
H595 H -0.73241 0.64502 12.99553 0.0
H596 H -0.70376 0.62085 14.94526 0.0
H597 H -0.71473 0.65103 14.09229 0.0
H598 H -0.29783 0.25019 12.76436 0.0
H599 H -0.29783 0.25019 12.76436 0.0
H600 H -0.35593 0.26012 14.55224 0.0
H601 H -0.45806 0.3449 15.27019 0.0
C602 C -1.84724 1.69818 12.99958 0.0
C603 C 0.14577 0.05624 12.65999 0.0
C604 C 0.04252 0.14033 13.84632 0.0
C605 C -1.93005 1.77407 14.1845 0.0
N606 N -1.72975 1.61128 14.04421 0.0
N607 N -0.02056 0.2126 12.7236 0.0
C608 C -1.83348 1.69304 13.74542 0.0
C609 C 0.05369 0.13825 13.07254 0.0
N610 N -1.78748 1.62996 12.59848 0.0
N611 N -0.05346 0.21977 14.25222 0.0
H612 H -0.01667 0.21209 12.15591 0.0
H613 H -0.08289 0.27299 12.99102 0.0
H614 H -0.05799 0.22316 14.81933 0.0
H615 H -0.12892 0.28257 14.02601 0.0
H616 H -1.74273 1.57717 12.84484 0.0
H617 H -1.79557 1.63307 12.03506 0.0
H618 H -1.65589 1.55085 13.72848 0.0
H619 H -1.71472 1.60582 14.5944 0.0
C620 C -0.23339 0.54697 13.77319 0.0
C621 C -0.11502 0.4624 14.01326 0.0
C622 C -0.03922 0.3977 12.75672 0.0
C623 C -0.15337 0.48369 12.50779 0.0
N624 N -0.36895 0.62969 12.78858 0.0
N625 N 0.09347 0.30448 13.71074 0.0
C626 C -0.25414 0.55544 13.01786 0.0
C627 C -0.02025 0.38715 13.5037 0.0
N628 N -0.32372 0.62011 14.25429 0.0
N629 N 0.05455 0.32562 12.26988 0.0
H630 H 0.11637 0.29019 14.25112 0.0
H631 H 0.11637 0.29019 14.25112 0.0
H632 H 0.04297 0.33044 11.71125 0.0
H633 H 0.14209 0.26115 12.42824 0.0
H634 H -0.40805 0.6859 14.0945 0.0
H635 H -0.31116 0.61478 14.81144 0.0
H636 H -0.44418 0.67799 13.15151 0.0
H637 H -0.38751 0.63618 12.24916 0.0
C638 C -1.03533 1.01197 14.20569 0.0
C639 C -0.92484 0.92957 14.513 0.0
C640 C -0.83594 0.85523 13.28429 0.0
C641 C -0.94183 0.94221 12.98269 0.0
N642 N -1.12093 1.10257 13.23344 0.0
N643 N -0.71868 0.76999 14.36661 0.0
C644 C -1.03421 1.01991 13.46473 0.0
C645 C -0.82531 0.84969 14.05878 0.0
N646 N -1.13708 1.08632 14.64451 0.0
N647 N -0.74512 0.77855 12.84407 0.0
H648 H -0.71233 0.76514 14.93173 0.0
H649 H -0.63729 0.71048 14.06843 0.0
H650 H -0.73674 0.77724 12.28418 0.0
H651 H -0.6761 0.71527 13.03991 0.0
H652 H -1.21953 1.14964 14.43638 0.0
H653 H -1.13806 1.08186 15.20546 0.0
H654 H -1.12047 1.11339 12.70512 0.0
H655 H -1.12047 1.11339 12.70512 0.0
C656 C -0.29634 1.04025 17.84892 0.0
C657 C -1.08591 0.90258 -0.16252 0.0
C658 C -0.89813 0.73976 -0.40914 0.0
C659 C -0.10868 0.87723 17.60325 0.0
N660 N -0.24712 0.98057 16.64567 0.0
N661 N -0.95303 0.79953 0.8108 0.0
C662 C -0.21946 0.96663 17.35964 0.0
C663 C -0.97663 0.81337 0.08575 0.0
N664 N -0.40791 1.12732 17.65556 0.0
N665 N -0.78601 0.65301 -0.21371 0.0
H666 H -1.01089 0.85135 1.20767 0.0
H667 H -0.88217 0.73733 1.03973 0.0
H668 H -0.90687 0.71712 18.17835 0.0
H669 H -0.7455 0.63611 0.24975 0.0
H670 H -0.44936 1.14555 17.19088 0.0
H671 H -1.46915 1.18272 17.98415 0.0
H672 H -0.31857 1.04244 16.40944 0.0
H673 H -0.19324 0.92892 16.26248 0.0
C674 C -0.21523 0.1646 18.1499 0.0
C675 C -2.17177 1.80029 17.73382 0.0
C676 C -1.17284 1.7378 18.18898 0.0
C677 C 0.95789 -0.01585 -0.13935 0.0
N678 N 0.78239 0.14368 -0.00745 0.0
N679 N -2.03954 1.66159 17.18355 0.0
C680 C 0.9012 0.05877 -0.23286 0.0
C681 C -2.12678 1.73108 17.70219 0.0
N682 N -0.07365 0.10642 -0.46696 0.0
N683 N -0.93765 1.5444 -0.42327 0.0
H684 H -2.00519 1.65671 16.77057 0.0
H685 H -1.00502 1.6137 17.10402 0.0
H686 H -0.97417 1.54647 -0.10369 0.0
H687 H -1.02691 1.59965 18.09473 0.0
H688 H -0.14563 0.16289 -0.10884 0.0
H689 H -0.20142 0.21672 18.036 0.0
H690 H 0.73416 0.20132 -0.10871 0.0
H691 H 0.72855 0.15709 0.20425 0.0
C692 C -1.59569 1.71887 17.91868 0.0
C693 C -1.45883 1.60933 -0.12883 0.0
C694 C 0.40119 0.0562 -0.24491 0.0
C695 C 0.26389 0.16591 17.79989 0.0
N696 N -1.64717 1.78444 16.80297 0.0
N697 N 0.45559 -0.00927 0.88586 0.0
C698 C -1.67937 1.79541 17.50453 0.0
C699 C 0.48559 -0.02017 0.17402 0.0
N700 N -1.47634 1.6358 17.68605 0.0
N701 N 0.28175 0.13889 -0.01322 0.0
H702 H -1.54833 1.65483 1.23475 0.0
H703 H 0.37487 0.05316 1.16102 0.0
H704 H 0.21878 0.19756 -0.28239 0.0
H705 H 0.24306 0.14865 0.41675 0.0
H706 H -1.43642 1.62543 17.2632 0.0
H707 H -1.41426 1.577 17.94723 0.0
H708 H -1.56658 1.72217 16.52594 0.0
H709 H 0.35957 0.12024 16.46204 0.0
C710 C -0.81085 1.04421 18.0203 0.0
C711 C -0.76742 0.97622 17.97647 0.0
C712 C -0.39256 0.74537 -0.36831 0.0
C713 C -0.43512 0.81299 -0.33152 0.0
N714 N -0.75727 1.07661 17.98685 0.0
N715 N -0.4496 0.71571 -0.29011 0.0
C716 C -0.72858 1.01974 18.14036 0.0
C717 C -0.47576 0.77063 -0.47523 0.0
N718 N -0.93202 1.13267 17.99654 0.0
N719 N -0.27166 0.6565 -0.35127 0.0
H720 H -0.51438 0.73701 -0.30145 0.0
H721 H -0.37111 0.65547 -0.03426 0.0
H722 H -0.20643 0.63474 -0.38645 0.0
H723 H -0.23585 0.6045 -0.41543 0.0
H724 H -0.96982 1.18563 18.07637 0.0
H725 H -0.99565 1.15283 17.99999 0.0
H726 H -0.83703 1.13794 17.74739 0.0
H727 H -0.69387 1.05658 18.01322 0.0
C728 C -1.05945 1.66681 9.08109 0.0
C729 C -2.03393 1.66893 8.4658 0.0
C730 C -0.14825 0.11324 8.71183 0.0
C731 C 0.82384 0.1123 9.31623 0.0
N732 N -1.20108 1.74812 10.10009 0.0
N733 N -0.03017 0.03958 7.57516 0.0
C734 C -1.16829 1.74816 9.50196 0.0
C735 C -0.04754 0.03465 8.24904 0.0
N736 N -0.98196 1.58617 9.28066 0.0
N737 N -0.212 0.18915 8.58077 0.0
H738 H -2.02721 1.70255 7.1906 0.0
H739 H -0.0904 0.09955 7.35972 0.0
H740 H -0.29245 0.25061 8.87024 0.0
H741 H -0.18111 0.1898 8.21555 0.0
H742 H -0.99375 1.57731 9.74821 0.0
H743 H -0.90047 1.52531 8.99138 0.0
H744 H -1.16424 1.69636 10.20925 0.0
H745 H 0.79735 0.08355 10.49853 0.0
C746 C -1.5326 1.67451 8.275 0.0
C747 C -1.57881 1.74267 8.49553 0.0
C748 C 0.34321 0.09165 9.38939 0.0
C749 C -1.67244 1.73895 9.18319 0.0
N750 N -1.55301 1.6178 8.36557 0.0
N751 N 0.36504 0.14731 9.31635 0.0
C752 C -1.5839 1.67521 8.60635 0.0
C753 C 0.39563 0.09021 9.06709 0.0
N754 N -1.43932 1.60897 7.7563 0.0
N755 N 0.24676 0.15925 9.88625 0.0
H756 H 0.40582 0.14507 9.09887 0.0
H757 H 0.30817 0.19115 9.77421 0.0
H758 H 0.20471 0.16364 10.13861 0.0
H759 H 0.20037 0.21615 10.0079 0.0
H760 H -1.39419 1.55289 7.61947 0.0
H761 H -1.39985 1.60625 7.48732 0.0
H762 H -1.49551 1.57315 7.91249 0.0
H763 H -1.59377 1.62019 8.59083 0.0
C764 C -0.46882 0.80213 8.64979 0.0
C765 C -0.5016 0.80464 9.30594 0.0
C766 C -0.71633 0.96035 9.14857 0.0
C767 C -0.68412 0.95751 8.48478 0.0
N768 N -0.53378 0.87544 7.54506 0.0
N769 N -0.65327 0.87696 10.12465 0.0
C770 C -0.56128 0.87839 8.21899 0.0
C771 C -0.62459 0.88084 9.53622 0.0
N772 N -0.34888 0.72685 8.44925 0.0
N773 N -0.83421 1.0401 9.41641 0.0
H774 H -0.58842 0.81979 10.42469 0.0
H775 H -0.74117 0.92738 10.28068 0.0
H776 H -0.90277 1.09978 9.14389 0.0
H777 H -0.86271 1.0494 9.93244 0.0
H778 H -0.31699 0.72323 8.02421 0.0
H779 H -0.27982 0.66747 8.72776 0.0
H780 H -0.44806 0.81717 7.28297 0.0
H781 H -0.59806 0.93105 7.22475 0.0
C782 C -0.15128 0.92807 8.27029 0.0
C783 C -0.11054 0.86372 8.49824 0.0
C784 C -1.0017 0.81718 9.45333 0.0
C785 C -1.04233 0.88143 9.22084 0.0
N786 N -1.13318 0.9822 8.33164 0.0
N787 N -0.0106 0.75647 9.34384 0.0
C788 C -1.11269 0.9322 8.60534 0.0
C789 C -0.03661 0.8104 9.099 0.0
N790 N -0.23401 0.98635 7.74401 0.0
N791 N -0.92404 0.7627 10.00754 0.0
H792 H -0.04418 0.75375 9.10527 0.0
H793 H 0.03593 0.71951 9.80836 0.0
H794 H -0.89065 0.76445 10.2768 0.0
H795 H -0.88463 0.71059 10.17528 0.0
H796 H -1.28324 1.04123 7.61782 0.0
H797 H -0.26855 0.98573 7.46934 0.0
H798 H -1.17415 1.01473 7.84372 0.0
H799 H -1.09788 0.98375 8.56119 0.0
loop_
_geom_bond_atom_site_label_1
_geom_bond_atom_site_label_2
_geom_bond_distance
_geom_bond_site_symmetry_2
_ccdc_geom_bond_type
C0 O1 1.306 . S
C0 O3 1.160 . S
O1 C0 1.306 . S
O1 Cd2 2.228 . S
Cd2 O1 2.228 . S
Cd2 O6 2.273 . S
Cd2 O10 2.277 . S
O3 C0 1.160 . S
O3 Cd4 2.203 . S
Cd4 O3 2.203 . S
Cd4 O6 2.411 . S
Cd4 O7 2.333 1_455 S
Cd4 O8 2.352 . S
Cd4 O12 2.277 1_455 S
Cd4 O13 2.356 1_455 S
C5 O10 1.209 . S
C5 O12 1.226 1_455 S
O6 Cd2 2.273 . S
O6 Cd4 2.411 . S
O6 C9 1.304 1_455 S
O7 Cd4 2.333 1_655 S
O7 C9 1.225 . S
O8 Cd4 2.352 . S
O8 C11 1.258 . S
C9 O6 1.304 1_655 S
C9 O7 1.225 . S
O10 Cd2 2.277 . S
O10 C5 1.209 . S
C11 O8 1.258 . S
C11 O13 1.282 1_455 S
O12 Cd4 2.277 1_655 S
O12 C5 1.226 1_655 S
O13 Cd4 2.356 1_655 S
O13 C11 1.282 1_655 S
C14 O15 1.306 . S
C14 O17 1.160 . S
O15 C14 1.306 . S
O15 Cd16 2.228 . S
Cd16 O15 2.228 . S
Cd16 O20 2.273 . S
Cd16 O24 2.277 . S
O17 C14 1.160 . S
O17 Cd18 2.203 . S
Cd18 O17 2.203 . S
Cd18 O20 2.411 . S
Cd18 O21 2.333 1_545 S
Cd18 O22 2.352 . S
Cd18 O26 2.277 1_545 S
Cd18 O27 2.356 1_545 S
C19 O24 1.209 . S
C19 O26 1.226 1_545 S
O20 Cd16 2.273 . S
O20 Cd18 2.411 . S
O20 C23 1.304 1_545 S
O21 Cd18 2.333 1_565 S
O21 C23 1.225 . S
O22 Cd18 2.352 . S
O22 C25 1.258 . S
C23 O20 1.304 1_565 S
C23 O21 1.225 . S
O24 Cd16 2.277 . S
O24 C19 1.209 . S
C25 O22 1.258 . S
C25 O27 1.282 1_545 S
O26 Cd18 2.277 1_565 S
O26 C19 1.226 1_565 S
O27 Cd18 2.356 1_565 S
O27 C25 1.282 1_565 S
C28 O29 1.306 . S
C28 O31 1.160 . S
O29 C28 1.306 . S
O29 Cd30 2.228 . S
Cd30 O29 2.228 . S
Cd30 O34 2.273 . S
Cd30 O38 2.277 . S
O31 C28 1.160 . S
O31 Cd32 2.203 . S
Cd32 O31 2.203 . S
Cd32 O34 2.411 . S
Cd32 O35 2.333 . S
Cd32 O36 2.352 . S
Cd32 O40 2.277 . S
Cd32 O41 2.356 . S
C33 O38 1.209 . S
C33 O40 1.226 . S
O34 Cd30 2.273 . S
O34 Cd32 2.411 . S
O34 C37 1.320 . S
O35 Cd32 2.333 . S
O35 C37 1.214 . S
O36 Cd32 2.352 . S
O36 C39 1.258 . S
C37 O34 1.320 . S
C37 O35 1.214 . S
O38 Cd30 2.277 . S
O38 C33 1.209 . S
C39 O36 1.258 . S
C39 O41 1.282 . S
O40 Cd32 2.277 . S
O40 C33 1.226 . S
O41 Cd32 2.356 . S
O41 C39 1.282 . S
C42 O43 1.306 . S
C42 O45 1.160 . S
O43 C42 1.306 . S
O43 Cd44 2.228 . S
Cd44 O43 2.228 . S
Cd44 O48 2.273 . S
Cd44 O52 2.277 . S
O45 C42 1.160 . S
O45 Cd46 2.203 . S
Cd46 O45 2.203 . S
Cd46 O48 2.411 . S
Cd46 O49 2.333 . S
Cd46 O50 2.352 . S
Cd46 O54 2.277 . S
Cd46 O55 2.356 . S
C47 O52 1.209 . S
C47 O54 1.226 . S
O48 Cd44 2.273 . S
O48 Cd46 2.411 . S
O48 C51 1.320 . S
O49 Cd46 2.333 . S
O49 C51 1.214 . S
O50 Cd46 2.352 . S
O50 C53 1.258 . S
C51 O48 1.320 . S
C51 O49 1.214 . S
O52 Cd44 2.277 . S
O52 C47 1.209 . S
C53 O50 1.258 . S
C53 O55 1.282 . S
O54 Cd46 2.277 . S
O54 C47 1.226 . S
O55 Cd46 2.356 . S
O55 C53 1.282 . S
C56 O57 1.306 . S
C56 O59 1.160 . S
O57 C56 1.306 . S
O57 Cd58 2.228 . S
Cd58 O57 2.228 . S
Cd58 O62 2.273 . S
Cd58 O66 2.277 . S
O59 C56 1.160 . S
O59 Cd60 2.203 . S
Cd60 O59 2.203 . S
Cd60 O62 2.411 . S
Cd60 O63 2.333 1_455 S
Cd60 O64 2.352 . S
Cd60 O68 2.277 1_455 S
Cd60 O69 2.356 1_455 S
C61 O66 1.209 . S
C61 O68 1.226 1_455 S
O62 Cd58 2.273 . S
O62 Cd60 2.411 . S
O62 C65 1.304 1_455 S
O63 Cd60 2.333 1_655 S
O63 C65 1.225 . S
O64 Cd60 2.352 . S
O64 C67 1.258 . S
C65 O62 1.304 1_655 S
C65 O63 1.225 . S
O66 Cd58 2.277 . S
O66 C61 1.209 . S
C67 O64 1.258 . S
C67 O69 1.282 1_455 S
O68 Cd60 2.277 1_655 S
O68 C61 1.226 1_655 S
O69 Cd60 2.356 1_655 S
O69 C67 1.282 1_655 S
C70 O71 1.306 . S
C70 O73 1.160 . S
O71 C70 1.306 . S
O71 Cd72 2.228 . S
Cd72 O71 2.228 . S
Cd72 O76 2.273 . S
Cd72 O80 2.277 . S
O73 C70 1.160 . S
O73 Cd74 2.203 . S
Cd74 O73 2.203 . S
Cd74 O76 2.411 . S
Cd74 O77 2.333 1_545 S
Cd74 O78 2.352 . S
Cd74 O82 2.277 1_545 S
Cd74 O83 2.356 1_545 S
C75 O80 1.209 . S
C75 O82 1.226 1_545 S
O76 Cd72 2.273 . S
O76 Cd74 2.411 . S
O76 C79 1.304 1_545 S
O77 Cd74 2.333 1_565 S
O77 C79 1.225 . S
O78 Cd74 2.352 . S
O78 C81 1.258 . S
C79 O76 1.304 1_565 S
C79 O77 1.225 . S
O80 Cd72 2.277 . S
O80 C75 1.209 . S
C81 O78 1.258 . S
C81 O83 1.282 1_545 S
O82 Cd74 2.277 1_565 S
O82 C75 1.226 1_565 S
O83 Cd74 2.356 1_565 S
O83 C81 1.282 1_565 S
C84 O85 1.306 . S
C84 O87 1.160 . S
O85 C84 1.306 . S
O85 Cd86 2.228 . S
Cd86 O85 2.228 . S
Cd86 O90 2.273 . S
Cd86 O94 2.277 . S
O87 C84 1.160 . S
O87 Cd88 2.203 . S
Cd88 O87 2.203 . S
Cd88 O90 2.411 . S
Cd88 O91 2.333 . S
Cd88 O92 2.352 . S
Cd88 O96 2.277 . S
Cd88 O97 2.356 . S
C89 O94 1.209 . S
C89 O96 1.226 . S
O90 Cd86 2.273 . S
O90 Cd88 2.411 . S
O90 C93 1.320 . S
O91 Cd88 2.333 . S
O91 C93 1.214 . S
O92 Cd88 2.352 . S
O92 C95 1.258 . S
C93 O90 1.320 . S
C93 O91 1.214 . S
O94 Cd86 2.277 . S
O94 C89 1.209 . S
C95 O92 1.258 . S
C95 O97 1.282 . S
O96 Cd88 2.277 . S
O96 C89 1.226 . S
O97 Cd88 2.356 . S
O97 C95 1.282 . S
C98 O99 1.306 . S
C98 O101 1.160 . S
O99 C98 1.306 . S
O99 Cd100 2.228 . S
Cd100 O99 2.228 . S
Cd100 O104 2.273 . S
Cd100 O108 2.277 . S
O101 C98 1.160 . S
O101 Cd102 2.203 . S
Cd102 O101 2.203 . S
Cd102 O104 2.411 . S
Cd102 O105 2.333 . S
Cd102 O106 2.352 . S
Cd102 O110 2.277 . S
Cd102 O111 2.356 . S
C103 O108 1.209 . S
C103 O110 1.226 . S
O104 Cd100 2.273 . S
O104 Cd102 2.411 . S
O104 C107 1.320 . S
O105 Cd102 2.333 . S
O105 C107 1.214 . S
O106 Cd102 2.352 . S
O106 C109 1.258 . S
C107 O104 1.320 . S
C107 O105 1.214 . S
O108 Cd100 2.277 . S
O108 C103 1.209 . S
C109 O106 1.258 . S
C109 O111 1.282 . S
O110 Cd102 2.277 . S
O110 C103 1.226 . S
O111 Cd102 2.356 . S
O111 C109 1.282 . S
C112 O113 1.306 . S
C112 O115 1.160 . S
O113 C112 1.306 . S
O113 Cd114 2.228 . S
Cd114 O113 2.228 . S
Cd114 O118 2.273 . S
Cd114 O122 2.277 . S
O115 C112 1.160 . S
O115 Cd116 2.203 . S
Cd116 O115 2.203 . S
Cd116 O118 2.411 . S
Cd116 O119 2.333 1_655 S
Cd116 O120 2.352 . S
Cd116 O124 2.277 1_655 S
Cd116 O125 2.356 1_655 S
C117 O122 1.209 . S
C117 O124 1.226 1_655 S
O118 Cd114 2.273 . S
O118 Cd116 2.411 . S
O118 C121 1.304 1_655 S
O119 Cd116 2.333 1_455 S
O119 C121 1.225 . S
O120 Cd116 2.352 . S
O120 C123 1.258 . S
C121 O118 1.304 1_455 S
C121 O119 1.225 . S
O122 Cd114 2.277 . S
O122 C117 1.209 . S
C123 O120 1.258 . S
C123 O125 1.282 1_655 S
O124 Cd116 2.277 1_455 S
O124 C117 1.226 1_455 S
O125 Cd116 2.356 1_455 S
O125 C123 1.282 1_455 S
C126 O127 1.306 . S
C126 O129 1.160 . S
O127 C126 1.306 . S
O127 Cd128 2.228 . S
Cd128 O127 2.228 . S
Cd128 O132 2.273 . S
Cd128 O136 2.277 . S
O129 C126 1.160 . S
O129 Cd130 2.203 . S
Cd130 O129 2.203 . S
Cd130 O132 2.411 . S
Cd130 O133 2.333 1_565 S
Cd130 O134 2.352 . S
Cd130 O138 2.277 1_565 S
Cd130 O139 2.356 1_565 S
C131 O136 1.209 . S
C131 O138 1.226 1_565 S
O132 Cd128 2.273 . S
O132 Cd130 2.411 . S
O132 C135 1.304 1_565 S
O133 Cd130 2.333 1_545 S
O133 C135 1.225 . S
O134 Cd130 2.352 . S
O134 C137 1.258 . S
C135 O132 1.304 1_545 S
C135 O133 1.225 . S
O136 Cd128 2.277 . S
O136 C131 1.209 . S
C137 O134 1.258 . S
C137 O139 1.282 1_565 S
O138 Cd130 2.277 1_545 S
O138 C131 1.226 1_545 S
O139 Cd130 2.356 1_545 S
O139 C137 1.282 1_545 S
C140 O141 1.306 . S
C140 O143 1.160 . S
O141 C140 1.306 . S
O141 Cd142 2.228 . S
Cd142 O141 2.228 . S
Cd142 O146 2.273 . S
Cd142 O150 2.277 . S
O143 C140 1.160 . S
O143 Cd144 2.203 . S
Cd144 O143 2.203 . S
Cd144 O146 2.411 . S
Cd144 O147 2.333 . S
Cd144 O148 2.352 . S
Cd144 O152 2.277 . S
Cd144 O153 2.356 . S
C145 O150 1.209 . S
C145 O152 1.226 . S
O146 Cd142 2.273 . S
O146 Cd144 2.411 . S
O146 C149 1.320 . S
O147 Cd144 2.333 . S
O147 C149 1.214 . S
O148 Cd144 2.352 . S
O148 C151 1.258 . S
C149 O146 1.320 . S
C149 O147 1.214 . S
O150 Cd142 2.277 . S
O150 C145 1.209 . S
C151 O148 1.258 . S
C151 O153 1.282 . S
O152 Cd144 2.277 . S
O152 C145 1.226 . S
O153 Cd144 2.356 . S
O153 C151 1.282 . S
C154 O155 1.306 . S
C154 O157 1.160 . S
O155 C154 1.306 . S
O155 Cd156 2.228 . S
Cd156 O155 2.228 . S
Cd156 O160 2.273 . S
Cd156 O164 2.277 . S
O157 C154 1.160 . S
O157 Cd158 2.203 . S
Cd158 O157 2.203 . S
Cd158 O160 2.411 . S
Cd158 O161 2.333 . S
Cd158 O162 2.352 . S
Cd158 O166 2.277 . S
Cd158 O167 2.356 . S
C159 O164 1.209 . S
C159 O166 1.226 . S
O160 Cd156 2.273 . S
O160 Cd158 2.411 . S
O160 C163 1.320 . S
O161 Cd158 2.333 . S
O161 C163 1.214 . S
O162 Cd158 2.352 . S
O162 C165 1.258 . S
C163 O160 1.320 . S
C163 O161 1.214 . S
O164 Cd156 2.277 . S
O164 C159 1.209 . S
C165 O162 1.258 . S
C165 O167 1.282 . S
O166 Cd158 2.277 . S
O166 C159 1.226 . S
O167 Cd158 2.356 . S
O167 C165 1.282 . S
C168 O169 1.306 . S
C168 O171 1.160 . S
O169 C168 1.306 . S
O169 Cd170 2.228 . S
Cd170 O169 2.228 . S
Cd170 O174 2.273 . S
Cd170 O178 2.277 . S
O171 C168 1.160 . S
O171 Cd172 2.203 . S
Cd172 O171 2.203 . S
Cd172 O174 2.411 . S
Cd172 O175 2.333 1_655 S
Cd172 O176 2.352 . S
Cd172 O180 2.277 1_655 S
Cd172 O181 2.356 1_655 S
C173 O178 1.209 . S
C173 O180 1.226 1_655 S
O174 Cd170 2.273 . S
O174 Cd172 2.411 . S
O174 C177 1.304 1_655 S
O175 Cd172 2.333 1_455 S
O175 C177 1.225 . S
O176 Cd172 2.352 . S
O176 C179 1.258 . S
C177 O174 1.304 1_455 S
C177 O175 1.225 . S
O178 Cd170 2.277 . S
O178 C173 1.209 . S
C179 O176 1.258 . S
C179 O181 1.282 1_655 S
O180 Cd172 2.277 1_455 S
O180 C173 1.226 1_455 S
O181 Cd172 2.356 1_455 S
O181 C179 1.282 1_455 S
C182 O183 1.306 . S
C182 O185 1.160 . S
O183 C182 1.306 . S
O183 Cd184 2.228 . S
Cd184 O183 2.228 . S
Cd184 O188 2.273 . S
Cd184 O192 2.277 . S
O185 C182 1.160 . S
O185 Cd186 2.203 . S
Cd186 O185 2.203 . S
Cd186 O188 2.411 . S
Cd186 O189 2.333 1_565 S
Cd186 O190 2.352 . S
Cd186 O194 2.277 1_565 S
Cd186 O195 2.356 1_565 S
C187 O192 1.209 . S
C187 O194 1.226 1_565 S
O188 Cd184 2.273 . S
O188 Cd186 2.411 . S
O188 C191 1.304 1_565 S
O189 Cd186 2.333 1_545 S
O189 C191 1.225 . S
O190 Cd186 2.352 . S
O190 C193 1.258 . S
C191 O188 1.304 1_545 S
C191 O189 1.225 . S
O192 Cd184 2.277 . S
O192 C187 1.209 . S
C193 O190 1.258 . S
C193 O195 1.282 1_565 S
O194 Cd186 2.277 1_545 S
O194 C187 1.226 1_545 S
O195 Cd186 2.356 1_545 S
O195 C193 1.282 1_545 S
C196 O197 1.306 . S
C196 O199 1.160 . S
O197 C196 1.306 . S
O197 Cd198 2.228 . S
Cd198 O197 2.228 . S
Cd198 O202 2.273 . S
Cd198 O206 2.277 . S
O199 C196 1.160 . S
O199 Cd200 2.203 . S
Cd200 O199 2.203 . S
Cd200 O202 2.411 . S
Cd200 O203 2.333 . S
Cd200 O204 2.352 . S
Cd200 O208 2.277 . S
Cd200 O209 2.356 . S
C201 O206 1.209 . S
C201 O208 1.226 . S
O202 Cd198 2.273 . S
O202 Cd200 2.411 . S
O202 C205 1.320 . S
O203 Cd200 2.333 . S
O203 C205 1.214 . S
O204 Cd200 2.352 . S
O204 C207 1.258 . S
C205 O202 1.320 . S
C205 O203 1.214 . S
O206 Cd198 2.277 . S
O206 C201 1.209 . S
C207 O204 1.258 . S
C207 O209 1.282 . S
O208 Cd200 2.277 . S
O208 C201 1.226 . S
O209 Cd200 2.356 . S
O209 C207 1.282 . S
C210 O211 1.306 . S
C210 O213 1.160 . S
O211 C210 1.306 . S
O211 Cd212 2.228 . S
Cd212 O211 2.228 . S
Cd212 O216 2.273 . S
Cd212 O220 2.277 . S
O213 C210 1.160 . S
O213 Cd214 2.203 . S
Cd214 O213 2.203 . S
Cd214 O216 2.411 . S
Cd214 O217 2.333 . S
Cd214 O218 2.352 . S
Cd214 O222 2.277 . S
Cd214 O223 2.356 . S
C215 O220 1.209 . S
C215 O222 1.226 . S
O216 Cd212 2.273 . S
O216 Cd214 2.411 . S
O216 C219 1.320 . S
O217 Cd214 2.333 . S
O217 C219 1.214 . S
O218 Cd214 2.352 . S
O218 C221 1.258 . S
C219 O216 1.320 . S
C219 O217 1.214 . S
O220 Cd212 2.277 . S
O220 C215 1.209 . S
C221 O218 1.258 . S
C221 O223 1.282 . S
O222 Cd214 2.277 . S
O222 C215 1.226 . S
O223 Cd214 2.356 . S
O223 C221 1.282 . S
C224 C225 1.363 . S
C224 C230 1.379 . S
C224 N232 1.356 . S
C225 C224 1.363 . S
C225 C231 1.363 . S
C226 C227 1.363 . S
C226 C231 1.379 . S
C226 N233 1.356 . S
C227 C226 1.363 . S
C227 C230 1.363 . S
N228 C230 1.356 . S
N228 H240 0.984 . S
N228 H241 0.985 . S
N229 C231 1.356 . S
N229 H234 0.984 . S
N229 H235 0.985 . S
C230 C224 1.379 . S
C230 C227 1.363 . S
C230 N228 1.356 . S
C231 C225 1.363 . S
C231 C226 1.379 . S
C231 N229 1.356 . S
N232 C224 1.356 . S
N232 H238 0.984 . S
N232 H239 0.984 . S
N233 C226 1.356 . S
N233 H236 0.984 . S
N233 H237 0.985 . S
H234 N229 0.984 . S
H235 N229 0.985 . S
H236 N233 0.984 . S
H237 N233 0.985 . S
H238 N232 0.984 . S
H239 N232 0.984 . S
H240 N228 0.984 . S
H241 N228 0.985 . S
C242 C243 1.363 . S
C242 C248 1.379 . S
C242 N250 1.356 . S
C243 C242 1.363 . S
C243 C249 1.363 . S
C244 C245 1.363 . S
C244 C249 1.379 . S
C244 N251 1.356 . S
C245 C244 1.363 . S
C245 C248 1.363 . S
N246 C248 1.356 . S
N246 H258 0.984 . S
N246 H259 0.985 . S
N247 C249 1.356 . S
N247 H252 0.984 . S
N247 H253 0.985 . S
C248 C242 1.379 . S
C248 C245 1.363 . S
C248 N246 1.356 . S
C249 C243 1.363 . S
C249 C244 1.379 . S
C249 N247 1.356 . S
N250 C242 1.356 . S
N250 H256 0.984 . S
N250 H257 0.984 . S
N251 C244 1.356 . S
N251 H254 0.984 . S
N251 H255 0.985 . S
H252 N247 0.984 . S
H253 N247 0.985 . S
H254 N251 0.984 . S
H255 N251 0.985 . S
H256 N250 0.984 . S
H257 N250 0.984 . S
H258 N246 0.984 . S
H259 N246 0.985 . S
C260 C261 1.363 . S
C260 C266 1.379 . S
C260 N268 1.356 . S
C261 C260 1.363 . S
C261 C267 1.363 . S
C262 C263 1.363 . S
C262 C267 1.379 . S
C262 N269 1.356 . S
C263 C262 1.363 . S
C263 C266 1.363 . S
N264 C266 1.356 . S
N264 H276 0.984 . S
N264 H277 0.985 . S
N265 C267 1.356 . S
N265 H270 0.984 . S
N265 H271 0.985 . S
C266 C260 1.379 . S
C266 C263 1.363 . S
C266 N264 1.356 . S
C267 C261 1.363 . S
C267 C262 1.379 . S
C267 N265 1.356 . S
N268 C260 1.356 . S
N268 H274 0.984 . S
N268 H275 0.984 . S
N269 C262 1.356 . S
N269 H272 0.984 . S
N269 H273 0.985 . S
H270 N265 0.984 . S
H271 N265 0.985 . S
H272 N269 0.984 . S
H273 N269 0.985 . S
H274 N268 0.984 . S
H275 N268 0.984 . S
H276 N264 0.984 . S
H277 N264 0.985 . S
C278 C279 1.363 . S
C278 C284 1.379 . S
C278 N286 1.356 . S
C279 C278 1.363 . S
C279 C285 1.363 . S
C280 C281 1.363 . S
C280 C285 1.379 . S
C280 N287 1.356 . S
C281 C280 1.363 . S
C281 C284 1.363 . S
N282 C284 1.356 . S
N282 H294 0.984 . S
N282 H295 0.985 . S
N283 C285 1.356 . S
N283 H288 0.984 . S
N283 H289 0.985 . S
C284 C278 1.379 . S
C284 C281 1.363 . S
C284 N282 1.356 . S
C285 C279 1.363 . S
C285 C280 1.379 . S
C285 N283 1.356 . S
N286 C278 1.356 . S
N286 H292 0.984 . S
N286 H293 0.984 . S
N287 C280 1.356 . S
N287 H290 0.984 . S
N287 H291 0.985 . S
H288 N283 0.984 . S
H289 N283 0.985 . S
H290 N287 0.984 . S
H291 N287 0.985 . S
H292 N286 0.984 . S
H293 N286 0.984 . S
H294 N282 0.984 . S
H295 N282 0.985 . S
C296 C297 1.363 . S
C296 C302 1.379 . S
C296 N304 1.356 . S
C297 C296 1.363 . S
C297 C303 1.363 . S
C298 C299 1.363 . S
C298 C303 1.379 . S
C298 N305 1.356 . S
C299 C298 1.363 . S
C299 C302 1.363 . S
N300 C302 1.356 . S
N300 H312 0.984 . S
N300 H313 0.985 . S
N301 C303 1.356 . S
N301 H306 0.984 . S
N301 H307 0.985 . S
C302 C296 1.379 . S
C302 C299 1.363 . S
C302 N300 1.356 . S
C303 C297 1.363 . S
C303 C298 1.379 . S
C303 N301 1.356 . S
N304 C296 1.356 . S
N304 H310 0.984 . S
N304 H311 0.984 . S
N305 C298 1.356 . S
N305 H308 0.984 . S
N305 H309 0.985 . S
H306 N301 0.984 . S
H307 N301 0.985 . S
H308 N305 0.984 . S
H309 N305 0.985 . S
H310 N304 0.984 . S
H311 N304 0.984 . S
H312 N300 0.984 . S
H313 N300 0.985 . S
C314 C315 1.363 . S
C314 C320 1.379 . S
C314 N322 1.356 . S
C315 C314 1.363 . S
C315 C321 1.363 . S
C316 C317 1.363 . S
C316 C321 1.379 . S
C316 N323 1.356 . S
C317 C316 1.363 . S
C317 C320 1.363 . S
N318 C320 1.356 . S
N318 H330 0.984 . S
N318 H331 0.985 . S
N319 C321 1.356 . S
N319 H324 0.984 . S
N319 H325 0.985 . S
C320 C314 1.379 . S
C320 C317 1.363 . S
C320 N318 1.356 . S
C321 C315 1.363 . S
C321 C316 1.379 . S
C321 N319 1.356 . S
N322 C314 1.356 . S
N322 H328 0.984 . S
N322 H329 0.984 . S
N323 C316 1.356 . S
N323 H326 0.984 . S
N323 H327 0.985 . S
H324 N319 0.984 . S
H325 N319 0.985 . S
H326 N323 0.984 . S
H327 N323 0.985 . S
H328 N322 0.984 . S
H329 N322 0.984 . S
H330 N318 0.984 . S
H331 N318 0.985 . S
C332 C333 1.363 . S
C332 C338 1.379 . S
C332 N340 1.356 . S
C333 C332 1.363 . S
C333 C339 1.363 . S
C334 C335 1.363 . S
C334 C339 1.379 . S
C334 N341 1.356 . S
C335 C334 1.363 . S
C335 C338 1.363 . S
N336 C338 1.356 . S
N336 H348 0.984 . S
N336 H349 0.985 . S
N337 C339 1.356 . S
N337 H342 0.984 . S
N337 H343 0.985 . S
C338 C332 1.379 . S
C338 C335 1.363 . S
C338 N336 1.356 . S
C339 C333 1.363 . S
C339 C334 1.379 . S
C339 N337 1.356 . S
N340 C332 1.356 . S
N340 H346 0.984 . S
N340 H347 0.984 . S
N341 C334 1.356 . S
N341 H344 0.984 . S
N341 H345 0.985 . S
H342 N337 0.984 . S
H343 N337 0.985 . S
H344 N341 0.984 . S
H345 N341 0.985 . S
H346 N340 0.984 . S
H347 N340 0.984 . S
H348 N336 0.984 . S
H349 N336 0.985 . S
C350 C351 1.363 . S
C350 C356 1.379 . S
C350 N358 1.356 . S
C351 C350 1.363 . S
C351 C357 1.363 . S
C352 C353 1.363 . S
C352 C357 1.379 . S
C352 N359 1.356 . S
C353 C352 1.363 . S
C353 C356 1.363 . S
N354 C356 1.356 . S
N354 H366 0.984 . S
N354 H367 0.985 . S
N355 C357 1.356 . S
N355 H360 0.984 . S
N355 H361 0.985 . S
C356 C350 1.379 . S
C356 C353 1.363 . S
C356 N354 1.356 . S
C357 C351 1.363 . S
C357 C352 1.379 . S
C357 N355 1.356 . S
N358 C350 1.356 . S
N358 H364 0.984 . S
N358 H365 0.984 . S
N359 C352 1.356 . S
N359 H362 0.984 . S
N359 H363 0.985 . S
H360 N355 0.984 . S
H361 N355 0.985 . S
H362 N359 0.984 . S
H363 N359 0.985 . S
H364 N358 0.984 . S
H365 N358 0.984 . S
H366 N354 0.984 . S
H367 N354 0.985 . S
C368 C369 1.363 . S
C368 C374 1.379 . S
C368 N376 1.356 . S
C369 C368 1.363 . S
C369 C375 1.363 . S
C370 C371 1.363 . S
C370 C375 1.379 . S
C370 N377 1.356 1_655 S
C371 C370 1.363 . S
C371 C374 1.363 . S
N372 C374 1.356 . S
N372 H384 0.984 . S
N372 H385 0.985 . S
N373 C375 1.356 . S
N373 H378 0.984 . S
N373 H379 0.985 . S
C374 C368 1.379 . S
C374 C371 1.363 . S
C374 N372 1.356 . S
C375 C369 1.363 . S
C375 C370 1.379 . S
C375 N373 1.356 . S
N376 C368 1.356 . S
N376 H382 0.984 . S
N376 H383 0.984 . S
N377 C370 1.356 1_455 S
N377 H380 0.984 . S
N377 H381 0.985 . S
H378 N373 0.984 . S
H379 N373 0.985 . S
H380 N377 0.984 . S
H381 N377 0.985 . S
H382 N376 0.984 . S
H383 N376 0.984 . S
H384 N372 0.984 . S
H385 N372 0.985 . S
C386 C387 1.363 . S
C386 C392 1.379 1_655 S
C386 N394 1.356 1_655 S
C387 C386 1.363 . S
C387 C393 1.363 . S
C388 C389 1.363 . S
C388 C393 1.379 . S
C388 N395 1.356 . S
C389 C388 1.363 . S
C389 C392 1.363 1_655 S
N390 C392 1.356 . S
N390 H402 0.984 . S
N390 H403 0.985 . S
N391 C393 1.356 1_545 S
N391 H396 0.984 . S
N391 H397 0.985 . S
C392 C386 1.379 1_455 S
C392 C389 1.363 1_455 S
C392 N390 1.356 . S
C393 C387 1.363 . S
C393 C388 1.379 . S
C393 N391 1.356 1_565 S
N394 C386 1.356 1_455 S
N394 H400 0.984 . S
N394 H401 0.984 1_455 S
N395 C388 1.356 . S
N395 H398 0.984 . S
N395 H399 0.985 . S
H396 N391 0.984 . S
H397 N391 0.985 . S
H398 N395 0.984 . S
H399 N395 0.985 . S
H400 N394 0.984 . S
H401 N394 0.984 1_655 S
H402 N390 0.984 . S
H403 N390 0.985 . S
C404 C405 1.363 1_545 S
C404 C410 1.379 1_545 S
C404 N412 1.356 . S
C405 C404 1.363 1_565 S
C405 C411 1.363 . S
C406 C407 1.363 . S
C406 C411 1.379 . S
C406 N413 1.356 . S
C407 C406 1.363 . S
C407 C410 1.363 . S
N408 C410 1.356 1_545 S
N408 H420 0.984 . S
N408 H421 0.985 1_545 S
N409 C411 1.356 . S
N409 H414 0.984 . S
N409 H415 0.985 . S
C410 C404 1.379 1_565 S
C410 C407 1.363 . S
C410 N408 1.356 1_565 S
C411 C405 1.363 . S
C411 C406 1.379 . S
C411 N409 1.356 . S
N412 C404 1.356 . S
N412 H418 0.984 . S
N412 H419 0.984 . S
N413 C406 1.356 . S
N413 H416 0.984 . S
N413 H417 0.985 . S
H414 N409 0.984 . S
H415 N409 0.985 . S
H416 N413 0.984 . S
H417 N413 0.985 . S
H418 N412 0.984 . S
H419 N412 0.984 . S
H420 N408 0.984 . S
H421 N408 0.985 1_565 S
C422 C423 1.363 . S
C422 C428 1.379 . S
C422 N430 1.356 . S
C423 C422 1.363 . S
C423 C429 1.363 . S
C424 C425 1.363 . S
C424 C429 1.379 . S
C424 N431 1.356 . S
C425 C424 1.363 . S
C425 C428 1.363 . S
N426 C428 1.356 . S
N426 H438 0.984 . S
N426 H439 0.985 . S
N427 C429 1.356 . S
N427 H432 0.984 . S
N427 H433 0.985 . S
C428 C422 1.379 . S
C428 C425 1.363 . S
C428 N426 1.356 . S
C429 C423 1.363 . S
C429 C424 1.379 . S
C429 N427 1.356 . S
N430 C422 1.356 . S
N430 H436 0.984 . S
N430 H437 0.984 . S
N431 C424 1.356 . S
N431 H434 0.984 . S
N431 H435 0.985 . S
H432 N427 0.984 . S
H433 N427 0.985 . S
H434 N431 0.984 . S
H435 N431 0.985 . S
H436 N430 0.984 . S
H437 N430 0.984 . S
H438 N426 0.984 . S
H439 N426 0.985 . S
C440 C441 1.363 . S
C440 C446 1.379 . S
C440 N448 1.356 . S
C441 C440 1.363 . S
C441 C447 1.363 . S
C442 C443 1.363 . S
C442 C447 1.379 . S
C442 N449 1.356 . S
C443 C442 1.363 . S
C443 C446 1.363 . S
N444 C446 1.356 1_655 S
N444 H456 0.984 . S
N444 H457 0.985 . S
N445 C447 1.356 . S
N445 H450 0.984 . S
N445 H451 0.985 . S
C446 C440 1.379 . S
C446 C443 1.363 . S
C446 N444 1.356 1_455 S
C447 C441 1.363 . S
C447 C442 1.379 . S
C447 N445 1.356 . S
N448 C440 1.356 . S
N448 H454 0.984 1_455 S
N448 H455 0.984 . S
N449 C442 1.356 . S
N449 H452 0.984 . S
N449 H453 0.985 . S
H450 N445 0.984 . S
H451 N445 0.985 . S
H452 N449 0.984 . S
H453 N449 0.985 . S
H454 N448 0.984 1_655 S
H455 N448 0.984 . S
H456 N444 0.984 . S
H457 N444 0.985 . S
C458 C459 1.363 . S
C458 C464 1.379 . S
C458 N466 1.356 1_545 S
C459 C458 1.363 . S
C459 C465 1.363 . S
C460 C461 1.363 1_655 S
C460 C465 1.379 1_655 S
C460 N467 1.356 . S
C461 C460 1.363 1_455 S
C461 C464 1.363 . S
N462 C464 1.356 . S
N462 H474 0.984 . S
N462 H475 0.985 . S
N463 C465 1.356 1_655 S
N463 H468 0.984 1_655 S
N463 H469 0.985 . S
C464 C458 1.379 . S
C464 C461 1.363 . S
C464 N462 1.356 . S
C465 C459 1.363 . S
C465 C460 1.379 1_455 S
C465 N463 1.356 1_455 S
N466 C458 1.356 1_565 S
N466 H472 0.984 . S
N466 H473 0.984 . S
N467 C460 1.356 . S
N467 H470 0.984 . S
N467 H471 0.985 . S
H468 N463 0.984 1_455 S
H469 N463 0.985 . S
H470 N467 0.984 . S
H471 N467 0.985 . S
H472 N466 0.984 . S
H473 N466 0.984 . S
H474 N462 0.984 . S
H475 N462 0.985 . S
C476 C477 1.363 . S
C476 C482 1.379 1_545 S
C476 N484 1.356 1_545 S
C477 C476 1.363 . S
C477 C483 1.363 . S
C478 C479 1.363 . S
C478 C483 1.379 . S
C478 N485 1.356 . S
C479 C478 1.363 . S
C479 C482 1.363 1_545 S
N480 C482 1.356 . S
N480 H492 0.984 . S
N480 H493 0.985 . S
N481 C483 1.356 . S
N481 H486 0.984 . S
N481 H487 0.985 . S
C482 C476 1.379 1_565 S
C482 C479 1.363 1_565 S
C482 N480 1.356 . S
C483 C477 1.363 . S
C483 C478 1.379 . S
C483 N481 1.356 . S
N484 C476 1.356 1_565 S
N484 H490 0.984 . S
N484 H491 0.984 1_565 S
N485 C478 1.356 . S
N485 H488 0.984 . S
N485 H489 0.985 . S
H486 N481 0.984 . S
H487 N481 0.985 . S
H488 N485 0.984 . S
H489 N485 0.985 . S
H490 N484 0.984 . S
H491 N484 0.984 1_545 S
H492 N480 0.984 . S
H493 N480 0.985 . S
C494 C495 1.363 . S
C494 C500 1.379 . S
C494 N502 1.356 . S
C495 C494 1.363 . S
C495 C501 1.363 . S
C496 C497 1.363 . S
C496 C501 1.379 . S
C496 N503 1.356 . S
C497 C496 1.363 . S
C497 C500 1.363 . S
N498 C500 1.356 . S
N498 H510 0.984 . S
N498 H511 0.985 . S
N499 C501 1.356 . S
N499 H504 0.984 . S
N499 H505 0.985 . S
C500 C494 1.379 . S
C500 C497 1.363 . S
C500 N498 1.356 . S
C501 C495 1.363 . S
C501 C496 1.379 . S
C501 N499 1.356 . S
N502 C494 1.356 . S
N502 H508 0.984 . S
N502 H509 0.984 . S
N503 C496 1.356 . S
N503 H506 0.984 . S
N503 H507 0.985 . S
H504 N499 0.984 . S
H505 N499 0.985 . S
H506 N503 0.984 . S
H507 N503 0.985 . S
H508 N502 0.984 . S
H509 N502 0.984 . S
H510 N498 0.984 . S
H511 N498 0.985 . S
C512 C513 1.363 1_655 S
C512 C518 1.379 . S
C512 N520 1.356 . S
C513 C512 1.363 1_455 S
C513 C519 1.363 . S
C514 C515 1.363 . S
C514 C519 1.379 . S
C514 N521 1.356 . S
C515 C514 1.363 . S
C515 C518 1.363 1_455 S
N516 C518 1.356 . S
N516 H528 0.984 . S
N516 H529 0.985 . S
N517 C519 1.356 . S
N517 H522 0.984 . S
N517 H523 0.985 . S
C518 C512 1.379 . S
C518 C515 1.363 1_655 S
C518 N516 1.356 . S
C519 C513 1.363 . S
C519 C514 1.379 . S
C519 N517 1.356 . S
N520 C512 1.356 . S
N520 H526 0.984 . S
N520 H527 0.984 . S
N521 C514 1.356 . S
N521 H524 0.984 . S
N521 H525 0.985 . S
H522 N517 0.984 . S
H523 N517 0.985 . S
H524 N521 0.984 . S
H525 N521 0.985 . S
H526 N520 0.984 . S
H527 N520 0.984 . S
H528 N516 0.984 . S
H529 N516 0.985 . S
C530 C531 1.363 . S
C530 C536 1.379 . S
C530 N538 1.356 . S
C531 C530 1.363 . S
C531 C537 1.363 1_545 S
C532 C533 1.363 1_565 S
C532 C537 1.379 . S
C532 N539 1.356 . S
C533 C532 1.363 1_545 S
C533 C536 1.363 . S
N534 C536 1.356 . S
N534 H546 0.984 . S
N534 H547 0.985 . S
N535 C537 1.356 . S
N535 H540 0.984 . S
N535 H541 0.985 . S
C536 C530 1.379 . S
C536 C533 1.363 . S
C536 N534 1.356 . S
C537 C531 1.363 1_565 S
C537 C532 1.379 . S
C537 N535 1.356 . S
N538 C530 1.356 . S
N538 H544 0.984 . S
N538 H545 0.984 . S
N539 C532 1.356 . S
N539 H542 0.984 . S
N539 H543 0.985 . S
H540 N535 0.984 . S
H541 N535 0.985 . S
H542 N539 0.984 . S
H543 N539 0.985 . S
H544 N538 0.984 . S
H545 N538 0.984 . S
H546 N534 0.984 . S
H547 N534 0.985 . S
C548 C549 1.363 . S
C548 C554 1.379 . S
C548 N556 1.356 . S
C549 C548 1.363 . S
C549 C555 1.363 . S
C550 C551 1.363 . S
C550 C555 1.379 . S
C550 N557 1.356 . S
C551 C550 1.363 . S
C551 C554 1.363 . S
N552 C554 1.356 . S
N552 H564 0.984 . S
N552 H565 0.985 . S
N553 C555 1.356 . S
N553 H558 0.984 . S
N553 H559 0.985 . S
C554 C548 1.379 . S
C554 C551 1.363 . S
C554 N552 1.356 . S
C555 C549 1.363 . S
C555 C550 1.379 . S
C555 N553 1.356 . S
N556 C548 1.356 . S
N556 H562 0.984 . S
N556 H563 0.984 . S
N557 C550 1.356 . S
N557 H560 0.984 . S
N557 H561 0.985 . S
H558 N553 0.984 . S
H559 N553 0.985 . S
H560 N557 0.984 . S
H561 N557 0.985 . S
H562 N556 0.984 . S
H563 N556 0.984 . S
H564 N552 0.984 . S
H565 N552 0.985 . S
C566 C567 1.363 . S
C566 C572 1.379 . S
C566 N574 1.356 . S
C567 C566 1.363 . S
C567 C573 1.363 . S
C568 C569 1.363 . S
C568 C573 1.379 . S
C568 N575 1.356 . S
C569 C568 1.363 . S
C569 C572 1.363 . S
N570 C572 1.356 . S
N570 H582 0.984 . S
N570 H583 0.985 . S
N571 C573 1.356 . S
N571 H576 0.984 . S
N571 H577 0.985 . S
C572 C566 1.379 . S
C572 C569 1.363 . S
C572 N570 1.356 . S
C573 C567 1.363 . S
C573 C568 1.379 . S
C573 N571 1.356 . S
N574 C566 1.356 . S
N574 H580 0.984 . S
N574 H581 0.984 . S
N575 C568 1.356 . S
N575 H578 0.984 . S
N575 H579 0.985 . S
H576 N571 0.984 . S
H577 N571 0.985 . S
H578 N575 0.984 . S
H579 N575 0.985 . S
H580 N574 0.984 . S
H581 N574 0.984 . S
H582 N570 0.984 . S
H583 N570 0.985 . S
C584 C585 1.363 . S
C584 C590 1.379 . S
C584 N592 1.356 . S
C585 C584 1.363 . S
C585 C591 1.363 1_655 S
C586 C587 1.363 1_455 S
C586 C591 1.379 . S
C586 N593 1.356 . S
C587 C586 1.363 1_655 S
C587 C590 1.363 . S
N588 C590 1.356 . S
N588 H600 0.984 . S
N588 H601 0.985 . S
N589 C591 1.356 . S
N589 H594 0.984 . S
N589 H595 0.985 . S
C590 C584 1.379 . S
C590 C587 1.363 . S
C590 N588 1.356 . S
C591 C585 1.363 1_455 S
C591 C586 1.379 . S
C591 N589 1.356 . S
N592 C584 1.356 . S
N592 H598 0.984 . S
N592 H599 0.984 . S
N593 C586 1.356 . S
N593 H596 0.984 . S
N593 H597 0.985 . S
H594 N589 0.984 . S
H595 N589 0.985 . S
H596 N593 0.984 . S
H597 N593 0.985 . S
H598 N592 0.984 . S
H599 N592 0.984 . S
H600 N588 0.984 . S
H601 N588 0.985 . S
C602 C603 1.363 . S
C602 C608 1.379 . S
C602 N610 1.356 . S
C603 C602 1.363 . S
C603 C609 1.363 1_565 S
C604 C605 1.363 1_545 S
C604 C609 1.379 . S
C604 N611 1.356 . S
C605 C604 1.363 1_565 S
C605 C608 1.363 . S
N606 C608 1.356 . S
N606 H618 0.984 . S
N606 H619 0.985 . S
N607 C609 1.356 . S
N607 H612 0.984 . S
N607 H613 0.985 . S
C608 C602 1.379 . S
C608 C605 1.363 . S
C608 N606 1.356 . S
C609 C603 1.363 1_545 S
C609 C604 1.379 . S
C609 N607 1.356 . S
N610 C602 1.356 . S
N610 H616 0.984 . S
N610 H617 0.984 . S
N611 C604 1.356 . S
N611 H614 0.984 . S
N611 H615 0.985 . S
H612 N607 0.984 . S
H613 N607 0.985 . S
H614 N611 0.984 . S
H615 N611 0.985 . S
H616 N610 0.984 . S
H617 N610 0.984 . S
H618 N606 0.984 . S
H619 N606 0.985 . S
C620 C621 1.363 . S
C620 C626 1.379 . S
C620 N628 1.356 . S
C621 C620 1.363 . S
C621 C627 1.363 . S
C622 C623 1.363 . S
C622 C627 1.379 . S
C622 N629 1.356 . S
C623 C622 1.363 . S
C623 C626 1.363 . S
N624 C626 1.356 . S
N624 H636 0.984 . S
N624 H637 0.985 . S
N625 C627 1.356 . S
N625 H630 0.984 . S
N625 H631 0.985 . S
C626 C620 1.379 . S
C626 C623 1.363 . S
C626 N624 1.356 . S
C627 C621 1.363 . S
C627 C622 1.379 . S
C627 N625 1.356 . S
N628 C620 1.356 . S
N628 H634 0.984 . S
N628 H635 0.984 . S
N629 C622 1.356 . S
N629 H632 0.984 . S
N629 H633 0.985 . S
H630 N625 0.984 . S
H631 N625 0.985 . S
H632 N629 0.984 . S
H633 N629 0.985 . S
H634 N628 0.984 . S
H635 N628 0.984 . S
H636 N624 0.984 . S
H637 N624 0.985 . S
C638 C639 1.363 . S
C638 C644 1.379 . S
C638 N646 1.356 . S
C639 C638 1.363 . S
C639 C645 1.363 . S
C640 C641 1.363 . S
C640 C645 1.379 . S
C640 N647 1.356 . S
C641 C640 1.363 . S
C641 C644 1.363 . S
N642 C644 1.356 . S
N642 H654 0.984 . S
N642 H655 0.985 . S
N643 C645 1.356 . S
N643 H648 0.984 . S
N643 H649 0.985 . S
C644 C638 1.379 . S
C644 C641 1.363 . S
C644 N642 1.356 . S
C645 C639 1.363 . S
C645 C640 1.379 . S
C645 N643 1.356 . S
N646 C638 1.356 . S
N646 H652 0.984 . S
N646 H653 0.984 . S
N647 C640 1.356 . S
N647 H650 0.984 . S
N647 H651 0.985 . S
H648 N643 0.984 . S
H649 N643 0.985 . S
H650 N647 0.984 . S
H651 N647 0.985 . S
H652 N646 0.984 . S
H653 N646 0.984 . S
H654 N642 0.984 . S
H655 N642 0.985 . S
C656 C657 1.363 1_556 S
C656 C662 1.379 . S
C656 N664 1.356 . S
C657 C656 1.363 1_554 S
C657 C663 1.363 1_655 S
C658 C659 1.363 1_554 S
C658 C663 1.379 . S
C658 N665 1.356 . S
C659 C658 1.363 1_556 S
C659 C662 1.363 1_455 S
N660 C662 1.356 . S
N660 H672 0.984 . S
N660 H673 0.985 . S
N661 C663 1.356 . S
N661 H666 0.984 . S
N661 H667 0.985 . S
C662 C656 1.379 . S
C662 C659 1.363 1_655 S
C662 N660 1.356 . S
C663 C657 1.363 1_455 S
C663 C658 1.379 . S
C663 N661 1.356 . S
N664 C656 1.356 . S
N664 H670 0.984 . S
N664 H671 0.984 . S
N665 C658 1.356 . S
N665 H668 0.984 . S
N665 H669 0.985 . S
H666 N661 0.984 . S
H667 N661 0.985 . S
H668 N665 0.984 . S
H669 N665 0.985 . S
H670 N664 0.984 . S
H671 N664 0.984 . S
H672 N660 0.984 . S
H673 N660 0.985 . S
C674 C675 1.364 1_554 S
C674 C680 1.379 1_455 S
C674 N682 1.356 . S
C675 C674 1.364 1_556 S
C675 C681 1.362 1_545 S
C676 C677 1.364 1_556 S
C676 C681 1.379 1_655 S
C676 N683 1.356 . S
C677 C676 1.364 1_554 S
C677 C680 1.362 1_565 S
N678 C680 1.356 . S
N678 H690 0.984 . S
N678 H691 0.985 . S
N679 C681 1.356 . S
N679 H684 0.984 . S
N679 H685 0.985 . S
C680 C674 1.379 1_655 S
C680 C677 1.362 1_545 S
C680 N678 1.356 . S
C681 C675 1.362 1_565 S
C681 C676 1.379 1_455 S
C681 N679 1.356 . S
N682 C674 1.356 . S
N682 H688 0.984 . S
N682 H689 0.987 . S
N683 C676 1.356 . S
N683 H686 0.987 . S
N683 H687 0.985 . S
H684 N679 0.984 . S
H685 N679 0.985 . S
H686 N683 0.987 . S
H687 N683 0.985 . S
H688 N682 0.984 . S
H689 N682 0.987 . S
H690 N678 0.984 . S
H691 N678 0.985 . S
C692 C693 1.363 1_556 S
C692 C698 1.379 1_565 S
C692 N700 1.356 . S
C693 C692 1.363 1_554 S
C693 C699 1.363 . S
C694 C695 1.363 1_554 S
C694 C699 1.379 1_545 S
C694 N701 1.356 . S
C695 C694 1.363 1_556 S
C695 C698 1.363 . S
N696 C698 1.356 . S
N696 H708 0.984 . S
N696 H709 0.985 . S
N697 C699 1.356 . S
N697 H702 0.984 . S
N697 H703 0.985 . S
C698 C692 1.379 1_545 S
C698 C695 1.363 . S
C698 N696 1.356 . S
C699 C693 1.363 . S
C699 C694 1.379 1_565 S
C699 N697 1.356 . S
N700 C692 1.356 . S
N700 H706 0.984 . S
N700 H707 0.984 . S
N701 C694 1.356 . S
N701 H704 0.984 . S
N701 H705 0.985 . S
H702 N697 0.984 . S
H703 N697 0.985 . S
H704 N701 0.984 . S
H705 N701 0.985 . S
H706 N700 0.984 . S
H707 N700 0.984 . S
H708 N696 0.984 . S
H709 N696 0.985 . S
C710 C711 1.363 . S
C710 C716 1.379 . S
C710 N718 1.356 . S
C711 C710 1.363 . S
C711 C717 1.363 1_556 S
C712 C713 1.363 . S
C712 C717 1.379 . S
C712 N719 1.356 . S
C713 C712 1.363 . S
C713 C716 1.363 1_554 S
N714 C716 1.356 . S
N714 H726 0.984 . S
N714 H727 0.972 1_556 S
N715 C717 1.356 . S
N715 H720 0.972 1_554 S
N715 H721 0.985 . S
C716 C710 1.379 . S
C716 C713 1.363 1_556 S
C716 N714 1.356 . S
C717 C711 1.363 1_554 S
C717 C712 1.379 . S
C717 N715 1.356 . S
N718 C710 1.356 . S
N718 H724 0.984 . S
N718 H725 0.984 . S
N719 C712 1.356 . S
N719 H722 0.984 . S
N719 H723 0.985 . S
H720 N715 0.972 1_556 S
H721 N715 0.985 . S
H722 N719 0.984 . S
H723 N719 0.985 . S
H724 N718 0.984 . S
H725 N718 0.984 . S
H726 N714 0.984 . S
H727 N714 0.972 1_554 S
C728 C729 1.364 . S
C728 C734 1.379 1_565 S
C728 N736 1.356 . S
C729 C728 1.364 . S
C729 C735 1.362 1_655 S
C730 C731 1.364 . S
C730 C735 1.379 1_545 S
C730 N737 1.356 . S
C731 C730 1.364 . S
C731 C734 1.362 1_455 S
N732 C734 1.356 . S
N732 H744 0.984 . S
N732 H745 0.985 . S
N733 C735 1.356 . S
N733 H738 0.984 . S
N733 H739 0.985 . S
C734 C728 1.379 1_545 S
C734 C731 1.362 1_655 S
C734 N732 1.356 . S
C735 C729 1.362 1_455 S
C735 C730 1.379 1_565 S
C735 N733 1.356 . S
N736 C728 1.356 . S
N736 H742 0.984 . S
N736 H743 0.984 . S
N737 C730 1.356 . S
N737 H740 0.984 . S
N737 H741 0.985 . S
H738 N733 0.984 . S
H739 N733 0.985 . S
H740 N737 0.984 . S
H741 N737 0.985 . S
H742 N736 0.984 . S
H743 N736 0.984 . S
H744 N732 0.984 . S
H745 N732 0.985 . S
C746 C747 1.364 . S
C746 C752 1.379 . S
C746 N754 1.356 . S
C747 C746 1.364 . S
C747 C753 1.362 1_565 S
C748 C749 1.364 . S
C748 C753 1.379 . S
C748 N755 1.356 . S
C749 C748 1.364 . S
C749 C752 1.362 1_545 S
N750 C752 1.356 . S
N750 H762 0.984 . S
N750 H763 0.985 . S
N751 C753 1.356 . S
N751 H756 0.984 . S
N751 H757 0.985 . S
C752 C746 1.379 . S
C752 C749 1.362 1_565 S
C752 N750 1.356 . S
C753 C747 1.362 1_545 S
C753 C748 1.379 . S
C753 N751 1.356 . S
N754 C746 1.356 . S
N754 H760 0.984 . S
N754 H761 0.984 . S
N755 C748 1.356 . S
N755 H758 0.984 . S
N755 H759 0.985 . S
H756 N751 0.984 . S
H757 N751 0.985 . S
H758 N755 0.984 . S
H759 N755 0.985 . S
H760 N754 0.984 . S
H761 N754 0.984 . S
H762 N750 0.984 . S
H763 N750 0.985 . S
C764 C765 1.363 . S
C764 C770 1.379 . S
C764 N772 1.356 . S
C765 C764 1.363 . S
C765 C771 1.363 . S
C766 C767 1.363 . S
C766 C771 1.379 . S
C766 N773 1.356 . S
C767 C766 1.363 . S
C767 C770 1.363 . S
N768 C770 1.356 . S
N768 H780 0.984 . S
N768 H781 0.985 . S
N769 C771 1.356 . S
N769 H774 0.984 . S
N769 H775 0.985 . S
C770 C764 1.379 . S
C770 C767 1.363 . S
C770 N768 1.356 . S
C771 C765 1.363 . S
C771 C766 1.379 . S
C771 N769 1.356 . S
N772 C764 1.356 . S
N772 H778 0.984 . S
N772 H779 0.984 . S
N773 C766 1.356 . S
N773 H776 0.984 . S
N773 H777 0.985 . S
H774 N769 0.984 . S
H775 N769 0.985 . S
H776 N773 0.984 . S
H777 N773 0.985 . S
H778 N772 0.984 . S
H779 N772 0.984 . S
H780 N768 0.984 . S
H781 N768 0.985 . S
C782 C783 1.363 . S
C782 C788 1.379 1_655 S
C782 N790 1.356 . S
C783 C782 1.363 . S
C783 C789 1.363 . S
C784 C785 1.363 . S
C784 C789 1.379 1_455 S
C784 N791 1.356 . S
C785 C784 1.363 . S
C785 C788 1.363 . S
N786 C788 1.356 . S
N786 H798 0.984 . S
N786 H799 0.985 . S
N787 C789 1.356 . S
N787 H792 0.984 . S
N787 H793 0.985 . S
C788 C782 1.379 1_455 S
C788 C785 1.363 . S
C788 N786 1.356 . S
C789 C783 1.363 . S
C789 C784 1.379 1_655 S
C789 N787 1.356 . S
N790 C782 1.356 . S
N790 H796 0.984 . S
N790 H797 0.984 . S
N791 C784 1.356 . S
N791 H794 0.984 . S
N791 H795 0.985 . S
H792 N787 0.984 . S
H793 N787 0.985 . S
H794 N791 0.984 . S
H795 N791 0.985 . S
H796 N790 0.984 . S
H797 N790 0.984 . S
H798 N786 0.984 . S
H799 N786 0.985 . S
C225 C0 1.632 . S
C227 C28 1.632 . S
C243 C14 1.632 . S
C245 C42 1.632 . S
C261 C56 1.632 . S
C263 C84 1.632 . S
C279 C98 1.632 . S
C281 C70 1.632 . S
C297 C112 1.632 . S
C299 C140 1.632 . S
C315 C154 1.632 . S
C317 C126 1.632 . S
C333 C196 1.632 . S
C335 C168 1.632 . S
C351 C210 1.632 . S
C353 C182 1.632 . S
C369 C107 1.344 . S
C371 C9 1.349 . S
C387 C23 1.349 . S
C389 C65 1.349 . S
C405 C79 1.349 . S
C407 C37 1.344 . S
C423 C51 1.344 . S
C425 C93 1.344 . S
C441 C219 1.344 . S
C443 C121 1.349 . S
C459 C135 1.349 . S
C461 C177 1.349 . S
C477 C149 1.344 . S
C479 C191 1.349 . S
C495 C205 1.344 . S
C497 C163 1.344 . S
C513 C5 1.241 . S
C515 C61 1.241 . S
C531 C19 1.241 . S
C533 C75 1.241 . S
C549 C89 1.241 . S
C551 C33 1.241 . S
C567 C47 1.241 . S
C569 C103 1.241 . S
C585 C173 1.241 . S
C587 C117 1.241 . S
C603 C187 1.241 . S
C605 C131 1.241 . S
C621 C145 1.241 . S
C623 C201 1.241 . S
C639 C159 1.241 . S
C641 C215 1.241 . S
C657 C11 1.830 1_655 S
C659 C123 1.830 1_455 S
C675 C137 1.830 1_545 S
C677 C25 1.830 1_565 S
C693 C39 1.830 . S
C695 C151 1.830 . S
C711 C165 1.830 . S
C713 C53 1.830 . S
C729 C67 1.830 1_655 S
C731 C179 1.830 1_455 S
C747 C81 1.830 1_565 S
C749 C193 1.830 1_545 S
C765 C207 1.830 . S
C767 C95 1.830 . S
C783 C109 1.830 . S
C785 C221 1.830 . S
