# Generated by pormake.
# Topology wiv, (6)-cn, num edge types: 1
# Building blocks:
#     Node 0, Type 0, BuildingBlock: CUWYAW_clean_sbu_0, # of connection points: 6
#     Node 1, Type 0, BuildingBlock: CUWYAW_clean_sbu_0, # of connection points: 6
#     Node 2, Type 0, BuildingBlock: CUWYAW_clean_sbu_0, # of connection points: 6
#     Node 3, Type 0, BuildingBlock: CUWYAW_clean_sbu_0, # of connection points: 6
#     Node 4, Type 0, BuildingBlock: CUWYAW_clean_sbu_0, # of connection points: 6
#     Node 5, Type 0, BuildingBlock: CUWYAW_clean_sbu_0, # of connection points: 6
#     Node 6, Type 0, BuildingBlock: CUWYAW_clean_sbu_0, # of connection points: 6
#     Node 7, Type 0, BuildingBlock: CUWYAW_clean_sbu_0, # of connection points: 6
#     Node 8, Type 0, BuildingBlock: CUWYAW_clean_sbu_0, # of connection points: 6
#     Node 9, Type 0, BuildingBlock: CUWYAW_clean_sbu_0, # of connection points: 6
#     Node 10, Type 0, BuildingBlock: CUWYAW_clean_sbu_0, # of connection points: 6
#     Node 11, Type 0, BuildingBlock: CUWYAW_clean_sbu_0, # of connection points: 6
#     Node 12, Type 0, BuildingBlock: CUWYAW_clean_sbu_0, # of connection points: 6
#     Node 13, Type 0, BuildingBlock: CUWYAW_clean_sbu_0, # of connection points: 6
#     Node 14, Type 0, BuildingBlock: CUWYAW_clean_sbu_0, # of connection points: 6
#     Node 15, Type 0, BuildingBlock: CUWYAW_clean_sbu_0, # of connection points: 6
#     Edge 16, Type (0, 0), BuildingBlock: MIFKUJ_clean_linker_0, # of connection points: 2
#     Edge 17, Type (0, 0), BuildingBlock: MIFKUJ_clean_linker_0, # of connection points: 2
#     Edge 18, Type (0, 0), BuildingBlock: MIFKUJ_clean_linker_0, # of connection points: 2
#     Edge 19, Type (0, 0), BuildingBlock: MIFKUJ_clean_linker_0, # of connection points: 2
#     Edge 20, Type (0, 0), BuildingBlock: MIFKUJ_clean_linker_0, # of connection points: 2
#     Edge 21, Type (0, 0), BuildingBlock: MIFKUJ_clean_linker_0, # of connection points: 2
#     Edge 22, Type (0, 0), BuildingBlock: MIFKUJ_clean_linker_0, # of connection points: 2
#     Edge 23, Type (0, 0), BuildingBlock: MIFKUJ_clean_linker_0, # of connection points: 2
#     Edge 24, Type (0, 0), BuildingBlock: MIFKUJ_clean_linker_0, # of connection points: 2
#     Edge 25, Type (0, 0), BuildingBlock: MIFKUJ_clean_linker_0, # of connection points: 2
#     Edge 26, Type (0, 0), BuildingBlock: MIFKUJ_clean_linker_0, # of connection points: 2
#     Edge 27, Type (0, 0), BuildingBlock: MIFKUJ_clean_linker_0, # of connection points: 2
#     Edge 28, Type (0, 0), BuildingBlock: MIFKUJ_clean_linker_0, # of connection points: 2
#     Edge 29, Type (0, 0), BuildingBlock: MIFKUJ_clean_linker_0, # of connection points: 2
#     Edge 30, Type (0, 0), BuildingBlock: MIFKUJ_clean_linker_0, # of connection points: 2
#     Edge 31, Type (0, 0), BuildingBlock: MIFKUJ_clean_linker_0, # of connection points: 2
#     Edge 32, Type (0, 0), BuildingBlock: MIFKUJ_clean_linker_0, # of connection points: 2
#     Edge 33, Type (0, 0), BuildingBlock: MIFKUJ_clean_linker_0, # of connection points: 2
#     Edge 34, Type (0, 0), BuildingBlock: MIFKUJ_clean_linker_0, # of connection points: 2
#     Edge 35, Type (0, 0), BuildingBlock: MIFKUJ_clean_linker_0, # of connection points: 2
#     Edge 36, Type (0, 0), BuildingBlock: MIFKUJ_clean_linker_0, # of connection points: 2
#     Edge 37, Type (0, 0), BuildingBlock: MIFKUJ_clean_linker_0, # of connection points: 2
#     Edge 38, Type (0, 0), BuildingBlock: MIFKUJ_clean_linker_0, # of connection points: 2
#     Edge 39, Type (0, 0), BuildingBlock: MIFKUJ_clean_linker_0, # of connection points: 2
#     Edge 40, Type (0, 0), BuildingBlock: MIFKUJ_clean_linker_0, # of connection points: 2
#     Edge 41, Type (0, 0), BuildingBlock: MIFKUJ_clean_linker_0, # of connection points: 2
#     Edge 42, Type (0, 0), BuildingBlock: MIFKUJ_clean_linker_0, # of connection points: 2
#     Edge 43, Type (0, 0), BuildingBlock: MIFKUJ_clean_linker_0, # of connection points: 2
#     Edge 44, Type (0, 0), BuildingBlock: MIFKUJ_clean_linker_0, # of connection points: 2
#     Edge 45, Type (0, 0), BuildingBlock: MIFKUJ_clean_linker_0, # of connection points: 2
#     Edge 46, Type (0, 0), BuildingBlock: MIFKUJ_clean_linker_0, # of connection points: 2
#     Edge 47, Type (0, 0), BuildingBlock: MIFKUJ_clean_linker_0, # of connection points: 2
#     Edge 48, Type (0, 0), BuildingBlock: MIFKUJ_clean_linker_0, # of connection points: 2
#     Edge 49, Type (0, 0), BuildingBlock: MIFKUJ_clean_linker_0, # of connection points: 2
#     Edge 50, Type (0, 0), BuildingBlock: MIFKUJ_clean_linker_0, # of connection points: 2
#     Edge 51, Type (0, 0), BuildingBlock: MIFKUJ_clean_linker_0, # of connection points: 2
#     Edge 52, Type (0, 0), BuildingBlock: MIFKUJ_clean_linker_0, # of connection points: 2
#     Edge 53, Type (0, 0), BuildingBlock: MIFKUJ_clean_linker_0, # of connection points: 2
#     Edge 54, Type (0, 0), BuildingBlock: MIFKUJ_clean_linker_0, # of connection points: 2
#     Edge 55, Type (0, 0), BuildingBlock: MIFKUJ_clean_linker_0, # of connection points: 2
#     Edge 56, Type (0, 0), BuildingBlock: MIFKUJ_clean_linker_0, # of connection points: 2
#     Edge 57, Type (0, 0), BuildingBlock: MIFKUJ_clean_linker_0, # of connection points: 2
#     Edge 58, Type (0, 0), BuildingBlock: MIFKUJ_clean_linker_0, # of connection points: 2
#     Edge 59, Type (0, 0), BuildingBlock: MIFKUJ_clean_linker_0, # of connection points: 2
#     Edge 60, Type (0, 0), BuildingBlock: MIFKUJ_clean_linker_0, # of connection points: 2
#     Edge 61, Type (0, 0), BuildingBlock: MIFKUJ_clean_linker_0, # of connection points: 2
#     Edge 62, Type (0, 0), BuildingBlock: MIFKUJ_clean_linker_0, # of connection points: 2
#     Edge 63, Type (0, 0), BuildingBlock: MIFKUJ_clean_linker_0, # of connection points: 2
# Relax obj value: 0.103
# Max RMSD: 0.166
# Mean RMSD: 0.166
data_MOF--net-wiv--node1-CUWYAW_clean_sbu_0--edge1-MIFKUJ_clean_linker_0
_symmetry_space_group_name_H-M    P1
_symmetry_Int_Tables_number       1
_symmetry_cell_setting            triclinic
loop_
_symmetry_equiv_pos_as_xyz
'x, y, z'
_cell_length_a     68.695227
_cell_length_b     68.672389
_cell_length_c     29.779123
_cell_angle_alpha  89.952595
_cell_angle_beta   89.969203
_cell_angle_gamma 90.068486
loop_
_atom_site_label
_atom_site_type_symbol
_atom_site_fract_x
_atom_site_fract_y
_atom_site_fract_z
_atom_type_partial_charge
C0 C 0.38943 0.11591 0.98839 0.0
Eu1 Eu 0.37539 0.11076 0.06918 0.0
C2 C 0.38201 0.11698 0.94138 0.0
C3 C 0.37584 0.1001 0.91861 0.0
C4 C 0.37035 0.10088 0.87335 0.0
C5 C 0.37084 0.11855 0.84938 0.0
C6 C 0.37652 0.13554 0.87253 0.0
C7 C 0.38211 0.13474 0.91784 0.0
C8 C 0.37581 0.07647 0.11499 0.0
C9 C 0.32866 0.10616 0.05623 0.0
C10 C 0.33074 0.10323 0.22529 0.0
Eu11 Eu 0.35097 0.11046 0.15283 0.0
C12 C 0.33324 0.10649 0.2741 0.0
C13 C 0.31714 0.10529 0.30293 0.0
C14 C 0.31947 0.10739 0.34947 0.0
C15 C 0.33801 0.1107 0.36831 0.0
C16 C 0.35409 0.11215 0.33903 0.0
C17 C 0.35172 0.1101 0.29249 0.0
C18 C 0.36411 0.14636 0.12936 0.0
C19 C 0.3978 0.11548 0.16204 0.0
O20 O 0.38543 0.13036 0.01562 0.0
O21 O 0.38837 0.09901 1.00841 0.0
O22 O 0.39096 0.0841 0.09577 0.0
O23 O 0.36095 0.08694 0.10819 0.0
O24 O 0.3461 0.10552 0.03799 0.0
O25 O 0.32641 0.10854 0.10024 0.0
O26 O 0.34277 0.09079 0.20693 0.0
O27 O 0.32799 0.11866 0.2002 0.0
O28 O 0.3631 0.14 0.1702 0.0
O29 O 0.35744 0.13377 0.10239 0.0
O30 O 0.38189 0.1079 0.18037 0.0
O31 O 0.39801 0.1209 0.11933 0.0
H32 H 0.37563 0.08611 0.9354 0.0
H33 H 0.36634 0.08743 0.85682 0.0
H34 H 0.37676 0.14949 0.85559 0.0
H35 H 0.3868 0.148 0.93429 0.0
H36 H 0.30275 0.10255 0.28947 0.0
H37 H 0.30669 0.1065 0.37067 0.0
H38 H 0.36862 0.11444 0.3521 0.0
H39 H 0.36438 0.11104 0.27089 0.0
C40 C 0.10295 0.66667 0.81044 0.0
Eu41 Eu 0.11147 0.65158 0.88888 0.0
C42 C 0.10417 0.66117 0.7625 0.0
C43 C 0.11423 0.64443 0.74837 0.0
C44 C 0.11549 0.6398 0.70249 0.0
C45 C 0.10685 0.65191 0.66985 0.0
C46 C 0.09657 0.66848 0.68449 0.0
C47 C 0.09526 0.67302 0.73022 0.0
C48 C 0.14845 0.64827 0.92103 0.0
C49 C 0.11833 0.6044 0.87489 0.0
C50 C 0.12207 0.60886 0.04575 0.0
Eu51 Eu 0.11427 0.62558 0.9686 0.0
C52 C 0.12105 0.61272 0.09462 0.0
C53 C 0.11024 0.62831 0.1121 0.0
C54 C 0.10936 0.63148 0.15868 0.0
C55 C 0.11907 0.61895 0.18876 0.0
C56 C 0.12986 0.60335 0.1709 0.0
C57 C 0.13088 0.60033 0.12441 0.0
C58 C 0.07819 0.62754 0.93071 0.0
C59 C 0.10838 0.67266 0.98447 0.0
O60 O 0.09047 0.65708 0.83514 0.0
O61 O 0.11942 0.66959 0.83127 0.0
O62 O 0.14065 0.66434 0.90693 0.0
O63 O 0.13635 0.63443 0.91751 0.0
O64 O 0.11153 0.62093 0.85813 0.0
O65 O 0.12346 0.6032 0.91753 0.0
O66 O 0.13481 0.61886 0.02258 0.0
O67 O 0.10554 0.60692 0.0245 0.0
O68 O 0.08592 0.6117 0.94627 0.0
O69 O 0.08945 0.64181 0.93763 0.0
O70 O 0.11417 0.65568 1.00058 0.0
O71 O 0.10411 0.67466 0.94128 0.0
H72 H 0.12123 0.63506 0.77272 0.0
H73 H 0.12359 0.62699 0.69256 0.0
H74 H 0.08942 0.67794 0.66054 0.0
H75 H 0.08732 0.68592 0.74038 0.0
H76 H 0.10234 0.63791 0.08975 0.0
H77 H 0.10075 0.64352 0.17118 0.0
H78 H 0.13772 0.59354 0.19287 0.0
H79 H 0.13932 0.5882 0.11168 0.0
C80 C 0.61432 0.88204 0.99309 0.0
Eu81 Eu 0.62946 0.89113 0.07089 0.0
C82 C 0.61961 0.88302 0.94505 0.0
C83 C 0.63427 0.89561 0.92954 0.0
C84 C 0.63886 0.89649 0.88367 0.0
C85 C 0.62882 0.88483 0.85236 0.0
C86 C 0.61426 0.87212 0.86832 0.0
C87 C 0.60975 0.87122 0.91413 0.0
C88 C 0.63114 0.92719 0.10825 0.0
C89 C 0.67639 0.89809 0.0565 0.0
C90 C 0.67038 0.90191 0.22981 0.0
Eu91 Eu 0.65491 0.89351 0.15176 0.0
C92 C 0.66564 0.90078 0.27812 0.0
C93 C 0.65095 0.88841 0.29438 0.0
C94 C 0.64709 0.88732 0.34061 0.0
C95 C 0.65781 0.89864 0.37141 0.0
C96 C 0.67235 0.91115 0.35467 0.0
C97 C 0.67621 0.9122 0.30857 0.0
C98 C 0.65185 0.85685 0.11782 0.0
C99 C 0.60738 0.88694 0.16377 0.0
O100 O 0.62421 0.86979 0.01783 0.0
O101 O 0.61123 0.89861 1.0135 0.0
O102 O 0.6156 0.91978 0.0903 0.0
O103 O 0.64546 0.9158 0.10322 0.0
O104 O 0.65945 0.89306 0.03912 0.0
O105 O 0.6784 0.90097 0.10026 0.0
O106 O 0.66037 0.9143 0.20589 0.0
O107 O 0.67314 0.88545 0.20881 0.0
O108 O 0.66787 0.86456 0.13253 0.0
O109 O 0.638 0.86887 0.12186 0.0
O110 O 0.62412 0.89236 0.18222 0.0
O111 O 0.60617 0.88309 0.12047 0.0
H112 H 0.64206 0.90483 0.95289 0.0
H113 H 0.65034 0.90624 0.87278 0.0
H114 H 0.60604 0.86311 0.84529 0.0
H115 H 0.59838 0.86142 0.92539 0.0
H116 H 0.64254 0.87954 0.27139 0.0
H117 H 0.63562 0.87771 0.35218 0.0
H118 H 0.68108 0.91988 0.37729 0.0
H119 H 0.68761 0.92182 0.2967 0.0
C120 C 0.9009 0.33916 0.80405 0.0
Eu121 Eu 0.8928 0.35467 0.88224 0.0
C122 C 0.89971 0.34415 0.75577 0.0
C123 C 0.90116 0.32927 0.72377 0.0
C124 C 0.90062 0.33356 0.67781 0.0
C125 C 0.89862 0.3529 0.6626 0.0
C126 C 0.89679 0.36777 0.69497 0.0
C127 C 0.89744 0.36345 0.74104 0.0
C128 C 0.85652 0.35773 0.91804 0.0
C129 C 0.88523 0.40197 0.86799 0.0
C130 C 0.88502 0.39788 0.03912 0.0
Eu131 Eu 0.89151 0.38109 0.96149 0.0
C132 C 0.88635 0.39381 0.08791 0.0
C133 C 0.88869 0.40936 0.11796 0.0
C134 C 0.88995 0.406 0.16431 0.0
C135 C 0.88909 0.38696 0.18171 0.0
C136 C 0.88683 0.37135 0.15143 0.0
C137 C 0.88531 0.37477 0.10504 0.0
C138 C 0.9267 0.37894 0.91967 0.0
C139 C 0.89775 0.3341 0.97813 0.0
O140 O 0.91348 0.34892 0.82816 0.0
O141 O 0.88445 0.33643 0.82518 0.0
O142 O 0.86425 0.34165 0.9037 0.0
O143 O 0.86842 0.3717 0.91313 0.0
O144 O 0.89031 0.38503 0.85016 0.0
O145 O 0.88246 0.40386 0.91159 0.0
O146 O 0.87171 0.38848 0.01629 0.0
O147 O 0.90144 0.39933 0.01717 0.0
O148 O 0.91929 0.39494 0.9352 0.0
O149 O 0.91564 0.36473 0.92847 0.0
O150 O 0.89278 0.35126 0.99455 0.0
O151 O 0.90061 0.33169 0.93447 0.0
H152 H 0.90282 0.31426 0.73436 0.0
H153 H 0.90163 0.32163 0.65419 0.0
H154 H 0.89538 0.38283 0.68482 0.0
H155 H 0.89639 0.37521 0.76505 0.0
H156 H 0.88953 0.42418 0.10555 0.0
H157 H 0.89187 0.41834 0.18652 0.0
H158 H 0.88589 0.35653 0.16366 0.0
H159 H 0.88319 0.36258 0.0826 0.0
C160 C 0.39391 0.37818 0.28924 0.0
Eu161 Eu 0.37873 0.38791 0.2119 0.0
C162 C 0.38965 0.38031 0.33766 0.0
C163 C 0.37778 0.39538 0.35393 0.0
C164 C 0.3745 0.39743 0.40021 0.0
C165 C 0.383 0.38442 0.43119 0.0
C166 C 0.39458 0.36915 0.4144 0.0
C167 C 0.39787 0.36715 0.36822 0.0
C168 C 0.37792 0.42432 0.17631 0.0
C169 C 0.33186 0.39579 0.22657 0.0
C170 C 0.33847 0.40202 0.05347 0.0
Eu171 Eu 0.35328 0.392 0.13114 0.0
C172 C 0.34346 0.40114 1.00522 0.0
C173 C 0.35668 0.38736 0.98839 0.0
C174 C 0.36056 0.38636 0.94216 0.0
C175 C 0.35132 0.39913 0.91182 0.0
C176 C 0.33839 0.41315 0.92921 0.0
C177 C 0.33452 0.4141 0.97532 0.0
C178 C 0.35563 0.35474 0.16222 0.0
C179 C 0.40042 0.38379 0.11849 0.0
O180 O 0.38233 0.36679 0.26624 0.0
O181 O 0.39851 0.39405 0.26731 0.0
O182 O 0.39336 0.4163 0.19315 0.0
O183 O 0.36333 0.41327 0.18129 0.0
O184 O 0.34871 0.39029 0.24375 0.0
O185 O 0.32996 0.39922 0.18299 0.0
O186 O 0.34883 0.41376 0.07841 0.0
O187 O 0.33481 0.38549 0.07352 0.0
O188 O 0.33983 0.36284 0.14738 0.0
O189 O 0.36963 0.36666 0.15945 0.0
O190 O 0.38407 0.39069 0.1009 0.0
O191 O 0.40127 0.37878 0.16127 0.0
H192 H 0.37124 0.40568 0.3309 0.0
H193 H 0.36563 0.40945 0.4117 0.0
H194 H 0.40103 0.35859 0.43691 0.0
H195 H 0.40696 0.35534 0.35636 0.0
H196 H 0.36382 0.37724 1.01091 0.0
H197 H 0.37047 0.37527 0.93013 0.0
H198 H 0.33129 0.42349 0.9072 0.0
H199 H 0.32437 0.42493 0.98763 0.0
C200 C 0.40375 0.66469 0.97994 0.0
Eu201 Eu 0.3946 0.64945 0.90201 0.0
C202 C 0.40175 0.66051 0.02851 0.0
C203 C 0.38568 0.65031 0.04591 0.0
C204 C 0.38405 0.64694 0.09229 0.0
C205 C 0.39857 0.65353 0.12203 0.0
C206 C 0.41464 0.66366 0.10433 0.0
C207 C 0.41621 0.66709 0.05811 0.0
C208 C 0.35732 0.64622 0.87155 0.0
C209 C 0.38728 0.60207 0.91492 0.0
C210 C 0.38352 0.6095 0.74322 0.0
Eu211 Eu 0.39129 0.62397 0.8225 0.0
C212 C 0.3853 0.61575 0.6956 0.0
C213 C 0.40247 0.62428 0.67882 0.0
C214 C 0.40405 0.62931 0.63325 0.0
C215 C 0.38844 0.62613 0.60351 0.0
C216 C 0.37114 0.618 0.62071 0.0
C217 C 0.36964 0.61282 0.66613 0.0
C218 C 0.42789 0.62588 0.85769 0.0
C219 C 0.39642 0.67083 0.80698 0.0
O220 O 0.41532 0.65334 0.95709 0.0
O221 O 0.38792 0.66898 0.95776 0.0
O222 O 0.36528 0.66226 0.88535 0.0
O223 O 0.36941 0.63237 0.87449 0.0
O224 O 0.39388 0.6186 0.93232 0.0
O225 O 0.38234 0.60105 0.87216 0.0
O226 O 0.37065 0.61861 0.7678 0.0
O227 O 0.39964 0.60607 0.76516 0.0
O228 O 0.42002 0.6102 0.84164 0.0
O229 O 0.41652 0.64021 0.85242 0.0
O230 O 0.38984 0.65405 0.79192 0.0
O231 O 0.40207 0.67255 0.84934 0.0
H232 H 0.37438 0.64498 0.02371 0.0
H233 H 0.37155 0.63899 0.10486 0.0
H234 H 0.42595 0.66909 0.12635 0.0
H235 H 0.42874 0.67497 0.04546 0.0
H236 H 0.41475 0.62693 0.70079 0.0
H237 H 0.4175 0.63572 0.6213 0.0
H238 H 0.35889 0.61516 0.59878 0.0
H239 H 0.35625 0.60629 0.67817 0.0
C240 C 0.61446 0.62483 0.28617 0.0
Eu241 Eu 0.62922 0.61467 0.20855 0.0
C242 C 0.61944 0.62349 0.3344 0.0
C243 C 0.63499 0.61198 0.34952 0.0
C244 C 0.6394 0.61086 0.39549 0.0
C245 C 0.62829 0.62121 0.42737 0.0
C246 C 0.61274 0.63275 0.41177 0.0
C247 C 0.60841 0.63389 0.36587 0.0
C248 C 0.63008 0.57801 0.17418 0.0
C249 C 0.67625 0.60702 0.22229 0.0
C250 C 0.66884 0.60041 0.04934 0.0
Eu251 Eu 0.65433 0.61014 0.12757 0.0
C252 C 0.66316 0.60088 1.00149 0.0
C253 C 0.64742 0.61217 0.98643 0.0
C254 C 0.64292 0.6131 0.9405 0.0
C255 C 0.65403 0.60272 0.90868 0.0
C256 C 0.66956 0.59117 0.92431 0.0
C257 C 0.67405 0.59028 0.97013 0.0
C258 C 0.65197 0.64759 0.15752 0.0
C259 C 0.60707 0.61728 0.11592 0.0
O260 O 0.62537 0.63629 0.26162 0.0
O261 O 0.61024 0.60853 0.26568 0.0
O262 O 0.61459 0.58614 0.19064 0.0
O263 O 0.64462 0.58914 0.1787 0.0
O264 O 0.65947 0.6127 0.23956 0.0
O265 O 0.67798 0.60322 0.17884 0.0
O266 O 0.6594 0.5883 0.07533 0.0
O267 O 0.67181 0.61722 0.06863 0.0
O268 O 0.66778 0.63934 0.1433 0.0
O269 O 0.63794 0.63569 0.15508 0.0
O270 O 0.62323 0.60969 0.09899 0.0
O271 O 0.60655 0.62358 0.1578 0.0
H272 H 0.64366 0.60383 0.32577 0.0
H273 H 0.65163 0.60202 0.40596 0.0
H274 H 0.60362 0.64068 0.4351 0.0
H275 H 0.59631 0.64282 0.35496 0.0
H276 H 0.63874 0.6204 1.01011 0.0
H277 H 0.63075 0.62197 0.92998 0.0
H278 H 0.67865 0.58319 0.90101 0.0
H279 H 0.68627 0.5815 0.98103 0.0
C280 C 0.6034 0.33831 0.97517 0.0
Eu281 Eu 0.61145 0.35387 0.8969 0.0
C282 C 0.60472 0.34308 0.02344 0.0
C283 C 0.60123 0.32845 0.05525 0.0
C284 C 0.60246 0.33248 0.10123 0.0
C285 C 0.60716 0.35131 0.11658 0.0
C286 C 0.61076 0.36597 0.08439 0.0
C287 C 0.60958 0.36187 0.03829 0.0
C288 C 0.64826 0.35713 0.86376 0.0
C289 C 0.6181 0.40128 0.90904 0.0
C290 C 0.62231 0.39548 0.73896 0.0
Eu291 Eu 0.61389 0.37935 0.8163 0.0
C292 C 0.6208 0.39147 0.69035 0.0
C293 C 0.6261 0.40596 0.65954 0.0
C294 C 0.62516 0.40245 0.61328 0.0
C295 C 0.61892 0.38428 0.59662 0.0
C296 C 0.61332 0.36986 0.62788 0.0
C297 C 0.61433 0.3734 0.67421 0.0
C298 C 0.57788 0.37742 0.85441 0.0
C299 C 0.60727 0.33231 0.80172 0.0
O300 O 0.59085 0.34816 0.9513 0.0
O301 O 0.61983 0.33573 0.95399 0.0
O302 O 0.64049 0.34108 0.87811 0.0
O303 O 0.63616 0.37094 0.8673 0.0
O304 O 0.61153 0.3848 0.92677 0.0
O305 O 0.62306 0.40213 0.86627 0.0
O306 O 0.63448 0.3847 0.76184 0.0
O307 O 0.60603 0.39851 0.76057 0.0
O308 O 0.58538 0.39315 0.83753 0.0
O309 O 0.58923 0.36318 0.84828 0.0
O310 O 0.61228 0.34929 0.78432 0.0
O311 O 0.6042 0.33035 0.84544 0.0
H312 H 0.59761 0.31382 0.0445 0.0
H313 H 0.59999 0.32069 0.12474 0.0
H314 H 0.61425 0.38068 0.09476 0.0
H315 H 0.61246 0.37335 1.01429 0.0
H316 H 0.63102 0.42007 0.67129 0.0
H317 H 0.62915 0.41412 0.59059 0.0
H318 H 0.60841 0.3557 0.61672 0.0
H319 H 0.61016 0.36201 0.69741 0.0
C320 C 0.8974 0.62248 0.48783 0.0
Eu321 Eu 0.88111 0.61472 0.56543 0.0
C322 C 0.89314 0.62138 0.43925 0.0
C323 C 0.90744 0.6272 0.40842 0.0
C324 C 0.90389 0.62631 0.36217 0.0
C325 C 0.88587 0.61965 0.34555 0.0
C326 C 0.87155 0.61377 0.37676 0.0
C327 C 0.87518 0.61457 0.42313 0.0
C328 C 0.87787 0.57824 0.6008 0.0
C329 C 0.83399 0.61029 0.55088 0.0
C330 C 0.84014 0.60412 0.72389 0.0
Eu331 Eu 0.85574 0.61218 0.64569 0.0
C332 C 0.84448 0.60674 0.77214 0.0
C333 C 0.82932 0.60548 0.80351 0.0
C334 C 0.83312 0.60716 0.84955 0.0
C335 C 0.85223 0.61007 0.86529 0.0
C336 C 0.86737 0.61181 0.83358 0.0
C337 C 0.86352 0.61016 0.78746 0.0
C338 C 0.86032 0.64923 0.61452 0.0
C339 C 0.90332 0.61777 0.6581 0.0
O340 O 0.88753 0.63521 0.51121 0.0
O341 O 0.89946 0.60597 0.50906 0.0
O342 O 0.89384 0.58548 0.58473 0.0
O343 O 0.86403 0.59016 0.59571 0.0
O344 O 0.85079 0.61665 0.53496 0.0
O345 O 0.83252 0.60476 0.59342 0.0
O346 O 0.85127 0.59208 0.70161 0.0
O347 O 0.83617 0.61981 0.70091 0.0
O348 O 0.84398 0.64194 0.62838 0.0
O349 O 0.87366 0.63666 0.61786 0.0
O350 O 0.8867 0.61139 0.67557 0.0
O351 O 0.90423 0.62301 0.6155 0.0
H352 H 0.92145 0.63237 0.42015 0.0
H353 H 0.91543 0.6306 0.33945 0.0
H354 H 0.85743 0.60876 0.36545 0.0
H355 H 0.86399 0.6099 0.44636 0.0
H356 H 0.81451 0.60297 0.79242 0.0
H357 H 0.82107 0.60607 0.87288 0.0
H358 H 0.88226 0.61397 0.84443 0.0
H359 H 0.87543 0.61131 0.76383 0.0
C360 C 0.59881 0.16804 0.29929 0.0
Eu361 Eu 0.60899 0.15332 0.37697 0.0
C362 C 0.60046 0.16363 0.25068 0.0
C363 C 0.61824 0.15817 0.23097 0.0
C364 C 0.61953 0.15498 0.18452 0.0
C365 C 0.60306 0.15706 0.15676 0.0
C366 C 0.58523 0.16221 0.17683 0.0
C367 C 0.58398 0.16548 0.22318 0.0
C368 C 0.64647 0.15106 0.40658 0.0
C369 C 0.61793 0.10617 0.36424 0.0
C370 C 0.62096 0.11319 0.53529 0.0
Eu371 Eu 0.61321 0.12795 0.45637 0.0
C372 C 0.61893 0.1192 0.58295 0.0
C373 C 0.60117 0.1261 0.60025 0.0
C374 C 0.59944 0.13105 0.64576 0.0
C375 C 0.61548 0.12942 0.67495 0.0
C376 C 0.63332 0.12287 0.65727 0.0
C377 C 0.63499 0.11776 0.61188 0.0
C378 C 0.57667 0.12902 0.42057 0.0
C379 C 0.60717 0.17473 0.47205 0.0
O380 O 0.58753 0.1567 0.32316 0.0
O381 O 0.6147 0.17287 0.32068 0.0
O382 O 0.63819 0.16685 0.39229 0.0
O383 O 0.63465 0.13696 0.40414 0.0
O384 O 0.61028 0.1223 0.34699 0.0
O385 O 0.62339 0.10558 0.40669 0.0
O386 O 0.63377 0.12266 0.51116 0.0
O387 O 0.60498 0.10954 0.513 0.0
O388 O 0.58511 0.11333 0.43488 0.0
O389 O 0.58759 0.14358 0.42708 0.0
O390 O 0.61421 0.15812 0.48712 0.0
O391 O 0.60125 0.17623 0.42982 0.0
H392 H 0.63119 0.15649 0.25135 0.0
H393 H 0.63343 0.15078 0.17038 0.0
H394 H 0.57229 0.16416 0.15657 0.0
H395 H 0.57011 0.16972 0.23752 0.0
H396 H 0.58854 0.12756 0.57874 0.0
H397 H 0.58554 0.13619 0.65805 0.0
H398 H 0.64591 0.12121 0.6788 0.0
H399 H 0.64883 0.11248 0.59943 0.0
C400 C 0.11248 0.38552 0.48989 0.0
Eu401 Eu 0.12686 0.3929 0.56929 0.0
C402 C 0.11879 0.38786 0.44241 0.0
C403 C 0.12273 0.40633 0.42397 0.0
C404 C 0.12771 0.40832 0.37855 0.0
C405 C 0.12901 0.3919 0.3505 0.0
C406 C 0.12553 0.3734 0.36927 0.0
C407 C 0.1204 0.37142 0.41461 0.0
C408 C 0.12893 0.42928 0.60507 0.0
C409 C 0.17388 0.39789 0.55429 0.0
C410 C 0.16697 0.40545 0.7272 0.0
Eu411 Eu 0.15238 0.39594 0.64908 0.0
C412 C 0.16212 0.40348 0.7756 0.0
C413 C 0.15926 0.38517 0.79586 0.0
C414 C 0.15553 0.38372 0.84205 0.0
C415 C 0.15437 0.40053 0.86894 0.0
C416 C 0.15687 0.41882 0.84841 0.0
C417 C 0.16085 0.42025 0.80238 0.0
C418 C 0.14926 0.35887 0.61762 0.0
C419 C 0.10494 0.38854 0.66164 0.0
O420 O 0.12166 0.37252 0.51402 0.0
O421 O 0.10873 0.40137 0.51255 0.0
O422 O 0.11318 0.42154 0.58914 0.0
O423 O 0.1432 0.41788 0.59958 0.0
O424 O 0.15702 0.39175 0.53868 0.0
O425 O 0.17563 0.40323 0.59684 0.0
O426 O 0.15596 0.41706 0.70341 0.0
O427 O 0.17178 0.38969 0.70525 0.0
O428 O 0.16525 0.36668 0.63224 0.0
O429 O 0.13537 0.37089 0.62087 0.0
O430 O 0.12168 0.39406 0.67988 0.0
O431 O 0.10349 0.38469 0.61841 0.0
H432 H 0.12177 0.41932 0.44444 0.0
H433 H 0.13051 0.42275 0.36535 0.0
H434 H 0.12621 0.36045 0.34857 0.0
H435 H 0.11742 0.35702 0.42784 0.0
H436 H 0.16007 0.37195 0.77617 0.0
H437 H 0.15349 0.36943 0.85674 0.0
H438 H 0.15624 0.43204 0.86816 0.0
H439 H 0.16305 0.43453 0.7877 0.0
C440 C 0.40558 0.83332 0.31224 0.0
Eu441 Eu 0.3965 0.85263 0.38475 0.0
C442 C 0.40229 0.83624 0.26363 0.0
C443 C 0.39321 0.85318 0.24758 0.0
C444 C 0.39086 0.8562 0.2013 0.0
C445 C 0.3977 0.84241 0.16991 0.0
C446 C 0.40665 0.82539 0.18649 0.0
C447 C 0.4088 0.82231 0.23278 0.0
C448 C 0.35969 0.865 0.40171 0.0
C449 C 0.39099 0.89933 0.37697 0.0
C450 C 0.38775 0.89129 0.54808 0.0
Eu451 Eu 0.39388 0.87623 0.46849 0.0
C452 C 0.38642 0.88517 0.59578 0.0
C453 C 0.39838 0.87037 0.61316 0.0
C454 C 0.39832 0.86609 0.65922 0.0
C455 C 0.38637 0.87657 0.68912 0.0
C456 C 0.37405 0.89103 0.6713 0.0
C457 C 0.37409 0.89527 0.62521 0.0
C458 C 0.4294 0.87665 0.42704 0.0
C459 C 0.39811 0.82935 0.48042 0.0
O460 O 0.41721 0.8459 0.33153 0.0
O461 O 0.39018 0.82946 0.33665 0.0
O462 O 0.3677 0.86433 0.36244 0.0
O463 O 0.3714 0.85872 0.4314 0.0
O464 O 0.39993 0.88397 0.35955 0.0
O465 O 0.38386 0.89871 0.41817 0.0
O466 O 0.37366 0.88619 0.52092 0.0
O467 O 0.40485 0.88985 0.52928 0.0
O468 O 0.42108 0.89194 0.44381 0.0
O469 O 0.41875 0.8619 0.43318 0.0
O470 O 0.39763 0.8466 0.49975 0.0
O471 O 0.39744 0.82758 0.43603 0.0
H472 H 0.38802 0.86412 0.27087 0.0
H473 H 0.38357 0.86931 0.19024 0.0
H474 H 0.41245 0.81456 0.16374 0.0
H475 H 0.41591 0.80918 0.24447 0.0
H476 H 0.40818 0.86249 0.59131 0.0
H477 H 0.40814 0.85498 0.67154 0.0
H478 H 0.36439 0.89918 0.69301 0.0
H479 H 0.36475 0.90675 0.61267 0.0
C480 C 0.89357 0.88372 0.78713 0.0
Eu481 Eu 0.87888 0.89128 0.70815 0.0
C482 C 0.88754 0.88515 0.83507 0.0
C483 C 0.89375 0.90104 0.86116 0.0
C484 C 0.8889 0.90231 0.90669 0.0
C485 C 0.87788 0.88762 0.92771 0.0
C486 C 0.87146 0.8718 0.90149 0.0
C487 C 0.87626 0.87055 0.85577 0.0
C488 C 0.87757 0.92729 0.6701 0.0
C489 C 0.83145 0.89675 0.72179 0.0
C490 C 0.83888 0.91218 0.55022 0.0
Eu491 Eu 0.8522 0.89651 0.62366 0.0
C492 C 0.84125 0.90895 0.50107 0.0
C493 C 0.83135 0.8939 0.47857 0.0
C494 C 0.83369 0.89124 0.43216 0.0
C495 C 0.84587 0.90364 0.40695 0.0
C496 C 0.85567 0.91874 0.42962 0.0
C497 C 0.85347 0.92127 0.47596 0.0
C498 C 0.85704 0.85765 0.63829 0.0
C499 C 0.89919 0.88547 0.61379 0.0
O500 O 0.88518 0.8705 0.76195 0.0
O501 O 0.89626 0.90015 0.76575 0.0
O502 O 0.89339 0.91931 0.68514 0.0
O503 O 0.86324 0.91608 0.6764 0.0
O504 O 0.84872 0.89242 0.73874 0.0
O505 O 0.82901 0.90048 0.67827 0.0
O506 O 0.85423 0.9187 0.57164 0.0
O507 O 0.82917 0.89911 0.57344 0.0
O508 O 0.8461 0.86492 0.60704 0.0
O509 O 0.86423 0.87137 0.66117 0.0
O510 O 0.88338 0.89357 0.59589 0.0
O511 O 0.89997 0.88042 0.6566 0.0
H512 H 0.90252 0.91251 0.84643 0.0
H513 H 0.89383 0.91489 0.92544 0.0
H514 H 0.86312 0.86009 0.91654 0.0
H515 H 0.87134 0.85802 0.83684 0.0
H516 H 0.82182 0.8841 0.49675 0.0
H517 H 0.82609 0.87929 0.41619 0.0
H518 H 0.86487 0.92886 0.41149 0.0
H519 H 0.86123 0.93308 0.49212 0.0
C520 C 0.89946 0.17052 0.47908 0.0
Eu521 Eu 0.8921 0.15466 0.40089 0.0
C522 C 0.89679 0.16621 0.5274 0.0
C523 C 0.89242 0.18142 0.5571 0.0
C524 C 0.89041 0.17785 0.60318 0.0
C525 C 0.89272 0.15893 0.62074 0.0
C526 C 0.89666 0.14363 0.59054 0.0
C527 C 0.89882 0.14726 0.54447 0.0
C528 C 0.85549 0.15116 0.36687 0.0
C529 C 0.88559 0.10723 0.41386 0.0
C530 C 0.88286 0.11293 0.24322 0.0
Eu531 Eu 0.89021 0.12909 0.32098 0.0
C532 C 0.88419 0.1173 0.19456 0.0
C533 C 0.89122 0.10297 0.16523 0.0
C534 C 0.89212 0.1064 0.11891 0.0
C535 C 0.88598 0.1243 0.10072 0.0
C536 C 0.87912 0.13876 0.13033 0.0
C537 C 0.8782 0.13528 0.17672 0.0
C538 C 0.92623 0.13141 0.35899 0.0
C539 C 0.89594 0.17603 0.30571 0.0
O540 O 0.91185 0.15974 0.45699 0.0
O541 O 0.88375 0.17411 0.45585 0.0
O542 O 0.86309 0.16728 0.38114 0.0
O543 O 0.86758 0.13738 0.37115 0.0
O544 O 0.8915 0.1239 0.43183 0.0
O545 O 0.88135 0.10614 0.37074 0.0
O546 O 0.86992 0.12247 0.26676 0.0
O547 O 0.89927 0.11069 0.26479 0.0
O548 O 0.91883 0.11564 0.34221 0.0
O549 O 0.91477 0.14559 0.35294 0.0
O550 O 0.89006 0.15917 0.28926 0.0
O551 O 0.90017 0.17778 0.34894 0.0
H552 H 0.89068 0.19614 0.54466 0.0
H553 H 0.88692 0.18996 0.62498 0.0
H554 H 0.89857 0.12888 0.60252 0.0
H555 H 0.90231 0.1353 0.5223 0.0
H556 H 0.89595 0.089 0.17817 0.0
H557 H 0.89776 0.09503 0.09737 0.0
H558 H 0.87408 0.15264 0.1176 0.0
H559 H 0.8726 0.14658 0.19853 0.0
C560 C 0.11249 0.12539 0.78543 0.0
Eu561 Eu 0.12761 0.11685 0.7072 0.0
C562 C 0.11714 0.1234 0.83387 0.0
C563 C 0.10288 0.11611 0.86313 0.0
C564 C 0.10648 0.11465 0.90927 0.0
C565 C 0.12444 0.12059 0.92756 0.0
C566 C 0.13888 0.1276 0.89794 0.0
C567 C 0.13528 0.12896 0.85163 0.0
C568 C 0.12908 0.07968 0.67473 0.0
C569 C 0.17436 0.11109 0.72133 0.0
C570 C 0.16702 0.10096 0.5498 0.0
Eu571 Eu 0.15241 0.11181 0.62709 0.0
C572 C 0.16257 0.10277 0.50147 0.0
C573 C 0.14845 0.11585 0.48564 0.0
C574 C 0.14475 0.11749 0.43943 0.0
C575 C 0.1551 0.10606 0.40817 0.0
C576 C 0.169 0.09276 0.42456 0.0
C577 C 0.17269 0.09118 0.47063 0.0
C578 C 0.15012 0.14961 0.65467 0.0
C579 C 0.10531 0.12027 0.6151 0.0
O580 O 0.12291 0.13759 0.76166 0.0
O581 O 0.1086 0.10937 0.76361 0.0
O582 O 0.11343 0.08799 0.68953 0.0
O583 O 0.14343 0.09103 0.67916 0.0
O584 O 0.15808 0.11884 0.73645 0.0
O585 O 0.17528 0.10409 0.67993 0.0
O586 O 0.15517 0.09022 0.57359 0.0
O587 O 0.17214 0.11687 0.57077 0.0
O588 O 0.16586 0.14124 0.64039 0.0
O589 O 0.13606 0.13772 0.65317 0.0
O590 O 0.12131 0.11237 0.59799 0.0
O591 O 0.10501 0.12634 0.65713 0.0
H592 H 0.08882 0.11161 0.85027 0.0
H593 H 0.09514 0.10874 0.93056 0.0
H594 H 0.15284 0.13245 0.91056 0.0
H595 H 0.14663 0.13455 0.82988 0.0
H596 H 0.1404 0.12488 0.50897 0.0
H597 H 0.13405 0.12798 0.42819 0.0
H598 H 0.17698 0.08342 0.40179 0.0
H599 H 0.18352 0.08087 0.48221 0.0
C600 C 0.10256 0.83739 0.48602 0.0
Eu601 Eu 0.11281 0.85201 0.40825 0.0
C602 C 0.10422 0.84211 0.53441 0.0
C603 C 0.12076 0.85142 0.55207 0.0
C604 C 0.12222 0.85508 0.59832 0.0
C605 C 0.10712 0.84965 0.62786 0.0
C606 C 0.09046 0.84063 0.60977 0.0
C607 C 0.08906 0.83689 0.56363 0.0
C608 C 0.15019 0.85457 0.37847 0.0
C609 C 0.12106 0.89939 0.42098 0.0
C610 C 0.12567 0.89271 0.2502 0.0
Eu611 Eu 0.11686 0.87755 0.32826 0.0
C612 C 0.12421 0.88756 0.20198 0.0
C613 C 0.10806 0.87744 0.18473 0.0
C614 C 0.10672 0.87339 0.13864 0.0
C615 C 0.12158 0.87922 0.10885 0.0
C616 C 0.13787 0.88902 0.12651 0.0
C617 C 0.13914 0.89317 0.17249 0.0
C618 C 0.08035 0.87604 0.36386 0.0
C619 C 0.1099 0.83074 0.31259 0.0
O620 O 0.09127 0.84856 0.46189 0.0
O621 O 0.11856 0.83269 0.46488 0.0
O622 O 0.14204 0.83871 0.39289 0.0
O623 O 0.13826 0.86858 0.38071 0.0
O624 O 0.11434 0.88291 0.43864 0.0
O625 O 0.12589 0.90032 0.37814 0.0
O626 O 0.13797 0.88267 0.27441 0.0
O627 O 0.10939 0.8962 0.27155 0.0
O628 O 0.08842 0.8918 0.34865 0.0
O629 O 0.09152 0.86166 0.35787 0.0
O630 O 0.11629 0.8475 0.29662 0.0
O631 O 0.1053 0.82893 0.35566 0.0
H632 H 0.13259 0.85577 0.53018 0.0
H633 H 0.13514 0.86229 0.61092 0.0
H634 H 0.07863 0.83606 0.63142 0.0
H635 H 0.07616 0.8297 0.55079 0.0
H636 H 0.09642 0.87275 0.20681 0.0
H637 H 0.0941 0.86559 0.12635 0.0
H638 H 0.14949 0.8939 0.1046 0.0
H639 H 0.15173 0.90098 0.18499 0.0
H640 H 0.36345 0.92784 0.38518 0.0
H641 H 0.36042 0.95798 0.3414 0.0
H642 H 0.41171 0.94275 0.2659 0.0
H643 H 0.4145 0.91224 0.30866 0.0
H644 H 0.40763 0.98497 0.30718 0.0
H645 H 0.37679 0.93644 0.21112 0.0
H646 H 0.35339 0.90985 0.19742 0.0
H647 H 0.30615 0.94735 0.23515 0.0
H648 H 0.32935 0.97408 0.24979 0.0
H649 H 0.40732 0.05374 0.13194 0.0
H650 H 0.40907 0.0241 0.17696 0.0
H651 H 0.34765 0.02842 0.20559 0.0
H652 H 0.3457 0.05775 0.15853 0.0
H653 H 0.35589 0.99211 0.19212 0.0
H654 H 0.38389 0.0411 0.28349 0.0
H655 H 0.40545 0.06857 0.30278 0.0
H656 H 0.45556 0.03225 0.28322 0.0
H657 H 0.43432 0.00464 0.26286 0.0
C658 C 0.37409 0.93089 0.35926 0.0
C659 C 0.3892 0.91761 0.35035 0.0
C660 C 0.37234 0.94813 0.33428 0.0
C661 C 0.38587 0.95266 0.30049 0.0
C662 C 0.40114 0.93957 0.29192 0.0
C663 C 0.40264 0.9221 0.31619 0.0
C664 C 0.3838 0.97086 0.27354 0.0
C665 C 0.39652 0.98649 0.28157 0.0
C666 C 0.36878 0.97312 0.24151 0.0
C667 C 0.35482 0.95718 0.23202 0.0
C668 C 0.36143 0.93896 0.21689 0.0
C669 C 0.3482 0.92387 0.20887 0.0
C670 C 0.3283 0.92689 0.21554 0.0
C671 C 0.32158 0.94503 0.23007 0.0
C672 C 0.33476 0.96015 0.2382 0.0
C673 C 0.39415 0.04838 0.14772 0.0
C674 C 0.3764 0.05826 0.14207 0.0
C675 C 0.3952 0.03145 0.17383 0.0
C676 C 0.3786 0.02411 0.19577 0.0
C677 C 0.36073 0.03377 0.18942 0.0
C678 C 0.35964 0.05064 0.16275 0.0
C679 C 0.38001 0.00633 0.2249 0.0
C680 C 0.36708 0.99075 0.21761 0.0
C681 C 0.39461 0.00431 0.25838 0.0
C682 C 0.40748 0.02081 0.27121 0.0
C683 C 0.39951 0.03899 0.28297 0.0
C684 C 0.41168 0.05459 0.29411 0.0
C685 C 0.43187 0.05216 0.29413 0.0
C686 C 0.43992 0.03411 0.28312 0.0
C687 C 0.42782 0.01847 0.27178 0.0
H688 H 0.44126 0.06426 0.30276 0.0
H689 H 0.31807 0.91519 0.20934 0.0
H690 H 0.9093 0.6034 0.74341 0.0
H691 H 0.93854 0.60618 0.78987 0.0
H692 H 0.96696 0.63881 0.68479 0.0
H693 H 0.93792 0.63579 0.63793 0.0
H694 H 0.99191 0.6141 0.71809 0.0
H695 H 0.94838 0.66113 0.78315 0.0
H696 H 0.9172 0.672 0.81565 0.0
H697 H 0.92339 0.63081 0.92312 0.0
H698 H 0.95464 0.6196 0.89118 0.0
H699 H 0.05629 0.65931 0.90506 0.0
H700 H 0.02616 0.65926 0.86009 0.0
H701 H 0.02888 0.5967 0.85069 0.0
H702 H 0.05857 0.59664 0.89598 0.0
H703 H 0.9888 0.63896 0.87439 0.0
H704 H 0.01814 0.58598 0.74064 0.0
H705 H 0.04973 0.57669 0.70738 0.0
H706 H 0.07222 0.63385 0.73402 0.0
H707 H 0.0408 0.64353 0.76705 0.0
C708 C 0.9217 0.61129 0.73024 0.0
C709 C 0.92108 0.6195 0.6869 0.0
C710 C 0.93849 0.61291 0.75697 0.0
C711 C 0.95505 0.62296 0.74134 0.0
C712 C 0.95449 0.63098 0.69788 0.0
C713 C 0.93777 0.62928 0.67107 0.0
C714 C 0.97295 0.62507 0.76995 0.0
C715 C 0.99113 0.61956 0.75221 0.0
C716 C 0.97224 0.63242 0.8145 0.0
C717 C 0.95379 0.63946 0.83462 0.0
C718 C 0.94309 0.65437 0.81369 0.0
C719 C 0.92542 0.66059 0.83203 0.0
C720 C 0.91835 0.65209 0.87143 0.0
C721 C 0.92896 0.63739 0.89269 0.0
C722 C 0.94667 0.63113 0.87454 0.0
C723 C 0.05036 0.64557 0.8936 0.0
C724 C 0.05981 0.62798 0.90417 0.0
C725 C 0.0331 0.64554 0.86808 0.0
C726 C 0.0252 0.62797 0.85193 0.0
C727 C 0.03464 0.61044 0.86265 0.0
C728 C 0.05165 0.61044 0.88862 0.0
C729 C 0.00753 0.62777 0.82254 0.0
C730 C 0.98947 0.63356 0.84021 0.0
C731 C 0.00836 0.62093 0.77773 0.0
C732 C 0.02715 0.6154 0.75667 0.0
C733 C 0.02981 0.59659 0.73919 0.0
C734 C 0.04771 0.59125 0.72046 0.0
C735 C 0.06302 0.60465 0.71877 0.0
C736 C 0.06042 0.62345 0.73558 0.0
C737 C 0.04258 0.62886 0.75437 0.0
H738 H 0.07688 0.60049 0.70436 0.0
H739 H 0.90466 0.65692 0.88553 0.0
H740 H 0.60143 0.95319 0.11627 0.0
H741 H 0.6011 0.98414 0.1571 0.0
H742 H 0.66089 0.97543 0.19566 0.0
H743 H 0.66164 0.9448 0.15281 0.0
H744 H 0.62684 0.98532 0.26847 0.0
H745 H 0.66055 0.00628 0.13288 0.0
H746 H 0.66394 0.00941 0.05076 0.0
H747 H 0.60947 0.03989 0.04424 0.0
H748 H 0.60561 0.03665 0.12631 0.0
H749 H 0.64189 0.07504 0.37943 0.0
H750 H 0.64555 0.04557 0.33451 0.0
H751 H 0.60293 0.06713 0.24047 0.0
H752 H 0.5999 0.09713 0.28445 0.0
H753 H 0.62883 0.05009 0.19472 0.0
H754 H 0.59341 0.03029 0.32431 0.0
H755 H 0.5859 0.02604 0.40469 0.0
H756 H 0.63796 0.99231 0.42188 0.0
H757 H 0.64594 0.9966 0.34169 0.0
C758 C 0.6146 0.9579 0.13308 0.0
C759 C 0.63152 0.94636 0.13168 0.0
C760 C 0.61435 0.97561 0.15647 0.0
C761 C 0.63092 0.98208 0.17959 0.0
C762 C 0.6479 0.97068 0.17819 0.0
C763 C 0.64829 0.95314 0.15385 0.0
C764 C 0.63021 1.00055 0.20592 0.0
C765 C 0.62765 0.99952 0.25258 0.0
C766 C 0.63036 0.01903 0.18491 0.0
C767 C 0.63268 0.02101 0.13564 0.0
C768 C 0.64919 0.01345 0.11388 0.0
C769 C 0.65122 0.01529 0.06735 0.0
C770 C 0.6369 0.02478 0.04227 0.0
C771 C 0.62054 0.0325 0.06369 0.0
C772 C 0.61842 0.03068 0.11021 0.0
C773 C 0.6333 0.07356 0.34913 0.0
C774 C 0.6205 0.08847 0.33577 0.0
C775 C 0.63531 0.05655 0.3235 0.0
C776 C 0.6242 0.05369 0.28435 0.0
C777 C 0.61167 0.06878 0.27048 0.0
C778 C 0.60991 0.08598 0.29574 0.0
C779 C 0.6257 0.03508 0.25797 0.0
C780 C 0.62821 0.03599 0.21108 0.0
C781 C 0.62503 0.01643 0.27874 0.0
C782 C 0.62039 0.01397 0.32709 0.0
C783 C 0.60335 0.02212 0.34531 0.0
C784 C 0.59899 0.01967 0.39083 0.0
C785 C 0.61147 0.00896 0.41841 0.0
C786 C 0.62833 1.00064 0.4005 0.0
C787 C 0.63277 0.00307 0.35501 0.0
H788 H 0.60806 0.00706 0.45363 0.0
H789 H 0.63851 0.02621 1.00626 0.0
H790 H 0.9436 0.4084 0.8726 0.0
H791 H 0.97365 0.40758 0.82817 0.0
H792 H 0.98135 0.34704 0.86174 0.0
H793 H 0.95075 0.34758 0.90502 0.0
H794 H 0.01598 0.37543 0.87528 0.0
H795 H 0.96979 0.35172 0.76767 0.0
H796 H 0.94089 0.35081 0.71882 0.0
H797 H 0.95852 0.40441 0.65663 0.0
H798 H 0.98727 0.40597 0.70599 0.0
H799 H 0.09835 0.36306 0.73044 0.0
H800 H 0.06836 0.35906 0.7742 0.0
H801 H 0.04249 0.40714 0.70218 0.0
H802 H 0.07193 0.40994 0.65619 0.0
H803 H 0.01673 0.38209 0.70951 0.0
H804 H 0.06039 0.40854 0.82382 0.0
H805 H 0.09116 0.40844 0.86701 0.0
H806 H 0.07933 0.35023 0.91197 0.0
H807 H 0.04843 0.35012 0.86996 0.0
C808 C 0.95165 0.39488 0.87041 0.0
C809 C 0.94485 0.37807 0.89245 0.0
C810 C 0.9688 0.39443 0.84491 0.0
C811 C 0.9798 0.37727 0.84163 0.0
C812 C 0.97312 0.36045 0.86382 0.0
C813 C 0.95564 0.36076 0.88844 0.0
C814 C 0.99839 0.3772 0.81562 0.0
C815 C 0.01616 0.3767 0.83897 0.0
C816 C 0.99869 0.37924 0.76833 0.0
C817 C 0.98058 0.3791 0.74109 0.0
C818 C 0.96729 0.36357 0.74438 0.0
C819 C 0.95094 0.36291 0.71645 0.0
C820 C 0.94781 0.37761 0.68482 0.0
C821 C 0.96092 0.39309 0.68131 0.0
C822 C 0.97721 0.39389 0.70934 0.0
C823 C 0.08622 0.37277 0.72426 0.0
C824 C 0.08738 0.38682 0.69012 0.0
C825 C 0.06909 0.37064 0.7496 0.0
C826 C 0.05304 0.38307 0.74256 0.0
C827 C 0.05448 0.39729 0.70858 0.0
C828 C 0.07134 0.39898 0.68235 0.0
C829 C 0.03449 0.38095 0.76904 0.0
C830 C 0.01665 0.381 0.74584 0.0
C831 C 0.03413 0.37879 0.81647 0.0
C832 C 0.05219 0.37929 0.84363 0.0
C833 C 0.06435 0.39578 0.84316 0.0
C834 C 0.08178 0.39578 0.86746 0.0
C835 C 0.0872 0.37936 0.89218 0.0
C836 C 0.0751 0.36299 0.89307 0.0
C837 C 0.05757 0.36299 0.86927 0.0
H838 H 0.10077 0.37934 0.91064 0.0
H839 H 0.93536 0.37694 0.6627 0.0
H840 H 0.4096 0.44504 0.14969 0.0
H841 H 0.4106 0.47568 0.10794 0.0
H842 H 0.34785 0.47705 0.10515 0.0
H843 H 0.34679 0.44614 0.14695 0.0
H844 H 0.39747 0.48441 0.02491 0.0
H845 H 0.33422 0.5261 0.11004 0.0
H846 H 0.31817 0.52837 0.18402 0.0
H847 H 0.37053 0.50884 0.24849 0.0
H848 H 0.38694 0.50667 0.175 0.0
H849 H 0.37316 0.56614 0.89143 0.0
H850 H 0.37095 0.53688 0.93777 0.0
H851 H 0.39492 0.56833 0.05018 0.0
H852 H 0.39697 0.59785 1.00409 0.0
H853 H 0.36576 0.54508 0.07781 0.0
H854 H 0.42312 0.5375 0.98845 0.0
H855 H 0.4424 0.53659 0.91862 0.0
H856 H 0.40727 0.48942 0.86959 0.0
H857 H 0.38758 0.49025 0.93889 0.0
C858 C 0.39598 0.45188 0.14037 0.0
C859 C 0.3781 0.44317 0.15172 0.0
C860 C 0.39659 0.46939 0.11631 0.0
C861 C 0.37932 0.4788 0.10347 0.0
C862 C 0.36139 0.4702 0.11498 0.0
C863 C 0.36078 0.4525 0.13875 0.0
C864 C 0.38026 0.49739 0.07737 0.0
C865 C 0.39043 0.49763 0.03642 0.0
C866 C 0.37148 0.51483 0.09265 0.0
C867 C 0.36171 0.51599 0.13696 0.0
C868 C 0.3423 0.5223 0.14002 0.0
C869 C 0.33314 0.52357 0.18186 0.0
C870 C 0.3433 0.51867 0.22091 0.0
C871 C 0.36265 0.51253 0.21821 0.0
C872 C 0.37187 0.51123 0.17646 0.0
C873 C 0.37792 0.56693 0.92604 0.0
C874 C 0.38534 0.58442 0.94384 0.0
C875 C 0.37669 0.5501 0.95254 0.0
C876 C 0.38298 0.55024 0.99744 0.0
C877 C 0.38998 0.56779 0.01566 0.0
C878 C 0.3912 0.58467 0.98916 0.0
C879 C 0.38263 0.53198 0.0249 0.0
C880 C 0.37263 0.53181 0.0661 0.0
C881 C 0.3919 0.51466 1.0103 0.0
C882 C 0.40376 0.51407 0.96868 0.0
C883 C 0.41941 0.52703 0.96263 0.0
C884 C 0.43043 0.52652 0.92317 0.0
C885 C 0.42603 0.51299 0.88964 0.0
C886 C 0.41064 0.49991 0.89556 0.0
C887 C 0.39955 0.50039 0.93494 0.0
H888 H 0.43458 0.51261 0.85911 0.0
H889 H 0.33619 0.51969 0.25327 0.0
H890 H 0.59658 0.5938 0.04566 0.0
H891 H 0.56673 0.59489 1.00121 0.0
H892 H 0.54769 0.64529 0.07577 0.0
H893 H 0.57696 0.64329 0.12241 0.0
H894 H 0.51803 0.62433 0.06378 0.0
H895 H 0.56718 0.64624 0.95466 0.0
H896 H 0.59821 0.64231 0.91369 0.0
H897 H 0.57931 0.58659 0.86495 0.0
H898 H 0.54804 0.5904 0.90477 0.0
H899 H 0.44566 0.65594 0.90394 0.0
H900 H 0.47632 0.65458 0.94663 0.0
H901 H 0.48518 0.59546 0.90289 0.0
H902 H 0.45422 0.59638 0.86232 0.0
H903 H 0.51967 0.62046 0.8975 0.0
H904 H 0.47065 0.59876 0.99835 0.0
H905 H 0.43981 0.59978 0.0405 0.0
H906 H 0.45872 0.65155 0.10852 0.0
H907 H 0.48948 0.65118 0.06568 0.0
C908 C 0.58606 0.60518 0.05242 0.0
C909 C 0.58924 0.61854 0.08747 0.0
C910 C 0.56898 0.60593 0.02659 0.0
C911 C 0.55491 0.62054 0.03386 0.0
C912 C 0.55816 0.63388 0.06901 0.0
C913 C 0.57498 0.63278 0.09569 0.0
C914 C 0.53668 0.62177 1.0058 0.0
C915 C 0.51854 0.62389 0.0274 0.0
C916 C 0.53691 0.62046 0.95817 0.0
C917 C 0.55533 0.6186 0.93267 0.0
C918 C 0.56963 0.63322 0.93495 0.0
C919 C 0.58723 0.63102 0.91186 0.0
C920 C 0.5907 0.61423 0.88664 0.0
C921 C 0.57654 0.59965 0.88423 0.0
C922 C 0.55883 0.60188 0.90674 0.0
C923 C 0.45408 0.64263 0.90369 0.0
C924 C 0.44728 0.62617 0.88033 0.0
C925 C 0.47166 0.64189 0.92791 0.0
C926 C 0.48308 0.62487 0.92817 0.0
C927 C 0.4767 0.60875 0.90325 0.0
C928 C 0.45893 0.60931 0.88011 0.0
C929 C 0.5013 0.62358 0.9556 0.0
C930 C 0.5193 0.62127 0.93387 0.0
C931 C 0.50093 0.62455 1.00308 0.0
C932 C 0.48227 0.62512 0.02826 0.0
C933 C 0.46812 0.61056 0.02171 0.0
C934 C 0.45066 0.61099 0.04581 0.0
C935 C 0.44729 0.62574 0.07709 0.0
C936 C 0.46133 0.64016 0.08416 0.0
C937 C 0.47877 0.63988 0.0599 0.0
H938 H 0.43384 0.6259 0.09599 0.0
H939 H 0.60433 0.6125 0.86891 0.0
H940 H 0.66115 0.55543 0.14802 0.0
H941 H 0.66021 0.52492 0.1046 0.0
H942 H 0.59762 0.52838 0.09867 0.0
H943 H 0.59845 0.55851 0.14251 0.0
H944 H 0.63938 0.48805 0.12239 0.0
H945 H 0.58579 0.51632 0.98954 0.0
H946 H 0.57596 0.54773 0.95608 0.0
H947 H 0.63322 0.57069 0.97905 0.0
H948 H 0.64345 0.53944 1.01221 0.0
H949 H 0.60375 0.40763 0.99413 0.0
H950 H 0.60633 0.43717 0.03963 0.0
H951 H 0.63923 0.465 0.93416 0.0
H952 H 0.63635 0.43567 0.88819 0.0
H953 H 0.61413 0.49005 0.96632 0.0
H954 H 0.66103 0.44644 0.03375 0.0
H955 H 0.67129 0.4154 0.06804 0.0
H956 H 0.62993 0.42332 0.17452 0.0
H957 H 0.61931 0.45441 0.14074 0.0
C958 C 0.6472 0.54958 0.13769 0.0
C959 C 0.62988 0.55935 0.14879 0.0
C960 C 0.64667 0.53212 0.11305 0.0
C961 C 0.62883 0.52433 0.09832 0.0
C962 C 0.61155 0.53407 0.10958 0.0
C963 C 0.61205 0.5513 0.13472 0.0
C964 C 0.62817 0.50642 0.06986 0.0
C965 C 0.63389 0.48848 0.08826 0.0
C966 C 0.62111 0.50694 0.02521 0.0
C967 C 0.61532 0.52557 1.00369 0.0
C968 C 0.59631 0.52804 0.98718 0.0
C969 C 0.59066 0.54584 0.96836 0.0
C970 C 0.60394 0.56123 0.96561 0.0
C971 C 0.62293 0.55881 0.9814 0.0
C972 C 0.62865 0.54106 1.00026 0.0
C973 C 0.61166 0.41996 0.98068 0.0
C974 C 0.61997 0.41911 0.93749 0.0
C975 C 0.61315 0.43692 1.00685 0.0
C976 C 0.62322 0.4534 0.9908 0.0
C977 C 0.63138 0.45259 0.94753 0.0
C978 C 0.62978 0.43571 0.92125 0.0
C979 C 0.62524 0.47147 0.0188 0.0
C980 C 0.61968 0.48952 1.00039 0.0
C981 C 0.63257 0.47105 0.06338 0.0
C982 C 0.63931 0.45269 0.08454 0.0
C983 C 0.6541 0.44155 0.06444 0.0
C984 C 0.65997 0.42396 0.0838 0.0
C985 C 0.65124 0.4174 0.12342 0.0
C986 C 0.63667 0.42846 0.14388 0.0
C987 C 0.63076 0.44609 0.1247 0.0
H988 H 0.65579 0.40376 0.1383 0.0
H989 H 0.59954 0.57501 0.95124 0.0
H990 H 0.43715 0.37282 0.14428 0.0
H991 H 0.4665 0.37065 0.09819 0.0
H992 H 0.4336 0.38787 0.98153 0.0
H993 H 0.40405 0.39 0.02745 0.0
H994 H 0.45902 0.35871 0.96086 0.0
H995 H 0.46193 0.42047 0.03515 0.0
H996 H 0.46126 0.44278 0.09996 0.0
H997 H 0.51108 0.41403 0.15631 0.0
H998 H 0.51184 0.39133 0.09214 0.0
H999 H 0.55521 0.40821 0.87773 0.0
H1000 H 0.52484 0.40816 0.92048 0.0
H1001 H 0.52786 0.34564 0.93231 0.0
H1002 H 0.55833 0.34564 0.88889 0.0
H1003 H 0.51681 0.39786 1.00383 0.0
H1004 H 0.48066 0.32752 0.93725 0.0
H1005 H 0.48004 0.30752 0.86845 0.0
H1006 H 0.49503 0.35765 0.78932 0.0
H1007 H 0.49549 0.37798 0.85753 0.0
C1008 C 0.43606 0.37607 0.10878 0.0
C1009 C 0.41815 0.38169 0.08978 0.0
C1010 C 0.45294 0.37487 0.08242 0.0
C1011 C 0.45241 0.37927 0.03632 0.0
C1012 C 0.43446 0.3844 0.01696 0.0
C1013 C 0.41755 0.38569 0.04338 0.0
C1014 C 0.47067 0.37908 1.00878 0.0
C1015 C 0.47167 0.36722 0.97039 0.0
C1016 C 0.48718 0.39039 0.02055 0.0
C1017 C 0.48682 0.40408 0.05906 0.0
C1018 C 0.47265 0.4188 0.06153 0.0
C1019 C 0.47226 0.43153 0.09813 0.0
C1020 C 0.48609 0.42979 0.13229 0.0
C1021 C 0.50036 0.41534 0.12986 0.0
C1022 C 0.50078 0.40254 0.09337 0.0
C1023 C 0.54938 0.39441 0.88921 0.0
C1024 C 0.5592 0.37692 0.87979 0.0
C1025 C 0.53202 0.39441 0.9139 0.0
C1026 C 0.52387 0.37691 0.92962 0.0
C1027 C 0.53365 0.35935 0.92022 0.0
C1028 C 0.55112 0.35935 0.89553 0.0
C1029 C 0.50532 0.37726 0.95619 0.0
C1030 C 0.50424 0.3892 0.99445 0.0
C1031 C 0.48867 0.36626 0.94384 0.0
C1032 C 0.48833 0.35421 0.90258 0.0
C1033 C 0.48378 0.33428 0.90514 0.0
C1034 C 0.48345 0.32289 0.86626 0.0
C1035 C 0.48756 0.3313 0.82456 0.0
C1036 C 0.49194 0.35113 0.82165 0.0
C1037 C 0.49226 0.36259 0.86043 0.0
H1038 H 0.48731 0.32245 0.7945 0.0
H1039 H 0.48577 0.43966 0.16059 0.0
H1040 H 0.87131 0.40337 0.78168 0.0
H1041 H 0.8672 0.43214 0.73397 0.0
H1042 H 0.89107 0.46822 0.8392 0.0
H1043 H 0.89367 0.43971 0.88787 0.0
H1044 H 0.86497 0.4876 0.8054 0.0
H1045 H 0.91716 0.45138 0.73491 0.0
H1046 H 0.93152 0.42199 0.70113 0.0
H1047 H 0.88727 0.42186 0.59934 0.0
H1048 H 0.87259 0.45131 0.63269 0.0
H1049 H 0.90732 0.55254 0.61518 0.0
H1050 H 0.90648 0.52195 0.6571 0.0
H1051 H 0.84518 0.52996 0.68234 0.0
H1052 H 0.84599 0.56076 0.64024 0.0
H1053 H 0.88845 0.48812 0.64795 0.0
H1054 H 0.83469 0.51131 0.78805 0.0
H1055 H 0.82464 0.54057 0.83015 0.0
H1056 H 0.8793 0.56799 0.79991 0.0
H1057 H 0.88979 0.53882 0.75818 0.0
C1058 C 0.87562 0.41748 0.79454 0.0
C1059 C 0.88284 0.41928 0.83851 0.0
C1060 C 0.87342 0.43398 0.76707 0.0
C1061 C 0.8792 0.45256 0.78221 0.0
C1062 C 0.88639 0.45423 0.82633 0.0
C1063 C 0.88796 0.43787 0.85423 0.0
C1064 C 0.87779 0.47032 0.75272 0.0
C1065 C 0.87008 0.48758 0.77093 0.0
C1066 C 0.88451 0.47067 0.7076 0.0
C1067 C 0.89373 0.45346 0.68644 0.0
C1068 C 0.91053 0.4451 0.70526 0.0
C1069 C 0.91873 0.42844 0.68614 0.0
C1070 C 0.91037 0.42009 0.64794 0.0
C1071 C 0.89378 0.4284 0.6288 0.0
C1072 C 0.88555 0.44511 0.64771 0.0
C1073 C 0.89361 0.54776 0.62942 0.0
C1074 C 0.87674 0.55917 0.62456 0.0
C1075 C 0.89313 0.53018 0.65331 0.0
C1076 C 0.87582 0.52358 0.67333 0.0
C1077 C 0.85881 0.53477 0.66775 0.0
C1078 C 0.85926 0.55238 0.6436 0.0
C1079 C 0.87587 0.50533 0.70101 0.0
C1080 C 0.88323 0.48801 0.68234 0.0
C1081 C 0.86936 0.50504 0.74615 0.0
C1082 C 0.86291 0.52296 0.76956 0.0
C1083 C 0.84453 0.52361 0.79027 0.0
C1084 C 0.83878 0.54016 0.81412 0.0
C1085 C 0.85133 0.55609 0.81767 0.0
C1086 C 0.86958 0.55563 0.79701 0.0
C1087 C 0.87542 0.53911 0.77318 0.0
H1088 H 0.84696 0.5687 0.83679 0.0
H1089 H 0.91672 0.40717 0.6332 0.0
H1090 H 0.55178 0.15965 0.40414 0.0
H1091 H 0.52049 0.1587 0.36418 0.0
H1092 H 0.5292 0.09766 0.33627 0.0
H1093 H 0.55962 0.09839 0.37834 0.0
H1094 H 0.50811 0.15364 0.2868 0.0
H1095 H 0.48811 0.07231 0.32388 0.0
H1096 H 0.49178 0.04826 0.38483 0.0
H1097 H 0.4988 0.09446 0.48055 0.0
H1098 H 0.49491 0.11879 0.42031 0.0
H1099 H 0.43491 0.12435 0.13417 0.0
H1100 H 0.4642 0.12783 0.17995 0.0
H1101 H 0.43056 0.1161 0.29938 0.0
H1102 H 0.40142 0.11177 0.2535 0.0
H1103 H 0.46203 0.09887 0.3095 0.0
H1104 H 0.44789 0.1636 0.26822 0.0
H1105 H 0.43999 0.19111 0.21824 0.0
H1106 H 0.49474 0.1842 0.15045 0.0
H1107 H 0.50285 0.15644 0.19961 0.0
C1108 C 0.54687 0.14603 0.38973 0.0
C1109 C 0.55802 0.12904 0.39505 0.0
C1110 C 0.52898 0.14548 0.36666 0.0
C1111 C 0.52198 0.12798 0.34778 0.0
C1112 C 0.53365 0.11122 0.3517 0.0
C1113 C 0.55122 0.11167 0.37559 0.0
C1114 C 0.50271 0.12716 0.32369 0.0
C1115 C 0.49808 0.14165 0.29196 0.0
C1116 C 0.48902 0.11193 0.33098 0.0
C1117 C 0.49146 0.09737 0.36743 0.0
C1118 C 0.49041 0.07734 0.35794 0.0
C1119 C 0.49252 0.06366 0.39237 0.0
C1120 C 0.4956 0.06983 0.4365 0.0
C1121 C 0.49651 0.0897 0.44632 0.0
C1122 C 0.49438 0.10344 0.41203 0.0
C1123 C 0.43371 0.12254 0.17019 0.0
C1124 C 0.4157 0.11785 0.19001 0.0
C1125 C 0.45053 0.12468 0.19652 0.0
C1126 C 0.44975 0.12263 0.24356 0.0
C1127 C 0.43175 0.11782 0.26332 0.0
C1128 C 0.41499 0.11539 0.23694 0.0
C1129 C 0.46771 0.12506 0.27193 0.0
C1130 C 0.47207 0.11087 0.30444 0.0
C1131 C 0.48064 0.14106 0.26692 0.0
C1132 C 0.47591 0.15781 0.23735 0.0
C1133 C 0.4582 0.16785 0.24245 0.0
C1134 C 0.45368 0.18351 0.2143 0.0
C1135 C 0.46684 0.18937 0.18113 0.0
C1136 C 0.48455 0.17963 0.17613 0.0
C1137 C 0.48913 0.16394 0.20416 0.0
H1138 H 0.46332 0.2015 0.15936 0.0
H1139 H 0.49724 0.05921 0.46311 0.0
H1140 H 0.13639 0.56971 0.89344 0.0
H1141 H 0.13939 0.54112 0.84509 0.0
H1142 H 0.10709 0.57062 0.7412 0.0
H1143 H 0.10444 0.59945 0.789 0.0
H1144 H 0.11256 0.51739 0.81032 0.0
H1145 H 0.12011 0.5528 0.6388 0.0
H1146 H 0.12937 0.58451 0.60606 0.0
H1147 H 0.17003 0.59384 0.71329 0.0
H1148 H 0.16118 0.56208 0.74651 0.0
H1149 H 0.09782 0.45113 0.62986 0.0
H1150 H 0.09746 0.48153 0.67249 0.0
H1151 H 0.16014 0.48098 0.67831 0.0
H1152 H 0.1606 0.45023 0.63563 0.0
H1153 H 0.14098 0.51971 0.65717 0.0
H1154 H 0.13774 0.46546 0.76427 0.0
H1155 H 0.12234 0.43496 0.79027 0.0
H1156 H 0.06793 0.46464 0.80734 0.0
H1157 H 0.08278 0.49519 0.78029 0.0
C1158 C 0.12999 0.57019 0.86023 0.0
C1159 C 0.12028 0.587 0.84517 0.0
C1160 C 0.13168 0.55376 0.83257 0.0
C1161 C 0.12371 0.55365 0.78909 0.0
C1162 C 0.11377 0.57036 0.77413 0.0
C1163 C 0.1122 0.58688 0.80167 0.0
C1164 C 0.12557 0.5359 0.76011 0.0
C1165 C 0.11892 0.51795 0.77699 0.0
C1166 C 0.13349 0.53652 0.71607 0.0
C1167 C 0.13991 0.55509 0.69522 0.0
C1168 C 0.13118 0.56152 0.65515 0.0
C1169 C 0.13631 0.57952 0.6366 0.0
C1170 C 0.15027 0.59117 0.65764 0.0
C1171 C 0.15923 0.58478 0.69709 0.0
C1172 C 0.15415 0.56678 0.71581 0.0
C1173 C 0.11158 0.45751 0.63986 0.0
C1174 C 0.12925 0.44821 0.62942 0.0
C1175 C 0.11133 0.47493 0.66425 0.0
C1176 C 0.12875 0.48359 0.67868 0.0
C1177 C 0.14651 0.47463 0.66736 0.0
C1178 C 0.14676 0.45702 0.64319 0.0
C1179 C 0.1282 0.5013 0.70779 0.0
C1180 C 0.13492 0.51919 0.69079 0.0
C1181 C 0.11988 0.50077 0.75131 0.0
C1182 C 0.11135 0.48261 0.76997 0.0
C1183 C 0.12248 0.46548 0.77346 0.0
C1184 C 0.11386 0.44818 0.78835 0.0
C1185 C 0.09421 0.44788 0.80042 0.0
C1186 C 0.08316 0.4649 0.79796 0.0
C1187 C 0.09166 0.48221 0.78284 0.0
H1188 H 0.08753 0.43446 0.81155 0.0
H1189 H 0.15412 0.60516 0.64337 0.0
H1190 H 0.56953 0.88616 0.13566 0.0
H1191 H 0.54005 0.88442 0.18114 0.0
H1192 H 0.575 0.8812 0.3013 0.0
H1193 H 0.60459 0.88393 0.25583 0.0
H1194 H 0.52415 0.8597 0.23058 0.0
H1195 H 0.55107 0.89849 0.39155 0.0
H1196 H 0.57479 0.92377 0.41353 0.0
H1197 H 0.57111 0.94926 0.28208 0.0
H1198 H 0.54722 0.92428 0.25952 0.0
H1199 H 0.4518 0.84579 0.3993 0.0
H1200 H 0.48226 0.8469 0.35631 0.0
H1201 H 0.47844 0.90957 0.35031 0.0
H1202 H 0.44852 0.90849 0.39472 0.0
H1203 H 0.51373 0.90153 0.36398 0.0
H1204 H 0.4671 0.87727 0.2585 0.0
H1205 H 0.44213 0.85555 0.22623 0.0
H1206 H 0.48181 0.80738 0.23334 0.0
H1207 H 0.50692 0.82874 0.26621 0.0
C1208 C 0.57098 0.88511 0.1718 0.0
C1209 C 0.5895 0.88526 0.192 0.0
C1210 C 0.55403 0.88406 0.1979 0.0
C1211 C 0.55505 0.8829 0.24501 0.0
C1212 C 0.5736 0.88257 0.26523 0.0
C1213 C 0.5906 0.88401 0.23911 0.0
C1214 C 0.53669 0.88197 0.27246 0.0
C1215 C 0.52194 0.86885 0.25981 0.0
C1216 C 0.53342 0.8941 0.31027 0.0
C1217 C 0.54751 0.90939 0.32375 0.0
C1218 C 0.55527 0.90954 0.36742 0.0
C1219 C 0.56876 0.92381 0.37996 0.0
C1220 C 0.5745 0.93807 0.34918 0.0
C1221 C 0.5667 0.93816 0.30585 0.0
C1222 C 0.5532 0.92394 0.29316 0.0
C1223 C 0.45751 0.85979 0.38881 0.0
C1224 C 0.44777 0.87705 0.4005 0.0
C1225 C 0.4749 0.86043 0.36393 0.0
C1226 C 0.48274 0.87833 0.3493 0.0
C1227 C 0.47292 0.89555 0.36113 0.0
C1228 C 0.45572 0.89492 0.38649 0.0
C1229 C 0.50115 0.87925 0.32205 0.0
C1230 C 0.51594 0.89233 0.33485 0.0
C1231 C 0.50419 0.86757 0.2834 0.0
C1232 C 0.48884 0.85457 0.2652 0.0
C1233 C 0.47042 0.862 0.25367 0.0
C1234 C 0.45626 0.84976 0.23517 0.0
C1235 C 0.46041 0.8301 0.22775 0.0
C1236 C 0.47864 0.82261 0.23912 0.0
C1237 C 0.49283 0.83477 0.25767 0.0
H1238 H 0.44957 0.82067 0.21292 0.0
H1239 H 0.58496 0.94909 0.35893 0.0
H1240 H 0.8477 0.95357 0.66343 0.0
H1241 H 0.84782 0.9849 0.62393 0.0
H1242 H 0.90604 0.97325 0.57619 0.0
H1243 H 0.9064 0.94284 0.61876 0.0
H1244 H 0.90587 0.00792 0.59524 0.0
H1245 H 0.85816 0.97022 0.50915 0.0
H1246 H 0.82771 0.95151 0.49853 0.0
H1247 H 0.7945 0.99919 0.5509 0.0
H1248 H 0.82462 0.01821 0.56178 0.0
H1249 H 0.8755 0.07039 0.38722 0.0
H1250 H 0.8734 0.04089 0.43261 0.0
H1251 H 0.88883 0.07378 0.5507 0.0
H1252 H 0.89138 0.10334 0.50515 0.0
H1253 H 0.85135 0.0296 0.49851 0.0
H1254 H 0.91287 0.04454 0.62538 0.0
H1255 H 0.9441 0.06219 0.63059 0.0
H1256 H 0.9515 0.05779 0.48778 0.0
H1257 H 0.92043 0.03992 0.48178 0.0
C1258 C 0.86048 0.95777 0.64442 0.0
C1259 C 0.87705 0.9458 0.64425 0.0
C1260 C 0.86051 0.97565 0.62135 0.0
C1261 C 0.87682 0.98159 0.59595 0.0
C1262 C 0.89325 0.96932 0.59547 0.0
C1263 C 0.89345 0.95182 0.61972 0.0
C1264 C 0.87721 1.00063 0.57076 0.0
C1265 C 0.89388 0.01254 0.57409 0.0
C1266 C 0.86167 0.00708 0.54306 0.0
C1267 C 0.84364 0.99554 0.53667 0.0
C1268 C 0.84437 0.97664 0.51863 0.0
C1269 C 0.82719 0.966 0.51253 0.0
C1270 C 0.80925 0.9741 0.52427 0.0
C1271 C 0.80841 0.99291 0.54192 0.0
C1272 C 0.82551 0.00365 0.54795 0.0
C1273 C 0.87846 0.07144 0.42285 0.0
C1274 C 0.8837 0.08938 0.44232 0.0
C1275 C 0.87719 0.05447 0.4489 0.0
C1276 C 0.88113 0.05489 0.49521 0.0
C1277 C 0.88604 0.07286 0.51497 0.0
C1278 C 0.8874 0.08986 0.48883 0.0
C1279 C 0.88012 0.03649 0.52232 0.0
C1280 C 0.86331 0.02486 0.51964 0.0
C1281 C 0.89563 0.03014 0.55004 0.0
C1282 C 0.91425 0.04104 0.55313 0.0
C1283 C 0.92119 0.0473 0.59511 0.0
C1284 C 0.93887 0.05732 0.59821 0.0
C1285 C 0.94981 0.06104 0.55956 0.0
C1286 C 0.94303 0.05486 0.51769 0.0
C1287 C 0.92536 0.04483 0.51441 0.0
H1288 H 0.96351 0.06876 0.56204 0.0
H1289 H 0.796 0.96581 0.51954 0.0
H1290 H 0.09664 0.10238 0.535 0.0
H1291 H 0.06695 0.10547 0.49022 0.0
H1292 H 0.04439 0.14724 0.58504 0.0
H1293 H 0.07362 0.14349 0.63087 0.0
H1294 H 0.01645 0.1256 0.56417 0.0
H1295 H 0.06291 0.15934 0.47484 0.0
H1296 H 0.09351 0.16463 0.43328 0.0
H1297 H 0.07942 0.11738 0.34471 0.0
H1298 H 0.04882 0.11161 0.38616 0.0
H1299 H 0.94287 0.16167 0.40658 0.0
H1300 H 0.9735 0.16101 0.44953 0.0
H1301 H 0.9844 0.10258 0.40347 0.0
H1302 H 0.95342 0.10271 0.36287 0.0
H1303 H 0.01776 0.13413 0.39883 0.0
H1304 H 0.9694 0.10247 0.49361 0.0
H1305 H 0.93884 0.10072 0.53683 0.0
H1306 H 0.95723 0.14898 0.61785 0.0
H1307 H 0.98749 0.15172 0.57362 0.0
C1308 C 0.08538 0.11228 0.54624 0.0
C1309 C 0.08758 0.12268 0.58663 0.0
C1310 C 0.06838 0.11415 0.52037 0.0
C1311 C 0.05332 0.12684 0.53356 0.0
C1312 C 0.05562 0.1373 0.57385 0.0
C1313 C 0.07245 0.13518 0.60008 0.0
C1314 C 0.03501 0.1289 0.50623 0.0
C1315 C 0.01686 0.12777 0.52811 0.0
C1316 C 0.03524 0.13158 0.45892 0.0
C1317 C 0.05364 0.13494 0.43388 0.0
C1318 C 0.06639 0.14998 0.44672 0.0
C1319 C 0.08373 0.15308 0.42314 0.0
C1320 C 0.08841 0.14135 0.3864 0.0
C1321 C 0.07577 0.12646 0.37318 0.0
C1322 C 0.05841 0.12328 0.39668 0.0
C1323 C 0.95171 0.14864 0.40597 0.0
C1324 C 0.9455 0.13212 0.38195 0.0
C1325 C 0.96926 0.14832 0.43029 0.0
C1326 C 0.98121 0.1317 0.4299 0.0
C1327 C 0.97543 0.11554 0.40435 0.0
C1328 C 0.95768 0.11565 0.38119 0.0
C1329 C 0.99948 0.13082 0.45696 0.0
C1330 C 0.01753 0.13211 0.43495 0.0
C1331 C 0.99917 0.12878 0.50426 0.0
C1332 C 0.98064 0.12749 0.52978 0.0
C1333 C 0.96678 0.113 0.51993 0.0
C1334 C 0.94954 0.11177 0.54475 0.0
C1335 C 0.94621 0.12462 0.58024 0.0
C1336 C 0.95988 0.13901 0.5904 0.0
C1337 C 0.97703 0.14047 0.5653 0.0
H1338 H 0.93312 0.12331 0.60013 0.0
H1339 H 0.1018 0.14384 0.36811 0.0
H1340 H 0.11541 0.90326 0.51233 0.0
H1341 H 0.11759 0.93307 0.55754 0.0
H1342 H 0.13356 0.96571 0.43942 0.0
H1343 H 0.13139 0.93617 0.39418 0.0
H1344 H 0.14696 0.9593 0.57583 0.0
H1345 H 0.11188 0.01048 0.44443 0.0
H1346 H 0.08838 0.00876 0.38192 0.0
H1347 H 0.06112 0.95897 0.44269 0.0
H1348 H 0.08425 0.96059 0.50588 0.0
H1349 H 0.16044 0.05945 0.64063 0.0
H1350 H 0.15992 0.02835 0.59977 0.0
H1351 H 0.09756 0.02549 0.61545 0.0
H1352 H 0.09801 0.05653 0.65549 0.0
H1353 H 0.1066 0.01618 0.53268 0.0
H1354 H 0.12899 0.99677 0.67857 0.0
H1355 H 0.15046 0.99748 0.7449 0.0
H1356 H 0.19937 0.98209 0.66245 0.0
H1357 H 0.17823 0.98154 0.59549 0.0
C1358 C 0.11946 0.91676 0.49597 0.0
C1359 C 0.12312 0.91723 0.44941 0.0
C1360 C 0.12078 0.93381 0.52195 0.0
C1361 C 0.12556 0.95177 0.50196 0.0
C1362 C 0.12961 0.95216 0.4557 0.0
C1363 C 0.1284 0.93515 0.42981 0.0
C1364 C 0.12578 0.97021 0.52889 0.0
C1365 C 0.13816 0.97174 0.56631 0.0
C1366 C 0.11413 0.98645 0.51713 0.0
C1367 C 0.09994 0.98555 0.47963 0.0
C1368 C 0.10082 0.99922 0.44454 0.0
C1369 C 0.08757 0.99826 0.40898 0.0
C1370 C 0.07331 0.98373 0.40826 0.0
C1371 C 0.07222 0.97018 0.4432 0.0
C1372 C 0.0854 0.9711 0.47887 0.0
C1373 C 0.14665 0.05213 0.63545 0.0
C1374 C 0.12927 0.06048 0.65137 0.0
C1375 C 0.14635 0.03429 0.61221 0.0
C1376 C 0.12869 0.02436 0.60458 0.0
C1377 C 0.11138 0.03276 0.62064 0.0
C1378 C 0.11168 0.05052 0.6438 0.0
C1379 C 0.12802 0.00545 0.57934 0.0
C1380 C 0.11551 0.00381 0.54215 0.0
C1381 C 0.13934 0.98904 0.59177 0.0
C1382 C 0.15207 0.9893 0.63197 0.0
C1383 C 0.14435 0.99368 0.67453 0.0
C1384 C 0.15646 0.99403 0.71225 0.0
C1385 C 0.17628 0.98988 0.70787 0.0
C1386 C 0.18402 0.98532 0.66578 0.0
C1387 C 0.17198 0.98498 0.62794 0.0
H1388 H 0.18562 0.99016 0.73712 0.0
H1389 H 0.06308 0.98299 0.38067 0.0
H1390 H 0.05722 0.84437 0.38308 0.0
H1391 H 0.02545 0.84426 0.42098 0.0
H1392 H 0.02962 0.90646 0.43942 0.0
H1393 H 0.06066 0.90667 0.39957 0.0
H1394 H 0.01253 0.85119 0.49806 0.0
H1395 H 0.98694 0.92867 0.44488 0.0
H1396 H 0.99013 0.95095 0.38026 0.0
H1397 H 1.00105 0.90239 0.29311 0.0
H1398 H 0.99768 0.8798 0.35708 0.0
H1399 H 0.93666 0.8803 0.64238 0.0
H1400 H 0.96611 0.87728 0.59736 0.0
H1401 H 0.93186 0.88107 0.47625 0.0
H1402 H 0.90232 0.88513 0.52151 0.0
H1403 H 0.96212 0.90044 0.4622 0.0
H1404 H 0.95341 0.8365 0.51893 0.0
H1405 H 0.94795 0.81082 0.57548 0.0
H1406 H 1.00152 0.8261 0.64085 0.0
H1407 H 0.00717 0.85208 0.58506 0.0
C1408 C 0.05122 0.85801 0.39494 0.0
C1409 C 0.06132 0.87556 0.38776 0.0
C1410 C 0.03306 0.85796 0.41682 0.0
C1411 C 0.02469 0.87542 0.43248 0.0
C1412 C 0.03521 0.89284 0.42651 0.0
C1413 C 0.05311 0.89294 0.40391 0.0
C1414 C 0.0052 0.87548 0.45556 0.0
C1415 C 1.00153 0.86195 0.49003 0.0
C1416 C 0.99038 0.8891 0.44465 0.0
C1417 C 0.99222 0.90257 0.40588 0.0
C1418 C 0.98993 0.92274 0.41189 0.0
C1419 C 0.99179 0.93543 0.37538 0.0
C1420 C 0.99584 0.9281 0.33263 0.0
C1421 C 0.99798 0.90806 0.32627 0.0
C1422 C 0.99612 0.89531 0.36265 0.0
C1423 C 0.93532 0.88038 0.60614 0.0
C1424 C 0.91701 0.88283 0.58568 0.0
C1425 C 0.95226 0.87851 0.58026 0.0
C1426 C 0.9514 0.87848 0.53305 0.0
C1427 C 0.93309 0.88097 0.5125 0.0
C1428 C 0.91613 0.88323 0.53846 0.0
C1429 C 0.96963 0.87642 0.50541 0.0
C1430 C 0.97307 0.8896 0.4701 0.0
C1431 C 0.98392 0.862 0.51442 0.0
C1432 C 0.98063 0.84635 0.548 0.0
C1433 C 0.96396 0.83447 0.54554 0.0
C1434 C 0.96084 0.81985 0.57744 0.0
C1435 C 0.97436 0.81686 0.61179 0.0
C1436 C 0.99105 0.82845 0.61424 0.0
C1437 C 0.99423 0.84311 0.58247 0.0
H1438 H 0.97191 0.80553 0.63645 0.0
H1439 H 0.99729 0.93794 0.30443 0.0
H1440 H 0.39568 0.1688 0.14545 0.0
H1441 H 0.39737 0.20442 0.14503 0.0
H1442 H 0.33792 0.20693 0.09832 0.0
H1443 H 0.33688 0.17123 0.0955 0.0
H1444 H 0.35566 0.23592 0.06463 0.0
H1445 H 0.35322 0.21085 0.2168 0.0
H1446 H 0.36496 0.19054 0.27958 0.0
H1447 H 0.4201 0.22005 0.27623 0.0
H1448 H 0.40872 0.24043 0.2132 0.0
H1449 H 0.32749 0.32726 0.15045 0.0
H1450 H 0.33161 0.29215 0.14146 0.0
H1451 H 0.39329 0.29817 0.16437 0.0
H1452 H 0.38925 0.33354 0.1733 0.0
H1453 H 0.37719 0.26572 0.20806 0.0
H1454 H 0.37774 0.29306 0.06014 0.0
H1455 H 0.36537 0.31325 0.99789 0.0
H1456 H 0.31283 0.27935 0.99419 0.0
H1457 H 0.32475 0.25914 0.05692 0.0
C1458 C 0.38322 0.17703 0.13376 0.0
C1459 C 0.36623 0.16737 0.12009 0.0
C1460 C 0.38405 0.19741 0.13422 0.0
C1461 C 0.36754 0.20857 0.12324 0.0
C1462 C 0.35086 0.19881 0.10729 0.0
C1463 C 0.35026 0.17839 0.10546 0.0
C1464 C 0.36723 0.23018 0.13055 0.0
C1465 C 0.36018 0.24234 0.09622 0.0
C1466 C 0.37355 0.23886 0.17135 0.0
C1467 C 0.38017 0.22705 0.21013 0.0
C1468 C 0.36785 0.21298 0.22946 0.0
C1469 C 0.37444 0.20146 0.26505 0.0
C1470 C 0.39328 0.20398 0.28183 0.0
C1471 C 0.40552 0.21811 0.26321 0.0
C1472 C 0.39899 0.22968 0.22761 0.0
C1473 C 0.34193 0.32113 0.15401 0.0
C1474 C 0.35807 0.33323 0.16228 0.0
C1475 C 0.34427 0.30103 0.14863 0.0
C1476 C 0.3628 0.2925 0.15146 0.0
C1477 C 0.37886 0.30441 0.16178 0.0
C1478 C 0.37654 0.32462 0.16692 0.0
C1479 C 0.3653 0.27126 0.14248 0.0
C1480 C 0.37276 0.25923 0.17646 0.0
C1481 C 0.35921 0.26268 0.10155 0.0
C1482 C 0.35208 0.27468 0.06349 0.0
C1483 C 0.36349 0.28999 0.04627 0.0
C1484 C 0.35657 0.30143 1.01087 0.0
C1485 C 0.33831 0.29761 0.99216 0.0
C1486 C 0.32696 0.28231 1.00874 0.0
C1487 C 0.3338 0.27085 0.0442 0.0
H1488 H 0.33298 0.30648 0.96475 0.0
H1489 H 0.39837 0.195 0.30929 0.0
H1490 H 0.33005 0.67467 0.86561 0.0
H1491 H 0.29487 0.67177 0.87514 0.0
H1492 H 0.30042 0.60949 0.88852 0.0
H1493 H 0.33586 0.61233 0.87804 0.0
H1494 H 0.26765 0.61866 0.84187 0.0
H1495 H 0.2955 0.6379 0.98133 0.0
H1496 H 0.31604 0.65749 0.03201 0.0
H1497 H 0.28295 0.70861 0.99958 0.0
H1498 H 0.26239 0.68938 0.94813 0.0
H1499 H 0.1696 0.61424 0.92739 0.0
H1500 H 0.20512 0.61055 0.92178 0.0
H1501 H 0.21121 0.67287 0.90968 0.0
H1502 H 0.17605 0.67659 0.91646 0.0
H1503 H 0.23871 0.65965 0.9616 0.0
H1504 H 0.21238 0.63971 0.81696 0.0
H1505 H 0.19196 0.61921 0.76781 0.0
H1506 H 0.2222 0.56814 0.81298 0.0
H1507 H 0.24262 0.58831 0.86283 0.0
C1508 C 0.32379 0.66031 0.87002 0.0
C1509 C 0.33579 0.64375 0.87144 0.0
C1510 C 0.30363 0.65867 0.87574 0.0
C1511 C 0.29491 0.64045 0.88366 0.0
C1512 C 0.30675 0.62373 0.8828 0.0
C1513 C 0.32701 0.62536 0.87676 0.0
C1514 C 0.27365 0.63922 0.89463 0.0
C1515 C 0.26137 0.6274 0.86849 0.0
C1516 C 0.26529 0.65062 0.92931 0.0
C1517 C 0.27749 0.66222 0.96061 0.0
C1518 C 0.29267 0.65335 0.98479 0.0
C1519 C 0.30431 0.66438 1.01367 0.0
C1520 C 0.30082 0.68429 0.01895 0.0
C1521 C 0.28564 0.69319 0.99543 0.0
C1522 C 0.27398 0.68222 0.96644 0.0
C1523 C 0.17857 0.62714 0.92408 0.0
C1524 C 0.16996 0.64571 0.92218 0.0
C1525 C 0.19889 0.62502 0.92045 0.0
C1526 C 0.21098 0.64141 0.91444 0.0
C1527 C 0.20235 0.65996 0.91411 0.0
C1528 C 0.18216 0.66207 0.91794 0.0
C1529 C 0.23256 0.63959 0.90791 0.0
C1530 C 0.24496 0.6508 0.93512 0.0
C1531 C 0.24098 0.62752 0.87444 0.0
C1532 C 0.22888 0.61549 0.84395 0.0
C1533 C 0.21459 0.6241 0.81659 0.0
C1534 C 0.20303 0.61254 0.78859 0.0
C1535 C 0.20575 0.59238 0.78739 0.0
C1536 C 0.22009 0.58375 0.81402 0.0
C1537 C 0.23166 0.59523 0.84211 0.0
H1538 H 0.19679 0.58344 0.76578 0.0
H1539 H 0.30985 0.69281 0.04132 0.0
H1540 H 0.6804 0.8296 0.11408 0.0
H1541 H 0.67721 0.79427 0.11832 0.0
H1542 H 0.61468 0.79974 0.12117 0.0
H1543 H 0.61786 0.83542 0.11746 0.0
H1544 H 0.62701 0.77407 0.18437 0.0
H1545 H 0.63775 0.78254 0.02768 0.0
H1546 H 0.65396 0.79514 0.9597 0.0
H1547 H 0.70682 0.76607 0.99719 0.0
H1548 H 0.69102 0.75353 0.06578 0.0
H1549 H 0.61826 0.66931 0.16034 0.0
H1550 H 0.61521 0.70478 0.15169 0.0
H1551 H 0.67774 0.70992 0.1454 0.0
H1552 H 0.68081 0.67468 0.1536 0.0
H1553 H 0.66141 0.73008 0.07892 0.0
H1554 H 0.65115 0.72399 0.23871 0.0
H1555 H 0.63487 0.71158 0.30681 0.0
H1556 H 0.58068 0.73608 0.26253 0.0
H1557 H 0.5966 0.7484 0.19382 0.0
C1558 C 0.66594 0.82332 0.11508 0.0
C1559 C 0.64939 0.83535 0.1153 0.0
C1560 C 0.66412 0.80305 0.11741 0.0
C1561 C 0.64569 0.79419 0.11973 0.0
C1562 C 0.62906 0.80616 0.11938 0.0
C1563 C 0.63089 0.82655 0.11691 0.0
C1564 C 0.64407 0.77251 0.12377 0.0
C1565 C 0.63422 0.76444 0.1608 0.0
C1566 C 0.65369 0.75983 0.09351 0.0
C1567 C 0.66322 0.7672 0.05207 0.0
C1568 C 0.65287 0.77894 0.0216 0.0
C1569 C 0.66198 0.78605 0.98293 0.0
C1570 C 0.68142 0.78143 0.97418 0.0
C1571 C 0.69177 0.76964 1.00403 0.0
C1572 C 0.68273 0.7625 0.04278 0.0
C1573 C 0.63134 0.67806 0.15772 0.0
C1574 C 0.64978 0.66915 0.15758 0.0
C1575 C 0.62959 0.69836 0.15275 0.0
C1576 C 0.64625 0.71015 0.1478 0.0
C1577 C 0.66464 0.70123 0.14882 0.0
C1578 C 0.66639 0.68104 0.15376 0.0
C1579 C 0.64477 0.73165 0.1401 0.0
C1580 C 0.65403 0.73969 0.10226 0.0
C1581 C 0.63456 0.74424 0.16953 0.0
C1582 C 0.62501 0.73692 0.21089 0.0
C1583 C 0.63572 0.72659 0.24332 0.0
C1584 C 0.62657 0.7196 0.28206 0.0
C1585 C 0.60674 0.72299 0.28893 0.0
C1586 C 0.59603 0.73343 0.25712 0.0
C1587 C 0.60512 0.74043 0.21829 0.0
H1588 H 0.59968 0.71756 0.31894 0.0
H1589 H 0.68845 0.78697 0.94423 0.0
H1590 H 0.83507 0.39167 0.91703 0.0
H1591 H 0.79967 0.39474 0.90683 0.0
H1592 H 0.7941 0.33219 0.9089 0.0
H1593 H 0.82922 0.32907 0.91897 0.0
H1594 H 0.77557 0.34757 0.83737 0.0
H1595 H 0.77877 0.3604 0.99669 0.0
H1596 H 0.78985 0.37785 0.06436 0.0
H1597 H 0.76606 0.43118 1.01289 0.0
H1598 H 0.75506 0.41408 0.94457 0.0
H1599 H 0.6757 0.32873 0.86331 0.0
H1600 H 0.71088 0.33219 0.87065 0.0
H1601 H 0.70502 0.39472 0.87038 0.0
H1602 H 0.66946 0.39127 0.86378 0.0
H1603 H 0.72966 0.38345 0.9356 0.0
H1604 H 0.72416 0.3706 0.7793 0.0
H1605 H 0.71299 0.35359 0.71115 0.0
H1606 H 0.74136 0.30124 0.75496 0.0
H1607 H 0.75247 0.31786 0.82374 0.0
C1608 C 0.82622 0.37861 0.91613 0.0
C1609 C 0.83499 0.36012 0.91866 0.0
C1610 C 0.80598 0.38037 0.9102 0.0
C1611 C 0.79414 0.36368 0.90684 0.0
C1612 C 0.80287 0.34529 0.911 0.0
C1613 C 0.82298 0.34353 0.91701 0.0
C1614 C 0.77283 0.36509 0.89696 0.0
C1615 C 0.76552 0.35528 0.85913 0.0
C1616 C 0.75972 0.37575 0.92423 0.0
C1617 C 0.7663 0.38601 0.96529 0.0
C1618 C 0.77606 0.37589 0.99961 0.0
C1619 C 0.78229 0.3857 0.03813 0.0
C1620 C 0.77872 0.40562 0.04286 0.0
C1621 C 0.76885 0.41576 1.00913 0.0
C1622 C 0.76261 0.40601 0.97053 0.0
C1623 C 0.68188 0.34325 0.86426 0.0
C1624 C 0.66976 0.35972 0.86281 0.0
C1625 C 0.70206 0.34522 0.86836 0.0
C1626 C 0.71077 0.36372 0.87069 0.0
C1627 C 0.69872 0.38027 0.86861 0.0
C1628 C 0.67841 0.3783 0.86448 0.0
C1629 C 0.73234 0.3655 0.87662 0.0
C1630 C 0.73971 0.37592 0.91357 0.0
C1631 C 0.74558 0.3555 0.84836 0.0
C1632 C 0.73904 0.34545 0.80687 0.0
C1633 C 0.72791 0.35542 0.77457 0.0
C1634 C 0.7216 0.34585 0.73579 0.0
C1635 C 0.72643 0.32633 0.72877 0.0
C1636 C 0.73762 0.31636 0.76046 0.0
C1637 C 0.74395 0.32585 0.79933 0.0
H1638 H 0.72152 0.31895 0.69873 0.0
H1639 H 0.78355 0.4132 0.0727 0.0
H1640 H 0.83345 0.67737 0.59956 0.0
H1641 H 0.83765 0.71269 0.60452 0.0
H1642 H 0.89858 0.7049 0.63407 0.0
H1643 H 0.89449 0.66934 0.62841 0.0
H1644 H 0.87832 0.73182 0.69353 0.0
H1645 H 0.88891 0.72142 0.53675 0.0
H1646 H 0.8817 0.70806 0.46174 0.0
H1647 H 0.8273 0.73877 0.45961 0.0
H1648 H 0.83404 0.75207 0.53494 0.0
H1649 H 0.88816 0.83755 0.67521 0.0
H1650 H 0.89341 0.80202 0.67257 0.0
H1651 H 0.83683 0.79467 0.61184 0.0
H1652 H 0.83199 0.82971 0.61303 0.0
H1653 H 0.86155 0.77509 0.56594 0.0
H1654 H 0.84844 0.78202 0.72507 0.0
H1655 H 0.8543 0.79482 0.80125 0.0
H1656 H 0.9119 0.7706 0.80015 0.0
H1657 H 0.90646 0.75786 0.72368 0.0
C1658 C 0.8478 0.68317 0.60659 0.0
C1659 C 0.86364 0.67059 0.61335 0.0
C1660 C 0.85018 0.70337 0.60952 0.0
C1661 C 0.86843 0.71148 0.61973 0.0
C1662 C 0.88436 0.69897 0.62626 0.0
C1663 C 0.88204 0.67869 0.62263 0.0
C1664 C 0.87052 0.73305 0.62358 0.0
C1665 C 0.87503 0.74134 0.66546 0.0
C1666 C 0.86597 0.74547 0.58718 0.0
C1667 C 0.86193 0.73764 0.54166 0.0
C1668 C 0.87534 0.72521 0.52044 0.0
C1669 C 0.87135 0.71767 0.47783 0.0
C1670 C 0.85404 0.72254 0.45596 0.0
C1671 C 0.8407 0.73501 0.4766 0.0
C1672 C 0.84461 0.74257 0.51924 0.0
C1673 C 0.87679 0.82823 0.66209 0.0
C1674 C 0.85968 0.83638 0.6443 0.0
C1675 C 0.87977 0.80793 0.66048 0.0
C1676 C 0.86554 0.79551 0.64176 0.0
C1677 C 0.84818 0.80379 0.62591 0.0
C1678 C 0.84536 0.82388 0.62689 0.0
C1679 C 0.86858 0.77403 0.63646 0.0
C1680 C 0.8651 0.76569 0.59406 0.0
C1681 C 0.8739 0.76163 0.67252 0.0
C1682 C 0.87714 0.76921 0.71848 0.0
C1683 C 0.86241 0.77956 0.74095 0.0
C1684 C 0.86565 0.78678 0.78419 0.0
C1685 C 0.88348 0.78358 0.80547 0.0
C1686 C 0.89811 0.7731 0.78359 0.0
C1687 C 0.89495 0.76587 0.74031 0.0
H1688 H 0.88596 0.78919 0.83894 0.0
H1689 H 0.85098 0.71668 0.42298 0.0
H1690 H 0.82818 0.17956 0.36087 0.0
H1691 H 0.79284 0.17628 0.36543 0.0
H1692 H 0.7986 0.11379 0.37162 0.0
H1693 H 0.83422 0.11707 0.36754 0.0
H1694 H 0.76566 0.15944 0.3149 0.0
H1695 H 0.76159 0.09592 0.43998 0.0
H1696 H 0.78171 0.08035 0.4985 0.0
H1697 H 0.81051 0.13478 0.52376 0.0
H1698 H 0.79039 0.15071 0.46585 0.0
H1699 H 0.66809 0.11733 0.40993 0.0
H1700 H 0.70355 0.11418 0.40106 0.0
H1701 H 0.70883 0.1767 0.39492 0.0
H1702 H 0.67361 0.17989 0.40327 0.0
H1703 H 0.73583 0.12692 0.44699 0.0
H1704 H 0.74173 0.1895 0.3164 0.0
H1705 H 0.7215 0.20486 0.25784 0.0
H1706 H 0.68882 0.15192 0.24305 0.0
H1707 H 0.70904 0.13615 0.30095 0.0
C1708 C 0.82194 0.16509 0.36277 0.0
C1709 C 0.83403 0.14859 0.36409 0.0
C1710 C 0.80169 0.16322 0.36532 0.0
C1711 C 0.79294 0.14481 0.36952 0.0
C1712 C 0.80495 0.12819 0.36911 0.0
C1713 C 0.82531 0.13006 0.36643 0.0
C1714 C 0.77135 0.14334 0.37553 0.0
C1715 C 0.75918 0.15244 0.34397 0.0
C1716 C 0.76272 0.13373 0.41274 0.0
C1717 C 0.77465 0.12442 0.44822 0.0
C1718 C 0.77218 0.10456 0.45815 0.0
C1719 C 0.78358 0.09568 0.49119 0.0
C1720 C 0.79744 0.10655 0.51471 0.0
C1721 C 0.79984 0.12636 0.5054 0.0
C1722 C 0.78845 0.13531 0.47244 0.0
C1723 C 0.67687 0.13039 0.40721 0.0
C1724 C 0.66801 0.14887 0.40689 0.0
C1725 C 0.69714 0.12857 0.40213 0.0
C1726 C 0.7089 0.14518 0.39641 0.0
C1727 C 0.7001 0.16364 0.39831 0.0
C1728 C 0.67993 0.16545 0.40331 0.0
C1729 C 0.73022 0.14345 0.38691 0.0
C1730 C 0.7423 0.13375 0.4177 0.0
C1731 C 0.73881 0.15246 0.34888 0.0
C1732 C 0.72681 0.16171 0.31333 0.0
C1733 C 0.7303 0.18111 0.30047 0.0
C1734 C 0.71882 0.18989 0.26742 0.0
C1735 C 0.70385 0.17939 0.24683 0.0
C1736 C 0.70038 0.16006 0.25912 0.0
C1737 C 0.71183 0.1512 0.29208 0.0
H1738 H 0.69497 0.18623 0.22131 0.0
H1739 H 0.80627 0.09964 0.54022 0.0
H1740 H 0.17785 0.33172 0.61273 0.0
H1741 H 0.17475 0.29636 0.61649 0.0
H1742 H 0.11224 0.3017 0.62201 0.0
H1743 H 0.11532 0.33739 0.6186 0.0
H1744 H 0.12549 0.27588 0.68477 0.0
H1745 H 0.13406 0.28495 0.52755 0.0
H1746 H 0.1493 0.29779 0.45863 0.0
H1747 H 0.20269 0.26868 0.49166 0.0
H1748 H 0.18787 0.25589 0.56116 0.0
H1749 H 0.11647 0.17129 0.65959 0.0
H1750 H 0.1133 0.20677 0.65148 0.0
H1751 H 0.17571 0.21194 0.64077 0.0
H1752 H 0.1789 0.17668 0.64842 0.0
H1753 H 0.15847 0.23234 0.57592 0.0
H1754 H 0.15048 0.22563 0.73622 0.0
H1755 H 0.13522 0.21298 0.80533 0.0
H1756 H 0.08039 0.23756 0.76577 0.0
H1757 H 0.09528 0.25014 0.69608 0.0
C1758 C 0.16341 0.32539 0.61425 0.0
C1759 C 0.14684 0.33738 0.61523 0.0
C1760 C 0.16164 0.30512 0.61631 0.0
C1761 C 0.14325 0.29623 0.61922 0.0
C1762 C 0.1266 0.30816 0.61974 0.0
C1763 C 0.12836 0.32855 0.61746 0.0
C1764 C 0.1417 0.27455 0.62291 0.0
C1765 C 0.13237 0.26634 0.66048 0.0
C1766 C 0.15092 0.26202 0.59171 0.0
C1767 C 0.15988 0.26958 0.54977 0.0
C1768 C 0.14909 0.2814 0.5203 0.0
C1769 C 0.15765 0.28865 0.48109 0.0
C1770 C 0.17696 0.28408 0.47081 0.0
C1771 C 0.18773 0.27221 0.49968 0.0
C1772 C 0.17925 0.26494 0.53896 0.0
C1773 C 0.1295 0.18005 0.65605 0.0
C1774 C 0.14794 0.17115 0.65456 0.0
C1775 C 0.12768 0.20034 0.65142 0.0
C1776 C 0.14427 0.21214 0.64546 0.0
C1777 C 0.16267 0.20323 0.64501 0.0
C1778 C 0.16449 0.18304 0.64962 0.0
C1779 C 0.14267 0.23366 0.63833 0.0
C1780 C 0.1514 0.24185 0.59999 0.0
C1781 C 0.13287 0.24612 0.66878 0.0
C1782 C 0.12394 0.23863 0.7107 0.0
C1783 C 0.13513 0.2282 0.74208 0.0
C1784 C 0.12656 0.22107 0.78139 0.0
C1785 C 0.10684 0.22441 0.78987 0.0
C1786 C 0.09566 0.23495 0.75911 0.0
C1787 C 0.10416 0.24209 0.71972 0.0
H1788 H 0.10023 0.21888 0.82032 0.0
H1789 H 0.18356 0.28971 0.44045 0.0
H1790 H 0.33542 0.88073 0.34068 0.0
H1791 H 0.29999 0.88072 0.34033 0.0
H1792 H 0.29951 0.85418 0.47163 0.0
H1793 H 0.33544 0.85412 0.4721 0.0
H1794 H 0.27701 0.84906 0.34129 0.0
H1795 H 0.25589 0.86833 0.52256 0.0
H1796 H 0.26857 0.88739 0.58644 0.0
H1797 H 0.29842 0.92561 0.49524 0.0
H1798 H 0.28579 0.90688 0.43088 0.0
H1799 H 0.17753 0.82595 0.37986 0.0
H1800 H 0.21282 0.82935 0.38701 0.0
H1801 H 0.20704 0.89187 0.38581 0.0
H1802 H 0.17153 0.88852 0.37891 0.0
H1803 H 0.23254 0.87963 0.45187 0.0
H1804 H 0.2232 0.86841 0.29378 0.0
H1805 H 0.21084 0.8509 0.22734 0.0
H1806 H 0.24245 0.79977 0.26679 0.0
H1807 H 0.25479 0.8169 0.33381 0.0
C1808 C 0.32784 0.87505 0.36982 0.0
C1809 C 0.33827 0.86725 0.40627 0.0
C1810 C 0.30752 0.87502 0.36947 0.0
C1811 C 0.29698 0.8673 0.40568 0.0
C1812 C 0.3073 0.86027 0.44327 0.0
C1813 C 0.32782 0.86026 0.4436 0.0
C1814 C 0.27531 0.8658 0.40229 0.0
C1815 C 0.26732 0.85568 0.36566 0.0
C1816 C 0.26256 0.8746 0.43362 0.0
C1817 C 0.27004 0.88609 0.472 0.0
C1818 C 0.26511 0.88084 0.51618 0.0
C1819 C 0.2723 0.89157 0.55246 0.0
C1820 C 0.28434 0.90767 0.54491 0.0
C1821 C 0.28917 0.9131 0.50105 0.0
C1822 C 0.28203 0.9024 0.46468 0.0
C1823 C 0.18376 0.84044 0.38074 0.0
C1824 C 0.17171 0.85696 0.37861 0.0
C1825 C 0.20397 0.84237 0.38489 0.0
C1826 C 0.21269 0.86087 0.38689 0.0
C1827 C 0.20069 0.87743 0.38452 0.0
C1828 C 0.18041 0.87551 0.38015 0.0
C1829 C 0.2343 0.86281 0.39095 0.0
C1830 C 0.24225 0.87293 0.42768 0.0
C1831 C 0.24709 0.85417 0.35943 0.0
C1832 C 0.23977 0.84388 0.31902 0.0
C1833 C 0.2274 0.85339 0.28845 0.0
C1834 C 0.22042 0.84354 0.25067 0.0
C1835 C 0.22582 0.82422 0.24291 0.0
C1836 C 0.23826 0.81473 0.27287 0.0
C1837 C 0.24527 0.8245 0.31073 0.0
H1838 H 0.2204 0.81662 0.21364 0.0
H1839 H 0.28989 0.91595 0.57303 0.0
H1840 H 0.2043 0.08409 0.72695 0.0
H1841 H 0.23024 0.08254 0.78429 0.0
H1842 H 0.2091 0.13575 0.84306 0.0
H1843 H 0.18294 0.137 0.78744 0.0
H1844 H 0.25633 0.12705 0.82018 0.0
H1845 H 0.19621 0.10989 0.90224 0.0
H1846 H 0.16646 0.09 0.90955 0.0
H1847 H 0.2009 0.03789 0.91071 0.0
H1848 H 0.23084 0.05745 0.90173 0.0
H1849 H 0.28935 0.11421 0.07096 0.0
H1850 H 0.26299 0.11459 1.01471 0.0
H1851 H 0.30329 0.09499 0.91348 0.0
H1852 H 0.32937 0.09479 0.96844 0.0
H1853 H 0.24574 0.0877 0.958 0.0
H1854 H 0.29382 0.11662 0.81343 0.0
H1855 H 0.32381 0.1359 0.80306 0.0
H1856 H 0.31368 0.16506 0.92825 0.0
H1857 H 0.28334 0.14638 0.93887 0.0
C1858 C 0.20531 0.09553 0.75186 0.0
C1859 C 0.19146 0.11064 0.75254 0.0
C1860 C 0.22009 0.0946 0.78474 0.0
C1861 C 0.22158 0.10898 0.8183 0.0
C1862 C 0.20825 0.12443 0.8178 0.0
C1863 C 0.19326 0.1251 0.78587 0.0
C1864 C 0.23665 0.10782 0.85469 0.0
C1865 C 0.25407 0.11836 0.85017 0.0
C1866 C 0.23366 0.09677 0.8943 0.0
C1867 C 0.21572 0.0851 0.90065 0.0
C1868 C 0.19743 0.09418 0.90346 0.0
C1869 C 0.18053 0.08298 0.90804 0.0
C1870 C 0.18179 0.06271 0.91063 0.0
C1871 C 0.19995 0.05359 0.90863 0.0
C1872 C 0.21688 0.06472 0.90369 0.0
C1873 C 0.29253 0.10981 0.03683 0.0
C1874 C 0.31166 0.10467 0.02454 0.0
C1875 C 0.27742 0.11003 1.00458 0.0
C1876 C 0.2811 0.10518 0.95929 0.0
C1877 C 0.29999 0.09922 0.94768 0.0
C1878 C 0.31498 0.09907 0.97955 0.0
C1879 C 0.26562 0.1069 0.92361 0.0
C1880 C 0.24809 0.09643 0.92811 0.0
C1881 C 0.26851 0.1181 0.88394 0.0
C1882 C 0.28638 0.12994 0.87713 0.0
C1883 C 0.29791 0.12724 0.8386 0.0
C1884 C 0.315 0.13803 0.83273 0.0
C1885 C 0.32073 0.15156 0.86511 0.0
C1886 C 0.30927 0.1545 0.90327 0.0
C1887 C 0.29211 0.14384 0.90921 0.0
H1888 H 0.33402 0.15982 0.86054 0.0
H1889 H 0.1687 0.05406 0.91425 0.0
H1890 H 0.10277 0.71206 0.96686 0.0
H1891 H 0.1016 0.73901 0.0213 0.0
H1892 H 0.1093 0.69821 0.12983 0.0
H1893 H 0.11071 0.67153 0.0762 0.0
H1894 H 0.08119 0.72523 0.15048 0.0
H1895 H 0.14708 0.72576 0.09251 0.0
H1896 H 0.17183 0.72762 0.03262 0.0
H1897 H 0.15028 0.78376 0.99318 0.0
H1898 H 0.12523 0.78212 0.0525 0.0
H1899 H 0.1056 0.79108 0.32928 0.0
H1900 H 0.10419 0.76453 0.27402 0.0
H1901 H 0.10768 0.80649 0.16643 0.0
H1902 H 0.10976 0.83271 0.22099 0.0
H1903 H 0.12939 0.77893 0.14378 0.0
H1904 H 0.06425 0.78019 0.19788 0.0
H1905 H 0.03763 0.77955 0.25343 0.0
H1906 H 0.05463 0.72216 0.29471 0.0
H1907 H 0.08161 0.72255 0.23993 0.0
C1908 C 0.10413 0.70881 1.00231 0.0
C1909 C 0.10683 0.68945 0.01677 0.0
C1910 C 0.10352 0.72428 0.03353 0.0
C1911 C 0.10544 0.72078 0.08004 0.0
C1912 C 0.10773 0.70145 0.09441 0.0
C1913 C 0.10857 0.6861 0.06338 0.0
C1914 C 0.10551 0.73708 0.11394 0.0
C1915 C 0.09186 0.73688 0.14924 0.0
C1916 C 0.11902 0.75268 0.11205 0.0
C1917 C 0.13416 0.75372 0.07663 0.0
C1918 C 0.14753 0.73844 0.07085 0.0
C1919 C 0.16163 0.73946 0.03705 0.0
C1920 C 0.16259 0.75577 1.00903 0.0
C1921 C 0.1495 0.77112 1.01486 0.0
C1922 C 0.13536 0.77016 0.04858 0.0
C1923 C 0.10595 0.79463 0.29386 0.0
C1924 C 0.10784 0.81415 0.27995 0.0
C1925 C 0.10507 0.7794 0.26205 0.0
C1926 C 0.10566 0.78328 0.21543 0.0
C1927 C 0.10731 0.80282 0.20181 0.0
C1928 C 0.10843 0.81793 0.23338 0.0
C1929 C 0.105 0.76722 0.18066 0.0
C1930 C 0.11861 0.7674 0.14517 0.0
C1931 C 0.09118 0.75182 0.1819 0.0
C1932 C 0.0751 0.75151 0.21515 0.0
C1933 C 0.06244 0.7675 0.2191 0.0
C1934 C 0.04728 0.76717 0.25042 0.0
C1935 C 0.04451 0.75085 0.27772 0.0
C1936 C 0.05687 0.7348 0.27366 0.0
C1937 C 0.07209 0.73507 0.24248 0.0
H1938 H 0.03275 0.7506 0.30191 0.0
H1939 H 0.17352 0.75653 0.98288 0.0
H1940 H 0.67517 0.91273 0.9717 0.0
H1941 H 0.70101 0.91409 0.91571 0.0
H1942 H 0.74125 0.88963 1.01152 0.0
H1943 H 0.71532 0.88914 0.06863 0.0
H1944 H 0.7601 0.91446 0.96407 0.0
H1945 H 0.71738 0.86238 0.92172 0.0
H1946 H 0.68582 0.84723 0.90322 0.0
H1947 H 0.67918 0.88613 0.79132 0.0
H1948 H 0.71058 0.90173 0.80957 0.0
H1949 H 0.83082 0.88335 0.8082 0.0
H1950 H 0.80471 0.88468 0.86303 0.0
H1951 H 0.76764 0.91294 0.76616 0.0
H1952 H 0.79389 0.91119 0.70992 0.0
H1953 H 0.74698 0.88708 0.81297 0.0
H1954 H 0.79157 0.93771 0.8546 0.0
H1955 H 0.82352 0.95171 0.87417 0.0
H1956 H 0.82693 0.91431 0.98944 0.0
H1957 H 0.79531 0.89961 0.96981 0.0
C1958 C 0.68954 0.90771 0.98102 0.0
C1959 C 0.69307 0.90064 0.02465 0.0
C1960 C 0.70437 0.90835 0.94868 0.0
C1961 C 0.72315 0.90136 0.95837 0.0
C1962 C 0.72694 0.89498 1.00262 0.0
C1963 C 0.7121 0.89472 0.03544 0.0
C1964 C 0.73863 0.90058 0.92232 0.0
C1965 C 0.75724 0.9082 0.9313 0.0
C1966 C 0.73502 0.89287 0.87876 0.0
C1967 C 0.71627 0.88333 0.86725 0.0
C1968 C 0.70915 0.86778 0.89331 0.0
C1969 C 0.69129 0.85911 0.88288 0.0
C1970 C 0.68049 0.86574 0.84619 0.0
C1971 C 0.68755 0.88103 0.81978 0.0
C1972 C 0.70539 0.88978 0.83013 0.0
C1973 C 0.81717 0.88992 0.79814 0.0
C1974 C 0.81469 0.89735 0.75429 0.0
C1975 C 0.80216 0.89075 0.82997 0.0
C1976 C 0.78416 0.89934 0.81958 0.0
C1977 C 0.78137 0.90635 0.77546 0.0
C1978 C 0.79644 0.90538 0.74321 0.0
C1979 C 0.76846 0.90085 0.85486 0.0
C1980 C 0.74981 0.89337 0.84572 0.0
C1981 C 0.77209 0.90852 0.89843 0.0
C1982 C 0.79111 0.91742 0.91043 0.0
C1983 C 0.79921 0.93232 0.88386 0.0
C1984 C 0.8173 0.94035 0.89493 0.0
C1985 C 0.82732 0.93379 0.93284 0.0
C1986 C 0.81924 0.91924 0.95986 0.0
C1987 C 0.80124 0.91105 0.94877 0.0
H1988 H 0.84131 0.94003 0.94139 0.0
H1989 H 0.66669 0.85898 0.83819 0.0
H1990 H 0.89614 0.29434 0.96214 0.0
H1991 H 0.89705 0.26789 0.01784 0.0
H1992 H 0.90466 0.31001 0.1237 0.0
H1993 H 0.90434 0.33619 0.06845 0.0
H1994 H 0.92661 0.28008 0.14173 0.0
H1995 H 0.85993 0.28812 0.10302 0.0
H1996 H 0.83162 0.29074 0.05253 0.0
H1997 H 0.84152 0.23252 1.00567 0.0
H1998 H 0.87008 0.22959 0.05547 0.0
H1999 H 0.90142 0.21536 0.3241 0.0
H2000 H 0.90253 0.24249 0.27019 0.0
H2001 H 0.89549 0.20196 0.16088 0.0
H2002 H 0.89409 0.17512 0.21406 0.0
H2003 H 0.8729 0.23184 0.14619 0.0
H2004 H 0.94079 0.22514 0.18853 0.0
H2005 H 0.96806 0.22412 0.24236 0.0
H2006 H 0.95401 0.28184 0.28722 0.0
H2007 H 0.92653 0.28311 0.23395 0.0
C2008 C 0.8982 0.29794 0.99721 0.0
C2009 C 0.89984 0.31752 1.01065 0.0
C2010 C 0.89857 0.28278 0.02923 0.0
C2011 C 0.90059 0.28682 0.07549 0.0
C2012 C 0.90296 0.30633 0.08855 0.0
C2013 C 0.90257 0.32139 0.05673 0.0
C2014 C 0.89986 0.27092 0.11045 0.0
C2015 C 0.91474 0.26966 0.14282 0.0
C2016 C 0.88448 0.25715 0.11242 0.0
C2017 C 0.86726 0.25872 0.08262 0.0
C2018 C 0.85615 0.27591 0.08171 0.0
C2019 C 0.84005 0.27744 0.05325 0.0
C2020 C 0.83482 0.2618 0.02581 0.0
C2021 C 0.84563 0.24459 0.02689 0.0
C2022 C 0.86177 0.24298 0.05525 0.0
C2023 C 0.90022 0.21223 0.28858 0.0
C2024 C 0.89761 0.19292 0.27378 0.0
C2025 C 0.90091 0.22779 0.2576 0.0
C2026 C 0.89923 0.22444 0.21097 0.0
C2027 C 0.89673 0.20515 0.19638 0.0
C2028 C 0.89596 0.1897 0.22714 0.0
C2029 C 0.89982 0.24077 0.17706 0.0
C2030 C 0.88483 0.24219 0.14496 0.0
C2031 C 0.91495 0.25486 0.17581 0.0
C2032 C 0.93154 0.25416 0.20753 0.0
C2033 C 0.94347 0.23757 0.21005 0.0
C2034 C 0.95897 0.23696 0.24043 0.0
C2035 C 0.96275 0.25289 0.26825 0.0
C2036 C 0.95106 0.26951 0.26567 0.0
C2037 C 0.93555 0.27019 0.23535 0.0
H2038 H 0.97474 0.25239 0.29177 0.0
H2039 H 0.82235 0.263 1.00378 0.0
H2040 H 0.33311 0.40717 0.31418 0.0
H2041 H 0.30662 0.40895 0.36847 0.0
H2042 H 0.26608 0.39019 0.26657 0.0
H2043 H 0.29262 0.38967 0.2112 0.0
H2044 H 0.24745 0.41305 0.31441 0.0
H2045 H 0.28791 0.36034 0.35468 0.0
H2046 H 0.31731 0.34199 0.37587 0.0
H2047 H 0.3219 0.3751 0.49759 0.0
H2048 H 0.29325 0.39445 0.47598 0.0
H2049 H 0.17485 0.38338 0.46904 0.0
H2050 H 0.20129 0.38371 0.41504 0.0
H2051 H 0.23784 0.41372 0.51015 0.0
H2052 H 0.21123 0.41297 0.56572 0.0
H2053 H 0.25774 0.38494 0.46602 0.0
H2054 H 0.21601 0.43864 0.41607 0.0
H2055 H 0.18354 0.45133 0.39602 0.0
H2056 H 0.17805 0.40776 0.29355 0.0
H2057 H 0.21054 0.39494 0.31264 0.0
C2058 C 0.31852 0.40357 0.30314 0.0
C2059 C 0.31507 0.39817 0.25823 0.0
C2060 C 0.3033 0.4044 0.33452 0.0
C2061 C 0.28417 0.3991 0.32262 0.0
C2062 C 0.28059 0.39426 0.27726 0.0
C2063 C 0.29581 0.39395 0.24542 0.0
C2064 C 0.26812 0.3985 0.35745 0.0
C2065 C 0.24984 0.40671 0.34732 0.0
C2066 C 0.27077 0.39025 0.40097 0.0
C2067 C 0.28853 0.3791 0.41327 0.0
C2068 C 0.29541 0.36401 0.38552 0.0
C2069 C 0.31201 0.35346 0.39756 0.0
C2070 C 0.32163 0.35755 0.43778 0.0
C2071 C 0.31465 0.37217 0.46607 0.0
C2072 C 0.29829 0.38301 0.45382 0.0
C2073 C 0.18844 0.39015 0.47888 0.0
C2074 C 0.19071 0.39831 0.52206 0.0
C2075 C 0.20363 0.39042 0.44749 0.0
C2076 C 0.22157 0.39916 0.45769 0.0
C2077 C 0.22411 0.40702 0.50107 0.0
C2078 C 0.20886 0.40662 0.5329 0.0
C2079 C 0.23757 0.39982 0.42309 0.0
C2080 C 0.25569 0.39147 0.43319 0.0
C2081 C 0.23462 0.40733 0.37921 0.0
C2082 C 0.21568 0.41586 0.36577 0.0
C2083 C 0.20791 0.43186 0.38906 0.0
C2084 C 0.1895 0.43906 0.37786 0.0
C2085 C 0.17874 0.43036 0.34348 0.0
C2086 C 0.18641 0.41451 0.32007 0.0
C2087 C 0.20488 0.40736 0.33083 0.0
H2088 H 0.16446 0.43588 0.33497 0.0
H2089 H 0.33441 0.34929 0.4472 0.0
H2090 H 0.38394 0.67069 0.72004 0.0
H2091 H 0.38429 0.69677 0.66525 0.0
H2092 H 0.4107 0.73514 0.76218 0.0
H2093 H 0.40996 0.70883 0.81859 0.0
H2094 H 0.3814 0.75326 0.71411 0.0
H2095 H 0.43918 0.71528 0.67056 0.0
H2096 H 0.45468 0.68378 0.65288 0.0
H2097 H 0.41251 0.67359 0.54912 0.0
H2098 H 0.39681 0.70509 0.56622 0.0
H2099 H 0.40883 0.82862 0.56858 0.0
H2100 H 0.4085 0.80161 0.62117 0.0
H2101 H 0.38931 0.76306 0.51585 0.0
H2102 H 0.38997 0.79039 0.46217 0.0
H2103 H 0.41353 0.74386 0.56644 0.0
H2104 H 0.35891 0.78214 0.5971 0.0
H2105 H 0.33824 0.8104 0.61448 0.0
H2106 H 0.36595 0.81629 0.74285 0.0
H2107 H 0.38773 0.78889 0.72518 0.0
C2108 C 0.38991 0.6846 0.73019 0.0
C2109 C 0.39704 0.68746 0.77418 0.0
C2110 C 0.39022 0.69958 0.69831 0.0
C2111 C 0.39792 0.71796 0.70882 0.0
C2112 C 0.40481 0.72108 0.75289 0.0
C2113 C 0.40442 0.70599 0.7852 0.0
C2114 C 0.39842 0.73378 0.6738 0.0
C2115 C 0.38883 0.75145 0.68225 0.0
C2116 C 0.40701 0.731 0.63093 0.0
C2117 C 0.41696 0.71255 0.61937 0.0
C2118 C 0.43332 0.70636 0.64379 0.0
C2119 C 0.44211 0.68851 0.63392 0.0
C2120 C 0.43464 0.67674 0.59974 0.0
C2121 C 0.41836 0.68279 0.57534 0.0
C2122 C 0.40958 0.70068 0.58494 0.0
C2123 C 0.40451 0.81445 0.55624 0.0
C2124 C 0.39919 0.8119 0.51088 0.0
C2125 C 0.40427 0.7989 0.5867 0.0
C2126 C 0.39842 0.78018 0.57325 0.0
C2127 C 0.39376 0.77731 0.52753 0.0
C2128 C 0.39414 0.79299 0.49671 0.0
C2129 C 0.39711 0.76391 0.60728 0.0
C2130 C 0.40633 0.74601 0.59849 0.0
C2131 C 0.38764 0.76631 0.64948 0.0
C2132 C 0.37525 0.78355 0.6594 0.0
C2133 C 0.36098 0.78973 0.62859 0.0
C2134 C 0.34908 0.80567 0.63847 0.0
C2135 C 0.35097 0.81531 0.6795 0.0
C2136 C 0.36477 0.80905 0.71073 0.0
C2137 C 0.37698 0.79337 0.70068 0.0
H2138 H 0.34163 0.82754 0.68727 0.0
H2139 H 0.44143 0.6629 0.59224 0.0
H2140 H 0.67561 0.59247 0.30729 0.0
H2141 H 0.7018 0.59132 0.36239 0.0
H2142 H 0.74126 0.61632 0.26536 0.0
H2143 H 0.715 0.61649 0.20912 0.0
H2144 H 0.76086 0.59218 0.31163 0.0
H2145 H 0.71869 0.64411 0.35969 0.0
H2146 H 0.68692 0.65861 0.37899 0.0
H2147 H 0.67913 0.61628 0.48358 0.0
H2148 H 0.71089 0.60151 0.46488 0.0
H2149 H 0.83184 0.62488 0.4655 0.0
H2150 H 0.80526 0.62298 0.41188 0.0
H2151 H 0.77037 0.59201 0.50886 0.0
H2152 H 0.79721 0.59404 0.56355 0.0
H2153 H 0.74817 0.61817 0.46428 0.0
H2154 H 0.79304 0.56836 0.41779 0.0
H2155 H 0.82484 0.55479 0.39551 0.0
H2156 H 0.82762 0.59463 0.2844 0.0
H2157 H 0.79608 0.60872 0.30682 0.0
C2158 C 0.68987 0.59769 0.29757 0.0
C2159 C 0.69309 0.60476 0.25381 0.0
C2160 C 0.70491 0.59719 0.32942 0.0
C2161 C 0.7236 0.6044 0.31917 0.0
C2162 C 0.72704 0.61083 0.27478 0.0
C2163 C 0.71201 0.61089 0.24244 0.0
C2164 C 0.73935 0.60524 0.35467 0.0
C2165 C 0.75807 0.59814 0.34472 0.0
C2166 C 0.73593 0.61257 0.39865 0.0
C2167 C 0.71714 0.62173 0.41092 0.0
C2168 C 0.71021 0.63793 0.38688 0.0
C2169 C 0.69222 0.64619 0.39771 0.0
C2170 C 0.68105 0.63841 0.43262 0.0
C2171 C 0.68786 0.62235 0.45676 0.0
C2172 C 0.70588 0.61408 0.44618 0.0
C2173 C 0.81862 0.61752 0.47574 0.0
C2174 C 0.81695 0.60939 0.51911 0.0
C2175 C 0.80331 0.61641 0.44466 0.0
C2176 C 0.78575 0.60697 0.45549 0.0
C2177 C 0.78375 0.59926 0.49921 0.0
C2178 C 0.79916 0.6004 0.53058 0.0
C2179 C 0.76971 0.60527 0.421 0.0
C2180 C 0.75094 0.61219 0.43118 0.0
C2181 C 0.77314 0.59799 0.37703 0.0
C2182 C 0.79223 0.58963 0.36398 0.0
C2183 C 0.80052 0.57432 0.38883 0.0
C2184 C 0.81851 0.56654 0.37622 0.0
C2185 C 0.82826 0.57384 0.3386 0.0
C2186 C 0.82008 0.58898 0.31357 0.0
C2187 C 0.80215 0.59686 0.32619 0.0
H2188 H 0.84213 0.56771 0.32882 0.0
H2189 H 0.66713 0.64482 0.44092 0.0
H2190 H 0.62301 0.1766 0.55605 0.0
H2191 H 0.62183 0.20287 0.61044 0.0
H2192 H 0.58793 0.23745 0.51839 0.0
H2193 H 0.58959 0.21108 0.46248 0.0
H2194 H 0.6138 0.25993 0.55823 0.0
H2195 H 0.56829 0.2124 0.61572 0.0
H2196 H 0.55774 0.17993 0.64166 0.0
H2197 H 0.60138 0.18084 0.74477 0.0
H2198 H 0.61241 0.21317 0.71902 0.0
H2199 H 0.59145 0.33269 0.71785 0.0
H2200 H 0.58978 0.3064 0.663 0.0
H2201 H 0.61745 0.26764 0.75751 0.0
H2202 H 0.61797 0.29387 0.81362 0.0
H2203 H 0.59382 0.24714 0.71556 0.0
H2204 H 0.64176 0.29159 0.65749 0.0
H2205 H 0.65521 0.32297 0.63139 0.0
H2206 H 0.61029 0.32692 0.53161 0.0
H2207 H 0.59663 0.29561 0.55699 0.0
C2208 C 0.61522 0.18973 0.54699 0.0
C2209 C 0.60627 0.1915 0.50451 0.0
C2210 C 0.61444 0.20482 0.57864 0.0
C2211 C 0.60436 0.22218 0.56953 0.0
C2212 C 0.59568 0.22421 0.52679 0.0
C2213 C 0.59661 0.20908 0.49469 0.0
C2214 C 0.60333 0.23817 0.60431 0.0
C2215 C 0.6091 0.25714 0.59242 0.0
C2216 C 0.59792 0.23465 0.64972 0.0
C2217 C 0.59125 0.21519 0.66522 0.0
C2218 C 0.57573 0.20563 0.64372 0.0
C2219 C 0.56966 0.18724 0.65841 0.0
C2220 C 0.5789 0.17833 0.69482 0.0
C2221 C 0.59425 0.18776 0.71656 0.0
C2222 C 0.6004 0.20612 0.70196 0.0
C2223 C 0.59712 0.31854 0.72706 0.0
C2224 C 0.60497 0.31548 0.77016 0.0
C2225 C 0.59636 0.30344 0.6953 0.0
C2226 C 0.60411 0.2849 0.70486 0.0
C2227 C 0.61146 0.28169 0.74856 0.0
C2228 C 0.61175 0.29673 0.78087 0.0
C2229 C 0.60439 0.26897 0.66962 0.0
C2230 C 0.59848 0.24999 0.68138 0.0
C2231 C 0.61004 0.27237 0.62429 0.0
C2232 C 0.6181 0.29134 0.60935 0.0
C2233 C 0.63471 0.29922 0.63012 0.0
C2234 C 0.64241 0.31697 0.61534 0.0
C2235 C 0.63366 0.32692 0.57975 0.0
C2236 C 0.61709 0.31922 0.55913 0.0
C2237 C 0.60941 0.30144 0.57354 0.0
H2238 H 0.63968 0.34061 0.5682 0.0
H2239 H 0.57411 0.16416 0.70632 0.0
H2240 H 0.36253 0.13508 0.41523 0.0
H2241 H 0.36729 0.13704 0.49643 0.0
H2242 H 0.32406 0.09229 0.51618 0.0
H2243 H 0.31936 0.09005 0.43499 0.0
H2244 H 0.31938 0.12114 0.57672 0.0
H2245 H 0.37249 0.08206 0.52423 0.0
H2246 H 0.40096 0.07416 0.47721 0.0
H2247 H 0.43133 0.12401 0.52892 0.0
H2248 H 0.40291 0.13238 0.57579 0.0
H2249 H 0.34309 0.09747 0.80333 0.0
H2250 H 0.33691 0.09699 0.72261 0.0
H2251 H 0.38141 0.14048 0.70266 0.0
H2252 H 0.38822 0.14052 0.78315 0.0
H2253 H 0.38519 0.11247 0.64221 0.0
H2254 H 0.33187 0.1519 0.69375 0.0
H2255 H 0.30334 0.15986 0.74054 0.0
H2256 H 0.27363 0.10908 0.69173 0.0
H2257 H 0.302 0.10082 0.64457 0.0
C2258 C 0.35413 0.12551 0.4367 0.0
C2259 C 0.3406 0.11233 0.41818 0.0
C2260 C 0.35683 0.1267 0.48329 0.0
C2261 C 0.34619 0.11468 0.51265 0.0
C2262 C 0.33243 0.10177 0.49439 0.0
C2263 C 0.32972 0.10055 0.4478 0.0
C2264 C 0.34956 0.11539 0.56225 0.0
C2265 C 0.33374 0.11901 0.59103 0.0
C2266 C 0.36834 0.113 0.58116 0.0
C2267 C 0.38549 0.10796 0.55317 0.0
C2268 C 0.38518 0.09143 0.52531 0.0
C2269 C 0.40132 0.08685 0.49872 0.0
C2270 C 0.41792 0.09861 0.49998 0.0
C2271 C 0.41844 0.11494 0.52792 0.0
C2272 C 0.40233 0.1196 0.55453 0.0
C2273 C 0.3517 0.10686 0.78186 0.0
C2274 C 0.36619 0.11904 0.80017 0.0
C2275 C 0.34795 0.10675 0.73559 0.0
C2276 C 0.35854 0.11885 0.7063 0.0
C2277 C 0.37297 0.13105 0.72441 0.0
C2278 C 0.37671 0.13119 0.77069 0.0
C2279 C 0.35504 0.11833 0.65672 0.0
C2280 C 0.37084 0.11468 0.62792 0.0
C2281 C 0.33625 0.12068 0.63783 0.0
C2282 C 0.31912 0.12566 0.6659 0.0
C2283 C 0.31928 0.14239 0.69312 0.0
C2284 C 0.30311 0.14699 0.71957 0.0
C2285 C 0.28669 0.13497 0.71917 0.0
C2286 C 0.28636 0.11838 0.69203 0.0
C2287 C 0.30245 0.11377 0.6653 0.0
H2288 H 0.27424 0.13849 0.73989 0.0
H2289 H 0.43041 0.09504 0.47938 0.0
H2290 H 0.10463 0.61643 0.62679 0.0
H2291 H 0.10687 0.60994 0.54605 0.0
H2292 H 0.11572 0.67119 0.52095 0.0
H2293 H 0.11341 0.67774 0.60128 0.0
H2294 H 0.09063 0.6576 0.46289 0.0
H2295 H 0.15345 0.6365 0.5156 0.0
H2296 H 0.17588 0.61748 0.56307 0.0
H2297 H 0.15172 0.56427 0.51179 0.0
H2298 H 0.12897 0.58299 0.46438 0.0
H2299 H 0.1215 0.6533 0.23578 0.0
H2300 H 0.11984 0.65808 0.31708 0.0
H2301 H 0.1121 0.59627 0.33594 0.0
H2302 H 0.11411 0.59139 0.25471 0.0
H2303 H 0.13596 0.60914 0.39747 0.0
H2304 H 0.07341 0.6301 0.34424 0.0
H2305 H 0.05082 0.64903 0.29698 0.0
H2306 H 0.07414 0.70232 0.34996 0.0
H2307 H 0.09702 0.68371 0.39709 0.0
C2308 C 0.10724 0.62849 0.60411 0.0
C2309 C 0.10875 0.64764 0.62072 0.0
C2310 C 0.10852 0.62477 0.55783 0.0
C2311 C 0.1116 0.64005 0.52706 0.0
C2312 C 0.11322 0.65912 0.5437 0.0
C2313 C 0.11185 0.66286 0.58981 0.0
C2314 C 0.11282 0.6364 0.47752 0.0
C2315 C 0.10074 0.64716 0.44864 0.0
C2316 C 0.1256 0.62242 0.45861 0.0
C2317 C 0.13941 0.61115 0.48671 0.0
C2318 C 0.15286 0.62075 0.51461 0.0
C2319 C 0.16565 0.61002 0.54144 0.0
C2320 C 0.16524 0.58968 0.5404 0.0
C2321 C 0.15204 0.58003 0.51249 0.0
C2322 C 0.13921 0.59069 0.48561 0.0
C2323 C 0.11931 0.64073 0.25719 0.0
C2324 C 0.11787 0.62196 0.2385 0.0
C2325 C 0.11834 0.64348 0.30382 0.0
C2326 C 0.11554 0.62758 0.33303 0.0
C2327 C 0.11428 0.60881 0.31443 0.0
C2328 C 0.11545 0.60603 0.26783 0.0
C2329 C 0.11388 0.63049 0.3828 0.0
C2330 C 0.12584 0.61957 0.41172 0.0
C2331 C 0.10096 0.6443 0.40183 0.0
C2332 C 0.08703 0.65551 0.37391 0.0
C2333 C 0.07379 0.64586 0.34561 0.0
C2334 C 0.06092 0.65653 0.31886 0.0
C2335 C 0.06107 0.67687 0.32035 0.0
C2336 C 0.07404 0.68657 0.34874 0.0
C2337 C 0.08694 0.67597 0.37554 0.0
H2338 H 0.0511 0.68509 0.29958 0.0
H2339 H 0.17511 0.58141 0.56131 0.0
H2340 H 0.657 0.92821 0.43343 0.0
H2341 H 0.65258 0.9257 0.51467 0.0
H2342 H 0.64593 0.86346 0.50297 0.0
H2343 H 0.65037 0.86585 0.4216 0.0
H2344 H 0.61969 0.87777 0.56002 0.0
H2345 H 0.68871 0.88424 0.54074 0.0
H2346 H 0.71904 0.89942 0.5134 0.0
H2347 H 0.70564 0.95169 0.5861 0.0
H2348 H 0.67508 0.93691 0.61339 0.0
H2349 H 0.63074 0.85508 0.79093 0.0
H2350 H 0.63603 0.85739 0.70997 0.0
H2351 H 0.64213 0.9197 0.7211 0.0
H2352 H 0.63678 0.91751 0.80219 0.0
H2353 H 0.6688 0.90526 0.66443 0.0
H2354 H 0.59968 0.89886 0.6832 0.0
H2355 H 0.56939 0.88365 0.71066 0.0
H2356 H 0.58304 0.83121 0.63886 0.0
H2357 H 0.61357 0.84602 0.61146 0.0
C2358 C 0.65472 0.91395 0.44811 0.0
C2359 C 0.65419 0.89721 0.42083 0.0
C2360 C 0.65219 0.91254 0.49467 0.0
C2361 C 0.64923 0.89435 0.51523 0.0
C2362 C 0.64822 0.87767 0.48802 0.0
C2363 C 0.6507 0.87907 0.44139 0.0
C2364 C 0.64717 0.89272 0.56504 0.0
C2365 C 0.63058 0.88355 0.58279 0.0
C2366 C 0.66112 0.90063 0.59501 0.0
C2367 C 0.67952 0.90953 0.57874 0.0
C2368 C 0.69216 0.89902 0.55061 0.0
C2369 C 0.7094 0.90755 0.53517 0.0
C2370 C 0.71424 0.92652 0.54791 0.0
C2371 C 0.70186 0.937 0.57621 0.0
C2372 C 0.68459 0.92855 0.59171 0.0
C2373 C 0.63307 0.86931 0.77619 0.0
C2374 C 0.63311 0.88613 0.80321 0.0
C2375 C 0.63614 0.87061 0.72981 0.0
C2376 C 0.63915 0.88877 0.70914 0.0
C2377 C 0.63979 0.90552 0.73614 0.0
C2378 C 0.63678 0.90424 0.78261 0.0
C2379 C 0.64133 0.8903 0.65936 0.0
C2380 C 0.65793 0.89947 0.64163 0.0
C2381 C 0.62739 0.88239 0.62939 0.0
C2382 C 0.609 0.87348 0.64564 0.0
C2383 C 0.59629 0.88403 0.67354 0.0
C2384 C 0.57907 0.87549 0.68905 0.0
C2385 C 0.57432 0.85645 0.67661 0.0
C2386 C 0.58676 0.84594 0.64852 0.0
C2387 C 0.60401 0.8544 0.63296 0.0
H2388 H 0.56098 0.84987 0.68866 0.0
H2389 H 0.7276 0.93309 0.53593 0.0
H2390 H 0.91063 0.35934 0.22612 0.0
H2391 H 0.9133 0.35411 0.30718 0.0
H2392 H 0.87309 0.40125 0.3305 0.0
H2393 H 0.87085 0.40686 0.24952 0.0
H2394 H 0.90098 0.40364 0.38911 0.0
H2395 H 0.86017 0.35058 0.33866 0.0
H2396 H 0.85218 0.32213 0.29156 0.0
H2397 H 0.90257 0.29211 0.34124 0.0
H2398 H 0.91095 0.32046 0.38837 0.0
H2399 H 0.87714 0.38048 0.61682 0.0
H2400 H 0.8766 0.38684 0.53602 0.0
H2401 H 0.91941 0.34186 0.51534 0.0
H2402 H 0.92031 0.33565 0.59601 0.0
H2403 H 0.89075 0.3382 0.45567 0.0
H2404 H 0.93125 0.39002 0.50754 0.0
H2405 H 0.94053 0.41841 0.55342 0.0
H2406 H 0.8921 0.45062 0.50083 0.0
H2407 H 0.88233 0.4223 0.45511 0.0
C2408 C 0.90226 0.36851 0.24851 0.0
C2409 C 0.89047 0.38348 0.23121 0.0
C2410 C 0.90376 0.36548 0.29499 0.0
C2411 C 0.89315 0.37706 0.32537 0.0
C2412 C 0.88146 0.39209 0.30807 0.0
C2413 C 0.88017 0.39529 0.26165 0.0
C2414 C 0.89423 0.3736 0.37505 0.0
C2415 C 0.89844 0.38937 0.40363 0.0
C2416 C 0.89151 0.3549 0.39434 0.0
C2417 C 0.88626 0.3377 0.36676 0.0
C2418 C 0.86958 0.33794 0.33941 0.0
C2419 C 0.86498 0.32183 0.31273 0.0
C2420 C 0.87689 0.30534 0.31334 0.0
C2421 C 0.89337 0.30489 0.3408 0.0
C2422 C 0.89803 0.32096 0.36756 0.0
C2423 C 0.88664 0.37208 0.59526 0.0
C2424 C 0.89864 0.35739 0.61328 0.0
C2425 C 0.88628 0.37572 0.54888 0.0
C2426 C 0.89798 0.36485 0.51931 0.0
C2427 C 0.91011 0.35035 0.53723 0.0
C2428 C 0.91053 0.34675 0.58353 0.0
C2429 C 0.89732 0.36826 0.46968 0.0
C2430 C 0.89322 0.35248 0.44114 0.0
C2431 C 0.90022 0.38693 0.45046 0.0
C2432 C 0.90597 0.40396 0.47814 0.0
C2433 C 0.92248 0.4031 0.506 0.0
C2434 C 0.92787 0.4192 0.53187 0.0
C2435 C 0.91695 0.43633 0.5299 0.0
C2436 C 0.90058 0.43737 0.50218 0.0
C2437 C 0.89511 0.42129 0.47628 0.0
H2438 H 0.92112 0.44877 0.55003 0.0
H2439 H 0.87333 0.2929 0.29259 0.0
H2440 H 0.34984 0.39592 0.47566 0.0
H2441 H 0.3446 0.39854 0.55657 0.0
H2442 H 0.40413 0.38145 0.58017 0.0
H2443 H 0.40932 0.3784 0.4994 0.0
H2444 H 0.38192 0.36318 0.63697 0.0
H2445 H 0.38758 0.42991 0.5912 0.0
H2446 H 0.37982 0.45917 0.54665 0.0
H2447 H 0.32086 0.45751 0.59446 0.0
H2448 H 0.32821 0.42807 0.63888 0.0
H2449 H 0.38571 0.39143 0.86757 0.0
H2450 H 0.3912 0.38912 0.78656 0.0
H2451 H 0.3306 0.40159 0.7625 0.0
H2452 H 0.32491 0.40366 0.84331 0.0
H2453 H 0.35353 0.42232 0.70641 0.0
H2454 H 0.3484 0.35534 0.75238 0.0
H2455 H 0.35675 0.32641 0.79751 0.0
H2456 H 0.41568 0.32912 0.74972 0.0
H2457 H 0.40774 0.35824 0.70474 0.0
C2458 C 0.36185 0.39276 0.498 0.0
C2459 C 0.37993 0.38673 0.48072 0.0
C2460 C 0.35885 0.39434 0.54443 0.0
C2461 C 0.37401 0.39037 0.57483 0.0
C2462 C 0.39213 0.3845 0.55765 0.0
C2463 C 0.39506 0.38271 0.51128 0.0
C2464 C 0.37098 0.39208 0.62445 0.0
C2465 C 0.37597 0.37625 0.65211 0.0
C2466 C 0.36285 0.40893 0.64452 0.0
C2467 C 0.35841 0.42668 0.61803 0.0
C2468 C 0.37293 0.43571 0.59197 0.0
C2469 C 0.36861 0.45233 0.56678 0.0
C2470 C 0.34985 0.46016 0.56764 0.0
C2471 C 0.33538 0.45141 0.59379 0.0
C2472 C 0.33962 0.43477 0.61902 0.0
C2473 C 0.37348 0.39349 0.84514 0.0
C2474 C 0.35484 0.39773 0.86227 0.0
C2475 C 0.37667 0.39221 0.79871 0.0
C2476 C 0.36129 0.39504 0.76824 0.0
C2477 C 0.34273 0.39942 0.78519 0.0
C2478 C 0.33952 0.40068 0.83155 0.0
C2479 C 0.36449 0.39345 0.71875 0.0
C2480 C 0.35952 0.40929 0.69117 0.0
C2481 C 0.37275 0.37666 0.69878 0.0
C2482 C 0.37752 0.35908 0.72554 0.0
C2483 C 0.36317 0.34985 0.75175 0.0
C2484 C 0.36783 0.3334 0.77726 0.0
C2485 C 0.38675 0.32596 0.77657 0.0
C2486 C 0.40104 0.33491 0.75026 0.0
C2487 C 0.39646 0.35138 0.72472 0.0
H2488 H 0.39032 0.31323 0.79635 0.0
H2489 H 0.34653 0.47304 0.5481 0.0
H2490 H 0.42666 0.63972 0.1789 0.0
H2491 H 0.42451 0.63499 0.26037 0.0
H2492 H 0.36505 0.65498 0.25849 0.0
H2493 H 0.36705 0.65954 0.1768 0.0
H2494 H 0.38828 0.67274 0.32607 0.0
H2495 H 0.37211 0.60896 0.27318 0.0
H2496 H 0.37643 0.5788 0.22945 0.0
H2497 H 0.43038 0.56765 0.29744 0.0
H2498 H 0.42652 0.59791 0.34118 0.0
H2499 H 0.36169 0.64371 0.54831 0.0
H2500 H 0.36386 0.64905 0.46717 0.0
H2501 H 0.42146 0.62418 0.46638 0.0
H2502 H 0.4193 0.61866 0.54755 0.0
H2503 H 0.39891 0.60882 0.39982 0.0
H2504 H 0.41744 0.67346 0.44575 0.0
H2505 H 0.41507 0.70464 0.48643 0.0
H2506 H 0.35786 0.71386 0.43249 0.0
H2507 H 0.36015 0.68295 0.39043 0.0
C2508 C 0.41311 0.64306 0.19583 0.0
C2509 C 0.39702 0.65 0.17137 0.0
C2510 C 0.41187 0.64028 0.24237 0.0
C2511 C 0.3946 0.64458 0.26561 0.0
C2512 C 0.37852 0.65155 0.24131 0.0
C2513 C 0.37964 0.65404 0.19461 0.0
C2514 C 0.39352 0.64219 0.31536 0.0
C2515 C 0.3903 0.6587 0.34213 0.0
C2516 C 0.39669 0.62399 0.33652 0.0
C2517 C 0.39913 0.60583 0.31012 0.0
C2518 C 0.385 0.60019 0.27849 0.0
C2519 C 0.38734 0.58305 0.25378 0.0
C2520 C 0.4037 0.57135 0.26057 0.0
C2521 C 0.41773 0.57675 0.29217 0.0
C2522 C 0.41547 0.59388 0.31696 0.0
C2523 C 0.37485 0.63942 0.53091 0.0
C2524 C 0.39028 0.63067 0.55454 0.0
C2525 C 0.37614 0.64262 0.4845 0.0
C2526 C 0.39286 0.63709 0.46048 0.0
C2527 C 0.4084 0.62859 0.48406 0.0
C2528 C 0.4072 0.62556 0.53058 0.0
C2529 C 0.39373 0.6394 0.41059 0.0
C2530 C 0.39687 0.62286 0.38376 0.0
C2531 C 0.3906 0.65757 0.38932 0.0
C2532 C 0.38888 0.67584 0.4154 0.0
C2533 C 0.40431 0.68208 0.44283 0.0
C2534 C 0.40302 0.69974 0.46595 0.0
C2535 C 0.38624 0.71113 0.46246 0.0
C2536 C 0.37082 0.70499 0.43532 0.0
C2537 C 0.37216 0.68748 0.41158 0.0
H2538 H 0.38525 0.72474 0.4806 0.0
H2539 H 0.40547 0.55807 0.24143 0.0
H2540 H 0.64302 0.63517 0.86075 0.0
H2541 H 0.63832 0.63821 0.77972 0.0
H2542 H 0.65159 0.57729 0.76318 0.0
H2543 H 0.65598 0.57403 0.84432 0.0
H2544 H 0.6716 0.59921 0.70341 0.0
H2545 H 0.60361 0.59291 0.74454 0.0
H2546 H 0.57383 0.6007 0.78716 0.0
H2547 H 0.57868 0.6607 0.74811 0.0
H2548 H 0.60819 0.65313 0.70406 0.0
H2549 H 0.64 0.58911 0.47589 0.0
H2550 H 0.64544 0.58662 0.55681 0.0
H2551 H 0.6314 0.64742 0.57205 0.0
H2552 H 0.62635 0.65016 0.49108 0.0
H2553 H 0.61199 0.62594 0.63264 0.0
H2554 H 0.67903 0.6324 0.58918 0.0
H2555 H 0.70939 0.62532 0.54803 0.0
H2556 H 0.70722 0.56591 0.59276 0.0
H2557 H 0.677 0.57273 0.63481 0.0
C2558 C 0.64462 0.62231 0.84009 0.0
C2559 C 0.64997 0.60436 0.85938 0.0
C2560 C 0.64194 0.62408 0.79358 0.0
C2561 C 0.64451 0.60796 0.76512 0.0
C2562 C 0.6496 0.58998 0.78428 0.0
C2563 C 0.6522 0.58817 0.83079 0.0
C2564 C 0.64264 0.61002 0.71533 0.0
C2565 C 0.65844 0.60477 0.68792 0.0
C2566 C 0.62576 0.61783 0.69492 0.0
C2567 C 0.60815 0.6225 0.72143 0.0
C2568 C 0.59835 0.60778 0.74523 0.0
C2569 C 0.5815 0.61214 0.76952 0.0
C2570 C 0.57449 0.63122 0.77083 0.0
C2571 C 0.58416 0.64594 0.74723 0.0
C2572 C 0.60086 0.6416 0.7223 0.0
C2573 C 0.63838 0.60206 0.49623 0.0
C2574 C 0.63259 0.61982 0.47664 0.0
C2575 C 0.64149 0.6006 0.54267 0.0
C2576 C 0.6389 0.61684 0.57076 0.0
C2577 C 0.6334 0.63464 0.55127 0.0
C2578 C 0.6304 0.63614 0.50485 0.0
C2579 C 0.64094 0.61504 0.62058 0.0
C2580 C 0.62516 0.62036 0.64804 0.0
C2581 C 0.65789 0.60737 0.64102 0.0
C2582 C 0.67568 0.60302 0.61472 0.0
C2583 C 0.68496 0.61779 0.58997 0.0
C2584 C 0.7022 0.61386 0.56674 0.0
C2585 C 0.71017 0.59515 0.56758 0.0
C2586 C 0.70101 0.58038 0.59203 0.0
C2587 C 0.68389 0.58429 0.61578 0.0
H2588 H 0.72348 0.59213 0.54939 0.0
H2589 H 0.56152 0.63458 0.78996 0.0
H2590 H 0.59241 0.36241 0.54854 0.0
H2591 H 0.59169 0.3564 0.46765 0.0
H2592 H 0.64284 0.39203 0.45057 0.0
H2593 H 0.64425 0.39744 0.53154 0.0
H2594 H 0.61347 0.40124 0.38957 0.0
H2595 H 0.64835 0.34501 0.43852 0.0
H2596 H 0.6555 0.31522 0.48175 0.0
H2597 H 0.6025 0.28913 0.43454 0.0
H2598 H 0.59503 0.3188 0.39099 0.0
H2599 H 0.63306 0.37509 0.16123 0.0
H2600 H 0.63535 0.38106 0.24201 0.0
H2601 H 0.58658 0.34272 0.26481 0.0
H2602 H 0.58395 0.33695 0.18418 0.0
H2603 H 0.61568 0.33509 0.32302 0.0
H2604 H 0.58162 0.39208 0.27188 0.0
H2605 H 0.57671 0.42122 0.2248 0.0
H2606 H 0.62973 0.44601 0.2754 0.0
H2607 H 0.6351 0.41688 0.32237 0.0
C2608 C 0.60371 0.36877 0.52784 0.0
C2609 C 0.61837 0.38047 0.54703 0.0
C2610 C 0.60322 0.36536 0.48143 0.0
C2611 C 0.61723 0.37374 0.45294 0.0
C2612 C 0.63181 0.38548 0.47179 0.0
C2613 C 0.63249 0.38867 0.51824 0.0
C2614 C 0.6164 0.3706 0.40342 0.0
C2615 C 0.6142 0.38679 0.37498 0.0
C2616 C 0.61704 0.35175 0.3843 0.0
C2617 C 0.62104 0.33419 0.41182 0.0
C2618 C 0.63813 0.33299 0.43767 0.0
C2619 C 0.64232 0.31607 0.46194 0.0
C2620 C 0.6295 0.30026 0.46073 0.0
C2621 C 0.61245 0.30136 0.43532 0.0
C2622 C 0.60825 0.31821 0.41075 0.0
C2623 C 0.62263 0.36812 0.18328 0.0
C2624 C 0.60834 0.35548 0.16587 0.0
C2625 C 0.62401 0.3715 0.22961 0.0
C2626 C 0.61109 0.3624 0.25968 0.0
C2627 C 0.5968 0.34984 0.24243 0.0
C2628 C 0.59537 0.34649 0.19618 0.0
C2629 C 0.61256 0.36571 0.30912 0.0
C2630 C 0.61489 0.34954 0.33758 0.0
C2631 C 0.61214 0.3846 0.3282 0.0
C2632 C 0.60885 0.40222 0.30035 0.0
C2633 C 0.5923 0.40369 0.27276 0.0
C2634 C 0.58942 0.42022 0.24614 0.0
C2635 C 0.6029 0.43546 0.24711 0.0
C2636 C 0.61929 0.4342 0.27474 0.0
C2637 C 0.62225 0.41769 0.30138 0.0
H2638 H 0.60067 0.44822 0.22641 0.0
H2639 H 0.63273 0.28721 0.47971 0.0
H2640 H 0.8767 0.63488 0.91076 0.0
H2641 H 0.88277 0.63634 0.99166 0.0
H2642 H 0.84321 0.58831 1.01227 0.0
H2643 H 0.83699 0.58692 0.93156 0.0
H2644 H 0.83645 0.61457 0.07291 0.0
H2645 H 0.89402 0.58345 0.01859 0.0
H2646 H 0.92334 0.57935 0.97173 0.0
H2647 H 0.94729 0.63225 0.02517 0.0
H2648 H 0.91798 0.63682 0.07193 0.0
H2649 H 0.86566 0.59191 0.29786 0.0
H2650 H 0.8597 0.59062 0.21694 0.0
H2651 H 0.89263 0.64353 0.1992 0.0
H2652 H 0.89796 0.64539 0.28022 0.0
H2653 H 0.90294 0.61479 0.13771 0.0
H2654 H 0.84462 0.64524 0.19242 0.0
H2655 H 0.81494 0.6487 0.23831 0.0
H2656 H 0.79246 0.59532 0.1841 0.0
H2657 H 0.82214 0.59139 0.13829 0.0
C2658 C 0.86943 0.62452 0.93248 0.0
C2659 C 0.85631 0.61083 0.91456 0.0
C2660 C 0.87292 0.62535 0.97884 0.0
C2661 C 0.8636 0.61232 1.00837 0.0
C2662 C 0.85054 0.5986 0.99045 0.0
C2663 C 0.84696 0.59786 0.94419 0.0
C2664 C 0.86711 0.61315 0.05793 0.0
C2665 C 0.851 0.61432 0.08699 0.0
C2666 C 0.88609 0.61323 0.07665 0.0
C2667 C 0.90372 0.61056 0.04849 0.0
C2668 C 0.90547 0.59429 0.02011 0.0
C2669 C 0.92211 0.59186 0.99363 0.0
C2670 C 0.93717 0.60551 0.99552 0.0
C2671 C 0.93562 0.62166 0.02383 0.0
C2672 C 0.919 0.62418 0.05033 0.0
C2673 C 0.87132 0.60349 0.27697 0.0
C2674 C 0.88218 0.61881 0.29597 0.0
C2675 C 0.86803 0.60264 0.23054 0.0
C2676 C 0.87566 0.61702 0.20187 0.0
C2677 C 0.88666 0.63222 0.22055 0.0
C2678 C 0.88976 0.6332 0.26701 0.0
C2679 C 0.87229 0.61615 0.15241 0.0
C2680 C 0.88841 0.61499 0.12347 0.0
C2681 C 0.85333 0.61587 0.13381 0.0
C2682 C 0.83568 0.61795 0.16217 0.0
C2683 C 0.83345 0.63413 0.19064 0.0
C2684 C 0.8166 0.6362 0.21653 0.0
C2685 C 0.8018 0.62227 0.21399 0.0
C2686 C 0.80391 0.60613 0.1859 0.0
C2687 C 0.82074 0.60397 0.15996 0.0
H2688 H 0.78868 0.624 0.23371 0.0
H2689 H 0.95004 0.60361 0.97499 0.0
H2690 H 0.64108 0.14925 0.72903 0.0
H2691 H 0.63873 0.15497 0.8099 0.0
H2692 H 0.58329 0.12545 0.81273 0.0
H2693 H 0.58546 0.11991 0.73175 0.0
H2694 H 0.58183 0.15607 0.86554 0.0
H2695 H 0.62672 0.10304 0.84707 0.0
H2696 H 0.65584 0.08655 0.81716 0.0
H2697 H 0.69246 0.13017 0.87667 0.0
H2698 H 0.66352 0.14707 0.90645 0.0
H2699 H 0.57712 0.13866 0.10076 0.0
H2700 H 0.57904 0.13488 0.01925 0.0
H2701 H 0.63401 0.16528 0.01829 0.0
H2702 H 0.63221 0.16904 0.09988 0.0
H2703 H 0.63583 0.13472 0.96449 0.0
H2704 H 0.59064 0.18736 0.98436 0.0
H2705 H 0.56137 0.20345 1.01464 0.0
H2706 H 0.52511 0.16012 0.9529 0.0
H2707 H 0.55419 0.14361 0.92274 0.0
C2708 C 0.62841 0.14392 0.74687 0.0
C2709 C 0.61355 0.13394 0.72385 0.0
C2710 C 0.62708 0.14719 0.79321 0.0
C2711 C 0.61101 0.14031 0.81786 0.0
C2712 C 0.59588 0.13088 0.79468 0.0
C2713 C 0.59712 0.12774 0.74827 0.0
C2714 C 0.6101 0.1426 0.86777 0.0
C2715 C 0.59355 0.15118 0.88716 0.0
C2716 C 0.62553 0.13661 0.89625 0.0
C2717 C 0.64294 0.12641 0.87861 0.0
C2718 C 0.64097 0.10918 0.85352 0.0
C2719 C 0.65744 0.09975 0.83663 0.0
C2720 C 0.67598 0.10733 0.84491 0.0
C2721 C 0.67809 0.12433 0.87022 0.0
C2722 C 0.66166 0.13383 0.88715 0.0
C2723 C 0.58957 0.14467 0.08321 0.0
C2724 C 0.60447 0.15425 0.10704 0.0
C2725 C 0.59065 0.1425 0.03649 0.0
C2726 C 0.60654 0.15005 1.01226 0.0
C2727 C 0.62158 0.15933 0.03604 0.0
C2728 C 0.62057 0.16142 0.08281 0.0
C2729 C 0.60755 0.14817 0.96227 0.0
C2730 C 0.62412 0.13966 0.94287 0.0
C2731 C 0.59212 0.15416 0.93383 0.0
C2732 C 0.57461 0.16415 0.95164 0.0
C2733 C 0.57643 0.18119 0.9775 0.0
C2734 C 0.55988 0.19039 0.9946 0.0
C2735 C 0.5414 0.18278 0.98579 0.0
C2736 C 0.53943 0.16598 0.95974 0.0
C2737 C 0.55595 0.15671 0.9426 0.0
H2738 H 0.5286 0.18993 0.99908 0.0
H2739 H 0.68872 0.10002 0.8318 0.0
H2740 H 0.15333 0.36987 0.29781 0.0
H2741 H 0.15861 0.37247 0.21661 0.0
H2742 H 0.11926 0.42127 0.21103 0.0
H2743 H 0.11391 0.41876 0.29212 0.0
H2744 H 0.11093 0.39294 0.14724 0.0
H2745 H 0.16663 0.431 0.19239 0.0
H2746 H 0.19678 0.43826 0.23418 0.0
H2747 H 0.22326 0.38643 0.18181 0.0
H2748 H 0.19334 0.37902 0.13912 0.0
H2749 H 0.1297 0.42208 0.92153 0.0
H2750 H 0.12582 0.42071 1.00325 0.0
H2751 H 0.16789 0.37424 1.01004 0.0
H2752 H 0.17199 0.37571 0.92835 0.0
H2753 H 0.17514 0.4017 0.07354 0.0
H2754 H 0.11998 0.36296 0.03042 0.0
H2755 H 0.09003 0.35474 0.98912 0.0
H2756 H 0.06266 0.40677 0.038 0.0
H2757 H 0.09241 0.41508 0.08048 0.0
C2758 C 0.14583 0.38118 0.27931 0.0
C2759 C 0.13317 0.39409 0.30153 0.0
C2760 C 0.149 0.38276 0.23294 0.0
C2761 C 0.1394 0.39713 0.20768 0.0
C2762 C 0.12688 0.41012 0.22981 0.0
C2763 C 0.12392 0.40872 0.27624 0.0
C2764 C 0.14154 0.39789 0.15791 0.0
C2765 C 0.12493 0.39519 0.13116 0.0
C2766 C 0.15986 0.40022 0.13677 0.0
C2767 C 0.17772 0.40438 0.16292 0.0
C2768 C 0.17886 0.42111 0.18996 0.0
C2769 C 0.19595 0.42532 0.21353 0.0
C2770 C 0.21191 0.41278 0.21077 0.0
C2771 C 0.21088 0.39611 0.18399 0.0
C2772 C 0.19391 0.39196 0.15988 0.0
C2773 C 0.13812 0.41157 0.94044 0.0
C2774 C 0.15118 0.39902 0.9184 0.0
C2775 C 0.13579 0.41069 0.98715 0.0
C2776 C 0.14649 0.3973 1.01294 0.0
C2777 C 0.15946 0.38469 0.99097 0.0
C2778 C 0.16168 0.38545 0.94421 0.0
C2779 C 0.1445 0.3968 0.06285 0.0
C2780 C 0.16113 0.39952 0.08961 0.0
C2781 C 0.12621 0.3944 0.08409 0.0
C2782 C 0.10844 0.38973 0.05817 0.0
C2783 C 0.1076 0.3727 0.03211 0.0
C2784 C 0.09064 0.36799 1.00865 0.0
C2785 C 0.07448 0.38031 1.01058 0.0
C2786 C 0.0752 0.39727 0.03642 0.0
C2787 C 0.09207 0.40193 0.06043 0.0
H2788 H 0.06139 0.37667 0.99217 0.0
H2789 H 0.22506 0.41598 0.22937 0.0
H2790 H 0.39109 0.81546 0.10286 0.0
H2791 H 0.389 0.821 0.02198 0.0
H2792 H 0.39688 0.88259 0.04273 0.0
H2793 H 0.39975 0.87719 0.12356 0.0
H2794 H 0.36663 0.87375 0.98198 0.0
H2795 H 0.43396 0.85667 1.00602 0.0
H2796 H 0.46059 0.83582 0.0337 0.0
H2797 H 0.44039 0.7888 0.95089 0.0
H2798 H 0.41346 0.80929 0.9232 0.0
H2799 H 0.38492 0.90316 0.75802 0.0
H2800 H 0.38627 0.89706 0.83865 0.0
H2801 H 0.39077 0.83535 0.81376 0.0
H2802 H 0.39021 0.84151 0.7329 0.0
H2803 H 0.41405 0.84357 0.87746 0.0
H2804 H 0.34722 0.85895 0.85259 0.0
H2805 H 0.31922 0.87809 0.82559 0.0
H2806 H 0.33623 0.9259 0.90978 0.0
H2807 H 0.3645 0.90713 0.93685 0.0
C2808 C 0.39265 0.83019 0.09043 0.0
C2809 C 0.39571 0.84584 0.12028 0.0
C2810 C 0.39132 0.83334 0.044 0.0
C2811 C 0.39289 0.85221 0.02612 0.0
C2812 C 0.39555 0.8679 0.05569 0.0
C2813 C 0.39709 0.86476 0.1021 0.0
C2814 C 0.39198 0.85555 0.9766 0.0
C2815 C 0.37713 0.86736 0.95912 0.0
C2816 C 0.40529 0.84672 0.94657 0.0
C2817 C 0.42158 0.83445 0.96288 0.0
C2818 C 0.43511 0.84183 0.99398 0.0
C2819 C 0.45027 0.83009 1.00962 0.0
C2820 C 0.45215 0.81098 0.99415 0.0
C2821 C 0.4389 0.8036 0.96289 0.0
C2822 C 0.42369 0.81527 0.94719 0.0
C2823 C 0.38597 0.88825 0.76961 0.0
C2824 C 0.38707 0.87278 0.73868 0.0
C2825 C 0.38671 0.88476 0.81596 0.0
C2826 C 0.38817 0.86567 0.83282 0.0
C2827 C 0.38954 0.85022 0.80198 0.0
C2828 C 0.38913 0.85375 0.75558 0.0
C2829 C 0.38866 0.86187 0.88242 0.0
C2830 C 0.40346 0.84997 0.90007 0.0
C2831 C 0.37509 0.87037 0.91255 0.0
C2832 C 0.35809 0.88169 0.89642 0.0
C2833 C 0.34507 0.8736 0.8651 0.0
C2834 C 0.32914 0.88437 0.84982 0.0
C2835 C 0.32598 0.90322 0.86587 0.0
C2836 C 0.33872 0.91131 0.89733 0.0
C2837 C 0.35469 0.9006 0.91269 0.0
H2838 H 0.31364 0.91154 0.854 0.0
H2839 H 0.4639 0.80191 1.0063 0.0
H2840 H 0.87896 0.90891 0.35626 0.0
H2841 H 0.88265 0.90599 0.27505 0.0
H2842 H 0.82252 0.8888 0.26331 0.0
H2843 H 0.81845 0.89225 0.34457 0.0
H2844 H 0.8474 0.8658 0.21132 0.0
H2845 H 0.83459 0.93352 0.23496 0.0
H2846 H 0.83924 0.96582 0.26944 0.0
H2847 H 0.89785 0.96785 0.21944 0.0
H2848 H 0.89364 0.9354 0.18521 0.0
H2849 H 0.84416 0.8774 0.97213 0.0
H2850 H 0.83741 0.87944 0.05273 0.0
H2851 H 0.89511 0.90221 0.07541 0.0
H2852 H 0.90199 0.9001 0.99522 0.0
H2853 H 0.86931 0.92268 0.12165 0.0
H2854 H 0.88295 0.85469 0.10095 0.0
H2855 H 0.87893 0.82214 0.06729 0.0
H2856 H 0.81953 0.82034 0.11209 0.0
H2857 H 0.82313 0.85302 0.14551 0.0
C2858 C 0.8664 0.90473 0.33655 0.0
C2859 C 0.84834 0.901 0.35732 0.0
C2860 C 0.86859 0.90296 0.29 0.0
C2861 C 0.85282 0.89735 0.26295 0.0
C2862 C 0.8349 0.89313 0.28349 0.0
C2863 C 0.83264 0.89504 0.33009 0.0
C2864 C 0.85506 0.89619 0.21322 0.0
C2865 C 0.8519 0.8783 0.19158 0.0
C2866 C 0.86129 0.9124 0.18751 0.0
C2867 C 0.86385 0.93195 0.20788 0.0
C2868 C 0.84852 0.94078 0.23163 0.0
C2869 C 0.85107 0.95913 0.25108 0.0
C2870 C 0.86885 0.96886 0.24673 0.0
C2871 C 0.8841 0.96028 0.22283 0.0
C2872 C 0.88163 0.94192 0.20337 0.0
C2873 C 0.8555 0.88264 0.9943 0.0
C2874 C 0.87362 0.88863 0.97692 0.0
C2875 C 0.8516 0.88383 0.04046 0.0
C2876 C 0.86579 0.89086 0.07039 0.0
C2877 C 0.88386 0.89684 0.05311 0.0
C2878 C 0.88775 0.89569 1.00707 0.0
C2879 C 0.8619 0.8922 0.11964 0.0
C2880 C 0.86473 0.91016 0.14125 0.0
C2881 C 0.85545 0.87603 0.1453 0.0
C2882 C 0.85325 0.85639 0.12528 0.0
C2883 C 0.86898 0.84742 0.10329 0.0
C2884 C 0.86679 0.82894 0.08432 0.0
C2885 C 0.84897 0.8192 0.08743 0.0
C2886 C 0.83332 0.82791 0.10963 0.0
C2887 C 0.83543 0.84641 0.12862 0.0
H2888 H 0.8473 0.80489 0.07274 0.0
H2889 H 0.87079 0.98307 0.2618 0.0
H2890 H 0.89648 0.15767 0.0556 0.0
H2891 H 0.89724 0.16318 0.97449 0.0
H2892 H 0.8777 0.10429 0.95204 0.0
H2893 H 0.87684 0.09868 0.03308 0.0
H2894 H 0.90568 0.11288 0.89416 0.0
H2895 H 0.84661 0.14287 0.94018 0.0
H2896 H 0.82528 0.16427 0.98477 0.0
H2897 H 0.85718 0.21437 0.93931 0.0
H2898 H 0.87889 0.19322 0.89491 0.0
H2899 H 0.87769 0.12689 0.66481 0.0
H2900 H 0.87661 0.12077 0.74567 0.0
H2901 H 0.9032 0.17661 0.77034 0.0
H2902 H 0.905 0.18263 0.68964 0.0
H2903 H 0.87114 0.16909 0.82634 0.0
H2904 H 0.93002 0.13702 0.77817 0.0
H2905 H 0.94878 0.11439 0.73068 0.0
H2906 H 0.91429 0.06647 0.77848 0.0
H2907 H 0.8951 0.08887 0.82571 0.0
C2908 C 0.89217 0.14592 0.03348 0.0
C2909 C 0.88655 0.12773 0.0511 0.0
C2910 C 0.89265 0.14909 0.98699 0.0
C2911 C 0.88735 0.13421 0.95693 0.0
C2912 C 0.88193 0.11599 0.97438 0.0
C2913 C 0.88149 0.1128 0.02085 0.0
C2914 C 0.88737 0.13769 0.90737 0.0
C2915 C 0.89793 0.12504 0.87937 0.0
C2916 C 0.87742 0.15365 0.88778 0.0
C2917 C 0.8645 0.16645 0.91458 0.0
C2918 C 0.84919 0.15844 0.94001 0.0
C2919 C 0.83701 0.17052 0.9652 0.0
C2920 C 0.83989 0.19065 0.96497 0.0
C2921 C 0.85497 0.19876 0.93953 0.0
C2922 C 0.86722 0.18674 0.91431 0.0
C2923 C 0.88353 0.13782 0.68726 0.0
C2924 C 0.89147 0.15528 0.67028 0.0
C2925 C 0.88279 0.13432 0.7336 0.0
C2926 C 0.8899 0.1482 0.76412 0.0
C2927 C 0.89754 0.16573 0.74747 0.0
C2928 C 0.89845 0.16918 0.70117 0.0
C2929 C 0.88955 0.14439 0.8134 0.0
C2930 C 0.87892 0.15696 0.84127 0.0
C2931 C 0.89918 0.1282 0.83274 0.0
C2932 C 0.911 0.11465 0.80517 0.0
C2933 C 0.92635 0.12167 0.77835 0.0
C2934 C 0.93707 0.10889 0.75149 0.0
C2935 C 0.9327 0.08901 0.75147 0.0
C2936 C 0.91765 0.08187 0.77848 0.0
C2937 C 0.90685 0.09461 0.80533 0.0
H2938 H 0.94099 0.07914 0.7306 0.0
H2939 H 0.83038 0.19995 0.98439 0.0
H2940 H 0.0983 0.12761 0.99567 0.0
H2941 H 0.10346 0.12523 0.07639 0.0
H2942 H 0.16361 0.11021 0.05394 0.0
H2943 H 0.15837 0.1117 0.97288 0.0
H2944 H 0.14906 0.08764 0.1171 0.0
H2945 H 0.14934 0.15628 0.09044 0.0
H2946 H 0.13697 0.18766 0.06216 0.0
H2947 H 0.08612 0.18193 0.14509 0.0
H2948 H 0.09808 0.15037 0.17343 0.0
H2949 H 0.18205 0.10477 0.34003 0.0
H2950 H 0.17645 0.10721 0.25928 0.0
H2951 H 0.11502 0.11498 0.28281 0.0
H2952 H 0.12041 0.11184 0.36383 0.0
H2953 H 0.13011 0.14126 0.21973 0.0
H2954 H 0.13064 0.07235 0.24647 0.0
H2955 H 0.14393 0.04141 0.27515 0.0
H2956 H 0.19455 0.04841 0.19201 0.0
H2957 H 0.18168 0.07955 0.16331 0.0
C2958 C 0.11261 0.12355 1.00765 0.0
C2959 C 0.12786 0.1197 0.97726 0.0
C2960 C 0.1156 0.12246 0.05408 0.0
C2961 C 0.134 0.11777 0.07156 0.0
C2962 C 0.14928 0.11391 0.04144 0.0
C2963 C 0.14628 0.11492 0.99491 0.0
C2964 C 0.13719 0.11661 0.12116 0.0
C2965 C 0.14517 0.0995 0.13938 0.0
C2966 C 0.13175 0.13187 0.15066 0.0
C2967 C 0.12452 0.15086 0.13371 0.0
C2968 C 0.13545 0.16163 0.10238 0.0
C2969 C 0.12852 0.17947 0.08639 0.0
C2970 C 0.11074 0.18676 0.10173 0.0
C2971 C 0.09988 0.17625 0.13319 0.0
C2972 C 0.10673 0.15839 0.14926 0.0
C2973 C 0.16728 0.10675 0.32818 0.0
C2974 C 0.15167 0.10804 0.35873 0.0
C2975 C 0.16413 0.10825 0.28188 0.0
C2976 C 0.1453 0.11114 0.26484 0.0
C2977 C 0.1297 0.11279 0.29512 0.0
C2978 C 0.13282 0.11112 0.34151 0.0
C2979 C 0.14198 0.11234 0.21543 0.0
C2980 C 0.13398 0.12943 0.19732 0.0
C2981 C 0.14753 0.09713 0.186 0.0
C2982 C 0.15528 0.07838 0.20308 0.0
C2983 C 0.14468 0.06737 0.23459 0.0
C2984 C 0.15213 0.04979 0.2508 0.0
C2985 C 0.1701 0.04297 0.2355 0.0
C2986 C 0.18065 0.05372 0.20388 0.0
C2987 C 0.17327 0.07133 0.1876 0.0
H2988 H 0.17584 0.02935 0.24808 0.0
H2989 H 0.10541 0.20058 0.08931 0.0
H2990 H 0.13909 0.84448 0.682 0.0
H2991 H 0.14152 0.84937 0.76322 0.0
H2992 H 0.08134 0.86705 0.76741 0.0
H2993 H 0.07892 0.86257 0.68607 0.0
H2994 H 0.10348 0.89073 0.81843 0.0
H2995 H 0.09503 0.82191 0.80199 0.0
H2996 H 0.1022 0.78899 0.77356 0.0
H2997 H 0.15913 0.79146 0.83274 0.0
H2998 H 0.15242 0.82454 0.86096 0.0
H2999 H 0.08949 0.88336 0.05477 0.0
H3000 H 0.08717 0.87817 0.97361 0.0
H3001 H 0.14769 0.86172 0.9697 0.0
H3002 H 0.15004 0.8666 0.05099 0.0
H3003 H 0.12545 0.83737 0.91867 0.0
H3004 H 0.13386 0.90629 0.93478 0.0
H3005 H 0.12652 0.93912 0.9636 0.0
H3006 H 0.06943 0.93629 0.90528 0.0
H3007 H 0.07634 0.90331 0.87665 0.0
C3008 C 0.12641 0.84959 0.70009 0.0
C3009 C 0.10878 0.85307 0.67734 0.0
C3010 C 0.12777 0.85221 0.74668 0.0
C3011 C 0.11155 0.85837 0.77172 0.0
C3012 C 0.09405 0.86221 0.749 0.0
C3013 C 0.09264 0.8595 0.70245 0.0
C3014 C 0.11282 0.86084 0.82151 0.0
C3015 C 0.10804 0.87897 0.84035 0.0
C3016 C 0.11917 0.84566 0.85027 0.0
C3017 C 0.1233 0.82581 0.83315 0.0
C3018 C 0.10915 0.81552 0.80857 0.0
C3019 C 0.11312 0.79681 0.79256 0.0
C3020 C 0.13114 0.78816 0.80122 0.0
C3021 C 0.1452 0.79819 0.82599 0.0
C3022 C 0.14132 0.81692 0.84201 0.0
C3023 C 0.10227 0.87845 0.03675 0.0
C3024 C 0.11998 0.87546 0.05952 0.0
C3025 C 0.10096 0.87565 0.99022 0.0
C3026 C 0.11731 0.86975 0.96529 0.0
C3027 C 0.13489 0.86634 0.98806 0.0
C3028 C 0.13624 0.86927 0.03454 0.0
C3029 C 0.11611 0.86725 0.91553 0.0
C3030 C 0.1209 0.84913 0.89671 0.0
C3031 C 0.10975 0.88242 0.88678 0.0
C3032 C 0.10554 0.90224 0.90399 0.0
C3033 C 0.11968 0.9126 0.92845 0.0
C3034 C 0.11561 0.93125 0.94468 0.0
C3035 C 0.0975 0.93976 0.93639 0.0
C3036 C 0.08344 0.92966 0.91175 0.0
C3037 C 0.08743 0.91099 0.89548 0.0
H3038 H 0.09438 0.95421 0.94896 0.0
H3039 H 0.13417 0.77366 0.78883 0.0
loop_
_geom_bond_atom_site_label_1
_geom_bond_atom_site_label_2
_geom_bond_distance
_geom_bond_site_symmetry_2
_ccdc_geom_bond_type
C0 Eu1 2.835 1_556 S
C0 C2 1.500 . S
C0 O20 1.257 1_556 S
C0 O21 1.260 1_556 S
Eu1 C0 2.835 1_554 S
Eu1 O20 2.473 . S
Eu1 O21 2.480 . S
Eu1 O22 2.430 . S
Eu1 O23 2.670 . S
Eu1 O24 2.394 . S
Eu1 O29 2.355 . S
Eu1 O31 2.374 . S
C2 C0 1.500 . S
C2 C3 1.377 . S
C2 C7 1.377 . S
C3 C2 1.377 . S
C3 C4 1.395 . S
C3 H32 0.931 . S
C4 C3 1.395 . S
C4 C5 1.383 . S
C4 H33 0.931 . S
C5 C4 1.383 . S
C5 C6 1.394 . S
C6 C5 1.394 . S
C6 C7 1.378 . S
C6 H34 0.931 . S
C7 C2 1.377 . S
C7 C6 1.378 . S
C7 H35 0.931 . S
C8 O22 1.259 . S
C8 O23 1.270 . S
C9 O24 1.251 . S
C9 O25 1.251 . S
C10 Eu11 2.835 . S
C10 C12 1.500 . S
C10 O26 1.257 . S
C10 O27 1.260 . S
Eu11 C10 2.835 . S
Eu11 O23 2.355 . S
Eu11 O25 2.374 . S
Eu11 O26 2.473 . S
Eu11 O27 2.480 . S
Eu11 O28 2.430 . S
Eu11 O29 2.670 . S
Eu11 O30 2.394 . S
C12 C10 1.500 . S
C12 C13 1.377 . S
C12 C17 1.377 . S
C13 C12 1.377 . S
C13 C14 1.395 . S
C13 H36 0.931 . S
C14 C13 1.395 . S
C14 C15 1.383 . S
C14 H37 0.931 . S
C15 C14 1.383 . S
C15 C16 1.394 . S
C16 C15 1.394 . S
C16 C17 1.378 . S
C16 H38 0.931 . S
C17 C12 1.377 . S
C17 C16 1.378 . S
C17 H39 0.931 . S
C18 O28 1.259 . S
C18 O29 1.270 . S
C19 O30 1.251 . S
C19 O31 1.251 . S
O20 C0 1.257 1_554 S
O20 Eu1 2.473 . S
O21 C0 1.260 1_554 S
O21 Eu1 2.480 . S
O22 Eu1 2.430 . S
O22 C8 1.259 . S
O23 Eu1 2.670 . S
O23 C8 1.270 . S
O23 Eu11 2.355 . S
O24 Eu1 2.394 . S
O24 C9 1.251 . S
O25 C9 1.251 . S
O25 Eu11 2.374 . S
O26 C10 1.257 . S
O26 Eu11 2.473 . S
O27 C10 1.260 . S
O27 Eu11 2.480 . S
O28 Eu11 2.430 . S
O28 C18 1.259 . S
O29 Eu1 2.355 . S
O29 Eu11 2.670 . S
O29 C18 1.270 . S
O30 Eu11 2.394 . S
O30 C19 1.251 . S
O31 Eu1 2.374 . S
O31 C19 1.251 . S
H32 C3 0.931 . S
H33 C4 0.931 . S
H34 C6 0.931 . S
H35 C7 0.931 . S
H36 C13 0.931 . S
H37 C14 0.931 . S
H38 C16 0.931 . S
H39 C17 0.931 . S
C40 Eu41 2.835 . S
C40 C42 1.500 . S
C40 O60 1.257 . S
C40 O61 1.260 . S
Eu41 C40 2.835 . S
Eu41 O60 2.473 . S
Eu41 O61 2.480 . S
Eu41 O62 2.430 . S
Eu41 O63 2.670 . S
Eu41 O64 2.394 . S
Eu41 O69 2.355 . S
Eu41 O71 2.374 . S
C42 C40 1.500 . S
C42 C43 1.377 . S
C42 C47 1.377 . S
C43 C42 1.377 . S
C43 C44 1.395 . S
C43 H72 0.931 . S
C44 C43 1.395 . S
C44 C45 1.383 . S
C44 H73 0.931 . S
C45 C44 1.383 . S
C45 C46 1.394 . S
C46 C45 1.394 . S
C46 C47 1.378 . S
C46 H74 0.931 . S
C47 C42 1.377 . S
C47 C46 1.378 . S
C47 H75 0.931 . S
C48 O62 1.259 . S
C48 O63 1.270 . S
C49 O64 1.251 . S
C49 O65 1.251 . S
C50 Eu51 2.835 1_554 S
C50 C52 1.500 . S
C50 O66 1.257 1_554 S
C50 O67 1.260 1_554 S
Eu51 C50 2.835 1_556 S
Eu51 O63 2.355 . S
Eu51 O65 2.374 . S
Eu51 O66 2.473 . S
Eu51 O67 2.480 . S
Eu51 O68 2.430 . S
Eu51 O69 2.670 . S
Eu51 O70 2.394 . S
C52 C50 1.500 . S
C52 C53 1.377 . S
C52 C57 1.377 . S
C53 C52 1.377 . S
C53 C54 1.395 . S
C53 H76 0.931 . S
C54 C53 1.395 . S
C54 C55 1.383 . S
C54 H77 0.931 . S
C55 C54 1.383 . S
C55 C56 1.394 . S
C56 C55 1.394 . S
C56 C57 1.378 . S
C56 H78 0.931 . S
C57 C52 1.377 . S
C57 C56 1.378 . S
C57 H79 0.931 . S
C58 O68 1.259 . S
C58 O69 1.270 . S
C59 O70 1.251 . S
C59 O71 1.251 . S
O60 C40 1.257 . S
O60 Eu41 2.473 . S
O61 C40 1.260 . S
O61 Eu41 2.480 . S
O62 Eu41 2.430 . S
O62 C48 1.259 . S
O63 Eu41 2.670 . S
O63 C48 1.270 . S
O63 Eu51 2.355 . S
O64 Eu41 2.394 . S
O64 C49 1.251 . S
O65 C49 1.251 . S
O65 Eu51 2.374 . S
O66 C50 1.257 1_556 S
O66 Eu51 2.473 . S
O67 C50 1.260 1_556 S
O67 Eu51 2.480 . S
O68 Eu51 2.430 . S
O68 C58 1.259 . S
O69 Eu41 2.355 . S
O69 Eu51 2.670 . S
O69 C58 1.270 . S
O70 Eu51 2.394 . S
O70 C59 1.251 . S
O71 Eu41 2.374 . S
O71 C59 1.251 . S
H72 C43 0.931 . S
H73 C44 0.931 . S
H74 C46 0.931 . S
H75 C47 0.931 . S
H76 C53 0.931 . S
H77 C54 0.931 . S
H78 C56 0.931 . S
H79 C57 0.931 . S
C80 Eu81 2.835 1_556 S
C80 C82 1.500 . S
C80 O100 1.257 1_556 S
C80 O101 1.260 1_556 S
Eu81 C80 2.835 1_554 S
Eu81 O100 2.473 . S
Eu81 O101 2.480 . S
Eu81 O102 2.430 . S
Eu81 O103 2.670 . S
Eu81 O104 2.394 . S
Eu81 O109 2.355 . S
Eu81 O111 2.374 . S
C82 C80 1.500 . S
C82 C83 1.377 . S
C82 C87 1.377 . S
C83 C82 1.377 . S
C83 C84 1.395 . S
C83 H112 0.931 . S
C84 C83 1.395 . S
C84 C85 1.383 . S
C84 H113 0.931 . S
C85 C84 1.383 . S
C85 C86 1.394 . S
C86 C85 1.394 . S
C86 C87 1.378 . S
C86 H114 0.931 . S
C87 C82 1.377 . S
C87 C86 1.378 . S
C87 H115 0.931 . S
C88 O102 1.259 . S
C88 O103 1.270 . S
C89 O104 1.251 . S
C89 O105 1.251 . S
C90 Eu91 2.835 . S
C90 C92 1.500 . S
C90 O106 1.257 . S
C90 O107 1.260 . S
Eu91 C90 2.835 . S
Eu91 O103 2.355 . S
Eu91 O105 2.374 . S
Eu91 O106 2.473 . S
Eu91 O107 2.480 . S
Eu91 O108 2.430 . S
Eu91 O109 2.670 . S
Eu91 O110 2.394 . S
C92 C90 1.500 . S
C92 C93 1.377 . S
C92 C97 1.377 . S
C93 C92 1.377 . S
C93 C94 1.395 . S
C93 H116 0.931 . S
C94 C93 1.395 . S
C94 C95 1.383 . S
C94 H117 0.931 . S
C95 C94 1.383 . S
C95 C96 1.394 . S
C96 C95 1.394 . S
C96 C97 1.378 . S
C96 H118 0.931 . S
C97 C92 1.377 . S
C97 C96 1.378 . S
C97 H119 0.931 . S
C98 O108 1.259 . S
C98 O109 1.270 . S
C99 O110 1.251 . S
C99 O111 1.251 . S
O100 C80 1.257 1_554 S
O100 Eu81 2.473 . S
O101 C80 1.260 1_554 S
O101 Eu81 2.480 . S
O102 Eu81 2.430 . S
O102 C88 1.259 . S
O103 Eu81 2.670 . S
O103 C88 1.270 . S
O103 Eu91 2.355 . S
O104 Eu81 2.394 . S
O104 C89 1.251 . S
O105 C89 1.251 . S
O105 Eu91 2.374 . S
O106 C90 1.257 . S
O106 Eu91 2.473 . S
O107 C90 1.260 . S
O107 Eu91 2.480 . S
O108 Eu91 2.430 . S
O108 C98 1.259 . S
O109 Eu81 2.355 . S
O109 Eu91 2.670 . S
O109 C98 1.270 . S
O110 Eu91 2.394 . S
O110 C99 1.251 . S
O111 Eu81 2.374 . S
O111 C99 1.251 . S
H112 C83 0.931 . S
H113 C84 0.931 . S
H114 C86 0.931 . S
H115 C87 0.931 . S
H116 C93 0.931 . S
H117 C94 0.931 . S
H118 C96 0.931 . S
H119 C97 0.931 . S
C120 Eu121 2.835 . S
C120 C122 1.500 . S
C120 O140 1.257 . S
C120 O141 1.260 . S
Eu121 C120 2.835 . S
Eu121 O140 2.473 . S
Eu121 O141 2.480 . S
Eu121 O142 2.430 . S
Eu121 O143 2.670 . S
Eu121 O144 2.394 . S
Eu121 O149 2.355 . S
Eu121 O151 2.374 . S
C122 C120 1.500 . S
C122 C123 1.377 . S
C122 C127 1.377 . S
C123 C122 1.377 . S
C123 C124 1.395 . S
C123 H152 0.931 . S
C124 C123 1.395 . S
C124 C125 1.383 . S
C124 H153 0.931 . S
C125 C124 1.383 . S
C125 C126 1.394 . S
C126 C125 1.394 . S
C126 C127 1.378 . S
C126 H154 0.931 . S
C127 C122 1.377 . S
C127 C126 1.378 . S
C127 H155 0.931 . S
C128 O142 1.259 . S
C128 O143 1.270 . S
C129 O144 1.251 . S
C129 O145 1.251 . S
C130 Eu131 2.835 1_554 S
C130 C132 1.500 . S
C130 O146 1.257 1_554 S
C130 O147 1.260 1_554 S
Eu131 C130 2.835 1_556 S
Eu131 O143 2.355 . S
Eu131 O145 2.374 . S
Eu131 O146 2.473 . S
Eu131 O147 2.480 . S
Eu131 O148 2.430 . S
Eu131 O149 2.670 . S
Eu131 O150 2.394 . S
C132 C130 1.500 . S
C132 C133 1.377 . S
C132 C137 1.377 . S
C133 C132 1.377 . S
C133 C134 1.395 . S
C133 H156 0.931 . S
C134 C133 1.395 . S
C134 C135 1.383 . S
C134 H157 0.931 . S
C135 C134 1.383 . S
C135 C136 1.394 . S
C136 C135 1.394 . S
C136 C137 1.378 . S
C136 H158 0.931 . S
C137 C132 1.377 . S
C137 C136 1.378 . S
C137 H159 0.931 . S
C138 O148 1.259 . S
C138 O149 1.270 . S
C139 O150 1.251 . S
C139 O151 1.251 . S
O140 C120 1.257 . S
O140 Eu121 2.473 . S
O141 C120 1.260 . S
O141 Eu121 2.480 . S
O142 Eu121 2.430 . S
O142 C128 1.259 . S
O143 Eu121 2.670 . S
O143 C128 1.270 . S
O143 Eu131 2.355 . S
O144 Eu121 2.394 . S
O144 C129 1.251 . S
O145 C129 1.251 . S
O145 Eu131 2.374 . S
O146 C130 1.257 1_556 S
O146 Eu131 2.473 . S
O147 C130 1.260 1_556 S
O147 Eu131 2.480 . S
O148 Eu131 2.430 . S
O148 C138 1.259 . S
O149 Eu121 2.355 . S
O149 Eu131 2.670 . S
O149 C138 1.270 . S
O150 Eu131 2.394 . S
O150 C139 1.251 . S
O151 Eu121 2.374 . S
O151 C139 1.251 . S
H152 C123 0.931 . S
H153 C124 0.931 . S
H154 C126 0.931 . S
H155 C127 0.931 . S
H156 C133 0.931 . S
H157 C134 0.931 . S
H158 C136 0.931 . S
H159 C137 0.931 . S
C160 Eu161 2.835 . S
C160 C162 1.500 . S
C160 O180 1.257 . S
C160 O181 1.260 . S
Eu161 C160 2.835 . S
Eu161 O180 2.473 . S
Eu161 O181 2.480 . S
Eu161 O182 2.430 . S
Eu161 O183 2.670 . S
Eu161 O184 2.394 . S
Eu161 O189 2.355 . S
Eu161 O191 2.374 . S
C162 C160 1.500 . S
C162 C163 1.377 . S
C162 C167 1.377 . S
C163 C162 1.377 . S
C163 C164 1.395 . S
C163 H192 0.931 . S
C164 C163 1.395 . S
C164 C165 1.383 . S
C164 H193 0.931 . S
C165 C164 1.383 . S
C165 C166 1.394 . S
C166 C165 1.394 . S
C166 C167 1.378 . S
C166 H194 0.931 . S
C167 C162 1.377 . S
C167 C166 1.378 . S
C167 H195 0.931 . S
C168 O182 1.259 . S
C168 O183 1.270 . S
C169 O184 1.251 . S
C169 O185 1.251 . S
C170 Eu171 2.835 1_556 S
C170 C172 1.500 . S
C170 O186 1.248 1_556 S
C170 O187 1.260 . S
Eu171 C170 2.835 1_554 S
Eu171 O183 2.355 . S
Eu171 O185 2.374 . S
Eu171 O186 2.488 . S
Eu171 O187 2.480 1_554 S
Eu171 O188 2.430 . S
Eu171 O189 2.670 . S
Eu171 O190 2.394 . S
C172 C170 1.500 . S
C172 C173 1.377 . S
C172 C177 1.377 . S
C173 C172 1.377 . S
C173 C174 1.395 . S
C173 H196 0.931 . S
C174 C173 1.395 . S
C174 C175 1.383 . S
C174 H197 0.931 . S
C175 C174 1.383 . S
C175 C176 1.394 . S
C176 C175 1.394 . S
C176 C177 1.378 . S
C176 H198 0.931 . S
C177 C172 1.377 . S
C177 C176 1.378 . S
C177 H199 0.931 . S
C178 O188 1.259 . S
C178 O189 1.270 . S
C179 O190 1.251 . S
C179 O191 1.251 . S
O180 C160 1.257 . S
O180 Eu161 2.473 . S
O181 C160 1.260 . S
O181 Eu161 2.480 . S
O182 Eu161 2.430 . S
O182 C168 1.259 . S
O183 Eu161 2.670 . S
O183 C168 1.270 . S
O183 Eu171 2.355 . S
O184 Eu161 2.394 . S
O184 C169 1.251 . S
O185 C169 1.251 . S
O185 Eu171 2.374 . S
O186 C170 1.248 1_554 S
O186 Eu171 2.488 . S
O187 C170 1.260 . S
O187 Eu171 2.480 1_556 S
O188 Eu171 2.430 . S
O188 C178 1.259 . S
O189 Eu161 2.355 . S
O189 Eu171 2.670 . S
O189 C178 1.270 . S
O190 Eu171 2.394 . S
O190 C179 1.251 . S
O191 Eu161 2.374 . S
O191 C179 1.251 . S
H192 C163 0.931 . S
H193 C164 0.931 . S
H194 C166 0.931 . S
H195 C167 0.931 . S
H196 C173 0.931 . S
H197 C174 0.931 . S
H198 C176 0.931 . S
H199 C177 0.931 . S
C200 Eu201 2.835 1_554 S
C200 C202 1.500 . S
C200 O220 1.248 1_554 S
C200 O221 1.260 . S
Eu201 C200 2.835 1_556 S
Eu201 O220 2.488 . S
Eu201 O221 2.480 1_556 S
Eu201 O222 2.430 . S
Eu201 O223 2.670 . S
Eu201 O224 2.394 . S
Eu201 O229 2.355 . S
Eu201 O231 2.374 . S
C202 C200 1.500 . S
C202 C203 1.377 . S
C202 C207 1.377 . S
C203 C202 1.377 . S
C203 C204 1.395 . S
C203 H232 0.931 . S
C204 C203 1.395 . S
C204 C205 1.383 . S
C204 H233 0.931 . S
C205 C204 1.383 . S
C205 C206 1.394 . S
C206 C205 1.394 . S
C206 C207 1.378 . S
C206 H234 0.931 . S
C207 C202 1.377 . S
C207 C206 1.378 . S
C207 H235 0.931 . S
C208 O222 1.259 . S
C208 O223 1.270 . S
C209 O224 1.251 . S
C209 O225 1.251 . S
C210 Eu211 2.835 . S
C210 C212 1.500 . S
C210 O226 1.257 . S
C210 O227 1.260 . S
Eu211 C210 2.835 . S
Eu211 O223 2.355 . S
Eu211 O225 2.374 . S
Eu211 O226 2.473 . S
Eu211 O227 2.480 . S
Eu211 O228 2.430 . S
Eu211 O229 2.670 . S
Eu211 O230 2.394 . S
C212 C210 1.500 . S
C212 C213 1.377 . S
C212 C217 1.377 . S
C213 C212 1.377 . S
C213 C214 1.395 . S
C213 H236 0.931 . S
C214 C213 1.395 . S
C214 C215 1.383 . S
C214 H237 0.931 . S
C215 C214 1.383 . S
C215 C216 1.394 . S
C216 C215 1.394 . S
C216 C217 1.378 . S
C216 H238 0.931 . S
C217 C212 1.377 . S
C217 C216 1.378 . S
C217 H239 0.931 . S
C218 O228 1.259 . S
C218 O229 1.270 . S
C219 O230 1.251 . S
C219 O231 1.251 . S
O220 C200 1.248 1_556 S
O220 Eu201 2.488 . S
O221 C200 1.260 . S
O221 Eu201 2.480 1_554 S
O222 Eu201 2.430 . S
O222 C208 1.259 . S
O223 Eu201 2.670 . S
O223 C208 1.270 . S
O223 Eu211 2.355 . S
O224 Eu201 2.394 . S
O224 C209 1.251 . S
O225 C209 1.251 . S
O225 Eu211 2.374 . S
O226 C210 1.257 . S
O226 Eu211 2.473 . S
O227 C210 1.260 . S
O227 Eu211 2.480 . S
O228 Eu211 2.430 . S
O228 C218 1.259 . S
O229 Eu201 2.355 . S
O229 Eu211 2.670 . S
O229 C218 1.270 . S
O230 Eu211 2.394 . S
O230 C219 1.251 . S
O231 Eu201 2.374 . S
O231 C219 1.251 . S
H232 C203 0.931 . S
H233 C204 0.931 . S
H234 C206 0.931 . S
H235 C207 0.931 . S
H236 C213 0.931 . S
H237 C214 0.931 . S
H238 C216 0.931 . S
H239 C217 0.931 . S
C240 Eu241 2.835 . S
C240 C242 1.500 . S
C240 O260 1.257 . S
C240 O261 1.260 . S
Eu241 C240 2.835 . S
Eu241 O260 2.473 . S
Eu241 O261 2.480 . S
Eu241 O262 2.430 . S
Eu241 O263 2.670 . S
Eu241 O264 2.394 . S
Eu241 O269 2.355 . S
Eu241 O271 2.374 . S
C242 C240 1.500 . S
C242 C243 1.377 . S
C242 C247 1.377 . S
C243 C242 1.377 . S
C243 C244 1.395 . S
C243 H272 0.931 . S
C244 C243 1.395 . S
C244 C245 1.383 . S
C244 H273 0.931 . S
C245 C244 1.383 . S
C245 C246 1.394 . S
C246 C245 1.394 . S
C246 C247 1.378 . S
C246 H274 0.931 . S
C247 C242 1.377 . S
C247 C246 1.378 . S
C247 H275 0.931 . S
C248 O262 1.259 . S
C248 O263 1.270 . S
C249 O264 1.251 . S
C249 O265 1.251 . S
C250 Eu251 2.835 1_556 S
C250 C252 1.500 . S
C250 O266 1.248 1_556 S
C250 O267 1.260 . S
Eu251 C250 2.835 1_554 S
Eu251 O263 2.355 . S
Eu251 O265 2.374 . S
Eu251 O266 2.488 . S
Eu251 O267 2.480 1_554 S
Eu251 O268 2.430 . S
Eu251 O269 2.670 . S
Eu251 O270 2.394 . S
C252 C250 1.500 . S
C252 C253 1.377 . S
C252 C257 1.377 . S
C253 C252 1.377 . S
C253 C254 1.395 . S
C253 H276 0.931 . S
C254 C253 1.395 . S
C254 C255 1.383 . S
C254 H277 0.931 . S
C255 C254 1.383 . S
C255 C256 1.394 . S
C256 C255 1.394 . S
C256 C257 1.378 . S
C256 H278 0.931 . S
C257 C252 1.377 . S
C257 C256 1.378 . S
C257 H279 0.931 . S
C258 O268 1.259 . S
C258 O269 1.270 . S
C259 O270 1.251 . S
C259 O271 1.251 . S
O260 C240 1.257 . S
O260 Eu241 2.473 . S
O261 C240 1.260 . S
O261 Eu241 2.480 . S
O262 Eu241 2.430 . S
O262 C248 1.259 . S
O263 Eu241 2.670 . S
O263 C248 1.270 . S
O263 Eu251 2.355 . S
O264 Eu241 2.394 . S
O264 C249 1.251 . S
O265 C249 1.251 . S
O265 Eu251 2.374 . S
O266 C250 1.248 1_554 S
O266 Eu251 2.488 . S
O267 C250 1.260 . S
O267 Eu251 2.480 1_556 S
O268 Eu251 2.430 . S
O268 C258 1.259 . S
O269 Eu241 2.355 . S
O269 Eu251 2.670 . S
O269 C258 1.270 . S
O270 Eu251 2.394 . S
O270 C259 1.251 . S
O271 Eu241 2.374 . S
O271 C259 1.251 . S
H272 C243 0.931 . S
H273 C244 0.931 . S
H274 C246 0.931 . S
H275 C247 0.931 . S
H276 C253 0.931 . S
H277 C254 0.931 . S
H278 C256 0.931 . S
H279 C257 0.931 . S
C280 Eu281 2.835 1_554 S
C280 C282 1.500 . S
C280 O300 1.248 1_554 S
C280 O301 1.260 . S
Eu281 C280 2.835 1_556 S
Eu281 O300 2.488 . S
Eu281 O301 2.480 1_556 S
Eu281 O302 2.430 . S
Eu281 O303 2.670 . S
Eu281 O304 2.394 . S
Eu281 O309 2.355 . S
Eu281 O311 2.374 . S
C282 C280 1.500 . S
C282 C283 1.377 . S
C282 C287 1.377 . S
C283 C282 1.377 . S
C283 C284 1.395 . S
C283 H312 0.931 . S
C284 C283 1.395 . S
C284 C285 1.383 . S
C284 H313 0.931 . S
C285 C284 1.383 . S
C285 C286 1.394 . S
C286 C285 1.394 . S
C286 C287 1.378 . S
C286 H314 0.931 . S
C287 C282 1.377 . S
C287 C286 1.378 . S
C287 H315 0.931 . S
C288 O302 1.259 . S
C288 O303 1.270 . S
C289 O304 1.251 . S
C289 O305 1.251 . S
C290 Eu291 2.835 . S
C290 C292 1.500 . S
C290 O306 1.257 . S
C290 O307 1.260 . S
Eu291 C290 2.835 . S
Eu291 O303 2.355 . S
Eu291 O305 2.374 . S
Eu291 O306 2.473 . S
Eu291 O307 2.480 . S
Eu291 O308 2.430 . S
Eu291 O309 2.670 . S
Eu291 O310 2.394 . S
C292 C290 1.500 . S
C292 C293 1.377 . S
C292 C297 1.377 . S
C293 C292 1.377 . S
C293 C294 1.395 . S
C293 H316 0.931 . S
C294 C293 1.395 . S
C294 C295 1.383 . S
C294 H317 0.931 . S
C295 C294 1.383 . S
C295 C296 1.394 . S
C296 C295 1.394 . S
C296 C297 1.378 . S
C296 H318 0.931 . S
C297 C292 1.377 . S
C297 C296 1.378 . S
C297 H319 0.931 . S
C298 O308 1.259 . S
C298 O309 1.270 . S
C299 O310 1.251 . S
C299 O311 1.251 . S
O300 C280 1.248 1_556 S
O300 Eu281 2.488 . S
O301 C280 1.260 . S
O301 Eu281 2.480 1_554 S
O302 Eu281 2.430 . S
O302 C288 1.259 . S
O303 Eu281 2.670 . S
O303 C288 1.270 . S
O303 Eu291 2.355 . S
O304 Eu281 2.394 . S
O304 C289 1.251 . S
O305 C289 1.251 . S
O305 Eu291 2.374 . S
O306 C290 1.257 . S
O306 Eu291 2.473 . S
O307 C290 1.260 . S
O307 Eu291 2.480 . S
O308 Eu291 2.430 . S
O308 C298 1.259 . S
O309 Eu281 2.355 . S
O309 Eu291 2.670 . S
O309 C298 1.270 . S
O310 Eu291 2.394 . S
O310 C299 1.251 . S
O311 Eu281 2.374 . S
O311 C299 1.251 . S
H312 C283 0.931 . S
H313 C284 0.931 . S
H314 C286 0.931 . S
H315 C287 0.931 . S
H316 C293 0.931 . S
H317 C294 0.931 . S
H318 C296 0.931 . S
H319 C297 0.931 . S
C320 Eu321 2.835 . S
C320 C322 1.500 . S
C320 O340 1.257 . S
C320 O341 1.260 . S
Eu321 C320 2.835 . S
Eu321 O340 2.473 . S
Eu321 O341 2.480 . S
Eu321 O342 2.430 . S
Eu321 O343 2.670 . S
Eu321 O344 2.394 . S
Eu321 O349 2.355 . S
Eu321 O351 2.374 . S
C322 C320 1.500 . S
C322 C323 1.377 . S
C322 C327 1.377 . S
C323 C322 1.377 . S
C323 C324 1.395 . S
C323 H352 0.931 . S
C324 C323 1.395 . S
C324 C325 1.383 . S
C324 H353 0.931 . S
C325 C324 1.383 . S
C325 C326 1.394 . S
C326 C325 1.394 . S
C326 C327 1.378 . S
C326 H354 0.931 . S
C327 C322 1.377 . S
C327 C326 1.378 . S
C327 H355 0.931 . S
C328 O342 1.259 . S
C328 O343 1.270 . S
C329 O344 1.251 . S
C329 O345 1.251 . S
C330 Eu331 2.835 . S
C330 C332 1.500 . S
C330 O346 1.257 . S
C330 O347 1.260 . S
Eu331 C330 2.835 . S
Eu331 O343 2.355 . S
Eu331 O345 2.374 . S
Eu331 O346 2.473 . S
Eu331 O347 2.480 . S
Eu331 O348 2.430 . S
Eu331 O349 2.670 . S
Eu331 O350 2.394 . S
C332 C330 1.500 . S
C332 C333 1.377 . S
C332 C337 1.377 . S
C333 C332 1.377 . S
C333 C334 1.395 . S
C333 H356 0.931 . S
C334 C333 1.395 . S
C334 C335 1.383 . S
C334 H357 0.931 . S
C335 C334 1.383 . S
C335 C336 1.394 . S
C336 C335 1.394 . S
C336 C337 1.378 . S
C336 H358 0.931 . S
C337 C332 1.377 . S
C337 C336 1.378 . S
C337 H359 0.931 . S
C338 O348 1.259 . S
C338 O349 1.270 . S
C339 O350 1.251 . S
C339 O351 1.251 . S
O340 C320 1.257 . S
O340 Eu321 2.473 . S
O341 C320 1.260 . S
O341 Eu321 2.480 . S
O342 Eu321 2.430 . S
O342 C328 1.259 . S
O343 Eu321 2.670 . S
O343 C328 1.270 . S
O343 Eu331 2.355 . S
O344 Eu321 2.394 . S
O344 C329 1.251 . S
O345 C329 1.251 . S
O345 Eu331 2.374 . S
O346 C330 1.257 . S
O346 Eu331 2.473 . S
O347 C330 1.260 . S
O347 Eu331 2.480 . S
O348 Eu331 2.430 . S
O348 C338 1.259 . S
O349 Eu321 2.355 . S
O349 Eu331 2.670 . S
O349 C338 1.270 . S
O350 Eu331 2.394 . S
O350 C339 1.251 . S
O351 Eu321 2.374 . S
O351 C339 1.251 . S
H352 C323 0.931 . S
H353 C324 0.931 . S
H354 C326 0.931 . S
H355 C327 0.931 . S
H356 C333 0.931 . S
H357 C334 0.931 . S
H358 C336 0.931 . S
H359 C337 0.931 . S
C360 Eu361 2.835 . S
C360 C362 1.500 . S
C360 O380 1.257 . S
C360 O381 1.260 . S
Eu361 C360 2.835 . S
Eu361 O380 2.473 . S
Eu361 O381 2.480 . S
Eu361 O382 2.430 . S
Eu361 O383 2.670 . S
Eu361 O384 2.394 . S
Eu361 O389 2.355 . S
Eu361 O391 2.374 . S
C362 C360 1.500 . S
C362 C363 1.377 . S
C362 C367 1.377 . S
C363 C362 1.377 . S
C363 C364 1.395 . S
C363 H392 0.931 . S
C364 C363 1.395 . S
C364 C365 1.383 . S
C364 H393 0.931 . S
C365 C364 1.383 . S
C365 C366 1.394 . S
C366 C365 1.394 . S
C366 C367 1.378 . S
C366 H394 0.931 . S
C367 C362 1.377 . S
C367 C366 1.378 . S
C367 H395 0.931 . S
C368 O382 1.259 . S
C368 O383 1.270 . S
C369 O384 1.251 . S
C369 O385 1.251 . S
C370 Eu371 2.835 . S
C370 C372 1.500 . S
C370 O386 1.257 . S
C370 O387 1.260 . S
Eu371 C370 2.835 . S
Eu371 O383 2.355 . S
Eu371 O385 2.374 . S
Eu371 O386 2.473 . S
Eu371 O387 2.480 . S
Eu371 O388 2.430 . S
Eu371 O389 2.670 . S
Eu371 O390 2.394 . S
C372 C370 1.500 . S
C372 C373 1.377 . S
C372 C377 1.377 . S
C373 C372 1.377 . S
C373 C374 1.395 . S
C373 H396 0.931 . S
C374 C373 1.395 . S
C374 C375 1.383 . S
C374 H397 0.931 . S
C375 C374 1.383 . S
C375 C376 1.394 . S
C376 C375 1.394 . S
C376 C377 1.378 . S
C376 H398 0.931 . S
C377 C372 1.377 . S
C377 C376 1.378 . S
C377 H399 0.931 . S
C378 O388 1.259 . S
C378 O389 1.270 . S
C379 O390 1.251 . S
C379 O391 1.251 . S
O380 C360 1.257 . S
O380 Eu361 2.473 . S
O381 C360 1.260 . S
O381 Eu361 2.480 . S
O382 Eu361 2.430 . S
O382 C368 1.259 . S
O383 Eu361 2.670 . S
O383 C368 1.270 . S
O383 Eu371 2.355 . S
O384 Eu361 2.394 . S
O384 C369 1.251 . S
O385 C369 1.251 . S
O385 Eu371 2.374 . S
O386 C370 1.257 . S
O386 Eu371 2.473 . S
O387 C370 1.260 . S
O387 Eu371 2.480 . S
O388 Eu371 2.430 . S
O388 C378 1.259 . S
O389 Eu361 2.355 . S
O389 Eu371 2.670 . S
O389 C378 1.270 . S
O390 Eu371 2.394 . S
O390 C379 1.251 . S
O391 Eu361 2.374 . S
O391 C379 1.251 . S
H392 C363 0.931 . S
H393 C364 0.931 . S
H394 C366 0.931 . S
H395 C367 0.931 . S
H396 C373 0.931 . S
H397 C374 0.931 . S
H398 C376 0.931 . S
H399 C377 0.931 . S
C400 Eu401 2.835 . S
C400 C402 1.500 . S
C400 O420 1.257 . S
C400 O421 1.260 . S
Eu401 C400 2.835 . S
Eu401 O420 2.473 . S
Eu401 O421 2.480 . S
Eu401 O422 2.430 . S
Eu401 O423 2.670 . S
Eu401 O424 2.394 . S
Eu401 O429 2.355 . S
Eu401 O431 2.374 . S
C402 C400 1.500 . S
C402 C403 1.377 . S
C402 C407 1.377 . S
C403 C402 1.377 . S
C403 C404 1.395 . S
C403 H432 0.931 . S
C404 C403 1.395 . S
C404 C405 1.383 . S
C404 H433 0.931 . S
C405 C404 1.383 . S
C405 C406 1.394 . S
C406 C405 1.394 . S
C406 C407 1.378 . S
C406 H434 0.931 . S
C407 C402 1.377 . S
C407 C406 1.378 . S
C407 H435 0.931 . S
C408 O422 1.259 . S
C408 O423 1.270 . S
C409 O424 1.251 . S
C409 O425 1.251 . S
C410 Eu411 2.835 . S
C410 C412 1.500 . S
C410 O426 1.257 . S
C410 O427 1.260 . S
Eu411 C410 2.835 . S
Eu411 O423 2.355 . S
Eu411 O425 2.374 . S
Eu411 O426 2.473 . S
Eu411 O427 2.480 . S
Eu411 O428 2.430 . S
Eu411 O429 2.670 . S
Eu411 O430 2.394 . S
C412 C410 1.500 . S
C412 C413 1.377 . S
C412 C417 1.377 . S
C413 C412 1.377 . S
C413 C414 1.395 . S
C413 H436 0.931 . S
C414 C413 1.395 . S
C414 C415 1.383 . S
C414 H437 0.931 . S
C415 C414 1.383 . S
C415 C416 1.394 . S
C416 C415 1.394 . S
C416 C417 1.378 . S
C416 H438 0.931 . S
C417 C412 1.377 . S
C417 C416 1.378 . S
C417 H439 0.931 . S
C418 O428 1.259 . S
C418 O429 1.270 . S
C419 O430 1.251 . S
C419 O431 1.251 . S
O420 C400 1.257 . S
O420 Eu401 2.473 . S
O421 C400 1.260 . S
O421 Eu401 2.480 . S
O422 Eu401 2.430 . S
O422 C408 1.259 . S
O423 Eu401 2.670 . S
O423 C408 1.270 . S
O423 Eu411 2.355 . S
O424 Eu401 2.394 . S
O424 C409 1.251 . S
O425 C409 1.251 . S
O425 Eu411 2.374 . S
O426 C410 1.257 . S
O426 Eu411 2.473 . S
O427 C410 1.260 . S
O427 Eu411 2.480 . S
O428 Eu411 2.430 . S
O428 C418 1.259 . S
O429 Eu401 2.355 . S
O429 Eu411 2.670 . S
O429 C418 1.270 . S
O430 Eu411 2.394 . S
O430 C419 1.251 . S
O431 Eu401 2.374 . S
O431 C419 1.251 . S
H432 C403 0.931 . S
H433 C404 0.931 . S
H434 C406 0.931 . S
H435 C407 0.931 . S
H436 C413 0.931 . S
H437 C414 0.931 . S
H438 C416 0.931 . S
H439 C417 0.931 . S
C440 Eu441 2.835 . S
C440 C442 1.500 . S
C440 O460 1.257 . S
C440 O461 1.260 . S
Eu441 C440 2.835 . S
Eu441 O460 2.473 . S
Eu441 O461 2.480 . S
Eu441 O462 2.430 . S
Eu441 O463 2.670 . S
Eu441 O464 2.394 . S
Eu441 O469 2.355 . S
Eu441 O471 2.374 . S
C442 C440 1.500 . S
C442 C443 1.377 . S
C442 C447 1.377 . S
C443 C442 1.377 . S
C443 C444 1.395 . S
C443 H472 0.931 . S
C444 C443 1.395 . S
C444 C445 1.383 . S
C444 H473 0.931 . S
C445 C444 1.383 . S
C445 C446 1.394 . S
C446 C445 1.394 . S
C446 C447 1.378 . S
C446 H474 0.931 . S
C447 C442 1.377 . S
C447 C446 1.378 . S
C447 H475 0.931 . S
C448 O462 1.259 . S
C448 O463 1.270 . S
C449 O464 1.251 . S
C449 O465 1.251 . S
C450 Eu451 2.835 . S
C450 C452 1.500 . S
C450 O466 1.257 . S
C450 O467 1.260 . S
Eu451 C450 2.835 . S
Eu451 O463 2.355 . S
Eu451 O465 2.374 . S
Eu451 O466 2.473 . S
Eu451 O467 2.480 . S
Eu451 O468 2.430 . S
Eu451 O469 2.670 . S
Eu451 O470 2.394 . S
C452 C450 1.500 . S
C452 C453 1.377 . S
C452 C457 1.377 . S
C453 C452 1.377 . S
C453 C454 1.395 . S
C453 H476 0.931 . S
C454 C453 1.395 . S
C454 C455 1.383 . S
C454 H477 0.931 . S
C455 C454 1.383 . S
C455 C456 1.394 . S
C456 C455 1.394 . S
C456 C457 1.378 . S
C456 H478 0.931 . S
C457 C452 1.377 . S
C457 C456 1.378 . S
C457 H479 0.931 . S
C458 O468 1.259 . S
C458 O469 1.270 . S
C459 O470 1.251 . S
C459 O471 1.251 . S
O460 C440 1.257 . S
O460 Eu441 2.473 . S
O461 C440 1.260 . S
O461 Eu441 2.480 . S
O462 Eu441 2.430 . S
O462 C448 1.259 . S
O463 Eu441 2.670 . S
O463 C448 1.270 . S
O463 Eu451 2.355 . S
O464 Eu441 2.394 . S
O464 C449 1.251 . S
O465 C449 1.251 . S
O465 Eu451 2.374 . S
O466 C450 1.257 . S
O466 Eu451 2.473 . S
O467 C450 1.260 . S
O467 Eu451 2.480 . S
O468 Eu451 2.430 . S
O468 C458 1.259 . S
O469 Eu441 2.355 . S
O469 Eu451 2.670 . S
O469 C458 1.270 . S
O470 Eu451 2.394 . S
O470 C459 1.251 . S
O471 Eu441 2.374 . S
O471 C459 1.251 . S
H472 C443 0.931 . S
H473 C444 0.931 . S
H474 C446 0.931 . S
H475 C447 0.931 . S
H476 C453 0.931 . S
H477 C454 0.931 . S
H478 C456 0.931 . S
H479 C457 0.931 . S
C480 Eu481 2.835 . S
C480 C482 1.500 . S
C480 O500 1.257 . S
C480 O501 1.260 . S
Eu481 C480 2.835 . S
Eu481 O500 2.473 . S
Eu481 O501 2.480 . S
Eu481 O502 2.430 . S
Eu481 O503 2.670 . S
Eu481 O504 2.394 . S
Eu481 O509 2.355 . S
Eu481 O511 2.374 . S
C482 C480 1.500 . S
C482 C483 1.377 . S
C482 C487 1.377 . S
C483 C482 1.377 . S
C483 C484 1.395 . S
C483 H512 0.931 . S
C484 C483 1.395 . S
C484 C485 1.383 . S
C484 H513 0.931 . S
C485 C484 1.383 . S
C485 C486 1.394 . S
C486 C485 1.394 . S
C486 C487 1.378 . S
C486 H514 0.931 . S
C487 C482 1.377 . S
C487 C486 1.378 . S
C487 H515 0.931 . S
C488 O502 1.259 . S
C488 O503 1.270 . S
C489 O504 1.251 . S
C489 O505 1.251 . S
C490 Eu491 2.835 . S
C490 C492 1.500 . S
C490 O506 1.257 . S
C490 O507 1.260 . S
Eu491 C490 2.835 . S
Eu491 O503 2.355 . S
Eu491 O505 2.374 . S
Eu491 O506 2.473 . S
Eu491 O507 2.480 . S
Eu491 O508 2.430 . S
Eu491 O509 2.670 . S
Eu491 O510 2.394 . S
C492 C490 1.500 . S
C492 C493 1.377 . S
C492 C497 1.377 . S
C493 C492 1.377 . S
C493 C494 1.395 . S
C493 H516 0.931 . S
C494 C493 1.395 . S
C494 C495 1.383 . S
C494 H517 0.931 . S
C495 C494 1.383 . S
C495 C496 1.394 . S
C496 C495 1.394 . S
C496 C497 1.378 . S
C496 H518 0.931 . S
C497 C492 1.377 . S
C497 C496 1.378 . S
C497 H519 0.931 . S
C498 O508 1.259 . S
C498 O509 1.270 . S
C499 O510 1.251 . S
C499 O511 1.251 . S
O500 C480 1.257 . S
O500 Eu481 2.473 . S
O501 C480 1.260 . S
O501 Eu481 2.480 . S
O502 Eu481 2.430 . S
O502 C488 1.259 . S
O503 Eu481 2.670 . S
O503 C488 1.270 . S
O503 Eu491 2.355 . S
O504 Eu481 2.394 . S
O504 C489 1.251 . S
O505 C489 1.251 . S
O505 Eu491 2.374 . S
O506 C490 1.257 . S
O506 Eu491 2.473 . S
O507 C490 1.260 . S
O507 Eu491 2.480 . S
O508 Eu491 2.430 . S
O508 C498 1.259 . S
O509 Eu481 2.355 . S
O509 Eu491 2.670 . S
O509 C498 1.270 . S
O510 Eu491 2.394 . S
O510 C499 1.251 . S
O511 Eu481 2.374 . S
O511 C499 1.251 . S
H512 C483 0.931 . S
H513 C484 0.931 . S
H514 C486 0.931 . S
H515 C487 0.931 . S
H516 C493 0.931 . S
H517 C494 0.931 . S
H518 C496 0.931 . S
H519 C497 0.931 . S
C520 Eu521 2.835 . S
C520 C522 1.500 . S
C520 O540 1.257 . S
C520 O541 1.260 . S
Eu521 C520 2.835 . S
Eu521 O540 2.473 . S
Eu521 O541 2.480 . S
Eu521 O542 2.430 . S
Eu521 O543 2.670 . S
Eu521 O544 2.394 . S
Eu521 O549 2.355 . S
Eu521 O551 2.374 . S
C522 C520 1.500 . S
C522 C523 1.377 . S
C522 C527 1.377 . S
C523 C522 1.377 . S
C523 C524 1.395 . S
C523 H552 0.931 . S
C524 C523 1.395 . S
C524 C525 1.383 . S
C524 H553 0.931 . S
C525 C524 1.383 . S
C525 C526 1.394 . S
C526 C525 1.394 . S
C526 C527 1.378 . S
C526 H554 0.931 . S
C527 C522 1.377 . S
C527 C526 1.378 . S
C527 H555 0.931 . S
C528 O542 1.259 . S
C528 O543 1.270 . S
C529 O544 1.251 . S
C529 O545 1.251 . S
C530 Eu531 2.835 . S
C530 C532 1.500 . S
C530 O546 1.257 . S
C530 O547 1.260 . S
Eu531 C530 2.835 . S
Eu531 O543 2.355 . S
Eu531 O545 2.374 . S
Eu531 O546 2.473 . S
Eu531 O547 2.480 . S
Eu531 O548 2.430 . S
Eu531 O549 2.670 . S
Eu531 O550 2.394 . S
C532 C530 1.500 . S
C532 C533 1.377 . S
C532 C537 1.377 . S
C533 C532 1.377 . S
C533 C534 1.395 . S
C533 H556 0.931 . S
C534 C533 1.395 . S
C534 C535 1.383 . S
C534 H557 0.931 . S
C535 C534 1.383 . S
C535 C536 1.394 . S
C536 C535 1.394 . S
C536 C537 1.378 . S
C536 H558 0.931 . S
C537 C532 1.377 . S
C537 C536 1.378 . S
C537 H559 0.931 . S
C538 O548 1.259 . S
C538 O549 1.270 . S
C539 O550 1.251 . S
C539 O551 1.251 . S
O540 C520 1.257 . S
O540 Eu521 2.473 . S
O541 C520 1.260 . S
O541 Eu521 2.480 . S
O542 Eu521 2.430 . S
O542 C528 1.259 . S
O543 Eu521 2.670 . S
O543 C528 1.270 . S
O543 Eu531 2.355 . S
O544 Eu521 2.394 . S
O544 C529 1.251 . S
O545 C529 1.251 . S
O545 Eu531 2.374 . S
O546 C530 1.257 . S
O546 Eu531 2.473 . S
O547 C530 1.260 . S
O547 Eu531 2.480 . S
O548 Eu531 2.430 . S
O548 C538 1.259 . S
O549 Eu521 2.355 . S
O549 Eu531 2.670 . S
O549 C538 1.270 . S
O550 Eu531 2.394 . S
O550 C539 1.251 . S
O551 Eu521 2.374 . S
O551 C539 1.251 . S
H552 C523 0.931 . S
H553 C524 0.931 . S
H554 C526 0.931 . S
H555 C527 0.931 . S
H556 C533 0.931 . S
H557 C534 0.931 . S
H558 C536 0.931 . S
H559 C537 0.931 . S
C560 Eu561 2.835 . S
C560 C562 1.500 . S
C560 O580 1.257 . S
C560 O581 1.260 . S
Eu561 C560 2.835 . S
Eu561 O580 2.473 . S
Eu561 O581 2.480 . S
Eu561 O582 2.430 . S
Eu561 O583 2.670 . S
Eu561 O584 2.394 . S
Eu561 O589 2.355 . S
Eu561 O591 2.374 . S
C562 C560 1.500 . S
C562 C563 1.377 . S
C562 C567 1.377 . S
C563 C562 1.377 . S
C563 C564 1.395 . S
C563 H592 0.931 . S
C564 C563 1.395 . S
C564 C565 1.383 . S
C564 H593 0.931 . S
C565 C564 1.383 . S
C565 C566 1.394 . S
C566 C565 1.394 . S
C566 C567 1.378 . S
C566 H594 0.931 . S
C567 C562 1.377 . S
C567 C566 1.378 . S
C567 H595 0.931 . S
C568 O582 1.259 . S
C568 O583 1.270 . S
C569 O584 1.251 . S
C569 O585 1.251 . S
C570 Eu571 2.835 . S
C570 C572 1.500 . S
C570 O586 1.257 . S
C570 O587 1.260 . S
Eu571 C570 2.835 . S
Eu571 O583 2.355 . S
Eu571 O585 2.374 . S
Eu571 O586 2.473 . S
Eu571 O587 2.480 . S
Eu571 O588 2.430 . S
Eu571 O589 2.670 . S
Eu571 O590 2.394 . S
C572 C570 1.500 . S
C572 C573 1.377 . S
C572 C577 1.377 . S
C573 C572 1.377 . S
C573 C574 1.395 . S
C573 H596 0.931 . S
C574 C573 1.395 . S
C574 C575 1.383 . S
C574 H597 0.931 . S
C575 C574 1.383 . S
C575 C576 1.394 . S
C576 C575 1.394 . S
C576 C577 1.378 . S
C576 H598 0.931 . S
C577 C572 1.377 . S
C577 C576 1.378 . S
C577 H599 0.931 . S
C578 O588 1.259 . S
C578 O589 1.270 . S
C579 O590 1.251 . S
C579 O591 1.251 . S
O580 C560 1.257 . S
O580 Eu561 2.473 . S
O581 C560 1.260 . S
O581 Eu561 2.480 . S
O582 Eu561 2.430 . S
O582 C568 1.259 . S
O583 Eu561 2.670 . S
O583 C568 1.270 . S
O583 Eu571 2.355 . S
O584 Eu561 2.394 . S
O584 C569 1.251 . S
O585 C569 1.251 . S
O585 Eu571 2.374 . S
O586 C570 1.257 . S
O586 Eu571 2.473 . S
O587 C570 1.260 . S
O587 Eu571 2.480 . S
O588 Eu571 2.430 . S
O588 C578 1.259 . S
O589 Eu561 2.355 . S
O589 Eu571 2.670 . S
O589 C578 1.270 . S
O590 Eu571 2.394 . S
O590 C579 1.251 . S
O591 Eu561 2.374 . S
O591 C579 1.251 . S
H592 C563 0.931 . S
H593 C564 0.931 . S
H594 C566 0.931 . S
H595 C567 0.931 . S
H596 C573 0.931 . S
H597 C574 0.931 . S
H598 C576 0.931 . S
H599 C577 0.931 . S
C600 Eu601 2.835 . S
C600 C602 1.500 . S
C600 O620 1.257 . S
C600 O621 1.260 . S
Eu601 C600 2.835 . S
Eu601 O620 2.473 . S
Eu601 O621 2.480 . S
Eu601 O622 2.430 . S
Eu601 O623 2.670 . S
Eu601 O624 2.394 . S
Eu601 O629 2.355 . S
Eu601 O631 2.374 . S
C602 C600 1.500 . S
C602 C603 1.377 . S
C602 C607 1.377 . S
C603 C602 1.377 . S
C603 C604 1.395 . S
C603 H632 0.931 . S
C604 C603 1.395 . S
C604 C605 1.383 . S
C604 H633 0.931 . S
C605 C604 1.383 . S
C605 C606 1.394 . S
C606 C605 1.394 . S
C606 C607 1.378 . S
C606 H634 0.931 . S
C607 C602 1.377 . S
C607 C606 1.378 . S
C607 H635 0.931 . S
C608 O622 1.259 . S
C608 O623 1.270 . S
C609 O624 1.251 . S
C609 O625 1.251 . S
C610 Eu611 2.835 . S
C610 C612 1.500 . S
C610 O626 1.257 . S
C610 O627 1.260 . S
Eu611 C610 2.835 . S
Eu611 O623 2.355 . S
Eu611 O625 2.374 . S
Eu611 O626 2.473 . S
Eu611 O627 2.480 . S
Eu611 O628 2.430 . S
Eu611 O629 2.670 . S
Eu611 O630 2.394 . S
C612 C610 1.500 . S
C612 C613 1.377 . S
C612 C617 1.377 . S
C613 C612 1.377 . S
C613 C614 1.395 . S
C613 H636 0.931 . S
C614 C613 1.395 . S
C614 C615 1.383 . S
C614 H637 0.931 . S
C615 C614 1.383 . S
C615 C616 1.394 . S
C616 C615 1.394 . S
C616 C617 1.378 . S
C616 H638 0.931 . S
C617 C612 1.377 . S
C617 C616 1.378 . S
C617 H639 0.931 . S
C618 O628 1.259 . S
C618 O629 1.270 . S
C619 O630 1.251 . S
C619 O631 1.251 . S
O620 C600 1.257 . S
O620 Eu601 2.473 . S
O621 C600 1.260 . S
O621 Eu601 2.480 . S
O622 Eu601 2.430 . S
O622 C608 1.259 . S
O623 Eu601 2.670 . S
O623 C608 1.270 . S
O623 Eu611 2.355 . S
O624 Eu601 2.394 . S
O624 C609 1.251 . S
O625 C609 1.251 . S
O625 Eu611 2.374 . S
O626 C610 1.257 . S
O626 Eu611 2.473 . S
O627 C610 1.260 . S
O627 Eu611 2.480 . S
O628 Eu611 2.430 . S
O628 C618 1.259 . S
O629 Eu601 2.355 . S
O629 Eu611 2.670 . S
O629 C618 1.270 . S
O630 Eu611 2.394 . S
O630 C619 1.251 . S
O631 Eu601 2.374 . S
O631 C619 1.251 . S
H632 C603 0.931 . S
H633 C604 0.931 . S
H634 C606 0.931 . S
H635 C607 0.931 . S
H636 C613 0.931 . S
H637 C614 0.931 . S
H638 C616 0.931 . S
H639 C617 0.931 . S
H640 C658 0.951 . S
H641 C660 0.951 . S
H642 C662 0.950 . S
H643 C663 0.950 . S
H644 C665 0.950 . S
H645 C668 0.950 . S
H646 C669 0.950 . S
H647 C671 0.950 . S
H648 C672 0.950 . S
H649 C673 0.951 . S
H650 C675 0.951 . S
H651 C677 0.950 . S
H652 C678 0.950 . S
H653 C680 0.950 . S
H654 C683 0.950 . S
H655 C684 0.950 . S
H656 C686 0.950 . S
H657 C687 0.950 . S
C658 H640 0.951 . S
C658 C659 1.366 . S
C658 C660 1.388 . S
C659 C658 1.366 . S
C659 C663 1.385 . S
C660 H641 0.951 . S
C660 C658 1.388 . S
C660 C661 1.366 . S
C661 C660 1.366 . S
C661 C662 1.414 . S
C661 C664 1.499 . S
C662 H642 0.950 . S
C662 C661 1.414 . S
C662 C663 1.374 . S
C663 H643 0.950 . S
C663 C659 1.385 . S
C663 C662 1.374 . S
C664 C661 1.499 . S
C664 C665 1.373 . S
C664 C666 1.389 . S
C665 H644 0.950 . S
C665 C664 1.373 . S
C665 C681 1.377 . S
C666 C664 1.389 . S
C666 C667 1.524 . S
C666 C680 1.377 . S
C667 C666 1.524 . S
C667 C668 1.397 . S
C667 C672 1.363 . S
C668 H645 0.950 . S
C668 C667 1.397 . S
C668 C669 1.334 . S
C669 H646 0.950 . S
C669 C668 1.334 . S
C669 C670 1.287 . S
C670 C669 1.287 . S
C670 C671 1.524 . S
C670 H689 0.913 . S
C671 H647 0.950 . S
C671 C670 1.524 . S
C671 C672 1.415 . S
C672 H648 0.950 . S
C672 C667 1.363 . S
C672 C671 1.415 . S
C673 H649 0.951 . S
C673 C674 1.366 . S
C673 C675 1.388 . S
C674 C673 1.366 . S
C674 C678 1.385 . S
C675 H650 0.951 . S
C675 C673 1.388 . S
C675 C676 1.366 . S
C676 C675 1.366 . S
C676 C677 1.414 . S
C676 C679 1.506 . S
C677 H651 0.950 . S
C677 C676 1.414 . S
C677 C678 1.374 . S
C678 H652 0.950 . S
C678 C674 1.385 . S
C678 C677 1.374 . S
C679 C676 1.506 . S
C679 C680 1.369 1_545 S
C679 C681 1.386 1_545 S
C680 H653 0.950 . S
C680 C666 1.377 . S
C680 C679 1.369 1_565 S
C681 C665 1.377 . S
C681 C679 1.386 1_565 S
C681 C682 1.524 1_565 S
C682 C681 1.524 1_545 S
C682 C683 1.397 . S
C682 C687 1.363 1_545 S
C683 H654 0.950 . S
C683 C682 1.397 . S
C683 C684 1.334 . S
C684 H655 0.950 . S
C684 C683 1.334 . S
C684 C685 1.287 . S
C685 C684 1.287 . S
C685 C686 1.524 . S
C685 H688 0.999 . S
C686 H656 0.950 . S
C686 C685 1.524 . S
C686 C687 1.415 1_545 S
C687 H657 0.950 . S
C687 C682 1.363 1_565 S
C687 C686 1.415 1_565 S
H688 C685 0.999 . S
H689 C670 0.913 . S
H690 C708 0.951 . S
H691 C710 0.951 . S
H692 C712 0.950 . S
H693 C713 0.950 . S
H694 C715 0.950 . S
H695 C718 0.950 . S
H696 C719 0.950 . S
H697 C721 0.950 . S
H698 C722 0.950 . S
H699 C723 0.951 . S
H700 C725 0.951 . S
H701 C727 0.950 . S
H702 C728 0.950 . S
H703 C730 0.950 . S
H704 C733 0.950 . S
H705 C734 0.950 . S
H706 C736 0.950 . S
H707 C737 0.950 . S
C708 H690 0.951 . S
C708 C709 1.366 . S
C708 C710 1.388 . S
C709 C708 1.366 . S
C709 C713 1.385 . S
C710 H691 0.951 . S
C710 C708 1.388 . S
C710 C711 1.366 . S
C711 C710 1.366 . S
C711 C712 1.414 . S
C711 C714 1.499 . S
C712 H692 0.950 . S
C712 C711 1.414 . S
C712 C713 1.374 . S
C713 H693 0.950 . S
C713 C709 1.385 . S
C713 C712 1.374 . S
C714 C711 1.499 . S
C714 C715 1.373 . S
C714 C716 1.389 . S
C715 H694 0.950 . S
C715 C714 1.373 . S
C715 C731 1.377 . S
C716 C714 1.389 . S
C716 C717 1.524 . S
C716 C730 1.377 . S
C717 C716 1.524 . S
C717 C718 1.397 . S
C717 C722 1.363 . S
C718 H695 0.950 . S
C718 C717 1.397 . S
C718 C719 1.334 . S
C719 H696 0.950 . S
C719 C718 1.334 . S
C719 C720 1.287 . S
C720 C719 1.287 . S
C720 C721 1.524 . S
C720 H739 0.913 . S
C721 H697 0.950 . S
C721 C720 1.524 . S
C721 C722 1.415 . S
C722 H698 0.950 . S
C722 C717 1.363 . S
C722 C721 1.415 . S
C723 H699 0.951 . S
C723 C724 1.366 . S
C723 C725 1.388 . S
C724 C723 1.366 . S
C724 C728 1.385 . S
C725 H700 0.951 . S
C725 C723 1.388 . S
C725 C726 1.366 . S
C726 C725 1.366 . S
C726 C727 1.414 . S
C726 C729 1.468 1_455 S
C727 H701 0.950 . S
C727 C726 1.414 . S
C727 C728 1.374 . S
C728 H702 0.950 . S
C728 C724 1.385 . S
C728 C727 1.374 . S
C729 C726 1.468 1_655 S
C729 C730 1.395 . S
C729 C731 1.399 . S
C730 H703 0.950 . S
C730 C716 1.377 . S
C730 C729 1.395 . S
C731 C715 1.377 . S
C731 C729 1.399 . S
C731 C732 1.524 1_655 S
C732 C731 1.524 1_455 S
C732 C733 1.397 . S
C732 C737 1.363 . S
C733 H704 0.950 . S
C733 C732 1.397 . S
C733 C734 1.334 . S
C734 H705 0.950 . S
C734 C733 1.334 . S
C734 C735 1.287 . S
C735 C734 1.287 . S
C735 C736 1.524 . S
C735 H738 0.999 . S
C736 H706 0.950 . S
C736 C735 1.524 . S
C736 C737 1.415 . S
C737 H707 0.950 . S
C737 C732 1.363 . S
C737 C736 1.415 . S
H738 C735 0.999 . S
H739 C720 0.913 . S
H740 C758 0.951 . S
H741 C760 0.951 . S
H742 C762 0.950 . S
H743 C763 0.950 . S
H744 C765 0.950 1_565 S
H745 C768 0.950 . S
H746 C769 0.950 . S
H747 C771 0.950 . S
H748 C772 0.950 . S
H749 C773 0.951 . S
H750 C775 0.951 . S
H751 C777 0.950 . S
H752 C778 0.950 . S
H753 C780 0.950 . S
H754 C783 0.950 . S
H755 C784 0.950 . S
H756 C786 0.950 . S
H757 C787 0.950 . S
C758 H740 0.951 . S
C758 C759 1.366 . S
C758 C760 1.388 . S
C759 C758 1.366 . S
C759 C763 1.385 . S
C760 H741 0.951 . S
C760 C758 1.388 . S
C760 C761 1.366 . S
C761 C760 1.366 . S
C761 C762 1.414 . S
C761 C764 1.468 1_565 S
C762 H742 0.950 . S
C762 C761 1.414 . S
C762 C763 1.374 . S
C763 H743 0.950 . S
C763 C759 1.385 . S
C763 C762 1.374 . S
C764 C761 1.468 1_545 S
C764 C765 1.377 . S
C764 C766 1.417 . S
C765 H744 0.950 1_545 S
C765 C764 1.377 . S
C765 C781 1.377 . S
C766 C764 1.417 . S
C766 C767 1.524 . S
C766 C780 1.377 . S
C767 C766 1.524 . S
C767 C768 1.397 . S
C767 C772 1.363 . S
C768 H745 0.950 . S
C768 C767 1.397 . S
C768 C769 1.334 . S
C769 H746 0.950 . S
C769 C768 1.334 . S
C769 C770 1.287 . S
C770 C769 1.287 . S
C770 C771 1.524 . S
C770 H789 0.913 . S
C771 H747 0.950 . S
C771 C770 1.524 . S
C771 C772 1.415 . S
C772 H748 0.950 . S
C772 C767 1.363 . S
C772 C771 1.415 . S
C773 H749 0.951 . S
C773 C774 1.366 . S
C773 C775 1.388 . S
C774 C773 1.366 . S
C774 C778 1.385 . S
C775 H750 0.951 . S
C775 C773 1.388 . S
C775 C776 1.366 . S
C776 C775 1.366 . S
C776 C777 1.414 . S
C776 C779 1.499 . S
C777 H751 0.950 . S
C777 C776 1.414 . S
C777 C778 1.374 . S
C778 H752 0.950 . S
C778 C774 1.385 . S
C778 C777 1.374 . S
C779 C776 1.499 . S
C779 C780 1.373 . S
C779 C781 1.389 . S
C780 H753 0.950 . S
C780 C766 1.377 . S
C780 C779 1.373 . S
C781 C765 1.377 . S
C781 C779 1.389 . S
C781 C782 1.524 . S
C782 C781 1.524 . S
C782 C783 1.397 . S
C782 C787 1.363 . S
C783 H754 0.950 . S
C783 C782 1.397 . S
C783 C784 1.334 . S
C784 H755 0.950 . S
C784 C783 1.334 . S
C784 C785 1.287 . S
C785 C784 1.287 . S
C785 C786 1.524 . S
C785 H788 0.999 . S
C786 H756 0.950 . S
C786 C785 1.524 . S
C786 C787 1.415 . S
C787 H757 0.950 . S
C787 C782 1.363 . S
C787 C786 1.415 . S
H788 C785 0.999 . S
H789 C770 0.913 . S
H790 C808 0.951 . S
H791 C810 0.951 . S
H792 C812 0.950 . S
H793 C813 0.950 . S
H794 C815 0.950 . S
H795 C818 0.950 . S
H796 C819 0.950 . S
H797 C821 0.950 . S
H798 C822 0.950 . S
H799 C823 0.951 . S
H800 C825 0.951 . S
H801 C827 0.950 . S
H802 C828 0.950 . S
H803 C830 0.950 . S
H804 C833 0.950 . S
H805 C834 0.950 . S
H806 C836 0.950 . S
H807 C837 0.950 . S
C808 H790 0.951 . S
C808 C809 1.366 . S
C808 C810 1.388 . S
C809 C808 1.366 . S
C809 C813 1.385 . S
C810 H791 0.951 . S
C810 C808 1.388 . S
C810 C811 1.366 . S
C811 C810 1.366 . S
C811 C812 1.414 . S
C811 C814 1.492 1_655 S
C812 H792 0.950 . S
C812 C811 1.414 . S
C812 C813 1.374 . S
C813 H793 0.950 . S
C813 C809 1.385 . S
C813 C812 1.374 . S
C814 C811 1.492 1_455 S
C814 C815 1.379 . S
C814 C816 1.390 . S
C815 H794 0.950 . S
C815 C814 1.379 . S
C815 C831 1.377 . S
C816 C814 1.390 . S
C816 C817 1.524 1_455 S
C816 C830 1.377 . S
C817 C816 1.524 1_655 S
C817 C818 1.397 . S
C817 C822 1.363 . S
C818 H795 0.950 . S
C818 C817 1.397 . S
C818 C819 1.334 . S
C819 H796 0.950 . S
C819 C818 1.334 . S
C819 C820 1.287 . S
C820 C819 1.287 . S
C820 C821 1.524 . S
C820 H839 0.913 . S
C821 H797 0.950 . S
C821 C820 1.524 . S
C821 C822 1.415 . S
C822 H798 0.950 . S
C822 C817 1.363 . S
C822 C821 1.415 . S
C823 H799 0.951 . S
C823 C824 1.366 . S
C823 C825 1.388 . S
C824 C823 1.366 . S
C824 C828 1.385 . S
C825 H800 0.951 . S
C825 C823 1.388 . S
C825 C826 1.366 . S
C826 C825 1.366 . S
C826 C827 1.414 . S
C826 C829 1.499 . S
C827 H801 0.950 . S
C827 C826 1.414 . S
C827 C828 1.374 . S
C828 H802 0.950 . S
C828 C824 1.385 . S
C828 C827 1.374 . S
C829 C826 1.499 . S
C829 C830 1.373 . S
C829 C831 1.389 . S
C830 H803 0.950 . S
C830 C816 1.377 . S
C830 C829 1.373 . S
C831 C815 1.377 . S
C831 C829 1.389 . S
C831 C832 1.524 . S
C832 C831 1.524 . S
C832 C833 1.397 . S
C832 C837 1.363 . S
C833 H804 0.950 . S
C833 C832 1.397 . S
C833 C834 1.334 . S
C834 H805 0.950 . S
C834 C833 1.334 . S
C834 C835 1.287 . S
C835 C834 1.287 . S
C835 C836 1.524 . S
C835 H838 0.999 . S
C836 H806 0.950 . S
C836 C835 1.524 . S
C836 C837 1.415 . S
C837 H807 0.950 . S
C837 C832 1.363 . S
C837 C836 1.415 . S
H838 C835 0.999 . S
H839 C820 0.913 . S
H840 C858 0.951 . S
H841 C860 0.951 . S
H842 C862 0.950 . S
H843 C863 0.950 . S
H844 C865 0.950 . S
H845 C868 0.950 . S
H846 C869 0.950 . S
H847 C871 0.950 . S
H848 C872 0.950 . S
H849 C873 0.951 . S
H850 C875 0.951 . S
H851 C877 0.950 . S
H852 C878 0.950 1_554 S
H853 C880 0.950 . S
H854 C883 0.950 1_554 S
H855 C884 0.950 . S
H856 C886 0.950 . S
H857 C887 0.950 . S
C858 H840 0.951 . S
C858 C859 1.366 . S
C858 C860 1.388 . S
C859 C858 1.366 . S
C859 C863 1.385 . S
C860 H841 0.951 . S
C860 C858 1.388 . S
C860 C861 1.366 . S
C861 C860 1.366 . S
C861 C862 1.414 . S
C861 C864 1.499 . S
C862 H842 0.950 . S
C862 C861 1.414 . S
C862 C863 1.374 . S
C863 H843 0.950 . S
C863 C859 1.385 . S
C863 C862 1.374 . S
C864 C861 1.499 . S
C864 C865 1.373 . S
C864 C866 1.389 . S
C865 H844 0.950 . S
C865 C864 1.373 . S
C865 C881 1.377 1_554 S
C866 C864 1.389 . S
C866 C867 1.524 . S
C866 C880 1.377 . S
C867 C866 1.524 . S
C867 C868 1.397 . S
C867 C872 1.363 . S
C868 H845 0.950 . S
C868 C867 1.397 . S
C868 C869 1.334 . S
C869 H846 0.950 . S
C869 C868 1.334 . S
C869 C870 1.287 . S
C870 C869 1.287 . S
C870 C871 1.524 . S
C870 H889 0.913 . S
C871 H847 0.950 . S
C871 C870 1.524 . S
C871 C872 1.415 . S
C872 H848 0.950 . S
C872 C867 1.363 . S
C872 C871 1.415 . S
C873 H849 0.951 . S
C873 C874 1.366 . S
C873 C875 1.388 . S
C874 C873 1.366 . S
C874 C878 1.385 . S
C875 H850 0.951 . S
C875 C873 1.388 . S
C875 C876 1.366 . S
C876 C875 1.366 . S
C876 C877 1.414 1_556 S
C876 C879 1.499 1_556 S
C877 H851 0.950 . S
C877 C876 1.414 1_554 S
C877 C878 1.374 1_554 S
C878 H852 0.950 1_556 S
C878 C874 1.385 . S
C878 C877 1.374 1_556 S
C879 C876 1.499 1_554 S
C879 C880 1.373 . S
C879 C881 1.389 1_554 S
C880 H853 0.950 . S
C880 C866 1.377 . S
C880 C879 1.373 . S
C881 C865 1.377 1_556 S
C881 C879 1.389 1_556 S
C881 C882 1.524 . S
C882 C881 1.524 . S
C882 C883 1.397 . S
C882 C887 1.363 . S
C883 H854 0.950 1_556 S
C883 C882 1.397 . S
C883 C884 1.334 . S
C884 H855 0.950 . S
C884 C883 1.334 . S
C884 C885 1.287 . S
C885 C884 1.287 . S
C885 C886 1.524 . S
C885 H888 0.999 . S
C886 H856 0.950 . S
C886 C885 1.524 . S
C886 C887 1.415 . S
C887 H857 0.950 . S
C887 C882 1.363 . S
C887 C886 1.415 . S
H888 C885 0.999 . S
H889 C870 0.913 . S
H890 C908 0.951 1_556 S
H891 C910 0.951 . S
H892 C912 0.950 . S
H893 C913 0.950 . S
H894 C915 0.950 . S
H895 C918 0.950 . S
H896 C919 0.950 . S
H897 C921 0.950 . S
H898 C922 0.950 . S
H899 C923 0.951 . S
H900 C925 0.951 . S
H901 C927 0.950 . S
H902 C928 0.950 . S
H903 C930 0.950 . S
H904 C933 0.950 . S
H905 C934 0.950 1_556 S
H906 C936 0.950 . S
H907 C937 0.950 . S
C908 H890 0.951 1_554 S
C908 C909 1.366 . S
C908 C910 1.388 1_554 S
C909 C908 1.366 . S
C909 C913 1.385 . S
C910 H891 0.951 . S
C910 C908 1.388 1_556 S
C910 C911 1.366 1_556 S
C911 C910 1.366 1_554 S
C911 C912 1.414 . S
C911 C914 1.499 1_554 S
C912 H892 0.950 . S
C912 C911 1.414 . S
C912 C913 1.374 . S
C913 H893 0.950 . S
C913 C909 1.385 . S
C913 C912 1.374 . S
C914 C911 1.499 1_556 S
C914 C915 1.373 1_556 S
C914 C916 1.389 . S
C915 H894 0.950 . S
C915 C914 1.373 1_554 S
C915 C931 1.377 1_554 S
C916 C914 1.389 . S
C916 C917 1.524 . S
C916 C930 1.377 . S
C917 C916 1.524 . S
C917 C918 1.397 . S
C917 C922 1.363 . S
C918 H895 0.950 . S
C918 C917 1.397 . S
C918 C919 1.334 . S
C919 H896 0.950 . S
C919 C918 1.334 . S
C919 C920 1.287 . S
C920 C919 1.287 . S
C920 C921 1.524 . S
C920 H939 0.913 . S
C921 H897 0.950 . S
C921 C920 1.524 . S
C921 C922 1.415 . S
C922 H898 0.950 . S
C922 C917 1.363 . S
C922 C921 1.415 . S
C923 H899 0.951 . S
C923 C924 1.366 . S
C923 C925 1.388 . S
C924 C923 1.366 . S
C924 C928 1.385 . S
C925 H900 0.951 . S
C925 C923 1.388 . S
C925 C926 1.366 . S
C926 C925 1.366 . S
C926 C927 1.414 . S
C926 C929 1.499 . S
C927 H901 0.950 . S
C927 C926 1.414 . S
C927 C928 1.374 . S
C928 H902 0.950 . S
C928 C924 1.385 . S
C928 C927 1.374 . S
C929 C926 1.499 . S
C929 C930 1.373 . S
C929 C931 1.389 . S
C930 H903 0.950 . S
C930 C916 1.377 . S
C930 C929 1.373 . S
C931 C915 1.377 1_556 S
C931 C929 1.389 . S
C931 C932 1.524 1_556 S
C932 C931 1.524 1_554 S
C932 C933 1.397 1_554 S
C932 C937 1.363 . S
C933 H904 0.950 . S
C933 C932 1.397 1_556 S
C933 C934 1.334 1_556 S
C934 H905 0.950 1_554 S
C934 C933 1.334 1_554 S
C934 C935 1.287 . S
C935 C934 1.287 . S
C935 C936 1.524 . S
C935 H938 0.999 . S
C936 H906 0.950 . S
C936 C935 1.524 . S
C936 C937 1.415 . S
C937 H907 0.950 . S
C937 C932 1.363 . S
C937 C936 1.415 . S
H938 C935 0.999 . S
H939 C920 0.913 . S
H940 C958 0.951 . S
H941 C960 0.951 . S
H942 C962 0.950 . S
H943 C963 0.950 . S
H944 C965 0.950 . S
H945 C968 0.950 . S
H946 C969 0.950 . S
H947 C971 0.950 . S
H948 C972 0.950 . S
H949 C973 0.951 1_554 S
H950 C975 0.951 . S
H951 C977 0.950 . S
H952 C978 0.950 . S
H953 C980 0.940 1_556 S
H954 C983 0.950 . S
H955 C984 0.950 . S
H956 C986 0.950 . S
H957 C987 0.950 . S
C958 H940 0.951 . S
C958 C959 1.366 . S
C958 C960 1.388 . S
C959 C958 1.366 . S
C959 C963 1.385 . S
C960 H941 0.951 . S
C960 C958 1.388 . S
C960 C961 1.366 . S
C961 C960 1.366 . S
C961 C962 1.414 . S
C961 C964 1.499 . S
C962 H942 0.950 . S
C962 C961 1.414 . S
C962 C963 1.374 . S
C963 H943 0.950 . S
C963 C959 1.385 . S
C963 C962 1.374 . S
C964 C961 1.499 . S
C964 C965 1.373 . S
C964 C966 1.389 . S
C965 H944 0.950 . S
C965 C964 1.373 . S
C965 C981 1.377 . S
C966 C964 1.389 . S
C966 C967 1.524 . S
C966 C980 1.385 . S
C967 C966 1.524 . S
C967 C968 1.397 . S
C967 C972 1.363 1_554 S
C968 H945 0.950 . S
C968 C967 1.397 . S
C968 C969 1.334 . S
C969 H946 0.950 . S
C969 C968 1.334 . S
C969 C970 1.287 . S
C970 C969 1.287 . S
C970 C971 1.524 1_554 S
C970 H989 0.913 . S
C971 H947 0.950 . S
C971 C970 1.524 1_556 S
C971 C972 1.415 . S
C972 H948 0.950 . S
C972 C967 1.363 1_556 S
C972 C971 1.415 . S
C973 H949 0.951 1_556 S
C973 C974 1.366 . S
C973 C975 1.388 1_556 S
C974 C973 1.366 . S
C974 C978 1.385 . S
C975 H950 0.951 . S
C975 C973 1.388 1_554 S
C975 C976 1.366 1_554 S
C976 C975 1.366 1_556 S
C976 C977 1.414 . S
C976 C979 1.499 1_556 S
C977 H951 0.950 . S
C977 C976 1.414 . S
C977 C978 1.374 . S
C978 H952 0.950 . S
C978 C974 1.385 . S
C978 C977 1.374 . S
C979 C976 1.499 1_554 S
C979 C980 1.375 . S
C979 C981 1.389 . S
C980 H953 0.940 1_554 S
C980 C966 1.385 . S
C980 C979 1.375 . S
C981 C965 1.377 . S
C981 C979 1.389 . S
C981 C982 1.524 . S
C982 C981 1.524 . S
C982 C983 1.397 1_554 S
C982 C987 1.363 . S
C983 H954 0.950 . S
C983 C982 1.397 1_556 S
C983 C984 1.334 . S
C984 H955 0.950 . S
C984 C983 1.334 . S
C984 C985 1.287 1_556 S
C985 C984 1.287 1_554 S
C985 C986 1.524 . S
C985 H988 0.999 . S
C986 H956 0.950 . S
C986 C985 1.524 . S
C986 C987 1.415 . S
C987 H957 0.950 . S
C987 C982 1.363 . S
C987 C986 1.415 . S
H988 C985 0.999 . S
H989 C970 0.913 . S
H990 C1008 0.951 . S
H991 C1010 0.951 . S
H992 C1012 0.950 . S
H993 C1013 0.950 1_556 S
H994 C1015 0.950 . S
H995 C1018 0.950 . S
H996 C1019 0.950 . S
H997 C1021 0.950 . S
H998 C1022 0.950 . S
H999 C1023 0.951 . S
H1000 C1025 0.951 . S
H1001 C1027 0.950 . S
H1002 C1028 0.950 . S
H1003 C1030 0.950 1_554 S
H1004 C1033 0.950 . S
H1005 C1034 0.950 . S
H1006 C1036 0.950 . S
H1007 C1037 0.950 . S
C1008 H990 0.951 . S
C1008 C1009 1.366 . S
C1008 C1010 1.388 . S
C1009 C1008 1.366 . S
C1009 C1013 1.385 . S
C1010 H991 0.951 . S
C1010 C1008 1.388 . S
C1010 C1011 1.366 . S
C1011 C1010 1.366 . S
C1011 C1012 1.414 1_554 S
C1011 C1014 1.499 1_554 S
C1012 H992 0.950 . S
C1012 C1011 1.414 1_556 S
C1012 C1013 1.374 1_556 S
C1013 H993 0.950 1_554 S
C1013 C1009 1.385 . S
C1013 C1012 1.374 1_554 S
C1014 C1011 1.499 1_556 S
C1014 C1015 1.373 . S
C1014 C1016 1.389 1_556 S
C1015 H994 0.950 . S
C1015 C1014 1.373 . S
C1015 C1031 1.377 . S
C1016 C1014 1.389 1_554 S
C1016 C1017 1.524 . S
C1016 C1030 1.377 1_554 S
C1017 C1016 1.524 . S
C1017 C1018 1.397 . S
C1017 C1022 1.363 . S
C1018 H995 0.950 . S
C1018 C1017 1.397 . S
C1018 C1019 1.334 . S
C1019 H996 0.950 . S
C1019 C1018 1.334 . S
C1019 C1020 1.287 . S
C1020 C1019 1.287 . S
C1020 C1021 1.524 . S
C1020 H1039 0.913 . S
C1021 H997 0.950 . S
C1021 C1020 1.524 . S
C1021 C1022 1.415 . S
C1022 H998 0.950 . S
C1022 C1017 1.363 . S
C1022 C1021 1.415 . S
C1023 H999 0.951 . S
C1023 C1024 1.366 . S
C1023 C1025 1.388 . S
C1024 C1023 1.366 . S
C1024 C1028 1.385 . S
C1025 H1000 0.951 . S
C1025 C1023 1.388 . S
C1025 C1026 1.366 . S
C1026 C1025 1.366 . S
C1026 C1027 1.414 . S
C1026 C1029 1.499 . S
C1027 H1001 0.950 . S
C1027 C1026 1.414 . S
C1027 C1028 1.374 . S
C1028 H1002 0.950 . S
C1028 C1024 1.385 . S
C1028 C1027 1.374 . S
C1029 C1026 1.499 . S
C1029 C1030 1.373 . S
C1029 C1031 1.389 . S
C1030 H1003 0.950 1_556 S
C1030 C1016 1.377 1_556 S
C1030 C1029 1.373 . S
C1031 C1015 1.377 . S
C1031 C1029 1.389 . S
C1031 C1032 1.524 . S
C1032 C1031 1.524 . S
C1032 C1033 1.397 . S
C1032 C1037 1.363 . S
C1033 H1004 0.950 . S
C1033 C1032 1.397 . S
C1033 C1034 1.334 . S
C1034 H1005 0.950 . S
C1034 C1033 1.334 . S
C1034 C1035 1.287 . S
C1035 C1034 1.287 . S
C1035 C1036 1.524 . S
C1035 H1038 0.999 . S
C1036 H1006 0.950 . S
C1036 C1035 1.524 . S
C1036 C1037 1.415 . S
C1037 H1007 0.950 . S
C1037 C1032 1.363 . S
C1037 C1036 1.415 . S
H1038 C1035 0.999 . S
H1039 C1020 0.913 . S
H1040 C1058 0.951 . S
H1041 C1060 0.951 . S
H1042 C1062 0.950 . S
H1043 C1063 0.950 . S
H1044 C1065 0.950 . S
H1045 C1068 0.950 . S
H1046 C1069 0.950 . S
H1047 C1071 0.950 . S
H1048 C1072 0.950 . S
H1049 C1073 0.951 . S
H1050 C1075 0.951 . S
H1051 C1077 0.950 . S
H1052 C1078 0.950 . S
H1053 C1080 0.950 . S
H1054 C1083 0.950 . S
H1055 C1084 0.950 . S
H1056 C1086 0.950 . S
H1057 C1087 0.950 . S
C1058 H1040 0.951 . S
C1058 C1059 1.366 . S
C1058 C1060 1.388 . S
C1059 C1058 1.366 . S
C1059 C1063 1.385 . S
C1060 H1041 0.951 . S
C1060 C1058 1.388 . S
C1060 C1061 1.366 . S
C1061 C1060 1.366 . S
C1061 C1062 1.414 . S
C1061 C1064 1.499 . S
C1062 H1042 0.950 . S
C1062 C1061 1.414 . S
C1062 C1063 1.374 . S
C1063 H1043 0.950 . S
C1063 C1059 1.385 . S
C1063 C1062 1.374 . S
C1064 C1061 1.499 . S
C1064 C1065 1.373 . S
C1064 C1066 1.389 . S
C1065 H1044 0.950 . S
C1065 C1064 1.373 . S
C1065 C1081 1.377 . S
C1066 C1064 1.389 . S
C1066 C1067 1.524 . S
C1066 C1080 1.377 . S
C1067 C1066 1.524 . S
C1067 C1068 1.397 . S
C1067 C1072 1.363 . S
C1068 H1045 0.950 . S
C1068 C1067 1.397 . S
C1068 C1069 1.334 . S
C1069 H1046 0.950 . S
C1069 C1068 1.334 . S
C1069 C1070 1.287 . S
C1070 C1069 1.287 . S
C1070 C1071 1.524 . S
C1070 H1089 0.913 . S
C1071 H1047 0.950 . S
C1071 C1070 1.524 . S
C1071 C1072 1.415 . S
C1072 H1048 0.950 . S
C1072 C1067 1.363 . S
C1072 C1071 1.415 . S
C1073 H1049 0.951 . S
C1073 C1074 1.366 . S
C1073 C1075 1.388 . S
C1074 C1073 1.366 . S
C1074 C1078 1.385 . S
C1075 H1050 0.951 . S
C1075 C1073 1.388 . S
C1075 C1076 1.366 . S
C1076 C1075 1.366 . S
C1076 C1077 1.414 . S
C1076 C1079 1.499 . S
C1077 H1051 0.950 . S
C1077 C1076 1.414 . S
C1077 C1078 1.374 . S
C1078 H1052 0.950 . S
C1078 C1074 1.385 . S
C1078 C1077 1.374 . S
C1079 C1076 1.499 . S
C1079 C1080 1.373 . S
C1079 C1081 1.389 . S
C1080 H1053 0.950 . S
C1080 C1066 1.377 . S
C1080 C1079 1.373 . S
C1081 C1065 1.377 . S
C1081 C1079 1.389 . S
C1081 C1082 1.524 . S
C1082 C1081 1.524 . S
C1082 C1083 1.397 . S
C1082 C1087 1.363 . S
C1083 H1054 0.950 . S
C1083 C1082 1.397 . S
C1083 C1084 1.334 . S
C1084 H1055 0.950 . S
C1084 C1083 1.334 . S
C1084 C1085 1.287 . S
C1085 C1084 1.287 . S
C1085 C1086 1.524 . S
C1085 H1088 0.999 . S
C1086 H1056 0.950 . S
C1086 C1085 1.524 . S
C1086 C1087 1.415 . S
C1087 H1057 0.950 . S
C1087 C1082 1.363 . S
C1087 C1086 1.415 . S
H1088 C1085 0.999 . S
H1089 C1070 0.913 . S
H1090 C1108 0.951 . S
H1091 C1110 0.951 . S
H1092 C1112 0.950 . S
H1093 C1113 0.950 . S
H1094 C1115 0.950 . S
H1095 C1118 0.950 . S
H1096 C1119 0.950 . S
H1097 C1121 0.950 . S
H1098 C1122 0.950 . S
H1099 C1123 0.951 . S
H1100 C1125 0.951 . S
H1101 C1127 0.950 . S
H1102 C1128 0.950 . S
H1103 C1130 0.950 . S
H1104 C1133 0.950 . S
H1105 C1134 0.950 . S
H1106 C1136 0.950 . S
H1107 C1137 0.950 . S
C1108 H1090 0.951 . S
C1108 C1109 1.366 . S
C1108 C1110 1.388 . S
C1109 C1108 1.366 . S
C1109 C1113 1.385 . S
C1110 H1091 0.951 . S
C1110 C1108 1.388 . S
C1110 C1111 1.366 . S
C1111 C1110 1.366 . S
C1111 C1112 1.414 . S
C1111 C1114 1.499 . S
C1112 H1092 0.950 . S
C1112 C1111 1.414 . S
C1112 C1113 1.374 . S
C1113 H1093 0.950 . S
C1113 C1109 1.385 . S
C1113 C1112 1.374 . S
C1114 C1111 1.499 . S
C1114 C1115 1.373 . S
C1114 C1116 1.389 . S
C1115 H1094 0.950 . S
C1115 C1114 1.373 . S
C1115 C1131 1.377 . S
C1116 C1114 1.389 . S
C1116 C1117 1.524 . S
C1116 C1130 1.377 . S
C1117 C1116 1.524 . S
C1117 C1118 1.397 . S
C1117 C1122 1.363 . S
C1118 H1095 0.950 . S
C1118 C1117 1.397 . S
C1118 C1119 1.334 . S
C1119 H1096 0.950 . S
C1119 C1118 1.334 . S
C1119 C1120 1.287 . S
C1120 C1119 1.287 . S
C1120 C1121 1.524 . S
C1120 H1139 0.913 . S
C1121 H1097 0.950 . S
C1121 C1120 1.524 . S
C1121 C1122 1.415 . S
C1122 H1098 0.950 . S
C1122 C1117 1.363 . S
C1122 C1121 1.415 . S
C1123 H1099 0.951 . S
C1123 C1124 1.366 . S
C1123 C1125 1.388 . S
C1124 C1123 1.366 . S
C1124 C1128 1.385 . S
C1125 H1100 0.951 . S
C1125 C1123 1.388 . S
C1125 C1126 1.366 . S
C1126 C1125 1.366 . S
C1126 C1127 1.414 . S
C1126 C1129 1.499 . S
C1127 H1101 0.950 . S
C1127 C1126 1.414 . S
C1127 C1128 1.374 . S
C1128 H1102 0.950 . S
C1128 C1124 1.385 . S
C1128 C1127 1.374 . S
C1129 C1126 1.499 . S
C1129 C1130 1.373 . S
C1129 C1131 1.389 . S
C1130 H1103 0.950 . S
C1130 C1116 1.377 . S
C1130 C1129 1.373 . S
C1131 C1115 1.377 . S
C1131 C1129 1.389 . S
C1131 C1132 1.524 . S
C1132 C1131 1.524 . S
C1132 C1133 1.397 . S
C1132 C1137 1.363 . S
C1133 H1104 0.950 . S
C1133 C1132 1.397 . S
C1133 C1134 1.334 . S
C1134 H1105 0.950 . S
C1134 C1133 1.334 . S
C1134 C1135 1.287 . S
C1135 C1134 1.287 . S
C1135 C1136 1.524 . S
C1135 H1138 0.999 . S
C1136 H1106 0.950 . S
C1136 C1135 1.524 . S
C1136 C1137 1.415 . S
C1137 H1107 0.950 . S
C1137 C1132 1.363 . S
C1137 C1136 1.415 . S
H1138 C1135 0.999 . S
H1139 C1120 0.913 . S
H1140 C1158 0.951 . S
H1141 C1160 0.951 . S
H1142 C1162 0.950 . S
H1143 C1163 0.950 . S
H1144 C1165 0.950 . S
H1145 C1168 0.950 . S
H1146 C1169 0.950 . S
H1147 C1171 0.950 . S
H1148 C1172 0.950 . S
H1149 C1173 0.951 . S
H1150 C1175 0.951 . S
H1151 C1177 0.950 . S
H1152 C1178 0.950 . S
H1153 C1180 0.950 . S
H1154 C1183 0.950 . S
H1155 C1184 0.950 . S
H1156 C1186 0.950 . S
H1157 C1187 0.950 . S
C1158 H1140 0.951 . S
C1158 C1159 1.366 . S
C1158 C1160 1.388 . S
C1159 C1158 1.366 . S
C1159 C1163 1.385 . S
C1160 H1141 0.951 . S
C1160 C1158 1.388 . S
C1160 C1161 1.366 . S
C1161 C1160 1.366 . S
C1161 C1162 1.414 . S
C1161 C1164 1.499 . S
C1162 H1142 0.950 . S
C1162 C1161 1.414 . S
C1162 C1163 1.374 . S
C1163 H1143 0.950 . S
C1163 C1159 1.385 . S
C1163 C1162 1.374 . S
C1164 C1161 1.499 . S
C1164 C1165 1.373 . S
C1164 C1166 1.389 . S
C1165 H1144 0.950 . S
C1165 C1164 1.373 . S
C1165 C1181 1.377 . S
C1166 C1164 1.389 . S
C1166 C1167 1.524 . S
C1166 C1180 1.377 . S
C1167 C1166 1.524 . S
C1167 C1168 1.397 . S
C1167 C1172 1.363 . S
C1168 H1145 0.950 . S
C1168 C1167 1.397 . S
C1168 C1169 1.334 . S
C1169 H1146 0.950 . S
C1169 C1168 1.334 . S
C1169 C1170 1.287 . S
C1170 C1169 1.287 . S
C1170 C1171 1.524 . S
C1170 H1189 0.913 . S
C1171 H1147 0.950 . S
C1171 C1170 1.524 . S
C1171 C1172 1.415 . S
C1172 H1148 0.950 . S
C1172 C1167 1.363 . S
C1172 C1171 1.415 . S
C1173 H1149 0.951 . S
C1173 C1174 1.366 . S
C1173 C1175 1.388 . S
C1174 C1173 1.366 . S
C1174 C1178 1.385 . S
C1175 H1150 0.951 . S
C1175 C1173 1.388 . S
C1175 C1176 1.366 . S
C1176 C1175 1.366 . S
C1176 C1177 1.414 . S
C1176 C1179 1.499 . S
C1177 H1151 0.950 . S
C1177 C1176 1.414 . S
C1177 C1178 1.374 . S
C1178 H1152 0.950 . S
C1178 C1174 1.385 . S
C1178 C1177 1.374 . S
C1179 C1176 1.499 . S
C1179 C1180 1.373 . S
C1179 C1181 1.389 . S
C1180 H1153 0.950 . S
C1180 C1166 1.377 . S
C1180 C1179 1.373 . S
C1181 C1165 1.377 . S
C1181 C1179 1.389 . S
C1181 C1182 1.524 . S
C1182 C1181 1.524 . S
C1182 C1183 1.397 . S
C1182 C1187 1.363 . S
C1183 H1154 0.950 . S
C1183 C1182 1.397 . S
C1183 C1184 1.334 . S
C1184 H1155 0.950 . S
C1184 C1183 1.334 . S
C1184 C1185 1.287 . S
C1185 C1184 1.287 . S
C1185 C1186 1.524 . S
C1185 H1188 0.999 . S
C1186 H1156 0.950 . S
C1186 C1185 1.524 . S
C1186 C1187 1.415 . S
C1187 H1157 0.950 . S
C1187 C1182 1.363 . S
C1187 C1186 1.415 . S
H1188 C1185 0.999 . S
H1189 C1170 0.913 . S
H1190 C1208 0.951 . S
H1191 C1210 0.951 . S
H1192 C1212 0.950 . S
H1193 C1213 0.950 . S
H1194 C1215 0.950 . S
H1195 C1218 0.950 . S
H1196 C1219 0.950 . S
H1197 C1221 0.950 . S
H1198 C1222 0.950 . S
H1199 C1223 0.951 . S
H1200 C1225 0.951 . S
H1201 C1227 0.950 . S
H1202 C1228 0.950 . S
H1203 C1230 0.950 . S
H1204 C1233 0.950 . S
H1205 C1234 0.950 . S
H1206 C1236 0.950 . S
H1207 C1237 0.950 . S
C1208 H1190 0.951 . S
C1208 C1209 1.366 . S
C1208 C1210 1.388 . S
C1209 C1208 1.366 . S
C1209 C1213 1.385 . S
C1210 H1191 0.951 . S
C1210 C1208 1.388 . S
C1210 C1211 1.366 . S
C1211 C1210 1.366 . S
C1211 C1212 1.414 . S
C1211 C1214 1.499 . S
C1212 H1192 0.950 . S
C1212 C1211 1.414 . S
C1212 C1213 1.374 . S
C1213 H1193 0.950 . S
C1213 C1209 1.385 . S
C1213 C1212 1.374 . S
C1214 C1211 1.499 . S
C1214 C1215 1.373 . S
C1214 C1216 1.389 . S
C1215 H1194 0.950 . S
C1215 C1214 1.373 . S
C1215 C1231 1.377 . S
C1216 C1214 1.389 . S
C1216 C1217 1.524 . S
C1216 C1230 1.377 . S
C1217 C1216 1.524 . S
C1217 C1218 1.397 . S
C1217 C1222 1.363 . S
C1218 H1195 0.950 . S
C1218 C1217 1.397 . S
C1218 C1219 1.334 . S
C1219 H1196 0.950 . S
C1219 C1218 1.334 . S
C1219 C1220 1.287 . S
C1220 C1219 1.287 . S
C1220 C1221 1.524 . S
C1220 H1239 0.913 . S
C1221 H1197 0.950 . S
C1221 C1220 1.524 . S
C1221 C1222 1.415 . S
C1222 H1198 0.950 . S
C1222 C1217 1.363 . S
C1222 C1221 1.415 . S
C1223 H1199 0.951 . S
C1223 C1224 1.366 . S
C1223 C1225 1.388 . S
C1224 C1223 1.366 . S
C1224 C1228 1.385 . S
C1225 H1200 0.951 . S
C1225 C1223 1.388 . S
C1225 C1226 1.366 . S
C1226 C1225 1.366 . S
C1226 C1227 1.414 . S
C1226 C1229 1.499 . S
C1227 H1201 0.950 . S
C1227 C1226 1.414 . S
C1227 C1228 1.374 . S
C1228 H1202 0.950 . S
C1228 C1224 1.385 . S
C1228 C1227 1.374 . S
C1229 C1226 1.499 . S
C1229 C1230 1.373 . S
C1229 C1231 1.389 . S
C1230 H1203 0.950 . S
C1230 C1216 1.377 . S
C1230 C1229 1.373 . S
C1231 C1215 1.377 . S
C1231 C1229 1.389 . S
C1231 C1232 1.524 . S
C1232 C1231 1.524 . S
C1232 C1233 1.397 . S
C1232 C1237 1.363 . S
C1233 H1204 0.950 . S
C1233 C1232 1.397 . S
C1233 C1234 1.334 . S
C1234 H1205 0.950 . S
C1234 C1233 1.334 . S
C1234 C1235 1.287 . S
C1235 C1234 1.287 . S
C1235 C1236 1.524 . S
C1235 H1238 0.999 . S
C1236 H1206 0.950 . S
C1236 C1235 1.524 . S
C1236 C1237 1.415 . S
C1237 H1207 0.950 . S
C1237 C1232 1.363 . S
C1237 C1236 1.415 . S
H1238 C1235 0.999 . S
H1239 C1220 0.913 . S
H1240 C1258 0.951 . S
H1241 C1260 0.951 . S
H1242 C1262 0.950 . S
H1243 C1263 0.950 . S
H1244 C1265 0.950 . S
H1245 C1268 0.950 . S
H1246 C1269 0.950 . S
H1247 C1271 0.950 1_545 S
H1248 C1272 0.950 . S
H1249 C1273 0.951 . S
H1250 C1275 0.951 . S
H1251 C1277 0.950 . S
H1252 C1278 0.950 . S
H1253 C1280 0.950 . S
H1254 C1283 0.950 . S
H1255 C1284 0.950 . S
H1256 C1286 0.950 . S
H1257 C1287 0.950 . S
C1258 H1240 0.951 . S
C1258 C1259 1.366 . S
C1258 C1260 1.388 . S
C1259 C1258 1.366 . S
C1259 C1263 1.385 . S
C1260 H1241 0.951 . S
C1260 C1258 1.388 . S
C1260 C1261 1.366 . S
C1261 C1260 1.366 . S
C1261 C1262 1.414 . S
C1261 C1264 1.505 . S
C1262 H1242 0.950 . S
C1262 C1261 1.414 . S
C1262 C1263 1.374 . S
C1263 H1243 0.950 . S
C1263 C1259 1.385 . S
C1263 C1262 1.374 . S
C1264 C1261 1.505 . S
C1264 C1265 1.370 1_565 S
C1264 C1266 1.386 1_565 S
C1265 H1244 0.950 . S
C1265 C1264 1.370 1_545 S
C1265 C1281 1.377 . S
C1266 C1264 1.386 1_545 S
C1266 C1267 1.499 1_545 S
C1266 C1280 1.377 . S
C1267 C1266 1.499 1_565 S
C1267 C1268 1.447 . S
C1267 C1272 1.338 1_565 S
C1268 H1245 0.950 . S
C1268 C1267 1.447 . S
C1268 C1269 1.334 . S
C1269 H1246 0.950 . S
C1269 C1268 1.334 . S
C1269 C1270 1.287 . S
C1270 C1269 1.287 . S
C1270 C1271 1.524 . S
C1270 H1289 0.913 . S
C1271 H1247 0.950 1_565 S
C1271 C1270 1.524 . S
C1271 C1272 1.415 1_565 S
C1272 H1248 0.950 . S
C1272 C1267 1.338 1_545 S
C1272 C1271 1.415 1_545 S
C1273 H1249 0.951 . S
C1273 C1274 1.366 . S
C1273 C1275 1.388 . S
C1274 C1273 1.366 . S
C1274 C1278 1.385 . S
C1275 H1250 0.951 . S
C1275 C1273 1.388 . S
C1275 C1276 1.366 . S
C1276 C1275 1.366 . S
C1276 C1277 1.414 . S
C1276 C1279 1.499 . S
C1277 H1251 0.950 . S
C1277 C1276 1.414 . S
C1277 C1278 1.374 . S
C1278 H1252 0.950 . S
C1278 C1274 1.385 . S
C1278 C1277 1.374 . S
C1279 C1276 1.499 . S
C1279 C1280 1.373 . S
C1279 C1281 1.389 . S
C1280 H1253 0.950 . S
C1280 C1266 1.377 . S
C1280 C1279 1.373 . S
C1281 C1265 1.377 . S
C1281 C1279 1.389 . S
C1281 C1282 1.524 . S
C1282 C1281 1.524 . S
C1282 C1283 1.397 . S
C1282 C1287 1.363 . S
C1283 H1254 0.950 . S
C1283 C1282 1.397 . S
C1283 C1284 1.334 . S
C1284 H1255 0.950 . S
C1284 C1283 1.334 . S
C1284 C1285 1.287 . S
C1285 C1284 1.287 . S
C1285 C1286 1.524 . S
C1285 H1288 0.999 . S
C1286 H1256 0.950 . S
C1286 C1285 1.524 . S
C1286 C1287 1.415 . S
C1287 H1257 0.950 . S
C1287 C1282 1.363 . S
C1287 C1286 1.415 . S
H1288 C1285 0.999 . S
H1289 C1270 0.913 . S
H1290 C1308 0.951 . S
H1291 C1310 0.951 . S
H1292 C1312 0.950 . S
H1293 C1313 0.950 . S
H1294 C1315 0.950 . S
H1295 C1318 0.950 . S
H1296 C1319 0.950 . S
H1297 C1321 0.950 . S
H1298 C1322 0.950 . S
H1299 C1323 0.951 . S
H1300 C1325 0.951 . S
H1301 C1327 0.950 . S
H1302 C1328 0.950 . S
H1303 C1330 0.950 . S
H1304 C1333 0.950 . S
H1305 C1334 0.950 . S
H1306 C1336 0.950 . S
H1307 C1337 0.950 . S
C1308 H1290 0.951 . S
C1308 C1309 1.366 . S
C1308 C1310 1.388 . S
C1309 C1308 1.366 . S
C1309 C1313 1.385 . S
C1310 H1291 0.951 . S
C1310 C1308 1.388 . S
C1310 C1311 1.366 . S
C1311 C1310 1.366 . S
C1311 C1312 1.414 . S
C1311 C1314 1.499 . S
C1312 H1292 0.950 . S
C1312 C1311 1.414 . S
C1312 C1313 1.374 . S
C1313 H1293 0.950 . S
C1313 C1309 1.385 . S
C1313 C1312 1.374 . S
C1314 C1311 1.499 . S
C1314 C1315 1.373 . S
C1314 C1316 1.389 . S
C1315 H1294 0.950 . S
C1315 C1314 1.373 . S
C1315 C1331 1.377 . S
C1316 C1314 1.389 . S
C1316 C1317 1.524 . S
C1316 C1330 1.377 . S
C1317 C1316 1.524 . S
C1317 C1318 1.397 . S
C1317 C1322 1.363 . S
C1318 H1295 0.950 . S
C1318 C1317 1.397 . S
C1318 C1319 1.334 . S
C1319 H1296 0.950 . S
C1319 C1318 1.334 . S
C1319 C1320 1.287 . S
C1320 C1319 1.287 . S
C1320 C1321 1.524 . S
C1320 H1339 0.913 . S
C1321 H1297 0.950 . S
C1321 C1320 1.524 . S
C1321 C1322 1.415 . S
C1322 H1298 0.950 . S
C1322 C1317 1.363 . S
C1322 C1321 1.415 . S
C1323 H1299 0.951 . S
C1323 C1324 1.366 . S
C1323 C1325 1.388 . S
C1324 C1323 1.366 . S
C1324 C1328 1.385 . S
C1325 H1300 0.951 . S
C1325 C1323 1.388 . S
C1325 C1326 1.366 . S
C1326 C1325 1.366 . S
C1326 C1327 1.414 . S
C1326 C1329 1.495 . S
C1327 H1301 0.950 . S
C1327 C1326 1.414 . S
C1327 C1328 1.374 . S
C1328 H1302 0.950 . S
C1328 C1324 1.385 . S
C1328 C1327 1.374 . S
C1329 C1326 1.495 . S
C1329 C1330 1.377 1_655 S
C1329 C1331 1.390 1_655 S
C1330 H1303 0.950 . S
C1330 C1316 1.377 . S
C1330 C1329 1.377 1_455 S
C1331 C1315 1.377 . S
C1331 C1329 1.390 1_455 S
C1331 C1332 1.524 1_455 S
C1332 C1331 1.524 1_655 S
C1332 C1333 1.397 . S
C1332 C1337 1.363 . S
C1333 H1304 0.950 . S
C1333 C1332 1.397 . S
C1333 C1334 1.334 . S
C1334 H1305 0.950 . S
C1334 C1333 1.334 . S
C1334 C1335 1.287 . S
C1335 C1334 1.287 . S
C1335 C1336 1.524 . S
C1335 H1338 0.999 . S
C1336 H1306 0.950 . S
C1336 C1335 1.524 . S
C1336 C1337 1.415 . S
C1337 H1307 0.950 . S
C1337 C1332 1.363 . S
C1337 C1336 1.415 . S
H1338 C1335 0.999 . S
H1339 C1320 0.913 . S
H1340 C1358 0.951 . S
H1341 C1360 0.951 . S
H1342 C1362 0.950 . S
H1343 C1363 0.950 . S
H1344 C1365 0.950 . S
H1345 C1368 0.950 . S
H1346 C1369 0.950 . S
H1347 C1371 0.950 . S
H1348 C1372 0.950 . S
H1349 C1373 0.951 . S
H1350 C1375 0.951 . S
H1351 C1377 0.950 . S
H1352 C1378 0.950 . S
H1353 C1380 0.950 1_545 S
H1354 C1383 0.950 . S
H1355 C1384 0.950 . S
H1356 C1386 0.950 . S
H1357 C1387 0.950 . S
C1358 H1340 0.951 . S
C1358 C1359 1.366 . S
C1358 C1360 1.388 . S
C1359 C1358 1.366 . S
C1359 C1363 1.385 . S
C1360 H1341 0.951 . S
C1360 C1358 1.388 . S
C1360 C1361 1.366 . S
C1361 C1360 1.366 . S
C1361 C1362 1.414 . S
C1361 C1364 1.499 . S
C1362 H1342 0.950 . S
C1362 C1361 1.414 . S
C1362 C1363 1.374 . S
C1363 H1343 0.950 . S
C1363 C1359 1.385 . S
C1363 C1362 1.374 . S
C1364 C1361 1.499 . S
C1364 C1365 1.373 . S
C1364 C1366 1.389 . S
C1365 H1344 0.950 . S
C1365 C1364 1.373 . S
C1365 C1381 1.377 . S
C1366 C1364 1.389 . S
C1366 C1367 1.524 . S
C1366 C1380 1.377 . S
C1367 C1366 1.524 . S
C1367 C1368 1.397 . S
C1367 C1372 1.363 . S
C1368 H1345 0.950 . S
C1368 C1367 1.397 . S
C1368 C1369 1.334 . S
C1369 H1346 0.950 . S
C1369 C1368 1.334 . S
C1369 C1370 1.287 . S
C1370 C1369 1.287 . S
C1370 C1371 1.524 . S
C1370 H1389 0.913 . S
C1371 H1347 0.950 . S
C1371 C1370 1.524 . S
C1371 C1372 1.415 . S
C1372 H1348 0.950 . S
C1372 C1367 1.363 . S
C1372 C1371 1.415 . S
C1373 H1349 0.951 . S
C1373 C1374 1.366 . S
C1373 C1375 1.388 . S
C1374 C1373 1.366 . S
C1374 C1378 1.385 . S
C1375 H1350 0.951 . S
C1375 C1373 1.388 . S
C1375 C1376 1.366 . S
C1376 C1375 1.366 . S
C1376 C1377 1.414 . S
C1376 C1379 1.464 1_545 S
C1377 H1351 0.950 . S
C1377 C1376 1.414 . S
C1377 C1378 1.374 . S
C1378 H1352 0.950 . S
C1378 C1374 1.385 . S
C1378 C1377 1.374 . S
C1379 C1376 1.464 1_565 S
C1379 C1380 1.378 . S
C1379 C1381 1.421 . S
C1380 H1353 0.950 1_565 S
C1380 C1366 1.377 . S
C1380 C1379 1.378 . S
C1381 C1365 1.377 . S
C1381 C1379 1.421 . S
C1381 C1382 1.524 . S
C1382 C1381 1.524 . S
C1382 C1383 1.397 . S
C1382 C1387 1.363 . S
C1383 H1354 0.950 . S
C1383 C1382 1.397 . S
C1383 C1384 1.334 . S
C1384 H1355 0.950 . S
C1384 C1383 1.334 . S
C1384 C1385 1.287 . S
C1385 C1384 1.287 . S
C1385 C1386 1.524 . S
C1385 H1388 0.999 . S
C1386 H1356 0.950 . S
C1386 C1385 1.524 . S
C1386 C1387 1.415 . S
C1387 H1357 0.950 . S
C1387 C1382 1.363 . S
C1387 C1386 1.415 . S
H1388 C1385 0.999 . S
H1389 C1370 0.913 . S
H1390 C1408 0.951 . S
H1391 C1410 0.951 . S
H1392 C1412 0.950 . S
H1393 C1413 0.950 . S
H1394 C1415 0.950 1_455 S
H1395 C1418 0.950 . S
H1396 C1419 0.950 . S
H1397 C1421 0.950 . S
H1398 C1422 0.950 . S
H1399 C1423 0.951 . S
H1400 C1425 0.951 . S
H1401 C1427 0.950 . S
H1402 C1428 0.950 . S
H1403 C1430 0.950 . S
H1404 C1433 0.950 . S
H1405 C1434 0.950 . S
H1406 C1436 0.950 . S
H1407 C1437 0.950 . S
C1408 H1390 0.951 . S
C1408 C1409 1.366 . S
C1408 C1410 1.388 . S
C1409 C1408 1.366 . S
C1409 C1413 1.385 . S
C1410 H1391 0.951 . S
C1410 C1408 1.388 . S
C1410 C1411 1.366 . S
C1411 C1410 1.366 . S
C1411 C1412 1.414 . S
C1411 C1414 1.499 1_455 S
C1412 H1392 0.950 . S
C1412 C1411 1.414 . S
C1412 C1413 1.374 . S
C1413 H1393 0.950 . S
C1413 C1409 1.385 . S
C1413 C1412 1.374 . S
C1414 C1411 1.499 1_655 S
C1414 C1415 1.373 . S
C1414 C1416 1.389 . S
C1415 H1394 0.950 1_655 S
C1415 C1414 1.373 . S
C1415 C1431 1.377 . S
C1416 C1414 1.389 . S
C1416 C1417 1.524 . S
C1416 C1430 1.377 . S
C1417 C1416 1.524 . S
C1417 C1418 1.397 1_655 S
C1417 C1422 1.363 . S
C1418 H1395 0.950 . S
C1418 C1417 1.397 1_455 S
C1418 C1419 1.334 . S
C1419 H1396 0.950 . S
C1419 C1418 1.334 . S
C1419 C1420 1.287 1_455 S
C1420 C1419 1.287 1_655 S
C1420 C1421 1.524 . S
C1420 H1439 0.913 . S
C1421 H1397 0.950 . S
C1421 C1420 1.524 . S
C1421 C1422 1.415 . S
C1422 H1398 0.950 . S
C1422 C1417 1.363 . S
C1422 C1421 1.415 . S
C1423 H1399 0.951 . S
C1423 C1424 1.366 . S
C1423 C1425 1.388 . S
C1424 C1423 1.366 . S
C1424 C1428 1.385 . S
C1425 H1400 0.951 . S
C1425 C1423 1.388 . S
C1425 C1426 1.366 . S
C1426 C1425 1.366 . S
C1426 C1427 1.414 . S
C1426 C1429 1.499 . S
C1427 H1401 0.950 . S
C1427 C1426 1.414 . S
C1427 C1428 1.374 . S
C1428 H1402 0.950 . S
C1428 C1424 1.385 . S
C1428 C1427 1.374 . S
C1429 C1426 1.499 . S
C1429 C1430 1.373 . S
C1429 C1431 1.389 . S
C1430 H1403 0.950 . S
C1430 C1416 1.377 . S
C1430 C1429 1.373 . S
C1431 C1415 1.377 . S
C1431 C1429 1.389 . S
C1431 C1432 1.524 . S
C1432 C1431 1.524 . S
C1432 C1433 1.397 . S
C1432 C1437 1.363 . S
C1433 H1404 0.950 . S
C1433 C1432 1.397 . S
C1433 C1434 1.334 . S
C1434 H1405 0.950 . S
C1434 C1433 1.334 . S
C1434 C1435 1.287 . S
C1435 C1434 1.287 . S
C1435 C1436 1.524 . S
C1435 H1438 0.999 . S
C1436 H1406 0.950 . S
C1436 C1435 1.524 . S
C1436 C1437 1.415 . S
C1437 H1407 0.950 . S
C1437 C1432 1.363 . S
C1437 C1436 1.415 . S
H1438 C1435 0.999 . S
H1439 C1420 0.913 . S
H1440 C1458 0.951 . S
H1441 C1460 0.951 . S
H1442 C1462 0.950 . S
H1443 C1463 0.950 . S
H1444 C1465 0.950 . S
H1445 C1468 0.950 . S
H1446 C1469 0.950 . S
H1447 C1471 0.950 . S
H1448 C1472 0.950 . S
H1449 C1473 0.951 . S
H1450 C1475 0.951 . S
H1451 C1477 0.950 . S
H1452 C1478 0.950 . S
H1453 C1480 0.950 . S
H1454 C1483 0.950 . S
H1455 C1484 0.950 . S
H1456 C1486 0.950 . S
H1457 C1487 0.950 . S
C1458 H1440 0.951 . S
C1458 C1459 1.366 . S
C1458 C1460 1.388 . S
C1459 C1458 1.366 . S
C1459 C1463 1.385 . S
C1460 H1441 0.951 . S
C1460 C1458 1.388 . S
C1460 C1461 1.366 . S
C1461 C1460 1.366 . S
C1461 C1462 1.414 . S
C1461 C1464 1.499 . S
C1462 H1442 0.950 . S
C1462 C1461 1.414 . S
C1462 C1463 1.374 . S
C1463 H1443 0.950 . S
C1463 C1459 1.385 . S
C1463 C1462 1.374 . S
C1464 C1461 1.499 . S
C1464 C1465 1.373 . S
C1464 C1466 1.389 . S
C1465 H1444 0.950 . S
C1465 C1464 1.373 . S
C1465 C1481 1.377 . S
C1466 C1464 1.389 . S
C1466 C1467 1.524 . S
C1466 C1480 1.377 . S
C1467 C1466 1.524 . S
C1467 C1468 1.397 . S
C1467 C1472 1.363 . S
C1468 H1445 0.950 . S
C1468 C1467 1.397 . S
C1468 C1469 1.334 . S
C1469 H1446 0.950 . S
C1469 C1468 1.334 . S
C1469 C1470 1.287 . S
C1470 C1469 1.287 . S
C1470 C1471 1.524 . S
C1470 H1489 0.913 . S
C1471 H1447 0.950 . S
C1471 C1470 1.524 . S
C1471 C1472 1.415 . S
C1472 H1448 0.950 . S
C1472 C1467 1.363 . S
C1472 C1471 1.415 . S
C1473 H1449 0.951 . S
C1473 C1474 1.366 . S
C1473 C1475 1.388 . S
C1474 C1473 1.366 . S
C1474 C1478 1.385 . S
C1475 H1450 0.951 . S
C1475 C1473 1.388 . S
C1475 C1476 1.366 . S
C1476 C1475 1.366 . S
C1476 C1477 1.414 . S
C1476 C1479 1.499 . S
C1477 H1451 0.950 . S
C1477 C1476 1.414 . S
C1477 C1478 1.374 . S
C1478 H1452 0.950 . S
C1478 C1474 1.385 . S
C1478 C1477 1.374 . S
C1479 C1476 1.499 . S
C1479 C1480 1.373 . S
C1479 C1481 1.389 . S
C1480 H1453 0.950 . S
C1480 C1466 1.377 . S
C1480 C1479 1.373 . S
C1481 C1465 1.377 . S
C1481 C1479 1.389 . S
C1481 C1482 1.524 . S
C1482 C1481 1.524 . S
C1482 C1483 1.397 . S
C1482 C1487 1.363 . S
C1483 H1454 0.950 . S
C1483 C1482 1.397 . S
C1483 C1484 1.334 . S
C1484 H1455 0.950 . S
C1484 C1483 1.334 . S
C1484 C1485 1.287 . S
C1485 C1484 1.287 . S
C1485 C1486 1.524 . S
C1485 H1488 0.999 . S
C1486 H1456 0.950 . S
C1486 C1485 1.524 . S
C1486 C1487 1.415 . S
C1487 H1457 0.950 . S
C1487 C1482 1.363 . S
C1487 C1486 1.415 . S
H1488 C1485 0.999 . S
H1489 C1470 0.913 . S
H1490 C1508 0.951 . S
H1491 C1510 0.951 . S
H1492 C1512 0.950 . S
H1493 C1513 0.950 . S
H1494 C1515 0.950 . S
H1495 C1518 0.950 . S
H1496 C1519 0.950 . S
H1497 C1521 0.950 . S
H1498 C1522 0.950 . S
H1499 C1523 0.951 . S
H1500 C1525 0.951 . S
H1501 C1527 0.950 . S
H1502 C1528 0.950 . S
H1503 C1530 0.950 . S
H1504 C1533 0.950 . S
H1505 C1534 0.950 . S
H1506 C1536 0.950 1_554 S
H1507 C1537 0.950 . S
C1508 H1490 0.951 . S
C1508 C1509 1.366 . S
C1508 C1510 1.388 . S
C1509 C1508 1.366 . S
C1509 C1513 1.385 . S
C1510 H1491 0.951 . S
C1510 C1508 1.388 . S
C1510 C1511 1.366 . S
C1511 C1510 1.366 . S
C1511 C1512 1.414 . S
C1511 C1514 1.499 . S
C1512 H1492 0.950 . S
C1512 C1511 1.414 . S
C1512 C1513 1.374 . S
C1513 H1493 0.950 . S
C1513 C1509 1.385 . S
C1513 C1512 1.374 . S
C1514 C1511 1.499 . S
C1514 C1515 1.373 . S
C1514 C1516 1.389 . S
C1515 H1494 0.950 . S
C1515 C1514 1.373 . S
C1515 C1531 1.377 . S
C1516 C1514 1.389 . S
C1516 C1517 1.524 . S
C1516 C1530 1.377 . S
C1517 C1516 1.524 . S
C1517 C1518 1.397 . S
C1517 C1522 1.363 . S
C1518 H1495 0.950 . S
C1518 C1517 1.397 . S
C1518 C1519 1.334 . S
C1519 H1496 0.950 . S
C1519 C1518 1.334 . S
C1519 C1520 1.287 . S
C1520 C1519 1.287 . S
C1520 C1521 1.524 . S
C1520 H1539 0.913 . S
C1521 H1497 0.950 . S
C1521 C1520 1.524 . S
C1521 C1522 1.415 . S
C1522 H1498 0.950 . S
C1522 C1517 1.363 . S
C1522 C1521 1.415 . S
C1523 H1499 0.951 . S
C1523 C1524 1.366 . S
C1523 C1525 1.388 . S
C1524 C1523 1.366 . S
C1524 C1528 1.385 . S
C1525 H1500 0.951 . S
C1525 C1523 1.388 . S
C1525 C1526 1.366 . S
C1526 C1525 1.366 . S
C1526 C1527 1.414 . S
C1526 C1529 1.499 . S
C1527 H1501 0.950 . S
C1527 C1526 1.414 . S
C1527 C1528 1.374 . S
C1528 H1502 0.950 . S
C1528 C1524 1.385 . S
C1528 C1527 1.374 . S
C1529 C1526 1.499 . S
C1529 C1530 1.373 . S
C1529 C1531 1.389 . S
C1530 H1503 0.950 . S
C1530 C1516 1.377 . S
C1530 C1529 1.373 . S
C1531 C1515 1.377 . S
C1531 C1529 1.389 . S
C1531 C1532 1.524 . S
C1532 C1531 1.524 . S
C1532 C1533 1.397 . S
C1532 C1537 1.363 . S
C1533 H1504 0.950 . S
C1533 C1532 1.397 . S
C1533 C1534 1.334 . S
C1534 H1505 0.950 . S
C1534 C1533 1.334 . S
C1534 C1535 1.287 . S
C1535 C1534 1.287 . S
C1535 C1536 1.524 . S
C1535 H1538 0.999 . S
C1536 H1506 0.950 1_556 S
C1536 C1535 1.524 . S
C1536 C1537 1.415 . S
C1537 H1507 0.950 . S
C1537 C1532 1.363 . S
C1537 C1536 1.415 . S
H1538 C1535 0.999 . S
H1539 C1520 0.913 . S
H1540 C1558 0.951 . S
H1541 C1560 0.951 . S
H1542 C1562 0.950 . S
H1543 C1563 0.950 . S
H1544 C1565 0.950 . S
H1545 C1568 0.950 . S
H1546 C1569 0.950 . S
H1547 C1571 0.950 . S
H1548 C1572 0.950 . S
H1549 C1573 0.951 . S
H1550 C1575 0.951 . S
H1551 C1577 0.950 . S
H1552 C1578 0.950 . S
H1553 C1580 0.950 . S
H1554 C1583 0.950 . S
H1555 C1584 0.950 . S
H1556 C1586 0.950 . S
H1557 C1587 0.950 . S
C1558 H1540 0.951 . S
C1558 C1559 1.366 . S
C1558 C1560 1.388 . S
C1559 C1558 1.366 . S
C1559 C1563 1.385 . S
C1560 H1541 0.951 . S
C1560 C1558 1.388 . S
C1560 C1561 1.366 . S
C1561 C1560 1.366 . S
C1561 C1562 1.414 . S
C1561 C1564 1.499 . S
C1562 H1542 0.950 . S
C1562 C1561 1.414 . S
C1562 C1563 1.374 . S
C1563 H1543 0.950 . S
C1563 C1559 1.385 . S
C1563 C1562 1.374 . S
C1564 C1561 1.499 . S
C1564 C1565 1.373 . S
C1564 C1566 1.389 . S
C1565 H1544 0.950 . S
C1565 C1564 1.373 . S
C1565 C1581 1.377 . S
C1566 C1564 1.389 . S
C1566 C1567 1.524 . S
C1566 C1580 1.377 . S
C1567 C1566 1.524 . S
C1567 C1568 1.397 . S
C1567 C1572 1.363 . S
C1568 H1545 0.950 . S
C1568 C1567 1.397 . S
C1568 C1569 1.334 . S
C1569 H1546 0.950 . S
C1569 C1568 1.334 . S
C1569 C1570 1.287 . S
C1570 C1569 1.287 . S
C1570 C1571 1.524 . S
C1570 H1589 0.913 . S
C1571 H1547 0.950 . S
C1571 C1570 1.524 . S
C1571 C1572 1.415 . S
C1572 H1548 0.950 . S
C1572 C1567 1.363 . S
C1572 C1571 1.415 . S
C1573 H1549 0.951 . S
C1573 C1574 1.366 . S
C1573 C1575 1.388 . S
C1574 C1573 1.366 . S
C1574 C1578 1.385 . S
C1575 H1550 0.951 . S
C1575 C1573 1.388 . S
C1575 C1576 1.366 . S
C1576 C1575 1.366 . S
C1576 C1577 1.414 . S
C1576 C1579 1.499 . S
C1577 H1551 0.950 . S
C1577 C1576 1.414 . S
C1577 C1578 1.374 . S
C1578 H1552 0.950 . S
C1578 C1574 1.385 . S
C1578 C1577 1.374 . S
C1579 C1576 1.499 . S
C1579 C1580 1.373 . S
C1579 C1581 1.389 . S
C1580 H1553 0.950 . S
C1580 C1566 1.377 . S
C1580 C1579 1.373 . S
C1581 C1565 1.377 . S
C1581 C1579 1.389 . S
C1581 C1582 1.524 . S
C1582 C1581 1.524 . S
C1582 C1583 1.397 . S
C1582 C1587 1.363 . S
C1583 H1554 0.950 . S
C1583 C1582 1.397 . S
C1583 C1584 1.334 . S
C1584 H1555 0.950 . S
C1584 C1583 1.334 . S
C1584 C1585 1.287 . S
C1585 C1584 1.287 . S
C1585 C1586 1.524 . S
C1585 H1588 0.999 . S
C1586 H1556 0.950 . S
C1586 C1585 1.524 . S
C1586 C1587 1.415 . S
C1587 H1557 0.950 . S
C1587 C1582 1.363 . S
C1587 C1586 1.415 . S
H1588 C1585 0.999 . S
H1589 C1570 0.913 . S
H1590 C1608 0.951 . S
H1591 C1610 0.951 . S
H1592 C1612 0.950 . S
H1593 C1613 0.950 . S
H1594 C1615 0.950 . S
H1595 C1618 0.950 . S
H1596 C1619 0.950 . S
H1597 C1621 0.950 . S
H1598 C1622 0.950 . S
H1599 C1623 0.951 . S
H1600 C1625 0.951 . S
H1601 C1627 0.950 . S
H1602 C1628 0.950 . S
H1603 C1630 0.950 . S
H1604 C1633 0.950 . S
H1605 C1634 0.950 . S
H1606 C1636 0.950 . S
H1607 C1637 0.950 . S
C1608 H1590 0.951 . S
C1608 C1609 1.366 . S
C1608 C1610 1.388 . S
C1609 C1608 1.366 . S
C1609 C1613 1.385 . S
C1610 H1591 0.951 . S
C1610 C1608 1.388 . S
C1610 C1611 1.366 . S
C1611 C1610 1.366 . S
C1611 C1612 1.414 . S
C1611 C1614 1.499 . S
C1612 H1592 0.950 . S
C1612 C1611 1.414 . S
C1612 C1613 1.374 . S
C1613 H1593 0.950 . S
C1613 C1609 1.385 . S
C1613 C1612 1.374 . S
C1614 C1611 1.499 . S
C1614 C1615 1.373 . S
C1614 C1616 1.389 . S
C1615 H1594 0.950 . S
C1615 C1614 1.373 . S
C1615 C1631 1.377 . S
C1616 C1614 1.389 . S
C1616 C1617 1.524 . S
C1616 C1630 1.377 . S
C1617 C1616 1.524 . S
C1617 C1618 1.397 . S
C1617 C1622 1.363 . S
C1618 H1595 0.950 . S
C1618 C1617 1.397 . S
C1618 C1619 1.334 . S
C1619 H1596 0.950 . S
C1619 C1618 1.334 . S
C1619 C1620 1.287 . S
C1620 C1619 1.287 . S
C1620 C1621 1.524 . S
C1620 H1639 0.913 . S
C1621 H1597 0.950 . S
C1621 C1620 1.524 . S
C1621 C1622 1.415 . S
C1622 H1598 0.950 . S
C1622 C1617 1.363 . S
C1622 C1621 1.415 . S
C1623 H1599 0.951 . S
C1623 C1624 1.366 . S
C1623 C1625 1.388 . S
C1624 C1623 1.366 . S
C1624 C1628 1.385 . S
C1625 H1600 0.951 . S
C1625 C1623 1.388 . S
C1625 C1626 1.366 . S
C1626 C1625 1.366 . S
C1626 C1627 1.414 . S
C1626 C1629 1.499 . S
C1627 H1601 0.950 . S
C1627 C1626 1.414 . S
C1627 C1628 1.374 . S
C1628 H1602 0.950 . S
C1628 C1624 1.385 . S
C1628 C1627 1.374 . S
C1629 C1626 1.499 . S
C1629 C1630 1.373 . S
C1629 C1631 1.389 . S
C1630 H1603 0.950 . S
C1630 C1616 1.377 . S
C1630 C1629 1.373 . S
C1631 C1615 1.377 . S
C1631 C1629 1.389 . S
C1631 C1632 1.524 . S
C1632 C1631 1.524 . S
C1632 C1633 1.397 . S
C1632 C1637 1.363 . S
C1633 H1604 0.950 . S
C1633 C1632 1.397 . S
C1633 C1634 1.334 . S
C1634 H1605 0.950 . S
C1634 C1633 1.334 . S
C1634 C1635 1.287 . S
C1635 C1634 1.287 . S
C1635 C1636 1.524 . S
C1635 H1638 0.999 . S
C1636 H1606 0.950 . S
C1636 C1635 1.524 . S
C1636 C1637 1.415 . S
C1637 H1607 0.950 . S
C1637 C1632 1.363 . S
C1637 C1636 1.415 . S
H1638 C1635 0.999 . S
H1639 C1620 0.913 . S
H1640 C1658 0.951 . S
H1641 C1660 0.951 . S
H1642 C1662 0.950 . S
H1643 C1663 0.950 . S
H1644 C1665 0.950 . S
H1645 C1668 0.950 . S
H1646 C1669 0.950 . S
H1647 C1671 0.950 . S
H1648 C1672 0.950 . S
H1649 C1673 0.951 . S
H1650 C1675 0.951 . S
H1651 C1677 0.950 . S
H1652 C1678 0.950 . S
H1653 C1680 0.950 . S
H1654 C1683 0.950 . S
H1655 C1684 0.950 . S
H1656 C1686 0.950 . S
H1657 C1687 0.950 . S
C1658 H1640 0.951 . S
C1658 C1659 1.366 . S
C1658 C1660 1.388 . S
C1659 C1658 1.366 . S
C1659 C1663 1.385 . S
C1660 H1641 0.951 . S
C1660 C1658 1.388 . S
C1660 C1661 1.366 . S
C1661 C1660 1.366 . S
C1661 C1662 1.414 . S
C1661 C1664 1.499 . S
C1662 H1642 0.950 . S
C1662 C1661 1.414 . S
C1662 C1663 1.374 . S
C1663 H1643 0.950 . S
C1663 C1659 1.385 . S
C1663 C1662 1.374 . S
C1664 C1661 1.499 . S
C1664 C1665 1.373 . S
C1664 C1666 1.389 . S
C1665 H1644 0.950 . S
C1665 C1664 1.373 . S
C1665 C1681 1.377 . S
C1666 C1664 1.389 . S
C1666 C1667 1.524 . S
C1666 C1680 1.377 . S
C1667 C1666 1.524 . S
C1667 C1668 1.397 . S
C1667 C1672 1.363 . S
C1668 H1645 0.950 . S
C1668 C1667 1.397 . S
C1668 C1669 1.334 . S
C1669 H1646 0.950 . S
C1669 C1668 1.334 . S
C1669 C1670 1.287 . S
C1670 C1669 1.287 . S
C1670 C1671 1.524 . S
C1670 H1689 0.913 . S
C1671 H1647 0.950 . S
C1671 C1670 1.524 . S
C1671 C1672 1.415 . S
C1672 H1648 0.950 . S
C1672 C1667 1.363 . S
C1672 C1671 1.415 . S
C1673 H1649 0.951 . S
C1673 C1674 1.366 . S
C1673 C1675 1.388 . S
C1674 C1673 1.366 . S
C1674 C1678 1.385 . S
C1675 H1650 0.951 . S
C1675 C1673 1.388 . S
C1675 C1676 1.366 . S
C1676 C1675 1.366 . S
C1676 C1677 1.414 . S
C1676 C1679 1.499 . S
C1677 H1651 0.950 . S
C1677 C1676 1.414 . S
C1677 C1678 1.374 . S
C1678 H1652 0.950 . S
C1678 C1674 1.385 . S
C1678 C1677 1.374 . S
C1679 C1676 1.499 . S
C1679 C1680 1.373 . S
C1679 C1681 1.389 . S
C1680 H1653 0.950 . S
C1680 C1666 1.377 . S
C1680 C1679 1.373 . S
C1681 C1665 1.377 . S
C1681 C1679 1.389 . S
C1681 C1682 1.524 . S
C1682 C1681 1.524 . S
C1682 C1683 1.397 . S
C1682 C1687 1.363 . S
C1683 H1654 0.950 . S
C1683 C1682 1.397 . S
C1683 C1684 1.334 . S
C1684 H1655 0.950 . S
C1684 C1683 1.334 . S
C1684 C1685 1.287 . S
C1685 C1684 1.287 . S
C1685 C1686 1.524 . S
C1685 H1688 0.999 . S
C1686 H1656 0.950 . S
C1686 C1685 1.524 . S
C1686 C1687 1.415 . S
C1687 H1657 0.950 . S
C1687 C1682 1.363 . S
C1687 C1686 1.415 . S
H1688 C1685 0.999 . S
H1689 C1670 0.913 . S
H1690 C1708 0.951 . S
H1691 C1710 0.951 . S
H1692 C1712 0.950 . S
H1693 C1713 0.950 . S
H1694 C1715 0.950 . S
H1695 C1718 0.950 . S
H1696 C1719 0.950 . S
H1697 C1721 0.950 . S
H1698 C1722 0.950 . S
H1699 C1723 0.951 . S
H1700 C1725 0.951 . S
H1701 C1727 0.950 . S
H1702 C1728 0.950 . S
H1703 C1730 0.950 . S
H1704 C1733 0.950 . S
H1705 C1734 0.950 . S
H1706 C1736 0.950 . S
H1707 C1737 0.950 . S
C1708 H1690 0.951 . S
C1708 C1709 1.366 . S
C1708 C1710 1.388 . S
C1709 C1708 1.366 . S
C1709 C1713 1.385 . S
C1710 H1691 0.951 . S
C1710 C1708 1.388 . S
C1710 C1711 1.366 . S
C1711 C1710 1.366 . S
C1711 C1712 1.414 . S
C1711 C1714 1.499 . S
C1712 H1692 0.950 . S
C1712 C1711 1.414 . S
C1712 C1713 1.374 . S
C1713 H1693 0.950 . S
C1713 C1709 1.385 . S
C1713 C1712 1.374 . S
C1714 C1711 1.499 . S
C1714 C1715 1.373 . S
C1714 C1716 1.389 . S
C1715 H1694 0.950 . S
C1715 C1714 1.373 . S
C1715 C1731 1.377 . S
C1716 C1714 1.389 . S
C1716 C1717 1.524 . S
C1716 C1730 1.377 . S
C1717 C1716 1.524 . S
C1717 C1718 1.397 . S
C1717 C1722 1.363 . S
C1718 H1695 0.950 . S
C1718 C1717 1.397 . S
C1718 C1719 1.334 . S
C1719 H1696 0.950 . S
C1719 C1718 1.334 . S
C1719 C1720 1.287 . S
C1720 C1719 1.287 . S
C1720 C1721 1.524 . S
C1720 H1739 0.913 . S
C1721 H1697 0.950 . S
C1721 C1720 1.524 . S
C1721 C1722 1.415 . S
C1722 H1698 0.950 . S
C1722 C1717 1.363 . S
C1722 C1721 1.415 . S
C1723 H1699 0.951 . S
C1723 C1724 1.366 . S
C1723 C1725 1.388 . S
C1724 C1723 1.366 . S
C1724 C1728 1.385 . S
C1725 H1700 0.951 . S
C1725 C1723 1.388 . S
C1725 C1726 1.366 . S
C1726 C1725 1.366 . S
C1726 C1727 1.414 . S
C1726 C1729 1.499 . S
C1727 H1701 0.950 . S
C1727 C1726 1.414 . S
C1727 C1728 1.374 . S
C1728 H1702 0.950 . S
C1728 C1724 1.385 . S
C1728 C1727 1.374 . S
C1729 C1726 1.499 . S
C1729 C1730 1.373 . S
C1729 C1731 1.389 . S
C1730 H1703 0.950 . S
C1730 C1716 1.377 . S
C1730 C1729 1.373 . S
C1731 C1715 1.377 . S
C1731 C1729 1.389 . S
C1731 C1732 1.524 . S
C1732 C1731 1.524 . S
C1732 C1733 1.397 . S
C1732 C1737 1.363 . S
C1733 H1704 0.950 . S
C1733 C1732 1.397 . S
C1733 C1734 1.334 . S
C1734 H1705 0.950 . S
C1734 C1733 1.334 . S
C1734 C1735 1.287 . S
C1735 C1734 1.287 . S
C1735 C1736 1.524 . S
C1735 H1738 0.999 . S
C1736 H1706 0.950 . S
C1736 C1735 1.524 . S
C1736 C1737 1.415 . S
C1737 H1707 0.950 . S
C1737 C1732 1.363 . S
C1737 C1736 1.415 . S
H1738 C1735 0.999 . S
H1739 C1720 0.913 . S
H1740 C1758 0.951 . S
H1741 C1760 0.951 . S
H1742 C1762 0.950 . S
H1743 C1763 0.950 . S
H1744 C1765 0.950 . S
H1745 C1768 0.950 . S
H1746 C1769 0.950 . S
H1747 C1771 0.950 . S
H1748 C1772 0.950 . S
H1749 C1773 0.951 . S
H1750 C1775 0.951 . S
H1751 C1777 0.950 . S
H1752 C1778 0.950 . S
H1753 C1780 0.950 . S
H1754 C1783 0.950 . S
H1755 C1784 0.950 . S
H1756 C1786 0.950 . S
H1757 C1787 0.950 . S
C1758 H1740 0.951 . S
C1758 C1759 1.366 . S
C1758 C1760 1.388 . S
C1759 C1758 1.366 . S
C1759 C1763 1.385 . S
C1760 H1741 0.951 . S
C1760 C1758 1.388 . S
C1760 C1761 1.366 . S
C1761 C1760 1.366 . S
C1761 C1762 1.414 . S
C1761 C1764 1.499 . S
C1762 H1742 0.950 . S
C1762 C1761 1.414 . S
C1762 C1763 1.374 . S
C1763 H1743 0.950 . S
C1763 C1759 1.385 . S
C1763 C1762 1.374 . S
C1764 C1761 1.499 . S
C1764 C1765 1.373 . S
C1764 C1766 1.389 . S
C1765 H1744 0.950 . S
C1765 C1764 1.373 . S
C1765 C1781 1.377 . S
C1766 C1764 1.389 . S
C1766 C1767 1.524 . S
C1766 C1780 1.377 . S
C1767 C1766 1.524 . S
C1767 C1768 1.397 . S
C1767 C1772 1.363 . S
C1768 H1745 0.950 . S
C1768 C1767 1.397 . S
C1768 C1769 1.334 . S
C1769 H1746 0.950 . S
C1769 C1768 1.334 . S
C1769 C1770 1.287 . S
C1770 C1769 1.287 . S
C1770 C1771 1.524 . S
C1770 H1789 0.913 . S
C1771 H1747 0.950 . S
C1771 C1770 1.524 . S
C1771 C1772 1.415 . S
C1772 H1748 0.950 . S
C1772 C1767 1.363 . S
C1772 C1771 1.415 . S
C1773 H1749 0.951 . S
C1773 C1774 1.366 . S
C1773 C1775 1.388 . S
C1774 C1773 1.366 . S
C1774 C1778 1.385 . S
C1775 H1750 0.951 . S
C1775 C1773 1.388 . S
C1775 C1776 1.366 . S
C1776 C1775 1.366 . S
C1776 C1777 1.414 . S
C1776 C1779 1.499 . S
C1777 H1751 0.950 . S
C1777 C1776 1.414 . S
C1777 C1778 1.374 . S
C1778 H1752 0.950 . S
C1778 C1774 1.385 . S
C1778 C1777 1.374 . S
C1779 C1776 1.499 . S
C1779 C1780 1.373 . S
C1779 C1781 1.389 . S
C1780 H1753 0.950 . S
C1780 C1766 1.377 . S
C1780 C1779 1.373 . S
C1781 C1765 1.377 . S
C1781 C1779 1.389 . S
C1781 C1782 1.524 . S
C1782 C1781 1.524 . S
C1782 C1783 1.397 . S
C1782 C1787 1.363 . S
C1783 H1754 0.950 . S
C1783 C1782 1.397 . S
C1783 C1784 1.334 . S
C1784 H1755 0.950 . S
C1784 C1783 1.334 . S
C1784 C1785 1.287 . S
C1785 C1784 1.287 . S
C1785 C1786 1.524 . S
C1785 H1788 0.999 . S
C1786 H1756 0.950 . S
C1786 C1785 1.524 . S
C1786 C1787 1.415 . S
C1787 H1757 0.950 . S
C1787 C1782 1.363 . S
C1787 C1786 1.415 . S
H1788 C1785 0.999 . S
H1789 C1770 0.913 . S
H1790 C1808 0.951 . S
H1791 C1810 0.951 . S
H1792 C1812 0.950 . S
H1793 C1813 0.950 . S
H1794 C1815 0.950 . S
H1795 C1818 0.950 . S
H1796 C1819 0.950 . S
H1797 C1821 0.950 . S
H1798 C1822 0.950 . S
H1799 C1823 0.951 . S
H1800 C1825 0.951 . S
H1801 C1827 0.950 . S
H1802 C1828 0.950 . S
H1803 C1830 0.950 . S
H1804 C1833 0.950 . S
H1805 C1834 0.950 . S
H1806 C1836 0.950 . S
H1807 C1837 0.950 . S
C1808 H1790 0.951 . S
C1808 C1809 1.366 . S
C1808 C1810 1.388 . S
C1809 C1808 1.366 . S
C1809 C1813 1.385 . S
C1810 H1791 0.951 . S
C1810 C1808 1.388 . S
C1810 C1811 1.366 . S
C1811 C1810 1.366 . S
C1811 C1812 1.414 . S
C1811 C1814 1.499 . S
C1812 H1792 0.950 . S
C1812 C1811 1.414 . S
C1812 C1813 1.374 . S
C1813 H1793 0.950 . S
C1813 C1809 1.385 . S
C1813 C1812 1.374 . S
C1814 C1811 1.499 . S
C1814 C1815 1.373 . S
C1814 C1816 1.389 . S
C1815 H1794 0.950 . S
C1815 C1814 1.373 . S
C1815 C1831 1.377 . S
C1816 C1814 1.389 . S
C1816 C1817 1.524 . S
C1816 C1830 1.377 . S
C1817 C1816 1.524 . S
C1817 C1818 1.397 . S
C1817 C1822 1.363 . S
C1818 H1795 0.950 . S
C1818 C1817 1.397 . S
C1818 C1819 1.334 . S
C1819 H1796 0.950 . S
C1819 C1818 1.334 . S
C1819 C1820 1.287 . S
C1820 C1819 1.287 . S
C1820 C1821 1.524 . S
C1820 H1839 0.913 . S
C1821 H1797 0.950 . S
C1821 C1820 1.524 . S
C1821 C1822 1.415 . S
C1822 H1798 0.950 . S
C1822 C1817 1.363 . S
C1822 C1821 1.415 . S
C1823 H1799 0.951 . S
C1823 C1824 1.366 . S
C1823 C1825 1.388 . S
C1824 C1823 1.366 . S
C1824 C1828 1.385 . S
C1825 H1800 0.951 . S
C1825 C1823 1.388 . S
C1825 C1826 1.366 . S
C1826 C1825 1.366 . S
C1826 C1827 1.414 . S
C1826 C1829 1.499 . S
C1827 H1801 0.950 . S
C1827 C1826 1.414 . S
C1827 C1828 1.374 . S
C1828 H1802 0.950 . S
C1828 C1824 1.385 . S
C1828 C1827 1.374 . S
C1829 C1826 1.499 . S
C1829 C1830 1.373 . S
C1829 C1831 1.389 . S
C1830 H1803 0.950 . S
C1830 C1816 1.377 . S
C1830 C1829 1.373 . S
C1831 C1815 1.377 . S
C1831 C1829 1.389 . S
C1831 C1832 1.524 . S
C1832 C1831 1.524 . S
C1832 C1833 1.397 . S
C1832 C1837 1.363 . S
C1833 H1804 0.950 . S
C1833 C1832 1.397 . S
C1833 C1834 1.334 . S
C1834 H1805 0.950 . S
C1834 C1833 1.334 . S
C1834 C1835 1.287 . S
C1835 C1834 1.287 . S
C1835 C1836 1.524 . S
C1835 H1838 0.999 . S
C1836 H1806 0.950 . S
C1836 C1835 1.524 . S
C1836 C1837 1.415 . S
C1837 H1807 0.950 . S
C1837 C1832 1.363 . S
C1837 C1836 1.415 . S
H1838 C1835 0.999 . S
H1839 C1820 0.913 . S
H1840 C1858 0.951 . S
H1841 C1860 0.951 . S
H1842 C1862 0.950 . S
H1843 C1863 0.950 . S
H1844 C1865 0.950 . S
H1845 C1868 0.950 . S
H1846 C1869 0.950 . S
H1847 C1871 0.950 . S
H1848 C1872 0.950 . S
H1849 C1873 0.951 1_554 S
H1850 C1875 0.951 . S
H1851 C1877 0.950 . S
H1852 C1878 0.950 . S
H1853 C1880 0.950 . S
H1854 C1883 0.950 . S
H1855 C1884 0.950 . S
H1856 C1886 0.950 . S
H1857 C1887 0.950 . S
C1858 H1840 0.951 . S
C1858 C1859 1.366 . S
C1858 C1860 1.388 . S
C1859 C1858 1.366 . S
C1859 C1863 1.385 . S
C1860 H1841 0.951 . S
C1860 C1858 1.388 . S
C1860 C1861 1.366 . S
C1861 C1860 1.366 . S
C1861 C1862 1.414 . S
C1861 C1864 1.499 . S
C1862 H1842 0.950 . S
C1862 C1861 1.414 . S
C1862 C1863 1.374 . S
C1863 H1843 0.950 . S
C1863 C1859 1.385 . S
C1863 C1862 1.374 . S
C1864 C1861 1.499 . S
C1864 C1865 1.373 . S
C1864 C1866 1.389 . S
C1865 H1844 0.950 . S
C1865 C1864 1.373 . S
C1865 C1881 1.377 . S
C1866 C1864 1.389 . S
C1866 C1867 1.524 . S
C1866 C1880 1.377 . S
C1867 C1866 1.524 . S
C1867 C1868 1.397 . S
C1867 C1872 1.363 . S
C1868 H1845 0.950 . S
C1868 C1867 1.397 . S
C1868 C1869 1.334 . S
C1869 H1846 0.950 . S
C1869 C1868 1.334 . S
C1869 C1870 1.287 . S
C1870 C1869 1.287 . S
C1870 C1871 1.524 . S
C1870 H1889 0.913 . S
C1871 H1847 0.950 . S
C1871 C1870 1.524 . S
C1871 C1872 1.415 . S
C1872 H1848 0.950 . S
C1872 C1867 1.363 . S
C1872 C1871 1.415 . S
C1873 H1849 0.951 1_556 S
C1873 C1874 1.366 1_556 S
C1873 C1875 1.388 . S
C1874 C1873 1.366 1_554 S
C1874 C1878 1.385 . S
C1875 H1850 0.951 . S
C1875 C1873 1.388 . S
C1875 C1876 1.366 . S
C1876 C1875 1.366 . S
C1876 C1877 1.414 . S
C1876 C1879 1.499 . S
C1877 H1851 0.950 . S
C1877 C1876 1.414 . S
C1877 C1878 1.374 1_556 S
C1878 H1852 0.950 . S
C1878 C1874 1.385 . S
C1878 C1877 1.374 1_554 S
C1879 C1876 1.499 . S
C1879 C1880 1.373 . S
C1879 C1881 1.389 . S
C1880 H1853 0.950 . S
C1880 C1866 1.377 . S
C1880 C1879 1.373 . S
C1881 C1865 1.377 . S
C1881 C1879 1.389 . S
C1881 C1882 1.524 . S
C1882 C1881 1.524 . S
C1882 C1883 1.397 . S
C1882 C1887 1.363 . S
C1883 H1854 0.950 . S
C1883 C1882 1.397 . S
C1883 C1884 1.334 . S
C1884 H1855 0.950 . S
C1884 C1883 1.334 . S
C1884 C1885 1.287 . S
C1885 C1884 1.287 . S
C1885 C1886 1.524 . S
C1885 H1888 0.999 . S
C1886 H1856 0.950 . S
C1886 C1885 1.524 . S
C1886 C1887 1.415 . S
C1887 H1857 0.950 . S
C1887 C1882 1.363 . S
C1887 C1886 1.415 . S
H1888 C1885 0.999 . S
H1889 C1870 0.913 . S
H1890 C1908 0.951 . S
H1891 C1910 0.951 . S
H1892 C1912 0.950 . S
H1893 C1913 0.950 . S
H1894 C1915 0.950 . S
H1895 C1918 0.950 . S
H1896 C1919 0.950 . S
H1897 C1921 0.950 . S
H1898 C1922 0.950 . S
H1899 C1923 0.951 . S
H1900 C1925 0.951 . S
H1901 C1927 0.950 . S
H1902 C1928 0.950 . S
H1903 C1930 0.950 . S
H1904 C1933 0.950 . S
H1905 C1934 0.950 . S
H1906 C1936 0.950 . S
H1907 C1937 0.950 . S
C1908 H1890 0.951 . S
C1908 C1909 1.366 . S
C1908 C1910 1.388 1_556 S
C1909 C1908 1.366 . S
C1909 C1913 1.385 1_556 S
C1910 H1891 0.951 . S
C1910 C1908 1.388 1_554 S
C1910 C1911 1.366 . S
C1911 C1910 1.366 . S
C1911 C1912 1.414 . S
C1911 C1914 1.499 . S
C1912 H1892 0.950 . S
C1912 C1911 1.414 . S
C1912 C1913 1.374 . S
C1913 H1893 0.950 . S
C1913 C1909 1.385 1_554 S
C1913 C1912 1.374 . S
C1914 C1911 1.499 . S
C1914 C1915 1.373 . S
C1914 C1916 1.389 . S
C1915 H1894 0.950 . S
C1915 C1914 1.373 . S
C1915 C1931 1.377 . S
C1916 C1914 1.389 . S
C1916 C1917 1.524 . S
C1916 C1930 1.377 . S
C1917 C1916 1.524 . S
C1917 C1918 1.397 . S
C1917 C1922 1.363 . S
C1918 H1895 0.950 . S
C1918 C1917 1.397 . S
C1918 C1919 1.334 . S
C1919 H1896 0.950 . S
C1919 C1918 1.334 . S
C1919 C1920 1.287 . S
C1920 C1919 1.287 . S
C1920 C1921 1.524 . S
C1920 H1939 0.913 . S
C1921 H1897 0.950 . S
C1921 C1920 1.524 . S
C1921 C1922 1.415 . S
C1922 H1898 0.950 . S
C1922 C1917 1.363 . S
C1922 C1921 1.415 . S
C1923 H1899 0.951 . S
C1923 C1924 1.366 . S
C1923 C1925 1.388 . S
C1924 C1923 1.366 . S
C1924 C1928 1.385 . S
C1925 H1900 0.951 . S
C1925 C1923 1.388 . S
C1925 C1926 1.366 . S
C1926 C1925 1.366 . S
C1926 C1927 1.414 . S
C1926 C1929 1.499 . S
C1927 H1901 0.950 . S
C1927 C1926 1.414 . S
C1927 C1928 1.374 . S
C1928 H1902 0.950 . S
C1928 C1924 1.385 . S
C1928 C1927 1.374 . S
C1929 C1926 1.499 . S
C1929 C1930 1.373 . S
C1929 C1931 1.389 . S
C1930 H1903 0.950 . S
C1930 C1916 1.377 . S
C1930 C1929 1.373 . S
C1931 C1915 1.377 . S
C1931 C1929 1.389 . S
C1931 C1932 1.524 . S
C1932 C1931 1.524 . S
C1932 C1933 1.397 . S
C1932 C1937 1.363 . S
C1933 H1904 0.950 . S
C1933 C1932 1.397 . S
C1933 C1934 1.334 . S
C1934 H1905 0.950 . S
C1934 C1933 1.334 . S
C1934 C1935 1.287 . S
C1935 C1934 1.287 . S
C1935 C1936 1.524 . S
C1935 H1938 0.999 . S
C1936 H1906 0.950 . S
C1936 C1935 1.524 . S
C1936 C1937 1.415 . S
C1937 H1907 0.950 . S
C1937 C1932 1.363 . S
C1937 C1936 1.415 . S
H1938 C1935 0.999 . S
H1939 C1920 0.913 . S
H1940 C1958 0.951 . S
H1941 C1960 0.951 . S
H1942 C1962 0.950 . S
H1943 C1963 0.950 . S
H1944 C1965 0.950 . S
H1945 C1968 0.950 . S
H1946 C1969 0.950 . S
H1947 C1971 0.950 . S
H1948 C1972 0.950 . S
H1949 C1973 0.951 . S
H1950 C1975 0.951 . S
H1951 C1977 0.950 . S
H1952 C1978 0.950 . S
H1953 C1980 0.950 . S
H1954 C1983 0.950 . S
H1955 C1984 0.950 . S
H1956 C1986 0.950 . S
H1957 C1987 0.950 . S
C1958 H1940 0.951 . S
C1958 C1959 1.366 1_556 S
C1958 C1960 1.388 . S
C1959 C1958 1.366 1_554 S
C1959 C1963 1.385 . S
C1960 H1941 0.951 . S
C1960 C1958 1.388 . S
C1960 C1961 1.366 . S
C1961 C1960 1.366 . S
C1961 C1962 1.414 . S
C1961 C1964 1.499 . S
C1962 H1942 0.950 . S
C1962 C1961 1.414 . S
C1962 C1963 1.374 1_556 S
C1963 H1943 0.950 . S
C1963 C1959 1.385 . S
C1963 C1962 1.374 1_554 S
C1964 C1961 1.499 . S
C1964 C1965 1.373 . S
C1964 C1966 1.389 . S
C1965 H1944 0.950 . S
C1965 C1964 1.373 . S
C1965 C1981 1.377 . S
C1966 C1964 1.389 . S
C1966 C1967 1.524 . S
C1966 C1980 1.377 . S
C1967 C1966 1.524 . S
C1967 C1968 1.397 . S
C1967 C1972 1.363 . S
C1968 H1945 0.950 . S
C1968 C1967 1.397 . S
C1968 C1969 1.334 . S
C1969 H1946 0.950 . S
C1969 C1968 1.334 . S
C1969 C1970 1.287 . S
C1970 C1969 1.287 . S
C1970 C1971 1.524 . S
C1970 H1989 0.913 . S
C1971 H1947 0.950 . S
C1971 C1970 1.524 . S
C1971 C1972 1.415 . S
C1972 H1948 0.950 . S
C1972 C1967 1.363 . S
C1972 C1971 1.415 . S
C1973 H1949 0.951 . S
C1973 C1974 1.366 . S
C1973 C1975 1.388 . S
C1974 C1973 1.366 . S
C1974 C1978 1.385 . S
C1975 H1950 0.951 . S
C1975 C1973 1.388 . S
C1975 C1976 1.366 . S
C1976 C1975 1.366 . S
C1976 C1977 1.414 . S
C1976 C1979 1.499 . S
C1977 H1951 0.950 . S
C1977 C1976 1.414 . S
C1977 C1978 1.374 . S
C1978 H1952 0.950 . S
C1978 C1974 1.385 . S
C1978 C1977 1.374 . S
C1979 C1976 1.499 . S
C1979 C1980 1.373 . S
C1979 C1981 1.389 . S
C1980 H1953 0.950 . S
C1980 C1966 1.377 . S
C1980 C1979 1.373 . S
C1981 C1965 1.377 . S
C1981 C1979 1.389 . S
C1981 C1982 1.524 . S
C1982 C1981 1.524 . S
C1982 C1983 1.397 . S
C1982 C1987 1.363 . S
C1983 H1954 0.950 . S
C1983 C1982 1.397 . S
C1983 C1984 1.334 . S
C1984 H1955 0.950 . S
C1984 C1983 1.334 . S
C1984 C1985 1.287 . S
C1985 C1984 1.287 . S
C1985 C1986 1.524 . S
C1985 H1988 0.999 . S
C1986 H1956 0.950 . S
C1986 C1985 1.524 . S
C1986 C1987 1.415 . S
C1987 H1957 0.950 . S
C1987 C1982 1.363 . S
C1987 C1986 1.415 . S
H1988 C1985 0.999 . S
H1989 C1970 0.913 . S
H1990 C2008 0.951 . S
H1991 C2010 0.951 . S
H1992 C2012 0.950 . S
H1993 C2013 0.950 . S
H1994 C2015 0.950 . S
H1995 C2018 0.950 . S
H1996 C2019 0.950 . S
H1997 C2021 0.950 . S
H1998 C2022 0.950 . S
H1999 C2023 0.951 . S
H2000 C2025 0.951 . S
H2001 C2027 0.950 . S
H2002 C2028 0.950 . S
H2003 C2030 0.950 . S
H2004 C2033 0.950 . S
H2005 C2034 0.950 . S
H2006 C2036 0.950 . S
H2007 C2037 0.950 . S
C2008 H1990 0.951 . S
C2008 C2009 1.366 . S
C2008 C2010 1.388 1_556 S
C2009 C2008 1.366 . S
C2009 C2013 1.385 1_556 S
C2010 H1991 0.951 . S
C2010 C2008 1.388 1_554 S
C2010 C2011 1.366 . S
C2011 C2010 1.366 . S
C2011 C2012 1.414 . S
C2011 C2014 1.499 . S
C2012 H1992 0.950 . S
C2012 C2011 1.414 . S
C2012 C2013 1.374 . S
C2013 H1993 0.950 . S
C2013 C2009 1.385 1_554 S
C2013 C2012 1.374 . S
C2014 C2011 1.499 . S
C2014 C2015 1.373 . S
C2014 C2016 1.389 . S
C2015 H1994 0.950 . S
C2015 C2014 1.373 . S
C2015 C2031 1.377 . S
C2016 C2014 1.389 . S
C2016 C2017 1.524 . S
C2016 C2030 1.377 . S
C2017 C2016 1.524 . S
C2017 C2018 1.397 . S
C2017 C2022 1.363 . S
C2018 H1995 0.950 . S
C2018 C2017 1.397 . S
C2018 C2019 1.334 . S
C2019 H1996 0.950 . S
C2019 C2018 1.334 . S
C2019 C2020 1.287 . S
C2020 C2019 1.287 . S
C2020 C2021 1.524 . S
C2020 H2039 0.913 . S
C2021 H1997 0.950 . S
C2021 C2020 1.524 . S
C2021 C2022 1.415 . S
C2022 H1998 0.950 . S
C2022 C2017 1.363 . S
C2022 C2021 1.415 . S
C2023 H1999 0.951 . S
C2023 C2024 1.366 . S
C2023 C2025 1.388 . S
C2024 C2023 1.366 . S
C2024 C2028 1.385 . S
C2025 H2000 0.951 . S
C2025 C2023 1.388 . S
C2025 C2026 1.366 . S
C2026 C2025 1.366 . S
C2026 C2027 1.414 . S
C2026 C2029 1.499 . S
C2027 H2001 0.950 . S
C2027 C2026 1.414 . S
C2027 C2028 1.374 . S
C2028 H2002 0.950 . S
C2028 C2024 1.385 . S
C2028 C2027 1.374 . S
C2029 C2026 1.499 . S
C2029 C2030 1.373 . S
C2029 C2031 1.389 . S
C2030 H2003 0.950 . S
C2030 C2016 1.377 . S
C2030 C2029 1.373 . S
C2031 C2015 1.377 . S
C2031 C2029 1.389 . S
C2031 C2032 1.524 . S
C2032 C2031 1.524 . S
C2032 C2033 1.397 . S
C2032 C2037 1.363 . S
C2033 H2004 0.950 . S
C2033 C2032 1.397 . S
C2033 C2034 1.334 . S
C2034 H2005 0.950 . S
C2034 C2033 1.334 . S
C2034 C2035 1.287 . S
C2035 C2034 1.287 . S
C2035 C2036 1.524 . S
C2035 H2038 0.999 . S
C2036 H2006 0.950 . S
C2036 C2035 1.524 . S
C2036 C2037 1.415 . S
C2037 H2007 0.950 . S
C2037 C2032 1.363 . S
C2037 C2036 1.415 . S
H2038 C2035 0.999 . S
H2039 C2020 0.913 . S
H2040 C2058 0.951 . S
H2041 C2060 0.951 . S
H2042 C2062 0.950 . S
H2043 C2063 0.950 . S
H2044 C2065 0.950 . S
H2045 C2068 0.950 . S
H2046 C2069 0.950 . S
H2047 C2071 0.950 . S
H2048 C2072 0.950 . S
H2049 C2073 0.951 . S
H2050 C2075 0.951 . S
H2051 C2077 0.950 . S
H2052 C2078 0.950 . S
H2053 C2080 0.950 . S
H2054 C2083 0.950 . S
H2055 C2084 0.950 . S
H2056 C2086 0.950 . S
H2057 C2087 0.950 . S
C2058 H2040 0.951 . S
C2058 C2059 1.366 . S
C2058 C2060 1.388 . S
C2059 C2058 1.366 . S
C2059 C2063 1.385 . S
C2060 H2041 0.951 . S
C2060 C2058 1.388 . S
C2060 C2061 1.366 . S
C2061 C2060 1.366 . S
C2061 C2062 1.414 . S
C2061 C2064 1.499 . S
C2062 H2042 0.950 . S
C2062 C2061 1.414 . S
C2062 C2063 1.374 . S
C2063 H2043 0.950 . S
C2063 C2059 1.385 . S
C2063 C2062 1.374 . S
C2064 C2061 1.499 . S
C2064 C2065 1.373 . S
C2064 C2066 1.389 . S
C2065 H2044 0.950 . S
C2065 C2064 1.373 . S
C2065 C2081 1.377 . S
C2066 C2064 1.389 . S
C2066 C2067 1.524 . S
C2066 C2080 1.377 . S
C2067 C2066 1.524 . S
C2067 C2068 1.397 . S
C2067 C2072 1.363 . S
C2068 H2045 0.950 . S
C2068 C2067 1.397 . S
C2068 C2069 1.334 . S
C2069 H2046 0.950 . S
C2069 C2068 1.334 . S
C2069 C2070 1.287 . S
C2070 C2069 1.287 . S
C2070 C2071 1.524 . S
C2070 H2089 0.913 . S
C2071 H2047 0.950 . S
C2071 C2070 1.524 . S
C2071 C2072 1.415 . S
C2072 H2048 0.950 . S
C2072 C2067 1.363 . S
C2072 C2071 1.415 . S
C2073 H2049 0.951 . S
C2073 C2074 1.366 . S
C2073 C2075 1.388 . S
C2074 C2073 1.366 . S
C2074 C2078 1.385 . S
C2075 H2050 0.951 . S
C2075 C2073 1.388 . S
C2075 C2076 1.366 . S
C2076 C2075 1.366 . S
C2076 C2077 1.414 . S
C2076 C2079 1.499 . S
C2077 H2051 0.950 . S
C2077 C2076 1.414 . S
C2077 C2078 1.374 . S
C2078 H2052 0.950 . S
C2078 C2074 1.385 . S
C2078 C2077 1.374 . S
C2079 C2076 1.499 . S
C2079 C2080 1.373 . S
C2079 C2081 1.389 . S
C2080 H2053 0.950 . S
C2080 C2066 1.377 . S
C2080 C2079 1.373 . S
C2081 C2065 1.377 . S
C2081 C2079 1.389 . S
C2081 C2082 1.524 . S
C2082 C2081 1.524 . S
C2082 C2083 1.397 . S
C2082 C2087 1.363 . S
C2083 H2054 0.950 . S
C2083 C2082 1.397 . S
C2083 C2084 1.334 . S
C2084 H2055 0.950 . S
C2084 C2083 1.334 . S
C2084 C2085 1.287 . S
C2085 C2084 1.287 . S
C2085 C2086 1.524 . S
C2085 H2088 0.999 . S
C2086 H2056 0.950 . S
C2086 C2085 1.524 . S
C2086 C2087 1.415 . S
C2087 H2057 0.950 . S
C2087 C2082 1.363 . S
C2087 C2086 1.415 . S
H2088 C2085 0.999 . S
H2089 C2070 0.913 . S
H2090 C2108 0.951 . S
H2091 C2110 0.951 . S
H2092 C2112 0.950 . S
H2093 C2113 0.950 . S
H2094 C2115 0.950 . S
H2095 C2118 0.950 . S
H2096 C2119 0.950 . S
H2097 C2121 0.950 . S
H2098 C2122 0.950 . S
H2099 C2123 0.951 . S
H2100 C2125 0.951 . S
H2101 C2127 0.950 . S
H2102 C2128 0.950 . S
H2103 C2130 0.950 . S
H2104 C2133 0.950 . S
H2105 C2134 0.950 . S
H2106 C2136 0.950 . S
H2107 C2137 0.950 . S
C2108 H2090 0.951 . S
C2108 C2109 1.366 . S
C2108 C2110 1.388 . S
C2109 C2108 1.366 . S
C2109 C2113 1.385 . S
C2110 H2091 0.951 . S
C2110 C2108 1.388 . S
C2110 C2111 1.366 . S
C2111 C2110 1.366 . S
C2111 C2112 1.414 . S
C2111 C2114 1.499 . S
C2112 H2092 0.950 . S
C2112 C2111 1.414 . S
C2112 C2113 1.374 . S
C2113 H2093 0.950 . S
C2113 C2109 1.385 . S
C2113 C2112 1.374 . S
C2114 C2111 1.499 . S
C2114 C2115 1.373 . S
C2114 C2116 1.389 . S
C2115 H2094 0.950 . S
C2115 C2114 1.373 . S
C2115 C2131 1.377 . S
C2116 C2114 1.389 . S
C2116 C2117 1.524 . S
C2116 C2130 1.377 . S
C2117 C2116 1.524 . S
C2117 C2118 1.397 . S
C2117 C2122 1.363 . S
C2118 H2095 0.950 . S
C2118 C2117 1.397 . S
C2118 C2119 1.334 . S
C2119 H2096 0.950 . S
C2119 C2118 1.334 . S
C2119 C2120 1.287 . S
C2120 C2119 1.287 . S
C2120 C2121 1.524 . S
C2120 H2139 0.913 . S
C2121 H2097 0.950 . S
C2121 C2120 1.524 . S
C2121 C2122 1.415 . S
C2122 H2098 0.950 . S
C2122 C2117 1.363 . S
C2122 C2121 1.415 . S
C2123 H2099 0.951 . S
C2123 C2124 1.366 . S
C2123 C2125 1.388 . S
C2124 C2123 1.366 . S
C2124 C2128 1.385 . S
C2125 H2100 0.951 . S
C2125 C2123 1.388 . S
C2125 C2126 1.366 . S
C2126 C2125 1.366 . S
C2126 C2127 1.414 . S
C2126 C2129 1.499 . S
C2127 H2101 0.950 . S
C2127 C2126 1.414 . S
C2127 C2128 1.374 . S
C2128 H2102 0.950 . S
C2128 C2124 1.385 . S
C2128 C2127 1.374 . S
C2129 C2126 1.499 . S
C2129 C2130 1.373 . S
C2129 C2131 1.389 . S
C2130 H2103 0.950 . S
C2130 C2116 1.377 . S
C2130 C2129 1.373 . S
C2131 C2115 1.377 . S
C2131 C2129 1.389 . S
C2131 C2132 1.524 . S
C2132 C2131 1.524 . S
C2132 C2133 1.397 . S
C2132 C2137 1.363 . S
C2133 H2104 0.950 . S
C2133 C2132 1.397 . S
C2133 C2134 1.334 . S
C2134 H2105 0.950 . S
C2134 C2133 1.334 . S
C2134 C2135 1.287 . S
C2135 C2134 1.287 . S
C2135 C2136 1.524 . S
C2135 H2138 0.999 . S
C2136 H2106 0.950 . S
C2136 C2135 1.524 . S
C2136 C2137 1.415 . S
C2137 H2107 0.950 . S
C2137 C2132 1.363 . S
C2137 C2136 1.415 . S
H2138 C2135 0.999 . S
H2139 C2120 0.913 . S
H2140 C2158 0.951 . S
H2141 C2160 0.951 . S
H2142 C2162 0.950 . S
H2143 C2163 0.950 . S
H2144 C2165 0.950 . S
H2145 C2168 0.950 . S
H2146 C2169 0.950 . S
H2147 C2171 0.950 . S
H2148 C2172 0.950 . S
H2149 C2173 0.951 . S
H2150 C2175 0.951 . S
H2151 C2177 0.950 . S
H2152 C2178 0.950 . S
H2153 C2180 0.950 . S
H2154 C2183 0.950 . S
H2155 C2184 0.950 . S
H2156 C2186 0.950 . S
H2157 C2187 0.950 . S
C2158 H2140 0.951 . S
C2158 C2159 1.366 . S
C2158 C2160 1.388 . S
C2159 C2158 1.366 . S
C2159 C2163 1.385 . S
C2160 H2141 0.951 . S
C2160 C2158 1.388 . S
C2160 C2161 1.366 . S
C2161 C2160 1.366 . S
C2161 C2162 1.414 . S
C2161 C2164 1.499 . S
C2162 H2142 0.950 . S
C2162 C2161 1.414 . S
C2162 C2163 1.374 . S
C2163 H2143 0.950 . S
C2163 C2159 1.385 . S
C2163 C2162 1.374 . S
C2164 C2161 1.499 . S
C2164 C2165 1.373 . S
C2164 C2166 1.389 . S
C2165 H2144 0.950 . S
C2165 C2164 1.373 . S
C2165 C2181 1.377 . S
C2166 C2164 1.389 . S
C2166 C2167 1.524 . S
C2166 C2180 1.377 . S
C2167 C2166 1.524 . S
C2167 C2168 1.397 . S
C2167 C2172 1.363 . S
C2168 H2145 0.950 . S
C2168 C2167 1.397 . S
C2168 C2169 1.334 . S
C2169 H2146 0.950 . S
C2169 C2168 1.334 . S
C2169 C2170 1.287 . S
C2170 C2169 1.287 . S
C2170 C2171 1.524 . S
C2170 H2189 0.913 . S
C2171 H2147 0.950 . S
C2171 C2170 1.524 . S
C2171 C2172 1.415 . S
C2172 H2148 0.950 . S
C2172 C2167 1.363 . S
C2172 C2171 1.415 . S
C2173 H2149 0.951 . S
C2173 C2174 1.366 . S
C2173 C2175 1.388 . S
C2174 C2173 1.366 . S
C2174 C2178 1.385 . S
C2175 H2150 0.951 . S
C2175 C2173 1.388 . S
C2175 C2176 1.366 . S
C2176 C2175 1.366 . S
C2176 C2177 1.414 . S
C2176 C2179 1.499 . S
C2177 H2151 0.950 . S
C2177 C2176 1.414 . S
C2177 C2178 1.374 . S
C2178 H2152 0.950 . S
C2178 C2174 1.385 . S
C2178 C2177 1.374 . S
C2179 C2176 1.499 . S
C2179 C2180 1.373 . S
C2179 C2181 1.389 . S
C2180 H2153 0.950 . S
C2180 C2166 1.377 . S
C2180 C2179 1.373 . S
C2181 C2165 1.377 . S
C2181 C2179 1.389 . S
C2181 C2182 1.524 . S
C2182 C2181 1.524 . S
C2182 C2183 1.397 . S
C2182 C2187 1.363 . S
C2183 H2154 0.950 . S
C2183 C2182 1.397 . S
C2183 C2184 1.334 . S
C2184 H2155 0.950 . S
C2184 C2183 1.334 . S
C2184 C2185 1.287 . S
C2185 C2184 1.287 . S
C2185 C2186 1.524 . S
C2185 H2188 0.999 . S
C2186 H2156 0.950 . S
C2186 C2185 1.524 . S
C2186 C2187 1.415 . S
C2187 H2157 0.950 . S
C2187 C2182 1.363 . S
C2187 C2186 1.415 . S
H2188 C2185 0.999 . S
H2189 C2170 0.913 . S
H2190 C2208 0.951 . S
H2191 C2210 0.951 . S
H2192 C2212 0.950 . S
H2193 C2213 0.950 . S
H2194 C2215 0.950 . S
H2195 C2218 0.950 . S
H2196 C2219 0.950 . S
H2197 C2221 0.950 . S
H2198 C2222 0.950 . S
H2199 C2223 0.951 . S
H2200 C2225 0.951 . S
H2201 C2227 0.950 . S
H2202 C2228 0.950 . S
H2203 C2230 0.950 . S
H2204 C2233 0.950 . S
H2205 C2234 0.950 . S
H2206 C2236 0.950 . S
H2207 C2237 0.950 . S
C2208 H2190 0.951 . S
C2208 C2209 1.366 . S
C2208 C2210 1.388 . S
C2209 C2208 1.366 . S
C2209 C2213 1.385 . S
C2210 H2191 0.951 . S
C2210 C2208 1.388 . S
C2210 C2211 1.366 . S
C2211 C2210 1.366 . S
C2211 C2212 1.414 . S
C2211 C2214 1.499 . S
C2212 H2192 0.950 . S
C2212 C2211 1.414 . S
C2212 C2213 1.374 . S
C2213 H2193 0.950 . S
C2213 C2209 1.385 . S
C2213 C2212 1.374 . S
C2214 C2211 1.499 . S
C2214 C2215 1.373 . S
C2214 C2216 1.389 . S
C2215 H2194 0.950 . S
C2215 C2214 1.373 . S
C2215 C2231 1.377 . S
C2216 C2214 1.389 . S
C2216 C2217 1.524 . S
C2216 C2230 1.377 . S
C2217 C2216 1.524 . S
C2217 C2218 1.397 . S
C2217 C2222 1.363 . S
C2218 H2195 0.950 . S
C2218 C2217 1.397 . S
C2218 C2219 1.334 . S
C2219 H2196 0.950 . S
C2219 C2218 1.334 . S
C2219 C2220 1.287 . S
C2220 C2219 1.287 . S
C2220 C2221 1.524 . S
C2220 H2239 0.913 . S
C2221 H2197 0.950 . S
C2221 C2220 1.524 . S
C2221 C2222 1.415 . S
C2222 H2198 0.950 . S
C2222 C2217 1.363 . S
C2222 C2221 1.415 . S
C2223 H2199 0.951 . S
C2223 C2224 1.366 . S
C2223 C2225 1.388 . S
C2224 C2223 1.366 . S
C2224 C2228 1.385 . S
C2225 H2200 0.951 . S
C2225 C2223 1.388 . S
C2225 C2226 1.366 . S
C2226 C2225 1.366 . S
C2226 C2227 1.414 . S
C2226 C2229 1.499 . S
C2227 H2201 0.950 . S
C2227 C2226 1.414 . S
C2227 C2228 1.374 . S
C2228 H2202 0.950 . S
C2228 C2224 1.385 . S
C2228 C2227 1.374 . S
C2229 C2226 1.499 . S
C2229 C2230 1.373 . S
C2229 C2231 1.389 . S
C2230 H2203 0.950 . S
C2230 C2216 1.377 . S
C2230 C2229 1.373 . S
C2231 C2215 1.377 . S
C2231 C2229 1.389 . S
C2231 C2232 1.524 . S
C2232 C2231 1.524 . S
C2232 C2233 1.397 . S
C2232 C2237 1.363 . S
C2233 H2204 0.950 . S
C2233 C2232 1.397 . S
C2233 C2234 1.334 . S
C2234 H2205 0.950 . S
C2234 C2233 1.334 . S
C2234 C2235 1.287 . S
C2235 C2234 1.287 . S
C2235 C2236 1.524 . S
C2235 H2238 0.999 . S
C2236 H2206 0.950 . S
C2236 C2235 1.524 . S
C2236 C2237 1.415 . S
C2237 H2207 0.950 . S
C2237 C2232 1.363 . S
C2237 C2236 1.415 . S
H2238 C2235 0.999 . S
H2239 C2220 0.913 . S
H2240 C2258 0.951 . S
H2241 C2260 0.951 . S
H2242 C2262 0.950 . S
H2243 C2263 0.950 . S
H2244 C2265 0.950 . S
H2245 C2268 0.950 . S
H2246 C2269 0.950 . S
H2247 C2271 0.950 . S
H2248 C2272 0.950 . S
H2249 C2273 0.951 . S
H2250 C2275 0.951 . S
H2251 C2277 0.950 . S
H2252 C2278 0.950 . S
H2253 C2280 0.950 . S
H2254 C2283 0.950 . S
H2255 C2284 0.950 . S
H2256 C2286 0.950 . S
H2257 C2287 0.950 . S
C2258 H2240 0.951 . S
C2258 C2259 1.366 . S
C2258 C2260 1.388 . S
C2259 C2258 1.366 . S
C2259 C2263 1.385 . S
C2260 H2241 0.951 . S
C2260 C2258 1.388 . S
C2260 C2261 1.366 . S
C2261 C2260 1.366 . S
C2261 C2262 1.414 . S
C2261 C2264 1.499 . S
C2262 H2242 0.950 . S
C2262 C2261 1.414 . S
C2262 C2263 1.374 . S
C2263 H2243 0.950 . S
C2263 C2259 1.385 . S
C2263 C2262 1.374 . S
C2264 C2261 1.499 . S
C2264 C2265 1.373 . S
C2264 C2266 1.389 . S
C2265 H2244 0.950 . S
C2265 C2264 1.373 . S
C2265 C2281 1.377 . S
C2266 C2264 1.389 . S
C2266 C2267 1.524 . S
C2266 C2280 1.377 . S
C2267 C2266 1.524 . S
C2267 C2268 1.397 . S
C2267 C2272 1.363 . S
C2268 H2245 0.950 . S
C2268 C2267 1.397 . S
C2268 C2269 1.334 . S
C2269 H2246 0.950 . S
C2269 C2268 1.334 . S
C2269 C2270 1.287 . S
C2270 C2269 1.287 . S
C2270 C2271 1.524 . S
C2270 H2289 0.913 . S
C2271 H2247 0.950 . S
C2271 C2270 1.524 . S
C2271 C2272 1.415 . S
C2272 H2248 0.950 . S
C2272 C2267 1.363 . S
C2272 C2271 1.415 . S
C2273 H2249 0.951 . S
C2273 C2274 1.366 . S
C2273 C2275 1.388 . S
C2274 C2273 1.366 . S
C2274 C2278 1.385 . S
C2275 H2250 0.951 . S
C2275 C2273 1.388 . S
C2275 C2276 1.366 . S
C2276 C2275 1.366 . S
C2276 C2277 1.414 . S
C2276 C2279 1.499 . S
C2277 H2251 0.950 . S
C2277 C2276 1.414 . S
C2277 C2278 1.374 . S
C2278 H2252 0.950 . S
C2278 C2274 1.385 . S
C2278 C2277 1.374 . S
C2279 C2276 1.499 . S
C2279 C2280 1.373 . S
C2279 C2281 1.389 . S
C2280 H2253 0.950 . S
C2280 C2266 1.377 . S
C2280 C2279 1.373 . S
C2281 C2265 1.377 . S
C2281 C2279 1.389 . S
C2281 C2282 1.524 . S
C2282 C2281 1.524 . S
C2282 C2283 1.397 . S
C2282 C2287 1.363 . S
C2283 H2254 0.950 . S
C2283 C2282 1.397 . S
C2283 C2284 1.334 . S
C2284 H2255 0.950 . S
C2284 C2283 1.334 . S
C2284 C2285 1.287 . S
C2285 C2284 1.287 . S
C2285 C2286 1.524 . S
C2285 H2288 0.999 . S
C2286 H2256 0.950 . S
C2286 C2285 1.524 . S
C2286 C2287 1.415 . S
C2287 H2257 0.950 . S
C2287 C2282 1.363 . S
C2287 C2286 1.415 . S
H2288 C2285 0.999 . S
H2289 C2270 0.913 . S
H2290 C2308 0.951 . S
H2291 C2310 0.951 . S
H2292 C2312 0.950 . S
H2293 C2313 0.950 . S
H2294 C2315 0.950 . S
H2295 C2318 0.950 . S
H2296 C2319 0.950 . S
H2297 C2321 0.950 . S
H2298 C2322 0.950 . S
H2299 C2323 0.951 . S
H2300 C2325 0.951 . S
H2301 C2327 0.950 . S
H2302 C2328 0.950 . S
H2303 C2330 0.950 . S
H2304 C2333 0.950 . S
H2305 C2334 0.950 . S
H2306 C2336 0.950 . S
H2307 C2337 0.950 . S
C2308 H2290 0.951 . S
C2308 C2309 1.366 . S
C2308 C2310 1.388 . S
C2309 C2308 1.366 . S
C2309 C2313 1.385 . S
C2310 H2291 0.951 . S
C2310 C2308 1.388 . S
C2310 C2311 1.366 . S
C2311 C2310 1.366 . S
C2311 C2312 1.414 . S
C2311 C2314 1.499 . S
C2312 H2292 0.950 . S
C2312 C2311 1.414 . S
C2312 C2313 1.374 . S
C2313 H2293 0.950 . S
C2313 C2309 1.385 . S
C2313 C2312 1.374 . S
C2314 C2311 1.499 . S
C2314 C2315 1.373 . S
C2314 C2316 1.389 . S
C2315 H2294 0.950 . S
C2315 C2314 1.373 . S
C2315 C2331 1.377 . S
C2316 C2314 1.389 . S
C2316 C2317 1.524 . S
C2316 C2330 1.377 . S
C2317 C2316 1.524 . S
C2317 C2318 1.397 . S
C2317 C2322 1.363 . S
C2318 H2295 0.950 . S
C2318 C2317 1.397 . S
C2318 C2319 1.334 . S
C2319 H2296 0.950 . S
C2319 C2318 1.334 . S
C2319 C2320 1.287 . S
C2320 C2319 1.287 . S
C2320 C2321 1.524 . S
C2320 H2339 0.913 . S
C2321 H2297 0.950 . S
C2321 C2320 1.524 . S
C2321 C2322 1.415 . S
C2322 H2298 0.950 . S
C2322 C2317 1.363 . S
C2322 C2321 1.415 . S
C2323 H2299 0.951 . S
C2323 C2324 1.366 . S
C2323 C2325 1.388 . S
C2324 C2323 1.366 . S
C2324 C2328 1.385 . S
C2325 H2300 0.951 . S
C2325 C2323 1.388 . S
C2325 C2326 1.366 . S
C2326 C2325 1.366 . S
C2326 C2327 1.414 . S
C2326 C2329 1.499 . S
C2327 H2301 0.950 . S
C2327 C2326 1.414 . S
C2327 C2328 1.374 . S
C2328 H2302 0.950 . S
C2328 C2324 1.385 . S
C2328 C2327 1.374 . S
C2329 C2326 1.499 . S
C2329 C2330 1.373 . S
C2329 C2331 1.389 . S
C2330 H2303 0.950 . S
C2330 C2316 1.377 . S
C2330 C2329 1.373 . S
C2331 C2315 1.377 . S
C2331 C2329 1.389 . S
C2331 C2332 1.524 . S
C2332 C2331 1.524 . S
C2332 C2333 1.397 . S
C2332 C2337 1.363 . S
C2333 H2304 0.950 . S
C2333 C2332 1.397 . S
C2333 C2334 1.334 . S
C2334 H2305 0.950 . S
C2334 C2333 1.334 . S
C2334 C2335 1.287 . S
C2335 C2334 1.287 . S
C2335 C2336 1.524 . S
C2335 H2338 0.999 . S
C2336 H2306 0.950 . S
C2336 C2335 1.524 . S
C2336 C2337 1.415 . S
C2337 H2307 0.950 . S
C2337 C2332 1.363 . S
C2337 C2336 1.415 . S
H2338 C2335 0.999 . S
H2339 C2320 0.913 . S
H2340 C2358 0.951 . S
H2341 C2360 0.951 . S
H2342 C2362 0.950 . S
H2343 C2363 0.950 . S
H2344 C2365 0.950 . S
H2345 C2368 0.950 . S
H2346 C2369 0.950 . S
H2347 C2371 0.950 . S
H2348 C2372 0.950 . S
H2349 C2373 0.951 . S
H2350 C2375 0.951 . S
H2351 C2377 0.950 . S
H2352 C2378 0.950 . S
H2353 C2380 0.950 . S
H2354 C2383 0.950 . S
H2355 C2384 0.950 . S
H2356 C2386 0.950 . S
H2357 C2387 0.950 . S
C2358 H2340 0.951 . S
C2358 C2359 1.366 . S
C2358 C2360 1.388 . S
C2359 C2358 1.366 . S
C2359 C2363 1.385 . S
C2360 H2341 0.951 . S
C2360 C2358 1.388 . S
C2360 C2361 1.366 . S
C2361 C2360 1.366 . S
C2361 C2362 1.414 . S
C2361 C2364 1.499 . S
C2362 H2342 0.950 . S
C2362 C2361 1.414 . S
C2362 C2363 1.374 . S
C2363 H2343 0.950 . S
C2363 C2359 1.385 . S
C2363 C2362 1.374 . S
C2364 C2361 1.499 . S
C2364 C2365 1.373 . S
C2364 C2366 1.389 . S
C2365 H2344 0.950 . S
C2365 C2364 1.373 . S
C2365 C2381 1.377 . S
C2366 C2364 1.389 . S
C2366 C2367 1.524 . S
C2366 C2380 1.377 . S
C2367 C2366 1.524 . S
C2367 C2368 1.397 . S
C2367 C2372 1.363 . S
C2368 H2345 0.950 . S
C2368 C2367 1.397 . S
C2368 C2369 1.334 . S
C2369 H2346 0.950 . S
C2369 C2368 1.334 . S
C2369 C2370 1.287 . S
C2370 C2369 1.287 . S
C2370 C2371 1.524 . S
C2370 H2389 0.913 . S
C2371 H2347 0.950 . S
C2371 C2370 1.524 . S
C2371 C2372 1.415 . S
C2372 H2348 0.950 . S
C2372 C2367 1.363 . S
C2372 C2371 1.415 . S
C2373 H2349 0.951 . S
C2373 C2374 1.366 . S
C2373 C2375 1.388 . S
C2374 C2373 1.366 . S
C2374 C2378 1.385 . S
C2375 H2350 0.951 . S
C2375 C2373 1.388 . S
C2375 C2376 1.366 . S
C2376 C2375 1.366 . S
C2376 C2377 1.414 . S
C2376 C2379 1.499 . S
C2377 H2351 0.950 . S
C2377 C2376 1.414 . S
C2377 C2378 1.374 . S
C2378 H2352 0.950 . S
C2378 C2374 1.385 . S
C2378 C2377 1.374 . S
C2379 C2376 1.499 . S
C2379 C2380 1.373 . S
C2379 C2381 1.389 . S
C2380 H2353 0.950 . S
C2380 C2366 1.377 . S
C2380 C2379 1.373 . S
C2381 C2365 1.377 . S
C2381 C2379 1.389 . S
C2381 C2382 1.524 . S
C2382 C2381 1.524 . S
C2382 C2383 1.397 . S
C2382 C2387 1.363 . S
C2383 H2354 0.950 . S
C2383 C2382 1.397 . S
C2383 C2384 1.334 . S
C2384 H2355 0.950 . S
C2384 C2383 1.334 . S
C2384 C2385 1.287 . S
C2385 C2384 1.287 . S
C2385 C2386 1.524 . S
C2385 H2388 0.999 . S
C2386 H2356 0.950 . S
C2386 C2385 1.524 . S
C2386 C2387 1.415 . S
C2387 H2357 0.950 . S
C2387 C2382 1.363 . S
C2387 C2386 1.415 . S
H2388 C2385 0.999 . S
H2389 C2370 0.913 . S
H2390 C2408 0.951 . S
H2391 C2410 0.951 . S
H2392 C2412 0.950 . S
H2393 C2413 0.950 . S
H2394 C2415 0.950 . S
H2395 C2418 0.950 . S
H2396 C2419 0.950 . S
H2397 C2421 0.950 . S
H2398 C2422 0.950 . S
H2399 C2423 0.951 . S
H2400 C2425 0.951 . S
H2401 C2427 0.950 . S
H2402 C2428 0.950 . S
H2403 C2430 0.950 . S
H2404 C2433 0.950 . S
H2405 C2434 0.950 . S
H2406 C2436 0.950 . S
H2407 C2437 0.950 . S
C2408 H2390 0.951 . S
C2408 C2409 1.366 . S
C2408 C2410 1.388 . S
C2409 C2408 1.366 . S
C2409 C2413 1.385 . S
C2410 H2391 0.951 . S
C2410 C2408 1.388 . S
C2410 C2411 1.366 . S
C2411 C2410 1.366 . S
C2411 C2412 1.414 . S
C2411 C2414 1.499 . S
C2412 H2392 0.950 . S
C2412 C2411 1.414 . S
C2412 C2413 1.374 . S
C2413 H2393 0.950 . S
C2413 C2409 1.385 . S
C2413 C2412 1.374 . S
C2414 C2411 1.499 . S
C2414 C2415 1.373 . S
C2414 C2416 1.389 . S
C2415 H2394 0.950 . S
C2415 C2414 1.373 . S
C2415 C2431 1.377 . S
C2416 C2414 1.389 . S
C2416 C2417 1.524 . S
C2416 C2430 1.377 . S
C2417 C2416 1.524 . S
C2417 C2418 1.397 . S
C2417 C2422 1.363 . S
C2418 H2395 0.950 . S
C2418 C2417 1.397 . S
C2418 C2419 1.334 . S
C2419 H2396 0.950 . S
C2419 C2418 1.334 . S
C2419 C2420 1.287 . S
C2420 C2419 1.287 . S
C2420 C2421 1.524 . S
C2420 H2439 0.913 . S
C2421 H2397 0.950 . S
C2421 C2420 1.524 . S
C2421 C2422 1.415 . S
C2422 H2398 0.950 . S
C2422 C2417 1.363 . S
C2422 C2421 1.415 . S
C2423 H2399 0.951 . S
C2423 C2424 1.366 . S
C2423 C2425 1.388 . S
C2424 C2423 1.366 . S
C2424 C2428 1.385 . S
C2425 H2400 0.951 . S
C2425 C2423 1.388 . S
C2425 C2426 1.366 . S
C2426 C2425 1.366 . S
C2426 C2427 1.414 . S
C2426 C2429 1.499 . S
C2427 H2401 0.950 . S
C2427 C2426 1.414 . S
C2427 C2428 1.374 . S
C2428 H2402 0.950 . S
C2428 C2424 1.385 . S
C2428 C2427 1.374 . S
C2429 C2426 1.499 . S
C2429 C2430 1.373 . S
C2429 C2431 1.389 . S
C2430 H2403 0.950 . S
C2430 C2416 1.377 . S
C2430 C2429 1.373 . S
C2431 C2415 1.377 . S
C2431 C2429 1.389 . S
C2431 C2432 1.524 . S
C2432 C2431 1.524 . S
C2432 C2433 1.397 . S
C2432 C2437 1.363 . S
C2433 H2404 0.950 . S
C2433 C2432 1.397 . S
C2433 C2434 1.334 . S
C2434 H2405 0.950 . S
C2434 C2433 1.334 . S
C2434 C2435 1.287 . S
C2435 C2434 1.287 . S
C2435 C2436 1.524 . S
C2435 H2438 0.999 . S
C2436 H2406 0.950 . S
C2436 C2435 1.524 . S
C2436 C2437 1.415 . S
C2437 H2407 0.950 . S
C2437 C2432 1.363 . S
C2437 C2436 1.415 . S
H2438 C2435 0.999 . S
H2439 C2420 0.913 . S
H2440 C2458 0.951 . S
H2441 C2460 0.951 . S
H2442 C2462 0.950 . S
H2443 C2463 0.950 . S
H2444 C2465 0.950 . S
H2445 C2468 0.950 . S
H2446 C2469 0.950 . S
H2447 C2471 0.950 . S
H2448 C2472 0.950 . S
H2449 C2473 0.951 . S
H2450 C2475 0.951 . S
H2451 C2477 0.950 . S
H2452 C2478 0.950 . S
H2453 C2480 0.950 . S
H2454 C2483 0.950 . S
H2455 C2484 0.950 . S
H2456 C2486 0.950 . S
H2457 C2487 0.950 . S
C2458 H2440 0.951 . S
C2458 C2459 1.366 . S
C2458 C2460 1.388 . S
C2459 C2458 1.366 . S
C2459 C2463 1.385 . S
C2460 H2441 0.951 . S
C2460 C2458 1.388 . S
C2460 C2461 1.366 . S
C2461 C2460 1.366 . S
C2461 C2462 1.414 . S
C2461 C2464 1.499 . S
C2462 H2442 0.950 . S
C2462 C2461 1.414 . S
C2462 C2463 1.374 . S
C2463 H2443 0.950 . S
C2463 C2459 1.385 . S
C2463 C2462 1.374 . S
C2464 C2461 1.499 . S
C2464 C2465 1.373 . S
C2464 C2466 1.389 . S
C2465 H2444 0.950 . S
C2465 C2464 1.373 . S
C2465 C2481 1.377 . S
C2466 C2464 1.389 . S
C2466 C2467 1.524 . S
C2466 C2480 1.377 . S
C2467 C2466 1.524 . S
C2467 C2468 1.397 . S
C2467 C2472 1.363 . S
C2468 H2445 0.950 . S
C2468 C2467 1.397 . S
C2468 C2469 1.334 . S
C2469 H2446 0.950 . S
C2469 C2468 1.334 . S
C2469 C2470 1.287 . S
C2470 C2469 1.287 . S
C2470 C2471 1.524 . S
C2470 H2489 0.913 . S
C2471 H2447 0.950 . S
C2471 C2470 1.524 . S
C2471 C2472 1.415 . S
C2472 H2448 0.950 . S
C2472 C2467 1.363 . S
C2472 C2471 1.415 . S
C2473 H2449 0.951 . S
C2473 C2474 1.366 . S
C2473 C2475 1.388 . S
C2474 C2473 1.366 . S
C2474 C2478 1.385 . S
C2475 H2450 0.951 . S
C2475 C2473 1.388 . S
C2475 C2476 1.366 . S
C2476 C2475 1.366 . S
C2476 C2477 1.414 . S
C2476 C2479 1.499 . S
C2477 H2451 0.950 . S
C2477 C2476 1.414 . S
C2477 C2478 1.374 . S
C2478 H2452 0.950 . S
C2478 C2474 1.385 . S
C2478 C2477 1.374 . S
C2479 C2476 1.499 . S
C2479 C2480 1.373 . S
C2479 C2481 1.389 . S
C2480 H2453 0.950 . S
C2480 C2466 1.377 . S
C2480 C2479 1.373 . S
C2481 C2465 1.377 . S
C2481 C2479 1.389 . S
C2481 C2482 1.524 . S
C2482 C2481 1.524 . S
C2482 C2483 1.397 . S
C2482 C2487 1.363 . S
C2483 H2454 0.950 . S
C2483 C2482 1.397 . S
C2483 C2484 1.334 . S
C2484 H2455 0.950 . S
C2484 C2483 1.334 . S
C2484 C2485 1.287 . S
C2485 C2484 1.287 . S
C2485 C2486 1.524 . S
C2485 H2488 0.999 . S
C2486 H2456 0.950 . S
C2486 C2485 1.524 . S
C2486 C2487 1.415 . S
C2487 H2457 0.950 . S
C2487 C2482 1.363 . S
C2487 C2486 1.415 . S
H2488 C2485 0.999 . S
H2489 C2470 0.913 . S
H2490 C2508 0.951 . S
H2491 C2510 0.951 . S
H2492 C2512 0.950 . S
H2493 C2513 0.950 . S
H2494 C2515 0.950 . S
H2495 C2518 0.950 . S
H2496 C2519 0.950 . S
H2497 C2521 0.950 . S
H2498 C2522 0.950 . S
H2499 C2523 0.951 . S
H2500 C2525 0.951 . S
H2501 C2527 0.950 . S
H2502 C2528 0.950 . S
H2503 C2530 0.950 . S
H2504 C2533 0.950 . S
H2505 C2534 0.950 . S
H2506 C2536 0.950 . S
H2507 C2537 0.950 . S
C2508 H2490 0.951 . S
C2508 C2509 1.366 . S
C2508 C2510 1.388 . S
C2509 C2508 1.366 . S
C2509 C2513 1.385 . S
C2510 H2491 0.951 . S
C2510 C2508 1.388 . S
C2510 C2511 1.366 . S
C2511 C2510 1.366 . S
C2511 C2512 1.414 . S
C2511 C2514 1.499 . S
C2512 H2492 0.950 . S
C2512 C2511 1.414 . S
C2512 C2513 1.374 . S
C2513 H2493 0.950 . S
C2513 C2509 1.385 . S
C2513 C2512 1.374 . S
C2514 C2511 1.499 . S
C2514 C2515 1.373 . S
C2514 C2516 1.389 . S
C2515 H2494 0.950 . S
C2515 C2514 1.373 . S
C2515 C2531 1.377 . S
C2516 C2514 1.389 . S
C2516 C2517 1.524 . S
C2516 C2530 1.377 . S
C2517 C2516 1.524 . S
C2517 C2518 1.397 . S
C2517 C2522 1.363 . S
C2518 H2495 0.950 . S
C2518 C2517 1.397 . S
C2518 C2519 1.334 . S
C2519 H2496 0.950 . S
C2519 C2518 1.334 . S
C2519 C2520 1.287 . S
C2520 C2519 1.287 . S
C2520 C2521 1.524 . S
C2520 H2539 0.913 . S
C2521 H2497 0.950 . S
C2521 C2520 1.524 . S
C2521 C2522 1.415 . S
C2522 H2498 0.950 . S
C2522 C2517 1.363 . S
C2522 C2521 1.415 . S
C2523 H2499 0.951 . S
C2523 C2524 1.366 . S
C2523 C2525 1.388 . S
C2524 C2523 1.366 . S
C2524 C2528 1.385 . S
C2525 H2500 0.951 . S
C2525 C2523 1.388 . S
C2525 C2526 1.366 . S
C2526 C2525 1.366 . S
C2526 C2527 1.414 . S
C2526 C2529 1.499 . S
C2527 H2501 0.950 . S
C2527 C2526 1.414 . S
C2527 C2528 1.374 . S
C2528 H2502 0.950 . S
C2528 C2524 1.385 . S
C2528 C2527 1.374 . S
C2529 C2526 1.499 . S
C2529 C2530 1.373 . S
C2529 C2531 1.389 . S
C2530 H2503 0.950 . S
C2530 C2516 1.377 . S
C2530 C2529 1.373 . S
C2531 C2515 1.377 . S
C2531 C2529 1.389 . S
C2531 C2532 1.524 . S
C2532 C2531 1.524 . S
C2532 C2533 1.397 . S
C2532 C2537 1.363 . S
C2533 H2504 0.950 . S
C2533 C2532 1.397 . S
C2533 C2534 1.334 . S
C2534 H2505 0.950 . S
C2534 C2533 1.334 . S
C2534 C2535 1.287 . S
C2535 C2534 1.287 . S
C2535 C2536 1.524 . S
C2535 H2538 0.999 . S
C2536 H2506 0.950 . S
C2536 C2535 1.524 . S
C2536 C2537 1.415 . S
C2537 H2507 0.950 . S
C2537 C2532 1.363 . S
C2537 C2536 1.415 . S
H2538 C2535 0.999 . S
H2539 C2520 0.913 . S
H2540 C2558 0.951 . S
H2541 C2560 0.951 . S
H2542 C2562 0.950 . S
H2543 C2563 0.950 . S
H2544 C2565 0.950 . S
H2545 C2568 0.950 . S
H2546 C2569 0.950 . S
H2547 C2571 0.950 . S
H2548 C2572 0.950 . S
H2549 C2573 0.951 . S
H2550 C2575 0.951 . S
H2551 C2577 0.950 . S
H2552 C2578 0.950 . S
H2553 C2580 0.950 . S
H2554 C2583 0.950 . S
H2555 C2584 0.950 . S
H2556 C2586 0.950 . S
H2557 C2587 0.950 . S
C2558 H2540 0.951 . S
C2558 C2559 1.366 . S
C2558 C2560 1.388 . S
C2559 C2558 1.366 . S
C2559 C2563 1.385 . S
C2560 H2541 0.951 . S
C2560 C2558 1.388 . S
C2560 C2561 1.366 . S
C2561 C2560 1.366 . S
C2561 C2562 1.414 . S
C2561 C2564 1.499 . S
C2562 H2542 0.950 . S
C2562 C2561 1.414 . S
C2562 C2563 1.374 . S
C2563 H2543 0.950 . S
C2563 C2559 1.385 . S
C2563 C2562 1.374 . S
C2564 C2561 1.499 . S
C2564 C2565 1.373 . S
C2564 C2566 1.389 . S
C2565 H2544 0.950 . S
C2565 C2564 1.373 . S
C2565 C2581 1.377 . S
C2566 C2564 1.389 . S
C2566 C2567 1.524 . S
C2566 C2580 1.377 . S
C2567 C2566 1.524 . S
C2567 C2568 1.397 . S
C2567 C2572 1.363 . S
C2568 H2545 0.950 . S
C2568 C2567 1.397 . S
C2568 C2569 1.334 . S
C2569 H2546 0.950 . S
C2569 C2568 1.334 . S
C2569 C2570 1.287 . S
C2570 C2569 1.287 . S
C2570 C2571 1.524 . S
C2570 H2589 0.913 . S
C2571 H2547 0.950 . S
C2571 C2570 1.524 . S
C2571 C2572 1.415 . S
C2572 H2548 0.950 . S
C2572 C2567 1.363 . S
C2572 C2571 1.415 . S
C2573 H2549 0.951 . S
C2573 C2574 1.366 . S
C2573 C2575 1.388 . S
C2574 C2573 1.366 . S
C2574 C2578 1.385 . S
C2575 H2550 0.951 . S
C2575 C2573 1.388 . S
C2575 C2576 1.366 . S
C2576 C2575 1.366 . S
C2576 C2577 1.414 . S
C2576 C2579 1.499 . S
C2577 H2551 0.950 . S
C2577 C2576 1.414 . S
C2577 C2578 1.374 . S
C2578 H2552 0.950 . S
C2578 C2574 1.385 . S
C2578 C2577 1.374 . S
C2579 C2576 1.499 . S
C2579 C2580 1.373 . S
C2579 C2581 1.389 . S
C2580 H2553 0.950 . S
C2580 C2566 1.377 . S
C2580 C2579 1.373 . S
C2581 C2565 1.377 . S
C2581 C2579 1.389 . S
C2581 C2582 1.524 . S
C2582 C2581 1.524 . S
C2582 C2583 1.397 . S
C2582 C2587 1.363 . S
C2583 H2554 0.950 . S
C2583 C2582 1.397 . S
C2583 C2584 1.334 . S
C2584 H2555 0.950 . S
C2584 C2583 1.334 . S
C2584 C2585 1.287 . S
C2585 C2584 1.287 . S
C2585 C2586 1.524 . S
C2585 H2588 0.999 . S
C2586 H2556 0.950 . S
C2586 C2585 1.524 . S
C2586 C2587 1.415 . S
C2587 H2557 0.950 . S
C2587 C2582 1.363 . S
C2587 C2586 1.415 . S
H2588 C2585 0.999 . S
H2589 C2570 0.913 . S
H2590 C2608 0.951 . S
H2591 C2610 0.951 . S
H2592 C2612 0.950 . S
H2593 C2613 0.950 . S
H2594 C2615 0.950 . S
H2595 C2618 0.950 . S
H2596 C2619 0.950 . S
H2597 C2621 0.950 . S
H2598 C2622 0.950 . S
H2599 C2623 0.951 . S
H2600 C2625 0.951 . S
H2601 C2627 0.950 . S
H2602 C2628 0.950 . S
H2603 C2630 0.950 . S
H2604 C2633 0.950 . S
H2605 C2634 0.950 . S
H2606 C2636 0.950 . S
H2607 C2637 0.950 . S
C2608 H2590 0.951 . S
C2608 C2609 1.366 . S
C2608 C2610 1.388 . S
C2609 C2608 1.366 . S
C2609 C2613 1.385 . S
C2610 H2591 0.951 . S
C2610 C2608 1.388 . S
C2610 C2611 1.366 . S
C2611 C2610 1.366 . S
C2611 C2612 1.414 . S
C2611 C2614 1.499 . S
C2612 H2592 0.950 . S
C2612 C2611 1.414 . S
C2612 C2613 1.374 . S
C2613 H2593 0.950 . S
C2613 C2609 1.385 . S
C2613 C2612 1.374 . S
C2614 C2611 1.499 . S
C2614 C2615 1.373 . S
C2614 C2616 1.389 . S
C2615 H2594 0.950 . S
C2615 C2614 1.373 . S
C2615 C2631 1.377 . S
C2616 C2614 1.389 . S
C2616 C2617 1.524 . S
C2616 C2630 1.377 . S
C2617 C2616 1.524 . S
C2617 C2618 1.397 . S
C2617 C2622 1.363 . S
C2618 H2595 0.950 . S
C2618 C2617 1.397 . S
C2618 C2619 1.334 . S
C2619 H2596 0.950 . S
C2619 C2618 1.334 . S
C2619 C2620 1.287 . S
C2620 C2619 1.287 . S
C2620 C2621 1.524 . S
C2620 H2639 0.913 . S
C2621 H2597 0.950 . S
C2621 C2620 1.524 . S
C2621 C2622 1.415 . S
C2622 H2598 0.950 . S
C2622 C2617 1.363 . S
C2622 C2621 1.415 . S
C2623 H2599 0.951 . S
C2623 C2624 1.366 . S
C2623 C2625 1.388 . S
C2624 C2623 1.366 . S
C2624 C2628 1.385 . S
C2625 H2600 0.951 . S
C2625 C2623 1.388 . S
C2625 C2626 1.366 . S
C2626 C2625 1.366 . S
C2626 C2627 1.414 . S
C2626 C2629 1.499 . S
C2627 H2601 0.950 . S
C2627 C2626 1.414 . S
C2627 C2628 1.374 . S
C2628 H2602 0.950 . S
C2628 C2624 1.385 . S
C2628 C2627 1.374 . S
C2629 C2626 1.499 . S
C2629 C2630 1.373 . S
C2629 C2631 1.389 . S
C2630 H2603 0.950 . S
C2630 C2616 1.377 . S
C2630 C2629 1.373 . S
C2631 C2615 1.377 . S
C2631 C2629 1.389 . S
C2631 C2632 1.524 . S
C2632 C2631 1.524 . S
C2632 C2633 1.397 . S
C2632 C2637 1.363 . S
C2633 H2604 0.950 . S
C2633 C2632 1.397 . S
C2633 C2634 1.334 . S
C2634 H2605 0.950 . S
C2634 C2633 1.334 . S
C2634 C2635 1.287 . S
C2635 C2634 1.287 . S
C2635 C2636 1.524 . S
C2635 H2638 0.999 . S
C2636 H2606 0.950 . S
C2636 C2635 1.524 . S
C2636 C2637 1.415 . S
C2637 H2607 0.950 . S
C2637 C2632 1.363 . S
C2637 C2636 1.415 . S
H2638 C2635 0.999 . S
H2639 C2620 0.913 . S
H2640 C2658 0.951 . S
H2641 C2660 0.951 . S
H2642 C2662 0.950 . S
H2643 C2663 0.950 . S
H2644 C2665 0.950 . S
H2645 C2668 0.950 . S
H2646 C2669 0.950 . S
H2647 C2671 0.950 . S
H2648 C2672 0.950 . S
H2649 C2673 0.951 . S
H2650 C2675 0.951 . S
H2651 C2677 0.950 . S
H2652 C2678 0.950 . S
H2653 C2680 0.950 . S
H2654 C2683 0.950 . S
H2655 C2684 0.950 . S
H2656 C2686 0.950 . S
H2657 C2687 0.950 . S
C2658 H2640 0.951 . S
C2658 C2659 1.366 . S
C2658 C2660 1.388 1_556 S
C2659 C2658 1.366 . S
C2659 C2663 1.385 . S
C2660 H2641 0.951 . S
C2660 C2658 1.388 1_554 S
C2660 C2661 1.366 . S
C2661 C2660 1.366 . S
C2661 C2662 1.414 . S
C2661 C2664 1.499 . S
C2662 H2642 0.950 . S
C2662 C2661 1.414 . S
C2662 C2663 1.374 1_554 S
C2663 H2643 0.950 . S
C2663 C2659 1.385 . S
C2663 C2662 1.374 1_556 S
C2664 C2661 1.499 . S
C2664 C2665 1.373 . S
C2664 C2666 1.389 . S
C2665 H2644 0.950 . S
C2665 C2664 1.373 . S
C2665 C2681 1.377 . S
C2666 C2664 1.389 . S
C2666 C2667 1.524 . S
C2666 C2680 1.377 . S
C2667 C2666 1.524 . S
C2667 C2668 1.397 . S
C2667 C2672 1.363 . S
C2668 H2645 0.950 . S
C2668 C2667 1.397 . S
C2668 C2669 1.334 . S
C2669 H2646 0.950 . S
C2669 C2668 1.334 . S
C2669 C2670 1.287 . S
C2670 C2669 1.287 . S
C2670 C2671 1.524 . S
C2670 H2689 0.913 . S
C2671 H2647 0.950 . S
C2671 C2670 1.524 . S
C2671 C2672 1.415 . S
C2672 H2648 0.950 . S
C2672 C2667 1.363 . S
C2672 C2671 1.415 . S
C2673 H2649 0.951 . S
C2673 C2674 1.366 . S
C2673 C2675 1.388 . S
C2674 C2673 1.366 . S
C2674 C2678 1.385 . S
C2675 H2650 0.951 . S
C2675 C2673 1.388 . S
C2675 C2676 1.366 . S
C2676 C2675 1.366 . S
C2676 C2677 1.414 . S
C2676 C2679 1.499 . S
C2677 H2651 0.950 . S
C2677 C2676 1.414 . S
C2677 C2678 1.374 . S
C2678 H2652 0.950 . S
C2678 C2674 1.385 . S
C2678 C2677 1.374 . S
C2679 C2676 1.499 . S
C2679 C2680 1.373 . S
C2679 C2681 1.389 . S
C2680 H2653 0.950 . S
C2680 C2666 1.377 . S
C2680 C2679 1.373 . S
C2681 C2665 1.377 . S
C2681 C2679 1.389 . S
C2681 C2682 1.524 . S
C2682 C2681 1.524 . S
C2682 C2683 1.397 . S
C2682 C2687 1.363 . S
C2683 H2654 0.950 . S
C2683 C2682 1.397 . S
C2683 C2684 1.334 . S
C2684 H2655 0.950 . S
C2684 C2683 1.334 . S
C2684 C2685 1.287 . S
C2685 C2684 1.287 . S
C2685 C2686 1.524 . S
C2685 H2688 0.999 . S
C2686 H2656 0.950 . S
C2686 C2685 1.524 . S
C2686 C2687 1.415 . S
C2687 H2657 0.950 . S
C2687 C2682 1.363 . S
C2687 C2686 1.415 . S
H2688 C2685 0.999 . S
H2689 C2670 0.913 . S
H2690 C2708 0.951 . S
H2691 C2710 0.951 . S
H2692 C2712 0.950 . S
H2693 C2713 0.950 . S
H2694 C2715 0.950 . S
H2695 C2718 0.950 . S
H2696 C2719 0.950 . S
H2697 C2721 0.950 . S
H2698 C2722 0.950 . S
H2699 C2723 0.951 . S
H2700 C2725 0.951 . S
H2701 C2727 0.950 . S
H2702 C2728 0.950 . S
H2703 C2730 0.950 . S
H2704 C2733 0.950 . S
H2705 C2734 0.950 . S
H2706 C2736 0.950 . S
H2707 C2737 0.950 . S
C2708 H2690 0.951 . S
C2708 C2709 1.366 . S
C2708 C2710 1.388 . S
C2709 C2708 1.366 . S
C2709 C2713 1.385 . S
C2710 H2691 0.951 . S
C2710 C2708 1.388 . S
C2710 C2711 1.366 . S
C2711 C2710 1.366 . S
C2711 C2712 1.414 . S
C2711 C2714 1.499 . S
C2712 H2692 0.950 . S
C2712 C2711 1.414 . S
C2712 C2713 1.374 . S
C2713 H2693 0.950 . S
C2713 C2709 1.385 . S
C2713 C2712 1.374 . S
C2714 C2711 1.499 . S
C2714 C2715 1.373 . S
C2714 C2716 1.389 . S
C2715 H2694 0.950 . S
C2715 C2714 1.373 . S
C2715 C2731 1.377 . S
C2716 C2714 1.389 . S
C2716 C2717 1.524 . S
C2716 C2730 1.377 . S
C2717 C2716 1.524 . S
C2717 C2718 1.397 . S
C2717 C2722 1.363 . S
C2718 H2695 0.950 . S
C2718 C2717 1.397 . S
C2718 C2719 1.334 . S
C2719 H2696 0.950 . S
C2719 C2718 1.334 . S
C2719 C2720 1.287 . S
C2720 C2719 1.287 . S
C2720 C2721 1.524 . S
C2720 H2739 0.913 . S
C2721 H2697 0.950 . S
C2721 C2720 1.524 . S
C2721 C2722 1.415 . S
C2722 H2698 0.950 . S
C2722 C2717 1.363 . S
C2722 C2721 1.415 . S
C2723 H2699 0.951 . S
C2723 C2724 1.366 . S
C2723 C2725 1.388 1_554 S
C2724 C2723 1.366 . S
C2724 C2728 1.385 . S
C2725 H2700 0.951 . S
C2725 C2723 1.388 1_556 S
C2725 C2726 1.366 . S
C2726 C2725 1.366 . S
C2726 C2727 1.414 . S
C2726 C2729 1.499 . S
C2727 H2701 0.950 . S
C2727 C2726 1.414 . S
C2727 C2728 1.374 1_556 S
C2728 H2702 0.950 . S
C2728 C2724 1.385 . S
C2728 C2727 1.374 1_554 S
C2729 C2726 1.499 . S
C2729 C2730 1.373 . S
C2729 C2731 1.389 . S
C2730 H2703 0.950 . S
C2730 C2716 1.377 . S
C2730 C2729 1.373 . S
C2731 C2715 1.377 . S
C2731 C2729 1.389 . S
C2731 C2732 1.524 . S
C2732 C2731 1.524 . S
C2732 C2733 1.397 . S
C2732 C2737 1.363 . S
C2733 H2704 0.950 . S
C2733 C2732 1.397 . S
C2733 C2734 1.334 . S
C2734 H2705 0.950 . S
C2734 C2733 1.334 . S
C2734 C2735 1.287 . S
C2735 C2734 1.287 . S
C2735 C2736 1.524 . S
C2735 H2738 0.999 . S
C2736 H2706 0.950 . S
C2736 C2735 1.524 . S
C2736 C2737 1.415 . S
C2737 H2707 0.950 . S
C2737 C2732 1.363 . S
C2737 C2736 1.415 . S
H2738 C2735 0.999 . S
H2739 C2720 0.913 . S
H2740 C2758 0.951 . S
H2741 C2760 0.951 . S
H2742 C2762 0.950 . S
H2743 C2763 0.950 . S
H2744 C2765 0.950 . S
H2745 C2768 0.950 . S
H2746 C2769 0.950 . S
H2747 C2771 0.950 . S
H2748 C2772 0.950 . S
H2749 C2773 0.951 . S
H2750 C2775 0.951 . S
H2751 C2777 0.950 . S
H2752 C2778 0.950 . S
H2753 C2780 0.950 . S
H2754 C2783 0.950 . S
H2755 C2784 0.950 . S
H2756 C2786 0.950 . S
H2757 C2787 0.950 . S
C2758 H2740 0.951 . S
C2758 C2759 1.366 . S
C2758 C2760 1.388 . S
C2759 C2758 1.366 . S
C2759 C2763 1.385 . S
C2760 H2741 0.951 . S
C2760 C2758 1.388 . S
C2760 C2761 1.366 . S
C2761 C2760 1.366 . S
C2761 C2762 1.414 . S
C2761 C2764 1.499 . S
C2762 H2742 0.950 . S
C2762 C2761 1.414 . S
C2762 C2763 1.374 . S
C2763 H2743 0.950 . S
C2763 C2759 1.385 . S
C2763 C2762 1.374 . S
C2764 C2761 1.499 . S
C2764 C2765 1.373 . S
C2764 C2766 1.389 . S
C2765 H2744 0.950 . S
C2765 C2764 1.373 . S
C2765 C2781 1.377 . S
C2766 C2764 1.389 . S
C2766 C2767 1.524 . S
C2766 C2780 1.377 . S
C2767 C2766 1.524 . S
C2767 C2768 1.397 . S
C2767 C2772 1.363 . S
C2768 H2745 0.950 . S
C2768 C2767 1.397 . S
C2768 C2769 1.334 . S
C2769 H2746 0.950 . S
C2769 C2768 1.334 . S
C2769 C2770 1.287 . S
C2770 C2769 1.287 . S
C2770 C2771 1.524 . S
C2770 H2789 0.913 . S
C2771 H2747 0.950 . S
C2771 C2770 1.524 . S
C2771 C2772 1.415 . S
C2772 H2748 0.950 . S
C2772 C2767 1.363 . S
C2772 C2771 1.415 . S
C2773 H2749 0.951 . S
C2773 C2774 1.366 . S
C2773 C2775 1.388 1_556 S
C2774 C2773 1.366 . S
C2774 C2778 1.385 . S
C2775 H2750 0.951 . S
C2775 C2773 1.388 1_554 S
C2775 C2776 1.366 . S
C2776 C2775 1.366 . S
C2776 C2777 1.414 . S
C2776 C2779 1.499 . S
C2777 H2751 0.950 . S
C2777 C2776 1.414 . S
C2777 C2778 1.374 1_554 S
C2778 H2752 0.950 . S
C2778 C2774 1.385 . S
C2778 C2777 1.374 1_556 S
C2779 C2776 1.499 . S
C2779 C2780 1.373 . S
C2779 C2781 1.389 . S
C2780 H2753 0.950 . S
C2780 C2766 1.377 . S
C2780 C2779 1.373 . S
C2781 C2765 1.377 . S
C2781 C2779 1.389 . S
C2781 C2782 1.524 . S
C2782 C2781 1.524 . S
C2782 C2783 1.397 . S
C2782 C2787 1.363 . S
C2783 H2754 0.950 . S
C2783 C2782 1.397 . S
C2783 C2784 1.334 . S
C2784 H2755 0.950 . S
C2784 C2783 1.334 . S
C2784 C2785 1.287 . S
C2785 C2784 1.287 . S
C2785 C2786 1.524 . S
C2785 H2788 0.999 . S
C2786 H2756 0.950 . S
C2786 C2785 1.524 . S
C2786 C2787 1.415 . S
C2787 H2757 0.950 . S
C2787 C2782 1.363 . S
C2787 C2786 1.415 . S
H2788 C2785 0.999 . S
H2789 C2770 0.913 . S
H2790 C2808 0.951 . S
H2791 C2810 0.951 . S
H2792 C2812 0.950 . S
H2793 C2813 0.950 . S
H2794 C2815 0.950 . S
H2795 C2818 0.950 . S
H2796 C2819 0.950 . S
H2797 C2821 0.950 . S
H2798 C2822 0.950 . S
H2799 C2823 0.951 . S
H2800 C2825 0.951 . S
H2801 C2827 0.950 . S
H2802 C2828 0.950 . S
H2803 C2830 0.950 . S
H2804 C2833 0.950 . S
H2805 C2834 0.950 . S
H2806 C2836 0.950 . S
H2807 C2837 0.950 . S
C2808 H2790 0.951 . S
C2808 C2809 1.366 . S
C2808 C2810 1.388 1_554 S
C2809 C2808 1.366 . S
C2809 C2813 1.385 . S
C2810 H2791 0.951 . S
C2810 C2808 1.388 1_556 S
C2810 C2811 1.366 . S
C2811 C2810 1.366 . S
C2811 C2812 1.414 . S
C2811 C2814 1.499 . S
C2812 H2792 0.950 . S
C2812 C2811 1.414 . S
C2812 C2813 1.374 1_556 S
C2813 H2793 0.950 . S
C2813 C2809 1.385 . S
C2813 C2812 1.374 1_554 S
C2814 C2811 1.499 . S
C2814 C2815 1.373 . S
C2814 C2816 1.389 . S
C2815 H2794 0.950 . S
C2815 C2814 1.373 . S
C2815 C2831 1.377 . S
C2816 C2814 1.389 . S
C2816 C2817 1.524 . S
C2816 C2830 1.377 . S
C2817 C2816 1.524 . S
C2817 C2818 1.397 . S
C2817 C2822 1.363 . S
C2818 H2795 0.950 . S
C2818 C2817 1.397 . S
C2818 C2819 1.334 . S
C2819 H2796 0.950 . S
C2819 C2818 1.334 . S
C2819 C2820 1.287 . S
C2820 C2819 1.287 . S
C2820 C2821 1.524 . S
C2820 H2839 0.913 . S
C2821 H2797 0.950 . S
C2821 C2820 1.524 . S
C2821 C2822 1.415 . S
C2822 H2798 0.950 . S
C2822 C2817 1.363 . S
C2822 C2821 1.415 . S
C2823 H2799 0.951 . S
C2823 C2824 1.366 . S
C2823 C2825 1.388 . S
C2824 C2823 1.366 . S
C2824 C2828 1.385 . S
C2825 H2800 0.951 . S
C2825 C2823 1.388 . S
C2825 C2826 1.366 . S
C2826 C2825 1.366 . S
C2826 C2827 1.414 . S
C2826 C2829 1.499 . S
C2827 H2801 0.950 . S
C2827 C2826 1.414 . S
C2827 C2828 1.374 . S
C2828 H2802 0.950 . S
C2828 C2824 1.385 . S
C2828 C2827 1.374 . S
C2829 C2826 1.499 . S
C2829 C2830 1.373 . S
C2829 C2831 1.389 . S
C2830 H2803 0.950 . S
C2830 C2816 1.377 . S
C2830 C2829 1.373 . S
C2831 C2815 1.377 . S
C2831 C2829 1.389 . S
C2831 C2832 1.524 . S
C2832 C2831 1.524 . S
C2832 C2833 1.397 . S
C2832 C2837 1.363 . S
C2833 H2804 0.950 . S
C2833 C2832 1.397 . S
C2833 C2834 1.334 . S
C2834 H2805 0.950 . S
C2834 C2833 1.334 . S
C2834 C2835 1.287 . S
C2835 C2834 1.287 . S
C2835 C2836 1.524 . S
C2835 H2838 0.999 . S
C2836 H2806 0.950 . S
C2836 C2835 1.524 . S
C2836 C2837 1.415 . S
C2837 H2807 0.950 . S
C2837 C2832 1.363 . S
C2837 C2836 1.415 . S
H2838 C2835 0.999 . S
H2839 C2820 0.913 . S
H2840 C2858 0.951 . S
H2841 C2860 0.951 . S
H2842 C2862 0.950 . S
H2843 C2863 0.950 . S
H2844 C2865 0.950 . S
H2845 C2868 0.950 . S
H2846 C2869 0.950 . S
H2847 C2871 0.950 . S
H2848 C2872 0.950 . S
H2849 C2873 0.951 . S
H2850 C2875 0.951 . S
H2851 C2877 0.950 . S
H2852 C2878 0.950 . S
H2853 C2880 0.950 . S
H2854 C2883 0.950 . S
H2855 C2884 0.950 . S
H2856 C2886 0.950 . S
H2857 C2887 0.950 . S
C2858 H2840 0.951 . S
C2858 C2859 1.366 . S
C2858 C2860 1.388 . S
C2859 C2858 1.366 . S
C2859 C2863 1.385 . S
C2860 H2841 0.951 . S
C2860 C2858 1.388 . S
C2860 C2861 1.366 . S
C2861 C2860 1.366 . S
C2861 C2862 1.414 . S
C2861 C2864 1.499 . S
C2862 H2842 0.950 . S
C2862 C2861 1.414 . S
C2862 C2863 1.374 . S
C2863 H2843 0.950 . S
C2863 C2859 1.385 . S
C2863 C2862 1.374 . S
C2864 C2861 1.499 . S
C2864 C2865 1.373 . S
C2864 C2866 1.389 . S
C2865 H2844 0.950 . S
C2865 C2864 1.373 . S
C2865 C2881 1.377 . S
C2866 C2864 1.389 . S
C2866 C2867 1.524 . S
C2866 C2880 1.377 . S
C2867 C2866 1.524 . S
C2867 C2868 1.397 . S
C2867 C2872 1.363 . S
C2868 H2845 0.950 . S
C2868 C2867 1.397 . S
C2868 C2869 1.334 . S
C2869 H2846 0.950 . S
C2869 C2868 1.334 . S
C2869 C2870 1.287 . S
C2870 C2869 1.287 . S
C2870 C2871 1.524 . S
C2870 H2889 0.913 . S
C2871 H2847 0.950 . S
C2871 C2870 1.524 . S
C2871 C2872 1.415 . S
C2872 H2848 0.950 . S
C2872 C2867 1.363 . S
C2872 C2871 1.415 . S
C2873 H2849 0.951 . S
C2873 C2874 1.366 . S
C2873 C2875 1.388 1_556 S
C2874 C2873 1.366 . S
C2874 C2878 1.385 . S
C2875 H2850 0.951 . S
C2875 C2873 1.388 1_554 S
C2875 C2876 1.366 . S
C2876 C2875 1.366 . S
C2876 C2877 1.414 . S
C2876 C2879 1.499 . S
C2877 H2851 0.950 . S
C2877 C2876 1.414 . S
C2877 C2878 1.374 1_554 S
C2878 H2852 0.950 . S
C2878 C2874 1.385 . S
C2878 C2877 1.374 1_556 S
C2879 C2876 1.499 . S
C2879 C2880 1.373 . S
C2879 C2881 1.389 . S
C2880 H2853 0.950 . S
C2880 C2866 1.377 . S
C2880 C2879 1.373 . S
C2881 C2865 1.377 . S
C2881 C2879 1.389 . S
C2881 C2882 1.524 . S
C2882 C2881 1.524 . S
C2882 C2883 1.397 . S
C2882 C2887 1.363 . S
C2883 H2854 0.950 . S
C2883 C2882 1.397 . S
C2883 C2884 1.334 . S
C2884 H2855 0.950 . S
C2884 C2883 1.334 . S
C2884 C2885 1.287 . S
C2885 C2884 1.287 . S
C2885 C2886 1.524 . S
C2885 H2888 0.999 . S
C2886 H2856 0.950 . S
C2886 C2885 1.524 . S
C2886 C2887 1.415 . S
C2887 H2857 0.950 . S
C2887 C2882 1.363 . S
C2887 C2886 1.415 . S
H2888 C2885 0.999 . S
H2889 C2870 0.913 . S
H2890 C2908 0.951 . S
H2891 C2910 0.951 . S
H2892 C2912 0.950 . S
H2893 C2913 0.950 . S
H2894 C2915 0.950 . S
H2895 C2918 0.950 . S
H2896 C2919 0.950 . S
H2897 C2921 0.950 . S
H2898 C2922 0.950 . S
H2899 C2923 0.951 . S
H2900 C2925 0.951 . S
H2901 C2927 0.950 . S
H2902 C2928 0.950 . S
H2903 C2930 0.950 . S
H2904 C2933 0.950 . S
H2905 C2934 0.950 . S
H2906 C2936 0.950 . S
H2907 C2937 0.950 . S
C2908 H2890 0.951 . S
C2908 C2909 1.366 . S
C2908 C2910 1.388 1_554 S
C2909 C2908 1.366 . S
C2909 C2913 1.385 . S
C2910 H2891 0.951 . S
C2910 C2908 1.388 1_556 S
C2910 C2911 1.366 . S
C2911 C2910 1.366 . S
C2911 C2912 1.414 . S
C2911 C2914 1.499 . S
C2912 H2892 0.950 . S
C2912 C2911 1.414 . S
C2912 C2913 1.374 1_556 S
C2913 H2893 0.950 . S
C2913 C2909 1.385 . S
C2913 C2912 1.374 1_554 S
C2914 C2911 1.499 . S
C2914 C2915 1.373 . S
C2914 C2916 1.389 . S
C2915 H2894 0.950 . S
C2915 C2914 1.373 . S
C2915 C2931 1.377 . S
C2916 C2914 1.389 . S
C2916 C2917 1.524 . S
C2916 C2930 1.377 . S
C2917 C2916 1.524 . S
C2917 C2918 1.397 . S
C2917 C2922 1.363 . S
C2918 H2895 0.950 . S
C2918 C2917 1.397 . S
C2918 C2919 1.334 . S
C2919 H2896 0.950 . S
C2919 C2918 1.334 . S
C2919 C2920 1.287 . S
C2920 C2919 1.287 . S
C2920 C2921 1.524 . S
C2920 H2939 0.913 . S
C2921 H2897 0.950 . S
C2921 C2920 1.524 . S
C2921 C2922 1.415 . S
C2922 H2898 0.950 . S
C2922 C2917 1.363 . S
C2922 C2921 1.415 . S
C2923 H2899 0.951 . S
C2923 C2924 1.366 . S
C2923 C2925 1.388 . S
C2924 C2923 1.366 . S
C2924 C2928 1.385 . S
C2925 H2900 0.951 . S
C2925 C2923 1.388 . S
C2925 C2926 1.366 . S
C2926 C2925 1.366 . S
C2926 C2927 1.414 . S
C2926 C2929 1.499 . S
C2927 H2901 0.950 . S
C2927 C2926 1.414 . S
C2927 C2928 1.374 . S
C2928 H2902 0.950 . S
C2928 C2924 1.385 . S
C2928 C2927 1.374 . S
C2929 C2926 1.499 . S
C2929 C2930 1.373 . S
C2929 C2931 1.389 . S
C2930 H2903 0.950 . S
C2930 C2916 1.377 . S
C2930 C2929 1.373 . S
C2931 C2915 1.377 . S
C2931 C2929 1.389 . S
C2931 C2932 1.524 . S
C2932 C2931 1.524 . S
C2932 C2933 1.397 . S
C2932 C2937 1.363 . S
C2933 H2904 0.950 . S
C2933 C2932 1.397 . S
C2933 C2934 1.334 . S
C2934 H2905 0.950 . S
C2934 C2933 1.334 . S
C2934 C2935 1.287 . S
C2935 C2934 1.287 . S
C2935 C2936 1.524 . S
C2935 H2938 0.999 . S
C2936 H2906 0.950 . S
C2936 C2935 1.524 . S
C2936 C2937 1.415 . S
C2937 H2907 0.950 . S
C2937 C2932 1.363 . S
C2937 C2936 1.415 . S
H2938 C2935 0.999 . S
H2939 C2920 0.913 . S
H2940 C2958 0.951 . S
H2941 C2960 0.951 . S
H2942 C2962 0.950 . S
H2943 C2963 0.950 . S
H2944 C2965 0.950 . S
H2945 C2968 0.950 . S
H2946 C2969 0.950 . S
H2947 C2971 0.950 . S
H2948 C2972 0.950 . S
H2949 C2973 0.951 . S
H2950 C2975 0.951 . S
H2951 C2977 0.950 . S
H2952 C2978 0.950 . S
H2953 C2980 0.950 . S
H2954 C2983 0.950 . S
H2955 C2984 0.950 . S
H2956 C2986 0.950 . S
H2957 C2987 0.950 . S
C2958 H2940 0.951 . S
C2958 C2959 1.366 . S
C2958 C2960 1.388 1_556 S
C2959 C2958 1.366 . S
C2959 C2963 1.385 . S
C2960 H2941 0.951 . S
C2960 C2958 1.388 1_554 S
C2960 C2961 1.366 . S
C2961 C2960 1.366 . S
C2961 C2962 1.414 . S
C2961 C2964 1.499 . S
C2962 H2942 0.950 . S
C2962 C2961 1.414 . S
C2962 C2963 1.374 1_554 S
C2963 H2943 0.950 . S
C2963 C2959 1.385 . S
C2963 C2962 1.374 1_556 S
C2964 C2961 1.499 . S
C2964 C2965 1.373 . S
C2964 C2966 1.389 . S
C2965 H2944 0.950 . S
C2965 C2964 1.373 . S
C2965 C2981 1.377 . S
C2966 C2964 1.389 . S
C2966 C2967 1.524 . S
C2966 C2980 1.377 . S
C2967 C2966 1.524 . S
C2967 C2968 1.397 . S
C2967 C2972 1.363 . S
C2968 H2945 0.950 . S
C2968 C2967 1.397 . S
C2968 C2969 1.334 . S
C2969 H2946 0.950 . S
C2969 C2968 1.334 . S
C2969 C2970 1.287 . S
C2970 C2969 1.287 . S
C2970 C2971 1.524 . S
C2970 H2989 0.913 . S
C2971 H2947 0.950 . S
C2971 C2970 1.524 . S
C2971 C2972 1.415 . S
C2972 H2948 0.950 . S
C2972 C2967 1.363 . S
C2972 C2971 1.415 . S
C2973 H2949 0.951 . S
C2973 C2974 1.366 . S
C2973 C2975 1.388 . S
C2974 C2973 1.366 . S
C2974 C2978 1.385 . S
C2975 H2950 0.951 . S
C2975 C2973 1.388 . S
C2975 C2976 1.366 . S
C2976 C2975 1.366 . S
C2976 C2977 1.414 . S
C2976 C2979 1.499 . S
C2977 H2951 0.950 . S
C2977 C2976 1.414 . S
C2977 C2978 1.374 . S
C2978 H2952 0.950 . S
C2978 C2974 1.385 . S
C2978 C2977 1.374 . S
C2979 C2976 1.499 . S
C2979 C2980 1.373 . S
C2979 C2981 1.389 . S
C2980 H2953 0.950 . S
C2980 C2966 1.377 . S
C2980 C2979 1.373 . S
C2981 C2965 1.377 . S
C2981 C2979 1.389 . S
C2981 C2982 1.524 . S
C2982 C2981 1.524 . S
C2982 C2983 1.397 . S
C2982 C2987 1.363 . S
C2983 H2954 0.950 . S
C2983 C2982 1.397 . S
C2983 C2984 1.334 . S
C2984 H2955 0.950 . S
C2984 C2983 1.334 . S
C2984 C2985 1.287 . S
C2985 C2984 1.287 . S
C2985 C2986 1.524 . S
C2985 H2988 0.999 . S
C2986 H2956 0.950 . S
C2986 C2985 1.524 . S
C2986 C2987 1.415 . S
C2987 H2957 0.950 . S
C2987 C2982 1.363 . S
C2987 C2986 1.415 . S
H2988 C2985 0.999 . S
H2989 C2970 0.913 . S
H2990 C3008 0.951 . S
H2991 C3010 0.951 . S
H2992 C3012 0.950 . S
H2993 C3013 0.950 . S
H2994 C3015 0.950 . S
H2995 C3018 0.950 . S
H2996 C3019 0.950 . S
H2997 C3021 0.950 . S
H2998 C3022 0.950 . S
H2999 C3023 0.951 . S
H3000 C3025 0.951 . S
H3001 C3027 0.950 . S
H3002 C3028 0.950 . S
H3003 C3030 0.950 . S
H3004 C3033 0.950 . S
H3005 C3034 0.950 . S
H3006 C3036 0.950 . S
H3007 C3037 0.950 . S
C3008 H2990 0.951 . S
C3008 C3009 1.366 . S
C3008 C3010 1.388 . S
C3009 C3008 1.366 . S
C3009 C3013 1.385 . S
C3010 H2991 0.951 . S
C3010 C3008 1.388 . S
C3010 C3011 1.366 . S
C3011 C3010 1.366 . S
C3011 C3012 1.414 . S
C3011 C3014 1.499 . S
C3012 H2992 0.950 . S
C3012 C3011 1.414 . S
C3012 C3013 1.374 . S
C3013 H2993 0.950 . S
C3013 C3009 1.385 . S
C3013 C3012 1.374 . S
C3014 C3011 1.499 . S
C3014 C3015 1.373 . S
C3014 C3016 1.389 . S
C3015 H2994 0.950 . S
C3015 C3014 1.373 . S
C3015 C3031 1.377 . S
C3016 C3014 1.389 . S
C3016 C3017 1.524 . S
C3016 C3030 1.377 . S
C3017 C3016 1.524 . S
C3017 C3018 1.397 . S
C3017 C3022 1.363 . S
C3018 H2995 0.950 . S
C3018 C3017 1.397 . S
C3018 C3019 1.334 . S
C3019 H2996 0.950 . S
C3019 C3018 1.334 . S
C3019 C3020 1.287 . S
C3020 C3019 1.287 . S
C3020 C3021 1.524 . S
C3020 H3039 0.913 . S
C3021 H2997 0.950 . S
C3021 C3020 1.524 . S
C3021 C3022 1.415 . S
C3022 H2998 0.950 . S
C3022 C3017 1.363 . S
C3022 C3021 1.415 . S
C3023 H2999 0.951 . S
C3023 C3024 1.366 . S
C3023 C3025 1.388 1_554 S
C3024 C3023 1.366 . S
C3024 C3028 1.385 . S
C3025 H3000 0.951 . S
C3025 C3023 1.388 1_556 S
C3025 C3026 1.366 . S
C3026 C3025 1.366 . S
C3026 C3027 1.414 . S
C3026 C3029 1.499 . S
C3027 H3001 0.950 . S
C3027 C3026 1.414 . S
C3027 C3028 1.374 1_556 S
C3028 H3002 0.950 . S
C3028 C3024 1.385 . S
C3028 C3027 1.374 1_554 S
C3029 C3026 1.499 . S
C3029 C3030 1.373 . S
C3029 C3031 1.389 . S
C3030 H3003 0.950 . S
C3030 C3016 1.377 . S
C3030 C3029 1.373 . S
C3031 C3015 1.377 . S
C3031 C3029 1.389 . S
C3031 C3032 1.524 . S
C3032 C3031 1.524 . S
C3032 C3033 1.397 . S
C3032 C3037 1.363 . S
C3033 H3004 0.950 . S
C3033 C3032 1.397 . S
C3033 C3034 1.334 . S
C3034 H3005 0.950 . S
C3034 C3033 1.334 . S
C3034 C3035 1.287 . S
C3035 C3034 1.287 . S
C3035 C3036 1.524 . S
C3035 H3038 0.999 . S
C3036 H3006 0.950 . S
C3036 C3035 1.524 . S
C3036 C3037 1.415 . S
C3037 H3007 0.950 . S
C3037 C3032 1.363 . S
C3037 C3036 1.415 . S
H3038 C3035 0.999 . S
H3039 C3020 0.913 . S
C659 C449 1.707 . S
C674 C8 1.690 . S
C709 C339 1.707 . S
C724 C58 1.690 . S
C759 C88 1.690 . S
C774 C369 1.707 . S
C809 C138 1.690 . S
C824 C419 1.707 . S
C859 C168 1.690 . S
C874 C209 1.707 . S
C909 C259 1.707 . S
C924 C218 1.690 . S
C959 C248 1.690 . S
C974 C289 1.707 . S
C1009 C179 1.707 . S
C1024 C298 1.690 . S
C1059 C129 1.707 . S
C1074 C328 1.690 . S
C1109 C378 1.690 . S
C1124 C19 1.707 . S
C1159 C49 1.707 . S
C1174 C408 1.691 . S
C1209 C99 1.707 . S
C1224 C458 1.690 . S
C1259 C488 1.690 . S
C1274 C529 1.707 . S
C1309 C579 1.707 . S
C1324 C538 1.690 . S
C1359 C609 1.707 . S
C1374 C568 1.690 . S
C1409 C618 1.690 . S
C1424 C499 1.707 . S
C1459 C18 1.167 . S
C1474 C178 1.167 . S
C1509 C208 1.167 . S
C1524 C48 1.166 . S
C1559 C98 1.167 . S
C1574 C258 1.166 . S
C1609 C128 1.166 . S
C1624 C288 1.167 . S
C1659 C338 1.166 . S
C1674 C498 1.166 . S
C1709 C528 1.167 . S
C1724 C368 1.167 . S
C1759 C418 1.166 . S
C1774 C578 1.166 . S
C1809 C448 1.166 . S
C1824 C608 1.166 . S
C1859 C569 2.241 . S
C1874 C9 2.241 . S
C1909 C59 2.241 . S
C1924 C619 2.241 . S
C1959 C89 2.241 . S
C1974 C489 2.241 . S
C2009 C139 2.241 . S
C2024 C539 2.241 . S
C2059 C169 2.241 . S
C2074 C409 2.241 . S
C2109 C219 2.241 . S
C2124 C459 2.241 . S
C2159 C249 2.241 . S
C2174 C329 2.241 . S
C2209 C379 2.241 . S
C2224 C299 2.241 . S
C2259 C15 1.019 . S
C2274 C5 1.019 . S
C2309 C45 1.019 . S
C2324 C55 1.019 . S
C2359 C95 1.019 . S
C2374 C85 1.019 . S
C2409 C135 1.019 . S
C2424 C125 1.019 . S
C2459 C165 1.019 . S
C2474 C175 1.019 . S
C2509 C205 1.019 . S
C2524 C215 1.019 . S
C2559 C255 1.019 . S
C2574 C245 1.019 . S
C2609 C295 1.019 . S
C2624 C285 1.019 . S
C2659 C335 1.019 . S
C2674 C325 1.019 . S
C2709 C375 1.019 . S
C2724 C365 1.019 . S
C2759 C405 1.019 . S
C2774 C415 1.019 . S
C2809 C445 1.019 . S
C2824 C455 1.019 . S
C2859 C495 1.019 . S
C2874 C485 1.019 . S
C2909 C535 1.019 . S
C2924 C525 1.019 . S
C2959 C565 1.019 . S
C2974 C575 1.019 . S
C3009 C605 1.019 . S
C3024 C615 1.019 . S
