# Generated by pormake.
# Topology fce, (5)-cn, num edge types: 1
# Building blocks:
#     Node 0, Type 0, BuildingBlock: BEQFEK_clean_sbu_0, # of connection points: 5
#     Node 1, Type 0, BuildingBlock: BEQFEK_clean_sbu_0, # of connection points: 5
#     Node 2, Type 0, BuildingBlock: BEQFEK_clean_sbu_0, # of connection points: 5
#     Node 3, Type 0, BuildingBlock: BEQFEK_clean_sbu_0, # of connection points: 5
#     Node 4, Type 0, BuildingBlock: BEQFEK_clean_sbu_0, # of connection points: 5
#     Node 5, Type 0, BuildingBlock: BEQFEK_clean_sbu_0, # of connection points: 5
#     Node 6, Type 0, BuildingBlock: BEQFEK_clean_sbu_0, # of connection points: 5
#     Node 7, Type 0, BuildingBlock: BEQFEK_clean_sbu_0, # of connection points: 5
#     Node 8, Type 0, BuildingBlock: BEQFEK_clean_sbu_0, # of connection points: 5
#     Node 9, Type 0, BuildingBlock: BEQFEK_clean_sbu_0, # of connection points: 5
#     Node 10, Type 0, BuildingBlock: BEQFEK_clean_sbu_0, # of connection points: 5
#     Node 11, Type 0, BuildingBlock: BEQFEK_clean_sbu_0, # of connection points: 5
#     Node 12, Type 0, BuildingBlock: BEQFEK_clean_sbu_0, # of connection points: 5
#     Node 13, Type 0, BuildingBlock: BEQFEK_clean_sbu_0, # of connection points: 5
#     Node 14, Type 0, BuildingBlock: BEQFEK_clean_sbu_0, # of connection points: 5
#     Node 15, Type 0, BuildingBlock: BEQFEK_clean_sbu_0, # of connection points: 5
#     Node 16, Type 0, BuildingBlock: BEQFEK_clean_sbu_0, # of connection points: 5
#     Node 17, Type 0, BuildingBlock: BEQFEK_clean_sbu_0, # of connection points: 5
#     Node 18, Type 0, BuildingBlock: BEQFEK_clean_sbu_0, # of connection points: 5
#     Node 19, Type 0, BuildingBlock: BEQFEK_clean_sbu_0, # of connection points: 5
#     Node 20, Type 0, BuildingBlock: BEQFEK_clean_sbu_0, # of connection points: 5
#     Node 21, Type 0, BuildingBlock: BEQFEK_clean_sbu_0, # of connection points: 5
#     Node 22, Type 0, BuildingBlock: BEQFEK_clean_sbu_0, # of connection points: 5
#     Node 23, Type 0, BuildingBlock: BEQFEK_clean_sbu_0, # of connection points: 5
#     Edge 24, Type (0, 0), BuildingBlock: ZUJKAS_clean_linker_0, # of connection points: 2
#     Edge 25, Type (0, 0), BuildingBlock: ZUJKAS_clean_linker_0, # of connection points: 2
#     Edge 26, Type (0, 0), BuildingBlock: ZUJKAS_clean_linker_0, # of connection points: 2
#     Edge 27, Type (0, 0), BuildingBlock: ZUJKAS_clean_linker_0, # of connection points: 2
#     Edge 28, Type (0, 0), BuildingBlock: ZUJKAS_clean_linker_0, # of connection points: 2
#     Edge 29, Type (0, 0), BuildingBlock: ZUJKAS_clean_linker_0, # of connection points: 2
#     Edge 30, Type (0, 0), BuildingBlock: ZUJKAS_clean_linker_0, # of connection points: 2
#     Edge 31, Type (0, 0), BuildingBlock: ZUJKAS_clean_linker_0, # of connection points: 2
#     Edge 32, Type (0, 0), BuildingBlock: ZUJKAS_clean_linker_0, # of connection points: 2
#     Edge 33, Type (0, 0), BuildingBlock: ZUJKAS_clean_linker_0, # of connection points: 2
#     Edge 34, Type (0, 0), BuildingBlock: ZUJKAS_clean_linker_0, # of connection points: 2
#     Edge 35, Type (0, 0), BuildingBlock: ZUJKAS_clean_linker_0, # of connection points: 2
#     Edge 36, Type (0, 0), BuildingBlock: ZUJKAS_clean_linker_0, # of connection points: 2
#     Edge 37, Type (0, 0), BuildingBlock: ZUJKAS_clean_linker_0, # of connection points: 2
#     Edge 38, Type (0, 0), BuildingBlock: ZUJKAS_clean_linker_0, # of connection points: 2
#     Edge 39, Type (0, 0), BuildingBlock: ZUJKAS_clean_linker_0, # of connection points: 2
#     Edge 40, Type (0, 0), BuildingBlock: ZUJKAS_clean_linker_0, # of connection points: 2
#     Edge 41, Type (0, 0), BuildingBlock: ZUJKAS_clean_linker_0, # of connection points: 2
#     Edge 42, Type (0, 0), BuildingBlock: ZUJKAS_clean_linker_0, # of connection points: 2
#     Edge 43, Type (0, 0), BuildingBlock: ZUJKAS_clean_linker_0, # of connection points: 2
#     Edge 44, Type (0, 0), BuildingBlock: ZUJKAS_clean_linker_0, # of connection points: 2
#     Edge 45, Type (0, 0), BuildingBlock: ZUJKAS_clean_linker_0, # of connection points: 2
#     Edge 46, Type (0, 0), BuildingBlock: ZUJKAS_clean_linker_0, # of connection points: 2
#     Edge 47, Type (0, 0), BuildingBlock: ZUJKAS_clean_linker_0, # of connection points: 2
#     Edge 48, Type (0, 0), BuildingBlock: ZUJKAS_clean_linker_0, # of connection points: 2
#     Edge 49, Type (0, 0), BuildingBlock: ZUJKAS_clean_linker_0, # of connection points: 2
#     Edge 50, Type (0, 0), BuildingBlock: ZUJKAS_clean_linker_0, # of connection points: 2
#     Edge 51, Type (0, 0), BuildingBlock: ZUJKAS_clean_linker_0, # of connection points: 2
#     Edge 52, Type (0, 0), BuildingBlock: ZUJKAS_clean_linker_0, # of connection points: 2
#     Edge 53, Type (0, 0), BuildingBlock: ZUJKAS_clean_linker_0, # of connection points: 2
#     Edge 54, Type (0, 0), BuildingBlock: ZUJKAS_clean_linker_0, # of connection points: 2
#     Edge 55, Type (0, 0), BuildingBlock: ZUJKAS_clean_linker_0, # of connection points: 2
#     Edge 56, Type (0, 0), BuildingBlock: ZUJKAS_clean_linker_0, # of connection points: 2
#     Edge 57, Type (0, 0), BuildingBlock: ZUJKAS_clean_linker_0, # of connection points: 2
#     Edge 58, Type (0, 0), BuildingBlock: ZUJKAS_clean_linker_0, # of connection points: 2
#     Edge 59, Type (0, 0), BuildingBlock: ZUJKAS_clean_linker_0, # of connection points: 2
#     Edge 60, Type (0, 0), BuildingBlock: ZUJKAS_clean_linker_0, # of connection points: 2
#     Edge 61, Type (0, 0), BuildingBlock: ZUJKAS_clean_linker_0, # of connection points: 2
#     Edge 62, Type (0, 0), BuildingBlock: ZUJKAS_clean_linker_0, # of connection points: 2
#     Edge 63, Type (0, 0), BuildingBlock: ZUJKAS_clean_linker_0, # of connection points: 2
#     Edge 64, Type (0, 0), BuildingBlock: ZUJKAS_clean_linker_0, # of connection points: 2
#     Edge 65, Type (0, 0), BuildingBlock: ZUJKAS_clean_linker_0, # of connection points: 2
#     Edge 66, Type (0, 0), BuildingBlock: ZUJKAS_clean_linker_0, # of connection points: 2
#     Edge 67, Type (0, 0), BuildingBlock: ZUJKAS_clean_linker_0, # of connection points: 2
#     Edge 68, Type (0, 0), BuildingBlock: ZUJKAS_clean_linker_0, # of connection points: 2
#     Edge 69, Type (0, 0), BuildingBlock: ZUJKAS_clean_linker_0, # of connection points: 2
#     Edge 70, Type (0, 0), BuildingBlock: ZUJKAS_clean_linker_0, # of connection points: 2
#     Edge 71, Type (0, 0), BuildingBlock: ZUJKAS_clean_linker_0, # of connection points: 2
#     Edge 72, Type (0, 0), BuildingBlock: ZUJKAS_clean_linker_0, # of connection points: 2
#     Edge 73, Type (0, 0), BuildingBlock: ZUJKAS_clean_linker_0, # of connection points: 2
#     Edge 74, Type (0, 0), BuildingBlock: ZUJKAS_clean_linker_0, # of connection points: 2
#     Edge 75, Type (0, 0), BuildingBlock: ZUJKAS_clean_linker_0, # of connection points: 2
#     Edge 76, Type (0, 0), BuildingBlock: ZUJKAS_clean_linker_0, # of connection points: 2
#     Edge 77, Type (0, 0), BuildingBlock: ZUJKAS_clean_linker_0, # of connection points: 2
#     Edge 78, Type (0, 0), BuildingBlock: ZUJKAS_clean_linker_0, # of connection points: 2
#     Edge 79, Type (0, 0), BuildingBlock: ZUJKAS_clean_linker_0, # of connection points: 2
#     Edge 80, Type (0, 0), BuildingBlock: ZUJKAS_clean_linker_0, # of connection points: 2
#     Edge 81, Type (0, 0), BuildingBlock: ZUJKAS_clean_linker_0, # of connection points: 2
#     Edge 82, Type (0, 0), BuildingBlock: ZUJKAS_clean_linker_0, # of connection points: 2
#     Edge 83, Type (0, 0), BuildingBlock: ZUJKAS_clean_linker_0, # of connection points: 2
# Relax obj value: 0.895
# Max RMSD: 0.236
# Mean RMSD: 0.236
data_MOF--net-fce--node1-BEQFEK_clean_sbu_0--edge1-ZUJKAS_clean_linker_0
_symmetry_space_group_name_H-M    P1
_symmetry_Int_Tables_number       1
_symmetry_cell_setting            triclinic
loop_
_symmetry_equiv_pos_as_xyz
'x, y, z'
_cell_length_a     61.723499
_cell_length_b     61.714318
_cell_length_c     61.708694
_cell_angle_alpha  90.00017
_cell_angle_beta   90.006625
_cell_angle_gamma 89.983292
loop_
_atom_site_label
_atom_site_type_symbol
_atom_site_fract_x
_atom_site_fract_y
_atom_site_fract_z
_atom_type_partial_charge
Co0 Co 0.11785 0.4098 0.24286 0.0
Co1 Co 0.14618 0.39054 0.2806 0.0
C2 C 0.12798 0.43436 0.28443 0.0
O3 O 0.11997 0.43243 0.26555 0.0
O4 O 0.13814 0.41879 0.29326 0.0
C5 C 0.0776 0.42581 0.2341 0.0
O6 O 0.07679 0.42102 0.25484 0.0
C7 C 0.15892 0.37616 0.32377 0.0
C8 C 0.1837 0.35123 0.317 0.0
C9 C 0.17285 0.36159 0.33371 0.0
N10 N 0.16158 0.37467 0.30221 0.0
N11 N 0.17653 0.35985 0.29825 0.0
C12 C 0.14192 0.38985 0.3344 0.0
H13 H 0.1282 0.39276 0.32318 0.0
H14 H 0.13571 0.38196 0.34931 0.0
H15 H 0.14909 0.40571 0.33887 0.0
C16 C 0.0934 0.36929 0.25051 0.0
N17 N 0.11037 0.3824 0.25442 0.0
N18 N 0.12145 0.37475 0.27095 0.0
C19 C 0.11142 0.35683 0.2785 0.0
C20 C 0.09317 0.35289 0.26586 0.0
C21 C 0.07754 0.37224 0.2324 0.0
H22 H 0.08544 0.38031 0.21842 0.0
H23 H 0.06379 0.38236 0.23799 0.0
H24 H 0.07092 0.35634 0.2272 0.0
O25 O 0.1463 0.40909 0.22882 0.0
O26 O 0.16647 0.39766 0.25646 0.0
H27 H 0.13485 0.33952 0.29728 0.0
H28 H 0.10729 0.33122 0.30236 0.0
C29 C 0.11789 0.34524 0.29881 0.0
H30 H 0.11706 0.35662 0.31265 0.0
H31 H 0.18157 0.35537 0.28273 0.0
O32 O 0.09475 0.42131 0.2236 0.0
C33 C 0.16474 0.40492 0.23715 0.0
Co34 Co 0.58565 0.11655 0.24977 0.0
Co35 Co 0.60354 0.1383 0.29239 0.0
C36 C 0.5598 0.11967 0.29177 0.0
O37 O 0.56219 0.11515 0.27181 0.0
O38 O 0.57523 0.1278 0.3027 0.0
C39 C 0.57039 0.07814 0.23411 0.0
O40 O 0.57395 0.07434 0.25477 0.0
C41 C 0.61764 0.14278 0.33731 0.0
C42 C 0.64261 0.16835 0.33547 0.0
C43 C 0.63263 0.15408 0.34964 0.0
N44 N 0.61896 0.14973 0.31671 0.0
N45 N 0.63377 0.16517 0.31574 0.0
C46 C 0.60131 0.12654 0.34499 0.0
H47 H 0.58496 0.13383 0.34362 0.0
H48 H 0.60171 0.11199 0.33444 0.0
H49 H 0.60373 0.1218 0.36211 0.0
C50 C 0.62652 0.09172 0.25429 0.0
N51 N 0.61277 0.10738 0.26076 0.0
N52 N 0.61996 0.1159 0.27893 0.0
C53 C 0.63828 0.10551 0.28484 0.0
C54 C 0.643 0.08981 0.26941 0.0
C55 C 0.6241 0.07869 0.23397 0.0
H56 H 0.61615 0.08849 0.22118 0.0
H57 H 0.61407 0.06418 0.23734 0.0
H58 H 0.64017 0.07308 0.22812 0.0
O59 O 0.58683 0.14702 0.24056 0.0
O60 O 0.59635 0.16225 0.27194 0.0
H61 H 0.65554 0.12589 0.30692 0.0
H62 H 0.66347 0.0978 0.3083 0.0
C63 C 0.64961 0.10897 0.30603 0.0
H64 H 0.638 0.10636 0.31945 0.0
H65 H 0.63814 0.17323 0.30152 0.0
O66 O 0.57521 0.09671 0.22657 0.0
C67 C 0.59018 0.16374 0.25224 0.0
Co68 Co 0.87511 0.58687 0.2607 0.0
Co69 Co 0.84304 0.60878 0.29376 0.0
C70 C 0.86578 0.56733 0.30422 0.0
O71 O 0.87548 0.56738 0.28607 0.0
O72 O 0.85308 0.58266 0.30947 0.0
C73 C 0.91558 0.56971 0.25035 0.0
O74 O 0.9178 0.57322 0.27124 0.0
C75 C 0.83362 0.62925 0.33477 0.0
C76 C 0.80052 0.64224 0.33068 0.0
C77 C 0.81732 0.64031 0.34544 0.0
N78 N 0.82697 0.62501 0.31451 0.0
N79 N 0.80716 0.6328 0.3121 0.0
C80 C 0.85449 0.62112 0.34414 0.0
H81 H 0.8512 0.6062 0.35363 0.0
H82 H 0.86618 0.61719 0.33107 0.0
H83 H 0.86176 0.63321 0.35524 0.0
C84 C 0.89628 0.62996 0.26407 0.0
N85 N 0.87995 0.61617 0.26857 0.0
N86 N 0.86645 0.62549 0.28221 0.0
C87 C 0.87383 0.64558 0.28671 0.0
C88 C 0.89313 0.64897 0.27568 0.0
C89 C 0.91577 0.62403 0.25088 0.0
H90 H 0.91083 0.61411 0.23676 0.0
H91 H 0.9271 0.6145 0.26106 0.0
H92 H 0.9245 0.6385 0.2449 0.0
O93 O 0.84637 0.58292 0.24724 0.0
O94 O 0.82345 0.59763 0.27091 0.0
H95 H 0.84519 0.66049 0.29968 0.0
H96 H 0.86852 0.67812 0.29828 0.0
C97 C 0.86301 0.66133 0.30164 0.0
H98 H 0.86724 0.65735 0.31863 0.0
H99 H 0.79806 0.6314 0.2979 0.0
O100 O 0.89797 0.57525 0.24119 0.0
C101 C 0.82713 0.58721 0.25344 0.0
Co102 Co 0.41697 0.88031 0.23777 0.0
Co103 Co 0.40026 0.86127 0.28204 0.0
C104 C 0.44471 0.8762 0.27879 0.0
O105 O 0.44139 0.87976 0.25877 0.0
O106 O 0.42934 0.87053 0.29124 0.0
C107 C 0.43246 0.91842 0.22299 0.0
O108 O 0.42829 0.92157 0.24364 0.0
C109 C 0.38787 0.85624 0.32756 0.0
C110 C 0.35947 0.83455 0.32554 0.0
C111 C 0.37186 0.84651 0.33994 0.0
N112 N 0.38484 0.85066 0.30672 0.0
N113 N 0.368 0.83748 0.30565 0.0
C114 C 0.40639 0.86986 0.33535 0.0
H115 H 0.42179 0.86153 0.33133 0.0
H116 H 0.40631 0.88568 0.32681 0.0
H117 H 0.406 0.87247 0.35311 0.0
C118 C 0.37736 0.907 0.24314 0.0
N119 N 0.39086 0.89114 0.2497 0.0
N120 N 0.38456 0.88409 0.26878 0.0
C121 C 0.36729 0.89576 0.27533 0.0
C122 C 0.3621 0.91064 0.25922 0.0
C123 C 0.37876 0.9183 0.22172 0.0
H124 H 0.38609 0.90745 0.2094 0.0
H125 H 0.38898 0.93298 0.22335 0.0
H126 H 0.36242 0.92349 0.21627 0.0
O127 O 0.41391 0.84992 0.22903 0.0
O128 O 0.40571 0.83681 0.26164 0.0
H129 H 0.34815 0.87918 0.29893 0.0
H130 H 0.34712 0.90831 0.30137 0.0
C131 C 0.35771 0.89433 0.29758 0.0
H132 H 0.37088 0.89378 0.30974 0.0
H133 H 0.36198 0.83094 0.29125 0.0
O134 O 0.42794 0.90006 0.21474 0.0
C135 C 0.41094 0.83392 0.24182 0.0
Co136 Co 0.12758 0.58232 0.7522 0.0
Co137 Co 0.15212 0.60359 0.71284 0.0
C138 C 0.13966 0.55787 0.71113 0.0
O139 O 0.13293 0.55938 0.73051 0.0
O140 O 0.14637 0.57439 0.70088 0.0
C141 C 0.09257 0.55705 0.76374 0.0
O142 O 0.09222 0.55616 0.74248 0.0
C143 C 0.15861 0.6187 0.66893 0.0
C144 C 0.1842 0.6435 0.67211 0.0
C145 C 0.17085 0.63337 0.65712 0.0
N146 N 0.16453 0.61996 0.68982 0.0
N147 N 0.17997 0.63468 0.69165 0.0
C148 C 0.14013 0.6051 0.66102 0.0
H149 H 0.14651 0.58942 0.65497 0.0
H150 H 0.12861 0.60174 0.6744 0.0
H151 H 0.13139 0.61331 0.64761 0.0
C152 C 0.0972 0.61846 0.743 0.0
N153 N 0.11596 0.60779 0.73953 0.0
N154 N 0.12638 0.61698 0.72336 0.0
C155 C 0.1146 0.63392 0.71615 0.0
C156 C 0.09563 0.63527 0.72814 0.0
C157 C 0.08016 0.61111 0.75861 0.0
H158 H 0.08778 0.60633 0.77416 0.0
H159 H 0.07174 0.59678 0.75177 0.0
H160 H 0.06791 0.62385 0.76172 0.0
O161 O 0.15632 0.58732 0.76523 0.0
O162 O 0.17399 0.59882 0.73597 0.0
H163 H 0.13859 0.65249 0.69918 0.0
H164 H 0.11169 0.66388 0.69825 0.0
C165 C 0.12113 0.64857 0.69795 0.0
H166 H 0.11812 0.64035 0.68228 0.0
H167 H 0.18734 0.63896 0.70627 0.0
O168 O 0.10666 0.56891 0.77302 0.0
C169 C 0.17395 0.59228 0.7556 0.0
Co170 Co 0.40922 0.12227 0.75285 0.0
Co171 Co 0.3889 0.14016 0.70958 0.0
C172 C 0.43319 0.12436 0.70921 0.0
O173 O 0.4316 0.12133 0.72955 0.0
O174 O 0.41699 0.13055 0.69812 0.0
C175 C 0.42602 0.08465 0.76806 0.0
O176 O 0.42 0.08021 0.74812 0.0
C177 C 0.37529 0.14973 0.66501 0.0
C178 C 0.34052 0.15698 0.66914 0.0
C179 C 0.35634 0.1537 0.65354 0.0
N180 N 0.37072 0.14987 0.68632 0.0
N181 N 0.34999 0.15471 0.68868 0.0
C182 C 0.39763 0.14688 0.65607 0.0
H183 H 0.40934 0.1559 0.66628 0.0
H184 H 0.40201 0.12944 0.6564 0.0
H185 H 0.39881 0.15303 0.63921 0.0
C186 C 0.37009 0.09471 0.75117 0.0
N187 N 0.38231 0.1111 0.74356 0.0
N188 N 0.37501 0.11701 0.72445 0.0
C189 C 0.35875 0.10362 0.71867 0.0
C190 C 0.35492 0.08914 0.73554 0.0
C191 C 0.3727 0.0847 0.77312 0.0
H192 H 0.38002 0.0965 0.78454 0.0
H193 H 0.38341 0.07033 0.77205 0.0
H194 H 0.35676 0.07922 0.77941 0.0
O195 O 0.40665 0.15284 0.76097 0.0
O196 O 0.39601 0.1653 0.72877 0.0
H197 H 0.33472 0.1122 0.69525 0.0
H198 H 0.34554 0.08537 0.69183 0.0
C199 C 0.3497 0.1023 0.69618 0.0
H200 H 0.3616 0.10847 0.68424 0.0
H201 H 0.34207 0.15539 0.70362 0.0
O202 O 0.42224 0.10347 0.77559 0.0
C203 C 0.40246 0.16851 0.74817 0.0
Co204 Co 0.87616 0.41911 0.75073 0.0
Co205 Co 0.84769 0.39681 0.7147 0.0
C206 C 0.85947 0.44309 0.71131 0.0
O207 O 0.86903 0.44204 0.7295 0.0
O208 O 0.85127 0.42631 0.70265 0.0
C209 C 0.91226 0.44399 0.76008 0.0
O210 O 0.91143 0.44498 0.73883 0.0
C211 C 0.83744 0.38215 0.6714 0.0
C212 C 0.813 0.35653 0.67649 0.0
C213 C 0.82456 0.36731 0.66051 0.0
N214 N 0.83356 0.38037 0.69273 0.0
N215 N 0.8188 0.36516 0.69571 0.0
C216 C 0.85472 0.3964 0.66205 0.0
H217 H 0.8673 0.39997 0.67438 0.0
H218 H 0.86246 0.3886 0.64781 0.0
H219 H 0.84735 0.41194 0.6568 0.0
C220 C 0.90557 0.38308 0.73928 0.0
N221 N 0.88658 0.39363 0.73735 0.0
N222 N 0.87467 0.38394 0.72253 0.0
C223 C 0.88576 0.36677 0.7147 0.0
C224 C 0.90577 0.36582 0.72494 0.0
C225 C 0.92348 0.38968 0.75423 0.0
H226 H 0.91671 0.39475 0.77007 0.0
H227 H 0.93231 0.40359 0.74706 0.0
H228 H 0.93511 0.37618 0.75677 0.0
O229 O 0.84887 0.41397 0.76629 0.0
O230 O 0.82806 0.40097 0.73985 0.0
H231 H 0.86109 0.34787 0.69922 0.0
H232 H 0.88819 0.33788 0.69481 0.0
C233 C 0.87816 0.35268 0.69648 0.0
H234 H 0.87914 0.36185 0.68108 0.0
H235 H 0.81298 0.36041 0.71088 0.0
O236 O 0.89845 0.43237 0.77002 0.0
C237 C 0.83036 0.40825 0.75908 0.0
Co238 Co 0.583 0.88656 0.74632 0.0
Co239 Co 0.60658 0.85804 0.71127 0.0
C240 C 0.56289 0.87857 0.70341 0.0
O241 O 0.56266 0.88802 0.72172 0.0
O242 O 0.57887 0.86689 0.69768 0.0
C243 C 0.55185 0.90583 0.77328 0.0
O244 O 0.54032 0.88982 0.76528 0.0
C245 C 0.6239 0.85267 0.66821 0.0
C246 C 0.64418 0.82327 0.67039 0.0
C247 C 0.63701 0.83906 0.65607 0.0
N248 N 0.62312 0.84519 0.68861 0.0
N249 N 0.63522 0.82756 0.68987 0.0
C250 C 0.61352 0.87344 0.66115 0.0
H251 H 0.61156 0.88453 0.67518 0.0
H252 H 0.62335 0.88153 0.64845 0.0
H253 H 0.59722 0.86992 0.65445 0.0
C254 C 0.62352 0.91143 0.74274 0.0
N255 N 0.61128 0.8941 0.73779 0.0
N256 N 0.6216 0.8819 0.7237 0.0
C257 C 0.64108 0.89089 0.71958 0.0
C258 C 0.64293 0.90996 0.73143 0.0
C259 C 0.61543 0.93017 0.75589 0.0
H260 H 0.61505 0.92545 0.77323 0.0
H261 H 0.59865 0.93422 0.7509 0.0
H262 H 0.62569 0.94477 0.75395 0.0
O263 O 0.58138 0.85654 0.75748 0.0
O264 O 0.59828 0.83608 0.73302 0.0
H265 H 0.65818 0.86369 0.70635 0.0
H266 H 0.67388 0.88838 0.7076 0.0
C267 C 0.65755 0.88153 0.70445 0.0
H268 H 0.65288 0.8853 0.68751 0.0
H269 H 0.6374 0.81853 0.704 0.0
O270 O 0.57177 0.90715 0.76825 0.0
C271 C 0.58745 0.83804 0.75051 0.0
Co272 Co 0.24501 0.11886 0.41006 0.0
Co273 Co 0.28638 0.14146 0.39059 0.0
C274 C 0.28792 0.12292 0.4343 0.0
O275 O 0.26806 0.11778 0.43251 0.0
O276 O 0.29808 0.13147 0.41858 0.0
C277 C 0.23138 0.07997 0.42543 0.0
O278 O 0.2518 0.07684 0.42022 0.0
C279 C 0.33072 0.14774 0.37543 0.0
C280 C 0.32688 0.1719 0.3493 0.0
C281 C 0.3421 0.15917 0.35982 0.0
N282 N 0.30975 0.15351 0.37431 0.0
N283 N 0.30758 0.16815 0.35882 0.0
C284 C 0.33914 0.12989 0.38958 0.0
H285 H 0.34441 0.13685 0.40529 0.0
H286 H 0.32631 0.11775 0.39275 0.0
H287 H 0.35318 0.12163 0.38196 0.0
C288 C 0.24829 0.09427 0.36899 0.0
N289 N 0.25491 0.11015 0.3824 0.0
N290 N 0.27283 0.11873 0.37472 0.0
C291 C 0.27854 0.10807 0.3565 0.0
C292 C 0.26318 0.0921 0.35231 0.0
C293 C 0.22806 0.08123 0.37197 0.0
H294 H 0.21552 0.09098 0.38037 0.0
H295 H 0.23167 0.06665 0.38182 0.0
H296 H 0.22175 0.07571 0.35605 0.0
O297 O 0.23534 0.1491 0.40991 0.0
O298 O 0.26576 0.16495 0.39873 0.0
H299 H 0.30014 0.12813 0.33832 0.0
H300 H 0.30214 0.09979 0.33158 0.0
C301 C 0.29962 0.11145 0.34496 0.0
H302 H 0.31312 0.10962 0.3566 0.0
H303 H 0.29283 0.17509 0.35432 0.0
O304 O 0.22296 0.09839 0.42157 0.0
C305 C 0.24655 0.1661 0.40634 0.0
Co306 Co 0.87553 0.25613 0.42216 0.0
Co307 Co 0.8497 0.29284 0.39773 0.0
C308 C 0.86268 0.29779 0.44398 0.0
O309 O 0.87159 0.27925 0.444 0.0
O310 O 0.85392 0.30531 0.42695 0.0
C311 C 0.91051 0.24352 0.44726 0.0
O312 O 0.912 0.26475 0.44773 0.0
C313 C 0.84484 0.33664 0.38241 0.0
C314 C 0.81891 0.33476 0.35784 0.0
C315 C 0.83278 0.34912 0.36817 0.0
N316 N 0.83828 0.31598 0.38081 0.0
N317 N 0.82271 0.31489 0.36615 0.0
C318 C 0.86353 0.34374 0.39617 0.0
H319 H 0.87487 0.33006 0.39888 0.0
H320 H 0.87235 0.35737 0.38845 0.0
H321 H 0.85736 0.34919 0.41216 0.0
C322 C 0.90505 0.26228 0.38492 0.0
N323 N 0.88672 0.2669 0.39582 0.0
N324 N 0.876 0.28218 0.38548 0.0
C325 C 0.8873 0.2878 0.36764 0.0
C326 C 0.90608 0.27546 0.36674 0.0
C327 C 0.92206 0.24693 0.39289 0.0
H328 H 0.91438 0.23158 0.39819 0.0
H329 H 0.93038 0.25424 0.40704 0.0
H330 H 0.93439 0.24335 0.38036 0.0
O331 O 0.84657 0.24345 0.41796 0.0
O332 O 0.82777 0.26967 0.40173 0.0
H333 H 0.86285 0.30267 0.34796 0.0
H334 H 0.88968 0.30333 0.33631 0.0
C335 C 0.88032 0.30461 0.35161 0.0
H336 H 0.88292 0.32094 0.3586 0.0
H337 H 0.81476 0.30062 0.36176 0.0
O338 O 0.89566 0.23488 0.43588 0.0
C339 C 0.8288 0.25096 0.4105 0.0
Co340 Co 0.75068 0.87557 0.41422 0.0
Co341 Co 0.7121 0.84948 0.39305 0.0
C342 C 0.70771 0.86764 0.43699 0.0
O343 O 0.72698 0.87477 0.43587 0.0
O344 O 0.69905 0.85801 0.421 0.0
C345 C 0.76125 0.9147 0.43169 0.0
O346 O 0.74067 0.91663 0.42654 0.0
C347 C 0.66887 0.84162 0.37566 0.0
C348 C 0.6752 0.8199 0.34794 0.0
C349 C 0.65903 0.83187 0.35794 0.0
N350 N 0.69 0.83635 0.37566 0.0
N351 N 0.69359 0.82294 0.35934 0.0
C352 C 0.65841 0.85528 0.39279 0.0
H353 H 0.66172 0.84802 0.40886 0.0
H354 H 0.66554 0.87179 0.39257 0.0
H355 H 0.64059 0.85621 0.3909 0.0
C356 C 0.74634 0.90068 0.37347 0.0
N357 N 0.7409 0.88392 0.3864 0.0
N358 N 0.72412 0.87377 0.37802 0.0
C359 C 0.71797 0.88428 0.35986 0.0
C360 C 0.73177 0.90169 0.35643 0.0
C361 C 0.76394 0.91664 0.37826 0.0
H362 H 0.77703 0.90887 0.38777 0.0
H363 H 0.7571 0.93042 0.38756 0.0
H364 H 0.77092 0.92321 0.36308 0.0
O365 O 0.76254 0.84606 0.41399 0.0
O366 O 0.73436 0.82753 0.40112 0.0
H367 H 0.69701 0.88926 0.3321 0.0
H368 H 0.68371 0.88028 0.35658 0.0
C369 C 0.69851 0.87864 0.34654 0.0
H370 H 0.69984 0.86167 0.34093 0.0
H371 H 0.70882 0.81676 0.35532 0.0
O372 O 0.77099 0.89719 0.42684 0.0
C373 C 0.75327 0.82813 0.40952 0.0
Co374 Co 0.11903 0.74623 0.4187 0.0
Co375 Co 0.14014 0.70646 0.39429 0.0
C376 C 0.12873 0.70286 0.44037 0.0
O377 O 0.12279 0.72258 0.44017 0.0
O378 O 0.13508 0.69349 0.42316 0.0
C379 C 0.08487 0.75879 0.44426 0.0
O380 O 0.08257 0.73766 0.44316 0.0
C381 C 0.15058 0.66302 0.37801 0.0
C382 C 0.15785 0.6693 0.34356 0.0
C383 C 0.15479 0.65275 0.35844 0.0
N384 N 0.15032 0.68455 0.37469 0.0
N385 N 0.15522 0.68822 0.35417 0.0
C386 C 0.14799 0.65271 0.3998 0.0
H387 H 0.15794 0.66167 0.41175 0.0
H388 H 0.13076 0.6536 0.40485 0.0
H389 H 0.15343 0.63558 0.39978 0.0
C390 C 0.08766 0.74229 0.38296 0.0
N391 N 0.10604 0.73621 0.393 0.0
N392 N 0.1141 0.71906 0.38322 0.0
C393 C 0.10062 0.71331 0.36696 0.0
C394 C 0.08356 0.72797 0.36617 0.0
C395 C 0.07421 0.76141 0.38939 0.0
H396 H 0.08477 0.77474 0.39517 0.0
H397 H 0.06316 0.75664 0.40274 0.0
H398 H 0.06427 0.76723 0.37557 0.0
O399 O 0.14825 0.75747 0.41341 0.0
O400 O 0.16362 0.72814 0.39908 0.0
H401 H 0.1136 0.69531 0.34042 0.0
H402 H 0.0865 0.68757 0.34778 0.0
C403 C 0.10245 0.69272 0.35427 0.0
H404 H 0.10896 0.6796 0.36465 0.0
H405 H 0.15568 0.7036 0.34714 0.0
O406 O 0.10006 0.76773 0.43358 0.0
C407 C 0.16497 0.74734 0.4067 0.0
Co408 Co 0.25398 0.87908 0.57913 0.0
Co409 Co 0.29362 0.85414 0.59944 0.0
C410 C 0.29764 0.87587 0.55691 0.0
O411 O 0.27799 0.88198 0.55789 0.0
O412 O 0.30623 0.86537 0.57237 0.0
C413 C 0.23979 0.9185 0.56452 0.0
O414 O 0.26024 0.92199 0.56934 0.0
C415 C 0.33758 0.84786 0.61493 0.0
C416 C 0.33475 0.82022 0.63749 0.0
C417 C 0.34948 0.83473 0.62872 0.0
N418 N 0.31684 0.84132 0.61531 0.0
N419 N 0.31523 0.82469 0.62872 0.0
C420 C 0.34532 0.86759 0.60307 0.0
H421 H 0.33196 0.87943 0.60112 0.0
H422 H 0.3589 0.87547 0.61184 0.0
H423 H 0.35106 0.86276 0.58673 0.0
C424 C 0.25601 0.90147 0.62158 0.0
N425 N 0.2627 0.88596 0.60776 0.0
N426 N 0.27978 0.87621 0.616 0.0
C427 C 0.28479 0.88564 0.6351 0.0
C428 C 0.26997 0.90214 0.63916 0.0
C429 C 0.23678 0.91581 0.61801 0.0
H430 H 0.22401 0.90698 0.60897 0.0
H431 H 0.24171 0.93027 0.60857 0.0
H432 H 0.23015 0.92148 0.63375 0.0
O433 O 0.24441 0.84876 0.57676 0.0
O434 O 0.27319 0.83123 0.58975 0.0
H435 H 0.30537 0.86303 0.65145 0.0
H436 H 0.30565 0.88973 0.66323 0.0
C437 C 0.30484 0.8806 0.64782 0.0
H438 H 0.31927 0.88478 0.63803 0.0
H439 H 0.30077 0.8166 0.63211 0.0
O440 O 0.23185 0.89985 0.56825 0.0
C441 C 0.25458 0.83119 0.5807 0.0
Co442 Co 0.1248 0.25139 0.57404 0.0
Co443 Co 0.15258 0.28708 0.59842 0.0
C444 C 0.14183 0.29101 0.55133 0.0
O445 O 0.13129 0.27334 0.55166 0.0
O446 O 0.15064 0.29844 0.5684 0.0
C447 C 0.09386 0.23528 0.54411 0.0
O448 O 0.09785 0.25421 0.53535 0.0
C449 C 0.16038 0.33068 0.61428 0.0
C450 C 0.18092 0.32546 0.64313 0.0
C451 C 0.16993 0.34133 0.63163 0.0
N452 N 0.16492 0.30945 0.61585 0.0
N453 N 0.17755 0.30646 0.63289 0.0
C454 C 0.14782 0.34035 0.59586 0.0
H455 H 0.15615 0.33646 0.58045 0.0
H456 H 0.1314 0.33304 0.59526 0.0
H457 H 0.14667 0.35821 0.59683 0.0
C458 C 0.0936 0.26285 0.60831 0.0
N459 N 0.11328 0.26457 0.59903 0.0
N460 N 0.12487 0.27902 0.60958 0.0
C461 C 0.11298 0.28668 0.62625 0.0
C462 C 0.09274 0.27684 0.62591 0.0
C463 C 0.07542 0.24985 0.59889 0.0
H464 H 0.07976 0.23241 0.59932 0.0
H465 H 0.07311 0.25451 0.58168 0.0
H466 H 0.05996 0.25239 0.60764 0.0
O467 O 0.15286 0.23712 0.57989 0.0
O468 O 0.17267 0.26229 0.59646 0.0
H469 H 0.13748 0.29878 0.64763 0.0
H470 H 0.11027 0.30341 0.65698 0.0
C471 C 0.12083 0.30295 0.64244 0.0
H472 H 0.12099 0.31925 0.63488 0.0
H473 H 0.18318 0.29134 0.638 0.0
O474 O 0.10365 0.23005 0.5615 0.0
C475 C 0.1708 0.24357 0.58792 0.0
Co476 Co 0.74337 0.11672 0.59065 0.0
Co477 Co 0.70565 0.14519 0.60987 0.0
C478 C 0.70036 0.12172 0.56813 0.0
O479 O 0.71943 0.11413 0.56955 0.0
O480 O 0.6926 0.13358 0.58303 0.0
C481 C 0.75598 0.07654 0.57632 0.0
O482 O 0.73544 0.07378 0.58121 0.0
C483 C 0.66221 0.15111 0.62568 0.0
C484 C 0.66337 0.18183 0.64399 0.0
C485 C 0.64957 0.16522 0.63774 0.0
N486 N 0.68241 0.15905 0.62465 0.0
N487 N 0.68305 0.17751 0.6355 0.0
C488 C 0.65588 0.12939 0.61688 0.0
H489 H 0.67024 0.11863 0.61575 0.0
H490 H 0.64347 0.12161 0.6273 0.0
H491 H 0.64906 0.13146 0.60037 0.0
C492 C 0.74011 0.09639 0.63428 0.0
N493 N 0.73434 0.11151 0.61958 0.0
N494 N 0.71849 0.12334 0.62757 0.0
C495 C 0.71363 0.11597 0.64756 0.0
C496 C 0.72691 0.09849 0.65239 0.0
C497 C 0.75653 0.079 0.63024 0.0
H498 H 0.76972 0.08525 0.61981 0.0
H499 H 0.74857 0.06512 0.62206 0.0
H500 H 0.76371 0.07302 0.64554 0.0
O501 O 0.75417 0.14657 0.58686 0.0
O502 O 0.72705 0.16674 0.59959 0.0
H503 H 0.69699 0.14305 0.66161 0.0
H504 H 0.69819 0.11942 0.6788 0.0
C505 C 0.69629 0.12512 0.66185 0.0
H506 H 0.68021 0.11988 0.65584 0.0
H507 H 0.69694 0.18698 0.63733 0.0
O508 O 0.76463 0.09486 0.58016 0.0
C509 C 0.74539 0.16501 0.59018 0.0
Co510 Co 0.87339 0.74806 0.58529 0.0
Co511 Co 0.84582 0.71231 0.60909 0.0
C512 C 0.85706 0.70746 0.56284 0.0
O513 O 0.86667 0.72567 0.56329 0.0
O514 O 0.84874 0.6994 0.57987 0.0
C515 C 0.90853 0.75834 0.55903 0.0
O516 O 0.90795 0.73714 0.55722 0.0
C517 C 0.83375 0.66985 0.62551 0.0
C518 C 0.81372 0.67758 0.65416 0.0
C519 C 0.82224 0.66048 0.64234 0.0
N520 N 0.832 0.69147 0.62716 0.0
N521 N 0.81981 0.69603 0.64417 0.0
C522 C 0.8481 0.65862 0.60946 0.0
H523 H 0.86189 0.6692 0.60492 0.0
H524 H 0.85449 0.6432 0.61615 0.0
H525 H 0.8386 0.65497 0.59464 0.0
C526 C 0.90346 0.73839 0.62113 0.0
N527 N 0.88433 0.7358 0.61102 0.0
N528 N 0.87308 0.72071 0.62102 0.0
C529 C 0.88486 0.71312 0.63784 0.0
C530 C 0.90455 0.72404 0.63837 0.0
C531 C 0.92061 0.75404 0.61413 0.0
H532 H 0.91306 0.76957 0.60916 0.0
H533 H 0.92941 0.74722 0.60001 0.0
H534 H 0.93239 0.75712 0.62736 0.0
O535 O 0.84586 0.76324 0.59001 0.0
O536 O 0.82581 0.73701 0.60441 0.0
H537 H 0.86258 0.69796 0.65961 0.0
H538 H 0.89049 0.69051 0.66426 0.0
C539 C 0.87827 0.69431 0.65167 0.0
H540 H 0.87608 0.67982 0.64133 0.0
H541 H 0.81614 0.71173 0.64929 0.0
O542 O 0.89503 0.76766 0.57149 0.0
C543 C 0.82758 0.75592 0.59625 0.0
Co544 Co 0.41057 0.25422 0.10962 0.0
Co545 Co 0.39304 0.29621 0.13258 0.0
C546 C 0.43389 0.29762 0.1084 0.0
O547 O 0.43221 0.27745 0.10467 0.0
O548 O 0.41889 0.30784 0.11805 0.0
C549 C 0.42368 0.23774 0.07052 0.0
O550 O 0.41869 0.25794 0.06598 0.0
C551 C 0.3765 0.34003 0.13559 0.0
C552 C 0.364 0.34209 0.16908 0.0
C553 C 0.36702 0.35403 0.1503 0.0
N554 N 0.37884 0.32059 0.1451 0.0
N555 N 0.37128 0.32186 0.1651 0.0
C556 C 0.38539 0.34549 0.11367 0.0
H557 H 0.38685 0.33068 0.10359 0.0
H558 H 0.37507 0.35745 0.10517 0.0
H559 H 0.40173 0.35271 0.11565 0.0
C560 C 0.36677 0.25593 0.08964 0.0
N561 N 0.38175 0.26321 0.1038 0.0
N562 N 0.37444 0.2809 0.11321 0.0
C563 C 0.3547 0.28552 0.10504 0.0
C564 C 0.34931 0.27006 0.08961 0.0
C565 C 0.36997 0.23703 0.07479 0.0
H566 H 0.38037 0.22465 0.08258 0.0
H567 H 0.37773 0.24266 0.05959 0.0
H568 H 0.35426 0.22948 0.07049 0.0
O569 O 0.41442 0.24624 0.14027 0.0
O570 O 0.40526 0.27755 0.15581 0.0
H571 H 0.34177 0.30745 0.12871 0.0
H572 H 0.32441 0.303 0.10556 0.0
C573 C 0.34146 0.30496 0.11093 0.0
H574 H 0.34828 0.3195 0.10292 0.0
H575 H 0.37154 0.30908 0.17618 0.0
O576 O 0.42042 0.23088 0.08968 0.0
C577 C 0.41316 0.25847 0.15689 0.0
Co578 Co 0.41311 0.74475 0.88436 0.0
Co579 Co 0.39167 0.70731 0.85712 0.0
C580 C 0.43534 0.70193 0.87671 0.0
O581 O 0.43447 0.72085 0.88475 0.0
O582 O 0.41951 0.69426 0.86605 0.0
C583 C 0.42957 0.75668 0.92384 0.0
O584 O 0.42491 0.73606 0.92646 0.0
C585 C 0.37555 0.66383 0.85131 0.0
C586 C 0.35419 0.66598 0.82269 0.0
C587 C 0.36218 0.65163 0.83804 0.0
N588 N 0.37566 0.68434 0.84409 0.0
N589 N 0.36295 0.68557 0.82689 0.0
C590 C 0.38663 0.65671 0.87171 0.0
H591 H 0.38847 0.67058 0.883 0.0
H592 H 0.37735 0.64362 0.87982 0.0
H593 H 0.40301 0.6505 0.86766 0.0
C594 C 0.37099 0.74191 0.90751 0.0
N595 N 0.38472 0.73565 0.89171 0.0
N596 N 0.37589 0.71968 0.88066 0.0
C597 C 0.35639 0.71507 0.88938 0.0
C598 C 0.35268 0.72889 0.90674 0.0
C599 C 0.37608 0.75892 0.92405 0.0
H600 H 0.38602 0.77192 0.9167 0.0
H601 H 0.38518 0.75144 0.93762 0.0
H602 H 0.36123 0.7663 0.93085 0.0
O603 O 0.41412 0.75625 0.8546 0.0
O604 O 0.39995 0.7293 0.83514 0.0
H605 H 0.33994 0.69879 0.86351 0.0
H606 H 0.32511 0.69925 0.8887 0.0
C607 C 0.34146 0.69772 0.88137 0.0
H608 H 0.34822 0.68163 0.88559 0.0
H609 H 0.36009 0.69979 0.81819 0.0
O610 O 0.42502 0.76561 0.90584 0.0
C611 C 0.40918 0.74777 0.83638 0.0
Co612 Co 0.25078 0.41254 0.87791 0.0
Co613 Co 0.29098 0.39079 0.85525 0.0
C614 C 0.29501 0.43393 0.8753 0.0
O615 O 0.27513 0.43336 0.88062 0.0
O616 O 0.30391 0.41793 0.86593 0.0
C617 C 0.23641 0.42809 0.91659 0.0
O618 O 0.25622 0.42144 0.92072 0.0
C619 C 0.33477 0.37402 0.85029 0.0
C620 C 0.33114 0.34852 0.82544 0.0
C621 C 0.34615 0.35839 0.83891 0.0
N622 N 0.31401 0.3736 0.84376 0.0
N623 N 0.31195 0.35845 0.82875 0.0
C624 C 0.34293 0.38755 0.86873 0.0
H625 H 0.32993 0.39005 0.88088 0.0
H626 H 0.35701 0.37981 0.87679 0.0
H627 H 0.34799 0.40361 0.86243 0.0
C628 C 0.25061 0.37067 0.90126 0.0
N629 N 0.25854 0.38405 0.88597 0.0
N630 N 0.27596 0.37528 0.87738 0.0
C631 C 0.28003 0.3563 0.88747 0.0
C632 C 0.2641 0.3528 0.90303 0.0
C633 C 0.23037 0.37473 0.914 0.0
H634 H 0.21868 0.3843 0.90427 0.0
H635 H 0.23439 0.38386 0.92894 0.0
H636 H 0.2228 0.35917 0.9189 0.0
O637 O 0.24214 0.41412 0.84738 0.0
O638 O 0.27158 0.40068 0.83134 0.0
H639 H 0.30015 0.33687 0.86705 0.0
H640 H 0.30133 0.32928 0.89526 0.0
C641 C 0.30009 0.34311 0.88389 0.0
H642 H 0.31452 0.35352 0.88605 0.0
H643 H 0.29735 0.35453 0.82117 0.0
O644 O 0.2287 0.42493 0.89774 0.0
C645 C 0.2531 0.40997 0.83034 0.0
Co646 Co 0.58516 0.24685 0.8812 0.0
Co647 Co 0.60377 0.28996 0.86138 0.0
C648 C 0.56205 0.29076 0.88331 0.0
O649 O 0.56361 0.27035 0.88563 0.0
O650 O 0.57761 0.30169 0.87543 0.0
C651 C 0.57126 0.23039 0.91968 0.0
O652 O 0.57735 0.25026 0.92435 0.0
C653 C 0.61987 0.33417 0.85587 0.0
C654 C 0.64294 0.33085 0.82868 0.0
C655 C 0.6344 0.34569 0.8432 0.0
N656 N 0.62003 0.31339 0.84937 0.0
N657 N 0.63378 0.31152 0.83305 0.0
C658 C 0.60466 0.3429 0.87266 0.0
H659 H 0.58788 0.34155 0.86641 0.0
H660 H 0.60578 0.33301 0.88763 0.0
H661 H 0.60766 0.36015 0.87649 0.0
C662 C 0.62783 0.24744 0.90327 0.0
N663 N 0.61362 0.2554 0.88875 0.0
N664 N 0.62111 0.27381 0.88107 0.0
C665 C 0.64008 0.27839 0.89091 0.0
C666 C 0.64493 0.26183 0.90537 0.0
C667 C 0.62487 0.22682 0.91567 0.0
H668 H 0.61533 0.21504 0.90604 0.0
H669 H 0.61622 0.23025 0.93104 0.0
H670 H 0.64085 0.21967 0.91984 0.0
O671 O 0.58274 0.23974 0.85027 0.0
O672 O 0.59194 0.27212 0.83726 0.0
H673 H 0.65733 0.30142 0.87166 0.0
H674 H 0.66586 0.30074 0.89961 0.0
C675 C 0.65171 0.29955 0.88862 0.0
H676 H 0.64039 0.31301 0.89223 0.0
H677 H 0.637 0.297 0.82498 0.0
O678 O 0.57416 0.22349 0.90047 0.0
C679 C 0.58426 0.25311 0.83458 0.0
Co680 Co 0.74763 0.58721 0.88109 0.0
Co681 Co 0.70958 0.60877 0.85482 0.0
C682 C 0.70543 0.5641 0.8716 0.0
O683 O 0.72448 0.56516 0.87929 0.0
O684 O 0.69691 0.58032 0.86225 0.0
C685 C 0.75803 0.56921 0.92006 0.0
O686 O 0.73735 0.57396 0.92192 0.0
C687 C 0.66578 0.62401 0.84822 0.0
C688 C 0.66871 0.64822 0.82204 0.0
C689 C 0.65387 0.63839 0.83575 0.0
N690 N 0.68661 0.62507 0.84207 0.0
N691 N 0.6883 0.63947 0.8263 0.0
C692 C 0.65796 0.61096 0.86714 0.0
H693 H 0.67127 0.60836 0.87893 0.0
H694 H 0.64429 0.6192 0.87543 0.0
H695 H 0.65231 0.59492 0.8613 0.0
C696 C 0.74272 0.62719 0.90692 0.0
N697 N 0.73735 0.61461 0.88995 0.0
N698 N 0.72105 0.62355 0.87949 0.0
C699 C 0.71533 0.64199 0.88984 0.0
C700 C 0.7288 0.64474 0.90766 0.0
C701 C 0.76086 0.62265 0.92238 0.0
H702 H 0.77427 0.61419 0.91396 0.0
H703 H 0.75484 0.61232 0.93579 0.0
H704 H 0.76702 0.63796 0.92955 0.0
O705 O 0.76004 0.58854 0.8519 0.0
O706 O 0.73228 0.60168 0.83286 0.0
H707 H 0.69691 0.65975 0.86642 0.0
H708 H 0.69573 0.67093 0.89342 0.0
C709 C 0.69624 0.65571 0.8839 0.0
H710 H 0.68114 0.64655 0.88703 0.0
H711 H 0.70285 0.64357 0.8187 0.0
O712 O 0.76782 0.5745 0.90271 0.0
C713 C 0.75127 0.59345 0.83383 0.0
Co714 Co 0.58821 0.74328 0.12321 0.0
Co715 Co 0.60943 0.70541 0.15003 0.0
C716 C 0.56582 0.70053 0.1301 0.0
O717 O 0.56683 0.71953 0.12231 0.0
O718 O 0.58155 0.69264 0.14075 0.0
C719 C 0.57143 0.75606 0.08411 0.0
O720 O 0.57594 0.73546 0.08107 0.0
C721 C 0.62704 0.66234 0.15292 0.0
C722 C 0.64295 0.66121 0.18496 0.0
C723 C 0.63847 0.64888 0.16673 0.0
N724 N 0.62506 0.68183 0.16234 0.0
N725 N 0.63459 0.68113 0.18152 0.0
C726 C 0.61631 0.65639 0.13196 0.0
H727 H 0.60052 0.64856 0.13553 0.0
H728 H 0.61331 0.67108 0.12204 0.0
H729 H 0.6262 0.64478 0.12252 0.0
C730 C 0.63009 0.7402 0.09966 0.0
N731 N 0.61654 0.73417 0.11571 0.0
N732 N 0.62543 0.71825 0.1268 0.0
C733 C 0.64488 0.7136 0.11796 0.0
C734 C 0.64835 0.72709 0.1003 0.0
C735 C 0.62483 0.75698 0.08293 0.0
H736 H 0.61491 0.77005 0.09017 0.0
H737 H 0.6157 0.7493 0.06949 0.0
H738 H 0.63964 0.76432 0.07601 0.0
O739 O 0.5871 0.75407 0.15325 0.0
O740 O 0.60114 0.72688 0.17249 0.0
H741 H 0.67673 0.69926 0.11983 0.0
H742 H 0.65454 0.68041 0.12029 0.0
C743 C 0.66007 0.6965 0.12602 0.0
H744 H 0.66041 0.69651 0.14397 0.0
H745 H 0.63512 0.69412 0.19235 0.0
O746 O 0.57625 0.76463 0.10223 0.0
C747 C 0.59186 0.74535 0.17141 0.0
Co748 Co 0.25947 0.59208 0.11078 0.0
Co749 Co 0.29291 0.61256 0.14335 0.0
C750 C 0.30336 0.57273 0.11767 0.0
O751 O 0.28513 0.57322 0.10816 0.0
O752 O 0.30854 0.58722 0.13134 0.0
C753 C 0.24782 0.57723 0.06981 0.0
O754 O 0.26852 0.58134 0.06698 0.0
C755 C 0.33398 0.63306 0.15146 0.0
C756 C 0.3328 0.64204 0.18608 0.0
C757 C 0.34606 0.64217 0.16797 0.0
N758 N 0.31434 0.62798 0.15926 0.0
N759 N 0.31363 0.63345 0.17997 0.0
C760 C 0.34168 0.627 0.12925 0.0
H761 H 0.3278 0.62286 0.11861 0.0
H762 H 0.35098 0.64043 0.12182 0.0
H763 H 0.35261 0.61277 0.13049 0.0
C764 C 0.26044 0.6366 0.09294 0.0
N765 N 0.2663 0.62178 0.10786 0.0
N766 N 0.28015 0.63055 0.1215 0.0
C767 C 0.28348 0.65135 0.11559 0.0
C768 C 0.27134 0.65582 0.09718 0.0
C769 C 0.24657 0.63159 0.07367 0.0
H770 H 0.23287 0.6211 0.07858 0.0
H771 H 0.25644 0.62292 0.06141 0.0
H772 H 0.23994 0.64638 0.06602 0.0
O773 O 0.24738 0.58582 0.13959 0.0
O774 O 0.27101 0.5997 0.16308 0.0
H775 H 0.29736 0.66431 0.14476 0.0
H776 H 0.29384 0.68384 0.12318 0.0
C777 C 0.29825 0.66682 0.127 0.0
H778 H 0.31513 0.66407 0.12156 0.0
H779 H 0.30032 0.63076 0.19006 0.0
O780 O 0.23925 0.58158 0.08803 0.0
C781 C 0.25384 0.58893 0.15898 0.0
Co782 Co 0.74426 0.41007 0.11448 0.0
Co783 Co 0.7086 0.38683 0.14218 0.0
C784 C 0.70264 0.43164 0.12242 0.0
O785 O 0.72062 0.43124 0.11242 0.0
O786 O 0.69667 0.41577 0.13414 0.0
C787 C 0.7736 0.44038 0.09779 0.0
O788 O 0.76612 0.45138 0.11442 0.0
C789 C 0.66609 0.36764 0.14134 0.0
C790 C 0.66179 0.3541 0.17418 0.0
C791 C 0.65142 0.3568 0.15441 0.0
N792 N 0.68436 0.37093 0.15267 0.0
N793 N 0.68178 0.36275 0.1723 0.0
C794 C 0.66224 0.37646 0.11902 0.0
H795 H 0.67552 0.3874 0.114 0.0
H796 H 0.6615 0.36301 0.10716 0.0
H797 H 0.64652 0.38518 0.11848 0.0
C798 C 0.7398 0.37019 0.08853 0.0
N799 N 0.73507 0.38234 0.106 0.0
N800 N 0.72146 0.3718 0.1185 0.0
C801 C 0.71791 0.35203 0.1099 0.0
C802 C 0.72914 0.35043 0.09042 0.0
C803 C 0.75232 0.37847 0.06946 0.0
H804 H 0.74959 0.39612 0.06748 0.0
H805 H 0.7475 0.37016 0.05428 0.0
H806 H 0.76986 0.37572 0.0723 0.0
O807 O 0.75408 0.4108 0.1451 0.0
O808 O 0.7297 0.39334 0.1652 0.0
H809 H 0.71129 0.31828 0.1159 0.0
H810 H 0.68792 0.33558 0.11578 0.0
C811 C 0.70513 0.33448 0.12073 0.0
H812 H 0.70612 0.33616 0.13859 0.0
H813 H 0.69345 0.36349 0.18452 0.0
O814 O 0.76741 0.42092 0.0952 0.0
C815 C 0.74713 0.40431 0.16348 0.0
H816 H 0.92577 0.24554 0.34073 0.0
H817 H 0.95868 0.25077 0.31872 0.0
H818 H 0.96108 0.31775 0.33845 0.0
H819 H 0.92844 0.31257 0.36049 0.0
H820 H 0.96557 0.29447 0.28518 0.0
H821 H 0.02181 0.2779 0.35382 0.0
H822 H 0.99572 0.26479 0.35143 0.0
H823 H 0.99722 0.29266 0.35946 0.0
C824 C 0.93337 0.26135 0.34023 0.0
C825 C 0.92481 0.27865 0.35228 0.0
C826 C 0.95202 0.26431 0.32769 0.0
C827 C 0.96221 0.28459 0.32715 0.0
C828 C 0.95336 0.30199 0.33877 0.0
H829 H 0.05212 0.36638 0.27251 0.0
H830 H 0.02094 0.34488 0.28361 0.0
C831 C 0.93476 0.29905 0.35123 0.0
C832 C 0.98246 0.28787 0.31497 0.0
H833 H 0.03659 0.2953 0.32292 0.0
C834 C 0.9812 0.29419 0.29321 0.0
C835 C 0.00273 0.28725 0.32553 0.0
C836 C 0.00466 0.28019 0.34884 0.0
C837 C -0.0003 0.30129 0.28208 0.0
C838 C 0.01972 0.30233 0.29317 0.0
C839 C 0.0212 0.2945 0.31447 0.0
C840 C 0.03835 0.31444 0.28426 0.0
C841 C 0.9975 0.30846 0.25882 0.0
C842 C 0.05858 0.30447 0.28119 0.0
C843 C 0.07647 0.31678 0.27462 0.0
C844 C 0.07435 0.33921 0.27141 0.0
C845 C 0.05407 0.34904 0.27439 0.0
C846 C 0.03625 0.33677 0.28073 0.0
H847 H 0.98365 0.30028 0.25074 0.0
H848 H 0.99446 0.32618 0.25837 0.0
H849 H 0.01252 0.30506 0.24951 0.0
H850 H 0.06053 0.28727 0.28411 0.0
H851 H 0.09199 0.3089 0.27234 0.0
H852 H 0.69609 0.92677 0.35762 0.0
H853 H 0.68899 0.95993 0.33712 0.0
H854 H 0.7507 0.95348 0.30493 0.0
H855 H 0.75772 0.91984 0.32533 0.0
H856 H 0.71805 0.99793 0.33771 0.0
H857 H 0.70347 0.96295 0.25566 0.0
H858 H 0.70058 0.94684 0.27993 0.0
H859 H 0.72702 0.9546 0.2708 0.0
C860 C 0.70798 0.93228 0.34593 0.0
C861 C 0.72737 0.92085 0.34288 0.0
C862 C 0.70399 0.95123 0.33437 0.0
C863 C 0.71931 0.95905 0.31953 0.0
C864 C 0.73865 0.94755 0.31622 0.0
H865 H 0.687 0.09106 0.27461 0.0
H866 H 0.71091 0.06028 0.28319 0.0
C867 C 0.74267 0.92849 0.32788 0.0
C868 C 0.71487 0.97964 0.30822 0.0
H869 H 0.69537 -0.00017 0.26062 0.0
C870 C 0.71356 0.99856 0.32072 0.0
C871 C 0.709 0.98019 0.28612 0.0
C872 C 0.70996 0.96011 0.27222 0.0
C873 C 0.70521 0.01781 0.31204 0.0
C874 C 0.69832 0.01813 0.29017 0.0
C875 C 0.70084 -0.00048 0.27732 0.0
C876 C 0.68533 0.03634 0.2816 0.0
C877 C 0.70234 0.03714 0.32677 0.0
C878 C 0.66335 0.03286 0.27704 0.0
C879 C 0.64984 0.05027 0.27216 0.0
C880 C 0.6581 0.07143 0.27172 0.0
C881 C 0.68033 0.07484 0.27509 0.0
C882 C 0.69392 0.05735 0.27997 0.0
H883 H 0.70568 0.03314 0.34401 0.0
H884 H 0.71364 0.05019 0.32176 0.0
H885 H 0.68558 0.04357 0.32554 0.0
H886 H 0.65641 0.01679 0.27831 0.0
H887 H 0.6327 0.04729 0.2698 0.0
H888 H 0.08082 0.7245 0.32223 0.0
H889 H 0.04784 0.71974 0.30042 0.0
H890 H 0.00921 0.72235 0.35867 0.0
H891 H 0.04195 0.72752 0.38025 0.0
H892 H 0.02083 0.68676 0.30234 0.0
H893 H 0.97401 0.76074 0.32015 0.0
H894 H 0.00249 0.75843 0.32648 0.0
H895 H 0.98233 0.74795 0.34485 0.0
C896 C 0.06519 0.7244 0.33021 0.0
C897 C 0.06378 0.72657 0.35281 0.0
C898 C 0.04641 0.72176 0.3178 0.0
C899 C 0.02599 0.7212 0.32784 0.0
C900 C 0.02466 0.72352 0.35045 0.0
H901 H 0.90895 0.65772 0.31555 0.0
H902 H 0.94057 0.67974 0.32464 0.0
C903 C 0.04338 0.72634 0.36279 0.0
C904 C 0.00627 0.71577 0.31524 0.0
H905 H 0.9528 0.72898 0.30972 0.0
C906 C 0.00613 0.69632 0.30343 0.0
C907 C 0.98708 0.72829 0.31655 0.0
C908 C 0.98656 0.75013 0.32751 0.0
C909 C 0.98695 0.68828 0.29431 0.0
C910 C 0.9675 0.69999 0.29711 0.0
C911 C 0.96781 0.72004 0.30774 0.0
C912 C 0.94647 0.69006 0.29168 0.0
C913 C 0.98723 0.66665 0.2829 0.0
C914 C 0.93903 0.68924 0.27022 0.0
C915 C 0.92074 0.67688 0.26503 0.0
C916 C 0.90997 0.66504 0.28121 0.0
C917 C 0.91685 0.66686 0.30281 0.0
C918 C 0.93492 0.67934 0.30801 0.0
H919 H 0.00376 0.65957 0.28206 0.0
H920 H 0.97644 0.65511 0.2915 0.0
H921 H 0.98092 0.66854 0.26616 0.0
H922 H 0.94781 0.69748 0.25745 0.0
H923 H 0.91548 0.67593 0.24831 0.0
H924 H 0.37184 0.95306 0.25313 0.0
H925 H 0.3494 0.98434 0.26237 0.0
H926 H 0.29698 0.9417 0.2801 0.0
H927 H 0.31924 0.91021 0.27012 0.0
H928 H 0.28496 0.98438 0.25861 0.0
H929 H 0.34004 0.98984 0.3298 0.0
H930 H 0.35315 0.98946 0.3038 0.0
H931 H 0.33853 0.96601 0.31292 0.0
C932 C 0.35526 0.95037 0.25819 0.0
C933 C 0.34724 0.92929 0.26108 0.0
C934 C 0.34252 0.96823 0.26357 0.0
C935 C 0.32168 0.96524 0.27209 0.0
C936 C 0.31304 0.94427 0.2735 0.0
H937 H 0.26328 0.05011 0.36473 0.0
H938 H 0.27333 0.01863 0.34313 0.0
C939 C 0.32576 0.92636 0.26797 0.0
C940 C 0.31039 0.98357 0.28247 0.0
H941 H 0.31403 0.01743 0.3259 0.0
C942 C 0.29121 0.99166 0.27333 0.0
C943 C 0.31854 0.99272 0.30181 0.0
C944 C 0.33859 0.98401 0.31282 0.0
C945 C 0.28006 0.00903 0.28301 0.0
C946 C 0.2885 0.01844 0.30211 0.0
C947 C 0.30761 0.01018 0.31123 0.0
C948 C 0.27791 0.03671 0.31344 0.0
C949 C 0.25922 0.01694 0.273 0.0
C950 C 0.27644 0.05722 0.30369 0.0
C951 C 0.27029 0.07525 0.31599 0.0
C952 C 0.26589 0.07298 0.3382 0.0
C953 C 0.26627 0.05227 0.34757 0.0
C954 C 0.27215 0.0343 0.33529 0.0
H955 H 0.25235 0.00492 0.2615 0.0
H956 H 0.24699 0.02052 0.2857 0.0
H957 H 0.26242 0.03214 0.26395 0.0
H958 H 0.28118 0.05949 0.28695 0.0
H959 H 0.27 0.09111 0.30846 0.0
H960 H 0.90867 0.72292 0.68248 0.0
H961 H 0.94116 0.71294 0.70339 0.0
H962 H 0.97617 0.70267 0.64374 0.0
H963 H 0.94394 0.71261 0.623 0.0
H964 H 0.96343 0.67409 0.70246 0.0
H965 H 0.01767 0.74089 0.67762 0.0
H966 H 0.9887 0.74191 0.67365 0.0
H967 H 0.0057 0.72767 0.65468 0.0
C968 C 0.9234 0.71862 0.67396 0.0
C969 C 0.92397 0.7186 0.65122 0.0
C970 C 0.94189 0.71301 0.68585 0.0
C971 C 0.96119 0.70752 0.67511 0.0
C972 C 0.96165 0.70746 0.65237 0.0
H973 H 0.07522 0.63647 0.6894 0.0
H974 H 0.04232 0.65647 0.67983 0.0
C975 C 0.94324 0.71304 0.64054 0.0
C976 C 0.98057 0.70048 0.68736 0.0
H977 H 0.03522 0.70834 0.69076 0.0
C978 C 0.97904 0.68187 0.70036 0.0
C979 C 0.0009 0.71074 0.68468 0.0
C980 C 0.00332 0.73154 0.67208 0.0
C981 C 0.99759 0.67242 0.70952 0.0
C982 C 0.01803 0.68188 0.70557 0.0
C983 C 0.01945 0.70112 0.69362 0.0
C984 C 0.03822 0.67065 0.7116 0.0
C985 C 0.99552 0.65174 0.72237 0.0
C986 C 0.0468 0.67229 0.73259 0.0
C987 C 0.06573 0.66102 0.73804 0.0
C988 C 0.07612 0.64795 0.72257 0.0
C989 C 0.06757 0.64659 0.70154 0.0
C990 C 0.0488 0.6579 0.69609 0.0
H991 H 0.97837 0.6467 0.72446 0.0
H992 H 0.00447 0.63854 0.71403 0.0
H993 H 0.00296 0.6539 0.73861 0.0
H994 H 0.03881 0.68217 0.7447 0.0
H995 H 0.07223 0.66248 0.75427 0.0
H996 H 0.36782 0.04809 0.74544 0.0
H997 H 0.34889 0.01447 0.73712 0.0
H998 H 0.29456 0.05094 0.71262 0.0
H999 H 0.31302 0.08485 0.72212 0.0
H1000 H 0.28309 0.01033 0.7336 0.0
H1001 H 0.34791 0.00234 0.67146 0.0
H1002 H 0.35742 0.00439 0.69888 0.0
H1003 H 0.34369 0.02696 0.68661 0.0
C1004 C 0.35145 0.04902 0.73926 0.0
C1005 C 0.34186 0.06909 0.7344 0.0
C1006 C 0.34075 0.02976 0.73427 0.0
C1007 C 0.32054 0.03028 0.72393 0.0
C1008 C 0.3102 0.05024 0.72057 0.0
H1009 H 0.27419 0.94405 0.62755 0.0
H1010 H 0.2835 0.97475 0.65055 0.0
C1011 C 0.32079 0.06955 0.72584 0.0
C1012 C 0.31178 0.01046 0.71376 0.0
H1013 H 0.32223 0.97436 0.67328 0.0
C1014 C 0.29163 0.00233 0.72049 0.0
C1015 C 0.32291 0.00033 0.69646 0.0
C1016 C 0.34408 0.009 0.68775 0.0
C1017 C 0.28226 0.98427 0.71022 0.0
C1018 C 0.29348 0.97416 0.69301 0.0
C1019 C 0.31373 0.98215 0.68655 0.0
C1020 C 0.28419 0.95614 0.68027 0.0
C1021 C 0.2602 0.97654 0.71732 0.0
C1022 C 0.28094 0.93559 0.68947 0.0
C1023 C 0.27526 0.91799 0.67631 0.0
C1024 C 0.27305 0.92078 0.65383 0.0
C1025 C 0.27549 0.94153 0.64487 0.0
C1026 C 0.28094 0.95904 0.65797 0.0
H1027 H 0.25206 0.9884 0.72815 0.0
H1028 H 0.24968 0.97352 0.70304 0.0
H1029 H 0.26196 0.96103 0.72624 0.0
H1030 H 0.2837 0.93297 0.70661 0.0
H1031 H 0.27335 0.90211 0.68352 0.0
H1032 H 0.94362 0.38147 0.7097 0.0
H1033 H 0.97504 0.36093 0.697 0.0
H1034 H 0.94243 0.3011 0.71268 0.0
H1035 H 0.91071 0.3218 0.72523 0.0
H1036 H 0.00136 0.3317 0.7186 0.0
H1037 H 0.95903 0.29264 0.6491 0.0
H1038 H 0.94743 0.31506 0.66385 0.0
H1039 H 0.94726 0.28835 0.67539 0.0
C1040 C 0.94325 0.36394 0.71053 0.0
C1041 C 0.92485 0.35311 0.71825 0.0
C1042 C 0.96115 0.35224 0.70328 0.0
C1043 C 0.96094 0.3295 0.70365 0.0
C1044 C 0.94273 0.31863 0.71188 0.0
H1045 H 0.06587 0.24957 0.64818 0.0
H1046 H 0.03366 0.25957 0.6695 0.0
C1047 C 0.92472 0.33039 0.71907 0.0
C1048 C 0.97985 0.31752 0.69505 0.0
H1049 H 0.9963 0.28573 0.65283 0.0
C1050 C 0.00022 0.32143 0.70439 0.0
C1051 C 0.97828 0.30408 0.67653 0.0
C1052 C 0.95688 0.29984 0.66546 0.0
C1053 C 0.01916 0.31291 0.69522 0.0
C1054 C 0.01767 0.30029 0.67619 0.0
C1055 C 0.99727 0.29543 0.66746 0.0
C1056 C 0.03718 0.29399 0.66389 0.0
C1057 C 0.04072 0.31793 0.70558 0.0
C1058 C 0.04948 0.31004 0.65355 0.0
C1059 C 0.06755 0.30438 0.64125 0.0
C1060 C 0.07366 0.28257 0.63916 0.0
C1061 C 0.06135 0.26648 0.64952 0.0
C1062 C 0.04309 0.27215 0.66171 0.0
H1063 H 0.03883 0.323 0.72276 0.0
H1064 H 0.05165 0.30364 0.70489 0.0
H1065 H 0.04858 0.33138 0.69662 0.0
H1066 H 0.0449 0.32695 0.65475 0.0
H1067 H 0.07659 0.31703 0.63312 0.0
H1068 H 0.65797 0.92733 0.694 0.0
H1069 H 0.68152 0.95877 0.68984 0.0
H1070 H 0.688 0.96339 0.75931 0.0
H1071 H 0.66444 0.93154 0.76351 0.0
H1072 H 0.67416 0.00117 0.74059 0.0
H1073 H 0.74587 0.97105 0.69655 0.0
H1074 H 0.72139 0.96175 0.68397 0.0
H1075 H 0.7278 0.95322 0.71116 0.0
C1076 C 0.665 0.93459 0.70835 0.0
C1077 C 0.65951 0.92704 0.72907 0.0
C1078 C 0.6785 0.95253 0.70597 0.0
C1079 C 0.68681 0.96321 0.72426 0.0
C1080 C 0.68193 0.95524 0.745 0.0
H1081 H 0.75531 0.0812 0.68198 0.0
H1082 H 0.74884 0.04968 0.70558 0.0
C1083 C 0.66847 0.93717 0.74738 0.0
C1084 C 0.69799 0.98422 0.72146 0.0
H1085 H 0.73596 0.00882 0.68978 0.0
C1086 C 0.68809 0.00283 0.73 0.0
C1087 C 0.71637 0.98641 0.70797 0.0
C1088 C 0.7286 0.96698 0.6996 0.0
C1089 C 0.69477 0.02359 0.72365 0.0
C1090 C 0.71156 0.02567 0.70823 0.0
C1091 C 0.72287 0.00717 0.7014 0.0
C1092 C 0.71518 0.04617 0.6964 0.0
C1093 C 0.68304 0.04306 0.73262 0.0
C1094 C 0.69842 0.05456 0.68355 0.0
C1095 C 0.70216 0.07215 0.66994 0.0
C1096 C 0.72276 0.08168 0.6689 0.0
C1097 C 0.73938 0.07386 0.68233 0.0
C1098 C 0.73567 0.05604 0.69588 0.0
H1099 H 0.67647 0.03968 0.74904 0.0
H1100 H 0.69388 0.0574 0.73352 0.0
H1101 H 0.66919 0.04708 0.72189 0.0
H1102 H 0.68264 0.04686 0.6833 0.0
H1103 H 0.68918 0.07768 0.6595 0.0
H1104 H 0.31707 0.24267 0.07586 0.0
H1105 H 0.29485 0.24666 0.04282 0.0
H1106 H 0.32558 0.30803 0.02977 0.0
H1107 H 0.34775 0.30404 0.06232 0.0
H1108 H 0.26705 0.28819 0.02915 0.0
H1109 H 0.3349 0.26429 0.97522 0.0
H1110 H 0.33292 0.25552 0.00312 0.0
H1111 H 0.34229 0.28236 0.99687 0.0
C1112 C 0.31885 0.25703 0.06594 0.0
C1113 C 0.33402 0.27307 0.07149 0.0
C1114 C 0.3062 0.2593 0.04721 0.0
C1115 C 0.30883 0.27753 0.03389 0.0
C1116 C 0.32348 0.29381 0.03985 0.0
H1117 H 0.26404 0.36283 0.94561 0.0
H1118 H 0.26919 0.33857 0.97624 0.0
C1119 C 0.33598 0.2916 0.05849 0.0
C1120 C 0.29696 0.27983 0.01328 0.0
H1121 H 0.30713 0.28652 0.95946 0.0
C1122 C 0.27551 0.28722 0.01377 0.0
C1123 C 0.30795 0.27819 0.99329 0.0
C1124 C 0.33075 0.26947 0.99196 0.0
C1125 C 0.26546 0.29499 0.9949 0.0
C1126 C 0.27738 0.29565 0.97532 0.0
C1127 C 0.29804 0.28619 0.9745 0.0
C1128 C 0.27059 0.30935 0.95683 0.0
C1129 C 0.24258 0.30345 0.99634 0.0
C1130 C 0.26983 0.30106 0.93564 0.0
C1131 C 0.26682 0.31503 0.918 0.0
C1132 C 0.26485 0.33744 0.92138 0.0
C1133 C 0.26504 0.34557 0.9426 0.0
C1134 C 0.26791 0.33168 0.96014 0.0
H1135 H 0.23324 0.29455 0.00889 0.0
H1136 H 0.24297 0.32078 0.00112 0.0
H1137 H 0.23402 0.30203 0.98058 0.0
H1138 H 0.27217 0.28391 0.93273 0.0
H1139 H 0.26665 0.30845 0.90173 0.0
H1140 H 0.30965 0.66794 0.07989 0.0
H1141 H 0.31537 0.69138 0.04863 0.0
H1142 H 0.24707 0.70613 0.04689 0.0
H1143 H 0.24137 0.68294 0.0788 0.0
H1144 H 0.26308 0.6878 0.00876 0.0
H1145 H 0.31508 0.75607 0.03406 0.0
H1146 H 0.32491 0.73076 0.04447 0.0
H1147 H 0.29886 0.74074 0.05306 0.0
C1148 C 0.296 0.67687 0.0734 0.0
C1149 C 0.27505 0.67354 0.08154 0.0
C1150 C 0.29928 0.69028 0.05554 0.0
C1151 C 0.28166 0.70062 0.04553 0.0
C1152 C 0.26087 0.69838 0.05447 0.0
H1153 H 0.32464 0.75943 0.92269 0.0
H1154 H 0.30174 0.75607 0.95516 0.0
C1155 C 0.25763 0.68509 0.07255 0.0
C1156 C 0.28478 0.71057 0.02396 0.0
H1157 H 0.31927 0.74395 0.99664 0.0
C1158 C 0.27487 0.70056 0.00609 0.0
C1159 C 0.29996 0.72735 0.0205 0.0
C1160 C 0.31014 0.7395 0.03909 0.0
C1161 C 0.28131 0.70546 0.98487 0.0
C1162 C 0.29812 0.72061 0.98155 0.0
C1163 C 0.30652 0.73213 0.99926 0.0
C1164 C 0.30946 0.7223 0.96053 0.0
C1165 C 0.27092 0.69354 0.96624 0.0
C1166 C 0.32117 0.70439 0.95283 0.0
C1167 C 0.33446 0.7064 0.93469 0.0
C1168 C 0.33626 0.72634 0.92395 0.0
C1169 C 0.32377 0.744 0.93101 0.0
C1170 C 0.31061 0.74207 0.94937 0.0
H1171 H 0.2543 0.68805 0.97046 0.0
H1172 H 0.27011 0.70388 0.95154 0.0
H1173 H 0.28073 0.67897 0.96236 0.0
H1174 H 0.32081 0.68911 0.96146 0.0
H1175 H 0.3441 0.69262 0.92966 0.0
H1176 H 0.63398 0.26362 0.9476 0.0
H1177 H 0.65771 0.27031 0.97848 0.0
H1178 H 0.71329 0.26992 0.93601 0.0
H1179 H 0.68922 0.26369 0.90478 0.0
H1180 H 0.69213 0.24956 0.99688 0.0
H1181 H 0.7171 0.3295 0.96294 0.0
H1182 H 0.69549 0.31378 0.95119 0.0
H1183 H 0.72322 0.30607 0.94681 0.0
C1184 C 0.6513 0.26455 0.94493 0.0
C1185 C 0.65988 0.2632 0.92395 0.0
C1186 C 0.66485 0.26839 0.96255 0.0
C1187 C 0.68724 0.27091 0.95953 0.0
C1188 C 0.69601 0.26844 0.93865 0.0
H1189 H 0.76104 0.33226 0.06544 0.0
H1190 H 0.75606 0.30842 0.0339 0.0
C1191 C 0.68235 0.26478 0.9209 0.0
C1192 C 0.70068 0.2778 0.97819 0.0
H1193 H 0.7267 0.32207 0.99874 0.0
C1194 C 0.70011 0.26522 0.99716 0.0
C1195 C 0.71114 0.29823 0.97852 0.0
C1196 C 0.71173 0.31281 0.95887 0.0
C1197 C 0.7084 0.27315 0.01678 0.0
C1198 C 0.71751 0.29411 0.01736 0.0
C1199 C 0.71971 0.30596 0.99811 0.0
C1200 C 0.72139 0.30553 0.03802 0.0
C1201 C 0.70639 0.25955 0.03697 0.0
C1202 C 0.70356 0.31163 0.0507 0.0
C1203 C 0.70627 0.32554 0.06828 0.0
C1204 C 0.72691 0.33346 0.07362 0.0
C1205 C 0.74493 0.32651 0.06153 0.0
C1206 C 0.74215 0.31282 0.04367 0.0
H1207 H 0.70488 0.24205 0.03301 0.0
H1208 H 0.72059 0.26192 0.04777 0.0
H1209 H 0.69164 0.26452 0.04598 0.0
H1210 H 0.68734 0.30657 0.04628 0.0
H1211 H 0.69202 0.331 0.07691 0.0
H1212 H 0.6547 0.68954 0.07883 0.0
H1213 H 0.67636 0.68364 0.04623 0.0
H1214 H 0.6972 0.75029 0.04766 0.0
H1215 H 0.6762 0.75608 0.08113 0.0
H1216 H 0.67187 0.72672 0.00619 0.0
H1217 H 0.74829 0.69084 0.03764 0.0
H1218 H 0.7235 0.68322 0.05106 0.0
H1219 H 0.73279 0.71071 0.05264 0.0
C1220 C 0.66437 0.70278 0.07257 0.0
C1221 C 0.66368 0.72331 0.08232 0.0
C1222 C 0.6766 0.69943 0.05391 0.0
C1223 C 0.68824 0.71656 0.04464 0.0
C1224 C 0.68824 0.73693 0.05468 0.0
H1225 H 0.72986 0.68912 0.9098 0.0
H1226 H 0.72345 0.71169 0.94217 0.0
C1227 C 0.67617 0.74023 0.0736 0.0
C1228 C 0.69882 0.71308 0.02354 0.0
H1229 H 0.73976 0.68408 0.00059 0.0
C1230 C 0.68705 0.71797 0.00474 0.0
C1231 C 0.71851 0.70162 0.02198 0.0
C1232 C 0.73168 0.69634 0.04186 0.0
C1233 C 0.6936 0.71006 0.98445 0.0
C1234 C 0.7126 0.6973 0.98307 0.0
C1235 C 0.72522 0.69388 0.00171 0.0
C1236 C 0.71765 0.68442 0.96349 0.0
C1237 C 0.67922 0.71387 0.96503 0.0
C1238 C 0.71686 0.66176 0.96492 0.0
C1239 C 0.72055 0.64904 0.94668 0.0
C1240 C 0.72512 0.65874 0.92665 0.0
C1241 C 0.72615 0.6814 0.92513 0.0
C1242 C 0.72251 0.69422 0.94352 0.0
H1243 H 0.66361 0.72162 0.96952 0.0
H1244 H 0.68767 0.72463 0.95337 0.0
H1245 H 0.67573 0.69833 0.95666 0.0
H1246 H 0.71299 0.65388 0.98013 0.0
H1247 H 0.71953 0.63158 0.94815 0.0
H1248 H 0.2141 0.56973 0.1592 0.0
H1249 H 0.20554 0.53592 0.17785 0.0
H1250 H 0.26473 0.54079 0.21455 0.0
H1251 H 0.27349 0.57472 0.19604 0.0
H1252 H 0.24492 0.5019 0.17287 0.0
H1253 H 0.21099 0.51601 0.25545 0.0
H1254 H 0.20529 0.53481 0.23374 0.0
H1255 H 0.23212 0.53316 0.24466 0.0
C1256 C 0.22484 0.56416 0.17192 0.0
C1257 C 0.24463 0.57471 0.17588 0.0
C1258 C 0.21998 0.54478 0.18246 0.0
C1259 C 0.23471 0.53583 0.19723 0.0
C1260 C 0.25323 0.54754 0.20313 0.0
H1261 H 0.20481 0.41148 0.25506 0.0
H1262 H 0.22961 0.44025 0.24423 0.0
C1263 C 0.25809 0.56703 0.19264 0.0
C1264 C 0.23232 0.51293 0.20352 0.0
H1265 H 0.21061 0.48022 0.24218 0.0
C1266 C 0.23774 0.49704 0.18817 0.0
C1267 C 0.22335 0.5068 0.22357 0.0
C1268 C 0.21756 0.52348 0.24044 0.0
C1269 C 0.23324 0.4751 0.19191 0.0
C1270 C 0.22281 0.46906 0.21136 0.0
C1271 C 0.21869 0.48486 0.22728 0.0
C1272 C 0.21293 0.44741 0.21427 0.0
C1273 C 0.23911 0.4587 0.17477 0.0
C1274 C 0.19628 0.44088 0.20022 0.0
C1275 C 0.18207 0.4244 0.20631 0.0
C1276 C 0.18411 0.41446 0.22672 0.0
C1277 C 0.20259 0.41896 0.23933 0.0
C1278 C 0.21677 0.43551 0.23324 0.0
H1279 H 0.25336 0.46414 0.16523 0.0
H1280 H 0.24273 0.44263 0.18201 0.0
H1281 H 0.22532 0.45686 0.16339 0.0
H1282 H 0.19286 0.44995 0.18559 0.0
H1283 H 0.16817 0.42116 0.19609 0.0
H1284 H 0.43998 0.28609 0.17743 0.0
H1285 H 0.47294 0.27602 0.19644 0.0
H1286 H 0.45196 0.2093 0.19756 0.0
H1287 H 0.4198 0.21912 0.17641 0.0
H1288 H 0.48899 0.25964 0.22961 0.0
H1289 H 0.50494 0.20184 0.16328 0.0
H1290 H 0.48182 0.21958 0.16307 0.0
H1291 H 0.48089 0.19413 0.17749 0.0
C1292 C 0.44203 0.26934 0.18231 0.0
C1293 C 0.42748 0.25329 0.17523 0.0
C1294 C 0.46102 0.26358 0.1931 0.0
C1295 C 0.46547 0.24173 0.19756 0.0
C1296 C 0.44941 0.22611 0.19329 0.0
H1297 H 0.56529 0.19033 0.27608 0.0
H1298 H 0.53789 0.21446 0.26195 0.0
C1299 C 0.43082 0.23175 0.18162 0.0
C1300 C 0.48756 0.23521 0.20465 0.0
H1301 H 0.5277 0.19886 0.19423 0.0
C1302 C 0.49757 0.24648 0.22173 0.0
C1303 C 0.49937 0.21884 0.1937 0.0
C1304 C 0.4913 0.20814 0.17321 0.0
C1305 C 0.51855 0.24114 0.22877 0.0
C1306 C 0.52932 0.22315 0.21939 0.0
C1307 C 0.51961 0.21253 0.20173 0.0
C1308 C 0.54936 0.21343 0.22873 0.0
C1309 C 0.52894 0.25519 0.24586 0.0
C1310 C 0.56553 0.20491 0.21504 0.0
C1311 C 0.58065 0.19003 0.22302 0.0
C1312 C 0.58042 0.18422 0.24498 0.0
C1313 C 0.56609 0.19483 0.25912 0.0
C1314 C 0.55038 0.20887 0.25101 0.0
H1315 H 0.52411 0.2724 0.2437 0.0
H1316 H 0.52316 0.25007 0.2621 0.0
H1317 H 0.5469 0.2542 0.24541 0.0
H1318 H 0.56534 0.20831 0.19782 0.0
H1319 H 0.59148 0.18196 0.2118 0.0
H1320 H 0.78761 0.42109 0.16902 0.0
H1321 H 0.7958 0.4521 0.19222 0.0
H1322 H 0.7338 0.44537 0.22355 0.0
H1323 H 0.72558 0.41408 0.20076 0.0
H1324 H 0.74891 0.48597 0.19038 0.0
H1325 H 0.79602 0.46756 0.26519 0.0
H1326 H 0.80179 0.45238 0.24086 0.0
H1327 H 0.77626 0.4489 0.2542 0.0
C1328 C 0.77621 0.42546 0.18164 0.0
C1329 C 0.75583 0.41537 0.18282 0.0
C1330 C 0.78087 0.44323 0.1948 0.0
C1331 C 0.76524 0.45106 0.20929 0.0
C1332 C 0.74602 0.43945 0.21243 0.0
H1333 H 0.78881 0.57535 0.27196 0.0
H1334 H 0.76712 0.54407 0.26116 0.0
C1335 C 0.74145 0.42145 0.19946 0.0
C1336 C 0.76719 0.47343 0.21737 0.0
H1337 H 0.79363 0.50442 0.25453 0.0
C1338 C 0.75833 0.49009 0.20465 0.0
C1339 C 0.77938 0.47853 0.23596 0.0
C1340 C 0.78891 0.46098 0.25001 0.0
C1341 C 0.76242 0.51191 0.20943 0.0
C1342 C 0.77563 0.51703 0.22735 0.0
C1343 C 0.78342 0.50037 0.24081 0.0
C1344 C 0.78403 0.53913 0.2309 0.0
C1345 C 0.75327 0.52931 0.19493 0.0
C1346 C 0.79989 0.54732 0.21685 0.0
C1347 C 0.81246 0.56508 0.22301 0.0
C1348 C 0.80929 0.57487 0.24333 0.0
C1349 C 0.79165 0.56821 0.25618 0.0
C1350 C 0.7793 0.55024 0.25013 0.0
H1351 H 0.73962 0.52317 0.18493 0.0
H1352 H 0.74759 0.54334 0.20466 0.0
H1353 H 0.76617 0.53514 0.18383 0.0
H1354 H 0.80385 0.53883 0.20199 0.0
H1355 H 0.82588 0.56987 0.21276 0.0
H1356 H 0.41732 0.79852 0.26788 0.0
H1357 H 0.4477 0.77364 0.26368 0.0
H1358 H 0.45763 0.79653 0.19847 0.0
H1359 H 0.42742 0.82162 0.20245 0.0
H1360 H 0.46992 0.7501 0.2084 0.0
H1361 H 0.48022 0.79949 0.27143 0.0
H1362 H 0.47937 0.81754 0.24868 0.0
H1363 H 0.50446 0.81338 0.26308 0.0
C1364 C 0.42526 0.79762 0.25225 0.0
C1365 C 0.42054 0.81276 0.23579 0.0
C1366 C 0.44272 0.7834 0.24996 0.0
C1367 C 0.45526 0.78388 0.23107 0.0
C1368 C 0.44826 0.79623 0.21332 0.0
H1369 H 0.57549 0.78594 0.17791 0.0
H1370 H 0.54374 0.79358 0.20015 0.0
C1371 C 0.4309 0.81054 0.21561 0.0
C1372 C 0.4776 0.77539 0.23106 0.0
H1373 H 0.52888 0.78987 0.24607 0.0
C1374 C 0.48281 0.75831 0.21708 0.0
C1375 C 0.4943 0.78647 0.24227 0.0
C1376 C 0.48949 0.80531 0.25716 0.0
C1377 C 0.50448 0.75268 0.21313 0.0
C1378 C 0.52122 0.76445 0.22355 0.0
C1379 C 0.51595 0.78079 0.23837 0.0
C1380 C 0.5439 0.76244 0.21624 0.0
C1381 C 0.50936 0.73523 0.19666 0.0
C1382 C 0.55553 0.74322 0.21947 0.0
C1383 C 0.57387 0.73888 0.20693 0.0
C1384 C 0.58046 0.75362 0.19078 0.0
C1385 C 0.57063 0.77416 0.18998 0.0
C1386 C 0.55242 0.77851 0.20263 0.0
H1387 H 0.49448 0.72906 0.1886 0.0
H1388 H 0.52052 0.74154 0.18403 0.0
H1389 H 0.51752 0.72142 0.20478 0.0
H1390 H 0.54931 0.73079 0.2302 0.0
H1391 H 0.58117 0.72296 0.2081 0.0
H1392 H 0.21358 0.42619 0.81867 0.0
H1393 H 0.20859 0.45881 0.79691 0.0
H1394 H 0.27544 0.45599 0.77692 0.0
H1395 H 0.28054 0.42316 0.79832 0.0
H1396 H 0.26255 0.49284 0.80407 0.0
H1397 H 0.20866 0.48159 0.73295 0.0
H1398 H 0.19994 0.46771 0.75703 0.0
H1399 H 0.22484 0.45985 0.74415 0.0
C1400 C 0.22692 0.43182 0.80873 0.0
C1401 C 0.24754 0.42232 0.81058 0.0
C1402 C 0.22406 0.45052 0.79633 0.0
C1403 C 0.24175 0.45991 0.78558 0.0
C1404 C 0.26163 0.44897 0.78517 0.0
H1405 H 0.21268 0.5873 0.7346 0.0
H1406 H 0.2376 0.5576 0.74188 0.0
C1407 C 0.26443 0.43006 0.79731 0.0
C1408 C 0.24045 0.48285 0.77888 0.0
H1409 H 0.21046 0.51741 0.74808 0.0
C1410 C 0.25161 0.49827 0.79143 0.0
C1411 C 0.2262 0.48982 0.76244 0.0
C1412 C 0.21434 0.47389 0.74821 0.0
C1413 C 0.24762 0.52053 0.78896 0.0
C1414 C 0.23225 0.52737 0.77352 0.0
C1415 C 0.22229 0.51205 0.75993 0.0
C1416 C 0.22373 0.54972 0.77303 0.0
C1417 C 0.25905 0.53652 0.80345 0.0
C1418 C 0.20883 0.55613 0.78895 0.0
C1419 C 0.19428 0.57297 0.78476 0.0
C1420 C 0.19443 0.58343 0.7645 0.0
C1421 C 0.2118 0.57935 0.75023 0.0
C1422 C 0.22611 0.5623 0.7543 0.0
H1423 H 0.2737 0.52934 0.81109 0.0
H1424 H 0.26385 0.55117 0.79416 0.0
H1425 H 0.24783 0.54172 0.81652 0.0
H1426 H 0.20678 0.54657 0.80353 0.0
H1427 H 0.18136 0.57591 0.79627 0.0
H1428 H 0.56085 0.28313 0.81285 0.0
H1429 H 0.52711 0.2759 0.794 0.0
H1430 H 0.54187 0.20755 0.79364 0.0
H1431 H 0.57489 0.21457 0.81451 0.0
H1432 H 0.50813 0.25984 0.76157 0.0
H1433 H 0.49016 0.20666 0.83119 0.0
H1434 H 0.51463 0.22239 0.82965 0.0
H1435 H 0.51287 0.19634 0.81641 0.0
C1436 C 0.55735 0.26658 0.80814 0.0
C1437 C 0.57025 0.24931 0.81561 0.0
C1438 C 0.5379 0.26247 0.7974 0.0
C1439 C 0.5314 0.24108 0.7934 0.0
C1440 C 0.54606 0.22412 0.79759 0.0
H1441 H 0.4262 0.19351 0.72163 0.0
H1442 H 0.45459 0.21768 0.73335 0.0
C1443 C 0.56512 0.22813 0.80914 0.0
C1444 C 0.50851 0.23644 0.78753 0.0
H1445 H 0.46585 0.20447 0.80145 0.0
C1446 C 0.49877 0.24786 0.7704 0.0
C1447 C 0.49579 0.2218 0.7998 0.0
C1448 C 0.50382 0.21135 0.82044 0.0
C1449 C 0.4771 0.24411 0.76448 0.0
C1450 C 0.46523 0.22761 0.77516 0.0
C1451 C 0.47473 0.21703 0.79296 0.0
C1452 C 0.44423 0.21897 0.76693 0.0
C1453 C 0.46722 0.2582 0.74712 0.0
C1454 C 0.42813 0.212 0.78155 0.0
C1455 C 0.41243 0.19703 0.77501 0.0
C1456 C 0.412 0.18967 0.75352 0.0
C1457 C 0.42596 0.19915 0.73826 0.0
C1458 C 0.44227 0.21323 0.74499 0.0
H1459 H 0.47339 0.27506 0.74841 0.0
H1460 H 0.47208 0.25201 0.73095 0.0
H1461 H 0.44927 0.2586 0.74814 0.0
H1462 H 0.42899 0.21642 0.79852 0.0
H1463 H 0.40185 0.18991 0.78706 0.0
H1464 H 0.72929 0.58134 0.79741 0.0
H1465 H 0.73785 0.54842 0.77736 0.0
H1466 H 0.80126 0.5469 0.8065 0.0
H1467 H 0.79281 0.57968 0.8269 0.0
H1468 H 0.79437 0.52653 0.76033 0.0
H1469 H 0.74237 0.49958 0.82897 0.0
H1470 H 0.73093 0.51946 0.81091 0.0
H1471 H 0.7537 0.5264 0.82757 0.0
C1472 C 0.74553 0.57479 0.79867 0.0
C1473 C 0.76013 0.58266 0.81436 0.0
C1474 C 0.75032 0.55584 0.78724 0.0
C1475 C 0.76991 0.54502 0.79099 0.0
C1476 C 0.78595 0.55499 0.80361 0.0
H1477 H 0.82735 0.42408 0.80046 0.0
H1478 H 0.80557 0.45585 0.8092 0.0
C1479 C 0.78111 0.5738 0.8152 0.0
C1480 C 0.77178 0.52165 0.78637 0.0
H1481 H 0.7576 0.47228 0.80714 0.0
C1482 C 0.78607 0.51463 0.77023 0.0
C1483 C 0.76118 0.50628 0.79974 0.0
C1484 C 0.74627 0.51319 0.81789 0.0
C1485 C 0.7904 0.49249 0.76738 0.0
C1486 C 0.7799 0.47713 0.78085 0.0
C1487 C 0.76528 0.48413 0.79669 0.0
C1488 C 0.78613 0.45408 0.78011 0.0
C1489 C 0.8069 0.48567 0.75061 0.0
C1490 C 0.78073 0.44141 0.76207 0.0
C1491 C 0.79297 0.42302 0.75717 0.0
C1492 C 0.81114 0.41765 0.76994 0.0
C1493 C 0.81381 0.4281 0.79003 0.0
C1494 C 0.80143 0.44636 0.79502 0.0
H1495 H 0.81626 0.49964 0.74425 0.0
H1496 H 0.8185 0.47379 0.75752 0.0
H1497 H 0.79846 0.47774 0.73685 0.0
H1498 H 0.76872 0.44704 0.75057 0.0
H1499 H 0.7901 0.41508 0.74178 0.0
H1500 H 0.42357 0.78907 0.8296 0.0
H1501 H 0.45384 0.7986 0.80596 0.0
H1502 H 0.4514 0.73519 0.77683 0.0
H1503 H 0.42083 0.72563 0.8 0.0
H1504 H 0.49046 0.74817 0.80453 0.0
H1505 H 0.46969 0.80577 0.7384 0.0
H1506 H 0.45653 0.81024 0.76406 0.0
H1507 H 0.45058 0.78617 0.74889 0.0
C1508 C 0.42872 0.77755 0.81739 0.0
C1509 C 0.42005 0.7565 0.81693 0.0
C1510 C 0.44605 0.78299 0.80393 0.0
C1511 C 0.45492 0.76746 0.78991 0.0
C1512 C 0.4447 0.74735 0.78758 0.0
H1513 H 0.57836 0.80017 0.72971 0.0
H1514 H 0.54817 0.77625 0.73873 0.0
C1515 C 0.42711 0.742 0.80078 0.0
C1516 C 0.47702 0.77074 0.78148 0.0
H1517 H 0.50684 0.80397 0.7491 0.0
C1518 C 0.4941 0.75999 0.79204 0.0
C1519 C 0.48157 0.78615 0.76527 0.0
C1520 C 0.46366 0.7977 0.75332 0.0
C1521 C 0.51575 0.76535 0.78771 0.0
C1522 C 0.52025 0.78165 0.77239 0.0
C1523 C 0.50322 0.7914 0.76085 0.0
C1524 C 0.5421 0.79094 0.76991 0.0
C1525 C 0.53365 0.75432 0.80015 0.0
C1526 C 0.54933 0.80623 0.78508 0.0
C1527 C 0.56642 0.82011 0.77992 0.0
C1528 C 0.57649 0.81879 0.75953 0.0
C1529 C 0.57098 0.80159 0.74558 0.0
C1530 C 0.55364 0.78795 0.75061 0.0
H1531 H 0.52784 0.73954 0.80863 0.0
H1532 H 0.54711 0.74984 0.78907 0.0
H1533 H 0.54022 0.76572 0.81241 0.0
H1534 H 0.54049 0.80877 0.80004 0.0
H1535 H 0.57034 0.83314 0.79101 0.0
H1536 H 0.27221 0.20068 0.41692 0.0
H1537 H 0.26734 0.2219 0.44987 0.0
H1538 H 0.20212 0.19778 0.45595 0.0
H1539 H 0.2068 0.17631 0.42314 0.0
H1540 H 0.21219 0.24307 0.47347 0.0
H1541 H 0.26517 0.17541 0.50182 0.0
H1542 H 0.27403 0.19172 0.47931 0.0
H1543 H 0.25108 0.17419 0.47622 0.0
C1544 C 0.25642 0.20067 0.42457 0.0
C1545 C 0.24014 0.18611 0.41789 0.0
C1546 C 0.25376 0.21276 0.44353 0.0
C1547 C 0.23466 0.21075 0.4556 0.0
C1548 C 0.21711 0.19923 0.44693 0.0
H1549 H 0.17483 0.20241 0.57188 0.0
H1550 H 0.19908 0.1941 0.54187 0.0
C1551 C 0.21979 0.18702 0.42809 0.0
C1552 C 0.23422 0.21664 0.47875 0.0
H1553 H 0.24787 0.19627 0.52844 0.0
C1554 C 0.22042 0.23329 0.48554 0.0
C1555 C 0.24486 0.20353 0.49434 0.0
C1556 C 0.25958 0.18512 0.48772 0.0
C1557 C 0.21616 0.2366 0.50761 0.0
C1558 C 0.22605 0.22287 0.52315 0.0
C1559 C 0.2406 0.20685 0.51643 0.0
C1560 C 0.21852 0.22297 0.54582 0.0
C1561 C 0.20001 0.25383 0.51411 0.0
C1562 C 0.22307 0.24064 0.5593 0.0
C1563 C 0.20937 0.2453 0.5767 0.0
C1564 C 0.19069 0.23264 0.58021 0.0
C1565 C 0.18876 0.21276 0.56924 0.0
C1566 C 0.20258 0.20801 0.55199 0.0
H1567 H 0.19226 0.26166 0.49988 0.0
H1568 H 0.18711 0.24673 0.52444 0.0
H1569 H 0.20834 0.26653 0.52373 0.0
H1570 H 0.23556 0.25216 0.55489 0.0
H1571 H 0.21165 0.26052 0.58513 0.0
H1572 H 0.72326 0.20174 0.57907 0.0
H1573 H 0.73016 0.22309 0.54649 0.0
H1574 H 0.79176 0.19123 0.53847 0.0
H1575 H 0.78499 0.16956 0.57087 0.0
H1576 H 0.78487 0.24163 0.52616 0.0
H1577 H 0.73064 0.17913 0.48961 0.0
H1578 H 0.7232 0.19222 0.51466 0.0
H1579 H 0.74551 0.17367 0.51421 0.0
C1580 C 0.73873 0.19991 0.571 0.0
C1581 C 0.75338 0.18354 0.57727 0.0
C1582 C 0.74253 0.21205 0.55228 0.0
C1583 C 0.76119 0.20828 0.53996 0.0
C1584 C 0.77715 0.19414 0.54777 0.0
H1585 H 0.82285 0.20917 0.42374 0.0
H1586 H 0.79814 0.19924 0.45289 0.0
C1587 C 0.7733 0.18185 0.56635 0.0
C1588 C 0.76274 0.21621 0.5175 0.0
H1589 H 0.75019 0.20139 0.46566 0.0
C1590 C 0.7769 0.23328 0.5129 0.0
C1591 C 0.75235 0.20502 0.50039 0.0
C1592 C 0.73706 0.18644 0.50477 0.0
C1593 C 0.78176 0.23887 0.49143 0.0
C1594 C 0.77215 0.22701 0.47426 0.0
C1595 C 0.75726 0.21054 0.47889 0.0
C1596 C 0.78028 0.22937 0.45191 0.0
C1597 C 0.79823 0.25649 0.48723 0.0
C1598 C 0.77687 0.24863 0.44039 0.0
C1599 C 0.79087 0.25427 0.42351 0.0
C1600 C 0.80862 0.24085 0.41845 0.0
C1601 C 0.80957 0.21999 0.42756 0.0
C1602 C 0.79548 0.21431 0.44429 0.0
H1603 H 0.80556 0.26277 0.50243 0.0
H1604 H 0.81141 0.25031 0.47664 0.0
H1605 H 0.79032 0.2702 0.4787 0.0
H1606 H 0.76497 0.26029 0.44594 0.0
H1607 H 0.7895 0.27037 0.41665 0.0
H1608 H 0.78788 0.73712 0.59013 0.0
H1609 H 0.76631 0.74387 0.55777 0.0
H1610 H 0.80147 0.8031 0.54646 0.0
H1611 H 0.82336 0.79644 0.57865 0.0
H1612 H 0.75422 0.79994 0.53085 0.0
H1613 H 0.81089 0.73448 0.50453 0.0
H1614 H 0.79434 0.73002 0.52813 0.0
H1615 H 0.81549 0.7499 0.52895 0.0
C1616 C 0.79033 0.75221 0.5815 0.0
C1617 C 0.80806 0.76577 0.58638 0.0
C1618 C 0.77803 0.75591 0.56286 0.0
C1619 C 0.78295 0.77351 0.54942 0.0
C1620 C 0.79776 0.78919 0.55653 0.0
H1621 H 0.79376 0.821 0.42611 0.0
H1622 H 0.80013 0.7999 0.45892 0.0
C1623 C 0.81018 0.78543 0.57505 0.0
C1624 C 0.77637 0.77345 0.52645 0.0
H1625 H 0.79163 0.75279 0.47734 0.0
C1626 C 0.76193 0.78932 0.51915 0.0
C1627 C 0.78681 0.75965 0.51132 0.0
C1628 C 0.80284 0.74257 0.51846 0.0
C1629 C 0.75823 0.79236 0.49694 0.0
C1630 C 0.76927 0.77911 0.48178 0.0
C1631 C 0.78308 0.76268 0.48909 0.0
C1632 C 0.76872 0.7844 0.45849 0.0
C1633 C 0.74349 0.81053 0.48974 0.0
C1634 C 0.74984 0.78091 0.44642 0.0
C1635 C 0.74625 0.79276 0.42746 0.0
C1636 C 0.76132 0.80858 0.42083 0.0
C1637 C 0.78169 0.80924 0.43102 0.0
C1638 C 0.78533 0.79723 0.44984 0.0
H1639 H 0.73798 0.82072 0.50352 0.0
H1640 H 0.7519 0.82109 0.47785 0.0
H1641 H 0.72901 0.80362 0.48161 0.0
H1642 H 0.73696 0.77085 0.45282 0.0
H1643 H 0.73048 0.79158 0.41984 0.0
H1644 H 0.21432 0.82183 0.56476 0.0
H1645 H 0.2073 0.79805 0.53392 0.0
H1646 H 0.27256 0.77351 0.53761 0.0
H1647 H 0.27965 0.7968 0.56874 0.0
H1648 H 0.25855 0.80021 0.49827 0.0
H1649 H 0.20531 0.73026 0.51777 0.0
H1650 H 0.19861 0.75546 0.53087 0.0
H1651 H 0.22364 0.74213 0.53733 0.0
C1652 C 0.22685 0.81061 0.55972 0.0
C1653 C 0.24764 0.8115 0.56897 0.0
C1654 C 0.22282 0.79706 0.54206 0.0
C1655 C 0.23952 0.78428 0.53343 0.0
C1656 C 0.25951 0.78329 0.54411 0.0
H1657 H 0.20172 0.72352 0.41293 0.0
H1658 H 0.22848 0.73153 0.44082 0.0
C1659 C 0.26345 0.79656 0.56201 0.0
C1660 C 0.23729 0.77571 0.51124 0.0
H1661 H 0.20637 0.74171 0.48081 0.0
C1662 C 0.24758 0.78703 0.49438 0.0
C1663 C 0.22306 0.75855 0.50636 0.0
C1664 C 0.21209 0.74572 0.52401 0.0
C1665 C 0.24272 0.78262 0.47262 0.0
C1666 C 0.2273 0.76648 0.46776 0.0
C1667 C 0.21827 0.75407 0.48461 0.0
C1668 C 0.21752 0.76437 0.44602 0.0
C1669 C 0.25328 0.79591 0.45507 0.0
C1670 C 0.20362 0.78077 0.43861 0.0
C1671 C 0.18812 0.77622 0.42279 0.0
C1672 C 0.1863 0.75516 0.41429 0.0
C1673 C 0.20251 0.73987 0.41927 0.0
C1674 C 0.21782 0.74435 0.43532 0.0
H1675 H 0.26899 0.80274 0.4606 0.0
H1676 H 0.25605 0.78606 0.44027 0.0
H1677 H 0.24247 0.80962 0.45074 0.0
H1678 H 0.20309 0.79633 0.44674 0.0
H1679 H 0.17603 0.78841 0.41912 0.0
H1680 H 0.12211 0.28227 0.51271 0.0
H1681 H 0.13053 0.29753 0.47729 0.0
H1682 H 0.17831 0.33937 0.50634 0.0
H1683 H 0.17007 0.3241 0.54208 0.0
H1684 H 0.12939 0.34256 0.46376 0.0
H1685 H 0.21106 0.30459 0.45764 0.0
H1686 H 0.19065 0.295 0.47627 0.0
H1687 H 0.20505 0.31957 0.48195 0.0
C1688 C 0.13429 0.29483 0.5117 0.0
C1689 C 0.14543 0.30193 0.53028 0.0
C1690 C 0.13908 0.30352 0.49141 0.0
C1691 C 0.1552 0.31934 0.48923 0.0
C1692 C 0.16599 0.32695 0.50773 0.0
H1693 H 0.17346 0.38989 0.36778 0.0
H1694 H 0.1713 0.38098 0.40638 0.0
C1695 C 0.16113 0.31833 0.52813 0.0
C1696 C 0.16065 0.32759 0.46743 0.0
H1697 H 0.19937 0.32559 0.42796 0.0
C1698 C 0.14476 0.33908 0.45597 0.0
C1699 C 0.18062 0.32269 0.45733 0.0
C1700 C 0.19786 0.30967 0.46878 0.0
C1701 C 0.14819 0.34562 0.43449 0.0
C1702 C 0.16817 0.34077 0.42437 0.0
C1703 C 0.18417 0.32944 0.43589 0.0
C1704 C 0.17213 0.34629 0.40139 0.0
C1705 C 0.1301 0.35697 0.42255 0.0
C1706 C 0.17431 0.32974 0.38595 0.0
C1707 C 0.17549 0.33479 0.3639 0.0
C1708 C 0.17436 0.35645 0.35703 0.0
C1709 C 0.17358 0.37303 0.37262 0.0
C1710 C 0.17246 0.36798 0.39464 0.0
H1711 H 0.11435 0.35546 0.43114 0.0
H1712 H 0.13399 0.37447 0.42112 0.0
H1713 H 0.12826 0.35031 0.40593 0.0
H1714 H 0.17423 0.31289 0.39089 0.0
H1715 H 0.17627 0.32173 0.35219 0.0
H1716 H 0.63835 0.18455 0.38105 0.0
H1717 H 0.64777 0.17836 0.41929 0.0
H1718 H 0.6504 0.10952 0.4075 0.0
H1719 H 0.64134 0.11566 0.36937 0.0
H1720 H 0.62544 0.12246 0.44511 0.0
H1721 H 0.70798 0.1587 0.44249 0.0
H1722 H 0.68631 0.17527 0.43224 0.0
H1723 H 0.69355 0.1508 0.41828 0.0
C1724 C 0.64097 0.16814 0.38671 0.0
C1725 C 0.63855 0.15053 0.37252 0.0
C1726 C 0.64636 0.16463 0.40846 0.0
C1727 C 0.64968 0.14348 0.41616 0.0
C1728 C 0.64765 0.12593 0.40189 0.0
H1729 H 0.71313 0.0996 0.53195 0.0
H1730 H 0.69861 0.10355 0.49539 0.0
C1731 C 0.64233 0.12944 0.3802 0.0
C1732 C 0.65531 0.13945 0.43911 0.0
H1733 H 0.69549 0.14635 0.47643 0.0
C1734 C 0.64071 0.12771 0.45202 0.0
C1735 C 0.67533 0.14621 0.44793 0.0
C1736 C 0.69183 0.15831 0.43455 0.0
C1737 C 0.64564 0.12255 0.47363 0.0
C1738 C 0.66562 0.12937 0.48244 0.0
C1739 C 0.68018 0.14115 0.46954 0.0
C1740 C 0.67204 0.12429 0.50495 0.0
C1741 C 0.6297 0.10951 0.48678 0.0
C1742 C 0.66142 0.13407 0.5225 0.0
C1743 C 0.66966 0.13185 0.54349 0.0
C1744 C 0.68875 0.11991 0.5472 0.0
C1745 C 0.69846 0.10897 0.52971 0.0
C1746 C 0.69024 0.11126 0.50877 0.0
H1747 H 0.61694 0.10209 0.47647 0.0
H1748 H 0.63816 0.09648 0.49585 0.0
H1749 H 0.62171 0.12027 0.49877 0.0
H1750 H 0.64744 0.14435 0.51982 0.0
H1751 H 0.66179 0.14052 0.55657 0.0
H1752 H 0.82876 0.67461 0.55317 0.0
H1753 H 0.81853 0.66176 0.51707 0.0
H1754 H 0.86601 0.70423 0.48836 0.0
H1755 H 0.87606 0.71744 0.52422 0.0
H1756 H 0.82533 0.70839 0.4701 0.0
H1757 H 0.84974 0.62173 0.47472 0.0
H1758 H 0.83212 0.63089 0.496 0.0
H1759 H 0.85907 0.64169 0.49396 0.0
C1760 C 0.83735 0.68088 0.53921 0.0
C1761 C 0.85325 0.69705 0.54158 0.0
C1762 C 0.83147 0.67351 0.51859 0.0
C1763 C 0.84159 0.68197 0.50006 0.0
C1764 C 0.85797 0.69752 0.50246 0.0
H1765 H 0.84573 0.6686 0.36322 0.0
H1766 H 0.84846 0.6793 0.40138 0.0
C1767 C 0.86376 0.70498 0.52299 0.0
C1768 C 0.83447 0.67563 0.47804 0.0
H1769 H 0.83214 0.63312 0.4427 0.0
C1770 C 0.82674 0.69191 0.46414 0.0
C1771 C 0.83614 0.65409 0.47039 0.0
C1772 C 0.84487 0.63608 0.48444 0.0
C1773 C 0.82113 0.68732 0.44261 0.0
C1774 C 0.82343 0.66595 0.43479 0.0
C1775 C 0.83038 0.64949 0.44886 0.0
C1776 C 0.82055 0.6607 0.41161 0.0
C1777 C 0.81302 0.7054 0.42828 0.0
C1778 C 0.80391 0.64677 0.4048 0.0
C1779 C 0.80231 0.64072 0.383 0.0
C1780 C 0.81762 0.64817 0.36794 0.0
C1781 C 0.83394 0.66247 0.37469 0.0
C1782 C 0.8354 0.66868 0.39637 0.0
H1783 H 0.80716 0.71944 0.43791 0.0
H1784 H 0.82645 0.71105 0.41774 0.0
H1785 H 0.79968 0.69964 0.41765 0.0
H1786 H 0.79237 0.64041 0.41639 0.0
H1787 H 0.78961 0.62967 0.37804 0.0
H1788 H 0.28486 0.89767 0.52046 0.0
H1789 H 0.30048 0.89451 0.48422 0.0
H1790 H 0.35215 0.85498 0.50967 0.0
H1791 H 0.33689 0.85824 0.54605 0.0
H1792 H 0.36557 0.88423 0.47708 0.0
H1793 H 0.29359 0.83627 0.45226 0.0
H1794 H 0.28733 0.86247 0.46326 0.0
H1795 H 0.29964 0.84225 0.48024 0.0
C1796 C 0.29979 0.88865 0.51846 0.0
C1797 C 0.30943 0.87793 0.53612 0.0
C1798 C 0.30861 0.88676 0.49771 0.0
C1799 C 0.32711 0.87403 0.49424 0.0
C1800 C 0.33772 0.8647 0.51202 0.0
H1801 H 0.3616 0.81609 0.37015 0.0
H1802 H 0.35227 0.82217 0.40838 0.0
C1803 C 0.32898 0.86664 0.53282 0.0
C1804 C 0.33452 0.86923 0.47194 0.0
H1805 H 0.31852 0.84548 0.42463 0.0
C1806 C 0.35534 0.87574 0.46559 0.0
C1807 C 0.32128 0.85768 0.4572 0.0
C1808 C 0.2993 0.84905 0.46358 0.0
C1809 C 0.36308 0.87152 0.44461 0.0
C1810 C 0.34946 0.86082 0.42957 0.0
C1811 C 0.32885 0.85384 0.43613 0.0
C1812 C 0.35604 0.85702 0.40681 0.0
C1813 C 0.38584 0.87828 0.43884 0.0
C1814 C 0.36089 0.8746 0.39323 0.0
C1815 C 0.36624 0.87113 0.37154 0.0
C1816 C 0.36687 0.85002 0.36305 0.0
C1817 C 0.36155 0.83247 0.37647 0.0
C1818 C 0.35626 0.83593 0.39823 0.0
H1819 H 0.39606 0.88034 0.45353 0.0
H1820 H 0.39366 0.86622 0.42801 0.0
H1821 H 0.38531 0.89406 0.43024 0.0
H1822 H 0.36008 0.89105 0.3993 0.0
H1823 H 0.36942 0.88501 0.36127 0.0
H1824 H 0.11036 0.71483 0.47876 0.0
H1825 H 0.11797 0.69996 0.51467 0.0
H1826 H 0.15913 0.6513 0.48608 0.0
H1827 H 0.15163 0.66602 0.45002 0.0
H1828 H 0.11375 0.65488 0.53147 0.0
H1829 H 0.19781 0.68763 0.53002 0.0
H1830 H 0.17682 0.6974 0.51211 0.0
H1831 H 0.18942 0.6717 0.50706 0.0
C1832 C 0.12078 0.70075 0.48004 0.0
C1833 C 0.13051 0.69169 0.46151 0.0
C1834 C 0.12509 0.6923 0.50057 0.0
C1835 C 0.13933 0.67478 0.50295 0.0
C1836 C 0.14826 0.665 0.4845 0.0
H1837 H 0.16516 0.60543 0.62316 0.0
H1838 H 0.15826 0.61477 0.58526 0.0
C1839 C 0.14383 0.67334 0.4639 0.0
C1840 C 0.14555 0.66749 0.52488 0.0
H1841 H 0.18734 0.66805 0.56113 0.0
C1842 C 0.12986 0.65759 0.53795 0.0
C1843 C 0.1665 0.67142 0.53327 0.0
C1844 C 0.18365 0.68275 0.52003 0.0
C1845 C 0.13459 0.65142 0.55931 0.0
C1846 C 0.15563 0.65512 0.56765 0.0
C1847 C 0.17131 0.66509 0.55458 0.0
C1848 C 0.16135 0.64934 0.59018 0.0
C1849 C 0.11692 0.6415 0.57299 0.0
C1850 C 0.16621 0.66564 0.60526 0.0
C1851 C 0.17001 0.66036 0.62696 0.0
C1852 C 0.16893 0.6387 0.63385 0.0
C1853 C 0.16525 0.62232 0.61846 0.0
C1854 C 0.16143 0.62761 0.5968 0.0
H1855 H 0.10062 0.64393 0.56574 0.0
H1856 H 0.1198 0.62381 0.57447 0.0
H1857 H 0.11698 0.64853 0.58956 0.0
H1858 H 0.1664 0.6825 0.60037 0.0
H1859 H 0.17301 0.67326 0.63847 0.0
H1860 H 0.37497 0.12472 0.62553 0.0
H1861 H 0.36718 0.11969 0.58723 0.0
H1862 H 0.31842 0.16967 0.59049 0.0
H1863 H 0.3272 0.17578 0.62874 0.0
H1864 H 0.33073 0.1063 0.56973 0.0
H1865 H 0.35013 0.18731 0.53633 0.0
H1866 H 0.35803 0.17918 0.56329 0.0
H1867 H 0.33089 0.18853 0.55808 0.0
C1868 C 0.36328 0.13535 0.61795 0.0
C1869 C 0.35234 0.15131 0.62999 0.0
C1870 C 0.35856 0.13217 0.59608 0.0
C1871 C 0.34255 0.14462 0.58581 0.0
C1872 C 0.33132 0.16034 0.59786 0.0
H1873 H 0.26929 0.11068 0.47251 0.0
H1874 H 0.28424 0.11456 0.5088 0.0
C1875 C 0.33621 0.16369 0.61975 0.0
C1876 C 0.33671 0.14004 0.56294 0.0
H1877 H 0.33 0.16352 0.51331 0.0
C1878 C 0.33077 0.11879 0.55736 0.0
C1879 C 0.33706 0.15624 0.54672 0.0
C1880 C 0.34459 0.17904 0.55133 0.0
C1881 C 0.32468 0.1134 0.53614 0.0
C1882 C 0.32396 0.12983 0.52018 0.0
C1883 C 0.33042 0.15096 0.52561 0.0
C1884 C 0.3157 0.12569 0.49801 0.0
C1885 C 0.31923 0.09012 0.53102 0.0
C1886 C 0.32837 0.13075 0.47981 0.0
C1887 C 0.31978 0.12875 0.45894 0.0
C1888 C 0.2983 0.12173 0.45591 0.0
C1889 C 0.28594 0.11596 0.47418 0.0
C1890 C 0.2945 0.11809 0.495 0.0
H1891 H 0.32721 0.07881 0.54254 0.0
H1892 H 0.30147 0.08776 0.53246 0.0
H1893 H 0.3242 0.08574 0.51429 0.0
H1894 H 0.34476 0.13671 0.4818 0.0
H1895 H 0.32972 0.13342 0.44525 0.0
H1896 H 0.83655 0.33256 0.45273 0.0
H1897 H 0.82884 0.34836 0.48831 0.0
H1898 H 0.87519 0.30516 0.51773 0.0
H1899 H 0.88298 0.28918 0.48236 0.0
H1900 H 0.81345 0.32208 0.52504 0.0
H1901 H 0.8896 0.3669 0.54228 0.0
H1902 H 0.88134 0.35962 0.51514 0.0
H1903 H 0.89308 0.3396 0.5327 0.0
C1904 C 0.84542 0.32669 0.4667 0.0
C1905 C 0.86035 0.30957 0.46472 0.0
C1906 C 0.84091 0.33568 0.487 0.0
C1907 C 0.85151 0.32794 0.50554 0.0
C1908 C 0.86701 0.31147 0.50353 0.0
H1909 H 0.82215 0.32762 0.64145 0.0
H1910 H 0.82621 0.31912 0.60285 0.0
C1911 C 0.8714 0.30234 0.48331 0.0
C1912 C 0.84538 0.33596 0.52724 0.0
H1913 H 0.8655 0.36156 0.57188 0.0
C1914 C 0.82471 0.33092 0.53524 0.0
C1915 C 0.8601 0.34755 0.54037 0.0
C1916 C 0.88223 0.35394 0.5322 0.0
C1917 C 0.8186 0.3366 0.5564 0.0
C1918 C 0.83364 0.34745 0.56983 0.0
C1919 C 0.85405 0.35312 0.56155 0.0
C1920 C 0.82885 0.3526 0.59273 0.0
C1921 C 0.79618 0.3309 0.56426 0.0
C1922 C 0.82879 0.37421 0.59973 0.0
C1923 C 0.82646 0.37907 0.6217 0.0
C1924 C 0.82454 0.36237 0.63707 0.0
C1925 C 0.82367 0.34078 0.62993 0.0
C1926 C 0.82594 0.33592 0.60792 0.0
H1927 H 0.78496 0.3276 0.55057 0.0
H1928 H 0.79707 0.31609 0.57442 0.0
H1929 H 0.78934 0.34415 0.57432 0.0
H1930 H 0.83089 0.38729 0.58822 0.0
H1931 H 0.82645 0.39588 0.62666 0.0
H1932 H 0.72016 0.88895 0.47374 0.0
H1933 H 0.70563 0.88426 0.51023 0.0
H1934 H 0.65589 0.84206 0.48524 0.0
H1935 H 0.67045 0.8464 0.44863 0.0
H1936 H 0.66434 0.89138 0.52851 0.0
H1937 H 0.68852 0.80467 0.53037 0.0
H1938 H 0.6975 0.8231 0.50952 0.0
H1939 H 0.67069 0.81188 0.50849 0.0
C1940 C 0.70593 0.87891 0.4759 0.0
C1941 C 0.69657 0.86792 0.45825 0.0
C1942 C 0.69767 0.87624 0.49679 0.0
C1943 C 0.67998 0.86249 0.50045 0.0
C1944 C 0.66981 0.85245 0.48276 0.0
H1945 H 0.61045 0.85014 0.6224 0.0
H1946 H 0.62052 0.85556 0.58448 0.0
C1947 C 0.67804 0.85513 0.46182 0.0
C1948 C 0.67283 0.85803 0.5229 0.0
H1949 H 0.66923 0.8179 0.56086 0.0
C1950 C 0.66531 0.87532 0.53559 0.0
C1951 C 0.67451 0.8371 0.53214 0.0
C1952 C 0.68342 0.81813 0.51954 0.0
C1953 C 0.65925 0.87222 0.55728 0.0
C1954 C 0.66048 0.85121 0.56638 0.0
C1955 C 0.66816 0.83395 0.55375 0.0
C1956 C 0.65418 0.84696 0.58913 0.0
C1957 C 0.65204 0.89155 0.57042 0.0
C1958 C 0.6696 0.83952 0.60413 0.0
C1959 C 0.66389 0.83649 0.62585 0.0
C1960 C 0.64271 0.84095 0.63288 0.0
C1961 C 0.6271 0.84744 0.61762 0.0
C1962 C 0.6328 0.85044 0.59594 0.0
H1963 H 0.65699 0.90707 0.56277 0.0
H1964 H 0.63411 0.89147 0.57173 0.0
H1965 H 0.65885 0.8909 0.58707 0.0
H1966 H 0.68615 0.83653 0.59911 0.0
H1967 H 0.67616 0.83125 0.63726 0.0
H1968 H 0.3587 0.15567 0.31918 0.0
H1969 H 0.39623 0.14743 0.3091 0.0
H1970 H 0.41472 0.149 0.37651 0.0
H1971 H 0.37719 0.15694 0.38664 0.0
H1972 H 0.43422 0.16902 0.31566 0.0
H1973 H 0.43621 0.08967 0.35801 0.0
H1974 H 0.41139 0.10446 0.3535 0.0
H1975 H 0.42923 0.11202 0.37528 0.0
C1976 C 0.37084 0.15439 0.3318 0.0
C1977 C 0.36505 0.15644 0.35369 0.0
C1978 C 0.39222 0.14962 0.32605 0.0
C1979 C 0.40813 0.147 0.34211 0.0
C1980 C 0.40256 0.15023 0.36392 0.0
H1981 H 0.54727 0.131 0.33291 0.0
H1982 H 0.5102 0.13593 0.346 0.0
C1983 C 0.38117 0.15483 0.36968 0.0
C1984 C 0.43052 0.1409 0.33599 0.0
H1985 H 0.46957 0.1023 0.34346 0.0
C1986 C 0.44191 0.1544 0.32168 0.0
C1987 C 0.44048 0.12174 0.34382 0.0
C1988 C 0.42865 0.10601 0.35834 0.0
C1989 C 0.4631 0.1494 0.31519 0.0
C1990 C 0.47306 0.1304 0.32317 0.0
C1991 C 0.46179 0.11689 0.33749 0.0
C1992 C 0.49521 0.12441 0.31652 0.0
C1993 C 0.47484 0.16446 0.29993 0.0
C1994 C 0.49887 0.11553 0.29596 0.0
C1995 C 0.52 0.11255 0.28846 0.0
C1996 C 0.53782 0.11856 0.30137 0.0
C1997 C 0.53399 0.12622 0.32252 0.0
C1998 C 0.51282 0.1291 0.33003 0.0
H1999 H 0.46573 0.17972 0.29706 0.0
H2000 H 0.49108 0.16853 0.30651 0.0
H2001 H 0.47729 0.15622 0.28412 0.0
H2002 H 0.48537 0.11174 0.28539 0.0
H2003 H 0.52231 0.10655 0.27212 0.0
H2004 H 0.84073 0.5574 0.33947 0.0
H2005 H 0.83602 0.52162 0.3558 0.0
H2006 H 0.88667 0.49614 0.31497 0.0
H2007 H 0.89163 0.53178 0.29864 0.0
H2008 H 0.82341 0.48625 0.33002 0.0
H2009 H 0.89963 0.46858 0.37422 0.0
H2010 H 0.89156 0.49575 0.36687 0.0
H2011 H 0.90374 0.4782 0.34706 0.0
C2012 C 0.85133 0.54436 0.3344 0.0
C2013 C 0.86643 0.54742 0.31759 0.0
C2014 C 0.84854 0.5239 0.3437 0.0
C2015 C 0.861 0.50627 0.33659 0.0
C2016 C 0.87708 0.50959 0.32089 0.0
H2017 H 0.83068 0.37015 0.32944 0.0
H2018 H 0.8361 0.40895 0.32269 0.0
C2019 C 0.87983 0.53 0.31151 0.0
C2020 C 0.85551 0.484 0.34356 0.0
H2021 H 0.8768 0.43829 0.36621 0.0
C2022 C 0.83498 0.47582 0.33818 0.0
C2023 C 0.87061 0.4705 0.35423 0.0
C2024 C 0.89256 0.47873 0.36113 0.0
C2025 C 0.82935 0.45425 0.34262 0.0
C2026 C 0.84478 0.44048 0.35246 0.0
C2027 C 0.86507 0.44885 0.35847 0.0
C2028 C 0.84032 0.41727 0.35651 0.0
C2029 C 0.80696 0.44641 0.33674 0.0
C2030 C 0.84094 0.40914 0.37771 0.0
C2031 C 0.83792 0.38706 0.38156 0.0
C2032 C 0.83453 0.37268 0.36423 0.0
C2033 C 0.83331 0.38091 0.34306 0.0
C2034 C 0.83635 0.40303 0.33921 0.0
H2035 H 0.79541 0.46009 0.33483 0.0
H2036 H 0.80771 0.43759 0.32109 0.0
H2037 H 0.80057 0.43514 0.34923 0.0
H2038 H 0.84384 0.41989 0.39129 0.0
H2039 H 0.83823 0.38129 0.39811 0.0
H2040 H 0.63154 0.80325 0.33842 0.0
H2041 H 0.59574 0.81092 0.32277 0.0
H2042 H 0.60197 0.87796 0.34168 0.0
H2043 H 0.63812 0.87075 0.3556 0.0
H2044 H 0.55953 0.82432 0.34069 0.0
H2045 H 0.58442 0.88548 0.28042 0.0
H2046 H 0.60383 0.86915 0.29492 0.0
H2047 H 0.59294 0.89344 0.30699 0.0
C2048 C 0.62523 0.81962 0.33908 0.0
C2049 C 0.63727 0.83623 0.3489 0.0
C2050 C 0.60481 0.82398 0.33021 0.0
C2051 C 0.59622 0.84508 0.33085 0.0
C2052 C 0.60835 0.86166 0.34059 0.0
H2053 H 0.45923 0.87685 0.32084 0.0
H2054 H 0.49621 0.86976 0.33342 0.0
C2055 C 0.62883 0.85738 0.34908 0.0
C2056 C 0.57436 0.84978 0.32199 0.0
H2057 H 0.5466 0.88506 0.28967 0.0
C2058 C 0.55672 0.83746 0.32937 0.0
C2059 C 0.57071 0.86666 0.30687 0.0
C2060 C 0.58904 0.87924 0.29667 0.0
C2061 C 0.5355 0.84194 0.32252 0.0
C2062 C 0.53172 0.85978 0.30859 0.0
C2063 C 0.54942 0.8717 0.30075 0.0
C2064 C 0.50964 0.86584 0.30122 0.0
C2065 C 0.51746 0.82718 0.32991 0.0
C2066 C 0.50518 0.86733 0.27899 0.0
C2067 C 0.48428 0.87201 0.27179 0.0
C2068 C 0.4673 0.87507 0.28669 0.0
C2069 C 0.47194 0.87443 0.30898 0.0
C2070 C 0.493 0.87011 0.31618 0.0
H2071 H 0.52372 0.81101 0.33478 0.0
H2072 H 0.50935 0.83443 0.34422 0.0
H2073 H 0.50518 0.82488 0.31695 0.0
H2074 H 0.51775 0.86421 0.26713 0.0
H2075 H 0.48127 0.8722 0.2545 0.0
H2076 H 0.14113 0.44491 0.3256 0.0
H2077 H 0.14405 0.48124 0.34127 0.0
H2078 H 0.11817 0.50873 0.28243 0.0
H2079 H 0.11448 0.47266 0.26701 0.0
H2080 H 0.16853 0.514 0.32739 0.0
H2081 H 0.0829 0.54021 0.32664 0.0
H2082 H 0.09073 0.51237 0.32236 0.0
H2083 H 0.0915 0.5315 0.30031 0.0
C2084 C 0.13564 0.45866 0.31618 0.0
C2085 C 0.12748 0.45584 0.29509 0.0
C2086 C 0.13741 0.47942 0.32512 0.0
C2087 C 0.13107 0.4977 0.31313 0.0
C2088 C 0.12262 0.49486 0.29222 0.0
H2089 H 0.17764 0.62968 0.32844 0.0
H2090 H 0.17253 0.59164 0.31814 0.0
C2091 C 0.12062 0.47417 0.28338 0.0
C2092 C 0.13456 0.51983 0.3218 0.0
H2093 H 0.10946 0.56843 0.32968 0.0
C2094 C 0.15556 0.52585 0.32816 0.0
C2095 C 0.11761 0.53521 0.32302 0.0
C2096 C 0.09439 0.52942 0.31793 0.0
C2097 C 0.16018 0.54698 0.3352 0.0
C2098 C 0.14346 0.56267 0.33526 0.0
C2099 C 0.12236 0.55649 0.32938 0.0
C2100 C 0.14725 0.58552 0.34172 0.0
C2101 C 0.18285 0.55213 0.34278 0.0
C2102 C 0.13425 0.59496 0.3578 0.0
C2103 C 0.13679 0.61672 0.36328 0.0
C2104 C 0.15275 0.62944 0.35317 0.0
C2105 C 0.16558 0.6201 0.33686 0.0
C2106 C 0.16281 0.59833 0.33113 0.0
H2107 H 0.19157 0.53729 0.34806 0.0
H2108 H 0.19212 0.55938 0.32919 0.0
H2109 H 0.18268 0.56384 0.35644 0.0
H2110 H 0.12186 0.58554 0.36593 0.0
H2111 H 0.12579 0.62365 0.37503 0.0
H2112 H 0.38324 0.84202 0.60112 0.0
H2113 H 0.42105 0.84902 0.6107 0.0
H2114 H 0.40603 0.83822 0.67811 0.0
H2115 H 0.36807 0.83134 0.66858 0.0
H2116 H 0.43503 0.88237 0.63815 0.0
H2117 H 0.4608 0.80168 0.66847 0.0
H2118 H 0.43663 0.80549 0.65242 0.0
H2119 H 0.43652 0.8119 0.68083 0.0
C2120 C 0.38801 0.84118 0.61798 0.0
C2121 C 0.3727 0.83662 0.63419 0.0
C2122 C 0.40961 0.84504 0.6234 0.0
C2123 C 0.41632 0.84411 0.64509 0.0
C2124 C 0.40122 0.83874 0.66124 0.0
H2125 H 0.52493 0.90031 0.7109 0.0
H2126 H 0.48988 0.89333 0.69393 0.0
C2127 C 0.37958 0.83485 0.6558 0.0
C2128 C 0.4388 0.85008 0.65089 0.0
H2129 H 0.48463 0.83125 0.67539 0.0
C2130 C 0.44595 0.87116 0.64614 0.0
C2131 C 0.45302 0.83535 0.66115 0.0
C2132 C 0.44647 0.81227 0.66586 0.0
C2133 C 0.46682 0.87808 0.65191 0.0
C2134 C 0.48076 0.86358 0.66279 0.0
C2135 C 0.47382 0.84234 0.66706 0.0
C2136 C 0.50236 0.87025 0.67068 0.0
C2137 C 0.47382 0.90082 0.64633 0.0
C2138 C 0.52103 0.85995 0.66286 0.0
C2139 C 0.54113 0.86397 0.67244 0.0
C2140 C 0.54283 0.87812 0.69025 0.0
C2141 C 0.52423 0.88934 0.69722 0.0
C2142 C 0.50416 0.88539 0.68753 0.0
H2143 H 0.46334 0.90812 0.63364 0.0
H2144 H 0.47278 0.9111 0.66105 0.0
H2145 H 0.49088 0.90102 0.64062 0.0
H2146 H 0.5199 0.8482 0.64986 0.0
H2147 H 0.55509 0.85504 0.66664 0.0
H2148 H 0.14186 0.54719 0.66798 0.0
H2149 H 0.14565 0.51073 0.65248 0.0
H2150 H 0.14695 0.48356 0.71691 0.0
H2151 H 0.14211 0.51949 0.73231 0.0
H2152 H 0.17668 0.48157 0.65566 0.0
H2153 H 0.10216 0.44604 0.69007 0.0
H2154 H 0.10751 0.47474 0.69095 0.0
H2155 H 0.11892 0.45693 0.71111 0.0
C2156 C 0.14266 0.53336 0.67876 0.0
C2157 C 0.14132 0.53613 0.70131 0.0
C2158 C 0.14488 0.51258 0.66992 0.0
C2159 C 0.14604 0.49435 0.68353 0.0
C2160 C 0.14527 0.49725 0.70605 0.0
H2161 H 0.19981 0.36833 0.6498 0.0
H2162 H 0.1943 0.40575 0.66198 0.0
C2163 C 0.14261 0.51785 0.71484 0.0
C2164 C 0.14875 0.47229 0.67441 0.0
H2165 H 0.12908 0.4208 0.67788 0.0
C2166 C 0.16612 0.46831 0.66027 0.0
C2167 C 0.13476 0.45506 0.68016 0.0
C2168 C 0.11467 0.45847 0.69371 0.0
C2169 C 0.17021 0.44745 0.65216 0.0
C2170 C 0.15704 0.42997 0.65904 0.0
C2171 C 0.1394 0.43409 0.67281 0.0
C2172 C 0.16073 0.40733 0.65178 0.0
C2173 C 0.18832 0.44454 0.63599 0.0
C2174 C 0.14345 0.39536 0.6431 0.0
C2175 C 0.1464 0.37386 0.6369 0.0
C2176 C 0.16686 0.36405 0.63853 0.0
C2177 C 0.18403 0.37575 0.64779 0.0
C2178 C 0.18096 0.39719 0.65449 0.0
H2179 H 0.19195 0.45991 0.62734 0.0
H2180 H 0.20324 0.43952 0.64467 0.0
H2181 H 0.18428 0.43194 0.6238 0.0
H2182 H 0.12757 0.40262 0.64126 0.0
H2183 H 0.13252 0.36486 0.63107 0.0
H2184 H 0.47114 0.11049 0.72743 0.0
H2185 H 0.50778 0.11642 0.71361 0.0
H2186 H 0.48148 0.1435 0.65485 0.0
H2187 H 0.44476 0.1376 0.6684 0.0
H2188 H 0.52889 0.10367 0.67194 0.0
H2189 H 0.51958 0.1925 0.68462 0.0
H2190 H 0.50219 0.17284 0.69757 0.0
H2191 H 0.49852 0.17923 0.66944 0.0
C2192 C 0.47309 0.11734 0.71139 0.0
C2193 C 0.45497 0.12384 0.69915 0.0
C2194 C 0.49404 0.12073 0.70355 0.0
C2195 C 0.49722 0.13076 0.68344 0.0
C2196 C 0.47926 0.13601 0.67057 0.0
H2197 H 0.61627 0.15099 0.61233 0.0
H2198 H 0.57919 0.14286 0.62362 0.0
C2199 C 0.45829 0.13251 0.67832 0.0
C2200 C 0.51929 0.13687 0.67651 0.0
H2201 H 0.5523 0.18057 0.66871 0.0
C2202 C 0.53404 0.12045 0.67116 0.0
C2203 C 0.52594 0.15879 0.6759 0.0
C2204 C 0.51085 0.17693 0.68233 0.0
C2205 C 0.55529 0.12544 0.66482 0.0
C2206 C 0.56179 0.14739 0.66373 0.0
C2207 C 0.54715 0.16379 0.66943 0.0
C2208 C 0.58381 0.15356 0.65667 0.0
C2209 C 0.57074 0.10722 0.65961 0.0
C2210 C 0.59838 0.16303 0.67134 0.0
C2211 C 0.61966 0.16753 0.66496 0.0
C2212 C 0.6266 0.16255 0.64387 0.0
C2213 C 0.61159 0.15419 0.62892 0.0
C2214 C 0.5904 0.14966 0.6353 0.0
H2215 H 0.56471 0.09136 0.66562 0.0
H2216 H 0.57271 0.10606 0.64177 0.0
H2217 H 0.58694 0.11036 0.66678 0.0
H2218 H 0.59346 0.16636 0.68786 0.0
H2219 H 0.63087 0.17416 0.67673 0.0
H2220 H 0.8282 0.64292 0.6822 0.0
H2221 H 0.83149 0.6044 0.69125 0.0
H2222 H 0.81715 0.58754 0.62491 0.0
H2223 H 0.81435 0.62609 0.61574 0.0
H2224 H 0.80441 0.56993 0.68858 0.0
H2225 H 0.87487 0.55796 0.63378 0.0
H2226 H 0.86434 0.58445 0.6402 0.0
H2227 H 0.85089 0.56769 0.62052 0.0
C2228 C 0.82556 0.63094 0.66964 0.0
C2229 C 0.8215 0.63735 0.64821 0.0
C2230 C 0.82747 0.60899 0.67478 0.0
C2231 C 0.82515 0.59315 0.65861 0.0
C2232 C 0.8197 0.59952 0.63747 0.0
H2233 H 0.8425 0.45241 0.67122 0.0
H2234 H 0.83285 0.48827 0.65701 0.0
C2235 C 0.81803 0.62149 0.63228 0.0
C2236 C 0.82907 0.57007 0.66389 0.0
H2237 H 0.86214 0.52714 0.65248 0.0
C2238 C 0.81694 0.56054 0.68059 0.0
C2239 C 0.8455 0.55787 0.65347 0.0
C2240 C 0.8598 0.56752 0.63613 0.0
C2241 C 0.82099 0.53925 0.68738 0.0
C2242 C 0.83763 0.52724 0.67723 0.0
C2243 C 0.84934 0.53646 0.66011 0.0
C2244 C 0.84416 0.50567 0.68524 0.0
C2245 C 0.80773 0.52992 0.70567 0.0
C2246 C 0.85424 0.50381 0.70549 0.0
C2247 C 0.86003 0.4835 0.7135 0.0
C2248 C 0.8557 0.46462 0.70146 0.0
C2249 C 0.84607 0.46662 0.68088 0.0
C2250 C 0.84048 0.48704 0.67277 0.0
H2251 H 0.79199 0.53846 0.70749 0.0
H2252 H 0.80458 0.51238 0.70317 0.0
H2253 H 0.81687 0.53188 0.72103 0.0
H2254 H 0.85742 0.51809 0.7152 0.0
H2255 H 0.86732 0.4826 0.72944 0.0
H2256 H 0.34187 0.37178 0.11889 0.0
H2257 H 0.33487 0.41035 0.11246 0.0
H2258 H 0.37301 0.42673 0.16869 0.0
H2259 H 0.38025 0.38803 0.17503 0.0
H2260 H 0.31552 0.44064 0.14352 0.0
H2261 H 0.39865 0.46396 0.1173 0.0
H2262 H 0.38923 0.43624 0.11668 0.0
H2263 H 0.39618 0.44866 0.14202 0.0
C2264 C 0.34895 0.38366 0.1297 0.0
C2265 C 0.36196 0.37713 0.14716 0.0
C2266 C 0.34486 0.40561 0.12609 0.0
C2267 C 0.35378 0.42133 0.13986 0.0
C2268 C 0.36634 0.41481 0.15767 0.0
H2269 H 0.33816 0.56102 0.14267 0.0
H2270 H 0.35268 0.52439 0.14685 0.0
C2271 C 0.37032 0.3928 0.16136 0.0
C2272 C 0.34928 0.4445 0.13581 0.0
H2273 H 0.37249 0.49188 0.11907 0.0
C2274 C 0.32795 0.45186 0.13817 0.0
C2275 C 0.36563 0.45903 0.129 0.0
C2276 C 0.38873 0.45167 0.12593 0.0
C2277 C 0.32246 0.47347 0.13389 0.0
C2278 C 0.33866 0.48792 0.12649 0.0
C2279 C 0.36011 0.48067 0.12451 0.0
C2280 C 0.33337 0.51065 0.12104 0.0
C2281 C 0.29939 0.48074 0.13763 0.0
C2282 C 0.31875 0.51523 0.10427 0.0
C2283 C 0.31038 0.5361 0.10183 0.0
C2284 C 0.31658 0.55276 0.1161 0.0
C2285 C 0.33292 0.54856 0.13147 0.0
C2286 C 0.34122 0.52762 0.13395 0.0
H2287 H 0.29044 0.46929 0.14824 0.0
H2288 H 0.29892 0.49709 0.14514 0.0
H2289 H 0.29081 0.48158 0.12186 0.0
H2290 H 0.31286 0.50238 0.09386 0.0
H2291 H 0.29803 0.53881 0.08965 0.0
H2292 H 0.38966 0.61823 0.84718 0.0
H2293 H 0.38021 0.58035 0.85385 0.0
H2294 H 0.3132 0.59458 0.83994 0.0
H2295 H 0.32263 0.63264 0.83329 0.0
H2296 H 0.35199 0.56543 0.88553 0.0
H2297 H 0.32466 0.54052 0.80346 0.0
H2298 H 0.33975 0.56514 0.80816 0.0
H2299 H 0.31122 0.5641 0.81393 0.0
C2300 C 0.3729 0.6133 0.84563 0.0
C2301 C 0.35677 0.62841 0.84017 0.0
C2302 C 0.36755 0.59165 0.8493 0.0
C2303 C 0.34603 0.58465 0.84734 0.0
C2304 C 0.32996 0.59958 0.84125 0.0
H2305 H 0.28274 0.47062 0.89694 0.0
H2306 H 0.29731 0.5071 0.89185 0.0
C2307 C 0.33534 0.62129 0.83751 0.0
C2308 C 0.34035 0.56198 0.85278 0.0
H2309 H 0.31825 0.51566 0.83219 0.0
C2310 C 0.34471 0.5545 0.87384 0.0
C2311 C 0.33095 0.54777 0.83746 0.0
C2312 C 0.32653 0.55468 0.81443 0.0
C2313 C 0.33962 0.53324 0.88009 0.0
C2314 C 0.32989 0.51921 0.8649 0.0
C2315 C 0.32576 0.52655 0.84377 0.0
C2316 C 0.32331 0.49694 0.87067 0.0
C2317 C 0.34473 0.52585 0.90281 0.0
C2318 C 0.33353 0.47915 0.86092 0.0
C2319 C 0.32538 0.45825 0.86393 0.0
C2320 C 0.30662 0.45488 0.87644 0.0
C2321 C 0.29719 0.47265 0.88719 0.0
C2322 C 0.30548 0.49351 0.88431 0.0
H2323 H 0.35577 0.53725 0.9113 0.0
H2324 H 0.32946 0.5247 0.91224 0.0
H2325 H 0.35228 0.50951 0.90258 0.0
H2326 H 0.34731 0.48155 0.85032 0.0
H2327 H 0.33299 0.44497 0.85534 0.0
H2328 H 0.3813 0.38493 0.84118 0.0
H2329 H 0.4187 0.37471 0.84965 0.0
H2330 H 0.39962 0.3075 0.85262 0.0
H2331 H 0.3623 0.31769 0.84364 0.0
H2332 H 0.43342 0.35583 0.88588 0.0
H2333 H 0.45284 0.30358 0.81549 0.0
H2334 H 0.42925 0.32084 0.8161 0.0
H2335 H 0.4289 0.29489 0.82945 0.0
C2336 C 0.3852 0.36797 0.84346 0.0
C2337 C 0.369 0.35207 0.84194 0.0
C2338 C 0.40652 0.36215 0.84828 0.0
C2339 C 0.41202 0.34033 0.85161 0.0
C2340 C 0.39588 0.32438 0.84965 0.0
H2341 H 0.52451 0.27142 0.89656 0.0
H2342 H 0.4878 0.28513 0.89133 0.0
C2343 C 0.37458 0.3302 0.84459 0.0
C2344 C 0.43434 0.33443 0.85827 0.0
H2345 H 0.47717 0.30183 0.84552 0.0
C2346 C 0.44305 0.34415 0.87695 0.0
C2347 C 0.44692 0.31924 0.84656 0.0
C2348 C 0.4391 0.3092 0.82567 0.0
C2349 C 0.46383 0.33875 0.88446 0.0
C2350 C 0.47609 0.32321 0.87305 0.0
C2351 C 0.46753 0.31361 0.85431 0.0
C2352 C 0.498 0.31667 0.88005 0.0
C2353 C 0.4725 0.34932 0.90471 0.0
C2354 C 0.5158 0.33023 0.87618 0.0
C2355 C 0.53688 0.32244 0.87906 0.0
C2356 C 0.54043 0.30093 0.88577 0.0
C2357 C 0.52243 0.28803 0.89126 0.0
C2358 C 0.50141 0.29579 0.88825 0.0
H2359 H 0.46002 0.35923 0.91308 0.0
H2360 H 0.47863 0.33679 0.91609 0.0
H2361 H 0.48633 0.35997 0.90041 0.0
H2362 H 0.5134 0.34639 0.86974 0.0
H2363 H 0.55031 0.33283 0.8747 0.0
H2364 H 0.72009 0.52565 0.88785 0.0
H2365 H 0.70514 0.48965 0.88139 0.0
H2366 H 0.65138 0.51782 0.84681 0.0
H2367 H 0.6662 0.55411 0.85314 0.0
H2368 H 0.64078 0.48264 0.87693 0.0
H2369 H 0.70678 0.46221 0.81929 0.0
H2370 H 0.71591 0.47233 0.84502 0.0
H2371 H 0.70064 0.48969 0.82728 0.0
C2372 C 0.70492 0.52431 0.87913 0.0
C2373 C 0.69444 0.5428 0.87086 0.0
C2374 C 0.69649 0.50369 0.87534 0.0
C2375 C 0.67744 0.50114 0.86326 0.0
C2376 C 0.66623 0.51953 0.85602 0.0
H2377 H 0.63782 0.37519 0.81058 0.0
H2378 H 0.64678 0.41389 0.81387 0.0
C2379 C 0.67469 0.54023 0.85973 0.0
C2380 C 0.6697 0.47917 0.85775 0.0
H2381 H 0.68461 0.43295 0.83128 0.0
C2382 C 0.65022 0.47181 0.86679 0.0
C2383 C 0.68189 0.46527 0.8442 0.0
C2384 C 0.70238 0.47278 0.83319 0.0
C2385 C 0.6431 0.45048 0.86342 0.0
C2386 C 0.65596 0.43621 0.8509 0.0
C2387 C 0.67492 0.44389 0.84105 0.0
C2388 C 0.65056 0.41298 0.84873 0.0
C2389 C 0.62196 0.44333 0.87339 0.0
C2390 C 0.65041 0.39965 0.86714 0.0
C2391 C 0.64545 0.37769 0.86526 0.0
C2392 C 0.64039 0.36874 0.84497 0.0
C2393 C 0.64135 0.38187 0.82642 0.0
C2394 C 0.64638 0.40389 0.8283 0.0
H2395 H 0.61136 0.45737 0.87723 0.0
H2396 H 0.61309 0.43218 0.86241 0.0
H2397 H 0.62533 0.43457 0.88873 0.0
H2398 H 0.6543 0.40622 0.88294 0.0
H2399 H 0.64567 0.36766 0.87967 0.0
H2400 H 0.47209 0.71219 0.89927 0.0
H2401 H 0.50865 0.69854 0.8925 0.0
H2402 H 0.48327 0.65275 0.84628 0.0
H2403 H 0.44658 0.66621 0.8529 0.0
H2404 H 0.52749 0.65433 0.89326 0.0
H2405 H 0.52651 0.69379 0.81214 0.0
H2406 H 0.50774 0.701 0.83338 0.0
H2407 H 0.50398 0.67637 0.8184 0.0
C2408 C 0.47418 0.69889 0.88801 0.0
C2409 C 0.45642 0.69047 0.87644 0.0
C2410 C 0.49509 0.69115 0.88414 0.0
C2411 C 0.49861 0.67498 0.86859 0.0
C2412 C 0.48083 0.66548 0.85812 0.0
H2413 H 0.62038 0.60996 0.84071 0.0
H2414 H 0.58238 0.61858 0.84797 0.0
C2415 C 0.45987 0.6731 0.86206 0.0
C2416 C 0.52097 0.6691 0.86237 0.0
H2417 H 0.55775 0.67371 0.82129 0.0
C2418 C 0.53412 0.65844 0.87751 0.0
C2419 C 0.5296 0.67492 0.84195 0.0
C2420 C 0.51636 0.6873 0.82552 0.0
C2421 C 0.55571 0.6532 0.87266 0.0
C2422 C 0.5642 0.65855 0.85203 0.0
C2423 C 0.5511 0.66945 0.83699 0.0
C2424 C 0.58681 0.6533 0.84599 0.0
C2425 C 0.5694 0.64241 0.88982 0.0
C2426 C 0.60165 0.66993 0.84146 0.0
C2427 C 0.62339 0.66504 0.8373 0.0
C2428 C 0.63055 0.64345 0.83771 0.0
C2429 C 0.61541 0.62678 0.84104 0.0
C2430 C 0.59372 0.63167 0.84515 0.0
H2431 H 0.5622 0.64421 0.90623 0.0
H2432 H 0.57067 0.62485 0.88621 0.0
H2433 H 0.58602 0.64928 0.89004 0.0
H2434 H 0.59655 0.68673 0.84181 0.0
H2435 H 0.63473 0.67815 0.8346 0.0
H2436 H 0.70999 0.46883 0.09937 0.0
H2437 H 0.69503 0.50474 0.10686 0.0
H2438 H 0.65334 0.47748 0.15579 0.0
H2439 H 0.66805 0.44143 0.14842 0.0
H2440 H 0.64777 0.52062 0.10998 0.0
H2441 H 0.69613 0.52318 0.18627 0.0
H2442 H 0.70302 0.50536 0.16409 0.0
H2443 H 0.68012 0.49938 0.18092 0.0
C2444 C 0.69727 0.47034 0.11138 0.0
C2445 C 0.69039 0.45225 0.12345 0.0
C2446 C 0.68879 0.49088 0.11565 0.0
C2447 C 0.67339 0.4937 0.13209 0.0
C2448 C 0.66541 0.47557 0.14318 0.0
H2449 H 0.62957 0.61432 0.19264 0.0
H2450 H 0.63686 0.5759 0.18486 0.0
C2451 C 0.67377 0.45497 0.13884 0.0
C2452 C 0.66695 0.51578 0.13867 0.0
H2453 H 0.67557 0.55406 0.17767 0.0
C2454 C 0.6537 0.52794 0.12482 0.0
C2455 C 0.67473 0.52513 0.15808 0.0
C2456 C 0.68939 0.51273 0.17324 0.0
C2457 C 0.64807 0.54939 0.12984 0.0
C2458 C 0.6564 0.55901 0.14894 0.0
C2459 C 0.66927 0.54665 0.16303 0.0
C2460 C 0.65261 0.58213 0.15413 0.0
C2461 C 0.63316 0.56152 0.11472 0.0
C2462 C 0.65973 0.59831 0.13983 0.0
C2463 C 0.65559 0.62008 0.14425 0.0
C2464 C 0.64431 0.62604 0.16306 0.0
C2465 C 0.63812 0.61 0.17793 0.0
C2466 C 0.64221 0.58814 0.17347 0.0
H2467 H 0.6233 0.55025 0.10472 0.0
H2468 H 0.62207 0.57236 0.12384 0.0
H2469 H 0.64299 0.57161 0.10356 0.0
H2470 H 0.66844 0.59407 0.12519 0.0
H2471 H 0.66115 0.63229 0.13293 0.0
H2472 H 0.37966 0.62743 0.19239 0.0
H2473 H 0.41835 0.63585 0.18757 0.0
H2474 H 0.40216 0.68026 0.13606 0.0
H2475 H 0.36365 0.672 0.14096 0.0
H2476 H 0.44147 0.62977 0.14667 0.0
H2477 H 0.44411 0.71468 0.17625 0.0
H2478 H 0.42264 0.69611 0.1834 0.0
H2479 H 0.42264 0.70914 0.15736 0.0
C2480 C 0.38445 0.63924 0.18032 0.0
C2481 C 0.36889 0.64895 0.16687 0.0
C2482 C 0.40645 0.64394 0.17751 0.0
C2483 C 0.41303 0.65871 0.16151 0.0
C2484 C 0.39737 0.66896 0.14861 0.0
H2485 H 0.52932 0.71148 0.1076 0.0
H2486 H 0.49256 0.69869 0.11452 0.0
C2487 C 0.37546 0.66413 0.15129 0.0
C2488 C 0.43628 0.6626 0.15729 0.0
H2489 H 0.47447 0.70247 0.15588 0.0
C2490 C 0.44882 0.64558 0.14887 0.0
C2491 C 0.44569 0.68325 0.16019 0.0
C2492 C 0.43317 0.70183 0.16998 0.0
C2493 C 0.47039 0.64892 0.14247 0.0
C2494 C 0.47964 0.66974 0.14486 0.0
C2495 C 0.46723 0.68658 0.15382 0.0
C2496 C 0.50213 0.67465 0.13816 0.0
C2497 C 0.48288 0.6304 0.13254 0.0
C2498 C 0.51977 0.66478 0.14858 0.0
C2499 C 0.54088 0.67195 0.14454 0.0
C2500 C 0.54463 0.6893 0.13023 0.0
C2501 C 0.52701 0.69815 0.11878 0.0
C2502 C 0.50597 0.69093 0.12278 0.0
H2503 H 0.47199 0.61713 0.12711 0.0
H2504 H 0.4926 0.63603 0.11848 0.0
H2505 H 0.49419 0.62367 0.14478 0.0
H2506 H 0.51714 0.65239 0.16073 0.0
H2507 H 0.55404 0.66484 0.15372 0.0
H2508 H 0.47064 0.2799 0.09115 0.0
H2509 H 0.5076 0.29289 0.09655 0.0
H2510 H 0.48313 0.35143 0.12568 0.0
H2511 H 0.44598 0.33864 0.12048 0.0
H2512 H 0.5238 0.35329 0.09493 0.0
H2513 H 0.52616 0.29584 0.16452 0.0
H2514 H 0.51624 0.28549 0.13911 0.0
H2515 H 0.50107 0.30585 0.15325 0.0
C2516 C 0.47302 0.29583 0.09814 0.0
C2517 C 0.45532 0.30806 0.10574 0.0
C2518 C 0.49417 0.30317 0.10126 0.0
C2519 C 0.49796 0.32288 0.11185 0.0
C2520 C 0.48042 0.33609 0.11758 0.0
H2521 H 0.61572 0.36144 0.17992 0.0
H2522 H 0.57786 0.35405 0.17005 0.0
C2523 C 0.45921 0.32876 0.11453 0.0
C2524 C 0.52005 0.32844 0.11907 0.0
H2525 H 0.5587 0.31408 0.15595 0.0
C2526 C 0.53147 0.3448 0.10828 0.0
C2527 C 0.52974 0.3175 0.13673 0.0
C2528 C 0.51771 0.30027 0.14925 0.0
C2529 C 0.55273 0.35014 0.11436 0.0
C2530 C 0.56271 0.33866 0.13154 0.0
C2531 C 0.55101 0.32272 0.14271 0.0
C2532 C 0.58549 0.34261 0.13779 0.0
C2533 C 0.56434 0.36806 0.10247 0.0
C2534 C 0.60223 0.33789 0.12319 0.0
C2535 C 0.62374 0.34193 0.12884 0.0
C2536 C 0.62885 0.35089 0.14913 0.0
C2537 C 0.61215 0.35472 0.1641 0.0
C2538 C 0.59059 0.35061 0.15846 0.0
H2539 H 0.55287 0.37865 0.09349 0.0
H2540 H 0.57387 0.37819 0.11389 0.0
H2541 H 0.57574 0.36084 0.09059 0.0
H2542 H 0.59865 0.33104 0.10743 0.0
H2543 H 0.63634 0.33784 0.11738 0.0
H2544 H 0.03693 0.42993 0.24999 0.0
H2545 H 0.00865 0.45425 0.23753 0.0
H2546 H 0.04845 0.47335 0.18332 0.0
H2547 H 0.07728 0.449 0.19605 0.0
H2548 H 0.0347 0.50777 0.20592 0.0
H2549 H 0.96401 0.456 0.19035 0.0
H2550 H 0.97543 0.44873 0.21602 0.0
H2551 H 0.99119 0.44517 0.19165 0.0
C2552 C 0.03955 0.43893 0.23514 0.0
C2553 C 0.05939 0.43768 0.22409 0.0
C2554 C 0.02321 0.45267 0.22787 0.0
C2555 C 0.02623 0.4654 0.20927 0.0
C2556 C 0.04568 0.46349 0.19757 0.0
H2557 H 0.9141 0.55302 0.20906 0.0
H2558 H 0.94177 0.53058 0.19131 0.0
C2559 C 0.06211 0.44958 0.20484 0.0
C2560 C 0.01034 0.48276 0.20441 0.0
H2561 H 0.95592 0.49199 0.20612 0.0
C2562 C 0.01748 0.50434 0.20522 0.0
C2563 C 0.98788 0.47845 0.20291 0.0
C2564 C 0.97926 0.45579 0.19993 0.0
C2565 C 0.0027 0.5215 0.20719 0.0
C2566 C 0.98032 0.51685 0.20883 0.0
C2567 C 0.97311 0.49555 0.20537 0.0
C2568 C 0.96474 0.53284 0.21771 0.0
C2569 C 0.01129 0.54432 0.20868 0.0
C2570 C 0.96851 0.5416 0.23835 0.0
C2571 C 0.95282 0.55427 0.24849 0.0
C2572 C 0.93289 0.55836 0.2383 0.0
C2573 C 0.92934 0.55019 0.2173 0.0
C2574 C 0.9451 0.53739 0.20714 0.0
H2575 H 0.02622 0.54618 0.1988 0.0
H2576 H 0.99911 0.55636 0.20315 0.0
H2577 H 0.01562 0.54792 0.22576 0.0
H2578 H 0.98325 0.53784 0.24711 0.0
H2579 H 0.9561 0.5603 0.26465 0.0
H2580 H 0.5631 0.03634 0.24529 0.0
H2581 H 0.54186 0.00958 0.22604 0.0
H2582 H 0.53269 0.0543 0.17307 0.0
H2583 H 0.55379 0.08175 0.19278 0.0
H2584 H 0.49527 0.03814 0.18521 0.0
H2585 H 0.55025 0.96907 0.17673 0.0
H2586 H 0.55198 0.97804 0.20424 0.0
H2587 H 0.56019 0.99597 0.18261 0.0
C2588 C 0.55695 0.04047 0.22938 0.0
C2589 C 0.56002 0.06125 0.22064 0.0
C2590 C 0.545 0.02496 0.2182 0.0
C2591 C 0.53603 0.02967 0.19783 0.0
C2592 C 0.53969 0.05019 0.18863 0.0
H2593 H 0.45458 0.91521 0.18431 0.0
H2594 H 0.47765 0.94323 0.16784 0.0
C2595 C 0.55172 0.06585 0.19991 0.0
C2596 C 0.52046 0.01407 0.18817 0.0
H2597 H 0.51202 0.95956 0.18621 0.0
C2598 C 0.49908 0.02099 0.18463 0.0
C2599 C 0.52535 0.99173 0.18649 0.0
C2600 C 0.54829 0.98338 0.18747 0.0
C2601 C 0.48213 0.00598 0.18259 0.0
C2602 C 0.48666 0.9836 0.18482 0.0
C2603 C 0.50834 0.97672 0.18516 0.0
C2604 C 0.46968 0.96791 0.1915 0.0
C2605 C 0.45939 0.01434 0.17944 0.0
C2606 C 0.45729 0.97251 0.21001 0.0
C2607 C 0.44424 0.95668 0.21933 0.0
C2608 C 0.44341 0.93571 0.21056 0.0
C2609 C 0.45488 0.93128 0.19138 0.0
C2610 C 0.46805 0.94725 0.18198 0.0
H2611 H 0.45941 0.02864 0.1685 0.0
H2612 H 0.44853 0.00176 0.17254 0.0
H2613 H 0.45278 0.01974 0.19527 0.0
H2614 H 0.4587 0.988 0.21814 0.0
H2615 H 0.43554 0.96066 0.23405 0.0
H2616 H 0.07469 0.5657 0.80375 0.0
H2617 H 0.04452 0.54595 0.82101 0.0
H2618 H 0.04454 0.50021 0.76812 0.0
H2619 H 0.07416 0.51963 0.75106 0.0
H2620 H 0.00444 0.5412 0.80146 0.0
H2621 H 0.03674 0.46025 0.81972 0.0
H2622 H 0.0541 0.48363 0.81646 0.0
H2623 H 0.04541 0.46823 0.79318 0.0
C2624 C 0.06851 0.55111 0.79619 0.0
C2625 C 0.07661 0.54422 0.77604 0.0
C2626 C 0.05136 0.53987 0.80603 0.0
C2627 C 0.04257 0.52135 0.79607 0.0
C2628 C 0.0514 0.51407 0.77644 0.0
H2629 H 0.93604 0.47715 0.74416 0.0
H2630 H 0.96499 0.49701 0.76188 0.0
C2631 C 0.06817 0.52537 0.76654 0.0
C2632 C 0.02223 0.51122 0.8038 0.0
H2633 H 0.9991 0.46109 0.80539 0.0
C2634 C 0.00327 0.52375 0.80324 0.0
C2635 C 0.02059 0.48854 0.80666 0.0
C2636 C 0.04038 0.47446 0.80929 0.0
C2637 C 0.98282 0.51388 0.80234 0.0
C2638 C 0.98146 0.49101 0.80169 0.0
C2639 C 0.00017 0.47864 0.80541 0.0
C2640 C 0.96226 0.48001 0.79244 0.0
C2641 C 0.96298 0.52798 0.80029 0.0
C2642 C 0.9513 0.46348 0.80361 0.0
C2643 C 0.93456 0.45194 0.7934 0.0
C2644 C 0.92899 0.45652 0.77176 0.0
C2645 C 0.93996 0.47316 0.7608 0.0
C2646 C 0.95637 0.48474 0.77102 0.0
H2647 H 0.96523 0.54352 0.80911 0.0
H2648 H 0.96027 0.5319 0.78294 0.0
H2649 H 0.94834 0.51969 0.80665 0.0
H2650 H 0.95586 0.45936 0.82005 0.0
H2651 H 0.92642 0.43913 0.80219 0.0
H2652 H 0.57056 0.94152 0.79205 0.0
H2653 H 0.55202 0.9739 0.80554 0.0
H2654 H 0.49026 0.94386 0.79247 0.0
H2655 H 0.50854 0.91138 0.77982 0.0
H2656 H 0.5288 0.99897 0.7813 0.0
H2657 H 0.4757 0.97292 0.84786 0.0
H2658 H 0.4976 0.95613 0.83812 0.0
H2659 H 0.47141 0.95546 0.8251 0.0
C2660 C 0.55302 0.94161 0.79265 0.0
C2661 C 0.54102 0.92391 0.78475 0.0
C2662 C 0.54244 0.96013 0.80038 0.0
C2663 C 0.5197 0.96129 0.80034 0.0
C2664 C 0.50777 0.94322 0.79336 0.0
H2665 H 0.42219 0.04125 0.76417 0.0
H2666 H 0.44624 0.01361 0.77902 0.0
C2667 C 0.51829 0.92466 0.78586 0.0
C2668 C 0.50842 0.98223 0.8042 0.0
H2669 H 0.46194 0.00327 0.82566 0.0
C2670 C 0.51462 0.00015 0.79161 0.0
C2671 C 0.48997 0.98393 0.81774 0.0
C2672 C 0.48348 0.9661 0.83312 0.0
C2673 C 0.50176 0.01887 0.79062 0.0
C2674 C 0.48224 0.01967 0.80254 0.0
C2675 C 0.47689 0.00252 0.81645 0.0
C2676 C 0.46562 0.03617 0.79754 0.0
C2677 C 0.50818 0.03696 0.77545 0.0
C2678 C 0.46812 0.05793 0.80371 0.0
C2679 C 0.4542 0.07384 0.79534 0.0
C2680 C 0.43792 0.06808 0.78049 0.0
C2681 C 0.43473 0.04613 0.77545 0.0
C2682 C 0.44838 0.03032 0.784 0.0
H2683 H 0.52361 0.03353 0.76684 0.0
H2684 H 0.49523 0.03961 0.76324 0.0
H2685 H 0.5101 0.05223 0.78475 0.0
H2686 H 0.4814 0.0627 0.81415 0.0
H2687 H 0.45703 0.09068 0.7994 0.0
H2688 H 0.2522 0.96008 0.55777 0.0
H2689 H 0.2341 0.98746 0.53627 0.0
H2690 H 0.18028 0.94414 0.52561 0.0
H2691 H 0.19883 0.91606 0.54692 0.0
H2692 H 0.19368 0.96011 0.48863 0.0
H2693 H 0.18565 0.02913 0.54382 0.0
H2694 H 0.21293 0.01955 0.54588 0.0
H2695 H 0.1908 0.00206 0.55372 0.0
C2696 C 0.23634 0.9564 0.55122 0.0
C2697 C 0.22703 0.93582 0.55394 0.0
C2698 C 0.22582 0.97226 0.53913 0.0
C2699 C 0.20556 0.96811 0.52967 0.0
C2700 C 0.19578 0.94781 0.53297 0.0
H2701 H 0.19292 0.08289 0.44788 0.0
H2702 H 0.17685 0.05487 0.4712 0.0
C2703 C 0.20639 0.93179 0.54512 0.0
C2704 C 0.19662 0.98401 0.51397 0.0
H2705 H 0.19554 0.03859 0.50574 0.0
C2706 C 0.19331 0.97724 0.49251 0.0
C2707 C 0.19527 0.00636 0.51895 0.0
C2708 C 0.1961 0.01459 0.54194 0.0
C2709 C 0.19169 0.99236 0.4756 0.0
C2710 C 0.19409 0.01468 0.48027 0.0
C2711 C 0.19433 0.02146 0.50198 0.0
C2712 C 0.20079 0.03044 0.46337 0.0
C2713 C 0.18874 0.98415 0.45277 0.0
C2714 C 0.21938 0.02597 0.45106 0.0
C2715 C 0.22849 0.04181 0.43786 0.0
C2716 C 0.21941 0.06264 0.43681 0.0
C2717 C 0.20022 0.06694 0.44833 0.0
C2718 C 0.19105 0.05097 0.46165 0.0
H2719 H 0.17789 0.96979 0.45259 0.0
H2720 H 0.18186 0.99679 0.44196 0.0
H2721 H 0.20465 0.97891 0.44623 0.0
H2722 H 0.22765 0.01057 0.45256 0.0
H2723 H 0.24324 0.03793 0.42916 0.0
H2724 H 0.07301 0.20005 0.5621 0.0
H2725 H 0.0411 0.1813 0.54733 0.0
H2726 H 0.04406 0.22177 0.49034 0.0
H2727 H 0.0758 0.23976 0.50447 0.0
H2728 H 0.00386 0.19942 0.54109 0.0
H2729 H 0.02676 0.16715 0.46196 0.0
H2730 H 0.04695 0.17395 0.48206 0.0
H2731 H 0.03741 0.19407 0.46301 0.0
C2732 C 0.06718 0.2044 0.54613 0.0
C2733 C 0.07681 0.22148 0.53451 0.0
C2734 C 0.04898 0.19368 0.5377 0.0
C2735 C 0.04036 0.19975 0.51748 0.0
C2736 C 0.05071 0.21614 0.50557 0.0
H2737 H 0.93693 0.25772 0.47914 0.0
H2738 H 0.96457 0.23768 0.49849 0.0
C2739 C 0.06875 0.22673 0.5139 0.0
C2740 C 0.01867 0.19231 0.5102 0.0
H2741 H 0.99097 0.18732 0.46269 0.0
C2742 C 0.00102 0.19583 0.52411 0.0
C2743 C 0.01463 0.18676 0.4883 0.0
C2744 C 0.03256 0.18002 0.47314 0.0
C2745 C 0.97991 0.1975 0.51591 0.0
C2746 C 0.97658 0.19617 0.49328 0.0
C2747 C 0.9936 0.18909 0.47998 0.0
C2748 C 0.95781 0.20696 0.4829 0.0
C2749 C 0.96165 0.20252 0.53134 0.0
C2750 C 0.94501 0.19651 0.46722 0.0
C2751 C 0.92907 0.20813 0.45587 0.0
C2752 C 0.92611 0.2304 0.4598 0.0
C2753 C 0.93881 0.24061 0.47566 0.0
C2754 C 0.95446 0.22906 0.487 0.0
H2755 H 0.96413 0.19405 0.54703 0.0
H2756 H 0.96141 0.22019 0.53473 0.0
H2757 H 0.9457 0.1977 0.52454 0.0
H2758 H 0.94759 0.17955 0.46354 0.0
H2759 H 0.91956 0.19988 0.44365 0.0
H2760 H 0.79712 0.07765 0.55893 0.0
H2761 H 0.81394 0.04998 0.53574 0.0
H2762 H 0.75786 0.0091 0.5441 0.0
H2763 H 0.74144 0.03604 0.56754 0.0
H2764 H 0.79541 0.98573 0.54394 0.0
H2765 H 0.79283 0.04283 0.4739 0.0
H2766 H 0.80871 0.05038 0.49711 0.0
H2767 H 0.77972 0.04913 0.49923 0.0
C2768 C 0.78861 0.06258 0.55609 0.0
C2769 C 0.76781 0.05917 0.5648 0.0
C2770 C 0.79817 0.04685 0.54275 0.0
C2771 C 0.78698 0.02765 0.53785 0.0
C2772 C 0.76682 0.02379 0.5476 0.0
H2773 H 0.74471 0.95426 0.44106 0.0
H2774 H 0.75936 0.98141 0.46538 0.0
C2775 C 0.75737 0.03932 0.56094 0.0
C2776 C 0.7947 0.01212 0.52119 0.0
H2777 H 0.7963 0.00608 0.46625 0.0
C2778 C 0.79625 0.99016 0.52695 0.0
C2779 C 0.79592 0.01803 0.49906 0.0
C2780 C 0.79413 0.04133 0.4918 0.0
C2781 C 0.79651 0.9738 0.51114 0.0
C2782 C 0.79579 0.97968 0.48898 0.0
C2783 C 0.79676 0.00168 0.48327 0.0
C2784 C 0.78904 0.96396 0.47211 0.0
C2785 C 0.79534 0.95045 0.51831 0.0
C2786 C 0.80113 0.94527 0.46727 0.0
C2787 C 0.79259 0.92942 0.45337 0.0
C2788 C 0.77194 0.93217 0.44411 0.0
C2789 C 0.76056 0.95148 0.44807 0.0
C2790 C 0.76899 0.96713 0.46191 0.0
H2791 H 0.79374 0.94885 0.53617 0.0
H2792 H 0.78134 0.94222 0.51057 0.0
H2793 H 0.8103 0.94187 0.51325 0.0
H2794 H 0.81682 0.94267 0.47467 0.0
H2795 H 0.80181 0.91477 0.45049 0.0
H2796 H 0.92433 0.79928 0.56709 0.0
H2797 H 0.95384 0.81776 0.54754 0.0
H2798 H 0.95869 0.76339 0.50387 0.0
H2799 H 0.92968 0.74506 0.52309 0.0
H2800 H 0.99575 0.80094 0.5436 0.0
H2801 H 0.9619 0.8147 0.46231 0.0
H2802 H 0.94495 0.81104 0.48596 0.0
H2803 H 0.95516 0.78791 0.47129 0.0
C2804 C 0.9315 0.79153 0.55306 0.0
C2805 C 0.92482 0.7707 0.54665 0.0
C2806 C 0.94826 0.8021 0.54192 0.0
C2807 C 0.95812 0.79215 0.52397 0.0
C2808 C 0.95094 0.77165 0.51729 0.0
H2809 H 0.06448 0.7446 0.48008 0.0
H2810 H 0.03658 0.76291 0.50092 0.0
C2811 C 0.93452 0.76105 0.52849 0.0
C2812 C 0.97776 0.80123 0.51365 0.0
H2813 H 0.00046 0.80341 0.46339 0.0
C2814 C 0.99674 0.80242 0.52611 0.0
C2815 C 0.97908 0.80378 0.49092 0.0
C2816 C 0.95908 0.80454 0.47691 0.0
C2817 C 0.01715 0.80279 0.51614 0.0
C2818 C 0.01845 0.80165 0.49329 0.0
C2819 C -0.00051 0.80383 0.48094 0.0
C2820 C 0.03789 0.79272 0.48244 0.0
C2821 C 0.03715 0.80243 0.53015 0.0
C2822 C 0.0479 0.80334 0.46496 0.0
C2823 C 0.06408 0.7928 0.45293 0.0
C2824 C 0.06991 0.77136 0.45797 0.0
C2825 C 0.06023 0.76109 0.47577 0.0
C2826 C 0.04445 0.77166 0.48789 0.0
H2827 H 0.03448 0.81179 0.5453 0.0
H2828 H 0.04082 0.78545 0.53482 0.0
H2829 H 0.05139 0.80921 0.52149 0.0
H2830 H 0.04278 0.81947 0.46028 0.0
H2831 H 0.07125 0.80098 0.43916 0.0
H2832 H 0.5658 0.2404 0.96206 0.0
H2833 H 0.54101 0.22396 0.98755 0.0
H2834 H 0.52459 0.17486 0.94052 0.0
H2835 H 0.54915 0.19197 0.91429 0.0
H2836 H 0.48951 0.19187 0.95509 0.0
H2837 H 0.53776 0.17397 0.02711 0.0
H2838 H 0.54449 0.20107 0.01939 0.0
H2839 H 0.55039 0.17889 0.00116 0.0
C2840 C 0.55732 0.22582 0.95719 0.0
C2841 C 0.5593 0.21763 0.93606 0.0
C2842 C 0.54331 0.21619 0.97198 0.0
C2843 C 0.53116 0.19784 0.96621 0.0
C2844 C 0.53394 0.18887 0.94544 0.0
H2845 H 0.44127 0.19694 0.0751 0.0
H2846 H 0.46397 0.17768 0.04868 0.0
C2847 C 0.54798 0.19865 0.93048 0.0
C2848 C 0.5133 0.19076 0.98072 0.0
H2849 H 0.50116 0.19024 0.03457 0.0
C2850 C 0.4921 0.19071 0.97243 0.0
C2851 C 0.51639 0.18828 0.00332 0.0
C2852 C 0.53857 0.18528 0.01313 0.0
C2853 C 0.47412 0.1914 0.98631 0.0
C2854 C 0.47749 0.19297 0.00895 0.0
C2855 C 0.49846 0.18981 0.0172 0.0
C2856 C 0.4607 0.20204 0.02363 0.0
C2857 C 0.45175 0.19172 0.97647 0.0
C2858 C 0.45109 0.22197 0.01831 0.0
C2859 C 0.43812 0.23284 0.03321 0.0
C2860 C 0.43472 0.22429 0.05402 0.0
C2861 C 0.44359 0.20393 0.05917 0.0
C2862 C 0.45655 0.19292 0.04409 0.0
H2863 H 0.45103 0.18078 0.96219 0.0
H2864 H 0.43916 0.18668 0.98829 0.0
H2865 H 0.44803 0.20832 0.97065 0.0
H2866 H 0.45457 0.22982 0.00301 0.0
H2867 H 0.43157 0.24849 0.02867 0.0
H2868 H 0.56538 0.74363 0.04246 0.0
H2869 H 0.5423 0.76038 0.01545 0.0
H2870 H 0.52819 0.81286 0.05947 0.0
H2871 H 0.55123 0.79573 0.08709 0.0
H2872 H 0.49197 0.79577 0.04394 0.0
H2873 H 0.5453 0.81027 0.97441 0.0
H2874 H 0.55008 0.78325 0.98379 0.0
H2875 H 0.55591 0.80592 0.00136 0.0
C2876 C 0.55774 0.75895 0.04634 0.0
C2877 C 0.56 0.76827 0.06697 0.0
C2878 C 0.54473 0.76871 0.03072 0.0
C2879 C 0.53381 0.78814 0.03521 0.0
C2880 C 0.53668 0.798 0.05555 0.0
H2881 H 0.44882 0.79689 0.92214 0.0
H2882 H 0.47146 0.8137 0.95026 0.0
C2883 C 0.54982 0.7882 0.07129 0.0
C2884 C 0.51716 0.79589 0.0197 0.0
H2885 H 0.50818 0.79734 0.96524 0.0
C2886 C 0.49557 0.7969 0.02677 0.0
C2887 C 0.52171 0.79815 0.99734 0.0
C2888 C 0.54458 0.7996 0.98889 0.0
C2889 C 0.4784 0.79715 0.01187 0.0
C2890 C 0.48301 0.79578 0.98946 0.0
C2891 C 0.50455 0.79778 0.98244 0.0
C2892 C 0.46662 0.78803 0.97368 0.0
C2893 C 0.4555 0.79753 0.02037 0.0
C2894 C 0.45629 0.76814 0.97753 0.0
C2895 C 0.4435 0.75858 0.96161 0.0
C2896 C 0.44088 0.76853 0.94132 0.0
C2897 C 0.45052 0.78886 0.93765 0.0
C2898 C 0.46343 0.79848 0.95369 0.0
H2899 H 0.45441 0.8077 0.03519 0.0
H2900 H 0.44394 0.80386 0.0081 0.0
H2901 H 0.45058 0.78085 0.02493 0.0
H2902 H 0.459 0.75938 0.99249 0.0
H2903 H 0.4363 0.74293 0.965 0.0
H2904 H 0.24717 0.43292 0.95886 0.0
H2905 H 0.23254 0.45882 0.98446 0.0
H2906 H 0.18432 0.47837 0.93772 0.0
H2907 H 0.19948 0.45256 0.91148 0.0
H2908 H 0.20513 0.51226 0.9521 0.0
H2909 H 0.1822 0.46536 0.02386 0.0
H2910 H 0.20869 0.45665 0.01598 0.0
H2911 H 0.18611 0.45261 0.99779 0.0
C2912 C 0.23314 0.44234 0.95411 0.0
C2913 C 0.22462 0.44085 0.93307 0.0
C2914 C 0.22456 0.457 0.96894 0.0
C2915 C 0.20704 0.47034 0.96323 0.0
C2916 C 0.1977 0.46809 0.94257 0.0
H2917 H 0.20594 0.56206 0.07127 0.0
H2918 H 0.18767 0.53969 0.04393 0.0
C2919 C 0.20636 0.45335 0.92761 0.0
C2920 C 0.20129 0.4887 0.97766 0.0
H2921 H 0.19994 0.50092 0.03148 0.0
C2922 C 0.20321 0.50981 0.9694 0.0
C2923 C 0.19804 0.48577 0.00017 0.0
C2924 C 0.19338 0.46382 0.00984 0.0
C2925 C 0.20484 0.52771 0.98331 0.0
C2926 C 0.20517 0.52426 0.00598 0.0
C2927 C 0.20034 0.50357 0.01411 0.0
C2928 C 0.21427 0.5406 0.02109 0.0
C2929 C 0.20742 0.54996 0.97355 0.0
C2930 C 0.23519 0.54866 0.0173 0.0
C2931 C 0.24558 0.5614 0.03275 0.0
C2932 C 0.23543 0.56613 0.05256 0.0
C2933 C 0.21418 0.5587 0.05614 0.0
C2934 C 0.20371 0.54594 0.04054 0.0
H2935 H 0.19776 0.55139 0.95842 0.0
H2936 H 0.20229 0.56289 0.98496 0.0
H2937 H 0.22466 0.55256 0.96916 0.0
H2938 H 0.244 0.54423 0.00278 0.0
H2939 H 0.26195 0.5668 0.02946 0.0
H2940 H 0.79135 0.42279 0.06109 0.0
H2941 H 0.80287 0.44238 0.02863 0.0
H2942 H 0.79165 0.50313 0.0614 0.0
H2943 H 0.78096 0.48377 0.09396 0.0
H2944 H 0.77544 0.46542 0.00706 0.0
H2945 H 0.84328 0.51971 0.02681 0.0
H2946 H 0.83591 0.49726 0.04409 0.0
H2947 H 0.82242 0.52308 0.04668 0.0
C2948 C 0.79206 0.44032 0.0616 0.0
C2949 C 0.78501 0.45174 0.08003 0.0
C2950 C 0.79868 0.4515 0.04303 0.0
C2951 C 0.79831 0.47427 0.04254 0.0
C2952 C 0.79268 0.48561 0.06145 0.0
H2953 H 0.74276 0.56178 0.96055 0.0
H2954 H 0.75781 0.53778 0.98802 0.0
C2955 C 0.78631 0.47447 0.08007 0.0
C2956 C 0.79966 0.48604 0.02159 0.0
H2957 H 0.81768 0.53334 0.99913 0.0
C2958 C 0.78527 0.47985 0.00507 0.0
C2959 C 0.81251 0.50485 0.01878 0.0
C2960 C 0.82955 0.51142 0.035 0.0
C2961 C 0.782 0.49293 0.98683 0.0
C2962 C 0.79321 0.51279 0.98517 0.0
C2963 C 0.80893 0.51818 0.00065 0.0
C2964 C 0.78619 0.52928 0.96935 0.0
C2965 C 0.7655 0.48615 0.9701 0.0
C2966 C 0.79759 0.53285 0.95001 0.0
C2967 C 0.78899 0.54665 0.93414 0.0
C2968 C 0.76888 0.5569 0.93749 0.0
C2969 C 0.75816 0.55398 0.95735 0.0
C2970 C 0.76674 0.54033 0.97311 0.0
H2971 H 0.7619 0.46854 0.97105 0.0
H2972 H 0.7502 0.49519 0.9729 0.0
H2973 H 0.77128 0.49005 0.95351 0.0
H2974 H 0.81264 0.52437 0.9469 0.0
H2975 H 0.7976 0.54861 0.91897 0.0
loop_
_geom_bond_atom_site_label_1
_geom_bond_atom_site_label_2
_geom_bond_distance
_geom_bond_site_symmetry_2
_ccdc_geom_bond_type
Co0 O3 1.970 . S
Co0 N17 1.989 . S
Co0 O25 1.967 . S
Co0 O32 1.920 . S
Co1 O4 1.966 . S
Co1 N10 2.022 . S
Co1 N18 1.993 . S
Co1 O26 1.941 . S
C2 O3 1.258 . S
C2 O4 1.263 . S
O3 Co0 1.970 . S
O3 C2 1.258 . S
O4 Co1 1.966 . S
O4 C2 1.263 . S
C5 O6 1.235 . S
C5 O32 1.289 . S
O6 C5 1.235 . S
C7 C9 1.400 . S
C7 N10 1.351 . S
C7 C12 1.501 . S
C8 C9 1.387 . S
C8 N11 1.341 . S
C9 C7 1.400 . S
C9 C8 1.387 . S
N10 Co1 2.022 . S
N10 C7 1.351 . S
N10 N11 1.365 . S
N11 C8 1.341 . S
N11 N10 1.365 . S
N11 H31 0.862 . S
C12 C7 1.501 . S
C12 H13 0.961 . S
C12 H14 0.961 . S
C12 H15 0.960 . S
H13 C12 0.961 . S
H14 C12 0.961 . S
H15 C12 0.960 . S
C16 N17 1.342 . S
C16 C20 1.401 . S
C16 C21 1.499 . S
N17 Co0 1.989 . S
N17 C16 1.342 . S
N17 N18 1.388 . S
N18 Co1 1.993 . S
N18 N17 1.388 . S
N18 C19 1.346 . S
C19 N18 1.346 . S
C19 C20 1.396 . S
C19 C29 1.510 . S
C20 C16 1.401 . S
C20 C19 1.396 . S
C21 C16 1.499 . S
C21 H22 0.959 . S
C21 H23 0.960 . S
C21 H24 0.961 . S
H22 C21 0.959 . S
H23 C21 0.960 . S
H24 C21 0.961 . S
O25 Co0 1.967 . S
O25 C33 1.258 . S
O26 Co1 1.941 . S
O26 C33 1.266 . S
H27 C29 0.959 . S
H28 C29 0.961 . S
C29 C19 1.510 . S
C29 H27 0.959 . S
C29 H28 0.961 . S
C29 H30 0.960 . S
H30 C29 0.960 . S
H31 N11 0.862 . S
O32 Co0 1.920 . S
O32 C5 1.289 . S
C33 O25 1.258 . S
C33 O26 1.266 . S
Co34 O37 1.970 . S
Co34 N51 1.989 . S
Co34 O59 1.967 . S
Co34 O66 1.920 . S
Co35 O38 1.966 . S
Co35 N44 2.022 . S
Co35 N52 1.993 . S
Co35 O60 1.941 . S
C36 O37 1.258 . S
C36 O38 1.263 . S
O37 Co34 1.970 . S
O37 C36 1.258 . S
O38 Co35 1.966 . S
O38 C36 1.263 . S
C39 O40 1.235 . S
C39 O66 1.289 . S
O40 C39 1.235 . S
C41 C43 1.400 . S
C41 N44 1.351 . S
C41 C46 1.501 . S
C42 C43 1.387 . S
C42 N45 1.341 . S
C43 C41 1.400 . S
C43 C42 1.387 . S
N44 Co35 2.022 . S
N44 C41 1.351 . S
N44 N45 1.365 . S
N45 C42 1.341 . S
N45 N44 1.365 . S
N45 H65 0.862 . S
C46 C41 1.501 . S
C46 H47 0.961 . S
C46 H48 0.961 . S
C46 H49 0.960 . S
H47 C46 0.961 . S
H48 C46 0.961 . S
H49 C46 0.960 . S
C50 N51 1.342 . S
C50 C54 1.401 . S
C50 C55 1.499 . S
N51 Co34 1.989 . S
N51 C50 1.342 . S
N51 N52 1.388 . S
N52 Co35 1.993 . S
N52 N51 1.388 . S
N52 C53 1.346 . S
C53 N52 1.346 . S
C53 C54 1.396 . S
C53 C63 1.510 . S
C54 C50 1.401 . S
C54 C53 1.396 . S
C55 C50 1.499 . S
C55 H56 0.959 . S
C55 H57 0.960 . S
C55 H58 0.961 . S
H56 C55 0.959 . S
H57 C55 0.960 . S
H58 C55 0.961 . S
O59 Co34 1.967 . S
O59 C67 1.258 . S
O60 Co35 1.941 . S
O60 C67 1.266 . S
H61 C63 0.959 . S
H62 C63 0.961 . S
C63 C53 1.510 . S
C63 H61 0.959 . S
C63 H62 0.961 . S
C63 H64 0.960 . S
H64 C63 0.960 . S
H65 N45 0.862 . S
O66 Co34 1.920 . S
O66 C39 1.289 . S
C67 O59 1.258 . S
C67 O60 1.266 . S
Co68 O71 1.970 . S
Co68 N85 1.989 . S
Co68 O93 1.967 . S
Co68 O100 1.920 . S
Co69 O72 1.966 . S
Co69 N78 2.022 . S
Co69 N86 1.993 . S
Co69 O94 1.941 . S
C70 O71 1.258 . S
C70 O72 1.263 . S
O71 Co68 1.970 . S
O71 C70 1.258 . S
O72 Co69 1.966 . S
O72 C70 1.263 . S
C73 O74 1.235 . S
C73 O100 1.289 . S
O74 C73 1.235 . S
C75 C77 1.400 . S
C75 N78 1.351 . S
C75 C80 1.501 . S
C76 C77 1.387 . S
C76 N79 1.341 . S
C77 C75 1.400 . S
C77 C76 1.387 . S
N78 Co69 2.022 . S
N78 C75 1.351 . S
N78 N79 1.365 . S
N79 C76 1.341 . S
N79 N78 1.365 . S
N79 H99 0.862 . S
C80 C75 1.501 . S
C80 H81 0.961 . S
C80 H82 0.961 . S
C80 H83 0.960 . S
H81 C80 0.961 . S
H82 C80 0.961 . S
H83 C80 0.960 . S
C84 N85 1.342 . S
C84 C88 1.401 . S
C84 C89 1.499 . S
N85 Co68 1.989 . S
N85 C84 1.342 . S
N85 N86 1.388 . S
N86 Co69 1.993 . S
N86 N85 1.388 . S
N86 C87 1.346 . S
C87 N86 1.346 . S
C87 C88 1.396 . S
C87 C97 1.510 . S
C88 C84 1.401 . S
C88 C87 1.396 . S
C89 C84 1.499 . S
C89 H90 0.959 . S
C89 H91 0.960 . S
C89 H92 0.961 . S
H90 C89 0.959 . S
H91 C89 0.960 . S
H92 C89 0.961 . S
O93 Co68 1.967 . S
O93 C101 1.258 . S
O94 Co69 1.941 . S
O94 C101 1.266 . S
H95 C97 0.959 . S
H96 C97 0.961 . S
C97 C87 1.510 . S
C97 H95 0.959 . S
C97 H96 0.961 . S
C97 H98 0.960 . S
H98 C97 0.960 . S
H99 N79 0.862 . S
O100 Co68 1.920 . S
O100 C73 1.289 . S
C101 O93 1.258 . S
C101 O94 1.266 . S
Co102 O105 1.970 . S
Co102 N119 1.989 . S
Co102 O127 1.967 . S
Co102 O134 1.920 . S
Co103 O106 1.966 . S
Co103 N112 2.022 . S
Co103 N120 1.993 . S
Co103 O128 1.941 . S
C104 O105 1.258 . S
C104 O106 1.263 . S
O105 Co102 1.970 . S
O105 C104 1.258 . S
O106 Co103 1.966 . S
O106 C104 1.263 . S
C107 O108 1.235 . S
C107 O134 1.289 . S
O108 C107 1.235 . S
C109 C111 1.400 . S
C109 N112 1.351 . S
C109 C114 1.501 . S
C110 C111 1.387 . S
C110 N113 1.341 . S
C111 C109 1.400 . S
C111 C110 1.387 . S
N112 Co103 2.022 . S
N112 C109 1.351 . S
N112 N113 1.365 . S
N113 C110 1.341 . S
N113 N112 1.365 . S
N113 H133 0.862 . S
C114 C109 1.501 . S
C114 H115 0.961 . S
C114 H116 0.961 . S
C114 H117 0.960 . S
H115 C114 0.961 . S
H116 C114 0.961 . S
H117 C114 0.960 . S
C118 N119 1.342 . S
C118 C122 1.401 . S
C118 C123 1.499 . S
N119 Co102 1.989 . S
N119 C118 1.342 . S
N119 N120 1.388 . S
N120 Co103 1.993 . S
N120 N119 1.388 . S
N120 C121 1.346 . S
C121 N120 1.346 . S
C121 C122 1.396 . S
C121 C131 1.510 . S
C122 C118 1.401 . S
C122 C121 1.396 . S
C123 C118 1.499 . S
C123 H124 0.959 . S
C123 H125 0.960 . S
C123 H126 0.961 . S
H124 C123 0.959 . S
H125 C123 0.960 . S
H126 C123 0.961 . S
O127 Co102 1.967 . S
O127 C135 1.258 . S
O128 Co103 1.941 . S
O128 C135 1.266 . S
H129 C131 0.959 . S
H130 C131 0.961 . S
C131 C121 1.510 . S
C131 H129 0.959 . S
C131 H130 0.961 . S
C131 H132 0.960 . S
H132 C131 0.960 . S
H133 N113 0.862 . S
O134 Co102 1.920 . S
O134 C107 1.289 . S
C135 O127 1.258 . S
C135 O128 1.266 . S
Co136 O139 1.970 . S
Co136 N153 1.989 . S
Co136 O161 1.967 . S
Co136 O168 1.920 . S
Co137 O140 1.966 . S
Co137 N146 2.022 . S
Co137 N154 1.993 . S
Co137 O162 1.941 . S
C138 O139 1.258 . S
C138 O140 1.263 . S
O139 Co136 1.970 . S
O139 C138 1.258 . S
O140 Co137 1.966 . S
O140 C138 1.263 . S
C141 O142 1.235 . S
C141 O168 1.289 . S
O142 C141 1.235 . S
C143 C145 1.400 . S
C143 N146 1.351 . S
C143 C148 1.501 . S
C144 C145 1.387 . S
C144 N147 1.341 . S
C145 C143 1.400 . S
C145 C144 1.387 . S
N146 Co137 2.022 . S
N146 C143 1.351 . S
N146 N147 1.365 . S
N147 C144 1.341 . S
N147 N146 1.365 . S
N147 H167 0.862 . S
C148 C143 1.501 . S
C148 H149 0.961 . S
C148 H150 0.961 . S
C148 H151 0.960 . S
H149 C148 0.961 . S
H150 C148 0.961 . S
H151 C148 0.960 . S
C152 N153 1.342 . S
C152 C156 1.401 . S
C152 C157 1.499 . S
N153 Co136 1.989 . S
N153 C152 1.342 . S
N153 N154 1.388 . S
N154 Co137 1.993 . S
N154 N153 1.388 . S
N154 C155 1.346 . S
C155 N154 1.346 . S
C155 C156 1.396 . S
C155 C165 1.510 . S
C156 C152 1.401 . S
C156 C155 1.396 . S
C157 C152 1.499 . S
C157 H158 0.959 . S
C157 H159 0.960 . S
C157 H160 0.961 . S
H158 C157 0.959 . S
H159 C157 0.960 . S
H160 C157 0.961 . S
O161 Co136 1.967 . S
O161 C169 1.258 . S
O162 Co137 1.941 . S
O162 C169 1.266 . S
H163 C165 0.959 . S
H164 C165 0.961 . S
C165 C155 1.510 . S
C165 H163 0.959 . S
C165 H164 0.961 . S
C165 H166 0.960 . S
H166 C165 0.960 . S
H167 N147 0.862 . S
O168 Co136 1.920 . S
O168 C141 1.289 . S
C169 O161 1.258 . S
C169 O162 1.266 . S
Co170 O173 1.970 . S
Co170 N187 1.989 . S
Co170 O195 1.967 . S
Co170 O202 1.920 . S
Co171 O174 1.966 . S
Co171 N180 2.022 . S
Co171 N188 1.993 . S
Co171 O196 1.941 . S
C172 O173 1.258 . S
C172 O174 1.263 . S
O173 Co170 1.970 . S
O173 C172 1.258 . S
O174 Co171 1.966 . S
O174 C172 1.263 . S
C175 O176 1.235 . S
C175 O202 1.289 . S
O176 C175 1.235 . S
C177 C179 1.400 . S
C177 N180 1.351 . S
C177 C182 1.501 . S
C178 C179 1.387 . S
C178 N181 1.341 . S
C179 C177 1.400 . S
C179 C178 1.387 . S
N180 Co171 2.022 . S
N180 C177 1.351 . S
N180 N181 1.365 . S
N181 C178 1.341 . S
N181 N180 1.365 . S
N181 H201 0.862 . S
C182 C177 1.501 . S
C182 H183 0.961 . S
C182 H184 0.961 . S
C182 H185 0.960 . S
H183 C182 0.961 . S
H184 C182 0.961 . S
H185 C182 0.960 . S
C186 N187 1.342 . S
C186 C190 1.401 . S
C186 C191 1.499 . S
N187 Co170 1.989 . S
N187 C186 1.342 . S
N187 N188 1.388 . S
N188 Co171 1.993 . S
N188 N187 1.388 . S
N188 C189 1.346 . S
C189 N188 1.346 . S
C189 C190 1.396 . S
C189 C199 1.510 . S
C190 C186 1.401 . S
C190 C189 1.396 . S
C191 C186 1.499 . S
C191 H192 0.959 . S
C191 H193 0.960 . S
C191 H194 0.961 . S
H192 C191 0.959 . S
H193 C191 0.960 . S
H194 C191 0.961 . S
O195 Co170 1.967 . S
O195 C203 1.258 . S
O196 Co171 1.941 . S
O196 C203 1.266 . S
H197 C199 0.959 . S
H198 C199 0.961 . S
C199 C189 1.510 . S
C199 H197 0.959 . S
C199 H198 0.961 . S
C199 H200 0.960 . S
H200 C199 0.960 . S
H201 N181 0.862 . S
O202 Co170 1.920 . S
O202 C175 1.289 . S
C203 O195 1.258 . S
C203 O196 1.266 . S
Co204 O207 1.970 . S
Co204 N221 1.989 . S
Co204 O229 1.967 . S
Co204 O236 1.920 . S
Co205 O208 1.966 . S
Co205 N214 2.022 . S
Co205 N222 1.993 . S
Co205 O230 1.941 . S
C206 O207 1.258 . S
C206 O208 1.263 . S
O207 Co204 1.970 . S
O207 C206 1.258 . S
O208 Co205 1.966 . S
O208 C206 1.263 . S
C209 O210 1.235 . S
C209 O236 1.289 . S
O210 C209 1.235 . S
C211 C213 1.400 . S
C211 N214 1.351 . S
C211 C216 1.501 . S
C212 C213 1.387 . S
C212 N215 1.341 . S
C213 C211 1.400 . S
C213 C212 1.387 . S
N214 Co205 2.022 . S
N214 C211 1.351 . S
N214 N215 1.365 . S
N215 C212 1.341 . S
N215 N214 1.365 . S
N215 H235 0.862 . S
C216 C211 1.501 . S
C216 H217 0.961 . S
C216 H218 0.961 . S
C216 H219 0.960 . S
H217 C216 0.961 . S
H218 C216 0.961 . S
H219 C216 0.960 . S
C220 N221 1.342 . S
C220 C224 1.401 . S
C220 C225 1.499 . S
N221 Co204 1.989 . S
N221 C220 1.342 . S
N221 N222 1.388 . S
N222 Co205 1.993 . S
N222 N221 1.388 . S
N222 C223 1.346 . S
C223 N222 1.346 . S
C223 C224 1.396 . S
C223 C233 1.510 . S
C224 C220 1.401 . S
C224 C223 1.396 . S
C225 C220 1.499 . S
C225 H226 0.959 . S
C225 H227 0.960 . S
C225 H228 0.961 . S
H226 C225 0.959 . S
H227 C225 0.960 . S
H228 C225 0.961 . S
O229 Co204 1.967 . S
O229 C237 1.258 . S
O230 Co205 1.941 . S
O230 C237 1.266 . S
H231 C233 0.959 . S
H232 C233 0.961 . S
C233 C223 1.510 . S
C233 H231 0.959 . S
C233 H232 0.961 . S
C233 H234 0.960 . S
H234 C233 0.960 . S
H235 N215 0.862 . S
O236 Co204 1.920 . S
O236 C209 1.289 . S
C237 O229 1.258 . S
C237 O230 1.266 . S
Co238 O241 1.970 . S
Co238 N255 1.989 . S
Co238 O263 1.967 . S
Co238 O270 1.920 . S
Co239 O242 1.966 . S
Co239 N248 2.022 . S
Co239 N256 1.993 . S
Co239 O264 1.941 . S
C240 O241 1.258 . S
C240 O242 1.263 . S
O241 Co238 1.970 . S
O241 C240 1.258 . S
O242 Co239 1.966 . S
O242 C240 1.263 . S
C243 O244 1.235 . S
C243 O270 1.289 . S
O244 C243 1.235 . S
C245 C247 1.400 . S
C245 N248 1.351 . S
C245 C250 1.501 . S
C246 C247 1.387 . S
C246 N249 1.341 . S
C247 C245 1.400 . S
C247 C246 1.387 . S
N248 Co239 2.022 . S
N248 C245 1.351 . S
N248 N249 1.365 . S
N249 C246 1.341 . S
N249 N248 1.365 . S
N249 H269 0.862 . S
C250 C245 1.501 . S
C250 H251 0.961 . S
C250 H252 0.961 . S
C250 H253 0.960 . S
H251 C250 0.961 . S
H252 C250 0.961 . S
H253 C250 0.960 . S
C254 N255 1.342 . S
C254 C258 1.401 . S
C254 C259 1.499 . S
N255 Co238 1.989 . S
N255 C254 1.342 . S
N255 N256 1.388 . S
N256 Co239 1.993 . S
N256 N255 1.388 . S
N256 C257 1.346 . S
C257 N256 1.346 . S
C257 C258 1.396 . S
C257 C267 1.510 . S
C258 C254 1.401 . S
C258 C257 1.396 . S
C259 C254 1.499 . S
C259 H260 0.959 . S
C259 H261 0.960 . S
C259 H262 0.961 . S
H260 C259 0.959 . S
H261 C259 0.960 . S
H262 C259 0.961 . S
O263 Co238 1.967 . S
O263 C271 1.258 . S
O264 Co239 1.941 . S
O264 C271 1.266 . S
H265 C267 0.959 . S
H266 C267 0.961 . S
C267 C257 1.510 . S
C267 H265 0.959 . S
C267 H266 0.961 . S
C267 H268 0.960 . S
H268 C267 0.960 . S
H269 N249 0.862 . S
O270 Co238 1.920 . S
O270 C243 1.289 . S
C271 O263 1.258 . S
C271 O264 1.266 . S
Co272 O275 1.970 . S
Co272 N289 1.989 . S
Co272 O297 1.967 . S
Co272 O304 1.920 . S
Co273 O276 1.966 . S
Co273 N282 2.022 . S
Co273 N290 1.993 . S
Co273 O298 1.941 . S
C274 O275 1.258 . S
C274 O276 1.263 . S
O275 Co272 1.970 . S
O275 C274 1.258 . S
O276 Co273 1.966 . S
O276 C274 1.263 . S
C277 O278 1.235 . S
C277 O304 1.289 . S
O278 C277 1.235 . S
C279 C281 1.400 . S
C279 N282 1.351 . S
C279 C284 1.501 . S
C280 C281 1.387 . S
C280 N283 1.341 . S
C281 C279 1.400 . S
C281 C280 1.387 . S
N282 Co273 2.022 . S
N282 C279 1.351 . S
N282 N283 1.365 . S
N283 C280 1.341 . S
N283 N282 1.365 . S
N283 H303 0.862 . S
C284 C279 1.501 . S
C284 H285 0.961 . S
C284 H286 0.961 . S
C284 H287 0.960 . S
H285 C284 0.961 . S
H286 C284 0.961 . S
H287 C284 0.960 . S
C288 N289 1.342 . S
C288 C292 1.401 . S
C288 C293 1.499 . S
N289 Co272 1.989 . S
N289 C288 1.342 . S
N289 N290 1.388 . S
N290 Co273 1.993 . S
N290 N289 1.388 . S
N290 C291 1.346 . S
C291 N290 1.346 . S
C291 C292 1.396 . S
C291 C301 1.510 . S
C292 C288 1.401 . S
C292 C291 1.396 . S
C293 C288 1.499 . S
C293 H294 0.959 . S
C293 H295 0.960 . S
C293 H296 0.961 . S
H294 C293 0.959 . S
H295 C293 0.960 . S
H296 C293 0.961 . S
O297 Co272 1.967 . S
O297 C305 1.258 . S
O298 Co273 1.941 . S
O298 C305 1.266 . S
H299 C301 0.959 . S
H300 C301 0.961 . S
C301 C291 1.510 . S
C301 H299 0.959 . S
C301 H300 0.961 . S
C301 H302 0.960 . S
H302 C301 0.960 . S
H303 N283 0.862 . S
O304 Co272 1.920 . S
O304 C277 1.289 . S
C305 O297 1.258 . S
C305 O298 1.266 . S
Co306 O309 1.970 . S
Co306 N323 1.989 . S
Co306 O331 1.967 . S
Co306 O338 1.920 . S
Co307 O310 1.966 . S
Co307 N316 2.022 . S
Co307 N324 1.993 . S
Co307 O332 1.941 . S
C308 O309 1.258 . S
C308 O310 1.263 . S
O309 Co306 1.970 . S
O309 C308 1.258 . S
O310 Co307 1.966 . S
O310 C308 1.263 . S
C311 O312 1.235 . S
C311 O338 1.289 . S
O312 C311 1.235 . S
C313 C315 1.400 . S
C313 N316 1.351 . S
C313 C318 1.501 . S
C314 C315 1.387 . S
C314 N317 1.341 . S
C315 C313 1.400 . S
C315 C314 1.387 . S
N316 Co307 2.022 . S
N316 C313 1.351 . S
N316 N317 1.365 . S
N317 C314 1.341 . S
N317 N316 1.365 . S
N317 H337 0.862 . S
C318 C313 1.501 . S
C318 H319 0.961 . S
C318 H320 0.961 . S
C318 H321 0.960 . S
H319 C318 0.961 . S
H320 C318 0.961 . S
H321 C318 0.960 . S
C322 N323 1.342 . S
C322 C326 1.401 . S
C322 C327 1.499 . S
N323 Co306 1.989 . S
N323 C322 1.342 . S
N323 N324 1.388 . S
N324 Co307 1.993 . S
N324 N323 1.388 . S
N324 C325 1.346 . S
C325 N324 1.346 . S
C325 C326 1.396 . S
C325 C335 1.510 . S
C326 C322 1.401 . S
C326 C325 1.396 . S
C327 C322 1.499 . S
C327 H328 0.959 . S
C327 H329 0.960 . S
C327 H330 0.961 . S
H328 C327 0.959 . S
H329 C327 0.960 . S
H330 C327 0.961 . S
O331 Co306 1.967 . S
O331 C339 1.258 . S
O332 Co307 1.941 . S
O332 C339 1.266 . S
H333 C335 0.959 . S
H334 C335 0.961 . S
C335 C325 1.510 . S
C335 H333 0.959 . S
C335 H334 0.961 . S
C335 H336 0.960 . S
H336 C335 0.960 . S
H337 N317 0.862 . S
O338 Co306 1.920 . S
O338 C311 1.289 . S
C339 O331 1.258 . S
C339 O332 1.266 . S
Co340 O343 1.970 . S
Co340 N357 1.989 . S
Co340 O365 1.967 . S
Co340 O372 1.920 . S
Co341 O344 1.966 . S
Co341 N350 2.022 . S
Co341 N358 1.993 . S
Co341 O366 1.941 . S
C342 O343 1.258 . S
C342 O344 1.263 . S
O343 Co340 1.970 . S
O343 C342 1.258 . S
O344 Co341 1.966 . S
O344 C342 1.263 . S
C345 O346 1.235 . S
C345 O372 1.289 . S
O346 C345 1.235 . S
C347 C349 1.400 . S
C347 N350 1.351 . S
C347 C352 1.501 . S
C348 C349 1.387 . S
C348 N351 1.341 . S
C349 C347 1.400 . S
C349 C348 1.387 . S
N350 Co341 2.022 . S
N350 C347 1.351 . S
N350 N351 1.365 . S
N351 C348 1.341 . S
N351 N350 1.365 . S
N351 H371 0.862 . S
C352 C347 1.501 . S
C352 H353 0.961 . S
C352 H354 0.961 . S
C352 H355 0.960 . S
H353 C352 0.961 . S
H354 C352 0.961 . S
H355 C352 0.960 . S
C356 N357 1.342 . S
C356 C360 1.401 . S
C356 C361 1.499 . S
N357 Co340 1.989 . S
N357 C356 1.342 . S
N357 N358 1.388 . S
N358 Co341 1.993 . S
N358 N357 1.388 . S
N358 C359 1.346 . S
C359 N358 1.346 . S
C359 C360 1.396 . S
C359 C369 1.510 . S
C360 C356 1.401 . S
C360 C359 1.396 . S
C361 C356 1.499 . S
C361 H362 0.959 . S
C361 H363 0.960 . S
C361 H364 0.961 . S
H362 C361 0.959 . S
H363 C361 0.960 . S
H364 C361 0.961 . S
O365 Co340 1.967 . S
O365 C373 1.258 . S
O366 Co341 1.941 . S
O366 C373 1.266 . S
H367 C369 0.959 . S
H368 C369 0.961 . S
C369 C359 1.510 . S
C369 H367 0.959 . S
C369 H368 0.961 . S
C369 H370 0.960 . S
H370 C369 0.960 . S
H371 N351 0.862 . S
O372 Co340 1.920 . S
O372 C345 1.289 . S
C373 O365 1.258 . S
C373 O366 1.266 . S
Co374 O377 1.970 . S
Co374 N391 1.989 . S
Co374 O399 1.967 . S
Co374 O406 1.920 . S
Co375 O378 1.966 . S
Co375 N384 2.022 . S
Co375 N392 1.993 . S
Co375 O400 1.941 . S
C376 O377 1.258 . S
C376 O378 1.263 . S
O377 Co374 1.970 . S
O377 C376 1.258 . S
O378 Co375 1.966 . S
O378 C376 1.263 . S
C379 O380 1.235 . S
C379 O406 1.289 . S
O380 C379 1.235 . S
C381 C383 1.400 . S
C381 N384 1.351 . S
C381 C386 1.501 . S
C382 C383 1.387 . S
C382 N385 1.341 . S
C383 C381 1.400 . S
C383 C382 1.387 . S
N384 Co375 2.022 . S
N384 C381 1.351 . S
N384 N385 1.365 . S
N385 C382 1.341 . S
N385 N384 1.365 . S
N385 H405 0.862 . S
C386 C381 1.501 . S
C386 H387 0.961 . S
C386 H388 0.961 . S
C386 H389 0.960 . S
H387 C386 0.961 . S
H388 C386 0.961 . S
H389 C386 0.960 . S
C390 N391 1.342 . S
C390 C394 1.401 . S
C390 C395 1.499 . S
N391 Co374 1.989 . S
N391 C390 1.342 . S
N391 N392 1.388 . S
N392 Co375 1.993 . S
N392 N391 1.388 . S
N392 C393 1.346 . S
C393 N392 1.346 . S
C393 C394 1.396 . S
C393 C403 1.510 . S
C394 C390 1.401 . S
C394 C393 1.396 . S
C395 C390 1.499 . S
C395 H396 0.959 . S
C395 H397 0.960 . S
C395 H398 0.961 . S
H396 C395 0.959 . S
H397 C395 0.960 . S
H398 C395 0.961 . S
O399 Co374 1.967 . S
O399 C407 1.258 . S
O400 Co375 1.941 . S
O400 C407 1.266 . S
H401 C403 0.959 . S
H402 C403 0.961 . S
C403 C393 1.510 . S
C403 H401 0.959 . S
C403 H402 0.961 . S
C403 H404 0.960 . S
H404 C403 0.960 . S
H405 N385 0.862 . S
O406 Co374 1.920 . S
O406 C379 1.289 . S
C407 O399 1.258 . S
C407 O400 1.266 . S
Co408 O411 1.970 . S
Co408 N425 1.989 . S
Co408 O433 1.967 . S
Co408 O440 1.920 . S
Co409 O412 1.966 . S
Co409 N418 2.022 . S
Co409 N426 1.993 . S
Co409 O434 1.941 . S
C410 O411 1.258 . S
C410 O412 1.263 . S
O411 Co408 1.970 . S
O411 C410 1.258 . S
O412 Co409 1.966 . S
O412 C410 1.263 . S
C413 O414 1.235 . S
C413 O440 1.289 . S
O414 C413 1.235 . S
C415 C417 1.400 . S
C415 N418 1.351 . S
C415 C420 1.501 . S
C416 C417 1.387 . S
C416 N419 1.341 . S
C417 C415 1.400 . S
C417 C416 1.387 . S
N418 Co409 2.022 . S
N418 C415 1.351 . S
N418 N419 1.365 . S
N419 C416 1.341 . S
N419 N418 1.365 . S
N419 H439 0.862 . S
C420 C415 1.501 . S
C420 H421 0.961 . S
C420 H422 0.961 . S
C420 H423 0.960 . S
H421 C420 0.961 . S
H422 C420 0.961 . S
H423 C420 0.960 . S
C424 N425 1.342 . S
C424 C428 1.401 . S
C424 C429 1.499 . S
N425 Co408 1.989 . S
N425 C424 1.342 . S
N425 N426 1.388 . S
N426 Co409 1.993 . S
N426 N425 1.388 . S
N426 C427 1.346 . S
C427 N426 1.346 . S
C427 C428 1.396 . S
C427 C437 1.510 . S
C428 C424 1.401 . S
C428 C427 1.396 . S
C429 C424 1.499 . S
C429 H430 0.959 . S
C429 H431 0.960 . S
C429 H432 0.961 . S
H430 C429 0.959 . S
H431 C429 0.960 . S
H432 C429 0.961 . S
O433 Co408 1.967 . S
O433 C441 1.258 . S
O434 Co409 1.941 . S
O434 C441 1.266 . S
H435 C437 0.959 . S
H436 C437 0.961 . S
C437 C427 1.510 . S
C437 H435 0.959 . S
C437 H436 0.961 . S
C437 H438 0.960 . S
H438 C437 0.960 . S
H439 N419 0.862 . S
O440 Co408 1.920 . S
O440 C413 1.289 . S
C441 O433 1.258 . S
C441 O434 1.266 . S
Co442 O445 1.970 . S
Co442 N459 1.989 . S
Co442 O467 1.967 . S
Co442 O474 1.920 . S
Co443 O446 1.966 . S
Co443 N452 2.022 . S
Co443 N460 1.993 . S
Co443 O468 1.941 . S
C444 O445 1.258 . S
C444 O446 1.263 . S
O445 Co442 1.970 . S
O445 C444 1.258 . S
O446 Co443 1.966 . S
O446 C444 1.263 . S
C447 O448 1.235 . S
C447 O474 1.289 . S
O448 C447 1.235 . S
C449 C451 1.400 . S
C449 N452 1.351 . S
C449 C454 1.501 . S
C450 C451 1.387 . S
C450 N453 1.341 . S
C451 C449 1.400 . S
C451 C450 1.387 . S
N452 Co443 2.022 . S
N452 C449 1.351 . S
N452 N453 1.365 . S
N453 C450 1.341 . S
N453 N452 1.365 . S
N453 H473 0.862 . S
C454 C449 1.501 . S
C454 H455 0.961 . S
C454 H456 0.961 . S
C454 H457 0.960 . S
H455 C454 0.961 . S
H456 C454 0.961 . S
H457 C454 0.960 . S
C458 N459 1.342 . S
C458 C462 1.401 . S
C458 C463 1.499 . S
N459 Co442 1.989 . S
N459 C458 1.342 . S
N459 N460 1.388 . S
N460 Co443 1.993 . S
N460 N459 1.388 . S
N460 C461 1.346 . S
C461 N460 1.346 . S
C461 C462 1.396 . S
C461 C471 1.510 . S
C462 C458 1.401 . S
C462 C461 1.396 . S
C463 C458 1.499 . S
C463 H464 0.959 . S
C463 H465 0.960 . S
C463 H466 0.961 . S
H464 C463 0.959 . S
H465 C463 0.960 . S
H466 C463 0.961 . S
O467 Co442 1.967 . S
O467 C475 1.258 . S
O468 Co443 1.941 . S
O468 C475 1.266 . S
H469 C471 0.959 . S
H470 C471 0.961 . S
C471 C461 1.510 . S
C471 H469 0.959 . S
C471 H470 0.961 . S
C471 H472 0.960 . S
H472 C471 0.960 . S
H473 N453 0.862 . S
O474 Co442 1.920 . S
O474 C447 1.289 . S
C475 O467 1.258 . S
C475 O468 1.266 . S
Co476 O479 1.970 . S
Co476 N493 1.989 . S
Co476 O501 1.967 . S
Co476 O508 1.920 . S
Co477 O480 1.966 . S
Co477 N486 2.022 . S
Co477 N494 1.993 . S
Co477 O502 1.941 . S
C478 O479 1.258 . S
C478 O480 1.263 . S
O479 Co476 1.970 . S
O479 C478 1.258 . S
O480 Co477 1.966 . S
O480 C478 1.263 . S
C481 O482 1.235 . S
C481 O508 1.289 . S
O482 C481 1.235 . S
C483 C485 1.400 . S
C483 N486 1.351 . S
C483 C488 1.501 . S
C484 C485 1.387 . S
C484 N487 1.341 . S
C485 C483 1.400 . S
C485 C484 1.387 . S
N486 Co477 2.022 . S
N486 C483 1.351 . S
N486 N487 1.365 . S
N487 C484 1.341 . S
N487 N486 1.365 . S
N487 H507 0.862 . S
C488 C483 1.501 . S
C488 H489 0.961 . S
C488 H490 0.961 . S
C488 H491 0.960 . S
H489 C488 0.961 . S
H490 C488 0.961 . S
H491 C488 0.960 . S
C492 N493 1.342 . S
C492 C496 1.401 . S
C492 C497 1.499 . S
N493 Co476 1.989 . S
N493 C492 1.342 . S
N493 N494 1.388 . S
N494 Co477 1.993 . S
N494 N493 1.388 . S
N494 C495 1.346 . S
C495 N494 1.346 . S
C495 C496 1.396 . S
C495 C505 1.510 . S
C496 C492 1.401 . S
C496 C495 1.396 . S
C497 C492 1.499 . S
C497 H498 0.959 . S
C497 H499 0.960 . S
C497 H500 0.961 . S
H498 C497 0.959 . S
H499 C497 0.960 . S
H500 C497 0.961 . S
O501 Co476 1.967 . S
O501 C509 1.258 . S
O502 Co477 1.941 . S
O502 C509 1.266 . S
H503 C505 0.959 . S
H504 C505 0.961 . S
C505 C495 1.510 . S
C505 H503 0.959 . S
C505 H504 0.961 . S
C505 H506 0.960 . S
H506 C505 0.960 . S
H507 N487 0.862 . S
O508 Co476 1.920 . S
O508 C481 1.289 . S
C509 O501 1.258 . S
C509 O502 1.266 . S
Co510 O513 1.970 . S
Co510 N527 1.989 . S
Co510 O535 1.967 . S
Co510 O542 1.920 . S
Co511 O514 1.966 . S
Co511 N520 2.022 . S
Co511 N528 1.993 . S
Co511 O536 1.941 . S
C512 O513 1.258 . S
C512 O514 1.263 . S
O513 Co510 1.970 . S
O513 C512 1.258 . S
O514 Co511 1.966 . S
O514 C512 1.263 . S
C515 O516 1.235 . S
C515 O542 1.289 . S
O516 C515 1.235 . S
C517 C519 1.400 . S
C517 N520 1.351 . S
C517 C522 1.501 . S
C518 C519 1.387 . S
C518 N521 1.341 . S
C519 C517 1.400 . S
C519 C518 1.387 . S
N520 Co511 2.022 . S
N520 C517 1.351 . S
N520 N521 1.365 . S
N521 C518 1.341 . S
N521 N520 1.365 . S
N521 H541 0.862 . S
C522 C517 1.501 . S
C522 H523 0.961 . S
C522 H524 0.961 . S
C522 H525 0.960 . S
H523 C522 0.961 . S
H524 C522 0.961 . S
H525 C522 0.960 . S
C526 N527 1.342 . S
C526 C530 1.401 . S
C526 C531 1.499 . S
N527 Co510 1.989 . S
N527 C526 1.342 . S
N527 N528 1.388 . S
N528 Co511 1.993 . S
N528 N527 1.388 . S
N528 C529 1.346 . S
C529 N528 1.346 . S
C529 C530 1.396 . S
C529 C539 1.510 . S
C530 C526 1.401 . S
C530 C529 1.396 . S
C531 C526 1.499 . S
C531 H532 0.959 . S
C531 H533 0.960 . S
C531 H534 0.961 . S
H532 C531 0.959 . S
H533 C531 0.960 . S
H534 C531 0.961 . S
O535 Co510 1.967 . S
O535 C543 1.258 . S
O536 Co511 1.941 . S
O536 C543 1.266 . S
H537 C539 0.959 . S
H538 C539 0.961 . S
C539 C529 1.510 . S
C539 H537 0.959 . S
C539 H538 0.961 . S
C539 H540 0.960 . S
H540 C539 0.960 . S
H541 N521 0.862 . S
O542 Co510 1.920 . S
O542 C515 1.289 . S
C543 O535 1.258 . S
C543 O536 1.266 . S
Co544 O547 1.970 . S
Co544 N561 1.989 . S
Co544 O569 1.967 . S
Co544 O576 1.920 . S
Co545 O548 1.966 . S
Co545 N554 2.022 . S
Co545 N562 1.993 . S
Co545 O570 1.941 . S
C546 O547 1.258 . S
C546 O548 1.263 . S
O547 Co544 1.970 . S
O547 C546 1.258 . S
O548 Co545 1.966 . S
O548 C546 1.263 . S
C549 O550 1.235 . S
C549 O576 1.289 . S
O550 C549 1.235 . S
C551 C553 1.400 . S
C551 N554 1.351 . S
C551 C556 1.501 . S
C552 C553 1.387 . S
C552 N555 1.341 . S
C553 C551 1.400 . S
C553 C552 1.387 . S
N554 Co545 2.022 . S
N554 C551 1.351 . S
N554 N555 1.365 . S
N555 C552 1.341 . S
N555 N554 1.365 . S
N555 H575 0.862 . S
C556 C551 1.501 . S
C556 H557 0.961 . S
C556 H558 0.961 . S
C556 H559 0.960 . S
H557 C556 0.961 . S
H558 C556 0.961 . S
H559 C556 0.960 . S
C560 N561 1.342 . S
C560 C564 1.401 . S
C560 C565 1.499 . S
N561 Co544 1.989 . S
N561 C560 1.342 . S
N561 N562 1.388 . S
N562 Co545 1.993 . S
N562 N561 1.388 . S
N562 C563 1.346 . S
C563 N562 1.346 . S
C563 C564 1.396 . S
C563 C573 1.510 . S
C564 C560 1.401 . S
C564 C563 1.396 . S
C565 C560 1.499 . S
C565 H566 0.959 . S
C565 H567 0.960 . S
C565 H568 0.961 . S
H566 C565 0.959 . S
H567 C565 0.960 . S
H568 C565 0.961 . S
O569 Co544 1.967 . S
O569 C577 1.258 . S
O570 Co545 1.941 . S
O570 C577 1.266 . S
H571 C573 0.959 . S
H572 C573 0.961 . S
C573 C563 1.510 . S
C573 H571 0.959 . S
C573 H572 0.961 . S
C573 H574 0.960 . S
H574 C573 0.960 . S
H575 N555 0.862 . S
O576 Co544 1.920 . S
O576 C549 1.289 . S
C577 O569 1.258 . S
C577 O570 1.266 . S
Co578 O581 1.970 . S
Co578 N595 1.989 . S
Co578 O603 1.967 . S
Co578 O610 1.920 . S
Co579 O582 1.966 . S
Co579 N588 2.022 . S
Co579 N596 1.993 . S
Co579 O604 1.941 . S
C580 O581 1.258 . S
C580 O582 1.263 . S
O581 Co578 1.970 . S
O581 C580 1.258 . S
O582 Co579 1.966 . S
O582 C580 1.263 . S
C583 O584 1.235 . S
C583 O610 1.289 . S
O584 C583 1.235 . S
C585 C587 1.400 . S
C585 N588 1.351 . S
C585 C590 1.501 . S
C586 C587 1.387 . S
C586 N589 1.341 . S
C587 C585 1.400 . S
C587 C586 1.387 . S
N588 Co579 2.022 . S
N588 C585 1.351 . S
N588 N589 1.365 . S
N589 C586 1.341 . S
N589 N588 1.365 . S
N589 H609 0.862 . S
C590 C585 1.501 . S
C590 H591 0.961 . S
C590 H592 0.961 . S
C590 H593 0.960 . S
H591 C590 0.961 . S
H592 C590 0.961 . S
H593 C590 0.960 . S
C594 N595 1.342 . S
C594 C598 1.401 . S
C594 C599 1.499 . S
N595 Co578 1.989 . S
N595 C594 1.342 . S
N595 N596 1.388 . S
N596 Co579 1.993 . S
N596 N595 1.388 . S
N596 C597 1.346 . S
C597 N596 1.346 . S
C597 C598 1.396 . S
C597 C607 1.510 . S
C598 C594 1.401 . S
C598 C597 1.396 . S
C599 C594 1.499 . S
C599 H600 0.959 . S
C599 H601 0.960 . S
C599 H602 0.961 . S
H600 C599 0.959 . S
H601 C599 0.960 . S
H602 C599 0.961 . S
O603 Co578 1.967 . S
O603 C611 1.258 . S
O604 Co579 1.941 . S
O604 C611 1.266 . S
H605 C607 0.959 . S
H606 C607 0.961 . S
C607 C597 1.510 . S
C607 H605 0.959 . S
C607 H606 0.961 . S
C607 H608 0.960 . S
H608 C607 0.960 . S
H609 N589 0.862 . S
O610 Co578 1.920 . S
O610 C583 1.289 . S
C611 O603 1.258 . S
C611 O604 1.266 . S
Co612 O615 1.970 . S
Co612 N629 1.989 . S
Co612 O637 1.967 . S
Co612 O644 1.920 . S
Co613 O616 1.966 . S
Co613 N622 2.022 . S
Co613 N630 1.993 . S
Co613 O638 1.941 . S
C614 O615 1.258 . S
C614 O616 1.263 . S
O615 Co612 1.970 . S
O615 C614 1.258 . S
O616 Co613 1.966 . S
O616 C614 1.263 . S
C617 O618 1.235 . S
C617 O644 1.289 . S
O618 C617 1.235 . S
C619 C621 1.400 . S
C619 N622 1.351 . S
C619 C624 1.501 . S
C620 C621 1.387 . S
C620 N623 1.341 . S
C621 C619 1.400 . S
C621 C620 1.387 . S
N622 Co613 2.022 . S
N622 C619 1.351 . S
N622 N623 1.365 . S
N623 C620 1.341 . S
N623 N622 1.365 . S
N623 H643 0.862 . S
C624 C619 1.501 . S
C624 H625 0.961 . S
C624 H626 0.961 . S
C624 H627 0.960 . S
H625 C624 0.961 . S
H626 C624 0.961 . S
H627 C624 0.960 . S
C628 N629 1.342 . S
C628 C632 1.401 . S
C628 C633 1.499 . S
N629 Co612 1.989 . S
N629 C628 1.342 . S
N629 N630 1.388 . S
N630 Co613 1.993 . S
N630 N629 1.388 . S
N630 C631 1.346 . S
C631 N630 1.346 . S
C631 C632 1.396 . S
C631 C641 1.510 . S
C632 C628 1.401 . S
C632 C631 1.396 . S
C633 C628 1.499 . S
C633 H634 0.959 . S
C633 H635 0.960 . S
C633 H636 0.961 . S
H634 C633 0.959 . S
H635 C633 0.960 . S
H636 C633 0.961 . S
O637 Co612 1.967 . S
O637 C645 1.258 . S
O638 Co613 1.941 . S
O638 C645 1.266 . S
H639 C641 0.959 . S
H640 C641 0.961 . S
C641 C631 1.510 . S
C641 H639 0.959 . S
C641 H640 0.961 . S
C641 H642 0.960 . S
H642 C641 0.960 . S
H643 N623 0.862 . S
O644 Co612 1.920 . S
O644 C617 1.289 . S
C645 O637 1.258 . S
C645 O638 1.266 . S
Co646 O649 1.970 . S
Co646 N663 1.989 . S
Co646 O671 1.967 . S
Co646 O678 1.920 . S
Co647 O650 1.966 . S
Co647 N656 2.022 . S
Co647 N664 1.993 . S
Co647 O672 1.941 . S
C648 O649 1.258 . S
C648 O650 1.263 . S
O649 Co646 1.970 . S
O649 C648 1.258 . S
O650 Co647 1.966 . S
O650 C648 1.263 . S
C651 O652 1.235 . S
C651 O678 1.289 . S
O652 C651 1.235 . S
C653 C655 1.400 . S
C653 N656 1.351 . S
C653 C658 1.501 . S
C654 C655 1.387 . S
C654 N657 1.341 . S
C655 C653 1.400 . S
C655 C654 1.387 . S
N656 Co647 2.022 . S
N656 C653 1.351 . S
N656 N657 1.365 . S
N657 C654 1.341 . S
N657 N656 1.365 . S
N657 H677 0.862 . S
C658 C653 1.501 . S
C658 H659 0.961 . S
C658 H660 0.961 . S
C658 H661 0.960 . S
H659 C658 0.961 . S
H660 C658 0.961 . S
H661 C658 0.960 . S
C662 N663 1.342 . S
C662 C666 1.401 . S
C662 C667 1.499 . S
N663 Co646 1.989 . S
N663 C662 1.342 . S
N663 N664 1.388 . S
N664 Co647 1.993 . S
N664 N663 1.388 . S
N664 C665 1.346 . S
C665 N664 1.346 . S
C665 C666 1.396 . S
C665 C675 1.510 . S
C666 C662 1.401 . S
C666 C665 1.396 . S
C667 C662 1.499 . S
C667 H668 0.959 . S
C667 H669 0.960 . S
C667 H670 0.961 . S
H668 C667 0.959 . S
H669 C667 0.960 . S
H670 C667 0.961 . S
O671 Co646 1.967 . S
O671 C679 1.258 . S
O672 Co647 1.941 . S
O672 C679 1.266 . S
H673 C675 0.959 . S
H674 C675 0.961 . S
C675 C665 1.510 . S
C675 H673 0.959 . S
C675 H674 0.961 . S
C675 H676 0.960 . S
H676 C675 0.960 . S
H677 N657 0.862 . S
O678 Co646 1.920 . S
O678 C651 1.289 . S
C679 O671 1.258 . S
C679 O672 1.266 . S
Co680 O683 1.970 . S
Co680 N697 1.989 . S
Co680 O705 1.967 . S
Co680 O712 1.920 . S
Co681 O684 1.966 . S
Co681 N690 2.022 . S
Co681 N698 1.993 . S
Co681 O706 1.941 . S
C682 O683 1.258 . S
C682 O684 1.263 . S
O683 Co680 1.970 . S
O683 C682 1.258 . S
O684 Co681 1.966 . S
O684 C682 1.263 . S
C685 O686 1.235 . S
C685 O712 1.289 . S
O686 C685 1.235 . S
C687 C689 1.400 . S
C687 N690 1.351 . S
C687 C692 1.501 . S
C688 C689 1.387 . S
C688 N691 1.341 . S
C689 C687 1.400 . S
C689 C688 1.387 . S
N690 Co681 2.022 . S
N690 C687 1.351 . S
N690 N691 1.365 . S
N691 C688 1.341 . S
N691 N690 1.365 . S
N691 H711 0.862 . S
C692 C687 1.501 . S
C692 H693 0.961 . S
C692 H694 0.961 . S
C692 H695 0.960 . S
H693 C692 0.961 . S
H694 C692 0.961 . S
H695 C692 0.960 . S
C696 N697 1.342 . S
C696 C700 1.401 . S
C696 C701 1.499 . S
N697 Co680 1.989 . S
N697 C696 1.342 . S
N697 N698 1.388 . S
N698 Co681 1.993 . S
N698 N697 1.388 . S
N698 C699 1.346 . S
C699 N698 1.346 . S
C699 C700 1.396 . S
C699 C709 1.510 . S
C700 C696 1.401 . S
C700 C699 1.396 . S
C701 C696 1.499 . S
C701 H702 0.959 . S
C701 H703 0.960 . S
C701 H704 0.961 . S
H702 C701 0.959 . S
H703 C701 0.960 . S
H704 C701 0.961 . S
O705 Co680 1.967 . S
O705 C713 1.258 . S
O706 Co681 1.941 . S
O706 C713 1.266 . S
H707 C709 0.959 . S
H708 C709 0.961 . S
C709 C699 1.510 . S
C709 H707 0.959 . S
C709 H708 0.961 . S
C709 H710 0.960 . S
H710 C709 0.960 . S
H711 N691 0.862 . S
O712 Co680 1.920 . S
O712 C685 1.289 . S
C713 O705 1.258 . S
C713 O706 1.266 . S
Co714 O717 1.970 . S
Co714 N731 1.989 . S
Co714 O739 1.967 . S
Co714 O746 1.920 . S
Co715 O718 1.966 . S
Co715 N724 2.022 . S
Co715 N732 1.993 . S
Co715 O740 1.941 . S
C716 O717 1.258 . S
C716 O718 1.263 . S
O717 Co714 1.970 . S
O717 C716 1.258 . S
O718 Co715 1.966 . S
O718 C716 1.263 . S
C719 O720 1.235 . S
C719 O746 1.289 . S
O720 C719 1.235 . S
C721 C723 1.400 . S
C721 N724 1.351 . S
C721 C726 1.501 . S
C722 C723 1.387 . S
C722 N725 1.341 . S
C723 C721 1.400 . S
C723 C722 1.387 . S
N724 Co715 2.022 . S
N724 C721 1.351 . S
N724 N725 1.365 . S
N725 C722 1.341 . S
N725 N724 1.365 . S
N725 H745 0.862 . S
C726 C721 1.501 . S
C726 H727 0.961 . S
C726 H728 0.961 . S
C726 H729 0.960 . S
H727 C726 0.961 . S
H728 C726 0.961 . S
H729 C726 0.960 . S
C730 N731 1.342 . S
C730 C734 1.401 . S
C730 C735 1.499 . S
N731 Co714 1.989 . S
N731 C730 1.342 . S
N731 N732 1.388 . S
N732 Co715 1.993 . S
N732 N731 1.388 . S
N732 C733 1.346 . S
C733 N732 1.346 . S
C733 C734 1.396 . S
C733 C743 1.510 . S
C734 C730 1.401 . S
C734 C733 1.396 . S
C735 C730 1.499 . S
C735 H736 0.959 . S
C735 H737 0.960 . S
C735 H738 0.961 . S
H736 C735 0.959 . S
H737 C735 0.960 . S
H738 C735 0.961 . S
O739 Co714 1.967 . S
O739 C747 1.258 . S
O740 Co715 1.941 . S
O740 C747 1.266 . S
H741 C743 0.959 . S
H742 C743 0.961 . S
C743 C733 1.510 . S
C743 H741 0.959 . S
C743 H742 0.961 . S
C743 H744 0.960 . S
H744 C743 0.960 . S
H745 N725 0.862 . S
O746 Co714 1.920 . S
O746 C719 1.289 . S
C747 O739 1.258 . S
C747 O740 1.266 . S
Co748 O751 1.970 . S
Co748 N765 1.989 . S
Co748 O773 1.967 . S
Co748 O780 1.920 . S
Co749 O752 1.966 . S
Co749 N758 2.022 . S
Co749 N766 1.993 . S
Co749 O774 1.941 . S
C750 O751 1.258 . S
C750 O752 1.263 . S
O751 Co748 1.970 . S
O751 C750 1.258 . S
O752 Co749 1.966 . S
O752 C750 1.263 . S
C753 O754 1.235 . S
C753 O780 1.289 . S
O754 C753 1.235 . S
C755 C757 1.400 . S
C755 N758 1.351 . S
C755 C760 1.501 . S
C756 C757 1.387 . S
C756 N759 1.341 . S
C757 C755 1.400 . S
C757 C756 1.387 . S
N758 Co749 2.022 . S
N758 C755 1.351 . S
N758 N759 1.365 . S
N759 C756 1.341 . S
N759 N758 1.365 . S
N759 H779 0.862 . S
C760 C755 1.501 . S
C760 H761 0.961 . S
C760 H762 0.961 . S
C760 H763 0.960 . S
H761 C760 0.961 . S
H762 C760 0.961 . S
H763 C760 0.960 . S
C764 N765 1.342 . S
C764 C768 1.401 . S
C764 C769 1.499 . S
N765 Co748 1.989 . S
N765 C764 1.342 . S
N765 N766 1.388 . S
N766 Co749 1.993 . S
N766 N765 1.388 . S
N766 C767 1.346 . S
C767 N766 1.346 . S
C767 C768 1.396 . S
C767 C777 1.510 . S
C768 C764 1.401 . S
C768 C767 1.396 . S
C769 C764 1.499 . S
C769 H770 0.959 . S
C769 H771 0.960 . S
C769 H772 0.961 . S
H770 C769 0.959 . S
H771 C769 0.960 . S
H772 C769 0.961 . S
O773 Co748 1.967 . S
O773 C781 1.258 . S
O774 Co749 1.941 . S
O774 C781 1.266 . S
H775 C777 0.959 . S
H776 C777 0.961 . S
C777 C767 1.510 . S
C777 H775 0.959 . S
C777 H776 0.961 . S
C777 H778 0.960 . S
H778 C777 0.960 . S
H779 N759 0.862 . S
O780 Co748 1.920 . S
O780 C753 1.289 . S
C781 O773 1.258 . S
C781 O774 1.266 . S
Co782 O785 1.970 . S
Co782 N799 1.989 . S
Co782 O807 1.967 . S
Co782 O814 1.920 . S
Co783 O786 1.966 . S
Co783 N792 2.022 . S
Co783 N800 1.993 . S
Co783 O808 1.941 . S
C784 O785 1.258 . S
C784 O786 1.263 . S
O785 Co782 1.970 . S
O785 C784 1.258 . S
O786 Co783 1.966 . S
O786 C784 1.263 . S
C787 O788 1.235 . S
C787 O814 1.289 . S
O788 C787 1.235 . S
C789 C791 1.400 . S
C789 N792 1.351 . S
C789 C794 1.501 . S
C790 C791 1.387 . S
C790 N793 1.341 . S
C791 C789 1.400 . S
C791 C790 1.387 . S
N792 Co783 2.022 . S
N792 C789 1.351 . S
N792 N793 1.365 . S
N793 C790 1.341 . S
N793 N792 1.365 . S
N793 H813 0.862 . S
C794 C789 1.501 . S
C794 H795 0.961 . S
C794 H796 0.961 . S
C794 H797 0.960 . S
H795 C794 0.961 . S
H796 C794 0.961 . S
H797 C794 0.960 . S
C798 N799 1.342 . S
C798 C802 1.401 . S
C798 C803 1.499 . S
N799 Co782 1.989 . S
N799 C798 1.342 . S
N799 N800 1.388 . S
N800 Co783 1.993 . S
N800 N799 1.388 . S
N800 C801 1.346 . S
C801 N800 1.346 . S
C801 C802 1.396 . S
C801 C811 1.510 . S
C802 C798 1.401 . S
C802 C801 1.396 . S
C803 C798 1.499 . S
C803 H804 0.959 . S
C803 H805 0.960 . S
C803 H806 0.961 . S
H804 C803 0.959 . S
H805 C803 0.960 . S
H806 C803 0.961 . S
O807 Co782 1.967 . S
O807 C815 1.258 . S
O808 Co783 1.941 . S
O808 C815 1.266 . S
H809 C811 0.959 . S
H810 C811 0.961 . S
C811 C801 1.510 . S
C811 H809 0.959 . S
C811 H810 0.961 . S
C811 H812 0.960 . S
H812 C811 0.960 . S
H813 N793 0.862 . S
O814 Co782 1.920 . S
O814 C787 1.289 . S
C815 O807 1.258 . S
C815 O808 1.266 . S
H816 C824 0.929 . S
H817 C826 0.930 . S
H818 C828 0.930 . S
H819 C831 0.929 . S
H820 C834 0.930 . S
H821 C836 0.939 1_455 S
H822 C836 0.963 . S
H823 C836 0.978 . S
C824 H816 0.929 . S
C824 C825 1.377 . S
C824 C826 1.384 . S
C825 C824 1.377 . S
C825 C831 1.390 . S
C826 H817 0.930 . S
C826 C824 1.384 . S
C826 C827 1.372 . S
C827 C826 1.372 . S
C827 C828 1.400 . S
C827 C832 1.490 . S
C828 H818 0.930 . S
C828 C827 1.400 . S
C828 C831 1.386 . S
H829 C845 0.930 . S
H830 C846 0.931 . S
C831 H819 0.929 . S
C831 C825 1.390 . S
C831 C828 1.386 . S
C832 C827 1.490 . S
C832 C834 1.395 . S
C832 C835 1.403 . S
H833 C839 0.930 . S
C834 H820 0.930 . S
C834 C832 1.395 . S
C834 C837 1.392 1_655 S
C835 C832 1.403 . S
C835 C836 1.525 . S
C835 C839 1.400 1_655 S
C836 H821 0.939 1_655 S
C836 H822 0.963 . S
C836 H823 0.978 . S
C836 C835 1.525 . S
C837 C834 1.392 1_455 S
C837 C838 1.404 . S
C837 C841 1.495 . S
C838 C837 1.404 . S
C838 C839 1.385 . S
C838 C840 1.478 . S
C839 H833 0.930 . S
C839 C835 1.400 1_455 S
C839 C838 1.385 . S
C840 C838 1.478 . S
C840 C842 1.381 . S
C840 C846 1.383 . S
C841 C837 1.495 . S
C841 H847 0.949 1_455 S
C841 H848 0.963 . S
C841 H849 0.968 . S
C842 C840 1.381 . S
C842 C843 1.394 . S
C842 H850 0.930 . S
C843 C842 1.394 . S
C843 C844 1.383 . S
C843 H851 0.929 . S
C844 C843 1.383 . S
C844 C845 1.377 . S
C845 H829 0.930 . S
C845 C844 1.377 . S
C845 C846 1.379 . S
C846 H830 0.931 . S
C846 C840 1.383 . S
C846 C845 1.379 . S
H847 C841 0.949 1_655 S
H848 C841 0.963 . S
H849 C841 0.968 . S
H850 C842 0.930 . S
H851 C843 0.929 . S
H852 C860 0.929 . S
H853 C862 0.930 . S
H854 C864 0.930 . S
H855 C867 0.929 . S
H856 C870 0.930 . S
H857 C872 0.960 . S
H858 C872 0.960 . S
H859 C872 0.960 . S
C860 H852 0.929 . S
C860 C861 1.377 . S
C860 C862 1.384 . S
C861 C860 1.377 . S
C861 C867 1.390 . S
C862 H853 0.930 . S
C862 C860 1.384 . S
C862 C863 1.372 . S
C863 C862 1.372 . S
C863 C864 1.400 . S
C863 C868 1.490 . S
C864 H854 0.930 . S
C864 C863 1.400 . S
C864 C867 1.386 . S
H865 C881 0.930 . S
H866 C882 0.931 . S
C867 H855 0.929 . S
C867 C861 1.390 . S
C867 C864 1.386 . S
C868 C863 1.490 . S
C868 C870 1.395 . S
C868 C871 1.403 . S
H869 C875 0.930 . S
C870 H856 0.930 . S
C870 C868 1.395 . S
C870 C873 1.403 1_565 S
C871 C868 1.403 . S
C871 C872 1.524 . S
C871 C875 1.400 1_565 S
C872 H857 0.960 . S
C872 H858 0.960 . S
C872 H859 0.960 . S
C872 C871 1.524 . S
C873 C870 1.403 1_545 S
C873 C874 1.392 . S
C873 C877 1.495 . S
C874 C873 1.392 . S
C874 C875 1.385 . S
C874 C876 1.478 . S
C875 H869 0.930 . S
C875 C871 1.400 1_545 S
C875 C874 1.385 . S
C876 C874 1.478 . S
C876 C878 1.381 . S
C876 C882 1.383 . S
C877 C873 1.495 . S
C877 H883 0.959 . S
C877 H884 0.961 . S
C877 H885 0.960 . S
C878 C876 1.381 . S
C878 C879 1.394 . S
C878 H886 0.930 . S
C879 C878 1.394 . S
C879 C880 1.383 . S
C879 H887 0.929 . S
C880 C879 1.383 . S
C880 C881 1.377 . S
C881 H865 0.930 . S
C881 C880 1.377 . S
C881 C882 1.379 . S
C882 H866 0.931 . S
C882 C876 1.383 . S
C882 C881 1.379 . S
H883 C877 0.959 . S
H884 C877 0.961 . S
H885 C877 0.960 . S
H886 C878 0.930 . S
H887 C879 0.929 . S
H888 C896 0.929 . S
H889 C898 0.930 . S
H890 C900 0.930 . S
H891 C903 0.929 . S
H892 C906 0.930 . S
H893 C908 0.960 . S
H894 C908 0.960 1_455 S
H895 C908 0.960 1_455 S
C896 H888 0.929 . S
C896 C897 1.377 . S
C896 C898 1.384 . S
C897 C896 1.377 . S
C897 C903 1.390 . S
C898 H889 0.930 . S
C898 C896 1.384 . S
C898 C899 1.372 . S
C899 C898 1.372 . S
C899 C900 1.400 . S
C899 C904 1.490 . S
C900 H890 0.930 . S
C900 C899 1.400 . S
C900 C903 1.386 . S
H901 C917 0.930 . S
H902 C918 0.931 . S
C903 H891 0.929 . S
C903 C897 1.390 . S
C903 C900 1.386 . S
C904 C899 1.490 . S
C904 C906 1.395 . S
C904 C907 1.374 1_455 S
H905 C911 0.930 . S
C906 H892 0.930 . S
C906 C904 1.395 . S
C906 C909 1.403 . S
C907 C904 1.374 1_655 S
C907 C908 1.528 . S
C907 C911 1.425 . S
C908 H893 0.960 . S
C908 H894 0.960 1_655 S
C908 H895 0.960 1_655 S
C908 C907 1.528 . S
C909 C906 1.403 . S
C909 C910 1.392 1_455 S
C909 C913 1.495 . S
C910 C909 1.392 1_655 S
C910 C911 1.385 . S
C910 C912 1.478 . S
C911 H905 0.930 . S
C911 C907 1.425 . S
C911 C910 1.385 . S
C912 C910 1.478 . S
C912 C914 1.381 . S
C912 C918 1.383 . S
C913 C909 1.495 . S
C913 H919 0.959 . S
C913 H920 0.961 1_455 S
C913 H921 0.938 1_455 S
C914 C912 1.381 . S
C914 C915 1.394 . S
C914 H922 0.930 . S
C915 C914 1.394 . S
C915 C916 1.383 . S
C915 H923 0.929 . S
C916 C915 1.383 . S
C916 C917 1.377 . S
C917 H901 0.930 . S
C917 C916 1.377 . S
C917 C918 1.379 . S
C918 H902 0.931 . S
C918 C912 1.383 . S
C918 C917 1.379 . S
H919 C913 0.959 . S
H920 C913 0.961 1_655 S
H921 C913 0.938 1_655 S
H922 C914 0.930 . S
H923 C915 0.929 . S
H924 C932 0.929 . S
H925 C934 0.930 . S
H926 C936 0.930 . S
H927 C939 0.929 . S
H928 C942 0.930 . S
H929 C944 0.960 . S
H930 C944 0.960 . S
H931 C944 0.960 . S
C932 H924 0.929 . S
C932 C933 1.377 . S
C932 C934 1.384 . S
C933 C932 1.377 . S
C933 C939 1.390 . S
C934 H925 0.930 . S
C934 C932 1.384 . S
C934 C935 1.372 . S
C935 C934 1.372 . S
C935 C936 1.400 . S
C935 C940 1.490 . S
C936 H926 0.930 . S
C936 C935 1.400 . S
C936 C939 1.386 . S
H937 C953 0.930 . S
H938 C954 0.931 . S
C939 H927 0.929 . S
C939 C933 1.390 . S
C939 C936 1.386 . S
C940 C935 1.490 . S
C940 C942 1.395 . S
C940 C943 1.403 . S
H941 C947 0.930 . S
C942 H928 0.930 . S
C942 C940 1.395 . S
C942 C945 1.403 1_565 S
C943 C940 1.403 . S
C943 C944 1.524 . S
C943 C947 1.400 1_565 S
C944 H929 0.960 . S
C944 H930 0.960 . S
C944 H931 0.960 . S
C944 C943 1.524 . S
C945 C942 1.403 1_545 S
C945 C946 1.392 . S
C945 C949 1.495 . S
C946 C945 1.392 . S
C946 C947 1.385 . S
C946 C948 1.478 . S
C947 H941 0.930 . S
C947 C943 1.400 1_545 S
C947 C946 1.385 . S
C948 C946 1.478 . S
C948 C950 1.381 . S
C948 C954 1.383 . S
C949 C945 1.495 . S
C949 H955 0.959 . S
C949 H956 0.961 . S
C949 H957 0.960 . S
C950 C948 1.381 . S
C950 C951 1.394 . S
C950 H958 0.930 . S
C951 C950 1.394 . S
C951 C952 1.383 . S
C951 H959 0.929 . S
C952 C951 1.383 . S
C952 C953 1.377 . S
C953 H937 0.930 . S
C953 C952 1.377 . S
C953 C954 1.379 . S
C954 H938 0.931 . S
C954 C948 1.383 . S
C954 C953 1.379 . S
H955 C949 0.959 . S
H956 C949 0.961 . S
H957 C949 0.960 . S
H958 C950 0.930 . S
H959 C951 0.929 . S
H960 C968 0.929 . S
H961 C970 0.930 . S
H962 C972 0.930 . S
H963 C975 0.929 . S
H964 C978 0.930 . S
H965 C980 0.960 . S
H966 C980 0.960 1_655 S
H967 C980 0.960 1_655 S
C968 H960 0.929 . S
C968 C969 1.377 . S
C968 C970 1.384 . S
C969 C968 1.377 . S
C969 C975 1.390 . S
C970 H961 0.930 . S
C970 C968 1.384 . S
C970 C971 1.372 . S
C971 C970 1.372 . S
C971 C972 1.400 . S
C971 C976 1.490 . S
C972 H962 0.930 . S
C972 C971 1.400 . S
C972 C975 1.386 . S
H973 C989 0.930 . S
H974 C990 0.931 . S
C975 H963 0.929 . S
C975 C969 1.390 . S
C975 C972 1.386 . S
C976 C971 1.490 . S
C976 C978 1.395 . S
C976 C979 1.371 1_655 S
H977 C983 0.930 . S
C978 H964 0.930 . S
C978 C976 1.395 . S
C978 C981 1.403 . S
C979 C976 1.371 1_455 S
C979 C980 1.529 . S
C979 C983 1.428 . S
C980 H965 0.960 . S
C980 H966 0.960 1_455 S
C980 H967 0.960 1_455 S
C980 C979 1.529 . S
C981 C978 1.403 . S
C981 C982 1.392 1_655 S
C981 C985 1.495 . S
C982 C981 1.392 1_455 S
C982 C983 1.385 . S
C982 C984 1.478 . S
C983 H977 0.930 . S
C983 C979 1.428 . S
C983 C982 1.385 . S
C984 C982 1.478 . S
C984 C986 1.381 . S
C984 C990 1.383 . S
C985 C981 1.495 . S
C985 H991 0.959 . S
C985 H992 0.948 1_655 S
C985 H993 0.960 1_655 S
C986 C984 1.381 . S
C986 C987 1.394 . S
C986 H994 0.930 . S
C987 C986 1.394 . S
C987 C988 1.383 . S
C987 H995 0.929 . S
C988 C987 1.383 . S
C988 C989 1.377 . S
C989 H973 0.930 . S
C989 C988 1.377 . S
C989 C990 1.379 . S
C990 H974 0.931 . S
C990 C984 1.383 . S
C990 C989 1.379 . S
H991 C985 0.959 . S
H992 C985 0.948 1_455 S
H993 C985 0.960 1_455 S
H994 C986 0.930 . S
H995 C987 0.929 . S
H996 C1004 0.929 . S
H997 C1006 0.930 . S
H998 C1008 0.930 . S
H999 C1011 0.929 . S
H1000 C1014 0.930 . S
H1001 C1016 0.960 . S
H1002 C1016 0.960 . S
H1003 C1016 0.960 . S
C1004 H996 0.929 . S
C1004 C1005 1.377 . S
C1004 C1006 1.384 . S
C1005 C1004 1.377 . S
C1005 C1011 1.390 . S
C1006 H997 0.930 . S
C1006 C1004 1.384 . S
C1006 C1007 1.372 . S
C1007 C1006 1.372 . S
C1007 C1008 1.400 . S
C1007 C1012 1.490 . S
C1008 H998 0.930 . S
C1008 C1007 1.400 . S
C1008 C1011 1.386 . S
H1009 C1025 0.930 . S
H1010 C1026 0.931 . S
C1011 H999 0.929 . S
C1011 C1005 1.390 . S
C1011 C1008 1.386 . S
C1012 C1007 1.490 . S
C1012 C1014 1.395 . S
C1012 C1015 1.403 . S
H1013 C1019 0.930 . S
C1014 H1000 0.930 . S
C1014 C1012 1.395 . S
C1014 C1017 1.403 1_545 S
C1015 C1012 1.403 . S
C1015 C1016 1.524 . S
C1015 C1019 1.400 1_545 S
C1016 H1001 0.960 . S
C1016 H1002 0.960 . S
C1016 H1003 0.960 . S
C1016 C1015 1.524 . S
C1017 C1014 1.403 1_565 S
C1017 C1018 1.392 . S
C1017 C1021 1.495 . S
C1018 C1017 1.392 . S
C1018 C1019 1.385 . S
C1018 C1020 1.478 . S
C1019 H1013 0.930 . S
C1019 C1015 1.400 1_565 S
C1019 C1018 1.385 . S
C1020 C1018 1.478 . S
C1020 C1022 1.381 . S
C1020 C1026 1.383 . S
C1021 C1017 1.495 . S
C1021 H1027 0.959 . S
C1021 H1028 0.961 . S
C1021 H1029 0.960 . S
C1022 C1020 1.381 . S
C1022 C1023 1.394 . S
C1022 H1030 0.930 . S
C1023 C1022 1.394 . S
C1023 C1024 1.383 . S
C1023 H1031 0.929 . S
C1024 C1023 1.383 . S
C1024 C1025 1.377 . S
C1025 H1009 0.930 . S
C1025 C1024 1.377 . S
C1025 C1026 1.379 . S
C1026 H1010 0.931 . S
C1026 C1020 1.383 . S
C1026 C1025 1.379 . S
H1027 C1021 0.959 . S
H1028 C1021 0.961 . S
H1029 C1021 0.960 . S
H1030 C1022 0.930 . S
H1031 C1023 0.929 . S
H1032 C1040 0.929 . S
H1033 C1042 0.930 . S
H1034 C1044 0.930 . S
H1035 C1047 0.929 . S
H1036 C1050 0.929 1_655 S
H1037 C1052 0.960 . S
H1038 C1052 0.960 . S
H1039 C1052 0.960 . S
C1040 H1032 0.929 . S
C1040 C1041 1.377 . S
C1040 C1042 1.384 . S
C1041 C1040 1.377 . S
C1041 C1047 1.390 . S
C1042 H1033 0.930 . S
C1042 C1040 1.384 . S
C1042 C1043 1.372 . S
C1043 C1042 1.372 . S
C1043 C1044 1.400 . S
C1043 C1048 1.490 . S
C1044 H1034 0.930 . S
C1044 C1043 1.400 . S
C1044 C1047 1.386 . S
H1045 C1061 0.930 . S
H1046 C1062 0.931 . S
C1047 H1035 0.929 . S
C1047 C1041 1.390 . S
C1047 C1044 1.386 . S
C1048 C1043 1.490 . S
C1048 C1050 1.367 1_655 S
C1048 C1051 1.403 . S
H1049 C1055 0.930 . S
C1050 H1036 0.929 1_455 S
C1050 C1048 1.367 1_455 S
C1050 C1053 1.433 . S
C1051 C1048 1.403 . S
C1051 C1052 1.524 . S
C1051 C1055 1.400 1_655 S
C1052 H1037 0.960 . S
C1052 H1038 0.960 . S
C1052 H1039 0.960 . S
C1052 C1051 1.524 . S
C1053 C1050 1.433 . S
C1053 C1054 1.392 . S
C1053 C1057 1.495 . S
C1054 C1053 1.392 . S
C1054 C1055 1.385 . S
C1054 C1056 1.478 . S
C1055 H1049 0.930 . S
C1055 C1051 1.400 1_455 S
C1055 C1054 1.385 . S
C1056 C1054 1.478 . S
C1056 C1058 1.381 . S
C1056 C1062 1.383 . S
C1057 C1053 1.495 . S
C1057 H1063 0.959 . S
C1057 H1064 0.961 . S
C1057 H1065 0.960 . S
C1058 C1056 1.381 . S
C1058 C1059 1.394 . S
C1058 H1066 0.930 . S
C1059 C1058 1.394 . S
C1059 C1060 1.383 . S
C1059 H1067 0.929 . S
C1060 C1059 1.383 . S
C1060 C1061 1.377 . S
C1061 H1045 0.930 . S
C1061 C1060 1.377 . S
C1061 C1062 1.379 . S
C1062 H1046 0.931 . S
C1062 C1056 1.383 . S
C1062 C1061 1.379 . S
H1063 C1057 0.959 . S
H1064 C1057 0.961 . S
H1065 C1057 0.960 . S
H1066 C1058 0.930 . S
H1067 C1059 0.929 . S
H1068 C1076 0.929 . S
H1069 C1078 0.930 . S
H1070 C1080 0.930 . S
H1071 C1083 0.929 . S
H1072 C1086 0.937 . S
H1073 C1088 0.960 . S
H1074 C1088 0.960 . S
H1075 C1088 0.960 . S
C1076 H1068 0.929 . S
C1076 C1077 1.377 . S
C1076 C1078 1.384 . S
C1077 C1076 1.377 . S
C1077 C1083 1.390 . S
C1078 H1069 0.930 . S
C1078 C1076 1.384 . S
C1078 C1079 1.372 . S
C1079 C1078 1.372 . S
C1079 C1080 1.400 . S
C1079 C1084 1.490 . S
C1080 H1070 0.930 . S
C1080 C1079 1.400 . S
C1080 C1083 1.386 . S
H1081 C1097 0.930 . S
H1082 C1098 0.931 . S
C1083 H1071 0.929 . S
C1083 C1077 1.390 . S
C1083 C1080 1.386 . S
C1084 C1079 1.490 . S
C1084 C1086 1.438 . S
C1084 C1087 1.403 . S
H1085 C1091 0.930 . S
C1086 H1072 0.937 . S
C1086 C1084 1.438 . S
C1086 C1089 1.355 1_565 S
C1087 C1084 1.403 . S
C1087 C1088 1.524 . S
C1087 C1091 1.400 1_565 S
C1088 H1073 0.960 . S
C1088 H1074 0.960 . S
C1088 H1075 0.960 . S
C1088 C1087 1.524 . S
C1089 C1086 1.355 1_545 S
C1089 C1090 1.392 . S
C1089 C1093 1.495 . S
C1090 C1089 1.392 . S
C1090 C1091 1.385 . S
C1090 C1092 1.478 . S
C1091 H1085 0.930 . S
C1091 C1087 1.400 1_545 S
C1091 C1090 1.385 . S
C1092 C1090 1.478 . S
C1092 C1094 1.381 . S
C1092 C1098 1.383 . S
C1093 C1089 1.495 . S
C1093 H1099 0.959 . S
C1093 H1100 0.961 . S
C1093 H1101 0.960 . S
C1094 C1092 1.381 . S
C1094 C1095 1.394 . S
C1094 H1102 0.930 . S
C1095 C1094 1.394 . S
C1095 C1096 1.383 . S
C1095 H1103 0.929 . S
C1096 C1095 1.383 . S
C1096 C1097 1.377 . S
C1097 H1081 0.930 . S
C1097 C1096 1.377 . S
C1097 C1098 1.379 . S
C1098 H1082 0.931 . S
C1098 C1092 1.383 . S
C1098 C1097 1.379 . S
H1099 C1093 0.959 . S
H1100 C1093 0.961 . S
H1101 C1093 0.960 . S
H1102 C1094 0.930 . S
H1103 C1095 0.929 . S
H1104 C1112 0.929 . S
H1105 C1114 0.930 . S
H1106 C1116 0.930 . S
H1107 C1119 0.929 . S
H1108 C1122 0.930 . S
H1109 C1124 0.960 1_556 S
H1110 C1124 0.960 . S
H1111 C1124 0.960 . S
C1112 H1104 0.929 . S
C1112 C1113 1.377 . S
C1112 C1114 1.384 . S
C1113 C1112 1.377 . S
C1113 C1119 1.390 . S
C1114 H1105 0.930 . S
C1114 C1112 1.384 . S
C1114 C1115 1.372 . S
C1115 C1114 1.372 . S
C1115 C1116 1.400 . S
C1115 C1120 1.490 . S
C1116 H1106 0.930 . S
C1116 C1115 1.400 . S
C1116 C1119 1.386 . S
H1117 C1133 0.930 . S
H1118 C1134 0.931 . S
C1119 H1107 0.929 . S
C1119 C1113 1.390 . S
C1119 C1116 1.386 . S
C1120 C1115 1.490 . S
C1120 C1122 1.395 . S
C1120 C1123 1.403 . S
H1121 C1127 0.930 . S
C1122 H1108 0.930 . S
C1122 C1120 1.395 . S
C1122 C1125 1.403 1_554 S
C1123 C1120 1.403 . S
C1123 C1124 1.524 . S
C1123 C1127 1.400 1_554 S
C1124 H1109 0.960 1_554 S
C1124 H1110 0.960 . S
C1124 H1111 0.960 . S
C1124 C1123 1.524 . S
C1125 C1122 1.403 1_556 S
C1125 C1126 1.392 . S
C1125 C1129 1.495 . S
C1126 C1125 1.392 . S
C1126 C1127 1.385 . S
C1126 C1128 1.478 . S
C1127 H1121 0.930 . S
C1127 C1123 1.400 1_556 S
C1127 C1126 1.385 . S
C1128 C1126 1.478 . S
C1128 C1130 1.381 . S
C1128 C1134 1.383 . S
C1129 C1125 1.495 . S
C1129 H1135 0.959 1_556 S
C1129 H1136 0.961 . S
C1129 H1137 0.960 . S
C1130 C1128 1.381 . S
C1130 C1131 1.394 . S
C1130 H1138 0.930 . S
C1131 C1130 1.394 . S
C1131 C1132 1.383 . S
C1131 H1139 0.929 . S
C1132 C1131 1.383 . S
C1132 C1133 1.377 . S
C1133 H1117 0.930 . S
C1133 C1132 1.377 . S
C1133 C1134 1.379 . S
C1134 H1118 0.931 . S
C1134 C1128 1.383 . S
C1134 C1133 1.379 . S
H1135 C1129 0.959 1_554 S
H1136 C1129 0.961 . S
H1137 C1129 0.960 . S
H1138 C1130 0.930 . S
H1139 C1131 0.929 . S
H1140 C1148 0.929 . S
H1141 C1150 0.930 . S
H1142 C1152 0.930 . S
H1143 C1155 0.929 . S
H1144 C1158 0.930 . S
H1145 C1160 0.960 . S
H1146 C1160 0.960 . S
H1147 C1160 0.960 . S
C1148 H1140 0.929 . S
C1148 C1149 1.377 . S
C1148 C1150 1.384 . S
C1149 C1148 1.377 . S
C1149 C1155 1.390 . S
C1150 H1141 0.930 . S
C1150 C1148 1.384 . S
C1150 C1151 1.372 . S
C1151 C1150 1.372 . S
C1151 C1152 1.400 . S
C1151 C1156 1.490 . S
C1152 H1142 0.930 . S
C1152 C1151 1.400 . S
C1152 C1155 1.386 . S
H1153 C1169 0.930 . S
H1154 C1170 0.931 . S
C1155 H1143 0.929 . S
C1155 C1149 1.390 . S
C1155 C1152 1.386 . S
C1156 C1151 1.490 . S
C1156 C1158 1.395 . S
C1156 C1159 1.403 . S
H1157 C1163 0.930 . S
C1158 H1144 0.930 . S
C1158 C1156 1.395 . S
C1158 C1161 1.403 1_554 S
C1159 C1156 1.403 . S
C1159 C1160 1.524 . S
C1159 C1163 1.400 1_554 S
C1160 H1145 0.960 . S
C1160 H1146 0.960 . S
C1160 H1147 0.960 . S
C1160 C1159 1.524 . S
C1161 C1158 1.403 1_556 S
C1161 C1162 1.392 . S
C1161 C1165 1.495 . S
C1162 C1161 1.392 . S
C1162 C1163 1.385 . S
C1162 C1164 1.478 . S
C1163 H1157 0.930 . S
C1163 C1159 1.400 1_556 S
C1163 C1162 1.385 . S
C1164 C1162 1.478 . S
C1164 C1166 1.381 . S
C1164 C1170 1.383 . S
C1165 C1161 1.495 . S
C1165 H1171 0.959 . S
C1165 H1172 0.961 . S
C1165 H1173 0.960 . S
C1166 C1164 1.381 . S
C1166 C1167 1.394 . S
C1166 H1174 0.930 . S
C1167 C1166 1.394 . S
C1167 C1168 1.383 . S
C1167 H1175 0.929 . S
C1168 C1167 1.383 . S
C1168 C1169 1.377 . S
C1169 H1153 0.930 . S
C1169 C1168 1.377 . S
C1169 C1170 1.379 . S
C1170 H1154 0.931 . S
C1170 C1164 1.383 . S
C1170 C1169 1.379 . S
H1171 C1165 0.959 . S
H1172 C1165 0.961 . S
H1173 C1165 0.960 . S
H1174 C1166 0.930 . S
H1175 C1167 0.929 . S
H1176 C1184 0.929 . S
H1177 C1186 0.930 . S
H1178 C1188 0.930 . S
H1179 C1191 0.929 . S
H1180 C1194 0.930 . S
H1181 C1196 0.960 . S
H1182 C1196 0.960 . S
H1183 C1196 0.960 . S
C1184 H1176 0.929 . S
C1184 C1185 1.377 . S
C1184 C1186 1.384 . S
C1185 C1184 1.377 . S
C1185 C1191 1.390 . S
C1186 H1177 0.930 . S
C1186 C1184 1.384 . S
C1186 C1187 1.372 . S
C1187 C1186 1.372 . S
C1187 C1188 1.400 . S
C1187 C1192 1.490 . S
C1188 H1178 0.930 . S
C1188 C1187 1.400 . S
C1188 C1191 1.386 . S
H1189 C1205 0.930 . S
H1190 C1206 0.931 . S
C1191 H1179 0.929 . S
C1191 C1185 1.390 . S
C1191 C1188 1.386 . S
C1192 C1187 1.490 . S
C1192 C1194 1.395 . S
C1192 C1195 1.403 . S
H1193 C1199 0.930 . S
C1194 H1180 0.930 . S
C1194 C1192 1.395 . S
C1194 C1197 1.403 1_556 S
C1195 C1192 1.403 . S
C1195 C1196 1.524 . S
C1195 C1199 1.400 1_556 S
C1196 H1181 0.960 . S
C1196 H1182 0.960 . S
C1196 H1183 0.960 . S
C1196 C1195 1.524 . S
C1197 C1194 1.403 1_554 S
C1197 C1198 1.392 . S
C1197 C1201 1.495 . S
C1198 C1197 1.392 . S
C1198 C1199 1.385 . S
C1198 C1200 1.478 . S
C1199 H1193 0.930 . S
C1199 C1195 1.400 1_554 S
C1199 C1198 1.385 . S
C1200 C1198 1.478 . S
C1200 C1202 1.381 . S
C1200 C1206 1.383 . S
C1201 C1197 1.495 . S
C1201 H1207 0.959 . S
C1201 H1208 0.961 . S
C1201 H1209 0.960 . S
C1202 C1200 1.381 . S
C1202 C1203 1.394 . S
C1202 H1210 0.930 . S
C1203 C1202 1.394 . S
C1203 C1204 1.383 . S
C1203 H1211 0.929 . S
C1204 C1203 1.383 . S
C1204 C1205 1.377 . S
C1205 H1189 0.930 . S
C1205 C1204 1.377 . S
C1205 C1206 1.379 . S
C1206 H1190 0.931 . S
C1206 C1200 1.383 . S
C1206 C1205 1.379 . S
H1207 C1201 0.959 . S
H1208 C1201 0.961 . S
H1209 C1201 0.960 . S
H1210 C1202 0.930 . S
H1211 C1203 0.929 . S
H1212 C1220 0.929 . S
H1213 C1222 0.930 . S
H1214 C1224 0.930 . S
H1215 C1227 0.929 . S
H1216 C1230 0.930 . S
H1217 C1232 0.960 . S
H1218 C1232 0.960 . S
H1219 C1232 0.960 . S
C1220 H1212 0.929 . S
C1220 C1221 1.377 . S
C1220 C1222 1.384 . S
C1221 C1220 1.377 . S
C1221 C1227 1.390 . S
C1222 H1213 0.930 . S
C1222 C1220 1.384 . S
C1222 C1223 1.372 . S
C1223 C1222 1.372 . S
C1223 C1224 1.400 . S
C1223 C1228 1.490 . S
C1224 H1214 0.930 . S
C1224 C1223 1.400 . S
C1224 C1227 1.386 . S
H1225 C1241 0.930 . S
H1226 C1242 0.931 . S
C1227 H1215 0.929 . S
C1227 C1221 1.390 . S
C1227 C1224 1.386 . S
C1228 C1223 1.490 . S
C1228 C1230 1.395 . S
C1228 C1231 1.403 . S
H1229 C1235 0.930 . S
C1230 H1216 0.930 . S
C1230 C1228 1.395 . S
C1230 C1233 1.403 1_554 S
C1231 C1228 1.403 . S
C1231 C1232 1.524 . S
C1231 C1235 1.400 1_554 S
C1232 H1217 0.960 . S
C1232 H1218 0.960 . S
C1232 H1219 0.960 . S
C1232 C1231 1.524 . S
C1233 C1230 1.403 1_556 S
C1233 C1234 1.392 . S
C1233 C1237 1.495 . S
C1234 C1233 1.392 . S
C1234 C1235 1.385 . S
C1234 C1236 1.478 . S
C1235 H1229 0.930 . S
C1235 C1231 1.400 1_556 S
C1235 C1234 1.385 . S
C1236 C1234 1.478 . S
C1236 C1238 1.381 . S
C1236 C1242 1.383 . S
C1237 C1233 1.495 . S
C1237 H1243 0.959 . S
C1237 H1244 0.961 . S
C1237 H1245 0.960 . S
C1238 C1236 1.381 . S
C1238 C1239 1.394 . S
C1238 H1246 0.930 . S
C1239 C1238 1.394 . S
C1239 C1240 1.383 . S
C1239 H1247 0.929 . S
C1240 C1239 1.383 . S
C1240 C1241 1.377 . S
C1241 H1225 0.930 . S
C1241 C1240 1.377 . S
C1241 C1242 1.379 . S
C1242 H1226 0.931 . S
C1242 C1236 1.383 . S
C1242 C1241 1.379 . S
H1243 C1237 0.959 . S
H1244 C1237 0.961 . S
H1245 C1237 0.960 . S
H1246 C1238 0.930 . S
H1247 C1239 0.929 . S
H1248 C1256 0.929 . S
H1249 C1258 0.930 . S
H1250 C1260 0.930 . S
H1251 C1263 0.929 . S
H1252 C1266 0.930 . S
H1253 C1268 0.960 . S
H1254 C1268 0.960 . S
H1255 C1268 0.960 . S
C1256 H1248 0.929 . S
C1256 C1257 1.377 . S
C1256 C1258 1.384 . S
C1257 C1256 1.377 . S
C1257 C1263 1.390 . S
C1258 H1249 0.930 . S
C1258 C1256 1.384 . S
C1258 C1259 1.372 . S
C1259 C1258 1.372 . S
C1259 C1260 1.400 . S
C1259 C1264 1.490 . S
C1260 H1250 0.930 . S
C1260 C1259 1.400 . S
C1260 C1263 1.386 . S
H1261 C1277 0.930 . S
H1262 C1278 0.931 . S
C1263 H1251 0.929 . S
C1263 C1257 1.390 . S
C1263 C1260 1.386 . S
C1264 C1259 1.490 . S
C1264 C1266 1.395 . S
C1264 C1267 1.403 . S
H1265 C1271 0.930 . S
C1266 H1252 0.930 . S
C1266 C1264 1.395 . S
C1266 C1269 1.403 . S
C1267 C1264 1.403 . S
C1267 C1268 1.524 . S
C1267 C1271 1.400 . S
C1268 H1253 0.960 . S
C1268 H1254 0.960 . S
C1268 H1255 0.960 . S
C1268 C1267 1.524 . S
C1269 C1266 1.403 . S
C1269 C1270 1.392 . S
C1269 C1273 1.495 . S
C1270 C1269 1.392 . S
C1270 C1271 1.385 . S
C1270 C1272 1.478 . S
C1271 H1265 0.930 . S
C1271 C1267 1.400 . S
C1271 C1270 1.385 . S
C1272 C1270 1.478 . S
C1272 C1274 1.381 . S
C1272 C1278 1.383 . S
C1273 C1269 1.495 . S
C1273 H1279 0.959 . S
C1273 H1280 0.961 . S
C1273 H1281 0.960 . S
C1274 C1272 1.381 . S
C1274 C1275 1.394 . S
C1274 H1282 0.930 . S
C1275 C1274 1.394 . S
C1275 C1276 1.383 . S
C1275 H1283 0.929 . S
C1276 C1275 1.383 . S
C1276 C1277 1.377 . S
C1277 H1261 0.930 . S
C1277 C1276 1.377 . S
C1277 C1278 1.379 . S
C1278 H1262 0.931 . S
C1278 C1272 1.383 . S
C1278 C1277 1.379 . S
H1279 C1273 0.959 . S
H1280 C1273 0.961 . S
H1281 C1273 0.960 . S
H1282 C1274 0.930 . S
H1283 C1275 0.929 . S
H1284 C1292 0.929 . S
H1285 C1294 0.930 . S
H1286 C1296 0.930 . S
H1287 C1299 0.929 . S
H1288 C1302 0.930 . S
H1289 C1304 0.960 . S
H1290 C1304 0.960 . S
H1291 C1304 0.960 . S
C1292 H1284 0.929 . S
C1292 C1293 1.377 . S
C1292 C1294 1.384 . S
C1293 C1292 1.377 . S
C1293 C1299 1.390 . S
C1294 H1285 0.930 . S
C1294 C1292 1.384 . S
C1294 C1295 1.372 . S
C1295 C1294 1.372 . S
C1295 C1296 1.400 . S
C1295 C1300 1.490 . S
C1296 H1286 0.930 . S
C1296 C1295 1.400 . S
C1296 C1299 1.386 . S
H1297 C1313 0.930 . S
H1298 C1314 0.931 . S
C1299 H1287 0.929 . S
C1299 C1293 1.390 . S
C1299 C1296 1.386 . S
C1300 C1295 1.490 . S
C1300 C1302 1.395 . S
C1300 C1303 1.403 . S
H1301 C1307 0.930 . S
C1302 H1288 0.930 . S
C1302 C1300 1.395 . S
C1302 C1305 1.403 . S
C1303 C1300 1.403 . S
C1303 C1304 1.524 . S
C1303 C1307 1.400 . S
C1304 H1289 0.960 . S
C1304 H1290 0.960 . S
C1304 H1291 0.960 . S
C1304 C1303 1.524 . S
C1305 C1302 1.403 . S
C1305 C1306 1.392 . S
C1305 C1309 1.495 . S
C1306 C1305 1.392 . S
C1306 C1307 1.385 . S
C1306 C1308 1.478 . S
C1307 H1301 0.930 . S
C1307 C1303 1.400 . S
C1307 C1306 1.385 . S
C1308 C1306 1.478 . S
C1308 C1310 1.381 . S
C1308 C1314 1.383 . S
C1309 C1305 1.495 . S
C1309 H1315 0.959 . S
C1309 H1316 0.961 . S
C1309 H1317 0.960 . S
C1310 C1308 1.381 . S
C1310 C1311 1.394 . S
C1310 H1318 0.930 . S
C1311 C1310 1.394 . S
C1311 C1312 1.383 . S
C1311 H1319 0.929 . S
C1312 C1311 1.383 . S
C1312 C1313 1.377 . S
C1313 H1297 0.930 . S
C1313 C1312 1.377 . S
C1313 C1314 1.379 . S
C1314 H1298 0.931 . S
C1314 C1308 1.383 . S
C1314 C1313 1.379 . S
H1315 C1309 0.959 . S
H1316 C1309 0.961 . S
H1317 C1309 0.960 . S
H1318 C1310 0.930 . S
H1319 C1311 0.929 . S
H1320 C1328 0.929 . S
H1321 C1330 0.930 . S
H1322 C1332 0.930 . S
H1323 C1335 0.929 . S
H1324 C1338 0.930 . S
H1325 C1340 0.960 . S
H1326 C1340 0.960 . S
H1327 C1340 0.960 . S
C1328 H1320 0.929 . S
C1328 C1329 1.377 . S
C1328 C1330 1.384 . S
C1329 C1328 1.377 . S
C1329 C1335 1.390 . S
C1330 H1321 0.930 . S
C1330 C1328 1.384 . S
C1330 C1331 1.372 . S
C1331 C1330 1.372 . S
C1331 C1332 1.400 . S
C1331 C1336 1.490 . S
C1332 H1322 0.930 . S
C1332 C1331 1.400 . S
C1332 C1335 1.386 . S
H1333 C1349 0.930 . S
H1334 C1350 0.931 . S
C1335 H1323 0.929 . S
C1335 C1329 1.390 . S
C1335 C1332 1.386 . S
C1336 C1331 1.490 . S
C1336 C1338 1.395 . S
C1336 C1339 1.403 . S
H1337 C1343 0.930 . S
C1338 H1324 0.930 . S
C1338 C1336 1.395 . S
C1338 C1341 1.403 . S
C1339 C1336 1.403 . S
C1339 C1340 1.524 . S
C1339 C1343 1.400 . S
C1340 H1325 0.960 . S
C1340 H1326 0.960 . S
C1340 H1327 0.960 . S
C1340 C1339 1.524 . S
C1341 C1338 1.403 . S
C1341 C1342 1.392 . S
C1341 C1345 1.495 . S
C1342 C1341 1.392 . S
C1342 C1343 1.385 . S
C1342 C1344 1.478 . S
C1343 H1337 0.930 . S
C1343 C1339 1.400 . S
C1343 C1342 1.385 . S
C1344 C1342 1.478 . S
C1344 C1346 1.381 . S
C1344 C1350 1.383 . S
C1345 C1341 1.495 . S
C1345 H1351 0.959 . S
C1345 H1352 0.961 . S
C1345 H1353 0.960 . S
C1346 C1344 1.381 . S
C1346 C1347 1.394 . S
C1346 H1354 0.930 . S
C1347 C1346 1.394 . S
C1347 C1348 1.383 . S
C1347 H1355 0.929 . S
C1348 C1347 1.383 . S
C1348 C1349 1.377 . S
C1349 H1333 0.930 . S
C1349 C1348 1.377 . S
C1349 C1350 1.379 . S
C1350 H1334 0.931 . S
C1350 C1344 1.383 . S
C1350 C1349 1.379 . S
H1351 C1345 0.959 . S
H1352 C1345 0.961 . S
H1353 C1345 0.960 . S
H1354 C1346 0.930 . S
H1355 C1347 0.929 . S
H1356 C1364 0.929 . S
H1357 C1366 0.930 . S
H1358 C1368 0.930 . S
H1359 C1371 0.929 . S
H1360 C1374 0.930 . S
H1361 C1376 0.960 . S
H1362 C1376 0.960 . S
H1363 C1376 0.960 . S
C1364 H1356 0.929 . S
C1364 C1365 1.377 . S
C1364 C1366 1.384 . S
C1365 C1364 1.377 . S
C1365 C1371 1.390 . S
C1366 H1357 0.930 . S
C1366 C1364 1.384 . S
C1366 C1367 1.372 . S
C1367 C1366 1.372 . S
C1367 C1368 1.400 . S
C1367 C1372 1.490 . S
C1368 H1358 0.930 . S
C1368 C1367 1.400 . S
C1368 C1371 1.386 . S
H1369 C1385 0.930 . S
H1370 C1386 0.931 . S
C1371 H1359 0.929 . S
C1371 C1365 1.390 . S
C1371 C1368 1.386 . S
C1372 C1367 1.490 . S
C1372 C1374 1.395 . S
C1372 C1375 1.403 . S
H1373 C1379 0.930 . S
C1374 H1360 0.930 . S
C1374 C1372 1.395 . S
C1374 C1377 1.403 . S
C1375 C1372 1.403 . S
C1375 C1376 1.524 . S
C1375 C1379 1.400 . S
C1376 H1361 0.960 . S
C1376 H1362 0.960 . S
C1376 H1363 0.960 . S
C1376 C1375 1.524 . S
C1377 C1374 1.403 . S
C1377 C1378 1.392 . S
C1377 C1381 1.495 . S
C1378 C1377 1.392 . S
C1378 C1379 1.385 . S
C1378 C1380 1.478 . S
C1379 H1373 0.930 . S
C1379 C1375 1.400 . S
C1379 C1378 1.385 . S
C1380 C1378 1.478 . S
C1380 C1382 1.381 . S
C1380 C1386 1.383 . S
C1381 C1377 1.495 . S
C1381 H1387 0.959 . S
C1381 H1388 0.961 . S
C1381 H1389 0.960 . S
C1382 C1380 1.381 . S
C1382 C1383 1.394 . S
C1382 H1390 0.930 . S
C1383 C1382 1.394 . S
C1383 C1384 1.383 . S
C1383 H1391 0.929 . S
C1384 C1383 1.383 . S
C1384 C1385 1.377 . S
C1385 H1369 0.930 . S
C1385 C1384 1.377 . S
C1385 C1386 1.379 . S
C1386 H1370 0.931 . S
C1386 C1380 1.383 . S
C1386 C1385 1.379 . S
H1387 C1381 0.959 . S
H1388 C1381 0.961 . S
H1389 C1381 0.960 . S
H1390 C1382 0.930 . S
H1391 C1383 0.929 . S
H1392 C1400 0.929 . S
H1393 C1402 0.930 . S
H1394 C1404 0.930 . S
H1395 C1407 0.929 . S
H1396 C1410 0.930 . S
H1397 C1412 0.960 . S
H1398 C1412 0.960 . S
H1399 C1412 0.960 . S
C1400 H1392 0.929 . S
C1400 C1401 1.377 . S
C1400 C1402 1.384 . S
C1401 C1400 1.377 . S
C1401 C1407 1.390 . S
C1402 H1393 0.930 . S
C1402 C1400 1.384 . S
C1402 C1403 1.372 . S
C1403 C1402 1.372 . S
C1403 C1404 1.400 . S
C1403 C1408 1.490 . S
C1404 H1394 0.930 . S
C1404 C1403 1.400 . S
C1404 C1407 1.386 . S
H1405 C1421 0.930 . S
H1406 C1422 0.931 . S
C1407 H1395 0.929 . S
C1407 C1401 1.390 . S
C1407 C1404 1.386 . S
C1408 C1403 1.490 . S
C1408 C1410 1.395 . S
C1408 C1411 1.403 . S
H1409 C1415 0.930 . S
C1410 H1396 0.930 . S
C1410 C1408 1.395 . S
C1410 C1413 1.403 . S
C1411 C1408 1.403 . S
C1411 C1412 1.524 . S
C1411 C1415 1.400 . S
C1412 H1397 0.960 . S
C1412 H1398 0.960 . S
C1412 H1399 0.960 . S
C1412 C1411 1.524 . S
C1413 C1410 1.403 . S
C1413 C1414 1.392 . S
C1413 C1417 1.495 . S
C1414 C1413 1.392 . S
C1414 C1415 1.385 . S
C1414 C1416 1.478 . S
C1415 H1409 0.930 . S
C1415 C1411 1.400 . S
C1415 C1414 1.385 . S
C1416 C1414 1.478 . S
C1416 C1418 1.381 . S
C1416 C1422 1.383 . S
C1417 C1413 1.495 . S
C1417 H1423 0.959 . S
C1417 H1424 0.961 . S
C1417 H1425 0.960 . S
C1418 C1416 1.381 . S
C1418 C1419 1.394 . S
C1418 H1426 0.930 . S
C1419 C1418 1.394 . S
C1419 C1420 1.383 . S
C1419 H1427 0.929 . S
C1420 C1419 1.383 . S
C1420 C1421 1.377 . S
C1421 H1405 0.930 . S
C1421 C1420 1.377 . S
C1421 C1422 1.379 . S
C1422 H1406 0.931 . S
C1422 C1416 1.383 . S
C1422 C1421 1.379 . S
H1423 C1417 0.959 . S
H1424 C1417 0.961 . S
H1425 C1417 0.960 . S
H1426 C1418 0.930 . S
H1427 C1419 0.929 . S
H1428 C1436 0.929 . S
H1429 C1438 0.930 . S
H1430 C1440 0.930 . S
H1431 C1443 0.929 . S
H1432 C1446 0.930 . S
H1433 C1448 0.960 . S
H1434 C1448 0.960 . S
H1435 C1448 0.960 . S
C1436 H1428 0.929 . S
C1436 C1437 1.377 . S
C1436 C1438 1.384 . S
C1437 C1436 1.377 . S
C1437 C1443 1.390 . S
C1438 H1429 0.930 . S
C1438 C1436 1.384 . S
C1438 C1439 1.372 . S
C1439 C1438 1.372 . S
C1439 C1440 1.400 . S
C1439 C1444 1.490 . S
C1440 H1430 0.930 . S
C1440 C1439 1.400 . S
C1440 C1443 1.386 . S
H1441 C1457 0.930 . S
H1442 C1458 0.931 . S
C1443 H1431 0.929 . S
C1443 C1437 1.390 . S
C1443 C1440 1.386 . S
C1444 C1439 1.490 . S
C1444 C1446 1.395 . S
C1444 C1447 1.403 . S
H1445 C1451 0.930 . S
C1446 H1432 0.930 . S
C1446 C1444 1.395 . S
C1446 C1449 1.403 . S
C1447 C1444 1.403 . S
C1447 C1448 1.524 . S
C1447 C1451 1.400 . S
C1448 H1433 0.960 . S
C1448 H1434 0.960 . S
C1448 H1435 0.960 . S
C1448 C1447 1.524 . S
C1449 C1446 1.403 . S
C1449 C1450 1.392 . S
C1449 C1453 1.495 . S
C1450 C1449 1.392 . S
C1450 C1451 1.385 . S
C1450 C1452 1.478 . S
C1451 H1445 0.930 . S
C1451 C1447 1.400 . S
C1451 C1450 1.385 . S
C1452 C1450 1.478 . S
C1452 C1454 1.381 . S
C1452 C1458 1.383 . S
C1453 C1449 1.495 . S
C1453 H1459 0.959 . S
C1453 H1460 0.961 . S
C1453 H1461 0.960 . S
C1454 C1452 1.381 . S
C1454 C1455 1.394 . S
C1454 H1462 0.930 . S
C1455 C1454 1.394 . S
C1455 C1456 1.383 . S
C1455 H1463 0.929 . S
C1456 C1455 1.383 . S
C1456 C1457 1.377 . S
C1457 H1441 0.930 . S
C1457 C1456 1.377 . S
C1457 C1458 1.379 . S
C1458 H1442 0.931 . S
C1458 C1452 1.383 . S
C1458 C1457 1.379 . S
H1459 C1453 0.959 . S
H1460 C1453 0.961 . S
H1461 C1453 0.960 . S
H1462 C1454 0.930 . S
H1463 C1455 0.929 . S
H1464 C1472 0.929 . S
H1465 C1474 0.930 . S
H1466 C1476 0.930 . S
H1467 C1479 0.929 . S
H1468 C1482 0.930 . S
H1469 C1484 0.960 . S
H1470 C1484 0.960 . S
H1471 C1484 0.960 . S
C1472 H1464 0.929 . S
C1472 C1473 1.377 . S
C1472 C1474 1.384 . S
C1473 C1472 1.377 . S
C1473 C1479 1.390 . S
C1474 H1465 0.930 . S
C1474 C1472 1.384 . S
C1474 C1475 1.372 . S
C1475 C1474 1.372 . S
C1475 C1476 1.400 . S
C1475 C1480 1.490 . S
C1476 H1466 0.930 . S
C1476 C1475 1.400 . S
C1476 C1479 1.386 . S
H1477 C1493 0.930 . S
H1478 C1494 0.931 . S
C1479 H1467 0.929 . S
C1479 C1473 1.390 . S
C1479 C1476 1.386 . S
C1480 C1475 1.490 . S
C1480 C1482 1.395 . S
C1480 C1483 1.403 . S
H1481 C1487 0.930 . S
C1482 H1468 0.930 . S
C1482 C1480 1.395 . S
C1482 C1485 1.403 . S
C1483 C1480 1.403 . S
C1483 C1484 1.524 . S
C1483 C1487 1.400 . S
C1484 H1469 0.960 . S
C1484 H1470 0.960 . S
C1484 H1471 0.960 . S
C1484 C1483 1.524 . S
C1485 C1482 1.403 . S
C1485 C1486 1.392 . S
C1485 C1489 1.495 . S
C1486 C1485 1.392 . S
C1486 C1487 1.385 . S
C1486 C1488 1.478 . S
C1487 H1481 0.930 . S
C1487 C1483 1.400 . S
C1487 C1486 1.385 . S
C1488 C1486 1.478 . S
C1488 C1490 1.381 . S
C1488 C1494 1.383 . S
C1489 C1485 1.495 . S
C1489 H1495 0.959 . S
C1489 H1496 0.961 . S
C1489 H1497 0.960 . S
C1490 C1488 1.381 . S
C1490 C1491 1.394 . S
C1490 H1498 0.930 . S
C1491 C1490 1.394 . S
C1491 C1492 1.383 . S
C1491 H1499 0.929 . S
C1492 C1491 1.383 . S
C1492 C1493 1.377 . S
C1493 H1477 0.930 . S
C1493 C1492 1.377 . S
C1493 C1494 1.379 . S
C1494 H1478 0.931 . S
C1494 C1488 1.383 . S
C1494 C1493 1.379 . S
H1495 C1489 0.959 . S
H1496 C1489 0.961 . S
H1497 C1489 0.960 . S
H1498 C1490 0.930 . S
H1499 C1491 0.929 . S
H1500 C1508 0.929 . S
H1501 C1510 0.930 . S
H1502 C1512 0.930 . S
H1503 C1515 0.929 . S
H1504 C1518 0.930 . S
H1505 C1520 0.960 . S
H1506 C1520 0.960 . S
H1507 C1520 0.960 . S
C1508 H1500 0.929 . S
C1508 C1509 1.377 . S
C1508 C1510 1.384 . S
C1509 C1508 1.377 . S
C1509 C1515 1.390 . S
C1510 H1501 0.930 . S
C1510 C1508 1.384 . S
C1510 C1511 1.372 . S
C1511 C1510 1.372 . S
C1511 C1512 1.400 . S
C1511 C1516 1.490 . S
C1512 H1502 0.930 . S
C1512 C1511 1.400 . S
C1512 C1515 1.386 . S
H1513 C1529 0.930 . S
H1514 C1530 0.931 . S
C1515 H1503 0.929 . S
C1515 C1509 1.390 . S
C1515 C1512 1.386 . S
C1516 C1511 1.490 . S
C1516 C1518 1.395 . S
C1516 C1519 1.403 . S
H1517 C1523 0.930 . S
C1518 H1504 0.930 . S
C1518 C1516 1.395 . S
C1518 C1521 1.403 . S
C1519 C1516 1.403 . S
C1519 C1520 1.524 . S
C1519 C1523 1.400 . S
C1520 H1505 0.960 . S
C1520 H1506 0.960 . S
C1520 H1507 0.960 . S
C1520 C1519 1.524 . S
C1521 C1518 1.403 . S
C1521 C1522 1.392 . S
C1521 C1525 1.495 . S
C1522 C1521 1.392 . S
C1522 C1523 1.385 . S
C1522 C1524 1.478 . S
C1523 H1517 0.930 . S
C1523 C1519 1.400 . S
C1523 C1522 1.385 . S
C1524 C1522 1.478 . S
C1524 C1526 1.381 . S
C1524 C1530 1.383 . S
C1525 C1521 1.495 . S
C1525 H1531 0.959 . S
C1525 H1532 0.961 . S
C1525 H1533 0.960 . S
C1526 C1524 1.381 . S
C1526 C1527 1.394 . S
C1526 H1534 0.930 . S
C1527 C1526 1.394 . S
C1527 C1528 1.383 . S
C1527 H1535 0.929 . S
C1528 C1527 1.383 . S
C1528 C1529 1.377 . S
C1529 H1513 0.930 . S
C1529 C1528 1.377 . S
C1529 C1530 1.379 . S
C1530 H1514 0.931 . S
C1530 C1524 1.383 . S
C1530 C1529 1.379 . S
H1531 C1525 0.959 . S
H1532 C1525 0.961 . S
H1533 C1525 0.960 . S
H1534 C1526 0.930 . S
H1535 C1527 0.929 . S
H1536 C1544 0.929 . S
H1537 C1546 0.930 . S
H1538 C1548 0.930 . S
H1539 C1551 0.929 . S
H1540 C1554 0.930 . S
H1541 C1556 0.960 . S
H1542 C1556 0.960 . S
H1543 C1556 0.960 . S
C1544 H1536 0.929 . S
C1544 C1545 1.377 . S
C1544 C1546 1.384 . S
C1545 C1544 1.377 . S
C1545 C1551 1.390 . S
C1546 H1537 0.930 . S
C1546 C1544 1.384 . S
C1546 C1547 1.372 . S
C1547 C1546 1.372 . S
C1547 C1548 1.400 . S
C1547 C1552 1.490 . S
C1548 H1538 0.930 . S
C1548 C1547 1.400 . S
C1548 C1551 1.386 . S
H1549 C1565 0.930 . S
H1550 C1566 0.931 . S
C1551 H1539 0.929 . S
C1551 C1545 1.390 . S
C1551 C1548 1.386 . S
C1552 C1547 1.490 . S
C1552 C1554 1.395 . S
C1552 C1555 1.403 . S
H1553 C1559 0.930 . S
C1554 H1540 0.930 . S
C1554 C1552 1.395 . S
C1554 C1557 1.403 . S
C1555 C1552 1.403 . S
C1555 C1556 1.524 . S
C1555 C1559 1.400 . S
C1556 H1541 0.960 . S
C1556 H1542 0.960 . S
C1556 H1543 0.960 . S
C1556 C1555 1.524 . S
C1557 C1554 1.403 . S
C1557 C1558 1.392 . S
C1557 C1561 1.495 . S
C1558 C1557 1.392 . S
C1558 C1559 1.385 . S
C1558 C1560 1.478 . S
C1559 H1553 0.930 . S
C1559 C1555 1.400 . S
C1559 C1558 1.385 . S
C1560 C1558 1.478 . S
C1560 C1562 1.381 . S
C1560 C1566 1.383 . S
C1561 C1557 1.495 . S
C1561 H1567 0.959 . S
C1561 H1568 0.961 . S
C1561 H1569 0.960 . S
C1562 C1560 1.381 . S
C1562 C1563 1.394 . S
C1562 H1570 0.930 . S
C1563 C1562 1.394 . S
C1563 C1564 1.383 . S
C1563 H1571 0.929 . S
C1564 C1563 1.383 . S
C1564 C1565 1.377 . S
C1565 H1549 0.930 . S
C1565 C1564 1.377 . S
C1565 C1566 1.379 . S
C1566 H1550 0.931 . S
C1566 C1560 1.383 . S
C1566 C1565 1.379 . S
H1567 C1561 0.959 . S
H1568 C1561 0.961 . S
H1569 C1561 0.960 . S
H1570 C1562 0.930 . S
H1571 C1563 0.929 . S
H1572 C1580 0.929 . S
H1573 C1582 0.930 . S
H1574 C1584 0.930 . S
H1575 C1587 0.929 . S
H1576 C1590 0.930 . S
H1577 C1592 0.960 . S
H1578 C1592 0.960 . S
H1579 C1592 0.960 . S
C1580 H1572 0.929 . S
C1580 C1581 1.377 . S
C1580 C1582 1.384 . S
C1581 C1580 1.377 . S
C1581 C1587 1.390 . S
C1582 H1573 0.930 . S
C1582 C1580 1.384 . S
C1582 C1583 1.372 . S
C1583 C1582 1.372 . S
C1583 C1584 1.400 . S
C1583 C1588 1.490 . S
C1584 H1574 0.930 . S
C1584 C1583 1.400 . S
C1584 C1587 1.386 . S
H1585 C1601 0.930 . S
H1586 C1602 0.931 . S
C1587 H1575 0.929 . S
C1587 C1581 1.390 . S
C1587 C1584 1.386 . S
C1588 C1583 1.490 . S
C1588 C1590 1.395 . S
C1588 C1591 1.403 . S
H1589 C1595 0.930 . S
C1590 H1576 0.930 . S
C1590 C1588 1.395 . S
C1590 C1593 1.403 . S
C1591 C1588 1.403 . S
C1591 C1592 1.524 . S
C1591 C1595 1.400 . S
C1592 H1577 0.960 . S
C1592 H1578 0.960 . S
C1592 H1579 0.960 . S
C1592 C1591 1.524 . S
C1593 C1590 1.403 . S
C1593 C1594 1.392 . S
C1593 C1597 1.495 . S
C1594 C1593 1.392 . S
C1594 C1595 1.385 . S
C1594 C1596 1.478 . S
C1595 H1589 0.930 . S
C1595 C1591 1.400 . S
C1595 C1594 1.385 . S
C1596 C1594 1.478 . S
C1596 C1598 1.381 . S
C1596 C1602 1.383 . S
C1597 C1593 1.495 . S
C1597 H1603 0.959 . S
C1597 H1604 0.961 . S
C1597 H1605 0.960 . S
C1598 C1596 1.381 . S
C1598 C1599 1.394 . S
C1598 H1606 0.930 . S
C1599 C1598 1.394 . S
C1599 C1600 1.383 . S
C1599 H1607 0.929 . S
C1600 C1599 1.383 . S
C1600 C1601 1.377 . S
C1601 H1585 0.930 . S
C1601 C1600 1.377 . S
C1601 C1602 1.379 . S
C1602 H1586 0.931 . S
C1602 C1596 1.383 . S
C1602 C1601 1.379 . S
H1603 C1597 0.959 . S
H1604 C1597 0.961 . S
H1605 C1597 0.960 . S
H1606 C1598 0.930 . S
H1607 C1599 0.929 . S
H1608 C1616 0.929 . S
H1609 C1618 0.930 . S
H1610 C1620 0.930 . S
H1611 C1623 0.929 . S
H1612 C1626 0.930 . S
H1613 C1628 0.960 . S
H1614 C1628 0.960 . S
H1615 C1628 0.960 . S
C1616 H1608 0.929 . S
C1616 C1617 1.377 . S
C1616 C1618 1.384 . S
C1617 C1616 1.377 . S
C1617 C1623 1.390 . S
C1618 H1609 0.930 . S
C1618 C1616 1.384 . S
C1618 C1619 1.372 . S
C1619 C1618 1.372 . S
C1619 C1620 1.400 . S
C1619 C1624 1.490 . S
C1620 H1610 0.930 . S
C1620 C1619 1.400 . S
C1620 C1623 1.386 . S
H1621 C1637 0.930 . S
H1622 C1638 0.931 . S
C1623 H1611 0.929 . S
C1623 C1617 1.390 . S
C1623 C1620 1.386 . S
C1624 C1619 1.490 . S
C1624 C1626 1.395 . S
C1624 C1627 1.403 . S
H1625 C1631 0.930 . S
C1626 H1612 0.930 . S
C1626 C1624 1.395 . S
C1626 C1629 1.403 . S
C1627 C1624 1.403 . S
C1627 C1628 1.524 . S
C1627 C1631 1.400 . S
C1628 H1613 0.960 . S
C1628 H1614 0.960 . S
C1628 H1615 0.960 . S
C1628 C1627 1.524 . S
C1629 C1626 1.403 . S
C1629 C1630 1.392 . S
C1629 C1633 1.495 . S
C1630 C1629 1.392 . S
C1630 C1631 1.385 . S
C1630 C1632 1.478 . S
C1631 H1625 0.930 . S
C1631 C1627 1.400 . S
C1631 C1630 1.385 . S
C1632 C1630 1.478 . S
C1632 C1634 1.381 . S
C1632 C1638 1.383 . S
C1633 C1629 1.495 . S
C1633 H1639 0.959 . S
C1633 H1640 0.961 . S
C1633 H1641 0.960 . S
C1634 C1632 1.381 . S
C1634 C1635 1.394 . S
C1634 H1642 0.930 . S
C1635 C1634 1.394 . S
C1635 C1636 1.383 . S
C1635 H1643 0.929 . S
C1636 C1635 1.383 . S
C1636 C1637 1.377 . S
C1637 H1621 0.930 . S
C1637 C1636 1.377 . S
C1637 C1638 1.379 . S
C1638 H1622 0.931 . S
C1638 C1632 1.383 . S
C1638 C1637 1.379 . S
H1639 C1633 0.959 . S
H1640 C1633 0.961 . S
H1641 C1633 0.960 . S
H1642 C1634 0.930 . S
H1643 C1635 0.929 . S
H1644 C1652 0.929 . S
H1645 C1654 0.930 . S
H1646 C1656 0.930 . S
H1647 C1659 0.929 . S
H1648 C1662 0.930 . S
H1649 C1664 0.960 . S
H1650 C1664 0.960 . S
H1651 C1664 0.960 . S
C1652 H1644 0.929 . S
C1652 C1653 1.377 . S
C1652 C1654 1.384 . S
C1653 C1652 1.377 . S
C1653 C1659 1.390 . S
C1654 H1645 0.930 . S
C1654 C1652 1.384 . S
C1654 C1655 1.372 . S
C1655 C1654 1.372 . S
C1655 C1656 1.400 . S
C1655 C1660 1.490 . S
C1656 H1646 0.930 . S
C1656 C1655 1.400 . S
C1656 C1659 1.386 . S
H1657 C1673 0.930 . S
H1658 C1674 0.931 . S
C1659 H1647 0.929 . S
C1659 C1653 1.390 . S
C1659 C1656 1.386 . S
C1660 C1655 1.490 . S
C1660 C1662 1.395 . S
C1660 C1663 1.403 . S
H1661 C1667 0.930 . S
C1662 H1648 0.930 . S
C1662 C1660 1.395 . S
C1662 C1665 1.403 . S
C1663 C1660 1.403 . S
C1663 C1664 1.524 . S
C1663 C1667 1.400 . S
C1664 H1649 0.960 . S
C1664 H1650 0.960 . S
C1664 H1651 0.960 . S
C1664 C1663 1.524 . S
C1665 C1662 1.403 . S
C1665 C1666 1.392 . S
C1665 C1669 1.495 . S
C1666 C1665 1.392 . S
C1666 C1667 1.385 . S
C1666 C1668 1.478 . S
C1667 H1661 0.930 . S
C1667 C1663 1.400 . S
C1667 C1666 1.385 . S
C1668 C1666 1.478 . S
C1668 C1670 1.381 . S
C1668 C1674 1.383 . S
C1669 C1665 1.495 . S
C1669 H1675 0.959 . S
C1669 H1676 0.961 . S
C1669 H1677 0.960 . S
C1670 C1668 1.381 . S
C1670 C1671 1.394 . S
C1670 H1678 0.930 . S
C1671 C1670 1.394 . S
C1671 C1672 1.383 . S
C1671 H1679 0.929 . S
C1672 C1671 1.383 . S
C1672 C1673 1.377 . S
C1673 H1657 0.930 . S
C1673 C1672 1.377 . S
C1673 C1674 1.379 . S
C1674 H1658 0.931 . S
C1674 C1668 1.383 . S
C1674 C1673 1.379 . S
H1675 C1669 0.959 . S
H1676 C1669 0.961 . S
H1677 C1669 0.960 . S
H1678 C1670 0.930 . S
H1679 C1671 0.929 . S
H1680 C1688 0.929 . S
H1681 C1690 0.930 . S
H1682 C1692 0.930 . S
H1683 C1695 0.929 . S
H1684 C1698 0.930 . S
H1685 C1700 0.960 . S
H1686 C1700 0.960 . S
H1687 C1700 0.960 . S
C1688 H1680 0.929 . S
C1688 C1689 1.377 . S
C1688 C1690 1.384 . S
C1689 C1688 1.377 . S
C1689 C1695 1.390 . S
C1690 H1681 0.930 . S
C1690 C1688 1.384 . S
C1690 C1691 1.372 . S
C1691 C1690 1.372 . S
C1691 C1692 1.400 . S
C1691 C1696 1.490 . S
C1692 H1682 0.930 . S
C1692 C1691 1.400 . S
C1692 C1695 1.386 . S
H1693 C1709 0.930 . S
H1694 C1710 0.931 . S
C1695 H1683 0.929 . S
C1695 C1689 1.390 . S
C1695 C1692 1.386 . S
C1696 C1691 1.490 . S
C1696 C1698 1.395 . S
C1696 C1699 1.403 . S
H1697 C1703 0.930 . S
C1698 H1684 0.930 . S
C1698 C1696 1.395 . S
C1698 C1701 1.403 . S
C1699 C1696 1.403 . S
C1699 C1700 1.524 . S
C1699 C1703 1.400 . S
C1700 H1685 0.960 . S
C1700 H1686 0.960 . S
C1700 H1687 0.960 . S
C1700 C1699 1.524 . S
C1701 C1698 1.403 . S
C1701 C1702 1.392 . S
C1701 C1705 1.495 . S
C1702 C1701 1.392 . S
C1702 C1703 1.385 . S
C1702 C1704 1.478 . S
C1703 H1697 0.930 . S
C1703 C1699 1.400 . S
C1703 C1702 1.385 . S
C1704 C1702 1.478 . S
C1704 C1706 1.381 . S
C1704 C1710 1.383 . S
C1705 C1701 1.495 . S
C1705 H1711 0.959 . S
C1705 H1712 0.961 . S
C1705 H1713 0.960 . S
C1706 C1704 1.381 . S
C1706 C1707 1.394 . S
C1706 H1714 0.930 . S
C1707 C1706 1.394 . S
C1707 C1708 1.383 . S
C1707 H1715 0.929 . S
C1708 C1707 1.383 . S
C1708 C1709 1.377 . S
C1709 H1693 0.930 . S
C1709 C1708 1.377 . S
C1709 C1710 1.379 . S
C1710 H1694 0.931 . S
C1710 C1704 1.383 . S
C1710 C1709 1.379 . S
H1711 C1705 0.959 . S
H1712 C1705 0.961 . S
H1713 C1705 0.960 . S
H1714 C1706 0.930 . S
H1715 C1707 0.929 . S
H1716 C1724 0.929 . S
H1717 C1726 0.930 . S
H1718 C1728 0.930 . S
H1719 C1731 0.929 . S
H1720 C1734 0.930 . S
H1721 C1736 0.960 . S
H1722 C1736 0.960 . S
H1723 C1736 0.960 . S
C1724 H1716 0.929 . S
C1724 C1725 1.377 . S
C1724 C1726 1.384 . S
C1725 C1724 1.377 . S
C1725 C1731 1.390 . S
C1726 H1717 0.930 . S
C1726 C1724 1.384 . S
C1726 C1727 1.372 . S
C1727 C1726 1.372 . S
C1727 C1728 1.400 . S
C1727 C1732 1.490 . S
C1728 H1718 0.930 . S
C1728 C1727 1.400 . S
C1728 C1731 1.386 . S
H1729 C1745 0.930 . S
H1730 C1746 0.931 . S
C1731 H1719 0.929 . S
C1731 C1725 1.390 . S
C1731 C1728 1.386 . S
C1732 C1727 1.490 . S
C1732 C1734 1.395 . S
C1732 C1735 1.403 . S
H1733 C1739 0.930 . S
C1734 H1720 0.930 . S
C1734 C1732 1.395 . S
C1734 C1737 1.403 . S
C1735 C1732 1.403 . S
C1735 C1736 1.524 . S
C1735 C1739 1.400 . S
C1736 H1721 0.960 . S
C1736 H1722 0.960 . S
C1736 H1723 0.960 . S
C1736 C1735 1.524 . S
C1737 C1734 1.403 . S
C1737 C1738 1.392 . S
C1737 C1741 1.495 . S
C1738 C1737 1.392 . S
C1738 C1739 1.385 . S
C1738 C1740 1.478 . S
C1739 H1733 0.930 . S
C1739 C1735 1.400 . S
C1739 C1738 1.385 . S
C1740 C1738 1.478 . S
C1740 C1742 1.381 . S
C1740 C1746 1.383 . S
C1741 C1737 1.495 . S
C1741 H1747 0.959 . S
C1741 H1748 0.961 . S
C1741 H1749 0.960 . S
C1742 C1740 1.381 . S
C1742 C1743 1.394 . S
C1742 H1750 0.930 . S
C1743 C1742 1.394 . S
C1743 C1744 1.383 . S
C1743 H1751 0.929 . S
C1744 C1743 1.383 . S
C1744 C1745 1.377 . S
C1745 H1729 0.930 . S
C1745 C1744 1.377 . S
C1745 C1746 1.379 . S
C1746 H1730 0.931 . S
C1746 C1740 1.383 . S
C1746 C1745 1.379 . S
H1747 C1741 0.959 . S
H1748 C1741 0.961 . S
H1749 C1741 0.960 . S
H1750 C1742 0.930 . S
H1751 C1743 0.929 . S
H1752 C1760 0.929 . S
H1753 C1762 0.930 . S
H1754 C1764 0.930 . S
H1755 C1767 0.929 . S
H1756 C1770 0.930 . S
H1757 C1772 0.960 . S
H1758 C1772 0.960 . S
H1759 C1772 0.960 . S
C1760 H1752 0.929 . S
C1760 C1761 1.377 . S
C1760 C1762 1.384 . S
C1761 C1760 1.377 . S
C1761 C1767 1.390 . S
C1762 H1753 0.930 . S
C1762 C1760 1.384 . S
C1762 C1763 1.372 . S
C1763 C1762 1.372 . S
C1763 C1764 1.400 . S
C1763 C1768 1.490 . S
C1764 H1754 0.930 . S
C1764 C1763 1.400 . S
C1764 C1767 1.386 . S
H1765 C1781 0.930 . S
H1766 C1782 0.931 . S
C1767 H1755 0.929 . S
C1767 C1761 1.390 . S
C1767 C1764 1.386 . S
C1768 C1763 1.490 . S
C1768 C1770 1.395 . S
C1768 C1771 1.403 . S
H1769 C1775 0.930 . S
C1770 H1756 0.930 . S
C1770 C1768 1.395 . S
C1770 C1773 1.403 . S
C1771 C1768 1.403 . S
C1771 C1772 1.524 . S
C1771 C1775 1.400 . S
C1772 H1757 0.960 . S
C1772 H1758 0.960 . S
C1772 H1759 0.960 . S
C1772 C1771 1.524 . S
C1773 C1770 1.403 . S
C1773 C1774 1.392 . S
C1773 C1777 1.495 . S
C1774 C1773 1.392 . S
C1774 C1775 1.385 . S
C1774 C1776 1.478 . S
C1775 H1769 0.930 . S
C1775 C1771 1.400 . S
C1775 C1774 1.385 . S
C1776 C1774 1.478 . S
C1776 C1778 1.381 . S
C1776 C1782 1.383 . S
C1777 C1773 1.495 . S
C1777 H1783 0.959 . S
C1777 H1784 0.961 . S
C1777 H1785 0.960 . S
C1778 C1776 1.381 . S
C1778 C1779 1.394 . S
C1778 H1786 0.930 . S
C1779 C1778 1.394 . S
C1779 C1780 1.383 . S
C1779 H1787 0.929 . S
C1780 C1779 1.383 . S
C1780 C1781 1.377 . S
C1781 H1765 0.930 . S
C1781 C1780 1.377 . S
C1781 C1782 1.379 . S
C1782 H1766 0.931 . S
C1782 C1776 1.383 . S
C1782 C1781 1.379 . S
H1783 C1777 0.959 . S
H1784 C1777 0.961 . S
H1785 C1777 0.960 . S
H1786 C1778 0.930 . S
H1787 C1779 0.929 . S
H1788 C1796 0.929 . S
H1789 C1798 0.930 . S
H1790 C1800 0.930 . S
H1791 C1803 0.929 . S
H1792 C1806 0.930 . S
H1793 C1808 0.960 . S
H1794 C1808 0.960 . S
H1795 C1808 0.960 . S
C1796 H1788 0.929 . S
C1796 C1797 1.377 . S
C1796 C1798 1.384 . S
C1797 C1796 1.377 . S
C1797 C1803 1.390 . S
C1798 H1789 0.930 . S
C1798 C1796 1.384 . S
C1798 C1799 1.372 . S
C1799 C1798 1.372 . S
C1799 C1800 1.400 . S
C1799 C1804 1.490 . S
C1800 H1790 0.930 . S
C1800 C1799 1.400 . S
C1800 C1803 1.386 . S
H1801 C1817 0.930 . S
H1802 C1818 0.931 . S
C1803 H1791 0.929 . S
C1803 C1797 1.390 . S
C1803 C1800 1.386 . S
C1804 C1799 1.490 . S
C1804 C1806 1.395 . S
C1804 C1807 1.403 . S
H1805 C1811 0.930 . S
C1806 H1792 0.930 . S
C1806 C1804 1.395 . S
C1806 C1809 1.403 . S
C1807 C1804 1.403 . S
C1807 C1808 1.524 . S
C1807 C1811 1.400 . S
C1808 H1793 0.960 . S
C1808 H1794 0.960 . S
C1808 H1795 0.960 . S
C1808 C1807 1.524 . S
C1809 C1806 1.403 . S
C1809 C1810 1.392 . S
C1809 C1813 1.495 . S
C1810 C1809 1.392 . S
C1810 C1811 1.385 . S
C1810 C1812 1.478 . S
C1811 H1805 0.930 . S
C1811 C1807 1.400 . S
C1811 C1810 1.385 . S
C1812 C1810 1.478 . S
C1812 C1814 1.381 . S
C1812 C1818 1.383 . S
C1813 C1809 1.495 . S
C1813 H1819 0.959 . S
C1813 H1820 0.961 . S
C1813 H1821 0.960 . S
C1814 C1812 1.381 . S
C1814 C1815 1.394 . S
C1814 H1822 0.930 . S
C1815 C1814 1.394 . S
C1815 C1816 1.383 . S
C1815 H1823 0.929 . S
C1816 C1815 1.383 . S
C1816 C1817 1.377 . S
C1817 H1801 0.930 . S
C1817 C1816 1.377 . S
C1817 C1818 1.379 . S
C1818 H1802 0.931 . S
C1818 C1812 1.383 . S
C1818 C1817 1.379 . S
H1819 C1813 0.959 . S
H1820 C1813 0.961 . S
H1821 C1813 0.960 . S
H1822 C1814 0.930 . S
H1823 C1815 0.929 . S
H1824 C1832 0.929 . S
H1825 C1834 0.930 . S
H1826 C1836 0.930 . S
H1827 C1839 0.929 . S
H1828 C1842 0.930 . S
H1829 C1844 0.960 . S
H1830 C1844 0.960 . S
H1831 C1844 0.960 . S
C1832 H1824 0.929 . S
C1832 C1833 1.377 . S
C1832 C1834 1.384 . S
C1833 C1832 1.377 . S
C1833 C1839 1.390 . S
C1834 H1825 0.930 . S
C1834 C1832 1.384 . S
C1834 C1835 1.372 . S
C1835 C1834 1.372 . S
C1835 C1836 1.400 . S
C1835 C1840 1.490 . S
C1836 H1826 0.930 . S
C1836 C1835 1.400 . S
C1836 C1839 1.386 . S
H1837 C1853 0.930 . S
H1838 C1854 0.931 . S
C1839 H1827 0.929 . S
C1839 C1833 1.390 . S
C1839 C1836 1.386 . S
C1840 C1835 1.490 . S
C1840 C1842 1.395 . S
C1840 C1843 1.403 . S
H1841 C1847 0.930 . S
C1842 H1828 0.930 . S
C1842 C1840 1.395 . S
C1842 C1845 1.403 . S
C1843 C1840 1.403 . S
C1843 C1844 1.524 . S
C1843 C1847 1.400 . S
C1844 H1829 0.960 . S
C1844 H1830 0.960 . S
C1844 H1831 0.960 . S
C1844 C1843 1.524 . S
C1845 C1842 1.403 . S
C1845 C1846 1.392 . S
C1845 C1849 1.495 . S
C1846 C1845 1.392 . S
C1846 C1847 1.385 . S
C1846 C1848 1.478 . S
C1847 H1841 0.930 . S
C1847 C1843 1.400 . S
C1847 C1846 1.385 . S
C1848 C1846 1.478 . S
C1848 C1850 1.381 . S
C1848 C1854 1.383 . S
C1849 C1845 1.495 . S
C1849 H1855 0.959 . S
C1849 H1856 0.961 . S
C1849 H1857 0.960 . S
C1850 C1848 1.381 . S
C1850 C1851 1.394 . S
C1850 H1858 0.930 . S
C1851 C1850 1.394 . S
C1851 C1852 1.383 . S
C1851 H1859 0.929 . S
C1852 C1851 1.383 . S
C1852 C1853 1.377 . S
C1853 H1837 0.930 . S
C1853 C1852 1.377 . S
C1853 C1854 1.379 . S
C1854 H1838 0.931 . S
C1854 C1848 1.383 . S
C1854 C1853 1.379 . S
H1855 C1849 0.959 . S
H1856 C1849 0.961 . S
H1857 C1849 0.960 . S
H1858 C1850 0.930 . S
H1859 C1851 0.929 . S
H1860 C1868 0.929 . S
H1861 C1870 0.930 . S
H1862 C1872 0.930 . S
H1863 C1875 0.929 . S
H1864 C1878 0.930 . S
H1865 C1880 0.960 . S
H1866 C1880 0.960 . S
H1867 C1880 0.960 . S
C1868 H1860 0.929 . S
C1868 C1869 1.377 . S
C1868 C1870 1.384 . S
C1869 C1868 1.377 . S
C1869 C1875 1.390 . S
C1870 H1861 0.930 . S
C1870 C1868 1.384 . S
C1870 C1871 1.372 . S
C1871 C1870 1.372 . S
C1871 C1872 1.400 . S
C1871 C1876 1.490 . S
C1872 H1862 0.930 . S
C1872 C1871 1.400 . S
C1872 C1875 1.386 . S
H1873 C1889 0.930 . S
H1874 C1890 0.931 . S
C1875 H1863 0.929 . S
C1875 C1869 1.390 . S
C1875 C1872 1.386 . S
C1876 C1871 1.490 . S
C1876 C1878 1.395 . S
C1876 C1879 1.403 . S
H1877 C1883 0.930 . S
C1878 H1864 0.930 . S
C1878 C1876 1.395 . S
C1878 C1881 1.403 . S
C1879 C1876 1.403 . S
C1879 C1880 1.524 . S
C1879 C1883 1.400 . S
C1880 H1865 0.960 . S
C1880 H1866 0.960 . S
C1880 H1867 0.960 . S
C1880 C1879 1.524 . S
C1881 C1878 1.403 . S
C1881 C1882 1.392 . S
C1881 C1885 1.495 . S
C1882 C1881 1.392 . S
C1882 C1883 1.385 . S
C1882 C1884 1.478 . S
C1883 H1877 0.930 . S
C1883 C1879 1.400 . S
C1883 C1882 1.385 . S
C1884 C1882 1.478 . S
C1884 C1886 1.381 . S
C1884 C1890 1.383 . S
C1885 C1881 1.495 . S
C1885 H1891 0.959 . S
C1885 H1892 0.961 . S
C1885 H1893 0.960 . S
C1886 C1884 1.381 . S
C1886 C1887 1.394 . S
C1886 H1894 0.930 . S
C1887 C1886 1.394 . S
C1887 C1888 1.383 . S
C1887 H1895 0.929 . S
C1888 C1887 1.383 . S
C1888 C1889 1.377 . S
C1889 H1873 0.930 . S
C1889 C1888 1.377 . S
C1889 C1890 1.379 . S
C1890 H1874 0.931 . S
C1890 C1884 1.383 . S
C1890 C1889 1.379 . S
H1891 C1885 0.959 . S
H1892 C1885 0.961 . S
H1893 C1885 0.960 . S
H1894 C1886 0.930 . S
H1895 C1887 0.929 . S
H1896 C1904 0.929 . S
H1897 C1906 0.930 . S
H1898 C1908 0.930 . S
H1899 C1911 0.929 . S
H1900 C1914 0.930 . S
H1901 C1916 0.960 . S
H1902 C1916 0.960 . S
H1903 C1916 0.960 . S
C1904 H1896 0.929 . S
C1904 C1905 1.377 . S
C1904 C1906 1.384 . S
C1905 C1904 1.377 . S
C1905 C1911 1.390 . S
C1906 H1897 0.930 . S
C1906 C1904 1.384 . S
C1906 C1907 1.372 . S
C1907 C1906 1.372 . S
C1907 C1908 1.400 . S
C1907 C1912 1.490 . S
C1908 H1898 0.930 . S
C1908 C1907 1.400 . S
C1908 C1911 1.386 . S
H1909 C1925 0.930 . S
H1910 C1926 0.931 . S
C1911 H1899 0.929 . S
C1911 C1905 1.390 . S
C1911 C1908 1.386 . S
C1912 C1907 1.490 . S
C1912 C1914 1.395 . S
C1912 C1915 1.403 . S
H1913 C1919 0.930 . S
C1914 H1900 0.930 . S
C1914 C1912 1.395 . S
C1914 C1917 1.403 . S
C1915 C1912 1.403 . S
C1915 C1916 1.524 . S
C1915 C1919 1.400 . S
C1916 H1901 0.960 . S
C1916 H1902 0.960 . S
C1916 H1903 0.960 . S
C1916 C1915 1.524 . S
C1917 C1914 1.403 . S
C1917 C1918 1.392 . S
C1917 C1921 1.495 . S
C1918 C1917 1.392 . S
C1918 C1919 1.385 . S
C1918 C1920 1.478 . S
C1919 H1913 0.930 . S
C1919 C1915 1.400 . S
C1919 C1918 1.385 . S
C1920 C1918 1.478 . S
C1920 C1922 1.381 . S
C1920 C1926 1.383 . S
C1921 C1917 1.495 . S
C1921 H1927 0.959 . S
C1921 H1928 0.961 . S
C1921 H1929 0.960 . S
C1922 C1920 1.381 . S
C1922 C1923 1.394 . S
C1922 H1930 0.930 . S
C1923 C1922 1.394 . S
C1923 C1924 1.383 . S
C1923 H1931 0.929 . S
C1924 C1923 1.383 . S
C1924 C1925 1.377 . S
C1925 H1909 0.930 . S
C1925 C1924 1.377 . S
C1925 C1926 1.379 . S
C1926 H1910 0.931 . S
C1926 C1920 1.383 . S
C1926 C1925 1.379 . S
H1927 C1921 0.959 . S
H1928 C1921 0.961 . S
H1929 C1921 0.960 . S
H1930 C1922 0.930 . S
H1931 C1923 0.929 . S
H1932 C1940 0.929 . S
H1933 C1942 0.930 . S
H1934 C1944 0.930 . S
H1935 C1947 0.929 . S
H1936 C1950 0.930 . S
H1937 C1952 0.960 . S
H1938 C1952 0.960 . S
H1939 C1952 0.960 . S
C1940 H1932 0.929 . S
C1940 C1941 1.377 . S
C1940 C1942 1.384 . S
C1941 C1940 1.377 . S
C1941 C1947 1.390 . S
C1942 H1933 0.930 . S
C1942 C1940 1.384 . S
C1942 C1943 1.372 . S
C1943 C1942 1.372 . S
C1943 C1944 1.400 . S
C1943 C1948 1.490 . S
C1944 H1934 0.930 . S
C1944 C1943 1.400 . S
C1944 C1947 1.386 . S
H1945 C1961 0.930 . S
H1946 C1962 0.931 . S
C1947 H1935 0.929 . S
C1947 C1941 1.390 . S
C1947 C1944 1.386 . S
C1948 C1943 1.490 . S
C1948 C1950 1.395 . S
C1948 C1951 1.403 . S
H1949 C1955 0.930 . S
C1950 H1936 0.930 . S
C1950 C1948 1.395 . S
C1950 C1953 1.403 . S
C1951 C1948 1.403 . S
C1951 C1952 1.524 . S
C1951 C1955 1.400 . S
C1952 H1937 0.960 . S
C1952 H1938 0.960 . S
C1952 H1939 0.960 . S
C1952 C1951 1.524 . S
C1953 C1950 1.403 . S
C1953 C1954 1.392 . S
C1953 C1957 1.495 . S
C1954 C1953 1.392 . S
C1954 C1955 1.385 . S
C1954 C1956 1.478 . S
C1955 H1949 0.930 . S
C1955 C1951 1.400 . S
C1955 C1954 1.385 . S
C1956 C1954 1.478 . S
C1956 C1958 1.381 . S
C1956 C1962 1.383 . S
C1957 C1953 1.495 . S
C1957 H1963 0.959 . S
C1957 H1964 0.961 . S
C1957 H1965 0.960 . S
C1958 C1956 1.381 . S
C1958 C1959 1.394 . S
C1958 H1966 0.930 . S
C1959 C1958 1.394 . S
C1959 C1960 1.383 . S
C1959 H1967 0.929 . S
C1960 C1959 1.383 . S
C1960 C1961 1.377 . S
C1961 H1945 0.930 . S
C1961 C1960 1.377 . S
C1961 C1962 1.379 . S
C1962 H1946 0.931 . S
C1962 C1956 1.383 . S
C1962 C1961 1.379 . S
H1963 C1957 0.959 . S
H1964 C1957 0.961 . S
H1965 C1957 0.960 . S
H1966 C1958 0.930 . S
H1967 C1959 0.929 . S
H1968 C1976 0.929 . S
H1969 C1978 0.930 . S
H1970 C1980 0.930 . S
H1971 C1983 0.929 . S
H1972 C1986 0.930 . S
H1973 C1988 0.960 . S
H1974 C1988 0.960 . S
H1975 C1988 0.960 . S
C1976 H1968 0.929 . S
C1976 C1977 1.377 . S
C1976 C1978 1.384 . S
C1977 C1976 1.377 . S
C1977 C1983 1.390 . S
C1978 H1969 0.930 . S
C1978 C1976 1.384 . S
C1978 C1979 1.372 . S
C1979 C1978 1.372 . S
C1979 C1980 1.400 . S
C1979 C1984 1.490 . S
C1980 H1970 0.930 . S
C1980 C1979 1.400 . S
C1980 C1983 1.386 . S
H1981 C1997 0.930 . S
H1982 C1998 0.931 . S
C1983 H1971 0.929 . S
C1983 C1977 1.390 . S
C1983 C1980 1.386 . S
C1984 C1979 1.490 . S
C1984 C1986 1.395 . S
C1984 C1987 1.403 . S
H1985 C1991 0.930 . S
C1986 H1972 0.930 . S
C1986 C1984 1.395 . S
C1986 C1989 1.403 . S
C1987 C1984 1.403 . S
C1987 C1988 1.524 . S
C1987 C1991 1.400 . S
C1988 H1973 0.960 . S
C1988 H1974 0.960 . S
C1988 H1975 0.960 . S
C1988 C1987 1.524 . S
C1989 C1986 1.403 . S
C1989 C1990 1.392 . S
C1989 C1993 1.495 . S
C1990 C1989 1.392 . S
C1990 C1991 1.385 . S
C1990 C1992 1.478 . S
C1991 H1985 0.930 . S
C1991 C1987 1.400 . S
C1991 C1990 1.385 . S
C1992 C1990 1.478 . S
C1992 C1994 1.381 . S
C1992 C1998 1.383 . S
C1993 C1989 1.495 . S
C1993 H1999 0.959 . S
C1993 H2000 0.961 . S
C1993 H2001 0.960 . S
C1994 C1992 1.381 . S
C1994 C1995 1.394 . S
C1994 H2002 0.930 . S
C1995 C1994 1.394 . S
C1995 C1996 1.383 . S
C1995 H2003 0.929 . S
C1996 C1995 1.383 . S
C1996 C1997 1.377 . S
C1997 H1981 0.930 . S
C1997 C1996 1.377 . S
C1997 C1998 1.379 . S
C1998 H1982 0.931 . S
C1998 C1992 1.383 . S
C1998 C1997 1.379 . S
H1999 C1993 0.959 . S
H2000 C1993 0.961 . S
H2001 C1993 0.960 . S
H2002 C1994 0.930 . S
H2003 C1995 0.929 . S
H2004 C2012 0.929 . S
H2005 C2014 0.930 . S
H2006 C2016 0.930 . S
H2007 C2019 0.929 . S
H2008 C2022 0.930 . S
H2009 C2024 0.960 . S
H2010 C2024 0.960 . S
H2011 C2024 0.960 . S
C2012 H2004 0.929 . S
C2012 C2013 1.377 . S
C2012 C2014 1.384 . S
C2013 C2012 1.377 . S
C2013 C2019 1.390 . S
C2014 H2005 0.930 . S
C2014 C2012 1.384 . S
C2014 C2015 1.372 . S
C2015 C2014 1.372 . S
C2015 C2016 1.400 . S
C2015 C2020 1.490 . S
C2016 H2006 0.930 . S
C2016 C2015 1.400 . S
C2016 C2019 1.386 . S
H2017 C2033 0.930 . S
H2018 C2034 0.931 . S
C2019 H2007 0.929 . S
C2019 C2013 1.390 . S
C2019 C2016 1.386 . S
C2020 C2015 1.490 . S
C2020 C2022 1.395 . S
C2020 C2023 1.403 . S
H2021 C2027 0.930 . S
C2022 H2008 0.930 . S
C2022 C2020 1.395 . S
C2022 C2025 1.403 . S
C2023 C2020 1.403 . S
C2023 C2024 1.524 . S
C2023 C2027 1.400 . S
C2024 H2009 0.960 . S
C2024 H2010 0.960 . S
C2024 H2011 0.960 . S
C2024 C2023 1.524 . S
C2025 C2022 1.403 . S
C2025 C2026 1.392 . S
C2025 C2029 1.495 . S
C2026 C2025 1.392 . S
C2026 C2027 1.385 . S
C2026 C2028 1.478 . S
C2027 H2021 0.930 . S
C2027 C2023 1.400 . S
C2027 C2026 1.385 . S
C2028 C2026 1.478 . S
C2028 C2030 1.381 . S
C2028 C2034 1.383 . S
C2029 C2025 1.495 . S
C2029 H2035 0.959 . S
C2029 H2036 0.961 . S
C2029 H2037 0.960 . S
C2030 C2028 1.381 . S
C2030 C2031 1.394 . S
C2030 H2038 0.930 . S
C2031 C2030 1.394 . S
C2031 C2032 1.383 . S
C2031 H2039 0.929 . S
C2032 C2031 1.383 . S
C2032 C2033 1.377 . S
C2033 H2017 0.930 . S
C2033 C2032 1.377 . S
C2033 C2034 1.379 . S
C2034 H2018 0.931 . S
C2034 C2028 1.383 . S
C2034 C2033 1.379 . S
H2035 C2029 0.959 . S
H2036 C2029 0.961 . S
H2037 C2029 0.960 . S
H2038 C2030 0.930 . S
H2039 C2031 0.929 . S
H2040 C2048 0.929 . S
H2041 C2050 0.930 . S
H2042 C2052 0.930 . S
H2043 C2055 0.929 . S
H2044 C2058 0.930 . S
H2045 C2060 0.960 . S
H2046 C2060 0.960 . S
H2047 C2060 0.960 . S
C2048 H2040 0.929 . S
C2048 C2049 1.377 . S
C2048 C2050 1.384 . S
C2049 C2048 1.377 . S
C2049 C2055 1.390 . S
C2050 H2041 0.930 . S
C2050 C2048 1.384 . S
C2050 C2051 1.372 . S
C2051 C2050 1.372 . S
C2051 C2052 1.400 . S
C2051 C2056 1.490 . S
C2052 H2042 0.930 . S
C2052 C2051 1.400 . S
C2052 C2055 1.386 . S
H2053 C2069 0.930 . S
H2054 C2070 0.931 . S
C2055 H2043 0.929 . S
C2055 C2049 1.390 . S
C2055 C2052 1.386 . S
C2056 C2051 1.490 . S
C2056 C2058 1.395 . S
C2056 C2059 1.403 . S
H2057 C2063 0.930 . S
C2058 H2044 0.930 . S
C2058 C2056 1.395 . S
C2058 C2061 1.403 . S
C2059 C2056 1.403 . S
C2059 C2060 1.524 . S
C2059 C2063 1.400 . S
C2060 H2045 0.960 . S
C2060 H2046 0.960 . S
C2060 H2047 0.960 . S
C2060 C2059 1.524 . S
C2061 C2058 1.403 . S
C2061 C2062 1.392 . S
C2061 C2065 1.495 . S
C2062 C2061 1.392 . S
C2062 C2063 1.385 . S
C2062 C2064 1.478 . S
C2063 H2057 0.930 . S
C2063 C2059 1.400 . S
C2063 C2062 1.385 . S
C2064 C2062 1.478 . S
C2064 C2066 1.381 . S
C2064 C2070 1.383 . S
C2065 C2061 1.495 . S
C2065 H2071 0.959 . S
C2065 H2072 0.961 . S
C2065 H2073 0.960 . S
C2066 C2064 1.381 . S
C2066 C2067 1.394 . S
C2066 H2074 0.930 . S
C2067 C2066 1.394 . S
C2067 C2068 1.383 . S
C2067 H2075 0.929 . S
C2068 C2067 1.383 . S
C2068 C2069 1.377 . S
C2069 H2053 0.930 . S
C2069 C2068 1.377 . S
C2069 C2070 1.379 . S
C2070 H2054 0.931 . S
C2070 C2064 1.383 . S
C2070 C2069 1.379 . S
H2071 C2065 0.959 . S
H2072 C2065 0.961 . S
H2073 C2065 0.960 . S
H2074 C2066 0.930 . S
H2075 C2067 0.929 . S
H2076 C2084 0.929 . S
H2077 C2086 0.930 . S
H2078 C2088 0.930 . S
H2079 C2091 0.929 . S
H2080 C2094 0.930 . S
H2081 C2096 0.960 . S
H2082 C2096 0.960 . S
H2083 C2096 0.960 . S
C2084 H2076 0.929 . S
C2084 C2085 1.377 . S
C2084 C2086 1.384 . S
C2085 C2084 1.377 . S
C2085 C2091 1.390 . S
C2086 H2077 0.930 . S
C2086 C2084 1.384 . S
C2086 C2087 1.372 . S
C2087 C2086 1.372 . S
C2087 C2088 1.400 . S
C2087 C2092 1.490 . S
C2088 H2078 0.930 . S
C2088 C2087 1.400 . S
C2088 C2091 1.386 . S
H2089 C2105 0.930 . S
H2090 C2106 0.931 . S
C2091 H2079 0.929 . S
C2091 C2085 1.390 . S
C2091 C2088 1.386 . S
C2092 C2087 1.490 . S
C2092 C2094 1.395 . S
C2092 C2095 1.403 . S
H2093 C2099 0.930 . S
C2094 H2080 0.930 . S
C2094 C2092 1.395 . S
C2094 C2097 1.403 . S
C2095 C2092 1.403 . S
C2095 C2096 1.524 . S
C2095 C2099 1.400 . S
C2096 H2081 0.960 . S
C2096 H2082 0.960 . S
C2096 H2083 0.960 . S
C2096 C2095 1.524 . S
C2097 C2094 1.403 . S
C2097 C2098 1.392 . S
C2097 C2101 1.495 . S
C2098 C2097 1.392 . S
C2098 C2099 1.385 . S
C2098 C2100 1.478 . S
C2099 H2093 0.930 . S
C2099 C2095 1.400 . S
C2099 C2098 1.385 . S
C2100 C2098 1.478 . S
C2100 C2102 1.381 . S
C2100 C2106 1.383 . S
C2101 C2097 1.495 . S
C2101 H2107 0.959 . S
C2101 H2108 0.961 . S
C2101 H2109 0.960 . S
C2102 C2100 1.381 . S
C2102 C2103 1.394 . S
C2102 H2110 0.930 . S
C2103 C2102 1.394 . S
C2103 C2104 1.383 . S
C2103 H2111 0.929 . S
C2104 C2103 1.383 . S
C2104 C2105 1.377 . S
C2105 H2089 0.930 . S
C2105 C2104 1.377 . S
C2105 C2106 1.379 . S
C2106 H2090 0.931 . S
C2106 C2100 1.383 . S
C2106 C2105 1.379 . S
H2107 C2101 0.959 . S
H2108 C2101 0.961 . S
H2109 C2101 0.960 . S
H2110 C2102 0.930 . S
H2111 C2103 0.929 . S
H2112 C2120 0.929 . S
H2113 C2122 0.930 . S
H2114 C2124 0.930 . S
H2115 C2127 0.929 . S
H2116 C2130 0.930 . S
H2117 C2132 0.960 . S
H2118 C2132 0.960 . S
H2119 C2132 0.960 . S
C2120 H2112 0.929 . S
C2120 C2121 1.377 . S
C2120 C2122 1.384 . S
C2121 C2120 1.377 . S
C2121 C2127 1.390 . S
C2122 H2113 0.930 . S
C2122 C2120 1.384 . S
C2122 C2123 1.372 . S
C2123 C2122 1.372 . S
C2123 C2124 1.400 . S
C2123 C2128 1.490 . S
C2124 H2114 0.930 . S
C2124 C2123 1.400 . S
C2124 C2127 1.386 . S
H2125 C2141 0.930 . S
H2126 C2142 0.931 . S
C2127 H2115 0.929 . S
C2127 C2121 1.390 . S
C2127 C2124 1.386 . S
C2128 C2123 1.490 . S
C2128 C2130 1.395 . S
C2128 C2131 1.403 . S
H2129 C2135 0.930 . S
C2130 H2116 0.930 . S
C2130 C2128 1.395 . S
C2130 C2133 1.403 . S
C2131 C2128 1.403 . S
C2131 C2132 1.524 . S
C2131 C2135 1.400 . S
C2132 H2117 0.960 . S
C2132 H2118 0.960 . S
C2132 H2119 0.960 . S
C2132 C2131 1.524 . S
C2133 C2130 1.403 . S
C2133 C2134 1.392 . S
C2133 C2137 1.495 . S
C2134 C2133 1.392 . S
C2134 C2135 1.385 . S
C2134 C2136 1.478 . S
C2135 H2129 0.930 . S
C2135 C2131 1.400 . S
C2135 C2134 1.385 . S
C2136 C2134 1.478 . S
C2136 C2138 1.381 . S
C2136 C2142 1.383 . S
C2137 C2133 1.495 . S
C2137 H2143 0.959 . S
C2137 H2144 0.961 . S
C2137 H2145 0.960 . S
C2138 C2136 1.381 . S
C2138 C2139 1.394 . S
C2138 H2146 0.930 . S
C2139 C2138 1.394 . S
C2139 C2140 1.383 . S
C2139 H2147 0.929 . S
C2140 C2139 1.383 . S
C2140 C2141 1.377 . S
C2141 H2125 0.930 . S
C2141 C2140 1.377 . S
C2141 C2142 1.379 . S
C2142 H2126 0.931 . S
C2142 C2136 1.383 . S
C2142 C2141 1.379 . S
H2143 C2137 0.959 . S
H2144 C2137 0.961 . S
H2145 C2137 0.960 . S
H2146 C2138 0.930 . S
H2147 C2139 0.929 . S
H2148 C2156 0.929 . S
H2149 C2158 0.930 . S
H2150 C2160 0.930 . S
H2151 C2163 0.929 . S
H2152 C2166 0.930 . S
H2153 C2168 0.960 . S
H2154 C2168 0.960 . S
H2155 C2168 0.960 . S
C2156 H2148 0.929 . S
C2156 C2157 1.377 . S
C2156 C2158 1.384 . S
C2157 C2156 1.377 . S
C2157 C2163 1.390 . S
C2158 H2149 0.930 . S
C2158 C2156 1.384 . S
C2158 C2159 1.372 . S
C2159 C2158 1.372 . S
C2159 C2160 1.400 . S
C2159 C2164 1.490 . S
C2160 H2150 0.930 . S
C2160 C2159 1.400 . S
C2160 C2163 1.386 . S
H2161 C2177 0.930 . S
H2162 C2178 0.931 . S
C2163 H2151 0.929 . S
C2163 C2157 1.390 . S
C2163 C2160 1.386 . S
C2164 C2159 1.490 . S
C2164 C2166 1.395 . S
C2164 C2167 1.403 . S
H2165 C2171 0.930 . S
C2166 H2152 0.930 . S
C2166 C2164 1.395 . S
C2166 C2169 1.403 . S
C2167 C2164 1.403 . S
C2167 C2168 1.524 . S
C2167 C2171 1.400 . S
C2168 H2153 0.960 . S
C2168 H2154 0.960 . S
C2168 H2155 0.960 . S
C2168 C2167 1.524 . S
C2169 C2166 1.403 . S
C2169 C2170 1.392 . S
C2169 C2173 1.495 . S
C2170 C2169 1.392 . S
C2170 C2171 1.385 . S
C2170 C2172 1.478 . S
C2171 H2165 0.930 . S
C2171 C2167 1.400 . S
C2171 C2170 1.385 . S
C2172 C2170 1.478 . S
C2172 C2174 1.381 . S
C2172 C2178 1.383 . S
C2173 C2169 1.495 . S
C2173 H2179 0.959 . S
C2173 H2180 0.961 . S
C2173 H2181 0.960 . S
C2174 C2172 1.381 . S
C2174 C2175 1.394 . S
C2174 H2182 0.930 . S
C2175 C2174 1.394 . S
C2175 C2176 1.383 . S
C2175 H2183 0.929 . S
C2176 C2175 1.383 . S
C2176 C2177 1.377 . S
C2177 H2161 0.930 . S
C2177 C2176 1.377 . S
C2177 C2178 1.379 . S
C2178 H2162 0.931 . S
C2178 C2172 1.383 . S
C2178 C2177 1.379 . S
H2179 C2173 0.959 . S
H2180 C2173 0.961 . S
H2181 C2173 0.960 . S
H2182 C2174 0.930 . S
H2183 C2175 0.929 . S
H2184 C2192 0.929 . S
H2185 C2194 0.930 . S
H2186 C2196 0.930 . S
H2187 C2199 0.929 . S
H2188 C2202 0.930 . S
H2189 C2204 0.960 . S
H2190 C2204 0.960 . S
H2191 C2204 0.960 . S
C2192 H2184 0.929 . S
C2192 C2193 1.377 . S
C2192 C2194 1.384 . S
C2193 C2192 1.377 . S
C2193 C2199 1.390 . S
C2194 H2185 0.930 . S
C2194 C2192 1.384 . S
C2194 C2195 1.372 . S
C2195 C2194 1.372 . S
C2195 C2196 1.400 . S
C2195 C2200 1.490 . S
C2196 H2186 0.930 . S
C2196 C2195 1.400 . S
C2196 C2199 1.386 . S
H2197 C2213 0.930 . S
H2198 C2214 0.931 . S
C2199 H2187 0.929 . S
C2199 C2193 1.390 . S
C2199 C2196 1.386 . S
C2200 C2195 1.490 . S
C2200 C2202 1.395 . S
C2200 C2203 1.403 . S
H2201 C2207 0.930 . S
C2202 H2188 0.930 . S
C2202 C2200 1.395 . S
C2202 C2205 1.403 . S
C2203 C2200 1.403 . S
C2203 C2204 1.524 . S
C2203 C2207 1.400 . S
C2204 H2189 0.960 . S
C2204 H2190 0.960 . S
C2204 H2191 0.960 . S
C2204 C2203 1.524 . S
C2205 C2202 1.403 . S
C2205 C2206 1.392 . S
C2205 C2209 1.495 . S
C2206 C2205 1.392 . S
C2206 C2207 1.385 . S
C2206 C2208 1.478 . S
C2207 H2201 0.930 . S
C2207 C2203 1.400 . S
C2207 C2206 1.385 . S
C2208 C2206 1.478 . S
C2208 C2210 1.381 . S
C2208 C2214 1.383 . S
C2209 C2205 1.495 . S
C2209 H2215 0.959 . S
C2209 H2216 0.961 . S
C2209 H2217 0.960 . S
C2210 C2208 1.381 . S
C2210 C2211 1.394 . S
C2210 H2218 0.930 . S
C2211 C2210 1.394 . S
C2211 C2212 1.383 . S
C2211 H2219 0.929 . S
C2212 C2211 1.383 . S
C2212 C2213 1.377 . S
C2213 H2197 0.930 . S
C2213 C2212 1.377 . S
C2213 C2214 1.379 . S
C2214 H2198 0.931 . S
C2214 C2208 1.383 . S
C2214 C2213 1.379 . S
H2215 C2209 0.959 . S
H2216 C2209 0.961 . S
H2217 C2209 0.960 . S
H2218 C2210 0.930 . S
H2219 C2211 0.929 . S
H2220 C2228 0.929 . S
H2221 C2230 0.930 . S
H2222 C2232 0.930 . S
H2223 C2235 0.929 . S
H2224 C2238 0.930 . S
H2225 C2240 0.960 . S
H2226 C2240 0.960 . S
H2227 C2240 0.960 . S
C2228 H2220 0.929 . S
C2228 C2229 1.377 . S
C2228 C2230 1.384 . S
C2229 C2228 1.377 . S
C2229 C2235 1.390 . S
C2230 H2221 0.930 . S
C2230 C2228 1.384 . S
C2230 C2231 1.372 . S
C2231 C2230 1.372 . S
C2231 C2232 1.400 . S
C2231 C2236 1.490 . S
C2232 H2222 0.930 . S
C2232 C2231 1.400 . S
C2232 C2235 1.386 . S
H2233 C2249 0.930 . S
H2234 C2250 0.931 . S
C2235 H2223 0.929 . S
C2235 C2229 1.390 . S
C2235 C2232 1.386 . S
C2236 C2231 1.490 . S
C2236 C2238 1.395 . S
C2236 C2239 1.403 . S
H2237 C2243 0.930 . S
C2238 H2224 0.930 . S
C2238 C2236 1.395 . S
C2238 C2241 1.403 . S
C2239 C2236 1.403 . S
C2239 C2240 1.524 . S
C2239 C2243 1.400 . S
C2240 H2225 0.960 . S
C2240 H2226 0.960 . S
C2240 H2227 0.960 . S
C2240 C2239 1.524 . S
C2241 C2238 1.403 . S
C2241 C2242 1.392 . S
C2241 C2245 1.495 . S
C2242 C2241 1.392 . S
C2242 C2243 1.385 . S
C2242 C2244 1.478 . S
C2243 H2237 0.930 . S
C2243 C2239 1.400 . S
C2243 C2242 1.385 . S
C2244 C2242 1.478 . S
C2244 C2246 1.381 . S
C2244 C2250 1.383 . S
C2245 C2241 1.495 . S
C2245 H2251 0.959 . S
C2245 H2252 0.961 . S
C2245 H2253 0.960 . S
C2246 C2244 1.381 . S
C2246 C2247 1.394 . S
C2246 H2254 0.930 . S
C2247 C2246 1.394 . S
C2247 C2248 1.383 . S
C2247 H2255 0.929 . S
C2248 C2247 1.383 . S
C2248 C2249 1.377 . S
C2249 H2233 0.930 . S
C2249 C2248 1.377 . S
C2249 C2250 1.379 . S
C2250 H2234 0.931 . S
C2250 C2244 1.383 . S
C2250 C2249 1.379 . S
H2251 C2245 0.959 . S
H2252 C2245 0.961 . S
H2253 C2245 0.960 . S
H2254 C2246 0.930 . S
H2255 C2247 0.929 . S
H2256 C2264 0.929 . S
H2257 C2266 0.930 . S
H2258 C2268 0.930 . S
H2259 C2271 0.929 . S
H2260 C2274 0.930 . S
H2261 C2276 0.960 . S
H2262 C2276 0.960 . S
H2263 C2276 0.960 . S
C2264 H2256 0.929 . S
C2264 C2265 1.377 . S
C2264 C2266 1.384 . S
C2265 C2264 1.377 . S
C2265 C2271 1.390 . S
C2266 H2257 0.930 . S
C2266 C2264 1.384 . S
C2266 C2267 1.372 . S
C2267 C2266 1.372 . S
C2267 C2268 1.400 . S
C2267 C2272 1.490 . S
C2268 H2258 0.930 . S
C2268 C2267 1.400 . S
C2268 C2271 1.386 . S
H2269 C2285 0.930 . S
H2270 C2286 0.931 . S
C2271 H2259 0.929 . S
C2271 C2265 1.390 . S
C2271 C2268 1.386 . S
C2272 C2267 1.490 . S
C2272 C2274 1.395 . S
C2272 C2275 1.403 . S
H2273 C2279 0.930 . S
C2274 H2260 0.930 . S
C2274 C2272 1.395 . S
C2274 C2277 1.403 . S
C2275 C2272 1.403 . S
C2275 C2276 1.524 . S
C2275 C2279 1.400 . S
C2276 H2261 0.960 . S
C2276 H2262 0.960 . S
C2276 H2263 0.960 . S
C2276 C2275 1.524 . S
C2277 C2274 1.403 . S
C2277 C2278 1.392 . S
C2277 C2281 1.495 . S
C2278 C2277 1.392 . S
C2278 C2279 1.385 . S
C2278 C2280 1.478 . S
C2279 H2273 0.930 . S
C2279 C2275 1.400 . S
C2279 C2278 1.385 . S
C2280 C2278 1.478 . S
C2280 C2282 1.381 . S
C2280 C2286 1.383 . S
C2281 C2277 1.495 . S
C2281 H2287 0.959 . S
C2281 H2288 0.961 . S
C2281 H2289 0.960 . S
C2282 C2280 1.381 . S
C2282 C2283 1.394 . S
C2282 H2290 0.930 . S
C2283 C2282 1.394 . S
C2283 C2284 1.383 . S
C2283 H2291 0.929 . S
C2284 C2283 1.383 . S
C2284 C2285 1.377 . S
C2285 H2269 0.930 . S
C2285 C2284 1.377 . S
C2285 C2286 1.379 . S
C2286 H2270 0.931 . S
C2286 C2280 1.383 . S
C2286 C2285 1.379 . S
H2287 C2281 0.959 . S
H2288 C2281 0.961 . S
H2289 C2281 0.960 . S
H2290 C2282 0.930 . S
H2291 C2283 0.929 . S
H2292 C2300 0.929 . S
H2293 C2302 0.930 . S
H2294 C2304 0.930 . S
H2295 C2307 0.929 . S
H2296 C2310 0.930 . S
H2297 C2312 0.960 . S
H2298 C2312 0.960 . S
H2299 C2312 0.960 . S
C2300 H2292 0.929 . S
C2300 C2301 1.377 . S
C2300 C2302 1.384 . S
C2301 C2300 1.377 . S
C2301 C2307 1.390 . S
C2302 H2293 0.930 . S
C2302 C2300 1.384 . S
C2302 C2303 1.372 . S
C2303 C2302 1.372 . S
C2303 C2304 1.400 . S
C2303 C2308 1.490 . S
C2304 H2294 0.930 . S
C2304 C2303 1.400 . S
C2304 C2307 1.386 . S
H2305 C2321 0.930 . S
H2306 C2322 0.931 . S
C2307 H2295 0.929 . S
C2307 C2301 1.390 . S
C2307 C2304 1.386 . S
C2308 C2303 1.490 . S
C2308 C2310 1.395 . S
C2308 C2311 1.403 . S
H2309 C2315 0.930 . S
C2310 H2296 0.930 . S
C2310 C2308 1.395 . S
C2310 C2313 1.403 . S
C2311 C2308 1.403 . S
C2311 C2312 1.524 . S
C2311 C2315 1.400 . S
C2312 H2297 0.960 . S
C2312 H2298 0.960 . S
C2312 H2299 0.960 . S
C2312 C2311 1.524 . S
C2313 C2310 1.403 . S
C2313 C2314 1.392 . S
C2313 C2317 1.495 . S
C2314 C2313 1.392 . S
C2314 C2315 1.385 . S
C2314 C2316 1.478 . S
C2315 H2309 0.930 . S
C2315 C2311 1.400 . S
C2315 C2314 1.385 . S
C2316 C2314 1.478 . S
C2316 C2318 1.381 . S
C2316 C2322 1.383 . S
C2317 C2313 1.495 . S
C2317 H2323 0.959 . S
C2317 H2324 0.961 . S
C2317 H2325 0.960 . S
C2318 C2316 1.381 . S
C2318 C2319 1.394 . S
C2318 H2326 0.930 . S
C2319 C2318 1.394 . S
C2319 C2320 1.383 . S
C2319 H2327 0.929 . S
C2320 C2319 1.383 . S
C2320 C2321 1.377 . S
C2321 H2305 0.930 . S
C2321 C2320 1.377 . S
C2321 C2322 1.379 . S
C2322 H2306 0.931 . S
C2322 C2316 1.383 . S
C2322 C2321 1.379 . S
H2323 C2317 0.959 . S
H2324 C2317 0.961 . S
H2325 C2317 0.960 . S
H2326 C2318 0.930 . S
H2327 C2319 0.929 . S
H2328 C2336 0.929 . S
H2329 C2338 0.930 . S
H2330 C2340 0.930 . S
H2331 C2343 0.929 . S
H2332 C2346 0.930 . S
H2333 C2348 0.960 . S
H2334 C2348 0.960 . S
H2335 C2348 0.960 . S
C2336 H2328 0.929 . S
C2336 C2337 1.377 . S
C2336 C2338 1.384 . S
C2337 C2336 1.377 . S
C2337 C2343 1.390 . S
C2338 H2329 0.930 . S
C2338 C2336 1.384 . S
C2338 C2339 1.372 . S
C2339 C2338 1.372 . S
C2339 C2340 1.400 . S
C2339 C2344 1.490 . S
C2340 H2330 0.930 . S
C2340 C2339 1.400 . S
C2340 C2343 1.386 . S
H2341 C2357 0.930 . S
H2342 C2358 0.931 . S
C2343 H2331 0.929 . S
C2343 C2337 1.390 . S
C2343 C2340 1.386 . S
C2344 C2339 1.490 . S
C2344 C2346 1.395 . S
C2344 C2347 1.403 . S
H2345 C2351 0.930 . S
C2346 H2332 0.930 . S
C2346 C2344 1.395 . S
C2346 C2349 1.403 . S
C2347 C2344 1.403 . S
C2347 C2348 1.524 . S
C2347 C2351 1.400 . S
C2348 H2333 0.960 . S
C2348 H2334 0.960 . S
C2348 H2335 0.960 . S
C2348 C2347 1.524 . S
C2349 C2346 1.403 . S
C2349 C2350 1.392 . S
C2349 C2353 1.495 . S
C2350 C2349 1.392 . S
C2350 C2351 1.385 . S
C2350 C2352 1.478 . S
C2351 H2345 0.930 . S
C2351 C2347 1.400 . S
C2351 C2350 1.385 . S
C2352 C2350 1.478 . S
C2352 C2354 1.381 . S
C2352 C2358 1.383 . S
C2353 C2349 1.495 . S
C2353 H2359 0.959 . S
C2353 H2360 0.961 . S
C2353 H2361 0.960 . S
C2354 C2352 1.381 . S
C2354 C2355 1.394 . S
C2354 H2362 0.930 . S
C2355 C2354 1.394 . S
C2355 C2356 1.383 . S
C2355 H2363 0.929 . S
C2356 C2355 1.383 . S
C2356 C2357 1.377 . S
C2357 H2341 0.930 . S
C2357 C2356 1.377 . S
C2357 C2358 1.379 . S
C2358 H2342 0.931 . S
C2358 C2352 1.383 . S
C2358 C2357 1.379 . S
H2359 C2353 0.959 . S
H2360 C2353 0.961 . S
H2361 C2353 0.960 . S
H2362 C2354 0.930 . S
H2363 C2355 0.929 . S
H2364 C2372 0.929 . S
H2365 C2374 0.930 . S
H2366 C2376 0.930 . S
H2367 C2379 0.929 . S
H2368 C2382 0.930 . S
H2369 C2384 0.960 . S
H2370 C2384 0.960 . S
H2371 C2384 0.960 . S
C2372 H2364 0.929 . S
C2372 C2373 1.377 . S
C2372 C2374 1.384 . S
C2373 C2372 1.377 . S
C2373 C2379 1.390 . S
C2374 H2365 0.930 . S
C2374 C2372 1.384 . S
C2374 C2375 1.372 . S
C2375 C2374 1.372 . S
C2375 C2376 1.400 . S
C2375 C2380 1.490 . S
C2376 H2366 0.930 . S
C2376 C2375 1.400 . S
C2376 C2379 1.386 . S
H2377 C2393 0.930 . S
H2378 C2394 0.931 . S
C2379 H2367 0.929 . S
C2379 C2373 1.390 . S
C2379 C2376 1.386 . S
C2380 C2375 1.490 . S
C2380 C2382 1.395 . S
C2380 C2383 1.403 . S
H2381 C2387 0.930 . S
C2382 H2368 0.930 . S
C2382 C2380 1.395 . S
C2382 C2385 1.403 . S
C2383 C2380 1.403 . S
C2383 C2384 1.524 . S
C2383 C2387 1.400 . S
C2384 H2369 0.960 . S
C2384 H2370 0.960 . S
C2384 H2371 0.960 . S
C2384 C2383 1.524 . S
C2385 C2382 1.403 . S
C2385 C2386 1.392 . S
C2385 C2389 1.495 . S
C2386 C2385 1.392 . S
C2386 C2387 1.385 . S
C2386 C2388 1.478 . S
C2387 H2381 0.930 . S
C2387 C2383 1.400 . S
C2387 C2386 1.385 . S
C2388 C2386 1.478 . S
C2388 C2390 1.381 . S
C2388 C2394 1.383 . S
C2389 C2385 1.495 . S
C2389 H2395 0.959 . S
C2389 H2396 0.961 . S
C2389 H2397 0.960 . S
C2390 C2388 1.381 . S
C2390 C2391 1.394 . S
C2390 H2398 0.930 . S
C2391 C2390 1.394 . S
C2391 C2392 1.383 . S
C2391 H2399 0.929 . S
C2392 C2391 1.383 . S
C2392 C2393 1.377 . S
C2393 H2377 0.930 . S
C2393 C2392 1.377 . S
C2393 C2394 1.379 . S
C2394 H2378 0.931 . S
C2394 C2388 1.383 . S
C2394 C2393 1.379 . S
H2395 C2389 0.959 . S
H2396 C2389 0.961 . S
H2397 C2389 0.960 . S
H2398 C2390 0.930 . S
H2399 C2391 0.929 . S
H2400 C2408 0.929 . S
H2401 C2410 0.930 . S
H2402 C2412 0.930 . S
H2403 C2415 0.929 . S
H2404 C2418 0.930 . S
H2405 C2420 0.960 . S
H2406 C2420 0.960 . S
H2407 C2420 0.960 . S
C2408 H2400 0.929 . S
C2408 C2409 1.377 . S
C2408 C2410 1.384 . S
C2409 C2408 1.377 . S
C2409 C2415 1.390 . S
C2410 H2401 0.930 . S
C2410 C2408 1.384 . S
C2410 C2411 1.372 . S
C2411 C2410 1.372 . S
C2411 C2412 1.400 . S
C2411 C2416 1.490 . S
C2412 H2402 0.930 . S
C2412 C2411 1.400 . S
C2412 C2415 1.386 . S
H2413 C2429 0.930 . S
H2414 C2430 0.931 . S
C2415 H2403 0.929 . S
C2415 C2409 1.390 . S
C2415 C2412 1.386 . S
C2416 C2411 1.490 . S
C2416 C2418 1.395 . S
C2416 C2419 1.403 . S
H2417 C2423 0.930 . S
C2418 H2404 0.930 . S
C2418 C2416 1.395 . S
C2418 C2421 1.403 . S
C2419 C2416 1.403 . S
C2419 C2420 1.524 . S
C2419 C2423 1.400 . S
C2420 H2405 0.960 . S
C2420 H2406 0.960 . S
C2420 H2407 0.960 . S
C2420 C2419 1.524 . S
C2421 C2418 1.403 . S
C2421 C2422 1.392 . S
C2421 C2425 1.495 . S
C2422 C2421 1.392 . S
C2422 C2423 1.385 . S
C2422 C2424 1.478 . S
C2423 H2417 0.930 . S
C2423 C2419 1.400 . S
C2423 C2422 1.385 . S
C2424 C2422 1.478 . S
C2424 C2426 1.381 . S
C2424 C2430 1.383 . S
C2425 C2421 1.495 . S
C2425 H2431 0.959 . S
C2425 H2432 0.961 . S
C2425 H2433 0.960 . S
C2426 C2424 1.381 . S
C2426 C2427 1.394 . S
C2426 H2434 0.930 . S
C2427 C2426 1.394 . S
C2427 C2428 1.383 . S
C2427 H2435 0.929 . S
C2428 C2427 1.383 . S
C2428 C2429 1.377 . S
C2429 H2413 0.930 . S
C2429 C2428 1.377 . S
C2429 C2430 1.379 . S
C2430 H2414 0.931 . S
C2430 C2424 1.383 . S
C2430 C2429 1.379 . S
H2431 C2425 0.959 . S
H2432 C2425 0.961 . S
H2433 C2425 0.960 . S
H2434 C2426 0.930 . S
H2435 C2427 0.929 . S
H2436 C2444 0.929 . S
H2437 C2446 0.930 . S
H2438 C2448 0.930 . S
H2439 C2451 0.929 . S
H2440 C2454 0.930 . S
H2441 C2456 0.960 . S
H2442 C2456 0.960 . S
H2443 C2456 0.960 . S
C2444 H2436 0.929 . S
C2444 C2445 1.377 . S
C2444 C2446 1.384 . S
C2445 C2444 1.377 . S
C2445 C2451 1.390 . S
C2446 H2437 0.930 . S
C2446 C2444 1.384 . S
C2446 C2447 1.372 . S
C2447 C2446 1.372 . S
C2447 C2448 1.400 . S
C2447 C2452 1.490 . S
C2448 H2438 0.930 . S
C2448 C2447 1.400 . S
C2448 C2451 1.386 . S
H2449 C2465 0.930 . S
H2450 C2466 0.931 . S
C2451 H2439 0.929 . S
C2451 C2445 1.390 . S
C2451 C2448 1.386 . S
C2452 C2447 1.490 . S
C2452 C2454 1.395 . S
C2452 C2455 1.403 . S
H2453 C2459 0.930 . S
C2454 H2440 0.930 . S
C2454 C2452 1.395 . S
C2454 C2457 1.403 . S
C2455 C2452 1.403 . S
C2455 C2456 1.524 . S
C2455 C2459 1.400 . S
C2456 H2441 0.960 . S
C2456 H2442 0.960 . S
C2456 H2443 0.960 . S
C2456 C2455 1.524 . S
C2457 C2454 1.403 . S
C2457 C2458 1.392 . S
C2457 C2461 1.495 . S
C2458 C2457 1.392 . S
C2458 C2459 1.385 . S
C2458 C2460 1.478 . S
C2459 H2453 0.930 . S
C2459 C2455 1.400 . S
C2459 C2458 1.385 . S
C2460 C2458 1.478 . S
C2460 C2462 1.381 . S
C2460 C2466 1.383 . S
C2461 C2457 1.495 . S
C2461 H2467 0.959 . S
C2461 H2468 0.961 . S
C2461 H2469 0.960 . S
C2462 C2460 1.381 . S
C2462 C2463 1.394 . S
C2462 H2470 0.930 . S
C2463 C2462 1.394 . S
C2463 C2464 1.383 . S
C2463 H2471 0.929 . S
C2464 C2463 1.383 . S
C2464 C2465 1.377 . S
C2465 H2449 0.930 . S
C2465 C2464 1.377 . S
C2465 C2466 1.379 . S
C2466 H2450 0.931 . S
C2466 C2460 1.383 . S
C2466 C2465 1.379 . S
H2467 C2461 0.959 . S
H2468 C2461 0.961 . S
H2469 C2461 0.960 . S
H2470 C2462 0.930 . S
H2471 C2463 0.929 . S
H2472 C2480 0.929 . S
H2473 C2482 0.930 . S
H2474 C2484 0.930 . S
H2475 C2487 0.929 . S
H2476 C2490 0.930 . S
H2477 C2492 0.960 . S
H2478 C2492 0.960 . S
H2479 C2492 0.960 . S
C2480 H2472 0.929 . S
C2480 C2481 1.377 . S
C2480 C2482 1.384 . S
C2481 C2480 1.377 . S
C2481 C2487 1.390 . S
C2482 H2473 0.930 . S
C2482 C2480 1.384 . S
C2482 C2483 1.372 . S
C2483 C2482 1.372 . S
C2483 C2484 1.400 . S
C2483 C2488 1.490 . S
C2484 H2474 0.930 . S
C2484 C2483 1.400 . S
C2484 C2487 1.386 . S
H2485 C2501 0.930 . S
H2486 C2502 0.931 . S
C2487 H2475 0.929 . S
C2487 C2481 1.390 . S
C2487 C2484 1.386 . S
C2488 C2483 1.490 . S
C2488 C2490 1.395 . S
C2488 C2491 1.403 . S
H2489 C2495 0.930 . S
C2490 H2476 0.930 . S
C2490 C2488 1.395 . S
C2490 C2493 1.403 . S
C2491 C2488 1.403 . S
C2491 C2492 1.524 . S
C2491 C2495 1.400 . S
C2492 H2477 0.960 . S
C2492 H2478 0.960 . S
C2492 H2479 0.960 . S
C2492 C2491 1.524 . S
C2493 C2490 1.403 . S
C2493 C2494 1.392 . S
C2493 C2497 1.495 . S
C2494 C2493 1.392 . S
C2494 C2495 1.385 . S
C2494 C2496 1.478 . S
C2495 H2489 0.930 . S
C2495 C2491 1.400 . S
C2495 C2494 1.385 . S
C2496 C2494 1.478 . S
C2496 C2498 1.381 . S
C2496 C2502 1.383 . S
C2497 C2493 1.495 . S
C2497 H2503 0.959 . S
C2497 H2504 0.961 . S
C2497 H2505 0.960 . S
C2498 C2496 1.381 . S
C2498 C2499 1.394 . S
C2498 H2506 0.930 . S
C2499 C2498 1.394 . S
C2499 C2500 1.383 . S
C2499 H2507 0.929 . S
C2500 C2499 1.383 . S
C2500 C2501 1.377 . S
C2501 H2485 0.930 . S
C2501 C2500 1.377 . S
C2501 C2502 1.379 . S
C2502 H2486 0.931 . S
C2502 C2496 1.383 . S
C2502 C2501 1.379 . S
H2503 C2497 0.959 . S
H2504 C2497 0.961 . S
H2505 C2497 0.960 . S
H2506 C2498 0.930 . S
H2507 C2499 0.929 . S
H2508 C2516 0.929 . S
H2509 C2518 0.930 . S
H2510 C2520 0.930 . S
H2511 C2523 0.929 . S
H2512 C2526 0.930 . S
H2513 C2528 0.960 . S
H2514 C2528 0.960 . S
H2515 C2528 0.960 . S
C2516 H2508 0.929 . S
C2516 C2517 1.377 . S
C2516 C2518 1.384 . S
C2517 C2516 1.377 . S
C2517 C2523 1.390 . S
C2518 H2509 0.930 . S
C2518 C2516 1.384 . S
C2518 C2519 1.372 . S
C2519 C2518 1.372 . S
C2519 C2520 1.400 . S
C2519 C2524 1.490 . S
C2520 H2510 0.930 . S
C2520 C2519 1.400 . S
C2520 C2523 1.386 . S
H2521 C2537 0.930 . S
H2522 C2538 0.931 . S
C2523 H2511 0.929 . S
C2523 C2517 1.390 . S
C2523 C2520 1.386 . S
C2524 C2519 1.490 . S
C2524 C2526 1.395 . S
C2524 C2527 1.403 . S
H2525 C2531 0.930 . S
C2526 H2512 0.930 . S
C2526 C2524 1.395 . S
C2526 C2529 1.403 . S
C2527 C2524 1.403 . S
C2527 C2528 1.524 . S
C2527 C2531 1.400 . S
C2528 H2513 0.960 . S
C2528 H2514 0.960 . S
C2528 H2515 0.960 . S
C2528 C2527 1.524 . S
C2529 C2526 1.403 . S
C2529 C2530 1.392 . S
C2529 C2533 1.495 . S
C2530 C2529 1.392 . S
C2530 C2531 1.385 . S
C2530 C2532 1.478 . S
C2531 H2525 0.930 . S
C2531 C2527 1.400 . S
C2531 C2530 1.385 . S
C2532 C2530 1.478 . S
C2532 C2534 1.381 . S
C2532 C2538 1.383 . S
C2533 C2529 1.495 . S
C2533 H2539 0.959 . S
C2533 H2540 0.961 . S
C2533 H2541 0.960 . S
C2534 C2532 1.381 . S
C2534 C2535 1.394 . S
C2534 H2542 0.930 . S
C2535 C2534 1.394 . S
C2535 C2536 1.383 . S
C2535 H2543 0.929 . S
C2536 C2535 1.383 . S
C2536 C2537 1.377 . S
C2537 H2521 0.930 . S
C2537 C2536 1.377 . S
C2537 C2538 1.379 . S
C2538 H2522 0.931 . S
C2538 C2532 1.383 . S
C2538 C2537 1.379 . S
H2539 C2533 0.959 . S
H2540 C2533 0.961 . S
H2541 C2533 0.960 . S
H2542 C2534 0.930 . S
H2543 C2535 0.929 . S
H2544 C2552 0.929 . S
H2545 C2554 0.930 . S
H2546 C2556 0.930 . S
H2547 C2559 0.929 . S
H2548 C2562 0.930 . S
H2549 C2564 0.960 . S
H2550 C2564 0.960 1_455 S
H2551 C2564 0.950 1_455 S
C2552 H2544 0.929 . S
C2552 C2553 1.377 . S
C2552 C2554 1.384 . S
C2553 C2552 1.377 . S
C2553 C2559 1.390 . S
C2554 H2545 0.930 . S
C2554 C2552 1.384 . S
C2554 C2555 1.372 . S
C2555 C2554 1.372 . S
C2555 C2556 1.400 . S
C2555 C2560 1.490 . S
C2556 H2546 0.930 . S
C2556 C2555 1.400 . S
C2556 C2559 1.386 . S
H2557 C2573 0.930 . S
H2558 C2574 0.931 . S
C2559 H2547 0.929 . S
C2559 C2553 1.390 . S
C2559 C2556 1.386 . S
C2560 C2555 1.490 . S
C2560 C2562 1.395 . S
C2560 C2563 1.395 1_455 S
H2561 C2567 0.930 . S
C2562 H2548 0.930 . S
C2562 C2560 1.395 . S
C2562 C2565 1.403 . S
C2563 C2560 1.395 1_655 S
C2563 C2564 1.525 . S
C2563 C2567 1.407 . S
C2564 H2549 0.960 . S
C2564 H2550 0.960 1_655 S
C2564 H2551 0.950 1_655 S
C2564 C2563 1.525 . S
C2565 C2562 1.403 . S
C2565 C2566 1.392 1_455 S
C2565 C2569 1.495 . S
C2566 C2565 1.392 1_655 S
C2566 C2567 1.385 . S
C2566 C2568 1.478 . S
C2567 H2561 0.930 . S
C2567 C2563 1.407 . S
C2567 C2566 1.385 . S
C2568 C2566 1.478 . S
C2568 C2570 1.381 . S
C2568 C2574 1.383 . S
C2569 C2565 1.495 . S
C2569 H2575 0.959 . S
C2569 H2576 0.961 1_455 S
C2569 H2577 0.960 . S
C2570 C2568 1.381 . S
C2570 C2571 1.394 . S
C2570 H2578 0.930 . S
C2571 C2570 1.394 . S
C2571 C2572 1.383 . S
C2571 H2579 0.929 . S
C2572 C2571 1.383 . S
C2572 C2573 1.377 . S
C2573 H2557 0.930 . S
C2573 C2572 1.377 . S
C2573 C2574 1.379 . S
C2574 H2558 0.931 . S
C2574 C2568 1.383 . S
C2574 C2573 1.379 . S
H2575 C2569 0.959 . S
H2576 C2569 0.961 1_655 S
H2577 C2569 0.960 . S
H2578 C2570 0.930 . S
H2579 C2571 0.929 . S
H2580 C2588 0.929 . S
H2581 C2590 0.930 . S
H2582 C2592 0.930 . S
H2583 C2595 0.929 . S
H2584 C2598 0.930 . S
H2585 C2600 0.960 . S
H2586 C2600 0.975 . S
H2587 C2600 0.960 1_545 S
C2588 H2580 0.929 . S
C2588 C2589 1.377 . S
C2588 C2590 1.384 . S
C2589 C2588 1.377 . S
C2589 C2595 1.390 . S
C2590 H2581 0.930 . S
C2590 C2588 1.384 . S
C2590 C2591 1.372 . S
C2591 C2590 1.372 . S
C2591 C2592 1.400 . S
C2591 C2596 1.490 . S
C2592 H2582 0.930 . S
C2592 C2591 1.400 . S
C2592 C2595 1.386 . S
H2593 C2609 0.930 . S
H2594 C2610 0.931 . S
C2595 H2583 0.929 . S
C2595 C2589 1.390 . S
C2595 C2592 1.386 . S
C2596 C2591 1.490 . S
C2596 C2598 1.395 . S
C2596 C2599 1.403 1_545 S
H2597 C2603 0.930 . S
C2598 H2584 0.930 . S
C2598 C2596 1.395 . S
C2598 C2601 1.403 . S
C2599 C2596 1.403 1_565 S
C2599 C2600 1.524 . S
C2599 C2603 1.400 . S
C2600 H2585 0.960 . S
C2600 H2586 0.975 . S
C2600 H2587 0.960 1_565 S
C2600 C2599 1.524 . S
C2601 C2598 1.403 . S
C2601 C2602 1.392 1_545 S
C2601 C2605 1.495 . S
C2602 C2601 1.392 1_565 S
C2602 C2603 1.385 . S
C2602 C2604 1.478 . S
C2603 H2597 0.930 . S
C2603 C2599 1.400 . S
C2603 C2602 1.385 . S
C2604 C2602 1.478 . S
C2604 C2606 1.381 . S
C2604 C2610 1.383 . S
C2605 C2601 1.495 . S
C2605 H2611 0.959 . S
C2605 H2612 0.961 . S
C2605 H2613 0.957 . S
C2606 C2604 1.381 . S
C2606 C2607 1.394 . S
C2606 H2614 0.930 . S
C2607 C2606 1.394 . S
C2607 C2608 1.383 . S
C2607 H2615 0.929 . S
C2608 C2607 1.383 . S
C2608 C2609 1.377 . S
C2609 H2593 0.930 . S
C2609 C2608 1.377 . S
C2609 C2610 1.379 . S
C2610 H2594 0.931 . S
C2610 C2604 1.383 . S
C2610 C2609 1.379 . S
H2611 C2605 0.959 . S
H2612 C2605 0.961 . S
H2613 C2605 0.957 . S
H2614 C2606 0.930 . S
H2615 C2607 0.929 . S
H2616 C2624 0.929 . S
H2617 C2626 0.930 . S
H2618 C2628 0.930 . S
H2619 C2631 0.929 . S
H2620 C2634 0.932 . S
H2621 C2636 0.960 . S
H2622 C2636 0.960 . S
H2623 C2636 0.960 . S
C2624 H2616 0.929 . S
C2624 C2625 1.377 . S
C2624 C2626 1.384 . S
C2625 C2624 1.377 . S
C2625 C2631 1.390 . S
C2626 H2617 0.930 . S
C2626 C2624 1.384 . S
C2626 C2627 1.372 . S
C2627 C2626 1.372 . S
C2627 C2628 1.400 . S
C2627 C2632 1.490 . S
C2628 H2618 0.930 . S
C2628 C2627 1.400 . S
C2628 C2631 1.386 . S
H2629 C2645 0.930 . S
H2630 C2646 0.931 . S
C2631 H2619 0.929 . S
C2631 C2625 1.390 . S
C2631 C2628 1.386 . S
C2632 C2627 1.490 . S
C2632 C2634 1.395 1_455 S
C2632 C2635 1.403 . S
H2633 C2639 0.930 . S
C2634 H2620 0.932 . S
C2634 C2632 1.395 1_655 S
C2634 C2637 1.403 . S
C2635 C2632 1.403 . S
C2635 C2636 1.524 . S
C2635 C2639 1.400 1_455 S
C2636 H2621 0.960 . S
C2636 H2622 0.960 . S
C2636 H2623 0.960 . S
C2636 C2635 1.524 . S
C2637 C2634 1.403 . S
C2637 C2638 1.392 . S
C2637 C2641 1.495 . S
C2638 C2637 1.392 . S
C2638 C2639 1.385 . S
C2638 C2640 1.478 . S
C2639 H2633 0.930 . S
C2639 C2635 1.400 1_655 S
C2639 C2638 1.385 . S
C2640 C2638 1.478 . S
C2640 C2642 1.381 . S
C2640 C2646 1.383 . S
C2641 C2637 1.495 . S
C2641 H2647 0.959 . S
C2641 H2648 0.961 . S
C2641 H2649 0.960 . S
C2642 C2640 1.381 . S
C2642 C2643 1.394 . S
C2642 H2650 0.930 . S
C2643 C2642 1.394 . S
C2643 C2644 1.383 . S
C2643 H2651 0.929 . S
C2644 C2643 1.383 . S
C2644 C2645 1.377 . S
C2645 H2629 0.930 . S
C2645 C2644 1.377 . S
C2645 C2646 1.379 . S
C2646 H2630 0.931 . S
C2646 C2640 1.383 . S
C2646 C2645 1.379 . S
H2647 C2641 0.959 . S
H2648 C2641 0.961 . S
H2649 C2641 0.960 . S
H2650 C2642 0.930 . S
H2651 C2643 0.929 . S
H2652 C2660 0.929 . S
H2653 C2662 0.930 . S
H2654 C2664 0.930 . S
H2655 C2667 0.929 . S
H2656 C2670 0.930 1_565 S
H2657 C2672 0.960 . S
H2658 C2672 0.960 . S
H2659 C2672 0.960 . S
C2660 H2652 0.929 . S
C2660 C2661 1.377 . S
C2660 C2662 1.384 . S
C2661 C2660 1.377 . S
C2661 C2667 1.390 . S
C2662 H2653 0.930 . S
C2662 C2660 1.384 . S
C2662 C2663 1.372 . S
C2663 C2662 1.372 . S
C2663 C2664 1.400 . S
C2663 C2668 1.490 . S
C2664 H2654 0.930 . S
C2664 C2663 1.400 . S
C2664 C2667 1.386 . S
H2665 C2681 0.930 . S
H2666 C2682 0.931 . S
C2667 H2655 0.929 . S
C2667 C2661 1.390 . S
C2667 C2664 1.386 . S
C2668 C2663 1.490 . S
C2668 C2670 1.392 1_565 S
C2668 C2671 1.403 . S
H2669 C2675 0.930 . S
C2670 H2656 0.930 1_545 S
C2670 C2668 1.392 1_545 S
C2670 C2673 1.406 . S
C2671 C2668 1.403 . S
C2671 C2672 1.524 . S
C2671 C2675 1.400 1_565 S
C2672 H2657 0.960 . S
C2672 H2658 0.960 . S
C2672 H2659 0.960 . S
C2672 C2671 1.524 . S
C2673 C2670 1.406 . S
C2673 C2674 1.392 . S
C2673 C2677 1.495 . S
C2674 C2673 1.392 . S
C2674 C2675 1.385 . S
C2674 C2676 1.478 . S
C2675 H2669 0.930 . S
C2675 C2671 1.400 1_545 S
C2675 C2674 1.385 . S
C2676 C2674 1.478 . S
C2676 C2678 1.381 . S
C2676 C2682 1.383 . S
C2677 C2673 1.495 . S
C2677 H2683 0.959 . S
C2677 H2684 0.961 . S
C2677 H2685 0.960 . S
C2678 C2676 1.381 . S
C2678 C2679 1.394 . S
C2678 H2686 0.930 . S
C2679 C2678 1.394 . S
C2679 C2680 1.383 . S
C2679 H2687 0.929 . S
C2680 C2679 1.383 . S
C2680 C2681 1.377 . S
C2681 H2665 0.930 . S
C2681 C2680 1.377 . S
C2681 C2682 1.379 . S
C2682 H2666 0.931 . S
C2682 C2676 1.383 . S
C2682 C2681 1.379 . S
H2683 C2677 0.959 . S
H2684 C2677 0.961 . S
H2685 C2677 0.960 . S
H2686 C2678 0.930 . S
H2687 C2679 0.929 . S
H2688 C2696 0.929 . S
H2689 C2698 0.930 . S
H2690 C2700 0.930 . S
H2691 C2703 0.929 . S
H2692 C2706 0.930 . S
H2693 C2708 0.960 . S
H2694 C2708 0.960 1_565 S
H2695 C2708 0.960 1_565 S
C2696 H2688 0.929 . S
C2696 C2697 1.377 . S
C2696 C2698 1.384 . S
C2697 C2696 1.377 . S
C2697 C2703 1.390 . S
C2698 H2689 0.930 . S
C2698 C2696 1.384 . S
C2698 C2699 1.372 . S
C2699 C2698 1.372 . S
C2699 C2700 1.400 . S
C2699 C2704 1.490 . S
C2700 H2690 0.930 . S
C2700 C2699 1.400 . S
C2700 C2703 1.386 . S
H2701 C2717 0.930 . S
H2702 C2718 0.931 . S
C2703 H2691 0.929 . S
C2703 C2697 1.390 . S
C2703 C2700 1.386 . S
C2704 C2699 1.490 . S
C2704 C2706 1.395 . S
C2704 C2707 1.413 . S
H2705 C2711 0.930 . S
C2706 H2692 0.930 . S
C2706 C2704 1.395 . S
C2706 C2709 1.433 . S
C2707 C2704 1.413 . S
C2707 C2708 1.523 1_565 S
C2707 C2711 1.390 1_565 S
C2708 H2693 0.960 . S
C2708 H2694 0.960 1_545 S
C2708 H2695 0.960 1_545 S
C2708 C2707 1.523 1_545 S
C2709 C2706 1.433 . S
C2709 C2710 1.363 1_565 S
C2709 C2713 1.497 . S
C2710 C2709 1.363 1_545 S
C2710 C2711 1.385 . S
C2710 C2712 1.478 . S
C2711 H2705 0.930 . S
C2711 C2707 1.390 1_545 S
C2711 C2710 1.385 . S
C2712 C2710 1.478 . S
C2712 C2714 1.381 . S
C2712 C2718 1.383 . S
C2713 C2709 1.497 . S
C2713 H2719 0.959 . S
C2713 H2720 0.961 . S
C2713 H2721 0.960 1_565 S
C2714 C2712 1.381 . S
C2714 C2715 1.394 . S
C2714 H2722 0.930 . S
C2715 C2714 1.394 . S
C2715 C2716 1.383 . S
C2715 H2723 0.929 . S
C2716 C2715 1.383 . S
C2716 C2717 1.377 . S
C2717 H2701 0.930 . S
C2717 C2716 1.377 . S
C2717 C2718 1.379 . S
C2718 H2702 0.931 . S
C2718 C2712 1.383 . S
C2718 C2717 1.379 . S
H2719 C2713 0.959 . S
H2720 C2713 0.961 . S
H2721 C2713 0.960 1_545 S
H2722 C2714 0.930 . S
H2723 C2715 0.929 . S
H2724 C2732 0.929 . S
H2725 C2734 0.930 . S
H2726 C2736 0.930 . S
H2727 C2739 0.929 . S
H2728 C2742 0.932 . S
H2729 C2744 0.960 . S
H2730 C2744 0.960 . S
H2731 C2744 0.960 . S
C2732 H2724 0.929 . S
C2732 C2733 1.377 . S
C2732 C2734 1.384 . S
C2733 C2732 1.377 . S
C2733 C2739 1.390 . S
C2734 H2725 0.930 . S
C2734 C2732 1.384 . S
C2734 C2735 1.372 . S
C2735 C2734 1.372 . S
C2735 C2736 1.400 . S
C2735 C2740 1.490 . S
C2736 H2726 0.930 . S
C2736 C2735 1.400 . S
C2736 C2739 1.386 . S
H2737 C2753 0.930 . S
H2738 C2754 0.931 . S
C2739 H2727 0.929 . S
C2739 C2733 1.390 . S
C2739 C2736 1.386 . S
C2740 C2735 1.490 . S
C2740 C2742 1.395 1_455 S
C2740 C2743 1.403 . S
H2741 C2747 0.930 . S
C2742 H2728 0.932 . S
C2742 C2740 1.395 1_655 S
C2742 C2745 1.403 . S
C2743 C2740 1.403 . S
C2743 C2744 1.524 . S
C2743 C2747 1.400 1_455 S
C2744 H2729 0.960 . S
C2744 H2730 0.960 . S
C2744 H2731 0.960 . S
C2744 C2743 1.524 . S
C2745 C2742 1.403 . S
C2745 C2746 1.392 . S
C2745 C2749 1.495 . S
C2746 C2745 1.392 . S
C2746 C2747 1.385 . S
C2746 C2748 1.478 . S
C2747 H2741 0.930 . S
C2747 C2743 1.400 1_655 S
C2747 C2746 1.385 . S
C2748 C2746 1.478 . S
C2748 C2750 1.381 . S
C2748 C2754 1.383 . S
C2749 C2745 1.495 . S
C2749 H2755 0.959 . S
C2749 H2756 0.961 . S
C2749 H2757 0.960 . S
C2750 C2748 1.381 . S
C2750 C2751 1.394 . S
C2750 H2758 0.930 . S
C2751 C2750 1.394 . S
C2751 C2752 1.383 . S
C2751 H2759 0.929 . S
C2752 C2751 1.383 . S
C2752 C2753 1.377 . S
C2753 H2737 0.930 . S
C2753 C2752 1.377 . S
C2753 C2754 1.379 . S
C2754 H2738 0.931 . S
C2754 C2748 1.383 . S
C2754 C2753 1.379 . S
H2755 C2749 0.959 . S
H2756 C2749 0.961 . S
H2757 C2749 0.960 . S
H2758 C2750 0.930 . S
H2759 C2751 0.929 . S
H2760 C2768 0.929 . S
H2761 C2770 0.930 . S
H2762 C2772 0.930 . S
H2763 C2775 0.929 . S
H2764 C2778 0.930 . S
H2765 C2780 0.960 . S
H2766 C2780 0.960 . S
H2767 C2780 0.960 . S
C2768 H2760 0.929 . S
C2768 C2769 1.377 . S
C2768 C2770 1.384 . S
C2769 C2768 1.377 . S
C2769 C2775 1.390 . S
C2770 H2761 0.930 . S
C2770 C2768 1.384 . S
C2770 C2771 1.372 . S
C2771 C2770 1.372 . S
C2771 C2772 1.400 . S
C2771 C2776 1.490 . S
C2772 H2762 0.930 . S
C2772 C2771 1.400 . S
C2772 C2775 1.386 . S
H2773 C2789 0.930 . S
H2774 C2790 0.931 . S
C2775 H2763 0.929 . S
C2775 C2769 1.390 . S
C2775 C2772 1.386 . S
C2776 C2771 1.490 . S
C2776 C2778 1.395 1_545 S
C2776 C2779 1.403 . S
H2777 C2783 0.930 . S
C2778 H2764 0.930 . S
C2778 C2776 1.395 1_565 S
C2778 C2781 1.403 . S
C2779 C2776 1.403 . S
C2779 C2780 1.524 . S
C2779 C2783 1.400 1_545 S
C2780 H2765 0.960 . S
C2780 H2766 0.960 . S
C2780 H2767 0.960 . S
C2780 C2779 1.524 . S
C2781 C2778 1.403 . S
C2781 C2782 1.392 . S
C2781 C2785 1.495 . S
C2782 C2781 1.392 . S
C2782 C2783 1.385 . S
C2782 C2784 1.478 . S
C2783 H2777 0.930 . S
C2783 C2779 1.400 1_565 S
C2783 C2782 1.385 . S
C2784 C2782 1.478 . S
C2784 C2786 1.381 . S
C2784 C2790 1.383 . S
C2785 C2781 1.495 . S
C2785 H2791 0.959 . S
C2785 H2792 0.961 . S
C2785 H2793 0.960 . S
C2786 C2784 1.381 . S
C2786 C2787 1.394 . S
C2786 H2794 0.930 . S
C2787 C2786 1.394 . S
C2787 C2788 1.383 . S
C2787 H2795 0.929 . S
C2788 C2787 1.383 . S
C2788 C2789 1.377 . S
C2789 H2773 0.930 . S
C2789 C2788 1.377 . S
C2789 C2790 1.379 . S
C2790 H2774 0.931 . S
C2790 C2784 1.383 . S
C2790 C2789 1.379 . S
H2791 C2785 0.959 . S
H2792 C2785 0.961 . S
H2793 C2785 0.960 . S
H2794 C2786 0.930 . S
H2795 C2787 0.929 . S
H2796 C2804 0.929 . S
H2797 C2806 0.930 . S
H2798 C2808 0.930 . S
H2799 C2811 0.929 . S
H2800 C2814 0.929 1_655 S
H2801 C2816 0.960 . S
H2802 C2816 0.960 . S
H2803 C2816 0.960 . S
C2804 H2796 0.929 . S
C2804 C2805 1.377 . S
C2804 C2806 1.384 . S
C2805 C2804 1.377 . S
C2805 C2811 1.390 . S
C2806 H2797 0.930 . S
C2806 C2804 1.384 . S
C2806 C2807 1.372 . S
C2807 C2806 1.372 . S
C2807 C2808 1.400 . S
C2807 C2812 1.490 . S
C2808 H2798 0.930 . S
C2808 C2807 1.400 . S
C2808 C2811 1.386 . S
H2809 C2825 0.930 . S
H2810 C2826 0.931 . S
C2811 H2799 0.929 . S
C2811 C2805 1.390 . S
C2811 C2808 1.386 . S
C2812 C2807 1.490 . S
C2812 C2814 1.370 1_655 S
C2812 C2815 1.403 . S
H2813 C2819 0.930 . S
C2814 H2800 0.929 1_455 S
C2814 C2812 1.370 1_455 S
C2814 C2817 1.429 . S
C2815 C2812 1.403 . S
C2815 C2816 1.524 . S
C2815 C2819 1.400 1_655 S
C2816 H2801 0.960 . S
C2816 H2802 0.960 . S
C2816 H2803 0.960 . S
C2816 C2815 1.524 . S
C2817 C2814 1.429 . S
C2817 C2818 1.392 . S
C2817 C2821 1.495 . S
C2818 C2817 1.392 . S
C2818 C2819 1.385 . S
C2818 C2820 1.478 . S
C2819 H2813 0.930 . S
C2819 C2815 1.400 1_455 S
C2819 C2818 1.385 . S
C2820 C2818 1.478 . S
C2820 C2822 1.381 . S
C2820 C2826 1.383 . S
C2821 C2817 1.495 . S
C2821 H2827 0.959 . S
C2821 H2828 0.961 . S
C2821 H2829 0.960 . S
C2822 C2820 1.381 . S
C2822 C2823 1.394 . S
C2822 H2830 0.930 . S
C2823 C2822 1.394 . S
C2823 C2824 1.383 . S
C2823 H2831 0.929 . S
C2824 C2823 1.383 . S
C2824 C2825 1.377 . S
C2825 H2809 0.930 . S
C2825 C2824 1.377 . S
C2825 C2826 1.379 . S
C2826 H2810 0.931 . S
C2826 C2820 1.383 . S
C2826 C2825 1.379 . S
H2827 C2821 0.959 . S
H2828 C2821 0.961 . S
H2829 C2821 0.960 . S
H2830 C2822 0.930 . S
H2831 C2823 0.929 . S
H2832 C2840 0.929 . S
H2833 C2842 0.930 . S
H2834 C2844 0.930 . S
H2835 C2847 0.929 . S
H2836 C2850 0.930 . S
H2837 C2852 0.960 . S
H2838 C2852 0.960 . S
H2839 C2852 0.960 1_556 S
C2840 H2832 0.929 . S
C2840 C2841 1.377 . S
C2840 C2842 1.384 . S
C2841 C2840 1.377 . S
C2841 C2847 1.390 . S
C2842 H2833 0.930 . S
C2842 C2840 1.384 . S
C2842 C2843 1.372 . S
C2843 C2842 1.372 . S
C2843 C2844 1.400 . S
C2843 C2848 1.490 . S
C2844 H2834 0.930 . S
C2844 C2843 1.400 . S
C2844 C2847 1.386 . S
H2845 C2861 0.930 . S
H2846 C2862 0.931 . S
C2847 H2835 0.929 . S
C2847 C2841 1.390 . S
C2847 C2844 1.386 . S
C2848 C2843 1.490 . S
C2848 C2850 1.395 . S
C2848 C2851 1.403 1_556 S
H2849 C2855 0.930 . S
C2850 H2836 0.930 . S
C2850 C2848 1.395 . S
C2850 C2853 1.403 . S
C2851 C2848 1.403 1_554 S
C2851 C2852 1.524 . S
C2851 C2855 1.400 . S
C2852 H2837 0.960 . S
C2852 H2838 0.960 . S
C2852 H2839 0.960 1_554 S
C2852 C2851 1.524 . S
C2853 C2850 1.403 . S
C2853 C2854 1.392 1_556 S
C2853 C2857 1.495 . S
C2854 C2853 1.392 1_554 S
C2854 C2855 1.385 . S
C2854 C2856 1.478 . S
C2855 H2849 0.930 . S
C2855 C2851 1.400 . S
C2855 C2854 1.385 . S
C2856 C2854 1.478 . S
C2856 C2858 1.381 . S
C2856 C2862 1.383 . S
C2857 C2853 1.495 . S
C2857 H2863 0.959 . S
C2857 H2864 0.961 . S
C2857 H2865 0.960 1_556 S
C2858 C2856 1.381 . S
C2858 C2859 1.394 . S
C2858 H2866 0.930 . S
C2859 C2858 1.394 . S
C2859 C2860 1.383 . S
C2859 H2867 0.929 . S
C2860 C2859 1.383 . S
C2860 C2861 1.377 . S
C2861 H2845 0.930 . S
C2861 C2860 1.377 . S
C2861 C2862 1.379 . S
C2862 H2846 0.931 . S
C2862 C2856 1.383 . S
C2862 C2861 1.379 . S
H2863 C2857 0.959 . S
H2864 C2857 0.961 . S
H2865 C2857 0.960 1_554 S
H2866 C2858 0.930 . S
H2867 C2859 0.929 . S
H2868 C2876 0.929 . S
H2869 C2878 0.930 . S
H2870 C2880 0.930 . S
H2871 C2883 0.929 . S
H2872 C2886 0.930 . S
H2873 C2888 0.960 . S
H2874 C2888 0.960 . S
H2875 C2888 0.960 1_554 S
C2876 H2868 0.929 . S
C2876 C2877 1.377 . S
C2876 C2878 1.384 . S
C2877 C2876 1.377 . S
C2877 C2883 1.390 . S
C2878 H2869 0.930 . S
C2878 C2876 1.384 . S
C2878 C2879 1.372 . S
C2879 C2878 1.372 . S
C2879 C2880 1.400 . S
C2879 C2884 1.490 . S
C2880 H2870 0.930 . S
C2880 C2879 1.400 . S
C2880 C2883 1.386 . S
H2881 C2897 0.930 . S
H2882 C2898 0.931 . S
C2883 H2871 0.929 . S
C2883 C2877 1.390 . S
C2883 C2880 1.386 . S
C2884 C2879 1.490 . S
C2884 C2886 1.395 . S
C2884 C2887 1.403 1_554 S
H2885 C2891 0.930 . S
C2886 H2872 0.930 . S
C2886 C2884 1.395 . S
C2886 C2889 1.403 . S
C2887 C2884 1.403 1_556 S
C2887 C2888 1.524 . S
C2887 C2891 1.400 . S
C2888 H2873 0.960 . S
C2888 H2874 0.960 . S
C2888 H2875 0.960 1_556 S
C2888 C2887 1.524 . S
C2889 C2886 1.403 . S
C2889 C2890 1.392 1_554 S
C2889 C2893 1.495 . S
C2890 C2889 1.392 1_556 S
C2890 C2891 1.385 . S
C2890 C2892 1.478 . S
C2891 H2885 0.930 . S
C2891 C2887 1.400 . S
C2891 C2890 1.385 . S
C2892 C2890 1.478 . S
C2892 C2894 1.381 . S
C2892 C2898 1.383 . S
C2893 C2889 1.495 . S
C2893 H2899 0.959 . S
C2893 H2900 0.961 . S
C2893 H2901 0.960 1_554 S
C2894 C2892 1.381 . S
C2894 C2895 1.394 . S
C2894 H2902 0.930 . S
C2895 C2894 1.394 . S
C2895 C2896 1.383 . S
C2895 H2903 0.929 . S
C2896 C2895 1.383 . S
C2896 C2897 1.377 . S
C2897 H2881 0.930 . S
C2897 C2896 1.377 . S
C2897 C2898 1.379 . S
C2898 H2882 0.931 . S
C2898 C2892 1.383 . S
C2898 C2897 1.379 . S
H2899 C2893 0.959 . S
H2900 C2893 0.961 . S
H2901 C2893 0.960 1_556 S
H2902 C2894 0.930 . S
H2903 C2895 0.929 . S
H2904 C2912 0.929 . S
H2905 C2914 0.930 . S
H2906 C2916 0.930 . S
H2907 C2919 0.929 . S
H2908 C2922 0.930 . S
H2909 C2924 0.960 . S
H2910 C2924 0.977 . S
H2911 C2924 0.960 1_556 S
C2912 H2904 0.929 . S
C2912 C2913 1.377 . S
C2912 C2914 1.384 . S
C2913 C2912 1.377 . S
C2913 C2919 1.390 . S
C2914 H2905 0.930 . S
C2914 C2912 1.384 . S
C2914 C2915 1.372 . S
C2915 C2914 1.372 . S
C2915 C2916 1.400 . S
C2915 C2920 1.490 . S
C2916 H2906 0.930 . S
C2916 C2915 1.400 . S
C2916 C2919 1.386 . S
H2917 C2933 0.930 . S
H2918 C2934 0.931 . S
C2919 H2907 0.929 . S
C2919 C2913 1.390 . S
C2919 C2916 1.386 . S
C2920 C2915 1.490 . S
C2920 C2922 1.395 . S
C2920 C2923 1.403 1_556 S
H2921 C2927 0.930 . S
C2922 H2908 0.930 . S
C2922 C2920 1.395 . S
C2922 C2925 1.403 . S
C2923 C2920 1.403 1_554 S
C2923 C2924 1.524 . S
C2923 C2927 1.400 . S
C2924 H2909 0.960 . S
C2924 H2910 0.977 . S
C2924 H2911 0.960 1_554 S
C2924 C2923 1.524 . S
C2925 C2922 1.403 . S
C2925 C2926 1.392 1_556 S
C2925 C2929 1.495 . S
C2926 C2925 1.392 1_554 S
C2926 C2927 1.385 . S
C2926 C2928 1.478 . S
C2927 H2921 0.930 . S
C2927 C2923 1.400 . S
C2927 C2926 1.385 . S
C2928 C2926 1.478 . S
C2928 C2930 1.381 . S
C2928 C2934 1.383 . S
C2929 C2925 1.495 . S
C2929 H2935 0.959 . S
C2929 H2936 0.961 . S
C2929 H2937 0.956 1_556 S
C2930 C2928 1.381 . S
C2930 C2931 1.394 . S
C2930 H2938 0.930 . S
C2931 C2930 1.394 . S
C2931 C2932 1.383 . S
C2931 H2939 0.929 . S
C2932 C2931 1.383 . S
C2932 C2933 1.377 . S
C2933 H2917 0.930 . S
C2933 C2932 1.377 . S
C2933 C2934 1.379 . S
C2934 H2918 0.931 . S
C2934 C2928 1.383 . S
C2934 C2933 1.379 . S
H2935 C2929 0.959 . S
H2936 C2929 0.961 . S
H2937 C2929 0.956 1_554 S
H2938 C2930 0.930 . S
H2939 C2931 0.929 . S
H2940 C2948 0.929 . S
H2941 C2950 0.930 . S
H2942 C2952 0.930 . S
H2943 C2955 0.929 . S
H2944 C2958 0.931 . S
H2945 C2960 0.960 . S
H2946 C2960 0.960 . S
H2947 C2960 0.960 . S
C2948 H2940 0.929 . S
C2948 C2949 1.377 . S
C2948 C2950 1.384 . S
C2949 C2948 1.377 . S
C2949 C2955 1.390 . S
C2950 H2941 0.930 . S
C2950 C2948 1.384 . S
C2950 C2951 1.372 . S
C2951 C2950 1.372 . S
C2951 C2952 1.400 . S
C2951 C2956 1.490 . S
C2952 H2942 0.930 . S
C2952 C2951 1.400 . S
C2952 C2955 1.386 . S
H2953 C2969 0.930 . S
H2954 C2970 0.931 . S
C2955 H2943 0.929 . S
C2955 C2949 1.390 . S
C2955 C2952 1.386 . S
C2956 C2951 1.490 . S
C2956 C2958 1.400 . S
C2956 C2959 1.403 . S
H2957 C2963 0.930 . S
C2958 H2944 0.931 . S
C2958 C2956 1.400 . S
C2958 C2961 1.397 1_554 S
C2959 C2956 1.403 . S
C2959 C2960 1.524 . S
C2959 C2963 1.400 1_554 S
C2960 H2945 0.960 . S
C2960 H2946 0.960 . S
C2960 H2947 0.960 . S
C2960 C2959 1.524 . S
C2961 C2958 1.397 1_556 S
C2961 C2962 1.392 . S
C2961 C2965 1.495 . S
C2962 C2961 1.392 . S
C2962 C2963 1.385 . S
C2962 C2964 1.478 . S
C2963 H2957 0.930 . S
C2963 C2959 1.400 1_556 S
C2963 C2962 1.385 . S
C2964 C2962 1.478 . S
C2964 C2966 1.381 . S
C2964 C2970 1.383 . S
C2965 C2961 1.495 . S
C2965 H2971 0.959 . S
C2965 H2972 0.961 . S
C2965 H2973 0.960 . S
C2966 C2964 1.381 . S
C2966 C2967 1.394 . S
C2966 H2974 0.930 . S
C2967 C2966 1.394 . S
C2967 C2968 1.383 . S
C2967 H2975 0.929 . S
C2968 C2967 1.383 . S
C2968 C2969 1.377 . S
C2969 H2953 0.930 . S
C2969 C2968 1.377 . S
C2969 C2970 1.379 . S
C2970 H2954 0.931 . S
C2970 C2964 1.383 . S
C2970 C2969 1.379 . S
H2971 C2965 0.959 . S
H2972 C2965 0.961 . S
H2973 C2965 0.960 . S
H2974 C2966 0.930 . S
H2975 C2967 0.929 . S
C825 C326 1.400 . S
C844 C20 1.406 . S
C861 C360 1.403 . S
C880 C54 1.370 . S
C897 C394 1.405 . S
C916 C88 1.382 . S
C933 C122 1.393 . S
C952 C292 1.429 . S
C969 C530 1.404 . S
C988 C156 1.384 . S
C1005 C190 1.393 . S
C1024 C428 1.429 . S
C1041 C224 1.394 . S
C1060 C462 1.411 . S
C1077 C258 1.397 . S
C1096 C496 1.395 . S
C1113 C564 1.398 . S
C1132 C632 1.415 . S
C1149 C768 1.398 . S
C1168 C598 1.392 . S
C1185 C666 1.393 . S
C1204 C802 1.425 . S
C1221 C734 1.403 . S
C1240 C700 1.370 . S
C1257 C781 1.038 . S
C1276 C33 1.072 . S
C1293 C577 1.016 . S
C1312 C67 1.027 . S
C1329 C815 1.033 . S
C1348 C101 1.086 . S
C1365 C135 1.027 . S
C1384 C747 0.994 . S
C1401 C645 1.020 . S
C1420 C169 1.047 . S
C1437 C679 1.018 . S
C1456 C203 1.034 . S
C1473 C713 1.012 . S
C1492 C237 0.997 . S
C1509 C611 1.018 . S
C1528 C271 1.038 . S
C1545 C305 1.013 . S
C1564 C475 1.008 . S
C1581 C509 1.012 . S
C1600 C339 0.996 . S
C1617 C543 1.028 . S
C1636 C373 0.999 . S
C1653 C441 1.034 . S
C1672 C407 1.034 . S
C1689 C444 1.722 . S
C1708 C9 1.690 . S
C1725 C43 1.710 . S
C1744 C478 1.731 . S
C1761 C512 1.724 . S
C1780 C77 1.695 . S
C1797 C410 1.720 . S
C1816 C111 1.704 . S
C1833 C376 1.720 . S
C1852 C145 1.697 . S
C1869 C179 1.710 . S
C1888 C274 1.708 . S
C1905 C308 1.725 . S
C1924 C213 1.720 . S
C1941 C342 1.721 . S
C1960 C247 1.696 . S
C1977 C281 1.707 . S
C1996 C36 1.710 . S
C2013 C70 1.725 . S
C2032 C315 1.715 . S
C2049 C349 1.708 . S
C2068 C104 1.727 . S
C2085 C2 1.722 . S
C2104 C383 1.719 . S
C2121 C417 1.712 . S
C2140 C240 1.729 . S
C2157 C138 1.722 . S
C2176 C451 1.721 . S
C2193 C172 1.721 . S
C2212 C485 1.692 . S
C2229 C519 1.706 . S
C2248 C206 1.721 . S
C2265 C553 1.707 . S
C2284 C750 1.710 . S
C2301 C587 1.713 . S
C2320 C614 1.724 . S
C2337 C621 1.713 . S
C2356 C648 1.726 . S
C2373 C682 1.721 . S
C2392 C655 1.716 . S
C2409 C580 1.721 . S
C2428 C689 1.691 . S
C2445 C784 1.720 . S
C2464 C723 1.705 . S
C2481 C757 1.711 . S
C2500 C716 1.730 . S
C2517 C546 1.720 . S
C2536 C791 1.705 . S
C2553 C5 0.688 . S
C2572 C73 0.740 . S
C2589 C39 0.689 . S
C2608 C107 0.697 . S
C2625 C141 0.719 . S
C2644 C209 0.679 . S
C2661 C243 0.719 . S
C2680 C175 0.663 . S
C2697 C413 0.695 . S
C2716 C277 0.656 . S
C2733 C447 0.717 . S
C2752 C311 0.724 . S
C2769 C481 0.719 . S
C2788 C345 0.697 . S
C2805 C515 0.716 . S
C2824 C379 0.735 . S
C2841 C651 0.690 . S
C2860 C549 0.689 . S
C2877 C719 0.691 . S
C2896 C583 0.679 . S
C2913 C617 0.689 . S
C2932 C753 0.695 . S
C2949 C787 0.719 . S
C2968 C685 0.659 . S
