# Generated by pormake.
# Topology uli, (4)-cn, num edge types: 1
# Building blocks:
#     Node 0, Type 0, BuildingBlock: KUFVIS_clean_sbu_0, # of connection points: 4
#     Node 1, Type 0, BuildingBlock: KUFVIS_clean_sbu_0, # of connection points: 4
#     Node 2, Type 0, BuildingBlock: KUFVIS_clean_sbu_0, # of connection points: 4
#     Node 3, Type 0, BuildingBlock: KUFVIS_clean_sbu_0, # of connection points: 4
#     Node 4, Type 0, BuildingBlock: KUFVIS_clean_sbu_0, # of connection points: 4
#     Node 5, Type 0, BuildingBlock: KUFVIS_clean_sbu_0, # of connection points: 4
#     Node 6, Type 0, BuildingBlock: KUFVIS_clean_sbu_0, # of connection points: 4
#     Node 7, Type 0, BuildingBlock: KUFVIS_clean_sbu_0, # of connection points: 4
#     Node 8, Type 0, BuildingBlock: KUFVIS_clean_sbu_0, # of connection points: 4
#     Node 9, Type 0, BuildingBlock: KUFVIS_clean_sbu_0, # of connection points: 4
#     Node 10, Type 0, BuildingBlock: KUFVIS_clean_sbu_0, # of connection points: 4
#     Node 11, Type 0, BuildingBlock: KUFVIS_clean_sbu_0, # of connection points: 4
#     Node 12, Type 0, BuildingBlock: KUFVIS_clean_sbu_0, # of connection points: 4
#     Node 13, Type 0, BuildingBlock: KUFVIS_clean_sbu_0, # of connection points: 4
#     Node 14, Type 0, BuildingBlock: KUFVIS_clean_sbu_0, # of connection points: 4
#     Node 15, Type 0, BuildingBlock: KUFVIS_clean_sbu_0, # of connection points: 4
#     Node 16, Type 0, BuildingBlock: KUFVIS_clean_sbu_0, # of connection points: 4
#     Node 17, Type 0, BuildingBlock: KUFVIS_clean_sbu_0, # of connection points: 4
#     Node 18, Type 0, BuildingBlock: KUFVIS_clean_sbu_0, # of connection points: 4
#     Node 19, Type 0, BuildingBlock: KUFVIS_clean_sbu_0, # of connection points: 4
#     Node 20, Type 0, BuildingBlock: KUFVIS_clean_sbu_0, # of connection points: 4
#     Node 21, Type 0, BuildingBlock: KUFVIS_clean_sbu_0, # of connection points: 4
#     Node 22, Type 0, BuildingBlock: KUFVIS_clean_sbu_0, # of connection points: 4
#     Node 23, Type 0, BuildingBlock: KUFVIS_clean_sbu_0, # of connection points: 4
#     Node 24, Type 0, BuildingBlock: KUFVIS_clean_sbu_0, # of connection points: 4
#     Node 25, Type 0, BuildingBlock: KUFVIS_clean_sbu_0, # of connection points: 4
#     Node 26, Type 0, BuildingBlock: KUFVIS_clean_sbu_0, # of connection points: 4
#     Node 27, Type 0, BuildingBlock: KUFVIS_clean_sbu_0, # of connection points: 4
#     Node 28, Type 0, BuildingBlock: KUFVIS_clean_sbu_0, # of connection points: 4
#     Node 29, Type 0, BuildingBlock: KUFVIS_clean_sbu_0, # of connection points: 4
#     Node 30, Type 0, BuildingBlock: KUFVIS_clean_sbu_0, # of connection points: 4
#     Node 31, Type 0, BuildingBlock: KUFVIS_clean_sbu_0, # of connection points: 4
#     Node 32, Type 0, BuildingBlock: KUFVIS_clean_sbu_0, # of connection points: 4
#     Node 33, Type 0, BuildingBlock: KUFVIS_clean_sbu_0, # of connection points: 4
#     Node 34, Type 0, BuildingBlock: KUFVIS_clean_sbu_0, # of connection points: 4
#     Node 35, Type 0, BuildingBlock: KUFVIS_clean_sbu_0, # of connection points: 4
#     Node 36, Type 0, BuildingBlock: KUFVIS_clean_sbu_0, # of connection points: 4
#     Node 37, Type 0, BuildingBlock: KUFVIS_clean_sbu_0, # of connection points: 4
#     Node 38, Type 0, BuildingBlock: KUFVIS_clean_sbu_0, # of connection points: 4
#     Node 39, Type 0, BuildingBlock: KUFVIS_clean_sbu_0, # of connection points: 4
#     Node 40, Type 0, BuildingBlock: KUFVIS_clean_sbu_0, # of connection points: 4
#     Node 41, Type 0, BuildingBlock: KUFVIS_clean_sbu_0, # of connection points: 4
#     Node 42, Type 0, BuildingBlock: KUFVIS_clean_sbu_0, # of connection points: 4
#     Node 43, Type 0, BuildingBlock: KUFVIS_clean_sbu_0, # of connection points: 4
#     Node 44, Type 0, BuildingBlock: KUFVIS_clean_sbu_0, # of connection points: 4
#     Node 45, Type 0, BuildingBlock: KUFVIS_clean_sbu_0, # of connection points: 4
#     Node 46, Type 0, BuildingBlock: KUFVIS_clean_sbu_0, # of connection points: 4
#     Node 47, Type 0, BuildingBlock: KUFVIS_clean_sbu_0, # of connection points: 4
#     Edge 48, Type (0, 0), BuildingBlock: OJICUG_clean_linker_0, # of connection points: 2
#     Edge 49, Type (0, 0), BuildingBlock: OJICUG_clean_linker_0, # of connection points: 2
#     Edge 50, Type (0, 0), BuildingBlock: OJICUG_clean_linker_0, # of connection points: 2
#     Edge 51, Type (0, 0), BuildingBlock: OJICUG_clean_linker_0, # of connection points: 2
#     Edge 52, Type (0, 0), BuildingBlock: OJICUG_clean_linker_0, # of connection points: 2
#     Edge 53, Type (0, 0), BuildingBlock: OJICUG_clean_linker_0, # of connection points: 2
#     Edge 54, Type (0, 0), BuildingBlock: OJICUG_clean_linker_0, # of connection points: 2
#     Edge 55, Type (0, 0), BuildingBlock: OJICUG_clean_linker_0, # of connection points: 2
#     Edge 56, Type (0, 0), BuildingBlock: OJICUG_clean_linker_0, # of connection points: 2
#     Edge 57, Type (0, 0), BuildingBlock: OJICUG_clean_linker_0, # of connection points: 2
#     Edge 58, Type (0, 0), BuildingBlock: OJICUG_clean_linker_0, # of connection points: 2
#     Edge 59, Type (0, 0), BuildingBlock: OJICUG_clean_linker_0, # of connection points: 2
#     Edge 60, Type (0, 0), BuildingBlock: OJICUG_clean_linker_0, # of connection points: 2
#     Edge 61, Type (0, 0), BuildingBlock: OJICUG_clean_linker_0, # of connection points: 2
#     Edge 62, Type (0, 0), BuildingBlock: OJICUG_clean_linker_0, # of connection points: 2
#     Edge 63, Type (0, 0), BuildingBlock: OJICUG_clean_linker_0, # of connection points: 2
#     Edge 64, Type (0, 0), BuildingBlock: OJICUG_clean_linker_0, # of connection points: 2
#     Edge 65, Type (0, 0), BuildingBlock: OJICUG_clean_linker_0, # of connection points: 2
#     Edge 66, Type (0, 0), BuildingBlock: OJICUG_clean_linker_0, # of connection points: 2
#     Edge 67, Type (0, 0), BuildingBlock: OJICUG_clean_linker_0, # of connection points: 2
#     Edge 68, Type (0, 0), BuildingBlock: OJICUG_clean_linker_0, # of connection points: 2
#     Edge 69, Type (0, 0), BuildingBlock: OJICUG_clean_linker_0, # of connection points: 2
#     Edge 70, Type (0, 0), BuildingBlock: OJICUG_clean_linker_0, # of connection points: 2
#     Edge 71, Type (0, 0), BuildingBlock: OJICUG_clean_linker_0, # of connection points: 2
#     Edge 72, Type (0, 0), BuildingBlock: OJICUG_clean_linker_0, # of connection points: 2
#     Edge 73, Type (0, 0), BuildingBlock: OJICUG_clean_linker_0, # of connection points: 2
#     Edge 74, Type (0, 0), BuildingBlock: OJICUG_clean_linker_0, # of connection points: 2
#     Edge 75, Type (0, 0), BuildingBlock: OJICUG_clean_linker_0, # of connection points: 2
#     Edge 76, Type (0, 0), BuildingBlock: OJICUG_clean_linker_0, # of connection points: 2
#     Edge 77, Type (0, 0), BuildingBlock: OJICUG_clean_linker_0, # of connection points: 2
#     Edge 78, Type (0, 0), BuildingBlock: OJICUG_clean_linker_0, # of connection points: 2
#     Edge 79, Type (0, 0), BuildingBlock: OJICUG_clean_linker_0, # of connection points: 2
#     Edge 80, Type (0, 0), BuildingBlock: OJICUG_clean_linker_0, # of connection points: 2
#     Edge 81, Type (0, 0), BuildingBlock: OJICUG_clean_linker_0, # of connection points: 2
#     Edge 82, Type (0, 0), BuildingBlock: OJICUG_clean_linker_0, # of connection points: 2
#     Edge 83, Type (0, 0), BuildingBlock: OJICUG_clean_linker_0, # of connection points: 2
#     Edge 84, Type (0, 0), BuildingBlock: OJICUG_clean_linker_0, # of connection points: 2
#     Edge 85, Type (0, 0), BuildingBlock: OJICUG_clean_linker_0, # of connection points: 2
#     Edge 86, Type (0, 0), BuildingBlock: OJICUG_clean_linker_0, # of connection points: 2
#     Edge 87, Type (0, 0), BuildingBlock: OJICUG_clean_linker_0, # of connection points: 2
#     Edge 88, Type (0, 0), BuildingBlock: OJICUG_clean_linker_0, # of connection points: 2
#     Edge 89, Type (0, 0), BuildingBlock: OJICUG_clean_linker_0, # of connection points: 2
#     Edge 90, Type (0, 0), BuildingBlock: OJICUG_clean_linker_0, # of connection points: 2
#     Edge 91, Type (0, 0), BuildingBlock: OJICUG_clean_linker_0, # of connection points: 2
#     Edge 92, Type (0, 0), BuildingBlock: OJICUG_clean_linker_0, # of connection points: 2
#     Edge 93, Type (0, 0), BuildingBlock: OJICUG_clean_linker_0, # of connection points: 2
#     Edge 94, Type (0, 0), BuildingBlock: OJICUG_clean_linker_0, # of connection points: 2
#     Edge 95, Type (0, 0), BuildingBlock: OJICUG_clean_linker_0, # of connection points: 2
#     Edge 96, Type (0, 0), BuildingBlock: OJICUG_clean_linker_0, # of connection points: 2
#     Edge 97, Type (0, 0), BuildingBlock: OJICUG_clean_linker_0, # of connection points: 2
#     Edge 98, Type (0, 0), BuildingBlock: OJICUG_clean_linker_0, # of connection points: 2
#     Edge 99, Type (0, 0), BuildingBlock: OJICUG_clean_linker_0, # of connection points: 2
#     Edge 100, Type (0, 0), BuildingBlock: OJICUG_clean_linker_0, # of connection points: 2
#     Edge 101, Type (0, 0), BuildingBlock: OJICUG_clean_linker_0, # of connection points: 2
#     Edge 102, Type (0, 0), BuildingBlock: OJICUG_clean_linker_0, # of connection points: 2
#     Edge 103, Type (0, 0), BuildingBlock: OJICUG_clean_linker_0, # of connection points: 2
#     Edge 104, Type (0, 0), BuildingBlock: OJICUG_clean_linker_0, # of connection points: 2
#     Edge 105, Type (0, 0), BuildingBlock: OJICUG_clean_linker_0, # of connection points: 2
#     Edge 106, Type (0, 0), BuildingBlock: OJICUG_clean_linker_0, # of connection points: 2
#     Edge 107, Type (0, 0), BuildingBlock: OJICUG_clean_linker_0, # of connection points: 2
#     Edge 108, Type (0, 0), BuildingBlock: OJICUG_clean_linker_0, # of connection points: 2
#     Edge 109, Type (0, 0), BuildingBlock: OJICUG_clean_linker_0, # of connection points: 2
#     Edge 110, Type (0, 0), BuildingBlock: OJICUG_clean_linker_0, # of connection points: 2
#     Edge 111, Type (0, 0), BuildingBlock: OJICUG_clean_linker_0, # of connection points: 2
#     Edge 112, Type (0, 0), BuildingBlock: OJICUG_clean_linker_0, # of connection points: 2
#     Edge 113, Type (0, 0), BuildingBlock: OJICUG_clean_linker_0, # of connection points: 2
#     Edge 114, Type (0, 0), BuildingBlock: OJICUG_clean_linker_0, # of connection points: 2
#     Edge 115, Type (0, 0), BuildingBlock: OJICUG_clean_linker_0, # of connection points: 2
#     Edge 116, Type (0, 0), BuildingBlock: OJICUG_clean_linker_0, # of connection points: 2
#     Edge 117, Type (0, 0), BuildingBlock: OJICUG_clean_linker_0, # of connection points: 2
#     Edge 118, Type (0, 0), BuildingBlock: OJICUG_clean_linker_0, # of connection points: 2
#     Edge 119, Type (0, 0), BuildingBlock: OJICUG_clean_linker_0, # of connection points: 2
#     Edge 120, Type (0, 0), BuildingBlock: OJICUG_clean_linker_0, # of connection points: 2
#     Edge 121, Type (0, 0), BuildingBlock: OJICUG_clean_linker_0, # of connection points: 2
#     Edge 122, Type (0, 0), BuildingBlock: OJICUG_clean_linker_0, # of connection points: 2
#     Edge 123, Type (0, 0), BuildingBlock: OJICUG_clean_linker_0, # of connection points: 2
#     Edge 124, Type (0, 0), BuildingBlock: OJICUG_clean_linker_0, # of connection points: 2
#     Edge 125, Type (0, 0), BuildingBlock: OJICUG_clean_linker_0, # of connection points: 2
#     Edge 126, Type (0, 0), BuildingBlock: OJICUG_clean_linker_0, # of connection points: 2
#     Edge 127, Type (0, 0), BuildingBlock: OJICUG_clean_linker_0, # of connection points: 2
#     Edge 128, Type (0, 0), BuildingBlock: OJICUG_clean_linker_0, # of connection points: 2
#     Edge 129, Type (0, 0), BuildingBlock: OJICUG_clean_linker_0, # of connection points: 2
#     Edge 130, Type (0, 0), BuildingBlock: OJICUG_clean_linker_0, # of connection points: 2
#     Edge 131, Type (0, 0), BuildingBlock: OJICUG_clean_linker_0, # of connection points: 2
#     Edge 132, Type (0, 0), BuildingBlock: OJICUG_clean_linker_0, # of connection points: 2
#     Edge 133, Type (0, 0), BuildingBlock: OJICUG_clean_linker_0, # of connection points: 2
#     Edge 134, Type (0, 0), BuildingBlock: OJICUG_clean_linker_0, # of connection points: 2
#     Edge 135, Type (0, 0), BuildingBlock: OJICUG_clean_linker_0, # of connection points: 2
#     Edge 136, Type (0, 0), BuildingBlock: OJICUG_clean_linker_0, # of connection points: 2
#     Edge 137, Type (0, 0), BuildingBlock: OJICUG_clean_linker_0, # of connection points: 2
#     Edge 138, Type (0, 0), BuildingBlock: OJICUG_clean_linker_0, # of connection points: 2
#     Edge 139, Type (0, 0), BuildingBlock: OJICUG_clean_linker_0, # of connection points: 2
#     Edge 140, Type (0, 0), BuildingBlock: OJICUG_clean_linker_0, # of connection points: 2
#     Edge 141, Type (0, 0), BuildingBlock: OJICUG_clean_linker_0, # of connection points: 2
#     Edge 142, Type (0, 0), BuildingBlock: OJICUG_clean_linker_0, # of connection points: 2
#     Edge 143, Type (0, 0), BuildingBlock: OJICUG_clean_linker_0, # of connection points: 2
# Relax obj value: 0.429
# Max RMSD: 0.168
# Mean RMSD: 0.168
data_MOF--net-uli--node1-KUFVIS_clean_sbu_0--edge1-OJICUG_clean_linker_0
_symmetry_space_group_name_H-M    P1
_symmetry_Int_Tables_number       1
_symmetry_cell_setting            triclinic
loop_
_symmetry_equiv_pos_as_xyz
'x, y, z'
_cell_length_a     49.335176
_cell_length_b     49.540338
_cell_length_c     49.378754
_cell_angle_alpha  89.991051
_cell_angle_beta   90.00125
_cell_angle_gamma 89.989771
loop_
_atom_site_label
_atom_site_type_symbol
_atom_site_fract_x
_atom_site_fract_y
_atom_site_fract_z
_atom_type_partial_charge
Mn0 Mn 0.09989 0.24944 0.17533 0.0
Mn1 Mn 0.14395 0.25793 0.22567 0.0
C2 C 0.11795 0.21121 0.19733 0.0
C3 C 0.05409 0.24541 0.16599 0.0
C4 C 0.16122 0.25729 0.166 0.0
O5 O 0.09741 0.29099 0.18141 0.0
O6 O 0.12765 0.29172 0.21459 0.0
C7 C 0.09323 0.26431 0.25642 0.0
N8 N 0.1187 0.25368 0.25483 0.0
C9 C 0.10731 0.21928 0.28744 0.0
C10 C 0.08121 0.23016 0.28973 0.0
C11 C 0.07415 0.25281 0.27414 0.0
C12 C 0.12511 0.23125 0.26897 0.0
H13 H 0.08716 0.28085 0.24361 0.0
C14 C 0.11125 0.30366 0.19912 0.0
O15 O 0.07093 0.25132 0.14656 0.0
O16 O 0.06358 0.24365 0.19017 0.0
N17 N 0.16374 0.22959 0.24233 0.0
C18 C 0.1912 0.22727 0.24163 0.0
C19 C 0.20449 0.21182 0.2614 0.0
C20 C 0.18933 0.19786 0.28107 0.0
C21 C 0.16123 0.20168 0.28209 0.0
C22 C 0.14995 0.22011 0.26394 0.0
H23 H 0.20286 0.2379 0.22654 0.0
O24 O 0.10518 0.20871 0.17468 0.0
O25 O 0.11873 0.23567 0.20638 0.0
O26 O 0.13702 0.25521 0.15622 0.0
O27 O 0.16673 0.258 0.19178 0.0
C28 C 0.14395 0.18889 0.3008 0.0
C29 C 0.11652 0.19696 0.30264 0.0
H30 H 0.06655 0.22146 0.30352 0.0
H31 H 0.05395 0.26122 0.27554 0.0
H32 H 0.22628 0.21048 0.26113 0.0
H33 H 0.19947 0.18488 0.29554 0.0
H34 H 0.15161 0.17334 0.31412 0.0
H35 H 0.1032 0.18699 0.31692 0.0
Mn36 Mn 0.72277 0.09778 0.19767 0.0
Mn37 Mn 0.72988 0.14809 0.24123 0.0
C38 C 0.76673 0.11523 0.20613 0.0
C39 C 0.72367 0.05145 0.19437 0.0
C40 C 0.71499 0.15711 0.18154 0.0
O41 O 0.68396 0.09953 0.21439 0.0
O42 O 0.69348 0.13321 0.24232 0.0
C43 C 0.73099 0.10166 0.27824 0.0
N44 N 0.74143 0.12614 0.27099 0.0
C45 C 0.78395 0.11549 0.2926 0.0
C46 C 0.77345 0.09048 0.30063 0.0
C47 C 0.74682 0.08354 0.2934 0.0
C48 C 0.7674 0.13229 0.27698 0.0
H49 H 0.71109 0.09554 0.27164 0.0
C50 C 0.67704 0.11617 0.23286 0.0
O51 O 0.71292 0.06563 0.17491 0.0
O52 O 0.73077 0.06397 0.21608 0.0
N53 N 0.76247 0.16757 0.2466 0.0
C54 C 0.76536 0.19449 0.242 0.0
C55 C 0.78664 0.20855 0.25455 0.0
C56 C 0.80543 0.19453 0.27079 0.0
C57 C 0.801 0.16716 0.2763 0.0
C58 C 0.77746 0.15553 0.26597 0.0
H59 H 0.75085 0.20519 0.22962 0.0
O60 O 0.76244 0.09949 0.18583 0.0
O61 O 0.74531 0.11939 0.22059 0.0
O62 O 0.71371 0.13188 0.17525 0.0
O63 O 0.72133 0.16611 0.20553 0.0
C64 C 0.8183 0.15094 0.29208 0.0
C65 C 0.81029 0.12445 0.29911 0.0
H66 H 0.78555 0.07656 0.31245 0.0
H67 H 0.7386 0.06414 0.29923 0.0
H68 H 0.78876 0.22997 0.25127 0.0
H69 H 0.82268 0.20505 0.27934 0.0
H70 H 0.8376 0.1586 0.29889 0.0
H71 H 0.82383 0.11183 0.31086 0.0
Mn72 Mn 0.90042 0.73607 0.26471 0.0
Mn73 Mn 0.83691 0.73979 0.28475 0.0
C74 C 0.8782 0.77834 0.26107 0.0
C75 C 0.9443 0.73707 0.28129 0.0
C76 C 0.85273 0.72352 0.22619 0.0
O77 O 0.89427 0.69784 0.28118 0.0
O78 O 0.85006 0.70282 0.28654 0.0
C79 C 0.86538 0.73166 0.33692 0.0
N80 N 0.84739 0.74634 0.32181 0.0
C81 C 0.85135 0.78347 0.3531 0.0
C82 C 0.86948 0.76852 0.36885 0.0
C83 C 0.87649 0.74243 0.36071 0.0
C84 C 0.84115 0.77172 0.32926 0.0
H85 H 0.87165 0.71182 0.33112 0.0
C86 C 0.87094 0.68818 0.28636 0.0
O87 O 0.93912 0.72588 0.25797 0.0
O88 O 0.92416 0.74677 0.29473 0.0
N89 N 0.81748 0.77415 0.28832 0.0
C90 C 0.79447 0.7832 0.27572 0.0
C91 C 0.78028 0.80579 0.28538 0.0
C92 C 0.78969 0.81958 0.30803 0.0
C93 C 0.81212 0.80971 0.32185 0.0
C94 C 0.82393 0.78557 0.31261 0.0
H95 H 0.78593 0.77367 0.25889 0.0
O96 O 0.90155 0.77446 0.24996 0.0
O97 O 0.87012 0.75784 0.27557 0.0
O98 O 0.87841 0.72367 0.23122 0.0
O99 O 0.8343 0.73157 0.24388 0.0
C100 C 0.82247 0.82235 0.34516 0.0
C101 C 0.84269 0.80948 0.36044 0.0
H102 H 0.87789 0.77675 0.38735 0.0
H103 H 0.89054 0.73062 0.37268 0.0
H104 H 0.76257 0.81317 0.27485 0.0
H105 H 0.77954 0.83762 0.31467 0.0
H106 H 0.81436 0.84149 0.352 0.0
H107 H 0.85028 0.81907 0.37864 0.0
Mn108 Mn 0.23822 0.90556 0.18609 0.0
Mn109 Mn 0.25567 0.85537 0.22379 0.0
C110 C 0.20626 0.89097 0.21867 0.0
C111 C 0.24039 0.9511 0.18064 0.0
C112 C 0.2254 0.8467 0.17094 0.0
O113 O 0.27968 0.90164 0.17796 0.0
O114 O 0.27967 0.85961 0.19227 0.0
C115 C 0.29572 0.89728 0.2416 0.0
N116 N 0.28023 0.87517 0.24737 0.0
C117 C 0.29324 0.87868 0.29432 0.0
C118 C 0.31237 0.89836 0.28767 0.0
C119 C 0.31291 0.90842 0.26127 0.0
C120 C 0.27707 0.86796 0.27341 0.0
H121 H 0.29444 0.90745 0.22263 0.0
C122 C 0.29159 0.879 0.1808 0.0
O123 O 0.23524 0.93604 0.15965 0.0
O124 O 0.24493 0.93967 0.20361 0.0
N125 N 0.23855 0.84589 0.25773 0.0
C126 C 0.21629 0.83086 0.26232 0.0
C127 C 0.20997 0.82261 0.289 0.0
C128 C 0.22619 0.82998 0.31073 0.0
C129 C 0.24902 0.84543 0.30589 0.0
C130 C 0.25494 0.85247 0.27896 0.0
H131 H 0.20283 0.82691 0.24571 0.0
O132 O 0.19932 0.90631 0.19873 0.0
O133 O 0.23256 0.88664 0.22007 0.0
O134 O 0.22973 0.87119 0.16341 0.0
O135 O 0.23023 0.83839 0.1959 0.0
C136 C 0.26603 0.85421 0.327 0.0
C137 C 0.28821 0.87091 0.3212 0.0
H138 H 0.32517 0.90734 0.30305 0.0
H139 H 0.32585 0.92534 0.25626 0.0
H140 H 0.1923 0.81123 0.29366 0.0
H141 H 0.22066 0.82396 0.33109 0.0
H142 H 0.26187 0.84867 0.34782 0.0
H143 H 0.30058 0.87853 0.33763 0.0
Mn144 Mn 0.09344 0.69963 0.71708 0.0
Mn145 Mn 0.15748 0.71565 0.70873 0.0
C146 C 0.10588 0.74604 0.71708 0.0
C147 C 0.05155 0.69154 0.69713 0.0
C148 C 0.1338 0.70432 0.76464 0.0
O149 O 0.10996 0.66249 0.70433 0.0
O150 O 0.15229 0.67657 0.70792 0.0
C151 C 0.13941 0.70206 0.6533 0.0
N152 N 0.15472 0.71811 0.66984 0.0
C153 C 0.15277 0.75408 0.63682 0.0
C154 C 0.13751 0.73767 0.61956 0.0
C155 C 0.13098 0.71141 0.6278 0.0
C156 C 0.16021 0.74363 0.66214 0.0
H157 H 0.13201 0.68289 0.65995 0.0
C158 C 0.13546 0.65774 0.70455 0.0
O159 O 0.0568 0.68293 0.72147 0.0
O160 O 0.07117 0.70275 0.68396 0.0
N161 N 0.17227 0.75104 0.70695 0.0
C162 C 0.19272 0.75943 0.72331 0.0
C163 C 0.21021 0.78015 0.71448 0.0
C164 C 0.20513 0.79356 0.68999 0.0
C165 C 0.1851 0.78343 0.6729 0.0
C166 C 0.17201 0.75984 0.68103 0.0
H167 H 0.19751 0.74786 0.74118 0.0
O168 O 0.08294 0.73833 0.72697 0.0
O169 O 0.1201 0.72645 0.70691 0.0
O170 O 0.11151 0.69508 0.75481 0.0
O171 O 0.15297 0.71501 0.74977 0.0
C172 C 0.17815 0.79481 0.64772 0.0
C173 C 0.16056 0.78067 0.63024 0.0
H174 H 0.13093 0.74493 0.59994 0.0
H175 H 0.1188 0.69863 0.61485 0.0
H176 H 0.22841 0.78475 0.72545 0.0
H177 H 0.21781 0.81031 0.68377 0.0
H178 H 0.18607 0.8143 0.64178 0.0
H179 H 0.15457 0.78969 0.61118 0.0
Mn180 Mn 0.2136 0.0987 0.79046 0.0
Mn181 Mn 0.22116 0.15096 0.74906 0.0
C182 C 0.17737 0.12963 0.785 0.0
C183 C 0.20166 0.0531 0.79232 0.0
C184 C 0.23849 0.15314 0.80832 0.0
O185 O 0.25074 0.08971 0.77226 0.0
O186 O 0.25282 0.1274 0.74821 0.0
C187 C 0.21044 0.1081 0.70908 0.0
N188 N 0.20541 0.13366 0.71812 0.0
C189 C 0.16267 0.13454 0.69439 0.0
C190 C 0.16789 0.10866 0.68425 0.0
C191 C 0.19188 0.09535 0.6917 0.0
C192 C 0.18174 0.14592 0.71201 0.0
H193 H 0.22819 0.09719 0.71552 0.0
C194 C 0.26325 0.10552 0.75615 0.0
O195 O 0.21593 0.06406 0.81159 0.0
O196 O 0.19523 0.06835 0.77216 0.0
N197 N 0.19428 0.17796 0.74386 0.0
C198 C 0.19764 0.20467 0.74928 0.0
C199 C 0.18037 0.22362 0.73702 0.0
C200 C 0.15877 0.21483 0.72072 0.0
C201 C 0.15683 0.18742 0.71415 0.0
C202 C 0.17699 0.1703 0.7241 0.0
H203 H 0.21405 0.21141 0.76206 0.0
O204 O 0.17698 0.11201 0.80427 0.0
O205 O 0.19798 0.12705 0.76894 0.0
O206 O 0.23342 0.12802 0.81317 0.0
O207 O 0.23364 0.16501 0.78526 0.0
C208 C 0.13694 0.17656 0.69684 0.0
C209 C 0.13942 0.14968 0.68766 0.0
H210 H 0.15371 0.09889 0.67068 0.0
H211 H 0.19594 0.0752 0.68428 0.0
H212 H 0.18341 0.24486 0.74046 0.0
H213 H 0.14464 0.22938 0.71252 0.0
H214 H 0.12021 0.18883 0.68985 0.0
H215 H 0.12421 0.14145 0.67416 0.0
Mn216 Mn 0.89221 0.29686 0.80762 0.0
Mn217 Mn 0.85063 0.27848 0.75932 0.0
C218 C 0.89254 0.25066 0.79367 0.0
C219 C 0.93505 0.31439 0.81668 0.0
C220 C 0.83476 0.27559 0.8194 0.0
O221 O 0.87545 0.33424 0.79546 0.0
O222 O 0.84368 0.3158 0.76977 0.0
C223 C 0.88733 0.31395 0.72724 0.0
N224 N 0.87436 0.28976 0.73017 0.0
C225 C 0.90399 0.26964 0.69691 0.0
C226 C 0.91705 0.29443 0.69334 0.0
C227 C 0.90856 0.31674 0.70851 0.0
C228 C 0.88285 0.26821 0.71585 0.0
H229 H 0.88252 0.33094 0.73966 0.0
C230 C 0.85366 0.33613 0.78141 0.0
O231 O 0.91638 0.31441 0.83529 0.0
O232 O 0.92813 0.30625 0.79289 0.0
N233 N 0.85305 0.24387 0.74258 0.0
C234 C 0.83532 0.22343 0.7452 0.0
C235 C 0.8357 0.20179 0.72659 0.0
C236 C 0.85616 0.20054 0.70696 0.0
C237 C 0.87427 0.222 0.70448 0.0
C238 C 0.8702 0.24438 0.72121 0.0
H239 H 0.82195 0.22444 0.76182 0.0
O240 O 0.90507 0.25842 0.81518 0.0
O241 O 0.88282 0.27101 0.77977 0.0
O242 O 0.85632 0.288 0.82724 0.0
O243 O 0.8303 0.26819 0.79411 0.0
C244 C 0.89571 0.22247 0.68571 0.0
C245 C 0.91114 0.24619 0.68245 0.0
H246 H 0.93353 0.29656 0.679 0.0
H247 H 0.91872 0.33596 0.70622 0.0
H248 H 0.82133 0.18548 0.72775 0.0
H249 H 0.85787 0.18308 0.69403 0.0
H250 H 0.90015 0.20496 0.67335 0.0
H251 H 0.92752 0.24656 0.66785 0.0
Mn252 Mn 0.79181 0.88404 0.79866 0.0
Mn253 Mn 0.77267 0.85037 0.77892 0.0
C254 C 0.82168 0.86711 0.7588 0.0
C255 C 0.80529 0.93097 0.79507 0.0
C256 C 0.77439 0.83295 0.82782 0.0
O257 O 0.75349 0.89317 0.81631 0.0
O258 O 0.74464 0.87856 0.77782 0.0
C259 C 0.7491 0.85811 0.72654 0.0
N260 N 0.75563 0.83939 0.74603 0.0
C261 C 0.76304 0.80643 0.71145 0.0
C262 C 0.75913 0.82588 0.69162 0.0
C263 C 0.75243 0.85207 0.6992 0.0
C264 C 0.76413 0.81481 0.73846 0.0
H265 H 0.7455 0.87901 0.73144 0.0
C266 C 0.73551 0.88868 0.79881 0.0
O267 O 0.81182 0.91658 0.8156 0.0
O268 O 0.79068 0.91886 0.77782 0.0
N269 N 0.79373 0.8183 0.77454 0.0
C270 C 0.81616 0.8102 0.78802 0.0
C271 C 0.82589 0.78414 0.78426 0.0
C272 C 0.81331 0.76708 0.7654 0.0
C273 C 0.79238 0.77698 0.74908 0.0
C274 C 0.7825 0.8026 0.75519 0.0
H275 H 0.82734 0.82419 0.8004 0.0
O276 O 0.82977 0.87321 0.78233 0.0
O277 O 0.79634 0.87055 0.75716 0.0
O278 O 0.79352 0.85038 0.82447 0.0
O279 O 0.75591 0.83124 0.8092 0.0
C280 C 0.78349 0.76461 0.72475 0.0
C281 C 0.77116 0.7804 0.70491 0.0
H282 H 0.76342 0.82119 0.67078 0.0
H283 H 0.75076 0.86784 0.68418 0.0
H284 H 0.84431 0.77843 0.79443 0.0
H285 H 0.82208 0.74782 0.76139 0.0
H286 H 0.78925 0.74478 0.71843 0.0
H287 H 0.77025 0.77337 0.68417 0.0
Mn288 Mn 0.23021 0.09205 0.2429 0.0
Mn289 Mn 0.26266 0.1473 0.26234 0.0
C290 C 0.25914 0.11451 0.21197 0.0
C291 C 0.22954 0.04715 0.2346 0.0
C292 C 0.2056 0.14848 0.23957 0.0
O293 O 0.22265 0.09113 0.28445 0.0
O294 O 0.24148 0.13124 0.29184 0.0
C295 C 0.29735 0.10742 0.29029 0.0
N296 N 0.29527 0.12969 0.27413 0.0
C297 C 0.34067 0.12275 0.25735 0.0
C298 C 0.34345 0.10037 0.27444 0.0
C299 C 0.32164 0.09264 0.29094 0.0
C300 C 0.31583 0.13646 0.2574 0.0
H301 H 0.28053 0.10059 0.30232 0.0
C302 C 0.22803 0.11105 0.30003 0.0
O303 O 0.20689 0.06053 0.23598 0.0
O304 O 0.25145 0.05883 0.24316 0.0
N305 N 0.28574 0.16738 0.23887 0.0
C306 C 0.28138 0.19292 0.22974 0.0
C307 C 0.30296 0.20742 0.2182 0.0
C308 C 0.32837 0.19514 0.21507 0.0
C309 C 0.33276 0.16952 0.2261 0.0
C310 C 0.31126 0.15753 0.24004 0.0
H311 H 0.26172 0.20223 0.23182 0.0
O312 O 0.24146 0.09725 0.20377 0.0
O313 O 0.26002 0.11698 0.23817 0.0
O314 O 0.2032 0.12283 0.23971 0.0
O315 O 0.22774 0.16128 0.24604 0.0
C316 C 0.35785 0.15602 0.22519 0.0
C317 C 0.36157 0.13212 0.2403 0.0
H318 H 0.36221 0.08903 0.2751 0.0
H319 H 0.32345 0.07517 0.30398 0.0
H320 H 0.3 0.22774 0.21116 0.0
H321 H 0.34445 0.20589 0.20494 0.0
H322 H 0.37461 0.16424 0.21368 0.0
H323 H 0.38099 0.12194 0.23975 0.0
Mn324 Mn 0.89884 0.22694 0.20295 0.0
Mn325 Mn 0.84863 0.26121 0.23113 0.0
C326 C 0.86842 0.25114 0.175 0.0
C327 C 0.94375 0.22837 0.18874 0.0
C328 C 0.84285 0.20228 0.21561 0.0
O329 O 0.90866 0.22365 0.24408 0.0
O330 O 0.87056 0.24269 0.25843 0.0
C331 C 0.89442 0.29686 0.24561 0.0
N332 N 0.86901 0.29401 0.23501 0.0
C333 C 0.87294 0.33683 0.2121 0.0
C334 C 0.89872 0.3404 0.22339 0.0
C335 C 0.90952 0.32027 0.24019 0.0
C336 C 0.85905 0.31285 0.21796 0.0
H337 H 0.90344 0.28131 0.25782 0.0
C338 C 0.89235 0.23009 0.26315 0.0
O339 O 0.93172 0.20531 0.19269 0.0
O340 O 0.93037 0.24988 0.19488 0.0
N341 N 0.82395 0.28253 0.21042 0.0
C342 C 0.79679 0.27852 0.2078 0.0
C343 C 0.78055 0.29935 0.19713 0.0
C344 C 0.79246 0.32354 0.18854 0.0
C345 C 0.82006 0.32781 0.19308 0.0
C346 C 0.83444 0.30743 0.20636 0.0
H347 H 0.78769 0.25972 0.21411 0.0
O348 O 0.88487 0.23368 0.16475 0.0
O349 O 0.872 0.25495 0.20078 0.0
O350 O 0.86811 0.1994 0.20956 0.0
O351 O 0.83164 0.22522 0.22233 0.0
C352 C 0.83356 0.35193 0.18638 0.0
C353 C 0.86037 0.35614 0.19532 0.0
H354 H 0.91032 0.35853 0.21939 0.0
H355 H 0.92955 0.32268 0.2488 0.0
H356 H 0.75908 0.29665 0.19452 0.0
H357 H 0.78011 0.33884 0.1791 0.0
H358 H 0.82324 0.36769 0.17518 0.0
H359 H 0.87059 0.37485 0.19037 0.0
Mn360 Mn 0.76118 0.89543 0.20384 0.0
Mn361 Mn 0.72962 0.83842 0.21623 0.0
C362 C 0.75568 0.86469 0.16757 0.0
C363 C 0.75516 0.9406 0.19416 0.0
C364 C 0.79036 0.84458 0.22529 0.0
O365 O 0.74617 0.90215 0.2429 0.0
O366 O 0.73186 0.86039 0.24894 0.0
C367 C 0.68348 0.87682 0.21581 0.0
N368 N 0.69432 0.85272 0.20778 0.0
C369 C 0.6603 0.8485 0.17302 0.0
C370 C 0.64851 0.87275 0.18151 0.0
C371 C 0.66018 0.88696 0.20307 0.0
C372 C 0.68378 0.83963 0.18638 0.0
H373 H 0.69276 0.8888 0.23133 0.0
C374 C 0.73673 0.88362 0.25809 0.0
O375 O 0.77757 0.93208 0.20522 0.0
O376 O 0.7368 0.9229 0.18863 0.0
N377 N 0.72182 0.81192 0.18929 0.0
C378 C 0.73142 0.78625 0.18943 0.0
C379 C 0.71681 0.76592 0.17583 0.0
C380 C 0.69418 0.77242 0.16012 0.0
C381 C 0.68414 0.79863 0.16093 0.0
C382 C 0.69706 0.81684 0.17829 0.0
H383 H 0.74832 0.78112 0.20225 0.0
O384 O 0.77256 0.88453 0.16573 0.0
O385 O 0.74194 0.86461 0.19012 0.0
O386 O 0.78998 0.87007 0.22026 0.0
O387 O 0.76934 0.82858 0.22249 0.0
C388 C 0.66081 0.80695 0.14678 0.0
C389 C 0.64941 0.83245 0.15217 0.0
H390 H 0.63043 0.88049 0.17178 0.0
H391 H 0.65148 0.90592 0.20962 0.0
H392 H 0.72177 0.74503 0.17819 0.0
H393 H 0.68373 0.75676 0.14901 0.0
H394 H 0.65103 0.79363 0.13242 0.0
H395 H 0.6313 0.83869 0.14147 0.0
Mn396 Mn 0.09438 0.77516 0.29121 0.0
Mn397 Mn 0.1566 0.7571 0.27534 0.0
C398 C 0.10282 0.75214 0.25027 0.0
C399 C 0.05333 0.76197 0.30908 0.0
C400 C 0.13577 0.81635 0.27323 0.0
O401 O 0.11515 0.77852 0.32822 0.0
O402 O 0.15324 0.75676 0.31589 0.0
C403 C 0.15438 0.69832 0.29023 0.0
N404 N 0.16339 0.71901 0.27464 0.0
C405 C 0.19633 0.69115 0.25233 0.0
C406 C 0.18508 0.66878 0.2653 0.0
C407 C 0.16394 0.67217 0.28442 0.0
C408 C 0.18209 0.71477 0.2553 0.0
H409 H 0.13915 0.70168 0.30563 0.0
C410 C 0.13818 0.76767 0.33401 0.0
O411 O 0.05909 0.78745 0.30628 0.0
O412 O 0.07265 0.74483 0.30503 0.0
N413 N 0.16321 0.75653 0.23687 0.0
C414 C 0.15954 0.78336 0.22072 0.0
C415 C 0.18223 0.799 0.201 0.0
C416 C 0.21286 0.78499 0.19469 0.0
C417 C 0.21556 0.73789 0.22105 0.0
C418 C 0.18548 0.7346 0.23759 0.0
H419 H 0.1407 0.79378 0.22368 0.0
O420 O 0.08088 0.76615 0.2531 0.0
O421 O 0.11853 0.75216 0.27114 0.0
O422 O 0.11068 0.81142 0.27702 0.0
O423 O 0.1533 0.79746 0.27444 0.0
C424 C 0.23067 0.71347 0.2223 0.0
C425 C 0.22003 0.69048 0.23588 0.0
H426 H 0.1917 0.64914 0.2593 0.0
H427 H 0.15517 0.65492 0.29454 0.0
H428 H 0.1772 0.81862 0.19345 0.0
H429 H 0.22753 0.79446 0.18229 0.0
H430 H 0.24914 0.71111 0.21157 0.0
H431 H 0.23116 0.67206 0.234 0.0
Mn432 Mn 0.18595 0.89398 0.76599 0.0
Mn433 Mn 0.20821 0.85208 0.75446 0.0
C434 C 0.20053 0.86853 0.80735 0.0
C435 C 0.18259 0.94 0.77841 0.0
C436 C 0.16451 0.84442 0.73001 0.0
O437 O 0.19704 0.9054 0.72596 0.0
O438 O 0.22849 0.87673 0.73112 0.0
C439 C 0.26472 0.8515 0.76551 0.0
N440 N 0.24288 0.83598 0.75843 0.0
C441 C 0.26288 0.79785 0.78026 0.0
C442 C 0.28476 0.81354 0.7885 0.0
C443 C 0.28469 0.84104 0.78244 0.0
C444 C 0.24083 0.81094 0.76822 0.0
H445 H 0.26481 0.87302 0.76202 0.0
C446 C 0.21853 0.89483 0.71694 0.0
O447 O 0.16205 0.92747 0.76792 0.0
O448 O 0.20432 0.92618 0.78115 0.0
N449 N 0.19546 0.82141 0.77387 0.0
C450 C 0.17076 0.81652 0.7847 0.0
C451 C 0.16457 0.79066 0.79385 0.0
C452 C 0.18466 0.77066 0.79325 0.0
C453 C 0.21087 0.77693 0.78472 0.0
C454 C 0.21515 0.8025 0.77431 0.0
H455 H 0.15671 0.83282 0.78782 0.0
O456 O 0.17763 0.88055 0.8048 0.0
O457 O 0.21556 0.87098 0.78617 0.0
O458 O 0.16062 0.86301 0.74831 0.0
O459 O 0.18908 0.83742 0.72405 0.0
C460 C 0.23362 0.76014 0.78872 0.0
C461 C 0.25959 0.77143 0.78903 0.0
H462 H 0.30009 0.80523 0.8017 0.0
H463 H 0.29907 0.85456 0.79169 0.0
H464 H 0.1451 0.78702 0.8031 0.0
H465 H 0.18083 0.75176 0.80247 0.0
H466 H 0.23189 0.73973 0.79518 0.0
H467 H 0.27637 0.76051 0.79799 0.0
Mn468 Mn 0.09096 0.28006 0.79885 0.0
Mn469 Mn 0.15092 0.2966 0.77205 0.0
C470 C 0.12737 0.29327 0.82777 0.0
C471 C 0.04726 0.29407 0.81025 0.0
C472 C 0.13497 0.23814 0.78442 0.0
O473 O 0.08182 0.28092 0.75742 0.0
O474 O 0.12346 0.29161 0.74441 0.0
C475 C 0.12338 0.34887 0.76409 0.0
N476 N 0.14586 0.33496 0.77214 0.0
C477 C 0.16177 0.37327 0.79772 0.0
C478 C 0.13922 0.38814 0.78906 0.0
C479 C 0.11988 0.37583 0.77223 0.0
C480 C 0.16372 0.34633 0.78943 0.0
H481 H 0.10786 0.3393 0.75209 0.0
C482 C 0.09914 0.28609 0.73889 0.0
O483 O 0.0531 0.26868 0.80721 0.0
O484 O 0.06659 0.3113 0.80625 0.0
N485 N 0.18274 0.30366 0.79243 0.0
C486 C 0.20592 0.28899 0.79008 0.0
C487 C 0.23072 0.3005 0.79788 0.0
C488 C 0.23132 0.32639 0.8095 0.0
C489 C 0.20749 0.34172 0.80992 0.0
C490 C 0.18434 0.33022 0.79843 0.0
H491 H 0.20548 0.26915 0.78098 0.0
O492 O 0.10582 0.28201 0.83746 0.0
O493 O 0.12585 0.29788 0.80198 0.0
O494 O 0.1109 0.24401 0.79242 0.0
O495 O 0.15285 0.25604 0.77701 0.0
C496 C 0.20615 0.3686 0.8191 0.0
C497 C 0.18271 0.38413 0.81384 0.0
H498 H 0.13667 0.40903 0.79503 0.0
H499 H 0.10222 0.38703 0.76571 0.0
H500 H 0.24922 0.28931 0.79512 0.0
H501 H 0.25033 0.33475 0.81659 0.0
H502 H 0.2233 0.37778 0.82923 0.0
H503 H 0.18183 0.40488 0.82066 0.0
Mn504 Mn 0.82014 0.09015 0.78317 0.0
Mn505 Mn 0.7802 0.13972 0.76689 0.0
C506 C 0.78822 0.10551 0.81583 0.0
C507 C 0.82475 0.0437 0.78018 0.0
C508 C 0.84241 0.14549 0.77867 0.0
O509 O 0.82467 0.09664 0.74084 0.0
O510 O 0.78421 0.11579 0.73552 0.0
C511 C 0.72699 0.10975 0.76245 0.0
N512 N 0.74182 0.13222 0.76783 0.0
C513 C 0.70193 0.15944 0.77425 0.0
C514 C 0.68606 0.13595 0.77222 0.0
C515 C 0.69864 0.11092 0.76627 0.0
C516 C 0.72955 0.15535 0.77472 0.0
H517 H 0.73687 0.09105 0.75693 0.0
C518 C 0.80577 0.1061 0.72545 0.0
O519 O 0.84594 0.05882 0.78408 0.0
O520 O 0.80168 0.05558 0.7769 0.0
N521 N 0.77359 0.16435 0.79552 0.0
C522 C 0.79851 0.17875 0.80821 0.0
C523 C 0.80401 0.21184 0.81112 0.0
C524 C 0.78033 0.23442 0.80178 0.0
C525 C 0.73712 0.20693 0.78276 0.0
C526 C 0.74561 0.17397 0.78509 0.0
H527 H 0.81352 0.16566 0.81657 0.0
O528 O 0.80783 0.08972 0.82318 0.0
O529 O 0.78785 0.11033 0.79026 0.0
O530 O 0.84487 0.1229 0.79081 0.0
O531 O 0.82052 0.15117 0.76536 0.0
C532 C 0.70881 0.20962 0.77728 0.0
C533 C 0.69164 0.18632 0.77599 0.0
H534 H 0.66429 0.13696 0.7745 0.0
H535 H 0.68647 0.09291 0.76384 0.0
H536 H 0.82328 0.21851 0.81829 0.0
H537 H 0.78414 0.25575 0.80362 0.0
H538 H 0.69939 0.22891 0.77656 0.0
H539 H 0.66996 0.18946 0.77504 0.0
Mn540 Mn 0.89754 0.72726 0.69 0.0
Mn541 Mn 0.83366 0.70896 0.69861 0.0
C542 C 0.88394 0.70858 0.73217 0.0
C543 C 0.94043 0.7143 0.67582 0.0
C544 C 0.85395 0.76633 0.71057 0.0
O545 O 0.88177 0.73255 0.65075 0.0
O546 O 0.83915 0.72567 0.66322 0.0
C547 C 0.85289 0.66704 0.66068 0.0
N548 N 0.83948 0.6734 0.68407 0.0
C549 C 0.84537 0.62786 0.70033 0.0
C550 C 0.85862 0.62098 0.67627 0.0
C551 C 0.86242 0.64071 0.65635 0.0
C552 C 0.83679 0.65469 0.70371 0.0
H553 H 0.85674 0.68186 0.64533 0.0
C554 C 0.85628 0.73322 0.64581 0.0
O555 O 0.93408 0.73971 0.67796 0.0
O556 O 0.92125 0.6969 0.67941 0.0
N557 N 0.82055 0.68992 0.73052 0.0
C558 C 0.80081 0.69769 0.74836 0.0
C559 C 0.788 0.67872 0.76514 0.0
C560 C 0.7964 0.65187 0.76495 0.0
C561 C 0.81546 0.64366 0.74584 0.0
C562 C 0.82494 0.663 0.72732 0.0
H563 H 0.79336 0.71768 0.74933 0.0
O564 O 0.90707 0.72045 0.72968 0.0
O565 O 0.87086 0.70633 0.70942 0.0
O566 O 0.87775 0.76193 0.70106 0.0
O567 O 0.83541 0.74752 0.71333 0.0
C568 C 0.82407 0.61671 0.74331 0.0
C569 C 0.8399 0.609 0.72093 0.0
H570 H 0.8657 0.60058 0.67277 0.0
H571 H 0.87279 0.63569 0.63771 0.0
H572 H 0.7715 0.68478 0.77816 0.0
H573 H 0.78726 0.63762 0.77872 0.0
H574 H 0.81791 0.60163 0.75795 0.0
H575 H 0.84625 0.58817 0.71889 0.0
Mn576 Mn 0.30687 0.24009 0.1003 0.0
Mn577 Mn 0.28867 0.27114 0.15639 0.0
C578 C 0.26094 0.25374 0.10542 0.0
C579 C 0.32374 0.25 0.05743 0.0
C580 C 0.28974 0.20953 0.15189 0.0
O581 O 0.34429 0.24515 0.11885 0.0
O582 O 0.32784 0.2651 0.15546 0.0
C583 C 0.31338 0.31635 0.12643 0.0
N584 N 0.29217 0.30658 0.14123 0.0
C585 C 0.26257 0.34104 0.12342 0.0
C586 C 0.28435 0.35197 0.1089 0.0
C587 C 0.30986 0.33949 0.11035 0.0
C588 C 0.26729 0.31769 0.13867 0.0
H589 H 0.33279 0.30636 0.12651 0.0
C590 C 0.34758 0.25582 0.14207 0.0
O591 O 0.32473 0.22534 0.06661 0.0
O592 O 0.31501 0.26815 0.07378 0.0
N593 N 0.25224 0.28109 0.16378 0.0
C594 C 0.23791 0.27292 0.1858 0.0
C595 C 0.21511 0.28786 0.19394 0.0
C596 C 0.20605 0.30967 0.17816 0.0
C597 C 0.22218 0.31868 0.15668 0.0
C598 C 0.24662 0.30518 0.15222 0.0
H599 H 0.24488 0.25601 0.19777 0.0
O600 O 0.26793 0.23807 0.08585 0.0
O601 O 0.28139 0.26144 0.11989 0.0
O602 O 0.2993 0.20904 0.12747 0.0
O603 O 0.28367 0.23157 0.16521 0.0
C604 C 0.21639 0.34184 0.14117 0.0
C605 C 0.23642 0.35257 0.1238 0.0
H606 H 0.28174 0.36995 0.09669 0.0
H607 H 0.32672 0.34751 0.09887 0.0
H608 H 0.20449 0.28261 0.21224 0.0
H609 H 0.18768 0.32025 0.18371 0.0
H610 H 0.19717 0.35217 0.14331 0.0
H611 H 0.23207 0.37063 0.11223 0.0
Mn612 Mn 0.20962 0.7233 0.90406 0.0
Mn613 Mn 0.23188 0.70609 0.8432 0.0
C614 C 0.17889 0.70533 0.87182 0.0
C615 C 0.20254 0.71156 0.94903 0.0
C616 C 0.21187 0.76298 0.85633 0.0
O617 O 0.25182 0.72776 0.90845 0.0
O618 O 0.26041 0.72392 0.8644 0.0
C619 C 0.26378 0.66461 0.87277 0.0
N620 N 0.24566 0.67091 0.85281 0.0
C621 C 0.23834 0.62366 0.84409 0.0
C622 C 0.25754 0.61701 0.86382 0.0
C623 C 0.27016 0.63763 0.87839 0.0
C624 C 0.23224 0.65111 0.83984 0.0
H625 H 0.27294 0.67978 0.88506 0.0
C626 C 0.2679 0.73005 0.88814 0.0
O627 O 0.20303 0.73668 0.94148 0.0
O628 O 0.2077 0.69343 0.93086 0.0
N629 N 0.2094 0.68614 0.81763 0.0
C630 C 0.19927 0.69498 0.79342 0.0
C631 C 0.19178 0.6764 0.77317 0.0
C632 C 0.19228 0.64886 0.77841 0.0
C633 C 0.20356 0.63972 0.80244 0.0
C634 C 0.21354 0.65902 0.82086 0.0
H635 H 0.19831 0.71575 0.78843 0.0
O636 O 0.17028 0.71707 0.89354 0.0
O637 O 0.20518 0.70198 0.87133 0.0
O638 O 0.20976 0.75833 0.88175 0.0
O639 O 0.21647 0.74405 0.83845 0.0
C640 C 0.20867 0.61212 0.80675 0.0
C641 C 0.22567 0.60404 0.82799 0.0
H642 H 0.26275 0.59616 0.8679 0.0
H643 H 0.28468 0.63278 0.89409 0.0
H644 H 0.18708 0.68296 0.75293 0.0
H645 H 0.1865 0.63486 0.76277 0.0
H646 H 0.20074 0.59703 0.79298 0.0
H647 H 0.23003 0.58279 0.83081 0.0
Mn648 Mn 0.28327 0.27326 0.90512 0.0
Mn649 Mn 0.2942 0.26456 0.83963 0.0
C650 C 0.27894 0.22942 0.88653 0.0
C651 C 0.30351 0.27435 0.94728 0.0
C652 C 0.2388 0.28127 0.8618 0.0
O653 O 0.29893 0.31089 0.89435 0.0
O654 O 0.30284 0.30136 0.85072 0.0
C655 C 0.35004 0.2642 0.86051 0.0
N656 N 0.33114 0.25319 0.84359 0.0
C657 C 0.35539 0.21087 0.84305 0.0
C658 C 0.37535 0.22208 0.85979 0.0
C659 C 0.37261 0.24888 0.8686 0.0
C660 C 0.33314 0.22702 0.83622 0.0
H661 H 0.34756 0.28427 0.86851 0.0
C662 C 0.30483 0.31776 0.87018 0.0
O663 O 0.27998 0.28562 0.94338 0.0
O664 O 0.31568 0.26408 0.9266 0.0
N665 N 0.2888 0.23134 0.82146 0.0
C666 C 0.27064 0.22728 0.8012 0.0
C667 C 0.27396 0.20514 0.78386 0.0
C668 C 0.29507 0.18656 0.78831 0.0
C669 C 0.31424 0.19207 0.80847 0.0
C670 C 0.31162 0.21637 0.82247 0.0
H671 H 0.25434 0.24144 0.79786 0.0
O672 O 0.26984 0.23465 0.91045 0.0
O673 O 0.29097 0.24978 0.87529 0.0
O674 O 0.24699 0.28375 0.8865 0.0
O675 O 0.25429 0.27341 0.84191 0.0
C676 C 0.33631 0.17518 0.81477 0.0
C677 C 0.35642 0.18423 0.83302 0.0
H678 H 0.39283 0.21035 0.86592 0.0
H679 H 0.3877 0.25763 0.88186 0.0
H680 H 0.25982 0.20212 0.7676 0.0
H681 H 0.29671 0.1687 0.77578 0.0
H682 H 0.33814 0.15547 0.80562 0.0
H683 H 0.37325 0.17111 0.83803 0.0
Mn684 Mn 0.70387 0.22149 0.90582 0.0
Mn685 Mn 0.70611 0.23188 0.84194 0.0
C686 C 0.74457 0.24205 0.88787 0.0
C687 C 0.689 0.24025 0.94619 0.0
C688 C 0.71598 0.17696 0.86849 0.0
O689 O 0.66488 0.21003 0.88946 0.0
O690 O 0.67026 0.23873 0.85672 0.0
C691 C 0.69955 0.29004 0.85117 0.0
N692 N 0.70787 0.26938 0.83499 0.0
C693 C 0.73142 0.29916 0.8054 0.0
C694 C 0.72604 0.32042 0.82342 0.0
C695 C 0.70896 0.31617 0.84578 0.0
C696 C 0.72305 0.27354 0.81305 0.0
H697 H 0.68783 0.28612 0.86925 0.0
C698 C 0.65568 0.22143 0.86789 0.0
O699 O 0.6936 0.21447 0.94413 0.0
O700 O 0.68993 0.25432 0.92417 0.0
N701 N 0.73951 0.2283 0.82396 0.0
C702 C 0.7579 0.20254 0.82067 0.0
C703 C 0.77901 0.20395 0.7709 0.0
C704 C 0.76814 0.23199 0.75541 0.0
C705 C 0.74839 0.25418 0.77159 0.0
C706 C 0.73543 0.25136 0.80288 0.0
H707 H 0.75888 0.18751 0.83635 0.0
O708 O 0.74363 0.23428 0.91284 0.0
O709 O 0.7216 0.23891 0.876 0.0
O710 O 0.71848 0.18581 0.89257 0.0
O711 O 0.70578 0.1914 0.84914 0.0
C712 C 0.75119 0.28098 0.76344 0.0
C713 C 0.74613 0.30252 0.78132 0.0
H714 H 0.73503 0.34007 0.8204 0.0
H715 H 0.70414 0.33262 0.85936 0.0
H716 H 0.79109 0.18964 0.75961 0.0
H717 H 0.77652 0.23699 0.73581 0.0
H718 H 0.76209 0.28505 0.74532 0.0
H719 H 0.75396 0.32208 0.77636 0.0
Mn720 Mn 0.79941 0.68351 0.88527 0.0
Mn721 Mn 0.75627 0.70236 0.83736 0.0
C722 C 0.78975 0.73011 0.8797 0.0
C723 C 0.80282 0.66963 0.93033 0.0
C724 C 0.81648 0.69423 0.82593 0.0
O725 O 0.78377 0.64627 0.87325 0.0
O726 O 0.75904 0.6633 0.83992 0.0
C727 C 0.71819 0.68402 0.87958 0.0
N728 N 0.72487 0.70265 0.8603 0.0
C729 C 0.69738 0.73622 0.88257 0.0
C730 C 0.68971 0.71717 0.90204 0.0
C731 C 0.70012 0.69088 0.90046 0.0
C732 C 0.71541 0.72807 0.86222 0.0
H733 H 0.72735 0.66436 0.87985 0.0
C734 C 0.76806 0.64334 0.85296 0.0
O735 O 0.82283 0.6657 0.9136 0.0
O736 O 0.78116 0.68047 0.92067 0.0
N737 N 0.74737 0.73886 0.8294 0.0
C738 C 0.75305 0.75194 0.80588 0.0
C739 C 0.73796 0.77503 0.79887 0.0
C740 C 0.71872 0.78553 0.81697 0.0
C741 C 0.71276 0.77118 0.84055 0.0
C742 C 0.72541 0.74627 0.84401 0.0
H743 H 0.76741 0.74341 0.79176 0.0
O744 O 0.81013 0.72224 0.89402 0.0
O745 O 0.77518 0.71038 0.87038 0.0
O746 O 0.82206 0.68502 0.84975 0.0
O747 O 0.79269 0.70309 0.81863 0.0
C748 C 0.69497 0.78035 0.86089 0.0
C749 C 0.68808 0.76312 0.88256 0.0
H750 H 0.67589 0.72249 0.91822 0.0
H751 H 0.69473 0.67609 0.91567 0.0
H752 H 0.74048 0.78448 0.77948 0.0
H753 H 0.70816 0.80409 0.81221 0.0
H754 H 0.68639 0.80041 0.85996 0.0
H755 H 0.67449 0.77025 0.89824 0.0
Mn756 Mn 0.77524 0.71267 0.08229 0.0
Mn757 Mn 0.7611 0.72321 0.12445 0.0
C758 C 0.8098 0.69829 0.11824 0.0
C759 C 0.78696 0.69294 0.04043 0.0
C760 C 0.74994 0.76815 0.10646 0.0
O761 O 0.73278 0.70889 0.07453 0.0
O762 O 0.72964 0.70056 0.11694 0.0
C763 C 0.75302 0.68663 0.16802 0.0
N764 N 0.75696 0.71276 0.16054 0.0
C765 C 0.772 0.72404 0.20457 0.0
C766 C 0.76565 0.69812 0.21355 0.0
C767 C 0.75974 0.67869 0.19423 0.0
C768 C 0.7701 0.72963 0.1771 0.0
H769 H 0.74836 0.67139 0.15307 0.0
C770 C 0.71819 0.70124 0.09444 0.0
O771 O 0.78336 0.71858 0.0431 0.0
O772 O 0.78286 0.6783 0.06169 0.0
N773 N 0.79001 0.74618 0.13806 0.0
C774 C 0.81031 0.75974 0.12489 0.0
C775 C 0.82818 0.77579 0.13944 0.0
C776 C 0.82544 0.77738 0.16735 0.0
C777 C 0.80442 0.76382 0.18072 0.0
C778 C 0.7871 0.74812 0.16511 0.0
H779 H 0.81312 0.75861 0.10327 0.0
O780 O 0.81565 0.71156 0.09648 0.0
O781 O 0.78428 0.69404 0.11985 0.0
O782 O 0.76749 0.75564 0.09126 0.0
O783 O 0.73849 0.75433 0.1248 0.0
C784 C 0.80211 0.76212 0.20901 0.0
C785 C 0.78598 0.7417 0.22076 0.0
H786 H 0.77 0.69184 0.23406 0.0
H787 H 0.762 0.65775 0.19912 0.0
H788 H 0.84478 0.78586 0.12929 0.0
H789 H 0.84184 0.78627 0.17787 0.0
H790 H 0.81503 0.77373 0.22194 0.0
H791 H 0.78713 0.73659 0.24196 0.0
Mn792 Mn 0.17607 0.70374 0.1046 0.0
Mn793 Mn 0.21499 0.71113 0.15486 0.0
C794 C 0.19175 0.74938 0.11348 0.0
C795 C 0.17828 0.69021 0.05965 0.0
C796 C 0.15423 0.70472 0.15946 0.0
O797 O 0.18388 0.66436 0.12173 0.0
O798 O 0.22331 0.67794 0.13526 0.0
C799 C 0.26157 0.71972 0.1189 0.0
N800 N 0.2491 0.72426 0.1431 0.0
C801 C 0.28267 0.75617 0.15637 0.0
C802 C 0.29508 0.75328 0.13092 0.0
C803 C 0.28481 0.73455 0.11227 0.0
C804 C 0.25874 0.74201 0.16091 0.0
H805 H 0.25295 0.70591 0.1043 0.0
C806 C 0.20662 0.65903 0.13335 0.0
O807 O 0.15545 0.68918 0.07281 0.0
O808 O 0.1996 0.69719 0.07303 0.0
N809 N 0.21024 0.74296 0.17525 0.0
C810 C 0.18478 0.75191 0.19366 0.0
C811 C 0.20547 0.77721 0.23679 0.0
C812 C 0.23934 0.77803 0.23423 0.0
C813 C 0.25529 0.76526 0.2075 0.0
C814 C 0.24147 0.74902 0.18105 0.0
H815 H 0.19606 0.74265 0.17755 0.0
O816 O 0.17371 0.74495 0.09502 0.0
O817 O 0.20022 0.72699 0.12373 0.0
O818 O 0.14871 0.70951 0.13464 0.0
O819 O 0.17823 0.6981 0.16745 0.0
C820 C 0.2811 0.77573 0.20221 0.0
C821 C 0.29287 0.77354 0.17633 0.0
H822 H 0.31275 0.7651 0.1256 0.0
H823 H 0.29452 0.73185 0.09281 0.0
H824 H 0.19594 0.78443 0.25496 0.0
H825 H 0.2509 0.78848 0.24956 0.0
H826 H 0.29042 0.78913 0.2168 0.0
H827 H 0.31031 0.78565 0.17154 0.0
Mn828 Mn 0.72045 0.2882 0.09108 0.0
Mn829 Mn 0.70074 0.27879 0.15485 0.0
C830 C 0.70622 0.24472 0.10569 0.0
C831 C 0.70995 0.29559 0.04604 0.0
C832 C 0.76008 0.27587 0.13785 0.0
O833 O 0.71831 0.3283 0.10457 0.0
O834 O 0.70851 0.31648 0.14683 0.0
C835 C 0.64991 0.30444 0.13589 0.0
N836 N 0.6626 0.28379 0.14907 0.0
C837 C 0.62139 0.25773 0.14967 0.0
C838 C 0.60787 0.27888 0.13652 0.0
C839 C 0.62225 0.30232 0.12953 0.0
C840 C 0.64921 0.26066 0.15455 0.0
H841 H 0.66084 0.32228 0.12987 0.0
C842 C 0.71418 0.33433 0.12947 0.0
O843 O 0.73456 0.29866 0.05497 0.0
O844 O 0.69105 0.29258 0.06398 0.0
N845 N 0.69083 0.24473 0.16968 0.0
C846 C 0.70449 0.23263 0.1903 0.0
C847 C 0.6911 0.21377 0.2068 0.0
C848 C 0.66449 0.2059 0.20072 0.0
C849 C 0.65028 0.21973 0.1805 0.0
C850 C 0.66379 0.24071 0.16711 0.0
H851 H 0.72495 0.23878 0.19508 0.0
O852 O 0.71971 0.24784 0.08357 0.0
O853 O 0.70045 0.26728 0.11767 0.0
O854 O 0.75532 0.28373 0.11356 0.0
O855 O 0.74122 0.27149 0.15582 0.0
C856 C 0.62246 0.21578 0.17546 0.0
C857 C 0.60816 0.23442 0.15927 0.0
H858 H 0.5864 0.27754 0.13216 0.0
H859 H 0.61203 0.31872 0.11927 0.0
H860 H 0.70104 0.20573 0.22453 0.0
H861 H 0.65456 0.19083 0.2131 0.0
H862 H 0.61163 0.1993 0.18494 0.0
H863 H 0.58664 0.23163 0.15598 0.0
Mn864 Mn 0.59781 0.79044 0.77251 0.0
Mn865 Mn 0.66059 0.76985 0.78252 0.0
C866 C 0.60778 0.74327 0.77104 0.0
C867 C 0.5565 0.79975 0.79272 0.0
C868 C 0.6396 0.78617 0.72631 0.0
O869 O 0.6163 0.82648 0.78588 0.0
O870 O 0.6572 0.80853 0.78862 0.0
C871 C 0.63799 0.77652 0.83713 0.0
N872 N 0.65406 0.7619 0.81999 0.0
C873 C 0.647 0.72176 0.8469 0.0
C874 C 0.63122 0.73666 0.86511 0.0
C875 C 0.62655 0.76416 0.86008 0.0
C876 C 0.65687 0.73505 0.8239 0.0
H877 H 0.63312 0.79728 0.83293 0.0
C878 C 0.64175 0.82869 0.79041 0.0
O879 O 0.56211 0.80902 0.7687 0.0
O880 O 0.57565 0.78751 0.80562 0.0
N881 N 0.67351 0.73385 0.78009 0.0
C882 C 0.69543 0.72708 0.7648 0.0
C883 C 0.71097 0.70431 0.77184 0.0
C884 C 0.70258 0.6875 0.7932 0.0
C885 C 0.681 0.69582 0.80953 0.0
C886 C 0.66947 0.72092 0.80382 0.0
H887 H 0.702 0.74023 0.74859 0.0
O888 O 0.58508 0.75231 0.7618 0.0
O889 O 0.62284 0.76205 0.78106 0.0
O890 O 0.61665 0.79475 0.7353 0.0
O891 O 0.65849 0.77565 0.74173 0.0
C892 C 0.67191 0.68167 0.83254 0.0
C893 C 0.65368 0.6943 0.85062 0.0
H894 H 0.6228 0.72728 0.88304 0.0
H895 H 0.61401 0.7758 0.87376 0.0
H896 H 0.72914 0.69949 0.76067 0.0
H897 H 0.71372 0.6692 0.79773 0.0
H898 H 0.67935 0.66156 0.83689 0.0
H899 H 0.64652 0.68339 0.86823 0.0
Mn900 Mn 0.28926 0.60389 0.68932 0.0
Mn901 Mn 0.27429 0.64666 0.69459 0.0
C902 C 0.31521 0.62809 0.72677 0.0
C903 C 0.29974 0.55744 0.69725 0.0
C904 C 0.27694 0.65302 0.64569 0.0
O905 O 0.2485 0.59406 0.67942 0.0
O906 O 0.23872 0.63063 0.70054 0.0
C907 C 0.24978 0.66672 0.74234 0.0
N908 N 0.26355 0.67294 0.71924 0.0
C909 C 0.27915 0.71379 0.73839 0.0
C910 C 0.26514 0.70803 0.76214 0.0
C911 C 0.25222 0.68345 0.76468 0.0
C912 C 0.28036 0.69413 0.71847 0.0
H913 H 0.24088 0.64704 0.74524 0.0
C914 C 0.23061 0.60929 0.68993 0.0
O915 O 0.30362 0.56834 0.67377 0.0
O916 O 0.28922 0.57294 0.71512 0.0
N917 N 0.30684 0.66814 0.68995 0.0
C918 C 0.33102 0.66221 0.67768 0.0
C919 C 0.35155 0.68137 0.67696 0.0
C920 C 0.34742 0.7061 0.68946 0.0
C921 C 0.32264 0.712 0.70209 0.0
C922 C 0.30267 0.69222 0.70179 0.0
H923 H 0.33496 0.64295 0.66829 0.0
O924 O 0.32644 0.61543 0.70692 0.0
O925 O 0.28941 0.62844 0.72406 0.0
O926 O 0.2914 0.63211 0.65352 0.0
O927 O 0.26076 0.66305 0.66286 0.0
C928 C 0.31816 0.7349 0.71816 0.0
C929 C 0.29657 0.73532 0.73677 0.0
H930 H 0.26892 0.7194 0.78023 0.0
H931 H 0.24737 0.67601 0.78441 0.0
H932 H 0.37091 0.67661 0.66783 0.0
H933 H 0.3648 0.71858 0.69158 0.0
H934 H 0.33287 0.75056 0.71945 0.0
H935 H 0.29486 0.7505 0.75219 0.0
Mn936 Mn 0.38505 0.19661 0.69403 0.0
Mn937 Mn 0.34121 0.21249 0.7422 0.0
C938 C 0.38215 0.24218 0.70911 0.0
C939 C 0.42963 0.18134 0.68798 0.0
C940 C 0.32524 0.21143 0.68233 0.0
O941 O 0.37108 0.1584 0.70517 0.0
O942 O 0.34194 0.17367 0.7357 0.0
C943 C 0.38541 0.18954 0.77505 0.0
N944 N 0.36691 0.20968 0.77117 0.0
C945 C 0.39347 0.24021 0.79846 0.0
C946 C 0.41218 0.21953 0.8034 0.0
C947 C 0.40816 0.19408 0.79157 0.0
C948 C 0.37151 0.23452 0.78144 0.0
H949 H 0.38324 0.17029 0.76513 0.0
C950 C 0.35252 0.1544 0.72272 0.0
O951 O 0.41238 0.18051 0.66803 0.0
O952 O 0.42066 0.18973 0.7109 0.0
N953 N 0.33552 0.24831 0.75461 0.0
C954 C 0.31141 0.26157 0.75376 0.0
C955 C 0.30724 0.28386 0.77084 0.0
C956 C 0.32849 0.29345 0.78716 0.0
C957 C 0.35244 0.2784 0.78888 0.0
C958 C 0.35359 0.25432 0.77425 0.0
H959 H 0.29513 0.25422 0.7411 0.0
O960 O 0.3957 0.23608 0.68767 0.0
O961 O 0.37254 0.22117 0.72137 0.0
O962 O 0.34843 0.20264 0.67373 0.0
O963 O 0.32 0.21714 0.70758 0.0
C964 C 0.37443 0.28511 0.80578 0.0
C965 C 0.39551 0.26625 0.80984 0.0
H966 H 0.42962 0.22293 0.81628 0.0
H967 H 0.4227 0.17807 0.79491 0.0
H968 H 0.28784 0.29377 0.77126 0.0
H969 H 0.32569 0.31149 0.79917 0.0
H970 H 0.37492 0.30422 0.81635 0.0
H971 H 0.41228 0.27136 0.82303 0.0
Mn972 Mn 0.71024 0.39176 0.71161 0.0
Mn973 Mn 0.7162 0.34112 0.75369 0.0
C974 C 0.67274 0.36236 0.71884 0.0
C975 C 0.69991 0.43722 0.70702 0.0
C976 C 0.73053 0.33536 0.69399 0.0
O977 O 0.74817 0.40029 0.72957 0.0
O978 O 0.75038 0.36067 0.7497 0.0
C979 C 0.7165 0.38664 0.79311 0.0
N980 N 0.7061 0.36244 0.78484 0.0
C981 C 0.67051 0.36584 0.81809 0.0
C982 C 0.68163 0.39005 0.8275 0.0
C983 C 0.7046 0.40063 0.81474 0.0
C984 C 0.68276 0.35326 0.7957 0.0
H985 H 0.73342 0.39579 0.78316 0.0
C986 C 0.76151 0.38241 0.7427 0.0
O987 O 0.71371 0.42467 0.68839 0.0
O988 O 0.69322 0.42362 0.72828 0.0
N989 N 0.68641 0.31853 0.76405 0.0
C990 C 0.685 0.29148 0.75959 0.0
C991 C 0.66736 0.27566 0.77534 0.0
C992 C 0.65067 0.28753 0.79475 0.0
C993 C 0.65369 0.31483 0.80047 0.0
C994 C 0.67312 0.32933 0.78565 0.0
H995 H 0.69803 0.28209 0.74475 0.0
O996 O 0.67289 0.37884 0.69857 0.0
O997 O 0.69348 0.36543 0.7346 0.0
O998 O 0.72842 0.36097 0.68993 0.0
O999 O 0.7244 0.32353 0.71704 0.0
C1000 C 0.64049 0.32723 0.82244 0.0
C1001 C 0.64851 0.3531 0.83088 0.0
H1002 H 0.6728 0.40058 0.84459 0.0
H1003 H 0.7131 0.41961 0.82149 0.0
H1004 H 0.66633 0.25433 0.77285 0.0
H1005 H 0.63692 0.27516 0.80636 0.0
H1006 H 0.62507 0.31652 0.8338 0.0
H1007 H 0.63875 0.36227 0.84825 0.0
Mn1008 Mn 0.59927 0.23401 0.31096 0.0
Mn1009 Mn 0.6429 0.22968 0.26149 0.0
C1010 C 0.62054 0.27479 0.29652 0.0
C1011 C 0.55269 0.23796 0.31613 0.0
C1012 C 0.65495 0.21387 0.32136 0.0
O1013 O 0.59905 0.19332 0.29843 0.0
O1014 O 0.61081 0.20655 0.25824 0.0
C1015 C 0.60284 0.25578 0.22548 0.0
N1016 N 0.62918 0.25247 0.23317 0.0
C1017 C 0.64231 0.29308 0.20968 0.0
C1018 C 0.61541 0.2968 0.20144 0.0
C1019 C 0.59557 0.27806 0.20939 0.0
C1020 C 0.64796 0.27116 0.22658 0.0
H1021 H 0.58729 0.24208 0.23239 0.0
C1022 C 0.6053 0.18744 0.27407 0.0
O1023 O 0.56739 0.22831 0.33579 0.0
O1024 O 0.56466 0.24279 0.29346 0.0
N1025 N 0.67471 0.25104 0.25936 0.0
C1026 C 0.69937 0.24384 0.26903 0.0
C1027 C 0.72277 0.25569 0.25861 0.0
C1028 C 0.72056 0.27601 0.23904 0.0
C1029 C 0.69497 0.28345 0.22932 0.0
C1030 C 0.6727 0.26884 0.23879 0.0
H1031 H 0.70106 0.2285 0.2839 0.0
O1032 O 0.60508 0.27473 0.31765 0.0
O1033 O 0.62235 0.25153 0.28534 0.0
O1034 O 0.63362 0.22445 0.33183 0.0
O1035 O 0.65786 0.21005 0.29527 0.0
C1036 C 0.69047 0.30461 0.21079 0.0
C1037 C 0.66378 0.31043 0.20226 0.0
H1038 H 0.60979 0.31386 0.18893 0.0
H1039 H 0.5747 0.28085 0.20327 0.0
H1040 H 0.74229 0.24888 0.26564 0.0
H1041 H 0.73861 0.28572 0.23183 0.0
H1042 H 0.70714 0.31706 0.20387 0.0
H1043 H 0.66011 0.32766 0.1893 0.0
Mn1044 Mn 0.73861 0.59054 0.29949 0.0
Mn1045 Mn 0.74885 0.63239 0.24886 0.0
C1046 C 0.7027 0.60011 0.26955 0.0
C1047 C 0.74224 0.54724 0.31489 0.0
C1048 C 0.72946 0.6517 0.30376 0.0
O1049 O 0.7804 0.59605 0.30145 0.0
O1050 O 0.78119 0.62986 0.27195 0.0
C1051 C 0.78445 0.58862 0.22768 0.0
N1052 N 0.76341 0.60614 0.22389 0.0
C1053 C 0.75266 0.58495 0.18132 0.0
C1054 C 0.77479 0.56759 0.18442 0.0
C1055 C 0.79059 0.56924 0.20789 0.0
C1056 C 0.74695 0.60325 0.2023 0.0
H1057 H 0.79613 0.58858 0.24592 0.0
C1058 C 0.79277 0.61532 0.28961 0.0
O1059 O 0.7401 0.56689 0.33222 0.0
O1060 O 0.74294 0.5529 0.28938 0.0
N1061 N 0.72181 0.638 0.22185 0.0
C1062 C 0.70935 0.66204 0.21762 0.0
C1063 C 0.69873 0.66787 0.19177 0.0
C1064 C 0.69797 0.64791 0.17185 0.0
C1065 C 0.71194 0.62391 0.17597 0.0
C1066 C 0.72538 0.62063 0.20075 0.0
H1067 H 0.71042 0.6773 0.23313 0.0
O1068 O 0.69814 0.5882 0.29238 0.0
O1069 O 0.72838 0.60339 0.26429 0.0
O1070 O 0.73355 0.6286 0.31482 0.0
O1071 O 0.73199 0.6564 0.27781 0.0
C1072 C 0.71658 0.60539 0.15486 0.0
C1073 C 0.73657 0.58541 0.15783 0.0
H1074 H 0.77984 0.55295 0.16892 0.0
H1075 H 0.80741 0.55552 0.21083 0.0
H1076 H 0.69323 0.68807 0.1861 0.0
H1077 H 0.68927 0.65235 0.15246 0.0
H1078 H 0.70599 0.60731 0.13573 0.0
H1079 H 0.74052 0.57159 0.14129 0.0
Mn1080 Mn 0.3977 0.76336 0.22636 0.0
Mn1081 Mn 0.3378 0.7533 0.20065 0.0
C1082 C 0.37943 0.71911 0.22987 0.0
C1083 C 0.44321 0.76396 0.21624 0.0
C1084 C 0.34443 0.77205 0.25926 0.0
O1085 O 0.39126 0.80002 0.20644 0.0
O1086 O 0.34799 0.79151 0.20021 0.0
C1087 C 0.36963 0.76352 0.15026 0.0
N1088 N 0.35138 0.74804 0.16414 0.0
C1089 C 0.35121 0.71555 0.12779 0.0
C1090 C 0.36874 0.73196 0.11284 0.0
C1091 C 0.37827 0.75592 0.12431 0.0
C1092 C 0.34372 0.72402 0.15393 0.0
H1093 H 0.37831 0.78135 0.15877 0.0
C1094 C 0.36755 0.80782 0.20002 0.0
O1095 O 0.4345 0.77571 0.23817 0.0
O1096 O 0.42564 0.75343 0.20021 0.0
N1097 N 0.32195 0.71787 0.1953 0.0
C1098 C 0.30254 0.70545 0.21012 0.0
C1099 C 0.28898 0.68251 0.20014 0.0
C1100 C 0.29537 0.67233 0.17466 0.0
C1101 C 0.31489 0.68536 0.15914 0.0
C1102 C 0.32712 0.70867 0.16984 0.0
H1103 H 0.29967 0.71116 0.23024 0.0
O1104 O 0.4004 0.72628 0.24357 0.0
O1105 O 0.37131 0.73782 0.21298 0.0
O1106 O 0.37027 0.77519 0.25605 0.0
O1107 O 0.32879 0.76068 0.24076 0.0
C1108 C 0.32193 0.67649 0.13301 0.0
C1109 C 0.34048 0.69139 0.11747 0.0
H1110 H 0.37518 0.72624 0.09266 0.0
H1111 H 0.39243 0.76847 0.11328 0.0
H1112 H 0.27475 0.67173 0.21278 0.0
H1113 H 0.28544 0.65438 0.1673 0.0
H1114 H 0.31292 0.65842 0.12455 0.0
H1115 H 0.34575 0.68449 0.09733 0.0
Mn1116 Mn 0.22256 0.39767 0.2664 0.0
Mn1117 Mn 0.23055 0.34103 0.2324 0.0
C1118 C 0.26632 0.37812 0.2641 0.0
C1119 C 0.22512 0.44322 0.26402 0.0
C1120 C 0.21219 0.34234 0.29169 0.0
O1121 O 0.18508 0.39478 0.24751 0.0
O1122 O 0.19447 0.35629 0.22669 0.0
C1123 C 0.2346 0.38041 0.18803 0.0
N1124 N 0.24424 0.35751 0.20005 0.0
C1125 C 0.28831 0.36451 0.18002 0.0
C1126 C 0.27857 0.38765 0.16696 0.0
C1127 C 0.25156 0.39563 0.171 0.0
C1128 C 0.27053 0.35051 0.19704 0.0
H1129 H 0.21439 0.38758 0.19207 0.0
C1130 C 0.17838 0.37544 0.23193 0.0
O1131 O 0.21229 0.43182 0.28407 0.0
O1132 O 0.23268 0.42831 0.24398 0.0
N1133 N 0.26312 0.32084 0.2325 0.0
C1134 C 0.26581 0.2954 0.24238 0.0
C1135 C 0.28811 0.27977 0.23437 0.0
C1136 C 0.30811 0.29091 0.21736 0.0
C1137 C 0.30401 0.31672 0.20652 0.0
C1138 C 0.2796 0.32952 0.21254 0.0
H1139 H 0.2504 0.28689 0.25539 0.0
O1140 O 0.26113 0.3969 0.28133 0.0
O1141 O 0.24587 0.37238 0.24871 0.0
O1142 O 0.21092 0.36819 0.29324 0.0
O1143 O 0.21974 0.32922 0.27009 0.0
C1144 C 0.32255 0.33018 0.18957 0.0
C1145 C 0.31506 0.35481 0.17718 0.0
H1146 H 0.29158 0.39936 0.15377 0.0
H1147 H 0.24392 0.41369 0.16131 0.0
H1148 H 0.29002 0.25944 0.24174 0.0
H1149 H 0.32606 0.27934 0.21238 0.0
H1150 H 0.34238 0.32177 0.18583 0.0
H1151 H 0.32945 0.36525 0.16436 0.0
Mn1152 Mn 0.68766 0.59667 0.71907 0.0
Mn1153 Mn 0.7344 0.6443 0.72573 0.0
C1154 C 0.69714 0.62503 0.68179 0.0
C1155 C 0.68248 0.55102 0.70999 0.0
C1156 C 0.67511 0.65333 0.74159 0.0
O1157 O 0.70431 0.58712 0.75658 0.0
O1158 O 0.73359 0.62094 0.75754 0.0
C1159 C 0.7695 0.59769 0.71438 0.0
N1160 N 0.76385 0.62435 0.71026 0.0
C1161 C 0.78821 0.62384 0.66792 0.0
C1162 C 0.7947 0.59663 0.67208 0.0
C1163 C 0.78525 0.58349 0.69543 0.0
C1164 C 0.77198 0.63665 0.68728 0.0
H1165 H 0.7612 0.58698 0.73145 0.0
C1166 C 0.72298 0.60041 0.76831 0.0
O1167 O 0.66358 0.5642 0.72284 0.0
O1168 O 0.70366 0.56436 0.70266 0.0
N1169 N 0.74171 0.67049 0.69879 0.0
C1170 C 0.73612 0.69722 0.70085 0.0
C1171 C 0.74972 0.71552 0.68411 0.0
C1172 C 0.76773 0.70615 0.66412 0.0
C1173 C 0.77358 0.67851 0.66291 0.0
C1174 C 0.76212 0.66201 0.68272 0.0
H1175 H 0.72164 0.70448 0.71543 0.0
O1176 O 0.67605 0.60957 0.68166 0.0
O1177 O 0.71235 0.62191 0.70296 0.0
O1178 O 0.66734 0.62887 0.73696 0.0
O1179 O 0.69971 0.66194 0.73775 0.0
C1180 C 0.79026 0.66648 0.64319 0.0
C1181 C 0.79664 0.63874 0.64508 0.0
H1182 H 0.8069 0.58568 0.65753 0.0
H1183 H 0.7898 0.56236 0.69866 0.0
H1184 H 0.74532 0.73659 0.68619 0.0
H1185 H 0.77694 0.72024 0.6501 0.0
H1186 H 0.79802 0.6782 0.62649 0.0
H1187 H 0.80898 0.62941 0.62955 0.0
Mn1188 Mn 0.40193 0.76597 0.79287 0.0
Mn1189 Mn 0.34068 0.79006 0.78262 0.0
C1190 C 0.39176 0.78585 0.74997 0.0
C1191 C 0.44473 0.77703 0.80891 0.0
C1192 C 0.35547 0.73012 0.77198 0.0
O1193 O 0.38457 0.76191 0.83161 0.0
O1194 O 0.3433 0.77333 0.81826 0.0
C1195 C 0.35812 0.83099 0.82286 0.0
N1196 N 0.34883 0.82512 0.79746 0.0
C1197 C 0.35466 0.87143 0.78401 0.0
C1198 C 0.36422 0.87774 0.8099 0.0
C1199 C 0.36602 0.85737 0.82941 0.0
C1200 C 0.34838 0.84434 0.77817 0.0
H1201 H 0.35996 0.81579 0.83819 0.0
C1202 C 0.3591 0.76413 0.83608 0.0
O1203 O 0.43752 0.75186 0.80638 0.0
O1204 O 0.42644 0.79508 0.80448 0.0
N1205 N 0.33119 0.81029 0.75008 0.0
C1206 C 0.31156 0.80402 0.7316 0.0
C1207 C 0.30009 0.82385 0.71487 0.0
C1208 C 0.30937 0.85034 0.71626 0.0
C1209 C 0.32832 0.85731 0.73592 0.0
C1210 C 0.33751 0.83695 0.75364 0.0
H1211 H 0.30294 0.78474 0.73052 0.0
O1212 O 0.41364 0.77209 0.75355 0.0
O1213 O 0.378 0.7889 0.7723 0.0
O1214 O 0.3798 0.73262 0.78106 0.0
O1215 O 0.3388 0.75076 0.76909 0.0
C1216 C 0.33559 0.88435 0.74063 0.0
C1217 C 0.34942 0.89132 0.76444 0.0
H1218 H 0.36953 0.89828 0.81524 0.0
H1219 H 0.3733 0.86199 0.84956 0.0
H1220 H 0.28371 0.8188 0.70122 0.0
H1221 H 0.30063 0.86551 0.70335 0.0
H1222 H 0.32927 0.90015 0.72683 0.0
H1223 H 0.35408 0.91233 0.7684 0.0
Mn1224 Mn 0.30757 0.3994 0.73015 0.0
Mn1225 Mn 0.26449 0.35373 0.75481 0.0
C1226 C 0.27325 0.38127 0.70166 0.0
C1227 C 0.31486 0.44574 0.72469 0.0
C1228 C 0.3203 0.3383 0.7323 0.0
O1229 O 0.31709 0.40041 0.77149 0.0
O1230 O 0.28714 0.36904 0.78291 0.0
C1231 C 0.23771 0.40314 0.77446 0.0
N1232 N 0.23555 0.37835 0.7626 0.0
C1233 C 0.1924 0.39037 0.74308 0.0
C1234 C 0.19394 0.41569 0.7556 0.0
C1235 C 0.21676 0.42212 0.77134 0.0
C1236 C 0.21424 0.37267 0.74643 0.0
H1237 H 0.25565 0.40878 0.78555 0.0
C1238 C 0.30563 0.38543 0.78919 0.0
O1239 O 0.33482 0.42879 0.72189 0.0
O1240 O 0.2917 0.43591 0.73161 0.0
N1241 N 0.23863 0.33477 0.73365 0.0
C1242 C 0.23832 0.3075 0.73054 0.0
C1243 C 0.21419 0.29462 0.72282 0.0
C1244 C 0.19099 0.30998 0.71682 0.0
C1245 C 0.19143 0.3378 0.72173 0.0
C1246 C 0.21504 0.3486 0.73293 0.0
H1247 H 0.25612 0.29567 0.7351 0.0
O1248 O 0.29309 0.39497 0.69164 0.0
O1249 O 0.27375 0.37999 0.72782 0.0
O1250 O 0.32798 0.36276 0.72749 0.0
O1251 O 0.2965 0.33185 0.74173 0.0
C1252 C 0.16909 0.35502 0.71768 0.0
C1253 C 0.17004 0.3818 0.72747 0.0
H1254 H 0.17769 0.43023 0.75344 0.0
H1255 H 0.21832 0.44174 0.78083 0.0
H1256 H 0.21365 0.27297 0.72122 0.0
H1257 H 0.17276 0.30011 0.70964 0.0
H1258 H 0.15093 0.3477 0.70781 0.0
H1259 H 0.15285 0.39503 0.72433 0.0
Mn1260 Mn 0.58615 0.21336 0.7107 0.0
Mn1261 Mn 0.64531 0.19646 0.73483 0.0
C1262 C 0.62129 0.19982 0.67919 0.0
C1263 C 0.54183 0.19866 0.70342 0.0
C1264 C 0.62475 0.25548 0.72625 0.0
O1265 O 0.58351 0.21567 0.75434 0.0
O1266 O 0.6146 0.18498 0.75685 0.0
C1267 C 0.63457 0.13806 0.7268 0.0
N1268 N 0.65213 0.15931 0.72586 0.0
C1269 C 0.68707 0.13136 0.70669 0.0
C1270 C 0.66961 0.10907 0.70789 0.0
C1271 C 0.64309 0.11253 0.71772 0.0
C1272 C 0.67676 0.15647 0.71447 0.0
H1273 H 0.61415 0.14061 0.73426 0.0
C1274 C 0.5993 0.20107 0.76907 0.0
O1275 O 0.54776 0.22408 0.70537 0.0
O1276 O 0.56133 0.18149 0.70746 0.0
N1277 N 0.67865 0.20433 0.7165 0.0
C1278 C 0.69301 0.22875 0.71816 0.0
C1279 C 0.72099 0.22657 0.71446 0.0
C1280 C 0.73428 0.20179 0.70977 0.0
C1281 C 0.71949 0.17803 0.70708 0.0
C1282 C 0.69186 0.17941 0.71173 0.0
H1283 H 0.67503 0.21797 0.71925 0.0
O1284 O 0.59836 0.20932 0.67058 0.0
O1285 O 0.62125 0.19655 0.70492 0.0
O1286 O 0.60454 0.24952 0.71159 0.0
O1287 O 0.63807 0.23737 0.74001 0.0
C1288 C 0.73115 0.15287 0.70084 0.0
C1289 C 0.71462 0.12963 0.69938 0.0
H1290 H 0.67647 0.08921 0.7018 0.0
H1291 H 0.62939 0.0955 0.71864 0.0
H1292 H 0.73239 0.24486 0.71554 0.0
H1293 H 0.7561 0.20141 0.70738 0.0
H1294 H 0.75267 0.15138 0.69721 0.0
H1295 H 0.72345 0.11037 0.69404 0.0
Mn1296 Mn 0.73881 0.39402 0.27941 0.0
Mn1297 Mn 0.77156 0.34288 0.25127 0.0
C1298 C 0.76344 0.36381 0.3072 0.0
C1299 C 0.73884 0.43813 0.29367 0.0
C1300 C 0.71273 0.33902 0.26852 0.0
O1301 O 0.7348 0.40333 0.23826 0.0
O1302 O 0.75258 0.36463 0.22415 0.0
C1303 C 0.8085 0.38661 0.23374 0.0
N1304 N 0.80502 0.36193 0.24553 0.0
C1305 C 0.84916 0.36477 0.26638 0.0
C1306 C 0.85334 0.3898 0.25389 0.0
C1307 C 0.83288 0.40077 0.2375 0.0
C1308 C 0.82431 0.3518 0.26206 0.0
H1309 H 0.79273 0.39575 0.22181 0.0
C1310 C 0.74033 0.38655 0.21936 0.0
O1311 O 0.71613 0.42544 0.28961 0.0
O1312 O 0.76112 0.42589 0.28723 0.0
N1313 N 0.79298 0.31836 0.27187 0.0
C1314 C 0.78793 0.29172 0.27564 0.0
C1315 C 0.8084 0.27487 0.28594 0.0
C1316 C 0.83353 0.28596 0.29319 0.0
C1317 C 0.8388 0.31314 0.2876 0.0
C1318 C 0.81847 0.32789 0.27463 0.0
H1319 H 0.7685 0.28374 0.27055 0.0
O1320 O 0.74613 0.3804 0.3175 0.0
O1321 O 0.76708 0.36716 0.2813 0.0
O1322 O 0.71089 0.36425 0.27372 0.0
O1323 O 0.73522 0.3269 0.26171 0.0
C1324 C 0.86377 0.32583 0.29294 0.0
C1325 C 0.86871 0.35203 0.28284 0.0
H1326 H 0.87218 0.40067 0.25663 0.0
H1327 H 0.8358 0.42021 0.22794 0.0
H1328 H 0.80454 0.25371 0.28938 0.0
H1329 H 0.84863 0.27335 0.30251 0.0
H1330 H 0.87959 0.31531 0.30389 0.0
H1331 H 0.88809 0.36156 0.28665 0.0
Mn1332 Mn 0.5891 0.71095 0.20185 0.0
Mn1333 Mn 0.6474 0.74046 0.1965 0.0
C1334 C 0.604 0.7384 0.23919 0.0
C1335 C 0.54538 0.7197 0.18911 0.0
C1336 C 0.63739 0.67995 0.21506 0.0
O1337 O 0.60459 0.6985 0.1634 0.0
O1338 O 0.62637 0.73602 0.1633 0.0
C1339 C 0.61413 0.78879 0.1865 0.0
N1340 N 0.6372 0.77793 0.19728 0.0
C1341 C 0.64113 0.81532 0.22845 0.0
C1342 C 0.61782 0.82694 0.21728 0.0
C1343 C 0.60422 0.81357 0.19622 0.0
C1344 C 0.64932 0.79014 0.21854 0.0
H1345 H 0.60269 0.77814 0.17123 0.0
C1346 C 0.62179 0.71395 0.15188 0.0
O1347 O 0.55269 0.69523 0.19544 0.0
O1348 O 0.56411 0.73771 0.18666 0.0
N1349 N 0.67201 0.74972 0.22455 0.0
C1350 C 0.69576 0.7368 0.22945 0.0
C1351 C 0.71614 0.74972 0.24431 0.0
C1352 C 0.71156 0.77561 0.2549 0.0
C1353 C 0.68743 0.78905 0.2486 0.0
C1354 C 0.66939 0.77602 0.23119 0.0
H1355 H 0.69984 0.71787 0.21998 0.0
O1356 O 0.58128 0.72563 0.24063 0.0
O1357 O 0.61531 0.73569 0.21611 0.0
O1358 O 0.61168 0.68133 0.21744 0.0
O1359 O 0.65228 0.69923 0.20407 0.0
C1360 C 0.68066 0.81494 0.25823 0.0
C1361 C 0.65654 0.82746 0.24924 0.0
H1362 H 0.6103 0.84615 0.22458 0.0
H1363 H 0.58599 0.82221 0.18766 0.0
H1364 H 0.73542 0.73989 0.24709 0.0
H1365 H 0.72692 0.78516 0.26713 0.0
H1366 H 0.69355 0.82509 0.27274 0.0
H1367 H 0.65081 0.84693 0.25738 0.0
Mn1368 Mn 0.27791 0.58802 0.27682 0.0
Mn1369 Mn 0.23768 0.63861 0.28126 0.0
C1370 C 0.27523 0.61087 0.31936 0.0
C1371 C 0.2776 0.54228 0.2774 0.0
C1372 C 0.29747 0.64523 0.26628 0.0
O1373 O 0.25812 0.58704 0.2385 0.0
O1374 O 0.24059 0.62721 0.24353 0.0
C1375 C 0.19831 0.59329 0.27229 0.0
N1376 N 0.20704 0.61466 0.28754 0.0
C1377 C 0.1739 0.60411 0.32179 0.0
C1378 C 0.16469 0.58236 0.3063 0.0
C1379 C 0.17708 0.57686 0.28146 0.0
C1380 C 0.19609 0.6191 0.31211 0.0
H1381 H 0.20726 0.5883 0.25325 0.0
C1382 C 0.24616 0.60763 0.22845 0.0
O1383 O 0.29744 0.55474 0.26521 0.0
O1384 O 0.25904 0.55635 0.28902 0.0
N1385 N 0.22729 0.65439 0.31495 0.0
C1386 C 0.23028 0.68096 0.32025 0.0
C1387 C 0.21292 0.69361 0.33896 0.0
C1388 C 0.1946 0.6785 0.35417 0.0
C1389 C 0.19041 0.65164 0.34737 0.0
C1390 C 0.20578 0.64099 0.32595 0.0
H1391 H 0.2442 0.69228 0.30818 0.0
O1392 O 0.29415 0.59337 0.31503 0.0
O1393 O 0.25802 0.61195 0.29946 0.0
O1394 O 0.30028 0.61964 0.26334 0.0
O1395 O 0.27505 0.65694 0.27534 0.0
C1396 C 0.16884 0.63655 0.35824 0.0
C1397 C 0.16102 0.61231 0.34579 0.0
H1398 H 0.14782 0.57008 0.31304 0.0
H1399 H 0.17017 0.56007 0.26925 0.0
H1400 H 0.21314 0.71494 0.34191 0.0
H1401 H 0.18206 0.68831 0.3692 0.0
H1402 H 0.15716 0.64419 0.37517 0.0
H1403 H 0.14387 0.60117 0.35372 0.0
Mn1404 Mn 0.39465 0.26504 0.29776 0.0
Mn1405 Mn 0.34378 0.22875 0.27307 0.0
C1406 C 0.36175 0.24756 0.32785 0.0
C1407 C 0.43984 0.26274 0.3111 0.0
C1408 C 0.34122 0.29007 0.27685 0.0
O1409 O 0.40611 0.26099 0.25743 0.0
O1410 O 0.36923 0.23898 0.24459 0.0
C1411 C 0.38712 0.18782 0.27182 0.0
N1412 N 0.36105 0.19448 0.27826 0.0
C1413 C 0.35846 0.15749 0.30991 0.0
C1414 C 0.38488 0.14985 0.30293 0.0
C1415 C 0.39931 0.16517 0.28385 0.0
C1416 C 0.34764 0.18054 0.29756 0.0
H1417 H 0.39882 0.19998 0.25803 0.0
C1418 C 0.39155 0.25019 0.23911 0.0
O1419 O 0.42904 0.28571 0.30412 0.0
O1420 O 0.4245 0.2417 0.31027 0.0
N1421 N 0.3154 0.21454 0.29496 0.0
C1422 C 0.28866 0.22087 0.2927 0.0
C1423 C 0.26912 0.20364 0.30411 0.0
C1424 C 0.27733 0.18094 0.31902 0.0
C1425 C 0.30482 0.174 0.31961 0.0
C1426 C 0.32268 0.19016 0.30483 0.0
H1427 H 0.28236 0.2386 0.28172 0.0
O1428 O 0.37905 0.26538 0.336 0.0
O1429 O 0.36586 0.23959 0.30318 0.0
O1430 O 0.36587 0.29288 0.28515 0.0
O1431 O 0.32948 0.26684 0.27265 0.0
C1432 C 0.3151 0.15097 0.33281 0.0
C1433 C 0.3423 0.14317 0.32858 0.0
H1434 H 0.39424 0.13228 0.31204 0.0
H1435 H 0.41988 0.15967 0.27859 0.0
H1436 H 0.24788 0.20815 0.30203 0.0
H1437 H 0.26233 0.16861 0.32904 0.0
H1438 H 0.30214 0.13872 0.34551 0.0
H1439 H 0.35008 0.12532 0.33857 0.0
Mn1440 Mn 0.70484 0.76718 0.58254 0.0
Mn1441 Mn 0.72762 0.78799 0.64215 0.0
C1442 C 0.67406 0.78599 0.61481 0.0
C1443 C 0.69671 0.77767 0.53721 0.0
C1444 C 0.71045 0.72963 0.63208 0.0
O1445 O 0.74709 0.76382 0.57704 0.0
O1446 O 0.75701 0.77446 0.61949 0.0
C1447 C 0.75019 0.83382 0.61069 0.0
N1448 N 0.73426 0.82464 0.6313 0.0
C1449 C 0.71647 0.86926 0.63888 0.0
C1450 C 0.73282 0.87911 0.6179 0.0
C1451 C 0.7497 0.86127 0.6037 0.0
C1452 C 0.71691 0.84143 0.64412 0.0
H1453 H 0.76292 0.82033 0.5993 0.0
C1454 C 0.76427 0.76644 0.59634 0.0
O1455 O 0.69796 0.75274 0.54537 0.0
O1456 O 0.70145 0.79622 0.55502 0.0
N1457 N 0.70503 0.80349 0.6693 0.0
C1458 C 0.70394 0.79357 0.69499 0.0
C1459 C 0.69659 0.8107 0.71649 0.0
C1460 C 0.68809 0.83715 0.71115 0.0
C1461 C 0.69149 0.84768 0.68509 0.0
C1462 C 0.70237 0.8305 0.66523 0.0
H1463 H 0.71074 0.77324 0.69915 0.0
O1464 O 0.66532 0.77311 0.59382 0.0
O1465 O 0.7002 0.78905 0.61468 0.0
O1466 O 0.70683 0.73323 0.60657 0.0
O1467 O 0.71653 0.74902 0.649 0.0
C1468 C 0.68932 0.87549 0.67958 0.0
C1469 C 0.70122 0.88619 0.65598 0.0
H1470 H 0.73307 0.90042 0.61298 0.0
H1471 H 0.7624 0.86868 0.58744 0.0
H1472 H 0.69804 0.80376 0.73719 0.0
H1473 H 0.68198 0.85002 0.72775 0.0
H1474 H 0.68041 0.88907 0.69429 0.0
H1475 H 0.70053 0.90776 0.65246 0.0
Mn1476 Mn 0.79858 0.22059 0.39709 0.0
Mn1477 Mn 0.78492 0.19526 0.33664 0.0
C1478 C 0.75334 0.20737 0.38654 0.0
C1479 C 0.81117 0.21255 0.44166 0.0
C1480 C 0.78434 0.25578 0.34739 0.0
O1481 O 0.83769 0.21588 0.38114 0.0
O1482 O 0.82334 0.20418 0.34017 0.0
C1483 C 0.81348 0.14763 0.35927 0.0
N1484 N 0.79101 0.15842 0.34729 0.0
C1485 C 0.76468 0.11914 0.35916 0.0
C1486 C 0.78772 0.10744 0.37083 0.0
C1487 C 0.81223 0.12179 0.37091 0.0
C1488 C 0.76712 0.14512 0.3482 0.0
H1489 H 0.83227 0.15858 0.36015 0.0
C1490 C 0.84227 0.21066 0.35617 0.0
O1491 O 0.81347 0.23651 0.43111 0.0
O1492 O 0.80409 0.19316 0.42562 0.0
N1493 N 0.74951 0.18315 0.32724 0.0
C1494 C 0.73467 0.19235 0.30606 0.0
C1495 C 0.71194 0.17752 0.29726 0.0
C1496 C 0.70435 0.15395 0.31104 0.0
C1497 C 0.7218 0.14326 0.33062 0.0
C1498 C 0.74543 0.15774 0.33641 0.0
H1499 H 0.74124 0.2102 0.29546 0.0
O1500 O 0.75843 0.22217 0.40742 0.0
O1501 O 0.77517 0.19985 0.3739 0.0
O1502 O 0.79374 0.25298 0.37151 0.0
O1503 O 0.77774 0.23556 0.33155 0.0
C1504 C 0.71821 0.1176 0.34235 0.0
C1505 C 0.73955 0.10574 0.35719 0.0
H1506 H 0.78688 0.08741 0.37957 0.0
H1507 H 0.8301 0.11304 0.3801 0.0
H1508 H 0.7005 0.18377 0.2797 0.0
H1509 H 0.68644 0.14308 0.30486 0.0
H1510 H 0.69979 0.10623 0.33883 0.0
H1511 H 0.737 0.08566 0.36548 0.0
Mn1512 Mn 0.69036 0.78785 0.37987 0.0
Mn1513 Mn 0.73867 0.77812 0.33436 0.0
C1514 C 0.70662 0.7437 0.37204 0.0
C1515 C 0.6828 0.7985 0.42512 0.0
C1516 C 0.67879 0.77601 0.31995 0.0
O1517 O 0.69925 0.82753 0.36896 0.0
O1518 O 0.72873 0.8162 0.33702 0.0
C1519 C 0.77133 0.8019 0.37831 0.0
N1520 N 0.76834 0.7823 0.35912 0.0
C1521 C 0.80055 0.75377 0.38218 0.0
C1522 C 0.8044 0.77393 0.40168 0.0
C1523 C 0.78966 0.79809 0.39976 0.0
C1524 C 0.78169 0.75863 0.36157 0.0
H1525 H 0.7594 0.82009 0.37768 0.0
C1526 C 0.71507 0.83383 0.3495 0.0
O1527 O 0.66311 0.80014 0.40765 0.0
O1528 O 0.70645 0.79233 0.41603 0.0
N1529 N 0.75365 0.74345 0.32718 0.0
C1530 C 0.75015 0.72869 0.30434 0.0
C1531 C 0.76795 0.70731 0.29856 0.0
C1532 C 0.78796 0.7001 0.31746 0.0
C1533 C 0.79134 0.71583 0.34077 0.0
C1534 C 0.77526 0.7389 0.3433 0.0
H1535 H 0.73367 0.7333 0.29106 0.0
O1536 O 0.68537 0.74762 0.38666 0.0
O1537 O 0.71897 0.76585 0.36529 0.0
O1538 O 0.67033 0.78378 0.34342 0.0
O1539 O 0.70417 0.77199 0.31365 0.0
C1540 C 0.81045 0.71022 0.36119 0.0
C1541 C 0.81446 0.72889 0.38243 0.0
H1542 H 0.81863 0.7711 0.41814 0.0
H1543 H 0.79223 0.81367 0.41489 0.0
H1544 H 0.76557 0.69576 0.28023 0.0
H1545 H 0.80063 0.68273 0.31371 0.0
H1546 H 0.82239 0.69191 0.36057 0.0
H1547 H 0.8291 0.72445 0.39815 0.0
Mn1548 Mn 0.27769 0.76429 0.41012 0.0
Mn1549 Mn 0.26289 0.74625 0.37165 0.0
C1550 C 0.30029 0.78605 0.36909 0.0
C1551 C 0.29003 0.78918 0.44875 0.0
C1552 C 0.26722 0.70108 0.39021 0.0
O1553 O 0.23658 0.76138 0.42431 0.0
O1554 O 0.22789 0.75744 0.38226 0.0
C1555 C 0.22631 0.76257 0.32878 0.0
N1556 N 0.24983 0.75032 0.33687 0.0
C1557 C 0.26082 0.73847 0.29241 0.0
C1558 C 0.23477 0.74522 0.28522 0.0
C1559 C 0.21753 0.75838 0.30276 0.0
C1560 C 0.26716 0.73931 0.31928 0.0
H1561 H 0.21325 0.77372 0.34223 0.0
C1562 C 0.21918 0.76109 0.40525 0.0
O1563 O 0.29273 0.76333 0.44758 0.0
O1564 O 0.27919 0.8008 0.428 0.0
N1565 N 0.29648 0.73344 0.35526 0.0
C1566 C 0.32155 0.72812 0.36605 0.0
C1567 C 0.34313 0.7219 0.34899 0.0
C1568 C 0.33869 0.72083 0.32117 0.0
C1569 C 0.31253 0.72415 0.31065 0.0
C1570 C 0.29198 0.73094 0.32862 0.0
H1571 H 0.3255 0.72931 0.38753 0.0
O1572 O 0.3132 0.77605 0.3896 0.0
O1573 O 0.27482 0.78185 0.3712 0.0
O1574 O 0.28171 0.71885 0.40354 0.0
O1575 O 0.25065 0.71064 0.3739 0.0
C1576 C 0.30649 0.72429 0.28285 0.0
C1577 C 0.28036 0.7312 0.27387 0.0
H1578 H 0.22801 0.73971 0.26651 0.0
H1579 H 0.19777 0.76475 0.29637 0.0
H1580 H 0.36331 0.7192 0.35714 0.0
H1581 H 0.356 0.71993 0.30833 0.0
H1582 H 0.32211 0.7211 0.26824 0.0
H1583 H 0.27545 0.73413 0.25294 0.0
Mn1584 Mn 0.20762 0.2318 0.40632 0.0
Mn1585 Mn 0.192 0.22978 0.34089 0.0
C1586 C 0.19715 0.27242 0.38321 0.0
C1587 C 0.19323 0.22981 0.4507 0.0
C1588 C 0.25044 0.23304 0.36077 0.0
O1589 O 0.20383 0.1902 0.40015 0.0
O1590 O 0.19695 0.19389 0.35595 0.0
C1591 C 0.1392 0.21193 0.36288 0.0
N1592 N 0.15345 0.22828 0.34579 0.0
C1593 C 0.11483 0.25764 0.34042 0.0
C1594 C 0.09964 0.24068 0.35729 0.0
C1595 C 0.11193 0.21777 0.36866 0.0
C1596 C 0.14208 0.25108 0.336 0.0
H1597 H 0.1486 0.19477 0.37243 0.0
C1598 C 0.20062 0.17961 0.37678 0.0
O1599 O 0.21844 0.22537 0.44448 0.0
O1600 O 0.1762 0.23357 0.43115 0.0
N1601 N 0.18491 0.26068 0.31923 0.0
C1602 C 0.19935 0.26691 0.29663 0.0
C1603 C 0.18759 0.28326 0.27657 0.0
C1604 C 0.16191 0.29474 0.28081 0.0
C1605 C 0.14671 0.28648 0.30325 0.0
C1606 C 0.15831 0.26718 0.32038 0.0
H1607 H 0.21917 0.25814 0.29344 0.0
O1608 O 0.2089 0.27289 0.40657 0.0
O1609 O 0.1909 0.24832 0.37512 0.0
O1610 O 0.24394 0.23033 0.3858 0.0
O1611 O 0.23285 0.23463 0.34108 0.0
C1612 C 0.11963 0.29426 0.30772 0.0
C1613 C 0.10389 0.28034 0.32708 0.0
H1614 H 0.0785 0.24491 0.36143 0.0
H1615 H 0.10046 0.2047 0.38196 0.0
H1616 H 0.19833 0.28697 0.25794 0.0
H1617 H 0.15339 0.30825 0.26581 0.0
H1618 H 0.11036 0.3099 0.2955 0.0
H1619 H 0.08288 0.28597 0.33005 0.0
Mn1620 Mn 0.19184 0.26089 0.60626 0.0
Mn1621 Mn 0.19828 0.2338 0.66718 0.0
C1622 C 0.23153 0.23579 0.61669 0.0
C1623 C 0.17669 0.25348 0.56249 0.0
C1624 C 0.21562 0.29164 0.65496 0.0
O1625 O 0.15324 0.26772 0.62213 0.0
O1626 O 0.16279 0.25068 0.66255 0.0
C1627 C 0.16247 0.19389 0.64132 0.0
N1628 N 0.18452 0.19899 0.65723 0.0
C1629 C 0.20309 0.15509 0.64705 0.0
C1630 C 0.18023 0.14922 0.63131 0.0
C1631 C 0.15986 0.16877 0.62837 0.0
C1632 C 0.20471 0.18067 0.65898 0.0
H1633 H 0.14728 0.2091 0.63785 0.0
C1634 C 0.14662 0.26237 0.64654 0.0
O1635 O 0.18142 0.27794 0.57093 0.0
O1636 O 0.17819 0.23434 0.58012 0.0
N1637 N 0.2298 0.21502 0.67864 0.0
C1638 C 0.24667 0.22288 0.69889 0.0
C1639 C 0.26414 0.20389 0.71066 0.0
C1640 C 0.26539 0.17745 0.70043 0.0
C1641 C 0.24693 0.16963 0.68039 0.0
C1642 C 0.22767 0.18861 0.67227 0.0
H1643 H 0.2461 0.24328 0.7065 0.0
O1644 O 0.23049 0.25081 0.59541 0.0
O1645 O 0.20888 0.2352 0.62998 0.0
O1646 O 0.2064 0.29169 0.63053 0.0
O1647 O 0.2149 0.2708 0.67105 0.0
C1648 C 0.24605 0.1437 0.66876 0.0
C1649 C 0.22454 0.13674 0.65123 0.0
H1650 H 0.17812 0.12982 0.62142 0.0
H1651 H 0.1423 0.16462 0.61592 0.0
H1652 H 0.27697 0.20984 0.7272 0.0
H1653 H 0.27995 0.16329 0.7086 0.0
H1654 H 0.26154 0.12897 0.67329 0.0
H1655 H 0.22402 0.11684 0.64218 0.0
Mn1656 Mn 0.77513 0.2149 0.59937 0.0
Mn1657 Mn 0.7909 0.23069 0.66189 0.0
C1658 C 0.77177 0.26068 0.61364 0.0
C1659 C 0.79078 0.20716 0.55564 0.0
C1660 C 0.73311 0.21545 0.64591 0.0
O1661 O 0.79167 0.1786 0.61365 0.0
O1662 O 0.79116 0.19117 0.65672 0.0
C1663 C 0.84433 0.21579 0.63852 0.0
N1664 N 0.82915 0.23353 0.65337 0.0
C1665 C 0.8615 0.26891 0.64365 0.0
C1666 C 0.8771 0.25084 0.62855 0.0
C1667 C 0.86848 0.2241 0.62605 0.0
C1668 C 0.83712 0.25957 0.65498 0.0
H1669 H 0.83785 0.19564 0.63484 0.0
C1670 C 0.79342 0.17294 0.63886 0.0
O1671 O 0.76764 0.19743 0.56368 0.0
O1672 O 0.805 0.22032 0.57321 0.0
N1673 N 0.79484 0.26749 0.67403 0.0
C1674 C 0.78057 0.28021 0.69379 0.0
C1675 C 0.7899 0.30509 0.70433 0.0
C1676 C 0.81344 0.3169 0.69402 0.0
C1677 C 0.82873 0.30277 0.67507 0.0
C1678 C 0.81975 0.27702 0.66747 0.0
H1679 H 0.76196 0.27173 0.70083 0.0
O1680 O 0.76091 0.25286 0.59114 0.0
O1681 O 0.78595 0.2418 0.62519 0.0
O1682 O 0.74087 0.20731 0.62238 0.0
O1683 O 0.74931 0.22791 0.66306 0.0
C1684 C 0.85324 0.31264 0.66443 0.0
C1685 C 0.86913 0.29598 0.64773 0.0
H1686 H 0.89585 0.25719 0.61907 0.0
H1687 H 0.88025 0.2099 0.61425 0.0
H1688 H 0.77842 0.31614 0.71926 0.0
H1689 H 0.81988 0.33648 0.7012 0.0
H1690 H 0.86018 0.33283 0.66924 0.0
H1691 H 0.88784 0.30373 0.63928 0.0
Mn1692 Mn 0.30312 0.80574 0.59989 0.0
Mn1693 Mn 0.2616 0.78347 0.64659 0.0
C1694 C 0.29707 0.75765 0.60423 0.0
C1695 C 0.30524 0.82081 0.55536 0.0
C1696 C 0.32174 0.79488 0.65837 0.0
O1697 O 0.28489 0.84212 0.61298 0.0
O1698 O 0.2622 0.82273 0.64609 0.0
C1699 C 0.22525 0.80148 0.60259 0.0
N1700 N 0.23145 0.78266 0.6219 0.0
C1701 C 0.20524 0.74912 0.59799 0.0
C1702 C 0.19823 0.76831 0.57842 0.0
C1703 C 0.20831 0.79466 0.58077 0.0
C1704 C 0.22294 0.75702 0.61877 0.0
H1705 H 0.23382 0.82139 0.60311 0.0
C1706 C 0.26956 0.84372 0.6338 0.0
O1707 O 0.32505 0.82577 0.57204 0.0
O1708 O 0.28443 0.80828 0.56484 0.0
N1709 N 0.25267 0.74675 0.65379 0.0
C1710 C 0.25248 0.73721 0.67956 0.0
C1711 C 0.23435 0.7164 0.68685 0.0
C1712 C 0.21889 0.70342 0.667 0.0
C1713 C 0.21772 0.71487 0.64127 0.0
C1714 C 0.23233 0.73872 0.63715 0.0
H1715 H 0.26329 0.74819 0.695 0.0
O1716 O 0.31669 0.76754 0.59016 0.0
O1717 O 0.28141 0.77635 0.61403 0.0
O1718 O 0.32601 0.8051 0.63478 0.0
O1719 O 0.29851 0.78414 0.666 0.0
C1720 C 0.19993 0.70592 0.62084 0.0
C1721 C 0.19495 0.72258 0.59821 0.0
H1722 H 0.18486 0.76316 0.56181 0.0
H1723 H 0.20332 0.80964 0.56561 0.0
H1724 H 0.23109 0.7113 0.70782 0.0
H1725 H 0.20592 0.68662 0.67245 0.0
H1726 H 0.18939 0.68685 0.62278 0.0
H1727 H 0.18128 0.71576 0.58248 0.0
C1728 C 0.97986 0.25616 0.16715 0.0
C1729 C 0.97115 0.23092 0.17709 0.0
H1730 H 0.01359 0.28037 0.15442 0.0
C1731 C 0.98929 0.20918 0.17709 0.0
H1732 H 0.96614 0.27323 0.16647 0.0
C1733 C 0.01635 0.21334 0.16984 0.0
C1734 C 0.02545 0.23911 0.16205 0.0
H1735 H 0.98308 0.18952 0.18442 0.0
H1736 H 0.03068 0.19696 0.17244 0.0
C1737 C 0.00684 0.26022 0.15966 0.0
C1738 C 0.76461 0.98858 0.20428 0.0
C1739 C 0.74916 0.96936 0.19054 0.0
H1740 H 0.76823 0.02964 0.21624 0.0
C1741 C 0.72611 0.97761 0.17577 0.0
H1742 H 0.78242 0.98282 0.21574 0.0
C1743 C 0.71795 0.00465 0.17588 0.0
C1744 C 0.7325 0.02342 0.19121 0.0
H1745 H 0.71393 0.96304 0.16484 0.0
H1746 H 0.69979 0.01059 0.16508 0.0
C1747 C 0.75624 0.01532 0.20476 0.0
C1748 C 0.01927 0.72895 0.29297 0.0
C1749 C 0.02515 0.7526 0.30773 0.0
H1750 H 0.98895 0.70588 0.27211 0.0
C1751 C 0.00392 0.76947 0.31585 0.0
H1752 H 0.03534 0.7157 0.28611 0.0
C1753 C 0.97739 0.76348 0.30823 0.0
C1754 C 0.97186 0.74102 0.29165 0.0
H1755 H 0.00797 0.78788 0.32697 0.0
H1756 H 0.9614 0.77731 0.31404 0.0
C1757 C 0.99285 0.72344 0.28459 0.0
C1758 C 0.26062 0.99408 0.19013 0.0
C1759 C 0.23769 0.98009 0.18119 0.0
H1760 H 0.27603 0.02504 0.21566 0.0
C1761 C 0.21179 0.99003 0.18736 0.0
H1762 H 0.28076 0.9863 0.18605 0.0
C1763 C 0.20891 0.01174 0.20513 0.0
C1764 C 0.23195 0.02372 0.21667 0.0
H1765 H 0.19385 0.97901 0.18118 0.0
H1766 H 0.18873 0.01837 0.21067 0.0
C1767 C 0.25782 0.0155 0.20803 0.0
C1768 C 0.98935 0.72183 0.66522 0.0
C1769 C 0.96889 0.70534 0.67578 0.0
H1770 H 0.0319 0.72958 0.66295 0.0
C1771 C 0.97607 0.68193 0.69032 0.0
H1772 H 0.98432 0.73998 0.65406 0.0
C1773 C 0.00321 0.67643 0.69623 0.0
C1774 C 0.0236 0.69372 0.68688 0.0
H1775 H 0.96063 0.66896 0.69891 0.0
H1776 H 0.00815 0.65935 0.70902 0.0
C1777 C 0.01654 0.71579 0.67032 0.0
C1778 C 0.17342 0.01539 0.77396 0.0
C1779 C 0.1935 0.0244 0.79219 0.0
H1780 H 0.15357 0.98134 0.7557 0.0
C1781 C 0.20687 0.0055 0.80847 0.0
H1782 H 0.16252 0.0296 0.76133 0.0
C1783 C 0.2018 0.97797 0.80508 0.0
C1784 C 0.18297 0.96887 0.78566 0.0
H1785 H 0.22229 0.01183 0.82275 0.0
H1786 H 0.21351 0.96368 0.81688 0.0
C1787 C 0.16804 0.98782 0.77086 0.0
C1788 C 0.00295 0.28733 0.8338 0.0
C1789 C 0.01951 0.30301 0.81687 0.0
H1790 H 0.96274 0.28021 0.84858 0.0
C1791 C 0.00869 0.32627 0.8047 0.0
H1792 H 0.01092 0.26942 0.84356 0.0
C1793 C 0.98104 0.33215 0.80719 0.0
C1794 C 0.96413 0.31553 0.82282 0.0
H1795 H 0.0211 0.33867 0.79154 0.0
H1796 H 0.97251 0.34849 0.79534 0.0
C1797 C 0.97555 0.29382 0.8371 0.0
C1798 C 0.80907 -0.00018 0.76321 0.0
C1799 C 0.82537 0.01412 0.7814 0.0
H1800 H 0.7902 0.96256 0.75331 0.0
C1801 C 0.83709 0.0005 0.80348 0.0
H1802 H 0.79964 0.00999 0.7462 0.0
C1803 C 0.83115 0.97313 0.80807 0.0
C1804 C 0.81366 0.95923 0.79044 0.0
H1805 H 0.84932 0.01139 0.81806 0.0
H1806 H 0.83951 0.96314 0.82571 0.0
C1807 C 0.80346 0.9727 0.76753 0.0
C1808 C 0.31929 0.28383 0.02081 0.0
C1809 C 0.32607 0.25724 0.02859 0.0
H1810 H 0.30578 0.30986 0.98888 0.0
C1811 C 0.32945 0.23751 0.00856 0.0
H1812 H 0.31684 0.2997 0.0357 0.0
C1813 C 0.32392 0.24381 0.9815 0.0
C1814 C 0.31427 0.26962 0.97445 0.0
H1815 H 0.3346 0.21694 0.01393 0.0
H1816 H 0.32524 0.22797 0.96643 0.0
C1817 C 0.31281 0.28979 0.99406 0.0
C1818 C 0.20782 0.68273 0.99016 0.0
C1819 C 0.1944 0.70371 0.97657 0.0
H1820 H 0.213 0.6618 0.02789 0.0
C1821 C 0.1727 0.71691 0.9893 0.0
H1822 H 0.22448 0.67215 0.98058 0.0
C1823 C 0.16519 0.70997 0.01569 0.0
C1824 C 0.17983 0.69031 0.02999 0.0
H1825 H 0.1618 0.73287 0.97898 0.0
H1826 H 0.14934 0.72143 0.02563 0.0
C1827 C 0.20099 0.6765 0.01695 0.0
C1828 C 0.67462 0.27403 0.98141 0.0
C1829 C 0.69272 0.25418 0.97219 0.0
H1830 H 0.66572 0.30295 0.01277 0.0
C1831 C 0.71734 0.25036 0.98582 0.0
H1832 H 0.65584 0.27777 0.97068 0.0
C1833 C 0.72375 0.26584 0.00846 0.0
C1834 C 0.7053 0.28492 0.01857 0.0
H1835 H 0.73198 0.23574 0.97856 0.0
H1836 H 0.74266 0.26184 0.01888 0.0
C1837 C 0.68052 0.28878 0.00499 0.0
C1838 C 0.8222 0.68626 0.97315 0.0
C1839 C 0.80536 0.66769 0.95989 0.0
H1840 H 0.82891 0.70935 0.00927 0.0
C1841 C 0.78501 0.65439 0.97472 0.0
H1842 H 0.83745 0.69733 0.96193 0.0
C1843 C 0.78047 0.66086 0.00197 0.0
C1844 C 0.79554 0.68146 0.01431 0.0
H1845 H 0.77131 0.64056 0.96466 0.0
H1846 H 0.76371 0.6515 0.01259 0.0
C1847 C 0.81703 0.69342 5e-05 0.0
C1848 C 0.50854 0.81556 0.79382 0.0
C1849 C 0.52841 0.7973 0.8023 0.0
H1850 H 0.46625 0.82378 0.7904 0.0
C1851 C 0.52064 0.77397 0.81668 0.0
H1852 H 0.51405 0.83358 0.78267 0.0
C1853 C 0.49325 0.7678 0.82034 0.0
C1854 C 0.47333 0.78534 0.8105 0.0
H1855 H 0.53564 0.75941 0.82328 0.0
H1856 H 0.48769 0.74883 0.82973 0.0
C1857 C 0.48122 0.80986 0.79833 0.0
C1858 C 0.32586 0.48484 0.69409 0.0
C1859 C 0.31676 0.47493 0.7192 0.0
H1860 H 0.32718 0.5189 0.6669 0.0
C1861 C 0.30377 0.49257 0.73714 0.0
H1862 H 0.33537 0.47137 0.67965 0.0
C1863 C 0.29905 0.51932 0.72996 0.0
C1864 C 0.30676 0.52916 0.70437 0.0
H1865 H 0.29622 0.48532 0.75644 0.0
H1866 H 0.28843 0.53205 0.74429 0.0
C1867 C 0.32078 0.51183 0.68664 0.0
C1868 C 0.47274 0.19934 0.67036 0.0
C1869 C 0.45918 0.17904 0.68478 0.0
H1870 H 0.50951 0.22193 0.66571 0.0
C1871 C 0.47395 0.16301 0.70311 0.0
H1872 H 0.46163 0.21252 0.6568 0.0
C1873 C 0.50149 0.16812 0.70796 0.0
C1874 C 0.51429 0.19008 0.69538 0.0
H1875 H 0.4637 0.14778 0.71508 0.0
H1876 H 0.51215 0.15625 0.723 0.0
C1877 C 0.49995 0.20506 0.6759 0.0
C1878 C 0.70412 0.48261 0.68547 0.0
C1879 C 0.69217 0.46585 0.7049 0.0
H1880 H 0.70987 0.52307 0.67169 0.0
C1881 C 0.67364 0.47696 0.72355 0.0
H1882 H 0.71823 0.47456 0.67073 0.0
C1883 C 0.66854 0.50468 0.72392 0.0
C1884 C 0.68214 0.52167 0.70582 0.0
H1885 H 0.66379 0.46437 0.73856 0.0
H1886 H 0.65539 0.51295 0.73941 0.0
C1887 C 0.69924 0.51033 0.68602 0.0
C1888 C 0.47785 0.23675 0.33191 0.0
C1889 C 0.46887 0.25943 0.31715 0.0
H1890 H 0.51188 0.21226 0.34375 0.0
C1891 C 0.48797 0.27646 0.30507 0.0
H1892 H 0.46341 0.22333 0.3415 0.0
C1893 C 0.5154 0.26974 0.30587 0.0
C1894 C 0.52426 0.24626 0.31927 0.0
H1895 H 0.4816 0.29393 0.29351 0.0
H1896 H 0.52969 0.28252 0.2952 0.0
C1897 C 0.50547 0.23037 0.33326 0.0
C1898 C 0.71574 0.47873 0.31272 0.0
C1899 C 0.73971 0.46504 0.30604 0.0
H1900 H 0.69806 0.51685 0.32295 0.0
C1901 C 0.76484 0.47759 0.31063 0.0
H1902 H 0.69613 0.4693 0.30991 0.0
C1903 C 0.76587 0.50447 0.31867 0.0
C1904 C 0.74185 0.51898 0.32232 0.0
H1905 H 0.78371 0.46728 0.30626 0.0
H1906 H 0.78531 0.51468 0.31906 0.0
C1907 C 0.71683 0.50566 0.32088 0.0
C1908 C 0.5043 0.72066 0.21741 0.0
C1909 C 0.51785 0.72936 0.194 0.0
H1910 H 0.4706 0.72671 0.24405 0.0
C1911 C 0.50805 0.75185 0.17973 0.0
H1912 H 0.51205 0.70396 0.22929 0.0
C1913 C 0.48452 0.76492 0.18831 0.0
C1914 C 0.4713 0.75642 0.21193 0.0
H1915 H 0.5187 0.75934 0.16207 0.0
H1916 H 0.47629 0.78125 0.17624 0.0
C1917 C 0.48132 0.73427 0.22645 0.0
C1918 C 0.26049 0.50089 0.29705 0.0
C1919 C 0.27206 0.51384 0.2746 0.0
H1920 H 0.23482 0.46925 0.31108 0.0
C1921 C 0.26814 0.50351 0.24858 0.0
H1922 H 0.26288 0.50915 0.31725 0.0
C1923 C 0.25139 0.48122 0.24492 0.0
C1924 C 0.23854 0.46915 0.26729 0.0
H1925 H 0.27614 0.51389 0.23099 0.0
H1926 H 0.24832 0.47356 0.2246 0.0
C1927 C 0.24362 0.47883 0.29342 0.0
C1928 C 0.67414 0.76731 0.49298 0.0
C1929 C 0.68951 0.78494 0.5091 0.0
H1930 H 0.65835 0.759 0.45337 0.0
C1931 C 0.69801 0.80972 0.49814 0.0
H1932 H 0.66703 0.74824 0.50104 0.0
C1933 C 0.69314 0.81576 0.47091 0.0
C1934 C 0.6788 0.79761 0.4545 0.0
H1935 H 0.70978 0.82375 0.51018 0.0
H1936 H 0.702 0.83381 0.46224 0.0
C1937 C 0.66861 0.77374 0.46593 0.0
C1938 C 0.79527 0.18704 0.48206 0.0
C1939 C 0.81065 0.20843 0.47123 0.0
H1940 H 0.77641 0.17015 0.51733 0.0
C1941 C 0.82174 0.22767 0.48884 0.0
H1942 H 0.78626 0.17198 0.46895 0.0
C1943 C 0.81652 0.22622 0.51663 0.0
C1944 C 0.7995 0.20595 0.52712 0.0
H1945 H 0.83355 0.24438 0.48103 0.0
H1946 H 0.82456 0.24188 0.52966 0.0
C1947 C 0.78942 0.18604 0.50971 0.0
C1948 C 0.32184 0.7964 0.48704 0.0
C1949 C 0.29831 0.80415 0.47307 0.0
H1950 H 0.34366 0.79773 0.52449 0.0
C1951 C 0.28111 0.8236 0.48444 0.0
H1952 H 0.33548 0.78153 0.47846 0.0
C1953 C 0.28558 0.83252 0.51094 0.0
C1954 C 0.30775 0.82275 0.52589 0.0
H1955 H 0.26284 0.82981 0.47397 0.0
H1956 H 0.27032 0.84495 0.52063 0.0
C1957 C 0.3268 0.80604 0.51315 0.0
C1958 C 0.18654 0.221 0.52574 0.0
C1959 C 0.17623 0.24636 0.53358 0.0
H1960 H 0.20072 0.19619 0.49311 0.0
C1961 C 0.16919 0.26521 0.51362 0.0
H1962 H 0.19246 0.20612 0.54069 0.0
C1963 C 0.17315 0.25898 0.48626 0.0
C1964 C 0.18507 0.2343 0.47878 0.0
H1965 H 0.16143 0.2849 0.51917 0.0
H1966 H 0.16836 0.27402 0.47106 0.0
C1967 C 0.19143 0.21525 0.49859 0.0
C1968 C 0.18497 0.17945 0.20539 0.0
C1969 C 0.18189 0.16287 0.2281 0.0
H1970 H 0.16474 0.20293 0.175 0.0
C1971 C 0.15541 0.15797 0.23781 0.0
H1972 H 0.20459 0.18466 0.19783 0.0
C1973 C 0.13334 0.17277 0.22741 0.0
C1974 C 0.13751 0.19058 0.2057 0.0
H1975 H 0.15218 0.14441 0.25471 0.0
H1976 H 0.11365 0.17126 0.23697 0.0
C1977 C 0.16259 0.19132 0.1932 0.0
C1978 C 0.832 0.15276 0.22326 0.0
C1979 C 0.82554 0.17802 0.21162 0.0
H1980 H 0.81717 0.11262 0.23256 0.0
C1981 C 0.80257 0.17965 0.19511 0.0
H1982 H 0.84997 0.15057 0.23567 0.0
C1983 C 0.78645 0.15716 0.19057 0.0
C1984 C 0.78989 0.13395 0.20566 0.0
H1985 H 0.79601 0.19848 0.18681 0.0
H1986 H 0.76981 0.15788 0.17676 0.0
C1987 C 0.81358 0.13098 0.22121 0.0
C1988 C 0.84915 0.82046 0.26946 0.0
C1989 C 0.8608 0.80144 0.25187 0.0
H1990 H 0.81741 0.85032 0.27437 0.0
C1991 C 0.85667 0.80577 0.22415 0.0
H1992 H 0.85611 0.82193 0.29016 0.0
C1993 C 0.83479 0.82193 0.21522 0.0
C1994 C 0.81718 0.83348 0.23401 0.0
H1995 H 0.86936 0.79527 0.20976 0.0
H1996 H 0.83067 0.82476 0.19393 0.0
C1997 C 0.82728 0.83664 0.26045 0.0
C1998 C 0.18206 0.87727 0.26305 0.0
C1999 C 0.18405 0.87696 0.23452 0.0
H2000 H 0.1647 0.85797 0.29838 0.0
C2001 C 0.16281 0.86422 0.22036 0.0
H2002 H 0.19668 0.88853 0.27487 0.0
C2003 C 0.14376 0.84776 0.23381 0.0
C2004 C 0.14559 0.84306 0.26186 0.0
H2005 H 0.16194 0.86551 0.19847 0.0
H2006 H 0.12903 0.83694 0.22176 0.0
C2007 C 0.16333 0.86002 0.27659 0.0
C2008 C 0.12341 0.78925 0.69539 0.0
C2009 C 0.11466 0.77496 0.71841 0.0
H2010 H 0.14688 0.8233 0.6808 0.0
C2011 C 0.11297 0.78944 0.74272 0.0
H2012 H 0.12069 0.78064 0.67549 0.0
C2013 C 0.1248 0.81517 0.74479 0.0
C2014 C 0.14152 0.82522 0.72388 0.0
H2015 H 0.10333 0.7806 0.76033 0.0
H2016 H 0.12215 0.82613 0.76342 0.0
C2017 C 0.1379 0.81371 0.69827 0.0
C2018 C 0.17207 0.17435 0.80557 0.0
C2019 C 0.16191 0.15514 0.78781 0.0
H2020 H 0.17517 0.21581 0.81525 0.0
C2021 C 0.1391 0.16186 0.77208 0.0
H2022 H 0.18728 0.16838 0.81997 0.0
C2023 C 0.12912 0.18865 0.7721 0.0
C2024 C 0.14295 0.2091 0.78646 0.0
H2025 H 0.13 0.14697 0.75885 0.0
H2026 H 0.11206 0.19377 0.75928 0.0
C2027 C 0.16409 0.20127 0.80369 0.0
C2028 C 0.89082 0.2055 0.76728 0.0
C2029 C 0.88526 0.22102 0.79059 0.0
H2030 H 0.88137 0.1691 0.7447 0.0
C2031 C 0.87455 0.20682 0.81284 0.0
H2032 H 0.9032 0.21391 0.75133 0.0
C2033 C 0.86409 0.18045 0.80987 0.0
C2034 C 0.86271 0.16801 0.78421 0.0
H2035 H 0.87288 0.21663 0.83236 0.0
H2036 H 0.85544 0.17077 0.82748 0.0
C2037 C 0.87892 0.17957 0.76377 0.0
C2038 C 0.83003 0.81158 0.70663 0.0
C2039 C 0.84897 0.79485 0.71964 0.0
H2040 H 0.80786 0.84901 0.70786 0.0
C2041 C 0.865 0.80652 0.74019 0.0
H2042 H 0.81938 0.80438 0.68889 0.0
C2043 C 0.85872 0.83226 0.75079 0.0
C2044 C 0.83616 0.84684 0.74106 0.0
H2045 H 0.8811 0.79489 0.7495 0.0
H2046 H 0.86956 0.8392 0.76854 0.0
C2047 C 0.82379 0.83733 0.71719 0.0
C2048 C 0.29451 0.13875 0.18284 0.0
C2049 C 0.26797 0.13579 0.19289 0.0
H2050 H 0.32215 0.16451 0.16071 0.0
C2051 C 0.24847 0.15424 0.18486 0.0
H2052 H 0.30987 0.12385 0.18755 0.0
C2053 C 0.25581 0.17848 0.17275 0.0
C2054 C 0.28245 0.18302 0.16416 0.0
H2055 H 0.22761 0.14999 0.1893 0.0
H2056 H 0.24063 0.19381 0.17101 0.0
C2057 C 0.3015 0.16201 0.16769 0.0
C2058 C 0.79612 0.24371 0.15356 0.0
C2059 C 0.78901 0.26936 0.1441 0.0
H2060 H 0.82852 0.21713 0.16515 0.0
C2061 C 0.81014 0.28813 0.13966 0.0
H2062 H 0.78099 0.22854 0.15654 0.0
C2063 C 0.83676 0.28253 0.14878 0.0
C2064 C 0.84272 0.25741 0.16064 0.0
H2065 H 0.80565 0.30781 0.13122 0.0
H2066 H 0.85216 0.29806 0.14765 0.0
C2067 C 0.82298 0.23742 0.15983 0.0
C2068 C 0.72936 0.83652 0.13331 0.0
C2069 C 0.75401 0.84389 0.14551 0.0
H2070 H 0.70806 0.80532 0.11122 0.0
C2071 C 0.77769 0.83264 0.13446 0.0
H2072 H 0.71117 0.8479 0.13757 0.0
C2073 C 0.77607 0.81111 0.11592 0.0
C2074 C 0.75115 0.79824 0.11082 0.0
H2075 H 0.79744 0.83998 0.1406 0.0
H2076 H 0.79444 0.80385 0.10681 0.0
C2077 C 0.72769 0.81287 0.11739 0.0
C2078 C 0.12065 0.71073 0.22761 0.0
C2079 C 0.10905 0.73653 0.22547 0.0
H2080 H 0.14486 0.68031 0.20829 0.0
C2081 C 0.10661 0.74833 0.19977 0.0
H2082 H 0.121 0.70041 0.24686 0.0
C2083 C 0.11899 0.73618 0.1773 0.0
C2084 C 0.13409 0.71221 0.18035 0.0
H2085 H 0.0973 0.768 0.19749 0.0
H2086 H 0.119 0.74694 0.1582 0.0
C2087 C 0.13372 0.69895 0.20543 0.0
C2088 C 0.23046 0.8333 0.82979 0.0
C2089 C 0.20508 0.8461 0.82781 0.0
H2090 H 0.25251 0.79703 0.83987 0.0
C2091 C 0.18311 0.83352 0.84118 0.0
H2092 H 0.24823 0.84334 0.82209 0.0
C2093 C 0.18546 0.80682 0.85116 0.0
C2094 C 0.2098 0.7922 0.84818 0.0
H2095 H 0.16334 0.843 0.84123 0.0
H2096 H 0.16769 0.79697 0.85942 0.0
C2097 C 0.23281 0.80667 0.83971 0.0
C2098 C 0.16743 0.31181 0.85515 0.0
C2099 C 0.15366 0.29049 0.8422 0.0
H2100 H 0.20537 0.32523 0.87263 0.0
C2101 C 0.16661 0.26575 0.84015 0.0
H2102 H 0.15763 0.3312 0.85773 0.0
C2103 C 0.19426 0.2633 0.84526 0.0
C2104 C 0.20904 0.28458 0.85676 0.0
H2105 H 0.15529 0.24886 0.83275 0.0
H2106 H 0.20404 0.24515 0.83867 0.0
C2107 C 0.19481 0.30848 0.86331 0.0
C2108 C 0.74035 0.11662 0.82865 0.0
C2109 C 0.7681 0.11726 0.83493 0.0
H2110 H 0.70158 0.13598 0.83346 0.0
C2111 C 0.77642 0.13197 0.85769 0.0
H2112 H 0.73301 0.10303 0.81333 0.0
C2113 C 0.75789 0.14867 0.87133 0.0
C2114 C 0.73118 0.15196 0.86144 0.0
H2115 H 0.79758 0.13232 0.86354 0.0
H2116 H 0.76547 0.16163 0.88729 0.0
C2117 C 0.72219 0.13465 0.8409 0.0
C2118 C 0.84994 0.72169 0.79985 0.0
C2119 C 0.83926 0.69637 0.80615 0.0
H2120 H 0.87281 0.74549 0.7713 0.0
C2121 C 0.84975 0.67383 0.79235 0.0
H2122 H 0.84435 0.73868 0.81229 0.0
C2123 C 0.86623 0.67741 0.7692 0.0
C2124 C 0.87207 0.70353 0.7596 0.0
H2125 H 0.84365 0.65366 0.7982 0.0
H2126 H 0.87273 0.65991 0.75778 0.0
C2127 C 0.86637 0.72533 0.77681 0.0
C2128 C 0.18865 0.27398 0.12541 0.0
C2129 C 0.18442 0.2553 0.14661 0.0
H2130 H 0.2175 0.28954 0.09615 0.0
C2131 C 0.20339 0.23448 0.1498 0.0
H2132 H 0.17425 0.29013 0.12204 0.0
C2133 C 0.22591 0.23255 0.13302 0.0
C2134 C 0.23266 0.25335 0.11557 0.0
H2135 H 0.202 0.22036 0.16611 0.0
H2136 H 0.23934 0.21565 0.1346 0.0
C2137 C 0.21319 0.27353 0.11044 0.0
C2138 C 0.15386 0.6787 0.83494 0.0
C2139 C 0.16055 0.7034 0.84751 0.0
H2140 H 0.13931 0.6594 0.79843 0.0
C2141 C 0.14939 0.72701 0.83628 0.0
H2142 H 0.1599 0.65981 0.84417 0.0
C2143 C 0.13752 0.72662 0.8103 0.0
C2144 C 0.13715 0.70295 0.79493 0.0
H2145 H 0.15187 0.74621 0.84649 0.0
H2146 H 0.13053 0.74514 0.80122 0.0
C2147 C 0.14193 0.67847 0.80881 0.0
C2148 C 0.28202 0.18236 0.86556 0.0
C2149 C 0.26779 0.20639 0.87103 0.0
H2150 H 0.28313 0.14571 0.84175 0.0
C2151 C 0.24239 0.20988 0.85965 0.0
H2152 H 0.30152 0.17867 0.8749 0.0
C2153 C 0.23352 0.19321 0.83879 0.0
C2154 C 0.24801 0.16998 0.83155 0.0
H2155 H 0.23039 0.22674 0.8661 0.0
H2156 H 0.21606 0.1995 0.82762 0.0
C2157 C 0.27161 0.16371 0.84646 0.0
C2158 C 0.76927 0.27786 0.86075 0.0
C2159 C 0.76976 0.25304 0.87448 0.0
H2160 H 0.78879 0.30438 0.83211 0.0
C2161 C 0.79461 0.23908 0.87512 0.0
H2162 H 0.75204 0.29079 0.8629 0.0
C2163 C 0.81692 0.2481 0.85952 0.0
C2164 C 0.81417 0.27001 0.84137 0.0
H2165 H 0.79647 0.22063 0.88673 0.0
H2166 H 0.83548 0.23647 0.85985 0.0
C2167 C 0.79087 0.28613 0.84403 0.0
C2168 C 0.76003 0.79993 0.86499 0.0
C2169 C 0.7797 0.81017 0.84729 0.0
H2170 H 0.74858 0.76679 0.89118 0.0
C2171 C 0.80542 0.79773 0.84807 0.0
H2172 H 0.74136 0.81094 0.8681 0.0
C2173 C 0.80866 0.77177 0.85871 0.0
C2174 C 0.78703 0.75897 0.87167 0.0
H2175 H 0.82306 0.80736 0.8398 0.0
H2176 H 0.82792 0.76155 0.8563 0.0
C2177 C 0.76411 0.77474 0.87794 0.0
C2178 C 0.81858 0.68428 0.1674 0.0
C2179 C 0.82713 0.6985 0.14412 0.0
H2180 H 0.81915 0.68105 0.21117 0.0
C2181 C 0.84893 0.71656 0.14796 0.0
H2182 H 0.80433 0.6679 0.16517 0.0
C2183 C 0.85769 0.72395 0.17441 0.0
C2184 C 0.84495 0.71361 0.19793 0.0
H2185 H 0.85772 0.72678 0.13069 0.0
H2186 H 0.87329 0.73921 0.17642 0.0
C2187 C 0.82703 0.69189 0.19385 0.0
C2188 C 0.22747 0.78565 0.12328 0.0
C2189 C 0.2001 0.7775 0.12275 0.0
H2190 H 0.25707 0.81402 0.13831 0.0
C2191 C 0.1808 0.79676 0.13124 0.0
H2192 H 0.24272 0.7728 0.1145 0.0
C2193 C 0.18889 0.82147 0.14342 0.0
C2194 C 0.21647 0.82694 0.14884 0.0
H2195 H 0.15939 0.79213 0.12984 0.0
H2196 H 0.17341 0.83504 0.15092 0.0
C2197 C 0.23562 0.80996 0.13603 0.0
C2198 C 0.7345 0.19336 0.15225 0.0
C2199 C 0.7124 0.17687 0.15889 0.0
H2200 H 0.75032 0.22396 0.12614 0.0
C2201 C 0.68831 0.17995 0.14378 0.0
H2202 H 0.75282 0.19306 0.16372 0.0
C2203 C 0.68577 0.20141 0.125 0.0
C2204 C 0.70794 0.21868 0.12017 0.0
H2205 H 0.67093 0.16729 0.14803 0.0
H2206 H 0.66638 0.20532 0.1155 0.0
C2207 C 0.73273 0.21243 0.13175 0.0
C2208 C 0.65095 0.69645 0.73165 0.0
C2209 C 0.65384 0.67373 0.74831 0.0
H2210 H 0.62907 0.73301 0.72406 0.0
C2211 C 0.6367 0.6716 0.77113 0.0
H2212 H 0.66431 0.69982 0.71489 0.0
C2213 C 0.61992 0.69361 0.77866 0.0
C2214 C 0.61873 0.71683 0.76219 0.0
H2215 H 0.63811 0.6542 0.78432 0.0
H2216 H 0.60927 0.6931 0.79783 0.0
C2217 C 0.63203 0.71641 0.73753 0.0
C2218 C 0.31571 0.66298 0.76509 0.0
C2219 C 0.32959 0.64946 0.74406 0.0
H2220 H 0.31276 0.69853 0.79048 0.0
C2221 C 0.35523 0.66003 0.73706 0.0
H2222 H 0.2973 0.65431 0.77311 0.0
C2223 C 0.36392 0.68562 0.74682 0.0
C2224 C 0.34735 0.70146 0.76399 0.0
H2225 H 0.36765 0.64967 0.72229 0.0
H2226 H 0.38288 0.69379 0.73942 0.0
C2227 C 0.32443 0.68851 0.7749 0.0
C2228 C 0.34777 0.27582 0.6972 0.0
C2229 C 0.37069 0.2697 0.71226 0.0
H2230 H 0.31197 0.29891 0.69435 0.0
C2231 C 0.38033 0.28907 0.73078 0.0
H2232 H 0.34215 0.26266 0.68087 0.0
C2233 C 0.3649 0.31261 0.73613 0.0
C2234 C 0.33915 0.31609 0.7241 0.0
H2235 H 0.39877 0.28536 0.74207 0.0
H2236 H 0.372 0.32683 0.7512 0.0
C2237 C 0.33126 0.29755 0.70413 0.0
C2238 C 0.62336 0.30565 0.73858 0.0
C2239 C 0.63467 0.28398 0.72379 0.0
H2240 H 0.62716 0.34781 0.74965 0.0
C2241 C 0.65432 0.29021 0.70421 0.0
H2242 H 0.60724 0.30189 0.75297 0.0
C2243 C 0.66367 0.31664 0.70065 0.0
C2244 C 0.65591 0.33723 0.71824 0.0
H2245 H 0.66333 0.27459 0.69219 0.0
H2246 H 0.67809 0.32104 0.68495 0.0
C2247 C 0.63442 0.33201 0.73636 0.0
C2248 C 0.66204 0.33162 0.26608 0.0
C2249 C 0.68793 0.32349 0.27525 0.0
H2250 H 0.61948 0.32112 0.26406 0.0
C2251 C 0.68938 0.30242 0.29392 0.0
H2252 H 0.66006 0.3483 0.25203 0.0
C2253 C 0.66606 0.2906 0.30414 0.0
C2254 C 0.64123 0.29555 0.29222 0.0
H2255 H 0.70843 0.29417 0.29986 0.0
H2256 H 0.66718 0.27569 0.31981 0.0
C2257 C 0.63882 0.31671 0.27344 0.0
C2258 C 0.67073 0.6115 0.23034 0.0
C2259 C 0.68067 0.61633 0.25669 0.0
H2260 H 0.64909 0.62823 0.19607 0.0
C2261 C 0.67024 0.63843 0.27088 0.0
H2262 H 0.67672 0.59347 0.21949 0.0
C2263 C 0.65505 0.6582 0.25755 0.0
C2264 C 0.65002 0.6565 0.22955 0.0
H2265 H 0.67486 0.64101 0.29213 0.0
H2266 H 0.64761 0.67478 0.26943 0.0
C2267 C 0.65518 0.63148 0.21688 0.0
C2268 C 0.33233 0.6576 0.2308 0.0
C2269 C 0.32215 0.66054 0.25742 0.0
H2270 H 0.35811 0.67509 0.19986 0.0
C2271 C 0.34005 0.67241 0.27596 0.0
H2272 H 0.32295 0.64348 0.21694 0.0
C2273 C 0.3619 0.68821 0.26635 0.0
C2274 C 0.36403 0.69435 0.23866 0.0
H2275 H 0.33687 0.66999 0.29749 0.0
H2276 H 0.37629 0.69684 0.28026 0.0
C2277 C 0.35258 0.67535 0.22104 0.0
C2278 C 0.33211 0.33757 0.25932 0.0
C2279 C 0.3245 0.31506 0.27517 0.0
H2280 H 0.31858 0.37522 0.24142 0.0
C2281 C 0.30026 0.31661 0.28978 0.0
H2282 H 0.35097 0.33732 0.24812 0.0
C2283 C 0.284 0.33942 0.28851 0.0
C2284 C 0.28883 0.35927 0.26946 0.0
H2285 H 0.29288 0.29978 0.30113 0.0
H2286 H 0.26642 0.34126 0.30105 0.0
C2287 C 0.31381 0.3593 0.25567 0.0
C2288 C 0.68091 0.67069 0.67187 0.0
C2289 C 0.6978 0.64949 0.66462 0.0
H2290 H 0.67423 0.71265 0.67079 0.0
C2291 C 0.71578 0.65319 0.64283 0.0
H2292 H 0.66498 0.66714 0.68637 0.0
C2293 C 0.71879 0.67904 0.63104 0.0
C2294 C 0.7052 0.70158 0.64213 0.0
H2295 H 0.72836 0.63666 0.63593 0.0
H2296 H 0.73329 0.68179 0.6148 0.0
C2297 C 0.68561 0.69665 0.66205 0.0
C2298 C 0.37427 0.81632 0.71142 0.0
C2299 C 0.38121 0.79075 0.72174 0.0
H2300 H 0.34967 0.83797 0.68223 0.0
C2301 C 0.37815 0.76898 0.70394 0.0
H2302 H 0.38074 0.83442 0.72183 0.0
C2303 C 0.36045 0.77105 0.68146 0.0
C2304 C 0.34588 0.79474 0.67698 0.0
H2305 H 0.38778 0.75006 0.70894 0.0
H2306 H 0.35675 0.75414 0.66824 0.0
C2307 C 0.35656 0.81833 0.68887 0.0
C2308 C 0.27191 0.33685 0.68054 0.0
C2309 C 0.25888 0.36126 0.68473 0.0
H2310 H 0.26746 0.295 0.67381 0.0
C2311 C 0.23223 0.36444 0.67509 0.0
H2312 H 0.29293 0.33534 0.68566 0.0
C2313 C 0.2184 0.34213 0.66373 0.0
C2314 C 0.2305 0.31629 0.66381 0.0
H2315 H 0.22181 0.38353 0.67747 0.0
H2316 H 0.19767 0.34459 0.65695 0.0
C2317 C 0.25756 0.31419 0.67218 0.0
C2318 C 0.68545 0.23259 0.65696 0.0
C2319 C 0.70323 0.21103 0.65171 0.0
H2320 H 0.64477 0.24577 0.66531 0.0
C2321 C 0.6913 0.18514 0.64929 0.0
H2322 H 0.69257 0.25259 0.65918 0.0
C2323 C 0.66371 0.18087 0.65628 0.0
C2324 C 0.64706 0.20278 0.6637 0.0
H2325 H 0.70378 0.16791 0.64414 0.0
H2326 H 0.65592 0.16046 0.65733 0.0
C2327 C 0.65772 0.22864 0.66134 0.0
C2328 C 0.74819 0.31972 0.32449 0.0
C2329 C 0.76925 0.33814 0.32174 0.0
H2330 H 0.7369 0.27856 0.32988 0.0
C2331 C 0.79467 0.3311 0.33248 0.0
H2332 H 0.72788 0.32654 0.32065 0.0
C2333 C 0.79924 0.30459 0.34214 0.0
C2334 C 0.7791 0.28442 0.33926 0.0
H2335 H 0.8111 0.3456 0.33249 0.0
H2336 H 0.81907 0.29935 0.34994 0.0
C2337 C 0.75326 0.29273 0.33112 0.0
C2338 C 0.64282 0.73252 0.26917 0.0
C2339 C 0.6194 0.74698 0.26325 0.0
H2340 H 0.68136 0.73238 0.288 0.0
C2341 C 0.61387 0.77071 0.27787 0.0
H2342 H 0.64805 0.71527 0.25718 0.0
C2343 C 0.63279 0.78024 0.29709 0.0
C2344 C 0.6577 0.76669 0.30076 0.0
H2345 H 0.59578 0.78233 0.27362 0.0
H2346 H 0.62862 0.79875 0.30798 0.0
C2347 C 0.66217 0.74271 0.28666 0.0
C2348 C 0.29853 0.66635 0.36878 0.0
C2349 C 0.27481 0.67207 0.38376 0.0
H2350 H 0.31674 0.64421 0.33581 0.0
C2351 C 0.25372 0.65287 0.38153 0.0
H2352 H 0.31638 0.67838 0.37139 0.0
C2353 C 0.25488 0.63149 0.36248 0.0
C2354 C 0.27612 0.62985 0.34349 0.0
H2355 H 0.2352 0.65571 0.39295 0.0
H2356 H 0.23824 0.61732 0.36143 0.0
C2357 C 0.2989 0.64623 0.34842 0.0
C2358 C 0.29998 0.21942 0.36509 0.0
C2359 C 0.27995 0.23738 0.35537 0.0
H2360 H 0.3421 0.20728 0.3626 0.0
C2361 C 0.28867 0.26049 0.3416 0.0
H2362 H 0.29414 0.2018 0.3767 0.0
C2363 C 0.31612 0.26503 0.33666 0.0
C2364 C 0.33518 0.24502 0.34162 0.0
H2365 H 0.27442 0.2748 0.33389 0.0
H2366 H 0.32273 0.28363 0.32766 0.0
C2367 C 0.32742 0.22268 0.35741 0.0
C2368 C 0.65628 0.76243 0.65484 0.0
C2369 C 0.65763 0.78633 0.64025 0.0
H2370 H 0.65571 0.74469 0.69389 0.0
C2371 C 0.64664 0.80973 0.65226 0.0
H2372 H 0.66118 0.74393 0.64468 0.0
C2373 C 0.63844 0.80934 0.67985 0.0
C2374 C 0.64306 0.78618 0.69601 0.0
H2375 H 0.64619 0.82854 0.6411 0.0
H2376 H 0.63112 0.82777 0.68909 0.0
C2377 C 0.6514 0.76265 0.6827 0.0
C2378 C 0.70618 0.18801 0.37478 0.0
C2379 C 0.72595 0.20861 0.37362 0.0
H2380 H 0.66757 0.17355 0.35941 0.0
C2381 C 0.7201 0.23135 0.35836 0.0
H2382 H 0.7095 0.17043 0.38738 0.0
C2383 C 0.69824 0.23189 0.34055 0.0
C2384 C 0.67902 0.21104 0.33985 0.0
H2385 H 0.73337 0.24835 0.3597 0.0
H2386 H 0.69738 0.2484 0.32673 0.0
C2387 C 0.6824 0.18963 0.35851 0.0
C2388 C 0.73648 0.67727 0.34724 0.0
C2389 C 0.72167 0.67351 0.32302 0.0
H2390 H 0.74432 0.70336 0.38137 0.0
C2391 C 0.69878 0.68966 0.31871 0.0
H2392 H 0.75341 0.66416 0.35199 0.0
C2393 C 0.69248 0.71058 0.33682 0.0
C2394 C 0.71025 0.71751 0.35781 0.0
H2395 H 0.68585 0.68624 0.30142 0.0
H2396 H 0.67416 0.72208 0.33401 0.0
C2397 C 0.73124 0.69952 0.36418 0.0
C2398 C 0.34085 0.7858 0.3364 0.0
C2399 C 0.31307 0.79028 0.34113 0.0
H2400 H 0.37214 0.77642 0.30764 0.0
C2401 C 0.29662 0.79383 0.31784 0.0
H2402 H 0.35454 0.78342 0.35337 0.0
C2403 C 0.30658 0.78913 0.29126 0.0
C2404 C 0.33359 0.78107 0.28687 0.0
H2405 H 0.27523 0.7977 0.32025 0.0
H2406 H 0.29275 0.79049 0.27433 0.0
C2407 C 0.35091 0.78151 0.30984 0.0
C2408 C 0.22601 0.29709 0.35184 0.0
C2409 C 0.20092 0.2952 0.36425 0.0
H2410 H 0.24708 0.30746 0.31619 0.0
C2411 C 0.18007 0.31266 0.35575 0.0
H2412 H 0.24263 0.2859 0.36016 0.0
C2413 C 0.18413 0.32956 0.33299 0.0
C2414 C 0.20812 0.32734 0.31754 0.0
H2415 H 0.16049 0.31222 0.36564 0.0
H2416 H 0.1678 0.3425 0.32619 0.0
C2417 C 0.22898 0.31101 0.3276 0.0
C2418 C 0.29299 0.19743 0.64455 0.0
C2419 C 0.3039 0.21751 0.66166 0.0
H2420 H 0.26005 0.18673 0.61755 0.0
C2421 C 0.29317 0.24367 0.65971 0.0
H2422 H 0.30098 0.17707 0.64516 0.0
C2423 C 0.27193 0.24947 0.64205 0.0
C2424 C 0.2582 0.22895 0.62876 0.0
H2425 H 0.30019 0.25964 0.67248 0.0
H2426 H 0.26497 0.26986 0.63955 0.0
C2427 C 0.26971 0.20293 0.62867 0.0
C2428 C 0.77346 0.30827 0.63478 0.0
C2429 C 0.75978 0.28403 0.62884 0.0
H2430 H 0.7738 0.34461 0.65909 0.0
C2431 C 0.73386 0.2809 0.63942 0.0
H2432 H 0.79289 0.31251 0.62553 0.0
C2433 C 0.72483 0.29672 0.6612 0.0
C2434 C 0.73956 0.31919 0.66979 0.0
H2435 H 0.72149 0.26509 0.63124 0.0
H2436 H 0.7065 0.29132 0.67148 0.0
C2437 C 0.76262 0.32644 0.65423 0.0
C2438 C 0.26552 0.68685 0.60915 0.0
C2439 C 0.28547 0.67232 0.62335 0.0
H2440 H 0.25486 0.72397 0.58884 0.0
C2441 C 0.31168 0.68369 0.62306 0.0
H2442 H 0.24569 0.67802 0.60632 0.0
C2443 C 0.31561 0.71139 0.6172 0.0
C2444 C 0.29393 0.7275 0.60811 0.0
H2445 H 0.32897 0.67166 0.62843 0.0
H2446 H 0.33545 0.72025 0.62025 0.0
C2447 C 0.27033 0.7136 0.60027 0.0
C2448 C 0.12989 0.3631 0.23729 0.0
C2449 C 0.1508 0.37206 0.22026 0.0
H2450 H 0.09787 0.33442 0.24254 0.0
C2451 C 0.14898 0.36576 0.19245 0.0
H2452 H 0.13081 0.36715 0.25883 0.0
C2453 C 0.1301 0.34668 0.18304 0.0
C2454 C 0.11282 0.33348 0.20135 0.0
H2455 H 0.1649 0.3722 0.17878 0.0
H2456 H 0.13253 0.33886 0.16269 0.0
C2457 C 0.1108 0.34424 0.22778 0.0
C2458 C 0.63125 0.13503 0.22555 0.0
C2459 C 0.64875 0.12034 0.24241 0.0
H2460 H 0.60276 0.16754 0.22278 0.0
C2461 C 0.64457 0.12218 0.27067 0.0
H2462 H 0.63405 0.13458 0.20379 0.0
C2463 C 0.62726 0.14195 0.28177 0.0
C2464 C 0.61316 0.15975 0.26469 0.0
H2465 H 0.6577 0.11104 0.28425 0.0
H2466 H 0.62758 0.14535 0.30343 0.0
C2467 C 0.61359 0.15442 0.23658 0.0
C2468 C 0.8387 0.62413 0.27069 0.0
C2469 C 0.82206 0.62161 0.29384 0.0
H2470 H 0.86962 0.64694 0.25059 0.0
C2471 C 0.83044 0.63467 0.31761 0.0
H2472 H 0.83298 0.61463 0.25184 0.0
C2473 C 0.85209 0.65322 0.31684 0.0
C2474 C 0.86542 0.65932 0.29224 0.0
H2475 H 0.81801 0.63363 0.33567 0.0
H2476 H 0.85547 0.6658 0.33443 0.0
C2477 C 0.86021 0.64264 0.26995 0.0
C2478 C 0.35909 0.85797 0.20255 0.0
C2479 C 0.36094 0.83431 0.18705 0.0
H2480 H 0.33776 0.89499 0.20928 0.0
C2481 C 0.34621 0.83348 0.16249 0.0
H2482 H 0.37007 0.85961 0.22147 0.0
C2483 C 0.32621 0.85274 0.15665 0.0
C2484 C 0.3208 0.87382 0.17481 0.0
H2485 H 0.34698 0.81574 0.14978 0.0
H2486 H 0.31219 0.8486 0.14027 0.0
C2487 C 0.33989 0.87805 0.19578 0.0
C2488 C 0.16098 0.63038 0.67067 0.0
C2489 C 0.14864 0.63158 0.6965 0.0
H2490 H 0.19692 0.6212 0.6478 0.0
C2491 C 0.16049 0.61576 0.71701 0.0
H2492 H 0.15292 0.64228 0.65418 0.0
C2493 C 0.18608 0.60341 0.71325 0.0
C2494 C 0.20041 0.60601 0.68863 0.0
H2495 H 0.15182 0.61612 0.73715 0.0
H2496 H 0.19621 0.59494 0.73076 0.0
C2497 C 0.18649 0.61799 0.66685 0.0
C2498 C 0.32057 0.11772 0.70969 0.0
C2499 C 0.33967 0.12769 0.72825 0.0
H2500 H 0.28118 0.10007 0.70446 0.0
C2501 C 0.33679 0.11992 0.75561 0.0
H2502 H 0.3217 0.1236 0.68858 0.0
C2503 C 0.31294 0.10731 0.76492 0.0
C2504 C 0.29175 0.10147 0.74685 0.0
H2505 H 0.35121 0.12718 0.77042 0.0
H2506 H 0.3096 0.10581 0.78655 0.0
C2507 C 0.29705 0.10444 0.71892 0.0
C2508 C 0.8124 0.38191 0.73757 0.0
C2509 C 0.78963 0.38571 0.75419 0.0
H2510 H 0.85208 0.36481 0.73372 0.0
C2511 C 0.79319 0.38085 0.78227 0.0
H2512 H 0.81055 0.38463 0.71589 0.0
C2513 C 0.81706 0.36902 0.79264 0.0
C2514 C 0.83848 0.36178 0.7754 0.0
H2515 H 0.77618 0.38278 0.79594 0.0
H2516 H 0.81712 0.3622 0.81349 0.0
C2517 C 0.83646 0.37029 0.74803 0.0
C2518 C 0.69634 0.86853 0.82491 0.0
C2519 C 0.70556 0.88473 0.80341 0.0
H2520 H 0.66738 0.83892 0.83812 0.0
C2521 C 0.68783 0.88803 0.78107 0.0
H2522 H 0.70949 0.86465 0.84205 0.0
C2523 C 0.66354 0.87307 0.77876 0.0
C2524 C 0.65614 0.85418 0.79865 0.0
H2525 H 0.69437 0.8998 0.76376 0.0
H2526 H 0.65243 0.87383 0.75985 0.0
C2527 C 0.67203 0.85356 0.82254 0.0
C2528 C 0.18351 0.13863 0.35372 0.0
C2529 C 0.20347 0.15027 0.37062 0.0
H2530 H 0.17561 0.11608 0.31737 0.0
C2531 C 0.22971 0.13935 0.36937 0.0
H2532 H 0.16307 0.14661 0.35402 0.0
C2533 C 0.23677 0.12115 0.34859 0.0
C2534 C 0.21789 0.11373 0.32841 0.0
H2535 H 0.24578 0.14803 0.38154 0.0
H2536 H 0.25797 0.1162 0.34594 0.0
C2537 C 0.19067 0.12087 0.3326 0.0
C2538 C 0.89318 0.24338 0.31181 0.0
C2539 C 0.89613 0.2227 0.29231 0.0
H2540 H 0.87358 0.25588 0.34868 0.0
C2541 C 0.8902 0.19623 0.30059 0.0
H2542 H 0.8975 0.26408 0.3062 0.0
C2543 C 0.87748 0.1914 0.32571 0.0
C2544 C 0.86935 0.21293 0.34266 0.0
H2545 H 0.89182 0.17976 0.28625 0.0
H2546 H 0.87041 0.17117 0.33 0.0
C2547 C 0.87956 0.23868 0.33652 0.0
C2548 C 0.7015 0.88086 0.29388 0.0
C2549 C 0.72849 0.88747 0.28696 0.0
H2550 H 0.67541 0.85896 0.32082 0.0
C2551 C 0.74816 0.8853 0.3074 0.0
H2552 H 0.68574 0.88199 0.27868 0.0
C2553 C 0.74188 0.87262 0.33224 0.0
C2554 C 0.7161 0.86109 0.33674 0.0
H2555 H 0.76918 0.8897 0.30285 0.0
H2556 H 0.75836 0.86795 0.34597 0.0
C2557 C 0.69539 0.86772 0.3184 0.0
C2558 C 0.18049 0.79045 0.39452 0.0
C2559 C 0.18919 0.76544 0.40541 0.0
H2560 H 0.15811 0.81087 0.36301 0.0
C2561 C 0.17377 0.74261 0.39778 0.0
H2562 H 0.19189 0.80856 0.39917 0.0
C2563 C 0.15504 0.74374 0.37609 0.0
C2564 C 0.14958 0.76812 0.36244 0.0
H2565 H 0.17971 0.7229 0.4052 0.0
H2566 H 0.14659 0.72506 0.36845 0.0
C2567 C 0.16135 0.79173 0.37312 0.0
C2568 C 0.27066 0.88596 0.66229 0.0
C2569 C 0.25638 0.86907 0.64442 0.0
H2570 H 0.26953 0.90846 0.69959 0.0
C2571 C 0.22776 0.8693 0.64652 0.0
H2572 H 0.2926 0.88625 0.66162 0.0
C2573 C 0.21432 0.88258 0.66799 0.0
C2574 C 0.22903 0.896 0.68834 0.0
H2575 H 0.21586 0.85624 0.63357 0.0
H2576 H 0.19283 0.87898 0.6707 0.0
C2577 C 0.25726 0.89892 0.68412 0.0
C2578 C 0.10578 0.25091 0.67364 0.0
C2579 C 0.12057 0.27076 0.65939 0.0
H2580 H 0.08578 0.24038 0.71083 0.0
C2581 C 0.11771 0.29767 0.66783 0.0
H2582 H 0.10771 0.22994 0.66781 0.0
C2583 C 0.10436 0.3038 0.69229 0.0
C2584 C 0.09418 0.28313 0.70923 0.0
H2585 H 0.12917 0.31345 0.65785 0.0
H2586 H 0.106 0.32419 0.70005 0.0
C2587 C 0.09286 0.25695 0.69837 0.0
C2588 C 0.83046 0.12719 0.68623 0.0
C2589 C 0.8089 0.11128 0.69564 0.0
H2590 H 0.84331 0.15767 0.65833 0.0
C2591 C 0.78565 0.10949 0.67898 0.0
H2592 H 0.84863 0.12933 0.69836 0.0
C2593 C 0.78201 0.12687 0.6566 0.0
C2594 C 0.80194 0.14592 0.64976 0.0
H2595 H 0.7687 0.09723 0.68544 0.0
H2596 H 0.76227 0.12776 0.64704 0.0
C2597 C 0.8271 0.14395 0.66335 0.0
C2598 C 0.81248 0.77879 0.60568 0.0
C2599 C 0.79403 0.75993 0.59456 0.0
H2600 H 0.84804 0.78517 0.62998 0.0
C2601 C 0.80273 0.73293 0.59292 0.0
H2602 H 0.80648 0.79969 0.60791 0.0
C2603 C 0.82734 0.72471 0.60519 0.0
C2604 C 0.8436 0.74301 0.62002 0.0
H2605 H 0.78906 0.71761 0.58529 0.0
H2606 H 0.83185 0.70336 0.60614 0.0
C2607 C 0.83674 0.77047 0.61829 0.0
C2608 C 0.38245 0.23026 0.16779 0.0
C2609 C 0.37364 0.25508 0.15726 0.0
H2610 H 0.39724 0.20935 0.20283 0.0
C2611 C 0.38174 0.27877 0.17087 0.0
H2612 H 0.37634 0.21158 0.15814 0.0
C2613 C 0.39317 0.27753 0.19696 0.0
C2614 C 0.39729 0.25248 0.2096 0.0
H2615 H 0.37562 0.29823 0.16303 0.0
H2616 H 0.39488 0.29601 0.20857 0.0
C2617 C 0.39438 0.22902 0.19366 0.0
C2618 C 0.34106 0.72905 0.86811 0.0
C2619 C 0.345 0.75643 0.86191 0.0
H2620 H 0.31396 0.69898 0.88335 0.0
C2621 C 0.32638 0.77509 0.87313 0.0
H2622 H 0.35429 0.71396 0.8593 0.0
C2623 C 0.30276 0.76648 0.88671 0.0
C2624 C 0.29698 0.73889 0.88977 0.0
H2625 H 0.32817 0.79634 0.86836 0.0
H2626 H 0.28737 0.78134 0.89151 0.0
C2627 C 0.31749 0.72045 0.8819 0.0
C2628 C 0.33607 0.34852 0.84568 0.0
C2629 C 0.31266 0.34564 0.86187 0.0
H2630 H 0.35303 0.36524 0.80931 0.0
C2631 C 0.29219 0.36512 0.85902 0.0
H2632 H 0.35214 0.33373 0.84721 0.0
C2633 C 0.29307 0.38386 0.83757 0.0
C2634 C 0.31406 0.38306 0.81807 0.0
H2635 H 0.27364 0.36331 0.87062 0.0
H2636 H 0.27504 0.39571 0.83359 0.0
C2637 C 0.33674 0.36694 0.82393 0.0
C2638 C 0.60222 0.22882 0.81317 0.0
C2639 C 0.60465 0.20411 0.79937 0.0
H2640 H 0.61539 0.25319 0.84685 0.0
C2641 C 0.61847 0.18305 0.81327 0.0
H2642 H 0.59232 0.24572 0.80339 0.0
C2643 C 0.63173 0.18729 0.83835 0.0
C2644 C 0.63166 0.21276 0.85085 0.0
H2645 H 0.62109 0.16362 0.80356 0.0
H2646 H 0.64452 0.17138 0.84633 0.0
C2647 C 0.61548 0.23301 0.8384 0.0
C2648 C 0.71703 0.60308 0.81815 0.0
C2649 C 0.73284 0.59452 0.79616 0.0
H2650 H 0.71668 0.62394 0.85604 0.0
C2651 C 0.76109 0.59244 0.80006 0.0
H2652 H 0.69531 0.60537 0.81581 0.0
C2653 C 0.77356 0.60366 0.8231 0.0
C2654 C 0.75793 0.61697 0.84275 0.0
H2655 H 0.77391 0.58613 0.7834 0.0
H2656 H 0.79541 0.60589 0.82313 0.0
C2657 C 0.72948 0.61387 0.84138 0.0
C2658 C 0.67398 0.72569 0.09658 0.0
C2659 C 0.68769 0.70084 0.09558 0.0
H2660 H 0.6418 0.74887 0.1142 0.0
C2661 C 0.67448 0.67845 0.10752 0.0
H2662 H 0.68349 0.7436 0.08833 0.0
C2663 C 0.65065 0.68157 0.1234 0.0
C2664 C 0.63917 0.70726 0.12744 0.0
H2665 H 0.68433 0.65893 0.10703 0.0
H2666 H 0.64304 0.66444 0.1347 0.0
C2667 C 0.6501 0.72876 0.11204 0.0
C2668 C 0.2061 0.61829 0.19839 0.0
C2669 C 0.23347 0.60958 0.20044 0.0
H2670 H 0.17559 0.6395 0.17548 0.0
C2671 C 0.24927 0.61173 0.17683 0.0
H2672 H 0.19322 0.61782 0.21613 0.0
C2673 C 0.23892 0.62449 0.1532 0.0
C2674 C 0.21232 0.63541 0.1521 0.0
H2675 H 0.2705 0.60619 0.17748 0.0
H2676 H 0.25274 0.62822 0.13657 0.0
C2677 C 0.19571 0.63077 0.17476 0.0
C2678 C 0.75084 0.3853 0.16999 0.0
C2679 C 0.73135 0.3895 0.19055 0.0
H2680 H 0.76053 0.36468 0.13289 0.0
C2681 C 0.70418 0.384 0.18412 0.0
H2682 H 0.77205 0.389 0.17427 0.0
C2683 C 0.69746 0.37062 0.15983 0.0
C2684 C 0.71776 0.36176 0.14164 0.0
H2685 H 0.68864 0.38636 0.19945 0.0
H2686 H 0.67687 0.36343 0.15743 0.0
C2687 C 0.74419 0.37141 0.14591 0.0
loop_
_geom_bond_atom_site_label_1
_geom_bond_atom_site_label_2
_geom_bond_distance
_geom_bond_site_symmetry_2
_ccdc_geom_bond_type
Mn0 O5 2.095 . S
Mn0 O15 2.162 . S
Mn0 O16 2.297 . S
Mn0 O24 2.385 . S
Mn0 O25 2.209 . S
Mn0 O26 2.094 . S
Mn1 O6 2.121 . S
Mn1 N8 2.257 . S
Mn1 N17 2.282 . S
Mn1 O25 2.215 . S
Mn1 O27 2.117 . S
C2 O24 1.234 . S
C2 O25 1.283 . S
C3 O15 1.281 . S
C3 O16 1.236 . S
C4 O26 1.240 . S
C4 O27 1.264 . S
O5 Mn0 2.095 . S
O5 C14 1.250 . S
O6 Mn1 2.121 . S
O6 C14 1.258 . S
C7 N8 1.326 . S
C7 C11 1.460 . S
C7 H13 0.929 . S
N8 Mn1 2.257 . S
N8 C7 1.326 . S
N8 C12 1.362 . S
C9 C10 1.258 . S
C9 C12 1.431 . S
C9 C29 1.449 . S
C10 C9 1.258 . S
C10 C11 1.477 . S
C10 H30 0.931 . S
C11 C7 1.460 . S
C11 C10 1.477 . S
C11 H31 0.930 . S
C12 N8 1.362 . S
C12 C9 1.431 . S
C12 C22 1.476 . S
H13 C7 0.929 . S
C14 O5 1.250 . S
C14 O6 1.258 . S
O15 Mn0 2.162 . S
O15 C3 1.281 . S
O16 Mn0 2.297 . S
O16 C3 1.236 . S
N17 Mn1 2.282 . S
N17 C18 1.328 . S
N17 C22 1.318 . S
C18 N17 1.328 . S
C18 C19 1.457 . S
C18 H23 0.929 . S
C19 C18 1.457 . S
C19 C20 1.291 . S
C19 H32 0.931 . S
C20 C19 1.291 . S
C20 C21 1.373 . S
C20 H33 0.929 . S
C21 C20 1.373 . S
C21 C22 1.396 . S
C21 C28 1.403 . S
C22 C12 1.476 . S
C22 N17 1.318 . S
C22 C21 1.396 . S
H23 C18 0.929 . S
O24 Mn0 2.385 . S
O24 C2 1.234 . S
O25 Mn0 2.209 . S
O25 Mn1 2.215 . S
O25 C2 1.283 . S
O26 Mn0 2.094 . S
O26 C4 1.240 . S
O27 Mn1 2.117 . S
O27 C4 1.264 . S
C28 C21 1.403 . S
C28 C29 1.399 . S
C28 H34 0.929 . S
C29 C9 1.449 . S
C29 C28 1.399 . S
C29 H35 0.930 . S
H30 C10 0.931 . S
H31 C11 0.930 . S
H32 C19 0.931 . S
H33 C20 0.929 . S
H34 C28 0.929 . S
H35 C29 0.930 . S
Mn36 O41 2.095 . S
Mn36 O51 2.162 . S
Mn36 O52 2.297 . S
Mn36 O60 2.385 . S
Mn36 O61 2.209 . S
Mn36 O62 2.094 . S
Mn37 O42 2.121 . S
Mn37 N44 2.257 . S
Mn37 N53 2.282 . S
Mn37 O61 2.215 . S
Mn37 O63 2.117 . S
C38 O60 1.234 . S
C38 O61 1.283 . S
C39 O51 1.281 . S
C39 O52 1.236 . S
C40 O62 1.240 . S
C40 O63 1.264 . S
O41 Mn36 2.095 . S
O41 C50 1.250 . S
O42 Mn37 2.121 . S
O42 C50 1.258 . S
C43 N44 1.326 . S
C43 C47 1.460 . S
C43 H49 0.929 . S
N44 Mn37 2.257 . S
N44 C43 1.326 . S
N44 C48 1.362 . S
C45 C46 1.258 . S
C45 C48 1.431 . S
C45 C65 1.449 . S
C46 C45 1.258 . S
C46 C47 1.477 . S
C46 H66 0.931 . S
C47 C43 1.460 . S
C47 C46 1.477 . S
C47 H67 0.930 . S
C48 N44 1.362 . S
C48 C45 1.431 . S
C48 C58 1.476 . S
H49 C43 0.929 . S
C50 O41 1.250 . S
C50 O42 1.258 . S
O51 Mn36 2.162 . S
O51 C39 1.281 . S
O52 Mn36 2.297 . S
O52 C39 1.236 . S
N53 Mn37 2.282 . S
N53 C54 1.328 . S
N53 C58 1.318 . S
C54 N53 1.328 . S
C54 C55 1.457 . S
C54 H59 0.929 . S
C55 C54 1.457 . S
C55 C56 1.291 . S
C55 H68 0.931 . S
C56 C55 1.291 . S
C56 C57 1.373 . S
C56 H69 0.929 . S
C57 C56 1.373 . S
C57 C58 1.396 . S
C57 C64 1.403 . S
C58 C48 1.476 . S
C58 N53 1.318 . S
C58 C57 1.396 . S
H59 C54 0.929 . S
O60 Mn36 2.385 . S
O60 C38 1.234 . S
O61 Mn36 2.209 . S
O61 Mn37 2.215 . S
O61 C38 1.283 . S
O62 Mn36 2.094 . S
O62 C40 1.240 . S
O63 Mn37 2.117 . S
O63 C40 1.264 . S
C64 C57 1.403 . S
C64 C65 1.399 . S
C64 H70 0.929 . S
C65 C45 1.449 . S
C65 C64 1.399 . S
C65 H71 0.930 . S
H66 C46 0.931 . S
H67 C47 0.930 . S
H68 C55 0.931 . S
H69 C56 0.929 . S
H70 C64 0.929 . S
H71 C65 0.930 . S
Mn72 O77 2.095 . S
Mn72 O87 2.162 . S
Mn72 O88 2.297 . S
Mn72 O96 2.385 . S
Mn72 O97 2.209 . S
Mn72 O98 2.094 . S
Mn73 O78 2.121 . S
Mn73 N80 2.257 . S
Mn73 N89 2.282 . S
Mn73 O97 2.215 . S
Mn73 O99 2.117 . S
C74 O96 1.234 . S
C74 O97 1.283 . S
C75 O87 1.281 . S
C75 O88 1.236 . S
C76 O98 1.240 . S
C76 O99 1.264 . S
O77 Mn72 2.095 . S
O77 C86 1.250 . S
O78 Mn73 2.121 . S
O78 C86 1.258 . S
C79 N80 1.326 . S
C79 C83 1.460 . S
C79 H85 0.929 . S
N80 Mn73 2.257 . S
N80 C79 1.326 . S
N80 C84 1.362 . S
C81 C82 1.258 . S
C81 C84 1.431 . S
C81 C101 1.449 . S
C82 C81 1.258 . S
C82 C83 1.477 . S
C82 H102 0.931 . S
C83 C79 1.460 . S
C83 C82 1.477 . S
C83 H103 0.930 . S
C84 N80 1.362 . S
C84 C81 1.431 . S
C84 C94 1.476 . S
H85 C79 0.929 . S
C86 O77 1.250 . S
C86 O78 1.258 . S
O87 Mn72 2.162 . S
O87 C75 1.281 . S
O88 Mn72 2.297 . S
O88 C75 1.236 . S
N89 Mn73 2.282 . S
N89 C90 1.328 . S
N89 C94 1.318 . S
C90 N89 1.328 . S
C90 C91 1.457 . S
C90 H95 0.929 . S
C91 C90 1.457 . S
C91 C92 1.291 . S
C91 H104 0.931 . S
C92 C91 1.291 . S
C92 C93 1.373 . S
C92 H105 0.929 . S
C93 C92 1.373 . S
C93 C94 1.396 . S
C93 C100 1.403 . S
C94 C84 1.476 . S
C94 N89 1.318 . S
C94 C93 1.396 . S
H95 C90 0.929 . S
O96 Mn72 2.385 . S
O96 C74 1.234 . S
O97 Mn72 2.209 . S
O97 Mn73 2.215 . S
O97 C74 1.283 . S
O98 Mn72 2.094 . S
O98 C76 1.240 . S
O99 Mn73 2.117 . S
O99 C76 1.264 . S
C100 C93 1.403 . S
C100 C101 1.399 . S
C100 H106 0.929 . S
C101 C81 1.449 . S
C101 C100 1.399 . S
C101 H107 0.930 . S
H102 C82 0.931 . S
H103 C83 0.930 . S
H104 C91 0.931 . S
H105 C92 0.929 . S
H106 C100 0.929 . S
H107 C101 0.930 . S
Mn108 O113 2.095 . S
Mn108 O123 2.162 . S
Mn108 O124 2.297 . S
Mn108 O132 2.385 . S
Mn108 O133 2.209 . S
Mn108 O134 2.094 . S
Mn109 O114 2.121 . S
Mn109 N116 2.257 . S
Mn109 N125 2.282 . S
Mn109 O133 2.215 . S
Mn109 O135 2.117 . S
C110 O132 1.234 . S
C110 O133 1.283 . S
C111 O123 1.281 . S
C111 O124 1.236 . S
C112 O134 1.240 . S
C112 O135 1.264 . S
O113 Mn108 2.095 . S
O113 C122 1.250 . S
O114 Mn109 2.121 . S
O114 C122 1.258 . S
C115 N116 1.326 . S
C115 C119 1.460 . S
C115 H121 0.929 . S
N116 Mn109 2.257 . S
N116 C115 1.326 . S
N116 C120 1.362 . S
C117 C118 1.258 . S
C117 C120 1.431 . S
C117 C137 1.449 . S
C118 C117 1.258 . S
C118 C119 1.477 . S
C118 H138 0.931 . S
C119 C115 1.460 . S
C119 C118 1.477 . S
C119 H139 0.930 . S
C120 N116 1.362 . S
C120 C117 1.431 . S
C120 C130 1.476 . S
H121 C115 0.929 . S
C122 O113 1.250 . S
C122 O114 1.258 . S
O123 Mn108 2.162 . S
O123 C111 1.281 . S
O124 Mn108 2.297 . S
O124 C111 1.236 . S
N125 Mn109 2.282 . S
N125 C126 1.328 . S
N125 C130 1.318 . S
C126 N125 1.328 . S
C126 C127 1.457 . S
C126 H131 0.929 . S
C127 C126 1.457 . S
C127 C128 1.291 . S
C127 H140 0.931 . S
C128 C127 1.291 . S
C128 C129 1.373 . S
C128 H141 0.929 . S
C129 C128 1.373 . S
C129 C130 1.396 . S
C129 C136 1.403 . S
C130 C120 1.476 . S
C130 N125 1.318 . S
C130 C129 1.396 . S
H131 C126 0.929 . S
O132 Mn108 2.385 . S
O132 C110 1.234 . S
O133 Mn108 2.209 . S
O133 Mn109 2.215 . S
O133 C110 1.283 . S
O134 Mn108 2.094 . S
O134 C112 1.240 . S
O135 Mn109 2.117 . S
O135 C112 1.264 . S
C136 C129 1.403 . S
C136 C137 1.399 . S
C136 H142 0.929 . S
C137 C117 1.449 . S
C137 C136 1.399 . S
C137 H143 0.930 . S
H138 C118 0.931 . S
H139 C119 0.930 . S
H140 C127 0.931 . S
H141 C128 0.929 . S
H142 C136 0.929 . S
H143 C137 0.930 . S
Mn144 O149 2.095 . S
Mn144 O159 2.162 . S
Mn144 O160 2.297 . S
Mn144 O168 2.385 . S
Mn144 O169 2.209 . S
Mn144 O170 2.094 . S
Mn145 O150 2.121 . S
Mn145 N152 2.257 . S
Mn145 N161 2.282 . S
Mn145 O169 2.215 . S
Mn145 O171 2.117 . S
C146 O168 1.234 . S
C146 O169 1.283 . S
C147 O159 1.281 . S
C147 O160 1.236 . S
C148 O170 1.240 . S
C148 O171 1.264 . S
O149 Mn144 2.095 . S
O149 C158 1.250 . S
O150 Mn145 2.121 . S
O150 C158 1.258 . S
C151 N152 1.326 . S
C151 C155 1.460 . S
C151 H157 0.929 . S
N152 Mn145 2.257 . S
N152 C151 1.326 . S
N152 C156 1.362 . S
C153 C154 1.258 . S
C153 C156 1.431 . S
C153 C173 1.449 . S
C154 C153 1.258 . S
C154 C155 1.477 . S
C154 H174 0.931 . S
C155 C151 1.460 . S
C155 C154 1.477 . S
C155 H175 0.930 . S
C156 N152 1.362 . S
C156 C153 1.431 . S
C156 C166 1.476 . S
H157 C151 0.929 . S
C158 O149 1.250 . S
C158 O150 1.258 . S
O159 Mn144 2.162 . S
O159 C147 1.281 . S
O160 Mn144 2.297 . S
O160 C147 1.236 . S
N161 Mn145 2.282 . S
N161 C162 1.328 . S
N161 C166 1.318 . S
C162 N161 1.328 . S
C162 C163 1.457 . S
C162 H167 0.929 . S
C163 C162 1.457 . S
C163 C164 1.291 . S
C163 H176 0.931 . S
C164 C163 1.291 . S
C164 C165 1.373 . S
C164 H177 0.929 . S
C165 C164 1.373 . S
C165 C166 1.396 . S
C165 C172 1.403 . S
C166 C156 1.476 . S
C166 N161 1.318 . S
C166 C165 1.396 . S
H167 C162 0.929 . S
O168 Mn144 2.385 . S
O168 C146 1.234 . S
O169 Mn144 2.209 . S
O169 Mn145 2.215 . S
O169 C146 1.283 . S
O170 Mn144 2.094 . S
O170 C148 1.240 . S
O171 Mn145 2.117 . S
O171 C148 1.264 . S
C172 C165 1.403 . S
C172 C173 1.399 . S
C172 H178 0.929 . S
C173 C153 1.449 . S
C173 C172 1.399 . S
C173 H179 0.930 . S
H174 C154 0.931 . S
H175 C155 0.930 . S
H176 C163 0.931 . S
H177 C164 0.929 . S
H178 C172 0.929 . S
H179 C173 0.930 . S
Mn180 O185 2.095 . S
Mn180 O195 2.162 . S
Mn180 O196 2.297 . S
Mn180 O204 2.385 . S
Mn180 O205 2.209 . S
Mn180 O206 2.094 . S
Mn181 O186 2.121 . S
Mn181 N188 2.257 . S
Mn181 N197 2.282 . S
Mn181 O205 2.215 . S
Mn181 O207 2.117 . S
C182 O204 1.234 . S
C182 O205 1.283 . S
C183 O195 1.281 . S
C183 O196 1.236 . S
C184 O206 1.240 . S
C184 O207 1.264 . S
O185 Mn180 2.095 . S
O185 C194 1.250 . S
O186 Mn181 2.121 . S
O186 C194 1.258 . S
C187 N188 1.326 . S
C187 C191 1.460 . S
C187 H193 0.929 . S
N188 Mn181 2.257 . S
N188 C187 1.326 . S
N188 C192 1.362 . S
C189 C190 1.258 . S
C189 C192 1.431 . S
C189 C209 1.449 . S
C190 C189 1.258 . S
C190 C191 1.477 . S
C190 H210 0.931 . S
C191 C187 1.460 . S
C191 C190 1.477 . S
C191 H211 0.930 . S
C192 N188 1.362 . S
C192 C189 1.431 . S
C192 C202 1.476 . S
H193 C187 0.929 . S
C194 O185 1.250 . S
C194 O186 1.258 . S
O195 Mn180 2.162 . S
O195 C183 1.281 . S
O196 Mn180 2.297 . S
O196 C183 1.236 . S
N197 Mn181 2.282 . S
N197 C198 1.328 . S
N197 C202 1.318 . S
C198 N197 1.328 . S
C198 C199 1.457 . S
C198 H203 0.929 . S
C199 C198 1.457 . S
C199 C200 1.291 . S
C199 H212 0.931 . S
C200 C199 1.291 . S
C200 C201 1.373 . S
C200 H213 0.929 . S
C201 C200 1.373 . S
C201 C202 1.396 . S
C201 C208 1.403 . S
C202 C192 1.476 . S
C202 N197 1.318 . S
C202 C201 1.396 . S
H203 C198 0.929 . S
O204 Mn180 2.385 . S
O204 C182 1.234 . S
O205 Mn180 2.209 . S
O205 Mn181 2.215 . S
O205 C182 1.283 . S
O206 Mn180 2.094 . S
O206 C184 1.240 . S
O207 Mn181 2.117 . S
O207 C184 1.264 . S
C208 C201 1.403 . S
C208 C209 1.399 . S
C208 H214 0.929 . S
C209 C189 1.449 . S
C209 C208 1.399 . S
C209 H215 0.930 . S
H210 C190 0.931 . S
H211 C191 0.930 . S
H212 C199 0.931 . S
H213 C200 0.929 . S
H214 C208 0.929 . S
H215 C209 0.930 . S
Mn216 O221 2.095 . S
Mn216 O231 2.162 . S
Mn216 O232 2.297 . S
Mn216 O240 2.385 . S
Mn216 O241 2.209 . S
Mn216 O242 2.094 . S
Mn217 O222 2.121 . S
Mn217 N224 2.257 . S
Mn217 N233 2.282 . S
Mn217 O241 2.215 . S
Mn217 O243 2.117 . S
C218 O240 1.234 . S
C218 O241 1.283 . S
C219 O231 1.281 . S
C219 O232 1.236 . S
C220 O242 1.240 . S
C220 O243 1.264 . S
O221 Mn216 2.095 . S
O221 C230 1.250 . S
O222 Mn217 2.121 . S
O222 C230 1.258 . S
C223 N224 1.326 . S
C223 C227 1.460 . S
C223 H229 0.929 . S
N224 Mn217 2.257 . S
N224 C223 1.326 . S
N224 C228 1.362 . S
C225 C226 1.258 . S
C225 C228 1.431 . S
C225 C245 1.449 . S
C226 C225 1.258 . S
C226 C227 1.477 . S
C226 H246 0.931 . S
C227 C223 1.460 . S
C227 C226 1.477 . S
C227 H247 0.930 . S
C228 N224 1.362 . S
C228 C225 1.431 . S
C228 C238 1.476 . S
H229 C223 0.929 . S
C230 O221 1.250 . S
C230 O222 1.258 . S
O231 Mn216 2.162 . S
O231 C219 1.281 . S
O232 Mn216 2.297 . S
O232 C219 1.236 . S
N233 Mn217 2.282 . S
N233 C234 1.328 . S
N233 C238 1.318 . S
C234 N233 1.328 . S
C234 C235 1.457 . S
C234 H239 0.929 . S
C235 C234 1.457 . S
C235 C236 1.291 . S
C235 H248 0.931 . S
C236 C235 1.291 . S
C236 C237 1.373 . S
C236 H249 0.929 . S
C237 C236 1.373 . S
C237 C238 1.396 . S
C237 C244 1.403 . S
C238 C228 1.476 . S
C238 N233 1.318 . S
C238 C237 1.396 . S
H239 C234 0.929 . S
O240 Mn216 2.385 . S
O240 C218 1.234 . S
O241 Mn216 2.209 . S
O241 Mn217 2.215 . S
O241 C218 1.283 . S
O242 Mn216 2.094 . S
O242 C220 1.240 . S
O243 Mn217 2.117 . S
O243 C220 1.264 . S
C244 C237 1.403 . S
C244 C245 1.399 . S
C244 H250 0.929 . S
C245 C225 1.449 . S
C245 C244 1.399 . S
C245 H251 0.930 . S
H246 C226 0.931 . S
H247 C227 0.930 . S
H248 C235 0.931 . S
H249 C236 0.929 . S
H250 C244 0.929 . S
H251 C245 0.930 . S
Mn252 O257 2.095 . S
Mn252 O267 2.162 . S
Mn252 O268 2.297 . S
Mn252 O276 2.385 . S
Mn252 O277 2.209 . S
Mn252 O278 2.094 . S
Mn253 O258 2.121 . S
Mn253 N260 2.257 . S
Mn253 N269 2.282 . S
Mn253 O277 2.215 . S
Mn253 O279 2.117 . S
C254 O276 1.234 . S
C254 O277 1.283 . S
C255 O267 1.281 . S
C255 O268 1.236 . S
C256 O278 1.240 . S
C256 O279 1.264 . S
O257 Mn252 2.095 . S
O257 C266 1.250 . S
O258 Mn253 2.121 . S
O258 C266 1.258 . S
C259 N260 1.326 . S
C259 C263 1.460 . S
C259 H265 0.929 . S
N260 Mn253 2.257 . S
N260 C259 1.326 . S
N260 C264 1.362 . S
C261 C262 1.258 . S
C261 C264 1.431 . S
C261 C281 1.449 . S
C262 C261 1.258 . S
C262 C263 1.477 . S
C262 H282 0.931 . S
C263 C259 1.460 . S
C263 C262 1.477 . S
C263 H283 0.930 . S
C264 N260 1.362 . S
C264 C261 1.431 . S
C264 C274 1.476 . S
H265 C259 0.929 . S
C266 O257 1.250 . S
C266 O258 1.258 . S
O267 Mn252 2.162 . S
O267 C255 1.281 . S
O268 Mn252 2.297 . S
O268 C255 1.236 . S
N269 Mn253 2.282 . S
N269 C270 1.328 . S
N269 C274 1.318 . S
C270 N269 1.328 . S
C270 C271 1.457 . S
C270 H275 0.929 . S
C271 C270 1.457 . S
C271 C272 1.291 . S
C271 H284 0.931 . S
C272 C271 1.291 . S
C272 C273 1.373 . S
C272 H285 0.929 . S
C273 C272 1.373 . S
C273 C274 1.396 . S
C273 C280 1.403 . S
C274 C264 1.476 . S
C274 N269 1.318 . S
C274 C273 1.396 . S
H275 C270 0.929 . S
O276 Mn252 2.385 . S
O276 C254 1.234 . S
O277 Mn252 2.209 . S
O277 Mn253 2.215 . S
O277 C254 1.283 . S
O278 Mn252 2.094 . S
O278 C256 1.240 . S
O279 Mn253 2.117 . S
O279 C256 1.264 . S
C280 C273 1.403 . S
C280 C281 1.399 . S
C280 H286 0.929 . S
C281 C261 1.449 . S
C281 C280 1.399 . S
C281 H287 0.930 . S
H282 C262 0.931 . S
H283 C263 0.930 . S
H284 C271 0.931 . S
H285 C272 0.929 . S
H286 C280 0.929 . S
H287 C281 0.930 . S
Mn288 O293 2.095 . S
Mn288 O303 2.162 . S
Mn288 O304 2.297 . S
Mn288 O312 2.385 . S
Mn288 O313 2.209 . S
Mn288 O314 2.094 . S
Mn289 O294 2.121 . S
Mn289 N296 2.257 . S
Mn289 N305 2.282 . S
Mn289 O313 2.215 . S
Mn289 O315 2.117 . S
C290 O312 1.234 . S
C290 O313 1.283 . S
C291 O303 1.281 . S
C291 O304 1.236 . S
C292 O314 1.240 . S
C292 O315 1.264 . S
O293 Mn288 2.095 . S
O293 C302 1.250 . S
O294 Mn289 2.121 . S
O294 C302 1.258 . S
C295 N296 1.326 . S
C295 C299 1.460 . S
C295 H301 0.929 . S
N296 Mn289 2.257 . S
N296 C295 1.326 . S
N296 C300 1.362 . S
C297 C298 1.258 . S
C297 C300 1.431 . S
C297 C317 1.449 . S
C298 C297 1.258 . S
C298 C299 1.477 . S
C298 H318 0.931 . S
C299 C295 1.460 . S
C299 C298 1.477 . S
C299 H319 0.930 . S
C300 N296 1.362 . S
C300 C297 1.431 . S
C300 C310 1.476 . S
H301 C295 0.929 . S
C302 O293 1.250 . S
C302 O294 1.258 . S
O303 Mn288 2.162 . S
O303 C291 1.281 . S
O304 Mn288 2.297 . S
O304 C291 1.236 . S
N305 Mn289 2.282 . S
N305 C306 1.328 . S
N305 C310 1.318 . S
C306 N305 1.328 . S
C306 C307 1.457 . S
C306 H311 0.929 . S
C307 C306 1.457 . S
C307 C308 1.291 . S
C307 H320 0.931 . S
C308 C307 1.291 . S
C308 C309 1.373 . S
C308 H321 0.929 . S
C309 C308 1.373 . S
C309 C310 1.396 . S
C309 C316 1.403 . S
C310 C300 1.476 . S
C310 N305 1.318 . S
C310 C309 1.396 . S
H311 C306 0.929 . S
O312 Mn288 2.385 . S
O312 C290 1.234 . S
O313 Mn288 2.209 . S
O313 Mn289 2.215 . S
O313 C290 1.283 . S
O314 Mn288 2.094 . S
O314 C292 1.240 . S
O315 Mn289 2.117 . S
O315 C292 1.264 . S
C316 C309 1.403 . S
C316 C317 1.399 . S
C316 H322 0.929 . S
C317 C297 1.449 . S
C317 C316 1.399 . S
C317 H323 0.930 . S
H318 C298 0.931 . S
H319 C299 0.930 . S
H320 C307 0.931 . S
H321 C308 0.929 . S
H322 C316 0.929 . S
H323 C317 0.930 . S
Mn324 O329 2.095 . S
Mn324 O339 2.162 . S
Mn324 O340 2.297 . S
Mn324 O348 2.385 . S
Mn324 O349 2.209 . S
Mn324 O350 2.094 . S
Mn325 O330 2.121 . S
Mn325 N332 2.257 . S
Mn325 N341 2.282 . S
Mn325 O349 2.215 . S
Mn325 O351 2.117 . S
C326 O348 1.234 . S
C326 O349 1.283 . S
C327 O339 1.281 . S
C327 O340 1.236 . S
C328 O350 1.240 . S
C328 O351 1.264 . S
O329 Mn324 2.095 . S
O329 C338 1.250 . S
O330 Mn325 2.121 . S
O330 C338 1.258 . S
C331 N332 1.326 . S
C331 C335 1.460 . S
C331 H337 0.929 . S
N332 Mn325 2.257 . S
N332 C331 1.326 . S
N332 C336 1.362 . S
C333 C334 1.258 . S
C333 C336 1.431 . S
C333 C353 1.449 . S
C334 C333 1.258 . S
C334 C335 1.477 . S
C334 H354 0.931 . S
C335 C331 1.460 . S
C335 C334 1.477 . S
C335 H355 0.930 . S
C336 N332 1.362 . S
C336 C333 1.431 . S
C336 C346 1.476 . S
H337 C331 0.929 . S
C338 O329 1.250 . S
C338 O330 1.258 . S
O339 Mn324 2.162 . S
O339 C327 1.281 . S
O340 Mn324 2.297 . S
O340 C327 1.236 . S
N341 Mn325 2.282 . S
N341 C342 1.328 . S
N341 C346 1.318 . S
C342 N341 1.328 . S
C342 C343 1.457 . S
C342 H347 0.929 . S
C343 C342 1.457 . S
C343 C344 1.291 . S
C343 H356 0.931 . S
C344 C343 1.291 . S
C344 C345 1.373 . S
C344 H357 0.929 . S
C345 C344 1.373 . S
C345 C346 1.396 . S
C345 C352 1.403 . S
C346 C336 1.476 . S
C346 N341 1.318 . S
C346 C345 1.396 . S
H347 C342 0.929 . S
O348 Mn324 2.385 . S
O348 C326 1.234 . S
O349 Mn324 2.209 . S
O349 Mn325 2.215 . S
O349 C326 1.283 . S
O350 Mn324 2.094 . S
O350 C328 1.240 . S
O351 Mn325 2.117 . S
O351 C328 1.264 . S
C352 C345 1.403 . S
C352 C353 1.399 . S
C352 H358 0.929 . S
C353 C333 1.449 . S
C353 C352 1.399 . S
C353 H359 0.930 . S
H354 C334 0.931 . S
H355 C335 0.930 . S
H356 C343 0.931 . S
H357 C344 0.929 . S
H358 C352 0.929 . S
H359 C353 0.930 . S
Mn360 O365 2.095 . S
Mn360 O375 2.162 . S
Mn360 O376 2.297 . S
Mn360 O384 2.385 . S
Mn360 O385 2.209 . S
Mn360 O386 2.094 . S
Mn361 O366 2.121 . S
Mn361 N368 2.257 . S
Mn361 N377 2.282 . S
Mn361 O385 2.215 . S
Mn361 O387 2.117 . S
C362 O384 1.234 . S
C362 O385 1.283 . S
C363 O375 1.281 . S
C363 O376 1.236 . S
C364 O386 1.240 . S
C364 O387 1.264 . S
O365 Mn360 2.095 . S
O365 C374 1.250 . S
O366 Mn361 2.121 . S
O366 C374 1.258 . S
C367 N368 1.326 . S
C367 C371 1.460 . S
C367 H373 0.929 . S
N368 Mn361 2.257 . S
N368 C367 1.326 . S
N368 C372 1.362 . S
C369 C370 1.258 . S
C369 C372 1.431 . S
C369 C389 1.449 . S
C370 C369 1.258 . S
C370 C371 1.477 . S
C370 H390 0.931 . S
C371 C367 1.460 . S
C371 C370 1.477 . S
C371 H391 0.930 . S
C372 N368 1.362 . S
C372 C369 1.431 . S
C372 C382 1.476 . S
H373 C367 0.929 . S
C374 O365 1.250 . S
C374 O366 1.258 . S
O375 Mn360 2.162 . S
O375 C363 1.281 . S
O376 Mn360 2.297 . S
O376 C363 1.236 . S
N377 Mn361 2.282 . S
N377 C378 1.328 . S
N377 C382 1.318 . S
C378 N377 1.328 . S
C378 C379 1.457 . S
C378 H383 0.929 . S
C379 C378 1.457 . S
C379 C380 1.291 . S
C379 H392 0.931 . S
C380 C379 1.291 . S
C380 C381 1.373 . S
C380 H393 0.929 . S
C381 C380 1.373 . S
C381 C382 1.396 . S
C381 C388 1.403 . S
C382 C372 1.476 . S
C382 N377 1.318 . S
C382 C381 1.396 . S
H383 C378 0.929 . S
O384 Mn360 2.385 . S
O384 C362 1.234 . S
O385 Mn360 2.209 . S
O385 Mn361 2.215 . S
O385 C362 1.283 . S
O386 Mn360 2.094 . S
O386 C364 1.240 . S
O387 Mn361 2.117 . S
O387 C364 1.264 . S
C388 C381 1.403 . S
C388 C389 1.399 . S
C388 H394 0.929 . S
C389 C369 1.449 . S
C389 C388 1.399 . S
C389 H395 0.930 . S
H390 C370 0.931 . S
H391 C371 0.930 . S
H392 C379 0.931 . S
H393 C380 0.929 . S
H394 C388 0.929 . S
H395 C389 0.930 . S
Mn396 O401 2.095 . S
Mn396 O411 2.162 . S
Mn396 O412 2.297 . S
Mn396 O420 2.385 . S
Mn396 O421 2.209 . S
Mn396 O422 2.094 . S
Mn397 O402 2.121 . S
Mn397 N404 2.257 . S
Mn397 N413 2.282 . S
Mn397 O421 2.215 . S
Mn397 O423 2.117 . S
C398 O420 1.234 . S
C398 O421 1.283 . S
C399 O411 1.281 . S
C399 O412 1.236 . S
C400 O422 1.240 . S
C400 O423 1.264 . S
O401 Mn396 2.095 . S
O401 C410 1.250 . S
O402 Mn397 2.121 . S
O402 C410 1.258 . S
C403 N404 1.326 . S
C403 C407 1.460 . S
C403 H409 0.929 . S
N404 Mn397 2.257 . S
N404 C403 1.326 . S
N404 C408 1.362 . S
C405 C406 1.258 . S
C405 C408 1.431 . S
C405 C425 1.449 . S
C406 C405 1.258 . S
C406 C407 1.477 . S
C406 H426 0.931 . S
C407 C403 1.460 . S
C407 C406 1.477 . S
C407 H427 0.930 . S
C408 N404 1.362 . S
C408 C405 1.431 . S
C408 C418 1.476 . S
H409 C403 0.929 . S
C410 O401 1.250 . S
C410 O402 1.258 . S
O411 Mn396 2.162 . S
O411 C399 1.281 . S
O412 Mn396 2.297 . S
O412 C399 1.236 . S
N413 Mn397 2.282 . S
N413 C414 1.328 . S
N413 C418 1.318 . S
C414 N413 1.328 . S
C414 C415 1.457 . S
C414 H419 0.929 . S
C415 C414 1.457 . S
C415 C416 1.291 . S
C415 H428 0.931 . S
C416 C415 1.291 . S
C416 C417 1.373 . S
C416 H429 0.929 . S
C417 C416 1.373 . S
C417 C418 1.396 . S
C417 C424 1.403 . S
C418 C408 1.476 . S
C418 N413 1.318 . S
C418 C417 1.396 . S
H419 C414 0.929 . S
O420 Mn396 2.385 . S
O420 C398 1.234 . S
O421 Mn396 2.209 . S
O421 Mn397 2.215 . S
O421 C398 1.283 . S
O422 Mn396 2.094 . S
O422 C400 1.240 . S
O423 Mn397 2.117 . S
O423 C400 1.264 . S
C424 C417 1.403 . S
C424 C425 1.399 . S
C424 H430 0.929 . S
C425 C405 1.449 . S
C425 C424 1.399 . S
C425 H431 0.930 . S
H426 C406 0.931 . S
H427 C407 0.930 . S
H428 C415 0.931 . S
H429 C416 0.929 . S
H430 C424 0.929 . S
H431 C425 0.930 . S
Mn432 O437 2.095 . S
Mn432 O447 2.162 . S
Mn432 O448 2.297 . S
Mn432 O456 2.385 . S
Mn432 O457 2.209 . S
Mn432 O458 2.094 . S
Mn433 O438 2.121 . S
Mn433 N440 2.257 . S
Mn433 N449 2.282 . S
Mn433 O457 2.215 . S
Mn433 O459 2.117 . S
C434 O456 1.234 . S
C434 O457 1.283 . S
C435 O447 1.281 . S
C435 O448 1.236 . S
C436 O458 1.240 . S
C436 O459 1.264 . S
O437 Mn432 2.095 . S
O437 C446 1.250 . S
O438 Mn433 2.121 . S
O438 C446 1.258 . S
C439 N440 1.326 . S
C439 C443 1.460 . S
C439 H445 0.929 . S
N440 Mn433 2.257 . S
N440 C439 1.326 . S
N440 C444 1.362 . S
C441 C442 1.258 . S
C441 C444 1.431 . S
C441 C461 1.449 . S
C442 C441 1.258 . S
C442 C443 1.477 . S
C442 H462 0.931 . S
C443 C439 1.460 . S
C443 C442 1.477 . S
C443 H463 0.930 . S
C444 N440 1.362 . S
C444 C441 1.431 . S
C444 C454 1.476 . S
H445 C439 0.929 . S
C446 O437 1.250 . S
C446 O438 1.258 . S
O447 Mn432 2.162 . S
O447 C435 1.281 . S
O448 Mn432 2.297 . S
O448 C435 1.236 . S
N449 Mn433 2.282 . S
N449 C450 1.328 . S
N449 C454 1.318 . S
C450 N449 1.328 . S
C450 C451 1.457 . S
C450 H455 0.929 . S
C451 C450 1.457 . S
C451 C452 1.291 . S
C451 H464 0.931 . S
C452 C451 1.291 . S
C452 C453 1.373 . S
C452 H465 0.929 . S
C453 C452 1.373 . S
C453 C454 1.396 . S
C453 C460 1.403 . S
C454 C444 1.476 . S
C454 N449 1.318 . S
C454 C453 1.396 . S
H455 C450 0.929 . S
O456 Mn432 2.385 . S
O456 C434 1.234 . S
O457 Mn432 2.209 . S
O457 Mn433 2.215 . S
O457 C434 1.283 . S
O458 Mn432 2.094 . S
O458 C436 1.240 . S
O459 Mn433 2.117 . S
O459 C436 1.264 . S
C460 C453 1.403 . S
C460 C461 1.399 . S
C460 H466 0.929 . S
C461 C441 1.449 . S
C461 C460 1.399 . S
C461 H467 0.930 . S
H462 C442 0.931 . S
H463 C443 0.930 . S
H464 C451 0.931 . S
H465 C452 0.929 . S
H466 C460 0.929 . S
H467 C461 0.930 . S
Mn468 O473 2.095 . S
Mn468 O483 2.162 . S
Mn468 O484 2.297 . S
Mn468 O492 2.385 . S
Mn468 O493 2.209 . S
Mn468 O494 2.094 . S
Mn469 O474 2.121 . S
Mn469 N476 2.257 . S
Mn469 N485 2.282 . S
Mn469 O493 2.215 . S
Mn469 O495 2.117 . S
C470 O492 1.234 . S
C470 O493 1.283 . S
C471 O483 1.281 . S
C471 O484 1.236 . S
C472 O494 1.240 . S
C472 O495 1.264 . S
O473 Mn468 2.095 . S
O473 C482 1.250 . S
O474 Mn469 2.121 . S
O474 C482 1.258 . S
C475 N476 1.326 . S
C475 C479 1.460 . S
C475 H481 0.929 . S
N476 Mn469 2.257 . S
N476 C475 1.326 . S
N476 C480 1.362 . S
C477 C478 1.258 . S
C477 C480 1.431 . S
C477 C497 1.449 . S
C478 C477 1.258 . S
C478 C479 1.477 . S
C478 H498 0.931 . S
C479 C475 1.460 . S
C479 C478 1.477 . S
C479 H499 0.930 . S
C480 N476 1.362 . S
C480 C477 1.431 . S
C480 C490 1.476 . S
H481 C475 0.929 . S
C482 O473 1.250 . S
C482 O474 1.258 . S
O483 Mn468 2.162 . S
O483 C471 1.281 . S
O484 Mn468 2.297 . S
O484 C471 1.236 . S
N485 Mn469 2.282 . S
N485 C486 1.328 . S
N485 C490 1.318 . S
C486 N485 1.328 . S
C486 C487 1.457 . S
C486 H491 0.929 . S
C487 C486 1.457 . S
C487 C488 1.291 . S
C487 H500 0.931 . S
C488 C487 1.291 . S
C488 C489 1.373 . S
C488 H501 0.929 . S
C489 C488 1.373 . S
C489 C490 1.396 . S
C489 C496 1.403 . S
C490 C480 1.476 . S
C490 N485 1.318 . S
C490 C489 1.396 . S
H491 C486 0.929 . S
O492 Mn468 2.385 . S
O492 C470 1.234 . S
O493 Mn468 2.209 . S
O493 Mn469 2.215 . S
O493 C470 1.283 . S
O494 Mn468 2.094 . S
O494 C472 1.240 . S
O495 Mn469 2.117 . S
O495 C472 1.264 . S
C496 C489 1.403 . S
C496 C497 1.399 . S
C496 H502 0.929 . S
C497 C477 1.449 . S
C497 C496 1.399 . S
C497 H503 0.930 . S
H498 C478 0.931 . S
H499 C479 0.930 . S
H500 C487 0.931 . S
H501 C488 0.929 . S
H502 C496 0.929 . S
H503 C497 0.930 . S
Mn504 O509 2.095 . S
Mn504 O519 2.162 . S
Mn504 O520 2.297 . S
Mn504 O528 2.385 . S
Mn504 O529 2.209 . S
Mn504 O530 2.094 . S
Mn505 O510 2.121 . S
Mn505 N512 2.257 . S
Mn505 N521 2.282 . S
Mn505 O529 2.215 . S
Mn505 O531 2.117 . S
C506 O528 1.234 . S
C506 O529 1.283 . S
C507 O519 1.281 . S
C507 O520 1.236 . S
C508 O530 1.240 . S
C508 O531 1.264 . S
O509 Mn504 2.095 . S
O509 C518 1.250 . S
O510 Mn505 2.121 . S
O510 C518 1.258 . S
C511 N512 1.326 . S
C511 C515 1.460 . S
C511 H517 0.929 . S
N512 Mn505 2.257 . S
N512 C511 1.326 . S
N512 C516 1.362 . S
C513 C514 1.258 . S
C513 C516 1.431 . S
C513 C533 1.449 . S
C514 C513 1.258 . S
C514 C515 1.477 . S
C514 H534 0.931 . S
C515 C511 1.460 . S
C515 C514 1.477 . S
C515 H535 0.930 . S
C516 N512 1.362 . S
C516 C513 1.431 . S
C516 C526 1.476 . S
H517 C511 0.929 . S
C518 O509 1.250 . S
C518 O510 1.258 . S
O519 Mn504 2.162 . S
O519 C507 1.281 . S
O520 Mn504 2.297 . S
O520 C507 1.236 . S
N521 Mn505 2.282 . S
N521 C522 1.328 . S
N521 C526 1.318 . S
C522 N521 1.328 . S
C522 C523 1.457 . S
C522 H527 0.929 . S
C523 C522 1.457 . S
C523 C524 1.291 . S
C523 H536 0.931 . S
C524 C523 1.291 . S
C524 C525 1.373 . S
C524 H537 0.929 . S
C525 C524 1.373 . S
C525 C526 1.396 . S
C525 C532 1.403 . S
C526 C516 1.476 . S
C526 N521 1.318 . S
C526 C525 1.396 . S
H527 C522 0.929 . S
O528 Mn504 2.385 . S
O528 C506 1.234 . S
O529 Mn504 2.209 . S
O529 Mn505 2.215 . S
O529 C506 1.283 . S
O530 Mn504 2.094 . S
O530 C508 1.240 . S
O531 Mn505 2.117 . S
O531 C508 1.264 . S
C532 C525 1.403 . S
C532 C533 1.399 . S
C532 H538 0.929 . S
C533 C513 1.449 . S
C533 C532 1.399 . S
C533 H539 0.930 . S
H534 C514 0.931 . S
H535 C515 0.930 . S
H536 C523 0.931 . S
H537 C524 0.929 . S
H538 C532 0.929 . S
H539 C533 0.930 . S
Mn540 O545 2.095 . S
Mn540 O555 2.162 . S
Mn540 O556 2.297 . S
Mn540 O564 2.385 . S
Mn540 O565 2.209 . S
Mn540 O566 2.094 . S
Mn541 O546 2.121 . S
Mn541 N548 2.257 . S
Mn541 N557 2.282 . S
Mn541 O565 2.215 . S
Mn541 O567 2.117 . S
C542 O564 1.234 . S
C542 O565 1.283 . S
C543 O555 1.281 . S
C543 O556 1.236 . S
C544 O566 1.240 . S
C544 O567 1.264 . S
O545 Mn540 2.095 . S
O545 C554 1.250 . S
O546 Mn541 2.121 . S
O546 C554 1.258 . S
C547 N548 1.326 . S
C547 C551 1.460 . S
C547 H553 0.929 . S
N548 Mn541 2.257 . S
N548 C547 1.326 . S
N548 C552 1.362 . S
C549 C550 1.258 . S
C549 C552 1.431 . S
C549 C569 1.449 . S
C550 C549 1.258 . S
C550 C551 1.477 . S
C550 H570 0.931 . S
C551 C547 1.460 . S
C551 C550 1.477 . S
C551 H571 0.930 . S
C552 N548 1.362 . S
C552 C549 1.431 . S
C552 C562 1.476 . S
H553 C547 0.929 . S
C554 O545 1.250 . S
C554 O546 1.258 . S
O555 Mn540 2.162 . S
O555 C543 1.281 . S
O556 Mn540 2.297 . S
O556 C543 1.236 . S
N557 Mn541 2.282 . S
N557 C558 1.328 . S
N557 C562 1.318 . S
C558 N557 1.328 . S
C558 C559 1.457 . S
C558 H563 0.929 . S
C559 C558 1.457 . S
C559 C560 1.291 . S
C559 H572 0.931 . S
C560 C559 1.291 . S
C560 C561 1.373 . S
C560 H573 0.929 . S
C561 C560 1.373 . S
C561 C562 1.396 . S
C561 C568 1.403 . S
C562 C552 1.476 . S
C562 N557 1.318 . S
C562 C561 1.396 . S
H563 C558 0.929 . S
O564 Mn540 2.385 . S
O564 C542 1.234 . S
O565 Mn540 2.209 . S
O565 Mn541 2.215 . S
O565 C542 1.283 . S
O566 Mn540 2.094 . S
O566 C544 1.240 . S
O567 Mn541 2.117 . S
O567 C544 1.264 . S
C568 C561 1.403 . S
C568 C569 1.399 . S
C568 H574 0.929 . S
C569 C549 1.449 . S
C569 C568 1.399 . S
C569 H575 0.930 . S
H570 C550 0.931 . S
H571 C551 0.930 . S
H572 C559 0.931 . S
H573 C560 0.929 . S
H574 C568 0.929 . S
H575 C569 0.930 . S
Mn576 O581 2.095 . S
Mn576 O591 2.162 . S
Mn576 O592 2.297 . S
Mn576 O600 2.385 . S
Mn576 O601 2.209 . S
Mn576 O602 2.094 . S
Mn577 O582 2.121 . S
Mn577 N584 2.257 . S
Mn577 N593 2.282 . S
Mn577 O601 2.215 . S
Mn577 O603 2.117 . S
C578 O600 1.234 . S
C578 O601 1.283 . S
C579 O591 1.281 . S
C579 O592 1.236 . S
C580 O602 1.240 . S
C580 O603 1.264 . S
O581 Mn576 2.095 . S
O581 C590 1.250 . S
O582 Mn577 2.121 . S
O582 C590 1.258 . S
C583 N584 1.326 . S
C583 C587 1.460 . S
C583 H589 0.929 . S
N584 Mn577 2.257 . S
N584 C583 1.326 . S
N584 C588 1.362 . S
C585 C586 1.258 . S
C585 C588 1.431 . S
C585 C605 1.449 . S
C586 C585 1.258 . S
C586 C587 1.477 . S
C586 H606 0.931 . S
C587 C583 1.460 . S
C587 C586 1.477 . S
C587 H607 0.930 . S
C588 N584 1.362 . S
C588 C585 1.431 . S
C588 C598 1.476 . S
H589 C583 0.929 . S
C590 O581 1.250 . S
C590 O582 1.258 . S
O591 Mn576 2.162 . S
O591 C579 1.281 . S
O592 Mn576 2.297 . S
O592 C579 1.236 . S
N593 Mn577 2.282 . S
N593 C594 1.328 . S
N593 C598 1.318 . S
C594 N593 1.328 . S
C594 C595 1.457 . S
C594 H599 0.929 . S
C595 C594 1.457 . S
C595 C596 1.291 . S
C595 H608 0.931 . S
C596 C595 1.291 . S
C596 C597 1.373 . S
C596 H609 0.929 . S
C597 C596 1.373 . S
C597 C598 1.396 . S
C597 C604 1.403 . S
C598 C588 1.476 . S
C598 N593 1.318 . S
C598 C597 1.396 . S
H599 C594 0.929 . S
O600 Mn576 2.385 . S
O600 C578 1.234 . S
O601 Mn576 2.209 . S
O601 Mn577 2.215 . S
O601 C578 1.283 . S
O602 Mn576 2.094 . S
O602 C580 1.240 . S
O603 Mn577 2.117 . S
O603 C580 1.264 . S
C604 C597 1.403 . S
C604 C605 1.399 . S
C604 H610 0.929 . S
C605 C585 1.449 . S
C605 C604 1.399 . S
C605 H611 0.930 . S
H606 C586 0.931 . S
H607 C587 0.930 . S
H608 C595 0.931 . S
H609 C596 0.929 . S
H610 C604 0.929 . S
H611 C605 0.930 . S
Mn612 O617 2.095 . S
Mn612 O627 2.162 . S
Mn612 O628 2.297 . S
Mn612 O636 2.385 . S
Mn612 O637 2.209 . S
Mn612 O638 2.094 . S
Mn613 O618 2.121 . S
Mn613 N620 2.257 . S
Mn613 N629 2.282 . S
Mn613 O637 2.215 . S
Mn613 O639 2.117 . S
C614 O636 1.234 . S
C614 O637 1.283 . S
C615 O627 1.281 . S
C615 O628 1.236 . S
C616 O638 1.240 . S
C616 O639 1.264 . S
O617 Mn612 2.095 . S
O617 C626 1.250 . S
O618 Mn613 2.121 . S
O618 C626 1.258 . S
C619 N620 1.326 . S
C619 C623 1.460 . S
C619 H625 0.929 . S
N620 Mn613 2.257 . S
N620 C619 1.326 . S
N620 C624 1.362 . S
C621 C622 1.258 . S
C621 C624 1.431 . S
C621 C641 1.449 . S
C622 C621 1.258 . S
C622 C623 1.477 . S
C622 H642 0.931 . S
C623 C619 1.460 . S
C623 C622 1.477 . S
C623 H643 0.930 . S
C624 N620 1.362 . S
C624 C621 1.431 . S
C624 C634 1.476 . S
H625 C619 0.929 . S
C626 O617 1.250 . S
C626 O618 1.258 . S
O627 Mn612 2.162 . S
O627 C615 1.281 . S
O628 Mn612 2.297 . S
O628 C615 1.236 . S
N629 Mn613 2.282 . S
N629 C630 1.328 . S
N629 C634 1.318 . S
C630 N629 1.328 . S
C630 C631 1.457 . S
C630 H635 0.929 . S
C631 C630 1.457 . S
C631 C632 1.291 . S
C631 H644 0.931 . S
C632 C631 1.291 . S
C632 C633 1.373 . S
C632 H645 0.929 . S
C633 C632 1.373 . S
C633 C634 1.396 . S
C633 C640 1.403 . S
C634 C624 1.476 . S
C634 N629 1.318 . S
C634 C633 1.396 . S
H635 C630 0.929 . S
O636 Mn612 2.385 . S
O636 C614 1.234 . S
O637 Mn612 2.209 . S
O637 Mn613 2.215 . S
O637 C614 1.283 . S
O638 Mn612 2.094 . S
O638 C616 1.240 . S
O639 Mn613 2.117 . S
O639 C616 1.264 . S
C640 C633 1.403 . S
C640 C641 1.399 . S
C640 H646 0.929 . S
C641 C621 1.449 . S
C641 C640 1.399 . S
C641 H647 0.930 . S
H642 C622 0.931 . S
H643 C623 0.930 . S
H644 C631 0.931 . S
H645 C632 0.929 . S
H646 C640 0.929 . S
H647 C641 0.930 . S
Mn648 O653 2.095 . S
Mn648 O663 2.162 . S
Mn648 O664 2.297 . S
Mn648 O672 2.385 . S
Mn648 O673 2.209 . S
Mn648 O674 2.094 . S
Mn649 O654 2.121 . S
Mn649 N656 2.257 . S
Mn649 N665 2.282 . S
Mn649 O673 2.215 . S
Mn649 O675 2.117 . S
C650 O672 1.234 . S
C650 O673 1.283 . S
C651 O663 1.281 . S
C651 O664 1.236 . S
C652 O674 1.240 . S
C652 O675 1.264 . S
O653 Mn648 2.095 . S
O653 C662 1.250 . S
O654 Mn649 2.121 . S
O654 C662 1.258 . S
C655 N656 1.326 . S
C655 C659 1.460 . S
C655 H661 0.929 . S
N656 Mn649 2.257 . S
N656 C655 1.326 . S
N656 C660 1.362 . S
C657 C658 1.258 . S
C657 C660 1.431 . S
C657 C677 1.449 . S
C658 C657 1.258 . S
C658 C659 1.477 . S
C658 H678 0.931 . S
C659 C655 1.460 . S
C659 C658 1.477 . S
C659 H679 0.930 . S
C660 N656 1.362 . S
C660 C657 1.431 . S
C660 C670 1.476 . S
H661 C655 0.929 . S
C662 O653 1.250 . S
C662 O654 1.258 . S
O663 Mn648 2.162 . S
O663 C651 1.281 . S
O664 Mn648 2.297 . S
O664 C651 1.236 . S
N665 Mn649 2.282 . S
N665 C666 1.328 . S
N665 C670 1.318 . S
C666 N665 1.328 . S
C666 C667 1.457 . S
C666 H671 0.929 . S
C667 C666 1.457 . S
C667 C668 1.291 . S
C667 H680 0.931 . S
C668 C667 1.291 . S
C668 C669 1.373 . S
C668 H681 0.929 . S
C669 C668 1.373 . S
C669 C670 1.396 . S
C669 C676 1.403 . S
C670 C660 1.476 . S
C670 N665 1.318 . S
C670 C669 1.396 . S
H671 C666 0.929 . S
O672 Mn648 2.385 . S
O672 C650 1.234 . S
O673 Mn648 2.209 . S
O673 Mn649 2.215 . S
O673 C650 1.283 . S
O674 Mn648 2.094 . S
O674 C652 1.240 . S
O675 Mn649 2.117 . S
O675 C652 1.264 . S
C676 C669 1.403 . S
C676 C677 1.399 . S
C676 H682 0.929 . S
C677 C657 1.449 . S
C677 C676 1.399 . S
C677 H683 0.930 . S
H678 C658 0.931 . S
H679 C659 0.930 . S
H680 C667 0.931 . S
H681 C668 0.929 . S
H682 C676 0.929 . S
H683 C677 0.930 . S
Mn684 O689 2.095 . S
Mn684 O699 2.162 . S
Mn684 O700 2.297 . S
Mn684 O708 2.385 . S
Mn684 O709 2.209 . S
Mn684 O710 2.094 . S
Mn685 O690 2.121 . S
Mn685 N692 2.257 . S
Mn685 N701 2.282 . S
Mn685 O709 2.215 . S
Mn685 O711 2.117 . S
C686 O708 1.234 . S
C686 O709 1.283 . S
C687 O699 1.281 . S
C687 O700 1.236 . S
C688 O710 1.240 . S
C688 O711 1.264 . S
O689 Mn684 2.095 . S
O689 C698 1.250 . S
O690 Mn685 2.121 . S
O690 C698 1.258 . S
C691 N692 1.326 . S
C691 C695 1.460 . S
C691 H697 0.929 . S
N692 Mn685 2.257 . S
N692 C691 1.326 . S
N692 C696 1.362 . S
C693 C694 1.258 . S
C693 C696 1.431 . S
C693 C713 1.449 . S
C694 C693 1.258 . S
C694 C695 1.477 . S
C694 H714 0.931 . S
C695 C691 1.460 . S
C695 C694 1.477 . S
C695 H715 0.930 . S
C696 N692 1.362 . S
C696 C693 1.431 . S
C696 C706 1.476 . S
H697 C691 0.929 . S
C698 O689 1.250 . S
C698 O690 1.258 . S
O699 Mn684 2.162 . S
O699 C687 1.281 . S
O700 Mn684 2.297 . S
O700 C687 1.236 . S
N701 Mn685 2.282 . S
N701 C702 1.328 . S
N701 C706 1.318 . S
C702 N701 1.328 . S
C702 C703 1.457 . S
C702 H707 0.929 . S
C703 C702 1.457 . S
C703 C704 1.291 . S
C703 H716 0.931 . S
C704 C703 1.291 . S
C704 C705 1.373 . S
C704 H717 0.929 . S
C705 C704 1.373 . S
C705 C706 1.396 . S
C705 C712 1.403 . S
C706 C696 1.476 . S
C706 N701 1.318 . S
C706 C705 1.396 . S
H707 C702 0.929 . S
O708 Mn684 2.385 . S
O708 C686 1.234 . S
O709 Mn684 2.209 . S
O709 Mn685 2.215 . S
O709 C686 1.283 . S
O710 Mn684 2.094 . S
O710 C688 1.240 . S
O711 Mn685 2.117 . S
O711 C688 1.264 . S
C712 C705 1.403 . S
C712 C713 1.399 . S
C712 H718 0.929 . S
C713 C693 1.449 . S
C713 C712 1.399 . S
C713 H719 0.930 . S
H714 C694 0.931 . S
H715 C695 0.930 . S
H716 C703 0.931 . S
H717 C704 0.929 . S
H718 C712 0.929 . S
H719 C713 0.930 . S
Mn720 O725 2.095 . S
Mn720 O735 2.162 . S
Mn720 O736 2.297 . S
Mn720 O744 2.385 . S
Mn720 O745 2.209 . S
Mn720 O746 2.094 . S
Mn721 O726 2.121 . S
Mn721 N728 2.257 . S
Mn721 N737 2.282 . S
Mn721 O745 2.215 . S
Mn721 O747 2.117 . S
C722 O744 1.234 . S
C722 O745 1.283 . S
C723 O735 1.281 . S
C723 O736 1.236 . S
C724 O746 1.240 . S
C724 O747 1.264 . S
O725 Mn720 2.095 . S
O725 C734 1.250 . S
O726 Mn721 2.121 . S
O726 C734 1.258 . S
C727 N728 1.326 . S
C727 C731 1.460 . S
C727 H733 0.929 . S
N728 Mn721 2.257 . S
N728 C727 1.326 . S
N728 C732 1.362 . S
C729 C730 1.258 . S
C729 C732 1.431 . S
C729 C749 1.449 . S
C730 C729 1.258 . S
C730 C731 1.477 . S
C730 H750 0.931 . S
C731 C727 1.460 . S
C731 C730 1.477 . S
C731 H751 0.930 . S
C732 N728 1.362 . S
C732 C729 1.431 . S
C732 C742 1.476 . S
H733 C727 0.929 . S
C734 O725 1.250 . S
C734 O726 1.258 . S
O735 Mn720 2.162 . S
O735 C723 1.281 . S
O736 Mn720 2.297 . S
O736 C723 1.236 . S
N737 Mn721 2.282 . S
N737 C738 1.328 . S
N737 C742 1.318 . S
C738 N737 1.328 . S
C738 C739 1.457 . S
C738 H743 0.929 . S
C739 C738 1.457 . S
C739 C740 1.291 . S
C739 H752 0.931 . S
C740 C739 1.291 . S
C740 C741 1.373 . S
C740 H753 0.929 . S
C741 C740 1.373 . S
C741 C742 1.396 . S
C741 C748 1.403 . S
C742 C732 1.476 . S
C742 N737 1.318 . S
C742 C741 1.396 . S
H743 C738 0.929 . S
O744 Mn720 2.385 . S
O744 C722 1.234 . S
O745 Mn720 2.209 . S
O745 Mn721 2.215 . S
O745 C722 1.283 . S
O746 Mn720 2.094 . S
O746 C724 1.240 . S
O747 Mn721 2.117 . S
O747 C724 1.264 . S
C748 C741 1.403 . S
C748 C749 1.399 . S
C748 H754 0.929 . S
C749 C729 1.449 . S
C749 C748 1.399 . S
C749 H755 0.930 . S
H750 C730 0.931 . S
H751 C731 0.930 . S
H752 C739 0.931 . S
H753 C740 0.929 . S
H754 C748 0.929 . S
H755 C749 0.930 . S
Mn756 O761 2.095 . S
Mn756 O771 2.162 . S
Mn756 O772 2.297 . S
Mn756 O780 2.385 . S
Mn756 O781 2.209 . S
Mn756 O782 2.094 . S
Mn757 O762 2.121 . S
Mn757 N764 2.257 . S
Mn757 N773 2.282 . S
Mn757 O781 2.215 . S
Mn757 O783 2.117 . S
C758 O780 1.234 . S
C758 O781 1.283 . S
C759 O771 1.281 . S
C759 O772 1.236 . S
C760 O782 1.240 . S
C760 O783 1.264 . S
O761 Mn756 2.095 . S
O761 C770 1.250 . S
O762 Mn757 2.121 . S
O762 C770 1.258 . S
C763 N764 1.326 . S
C763 C767 1.460 . S
C763 H769 0.929 . S
N764 Mn757 2.257 . S
N764 C763 1.326 . S
N764 C768 1.362 . S
C765 C766 1.258 . S
C765 C768 1.431 . S
C765 C785 1.449 . S
C766 C765 1.258 . S
C766 C767 1.477 . S
C766 H786 0.931 . S
C767 C763 1.460 . S
C767 C766 1.477 . S
C767 H787 0.930 . S
C768 N764 1.362 . S
C768 C765 1.431 . S
C768 C778 1.476 . S
H769 C763 0.929 . S
C770 O761 1.250 . S
C770 O762 1.258 . S
O771 Mn756 2.162 . S
O771 C759 1.281 . S
O772 Mn756 2.297 . S
O772 C759 1.236 . S
N773 Mn757 2.282 . S
N773 C774 1.328 . S
N773 C778 1.318 . S
C774 N773 1.328 . S
C774 C775 1.457 . S
C774 H779 0.929 . S
C775 C774 1.457 . S
C775 C776 1.291 . S
C775 H788 0.931 . S
C776 C775 1.291 . S
C776 C777 1.373 . S
C776 H789 0.929 . S
C777 C776 1.373 . S
C777 C778 1.396 . S
C777 C784 1.403 . S
C778 C768 1.476 . S
C778 N773 1.318 . S
C778 C777 1.396 . S
H779 C774 0.929 . S
O780 Mn756 2.385 . S
O780 C758 1.234 . S
O781 Mn756 2.209 . S
O781 Mn757 2.215 . S
O781 C758 1.283 . S
O782 Mn756 2.094 . S
O782 C760 1.240 . S
O783 Mn757 2.117 . S
O783 C760 1.264 . S
C784 C777 1.403 . S
C784 C785 1.399 . S
C784 H790 0.929 . S
C785 C765 1.449 . S
C785 C784 1.399 . S
C785 H791 0.930 . S
H786 C766 0.931 . S
H787 C767 0.930 . S
H788 C775 0.931 . S
H789 C776 0.929 . S
H790 C784 0.929 . S
H791 C785 0.930 . S
Mn792 O797 2.095 . S
Mn792 O807 2.162 . S
Mn792 O808 2.297 . S
Mn792 O816 2.385 . S
Mn792 O817 2.209 . S
Mn792 O818 2.094 . S
Mn793 O798 2.121 . S
Mn793 N800 2.257 . S
Mn793 N809 2.282 . S
Mn793 O817 2.215 . S
Mn793 O819 2.117 . S
C794 O816 1.234 . S
C794 O817 1.283 . S
C795 O807 1.281 . S
C795 O808 1.236 . S
C796 O818 1.240 . S
C796 O819 1.264 . S
O797 Mn792 2.095 . S
O797 C806 1.250 . S
O798 Mn793 2.121 . S
O798 C806 1.258 . S
C799 N800 1.326 . S
C799 C803 1.460 . S
C799 H805 0.929 . S
N800 Mn793 2.257 . S
N800 C799 1.326 . S
N800 C804 1.362 . S
C801 C802 1.258 . S
C801 C804 1.431 . S
C801 C821 1.449 . S
C802 C801 1.258 . S
C802 C803 1.477 . S
C802 H822 0.931 . S
C803 C799 1.460 . S
C803 C802 1.477 . S
C803 H823 0.930 . S
C804 N800 1.362 . S
C804 C801 1.431 . S
C804 C814 1.476 . S
H805 C799 0.929 . S
C806 O797 1.250 . S
C806 O798 1.258 . S
O807 Mn792 2.162 . S
O807 C795 1.281 . S
O808 Mn792 2.297 . S
O808 C795 1.236 . S
N809 Mn793 2.282 . S
N809 C810 1.328 . S
N809 C814 1.318 . S
C810 N809 1.328 . S
C810 C811 1.457 . S
C810 H815 0.929 . S
C811 C810 1.457 . S
C811 C812 1.291 . S
C811 H824 0.931 . S
C812 C811 1.291 . S
C812 C813 1.373 . S
C812 H825 0.929 . S
C813 C812 1.373 . S
C813 C814 1.396 . S
C813 C820 1.403 . S
C814 C804 1.476 . S
C814 N809 1.318 . S
C814 C813 1.396 . S
H815 C810 0.929 . S
O816 Mn792 2.385 . S
O816 C794 1.234 . S
O817 Mn792 2.209 . S
O817 Mn793 2.215 . S
O817 C794 1.283 . S
O818 Mn792 2.094 . S
O818 C796 1.240 . S
O819 Mn793 2.117 . S
O819 C796 1.264 . S
C820 C813 1.403 . S
C820 C821 1.399 . S
C820 H826 0.929 . S
C821 C801 1.449 . S
C821 C820 1.399 . S
C821 H827 0.930 . S
H822 C802 0.931 . S
H823 C803 0.930 . S
H824 C811 0.931 . S
H825 C812 0.929 . S
H826 C820 0.929 . S
H827 C821 0.930 . S
Mn828 O833 2.095 . S
Mn828 O843 2.162 . S
Mn828 O844 2.297 . S
Mn828 O852 2.385 . S
Mn828 O853 2.209 . S
Mn828 O854 2.094 . S
Mn829 O834 2.121 . S
Mn829 N836 2.257 . S
Mn829 N845 2.282 . S
Mn829 O853 2.215 . S
Mn829 O855 2.117 . S
C830 O852 1.234 . S
C830 O853 1.283 . S
C831 O843 1.281 . S
C831 O844 1.236 . S
C832 O854 1.240 . S
C832 O855 1.264 . S
O833 Mn828 2.095 . S
O833 C842 1.250 . S
O834 Mn829 2.121 . S
O834 C842 1.258 . S
C835 N836 1.326 . S
C835 C839 1.460 . S
C835 H841 0.929 . S
N836 Mn829 2.257 . S
N836 C835 1.326 . S
N836 C840 1.362 . S
C837 C838 1.258 . S
C837 C840 1.431 . S
C837 C857 1.449 . S
C838 C837 1.258 . S
C838 C839 1.477 . S
C838 H858 0.931 . S
C839 C835 1.460 . S
C839 C838 1.477 . S
C839 H859 0.930 . S
C840 N836 1.362 . S
C840 C837 1.431 . S
C840 C850 1.476 . S
H841 C835 0.929 . S
C842 O833 1.250 . S
C842 O834 1.258 . S
O843 Mn828 2.162 . S
O843 C831 1.281 . S
O844 Mn828 2.297 . S
O844 C831 1.236 . S
N845 Mn829 2.282 . S
N845 C846 1.328 . S
N845 C850 1.318 . S
C846 N845 1.328 . S
C846 C847 1.457 . S
C846 H851 0.929 . S
C847 C846 1.457 . S
C847 C848 1.291 . S
C847 H860 0.931 . S
C848 C847 1.291 . S
C848 C849 1.373 . S
C848 H861 0.929 . S
C849 C848 1.373 . S
C849 C850 1.396 . S
C849 C856 1.403 . S
C850 C840 1.476 . S
C850 N845 1.318 . S
C850 C849 1.396 . S
H851 C846 0.929 . S
O852 Mn828 2.385 . S
O852 C830 1.234 . S
O853 Mn828 2.209 . S
O853 Mn829 2.215 . S
O853 C830 1.283 . S
O854 Mn828 2.094 . S
O854 C832 1.240 . S
O855 Mn829 2.117 . S
O855 C832 1.264 . S
C856 C849 1.403 . S
C856 C857 1.399 . S
C856 H862 0.929 . S
C857 C837 1.449 . S
C857 C856 1.399 . S
C857 H863 0.930 . S
H858 C838 0.931 . S
H859 C839 0.930 . S
H860 C847 0.931 . S
H861 C848 0.929 . S
H862 C856 0.929 . S
H863 C857 0.930 . S
Mn864 O869 2.095 . S
Mn864 O879 2.162 . S
Mn864 O880 2.297 . S
Mn864 O888 2.385 . S
Mn864 O889 2.209 . S
Mn864 O890 2.094 . S
Mn865 O870 2.121 . S
Mn865 N872 2.257 . S
Mn865 N881 2.282 . S
Mn865 O889 2.215 . S
Mn865 O891 2.117 . S
C866 O888 1.234 . S
C866 O889 1.283 . S
C867 O879 1.281 . S
C867 O880 1.236 . S
C868 O890 1.240 . S
C868 O891 1.264 . S
O869 Mn864 2.095 . S
O869 C878 1.250 . S
O870 Mn865 2.121 . S
O870 C878 1.258 . S
C871 N872 1.326 . S
C871 C875 1.460 . S
C871 H877 0.929 . S
N872 Mn865 2.257 . S
N872 C871 1.326 . S
N872 C876 1.362 . S
C873 C874 1.258 . S
C873 C876 1.431 . S
C873 C893 1.449 . S
C874 C873 1.258 . S
C874 C875 1.477 . S
C874 H894 0.931 . S
C875 C871 1.460 . S
C875 C874 1.477 . S
C875 H895 0.930 . S
C876 N872 1.362 . S
C876 C873 1.431 . S
C876 C886 1.476 . S
H877 C871 0.929 . S
C878 O869 1.250 . S
C878 O870 1.258 . S
O879 Mn864 2.162 . S
O879 C867 1.281 . S
O880 Mn864 2.297 . S
O880 C867 1.236 . S
N881 Mn865 2.282 . S
N881 C882 1.328 . S
N881 C886 1.318 . S
C882 N881 1.328 . S
C882 C883 1.457 . S
C882 H887 0.929 . S
C883 C882 1.457 . S
C883 C884 1.291 . S
C883 H896 0.931 . S
C884 C883 1.291 . S
C884 C885 1.373 . S
C884 H897 0.929 . S
C885 C884 1.373 . S
C885 C886 1.396 . S
C885 C892 1.403 . S
C886 C876 1.476 . S
C886 N881 1.318 . S
C886 C885 1.396 . S
H887 C882 0.929 . S
O888 Mn864 2.385 . S
O888 C866 1.234 . S
O889 Mn864 2.209 . S
O889 Mn865 2.215 . S
O889 C866 1.283 . S
O890 Mn864 2.094 . S
O890 C868 1.240 . S
O891 Mn865 2.117 . S
O891 C868 1.264 . S
C892 C885 1.403 . S
C892 C893 1.399 . S
C892 H898 0.929 . S
C893 C873 1.449 . S
C893 C892 1.399 . S
C893 H899 0.930 . S
H894 C874 0.931 . S
H895 C875 0.930 . S
H896 C883 0.931 . S
H897 C884 0.929 . S
H898 C892 0.929 . S
H899 C893 0.930 . S
Mn900 O905 2.095 . S
Mn900 O915 2.162 . S
Mn900 O916 2.297 . S
Mn900 O924 2.385 . S
Mn900 O925 2.209 . S
Mn900 O926 2.094 . S
Mn901 O906 2.121 . S
Mn901 N908 2.257 . S
Mn901 N917 2.282 . S
Mn901 O925 2.215 . S
Mn901 O927 2.117 . S
C902 O924 1.234 . S
C902 O925 1.283 . S
C903 O915 1.281 . S
C903 O916 1.236 . S
C904 O926 1.240 . S
C904 O927 1.264 . S
O905 Mn900 2.095 . S
O905 C914 1.250 . S
O906 Mn901 2.121 . S
O906 C914 1.258 . S
C907 N908 1.326 . S
C907 C911 1.460 . S
C907 H913 0.929 . S
N908 Mn901 2.257 . S
N908 C907 1.326 . S
N908 C912 1.362 . S
C909 C910 1.258 . S
C909 C912 1.431 . S
C909 C929 1.449 . S
C910 C909 1.258 . S
C910 C911 1.477 . S
C910 H930 0.931 . S
C911 C907 1.460 . S
C911 C910 1.477 . S
C911 H931 0.930 . S
C912 N908 1.362 . S
C912 C909 1.431 . S
C912 C922 1.476 . S
H913 C907 0.929 . S
C914 O905 1.250 . S
C914 O906 1.258 . S
O915 Mn900 2.162 . S
O915 C903 1.281 . S
O916 Mn900 2.297 . S
O916 C903 1.236 . S
N917 Mn901 2.282 . S
N917 C918 1.328 . S
N917 C922 1.318 . S
C918 N917 1.328 . S
C918 C919 1.457 . S
C918 H923 0.929 . S
C919 C918 1.457 . S
C919 C920 1.291 . S
C919 H932 0.931 . S
C920 C919 1.291 . S
C920 C921 1.373 . S
C920 H933 0.929 . S
C921 C920 1.373 . S
C921 C922 1.396 . S
C921 C928 1.403 . S
C922 C912 1.476 . S
C922 N917 1.318 . S
C922 C921 1.396 . S
H923 C918 0.929 . S
O924 Mn900 2.385 . S
O924 C902 1.234 . S
O925 Mn900 2.209 . S
O925 Mn901 2.215 . S
O925 C902 1.283 . S
O926 Mn900 2.094 . S
O926 C904 1.240 . S
O927 Mn901 2.117 . S
O927 C904 1.264 . S
C928 C921 1.403 . S
C928 C929 1.399 . S
C928 H934 0.929 . S
C929 C909 1.449 . S
C929 C928 1.399 . S
C929 H935 0.930 . S
H930 C910 0.931 . S
H931 C911 0.930 . S
H932 C919 0.931 . S
H933 C920 0.929 . S
H934 C928 0.929 . S
H935 C929 0.930 . S
Mn936 O941 2.095 . S
Mn936 O951 2.162 . S
Mn936 O952 2.297 . S
Mn936 O960 2.385 . S
Mn936 O961 2.209 . S
Mn936 O962 2.094 . S
Mn937 O942 2.121 . S
Mn937 N944 2.257 . S
Mn937 N953 2.282 . S
Mn937 O961 2.215 . S
Mn937 O963 2.117 . S
C938 O960 1.234 . S
C938 O961 1.283 . S
C939 O951 1.281 . S
C939 O952 1.236 . S
C940 O962 1.240 . S
C940 O963 1.264 . S
O941 Mn936 2.095 . S
O941 C950 1.250 . S
O942 Mn937 2.121 . S
O942 C950 1.258 . S
C943 N944 1.326 . S
C943 C947 1.460 . S
C943 H949 0.929 . S
N944 Mn937 2.257 . S
N944 C943 1.326 . S
N944 C948 1.362 . S
C945 C946 1.258 . S
C945 C948 1.431 . S
C945 C965 1.449 . S
C946 C945 1.258 . S
C946 C947 1.477 . S
C946 H966 0.931 . S
C947 C943 1.460 . S
C947 C946 1.477 . S
C947 H967 0.930 . S
C948 N944 1.362 . S
C948 C945 1.431 . S
C948 C958 1.476 . S
H949 C943 0.929 . S
C950 O941 1.250 . S
C950 O942 1.258 . S
O951 Mn936 2.162 . S
O951 C939 1.281 . S
O952 Mn936 2.297 . S
O952 C939 1.236 . S
N953 Mn937 2.282 . S
N953 C954 1.328 . S
N953 C958 1.318 . S
C954 N953 1.328 . S
C954 C955 1.457 . S
C954 H959 0.929 . S
C955 C954 1.457 . S
C955 C956 1.291 . S
C955 H968 0.931 . S
C956 C955 1.291 . S
C956 C957 1.373 . S
C956 H969 0.929 . S
C957 C956 1.373 . S
C957 C958 1.396 . S
C957 C964 1.403 . S
C958 C948 1.476 . S
C958 N953 1.318 . S
C958 C957 1.396 . S
H959 C954 0.929 . S
O960 Mn936 2.385 . S
O960 C938 1.234 . S
O961 Mn936 2.209 . S
O961 Mn937 2.215 . S
O961 C938 1.283 . S
O962 Mn936 2.094 . S
O962 C940 1.240 . S
O963 Mn937 2.117 . S
O963 C940 1.264 . S
C964 C957 1.403 . S
C964 C965 1.399 . S
C964 H970 0.929 . S
C965 C945 1.449 . S
C965 C964 1.399 . S
C965 H971 0.930 . S
H966 C946 0.931 . S
H967 C947 0.930 . S
H968 C955 0.931 . S
H969 C956 0.929 . S
H970 C964 0.929 . S
H971 C965 0.930 . S
Mn972 O977 2.095 . S
Mn972 O987 2.162 . S
Mn972 O988 2.297 . S
Mn972 O996 2.385 . S
Mn972 O997 2.209 . S
Mn972 O998 2.094 . S
Mn973 O978 2.121 . S
Mn973 N980 2.257 . S
Mn973 N989 2.282 . S
Mn973 O997 2.215 . S
Mn973 O999 2.117 . S
C974 O996 1.234 . S
C974 O997 1.283 . S
C975 O987 1.281 . S
C975 O988 1.236 . S
C976 O998 1.240 . S
C976 O999 1.264 . S
O977 Mn972 2.095 . S
O977 C986 1.250 . S
O978 Mn973 2.121 . S
O978 C986 1.258 . S
C979 N980 1.326 . S
C979 C983 1.460 . S
C979 H985 0.929 . S
N980 Mn973 2.257 . S
N980 C979 1.326 . S
N980 C984 1.362 . S
C981 C982 1.258 . S
C981 C984 1.431 . S
C981 C1001 1.449 . S
C982 C981 1.258 . S
C982 C983 1.477 . S
C982 H1002 0.931 . S
C983 C979 1.460 . S
C983 C982 1.477 . S
C983 H1003 0.930 . S
C984 N980 1.362 . S
C984 C981 1.431 . S
C984 C994 1.476 . S
H985 C979 0.929 . S
C986 O977 1.250 . S
C986 O978 1.258 . S
O987 Mn972 2.162 . S
O987 C975 1.281 . S
O988 Mn972 2.297 . S
O988 C975 1.236 . S
N989 Mn973 2.282 . S
N989 C990 1.328 . S
N989 C994 1.318 . S
C990 N989 1.328 . S
C990 C991 1.457 . S
C990 H995 0.929 . S
C991 C990 1.457 . S
C991 C992 1.291 . S
C991 H1004 0.931 . S
C992 C991 1.291 . S
C992 C993 1.373 . S
C992 H1005 0.929 . S
C993 C992 1.373 . S
C993 C994 1.396 . S
C993 C1000 1.403 . S
C994 C984 1.476 . S
C994 N989 1.318 . S
C994 C993 1.396 . S
H995 C990 0.929 . S
O996 Mn972 2.385 . S
O996 C974 1.234 . S
O997 Mn972 2.209 . S
O997 Mn973 2.215 . S
O997 C974 1.283 . S
O998 Mn972 2.094 . S
O998 C976 1.240 . S
O999 Mn973 2.117 . S
O999 C976 1.264 . S
C1000 C993 1.403 . S
C1000 C1001 1.399 . S
C1000 H1006 0.929 . S
C1001 C981 1.449 . S
C1001 C1000 1.399 . S
C1001 H1007 0.930 . S
H1002 C982 0.931 . S
H1003 C983 0.930 . S
H1004 C991 0.931 . S
H1005 C992 0.929 . S
H1006 C1000 0.929 . S
H1007 C1001 0.930 . S
Mn1008 O1013 2.095 . S
Mn1008 O1023 2.162 . S
Mn1008 O1024 2.297 . S
Mn1008 O1032 2.385 . S
Mn1008 O1033 2.209 . S
Mn1008 O1034 2.094 . S
Mn1009 O1014 2.121 . S
Mn1009 N1016 2.257 . S
Mn1009 N1025 2.282 . S
Mn1009 O1033 2.215 . S
Mn1009 O1035 2.117 . S
C1010 O1032 1.234 . S
C1010 O1033 1.283 . S
C1011 O1023 1.281 . S
C1011 O1024 1.236 . S
C1012 O1034 1.240 . S
C1012 O1035 1.264 . S
O1013 Mn1008 2.095 . S
O1013 C1022 1.250 . S
O1014 Mn1009 2.121 . S
O1014 C1022 1.258 . S
C1015 N1016 1.326 . S
C1015 C1019 1.460 . S
C1015 H1021 0.929 . S
N1016 Mn1009 2.257 . S
N1016 C1015 1.326 . S
N1016 C1020 1.362 . S
C1017 C1018 1.258 . S
C1017 C1020 1.431 . S
C1017 C1037 1.449 . S
C1018 C1017 1.258 . S
C1018 C1019 1.477 . S
C1018 H1038 0.931 . S
C1019 C1015 1.460 . S
C1019 C1018 1.477 . S
C1019 H1039 0.930 . S
C1020 N1016 1.362 . S
C1020 C1017 1.431 . S
C1020 C1030 1.476 . S
H1021 C1015 0.929 . S
C1022 O1013 1.250 . S
C1022 O1014 1.258 . S
O1023 Mn1008 2.162 . S
O1023 C1011 1.281 . S
O1024 Mn1008 2.297 . S
O1024 C1011 1.236 . S
N1025 Mn1009 2.282 . S
N1025 C1026 1.328 . S
N1025 C1030 1.318 . S
C1026 N1025 1.328 . S
C1026 C1027 1.457 . S
C1026 H1031 0.929 . S
C1027 C1026 1.457 . S
C1027 C1028 1.291 . S
C1027 H1040 0.931 . S
C1028 C1027 1.291 . S
C1028 C1029 1.373 . S
C1028 H1041 0.929 . S
C1029 C1028 1.373 . S
C1029 C1030 1.396 . S
C1029 C1036 1.403 . S
C1030 C1020 1.476 . S
C1030 N1025 1.318 . S
C1030 C1029 1.396 . S
H1031 C1026 0.929 . S
O1032 Mn1008 2.385 . S
O1032 C1010 1.234 . S
O1033 Mn1008 2.209 . S
O1033 Mn1009 2.215 . S
O1033 C1010 1.283 . S
O1034 Mn1008 2.094 . S
O1034 C1012 1.240 . S
O1035 Mn1009 2.117 . S
O1035 C1012 1.264 . S
C1036 C1029 1.403 . S
C1036 C1037 1.399 . S
C1036 H1042 0.929 . S
C1037 C1017 1.449 . S
C1037 C1036 1.399 . S
C1037 H1043 0.930 . S
H1038 C1018 0.931 . S
H1039 C1019 0.930 . S
H1040 C1027 0.931 . S
H1041 C1028 0.929 . S
H1042 C1036 0.929 . S
H1043 C1037 0.930 . S
Mn1044 O1049 2.095 . S
Mn1044 O1059 2.162 . S
Mn1044 O1060 2.297 . S
Mn1044 O1068 2.385 . S
Mn1044 O1069 2.209 . S
Mn1044 O1070 2.094 . S
Mn1045 O1050 2.121 . S
Mn1045 N1052 2.257 . S
Mn1045 N1061 2.282 . S
Mn1045 O1069 2.215 . S
Mn1045 O1071 2.117 . S
C1046 O1068 1.234 . S
C1046 O1069 1.283 . S
C1047 O1059 1.281 . S
C1047 O1060 1.236 . S
C1048 O1070 1.240 . S
C1048 O1071 1.264 . S
O1049 Mn1044 2.095 . S
O1049 C1058 1.250 . S
O1050 Mn1045 2.121 . S
O1050 C1058 1.258 . S
C1051 N1052 1.326 . S
C1051 C1055 1.460 . S
C1051 H1057 0.929 . S
N1052 Mn1045 2.257 . S
N1052 C1051 1.326 . S
N1052 C1056 1.362 . S
C1053 C1054 1.258 . S
C1053 C1056 1.431 . S
C1053 C1073 1.449 . S
C1054 C1053 1.258 . S
C1054 C1055 1.477 . S
C1054 H1074 0.931 . S
C1055 C1051 1.460 . S
C1055 C1054 1.477 . S
C1055 H1075 0.930 . S
C1056 N1052 1.362 . S
C1056 C1053 1.431 . S
C1056 C1066 1.476 . S
H1057 C1051 0.929 . S
C1058 O1049 1.250 . S
C1058 O1050 1.258 . S
O1059 Mn1044 2.162 . S
O1059 C1047 1.281 . S
O1060 Mn1044 2.297 . S
O1060 C1047 1.236 . S
N1061 Mn1045 2.282 . S
N1061 C1062 1.328 . S
N1061 C1066 1.318 . S
C1062 N1061 1.328 . S
C1062 C1063 1.457 . S
C1062 H1067 0.929 . S
C1063 C1062 1.457 . S
C1063 C1064 1.291 . S
C1063 H1076 0.931 . S
C1064 C1063 1.291 . S
C1064 C1065 1.373 . S
C1064 H1077 0.929 . S
C1065 C1064 1.373 . S
C1065 C1066 1.396 . S
C1065 C1072 1.403 . S
C1066 C1056 1.476 . S
C1066 N1061 1.318 . S
C1066 C1065 1.396 . S
H1067 C1062 0.929 . S
O1068 Mn1044 2.385 . S
O1068 C1046 1.234 . S
O1069 Mn1044 2.209 . S
O1069 Mn1045 2.215 . S
O1069 C1046 1.283 . S
O1070 Mn1044 2.094 . S
O1070 C1048 1.240 . S
O1071 Mn1045 2.117 . S
O1071 C1048 1.264 . S
C1072 C1065 1.403 . S
C1072 C1073 1.399 . S
C1072 H1078 0.929 . S
C1073 C1053 1.449 . S
C1073 C1072 1.399 . S
C1073 H1079 0.930 . S
H1074 C1054 0.931 . S
H1075 C1055 0.930 . S
H1076 C1063 0.931 . S
H1077 C1064 0.929 . S
H1078 C1072 0.929 . S
H1079 C1073 0.930 . S
Mn1080 O1085 2.095 . S
Mn1080 O1095 2.162 . S
Mn1080 O1096 2.297 . S
Mn1080 O1104 2.385 . S
Mn1080 O1105 2.209 . S
Mn1080 O1106 2.094 . S
Mn1081 O1086 2.121 . S
Mn1081 N1088 2.257 . S
Mn1081 N1097 2.282 . S
Mn1081 O1105 2.215 . S
Mn1081 O1107 2.117 . S
C1082 O1104 1.234 . S
C1082 O1105 1.283 . S
C1083 O1095 1.281 . S
C1083 O1096 1.236 . S
C1084 O1106 1.240 . S
C1084 O1107 1.264 . S
O1085 Mn1080 2.095 . S
O1085 C1094 1.250 . S
O1086 Mn1081 2.121 . S
O1086 C1094 1.258 . S
C1087 N1088 1.326 . S
C1087 C1091 1.460 . S
C1087 H1093 0.929 . S
N1088 Mn1081 2.257 . S
N1088 C1087 1.326 . S
N1088 C1092 1.362 . S
C1089 C1090 1.258 . S
C1089 C1092 1.431 . S
C1089 C1109 1.449 . S
C1090 C1089 1.258 . S
C1090 C1091 1.477 . S
C1090 H1110 0.931 . S
C1091 C1087 1.460 . S
C1091 C1090 1.477 . S
C1091 H1111 0.930 . S
C1092 N1088 1.362 . S
C1092 C1089 1.431 . S
C1092 C1102 1.476 . S
H1093 C1087 0.929 . S
C1094 O1085 1.250 . S
C1094 O1086 1.258 . S
O1095 Mn1080 2.162 . S
O1095 C1083 1.281 . S
O1096 Mn1080 2.297 . S
O1096 C1083 1.236 . S
N1097 Mn1081 2.282 . S
N1097 C1098 1.328 . S
N1097 C1102 1.318 . S
C1098 N1097 1.328 . S
C1098 C1099 1.457 . S
C1098 H1103 0.929 . S
C1099 C1098 1.457 . S
C1099 C1100 1.291 . S
C1099 H1112 0.931 . S
C1100 C1099 1.291 . S
C1100 C1101 1.373 . S
C1100 H1113 0.929 . S
C1101 C1100 1.373 . S
C1101 C1102 1.396 . S
C1101 C1108 1.403 . S
C1102 C1092 1.476 . S
C1102 N1097 1.318 . S
C1102 C1101 1.396 . S
H1103 C1098 0.929 . S
O1104 Mn1080 2.385 . S
O1104 C1082 1.234 . S
O1105 Mn1080 2.209 . S
O1105 Mn1081 2.215 . S
O1105 C1082 1.283 . S
O1106 Mn1080 2.094 . S
O1106 C1084 1.240 . S
O1107 Mn1081 2.117 . S
O1107 C1084 1.264 . S
C1108 C1101 1.403 . S
C1108 C1109 1.399 . S
C1108 H1114 0.929 . S
C1109 C1089 1.449 . S
C1109 C1108 1.399 . S
C1109 H1115 0.930 . S
H1110 C1090 0.931 . S
H1111 C1091 0.930 . S
H1112 C1099 0.931 . S
H1113 C1100 0.929 . S
H1114 C1108 0.929 . S
H1115 C1109 0.930 . S
Mn1116 O1121 2.095 . S
Mn1116 O1131 2.162 . S
Mn1116 O1132 2.297 . S
Mn1116 O1140 2.385 . S
Mn1116 O1141 2.209 . S
Mn1116 O1142 2.094 . S
Mn1117 O1122 2.121 . S
Mn1117 N1124 2.257 . S
Mn1117 N1133 2.282 . S
Mn1117 O1141 2.215 . S
Mn1117 O1143 2.117 . S
C1118 O1140 1.234 . S
C1118 O1141 1.283 . S
C1119 O1131 1.281 . S
C1119 O1132 1.236 . S
C1120 O1142 1.240 . S
C1120 O1143 1.264 . S
O1121 Mn1116 2.095 . S
O1121 C1130 1.250 . S
O1122 Mn1117 2.121 . S
O1122 C1130 1.258 . S
C1123 N1124 1.326 . S
C1123 C1127 1.460 . S
C1123 H1129 0.929 . S
N1124 Mn1117 2.257 . S
N1124 C1123 1.326 . S
N1124 C1128 1.362 . S
C1125 C1126 1.258 . S
C1125 C1128 1.431 . S
C1125 C1145 1.449 . S
C1126 C1125 1.258 . S
C1126 C1127 1.477 . S
C1126 H1146 0.931 . S
C1127 C1123 1.460 . S
C1127 C1126 1.477 . S
C1127 H1147 0.930 . S
C1128 N1124 1.362 . S
C1128 C1125 1.431 . S
C1128 C1138 1.476 . S
H1129 C1123 0.929 . S
C1130 O1121 1.250 . S
C1130 O1122 1.258 . S
O1131 Mn1116 2.162 . S
O1131 C1119 1.281 . S
O1132 Mn1116 2.297 . S
O1132 C1119 1.236 . S
N1133 Mn1117 2.282 . S
N1133 C1134 1.328 . S
N1133 C1138 1.318 . S
C1134 N1133 1.328 . S
C1134 C1135 1.457 . S
C1134 H1139 0.929 . S
C1135 C1134 1.457 . S
C1135 C1136 1.291 . S
C1135 H1148 0.931 . S
C1136 C1135 1.291 . S
C1136 C1137 1.373 . S
C1136 H1149 0.929 . S
C1137 C1136 1.373 . S
C1137 C1138 1.396 . S
C1137 C1144 1.403 . S
C1138 C1128 1.476 . S
C1138 N1133 1.318 . S
C1138 C1137 1.396 . S
H1139 C1134 0.929 . S
O1140 Mn1116 2.385 . S
O1140 C1118 1.234 . S
O1141 Mn1116 2.209 . S
O1141 Mn1117 2.215 . S
O1141 C1118 1.283 . S
O1142 Mn1116 2.094 . S
O1142 C1120 1.240 . S
O1143 Mn1117 2.117 . S
O1143 C1120 1.264 . S
C1144 C1137 1.403 . S
C1144 C1145 1.399 . S
C1144 H1150 0.929 . S
C1145 C1125 1.449 . S
C1145 C1144 1.399 . S
C1145 H1151 0.930 . S
H1146 C1126 0.931 . S
H1147 C1127 0.930 . S
H1148 C1135 0.931 . S
H1149 C1136 0.929 . S
H1150 C1144 0.929 . S
H1151 C1145 0.930 . S
Mn1152 O1157 2.095 . S
Mn1152 O1167 2.162 . S
Mn1152 O1168 2.297 . S
Mn1152 O1176 2.385 . S
Mn1152 O1177 2.209 . S
Mn1152 O1178 2.094 . S
Mn1153 O1158 2.121 . S
Mn1153 N1160 2.257 . S
Mn1153 N1169 2.282 . S
Mn1153 O1177 2.215 . S
Mn1153 O1179 2.117 . S
C1154 O1176 1.234 . S
C1154 O1177 1.283 . S
C1155 O1167 1.281 . S
C1155 O1168 1.236 . S
C1156 O1178 1.240 . S
C1156 O1179 1.264 . S
O1157 Mn1152 2.095 . S
O1157 C1166 1.250 . S
O1158 Mn1153 2.121 . S
O1158 C1166 1.258 . S
C1159 N1160 1.326 . S
C1159 C1163 1.460 . S
C1159 H1165 0.929 . S
N1160 Mn1153 2.257 . S
N1160 C1159 1.326 . S
N1160 C1164 1.362 . S
C1161 C1162 1.258 . S
C1161 C1164 1.431 . S
C1161 C1181 1.449 . S
C1162 C1161 1.258 . S
C1162 C1163 1.477 . S
C1162 H1182 0.931 . S
C1163 C1159 1.460 . S
C1163 C1162 1.477 . S
C1163 H1183 0.930 . S
C1164 N1160 1.362 . S
C1164 C1161 1.431 . S
C1164 C1174 1.476 . S
H1165 C1159 0.929 . S
C1166 O1157 1.250 . S
C1166 O1158 1.258 . S
O1167 Mn1152 2.162 . S
O1167 C1155 1.281 . S
O1168 Mn1152 2.297 . S
O1168 C1155 1.236 . S
N1169 Mn1153 2.282 . S
N1169 C1170 1.328 . S
N1169 C1174 1.318 . S
C1170 N1169 1.328 . S
C1170 C1171 1.457 . S
C1170 H1175 0.929 . S
C1171 C1170 1.457 . S
C1171 C1172 1.291 . S
C1171 H1184 0.931 . S
C1172 C1171 1.291 . S
C1172 C1173 1.373 . S
C1172 H1185 0.929 . S
C1173 C1172 1.373 . S
C1173 C1174 1.396 . S
C1173 C1180 1.403 . S
C1174 C1164 1.476 . S
C1174 N1169 1.318 . S
C1174 C1173 1.396 . S
H1175 C1170 0.929 . S
O1176 Mn1152 2.385 . S
O1176 C1154 1.234 . S
O1177 Mn1152 2.209 . S
O1177 Mn1153 2.215 . S
O1177 C1154 1.283 . S
O1178 Mn1152 2.094 . S
O1178 C1156 1.240 . S
O1179 Mn1153 2.117 . S
O1179 C1156 1.264 . S
C1180 C1173 1.403 . S
C1180 C1181 1.399 . S
C1180 H1186 0.929 . S
C1181 C1161 1.449 . S
C1181 C1180 1.399 . S
C1181 H1187 0.930 . S
H1182 C1162 0.931 . S
H1183 C1163 0.930 . S
H1184 C1171 0.931 . S
H1185 C1172 0.929 . S
H1186 C1180 0.929 . S
H1187 C1181 0.930 . S
Mn1188 O1193 2.095 . S
Mn1188 O1203 2.162 . S
Mn1188 O1204 2.297 . S
Mn1188 O1212 2.385 . S
Mn1188 O1213 2.209 . S
Mn1188 O1214 2.094 . S
Mn1189 O1194 2.121 . S
Mn1189 N1196 2.257 . S
Mn1189 N1205 2.282 . S
Mn1189 O1213 2.215 . S
Mn1189 O1215 2.117 . S
C1190 O1212 1.234 . S
C1190 O1213 1.283 . S
C1191 O1203 1.281 . S
C1191 O1204 1.236 . S
C1192 O1214 1.240 . S
C1192 O1215 1.264 . S
O1193 Mn1188 2.095 . S
O1193 C1202 1.250 . S
O1194 Mn1189 2.121 . S
O1194 C1202 1.258 . S
C1195 N1196 1.326 . S
C1195 C1199 1.460 . S
C1195 H1201 0.929 . S
N1196 Mn1189 2.257 . S
N1196 C1195 1.326 . S
N1196 C1200 1.362 . S
C1197 C1198 1.258 . S
C1197 C1200 1.431 . S
C1197 C1217 1.449 . S
C1198 C1197 1.258 . S
C1198 C1199 1.477 . S
C1198 H1218 0.931 . S
C1199 C1195 1.460 . S
C1199 C1198 1.477 . S
C1199 H1219 0.930 . S
C1200 N1196 1.362 . S
C1200 C1197 1.431 . S
C1200 C1210 1.476 . S
H1201 C1195 0.929 . S
C1202 O1193 1.250 . S
C1202 O1194 1.258 . S
O1203 Mn1188 2.162 . S
O1203 C1191 1.281 . S
O1204 Mn1188 2.297 . S
O1204 C1191 1.236 . S
N1205 Mn1189 2.282 . S
N1205 C1206 1.328 . S
N1205 C1210 1.318 . S
C1206 N1205 1.328 . S
C1206 C1207 1.457 . S
C1206 H1211 0.929 . S
C1207 C1206 1.457 . S
C1207 C1208 1.291 . S
C1207 H1220 0.931 . S
C1208 C1207 1.291 . S
C1208 C1209 1.373 . S
C1208 H1221 0.929 . S
C1209 C1208 1.373 . S
C1209 C1210 1.396 . S
C1209 C1216 1.403 . S
C1210 C1200 1.476 . S
C1210 N1205 1.318 . S
C1210 C1209 1.396 . S
H1211 C1206 0.929 . S
O1212 Mn1188 2.385 . S
O1212 C1190 1.234 . S
O1213 Mn1188 2.209 . S
O1213 Mn1189 2.215 . S
O1213 C1190 1.283 . S
O1214 Mn1188 2.094 . S
O1214 C1192 1.240 . S
O1215 Mn1189 2.117 . S
O1215 C1192 1.264 . S
C1216 C1209 1.403 . S
C1216 C1217 1.399 . S
C1216 H1222 0.929 . S
C1217 C1197 1.449 . S
C1217 C1216 1.399 . S
C1217 H1223 0.930 . S
H1218 C1198 0.931 . S
H1219 C1199 0.930 . S
H1220 C1207 0.931 . S
H1221 C1208 0.929 . S
H1222 C1216 0.929 . S
H1223 C1217 0.930 . S
Mn1224 O1229 2.095 . S
Mn1224 O1239 2.162 . S
Mn1224 O1240 2.297 . S
Mn1224 O1248 2.385 . S
Mn1224 O1249 2.209 . S
Mn1224 O1250 2.094 . S
Mn1225 O1230 2.121 . S
Mn1225 N1232 2.257 . S
Mn1225 N1241 2.282 . S
Mn1225 O1249 2.215 . S
Mn1225 O1251 2.117 . S
C1226 O1248 1.234 . S
C1226 O1249 1.283 . S
C1227 O1239 1.281 . S
C1227 O1240 1.236 . S
C1228 O1250 1.240 . S
C1228 O1251 1.264 . S
O1229 Mn1224 2.095 . S
O1229 C1238 1.250 . S
O1230 Mn1225 2.121 . S
O1230 C1238 1.258 . S
C1231 N1232 1.326 . S
C1231 C1235 1.460 . S
C1231 H1237 0.929 . S
N1232 Mn1225 2.257 . S
N1232 C1231 1.326 . S
N1232 C1236 1.362 . S
C1233 C1234 1.258 . S
C1233 C1236 1.431 . S
C1233 C1253 1.449 . S
C1234 C1233 1.258 . S
C1234 C1235 1.477 . S
C1234 H1254 0.931 . S
C1235 C1231 1.460 . S
C1235 C1234 1.477 . S
C1235 H1255 0.930 . S
C1236 N1232 1.362 . S
C1236 C1233 1.431 . S
C1236 C1246 1.476 . S
H1237 C1231 0.929 . S
C1238 O1229 1.250 . S
C1238 O1230 1.258 . S
O1239 Mn1224 2.162 . S
O1239 C1227 1.281 . S
O1240 Mn1224 2.297 . S
O1240 C1227 1.236 . S
N1241 Mn1225 2.282 . S
N1241 C1242 1.328 . S
N1241 C1246 1.318 . S
C1242 N1241 1.328 . S
C1242 C1243 1.457 . S
C1242 H1247 0.929 . S
C1243 C1242 1.457 . S
C1243 C1244 1.291 . S
C1243 H1256 0.931 . S
C1244 C1243 1.291 . S
C1244 C1245 1.373 . S
C1244 H1257 0.929 . S
C1245 C1244 1.373 . S
C1245 C1246 1.396 . S
C1245 C1252 1.403 . S
C1246 C1236 1.476 . S
C1246 N1241 1.318 . S
C1246 C1245 1.396 . S
H1247 C1242 0.929 . S
O1248 Mn1224 2.385 . S
O1248 C1226 1.234 . S
O1249 Mn1224 2.209 . S
O1249 Mn1225 2.215 . S
O1249 C1226 1.283 . S
O1250 Mn1224 2.094 . S
O1250 C1228 1.240 . S
O1251 Mn1225 2.117 . S
O1251 C1228 1.264 . S
C1252 C1245 1.403 . S
C1252 C1253 1.399 . S
C1252 H1258 0.929 . S
C1253 C1233 1.449 . S
C1253 C1252 1.399 . S
C1253 H1259 0.930 . S
H1254 C1234 0.931 . S
H1255 C1235 0.930 . S
H1256 C1243 0.931 . S
H1257 C1244 0.929 . S
H1258 C1252 0.929 . S
H1259 C1253 0.930 . S
Mn1260 O1265 2.095 . S
Mn1260 O1275 2.162 . S
Mn1260 O1276 2.297 . S
Mn1260 O1284 2.385 . S
Mn1260 O1285 2.209 . S
Mn1260 O1286 2.094 . S
Mn1261 O1266 2.121 . S
Mn1261 N1268 2.257 . S
Mn1261 N1277 2.282 . S
Mn1261 O1285 2.215 . S
Mn1261 O1287 2.117 . S
C1262 O1284 1.234 . S
C1262 O1285 1.283 . S
C1263 O1275 1.281 . S
C1263 O1276 1.236 . S
C1264 O1286 1.240 . S
C1264 O1287 1.264 . S
O1265 Mn1260 2.095 . S
O1265 C1274 1.250 . S
O1266 Mn1261 2.121 . S
O1266 C1274 1.258 . S
C1267 N1268 1.326 . S
C1267 C1271 1.460 . S
C1267 H1273 0.929 . S
N1268 Mn1261 2.257 . S
N1268 C1267 1.326 . S
N1268 C1272 1.362 . S
C1269 C1270 1.258 . S
C1269 C1272 1.431 . S
C1269 C1289 1.449 . S
C1270 C1269 1.258 . S
C1270 C1271 1.477 . S
C1270 H1290 0.931 . S
C1271 C1267 1.460 . S
C1271 C1270 1.477 . S
C1271 H1291 0.930 . S
C1272 N1268 1.362 . S
C1272 C1269 1.431 . S
C1272 C1282 1.476 . S
H1273 C1267 0.929 . S
C1274 O1265 1.250 . S
C1274 O1266 1.258 . S
O1275 Mn1260 2.162 . S
O1275 C1263 1.281 . S
O1276 Mn1260 2.297 . S
O1276 C1263 1.236 . S
N1277 Mn1261 2.282 . S
N1277 C1278 1.328 . S
N1277 C1282 1.318 . S
C1278 N1277 1.328 . S
C1278 C1279 1.457 . S
C1278 H1283 0.929 . S
C1279 C1278 1.457 . S
C1279 C1280 1.291 . S
C1279 H1292 0.931 . S
C1280 C1279 1.291 . S
C1280 C1281 1.373 . S
C1280 H1293 0.929 . S
C1281 C1280 1.373 . S
C1281 C1282 1.396 . S
C1281 C1288 1.403 . S
C1282 C1272 1.476 . S
C1282 N1277 1.318 . S
C1282 C1281 1.396 . S
H1283 C1278 0.929 . S
O1284 Mn1260 2.385 . S
O1284 C1262 1.234 . S
O1285 Mn1260 2.209 . S
O1285 Mn1261 2.215 . S
O1285 C1262 1.283 . S
O1286 Mn1260 2.094 . S
O1286 C1264 1.240 . S
O1287 Mn1261 2.117 . S
O1287 C1264 1.264 . S
C1288 C1281 1.403 . S
C1288 C1289 1.399 . S
C1288 H1294 0.929 . S
C1289 C1269 1.449 . S
C1289 C1288 1.399 . S
C1289 H1295 0.930 . S
H1290 C1270 0.931 . S
H1291 C1271 0.930 . S
H1292 C1279 0.931 . S
H1293 C1280 0.929 . S
H1294 C1288 0.929 . S
H1295 C1289 0.930 . S
Mn1296 O1301 2.095 . S
Mn1296 O1311 2.162 . S
Mn1296 O1312 2.297 . S
Mn1296 O1320 2.385 . S
Mn1296 O1321 2.209 . S
Mn1296 O1322 2.094 . S
Mn1297 O1302 2.121 . S
Mn1297 N1304 2.257 . S
Mn1297 N1313 2.282 . S
Mn1297 O1321 2.215 . S
Mn1297 O1323 2.117 . S
C1298 O1320 1.234 . S
C1298 O1321 1.283 . S
C1299 O1311 1.281 . S
C1299 O1312 1.236 . S
C1300 O1322 1.240 . S
C1300 O1323 1.264 . S
O1301 Mn1296 2.095 . S
O1301 C1310 1.250 . S
O1302 Mn1297 2.121 . S
O1302 C1310 1.258 . S
C1303 N1304 1.326 . S
C1303 C1307 1.460 . S
C1303 H1309 0.929 . S
N1304 Mn1297 2.257 . S
N1304 C1303 1.326 . S
N1304 C1308 1.362 . S
C1305 C1306 1.258 . S
C1305 C1308 1.431 . S
C1305 C1325 1.449 . S
C1306 C1305 1.258 . S
C1306 C1307 1.477 . S
C1306 H1326 0.931 . S
C1307 C1303 1.460 . S
C1307 C1306 1.477 . S
C1307 H1327 0.930 . S
C1308 N1304 1.362 . S
C1308 C1305 1.431 . S
C1308 C1318 1.476 . S
H1309 C1303 0.929 . S
C1310 O1301 1.250 . S
C1310 O1302 1.258 . S
O1311 Mn1296 2.162 . S
O1311 C1299 1.281 . S
O1312 Mn1296 2.297 . S
O1312 C1299 1.236 . S
N1313 Mn1297 2.282 . S
N1313 C1314 1.328 . S
N1313 C1318 1.318 . S
C1314 N1313 1.328 . S
C1314 C1315 1.457 . S
C1314 H1319 0.929 . S
C1315 C1314 1.457 . S
C1315 C1316 1.291 . S
C1315 H1328 0.931 . S
C1316 C1315 1.291 . S
C1316 C1317 1.373 . S
C1316 H1329 0.929 . S
C1317 C1316 1.373 . S
C1317 C1318 1.396 . S
C1317 C1324 1.403 . S
C1318 C1308 1.476 . S
C1318 N1313 1.318 . S
C1318 C1317 1.396 . S
H1319 C1314 0.929 . S
O1320 Mn1296 2.385 . S
O1320 C1298 1.234 . S
O1321 Mn1296 2.209 . S
O1321 Mn1297 2.215 . S
O1321 C1298 1.283 . S
O1322 Mn1296 2.094 . S
O1322 C1300 1.240 . S
O1323 Mn1297 2.117 . S
O1323 C1300 1.264 . S
C1324 C1317 1.403 . S
C1324 C1325 1.399 . S
C1324 H1330 0.929 . S
C1325 C1305 1.449 . S
C1325 C1324 1.399 . S
C1325 H1331 0.930 . S
H1326 C1306 0.931 . S
H1327 C1307 0.930 . S
H1328 C1315 0.931 . S
H1329 C1316 0.929 . S
H1330 C1324 0.929 . S
H1331 C1325 0.930 . S
Mn1332 O1337 2.095 . S
Mn1332 O1347 2.162 . S
Mn1332 O1348 2.297 . S
Mn1332 O1356 2.385 . S
Mn1332 O1357 2.209 . S
Mn1332 O1358 2.094 . S
Mn1333 O1338 2.121 . S
Mn1333 N1340 2.257 . S
Mn1333 N1349 2.282 . S
Mn1333 O1357 2.215 . S
Mn1333 O1359 2.117 . S
C1334 O1356 1.234 . S
C1334 O1357 1.283 . S
C1335 O1347 1.281 . S
C1335 O1348 1.236 . S
C1336 O1358 1.240 . S
C1336 O1359 1.264 . S
O1337 Mn1332 2.095 . S
O1337 C1346 1.250 . S
O1338 Mn1333 2.121 . S
O1338 C1346 1.258 . S
C1339 N1340 1.326 . S
C1339 C1343 1.460 . S
C1339 H1345 0.929 . S
N1340 Mn1333 2.257 . S
N1340 C1339 1.326 . S
N1340 C1344 1.362 . S
C1341 C1342 1.258 . S
C1341 C1344 1.431 . S
C1341 C1361 1.449 . S
C1342 C1341 1.258 . S
C1342 C1343 1.477 . S
C1342 H1362 0.931 . S
C1343 C1339 1.460 . S
C1343 C1342 1.477 . S
C1343 H1363 0.930 . S
C1344 N1340 1.362 . S
C1344 C1341 1.431 . S
C1344 C1354 1.476 . S
H1345 C1339 0.929 . S
C1346 O1337 1.250 . S
C1346 O1338 1.258 . S
O1347 Mn1332 2.162 . S
O1347 C1335 1.281 . S
O1348 Mn1332 2.297 . S
O1348 C1335 1.236 . S
N1349 Mn1333 2.282 . S
N1349 C1350 1.328 . S
N1349 C1354 1.318 . S
C1350 N1349 1.328 . S
C1350 C1351 1.457 . S
C1350 H1355 0.929 . S
C1351 C1350 1.457 . S
C1351 C1352 1.291 . S
C1351 H1364 0.931 . S
C1352 C1351 1.291 . S
C1352 C1353 1.373 . S
C1352 H1365 0.929 . S
C1353 C1352 1.373 . S
C1353 C1354 1.396 . S
C1353 C1360 1.403 . S
C1354 C1344 1.476 . S
C1354 N1349 1.318 . S
C1354 C1353 1.396 . S
H1355 C1350 0.929 . S
O1356 Mn1332 2.385 . S
O1356 C1334 1.234 . S
O1357 Mn1332 2.209 . S
O1357 Mn1333 2.215 . S
O1357 C1334 1.283 . S
O1358 Mn1332 2.094 . S
O1358 C1336 1.240 . S
O1359 Mn1333 2.117 . S
O1359 C1336 1.264 . S
C1360 C1353 1.403 . S
C1360 C1361 1.399 . S
C1360 H1366 0.929 . S
C1361 C1341 1.449 . S
C1361 C1360 1.399 . S
C1361 H1367 0.930 . S
H1362 C1342 0.931 . S
H1363 C1343 0.930 . S
H1364 C1351 0.931 . S
H1365 C1352 0.929 . S
H1366 C1360 0.929 . S
H1367 C1361 0.930 . S
Mn1368 O1373 2.095 . S
Mn1368 O1383 2.162 . S
Mn1368 O1384 2.297 . S
Mn1368 O1392 2.385 . S
Mn1368 O1393 2.209 . S
Mn1368 O1394 2.094 . S
Mn1369 O1374 2.121 . S
Mn1369 N1376 2.257 . S
Mn1369 N1385 2.282 . S
Mn1369 O1393 2.215 . S
Mn1369 O1395 2.117 . S
C1370 O1392 1.234 . S
C1370 O1393 1.283 . S
C1371 O1383 1.281 . S
C1371 O1384 1.236 . S
C1372 O1394 1.240 . S
C1372 O1395 1.264 . S
O1373 Mn1368 2.095 . S
O1373 C1382 1.250 . S
O1374 Mn1369 2.121 . S
O1374 C1382 1.258 . S
C1375 N1376 1.326 . S
C1375 C1379 1.460 . S
C1375 H1381 0.929 . S
N1376 Mn1369 2.257 . S
N1376 C1375 1.326 . S
N1376 C1380 1.362 . S
C1377 C1378 1.258 . S
C1377 C1380 1.431 . S
C1377 C1397 1.449 . S
C1378 C1377 1.258 . S
C1378 C1379 1.477 . S
C1378 H1398 0.931 . S
C1379 C1375 1.460 . S
C1379 C1378 1.477 . S
C1379 H1399 0.930 . S
C1380 N1376 1.362 . S
C1380 C1377 1.431 . S
C1380 C1390 1.476 . S
H1381 C1375 0.929 . S
C1382 O1373 1.250 . S
C1382 O1374 1.258 . S
O1383 Mn1368 2.162 . S
O1383 C1371 1.281 . S
O1384 Mn1368 2.297 . S
O1384 C1371 1.236 . S
N1385 Mn1369 2.282 . S
N1385 C1386 1.328 . S
N1385 C1390 1.318 . S
C1386 N1385 1.328 . S
C1386 C1387 1.457 . S
C1386 H1391 0.929 . S
C1387 C1386 1.457 . S
C1387 C1388 1.291 . S
C1387 H1400 0.931 . S
C1388 C1387 1.291 . S
C1388 C1389 1.373 . S
C1388 H1401 0.929 . S
C1389 C1388 1.373 . S
C1389 C1390 1.396 . S
C1389 C1396 1.403 . S
C1390 C1380 1.476 . S
C1390 N1385 1.318 . S
C1390 C1389 1.396 . S
H1391 C1386 0.929 . S
O1392 Mn1368 2.385 . S
O1392 C1370 1.234 . S
O1393 Mn1368 2.209 . S
O1393 Mn1369 2.215 . S
O1393 C1370 1.283 . S
O1394 Mn1368 2.094 . S
O1394 C1372 1.240 . S
O1395 Mn1369 2.117 . S
O1395 C1372 1.264 . S
C1396 C1389 1.403 . S
C1396 C1397 1.399 . S
C1396 H1402 0.929 . S
C1397 C1377 1.449 . S
C1397 C1396 1.399 . S
C1397 H1403 0.930 . S
H1398 C1378 0.931 . S
H1399 C1379 0.930 . S
H1400 C1387 0.931 . S
H1401 C1388 0.929 . S
H1402 C1396 0.929 . S
H1403 C1397 0.930 . S
Mn1404 O1409 2.095 . S
Mn1404 O1419 2.162 . S
Mn1404 O1420 2.297 . S
Mn1404 O1428 2.385 . S
Mn1404 O1429 2.209 . S
Mn1404 O1430 2.094 . S
Mn1405 O1410 2.121 . S
Mn1405 N1412 2.257 . S
Mn1405 N1421 2.282 . S
Mn1405 O1429 2.215 . S
Mn1405 O1431 2.117 . S
C1406 O1428 1.234 . S
C1406 O1429 1.283 . S
C1407 O1419 1.281 . S
C1407 O1420 1.236 . S
C1408 O1430 1.240 . S
C1408 O1431 1.264 . S
O1409 Mn1404 2.095 . S
O1409 C1418 1.250 . S
O1410 Mn1405 2.121 . S
O1410 C1418 1.258 . S
C1411 N1412 1.326 . S
C1411 C1415 1.460 . S
C1411 H1417 0.929 . S
N1412 Mn1405 2.257 . S
N1412 C1411 1.326 . S
N1412 C1416 1.362 . S
C1413 C1414 1.258 . S
C1413 C1416 1.431 . S
C1413 C1433 1.449 . S
C1414 C1413 1.258 . S
C1414 C1415 1.477 . S
C1414 H1434 0.931 . S
C1415 C1411 1.460 . S
C1415 C1414 1.477 . S
C1415 H1435 0.930 . S
C1416 N1412 1.362 . S
C1416 C1413 1.431 . S
C1416 C1426 1.476 . S
H1417 C1411 0.929 . S
C1418 O1409 1.250 . S
C1418 O1410 1.258 . S
O1419 Mn1404 2.162 . S
O1419 C1407 1.281 . S
O1420 Mn1404 2.297 . S
O1420 C1407 1.236 . S
N1421 Mn1405 2.282 . S
N1421 C1422 1.328 . S
N1421 C1426 1.318 . S
C1422 N1421 1.328 . S
C1422 C1423 1.457 . S
C1422 H1427 0.929 . S
C1423 C1422 1.457 . S
C1423 C1424 1.291 . S
C1423 H1436 0.931 . S
C1424 C1423 1.291 . S
C1424 C1425 1.373 . S
C1424 H1437 0.929 . S
C1425 C1424 1.373 . S
C1425 C1426 1.396 . S
C1425 C1432 1.403 . S
C1426 C1416 1.476 . S
C1426 N1421 1.318 . S
C1426 C1425 1.396 . S
H1427 C1422 0.929 . S
O1428 Mn1404 2.385 . S
O1428 C1406 1.234 . S
O1429 Mn1404 2.209 . S
O1429 Mn1405 2.215 . S
O1429 C1406 1.283 . S
O1430 Mn1404 2.094 . S
O1430 C1408 1.240 . S
O1431 Mn1405 2.117 . S
O1431 C1408 1.264 . S
C1432 C1425 1.403 . S
C1432 C1433 1.399 . S
C1432 H1438 0.929 . S
C1433 C1413 1.449 . S
C1433 C1432 1.399 . S
C1433 H1439 0.930 . S
H1434 C1414 0.931 . S
H1435 C1415 0.930 . S
H1436 C1423 0.931 . S
H1437 C1424 0.929 . S
H1438 C1432 0.929 . S
H1439 C1433 0.930 . S
Mn1440 O1445 2.095 . S
Mn1440 O1455 2.162 . S
Mn1440 O1456 2.297 . S
Mn1440 O1464 2.385 . S
Mn1440 O1465 2.209 . S
Mn1440 O1466 2.094 . S
Mn1441 O1446 2.121 . S
Mn1441 N1448 2.257 . S
Mn1441 N1457 2.282 . S
Mn1441 O1465 2.215 . S
Mn1441 O1467 2.117 . S
C1442 O1464 1.234 . S
C1442 O1465 1.283 . S
C1443 O1455 1.281 . S
C1443 O1456 1.236 . S
C1444 O1466 1.240 . S
C1444 O1467 1.264 . S
O1445 Mn1440 2.095 . S
O1445 C1454 1.250 . S
O1446 Mn1441 2.121 . S
O1446 C1454 1.258 . S
C1447 N1448 1.326 . S
C1447 C1451 1.460 . S
C1447 H1453 0.929 . S
N1448 Mn1441 2.257 . S
N1448 C1447 1.326 . S
N1448 C1452 1.362 . S
C1449 C1450 1.258 . S
C1449 C1452 1.431 . S
C1449 C1469 1.449 . S
C1450 C1449 1.258 . S
C1450 C1451 1.477 . S
C1450 H1470 0.931 . S
C1451 C1447 1.460 . S
C1451 C1450 1.477 . S
C1451 H1471 0.930 . S
C1452 N1448 1.362 . S
C1452 C1449 1.431 . S
C1452 C1462 1.476 . S
H1453 C1447 0.929 . S
C1454 O1445 1.250 . S
C1454 O1446 1.258 . S
O1455 Mn1440 2.162 . S
O1455 C1443 1.281 . S
O1456 Mn1440 2.297 . S
O1456 C1443 1.236 . S
N1457 Mn1441 2.282 . S
N1457 C1458 1.328 . S
N1457 C1462 1.318 . S
C1458 N1457 1.328 . S
C1458 C1459 1.457 . S
C1458 H1463 0.929 . S
C1459 C1458 1.457 . S
C1459 C1460 1.291 . S
C1459 H1472 0.931 . S
C1460 C1459 1.291 . S
C1460 C1461 1.373 . S
C1460 H1473 0.929 . S
C1461 C1460 1.373 . S
C1461 C1462 1.396 . S
C1461 C1468 1.403 . S
C1462 C1452 1.476 . S
C1462 N1457 1.318 . S
C1462 C1461 1.396 . S
H1463 C1458 0.929 . S
O1464 Mn1440 2.385 . S
O1464 C1442 1.234 . S
O1465 Mn1440 2.209 . S
O1465 Mn1441 2.215 . S
O1465 C1442 1.283 . S
O1466 Mn1440 2.094 . S
O1466 C1444 1.240 . S
O1467 Mn1441 2.117 . S
O1467 C1444 1.264 . S
C1468 C1461 1.403 . S
C1468 C1469 1.399 . S
C1468 H1474 0.929 . S
C1469 C1449 1.449 . S
C1469 C1468 1.399 . S
C1469 H1475 0.930 . S
H1470 C1450 0.931 . S
H1471 C1451 0.930 . S
H1472 C1459 0.931 . S
H1473 C1460 0.929 . S
H1474 C1468 0.929 . S
H1475 C1469 0.930 . S
Mn1476 O1481 2.095 . S
Mn1476 O1491 2.162 . S
Mn1476 O1492 2.297 . S
Mn1476 O1500 2.385 . S
Mn1476 O1501 2.209 . S
Mn1476 O1502 2.094 . S
Mn1477 O1482 2.121 . S
Mn1477 N1484 2.257 . S
Mn1477 N1493 2.282 . S
Mn1477 O1501 2.215 . S
Mn1477 O1503 2.117 . S
C1478 O1500 1.234 . S
C1478 O1501 1.283 . S
C1479 O1491 1.281 . S
C1479 O1492 1.236 . S
C1480 O1502 1.240 . S
C1480 O1503 1.264 . S
O1481 Mn1476 2.095 . S
O1481 C1490 1.250 . S
O1482 Mn1477 2.121 . S
O1482 C1490 1.258 . S
C1483 N1484 1.326 . S
C1483 C1487 1.460 . S
C1483 H1489 0.929 . S
N1484 Mn1477 2.257 . S
N1484 C1483 1.326 . S
N1484 C1488 1.362 . S
C1485 C1486 1.258 . S
C1485 C1488 1.431 . S
C1485 C1505 1.449 . S
C1486 C1485 1.258 . S
C1486 C1487 1.477 . S
C1486 H1506 0.931 . S
C1487 C1483 1.460 . S
C1487 C1486 1.477 . S
C1487 H1507 0.930 . S
C1488 N1484 1.362 . S
C1488 C1485 1.431 . S
C1488 C1498 1.476 . S
H1489 C1483 0.929 . S
C1490 O1481 1.250 . S
C1490 O1482 1.258 . S
O1491 Mn1476 2.162 . S
O1491 C1479 1.281 . S
O1492 Mn1476 2.297 . S
O1492 C1479 1.236 . S
N1493 Mn1477 2.282 . S
N1493 C1494 1.328 . S
N1493 C1498 1.318 . S
C1494 N1493 1.328 . S
C1494 C1495 1.457 . S
C1494 H1499 0.929 . S
C1495 C1494 1.457 . S
C1495 C1496 1.291 . S
C1495 H1508 0.931 . S
C1496 C1495 1.291 . S
C1496 C1497 1.373 . S
C1496 H1509 0.929 . S
C1497 C1496 1.373 . S
C1497 C1498 1.396 . S
C1497 C1504 1.403 . S
C1498 C1488 1.476 . S
C1498 N1493 1.318 . S
C1498 C1497 1.396 . S
H1499 C1494 0.929 . S
O1500 Mn1476 2.385 . S
O1500 C1478 1.234 . S
O1501 Mn1476 2.209 . S
O1501 Mn1477 2.215 . S
O1501 C1478 1.283 . S
O1502 Mn1476 2.094 . S
O1502 C1480 1.240 . S
O1503 Mn1477 2.117 . S
O1503 C1480 1.264 . S
C1504 C1497 1.403 . S
C1504 C1505 1.399 . S
C1504 H1510 0.929 . S
C1505 C1485 1.449 . S
C1505 C1504 1.399 . S
C1505 H1511 0.930 . S
H1506 C1486 0.931 . S
H1507 C1487 0.930 . S
H1508 C1495 0.931 . S
H1509 C1496 0.929 . S
H1510 C1504 0.929 . S
H1511 C1505 0.930 . S
Mn1512 O1517 2.095 . S
Mn1512 O1527 2.162 . S
Mn1512 O1528 2.297 . S
Mn1512 O1536 2.385 . S
Mn1512 O1537 2.209 . S
Mn1512 O1538 2.094 . S
Mn1513 O1518 2.121 . S
Mn1513 N1520 2.257 . S
Mn1513 N1529 2.282 . S
Mn1513 O1537 2.215 . S
Mn1513 O1539 2.117 . S
C1514 O1536 1.234 . S
C1514 O1537 1.283 . S
C1515 O1527 1.281 . S
C1515 O1528 1.236 . S
C1516 O1538 1.240 . S
C1516 O1539 1.264 . S
O1517 Mn1512 2.095 . S
O1517 C1526 1.250 . S
O1518 Mn1513 2.121 . S
O1518 C1526 1.258 . S
C1519 N1520 1.326 . S
C1519 C1523 1.460 . S
C1519 H1525 0.929 . S
N1520 Mn1513 2.257 . S
N1520 C1519 1.326 . S
N1520 C1524 1.362 . S
C1521 C1522 1.258 . S
C1521 C1524 1.431 . S
C1521 C1541 1.449 . S
C1522 C1521 1.258 . S
C1522 C1523 1.477 . S
C1522 H1542 0.931 . S
C1523 C1519 1.460 . S
C1523 C1522 1.477 . S
C1523 H1543 0.930 . S
C1524 N1520 1.362 . S
C1524 C1521 1.431 . S
C1524 C1534 1.476 . S
H1525 C1519 0.929 . S
C1526 O1517 1.250 . S
C1526 O1518 1.258 . S
O1527 Mn1512 2.162 . S
O1527 C1515 1.281 . S
O1528 Mn1512 2.297 . S
O1528 C1515 1.236 . S
N1529 Mn1513 2.282 . S
N1529 C1530 1.328 . S
N1529 C1534 1.318 . S
C1530 N1529 1.328 . S
C1530 C1531 1.457 . S
C1530 H1535 0.929 . S
C1531 C1530 1.457 . S
C1531 C1532 1.291 . S
C1531 H1544 0.931 . S
C1532 C1531 1.291 . S
C1532 C1533 1.373 . S
C1532 H1545 0.929 . S
C1533 C1532 1.373 . S
C1533 C1534 1.396 . S
C1533 C1540 1.403 . S
C1534 C1524 1.476 . S
C1534 N1529 1.318 . S
C1534 C1533 1.396 . S
H1535 C1530 0.929 . S
O1536 Mn1512 2.385 . S
O1536 C1514 1.234 . S
O1537 Mn1512 2.209 . S
O1537 Mn1513 2.215 . S
O1537 C1514 1.283 . S
O1538 Mn1512 2.094 . S
O1538 C1516 1.240 . S
O1539 Mn1513 2.117 . S
O1539 C1516 1.264 . S
C1540 C1533 1.403 . S
C1540 C1541 1.399 . S
C1540 H1546 0.929 . S
C1541 C1521 1.449 . S
C1541 C1540 1.399 . S
C1541 H1547 0.930 . S
H1542 C1522 0.931 . S
H1543 C1523 0.930 . S
H1544 C1531 0.931 . S
H1545 C1532 0.929 . S
H1546 C1540 0.929 . S
H1547 C1541 0.930 . S
Mn1548 O1553 2.095 . S
Mn1548 O1563 2.162 . S
Mn1548 O1564 2.297 . S
Mn1548 O1572 2.385 . S
Mn1548 O1573 2.209 . S
Mn1548 O1574 2.094 . S
Mn1549 O1554 2.121 . S
Mn1549 N1556 2.257 . S
Mn1549 N1565 2.282 . S
Mn1549 O1573 2.215 . S
Mn1549 O1575 2.117 . S
C1550 O1572 1.234 . S
C1550 O1573 1.283 . S
C1551 O1563 1.281 . S
C1551 O1564 1.236 . S
C1552 O1574 1.240 . S
C1552 O1575 1.264 . S
O1553 Mn1548 2.095 . S
O1553 C1562 1.250 . S
O1554 Mn1549 2.121 . S
O1554 C1562 1.258 . S
C1555 N1556 1.326 . S
C1555 C1559 1.460 . S
C1555 H1561 0.929 . S
N1556 Mn1549 2.257 . S
N1556 C1555 1.326 . S
N1556 C1560 1.362 . S
C1557 C1558 1.258 . S
C1557 C1560 1.431 . S
C1557 C1577 1.449 . S
C1558 C1557 1.258 . S
C1558 C1559 1.477 . S
C1558 H1578 0.931 . S
C1559 C1555 1.460 . S
C1559 C1558 1.477 . S
C1559 H1579 0.930 . S
C1560 N1556 1.362 . S
C1560 C1557 1.431 . S
C1560 C1570 1.476 . S
H1561 C1555 0.929 . S
C1562 O1553 1.250 . S
C1562 O1554 1.258 . S
O1563 Mn1548 2.162 . S
O1563 C1551 1.281 . S
O1564 Mn1548 2.297 . S
O1564 C1551 1.236 . S
N1565 Mn1549 2.282 . S
N1565 C1566 1.328 . S
N1565 C1570 1.318 . S
C1566 N1565 1.328 . S
C1566 C1567 1.457 . S
C1566 H1571 0.929 . S
C1567 C1566 1.457 . S
C1567 C1568 1.291 . S
C1567 H1580 0.931 . S
C1568 C1567 1.291 . S
C1568 C1569 1.373 . S
C1568 H1581 0.929 . S
C1569 C1568 1.373 . S
C1569 C1570 1.396 . S
C1569 C1576 1.403 . S
C1570 C1560 1.476 . S
C1570 N1565 1.318 . S
C1570 C1569 1.396 . S
H1571 C1566 0.929 . S
O1572 Mn1548 2.385 . S
O1572 C1550 1.234 . S
O1573 Mn1548 2.209 . S
O1573 Mn1549 2.215 . S
O1573 C1550 1.283 . S
O1574 Mn1548 2.094 . S
O1574 C1552 1.240 . S
O1575 Mn1549 2.117 . S
O1575 C1552 1.264 . S
C1576 C1569 1.403 . S
C1576 C1577 1.399 . S
C1576 H1582 0.929 . S
C1577 C1557 1.449 . S
C1577 C1576 1.399 . S
C1577 H1583 0.930 . S
H1578 C1558 0.931 . S
H1579 C1559 0.930 . S
H1580 C1567 0.931 . S
H1581 C1568 0.929 . S
H1582 C1576 0.929 . S
H1583 C1577 0.930 . S
Mn1584 O1589 2.095 . S
Mn1584 O1599 2.162 . S
Mn1584 O1600 2.297 . S
Mn1584 O1608 2.385 . S
Mn1584 O1609 2.209 . S
Mn1584 O1610 2.094 . S
Mn1585 O1590 2.121 . S
Mn1585 N1592 2.257 . S
Mn1585 N1601 2.282 . S
Mn1585 O1609 2.215 . S
Mn1585 O1611 2.117 . S
C1586 O1608 1.234 . S
C1586 O1609 1.283 . S
C1587 O1599 1.281 . S
C1587 O1600 1.236 . S
C1588 O1610 1.240 . S
C1588 O1611 1.264 . S
O1589 Mn1584 2.095 . S
O1589 C1598 1.250 . S
O1590 Mn1585 2.121 . S
O1590 C1598 1.258 . S
C1591 N1592 1.326 . S
C1591 C1595 1.460 . S
C1591 H1597 0.929 . S
N1592 Mn1585 2.257 . S
N1592 C1591 1.326 . S
N1592 C1596 1.362 . S
C1593 C1594 1.258 . S
C1593 C1596 1.431 . S
C1593 C1613 1.449 . S
C1594 C1593 1.258 . S
C1594 C1595 1.477 . S
C1594 H1614 0.931 . S
C1595 C1591 1.460 . S
C1595 C1594 1.477 . S
C1595 H1615 0.930 . S
C1596 N1592 1.362 . S
C1596 C1593 1.431 . S
C1596 C1606 1.476 . S
H1597 C1591 0.929 . S
C1598 O1589 1.250 . S
C1598 O1590 1.258 . S
O1599 Mn1584 2.162 . S
O1599 C1587 1.281 . S
O1600 Mn1584 2.297 . S
O1600 C1587 1.236 . S
N1601 Mn1585 2.282 . S
N1601 C1602 1.328 . S
N1601 C1606 1.318 . S
C1602 N1601 1.328 . S
C1602 C1603 1.457 . S
C1602 H1607 0.929 . S
C1603 C1602 1.457 . S
C1603 C1604 1.291 . S
C1603 H1616 0.931 . S
C1604 C1603 1.291 . S
C1604 C1605 1.373 . S
C1604 H1617 0.929 . S
C1605 C1604 1.373 . S
C1605 C1606 1.396 . S
C1605 C1612 1.403 . S
C1606 C1596 1.476 . S
C1606 N1601 1.318 . S
C1606 C1605 1.396 . S
H1607 C1602 0.929 . S
O1608 Mn1584 2.385 . S
O1608 C1586 1.234 . S
O1609 Mn1584 2.209 . S
O1609 Mn1585 2.215 . S
O1609 C1586 1.283 . S
O1610 Mn1584 2.094 . S
O1610 C1588 1.240 . S
O1611 Mn1585 2.117 . S
O1611 C1588 1.264 . S
C1612 C1605 1.403 . S
C1612 C1613 1.399 . S
C1612 H1618 0.929 . S
C1613 C1593 1.449 . S
C1613 C1612 1.399 . S
C1613 H1619 0.930 . S
H1614 C1594 0.931 . S
H1615 C1595 0.930 . S
H1616 C1603 0.931 . S
H1617 C1604 0.929 . S
H1618 C1612 0.929 . S
H1619 C1613 0.930 . S
Mn1620 O1625 2.095 . S
Mn1620 O1635 2.162 . S
Mn1620 O1636 2.297 . S
Mn1620 O1644 2.385 . S
Mn1620 O1645 2.209 . S
Mn1620 O1646 2.094 . S
Mn1621 O1626 2.121 . S
Mn1621 N1628 2.257 . S
Mn1621 N1637 2.282 . S
Mn1621 O1645 2.215 . S
Mn1621 O1647 2.117 . S
C1622 O1644 1.234 . S
C1622 O1645 1.283 . S
C1623 O1635 1.281 . S
C1623 O1636 1.236 . S
C1624 O1646 1.240 . S
C1624 O1647 1.264 . S
O1625 Mn1620 2.095 . S
O1625 C1634 1.250 . S
O1626 Mn1621 2.121 . S
O1626 C1634 1.258 . S
C1627 N1628 1.326 . S
C1627 C1631 1.460 . S
C1627 H1633 0.929 . S
N1628 Mn1621 2.257 . S
N1628 C1627 1.326 . S
N1628 C1632 1.362 . S
C1629 C1630 1.258 . S
C1629 C1632 1.431 . S
C1629 C1649 1.449 . S
C1630 C1629 1.258 . S
C1630 C1631 1.477 . S
C1630 H1650 0.931 . S
C1631 C1627 1.460 . S
C1631 C1630 1.477 . S
C1631 H1651 0.930 . S
C1632 N1628 1.362 . S
C1632 C1629 1.431 . S
C1632 C1642 1.476 . S
H1633 C1627 0.929 . S
C1634 O1625 1.250 . S
C1634 O1626 1.258 . S
O1635 Mn1620 2.162 . S
O1635 C1623 1.281 . S
O1636 Mn1620 2.297 . S
O1636 C1623 1.236 . S
N1637 Mn1621 2.282 . S
N1637 C1638 1.328 . S
N1637 C1642 1.318 . S
C1638 N1637 1.328 . S
C1638 C1639 1.457 . S
C1638 H1643 0.929 . S
C1639 C1638 1.457 . S
C1639 C1640 1.291 . S
C1639 H1652 0.931 . S
C1640 C1639 1.291 . S
C1640 C1641 1.373 . S
C1640 H1653 0.929 . S
C1641 C1640 1.373 . S
C1641 C1642 1.396 . S
C1641 C1648 1.403 . S
C1642 C1632 1.476 . S
C1642 N1637 1.318 . S
C1642 C1641 1.396 . S
H1643 C1638 0.929 . S
O1644 Mn1620 2.385 . S
O1644 C1622 1.234 . S
O1645 Mn1620 2.209 . S
O1645 Mn1621 2.215 . S
O1645 C1622 1.283 . S
O1646 Mn1620 2.094 . S
O1646 C1624 1.240 . S
O1647 Mn1621 2.117 . S
O1647 C1624 1.264 . S
C1648 C1641 1.403 . S
C1648 C1649 1.399 . S
C1648 H1654 0.929 . S
C1649 C1629 1.449 . S
C1649 C1648 1.399 . S
C1649 H1655 0.930 . S
H1650 C1630 0.931 . S
H1651 C1631 0.930 . S
H1652 C1639 0.931 . S
H1653 C1640 0.929 . S
H1654 C1648 0.929 . S
H1655 C1649 0.930 . S
Mn1656 O1661 2.095 . S
Mn1656 O1671 2.162 . S
Mn1656 O1672 2.297 . S
Mn1656 O1680 2.385 . S
Mn1656 O1681 2.209 . S
Mn1656 O1682 2.094 . S
Mn1657 O1662 2.121 . S
Mn1657 N1664 2.257 . S
Mn1657 N1673 2.282 . S
Mn1657 O1681 2.215 . S
Mn1657 O1683 2.117 . S
C1658 O1680 1.234 . S
C1658 O1681 1.283 . S
C1659 O1671 1.281 . S
C1659 O1672 1.236 . S
C1660 O1682 1.240 . S
C1660 O1683 1.264 . S
O1661 Mn1656 2.095 . S
O1661 C1670 1.250 . S
O1662 Mn1657 2.121 . S
O1662 C1670 1.258 . S
C1663 N1664 1.326 . S
C1663 C1667 1.460 . S
C1663 H1669 0.929 . S
N1664 Mn1657 2.257 . S
N1664 C1663 1.326 . S
N1664 C1668 1.362 . S
C1665 C1666 1.258 . S
C1665 C1668 1.431 . S
C1665 C1685 1.449 . S
C1666 C1665 1.258 . S
C1666 C1667 1.477 . S
C1666 H1686 0.931 . S
C1667 C1663 1.460 . S
C1667 C1666 1.477 . S
C1667 H1687 0.930 . S
C1668 N1664 1.362 . S
C1668 C1665 1.431 . S
C1668 C1678 1.476 . S
H1669 C1663 0.929 . S
C1670 O1661 1.250 . S
C1670 O1662 1.258 . S
O1671 Mn1656 2.162 . S
O1671 C1659 1.281 . S
O1672 Mn1656 2.297 . S
O1672 C1659 1.236 . S
N1673 Mn1657 2.282 . S
N1673 C1674 1.328 . S
N1673 C1678 1.318 . S
C1674 N1673 1.328 . S
C1674 C1675 1.457 . S
C1674 H1679 0.929 . S
C1675 C1674 1.457 . S
C1675 C1676 1.291 . S
C1675 H1688 0.931 . S
C1676 C1675 1.291 . S
C1676 C1677 1.373 . S
C1676 H1689 0.929 . S
C1677 C1676 1.373 . S
C1677 C1678 1.396 . S
C1677 C1684 1.403 . S
C1678 C1668 1.476 . S
C1678 N1673 1.318 . S
C1678 C1677 1.396 . S
H1679 C1674 0.929 . S
O1680 Mn1656 2.385 . S
O1680 C1658 1.234 . S
O1681 Mn1656 2.209 . S
O1681 Mn1657 2.215 . S
O1681 C1658 1.283 . S
O1682 Mn1656 2.094 . S
O1682 C1660 1.240 . S
O1683 Mn1657 2.117 . S
O1683 C1660 1.264 . S
C1684 C1677 1.403 . S
C1684 C1685 1.399 . S
C1684 H1690 0.929 . S
C1685 C1665 1.449 . S
C1685 C1684 1.399 . S
C1685 H1691 0.930 . S
H1686 C1666 0.931 . S
H1687 C1667 0.930 . S
H1688 C1675 0.931 . S
H1689 C1676 0.929 . S
H1690 C1684 0.929 . S
H1691 C1685 0.930 . S
Mn1692 O1697 2.095 . S
Mn1692 O1707 2.162 . S
Mn1692 O1708 2.297 . S
Mn1692 O1716 2.385 . S
Mn1692 O1717 2.209 . S
Mn1692 O1718 2.094 . S
Mn1693 O1698 2.121 . S
Mn1693 N1700 2.257 . S
Mn1693 N1709 2.282 . S
Mn1693 O1717 2.215 . S
Mn1693 O1719 2.117 . S
C1694 O1716 1.234 . S
C1694 O1717 1.283 . S
C1695 O1707 1.281 . S
C1695 O1708 1.236 . S
C1696 O1718 1.240 . S
C1696 O1719 1.264 . S
O1697 Mn1692 2.095 . S
O1697 C1706 1.250 . S
O1698 Mn1693 2.121 . S
O1698 C1706 1.258 . S
C1699 N1700 1.326 . S
C1699 C1703 1.460 . S
C1699 H1705 0.929 . S
N1700 Mn1693 2.257 . S
N1700 C1699 1.326 . S
N1700 C1704 1.362 . S
C1701 C1702 1.258 . S
C1701 C1704 1.431 . S
C1701 C1721 1.449 . S
C1702 C1701 1.258 . S
C1702 C1703 1.477 . S
C1702 H1722 0.931 . S
C1703 C1699 1.460 . S
C1703 C1702 1.477 . S
C1703 H1723 0.930 . S
C1704 N1700 1.362 . S
C1704 C1701 1.431 . S
C1704 C1714 1.476 . S
H1705 C1699 0.929 . S
C1706 O1697 1.250 . S
C1706 O1698 1.258 . S
O1707 Mn1692 2.162 . S
O1707 C1695 1.281 . S
O1708 Mn1692 2.297 . S
O1708 C1695 1.236 . S
N1709 Mn1693 2.282 . S
N1709 C1710 1.328 . S
N1709 C1714 1.318 . S
C1710 N1709 1.328 . S
C1710 C1711 1.457 . S
C1710 H1715 0.929 . S
C1711 C1710 1.457 . S
C1711 C1712 1.291 . S
C1711 H1724 0.931 . S
C1712 C1711 1.291 . S
C1712 C1713 1.373 . S
C1712 H1725 0.929 . S
C1713 C1712 1.373 . S
C1713 C1714 1.396 . S
C1713 C1720 1.403 . S
C1714 C1704 1.476 . S
C1714 N1709 1.318 . S
C1714 C1713 1.396 . S
H1715 C1710 0.929 . S
O1716 Mn1692 2.385 . S
O1716 C1694 1.234 . S
O1717 Mn1692 2.209 . S
O1717 Mn1693 2.215 . S
O1717 C1694 1.283 . S
O1718 Mn1692 2.094 . S
O1718 C1696 1.240 . S
O1719 Mn1693 2.117 . S
O1719 C1696 1.264 . S
C1720 C1713 1.403 . S
C1720 C1721 1.399 . S
C1720 H1726 0.929 . S
C1721 C1701 1.449 . S
C1721 C1720 1.399 . S
C1721 H1727 0.930 . S
H1722 C1702 0.931 . S
H1723 C1703 0.930 . S
H1724 C1711 0.931 . S
H1725 C1712 0.929 . S
H1726 C1720 0.929 . S
H1727 C1721 0.930 . S
C1728 C1729 1.387 . S
C1728 H1732 0.950 . S
C1728 C1737 1.390 . S
C1729 C1728 1.387 . S
C1729 C1731 1.387 1_655 S
H1730 C1737 0.950 . S
C1731 C1729 1.387 1_455 S
C1731 C1733 1.390 . S
C1731 H1735 0.950 . S
H1732 C1728 0.950 . S
C1733 C1731 1.390 . S
C1733 C1734 1.387 . S
C1733 H1736 0.950 . S
C1734 C1733 1.387 . S
C1734 C1737 1.387 1_455 S
H1735 C1731 0.950 . S
H1736 C1733 0.950 . S
C1737 C1728 1.390 . S
C1737 H1730 0.950 . S
C1737 C1734 1.387 1_655 S
C1738 C1739 1.387 1_545 S
C1738 H1742 0.950 . S
C1738 C1747 1.390 . S
C1739 C1738 1.387 1_565 S
C1739 C1741 1.387 . S
H1740 C1747 0.950 . S
C1741 C1739 1.387 . S
C1741 C1743 1.390 . S
C1741 H1745 0.950 . S
H1742 C1738 0.950 . S
C1743 C1741 1.390 . S
C1743 C1744 1.387 1_565 S
C1743 H1746 0.950 . S
C1744 C1743 1.387 1_545 S
C1744 C1747 1.387 . S
H1745 C1741 0.950 . S
H1746 C1743 0.950 . S
C1747 C1738 1.390 . S
C1747 H1740 0.950 . S
C1747 C1744 1.387 . S
C1748 C1749 1.387 1_655 S
C1748 H1752 0.950 . S
C1748 C1757 1.390 . S
C1749 C1748 1.387 1_455 S
C1749 C1751 1.387 . S
H1750 C1757 0.950 . S
C1751 C1749 1.387 . S
C1751 C1753 1.390 . S
C1751 H1755 0.950 . S
H1752 C1748 0.950 . S
C1753 C1751 1.390 . S
C1753 C1754 1.387 1_455 S
C1753 H1756 0.950 . S
C1754 C1753 1.387 1_655 S
C1754 C1757 1.387 . S
H1755 C1751 0.950 . S
H1756 C1753 0.950 . S
C1757 C1748 1.390 . S
C1757 H1750 0.950 . S
C1757 C1754 1.387 . S
C1758 C1759 1.387 . S
C1758 H1762 0.950 . S
C1758 C1767 1.390 . S
C1759 C1758 1.387 . S
C1759 C1761 1.387 1_565 S
H1760 C1767 0.950 . S
C1761 C1759 1.387 1_545 S
C1761 C1763 1.390 . S
C1761 H1765 0.950 . S
H1762 C1758 0.950 . S
C1763 C1761 1.390 . S
C1763 C1764 1.387 . S
C1763 H1766 0.950 . S
C1764 C1763 1.387 . S
C1764 C1767 1.387 1_545 S
H1765 C1761 0.950 . S
H1766 C1763 0.950 . S
C1767 C1758 1.390 . S
C1767 H1760 0.950 . S
C1767 C1764 1.387 1_565 S
C1768 C1769 1.387 . S
C1768 H1772 0.950 . S
C1768 C1777 1.390 1_655 S
C1769 C1768 1.387 . S
C1769 C1771 1.387 . S
H1770 C1777 0.950 . S
C1771 C1769 1.387 . S
C1771 C1773 1.390 1_655 S
C1771 H1775 0.950 . S
H1772 C1768 0.950 . S
C1773 C1771 1.390 1_455 S
C1773 C1774 1.387 . S
C1773 H1776 0.950 . S
C1774 C1773 1.387 . S
C1774 C1777 1.387 . S
H1775 C1771 0.950 . S
H1776 C1773 0.950 . S
C1777 C1768 1.390 1_455 S
C1777 H1770 0.950 . S
C1777 C1774 1.387 . S
C1778 C1779 1.387 . S
C1778 H1782 0.950 . S
C1778 C1787 1.390 . S
C1779 C1778 1.387 . S
C1779 C1781 1.387 1_545 S
H1780 C1787 0.950 . S
C1781 C1779 1.387 1_565 S
C1781 C1783 1.390 . S
C1781 H1785 0.950 . S
H1782 C1778 0.950 . S
C1783 C1781 1.390 . S
C1783 C1784 1.387 . S
C1783 H1786 0.950 . S
C1784 C1783 1.387 . S
C1784 C1787 1.387 1_565 S
H1785 C1781 0.950 . S
H1786 C1783 0.950 . S
C1787 C1778 1.390 . S
C1787 H1780 0.950 . S
C1787 C1784 1.387 1_545 S
C1788 C1789 1.387 . S
C1788 H1792 0.950 . S
C1788 C1797 1.390 . S
C1789 C1788 1.387 . S
C1789 C1791 1.387 1_455 S
H1790 C1797 0.950 . S
C1791 C1789 1.387 1_655 S
C1791 C1793 1.390 . S
C1791 H1795 0.950 . S
H1792 C1788 0.950 . S
C1793 C1791 1.390 . S
C1793 C1794 1.387 . S
C1793 H1796 0.950 . S
C1794 C1793 1.387 . S
C1794 C1797 1.387 1_655 S
H1795 C1791 0.950 . S
H1796 C1793 0.950 . S
C1797 C1788 1.390 . S
C1797 H1790 0.950 . S
C1797 C1794 1.387 1_455 S
C1798 C1799 1.387 . S
C1798 H1802 0.950 . S
C1798 C1807 1.390 . S
C1799 C1798 1.387 . S
C1799 C1801 1.387 1_545 S
H1800 C1807 0.950 . S
C1801 C1799 1.387 1_565 S
C1801 C1803 1.390 . S
C1801 H1805 0.950 . S
H1802 C1798 0.950 . S
C1803 C1801 1.390 . S
C1803 C1804 1.387 . S
C1803 H1806 0.950 . S
C1804 C1803 1.387 . S
C1804 C1807 1.387 1_565 S
H1805 C1801 0.950 . S
H1806 C1803 0.950 . S
C1807 C1798 1.390 . S
C1807 H1800 0.950 . S
C1807 C1804 1.387 1_545 S
C1808 C1809 1.387 . S
C1808 H1812 0.950 . S
C1808 C1817 1.390 . S
C1809 C1808 1.387 . S
C1809 C1811 1.387 1_554 S
H1810 C1817 0.950 . S
C1811 C1809 1.387 1_556 S
C1811 C1813 1.390 . S
C1811 H1815 0.950 . S
H1812 C1808 0.950 . S
C1813 C1811 1.390 . S
C1813 C1814 1.387 . S
C1813 H1816 0.950 . S
C1814 C1813 1.387 . S
C1814 C1817 1.387 1_556 S
H1815 C1811 0.950 . S
H1816 C1813 0.950 . S
C1817 C1808 1.390 . S
C1817 H1810 0.950 . S
C1817 C1814 1.387 1_554 S
C1818 C1819 1.387 . S
C1818 H1822 0.950 . S
C1818 C1827 1.390 . S
C1819 C1818 1.387 . S
C1819 C1821 1.387 1_556 S
H1820 C1827 0.950 . S
C1821 C1819 1.387 1_554 S
C1821 C1823 1.390 . S
C1821 H1825 0.950 . S
H1822 C1818 0.950 . S
C1823 C1821 1.390 . S
C1823 C1824 1.387 . S
C1823 H1826 0.950 . S
C1824 C1823 1.387 . S
C1824 C1827 1.387 1_554 S
H1825 C1821 0.950 . S
H1826 C1823 0.950 . S
C1827 C1818 1.390 . S
C1827 H1820 0.950 . S
C1827 C1824 1.387 1_556 S
C1828 C1829 1.387 . S
C1828 H1832 0.950 . S
C1828 C1837 1.390 . S
C1829 C1828 1.387 . S
C1829 C1831 1.387 1_556 S
H1830 C1837 0.950 . S
C1831 C1829 1.387 1_554 S
C1831 C1833 1.390 . S
C1831 H1835 0.950 . S
H1832 C1828 0.950 . S
C1833 C1831 1.390 . S
C1833 C1834 1.387 . S
C1833 H1836 0.950 . S
C1834 C1833 1.387 . S
C1834 C1837 1.387 1_554 S
H1835 C1831 0.950 . S
H1836 C1833 0.950 . S
C1837 C1828 1.390 . S
C1837 H1830 0.950 . S
C1837 C1834 1.387 1_556 S
C1838 C1839 1.387 . S
C1838 H1842 0.950 . S
C1838 C1847 1.390 . S
C1839 C1838 1.387 . S
C1839 C1841 1.387 1_556 S
H1840 C1847 0.950 . S
C1841 C1839 1.387 1_554 S
C1841 C1843 1.390 . S
C1841 H1845 0.950 . S
H1842 C1838 0.950 . S
C1843 C1841 1.390 . S
C1843 C1844 1.387 . S
C1843 H1846 0.950 . S
C1844 C1843 1.387 . S
C1844 C1847 1.387 1_554 S
H1845 C1841 0.950 . S
H1846 C1843 0.950 . S
C1847 C1838 1.390 . S
C1847 H1840 0.950 . S
C1847 C1844 1.387 1_556 S
C1848 C1849 1.387 . S
C1848 H1852 0.950 . S
C1848 C1857 1.390 . S
C1849 C1848 1.387 . S
C1849 C1851 1.387 . S
H1850 C1857 0.950 . S
C1851 C1849 1.387 . S
C1851 C1853 1.390 . S
C1851 H1855 0.950 . S
H1852 C1848 0.950 . S
C1853 C1851 1.390 . S
C1853 C1854 1.387 . S
C1853 H1856 0.950 . S
C1854 C1853 1.387 . S
C1854 C1857 1.387 . S
H1855 C1851 0.950 . S
H1856 C1853 0.950 . S
C1857 C1848 1.390 . S
C1857 H1850 0.950 . S
C1857 C1854 1.387 . S
C1858 C1859 1.387 . S
C1858 H1862 0.950 . S
C1858 C1867 1.390 . S
C1859 C1858 1.387 . S
C1859 C1861 1.387 . S
H1860 C1867 0.950 . S
C1861 C1859 1.387 . S
C1861 C1863 1.390 . S
C1861 H1865 0.950 . S
H1862 C1858 0.950 . S
C1863 C1861 1.390 . S
C1863 C1864 1.387 . S
C1863 H1866 0.950 . S
C1864 C1863 1.387 . S
C1864 C1867 1.387 . S
H1865 C1861 0.950 . S
H1866 C1863 0.950 . S
C1867 C1858 1.390 . S
C1867 H1860 0.950 . S
C1867 C1864 1.387 . S
C1868 C1869 1.387 . S
C1868 H1872 0.950 . S
C1868 C1877 1.390 . S
C1869 C1868 1.387 . S
C1869 C1871 1.387 . S
H1870 C1877 0.950 . S
C1871 C1869 1.387 . S
C1871 C1873 1.390 . S
C1871 H1875 0.950 . S
H1872 C1868 0.950 . S
C1873 C1871 1.390 . S
C1873 C1874 1.387 . S
C1873 H1876 0.950 . S
C1874 C1873 1.387 . S
C1874 C1877 1.387 . S
H1875 C1871 0.950 . S
H1876 C1873 0.950 . S
C1877 C1868 1.390 . S
C1877 H1870 0.950 . S
C1877 C1874 1.387 . S
C1878 C1879 1.387 . S
C1878 H1882 0.950 . S
C1878 C1887 1.390 . S
C1879 C1878 1.387 . S
C1879 C1881 1.387 . S
H1880 C1887 0.950 . S
C1881 C1879 1.387 . S
C1881 C1883 1.390 . S
C1881 H1885 0.950 . S
H1882 C1878 0.950 . S
C1883 C1881 1.390 . S
C1883 C1884 1.387 . S
C1883 H1886 0.950 . S
C1884 C1883 1.387 . S
C1884 C1887 1.387 . S
H1885 C1881 0.950 . S
H1886 C1883 0.950 . S
C1887 C1878 1.390 . S
C1887 H1880 0.950 . S
C1887 C1884 1.387 . S
C1888 C1889 1.387 . S
C1888 H1892 0.950 . S
C1888 C1897 1.390 . S
C1889 C1888 1.387 . S
C1889 C1891 1.387 . S
H1890 C1897 0.950 . S
C1891 C1889 1.387 . S
C1891 C1893 1.390 . S
C1891 H1895 0.950 . S
H1892 C1888 0.950 . S
C1893 C1891 1.390 . S
C1893 C1894 1.387 . S
C1893 H1896 0.950 . S
C1894 C1893 1.387 . S
C1894 C1897 1.387 . S
H1895 C1891 0.950 . S
H1896 C1893 0.950 . S
C1897 C1888 1.390 . S
C1897 H1890 0.950 . S
C1897 C1894 1.387 . S
C1898 C1899 1.387 . S
C1898 H1902 0.950 . S
C1898 C1907 1.390 . S
C1899 C1898 1.387 . S
C1899 C1901 1.387 . S
H1900 C1907 0.950 . S
C1901 C1899 1.387 . S
C1901 C1903 1.390 . S
C1901 H1905 0.950 . S
H1902 C1898 0.950 . S
C1903 C1901 1.390 . S
C1903 C1904 1.387 . S
C1903 H1906 0.950 . S
C1904 C1903 1.387 . S
C1904 C1907 1.387 . S
H1905 C1901 0.950 . S
H1906 C1903 0.950 . S
C1907 C1898 1.390 . S
C1907 H1900 0.950 . S
C1907 C1904 1.387 . S
C1908 C1909 1.387 . S
C1908 H1912 0.950 . S
C1908 C1917 1.390 . S
C1909 C1908 1.387 . S
C1909 C1911 1.387 . S
H1910 C1917 0.950 . S
C1911 C1909 1.387 . S
C1911 C1913 1.390 . S
C1911 H1915 0.950 . S
H1912 C1908 0.950 . S
C1913 C1911 1.390 . S
C1913 C1914 1.387 . S
C1913 H1916 0.950 . S
C1914 C1913 1.387 . S
C1914 C1917 1.387 . S
H1915 C1911 0.950 . S
H1916 C1913 0.950 . S
C1917 C1908 1.390 . S
C1917 H1910 0.950 . S
C1917 C1914 1.387 . S
C1918 C1919 1.387 . S
C1918 H1922 0.950 . S
C1918 C1927 1.390 . S
C1919 C1918 1.387 . S
C1919 C1921 1.387 . S
H1920 C1927 0.950 . S
C1921 C1919 1.387 . S
C1921 C1923 1.390 . S
C1921 H1925 0.950 . S
H1922 C1918 0.950 . S
C1923 C1921 1.390 . S
C1923 C1924 1.387 . S
C1923 H1926 0.950 . S
C1924 C1923 1.387 . S
C1924 C1927 1.387 . S
H1925 C1921 0.950 . S
H1926 C1923 0.950 . S
C1927 C1918 1.390 . S
C1927 H1920 0.950 . S
C1927 C1924 1.387 . S
C1928 C1929 1.387 . S
C1928 H1932 0.950 . S
C1928 C1937 1.390 . S
C1929 C1928 1.387 . S
C1929 C1931 1.387 . S
H1930 C1937 0.950 . S
C1931 C1929 1.387 . S
C1931 C1933 1.390 . S
C1931 H1935 0.950 . S
H1932 C1928 0.950 . S
C1933 C1931 1.390 . S
C1933 C1934 1.387 . S
C1933 H1936 0.950 . S
C1934 C1933 1.387 . S
C1934 C1937 1.387 . S
H1935 C1931 0.950 . S
H1936 C1933 0.950 . S
C1937 C1928 1.390 . S
C1937 H1930 0.950 . S
C1937 C1934 1.387 . S
C1938 C1939 1.387 . S
C1938 H1942 0.950 . S
C1938 C1947 1.390 . S
C1939 C1938 1.387 . S
C1939 C1941 1.387 . S
H1940 C1947 0.950 . S
C1941 C1939 1.387 . S
C1941 C1943 1.390 . S
C1941 H1945 0.950 . S
H1942 C1938 0.950 . S
C1943 C1941 1.390 . S
C1943 C1944 1.387 . S
C1943 H1946 0.950 . S
C1944 C1943 1.387 . S
C1944 C1947 1.387 . S
H1945 C1941 0.950 . S
H1946 C1943 0.950 . S
C1947 C1938 1.390 . S
C1947 H1940 0.950 . S
C1947 C1944 1.387 . S
C1948 C1949 1.387 . S
C1948 H1952 0.950 . S
C1948 C1957 1.390 . S
C1949 C1948 1.387 . S
C1949 C1951 1.387 . S
H1950 C1957 0.950 . S
C1951 C1949 1.387 . S
C1951 C1953 1.390 . S
C1951 H1955 0.950 . S
H1952 C1948 0.950 . S
C1953 C1951 1.390 . S
C1953 C1954 1.387 . S
C1953 H1956 0.950 . S
C1954 C1953 1.387 . S
C1954 C1957 1.387 . S
H1955 C1951 0.950 . S
H1956 C1953 0.950 . S
C1957 C1948 1.390 . S
C1957 H1950 0.950 . S
C1957 C1954 1.387 . S
C1958 C1959 1.387 . S
C1958 H1962 0.950 . S
C1958 C1967 1.390 . S
C1959 C1958 1.387 . S
C1959 C1961 1.387 . S
H1960 C1967 0.950 . S
C1961 C1959 1.387 . S
C1961 C1963 1.390 . S
C1961 H1965 0.950 . S
H1962 C1958 0.950 . S
C1963 C1961 1.390 . S
C1963 C1964 1.387 . S
C1963 H1966 0.950 . S
C1964 C1963 1.387 . S
C1964 C1967 1.387 . S
H1965 C1961 0.950 . S
H1966 C1963 0.950 . S
C1967 C1958 1.390 . S
C1967 H1960 0.950 . S
C1967 C1964 1.387 . S
C1968 C1969 1.387 . S
C1968 H1972 0.950 . S
C1968 C1977 1.390 . S
C1969 C1968 1.387 . S
C1969 C1971 1.387 . S
H1970 C1977 0.950 . S
C1971 C1969 1.387 . S
C1971 C1973 1.390 . S
C1971 H1975 0.950 . S
H1972 C1968 0.950 . S
C1973 C1971 1.390 . S
C1973 C1974 1.387 . S
C1973 H1976 0.950 . S
C1974 C1973 1.387 . S
C1974 C1977 1.387 . S
H1975 C1971 0.950 . S
H1976 C1973 0.950 . S
C1977 C1968 1.390 . S
C1977 H1970 0.950 . S
C1977 C1974 1.387 . S
C1978 C1979 1.387 . S
C1978 H1982 0.950 . S
C1978 C1987 1.390 . S
C1979 C1978 1.387 . S
C1979 C1981 1.387 . S
H1980 C1987 0.950 . S
C1981 C1979 1.387 . S
C1981 C1983 1.390 . S
C1981 H1985 0.950 . S
H1982 C1978 0.950 . S
C1983 C1981 1.390 . S
C1983 C1984 1.387 . S
C1983 H1986 0.950 . S
C1984 C1983 1.387 . S
C1984 C1987 1.387 . S
H1985 C1981 0.950 . S
H1986 C1983 0.950 . S
C1987 C1978 1.390 . S
C1987 H1980 0.950 . S
C1987 C1984 1.387 . S
C1988 C1989 1.387 . S
C1988 H1992 0.950 . S
C1988 C1997 1.390 . S
C1989 C1988 1.387 . S
C1989 C1991 1.387 . S
H1990 C1997 0.950 . S
C1991 C1989 1.387 . S
C1991 C1993 1.390 . S
C1991 H1995 0.950 . S
H1992 C1988 0.950 . S
C1993 C1991 1.390 . S
C1993 C1994 1.387 . S
C1993 H1996 0.950 . S
C1994 C1993 1.387 . S
C1994 C1997 1.387 . S
H1995 C1991 0.950 . S
H1996 C1993 0.950 . S
C1997 C1988 1.390 . S
C1997 H1990 0.950 . S
C1997 C1994 1.387 . S
C1998 C1999 1.387 . S
C1998 H2002 0.950 . S
C1998 C2007 1.390 . S
C1999 C1998 1.387 . S
C1999 C2001 1.387 . S
H2000 C2007 0.950 . S
C2001 C1999 1.387 . S
C2001 C2003 1.390 . S
C2001 H2005 0.950 . S
H2002 C1998 0.950 . S
C2003 C2001 1.390 . S
C2003 C2004 1.387 . S
C2003 H2006 0.950 . S
C2004 C2003 1.387 . S
C2004 C2007 1.387 . S
H2005 C2001 0.950 . S
H2006 C2003 0.950 . S
C2007 C1998 1.390 . S
C2007 H2000 0.950 . S
C2007 C2004 1.387 . S
C2008 C2009 1.387 . S
C2008 H2012 0.950 . S
C2008 C2017 1.390 . S
C2009 C2008 1.387 . S
C2009 C2011 1.387 . S
H2010 C2017 0.950 . S
C2011 C2009 1.387 . S
C2011 C2013 1.390 . S
C2011 H2015 0.950 . S
H2012 C2008 0.950 . S
C2013 C2011 1.390 . S
C2013 C2014 1.387 . S
C2013 H2016 0.950 . S
C2014 C2013 1.387 . S
C2014 C2017 1.387 . S
H2015 C2011 0.950 . S
H2016 C2013 0.950 . S
C2017 C2008 1.390 . S
C2017 H2010 0.950 . S
C2017 C2014 1.387 . S
C2018 C2019 1.387 . S
C2018 H2022 0.950 . S
C2018 C2027 1.390 . S
C2019 C2018 1.387 . S
C2019 C2021 1.387 . S
H2020 C2027 0.950 . S
C2021 C2019 1.387 . S
C2021 C2023 1.390 . S
C2021 H2025 0.950 . S
H2022 C2018 0.950 . S
C2023 C2021 1.390 . S
C2023 C2024 1.387 . S
C2023 H2026 0.950 . S
C2024 C2023 1.387 . S
C2024 C2027 1.387 . S
H2025 C2021 0.950 . S
H2026 C2023 0.950 . S
C2027 C2018 1.390 . S
C2027 H2020 0.950 . S
C2027 C2024 1.387 . S
C2028 C2029 1.387 . S
C2028 H2032 0.950 . S
C2028 C2037 1.390 . S
C2029 C2028 1.387 . S
C2029 C2031 1.387 . S
H2030 C2037 0.950 . S
C2031 C2029 1.387 . S
C2031 C2033 1.390 . S
C2031 H2035 0.950 . S
H2032 C2028 0.950 . S
C2033 C2031 1.390 . S
C2033 C2034 1.387 . S
C2033 H2036 0.950 . S
C2034 C2033 1.387 . S
C2034 C2037 1.387 . S
H2035 C2031 0.950 . S
H2036 C2033 0.950 . S
C2037 C2028 1.390 . S
C2037 H2030 0.950 . S
C2037 C2034 1.387 . S
C2038 C2039 1.387 . S
C2038 H2042 0.950 . S
C2038 C2047 1.390 . S
C2039 C2038 1.387 . S
C2039 C2041 1.387 . S
H2040 C2047 0.950 . S
C2041 C2039 1.387 . S
C2041 C2043 1.390 . S
C2041 H2045 0.950 . S
H2042 C2038 0.950 . S
C2043 C2041 1.390 . S
C2043 C2044 1.387 . S
C2043 H2046 0.950 . S
C2044 C2043 1.387 . S
C2044 C2047 1.387 . S
H2045 C2041 0.950 . S
H2046 C2043 0.950 . S
C2047 C2038 1.390 . S
C2047 H2040 0.950 . S
C2047 C2044 1.387 . S
C2048 C2049 1.387 . S
C2048 H2052 0.950 . S
C2048 C2057 1.390 . S
C2049 C2048 1.387 . S
C2049 C2051 1.387 . S
H2050 C2057 0.950 . S
C2051 C2049 1.387 . S
C2051 C2053 1.390 . S
C2051 H2055 0.950 . S
H2052 C2048 0.950 . S
C2053 C2051 1.390 . S
C2053 C2054 1.387 . S
C2053 H2056 0.950 . S
C2054 C2053 1.387 . S
C2054 C2057 1.387 . S
H2055 C2051 0.950 . S
H2056 C2053 0.950 . S
C2057 C2048 1.390 . S
C2057 H2050 0.950 . S
C2057 C2054 1.387 . S
C2058 C2059 1.387 . S
C2058 H2062 0.950 . S
C2058 C2067 1.390 . S
C2059 C2058 1.387 . S
C2059 C2061 1.387 . S
H2060 C2067 0.950 . S
C2061 C2059 1.387 . S
C2061 C2063 1.390 . S
C2061 H2065 0.950 . S
H2062 C2058 0.950 . S
C2063 C2061 1.390 . S
C2063 C2064 1.387 . S
C2063 H2066 0.950 . S
C2064 C2063 1.387 . S
C2064 C2067 1.387 . S
H2065 C2061 0.950 . S
H2066 C2063 0.950 . S
C2067 C2058 1.390 . S
C2067 H2060 0.950 . S
C2067 C2064 1.387 . S
C2068 C2069 1.387 . S
C2068 H2072 0.950 . S
C2068 C2077 1.390 . S
C2069 C2068 1.387 . S
C2069 C2071 1.387 . S
H2070 C2077 0.950 . S
C2071 C2069 1.387 . S
C2071 C2073 1.390 . S
C2071 H2075 0.950 . S
H2072 C2068 0.950 . S
C2073 C2071 1.390 . S
C2073 C2074 1.387 . S
C2073 H2076 0.950 . S
C2074 C2073 1.387 . S
C2074 C2077 1.387 . S
H2075 C2071 0.950 . S
H2076 C2073 0.950 . S
C2077 C2068 1.390 . S
C2077 H2070 0.950 . S
C2077 C2074 1.387 . S
C2078 C2079 1.387 . S
C2078 H2082 0.950 . S
C2078 C2087 1.390 . S
C2079 C2078 1.387 . S
C2079 C2081 1.387 . S
H2080 C2087 0.950 . S
C2081 C2079 1.387 . S
C2081 C2083 1.390 . S
C2081 H2085 0.950 . S
H2082 C2078 0.950 . S
C2083 C2081 1.390 . S
C2083 C2084 1.387 . S
C2083 H2086 0.950 . S
C2084 C2083 1.387 . S
C2084 C2087 1.387 . S
H2085 C2081 0.950 . S
H2086 C2083 0.950 . S
C2087 C2078 1.390 . S
C2087 H2080 0.950 . S
C2087 C2084 1.387 . S
C2088 C2089 1.387 . S
C2088 H2092 0.950 . S
C2088 C2097 1.390 . S
C2089 C2088 1.387 . S
C2089 C2091 1.387 . S
H2090 C2097 0.950 . S
C2091 C2089 1.387 . S
C2091 C2093 1.390 . S
C2091 H2095 0.950 . S
H2092 C2088 0.950 . S
C2093 C2091 1.390 . S
C2093 C2094 1.387 . S
C2093 H2096 0.950 . S
C2094 C2093 1.387 . S
C2094 C2097 1.387 . S
H2095 C2091 0.950 . S
H2096 C2093 0.950 . S
C2097 C2088 1.390 . S
C2097 H2090 0.950 . S
C2097 C2094 1.387 . S
C2098 C2099 1.387 . S
C2098 H2102 0.950 . S
C2098 C2107 1.390 . S
C2099 C2098 1.387 . S
C2099 C2101 1.387 . S
H2100 C2107 0.950 . S
C2101 C2099 1.387 . S
C2101 C2103 1.390 . S
C2101 H2105 0.950 . S
H2102 C2098 0.950 . S
C2103 C2101 1.390 . S
C2103 C2104 1.387 . S
C2103 H2106 0.950 . S
C2104 C2103 1.387 . S
C2104 C2107 1.387 . S
H2105 C2101 0.950 . S
H2106 C2103 0.950 . S
C2107 C2098 1.390 . S
C2107 H2100 0.950 . S
C2107 C2104 1.387 . S
C2108 C2109 1.387 . S
C2108 H2112 0.950 . S
C2108 C2117 1.390 . S
C2109 C2108 1.387 . S
C2109 C2111 1.387 . S
H2110 C2117 0.950 . S
C2111 C2109 1.387 . S
C2111 C2113 1.390 . S
C2111 H2115 0.950 . S
H2112 C2108 0.950 . S
C2113 C2111 1.390 . S
C2113 C2114 1.387 . S
C2113 H2116 0.950 . S
C2114 C2113 1.387 . S
C2114 C2117 1.387 . S
H2115 C2111 0.950 . S
H2116 C2113 0.950 . S
C2117 C2108 1.390 . S
C2117 H2110 0.950 . S
C2117 C2114 1.387 . S
C2118 C2119 1.387 . S
C2118 H2122 0.950 . S
C2118 C2127 1.390 . S
C2119 C2118 1.387 . S
C2119 C2121 1.387 . S
H2120 C2127 0.950 . S
C2121 C2119 1.387 . S
C2121 C2123 1.390 . S
C2121 H2125 0.950 . S
H2122 C2118 0.950 . S
C2123 C2121 1.390 . S
C2123 C2124 1.387 . S
C2123 H2126 0.950 . S
C2124 C2123 1.387 . S
C2124 C2127 1.387 . S
H2125 C2121 0.950 . S
H2126 C2123 0.950 . S
C2127 C2118 1.390 . S
C2127 H2120 0.950 . S
C2127 C2124 1.387 . S
C2128 C2129 1.387 . S
C2128 H2132 0.950 . S
C2128 C2137 1.390 . S
C2129 C2128 1.387 . S
C2129 C2131 1.387 . S
H2130 C2137 0.950 . S
C2131 C2129 1.387 . S
C2131 C2133 1.390 . S
C2131 H2135 0.950 . S
H2132 C2128 0.950 . S
C2133 C2131 1.390 . S
C2133 C2134 1.387 . S
C2133 H2136 0.950 . S
C2134 C2133 1.387 . S
C2134 C2137 1.387 . S
H2135 C2131 0.950 . S
H2136 C2133 0.950 . S
C2137 C2128 1.390 . S
C2137 H2130 0.950 . S
C2137 C2134 1.387 . S
C2138 C2139 1.387 . S
C2138 H2142 0.950 . S
C2138 C2147 1.390 . S
C2139 C2138 1.387 . S
C2139 C2141 1.387 . S
H2140 C2147 0.950 . S
C2141 C2139 1.387 . S
C2141 C2143 1.390 . S
C2141 H2145 0.950 . S
H2142 C2138 0.950 . S
C2143 C2141 1.390 . S
C2143 C2144 1.387 . S
C2143 H2146 0.950 . S
C2144 C2143 1.387 . S
C2144 C2147 1.387 . S
H2145 C2141 0.950 . S
H2146 C2143 0.950 . S
C2147 C2138 1.390 . S
C2147 H2140 0.950 . S
C2147 C2144 1.387 . S
C2148 C2149 1.387 . S
C2148 H2152 0.950 . S
C2148 C2157 1.390 . S
C2149 C2148 1.387 . S
C2149 C2151 1.387 . S
H2150 C2157 0.950 . S
C2151 C2149 1.387 . S
C2151 C2153 1.390 . S
C2151 H2155 0.950 . S
H2152 C2148 0.950 . S
C2153 C2151 1.390 . S
C2153 C2154 1.387 . S
C2153 H2156 0.950 . S
C2154 C2153 1.387 . S
C2154 C2157 1.387 . S
H2155 C2151 0.950 . S
H2156 C2153 0.950 . S
C2157 C2148 1.390 . S
C2157 H2150 0.950 . S
C2157 C2154 1.387 . S
C2158 C2159 1.387 . S
C2158 H2162 0.950 . S
C2158 C2167 1.390 . S
C2159 C2158 1.387 . S
C2159 C2161 1.387 . S
H2160 C2167 0.950 . S
C2161 C2159 1.387 . S
C2161 C2163 1.390 . S
C2161 H2165 0.950 . S
H2162 C2158 0.950 . S
C2163 C2161 1.390 . S
C2163 C2164 1.387 . S
C2163 H2166 0.950 . S
C2164 C2163 1.387 . S
C2164 C2167 1.387 . S
H2165 C2161 0.950 . S
H2166 C2163 0.950 . S
C2167 C2158 1.390 . S
C2167 H2160 0.950 . S
C2167 C2164 1.387 . S
C2168 C2169 1.387 . S
C2168 H2172 0.950 . S
C2168 C2177 1.390 . S
C2169 C2168 1.387 . S
C2169 C2171 1.387 . S
H2170 C2177 0.950 . S
C2171 C2169 1.387 . S
C2171 C2173 1.390 . S
C2171 H2175 0.950 . S
H2172 C2168 0.950 . S
C2173 C2171 1.390 . S
C2173 C2174 1.387 . S
C2173 H2176 0.950 . S
C2174 C2173 1.387 . S
C2174 C2177 1.387 . S
H2175 C2171 0.950 . S
H2176 C2173 0.950 . S
C2177 C2168 1.390 . S
C2177 H2170 0.950 . S
C2177 C2174 1.387 . S
C2178 C2179 1.387 . S
C2178 H2182 0.950 . S
C2178 C2187 1.390 . S
C2179 C2178 1.387 . S
C2179 C2181 1.387 . S
H2180 C2187 0.950 . S
C2181 C2179 1.387 . S
C2181 C2183 1.390 . S
C2181 H2185 0.950 . S
H2182 C2178 0.950 . S
C2183 C2181 1.390 . S
C2183 C2184 1.387 . S
C2183 H2186 0.950 . S
C2184 C2183 1.387 . S
C2184 C2187 1.387 . S
H2185 C2181 0.950 . S
H2186 C2183 0.950 . S
C2187 C2178 1.390 . S
C2187 H2180 0.950 . S
C2187 C2184 1.387 . S
C2188 C2189 1.387 . S
C2188 H2192 0.950 . S
C2188 C2197 1.390 . S
C2189 C2188 1.387 . S
C2189 C2191 1.387 . S
H2190 C2197 0.950 . S
C2191 C2189 1.387 . S
C2191 C2193 1.390 . S
C2191 H2195 0.950 . S
H2192 C2188 0.950 . S
C2193 C2191 1.390 . S
C2193 C2194 1.387 . S
C2193 H2196 0.950 . S
C2194 C2193 1.387 . S
C2194 C2197 1.387 . S
H2195 C2191 0.950 . S
H2196 C2193 0.950 . S
C2197 C2188 1.390 . S
C2197 H2190 0.950 . S
C2197 C2194 1.387 . S
C2198 C2199 1.387 . S
C2198 H2202 0.950 . S
C2198 C2207 1.390 . S
C2199 C2198 1.387 . S
C2199 C2201 1.387 . S
H2200 C2207 0.950 . S
C2201 C2199 1.387 . S
C2201 C2203 1.390 . S
C2201 H2205 0.950 . S
H2202 C2198 0.950 . S
C2203 C2201 1.390 . S
C2203 C2204 1.387 . S
C2203 H2206 0.950 . S
C2204 C2203 1.387 . S
C2204 C2207 1.387 . S
H2205 C2201 0.950 . S
H2206 C2203 0.950 . S
C2207 C2198 1.390 . S
C2207 H2200 0.950 . S
C2207 C2204 1.387 . S
C2208 C2209 1.387 . S
C2208 H2212 0.950 . S
C2208 C2217 1.390 . S
C2209 C2208 1.387 . S
C2209 C2211 1.387 . S
H2210 C2217 0.950 . S
C2211 C2209 1.387 . S
C2211 C2213 1.390 . S
C2211 H2215 0.950 . S
H2212 C2208 0.950 . S
C2213 C2211 1.390 . S
C2213 C2214 1.387 . S
C2213 H2216 0.950 . S
C2214 C2213 1.387 . S
C2214 C2217 1.387 . S
H2215 C2211 0.950 . S
H2216 C2213 0.950 . S
C2217 C2208 1.390 . S
C2217 H2210 0.950 . S
C2217 C2214 1.387 . S
C2218 C2219 1.387 . S
C2218 H2222 0.950 . S
C2218 C2227 1.390 . S
C2219 C2218 1.387 . S
C2219 C2221 1.387 . S
H2220 C2227 0.950 . S
C2221 C2219 1.387 . S
C2221 C2223 1.390 . S
C2221 H2225 0.950 . S
H2222 C2218 0.950 . S
C2223 C2221 1.390 . S
C2223 C2224 1.387 . S
C2223 H2226 0.950 . S
C2224 C2223 1.387 . S
C2224 C2227 1.387 . S
H2225 C2221 0.950 . S
H2226 C2223 0.950 . S
C2227 C2218 1.390 . S
C2227 H2220 0.950 . S
C2227 C2224 1.387 . S
C2228 C2229 1.387 . S
C2228 H2232 0.950 . S
C2228 C2237 1.390 . S
C2229 C2228 1.387 . S
C2229 C2231 1.387 . S
H2230 C2237 0.950 . S
C2231 C2229 1.387 . S
C2231 C2233 1.390 . S
C2231 H2235 0.950 . S
H2232 C2228 0.950 . S
C2233 C2231 1.390 . S
C2233 C2234 1.387 . S
C2233 H2236 0.950 . S
C2234 C2233 1.387 . S
C2234 C2237 1.387 . S
H2235 C2231 0.950 . S
H2236 C2233 0.950 . S
C2237 C2228 1.390 . S
C2237 H2230 0.950 . S
C2237 C2234 1.387 . S
C2238 C2239 1.387 . S
C2238 H2242 0.950 . S
C2238 C2247 1.390 . S
C2239 C2238 1.387 . S
C2239 C2241 1.387 . S
H2240 C2247 0.950 . S
C2241 C2239 1.387 . S
C2241 C2243 1.390 . S
C2241 H2245 0.950 . S
H2242 C2238 0.950 . S
C2243 C2241 1.390 . S
C2243 C2244 1.387 . S
C2243 H2246 0.950 . S
C2244 C2243 1.387 . S
C2244 C2247 1.387 . S
H2245 C2241 0.950 . S
H2246 C2243 0.950 . S
C2247 C2238 1.390 . S
C2247 H2240 0.950 . S
C2247 C2244 1.387 . S
C2248 C2249 1.387 . S
C2248 H2252 0.950 . S
C2248 C2257 1.390 . S
C2249 C2248 1.387 . S
C2249 C2251 1.387 . S
H2250 C2257 0.950 . S
C2251 C2249 1.387 . S
C2251 C2253 1.390 . S
C2251 H2255 0.950 . S
H2252 C2248 0.950 . S
C2253 C2251 1.390 . S
C2253 C2254 1.387 . S
C2253 H2256 0.950 . S
C2254 C2253 1.387 . S
C2254 C2257 1.387 . S
H2255 C2251 0.950 . S
H2256 C2253 0.950 . S
C2257 C2248 1.390 . S
C2257 H2250 0.950 . S
C2257 C2254 1.387 . S
C2258 C2259 1.387 . S
C2258 H2262 0.950 . S
C2258 C2267 1.390 . S
C2259 C2258 1.387 . S
C2259 C2261 1.387 . S
H2260 C2267 0.950 . S
C2261 C2259 1.387 . S
C2261 C2263 1.390 . S
C2261 H2265 0.950 . S
H2262 C2258 0.950 . S
C2263 C2261 1.390 . S
C2263 C2264 1.387 . S
C2263 H2266 0.950 . S
C2264 C2263 1.387 . S
C2264 C2267 1.387 . S
H2265 C2261 0.950 . S
H2266 C2263 0.950 . S
C2267 C2258 1.390 . S
C2267 H2260 0.950 . S
C2267 C2264 1.387 . S
C2268 C2269 1.387 . S
C2268 H2272 0.950 . S
C2268 C2277 1.390 . S
C2269 C2268 1.387 . S
C2269 C2271 1.387 . S
H2270 C2277 0.950 . S
C2271 C2269 1.387 . S
C2271 C2273 1.390 . S
C2271 H2275 0.950 . S
H2272 C2268 0.950 . S
C2273 C2271 1.390 . S
C2273 C2274 1.387 . S
C2273 H2276 0.950 . S
C2274 C2273 1.387 . S
C2274 C2277 1.387 . S
H2275 C2271 0.950 . S
H2276 C2273 0.950 . S
C2277 C2268 1.390 . S
C2277 H2270 0.950 . S
C2277 C2274 1.387 . S
C2278 C2279 1.387 . S
C2278 H2282 0.950 . S
C2278 C2287 1.390 . S
C2279 C2278 1.387 . S
C2279 C2281 1.387 . S
H2280 C2287 0.950 . S
C2281 C2279 1.387 . S
C2281 C2283 1.390 . S
C2281 H2285 0.950 . S
H2282 C2278 0.950 . S
C2283 C2281 1.390 . S
C2283 C2284 1.387 . S
C2283 H2286 0.950 . S
C2284 C2283 1.387 . S
C2284 C2287 1.387 . S
H2285 C2281 0.950 . S
H2286 C2283 0.950 . S
C2287 C2278 1.390 . S
C2287 H2280 0.950 . S
C2287 C2284 1.387 . S
C2288 C2289 1.387 . S
C2288 H2292 0.950 . S
C2288 C2297 1.390 . S
C2289 C2288 1.387 . S
C2289 C2291 1.387 . S
H2290 C2297 0.950 . S
C2291 C2289 1.387 . S
C2291 C2293 1.390 . S
C2291 H2295 0.950 . S
H2292 C2288 0.950 . S
C2293 C2291 1.390 . S
C2293 C2294 1.387 . S
C2293 H2296 0.950 . S
C2294 C2293 1.387 . S
C2294 C2297 1.387 . S
H2295 C2291 0.950 . S
H2296 C2293 0.950 . S
C2297 C2288 1.390 . S
C2297 H2290 0.950 . S
C2297 C2294 1.387 . S
C2298 C2299 1.387 . S
C2298 H2302 0.950 . S
C2298 C2307 1.390 . S
C2299 C2298 1.387 . S
C2299 C2301 1.387 . S
H2300 C2307 0.950 . S
C2301 C2299 1.387 . S
C2301 C2303 1.390 . S
C2301 H2305 0.950 . S
H2302 C2298 0.950 . S
C2303 C2301 1.390 . S
C2303 C2304 1.387 . S
C2303 H2306 0.950 . S
C2304 C2303 1.387 . S
C2304 C2307 1.387 . S
H2305 C2301 0.950 . S
H2306 C2303 0.950 . S
C2307 C2298 1.390 . S
C2307 H2300 0.950 . S
C2307 C2304 1.387 . S
C2308 C2309 1.387 . S
C2308 H2312 0.950 . S
C2308 C2317 1.390 . S
C2309 C2308 1.387 . S
C2309 C2311 1.387 . S
H2310 C2317 0.950 . S
C2311 C2309 1.387 . S
C2311 C2313 1.390 . S
C2311 H2315 0.950 . S
H2312 C2308 0.950 . S
C2313 C2311 1.390 . S
C2313 C2314 1.387 . S
C2313 H2316 0.950 . S
C2314 C2313 1.387 . S
C2314 C2317 1.387 . S
H2315 C2311 0.950 . S
H2316 C2313 0.950 . S
C2317 C2308 1.390 . S
C2317 H2310 0.950 . S
C2317 C2314 1.387 . S
C2318 C2319 1.387 . S
C2318 H2322 0.950 . S
C2318 C2327 1.390 . S
C2319 C2318 1.387 . S
C2319 C2321 1.387 . S
H2320 C2327 0.950 . S
C2321 C2319 1.387 . S
C2321 C2323 1.390 . S
C2321 H2325 0.950 . S
H2322 C2318 0.950 . S
C2323 C2321 1.390 . S
C2323 C2324 1.387 . S
C2323 H2326 0.950 . S
C2324 C2323 1.387 . S
C2324 C2327 1.387 . S
H2325 C2321 0.950 . S
H2326 C2323 0.950 . S
C2327 C2318 1.390 . S
C2327 H2320 0.950 . S
C2327 C2324 1.387 . S
C2328 C2329 1.387 . S
C2328 H2332 0.950 . S
C2328 C2337 1.390 . S
C2329 C2328 1.387 . S
C2329 C2331 1.387 . S
H2330 C2337 0.950 . S
C2331 C2329 1.387 . S
C2331 C2333 1.390 . S
C2331 H2335 0.950 . S
H2332 C2328 0.950 . S
C2333 C2331 1.390 . S
C2333 C2334 1.387 . S
C2333 H2336 0.950 . S
C2334 C2333 1.387 . S
C2334 C2337 1.387 . S
H2335 C2331 0.950 . S
H2336 C2333 0.950 . S
C2337 C2328 1.390 . S
C2337 H2330 0.950 . S
C2337 C2334 1.387 . S
C2338 C2339 1.387 . S
C2338 H2342 0.950 . S
C2338 C2347 1.390 . S
C2339 C2338 1.387 . S
C2339 C2341 1.387 . S
H2340 C2347 0.950 . S
C2341 C2339 1.387 . S
C2341 C2343 1.390 . S
C2341 H2345 0.950 . S
H2342 C2338 0.950 . S
C2343 C2341 1.390 . S
C2343 C2344 1.387 . S
C2343 H2346 0.950 . S
C2344 C2343 1.387 . S
C2344 C2347 1.387 . S
H2345 C2341 0.950 . S
H2346 C2343 0.950 . S
C2347 C2338 1.390 . S
C2347 H2340 0.950 . S
C2347 C2344 1.387 . S
C2348 C2349 1.387 . S
C2348 H2352 0.950 . S
C2348 C2357 1.390 . S
C2349 C2348 1.387 . S
C2349 C2351 1.387 . S
H2350 C2357 0.950 . S
C2351 C2349 1.387 . S
C2351 C2353 1.390 . S
C2351 H2355 0.950 . S
H2352 C2348 0.950 . S
C2353 C2351 1.390 . S
C2353 C2354 1.387 . S
C2353 H2356 0.950 . S
C2354 C2353 1.387 . S
C2354 C2357 1.387 . S
H2355 C2351 0.950 . S
H2356 C2353 0.950 . S
C2357 C2348 1.390 . S
C2357 H2350 0.950 . S
C2357 C2354 1.387 . S
C2358 C2359 1.387 . S
C2358 H2362 0.950 . S
C2358 C2367 1.390 . S
C2359 C2358 1.387 . S
C2359 C2361 1.387 . S
H2360 C2367 0.950 . S
C2361 C2359 1.387 . S
C2361 C2363 1.390 . S
C2361 H2365 0.950 . S
H2362 C2358 0.950 . S
C2363 C2361 1.390 . S
C2363 C2364 1.387 . S
C2363 H2366 0.950 . S
C2364 C2363 1.387 . S
C2364 C2367 1.387 . S
H2365 C2361 0.950 . S
H2366 C2363 0.950 . S
C2367 C2358 1.390 . S
C2367 H2360 0.950 . S
C2367 C2364 1.387 . S
C2368 C2369 1.387 . S
C2368 H2372 0.950 . S
C2368 C2377 1.390 . S
C2369 C2368 1.387 . S
C2369 C2371 1.387 . S
H2370 C2377 0.950 . S
C2371 C2369 1.387 . S
C2371 C2373 1.390 . S
C2371 H2375 0.950 . S
H2372 C2368 0.950 . S
C2373 C2371 1.390 . S
C2373 C2374 1.387 . S
C2373 H2376 0.950 . S
C2374 C2373 1.387 . S
C2374 C2377 1.387 . S
H2375 C2371 0.950 . S
H2376 C2373 0.950 . S
C2377 C2368 1.390 . S
C2377 H2370 0.950 . S
C2377 C2374 1.387 . S
C2378 C2379 1.387 . S
C2378 H2382 0.950 . S
C2378 C2387 1.390 . S
C2379 C2378 1.387 . S
C2379 C2381 1.387 . S
H2380 C2387 0.950 . S
C2381 C2379 1.387 . S
C2381 C2383 1.390 . S
C2381 H2385 0.950 . S
H2382 C2378 0.950 . S
C2383 C2381 1.390 . S
C2383 C2384 1.387 . S
C2383 H2386 0.950 . S
C2384 C2383 1.387 . S
C2384 C2387 1.387 . S
H2385 C2381 0.950 . S
H2386 C2383 0.950 . S
C2387 C2378 1.390 . S
C2387 H2380 0.950 . S
C2387 C2384 1.387 . S
C2388 C2389 1.387 . S
C2388 H2392 0.950 . S
C2388 C2397 1.390 . S
C2389 C2388 1.387 . S
C2389 C2391 1.387 . S
H2390 C2397 0.950 . S
C2391 C2389 1.387 . S
C2391 C2393 1.390 . S
C2391 H2395 0.950 . S
H2392 C2388 0.950 . S
C2393 C2391 1.390 . S
C2393 C2394 1.387 . S
C2393 H2396 0.950 . S
C2394 C2393 1.387 . S
C2394 C2397 1.387 . S
H2395 C2391 0.950 . S
H2396 C2393 0.950 . S
C2397 C2388 1.390 . S
C2397 H2390 0.950 . S
C2397 C2394 1.387 . S
C2398 C2399 1.387 . S
C2398 H2402 0.950 . S
C2398 C2407 1.390 . S
C2399 C2398 1.387 . S
C2399 C2401 1.387 . S
H2400 C2407 0.950 . S
C2401 C2399 1.387 . S
C2401 C2403 1.390 . S
C2401 H2405 0.950 . S
H2402 C2398 0.950 . S
C2403 C2401 1.390 . S
C2403 C2404 1.387 . S
C2403 H2406 0.950 . S
C2404 C2403 1.387 . S
C2404 C2407 1.387 . S
H2405 C2401 0.950 . S
H2406 C2403 0.950 . S
C2407 C2398 1.390 . S
C2407 H2400 0.950 . S
C2407 C2404 1.387 . S
C2408 C2409 1.387 . S
C2408 H2412 0.950 . S
C2408 C2417 1.390 . S
C2409 C2408 1.387 . S
C2409 C2411 1.387 . S
H2410 C2417 0.950 . S
C2411 C2409 1.387 . S
C2411 C2413 1.390 . S
C2411 H2415 0.950 . S
H2412 C2408 0.950 . S
C2413 C2411 1.390 . S
C2413 C2414 1.387 . S
C2413 H2416 0.950 . S
C2414 C2413 1.387 . S
C2414 C2417 1.387 . S
H2415 C2411 0.950 . S
H2416 C2413 0.950 . S
C2417 C2408 1.390 . S
C2417 H2410 0.950 . S
C2417 C2414 1.387 . S
C2418 C2419 1.387 . S
C2418 H2422 0.950 . S
C2418 C2427 1.390 . S
C2419 C2418 1.387 . S
C2419 C2421 1.387 . S
H2420 C2427 0.950 . S
C2421 C2419 1.387 . S
C2421 C2423 1.390 . S
C2421 H2425 0.950 . S
H2422 C2418 0.950 . S
C2423 C2421 1.390 . S
C2423 C2424 1.387 . S
C2423 H2426 0.950 . S
C2424 C2423 1.387 . S
C2424 C2427 1.387 . S
H2425 C2421 0.950 . S
H2426 C2423 0.950 . S
C2427 C2418 1.390 . S
C2427 H2420 0.950 . S
C2427 C2424 1.387 . S
C2428 C2429 1.387 . S
C2428 H2432 0.950 . S
C2428 C2437 1.390 . S
C2429 C2428 1.387 . S
C2429 C2431 1.387 . S
H2430 C2437 0.950 . S
C2431 C2429 1.387 . S
C2431 C2433 1.390 . S
C2431 H2435 0.950 . S
H2432 C2428 0.950 . S
C2433 C2431 1.390 . S
C2433 C2434 1.387 . S
C2433 H2436 0.950 . S
C2434 C2433 1.387 . S
C2434 C2437 1.387 . S
H2435 C2431 0.950 . S
H2436 C2433 0.950 . S
C2437 C2428 1.390 . S
C2437 H2430 0.950 . S
C2437 C2434 1.387 . S
C2438 C2439 1.387 . S
C2438 H2442 0.950 . S
C2438 C2447 1.390 . S
C2439 C2438 1.387 . S
C2439 C2441 1.387 . S
H2440 C2447 0.950 . S
C2441 C2439 1.387 . S
C2441 C2443 1.390 . S
C2441 H2445 0.950 . S
H2442 C2438 0.950 . S
C2443 C2441 1.390 . S
C2443 C2444 1.387 . S
C2443 H2446 0.950 . S
C2444 C2443 1.387 . S
C2444 C2447 1.387 . S
H2445 C2441 0.950 . S
H2446 C2443 0.950 . S
C2447 C2438 1.390 . S
C2447 H2440 0.950 . S
C2447 C2444 1.387 . S
C2448 C2449 1.387 . S
C2448 H2452 0.950 . S
C2448 C2457 1.390 . S
C2449 C2448 1.387 . S
C2449 C2451 1.387 . S
H2450 C2457 0.950 . S
C2451 C2449 1.387 . S
C2451 C2453 1.390 . S
C2451 H2455 0.950 . S
H2452 C2448 0.950 . S
C2453 C2451 1.390 . S
C2453 C2454 1.387 . S
C2453 H2456 0.950 . S
C2454 C2453 1.387 . S
C2454 C2457 1.387 . S
H2455 C2451 0.950 . S
H2456 C2453 0.950 . S
C2457 C2448 1.390 . S
C2457 H2450 0.950 . S
C2457 C2454 1.387 . S
C2458 C2459 1.387 . S
C2458 H2462 0.950 . S
C2458 C2467 1.390 . S
C2459 C2458 1.387 . S
C2459 C2461 1.387 . S
H2460 C2467 0.950 . S
C2461 C2459 1.387 . S
C2461 C2463 1.390 . S
C2461 H2465 0.950 . S
H2462 C2458 0.950 . S
C2463 C2461 1.390 . S
C2463 C2464 1.387 . S
C2463 H2466 0.950 . S
C2464 C2463 1.387 . S
C2464 C2467 1.387 . S
H2465 C2461 0.950 . S
H2466 C2463 0.950 . S
C2467 C2458 1.390 . S
C2467 H2460 0.950 . S
C2467 C2464 1.387 . S
C2468 C2469 1.387 . S
C2468 H2472 0.950 . S
C2468 C2477 1.390 . S
C2469 C2468 1.387 . S
C2469 C2471 1.387 . S
H2470 C2477 0.950 . S
C2471 C2469 1.387 . S
C2471 C2473 1.390 . S
C2471 H2475 0.950 . S
H2472 C2468 0.950 . S
C2473 C2471 1.390 . S
C2473 C2474 1.387 . S
C2473 H2476 0.950 . S
C2474 C2473 1.387 . S
C2474 C2477 1.387 . S
H2475 C2471 0.950 . S
H2476 C2473 0.950 . S
C2477 C2468 1.390 . S
C2477 H2470 0.950 . S
C2477 C2474 1.387 . S
C2478 C2479 1.387 . S
C2478 H2482 0.950 . S
C2478 C2487 1.390 . S
C2479 C2478 1.387 . S
C2479 C2481 1.387 . S
H2480 C2487 0.950 . S
C2481 C2479 1.387 . S
C2481 C2483 1.390 . S
C2481 H2485 0.950 . S
H2482 C2478 0.950 . S
C2483 C2481 1.390 . S
C2483 C2484 1.387 . S
C2483 H2486 0.950 . S
C2484 C2483 1.387 . S
C2484 C2487 1.387 . S
H2485 C2481 0.950 . S
H2486 C2483 0.950 . S
C2487 C2478 1.390 . S
C2487 H2480 0.950 . S
C2487 C2484 1.387 . S
C2488 C2489 1.387 . S
C2488 H2492 0.950 . S
C2488 C2497 1.390 . S
C2489 C2488 1.387 . S
C2489 C2491 1.387 . S
H2490 C2497 0.950 . S
C2491 C2489 1.387 . S
C2491 C2493 1.390 . S
C2491 H2495 0.950 . S
H2492 C2488 0.950 . S
C2493 C2491 1.390 . S
C2493 C2494 1.387 . S
C2493 H2496 0.950 . S
C2494 C2493 1.387 . S
C2494 C2497 1.387 . S
H2495 C2491 0.950 . S
H2496 C2493 0.950 . S
C2497 C2488 1.390 . S
C2497 H2490 0.950 . S
C2497 C2494 1.387 . S
C2498 C2499 1.387 . S
C2498 H2502 0.950 . S
C2498 C2507 1.390 . S
C2499 C2498 1.387 . S
C2499 C2501 1.387 . S
H2500 C2507 0.950 . S
C2501 C2499 1.387 . S
C2501 C2503 1.390 . S
C2501 H2505 0.950 . S
H2502 C2498 0.950 . S
C2503 C2501 1.390 . S
C2503 C2504 1.387 . S
C2503 H2506 0.950 . S
C2504 C2503 1.387 . S
C2504 C2507 1.387 . S
H2505 C2501 0.950 . S
H2506 C2503 0.950 . S
C2507 C2498 1.390 . S
C2507 H2500 0.950 . S
C2507 C2504 1.387 . S
C2508 C2509 1.387 . S
C2508 H2512 0.950 . S
C2508 C2517 1.390 . S
C2509 C2508 1.387 . S
C2509 C2511 1.387 . S
H2510 C2517 0.950 . S
C2511 C2509 1.387 . S
C2511 C2513 1.390 . S
C2511 H2515 0.950 . S
H2512 C2508 0.950 . S
C2513 C2511 1.390 . S
C2513 C2514 1.387 . S
C2513 H2516 0.950 . S
C2514 C2513 1.387 . S
C2514 C2517 1.387 . S
H2515 C2511 0.950 . S
H2516 C2513 0.950 . S
C2517 C2508 1.390 . S
C2517 H2510 0.950 . S
C2517 C2514 1.387 . S
C2518 C2519 1.387 . S
C2518 H2522 0.950 . S
C2518 C2527 1.390 . S
C2519 C2518 1.387 . S
C2519 C2521 1.387 . S
H2520 C2527 0.950 . S
C2521 C2519 1.387 . S
C2521 C2523 1.390 . S
C2521 H2525 0.950 . S
H2522 C2518 0.950 . S
C2523 C2521 1.390 . S
C2523 C2524 1.387 . S
C2523 H2526 0.950 . S
C2524 C2523 1.387 . S
C2524 C2527 1.387 . S
H2525 C2521 0.950 . S
H2526 C2523 0.950 . S
C2527 C2518 1.390 . S
C2527 H2520 0.950 . S
C2527 C2524 1.387 . S
C2528 C2529 1.387 . S
C2528 H2532 0.950 . S
C2528 C2537 1.390 . S
C2529 C2528 1.387 . S
C2529 C2531 1.387 . S
H2530 C2537 0.950 . S
C2531 C2529 1.387 . S
C2531 C2533 1.390 . S
C2531 H2535 0.950 . S
H2532 C2528 0.950 . S
C2533 C2531 1.390 . S
C2533 C2534 1.387 . S
C2533 H2536 0.950 . S
C2534 C2533 1.387 . S
C2534 C2537 1.387 . S
H2535 C2531 0.950 . S
H2536 C2533 0.950 . S
C2537 C2528 1.390 . S
C2537 H2530 0.950 . S
C2537 C2534 1.387 . S
C2538 C2539 1.387 . S
C2538 H2542 0.950 . S
C2538 C2547 1.390 . S
C2539 C2538 1.387 . S
C2539 C2541 1.387 . S
H2540 C2547 0.950 . S
C2541 C2539 1.387 . S
C2541 C2543 1.390 . S
C2541 H2545 0.950 . S
H2542 C2538 0.950 . S
C2543 C2541 1.390 . S
C2543 C2544 1.387 . S
C2543 H2546 0.950 . S
C2544 C2543 1.387 . S
C2544 C2547 1.387 . S
H2545 C2541 0.950 . S
H2546 C2543 0.950 . S
C2547 C2538 1.390 . S
C2547 H2540 0.950 . S
C2547 C2544 1.387 . S
C2548 C2549 1.387 . S
C2548 H2552 0.950 . S
C2548 C2557 1.390 . S
C2549 C2548 1.387 . S
C2549 C2551 1.387 . S
H2550 C2557 0.950 . S
C2551 C2549 1.387 . S
C2551 C2553 1.390 . S
C2551 H2555 0.950 . S
H2552 C2548 0.950 . S
C2553 C2551 1.390 . S
C2553 C2554 1.387 . S
C2553 H2556 0.950 . S
C2554 C2553 1.387 . S
C2554 C2557 1.387 . S
H2555 C2551 0.950 . S
H2556 C2553 0.950 . S
C2557 C2548 1.390 . S
C2557 H2550 0.950 . S
C2557 C2554 1.387 . S
C2558 C2559 1.387 . S
C2558 H2562 0.950 . S
C2558 C2567 1.390 . S
C2559 C2558 1.387 . S
C2559 C2561 1.387 . S
H2560 C2567 0.950 . S
C2561 C2559 1.387 . S
C2561 C2563 1.390 . S
C2561 H2565 0.950 . S
H2562 C2558 0.950 . S
C2563 C2561 1.390 . S
C2563 C2564 1.387 . S
C2563 H2566 0.950 . S
C2564 C2563 1.387 . S
C2564 C2567 1.387 . S
H2565 C2561 0.950 . S
H2566 C2563 0.950 . S
C2567 C2558 1.390 . S
C2567 H2560 0.950 . S
C2567 C2564 1.387 . S
C2568 C2569 1.387 . S
C2568 H2572 0.950 . S
C2568 C2577 1.390 . S
C2569 C2568 1.387 . S
C2569 C2571 1.387 . S
H2570 C2577 0.950 . S
C2571 C2569 1.387 . S
C2571 C2573 1.390 . S
C2571 H2575 0.950 . S
H2572 C2568 0.950 . S
C2573 C2571 1.390 . S
C2573 C2574 1.387 . S
C2573 H2576 0.950 . S
C2574 C2573 1.387 . S
C2574 C2577 1.387 . S
H2575 C2571 0.950 . S
H2576 C2573 0.950 . S
C2577 C2568 1.390 . S
C2577 H2570 0.950 . S
C2577 C2574 1.387 . S
C2578 C2579 1.387 . S
C2578 H2582 0.950 . S
C2578 C2587 1.390 . S
C2579 C2578 1.387 . S
C2579 C2581 1.387 . S
H2580 C2587 0.950 . S
C2581 C2579 1.387 . S
C2581 C2583 1.390 . S
C2581 H2585 0.950 . S
H2582 C2578 0.950 . S
C2583 C2581 1.390 . S
C2583 C2584 1.387 . S
C2583 H2586 0.950 . S
C2584 C2583 1.387 . S
C2584 C2587 1.387 . S
H2585 C2581 0.950 . S
H2586 C2583 0.950 . S
C2587 C2578 1.390 . S
C2587 H2580 0.950 . S
C2587 C2584 1.387 . S
C2588 C2589 1.387 . S
C2588 H2592 0.950 . S
C2588 C2597 1.390 . S
C2589 C2588 1.387 . S
C2589 C2591 1.387 . S
H2590 C2597 0.950 . S
C2591 C2589 1.387 . S
C2591 C2593 1.390 . S
C2591 H2595 0.950 . S
H2592 C2588 0.950 . S
C2593 C2591 1.390 . S
C2593 C2594 1.387 . S
C2593 H2596 0.950 . S
C2594 C2593 1.387 . S
C2594 C2597 1.387 . S
H2595 C2591 0.950 . S
H2596 C2593 0.950 . S
C2597 C2588 1.390 . S
C2597 H2590 0.950 . S
C2597 C2594 1.387 . S
C2598 C2599 1.387 . S
C2598 H2602 0.950 . S
C2598 C2607 1.390 . S
C2599 C2598 1.387 . S
C2599 C2601 1.387 . S
H2600 C2607 0.950 . S
C2601 C2599 1.387 . S
C2601 C2603 1.390 . S
C2601 H2605 0.950 . S
H2602 C2598 0.950 . S
C2603 C2601 1.390 . S
C2603 C2604 1.387 . S
C2603 H2606 0.950 . S
C2604 C2603 1.387 . S
C2604 C2607 1.387 . S
H2605 C2601 0.950 . S
H2606 C2603 0.950 . S
C2607 C2598 1.390 . S
C2607 H2600 0.950 . S
C2607 C2604 1.387 . S
C2608 C2609 1.387 . S
C2608 H2612 0.950 . S
C2608 C2617 1.390 . S
C2609 C2608 1.387 . S
C2609 C2611 1.387 . S
H2610 C2617 0.950 . S
C2611 C2609 1.387 . S
C2611 C2613 1.390 . S
C2611 H2615 0.950 . S
H2612 C2608 0.950 . S
C2613 C2611 1.390 . S
C2613 C2614 1.387 . S
C2613 H2616 0.950 . S
C2614 C2613 1.387 . S
C2614 C2617 1.387 . S
H2615 C2611 0.950 . S
H2616 C2613 0.950 . S
C2617 C2608 1.390 . S
C2617 H2610 0.950 . S
C2617 C2614 1.387 . S
C2618 C2619 1.387 . S
C2618 H2622 0.950 . S
C2618 C2627 1.390 . S
C2619 C2618 1.387 . S
C2619 C2621 1.387 . S
H2620 C2627 0.950 . S
C2621 C2619 1.387 . S
C2621 C2623 1.390 . S
C2621 H2625 0.950 . S
H2622 C2618 0.950 . S
C2623 C2621 1.390 . S
C2623 C2624 1.387 . S
C2623 H2626 0.950 . S
C2624 C2623 1.387 . S
C2624 C2627 1.387 . S
H2625 C2621 0.950 . S
H2626 C2623 0.950 . S
C2627 C2618 1.390 . S
C2627 H2620 0.950 . S
C2627 C2624 1.387 . S
C2628 C2629 1.387 . S
C2628 H2632 0.950 . S
C2628 C2637 1.390 . S
C2629 C2628 1.387 . S
C2629 C2631 1.387 . S
H2630 C2637 0.950 . S
C2631 C2629 1.387 . S
C2631 C2633 1.390 . S
C2631 H2635 0.950 . S
H2632 C2628 0.950 . S
C2633 C2631 1.390 . S
C2633 C2634 1.387 . S
C2633 H2636 0.950 . S
C2634 C2633 1.387 . S
C2634 C2637 1.387 . S
H2635 C2631 0.950 . S
H2636 C2633 0.950 . S
C2637 C2628 1.390 . S
C2637 H2630 0.950 . S
C2637 C2634 1.387 . S
C2638 C2639 1.387 . S
C2638 H2642 0.950 . S
C2638 C2647 1.390 . S
C2639 C2638 1.387 . S
C2639 C2641 1.387 . S
H2640 C2647 0.950 . S
C2641 C2639 1.387 . S
C2641 C2643 1.390 . S
C2641 H2645 0.950 . S
H2642 C2638 0.950 . S
C2643 C2641 1.390 . S
C2643 C2644 1.387 . S
C2643 H2646 0.950 . S
C2644 C2643 1.387 . S
C2644 C2647 1.387 . S
H2645 C2641 0.950 . S
H2646 C2643 0.950 . S
C2647 C2638 1.390 . S
C2647 H2640 0.950 . S
C2647 C2644 1.387 . S
C2648 C2649 1.387 . S
C2648 H2652 0.950 . S
C2648 C2657 1.390 . S
C2649 C2648 1.387 . S
C2649 C2651 1.387 . S
H2650 C2657 0.950 . S
C2651 C2649 1.387 . S
C2651 C2653 1.390 . S
C2651 H2655 0.950 . S
H2652 C2648 0.950 . S
C2653 C2651 1.390 . S
C2653 C2654 1.387 . S
C2653 H2656 0.950 . S
C2654 C2653 1.387 . S
C2654 C2657 1.387 . S
H2655 C2651 0.950 . S
H2656 C2653 0.950 . S
C2657 C2648 1.390 . S
C2657 H2650 0.950 . S
C2657 C2654 1.387 . S
C2658 C2659 1.387 . S
C2658 H2662 0.950 . S
C2658 C2667 1.390 . S
C2659 C2658 1.387 . S
C2659 C2661 1.387 . S
H2660 C2667 0.950 . S
C2661 C2659 1.387 . S
C2661 C2663 1.390 . S
C2661 H2665 0.950 . S
H2662 C2658 0.950 . S
C2663 C2661 1.390 . S
C2663 C2664 1.387 . S
C2663 H2666 0.950 . S
C2664 C2663 1.387 . S
C2664 C2667 1.387 . S
H2665 C2661 0.950 . S
H2666 C2663 0.950 . S
C2667 C2658 1.390 . S
C2667 H2660 0.950 . S
C2667 C2664 1.387 . S
C2668 C2669 1.387 . S
C2668 H2672 0.950 . S
C2668 C2677 1.390 . S
C2669 C2668 1.387 . S
C2669 C2671 1.387 . S
H2670 C2677 0.950 . S
C2671 C2669 1.387 . S
C2671 C2673 1.390 . S
C2671 H2675 0.950 . S
H2672 C2668 0.950 . S
C2673 C2671 1.390 . S
C2673 C2674 1.387 . S
C2673 H2676 0.950 . S
C2674 C2673 1.387 . S
C2674 C2677 1.387 . S
H2675 C2671 0.950 . S
H2676 C2673 0.950 . S
C2677 C2668 1.390 . S
C2677 H2670 0.950 . S
C2677 C2674 1.387 . S
C2678 C2679 1.387 . S
C2678 H2682 0.950 . S
C2678 C2687 1.390 . S
C2679 C2678 1.387 . S
C2679 C2681 1.387 . S
H2680 C2687 0.950 . S
C2681 C2679 1.387 . S
C2681 C2683 1.390 . S
C2681 H2685 0.950 . S
H2682 C2678 0.950 . S
C2683 C2681 1.390 . S
C2683 C2684 1.387 . S
C2683 H2686 0.950 . S
C2684 C2683 1.387 . S
C2684 C2687 1.387 . S
H2685 C2681 0.950 . S
H2686 C2683 0.950 . S
C2687 C2678 1.390 . S
C2687 H2680 0.950 . S
C2687 C2684 1.387 . S
C1729 C327 1.783 . S
C1734 C3 1.783 . S
C1739 C363 1.783 . S
C1744 C39 1.782 . S
C1749 C399 1.784 . S
C1754 C75 1.784 . S
C1759 C111 1.781 . S
C1764 C291 1.781 . S
C1769 C543 1.785 . S
C1774 C147 1.785 . S
C1779 C183 1.784 . S
C1784 C435 1.785 . S
C1789 C471 1.784 . S
C1794 C219 1.784 . S
C1799 C507 1.782 . S
C1804 C255 1.782 . S
C1809 C579 1.781 . S
C1814 C651 1.781 . S
C1819 C615 1.783 . S
C1824 C795 1.784 . S
C1829 C687 1.782 . S
C1834 C831 1.783 . S
C1839 C723 1.784 . S
C1844 C759 1.784 . S
C1849 C867 1.785 . S
C1854 C1191 1.785 . S
C1859 C1227 1.785 . S
C1864 C903 1.785 . S
C1869 C939 1.784 . S
C1874 C1263 1.784 . S
C1879 C975 1.784 . S
C1884 C1155 1.784 . S
C1889 C1407 1.785 . S
C1894 C1011 1.785 . S
C1899 C1299 1.783 . S
C1904 C1047 1.784 . S
C1909 C1335 1.784 . S
C1914 C1083 1.784 . S
C1919 C1371 1.783 . S
C1924 C1119 1.783 . S
C1929 C1443 1.784 . S
C1934 C1515 1.783 . S
C1939 C1479 1.782 . S
C1944 C1659 1.782 . S
C1949 C1551 1.784 . S
C1954 C1695 1.784 . S
C1959 C1623 1.782 . S
C1964 C1587 1.782 . S
C1969 C292 1.255 . S
C1974 C2 1.472 . S
C1979 C328 1.259 . S
C1984 C38 1.473 . S
C1989 C74 1.472 . S
C1994 C364 1.261 . S
C1999 C110 1.472 . S
C2004 C400 1.258 . S
C2009 C146 1.473 . S
C2014 C436 1.259 . S
C2019 C182 1.472 . S
C2024 C472 1.255 . S
C2029 C218 1.472 . S
C2034 C508 1.259 . S
C2039 C544 1.259 . S
C2044 C254 1.473 . S
C2049 C290 1.472 . S
C2054 C580 1.258 . S
C2059 C832 1.257 . S
C2064 C326 1.472 . S
C2069 C362 1.472 . S
C2074 C760 1.258 . S
C2079 C398 1.473 . S
C2084 C796 1.259 . S
C2089 C434 1.472 . S
C2094 C616 1.259 . S
C2099 C470 1.472 . S
C2104 C652 1.260 . S
C2109 C506 1.472 . S
C2114 C688 1.260 . S
C2119 C724 1.257 . S
C2124 C542 1.472 . S
C2129 C4 1.259 . S
C2134 C578 1.473 . S
C2139 C614 1.472 . S
C2144 C148 1.258 . S
C2149 C650 1.472 . S
C2154 C184 1.259 . S
C2159 C686 1.472 . S
C2164 C220 1.258 . S
C2169 C256 1.258 . S
C2174 C722 1.472 . S
C2179 C758 1.472 . S
C2184 C76 1.258 . S
C2189 C794 1.472 . S
C2194 C112 1.258 . S
C2199 C40 1.257 . S
C2204 C830 1.472 . S
C2209 C1156 1.255 . S
C2214 C866 1.472 . S
C2219 C902 1.473 . S
C2224 C1192 1.258 . S
C2229 C938 1.472 . S
C2234 C1228 1.256 . S
C2239 C1264 1.261 . S
C2244 C974 1.473 . S
C2249 C1300 1.259 . S
C2254 C1010 1.473 . S
C2259 C1046 1.473 . S
C2264 C1336 1.259 . S
C2269 C1372 1.261 . S
C2274 C1082 1.473 . S
C2279 C1408 1.259 . S
C2284 C1118 1.473 . S
C2289 C1154 1.472 . S
C2294 C1444 1.256 . S
C2299 C1190 1.472 . S
C2304 C1696 1.259 . S
C2309 C1226 1.472 . S
C2314 C1624 1.256 . S
C2319 C1660 1.256 . S
C2324 C1262 1.472 . S
C2329 C1298 1.472 . S
C2334 C1480 1.256 . S
C2339 C1334 1.472 . S
C2344 C1516 1.257 . S
C2349 C1552 1.257 . S
C2354 C1370 1.472 . S
C2359 C1588 1.260 . S
C2364 C1406 1.473 . S
C2369 C1442 1.472 . S
C2374 C868 1.258 . S
C2379 C1478 1.472 . S
C2384 C1012 1.258 . S
C2389 C1048 1.260 . S
C2394 C1514 1.472 . S
C2399 C1550 1.472 . S
C2404 C1084 1.257 . S
C2409 C1586 1.472 . S
C2414 C1120 1.258 . S
C2419 C940 1.258 . S
C2424 C1622 1.472 . S
C2429 C1658 1.473 . S
C2434 C976 1.261 . S
C2439 C904 1.259 . S
C2444 C1694 1.472 . S
C2449 C1130 1.447 . S
C2454 C14 1.451 . S
C2459 C50 1.448 . S
C2464 C1022 1.451 . S
C2469 C1058 1.451 . S
C2474 C86 1.447 . S
C2479 C1094 1.449 . S
C2484 C122 1.450 . S
C2489 C158 1.449 . S
C2494 C914 1.449 . S
C2499 C950 1.447 . S
C2504 C194 1.452 . S
C2509 C986 1.448 . S
C2514 C230 1.450 . S
C2519 C266 1.447 . S
C2524 C878 1.452 . S
C2529 C1598 1.450 . S
C2534 C302 1.449 . S
C2539 C338 1.451 . S
C2544 C1490 1.447 . S
C2549 C374 1.450 . S
C2554 C1526 1.448 . S
C2559 C1562 1.449 . S
C2564 C410 1.448 . S
C2569 C1706 1.449 . S
C2574 C446 1.449 . S
C2579 C1634 1.451 . S
C2584 C482 1.447 . S
C2589 C518 1.447 . S
C2594 C1670 1.451 . S
C2599 C1454 1.451 . S
C2604 C554 1.447 . S
C2609 C590 1.447 . S
C2614 C1418 1.452 . S
C2619 C1202 1.447 . S
C2624 C626 1.451 . S
C2629 C662 1.450 . S
C2634 C1238 1.448 . S
C2639 C1274 1.447 . S
C2644 C698 1.451 . S
C2649 C1166 1.449 . S
C2654 C734 1.449 . S
C2659 C770 1.447 . S
C2664 C1346 1.451 . S
C2669 C1382 1.449 . S
C2674 C806 1.449 . S
C2679 C1310 1.450 . S
C2684 C842 1.449 . S
