# Generated by pormake.
# Topology qtz, (4)-cn, num edge types: 1
# Building blocks:
#     Node 0, Type 0, BuildingBlock: CEKHIL_clean_sbu_0, # of connection points: 4
#     Node 1, Type 0, BuildingBlock: CEKHIL_clean_sbu_0, # of connection points: 4
#     Node 2, Type 0, BuildingBlock: CEKHIL_clean_sbu_0, # of connection points: 4
#     Edge 3, Type (0, 0), BuildingBlock: MIFKUJ_clean_linker_0, # of connection points: 2
#     Edge 4, Type (0, 0), BuildingBlock: MIFKUJ_clean_linker_0, # of connection points: 2
#     Edge 5, Type (0, 0), BuildingBlock: MIFKUJ_clean_linker_0, # of connection points: 2
#     Edge 6, Type (0, 0), BuildingBlock: MIFKUJ_clean_linker_0, # of connection points: 2
#     Edge 7, Type (0, 0), BuildingBlock: MIFKUJ_clean_linker_0, # of connection points: 2
#     Edge 8, Type (0, 0), BuildingBlock: MIFKUJ_clean_linker_0, # of connection points: 2
# Relax obj value: 0.004
# Max RMSD: 0.040
# Mean RMSD: 0.038
data_MOF--net-qtz--node1-CEKHIL_clean_sbu_0--edge1-MIFKUJ_clean_linker_0
_symmetry_space_group_name_H-M    P1
_symmetry_Int_Tables_number       1
_symmetry_cell_setting            triclinic
loop_
_symmetry_equiv_pos_as_xyz
'x, y, z'
_cell_length_a     29.916525
_cell_length_b     30.092061
_cell_length_c     37.143257
_cell_angle_alpha  91.595797
_cell_angle_beta   89.864718
_cell_angle_gamma 120.53484
loop_
_atom_site_label
_atom_site_type_symbol
_atom_site_fract_x
_atom_site_fract_y
_atom_site_fract_z
_atom_type_partial_charge
Co0 Co 0.00601 0.51691 0.15583 0.0
O1 O 0.05895 0.54809 0.11994 0.0
O2 O 0.04417 0.48072 0.15165 0.0
C3 C 0.94198 0.51415 0.12152 0.0
O4 O 0.9541 0.47297 0.19421 0.0
Co5 Co 0.9526 0.57406 0.18728 0.0
O6 O 0.9068 0.50843 0.21149 0.0
C7 C 0.0601 0.6073 0.20944 0.0
C8 C 0.07056 0.51314 0.1268 0.0
C9 C 0.91711 0.47227 0.21257 0.0
O10 O 0.0561 0.56648 0.19406 0.0
O11 O 0.02504 0.61953 0.20675 0.0
O12 O 0.9535 0.47804 0.11835 0.0
O13 O 0.97147 0.55216 0.14329 0.0
Co14 Co 0.52105 0.02346 0.5172 0.0
O15 O 0.48649 0.97314 0.55344 0.0
O16 O 0.5515 0.9798 0.52097 0.0
C17 C 0.52985 0.09012 0.55199 0.0
O18 O 0.56822 0.07333 0.47878 0.0
Co19 Co 0.47084 0.08344 0.48771 0.0
O20 O 0.54133 0.12966 0.46947 0.0
C21 C 0.43247 0.97608 0.46165 0.0
C22 C 0.51903 0.95765 0.54703 0.0
C23 C 0.57439 0.11522 0.46533 0.0
O24 O 0.46915 0.97515 0.47916 0.0
O25 O 0.42487 0.0143 0.46368 0.0
O26 O 0.5629 0.07458 0.55478 0.0
O27 O 0.49064 0.06281 0.53071 0.0
Co28 Co 0.51046 0.52798 0.82301 0.0
O29 O 0.48035 0.54777 0.7857 0.0
O30 O 0.544 0.60303 0.82216 0.0
C31 C 0.51904 0.47054 0.7876 0.0
O32 O 0.55296 0.52035 0.86309 0.0
Co33 Co 0.4515 0.41454 0.84757 0.0
O34 O 0.51902 0.43531 0.87108 0.0
C35 C 0.41662 0.48572 0.87234 0.0
C36 C 0.51387 0.59524 0.79452 0.0
C37 C 0.55439 0.4822 0.87703 0.0
O38 O 0.45745 0.52394 0.85896 0.0
O39 O 0.40482 0.43864 0.86773 0.0
O40 O 0.55354 0.51934 0.78722 0.0
O41 O 0.4787 0.45872 0.80686 0.0
H42 H 0.31222 0.4254 0.88047 0.0
H43 H 0.25759 0.4372 0.92431 0.0
H44 H 0.39035 0.57912 0.96353 0.0
H45 H 0.44519 0.56835 0.91881 0.0
H46 H 0.32566 0.49874 0.01804 0.0
H47 H 0.31519 0.5988 0.92458 0.0
H48 H 0.30226 0.61761 0.86257 0.0
H49 H 0.1457 0.48963 0.86194 0.0
H50 H 0.15797 0.4695 0.92381 0.0
H51 H 0.17486 0.57905 0.12661 0.0
H52 H 0.23762 0.57712 0.08452 0.0
H53 H 0.11452 0.43788 0.03367 0.0
H54 H 0.05224 0.43877 0.07659 0.0
H55 H 0.179 0.5235 0.98585 0.0
H56 H 0.19065 0.42121 0.07792 0.0
H57 H 0.20343 0.40107 0.13957 0.0
H58 H 0.35786 0.53278 0.14266 0.0
H59 H 0.34567 0.55422 0.08116 0.0
C60 C 0.32966 0.45952 0.89807 0.0
C61 C 0.38293 0.49604 0.89616 0.0
C62 C 0.29843 0.46617 0.9231 0.0
C63 C 0.32002 0.5089 0.94719 0.0
C64 C 0.37306 0.54586 0.94514 0.0
C65 C 0.40417 0.53986 0.91945 0.0
C66 C 0.28702 0.51347 0.97518 0.0
C67 C 0.29422 0.50519 0.01117 0.0
C68 C 0.24529 0.52058 0.96597 0.0
C69 C 0.23771 0.53228 0.9287 0.0
C70 C 0.27819 0.57429 0.91109 0.0
C71 C 0.27094 0.58529 0.87599 0.0
C72 C 0.22324 0.55474 0.85829 0.0
C73 C 0.18266 0.5132 0.87568 0.0
C74 C 0.18973 0.502 0.91077 0.0
C75 C 0.16168 0.54749 0.10693 0.0
C76 C 0.1092 0.5086 0.10499 0.0
C77 C 0.19734 0.54651 0.08289 0.0
C78 C 0.18061 0.50739 0.05599 0.0
C79 C 0.12814 0.46831 0.05427 0.0
C80 C 0.09279 0.4686 0.07888 0.0
C81 C 0.21742 0.50845 0.0287 0.0
C82 C 0.21079 0.51762 0.99281 0.0
C83 C 0.25965 0.50216 0.03803 0.0
C84 C 0.26697 0.48977 0.07513 0.0
C85 C 0.2271 0.44629 0.09191 0.0
C86 C 0.23429 0.43453 0.12678 0.0
C87 C 0.28136 0.46574 0.14508 0.0
C88 C 0.32137 0.50872 0.12849 0.0
C89 C 0.31435 0.52069 0.09362 0.0
H90 H 0.28688 0.45654 0.17206 0.0
H91 H 0.21768 0.56334 0.83113 0.0
H92 H 0.91905 0.38217 0.22042 0.0
H93 H 0.87126 0.31464 0.26423 0.0
H94 H 0.79983 0.39873 0.30553 0.0
H95 H 0.84668 0.46567 0.26222 0.0
H96 H 0.84034 0.36737 0.35947 0.0
H97 H 0.73316 0.29468 0.25101 0.0
H98 H 0.71689 0.26259 0.18781 0.0
H99 H 0.75837 0.14959 0.21292 0.0
H100 H 0.77555 0.18153 0.27622 0.0
H101 H 0.61145 0.21517 0.4487 0.0
H102 H 0.68042 0.26786 0.40776 0.0
H103 H 0.7109 0.14365 0.38907 0.0
H104 H 0.64041 0.08956 0.43029 0.0
H105 H 0.70647 0.18706 0.32573 0.0
H106 H 0.79833 0.24929 0.43645 0.0
H107 H 0.81378 0.28039 0.49984 0.0
H108 H 0.80366 0.41233 0.47133 0.0
H109 H 0.78736 0.38167 0.40783 0.0
C110 C 0.89295 0.38612 0.23871 0.0
C111 C 0.88683 0.42953 0.23765 0.0
C112 C 0.86565 0.34746 0.26371 0.0
C113 C 0.83203 0.35169 0.28824 0.0
C114 C 0.82573 0.39473 0.28703 0.0
C115 C 0.85248 0.43295 0.26201 0.0
C116 C 0.80336 0.31208 0.31564 0.0
C117 C 0.81106 0.32793 0.35211 0.0
C118 C 0.76664 0.26005 0.3062 0.0
C119 C 0.75631 0.24093 0.2682 0.0
C120 C 0.73929 0.26332 0.24297 0.0
C121 C 0.7298 0.24509 0.20715 0.0
C122 C 0.73678 0.2042 0.19632 0.0
C123 C 0.75311 0.18135 0.22132 0.0
C124 C 0.76271 0.19948 0.25717 0.0
C125 C 0.63286 0.19883 0.43619 0.0
C126 C 0.62015 0.14791 0.4428 0.0
C127 C 0.67268 0.22931 0.41286 0.0
C128 C 0.70136 0.21006 0.39555 0.0
C129 C 0.68942 0.15942 0.40226 0.0
C130 C 0.64938 0.12868 0.42596 0.0
C131 C 0.74199 0.24301 0.36948 0.0
C132 C 0.73667 0.22605 0.33328 0.0
C133 C 0.78124 0.29407 0.37916 0.0
C134 C 0.79142 0.31302 0.41733 0.0
C135 C 0.79908 0.28479 0.44371 0.0
C136 C 0.80803 0.30236 0.47967 0.0
C137 C 0.80965 0.34829 0.48961 0.0
C138 C 0.80243 0.37678 0.46358 0.0
C139 C 0.79343 0.35936 0.42758 0.0
H140 H 0.81656 0.36182 0.51747 0.0
H141 H 0.72939 0.19013 0.16858 0.0
H142 H 0.56082 0.89554 0.53387 0.0
H143 H 0.56492 0.83554 0.57584 0.0
H144 H 0.48988 0.87898 0.65702 0.0
H145 H 0.48398 0.93707 0.61528 0.0
H146 H 0.59151 0.87743 0.67652 0.0
H147 H 0.41452 0.77884 0.6263 0.0
H148 H 0.35233 0.74168 0.57531 0.0
H149 H 0.42545 0.65794 0.53805 0.0
H150 H 0.48858 0.69529 0.58859 0.0
H151 H 0.52735 0.6909 0.81247 0.0
H152 H 0.5323 0.75501 0.77051 0.0
H153 H 0.52561 0.65732 0.68068 0.0
H154 H 0.51656 0.59232 0.72234 0.0
H155 H 0.46837 0.68898 0.66373 0.0
H156 H 0.64153 0.77864 0.71245 0.0
H157 H 0.70986 0.81676 0.75959 0.0
H158 H 0.65527 0.91772 0.79501 0.0
H159 H 0.5862 0.87976 0.74833 0.0
C160 C 0.54506 0.89202 0.56061 0.0
C161 C 0.52169 0.92064 0.57116 0.0
C162 C 0.54755 0.85797 0.58453 0.0
C163 C 0.5279 0.85317 0.61954 0.0
C164 C 0.50542 0.88233 0.6302 0.0
C165 C 0.50176 0.9152 0.60616 0.0
C166 C 0.52911 0.81668 0.64499 0.0
C167 C 0.56458 0.83616 0.67398 0.0
C168 C 0.49474 0.76299 0.64108 0.0
C169 C 0.45662 0.74035 0.61091 0.0
C170 C 0.41766 0.75294 0.60701 0.0
C171 C 0.38216 0.73174 0.57825 0.0
C172 C 0.38505 0.69761 0.55338 0.0
C173 C 0.42333 0.68447 0.55729 0.0
C174 C 0.45895 0.70562 0.58599 0.0
C175 C 0.52719 0.68358 0.78375 0.0
C176 C 0.5213 0.63674 0.77055 0.0
C177 C 0.53041 0.72031 0.75969 0.0
C178 C 0.5299 0.71161 0.72209 0.0
C179 C 0.52558 0.66518 0.70931 0.0
C180 C 0.52063 0.62803 0.73318 0.0
C181 C 0.53149 0.74916 0.69575 0.0
C182 C 0.49609 0.73003 0.66648 0.0
C183 C 0.56695 0.80311 0.69903 0.0
C184 C 0.60838 0.82599 0.72713 0.0
C185 C 0.64388 0.80871 0.73046 0.0
C186 C 0.68277 0.83033 0.75707 0.0
C187 C 0.68681 0.86953 0.78034 0.0
C188 C 0.65204 0.8873 0.777 0.0
C189 C 0.61305 0.86578 0.75045 0.0
H190 H 0.71696 0.88622 0.80093 0.0
H191 H 0.35753 0.68123 0.53113 0.0
H192 H 0.57193 0.41062 0.90694 0.0
H193 H 0.63876 0.42426 0.95012 0.0
H194 H 0.70226 0.58877 0.9479 0.0
H195 H 0.63487 0.57551 0.90393 0.0
H196 H 0.77876 0.56267 0.94737 0.0
H197 H 0.63255 0.52598 0.01837 0.0
H198 H 0.54087 0.47951 0.03646 0.0
H199 H 0.54874 0.34302 0.05319 0.0
H200 H 0.6403 0.38844 0.03466 0.0
H201 H 0.92929 0.59576 0.10785 0.0
H202 H 0.86493 0.59686 0.06769 0.0
H203 H 0.79728 0.43367 0.04529 0.0
H204 H 0.86231 0.4325 0.08474 0.0
H205 H 0.72408 0.46877 0.06176 0.0
H206 H 0.86935 0.50597 0.9853 0.0
H207 H 0.96131 0.5543 0.96793 0.0
H208 H 0.95513 0.69352 0.96346 0.0
H209 H 0.86324 0.64609 0.98137 0.0
C210 C 0.59992 0.44988 0.91544 0.0
C211 C 0.59746 0.49198 0.90208 0.0
C212 C 0.63818 0.45756 0.94033 0.0
C213 C 0.67497 0.50744 0.95281 0.0
C214 C 0.67398 0.54987 0.93881 0.0
C215 C 0.63541 0.54221 0.91372 0.0
C216 C 0.71381 0.51426 0.98066 0.0
C217 C 0.76684 0.54302 0.97269 0.0
C218 C 0.69831 0.4881 0.01358 0.0
C219 C 0.64324 0.46054 0.02485 0.0
C220 C 0.61464 0.48593 0.02563 0.0
C221 C 0.5627 0.45979 0.03601 0.0
C222 C 0.53897 0.40831 0.0459 0.0
C223 C 0.56717 0.38289 0.0455 0.0
C224 C 0.61912 0.40884 0.0351 0.0
C225 C 0.90049 0.56004 0.09455 0.0
C226 C 0.90085 0.51402 0.09937 0.0
C227 C 0.86391 0.5608 0.07154 0.0
C228 C 0.82656 0.51542 0.05342 0.0
C229 C 0.82585 0.46911 0.05903 0.0
C230 C 0.86302 0.46852 0.0815 0.0
C231 C 0.78871 0.51626 0.02809 0.0
C232 C 0.73591 0.48892 0.03662 0.0
C233 C 0.80448 0.54411 0.99593 0.0
C234 C 0.85964 0.57264 0.98513 0.0
C235 C 0.88775 0.547 0.98099 0.0
C236 C 0.93982 0.5742 0.97096 0.0
C237 C 0.9641 0.62699 0.96471 0.0
C238 C 0.9363 0.65265 0.96838 0.0
C239 C 0.88422 0.62563 0.97846 0.0
H240 H 0.00442 0.64798 0.95693 0.0
H241 H 0.49875 0.38815 0.05394 0.0
H242 H 0.42357 0.88013 0.45402 0.0
H243 H 0.36391 0.80801 0.4136 0.0
H244 H 0.30407 0.90087 0.37309 0.0
H245 H 0.36203 0.97188 0.41329 0.0
H246 H 0.22712 0.80829 0.38865 0.0
H247 H 0.39185 0.87679 0.32579 0.0
H248 H 0.4831 0.89899 0.32055 0.0
H249 H 0.43835 0.74128 0.33792 0.0
H250 H 0.34689 0.7183 0.34367 0.0
H251 H 0.09893 0.70881 0.22675 0.0
H252 H 0.16643 0.7622 0.27092 0.0
H253 H 0.19152 0.63592 0.29072 0.0
H254 H 0.1243 0.58215 0.24541 0.0
H255 H 0.28332 0.72936 0.29312 0.0
H256 H 0.11756 0.65869 0.34792 0.0
H257 H 0.0261 0.63576 0.3527 0.0
H258 H 0.07228 0.79616 0.3521 0.0
H259 H 0.16397 0.82004 0.34679 0.0
C260 C 0.3977 0.8851 0.43645 0.0
C261 C 0.39754 0.93186 0.43715 0.0
C262 C 0.36376 0.84391 0.41326 0.0
C263 C 0.32951 0.84901 0.39019 0.0
C264 C 0.32979 0.89577 0.39076 0.0
C265 C 0.36319 0.93651 0.41387 0.0
C266 C 0.29216 0.8061 0.3657 0.0
C267 C 0.23954 0.79123 0.3677 0.0
C268 C 0.30783 0.78213 0.33924 0.0
C269 C 0.3627 0.79598 0.33558 0.0
C270 C 0.40156 0.84695 0.32875 0.0
C271 C 0.45328 0.85965 0.32564 0.0
C272 C 0.46653 0.8216 0.32902 0.0
C273 C 0.42805 0.77073 0.33539 0.0
C274 C 0.37627 0.75785 0.33855 0.0
C275 C 0.11908 0.69239 0.24017 0.0
C276 C 0.10569 0.64096 0.23293 0.0
C277 C 0.15764 0.72298 0.26552 0.0
C278 C 0.1831 0.70266 0.28486 0.0
C279 C 0.17205 0.65225 0.27634 0.0
C280 C 0.13367 0.62161 0.25046 0.0
C281 C 0.21892 0.73374 0.31511 0.0
C282 C 0.27088 0.74592 0.31441 0.0
C283 C 0.20275 0.75526 0.343 0.0
C284 C 0.14765 0.74112 0.3468 0.0
C285 C 0.1082 0.68906 0.34864 0.0
C286 C 0.05631 0.6759 0.35144 0.0
C287 C 0.04338 0.71448 0.35266 0.0
C288 C 0.08235 0.76632 0.35116 0.0
C289 C 0.1343 0.77969 0.34832 0.0
H290 H 0.00318 0.7042 0.3548 0.0
H291 H 0.5066 0.83151 0.32661 0.0
H292 H 0.46709 0.36585 0.7944 0.0
H293 H 0.47265 0.302 0.75493 0.0
H294 H 0.58534 0.4243 0.68995 0.0
H295 H 0.58111 0.48833 0.72973 0.0
H296 H 0.49227 0.33454 0.65241 0.0
H297 H 0.63316 0.37824 0.7368 0.0
H298 H 0.67039 0.38951 0.79783 0.0
H299 H 0.56388 0.22974 0.8178 0.0
H300 H 0.52544 0.21774 0.75704 0.0
H301 H 0.56328 0.19003 0.53683 0.0
H302 H 0.56489 0.25642 0.57772 0.0
H303 H 0.50003 0.14526 0.66181 0.0
H304 H 0.50084 0.07994 0.62134 0.0
H305 H 0.56932 0.23083 0.69043 0.0
H306 H 0.42621 0.18327 0.61058 0.0
H307 H 0.38045 0.16735 0.55229 0.0
H308 H 0.47893 0.32651 0.52654 0.0
H309 H 0.52577 0.34324 0.5845 0.0
C310 C 0.49331 0.37906 0.77186 0.0
C311 C 0.52374 0.43196 0.76512 0.0
C312 C 0.49643 0.34265 0.7494 0.0
C313 C 0.52933 0.35863 0.71959 0.0
C314 C 0.55972 0.41137 0.71283 0.0
C315 C 0.55742 0.44781 0.73566 0.0
C316 C 0.53142 0.32023 0.69505 0.0
C317 C 0.50971 0.31225 0.66041 0.0
C318 C 0.55261 0.29019 0.70615 0.0
C319 C 0.57606 0.29724 0.74252 0.0
C320 C 0.61735 0.34563 0.75432 0.0
C321 C 0.63874 0.35213 0.78884 0.0
C322 C 0.61941 0.3104 0.81172 0.0
C323 C 0.57876 0.26205 0.80007 0.0
C324 C 0.55719 0.25537 0.76559 0.0
C325 C 0.54967 0.18021 0.56413 0.0
C326 C 0.53187 0.13035 0.57622 0.0
C327 C 0.55023 0.21787 0.5874 0.0
C328 C 0.53175 0.20571 0.62277 0.0
C329 C 0.5145 0.15572 0.63475 0.0
C330 C 0.51478 0.11841 0.61168 0.0
C331 C 0.5302 0.24484 0.64732 0.0
C332 C 0.55191 0.253 0.68213 0.0
C333 C 0.50787 0.27426 0.63662 0.0
C334 C 0.47986 0.26437 0.60171 0.0
C335 C 0.43838 0.21478 0.59236 0.0
C336 C 0.4122 0.20563 0.5594 0.0
C337 C 0.42687 0.24586 0.53568 0.0
C338 C 0.46767 0.29536 0.54491 0.0
C339 C 0.49403 0.30472 0.57783 0.0
H340 H 0.40654 0.23869 0.51018 0.0
H341 H 0.63601 0.31551 0.83844 0.0
loop_
_geom_bond_atom_site_label_1
_geom_bond_atom_site_label_2
_geom_bond_distance
_geom_bond_site_symmetry_2
_ccdc_geom_bond_type
Co0 O1 2.216 . S
Co0 O2 2.091 . S
Co0 O4 2.004 1_455 S
Co0 O10 2.021 . S
Co0 O12 2.137 1_455 S
Co0 O13 2.244 1_455 S
O1 Co0 2.216 . S
O1 C8 1.247 . S
O2 Co0 2.091 . S
O2 C8 1.261 . S
C3 O12 1.247 . S
C3 O13 1.272 . S
O4 Co0 2.004 1_655 S
O4 C9 1.259 . S
Co5 O6 2.061 . S
Co5 O11 2.052 1_655 S
Co5 O13 2.135 . S
O6 Co5 2.061 . S
O6 C9 1.235 . S
C7 O10 1.238 . S
C7 O11 1.241 . S
C8 O1 1.247 . S
C8 O2 1.261 . S
C9 O4 1.259 . S
C9 O6 1.235 . S
O10 Co0 2.021 . S
O10 C7 1.238 . S
O11 Co5 2.052 1_455 S
O11 C7 1.241 . S
O12 Co0 2.137 1_655 S
O12 C3 1.247 . S
O13 Co0 2.244 1_655 S
O13 C3 1.272 . S
O13 Co5 2.135 . S
Co14 O15 2.216 1_545 S
Co14 O16 2.091 1_545 S
Co14 O18 2.004 . S
Co14 O24 2.021 1_545 S
Co14 O26 2.137 . S
Co14 O27 2.244 . S
O15 Co14 2.216 1_565 S
O15 C22 1.247 . S
O16 Co14 2.091 1_565 S
O16 C22 1.261 . S
C17 O26 1.247 . S
C17 O27 1.272 . S
O18 Co14 2.004 . S
O18 C23 1.259 . S
Co19 O20 2.061 . S
Co19 O25 2.052 1_545 S
Co19 O27 2.135 . S
O20 Co19 2.061 . S
O20 C23 1.235 . S
C21 O24 1.238 . S
C21 O25 1.241 . S
C22 O15 1.247 . S
C22 O16 1.261 . S
C23 O18 1.259 . S
C23 O20 1.235 . S
O24 Co14 2.021 1_565 S
O24 C21 1.238 . S
O25 Co19 2.052 1_565 S
O25 C21 1.241 . S
O26 Co14 2.137 . S
O26 C17 1.247 . S
O27 Co14 2.244 . S
O27 C17 1.272 . S
O27 Co19 2.135 . S
Co28 O29 2.216 . S
Co28 O30 2.091 . S
Co28 O32 2.004 . S
Co28 O38 2.021 . S
Co28 O40 2.137 . S
Co28 O41 2.244 . S
O29 Co28 2.216 . S
O29 C36 1.247 . S
O30 Co28 2.091 . S
O30 C36 1.261 . S
C31 O40 1.247 . S
C31 O41 1.272 . S
O32 Co28 2.004 . S
O32 C37 1.259 . S
Co33 O34 2.061 . S
Co33 O39 2.052 . S
Co33 O41 2.135 . S
O34 Co33 2.061 . S
O34 C37 1.235 . S
C35 O38 1.238 . S
C35 O39 1.241 . S
C36 O29 1.247 . S
C36 O30 1.261 . S
C37 O32 1.259 . S
C37 O34 1.235 . S
O38 Co28 2.021 . S
O38 C35 1.238 . S
O39 Co33 2.052 . S
O39 C35 1.241 . S
O40 Co28 2.137 . S
O40 C31 1.247 . S
O41 Co28 2.244 . S
O41 C31 1.272 . S
O41 Co33 2.135 . S
H42 C60 0.951 . S
H43 C62 0.951 . S
H44 C64 0.950 . S
H45 C65 0.950 . S
H46 C67 0.950 . S
H47 C70 0.950 . S
H48 C71 0.950 . S
H49 C73 0.950 . S
H50 C74 0.950 . S
H51 C75 0.951 . S
H52 C77 0.951 . S
H53 C79 0.950 . S
H54 C80 0.950 . S
H55 C82 0.950 . S
H56 C85 0.950 . S
H57 C86 0.950 . S
H58 C88 0.950 . S
H59 C89 0.950 . S
C60 H42 0.951 . S
C60 C61 1.366 . S
C60 C62 1.388 . S
C61 C60 1.366 . S
C61 C65 1.385 . S
C62 H43 0.951 . S
C62 C60 1.388 . S
C62 C63 1.366 . S
C63 C62 1.366 . S
C63 C64 1.414 . S
C63 C66 1.499 . S
C64 H44 0.950 . S
C64 C63 1.414 . S
C64 C65 1.374 . S
C65 H45 0.950 . S
C65 C61 1.385 . S
C65 C64 1.374 . S
C66 C63 1.499 . S
C66 C67 1.373 1_556 S
C66 C68 1.389 . S
C67 H46 0.950 . S
C67 C66 1.373 1_554 S
C67 C83 1.377 . S
C68 C66 1.389 . S
C68 C69 1.524 . S
C68 C82 1.377 . S
C69 C68 1.524 . S
C69 C70 1.397 . S
C69 C74 1.363 . S
C70 H47 0.950 . S
C70 C69 1.397 . S
C70 C71 1.334 . S
C71 H48 0.950 . S
C71 C70 1.334 . S
C71 C72 1.287 . S
C72 C71 1.287 . S
C72 C73 1.524 . S
C72 H91 0.913 . S
C73 H49 0.950 . S
C73 C72 1.524 . S
C73 C74 1.415 . S
C74 H50 0.950 . S
C74 C69 1.363 . S
C74 C73 1.415 . S
C75 H51 0.951 . S
C75 C76 1.366 . S
C75 C77 1.388 . S
C76 C75 1.366 . S
C76 C80 1.385 . S
C77 H52 0.951 . S
C77 C75 1.388 . S
C77 C78 1.366 . S
C78 C77 1.366 . S
C78 C79 1.414 . S
C78 C81 1.499 . S
C79 H53 0.950 . S
C79 C78 1.414 . S
C79 C80 1.374 . S
C80 H54 0.950 . S
C80 C76 1.385 . S
C80 C79 1.374 . S
C81 C78 1.499 . S
C81 C82 1.373 1_554 S
C81 C83 1.389 . S
C82 H55 0.950 . S
C82 C68 1.377 . S
C82 C81 1.373 1_556 S
C83 C67 1.377 . S
C83 C81 1.389 . S
C83 C84 1.524 . S
C84 C83 1.524 . S
C84 C85 1.397 . S
C84 C89 1.363 . S
C85 H56 0.950 . S
C85 C84 1.397 . S
C85 C86 1.334 . S
C86 H57 0.950 . S
C86 C85 1.334 . S
C86 C87 1.287 . S
C87 C86 1.287 . S
C87 C88 1.524 . S
C87 H90 0.999 . S
C88 H58 0.950 . S
C88 C87 1.524 . S
C88 C89 1.415 . S
C89 H59 0.950 . S
C89 C84 1.363 . S
C89 C88 1.415 . S
H90 C87 0.999 . S
H91 C72 0.913 . S
H92 C110 0.951 . S
H93 C112 0.951 . S
H94 C114 0.950 . S
H95 C115 0.950 . S
H96 C117 0.950 . S
H97 C120 0.950 . S
H98 C121 0.950 . S
H99 C123 0.950 . S
H100 C124 0.950 . S
H101 C125 0.951 . S
H102 C127 0.951 . S
H103 C129 0.950 . S
H104 C130 0.950 . S
H105 C132 0.950 . S
H106 C135 0.950 . S
H107 C136 0.950 . S
H108 C138 0.950 . S
H109 C139 0.950 . S
C110 H92 0.951 . S
C110 C111 1.366 . S
C110 C112 1.388 . S
C111 C110 1.366 . S
C111 C115 1.385 . S
C112 H93 0.951 . S
C112 C110 1.388 . S
C112 C113 1.366 . S
C113 C112 1.366 . S
C113 C114 1.414 . S
C113 C116 1.499 . S
C114 H94 0.950 . S
C114 C113 1.414 . S
C114 C115 1.374 . S
C115 H95 0.950 . S
C115 C111 1.385 . S
C115 C114 1.374 . S
C116 C113 1.499 . S
C116 C117 1.373 . S
C116 C118 1.389 . S
C117 H96 0.950 . S
C117 C116 1.373 . S
C117 C133 1.377 . S
C118 C116 1.389 . S
C118 C119 1.524 . S
C118 C132 1.377 . S
C119 C118 1.524 . S
C119 C120 1.397 . S
C119 C124 1.363 . S
C120 H97 0.950 . S
C120 C119 1.397 . S
C120 C121 1.334 . S
C121 H98 0.950 . S
C121 C120 1.334 . S
C121 C122 1.287 . S
C122 C121 1.287 . S
C122 C123 1.524 . S
C122 H141 0.913 . S
C123 H99 0.950 . S
C123 C122 1.524 . S
C123 C124 1.415 . S
C124 H100 0.950 . S
C124 C119 1.363 . S
C124 C123 1.415 . S
C125 H101 0.951 . S
C125 C126 1.366 . S
C125 C127 1.388 . S
C126 C125 1.366 . S
C126 C130 1.385 . S
C127 H102 0.951 . S
C127 C125 1.388 . S
C127 C128 1.366 . S
C128 C127 1.366 . S
C128 C129 1.414 . S
C128 C131 1.499 . S
C129 H103 0.950 . S
C129 C128 1.414 . S
C129 C130 1.374 . S
C130 H104 0.950 . S
C130 C126 1.385 . S
C130 C129 1.374 . S
C131 C128 1.499 . S
C131 C132 1.373 . S
C131 C133 1.389 . S
C132 H105 0.950 . S
C132 C118 1.377 . S
C132 C131 1.373 . S
C133 C117 1.377 . S
C133 C131 1.389 . S
C133 C134 1.524 . S
C134 C133 1.524 . S
C134 C135 1.397 . S
C134 C139 1.363 . S
C135 H106 0.950 . S
C135 C134 1.397 . S
C135 C136 1.334 . S
C136 H107 0.950 . S
C136 C135 1.334 . S
C136 C137 1.287 . S
C137 C136 1.287 . S
C137 C138 1.524 . S
C137 H140 0.999 . S
C138 H108 0.950 . S
C138 C137 1.524 . S
C138 C139 1.415 . S
C139 H109 0.950 . S
C139 C134 1.363 . S
C139 C138 1.415 . S
H140 C137 0.999 . S
H141 C122 0.913 . S
H142 C160 0.951 . S
H143 C162 0.951 . S
H144 C164 0.950 . S
H145 C165 0.950 . S
H146 C167 0.950 . S
H147 C170 0.950 . S
H148 C171 0.950 . S
H149 C173 0.950 . S
H150 C174 0.950 . S
H151 C175 0.951 . S
H152 C177 0.951 . S
H153 C179 0.950 . S
H154 C180 0.950 . S
H155 C182 0.950 . S
H156 C185 0.950 . S
H157 C186 0.950 . S
H158 C188 0.950 . S
H159 C189 0.950 . S
C160 H142 0.951 . S
C160 C161 1.366 . S
C160 C162 1.388 . S
C161 C160 1.366 . S
C161 C165 1.385 . S
C162 H143 0.951 . S
C162 C160 1.388 . S
C162 C163 1.366 . S
C163 C162 1.366 . S
C163 C164 1.414 . S
C163 C166 1.499 . S
C164 H144 0.950 . S
C164 C163 1.414 . S
C164 C165 1.374 . S
C165 H145 0.950 . S
C165 C161 1.385 . S
C165 C164 1.374 . S
C166 C163 1.499 . S
C166 C167 1.373 . S
C166 C168 1.389 . S
C167 H146 0.950 . S
C167 C166 1.373 . S
C167 C183 1.377 . S
C168 C166 1.389 . S
C168 C169 1.524 . S
C168 C182 1.377 . S
C169 C168 1.524 . S
C169 C170 1.397 . S
C169 C174 1.363 . S
C170 H147 0.950 . S
C170 C169 1.397 . S
C170 C171 1.334 . S
C171 H148 0.950 . S
C171 C170 1.334 . S
C171 C172 1.287 . S
C172 C171 1.287 . S
C172 C173 1.524 . S
C172 H191 0.913 . S
C173 H149 0.950 . S
C173 C172 1.524 . S
C173 C174 1.415 . S
C174 H150 0.950 . S
C174 C169 1.363 . S
C174 C173 1.415 . S
C175 H151 0.951 . S
C175 C176 1.366 . S
C175 C177 1.388 . S
C176 C175 1.366 . S
C176 C180 1.385 . S
C177 H152 0.951 . S
C177 C175 1.388 . S
C177 C178 1.366 . S
C178 C177 1.366 . S
C178 C179 1.414 . S
C178 C181 1.499 . S
C179 H153 0.950 . S
C179 C178 1.414 . S
C179 C180 1.374 . S
C180 H154 0.950 . S
C180 C176 1.385 . S
C180 C179 1.374 . S
C181 C178 1.499 . S
C181 C182 1.373 . S
C181 C183 1.389 . S
C182 H155 0.950 . S
C182 C168 1.377 . S
C182 C181 1.373 . S
C183 C167 1.377 . S
C183 C181 1.389 . S
C183 C184 1.524 . S
C184 C183 1.524 . S
C184 C185 1.397 . S
C184 C189 1.363 . S
C185 H156 0.950 . S
C185 C184 1.397 . S
C185 C186 1.334 . S
C186 H157 0.950 . S
C186 C185 1.334 . S
C186 C187 1.287 . S
C187 C186 1.287 . S
C187 C188 1.524 . S
C187 H190 0.999 . S
C188 H158 0.950 . S
C188 C187 1.524 . S
C188 C189 1.415 . S
C189 H159 0.950 . S
C189 C184 1.363 . S
C189 C188 1.415 . S
H190 C187 0.999 . S
H191 C172 0.913 . S
H192 C210 0.951 . S
H193 C212 0.951 . S
H194 C214 0.950 . S
H195 C215 0.950 . S
H196 C217 0.950 . S
H197 C220 0.950 . S
H198 C221 0.950 . S
H199 C223 0.950 . S
H200 C224 0.950 . S
H201 C225 0.951 . S
H202 C227 0.951 . S
H203 C229 0.950 . S
H204 C230 0.950 . S
H205 C232 0.950 . S
H206 C235 0.950 . S
H207 C236 0.950 . S
H208 C238 0.950 . S
H209 C239 0.950 . S
C210 H192 0.951 . S
C210 C211 1.366 . S
C210 C212 1.388 . S
C211 C210 1.366 . S
C211 C215 1.385 . S
C212 H193 0.951 . S
C212 C210 1.388 . S
C212 C213 1.366 . S
C213 C212 1.366 . S
C213 C214 1.414 . S
C213 C216 1.499 . S
C214 H194 0.950 . S
C214 C213 1.414 . S
C214 C215 1.374 . S
C215 H195 0.950 . S
C215 C211 1.385 . S
C215 C214 1.374 . S
C216 C213 1.499 . S
C216 C217 1.373 . S
C216 C218 1.389 1_556 S
C217 H196 0.950 . S
C217 C216 1.373 . S
C217 C233 1.377 . S
C218 C216 1.389 1_554 S
C218 C219 1.524 . S
C218 C232 1.377 . S
C219 C218 1.524 . S
C219 C220 1.397 . S
C219 C224 1.363 . S
C220 H197 0.950 . S
C220 C219 1.397 . S
C220 C221 1.334 . S
C221 H198 0.950 . S
C221 C220 1.334 . S
C221 C222 1.287 . S
C222 C221 1.287 . S
C222 C223 1.524 . S
C222 H241 0.913 . S
C223 H199 0.950 . S
C223 C222 1.524 . S
C223 C224 1.415 . S
C224 H200 0.950 . S
C224 C219 1.363 . S
C224 C223 1.415 . S
C225 H201 0.951 . S
C225 C226 1.366 . S
C225 C227 1.388 . S
C226 C225 1.366 . S
C226 C230 1.385 . S
C227 H202 0.951 . S
C227 C225 1.388 . S
C227 C228 1.366 . S
C228 C227 1.366 . S
C228 C229 1.414 . S
C228 C231 1.499 . S
C229 H203 0.950 . S
C229 C228 1.414 . S
C229 C230 1.374 . S
C230 H204 0.950 . S
C230 C226 1.385 . S
C230 C229 1.374 . S
C231 C228 1.499 . S
C231 C232 1.373 . S
C231 C233 1.389 1_554 S
C232 H205 0.950 . S
C232 C218 1.377 . S
C232 C231 1.373 . S
C233 C217 1.377 . S
C233 C231 1.389 1_556 S
C233 C234 1.524 . S
C234 C233 1.524 . S
C234 C235 1.397 . S
C234 C239 1.363 . S
C235 H206 0.950 . S
C235 C234 1.397 . S
C235 C236 1.334 . S
C236 H207 0.950 . S
C236 C235 1.334 . S
C236 C237 1.287 . S
C237 C236 1.287 . S
C237 C238 1.524 . S
C237 H240 1.010 . S
C238 H208 0.950 . S
C238 C237 1.524 . S
C238 C239 1.415 . S
C239 H209 0.950 . S
C239 C234 1.363 . S
C239 C238 1.415 . S
H240 C237 1.010 . S
H241 C222 0.913 . S
H242 C260 0.951 . S
H243 C262 0.951 . S
H244 C264 0.950 . S
H245 C265 0.950 . S
H246 C267 0.950 . S
H247 C270 0.950 . S
H248 C271 0.950 . S
H249 C273 0.950 . S
H250 C274 0.950 . S
H251 C275 0.951 . S
H252 C277 0.951 . S
H253 C279 0.950 . S
H254 C280 0.950 . S
H255 C282 0.950 . S
H256 C285 0.950 . S
H257 C286 0.950 . S
H258 C288 0.950 . S
H259 C289 0.950 . S
C260 H242 0.951 . S
C260 C261 1.366 . S
C260 C262 1.388 . S
C261 C260 1.366 . S
C261 C265 1.385 . S
C262 H243 0.951 . S
C262 C260 1.388 . S
C262 C263 1.366 . S
C263 C262 1.366 . S
C263 C264 1.414 . S
C263 C266 1.499 . S
C264 H244 0.950 . S
C264 C263 1.414 . S
C264 C265 1.374 . S
C265 H245 0.950 . S
C265 C261 1.385 . S
C265 C264 1.374 . S
C266 C263 1.499 . S
C266 C267 1.373 . S
C266 C268 1.389 . S
C267 H246 0.950 . S
C267 C266 1.373 . S
C267 C283 1.377 . S
C268 C266 1.389 . S
C268 C269 1.524 . S
C268 C282 1.377 . S
C269 C268 1.524 . S
C269 C270 1.397 . S
C269 C274 1.363 . S
C270 H247 0.950 . S
C270 C269 1.397 . S
C270 C271 1.334 . S
C271 H248 0.950 . S
C271 C270 1.334 . S
C271 C272 1.287 . S
C272 C271 1.287 . S
C272 C273 1.524 . S
C272 H291 0.913 . S
C273 H249 0.950 . S
C273 C272 1.524 . S
C273 C274 1.415 . S
C274 H250 0.950 . S
C274 C269 1.363 . S
C274 C273 1.415 . S
C275 H251 0.951 . S
C275 C276 1.366 . S
C275 C277 1.388 . S
C276 C275 1.366 . S
C276 C280 1.385 . S
C277 H252 0.951 . S
C277 C275 1.388 . S
C277 C278 1.366 . S
C278 C277 1.366 . S
C278 C279 1.414 . S
C278 C281 1.499 . S
C279 H253 0.950 . S
C279 C278 1.414 . S
C279 C280 1.374 . S
C280 H254 0.950 . S
C280 C276 1.385 . S
C280 C279 1.374 . S
C281 C278 1.499 . S
C281 C282 1.373 . S
C281 C283 1.389 . S
C282 H255 0.950 . S
C282 C268 1.377 . S
C282 C281 1.373 . S
C283 C267 1.377 . S
C283 C281 1.389 . S
C283 C284 1.524 . S
C284 C283 1.524 . S
C284 C285 1.397 . S
C284 C289 1.363 . S
C285 H256 0.950 . S
C285 C284 1.397 . S
C285 C286 1.334 . S
C286 H257 0.950 . S
C286 C285 1.334 . S
C286 C287 1.287 . S
C287 C286 1.287 . S
C287 C288 1.524 . S
C287 H290 0.999 . S
C288 H258 0.950 . S
C288 C287 1.524 . S
C288 C289 1.415 . S
C289 H259 0.950 . S
C289 C284 1.363 . S
C289 C288 1.415 . S
H290 C287 0.999 . S
H291 C272 0.913 . S
H292 C310 0.951 . S
H293 C312 0.951 . S
H294 C314 0.950 . S
H295 C315 0.950 . S
H296 C317 0.950 . S
H297 C320 0.950 . S
H298 C321 0.950 . S
H299 C323 0.950 . S
H300 C324 0.950 . S
H301 C325 0.951 . S
H302 C327 0.951 . S
H303 C329 0.950 . S
H304 C330 0.950 . S
H305 C332 0.950 . S
H306 C335 0.950 . S
H307 C336 0.950 . S
H308 C338 0.950 . S
H309 C339 0.950 . S
C310 H292 0.951 . S
C310 C311 1.366 . S
C310 C312 1.388 . S
C311 C310 1.366 . S
C311 C315 1.385 . S
C312 H293 0.951 . S
C312 C310 1.388 . S
C312 C313 1.366 . S
C313 C312 1.366 . S
C313 C314 1.414 . S
C313 C316 1.499 . S
C314 H294 0.950 . S
C314 C313 1.414 . S
C314 C315 1.374 . S
C315 H295 0.950 . S
C315 C311 1.385 . S
C315 C314 1.374 . S
C316 C313 1.499 . S
C316 C317 1.373 . S
C316 C318 1.389 . S
C317 H296 0.950 . S
C317 C316 1.373 . S
C317 C333 1.377 . S
C318 C316 1.389 . S
C318 C319 1.524 . S
C318 C332 1.377 . S
C319 C318 1.524 . S
C319 C320 1.397 . S
C319 C324 1.363 . S
C320 H297 0.950 . S
C320 C319 1.397 . S
C320 C321 1.334 . S
C321 H298 0.950 . S
C321 C320 1.334 . S
C321 C322 1.287 . S
C322 C321 1.287 . S
C322 C323 1.524 . S
C322 H341 0.913 . S
C323 H299 0.950 . S
C323 C322 1.524 . S
C323 C324 1.415 . S
C324 H300 0.950 . S
C324 C319 1.363 . S
C324 C323 1.415 . S
C325 H301 0.951 . S
C325 C326 1.366 . S
C325 C327 1.388 . S
C326 C325 1.366 . S
C326 C330 1.385 . S
C327 H302 0.951 . S
C327 C325 1.388 . S
C327 C328 1.366 . S
C328 C327 1.366 . S
C328 C329 1.414 . S
C328 C331 1.499 . S
C329 H303 0.950 . S
C329 C328 1.414 . S
C329 C330 1.374 . S
C330 H304 0.950 . S
C330 C326 1.385 . S
C330 C329 1.374 . S
C331 C328 1.499 . S
C331 C332 1.373 . S
C331 C333 1.389 . S
C332 H305 0.950 . S
C332 C318 1.377 . S
C332 C331 1.373 . S
C333 C317 1.377 . S
C333 C331 1.389 . S
C333 C334 1.524 . S
C334 C333 1.524 . S
C334 C335 1.397 . S
C334 C339 1.363 . S
C335 H306 0.950 . S
C335 C334 1.397 . S
C335 C336 1.334 . S
C336 H307 0.950 . S
C336 C335 1.334 . S
C336 C337 1.287 . S
C337 C336 1.287 . S
C337 C338 1.524 . S
C337 H340 0.999 . S
C338 H308 0.950 . S
C338 C337 1.524 . S
C338 C339 1.415 . S
C339 H309 0.950 . S
C339 C334 1.363 . S
C339 C338 1.415 . S
H340 C337 0.999 . S
H341 C322 0.913 . S
C61 C35 1.411 . S
C76 C8 1.432 . S
C111 C9 1.489 . S
C126 C23 1.489 . S
C161 C22 1.450 . S
C176 C36 1.451 . S
C211 C37 1.447 . S
C226 C3 1.460 . S
C261 C21 1.395 . S
C276 C7 1.395 . S
C311 C31 1.419 . S
C326 C17 1.418 . S
