# Generated by pormake.
# Topology fcu, (12)-cn, num edge types: 1
# Building blocks:
#     Node 0, Type 0, BuildingBlock: UKIBUN_clean_sbu_0, # of connection points: 12
#     Node 1, Type 0, BuildingBlock: UKIBUN_clean_sbu_0, # of connection points: 12
#     Node 2, Type 0, BuildingBlock: UKIBUN_clean_sbu_0, # of connection points: 12
#     Node 3, Type 0, BuildingBlock: UKIBUN_clean_sbu_0, # of connection points: 12
#     Edge 4, Type (0, 0), BuildingBlock: EYOCIG_clean_linker_4, # of connection points: 2
#     Edge 5, Type (0, 0), BuildingBlock: EYOCIG_clean_linker_4, # of connection points: 2
#     Edge 6, Type (0, 0), BuildingBlock: EYOCIG_clean_linker_4, # of connection points: 2
#     Edge 7, Type (0, 0), BuildingBlock: EYOCIG_clean_linker_4, # of connection points: 2
#     Edge 8, Type (0, 0), BuildingBlock: EYOCIG_clean_linker_4, # of connection points: 2
#     Edge 9, Type (0, 0), BuildingBlock: EYOCIG_clean_linker_4, # of connection points: 2
#     Edge 10, Type (0, 0), BuildingBlock: EYOCIG_clean_linker_4, # of connection points: 2
#     Edge 11, Type (0, 0), BuildingBlock: EYOCIG_clean_linker_4, # of connection points: 2
#     Edge 12, Type (0, 0), BuildingBlock: EYOCIG_clean_linker_4, # of connection points: 2
#     Edge 13, Type (0, 0), BuildingBlock: EYOCIG_clean_linker_4, # of connection points: 2
#     Edge 14, Type (0, 0), BuildingBlock: EYOCIG_clean_linker_4, # of connection points: 2
#     Edge 15, Type (0, 0), BuildingBlock: EYOCIG_clean_linker_4, # of connection points: 2
#     Edge 16, Type (0, 0), BuildingBlock: EYOCIG_clean_linker_4, # of connection points: 2
#     Edge 17, Type (0, 0), BuildingBlock: EYOCIG_clean_linker_4, # of connection points: 2
#     Edge 18, Type (0, 0), BuildingBlock: EYOCIG_clean_linker_4, # of connection points: 2
#     Edge 19, Type (0, 0), BuildingBlock: EYOCIG_clean_linker_4, # of connection points: 2
#     Edge 20, Type (0, 0), BuildingBlock: EYOCIG_clean_linker_4, # of connection points: 2
#     Edge 21, Type (0, 0), BuildingBlock: EYOCIG_clean_linker_4, # of connection points: 2
#     Edge 22, Type (0, 0), BuildingBlock: EYOCIG_clean_linker_4, # of connection points: 2
#     Edge 23, Type (0, 0), BuildingBlock: EYOCIG_clean_linker_4, # of connection points: 2
#     Edge 24, Type (0, 0), BuildingBlock: EYOCIG_clean_linker_4, # of connection points: 2
#     Edge 25, Type (0, 0), BuildingBlock: EYOCIG_clean_linker_4, # of connection points: 2
#     Edge 26, Type (0, 0), BuildingBlock: EYOCIG_clean_linker_4, # of connection points: 2
#     Edge 27, Type (0, 0), BuildingBlock: EYOCIG_clean_linker_4, # of connection points: 2
# Relax obj value: 0.006
# Max RMSD: 0.049
# Mean RMSD: 0.049
data_MOF--net-fcu--node1-UKIBUN_clean_sbu_0--edge1-EYOCIG_clean_linker_4
_symmetry_space_group_name_H-M    P1
_symmetry_Int_Tables_number       1
_symmetry_cell_setting            triclinic
loop_
_symmetry_equiv_pos_as_xyz
'x, y, z'
_cell_length_a     21.973636
_cell_length_b     21.971104
_cell_length_c     21.973957
_cell_angle_alpha  90.007767
_cell_angle_beta   90.019974
_cell_angle_gamma 89.997158
loop_
_atom_site_label
_atom_site_type_symbol
_atom_site_fract_x
_atom_site_fract_y
_atom_site_fract_z
_atom_type_partial_charge
C0 C 0.99449 0.14159 0.14018 0.0
C1 C 0.85522 0.14026 0.00218 0.0
O2 O 0.05061 0.0507 0.05037 0.0
O3 O 0.94662 0.94631 0.05058 0.0
O4 O 0.04934 0.94773 0.04906 0.0
O5 O 0.94761 0.04918 0.04931 0.0
Hf6 Hf -0.00122 -0.00148 0.10818 0.0
O7 O 0.04911 0.04914 0.94748 0.0
Hf8 Hf 0.99812 0.10805 0.9981 0.0
O9 O 0.05072 0.94634 0.94605 0.0
Hf10 Hf 0.10826 -0.0015 -0.00164 0.0
O11 O 0.94609 0.05027 0.9462 0.0
Hf12 Hf -0.00149 0.88884 0.99812 0.0
Hf13 Hf 0.88871 0.99814 -0.00135 0.0
O14 O 0.94758 0.94761 0.94751 0.0
Hf15 Hf -0.00164 0.99833 0.8885 0.0
C16 C 0.85624 0.85549 0.99465 0.0
C17 C 0.1403 0.14153 0.99292 0.0
C18 C 0.14043 0.85535 0.00327 0.0
C19 C 0.14144 0.9928 0.14076 0.0
O20 O 0.08571 0.99489 0.15898 0.0
O21 O 0.91242 0.00085 0.15967 0.0
C22 C 0.85664 0.00217 0.14166 0.0
O23 O 0.9112 0.99489 0.83797 0.0
O24 O 0.99475 0.83803 0.91119 0.0
O25 O 0.00107 0.83753 0.08447 0.0
O26 O 0.08563 0.00111 0.83793 0.0
O27 O 0.00063 0.15891 0.91116 0.0
O28 O 0.99565 0.15948 0.08439 0.0
O29 O 0.83728 0.08448 0.00095 0.0
O30 O 0.83788 0.9112 0.99625 0.0
C31 C 0.14142 0.00263 0.85623 0.0
O32 O 0.15874 0.91113 0.00153 0.0
O33 O 0.15869 0.0858 0.99506 0.0
C34 C 0.85548 0.99264 0.85628 0.0
O35 O 0.00056 0.0849 0.8374 0.0
O36 O 0.00121 0.9112 0.15861 0.0
O37 O 0.99632 0.08586 0.15858 0.0
O38 O 0.99492 0.9118 0.83725 0.0
O39 O 0.83749 0.99463 0.91206 0.0
O40 O 0.15944 0.00094 0.91197 0.0
C41 C 0.99264 0.8561 0.85542 0.0
O42 O 0.15948 0.99508 0.085 0.0
O43 O 0.08451 0.15945 0.99483 0.0
O44 O 0.83837 0.00068 0.0859 0.0
O45 O 0.08471 0.8374 0.00115 0.0
O46 O 0.91204 0.83763 0.99596 0.0
O47 O 0.91095 0.15857 0.00062 0.0
C48 C 0.00207 0.14066 0.85542 0.0
C49 C 0.0026 0.85545 0.14024 0.0
C50 C 0.99263 0.64069 0.64119 0.0
C51 C 0.85648 0.64187 0.50277 0.0
O52 O 0.05044 0.55064 0.55067 0.0
O53 O 0.94628 0.44641 0.55023 0.0
O54 O 0.04912 0.44766 0.54899 0.0
O55 O 0.94763 0.54943 0.54936 0.0
Hf56 Hf 0.99829 0.49823 0.60811 0.0
O57 O 0.04915 0.54946 0.44754 0.0
Hf58 Hf -0.00156 0.60831 0.49845 0.0
O59 O 0.05043 0.44664 0.44623 0.0
Hf60 Hf 0.10808 0.49877 0.49846 0.0
O61 O 0.94621 0.55089 0.44626 0.0
Hf62 Hf 0.99832 0.38879 0.49797 0.0
Hf63 Hf 0.88868 0.49891 0.49846 0.0
O64 O 0.94735 0.44785 0.44747 0.0
Hf65 Hf 0.99817 0.49862 0.38865 0.0
C66 C 0.85528 0.35677 0.49432 0.0
C67 C 0.14042 0.64178 0.49345 0.0
C68 C 0.14121 0.35642 0.50365 0.0
C69 C 0.14057 0.4949 0.64127 0.0
O70 O 0.08482 0.49599 0.65933 0.0
O71 O 0.91146 0.50029 0.65908 0.0
C72 C 0.85571 0.50189 0.64087 0.0
O73 O 0.91088 0.49508 0.33817 0.0
O74 O 0.99598 0.33799 0.411 0.0
O75 O 0.00077 0.33723 0.5842 0.0
O76 O 0.08507 0.50081 0.33778 0.0
O77 O 0.00105 0.65896 0.41128 0.0
O78 O 0.99494 0.65892 0.58548 0.0
O79 O 0.83816 0.58613 0.50124 0.0
O80 O 0.83736 0.41255 0.49594 0.0
C81 C 0.14086 0.50188 0.35594 0.0
O82 O 0.15921 0.41219 0.50181 0.0
O83 O 0.15871 0.586 0.4951 0.0
C84 C 0.85513 0.49335 0.35649 0.0
O85 O 0.00054 0.58501 0.33744 0.0
O86 O 0.00095 0.41084 0.65838 0.0
O87 O 0.99464 0.58491 0.65927 0.0
O88 O 0.99596 0.41214 0.3374 0.0
O89 O 0.8372 0.49564 0.41221 0.0
O90 O 0.15899 0.50051 0.4117 0.0
C91 C 0.99455 0.35634 0.35529 0.0
O92 O 0.15877 0.4965 0.58551 0.0
O93 O 0.0847 0.65974 0.4956 0.0
O94 O 0.83768 0.50092 0.5851 0.0
O95 O 0.08547 0.33811 0.50151 0.0
O96 O 0.91102 0.3384 0.49555 0.0
O97 O 0.91222 0.6598 0.50103 0.0
C98 C 0.00228 0.64073 0.35548 0.0
C99 C 0.00233 0.35511 0.63998 0.0
C100 C 0.49283 0.14054 0.64131 0.0
C101 C 0.35643 0.14188 0.50354 0.0
O102 O 0.55071 0.05081 0.55058 0.0
O103 O 0.44643 0.94642 0.55046 0.0
O104 O 0.54942 0.94763 0.54894 0.0
O105 O 0.44799 0.04925 0.54927 0.0
Hf106 Hf 0.49886 0.99825 0.60808 0.0
O107 O 0.54918 0.0495 0.44742 0.0
Hf108 Hf 0.49846 0.10835 0.49836 0.0
O109 O 0.55047 0.94657 0.44622 0.0
Hf110 Hf 0.60814 -0.00119 0.49828 0.0
O111 O 0.44613 0.05084 0.44628 0.0
Hf112 Hf 0.49841 0.88879 0.49813 0.0
Hf113 Hf 0.38865 -0.00115 0.49868 0.0
O114 O 0.44747 0.94791 0.44772 0.0
Hf115 Hf 0.49824 -0.00148 0.38869 0.0
C116 C 0.35543 0.85657 0.4932 0.0
C117 C 0.64061 0.14162 0.49455 0.0
C118 C 0.64148 0.85669 0.50284 0.0
C119 C 0.64148 0.99269 0.64059 0.0
O120 O 0.58579 0.99471 0.65887 0.0
O121 O 0.41261 0.00104 0.65959 0.0
C122 C 0.35681 0.00291 0.64177 0.0
O123 O 0.41133 0.99479 0.33799 0.0
O124 O 0.49631 0.8378 0.41138 0.0
O125 O 0.50073 0.83725 0.58436 0.0
O126 O 0.58517 0.00077 0.33777 0.0
O127 O 0.50166 0.15875 0.41096 0.0
O128 O 0.49477 0.15885 0.58557 0.0
O129 O 0.33811 0.08612 0.50181 0.0
O130 O 0.33746 0.91233 0.4956 0.0
C131 C 0.64097 0.00211 0.35594 0.0
O132 O 0.65944 0.91244 0.50107 0.0
O133 O 0.65888 0.08586 0.49579 0.0
C134 C 0.35561 0.99276 0.35617 0.0
O135 O 0.50119 0.08471 0.3372 0.0
O136 O 0.50106 0.91093 0.65846 0.0
O137 O 0.4953 0.08479 0.65932 0.0
O138 O 0.4961 0.91182 0.33767 0.0
O139 O 0.33749 0.99519 0.41193 0.0
O140 O 0.65907 0.00086 0.41167 0.0
C141 C 0.49491 0.85604 0.35566 0.0
O142 O 0.65944 0.99509 0.58483 0.0
O143 O 0.58487 0.15961 0.49621 0.0
O144 O 0.33833 0.00148 0.58605 0.0
O145 O 0.58572 0.83835 0.50117 0.0
O146 O 0.41119 0.83824 0.4947 0.0
O147 O 0.41218 0.15983 0.50137 0.0
C148 C 0.50335 0.14044 0.35518 0.0
C149 C 0.50232 0.85518 0.64013 0.0
C150 C 0.49492 0.64141 0.14034 0.0
C151 C 0.35551 0.64062 0.00367 0.0
O152 O 0.55054 0.55037 0.05028 0.0
O153 O 0.44618 0.44618 0.05068 0.0
O154 O 0.54905 0.44744 0.04909 0.0
O155 O 0.4477 0.54932 0.0492 0.0
Hf156 Hf 0.49849 0.4984 0.10807 0.0
O157 O 0.54921 0.54904 0.94742 0.0
Hf158 Hf 0.49849 0.60815 0.99816 0.0
O159 O 0.55027 0.44602 0.94621 0.0
Hf160 Hf 0.60807 0.49803 0.99827 0.0
O161 O 0.44619 0.55043 0.94638 0.0
Hf162 Hf 0.49807 0.38856 0.99834 0.0
Hf163 Hf 0.38863 0.4984 -0.00135 0.0
O164 O 0.44728 0.44752 0.94767 0.0
Hf165 Hf 0.49809 0.49819 0.88872 0.0
C166 C 0.35546 0.35602 0.99287 0.0
C167 C 0.6416 0.64016 0.99431 0.0
C168 C 0.64054 0.35545 0.00194 0.0
C169 C 0.64066 0.49301 0.14119 0.0
O170 O 0.58496 0.49529 0.15923 0.0
O171 O 0.41207 0.50071 0.15942 0.0
C172 C 0.35629 0.50188 0.14143 0.0
O173 O 0.41129 0.49618 0.83788 0.0
O174 O 0.49471 0.33756 0.91162 0.0
O175 O 0.50137 0.33751 0.08488 0.0
O176 O 0.5845 0.50055 0.83742 0.0
O177 O 0.50079 0.65894 0.91118 0.0
O178 O 0.49629 0.65945 0.08459 0.0
O179 O 0.3375 0.58487 0.0019 0.0
O180 O 0.33749 0.4118 0.99498 0.0
C181 C 0.64028 0.50193 0.85538 0.0
O182 O 0.65888 0.41115 0.00061 0.0
O183 O 0.65951 0.58437 0.99587 0.0
C184 C 0.35559 0.49504 0.85614 0.0
O185 O 0.50055 0.58476 0.83758 0.0
O186 O 0.5019 0.41134 0.15886 0.0
O187 O 0.49624 0.58563 0.15858 0.0
O188 O 0.49445 0.4114 0.83772 0.0
O189 O 0.33759 0.49644 0.91192 0.0
O190 O 0.6586 0.50051 0.91112 0.0
C191 C 0.49248 0.35565 0.85589 0.0
O192 O 0.65887 0.49466 0.0854 0.0
O193 O 0.58585 0.65853 0.99565 0.0
O194 O 0.33802 0.50043 0.0857 0.0
O195 O 0.58475 0.33751 0.00048 0.0
O196 O 0.41116 0.33771 0.995 0.0
O197 O 0.41129 0.65888 0.00162 0.0
C198 C 0.5021 0.64057 0.85546 0.0
C199 C 0.50362 0.35556 0.14061 0.0
C200 C 0.98907 0.22744 0.2239 0.0
C201 C 0.99154 0.18809 0.18582 0.0
C202 C 0.98912 0.27268 0.26939 0.0
C203 C 0.9916 0.31066 0.30884 0.0
C204 C 0.77261 0.00696 0.22725 0.0
C205 C 0.81076 0.00477 0.18795 0.0
C206 C 0.72692 0.00686 0.27231 0.0
C207 C 0.68732 0.00469 0.31014 0.0
C208 C 0.00787 0.76954 0.22394 0.0
C209 C 0.00546 0.80894 0.1859 0.0
C210 C 0.0078 0.72434 0.26951 0.0
C211 C 0.00528 0.68646 0.30906 0.0
C212 C 0.27164 0.98321 0.27077 0.0
C213 C 0.30972 0.98757 0.31002 0.0
C214 C 0.2265 0.98324 0.22509 0.0
C215 C 0.18759 0.98761 0.18666 0.0
C216 C 0.98318 0.77151 0.77062 0.0
C217 C 0.9875 0.81007 0.8094 0.0
C218 C 0.98319 0.72584 0.72544 0.0
C219 C 0.9875 0.68675 0.68719 0.0
C220 C 0.2275 0.00897 0.77279 0.0
C221 C 0.18788 0.00608 0.81057 0.0
C222 C 0.27316 0.0091 0.72768 0.0
C223 C 0.31123 0.00627 0.68833 0.0
C224 C 0.0076 0.26945 0.7239 0.0
C225 C 0.0052 0.30865 0.68567 0.0
C226 C 0.00753 0.22437 0.76957 0.0
C227 C 0.00504 0.18643 0.80905 0.0
C228 C 0.72603 0.98322 0.72546 0.0
C229 C 0.68763 0.98754 0.68651 0.0
C230 C 0.77092 0.98324 0.77142 0.0
C231 C 0.80933 0.98753 0.81036 0.0
C232 C 0.26982 0.27226 0.98394 0.0
C233 C 0.30914 0.31028 0.98802 0.0
C234 C 0.2242 0.22705 0.98401 0.0
C235 C 0.18599 0.18792 0.98808 0.0
C236 C 0.26952 0.72415 0.01149 0.0
C237 C 0.30906 0.6863 0.00792 0.0
C238 C 0.22397 0.76943 0.01138 0.0
C239 C 0.18603 0.80886 0.00768 0.0
C240 C 0.72435 0.2697 0.00694 0.0
C241 C 0.68629 0.30907 0.00466 0.0
C242 C 0.76959 0.22422 0.00701 0.0
C243 C 0.80886 0.18604 0.00481 0.0
C244 C 0.77267 0.76949 0.98912 0.0
C245 C 0.8106 0.809 0.99165 0.0
C246 C 0.72745 0.72395 0.98903 0.0
C247 C 0.68809 0.68585 0.99144 0.0
C248 C 0.72438 0.50664 0.76987 0.0
C249 C 0.68606 0.50449 0.80901 0.0
C250 C 0.77 0.50657 0.72475 0.0
C251 C 0.80939 0.50443 0.6867 0.0
C252 C 0.22469 0.49047 0.72675 0.0
C253 C 0.18646 0.49249 0.68753 0.0
C254 C 0.27012 0.49053 0.77204 0.0
C255 C 0.30934 0.49259 0.81027 0.0
C256 C 0.22638 0.50617 0.27185 0.0
C257 C 0.18709 0.50421 0.31001 0.0
C258 C 0.272 0.50621 0.22674 0.0
C259 C 0.31043 0.50423 0.18771 0.0
C260 C 0.72421 0.48479 0.22713 0.0
C261 C 0.68637 0.48854 0.1876 0.0
C262 C 0.7694 0.48487 0.27277 0.0
C263 C 0.8087 0.48874 0.31083 0.0
C264 C 0.26953 0.77296 0.48528 0.0
C265 C 0.30899 0.8109 0.4889 0.0
C266 C 0.22404 0.72764 0.48539 0.0
C267 C 0.18606 0.68824 0.48907 0.0
C268 C 0.22706 0.27278 0.51193 0.0
C269 C 0.1876 0.3107 0.50815 0.0
C270 C 0.27266 0.22757 0.51187 0.0
C271 C 0.31076 0.18829 0.50807 0.0
C272 C 0.77279 0.72768 0.50941 0.0
C273 C 0.81081 0.6883 0.50638 0.0
C274 C 0.72736 0.77303 0.50948 0.0
C275 C 0.68792 0.81101 0.50645 0.0
C276 C 0.72428 0.22748 0.4892 0.0
C277 C 0.68633 0.18802 0.49164 0.0
C278 C 0.76949 0.27301 0.48914 0.0
C279 C 0.80882 0.31111 0.4915 0.0
C280 C 0.48339 0.27025 0.77187 0.0
C281 C 0.48754 0.30946 0.81001 0.0
C282 C 0.48344 0.22464 0.72663 0.0
C283 C 0.48773 0.18634 0.68758 0.0
C284 C 0.50745 0.7694 0.72395 0.0
C285 C 0.50511 0.80874 0.68585 0.0
C286 C 0.50739 0.72418 0.76948 0.0
C287 C 0.50497 0.68624 0.80898 0.0
C288 C 0.49034 0.72681 0.22456 0.0
C289 C 0.49243 0.6877 0.18621 0.0
C290 C 0.49037 0.772 0.27009 0.0
C291 C 0.49244 0.81018 0.30937 0.0
C292 C 0.51161 0.22411 0.2694 0.0
C293 C 0.50784 0.18609 0.30874 0.0
C294 C 0.51172 0.26969 0.22418 0.0
C295 C 0.50803 0.30918 0.1863 0.0
loop_
_geom_bond_atom_site_label_1
_geom_bond_atom_site_label_2
_geom_bond_distance
_geom_bond_site_symmetry_2
_ccdc_geom_bond_type
C0 O28 1.281 . S
C0 O37 1.281 . S
C1 O29 1.281 . S
C1 O47 1.281 . S
O2 Hf6 2.202 . S
O2 Hf8 2.202 . S
O2 Hf10 2.202 . S
O3 Hf6 2.202 1_665 S
O3 Hf12 2.202 1_655 S
O3 Hf13 2.202 1_565 S
O4 Hf6 2.072 1_565 S
O4 Hf10 2.072 1_565 S
O4 Hf12 2.072 . S
O5 Hf6 2.072 1_655 S
O5 Hf8 2.072 1_655 S
O5 Hf13 2.072 . S
Hf6 O2 2.202 . S
Hf6 O3 2.202 1_445 S
Hf6 O4 2.072 1_545 S
Hf6 O5 2.072 1_455 S
Hf6 O20 2.209 1_545 S
Hf6 O21 2.209 1_455 S
Hf6 O36 2.209 1_545 S
Hf6 O37 2.209 1_455 S
O7 Hf8 2.072 1_556 S
O7 Hf10 2.072 1_556 S
O7 Hf15 2.072 . S
Hf8 O2 2.202 . S
Hf8 O5 2.072 1_455 S
Hf8 O7 2.072 1_554 S
Hf8 O11 2.202 1_454 S
Hf8 O27 2.209 1_554 S
Hf8 O28 2.209 1_455 S
Hf8 O43 2.209 1_554 S
Hf8 O47 2.209 1_455 S
O9 Hf10 2.202 1_566 S
O9 Hf12 2.202 1_556 S
O9 Hf15 2.202 1_565 S
Hf10 O2 2.202 . S
Hf10 O4 2.072 1_545 S
Hf10 O7 2.072 1_554 S
Hf10 O9 2.202 1_544 S
Hf10 O32 2.209 1_545 S
Hf10 O33 2.209 1_554 S
Hf10 O40 2.209 1_554 S
Hf10 O42 2.209 1_545 S
O11 Hf8 2.202 1_656 S
O11 Hf13 2.202 1_556 S
O11 Hf15 2.202 1_655 S
Hf12 O3 2.202 1_455 S
Hf12 O4 2.072 . S
Hf12 O9 2.202 1_554 S
Hf12 O14 2.072 1_454 S
Hf12 O24 2.209 1_454 S
Hf12 O25 2.209 . S
Hf12 O45 2.209 . S
Hf12 O46 2.209 1_454 S
Hf13 O3 2.202 1_545 S
Hf13 O5 2.072 . S
Hf13 O11 2.202 1_554 S
Hf13 O14 2.072 1_544 S
Hf13 O29 2.209 . S
Hf13 O30 2.209 1_544 S
Hf13 O39 2.209 1_544 S
Hf13 O44 2.209 . S
O14 Hf12 2.072 1_656 S
O14 Hf13 2.072 1_566 S
O14 Hf15 2.072 1_665 S
Hf15 O7 2.072 . S
Hf15 O9 2.202 1_545 S
Hf15 O11 2.202 1_455 S
Hf15 O14 2.072 1_445 S
Hf15 O23 2.209 1_445 S
Hf15 O26 2.209 . S
Hf15 O35 2.209 . S
Hf15 O38 2.209 1_445 S
C16 O30 1.281 . S
C16 O46 1.281 . S
C17 O33 1.281 . S
C17 O43 1.281 . S
C18 O32 1.281 . S
C18 O45 1.281 . S
C19 O20 1.281 . S
C19 O42 1.281 . S
O20 Hf6 2.209 1_565 S
O20 C19 1.281 . S
O21 Hf6 2.209 1_655 S
O21 C22 1.281 . S
C22 O21 1.281 . S
C22 O44 1.281 . S
O23 Hf15 2.209 1_665 S
O23 C34 1.281 . S
O24 Hf12 2.209 1_656 S
O24 C41 1.281 . S
O25 Hf12 2.209 . S
O25 C49 1.281 . S
O26 Hf15 2.209 . S
O26 C31 1.281 . S
O27 Hf8 2.209 1_556 S
O27 C48 1.281 . S
O28 C0 1.281 . S
O28 Hf8 2.209 1_655 S
O29 C1 1.281 . S
O29 Hf13 2.209 . S
O30 Hf13 2.209 1_566 S
O30 C16 1.281 . S
C31 O26 1.281 . S
C31 O40 1.281 . S
O32 Hf10 2.209 1_565 S
O32 C18 1.281 . S
O33 Hf10 2.209 1_556 S
O33 C17 1.281 . S
C34 O23 1.281 . S
C34 O39 1.281 . S
O35 Hf15 2.209 . S
O35 C48 1.281 . S
O36 Hf6 2.209 1_565 S
O36 C49 1.281 . S
O37 C0 1.281 . S
O37 Hf6 2.209 1_655 S
O38 Hf15 2.209 1_665 S
O38 C41 1.281 . S
O39 Hf13 2.209 1_566 S
O39 C34 1.281 . S
O40 Hf10 2.209 1_556 S
O40 C31 1.281 . S
C41 O24 1.281 . S
C41 O38 1.281 . S
O42 Hf10 2.209 1_565 S
O42 C19 1.281 . S
O43 Hf8 2.209 1_556 S
O43 C17 1.281 . S
O44 Hf13 2.209 . S
O44 C22 1.281 . S
O45 Hf12 2.209 . S
O45 C18 1.281 . S
O46 Hf12 2.209 1_656 S
O46 C16 1.281 . S
O47 C1 1.281 . S
O47 Hf8 2.209 1_655 S
C48 O27 1.281 . S
C48 O35 1.281 . S
C49 O25 1.281 . S
C49 O36 1.281 . S
C50 O78 1.281 . S
C50 O87 1.281 . S
C51 O79 1.281 . S
C51 O97 1.281 . S
O52 Hf56 2.202 . S
O52 Hf58 2.202 . S
O52 Hf60 2.202 . S
O53 Hf56 2.202 1_655 S
O53 Hf62 2.202 1_655 S
O53 Hf63 2.202 . S
O54 Hf56 2.072 . S
O54 Hf60 2.072 . S
O54 Hf62 2.072 . S
O55 Hf56 2.072 1_655 S
O55 Hf58 2.072 1_655 S
O55 Hf63 2.072 . S
Hf56 O52 2.202 . S
Hf56 O53 2.202 1_455 S
Hf56 O54 2.072 . S
Hf56 O55 2.072 1_455 S
Hf56 O70 2.209 . S
Hf56 O71 2.209 1_455 S
Hf56 O86 2.209 . S
Hf56 O87 2.209 1_455 S
O57 Hf58 2.072 . S
O57 Hf60 2.072 . S
O57 Hf65 2.072 . S
Hf58 O52 2.202 . S
Hf58 O55 2.072 1_455 S
Hf58 O57 2.072 . S
Hf58 O61 2.202 1_455 S
Hf58 O77 2.209 . S
Hf58 O78 2.209 1_455 S
Hf58 O93 2.209 . S
Hf58 O97 2.209 1_455 S
O59 Hf60 2.202 . S
O59 Hf62 2.202 . S
O59 Hf65 2.202 . S
Hf60 O52 2.202 . S
Hf60 O54 2.072 . S
Hf60 O57 2.072 . S
Hf60 O59 2.202 . S
Hf60 O82 2.209 . S
Hf60 O83 2.209 . S
Hf60 O90 2.209 . S
Hf60 O92 2.209 . S
O61 Hf58 2.202 1_655 S
O61 Hf63 2.202 . S
O61 Hf65 2.202 1_655 S
Hf62 O53 2.202 1_455 S
Hf62 O54 2.072 . S
Hf62 O59 2.202 . S
Hf62 O64 2.072 1_455 S
Hf62 O74 2.209 1_455 S
Hf62 O75 2.209 . S
Hf62 O95 2.209 . S
Hf62 O96 2.209 1_455 S
Hf63 O53 2.202 . S
Hf63 O55 2.072 . S
Hf63 O61 2.202 . S
Hf63 O64 2.072 . S
Hf63 O79 2.209 . S
Hf63 O80 2.209 . S
Hf63 O89 2.209 . S
Hf63 O94 2.209 . S
O64 Hf62 2.072 1_655 S
O64 Hf63 2.072 . S
O64 Hf65 2.072 1_655 S
Hf65 O57 2.072 . S
Hf65 O59 2.202 . S
Hf65 O61 2.202 1_455 S
Hf65 O64 2.072 1_455 S
Hf65 O73 2.209 1_455 S
Hf65 O76 2.209 . S
Hf65 O85 2.209 . S
Hf65 O88 2.209 1_455 S
C66 O80 1.281 . S
C66 O96 1.281 . S
C67 O83 1.281 . S
C67 O93 1.281 . S
C68 O82 1.281 . S
C68 O95 1.281 . S
C69 O70 1.281 . S
C69 O92 1.281 . S
O70 Hf56 2.209 . S
O70 C69 1.281 . S
O71 Hf56 2.209 1_655 S
O71 C72 1.281 . S
C72 O71 1.281 . S
C72 O94 1.281 . S
O73 Hf65 2.209 1_655 S
O73 C84 1.281 . S
O74 Hf62 2.209 1_655 S
O74 C91 1.281 . S
O75 Hf62 2.209 . S
O75 C99 1.281 . S
O76 Hf65 2.209 . S
O76 C81 1.281 . S
O77 Hf58 2.209 . S
O77 C98 1.281 . S
O78 C50 1.281 . S
O78 Hf58 2.209 1_655 S
O79 C51 1.281 . S
O79 Hf63 2.209 . S
O80 Hf63 2.209 . S
O80 C66 1.281 . S
C81 O76 1.281 . S
C81 O90 1.281 . S
O82 Hf60 2.209 . S
O82 C68 1.281 . S
O83 Hf60 2.209 . S
O83 C67 1.281 . S
C84 O73 1.281 . S
C84 O89 1.281 . S
O85 Hf65 2.209 . S
O85 C98 1.281 . S
O86 Hf56 2.209 . S
O86 C99 1.281 . S
O87 C50 1.281 . S
O87 Hf56 2.209 1_655 S
O88 Hf65 2.209 1_655 S
O88 C91 1.281 . S
O89 Hf63 2.209 . S
O89 C84 1.281 . S
O90 Hf60 2.209 . S
O90 C81 1.281 . S
C91 O74 1.281 . S
C91 O88 1.281 . S
O92 Hf60 2.209 . S
O92 C69 1.281 . S
O93 Hf58 2.209 . S
O93 C67 1.281 . S
O94 Hf63 2.209 . S
O94 C72 1.281 . S
O95 Hf62 2.209 . S
O95 C68 1.281 . S
O96 Hf62 2.209 1_655 S
O96 C66 1.281 . S
O97 C51 1.281 . S
O97 Hf58 2.209 1_655 S
C98 O77 1.281 . S
C98 O85 1.281 . S
C99 O75 1.281 . S
C99 O86 1.281 . S
C100 O128 1.281 . S
C100 O137 1.281 . S
C101 O129 1.281 . S
C101 O147 1.281 . S
O102 Hf106 2.202 . S
O102 Hf108 2.202 . S
O102 Hf110 2.202 . S
O103 Hf106 2.202 1_565 S
O103 Hf112 2.202 . S
O103 Hf113 2.202 1_565 S
O104 Hf106 2.072 1_565 S
O104 Hf110 2.072 1_565 S
O104 Hf112 2.072 . S
O105 Hf106 2.072 . S
O105 Hf108 2.072 . S
O105 Hf113 2.072 . S
Hf106 O102 2.202 . S
Hf106 O103 2.202 1_545 S
Hf106 O104 2.072 1_545 S
Hf106 O105 2.072 . S
Hf106 O120 2.209 1_545 S
Hf106 O121 2.209 . S
Hf106 O136 2.209 1_545 S
Hf106 O137 2.209 . S
O107 Hf108 2.072 . S
O107 Hf110 2.072 . S
O107 Hf115 2.072 . S
Hf108 O102 2.202 . S
Hf108 O105 2.072 . S
Hf108 O107 2.072 . S
Hf108 O111 2.202 . S
Hf108 O127 2.209 . S
Hf108 O128 2.209 . S
Hf108 O143 2.209 . S
Hf108 O147 2.209 . S
O109 Hf110 2.202 1_565 S
O109 Hf112 2.202 . S
O109 Hf115 2.202 1_565 S
Hf110 O102 2.202 . S
Hf110 O104 2.072 1_545 S
Hf110 O107 2.072 . S
Hf110 O109 2.202 1_545 S
Hf110 O132 2.209 1_545 S
Hf110 O133 2.209 . S
Hf110 O140 2.209 . S
Hf110 O142 2.209 1_545 S
O111 Hf108 2.202 . S
O111 Hf113 2.202 . S
O111 Hf115 2.202 . S
Hf112 O103 2.202 . S
Hf112 O104 2.072 . S
Hf112 O109 2.202 . S
Hf112 O114 2.072 . S
Hf112 O124 2.209 . S
Hf112 O125 2.209 . S
Hf112 O145 2.209 . S
Hf112 O146 2.209 . S
Hf113 O103 2.202 1_545 S
Hf113 O105 2.072 . S
Hf113 O111 2.202 . S
Hf113 O114 2.072 1_545 S
Hf113 O129 2.209 . S
Hf113 O130 2.209 1_545 S
Hf113 O139 2.209 1_545 S
Hf113 O144 2.209 . S
O114 Hf112 2.072 . S
O114 Hf113 2.072 1_565 S
O114 Hf115 2.072 1_565 S
Hf115 O107 2.072 . S
Hf115 O109 2.202 1_545 S
Hf115 O111 2.202 . S
Hf115 O114 2.072 1_545 S
Hf115 O123 2.209 1_545 S
Hf115 O126 2.209 . S
Hf115 O135 2.209 . S
Hf115 O138 2.209 1_545 S
C116 O130 1.281 . S
C116 O146 1.281 . S
C117 O133 1.281 . S
C117 O143 1.281 . S
C118 O132 1.281 . S
C118 O145 1.281 . S
C119 O120 1.281 . S
C119 O142 1.281 . S
O120 Hf106 2.209 1_565 S
O120 C119 1.281 . S
O121 Hf106 2.209 . S
O121 C122 1.281 . S
C122 O121 1.281 . S
C122 O144 1.281 . S
O123 Hf115 2.209 1_565 S
O123 C134 1.281 . S
O124 Hf112 2.209 . S
O124 C141 1.281 . S
O125 Hf112 2.209 . S
O125 C149 1.281 . S
O126 Hf115 2.209 . S
O126 C131 1.281 . S
O127 Hf108 2.209 . S
O127 C148 1.281 . S
O128 C100 1.281 . S
O128 Hf108 2.209 . S
O129 C101 1.281 . S
O129 Hf113 2.209 . S
O130 Hf113 2.209 1_565 S
O130 C116 1.281 . S
C131 O126 1.281 . S
C131 O140 1.281 . S
O132 Hf110 2.209 1_565 S
O132 C118 1.281 . S
O133 Hf110 2.209 . S
O133 C117 1.281 . S
C134 O123 1.281 . S
C134 O139 1.281 . S
O135 Hf115 2.209 . S
O135 C148 1.281 . S
O136 Hf106 2.209 1_565 S
O136 C149 1.281 . S
O137 C100 1.281 . S
O137 Hf106 2.209 . S
O138 Hf115 2.209 1_565 S
O138 C141 1.281 . S
O139 Hf113 2.209 1_565 S
O139 C134 1.281 . S
O140 Hf110 2.209 . S
O140 C131 1.281 . S
C141 O124 1.281 . S
C141 O138 1.281 . S
O142 Hf110 2.209 1_565 S
O142 C119 1.281 . S
O143 Hf108 2.209 . S
O143 C117 1.281 . S
O144 Hf113 2.209 . S
O144 C122 1.281 . S
O145 Hf112 2.209 . S
O145 C118 1.281 . S
O146 Hf112 2.209 . S
O146 C116 1.281 . S
O147 C101 1.281 . S
O147 Hf108 2.209 . S
C148 O127 1.281 . S
C148 O135 1.281 . S
C149 O125 1.281 . S
C149 O136 1.281 . S
C150 O178 1.281 . S
C150 O187 1.281 . S
C151 O179 1.281 . S
C151 O197 1.281 . S
O152 Hf156 2.202 . S
O152 Hf158 2.202 . S
O152 Hf160 2.202 . S
O153 Hf156 2.202 . S
O153 Hf162 2.202 . S
O153 Hf163 2.202 . S
O154 Hf156 2.072 . S
O154 Hf160 2.072 . S
O154 Hf162 2.072 . S
O155 Hf156 2.072 . S
O155 Hf158 2.072 . S
O155 Hf163 2.072 . S
Hf156 O152 2.202 . S
Hf156 O153 2.202 . S
Hf156 O154 2.072 . S
Hf156 O155 2.072 . S
Hf156 O170 2.209 . S
Hf156 O171 2.209 . S
Hf156 O186 2.209 . S
Hf156 O187 2.209 . S
O157 Hf158 2.072 1_556 S
O157 Hf160 2.072 1_556 S
O157 Hf165 2.072 . S
Hf158 O152 2.202 . S
Hf158 O155 2.072 . S
Hf158 O157 2.072 1_554 S
Hf158 O161 2.202 1_554 S
Hf158 O177 2.209 1_554 S
Hf158 O178 2.209 . S
Hf158 O193 2.209 1_554 S
Hf158 O197 2.209 . S
O159 Hf160 2.202 1_556 S
O159 Hf162 2.202 1_556 S
O159 Hf165 2.202 . S
Hf160 O152 2.202 . S
Hf160 O154 2.072 . S
Hf160 O157 2.072 1_554 S
Hf160 O159 2.202 1_554 S
Hf160 O182 2.209 . S
Hf160 O183 2.209 1_554 S
Hf160 O190 2.209 1_554 S
Hf160 O192 2.209 . S
O161 Hf158 2.202 1_556 S
O161 Hf163 2.202 1_556 S
O161 Hf165 2.202 . S
Hf162 O153 2.202 . S
Hf162 O154 2.072 . S
Hf162 O159 2.202 1_554 S
Hf162 O164 2.072 1_554 S
Hf162 O174 2.209 1_554 S
Hf162 O175 2.209 . S
Hf162 O195 2.209 . S
Hf162 O196 2.209 1_554 S
Hf163 O153 2.202 . S
Hf163 O155 2.072 . S
Hf163 O161 2.202 1_554 S
Hf163 O164 2.072 1_554 S
Hf163 O179 2.209 . S
Hf163 O180 2.209 1_554 S
Hf163 O189 2.209 1_554 S
Hf163 O194 2.209 . S
O164 Hf162 2.072 1_556 S
O164 Hf163 2.072 1_556 S
O164 Hf165 2.072 . S
Hf165 O157 2.072 . S
Hf165 O159 2.202 . S
Hf165 O161 2.202 . S
Hf165 O164 2.072 . S
Hf165 O173 2.209 . S
Hf165 O176 2.209 . S
Hf165 O185 2.209 . S
Hf165 O188 2.209 . S
C166 O180 1.281 . S
C166 O196 1.281 . S
C167 O183 1.281 . S
C167 O193 1.281 . S
C168 O182 1.281 . S
C168 O195 1.281 . S
C169 O170 1.281 . S
C169 O192 1.281 . S
O170 Hf156 2.209 . S
O170 C169 1.281 . S
O171 Hf156 2.209 . S
O171 C172 1.281 . S
C172 O171 1.281 . S
C172 O194 1.281 . S
O173 Hf165 2.209 . S
O173 C184 1.281 . S
O174 Hf162 2.209 1_556 S
O174 C191 1.281 . S
O175 Hf162 2.209 . S
O175 C199 1.281 . S
O176 Hf165 2.209 . S
O176 C181 1.281 . S
O177 Hf158 2.209 1_556 S
O177 C198 1.281 . S
O178 C150 1.281 . S
O178 Hf158 2.209 . S
O179 C151 1.281 . S
O179 Hf163 2.209 . S
O180 Hf163 2.209 1_556 S
O180 C166 1.281 . S
C181 O176 1.281 . S
C181 O190 1.281 . S
O182 Hf160 2.209 . S
O182 C168 1.281 . S
O183 Hf160 2.209 1_556 S
O183 C167 1.281 . S
C184 O173 1.281 . S
C184 O189 1.281 . S
O185 Hf165 2.209 . S
O185 C198 1.281 . S
O186 Hf156 2.209 . S
O186 C199 1.281 . S
O187 C150 1.281 . S
O187 Hf156 2.209 . S
O188 Hf165 2.209 . S
O188 C191 1.281 . S
O189 Hf163 2.209 1_556 S
O189 C184 1.281 . S
O190 Hf160 2.209 1_556 S
O190 C181 1.281 . S
C191 O174 1.281 . S
C191 O188 1.281 . S
O192 Hf160 2.209 . S
O192 C169 1.281 . S
O193 Hf158 2.209 1_556 S
O193 C167 1.281 . S
O194 Hf163 2.209 . S
O194 C172 1.281 . S
O195 Hf162 2.209 . S
O195 C168 1.281 . S
O196 Hf162 2.209 1_556 S
O196 C166 1.281 . S
O197 C151 1.281 . S
O197 Hf158 2.209 . S
C198 O177 1.281 . S
C198 O185 1.281 . S
C199 O175 1.281 . S
C199 O186 1.281 . S
C200 C201 1.170 . S
C200 C202 1.380 . S
C201 C200 1.170 . S
C202 C200 1.380 . S
C202 C203 1.170 . S
C203 C202 1.170 . S
C204 C205 1.170 . S
C204 C206 1.380 . S
C205 C204 1.170 . S
C206 C204 1.380 . S
C206 C207 1.170 . S
C207 C206 1.170 . S
C208 C209 1.170 . S
C208 C210 1.380 . S
C209 C208 1.170 . S
C210 C208 1.380 . S
C210 C211 1.170 . S
C211 C210 1.170 . S
C212 C213 1.170 . S
C212 C214 1.380 . S
C213 C212 1.170 . S
C214 C212 1.380 . S
C214 C215 1.170 . S
C215 C214 1.170 . S
C216 C217 1.170 . S
C216 C218 1.380 . S
C217 C216 1.170 . S
C218 C216 1.380 . S
C218 C219 1.170 . S
C219 C218 1.170 . S
C220 C221 1.170 . S
C220 C222 1.380 . S
C221 C220 1.170 . S
C222 C220 1.380 . S
C222 C223 1.170 . S
C223 C222 1.170 . S
C224 C225 1.170 . S
C224 C226 1.380 . S
C225 C224 1.170 . S
C226 C224 1.380 . S
C226 C227 1.170 . S
C227 C226 1.170 . S
C228 C229 1.170 . S
C228 C230 1.380 . S
C229 C228 1.170 . S
C230 C228 1.380 . S
C230 C231 1.170 . S
C231 C230 1.170 . S
C232 C233 1.170 . S
C232 C234 1.380 . S
C233 C232 1.170 . S
C234 C232 1.380 . S
C234 C235 1.170 . S
C235 C234 1.170 . S
C236 C237 1.170 . S
C236 C238 1.380 . S
C237 C236 1.170 . S
C238 C236 1.380 . S
C238 C239 1.170 . S
C239 C238 1.170 . S
C240 C241 1.170 . S
C240 C242 1.380 . S
C241 C240 1.170 . S
C242 C240 1.380 . S
C242 C243 1.170 . S
C243 C242 1.170 . S
C244 C245 1.170 . S
C244 C246 1.380 . S
C245 C244 1.170 . S
C246 C244 1.380 . S
C246 C247 1.170 . S
C247 C246 1.170 . S
C248 C249 1.170 . S
C248 C250 1.380 . S
C249 C248 1.170 . S
C250 C248 1.380 . S
C250 C251 1.170 . S
C251 C250 1.170 . S
C252 C253 1.170 . S
C252 C254 1.380 . S
C253 C252 1.170 . S
C254 C252 1.380 . S
C254 C255 1.170 . S
C255 C254 1.170 . S
C256 C257 1.170 . S
C256 C258 1.380 . S
C257 C256 1.170 . S
C258 C256 1.380 . S
C258 C259 1.170 . S
C259 C258 1.170 . S
C260 C261 1.170 . S
C260 C262 1.380 . S
C261 C260 1.170 . S
C262 C260 1.380 . S
C262 C263 1.170 . S
C263 C262 1.170 . S
C264 C265 1.170 . S
C264 C266 1.380 . S
C265 C264 1.170 . S
C266 C264 1.380 . S
C266 C267 1.170 . S
C267 C266 1.170 . S
C268 C269 1.170 . S
C268 C270 1.380 . S
C269 C268 1.170 . S
C270 C268 1.380 . S
C270 C271 1.170 . S
C271 C270 1.170 . S
C272 C273 1.170 . S
C272 C274 1.380 . S
C273 C272 1.170 . S
C274 C272 1.380 . S
C274 C275 1.170 . S
C275 C274 1.170 . S
C276 C277 1.170 . S
C276 C278 1.380 . S
C277 C276 1.170 . S
C278 C276 1.380 . S
C278 C279 1.170 . S
C279 C278 1.170 . S
C280 C281 1.170 . S
C280 C282 1.380 . S
C281 C280 1.170 . S
C282 C280 1.380 . S
C282 C283 1.170 . S
C283 C282 1.170 . S
C284 C285 1.170 . S
C284 C286 1.380 . S
C285 C284 1.170 . S
C286 C284 1.380 . S
C286 C287 1.170 . S
C287 C286 1.170 . S
C288 C289 1.170 . S
C288 C290 1.380 . S
C289 C288 1.170 . S
C290 C288 1.380 . S
C290 C291 1.170 . S
C291 C290 1.170 . S
C292 C293 1.170 . S
C292 C294 1.380 . S
C293 C292 1.170 . S
C294 C292 1.380 . S
C294 C295 1.170 . S
C295 C294 1.170 . S
C201 C0 1.495 . S
C203 C91 1.491 . S
C205 C22 1.495 . S
C207 C131 1.494 . S
C209 C49 1.495 . S
C211 C98 1.494 . S
C213 C134 1.499 . S
C215 C19 1.495 . S
C217 C41 1.498 . S
C219 C50 1.502 . S
C221 C31 1.495 . S
C223 C122 1.496 . S
C225 C99 1.495 . S
C227 C48 1.494 . S
C229 C119 1.498 . S
C231 C34 1.502 . S
C233 C166 1.498 . S
C235 C17 1.494 . S
C237 C151 1.498 . S
C239 C18 1.496 . S
C241 C168 1.494 . S
C243 C1 1.495 . S
C245 C16 1.494 . S
C247 C167 1.498 . S
C249 C181 1.494 . S
C251 C72 1.497 . S
C253 C69 1.494 . S
C255 C184 1.493 . S
C257 C81 1.493 . S
C259 C172 1.491 . S
C261 C169 1.498 . S
C263 C84 1.497 . S
C265 C116 1.498 . S
C267 C67 1.496 . S
C269 C68 1.498 . S
C271 C101 1.494 . S
C273 C51 1.495 . S
C275 C118 1.500 . S
C277 C117 1.494 . S
C279 C66 1.495 . S
C281 C191 1.499 . S
C283 C100 1.498 . S
C285 C149 1.495 . S
C287 C198 1.497 . S
C289 C150 1.494 . S
C291 C141 1.493 . S
C293 C148 1.497 . S
C295 C199 1.495 . S
