# Generated by pormake.
# Topology unp, (4)-cn, num edge types: 1
# Building blocks:
#     Node 0, Type 0, BuildingBlock: KUFVIS_clean_sbu_0, # of connection points: 4
#     Node 1, Type 0, BuildingBlock: KUFVIS_clean_sbu_0, # of connection points: 4
#     Node 2, Type 0, BuildingBlock: KUFVIS_clean_sbu_0, # of connection points: 4
#     Node 3, Type 0, BuildingBlock: KUFVIS_clean_sbu_0, # of connection points: 4
#     Node 4, Type 0, BuildingBlock: KUFVIS_clean_sbu_0, # of connection points: 4
#     Node 5, Type 0, BuildingBlock: KUFVIS_clean_sbu_0, # of connection points: 4
#     Node 6, Type 0, BuildingBlock: KUFVIS_clean_sbu_0, # of connection points: 4
#     Node 7, Type 0, BuildingBlock: KUFVIS_clean_sbu_0, # of connection points: 4
#     Node 8, Type 0, BuildingBlock: KUFVIS_clean_sbu_0, # of connection points: 4
#     Node 9, Type 0, BuildingBlock: KUFVIS_clean_sbu_0, # of connection points: 4
#     Node 10, Type 0, BuildingBlock: KUFVIS_clean_sbu_0, # of connection points: 4
#     Node 11, Type 0, BuildingBlock: KUFVIS_clean_sbu_0, # of connection points: 4
#     Node 12, Type 0, BuildingBlock: KUFVIS_clean_sbu_0, # of connection points: 4
#     Node 13, Type 0, BuildingBlock: KUFVIS_clean_sbu_0, # of connection points: 4
#     Node 14, Type 0, BuildingBlock: KUFVIS_clean_sbu_0, # of connection points: 4
#     Node 15, Type 0, BuildingBlock: KUFVIS_clean_sbu_0, # of connection points: 4
#     Node 16, Type 0, BuildingBlock: KUFVIS_clean_sbu_0, # of connection points: 4
#     Node 17, Type 0, BuildingBlock: KUFVIS_clean_sbu_0, # of connection points: 4
#     Edge 18, Type (0, 0), BuildingBlock: ZUJKAS_clean_linker_0, # of connection points: 2
#     Edge 19, Type (0, 0), BuildingBlock: ZUJKAS_clean_linker_0, # of connection points: 2
#     Edge 20, Type (0, 0), BuildingBlock: ZUJKAS_clean_linker_0, # of connection points: 2
#     Edge 21, Type (0, 0), BuildingBlock: ZUJKAS_clean_linker_0, # of connection points: 2
#     Edge 22, Type (0, 0), BuildingBlock: ZUJKAS_clean_linker_0, # of connection points: 2
#     Edge 23, Type (0, 0), BuildingBlock: ZUJKAS_clean_linker_0, # of connection points: 2
#     Edge 24, Type (0, 0), BuildingBlock: ZUJKAS_clean_linker_0, # of connection points: 2
#     Edge 25, Type (0, 0), BuildingBlock: ZUJKAS_clean_linker_0, # of connection points: 2
#     Edge 26, Type (0, 0), BuildingBlock: ZUJKAS_clean_linker_0, # of connection points: 2
#     Edge 27, Type (0, 0), BuildingBlock: ZUJKAS_clean_linker_0, # of connection points: 2
#     Edge 28, Type (0, 0), BuildingBlock: ZUJKAS_clean_linker_0, # of connection points: 2
#     Edge 29, Type (0, 0), BuildingBlock: ZUJKAS_clean_linker_0, # of connection points: 2
#     Edge 30, Type (0, 0), BuildingBlock: ZUJKAS_clean_linker_0, # of connection points: 2
#     Edge 31, Type (0, 0), BuildingBlock: ZUJKAS_clean_linker_0, # of connection points: 2
#     Edge 32, Type (0, 0), BuildingBlock: ZUJKAS_clean_linker_0, # of connection points: 2
#     Edge 33, Type (0, 0), BuildingBlock: ZUJKAS_clean_linker_0, # of connection points: 2
#     Edge 34, Type (0, 0), BuildingBlock: ZUJKAS_clean_linker_0, # of connection points: 2
#     Edge 35, Type (0, 0), BuildingBlock: ZUJKAS_clean_linker_0, # of connection points: 2
#     Edge 36, Type (0, 0), BuildingBlock: ZUJKAS_clean_linker_0, # of connection points: 2
#     Edge 37, Type (0, 0), BuildingBlock: ZUJKAS_clean_linker_0, # of connection points: 2
#     Edge 38, Type (0, 0), BuildingBlock: ZUJKAS_clean_linker_0, # of connection points: 2
#     Edge 39, Type (0, 0), BuildingBlock: ZUJKAS_clean_linker_0, # of connection points: 2
#     Edge 40, Type (0, 0), BuildingBlock: ZUJKAS_clean_linker_0, # of connection points: 2
#     Edge 41, Type (0, 0), BuildingBlock: ZUJKAS_clean_linker_0, # of connection points: 2
#     Edge 42, Type (0, 0), BuildingBlock: ZUJKAS_clean_linker_0, # of connection points: 2
#     Edge 43, Type (0, 0), BuildingBlock: ZUJKAS_clean_linker_0, # of connection points: 2
#     Edge 44, Type (0, 0), BuildingBlock: ZUJKAS_clean_linker_0, # of connection points: 2
#     Edge 45, Type (0, 0), BuildingBlock: ZUJKAS_clean_linker_0, # of connection points: 2
#     Edge 46, Type (0, 0), BuildingBlock: ZUJKAS_clean_linker_0, # of connection points: 2
#     Edge 47, Type (0, 0), BuildingBlock: ZUJKAS_clean_linker_0, # of connection points: 2
#     Edge 48, Type (0, 0), BuildingBlock: ZUJKAS_clean_linker_0, # of connection points: 2
#     Edge 49, Type (0, 0), BuildingBlock: ZUJKAS_clean_linker_0, # of connection points: 2
#     Edge 50, Type (0, 0), BuildingBlock: ZUJKAS_clean_linker_0, # of connection points: 2
#     Edge 51, Type (0, 0), BuildingBlock: ZUJKAS_clean_linker_0, # of connection points: 2
#     Edge 52, Type (0, 0), BuildingBlock: ZUJKAS_clean_linker_0, # of connection points: 2
#     Edge 53, Type (0, 0), BuildingBlock: ZUJKAS_clean_linker_0, # of connection points: 2
# Relax obj value: 0.413
# Max RMSD: 0.189
# Mean RMSD: 0.187
data_MOF--net-unp--node1-KUFVIS_clean_sbu_0--edge1-ZUJKAS_clean_linker_0
_symmetry_space_group_name_H-M    P1
_symmetry_Int_Tables_number       1
_symmetry_cell_setting            triclinic
loop_
_symmetry_equiv_pos_as_xyz
'x, y, z'
_cell_length_a     61.738445
_cell_length_b     61.726376
_cell_length_c     74.708717
_cell_angle_alpha  90.14185
_cell_angle_beta   89.830243
_cell_angle_gamma 120.19444
loop_
_atom_site_label
_atom_site_type_symbol
_atom_site_fract_x
_atom_site_fract_y
_atom_site_fract_z
_atom_type_partial_charge
Mn0 Mn 0.17462 0.16095 0.1273 0.0
Mn1 Mn 0.20577 0.13313 0.11106 0.0
C2 C 0.15854 0.11856 0.13121 0.0
C3 C 0.14601 0.17458 0.12391 0.0
C4 C 0.22028 0.16364 0.14521 0.0
O5 O 0.19893 0.18668 0.10968 0.0
O6 O 0.21767 0.16596 0.09912 0.0
C7 C 0.18623 0.12415 0.074 0.0
N8 N 0.1897 0.11516 0.08971 0.0
C9 C 0.16998 0.07317 0.07799 0.0
C10 C 0.16631 0.082 0.06165 0.0
C11 C 0.17442 0.10759 0.05967 0.0
C12 C 0.1819 0.09056 0.09178 0.0
H13 H 0.19243 0.1438 0.0724 0.0
C14 C 0.21442 0.1849 0.09933 0.0
O15 O 0.16347 0.18428 0.13597 0.0
O16 O 0.14575 0.1576 0.11349 0.0
N17 N 0.19597 0.10099 0.12113 0.0
C18 C 0.20004 0.09534 0.13796 0.0
C19 C 0.19242 0.07037 0.14228 0.0
C20 C 0.18101 0.05156 0.12922 0.0
C21 C 0.1774 0.05789 0.11191 0.0
C22 C 0.18539 0.08309 0.10838 0.0
H23 H 0.20887 0.10974 0.14804 0.0
O24 O 0.15159 0.13084 0.1416 0.0
O25 O 0.17443 0.13134 0.1186 0.0
O26 O 0.20301 0.16917 0.14477 0.0
O27 O 0.22319 0.15057 0.13319 0.0
C28 C 0.16587 0.04015 0.0981 0.0
C29 C 0.16205 0.04776 0.08118 0.0
H30 H 0.15715 0.06927 0.05058 0.0
H31 H 0.1716 0.11455 0.04712 0.0
H32 H 0.1953 0.06564 0.15566 0.0
H33 H 0.17501 0.0323 0.13263 0.0
H34 H 0.15967 0.02056 0.10038 0.0
H35 H 0.15287 0.03389 0.07075 0.0
Mn36 Mn 0.86191 0.04001 0.11741 0.0
Mn37 Mn 0.87888 0.08671 0.08739 0.0
C38 C 0.89832 0.07777 0.12128 0.0
C39 C 0.86087 0.00431 0.12841 0.0
C40 C 0.83989 0.07483 0.11564 0.0
O41 O 0.84082 0.02143 0.09587 0.0
O42 O 0.85151 0.05443 0.07764 0.0
C43 C 0.90077 0.06769 0.06062 0.0
N44 N 0.90319 0.08637 0.07166 0.0
C45 C 0.94576 0.11351 0.06209 0.0
C46 C 0.94366 0.09462 0.05053 0.0
C47 C 0.92109 0.07159 0.04983 0.0
C48 C 0.92487 0.10856 0.0725 0.0
H49 H 0.88348 0.04994 0.06005 0.0
C50 C 0.83871 0.03103 0.08137 0.0
O51 O 0.8438 0.00979 0.13268 0.0
O52 O 0.87824 0.01927 0.11735 0.0
N53 N 0.90526 0.11901 0.09475 0.0
C54 C 0.90457 0.13488 0.10716 0.0
C55 C 0.92591 0.15854 0.10983 0.0
C56 C 0.9476 0.16574 0.09958 0.0
C57 C 0.94773 0.14924 0.08671 0.0
C58 C 0.92589 0.12593 0.08461 0.0
H59 H 0.88796 0.12942 0.11508 0.0
O60 O 0.88724 0.06333 0.13491 0.0
O61 O 0.88779 0.06973 0.10574 0.0
O62 O 0.84026 0.05577 0.12173 0.0
O63 O 0.85437 0.08879 0.10321 0.0
C64 C 0.96879 0.15485 0.07606 0.0
C65 C 0.96785 0.13695 0.06383 0.0
H66 H 0.95931 0.09753 0.04222 0.0
H67 H 0.91935 0.05687 0.04101 0.0
H68 H 0.92567 0.17116 0.11979 0.0
H69 H 0.96409 0.18392 0.10178 0.0
H70 H 0.98588 0.17279 0.07727 0.0
H71 H 0.98428 0.14136 0.0559 0.0
Mn72 Mn 0.94959 0.81896 0.14708 0.0
Mn73 Mn 0.89003 0.77347 0.13973 0.0
C74 C 0.9168 0.82121 0.16013 0.0
C75 C 0.98424 0.85701 0.13916 0.0
C76 C 0.92633 0.76704 0.16331 0.0
O77 O 0.95228 0.80155 0.12487 0.0
O78 O 0.91148 0.77349 0.11967 0.0
C79 C 0.87808 0.79272 0.10722 0.0
N80 N 0.87321 0.78526 0.12463 0.0
C81 C 0.83829 0.79234 0.12554 0.0
C82 C 0.84288 0.80003 0.10761 0.0
C83 C 0.86288 0.80025 0.09842 0.0
C84 C 0.85395 0.78487 0.13357 0.0
H85 H 0.89347 0.79297 0.10013 0.0
C86 C 0.93484 0.7842 0.11553 0.0
O87 O 0.9866 0.8408 0.14876 0.0
O88 O 0.96188 0.85076 0.1338 0.0
N89 N 0.86786 0.77224 0.15818 0.0
C90 C 0.8673 0.76634 0.17579 0.0
C91 C 0.84911 0.7664 0.1871 0.0
C92 C 0.8317 0.77246 0.18017 0.0
C93 C 0.83269 0.77852 0.16199 0.0
C94 C 0.85119 0.77809 0.15137 0.0
H95 H 0.88073 0.76181 0.1812 0.0
O96 O 0.93898 0.83297 0.16725 0.0
O97 O 0.91458 0.80795 0.14602 0.0
O98 O 0.94464 0.78934 0.16211 0.0
O99 O 0.90532 0.75934 0.15553 0.0
C100 C 0.81633 0.78538 0.15408 0.0
C101 C 0.81912 0.79227 0.13586 0.0
H102 H 0.83131 0.80602 0.10081 0.0
H103 H 0.86661 0.80626 0.0846 0.0
H104 H 0.84856 0.76183 0.20113 0.0
H105 H 0.81779 0.77261 0.18895 0.0
H106 H 0.80176 0.78576 0.16194 0.0
H107 H 0.80666 0.79786 0.12999 0.0
Mn108 Mn 0.14906 0.1785 0.90141 0.0
Mn109 Mn 0.1271 0.21594 0.91521 0.0
C110 C 0.10873 0.16852 0.8944 0.0
C111 C 0.15595 0.14533 0.90676 0.0
C112 C 0.16253 0.22816 0.88373 0.0
O113 O 0.17402 0.19999 0.92046 0.0
O114 O 0.1564 0.22221 0.9301 0.0
C115 C 0.10896 0.19431 0.9512 0.0
N116 N 0.10441 0.20061 0.93475 0.0
C117 C 0.06144 0.18628 0.94248 0.0
C118 C 0.0657 0.1798 0.95955 0.0
C119 C 0.08955 0.18376 0.9639 0.0
C120 C 0.08151 0.19676 0.93038 0.0
H121 H 0.12725 0.19728 0.9546 0.0
C122 C 0.17329 0.21596 0.93092 0.0
O123 O 0.16925 0.16255 0.89508 0.0
O124 O 0.13915 0.14776 0.91554 0.0
N125 N 0.09853 0.21152 0.90215 0.0
C126 C 0.09709 0.21728 0.88476 0.0
C127 C 0.07422 0.2135 0.87805 0.0
C128 C 0.05316 0.20411 0.88932 0.0
C129 C 0.05516 0.19852 0.90721 0.0
C130 C 0.07842 0.20263 0.91314 0.0
H131 H 0.11324 0.22456 0.87605 0.0
O132 O 0.12002 0.15926 0.88517 0.0
O133 O 0.12126 0.18302 0.9077 0.0
O134 O 0.16379 0.2082 0.88425 0.0
O135 O 0.14976 0.23302 0.89484 0.0
C136 C 0.03491 0.18876 0.91933 0.0
C137 C 0.03799 0.18248 0.93691 0.0
H138 H 0.05076 0.17161 0.96937 0.0
H139 H 0.09296 0.17869 0.97702 0.0
H140 H 0.07282 0.21782 0.86422 0.0
H141 H 0.03553 0.20113 0.88408 0.0
H142 H 0.01679 0.18574 0.91522 0.0
H143 H 0.02215 0.17456 0.946 0.0
Mn144 Mn 0.82692 0.93086 0.88545 0.0
Mn145 Mn 0.78857 0.87344 0.9026 0.0
C146 C 0.83442 0.89845 0.87991 0.0
C147 C 0.86158 0.9709 0.8878 0.0
C148 C 0.77492 0.89456 0.87084 0.0
O149 O 0.8086 0.9377 0.90522 0.0
O150 O 0.78512 0.89889 0.91684 0.0
C151 C 0.81313 0.8795 0.93771 0.0
N152 N 0.80511 0.86721 0.92179 0.0
C153 C 0.82031 0.83934 0.92938 0.0
C154 C 0.82857 0.85159 0.94589 0.0
C155 C 0.82498 0.87178 0.95006 0.0
C156 C 0.80842 0.84772 0.91766 0.0
H157 H 0.81058 0.89514 0.94093 0.0
C158 C 0.79316 0.92252 0.91675 0.0
O159 O 0.84324 0.96616 0.87703 0.0
O160 O 0.8595 0.95248 0.89744 0.0
N161 N 0.79072 0.84743 0.89014 0.0
C162 C 0.78318 0.83872 0.87319 0.0
C163 C 0.78621 0.81903 0.86671 0.0
C164 C 0.79693 0.8085 0.87771 0.0
C165 C 0.80446 0.81773 0.89512 0.0
C166 C 0.80074 0.83721 0.90091 0.0
H167 H 0.77508 0.84684 0.86463 0.0
O168 O 0.84336 0.91759 0.86921 0.0
O169 O 0.82127 0.89892 0.89334 0.0
O170 O 0.79558 0.9152 0.87004 0.0
O171 O 0.77014 0.8778 0.88265 0.0
C172 C 0.81596 0.80868 0.90681 0.0
C173 C 0.82391 0.8195 0.92392 0.0
H174 H 0.83791 0.84583 0.9554 0.0
H175 H 0.83144 0.88143 0.96274 0.0
H176 H 0.78043 0.81208 0.85324 0.0
H177 H 0.79947 0.7935 0.87259 0.0
H178 H 0.81912 0.79366 0.90269 0.0
H179 H 0.8331 0.81265 0.93268 0.0
Mn180 Mn 0.06098 0.8542 0.92292 0.0
Mn181 Mn 0.10778 0.87507 0.95316 0.0
C182 C 0.09342 0.89525 0.92186 0.0
C183 C 0.02126 0.84579 0.91458 0.0
C184 C 0.10394 0.84316 0.92117 0.0
O185 O 0.04633 0.82761 0.94222 0.0
O186 O 0.07796 0.84397 0.96209 0.0
C187 C 0.08394 0.8884 0.98228 0.0
N188 N 0.10339 0.8951 0.97072 0.0
C189 C 0.12586 0.93667 0.98314 0.0
C190 C 0.10614 0.93019 0.99525 0.0
C191 C 0.08504 0.90598 0.99476 0.0
C192 C 0.12366 0.9184 0.97096 0.0
H193 H 0.06772 0.86979 0.982 0.0
C194 C 0.05585 0.82724 0.95724 0.0
O195 O 0.03155 0.83411 0.9072 0.0
O196 O 0.034 0.86222 0.92686 0.0
N197 N 0.13761 0.90528 0.94651 0.0
C198 C 0.15426 0.90902 0.9332 0.0
C199 C 0.17603 0.93257 0.93142 0.0
C200 C 0.18062 0.95189 0.9435 0.0
C201 C 0.16329 0.94754 0.95717 0.0
C202 C 0.14186 0.92375 0.9582 0.0
H203 H 0.15089 0.89419 0.92394 0.0
O204 O 0.07973 0.8847 0.90784 0.0
O205 O 0.08743 0.88158 0.93626 0.0
O206 O 0.08399 0.84134 0.91478 0.0
O207 O 0.11438 0.85518 0.9355 0.0
C208 C 0.16634 0.96593 0.96974 0.0
C209 C 0.14754 0.96058 0.9826 0.0
H210 H 0.10694 0.94369 0.00491 0.0
H211 H 0.0697 0.90086 0.00402 0.0
H212 H 0.18929 0.9358 0.92081 0.0
H213 H 0.19744 0.97003 0.94209 0.0
H214 H 0.18296 0.98435 0.96951 0.0
H215 H 0.14989 0.97504 0.99196 0.0
Mn216 Mn 0.82689 0.51078 0.43375 0.0
Mn217 Mn 0.84922 0.48791 0.40207 0.0
C218 C 0.82425 0.47243 0.43751 0.0
C219 C 0.79608 0.51606 0.44758 0.0
C220 C 0.88238 0.52703 0.42861 0.0
O221 O 0.82909 0.53163 0.41213 0.0
O222 O 0.8469 0.51689 0.39287 0.0
C223 C 0.8056 0.46878 0.37771 0.0
N224 N 0.82156 0.46467 0.38775 0.0
C225 C 0.8011 0.42139 0.37868 0.0
C226 C 0.78453 0.42521 0.36817 0.0
C227 C 0.78675 0.449 0.36774 0.0
C228 C 0.81947 0.44181 0.38837 0.0
H229 H 0.80722 0.48701 0.37729 0.0
C230 C 0.8389 0.53177 0.39707 0.0
O231 O 0.8197 0.53186 0.45003 0.0
O232 O 0.79034 0.49782 0.43638 0.0
N233 N 0.85228 0.45966 0.40882 0.0
C234 C 0.86928 0.45889 0.41999 0.0
C235 C 0.86927 0.43629 0.42218 0.0
C236 C 0.85204 0.41483 0.41268 0.0
C237 C 0.83502 0.41619 0.40101 0.0
C238 C 0.8359 0.43922 0.39938 0.0
H239 H 0.88257 0.47532 0.42732 0.0
O240 O 0.82419 0.48525 0.45128 0.0
O241 O 0.82592 0.48237 0.42187 0.0
O242 O 0.8649 0.52947 0.4356 0.0
O243 O 0.87875 0.51108 0.41639 0.0
C244 C 0.81707 0.39555 0.39105 0.0
C245 C 0.80001 0.3981 0.37999 0.0
H246 H 0.76998 0.41 0.36045 0.0
H247 H 0.77399 0.45208 0.3597 0.0
H248 H 0.88249 0.4354 0.4312 0.0
H249 H 0.852 0.3974 0.41448 0.0
H250 H 0.81609 0.37756 0.39189 0.0
H251 H 0.78609 0.38201 0.37258 0.0
Mn252 Mn 0.53477 0.38861 0.50087 0.0
Mn253 Mn 0.54567 0.44335 0.4832 0.0
C254 C 0.56786 0.42637 0.51095 0.0
C255 C 0.54097 0.3545 0.50151 0.0
C256 C 0.50133 0.41081 0.50717 0.0
O257 O 0.51655 0.37821 0.47687 0.0
O258 O 0.52795 0.41634 0.46528 0.0
C259 C 0.58124 0.45012 0.45415 0.0
N260 N 0.57599 0.45845 0.46955 0.0
C261 C 0.61671 0.49567 0.46953 0.0
C262 C 0.62255 0.48751 0.45366 0.0
C263 C 0.60475 0.46461 0.44596 0.0
C264 C 0.59297 0.48045 0.47707 0.0
H265 H 0.56761 0.43254 0.44818 0.0
C266 C 0.51713 0.39237 0.46413 0.0
O267 O 0.52118 0.35336 0.50853 0.0
O268 O 0.55686 0.37528 0.49366 0.0
N269 N 0.56331 0.47056 0.49958 0.0
C270 C 0.55541 0.47478 0.51556 0.0
C271 C 0.57145 0.49638 0.52542 0.0
C272 C 0.59537 0.51342 0.51872 0.0
C273 C 0.60308 0.50865 0.50223 0.0
C274 C 0.58629 0.48683 0.493 0.0
H275 H 0.53706 0.4617 0.52078 0.0
O276 O 0.55823 0.40686 0.52135 0.0
O277 O 0.55686 0.42312 0.49567 0.0
O278 O 0.50758 0.39461 0.51085 0.0
O279 O 0.51417 0.42963 0.49701 0.0
C280 C 0.62688 0.52451 0.4947 0.0
C281 C 0.63366 0.51806 0.47833 0.0
H282 H 0.64071 0.49857 0.44736 0.0
H283 H 0.60915 0.45814 0.43375 0.0
H284 H 0.5654 0.49988 0.53817 0.0
H285 H 0.60772 0.53001 0.52639 0.0
H286 H 0.64025 0.54157 0.5015 0.0
H287 H 0.65212 0.53026 0.47278 0.0
Mn288 Mn 0.65143 0.17618 0.47325 0.0
Mn289 Mn 0.59033 0.13188 0.47118 0.0
C290 C 0.62194 0.18041 0.48955 0.0
C291 C 0.68561 0.21318 0.46309 0.0
C292 C 0.62851 0.12544 0.49199 0.0
O293 O 0.64984 0.15752 0.45053 0.0
O294 O 0.60872 0.12807 0.45055 0.0
C295 C 0.57673 0.14914 0.4384 0.0
N296 N 0.57311 0.14325 0.45613 0.0
C297 C 0.53869 0.15105 0.45751 0.0
C298 C 0.54196 0.15709 0.43925 0.0
C299 C 0.56113 0.15622 0.42967 0.0
C300 C 0.55483 0.14417 0.46549 0.0
H301 H 0.5914 0.14842 0.43098 0.0
C302 C 0.63084 0.13838 0.44382 0.0
O303 O 0.68866 0.19691 0.47206 0.0
O304 O 0.6628 0.20763 0.45969 0.0
N305 N 0.57044 0.13358 0.49021 0.0
C306 C 0.57098 0.12896 0.50797 0.0
C307 C 0.55369 0.13014 0.5196 0.0
C308 C 0.53587 0.13574 0.51282 0.0
C309 C 0.53561 0.14029 0.49446 0.0
C310 C 0.55339 0.13901 0.48354 0.0
H311 H 0.58458 0.12455 0.51321 0.0
O312 O 0.64518 0.19172 0.49465 0.0
O313 O 0.61666 0.16652 0.47532 0.0
O314 O 0.64749 0.14647 0.4879 0.0
O315 O 0.6062 0.11857 0.48705 0.0
C316 C 0.51857 0.14628 0.48659 0.0
C317 C 0.52022 0.15183 0.46816 0.0
H318 H 0.52997 0.16257 0.43248 0.0
H319 H 0.56383 0.16094 0.41559 0.0
H320 H 0.55404 0.12666 0.53376 0.0
H321 H 0.52257 0.13665 0.52183 0.0
H322 H 0.50434 0.14701 0.49464 0.0
H323 H 0.50733 0.1569 0.46234 0.0
Mn324 Mn 0.77493 0.49679 0.1931 0.0
Mn325 Mn 0.76042 0.54255 0.19367 0.0
C326 C 0.7392 0.49128 0.17895 0.0
C327 C 0.77235 0.46106 0.2054 0.0
C328 C 0.80361 0.54533 0.17231 0.0
O329 O 0.795 0.51861 0.21411 0.0
O330 O 0.78155 0.54665 0.21492 0.0
C331 C 0.72843 0.52863 0.22604 0.0
N332 N 0.73127 0.53273 0.20806 0.0
C333 C 0.68834 0.52243 0.20492 0.0
C334 C 0.68498 0.51818 0.22341 0.0
C335 C 0.70512 0.5213 0.23401 0.0
C336 C 0.71208 0.52997 0.19775 0.0
H337 H 0.7438 0.53081 0.23421 0.0
C338 C 0.7943 0.53715 0.22122 0.0
O339 O 0.79071 0.47571 0.1949 0.0
O340 O 0.75588 0.46758 0.20915 0.0
N341 N 0.7396 0.53958 0.17379 0.0
C342 C 0.74542 0.54259 0.15603 0.0
C343 C 0.72705 0.5392 0.14352 0.0
C344 C 0.70288 0.5327 0.14938 0.0
C345 C 0.69731 0.52966 0.16773 0.0
C346 C 0.71646 0.53353 0.17959 0.0
H347 H 0.7639 0.54736 0.15144 0.0
O348 O 0.74953 0.47846 0.17374 0.0
O349 O 0.75101 0.5075 0.19147 0.0
O350 O 0.79916 0.52332 0.17577 0.0
O351 O 0.79041 0.55435 0.17837 0.0
C352 C 0.67337 0.52241 0.17468 0.0
C353 C 0.66891 0.51885 0.19326 0.0
H354 H 0.66695 0.51225 0.22958 0.0
H355 H 0.70263 0.51792 0.24828 0.0
H356 H 0.73145 0.54145 0.12937 0.0
H357 H 0.68869 0.52985 0.13967 0.0
H358 H 0.65818 0.51921 0.16583 0.0
H359 H 0.65035 0.51297 0.19842 0.0
Mn360 Mn 0.47934 0.28426 0.25017 0.0
Mn361 Mn 0.45992 0.23243 0.27545 0.0
C362 C 0.47834 0.24904 0.23852 0.0
C363 C 0.51034 0.32242 0.23878 0.0
C364 C 0.4244 0.24641 0.25854 0.0
O365 O 0.48163 0.29791 0.27535 0.0
O366 O 0.46776 0.26187 0.29065 0.0
C367 C 0.50814 0.24872 0.29387 0.0
N368 N 0.48887 0.23168 0.28357 0.0
C369 C 0.50686 0.20502 0.28213 0.0
C370 C 0.52682 0.22221 0.29279 0.0
C371 C 0.5275 0.24419 0.29863 0.0
C372 C 0.48816 0.21058 0.27775 0.0
H373 H 0.50874 0.26564 0.29839 0.0
C374 C 0.47573 0.28544 0.28993 0.0
O375 O 0.48699 0.31659 0.23894 0.0
O376 O 0.51573 0.30666 0.24607 0.0
N377 N 0.45201 0.20253 0.26254 0.0
C378 C 0.43203 0.18841 0.25171 0.0
C379 C 0.42869 0.16584 0.24462 0.0
C380 C 0.44578 0.15794 0.24884 0.0
C381 C 0.4662 0.17277 0.26003 0.0
C382 C 0.46848 0.195 0.26677 0.0
H383 H 0.41884 0.19439 0.24845 0.0
O384 O 0.47755 0.26526 0.22795 0.0
O385 O 0.47962 0.25388 0.25553 0.0
O386 O 0.44135 0.26678 0.25159 0.0
O387 O 0.42896 0.23141 0.26732 0.0
C388 C 0.48444 0.16645 0.26467 0.0
C389 C 0.50488 0.18267 0.27557 0.0
H390 H 0.54179 0.21879 0.2965 0.0
H391 H 0.54289 0.25761 0.30681 0.0
H392 H 0.41295 0.15455 0.23594 0.0
H393 H 0.44309 0.14049 0.24336 0.0
H394 H 0.48307 0.14925 0.25982 0.0
H395 H 0.51899 0.17779 0.2788 0.0
Mn396 Mn 0.66617 0.16479 0.23787 0.0
Mn397 Mn 0.71902 0.18886 0.26259 0.0
C398 C 0.69664 0.20637 0.23491 0.0
C399 C 0.62492 0.15453 0.23346 0.0
C400 C 0.7106 0.15745 0.22957 0.0
O401 O 0.65639 0.13898 0.25755 0.0
O402 O 0.69276 0.15648 0.27288 0.0
C403 C 0.69912 0.19932 0.29558 0.0
N404 N 0.71632 0.20747 0.28209 0.0
C405 C 0.73836 0.24908 0.29448 0.0
C406 C 0.72097 0.24111 0.30857 0.0
C407 C 0.70121 0.21614 0.30907 0.0
C408 C 0.73525 0.2315 0.28137 0.0
H409 H 0.68395 0.18013 0.29606 0.0
C410 C 0.67005 0.1391 0.27034 0.0
O411 O 0.63456 0.14328 0.22463 0.0
O412 O 0.63902 0.17124 0.24519 0.0
N413 N 0.74602 0.22028 0.25445 0.0
C414 C 0.76056 0.22522 0.23956 0.0
C415 C 0.78088 0.24951 0.23683 0.0
C416 C 0.78627 0.26833 0.24956 0.0
C417 C 0.77115 0.26275 0.26485 0.0
C418 C 0.75111 0.23823 0.26682 0.0
H419 H 0.75662 0.21076 0.22981 0.0
O420 O 0.68067 0.19482 0.22216 0.0
O421 O 0.69421 0.19335 0.24923 0.0
O422 O 0.68861 0.1533 0.22632 0.0
O423 O 0.7238 0.17066 0.24273 0.0
C424 C 0.77511 0.28055 0.27818 0.0
C425 C 0.7586 0.2738 0.29289 0.0
H426 H 0.72255 0.25402 0.31902 0.0
H427 H 0.68766 0.20987 0.31986 0.0
H428 H 0.79244 0.25368 0.22499 0.0
H429 H 0.80203 0.28701 0.24743 0.0
H430 H 0.79067 0.29957 0.27716 0.0
H431 H 0.76161 0.28777 0.3029 0.0
Mn432 Mn 0.53775 0.78966 0.72467 0.0
Mn433 Mn 0.56936 0.76353 0.70654 0.0
C434 C 0.53055 0.75123 0.73448 0.0
C435 C 0.50359 0.79584 0.7256 0.0
C436 C 0.5921 0.80581 0.7335 0.0
O437 O 0.55091 0.80886 0.70146 0.0
O438 O 0.57106 0.78979 0.69018 0.0
C439 C 0.53642 0.73866 0.67542 0.0
N440 N 0.5476 0.73717 0.69069 0.0
C441 C 0.52844 0.69242 0.68769 0.0
C442 C 0.51687 0.6935 0.67186 0.0
C443 C 0.52087 0.71673 0.66572 0.0
C444 C 0.54396 0.71493 0.69669 0.0
H445 H 0.53926 0.75643 0.67071 0.0
C446 C 0.56368 0.80583 0.68925 0.0
O447 O 0.52482 0.81175 0.73289 0.0
O448 O 0.50263 0.77702 0.7171 0.0
N449 N 0.56859 0.73754 0.72096 0.0
C450 C 0.57978 0.7395 0.73705 0.0
C451 C 0.57695 0.71783 0.74533 0.0
C452 C 0.56267 0.6944 0.737 0.0
C453 C 0.55143 0.69286 0.72041 0.0
C454 C 0.55514 0.71513 0.71269 0.0
H455 H 0.59057 0.75742 0.74361 0.0
O456 O 0.52541 0.76504 0.74476 0.0
O457 O 0.53994 0.76049 0.71888 0.0
O458 O 0.57275 0.80792 0.73542 0.0
O459 O 0.59297 0.78989 0.72302 0.0
C460 C 0.53624 0.67004 0.71143 0.0
C461 C 0.52473 0.66981 0.69509 0.0
H462 H 0.50468 0.6766 0.66442 0.0
H463 H 0.51189 0.7177 0.65357 0.0
H464 H 0.5856 0.71916 0.75818 0.0
H465 H 0.56028 0.67769 0.74354 0.0
H466 H 0.53298 0.65251 0.7171 0.0
H467 H 0.51279 0.65211 0.68844 0.0
Mn468 Mn 0.21761 0.70939 0.77863 0.0
Mn469 Mn 0.23879 0.76597 0.75933 0.0
C470 C 0.26004 0.7377 0.77716 0.0
C471 C 0.2054 0.66712 0.77683 0.0
C472 C 0.21576 0.75313 0.79634 0.0
O473 O 0.18781 0.70421 0.76393 0.0
O474 O 0.20396 0.74243 0.75119 0.0
C475 C 0.24052 0.75172 0.72171 0.0
N476 N 0.25235 0.76616 0.73626 0.0
C477 C 0.29142 0.78805 0.72024 0.0
C478 C 0.27961 0.77354 0.70504 0.0
C479 C 0.25407 0.75526 0.7058 0.0
C480 C 0.27693 0.78379 0.73569 0.0
H481 H 0.22091 0.73758 0.72224 0.0
C482 C 0.18625 0.71977 0.75357 0.0
O483 O 0.19787 0.67568 0.78987 0.0
O484 O 0.21954 0.68301 0.7647 0.0
N485 N 0.27241 0.79028 0.76584 0.0
C486 C 0.28137 0.80146 0.782 0.0
C487 C 0.30684 0.81959 0.78371 0.0
C488 C 0.32279 0.82611 0.76877 0.0
C489 C 0.3131 0.81446 0.75225 0.0
C490 C 0.28753 0.79663 0.75134 0.0
H491 H 0.26922 0.79644 0.79354 0.0
O492 O 0.25122 0.72015 0.78917 0.0
O493 O 0.24372 0.73824 0.7665 0.0
O494 O 0.21154 0.73069 0.79667 0.0
O495 O 0.22581 0.76787 0.78307 0.0
C496 C 0.32791 0.81951 0.73674 0.0
C497 C 0.3171 0.80625 0.72076 0.0
H498 H 0.29003 0.77611 0.69277 0.0
H499 H 0.24485 0.74389 0.69415 0.0
H500 H 0.31419 0.82844 0.79652 0.0
H501 H 0.34247 0.83994 0.77017 0.0
H502 H 0.3477 0.83333 0.737 0.0
H503 H 0.32877 0.81001 0.70901 0.0
Mn504 Mn 0.29252 0.47296 0.7455 0.0
Mn505 Mn 0.23442 0.44129 0.72798 0.0
C506 C 0.26106 0.47906 0.75668 0.0
C507 C 0.33291 0.50732 0.7453 0.0
C508 C 0.25565 0.41784 0.75283 0.0
O509 O 0.29807 0.46057 0.7217 0.0
O510 O 0.25907 0.44252 0.71017 0.0
C511 C 0.23994 0.47634 0.69898 0.0
N512 N 0.22806 0.46346 0.71407 0.0
C513 C 0.20028 0.48019 0.71368 0.0
C514 C 0.21212 0.49351 0.69807 0.0
C515 C 0.23206 0.4916 0.69071 0.0
C516 C 0.20883 0.46514 0.72126 0.0
H517 H 0.25538 0.47506 0.69333 0.0
C518 C 0.28247 0.44964 0.70901 0.0
O519 O 0.32809 0.48624 0.75254 0.0
O520 O 0.31434 0.50821 0.73798 0.0
N521 N 0.20912 0.43941 0.74387 0.0
C522 C 0.2009 0.4268 0.75965 0.0
C523 C 0.18155 0.4275 0.76907 0.0
C524 C 0.17084 0.44112 0.76217 0.0
C525 C 0.17957 0.4539 0.74589 0.0
C526 C 0.19876 0.45235 0.73702 0.0
H527 H 0.20917 0.41645 0.76509 0.0
O528 O 0.28056 0.48452 0.76639 0.0
O529 O 0.26067 0.47019 0.74083 0.0
O530 O 0.2765 0.43772 0.7557 0.0
O531 O 0.23883 0.41697 0.74243 0.0
C532 C 0.17031 0.4685 0.7383 0.0
C533 C 0.18069 0.48169 0.72223 0.0
H534 H 0.20621 0.50544 0.69172 0.0
H535 H 0.24138 0.50193 0.67871 0.0
H536 H 0.175 0.41768 0.78167 0.0
H537 H 0.15608 0.44181 0.76957 0.0
H538 H 0.15546 0.47003 0.74485 0.0
H539 H 0.1737 0.4932 0.71669 0.0
Mn540 Mn 0.4626 0.8338 0.49384 0.0
Mn541 Mn 0.45926 0.87085 0.52573 0.0
C542 C 0.42789 0.83877 0.49603 0.0
C543 C 0.45525 0.79498 0.48382 0.0
C544 C 0.4924 0.89101 0.49313 0.0
O545 O 0.48841 0.83663 0.51196 0.0
O546 O 0.48452 0.86143 0.53259 0.0
C547 C 0.43812 0.83398 0.55524 0.0
N548 N 0.43653 0.85054 0.54409 0.0
C549 C 0.39838 0.84338 0.55818 0.0
C550 C 0.39966 0.82631 0.56987 0.0
C551 C 0.41957 0.82154 0.56835 0.0
C552 C 0.41739 0.85518 0.54538 0.0
H553 H 0.45342 0.8303 0.55413 0.0
C554 C 0.49445 0.8489 0.52665 0.0
O555 O 0.47238 0.81563 0.47652 0.0
O556 O 0.44276 0.79697 0.4971 0.0
N557 N 0.43532 0.88099 0.52062 0.0
C558 C 0.43589 0.89654 0.50748 0.0
C559 C 0.41674 0.90246 0.50663 0.0
C560 C 0.39735 0.89253 0.51939 0.0
C561 C 0.39723 0.87664 0.53282 0.0
C562 C 0.41677 0.87135 0.53296 0.0
H563 H 0.45079 0.90424 0.49768 0.0
O564 O 0.43346 0.83245 0.48085 0.0
O565 O 0.44327 0.84278 0.50906 0.0
O566 O 0.48653 0.86993 0.48613 0.0
O567 O 0.48275 0.89347 0.50755 0.0
C568 C 0.37835 0.86562 0.54594 0.0
C569 C 0.37884 0.84889 0.55856 0.0
H570 H 0.38536 0.81665 0.57997 0.0
H571 H 0.42063 0.80832 0.57727 0.0
H572 H 0.41693 0.91468 0.49619 0.0
H573 H 0.38258 0.89709 0.51866 0.0
H574 H 0.3631 0.86953 0.54627 0.0
H575 H 0.36391 0.84013 0.56835 0.0
Mn576 Mn 0.1465 0.65498 0.55233 0.0
Mn577 Mn 0.11235 0.59943 0.57344 0.0
C578 C 0.14975 0.62089 0.54386 0.0
C579 C 0.18197 0.69428 0.54887 0.0
C580 C 0.09108 0.61774 0.54491 0.0
O581 O 0.13598 0.66503 0.57512 0.0
O582 O 0.11234 0.62684 0.58756 0.0
C583 C 0.14587 0.61076 0.60465 0.0
N584 N 0.13362 0.59597 0.59033 0.0
C585 C 0.14994 0.56866 0.59662 0.0
C586 C 0.16259 0.58351 0.6115 0.0
C587 C 0.16057 0.60468 0.61551 0.0
C588 C 0.13551 0.57561 0.58632 0.0
H589 H 0.14448 0.62711 0.60775 0.0
C590 C 0.12171 0.65067 0.58745 0.0
O591 O 0.16057 0.68914 0.5421 0.0
O592 O 0.18251 0.67689 0.55829 0.0
N593 N 0.11075 0.57112 0.56159 0.0
C594 C 0.09783 0.55907 0.54654 0.0
C595 C 0.09823 0.53769 0.54054 0.0
C596 C 0.11166 0.52877 0.55017 0.0
C597 C 0.12438 0.54118 0.56581 0.0
C598 C 0.12319 0.5623 0.5712 0.0
H599 H 0.0875 0.56586 0.53907 0.0
O600 O 0.15584 0.63927 0.53282 0.0
O601 O 0.14219 0.62305 0.5597 0.0
O602 O 0.11092 0.63885 0.54266 0.0
O603 O 0.08945 0.60123 0.55596 0.0
C604 C 0.13848 0.53362 0.57614 0.0
C605 C 0.15133 0.5474 0.59149 0.0
H606 H 0.17401 0.57892 0.61988 0.0
H607 H 0.17037 0.6163 0.62692 0.0
H608 H 0.08831 0.52818 0.52848 0.0
H609 H 0.11213 0.51242 0.5454 0.0
H610 H 0.13976 0.51736 0.5723 0.0
H611 H 0.16232 0.54156 0.59921 0.0
Mn612 Mn 0.33003 0.50958 0.49589 0.0
Mn613 Mn 0.39145 0.52933 0.5003 0.0
C614 C 0.35936 0.54229 0.47859 0.0
C615 C 0.2955 0.51233 0.50502 0.0
C616 C 0.3542 0.48051 0.48216 0.0
O617 O 0.33189 0.49507 0.51979 0.0
O618 O 0.37375 0.51217 0.52282 0.0
C619 C 0.40526 0.56767 0.52862 0.0
N620 N 0.40841 0.56139 0.51172 0.0
C621 C 0.44085 0.60373 0.50555 0.0
C622 C 0.43803 0.61064 0.52292 0.0
C623 C 0.42013 0.59253 0.53449 0.0
C624 C 0.42563 0.57864 0.50049 0.0
H625 H 0.39145 0.55382 0.53752 0.0
C626 C 0.3512 0.49901 0.52868 0.0
O627 O 0.2927 0.49233 0.49705 0.0
O628 O 0.31822 0.53036 0.50778 0.0
N629 N 0.41032 0.54647 0.47944 0.0
C630 C 0.40927 0.53717 0.4627 0.0
C631 C 0.42525 0.55313 0.44927 0.0
C632 C 0.44214 0.57843 0.45319 0.0
C633 C 0.44288 0.58756 0.47052 0.0
C634 C 0.42661 0.57074 0.48338 0.0
H635 H 0.39622 0.51778 0.4596 0.0
O636 O 0.33622 0.52948 0.47332 0.0
O637 O 0.36438 0.53511 0.49352 0.0
O638 O 0.33503 0.48311 0.48318 0.0
O639 O 0.37577 0.4965 0.48822 0.0
C640 C 0.45877 0.61278 0.47543 0.0
C641 C 0.45775 0.62087 0.49293 0.0
H642 H 0.44933 0.62984 0.52746 0.0
H643 H 0.41776 0.59774 0.54788 0.0
H644 H 0.42448 0.54597 0.43591 0.0
H645 H 0.4543 0.59072 0.44276 0.0
H646 H 0.47157 0.62621 0.46577 0.0
H647 H 0.46975 0.64041 0.49645 0.0
H648 H 0.4063 0.27746 0.25121 0.0
H649 H 0.36529 0.2656 0.23886 0.0
H650 H 0.34271 0.18747 0.24448 0.0
H651 H 0.38336 0.1992 0.25751 0.0
H652 H 0.35405 0.24238 0.20769 0.0
H653 H 0.27766 0.18532 0.2553 0.0
H654 H 0.30978 0.20498 0.26236 0.0
H655 H 0.29937 0.17417 0.2534 0.0
C656 C 0.39232 0.25774 0.25031 0.0
C657 C 0.39818 0.23922 0.25493 0.0
C658 C 0.36887 0.25101 0.24334 0.0
C659 C 0.35097 0.22568 0.24073 0.0
C660 C 0.35605 0.20713 0.24668 0.0
H661 H 0.25941 0.15578 0.1513 0.0
H662 H 0.2892 0.17186 0.17599 0.0
C663 C 0.37943 0.21387 0.25395 0.0
C664 C 0.3295 0.2189 0.22873 0.0
H665 H 0.26668 0.17893 0.22372 0.0
C666 C 0.33488 0.22892 0.21136 0.0
C667 C 0.3045 0.20137 0.23351 0.0
C668 C 0.29745 0.19105 0.25223 0.0
C669 C 0.31616 0.22097 0.19839 0.0
C670 C 0.29154 0.20224 0.20282 0.0
C671 C 0.28575 0.1931 0.22039 0.0
C672 C 0.27215 0.19099 0.18893 0.0
C673 C 0.32298 0.23213 0.17985 0.0
C674 C 0.25254 0.19615 0.18835 0.0
C675 C 0.23548 0.1871 0.1742 0.0
C676 C 0.23782 0.17268 0.16049 0.0
C677 C 0.25717 0.167 0.1615 0.0
C678 C 0.27417 0.17609 0.17561 0.0
H679 H 0.34105 0.25018 0.17976 0.0
H680 H 0.32488 0.21888 0.17081 0.0
H681 H 0.30812 0.23533 0.17438 0.0
H682 H 0.25081 0.20767 0.19858 0.0
H683 H 0.2207 0.19168 0.17391 0.0
H684 H 0.79759 0.04401 0.13439 0.0
H685 H 0.77102 0.05564 0.15114 0.0
H686 H 0.8164 0.13215 0.13334 0.0
H687 H 0.84269 0.1205 0.11606 0.0
H688 H 0.78743 0.08766 0.17851 0.0
H689 H 0.74656 0.12107 0.12712 0.0
H690 H 0.76151 0.10321 0.12154 0.0
H691 H 0.78008 0.13637 0.12571 0.0
C692 C 0.8017 0.06324 0.1338 0.0
C693 C 0.82236 0.08141 0.12404 0.0
C694 C 0.78646 0.06982 0.14334 0.0
C695 C 0.79165 0.09469 0.14337 0.0
C696 C 0.81175 0.11274 0.13317 0.0
H697 H 0.75924 0.16814 0.22815 0.0
H698 H 0.77768 0.1518 0.20701 0.0
C699 C 0.82686 0.10609 0.12341 0.0
C700 C 0.7777 0.10214 0.15557 0.0
H701 H 0.74421 0.13229 0.15753 0.0
C702 C 0.77775 0.09718 0.17389 0.0
C703 C 0.7649 0.11432 0.14948 0.0
C704 C 0.76301 0.11883 0.12986 0.0
C705 C 0.76584 0.10462 0.18638 0.0
C706 C 0.75417 0.11794 0.18041 0.0
C707 C 0.75348 0.12231 0.16205 0.0
C708 C 0.74294 0.12786 0.19308 0.0
C709 C 0.76576 0.09801 0.20584 0.0
C710 C 0.71744 0.12023 0.19191 0.0
C711 C 0.70685 0.12969 0.20386 0.0
C712 C 0.72164 0.14698 0.21717 0.0
C713 C 0.74725 0.15465 0.2182 0.0
C714 C 0.75782 0.14529 0.20618 0.0
H715 H 0.7688 0.08183 0.2074 0.0
H716 H 0.78119 0.11427 0.21289 0.0
H717 H 0.7478 0.09339 0.21244 0.0
H718 H 0.70572 0.10684 0.18181 0.0
H719 H 0.68707 0.12342 0.20268 0.0
H720 H 0.81506 0.58713 0.153 0.0
H721 H 0.85702 0.62269 0.14847 0.0
H722 H 0.88904 0.57981 0.16917 0.0
H723 H 0.84697 0.54389 0.17349 0.0
H724 H 0.89807 0.62066 0.19018 0.0
H725 H 0.92275 0.65152 0.12035 0.0
H726 H 0.89023 0.64091 0.12415 0.0
H727 H 0.90147 0.61913 0.12628 0.0
C728 C 0.83103 0.58487 0.15578 0.0
C729 C 0.82775 0.56291 0.16382 0.0
C730 C 0.85507 0.60516 0.15306 0.0
C731 C 0.87617 0.60387 0.15848 0.0
C732 C 0.87301 0.58108 0.16476 0.0
H733 H 0.968 0.76314 0.15995 0.0
H734 H 0.96908 0.72418 0.16292 0.0
C735 C 0.84892 0.56058 0.1672 0.0
C736 C 0.89974 0.62761 0.16176 0.0
H737 H 0.93192 0.68518 0.14255 0.0
C738 C 0.90644 0.63464 0.1797 0.0
C739 C 0.9112 0.64572 0.14815 0.0
C740 C 0.9062 0.63881 0.12864 0.0
C741 C 0.92083 0.65995 0.1845 0.0
C742 C 0.92852 0.67835 0.17103 0.0
C743 C 0.92557 0.67104 0.15296 0.0
C744 C 0.93232 0.70347 0.17499 0.0
C745 C 0.92531 0.66691 0.20403 0.0
C746 C 0.91177 0.70498 0.18157 0.0
C747 C 0.91089 0.72695 0.17957 0.0
C748 C 0.93073 0.74783 0.17122 0.0
C749 C 0.95257 0.74731 0.16662 0.0
C750 C 0.95322 0.72508 0.16827 0.0
H751 H 0.92751 0.65272 0.21169 0.0
H752 H 0.94225 0.68563 0.20596 0.0
H753 H 0.90888 0.66739 0.20961 0.0
H754 H 0.89522 0.6884 0.1865 0.0
H755 H 0.89385 0.72691 0.18314 0.0
H756 H 0.28859 0.40904 0.77134 0.0
H757 H 0.2787 0.3735 0.79079 0.0
H758 H 0.20047 0.34016 0.77719 0.0
H759 H 0.21023 0.37518 0.75735 0.0
H760 H 0.25075 0.36257 0.8198 0.0
H761 H 0.2087 0.27967 0.77553 0.0
H762 H 0.22638 0.31124 0.76694 0.0
H763 H 0.19371 0.29785 0.77257 0.0
C764 C 0.26933 0.39391 0.77222 0.0
C765 C 0.25016 0.39504 0.76289 0.0
C766 C 0.26374 0.37359 0.78331 0.0
C767 C 0.23891 0.35404 0.78529 0.0
C768 C 0.21986 0.35469 0.77551 0.0
H769 H 0.1612 0.27075 0.87615 0.0
H770 H 0.18307 0.30074 0.85226 0.0
C771 C 0.22545 0.37488 0.76428 0.0
C772 C 0.23242 0.33469 0.79919 0.0
H773 H 0.19687 0.27185 0.80692 0.0
C774 C 0.23939 0.3427 0.81692 0.0
C775 C 0.21796 0.30875 0.79542 0.0
C776 C 0.21151 0.29888 0.77654 0.0
C777 C 0.23096 0.32558 0.8311 0.0
C778 C 0.21467 0.29988 0.82747 0.0
C779 C 0.20902 0.29165 0.80967 0.0
C780 C 0.20184 0.28164 0.84201 0.0
C781 C 0.23918 0.33526 0.84988 0.0
C782 C 0.20464 0.26058 0.84384 0.0
C783 C 0.19198 0.2432 0.85745 0.0
C784 C 0.17622 0.24657 0.86939 0.0
C785 C 0.17336 0.26764 0.86735 0.0
C786 C 0.18595 0.28491 0.85375 0.0
H787 H 0.25739 0.35316 0.84986 0.0
H788 H 0.22502 0.33892 0.85617 0.0
H789 H 0.24103 0.32142 0.85823 0.0
H790 H 0.21669 0.25766 0.83479 0.0
H791 H 0.19456 0.22715 0.8586 0.0
H792 H 0.77498 0.92734 0.84621 0.0
H793 H 0.74458 0.91839 0.82241 0.0
H794 H 0.702 0.84147 0.83982 0.0
H795 H 0.73196 0.85026 0.86387 0.0
H796 H 0.73289 0.88562 0.79486 0.0
H797 H 0.64818 0.86038 0.83524 0.0
H798 H 0.67928 0.87603 0.84472 0.0
H799 H 0.66265 0.84257 0.84152 0.0
C800 C 0.75902 0.90855 0.84511 0.0
C801 C 0.75588 0.88951 0.85699 0.0
C802 C 0.74168 0.90351 0.8315 0.0
C803 C 0.72089 0.87939 0.82953 0.0
C804 C 0.71761 0.86037 0.84139 0.0
H805 H 0.63303 0.80065 0.73927 0.0
H806 H 0.66601 0.82269 0.76134 0.0
C807 C 0.73484 0.86541 0.85508 0.0
C808 C 0.70337 0.87365 0.81446 0.0
H809 H 0.64131 0.84696 0.80454 0.0
C810 C 0.71289 0.87748 0.79695 0.0
C811 C 0.67739 0.86352 0.81723 0.0
C812 C 0.6663 0.86063 0.8357 0.0
C813 C 0.69691 0.87028 0.7821 0.0
C814 C 0.67075 0.85846 0.78491 0.0
C815 C 0.66137 0.85577 0.80241 0.0
C816 C 0.65259 0.84734 0.77009 0.0
C817 C 0.70819 0.87526 0.76357 0.0
C818 C 0.63403 0.85382 0.76772 0.0
C819 C 0.61491 0.84099 0.75529 0.0
C820 C 0.61399 0.82142 0.745 0.0
C821 C 0.63321 0.81568 0.7469 0.0
C822 C 0.65221 0.8284 0.75944 0.0
H823 H 0.72768 0.8914 0.76356 0.0
H824 H 0.70886 0.85854 0.75885 0.0
H825 H 0.6969 0.87914 0.75393 0.0
H826 H 0.63397 0.86834 0.77586 0.0
H827 H 0.60049 0.846 0.7541 0.0
H828 H 0.23127 0.80176 0.80503 0.0
H829 H 0.21579 0.81698 0.82924 0.0
H830 H 0.16626 0.74091 0.84645 0.0
H831 H 0.18219 0.72554 0.82259 0.0
H832 H 0.16907 0.80743 0.83236 0.0
H833 H 0.19427 0.77498 0.89372 0.0
H834 H 0.20745 0.77519 0.87207 0.0
H835 H 0.17682 0.75001 0.87815 0.0
C836 C 0.21735 0.78827 0.81412 0.0
C837 C 0.2079 0.76243 0.81186 0.0
C838 C 0.20856 0.79701 0.82797 0.0
C839 C 0.19008 0.78011 0.83977 0.0
C840 C 0.18098 0.75433 0.83779 0.0
H841 H 0.0838 0.80864 0.89427 0.0
H842 H 0.1051 0.79263 0.87555 0.0
C843 C 0.18998 0.74557 0.82406 0.0
C844 C 0.17866 0.78934 0.85296 0.0
H845 H 0.16393 0.7881 0.89718 0.0
C846 C 0.16817 0.80338 0.84655 0.0
C847 C 0.17769 0.78424 0.87149 0.0
C848 C 0.18989 0.7705 0.8793 0.0
C849 C 0.15631 0.81209 0.85809 0.0
C850 C 0.15425 0.80595 0.87648 0.0
C851 C 0.16524 0.79243 0.88301 0.0
C852 C 0.14078 0.81359 0.88905 0.0
C853 C 0.14635 0.82802 0.85049 0.0
C854 C 0.15349 0.82969 0.90338 0.0
C855 C 0.14129 0.83868 0.91427 0.0
C856 C 0.11619 0.83174 0.91092 0.0
C857 C 0.10324 0.81468 0.89704 0.0
C858 C 0.11538 0.80555 0.88629 0.0
H859 H 0.15555 0.83676 0.83758 0.0
H860 H 0.12596 0.81605 0.84796 0.0
H861 H 0.14915 0.84309 0.85997 0.0
H862 H 0.17307 0.83595 0.90577 0.0
H863 H 0.15177 0.8517 0.92491 0.0
H864 H 0.90042 0.5706 0.44727 0.0
H865 H 0.93907 0.59168 0.46455 0.0
H866 H 0.95966 0.53852 0.44528 0.0
H867 H 0.92127 0.51766 0.42754 0.0
H868 H 0.94727 0.56748 0.4914 0.0
H869 H 0.02598 0.60408 0.44292 0.0
H870 H 0.99436 0.59488 0.43639 0.0
H871 H 0.00334 0.57158 0.43951 0.0
C872 C 0.91343 0.56371 0.44638 0.0
C873 C 0.90766 0.54225 0.43626 0.0
C874 C 0.93551 0.57581 0.45624 0.0
C875 C 0.95218 0.56666 0.45617 0.0
C876 C 0.94722 0.54613 0.44527 0.0
H877 H 0.04757 0.57267 0.5417 0.0
H878 H 0.0137 0.56168 0.52038 0.0
C879 C 0.9252 0.53413 0.43522 0.0
C880 C 0.97286 0.57652 0.46924 0.0
H881 H 0.03591 0.60109 0.47348 0.0
C882 C 0.9667 0.5751 0.48747 0.0
C883 C -0.00186 0.58655 0.46405 0.0
C884 C 0.00592 0.58962 0.44464 0.0
C885 C 0.9851 0.58292 0.50072 0.0
C886 C 0.01021 0.59189 0.49557 0.0
C887 C 0.01653 0.59396 0.47734 0.0
C888 C 0.03017 0.59883 0.50893 0.0
C889 C 0.9775 0.58159 0.52009 0.0
C890 C 0.05066 0.6233 0.50939 0.0
C891 C 0.07011 0.62964 0.52148 0.0
C892 C 0.06944 0.61155 0.53326 0.0
C893 C 0.04862 0.58711 0.53292 0.0
C894 C 0.02921 0.58079 0.52078 0.0
H895 H 0.95931 0.58104 0.52146 0.0
H896 H 0.97538 0.56423 0.52616 0.0
H897 H 0.99194 0.59787 0.52778 0.0
H898 H 0.05167 0.63744 0.5003 0.0
H899 H 0.08585 0.64864 0.52137 0.0
H900 H 0.38549 0.47104 0.4625 0.0
H901 H 0.38998 0.4345 0.46663 0.0
H902 H 0.32091 0.39833 0.49674 0.0
H903 H 0.3162 0.43498 0.49235 0.0
H904 H 0.36192 0.41162 0.51724 0.0
H905 H 0.36834 0.36159 0.45843 0.0
H906 H 0.38299 0.39431 0.45327 0.0
H907 H 0.34992 0.37695 0.45836 0.0
C908 C 0.37046 0.45467 0.46901 0.0
C909 C 0.35071 0.45589 0.4773 0.0
C910 C 0.37293 0.43364 0.47132 0.0
C911 C 0.35584 0.41368 0.48212 0.0
C912 C 0.33422 0.41345 0.48829 0.0
H913 H 0.45989 0.36488 0.512 0.0
H914 H 0.41635 0.35544 0.51138 0.0
C915 C 0.33152 0.4344 0.48571 0.0
C916 C 0.36481 0.39831 0.49106 0.0
H917 H 0.40253 0.37449 0.48107 0.0
C918 C 0.36986 0.40239 0.50949 0.0
C919 C 0.37483 0.38586 0.48117 0.0
C920 C 0.36845 0.3792 0.46174 0.0
C921 C 0.38784 0.3981 0.51751 0.0
C922 C 0.40083 0.38948 0.50682 0.0
C923 C 0.39287 0.38161 0.48919 0.0
C924 C 0.42593 0.39427 0.51193 0.0
C925 C 0.39457 0.40515 0.53686 0.0
C926 C 0.44561 0.41922 0.51302 0.0
C927 C 0.47045 0.42471 0.51309 0.0
C928 C 0.47596 0.40529 0.51224 0.0
C929 C 0.45619 0.38025 0.51282 0.0
C930 C 0.4313 0.37477 0.51241 0.0
H931 H 0.37819 0.403 0.54457 0.0
H932 H 0.40153 0.39352 0.54314 0.0
H933 H 0.40959 0.42511 0.53768 0.0
H934 H 0.44184 0.43456 0.51237 0.0
H935 H 0.4853 0.44414 0.51262 0.0
H936 H 0.59947 0.08951 0.51605 0.0
H937 H 0.59519 0.04814 0.5171 0.0
H938 H 0.66086 0.0742 0.48382 0.0
H939 H 0.66549 0.11591 0.48304 0.0
H940 H 0.61579 0.04046 0.46729 0.0
H941 H 0.62197 0.00231 0.53251 0.0
H942 H 0.60723 0.02088 0.53482 0.0
H943 H 0.63939 0.0355 0.52751 0.0
C944 C 0.61387 0.08682 0.5099 0.0
C945 C 0.63259 0.10571 0.4993 0.0
C946 C 0.6115 0.06317 0.51055 0.0
C947 C 0.62765 0.05807 0.50044 0.0
C948 C 0.64833 0.07783 0.4918 0.0
H949 H 0.5364 0.89572 0.48185 0.0
H950 H 0.57649 0.93522 0.4793 0.0
C951 C 0.65099 0.10168 0.49142 0.0
C952 C 0.61842 0.03187 0.49491 0.0
H953 H 0.58731 0.97325 0.5128 0.0
C954 C 0.61049 0.02565 0.47706 0.0
C955 C 0.6116 0.01259 0.5076 0.0
C956 C 0.62075 0.01819 0.52665 0.0
C957 C 0.59317 0.00094 0.4722 0.0
C958 C 0.58396 0.9822 0.48545 0.0
C959 C 0.59434 0.98784 0.5027 0.0
C960 C 0.56007 0.95866 0.48301 0.0
C961 C 0.58294 0.99536 0.45342 0.0
C962 C 0.53772 0.95905 0.48535 0.0
C963 C 0.51501 0.93671 0.48707 0.0
C964 C 0.51432 0.91368 0.48616 0.0
C965 C 0.53644 0.91329 0.48228 0.0
C966 C 0.55932 0.93574 0.48096 0.0
H967 H 0.59565 0.01011 0.44387 0.0
H968 H 0.57999 0.97693 0.44886 0.0
H969 H 0.56452 0.99445 0.45322 0.0
H970 H 0.5381 0.97668 0.48708 0.0
H971 H 0.49824 0.93744 0.4902 0.0
H972 H 0.11075 0.16141 0.09801 0.0
H973 H 0.07175 0.16203 0.1002 0.0
H974 H 0.09509 0.20031 0.15098 0.0
H975 H 0.13435 0.19958 0.14892 0.0
H976 H 0.05147 0.15627 0.15321 0.0
H977 H 0.04487 0.20951 0.09658 0.0
H978 H 0.05549 0.18894 0.08883 0.0
H979 H 0.07453 0.2138 0.10427 0.0
C980 C 0.10796 0.17066 0.10939 0.0
C981 C 0.12545 0.18019 0.12338 0.0
C982 C 0.08573 0.17125 0.11055 0.0
C983 C 0.0806 0.18146 0.12567 0.0
C984 C 0.0988 0.19255 0.13912 0.0
H985 H 0.91786 0.11517 0.14623 0.0
H986 H 0.96233 0.14746 0.14989 0.0
C987 C 0.12119 0.1921 0.13792 0.0
C988 C 0.05464 0.17602 0.12872 0.0
H989 H 0.0052 0.17259 0.10604 0.0
C990 C 0.04143 0.16056 0.14325 0.0
C991 C 0.04161 0.18178 0.1158 0.0
C992 C 0.05499 0.19967 0.10061 0.0
C993 C 0.0152 0.14837 0.14406 0.0
C994 C 0.00205 0.15206 0.13008 0.0
C995 C 0.01539 0.16955 0.11659 0.0
C996 C 0.97503 0.13457 0.12741 0.0
C997 C 0.00163 0.12983 0.15891 0.0
C998 C 0.96766 0.1169 0.11356 0.0
C999 C 0.94257 0.09867 0.1115 0.0
C1000 C 0.92437 0.09814 0.12302 0.0
C1001 C 0.93166 0.11566 0.137 0.0
C1002 C 0.95691 0.13401 0.13908 0.0
H1003 H 0.01472 0.12816 0.16822 0.0
H1004 H 0.99022 0.13582 0.16671 0.0
H1005 H 0.98869 0.11105 0.15319 0.0
H1006 H 0.98146 0.11683 0.10459 0.0
H1007 H 0.93742 0.08474 0.10104 0.0
H1008 H 0.82664 0.96957 0.15153 0.0
H1009 H 0.82794 0.93434 0.16549 0.0
H1010 H 0.89665 0.95472 0.13732 0.0
H1011 H 0.89562 0.98996 0.12345 0.0
H1012 H 0.82788 0.89395 0.14894 0.0
H1013 H 0.91373 0.94776 0.18915 0.0
H1014 H 0.8966 0.96176 0.17992 0.0
H1015 H 0.91872 0.95814 0.16632 0.0
C1016 C 0.84206 0.96657 0.14835 0.0
C1017 C 0.86108 0.98257 0.13642 0.0
C1018 C 0.84278 0.9465 0.15638 0.0
C1019 C 0.86267 0.9423 0.15275 0.0
C1020 C 0.88148 0.95805 0.14066 0.0
H1021 H 0.89591 0.83517 0.13455 0.0
H1022 H 0.8746 0.85885 0.13801 0.0
C1023 C 0.88074 0.97804 0.13261 0.0
C1024 C 0.86332 0.92068 0.16063 0.0
H1025 H 0.90354 0.90561 0.18061 0.0
C1026 C 0.84409 0.89642 0.15629 0.0
C1027 C 0.88408 0.92384 0.17068 0.0
C1028 C 0.90431 0.9493 0.17697 0.0
C1029 C 0.84643 0.87545 0.1601 0.0
C1030 C 0.86866 0.87897 0.16818 0.0
C1031 C 0.88659 0.90291 0.17423 0.0
C1032 C 0.87611 0.85968 0.16697 0.0
C1033 C 0.82575 0.84985 0.15457 0.0
C1034 C 0.88396 0.85203 0.18212 0.0
C1035 C 0.89579 0.83782 0.18013 0.0
C1036 C 0.89993 0.83127 0.16297 0.0
C1037 C 0.89166 0.83865 0.14795 0.0
C1038 C 0.87958 0.85237 0.14993 0.0
H1039 H 0.8073 0.84892 0.15459 0.0
H1040 H 0.82939 0.84584 0.14075 0.0
H1041 H 0.82477 0.83516 0.16363 0.0
H1042 H 0.88195 0.85798 0.19537 0.0
H1043 H 0.90268 0.83293 0.19186 0.0
H1044 H 0.13533 0.08719 0.10347 0.0
H1045 H 0.10926 0.04136 0.10448 0.0
H1046 H 0.12262 0.04275 0.16122 0.0
H1047 H 0.14896 0.08867 0.16018 0.0
H1048 H 0.12156 0.00317 0.11897 0.0
H1049 H 0.04427 0.00825 0.15368 0.0
H1050 H 0.0689 0.03459 0.14175 0.0
H1051 H 0.07508 0.02601 0.16326 0.0
C1052 C 0.13314 0.07758 0.11604 0.0
C1053 C 0.14467 0.09112 0.13164 0.0
C1054 C 0.11821 0.05153 0.11662 0.0
C1055 C 0.11418 0.03881 0.13291 0.0
C1056 C 0.12563 0.05234 0.14854 0.0
H1057 H 0.03234 0.87751 0.15147 0.0
H1058 H 0.06581 0.92137 0.14901 0.0
C1059 C 0.1406 0.07841 0.14794 0.0
C1060 C 0.09666 0.01157 0.13366 0.0
H1061 H 0.03812 0.96808 0.14779 0.0
C1062 C 0.10334 0.9954 0.12529 0.0
C1063 C 0.0729 0.00171 0.14184 0.0
C1064 C 0.06464 0.01845 0.15057 0.0
C1065 C 0.0867 0.96943 0.12482 0.0
C1066 C 0.06296 0.95958 0.13305 0.0
C1067 C 0.05639 0.97578 0.14151 0.0
C1068 C 0.04419 0.93257 0.13273 0.0
C1069 C 0.09433 0.9528 0.11519 0.0
C1070 C 0.02113 0.92442 0.12425 0.0
C1071 C 0.00202 0.89951 0.12567 0.0
C1072 C 0.0056 0.88234 0.13571 0.0
C1073 C 0.02907 0.89031 0.14361 0.0
C1074 C 0.04823 0.9153 0.14217 0.0
H1075 H 0.11109 0.96374 0.10659 0.0
H1076 H 0.09884 0.94239 0.12518 0.0
H1077 H 0.07873 0.93884 0.10675 0.0
H1078 H 0.0177 0.93753 0.11693 0.0
H1079 H 0.98417 0.89394 0.1194 0.0
H1080 H 0.12811 0.92377 0.89689 0.0
H1081 H 0.15014 0.96967 0.89437 0.0
H1082 H 0.11604 0.97378 0.94379 0.0
H1083 H 0.09398 0.9281 0.94618 0.0
H1084 H 0.12436 0.99505 0.89134 0.0
H1085 H 0.18772 0.03162 0.94989 0.0
H1086 H 0.17708 0.00097 0.94038 0.0
H1087 H 0.15699 0.00613 0.95516 0.0
C1088 C 0.12599 0.93465 0.90744 0.0
C1089 C 0.11005 0.92261 0.92202 0.0
C1090 C 0.13854 0.96077 0.90601 0.0
C1091 C 0.13515 0.9752 0.91907 0.0
C1092 C 0.11961 0.96314 0.93385 0.0
H1093 H 0.13411 0.10953 0.93249 0.0
H1094 H 0.13397 0.06998 0.93454 0.0
C1095 C 0.10704 0.93705 0.93524 0.0
C1096 C 0.1447 0.00226 0.91607 0.0
H1097 H 0.17594 0.05943 0.93656 0.0
C1098 C 0.13612 0.00925 0.901 0.0
C1099 C 0.16005 0.02074 0.92868 0.0
C1100 C 0.17123 0.01461 0.94438 0.0
C1101 C 0.14119 0.03394 0.8988 0.0
C1102 C 0.15538 0.05208 0.91194 0.0
C1103 C 0.16497 0.0454 0.92656 0.0
C1104 C 0.15815 0.07729 0.91161 0.0
C1105 C 0.13016 0.04015 0.88297 0.0
C1106 C 0.17237 0.09474 0.89831 0.0
C1107 C 0.17256 0.11747 0.89712 0.0
C1108 C 0.15842 0.12293 0.90918 0.0
C1109 C 0.14508 0.10581 0.92293 0.0
C1110 C 0.14503 0.08324 0.92417 0.0
H1111 H 0.11701 0.0232 0.87522 0.0
H1112 H 0.12002 0.0498 0.88751 0.0
H1113 H 0.14548 0.05308 0.8739 0.0
H1114 H 0.18278 0.0905 0.8886 0.0
H1115 H 0.18305 0.13032 0.8864 0.0
H1116 H 0.08257 0.16108 0.86368 0.0
H1117 H 0.03703 0.13464 0.85993 0.0
H1118 H 0.02861 0.12255 0.91699 0.0
H1119 H 0.07397 0.14847 0.92066 0.0
H1120 H 0.01425 0.08442 0.87062 0.0
H1121 H 0.9685 0.13142 0.90408 0.0
H1122 H -0.00023 0.1483 0.89478 0.0
H1123 H 0.99444 0.13305 0.91615 0.0
C1124 C 0.0708 0.15339 0.87542 0.0
C1125 C 0.08152 0.15734 0.8925 0.0
C1126 C 0.04489 0.13839 0.87329 0.0
C1127 C 0.02942 0.12704 0.88821 0.0
C1128 C 0.04009 0.13173 0.90536 0.0
H1129 H 0.90375 0.98471 0.90731 0.0
H1130 H 0.94328 0.0245 0.90604 0.0
C1131 C 0.06598 0.14658 0.90746 0.0
C1132 C 0.00309 0.10697 0.88576 0.0
H1133 H 0.94332 0.08701 0.8999 0.0
C1134 C -0.00133 0.08518 0.87671 0.0
C1135 C 0.98282 0.10804 0.89366 0.0
C1136 C 0.98647 0.13153 0.9026 0.0
C1137 C 0.9747 0.06392 0.87621 0.0
C1138 C 0.95477 0.06446 0.88511 0.0
C1139 C 0.95881 0.08665 0.8933 0.0
C1140 C 0.9301 0.04152 0.88694 0.0
C1141 C 0.97095 0.04072 0.86665 0.0
C1142 C 0.90952 0.03831 0.87694 0.0
C1143 C 0.88688 0.01553 0.87757 0.0
C1144 C 0.88455 0.99577 0.88832 0.0
C1145 C 0.90497 -0.00048 0.89886 0.0
C1146 C 0.92756 0.0222 0.89815 0.0
H1147 H 0.98669 0.04493 0.85738 0.0
H1148 H 0.96974 0.02691 0.87668 0.0
H1149 H 0.95318 0.0319 0.85894 0.0
H1150 H 0.91124 0.05312 0.86825 0.0
H1151 H 0.87143 0.0132 0.86935 0.0
H1152 H 0.99149 0.85967 0.93209 0.0
H1153 H 0.95198 0.85529 0.92182 0.0
H1154 H 0.95552 0.8179 0.874 0.0
H1155 H 0.99515 0.82197 0.88432 0.0
H1156 H 0.94975 0.86169 0.86916 0.0
H1157 H 0.88006 0.7929 0.91645 0.0
H1158 H 0.90814 0.81644 0.92717 0.0
H1159 H 0.90974 0.7948 0.91181 0.0
C1160 C 0.98371 0.85019 0.91951 0.0
C1161 C 0.99641 0.84123 0.90898 0.0
C1162 C 0.96104 0.84752 0.91373 0.0
C1163 C 0.95072 0.83597 0.89729 0.0
C1164 C 0.9631 0.8266 0.88684 0.0
H1165 H 0.83909 0.8712 0.85274 0.0
H1166 H 0.86279 0.84885 0.85372 0.0
C1167 C 0.98569 0.82897 0.89274 0.0
C1168 C 0.92852 0.83638 0.89043 0.0
H1169 H 0.86969 0.822 0.90296 0.0
C1170 C 0.9319 0.85248 0.87614 0.0
C1171 C 0.90536 0.82421 0.89957 0.0
C1172 C 0.90046 0.80591 0.9145 0.0
C1173 C 0.91356 0.8587 0.8719 0.0
C1174 C 0.8911 0.84801 0.882 0.0
C1175 C 0.88691 0.83019 0.89525 0.0
C1176 C 0.87411 0.85839 0.88138 0.0
C1177 C 0.91933 0.87829 0.85773 0.0
C1178 C 0.87201 0.87039 0.8967 0.0
C1179 C 0.85839 0.88273 0.89619 0.0
C1180 C 0.8463 0.88302 0.88043 0.0
C1181 C 0.84806 0.87084 0.86509 0.0
C1182 C 0.86162 0.85822 0.86564 0.0
H1183 H 0.93903 0.88721 0.85296 0.0
H1184 H 0.90684 0.86943 0.84607 0.0
H1185 H 0.91591 0.89316 0.86297 0.0
H1186 H 0.88166 0.87096 0.90894 0.0
H1187 H 0.85787 0.89265 0.90802 0.0
H1188 H 0.74546 0.48567 0.44535 0.0
H1189 H 0.71384 0.48373 0.46606 0.0
H1190 H 0.77101 0.54626 0.49575 0.0
H1191 H 0.80299 0.54849 0.47498 0.0
H1192 H 0.72231 0.48115 0.50866 0.0
H1193 H 0.7062 0.55665 0.48323 0.0
H1194 H 0.71519 0.54033 0.46751 0.0
H1195 H 0.73716 0.56034 0.48408 0.0
C1196 C 0.75132 0.49928 0.45609 0.0
C1197 C 0.77671 0.51717 0.45856 0.0
C1198 C 0.73326 0.4981 0.46793 0.0
C1199 C 0.74022 0.51477 0.48241 0.0
C1200 C 0.76538 0.53328 0.48461 0.0
H1201 H 0.59475 0.45793 0.53898 0.0
H1202 H 0.64077 0.48698 0.53964 0.0
C1203 C 0.78354 0.53453 0.47271 0.0
C1204 C 0.72088 0.51142 0.49553 0.0
H1205 H 0.67356 0.52412 0.5002 0.0
C1206 C 0.7121 0.49114 0.50739 0.0
C1207 C 0.70791 0.5247 0.49398 0.0
C1208 C 0.71703 0.54684 0.48159 0.0
C1209 C 0.68892 0.48188 0.51603 0.0
C1210 C 0.67432 0.4931 0.51253 0.0
C1211 C 0.68474 0.51544 0.50268 0.0
C1212 C 0.64679 0.47745 0.5129 0.0
C1213 C 0.67866 0.45821 0.52693 0.0
C1214 C 0.6354 0.46267 0.49779 0.0
C1215 C 0.60977 0.44633 0.49748 0.0
C1216 C 0.59477 0.44469 0.51212 0.0
C1217 C 0.60603 0.45928 0.52745 0.0
C1218 C 0.6321 0.47582 0.5278 0.0
H1219 H 0.69384 0.455 0.53173 0.0
H1220 H 0.66793 0.459 0.53862 0.0
H1221 H 0.66568 0.44198 0.51851 0.0
H1222 H 0.6465 0.4635 0.48627 0.0
H1223 H 0.60166 0.43472 0.48572 0.0
H1224 H 0.51428 0.31153 0.5209 0.0
H1225 H 0.52375 0.27784 0.52502 0.0
H1226 H 0.58762 0.31609 0.4899 0.0
H1227 H 0.57867 0.3501 0.48607 0.0
H1228 H 0.52561 0.24621 0.50132 0.0
H1229 H 0.61863 0.30234 0.53269 0.0
H1230 H 0.59724 0.31401 0.5301 0.0
H1231 H 0.61716 0.31578 0.51181 0.0
C1232 C 0.53037 0.31277 0.51407 0.0
C1233 C 0.54583 0.33352 0.50323 0.0
C1234 C 0.53578 0.29355 0.51649 0.0
C1235 C 0.55673 0.29477 0.50812 0.0
C1236 C 0.57181 0.31515 0.49693 0.0
H1237 H 0.59575 0.19414 0.46834 0.0
H1238 H 0.57478 0.21707 0.47682 0.0
C1239 C 0.56653 0.33445 0.49461 0.0
C1240 C 0.56231 0.27425 0.51038 0.0
H1241 H 0.61016 0.26326 0.51902 0.0
C1242 C 0.54395 0.24985 0.50551 0.0
C1243 C 0.58598 0.27881 0.51634 0.0
C1244 C 0.60576 0.30412 0.52323 0.0
C1245 C 0.54931 0.23031 0.50514 0.0
C1246 C 0.57373 0.23546 0.50938 0.0
C1247 C 0.59149 0.25939 0.51556 0.0
C1248 C 0.5823 0.21754 0.50515 0.0
C1249 C 0.52897 0.2044 0.4999 0.0
C1250 C 0.59349 0.2101 0.51827 0.0
C1251 C 0.60525 0.19658 0.51341 0.0
C1252 C 0.6059 0.19037 0.4954 0.0
C1253 C 0.59439 0.19756 0.48241 0.0
C1254 C 0.58249 0.21078 0.48725 0.0
H1255 H 0.51003 0.20182 0.50225 0.0
H1256 H 0.53067 0.20143 0.48544 0.0
H1257 H 0.53072 0.19002 0.50762 0.0
H1258 H 0.5939 0.21553 0.53211 0.0
H1259 H 0.61457 0.19174 0.52357 0.0
H1260 H 0.78711 0.43321 0.41988 0.0
H1261 H 0.77222 0.38866 0.42439 0.0
H1262 H 0.82838 0.40734 0.46512 0.0
H1263 H 0.84299 0.45212 0.4608 0.0
H1264 H 0.79645 0.36147 0.4211 0.0
H1265 H 0.76408 0.35905 0.49109 0.0
H1266 H 0.77288 0.38545 0.47651 0.0
H1267 H 0.79658 0.3809 0.48676 0.0
C1268 C 0.79642 0.42775 0.42964 0.0
C1269 C 0.81652 0.44589 0.43971 0.0
C1270 C 0.7879 0.40236 0.43225 0.0
C1271 C 0.79912 0.39469 0.44515 0.0
C1272 C 0.81927 0.41285 0.45525 0.0
H1273 H 0.73311 0.23656 0.47677 0.0
H1274 H 0.76611 0.28022 0.47178 0.0
C1275 C 0.82765 0.43833 0.45275 0.0
C1276 C 0.78888 0.36757 0.44821 0.0
H1277 H 0.75574 0.32086 0.47838 0.0
C1278 C 0.78786 0.35262 0.43368 0.0
C1279 C 0.77779 0.35607 0.46472 0.0
C1280 C 0.77765 0.37109 0.48065 0.0
C1281 C 0.77501 0.32642 0.43493 0.0
C1282 C 0.76289 0.31493 0.45112 0.0
C1283 C 0.76518 0.32984 0.466 0.0
C1284 C 0.74494 0.28775 0.45225 0.0
C1285 C 0.7738 0.31116 0.41877 0.0
C1286 C 0.72234 0.2776 0.44277 0.0
C1287 C 0.70346 0.25292 0.44573 0.0
C1288 C 0.7069 0.2379 0.45817 0.0
C1289 C 0.73002 0.24769 0.46703 0.0
C1290 C 0.74884 0.27258 0.46423 0.0
H1291 H 0.78941 0.3223 0.40929 0.0
H1292 H 0.77442 0.29417 0.42278 0.0
H1293 H 0.75589 0.30502 0.41162 0.0
H1294 H 0.71885 0.28916 0.43368 0.0
H1295 H 0.68584 0.24586 0.4387 0.0
H1296 H 0.72531 0.23466 0.20728 0.0
H1297 H 0.74508 0.2803 0.20415 0.0
H1298 H 0.72056 0.28503 0.2574 0.0
H1299 H 0.70062 0.23945 0.26044 0.0
H1300 H 0.71568 0.30324 0.20641 0.0
H1301 H 0.79339 0.34472 0.25585 0.0
H1302 H 0.78123 0.31367 0.24663 0.0
H1303 H 0.76415 0.31919 0.26384 0.0
C1304 C 0.7248 0.24562 0.21845 0.0
C1305 C 0.71215 0.23381 0.23428 0.0
C1306 C 0.73607 0.27159 0.21668 0.0
C1307 C 0.73462 0.28606 0.23065 0.0
C1308 C 0.72248 0.27431 0.24665 0.0
H1309 H 0.73301 0.42442 0.2241 0.0
H1310 H 0.72533 0.3824 0.231 0.0
C1311 C 0.71116 0.24832 0.2484 0.0
C1312 C 0.74263 0.31272 0.22757 0.0
H1313 H 0.78141 0.37219 0.24286 0.0
C1314 C 0.73019 0.31833 0.21429 0.0
C1315 C 0.76156 0.33232 0.23785 0.0
C1316 C 0.77605 0.32733 0.25178 0.0
C1317 C 0.73583 0.34301 0.21126 0.0
C1318 C 0.75423 0.3625 0.2219 0.0
C1319 C 0.76712 0.35706 0.23489 0.0
C1320 C 0.76021 0.38864 0.21954 0.0
C1321 C 0.72208 0.34814 0.19673 0.0
C1322 C 0.78272 0.40614 0.21132 0.0
C1323 C 0.78715 0.43013 0.20731 0.0
C1324 C 0.76918 0.43695 0.21158 0.0
C1325 C 0.74719 0.41971 0.22061 0.0
C1326 C 0.74273 0.3957 0.22453 0.0
H1327 H 0.7118 0.33182 0.18764 0.0
H1328 H 0.70831 0.35243 0.20294 0.0
H1329 H 0.73534 0.36466 0.18866 0.0
H1330 H 0.79641 0.40093 0.20743 0.0
H1331 H 0.80431 0.44305 0.2004 0.0
H1332 H 0.70823 0.47834 0.20685 0.0
H1333 H 0.66287 0.45568 0.20698 0.0
H1334 H 0.66232 0.45342 0.14921 0.0
H1335 H 0.7087 0.47657 0.1491 0.0
H1336 H 0.626 0.46403 0.19184 0.0
H1337 H 0.62468 0.37924 0.16427 0.0
H1338 H 0.65357 0.40583 0.17183 0.0
H1339 H 0.63914 0.4079 0.15158 0.0
C1340 C 0.69852 0.47361 0.19412 0.0
C1341 C 0.71184 0.47962 0.17795 0.0
C1342 C 0.67256 0.46065 0.19421 0.0
C1343 C 0.65918 0.45293 0.17813 0.0
C1344 C 0.67234 0.45922 0.16178 0.0
H1345 H 0.50357 0.3531 0.21578 0.0
H1346 H 0.53544 0.38604 0.19659 0.0
C1347 C 0.69868 0.47235 0.1617 0.0
C1348 C 0.63177 0.43586 0.17939 0.0
H1349 H 0.59073 0.37301 0.18184 0.0
C1350 C 0.61778 0.44417 0.18909 0.0
C1351 C 0.62119 0.41 0.17574 0.0
C1352 C 0.6353 0.40001 0.16532 0.0
C1353 C 0.59487 0.42708 0.19713 0.0
C1354 C 0.58565 0.40115 0.19504 0.0
C1355 C 0.59812 0.39297 0.18354 0.0
C1356 C 0.56611 0.38241 0.20702 0.0
C1357 C 0.58202 0.43677 0.20924 0.0
C1358 C 0.5729 0.36974 0.21933 0.0
C1359 C 0.55487 0.351 0.2302 0.0
C1360 C 0.52964 0.34455 0.22901 0.0
C1361 C 0.52293 0.35783 0.21709 0.0
C1362 C 0.54106 0.37659 0.2061 0.0
H1363 H 0.59266 0.45754 0.2104 0.0
H1364 H 0.56311 0.43096 0.20391 0.0
H1365 H 0.5796 0.42859 0.22282 0.0
H1366 H 0.59219 0.37412 0.22033 0.0
H1367 H 0.56065 0.34115 0.23923 0.0
H1368 H 0.51845 0.24604 0.2482 0.0
H1369 H 0.53199 0.21778 0.23654 0.0
H1370 H 0.46903 0.18504 0.20042 0.0
H1371 H 0.45542 0.21385 0.21211 0.0
H1372 H 0.48229 0.15152 0.22696 0.0
H1373 H 0.55684 0.21773 0.18125 0.0
H1374 H 0.55436 0.23194 0.20162 0.0
H1375 H 0.52877 0.21911 0.186 0.0
C1376 C 0.50743 0.23272 0.23784 0.0
C1377 C 0.48558 0.23148 0.23135 0.0
C1378 C 0.51525 0.21679 0.2311 0.0
C1379 C 0.5015 0.19948 0.21762 0.0
C1380 C 0.47982 0.19838 0.21081 0.0
H1381 H 0.59934 0.13753 0.20206 0.0
H1382 H 0.56178 0.13889 0.19317 0.0
C1383 C 0.4721 0.21469 0.21747 0.0
C1384 C 0.51015 0.1824 0.21154 0.0
H1385 H 0.56459 0.18759 0.19642 0.0
C1386 C 0.49988 0.15893 0.21983 0.0
C1387 C 0.53264 0.19178 0.20171 0.0
C1388 C 0.54373 0.21645 0.19197 0.0
C1389 C 0.51356 0.14646 0.22089 0.0
C1390 C 0.53767 0.15764 0.21312 0.0
C1391 C 0.54616 0.17917 0.20254 0.0
C1392 C 0.55644 0.15115 0.2191 0.0
C1393 C 0.50319 0.12268 0.23167 0.0
C1394 C 0.56555 0.15728 0.23667 0.0
C1395 C 0.58718 0.15707 0.24164 0.0
C1396 C 0.59987 0.15042 0.22918 0.0
C1397 C 0.58978 0.14259 0.21195 0.0
C1398 C 0.56836 0.1433 0.20685 0.0
H1399 H 0.48237 0.11255 0.23195 0.0
H1400 H 0.50956 0.11008 0.22617 0.0
H1401 H 0.50996 0.12746 0.24566 0.0
H1402 H 0.55687 0.16386 0.24621 0.0
H1403 H 0.59456 0.16314 0.25501 0.0
H1404 H 0.27998 0.73969 0.74468 0.0
H1405 H 0.32428 0.75751 0.73702 0.0
H1406 H 0.34449 0.77952 0.79204 0.0
H1407 H 0.2999 0.76212 0.7997 0.0
H1408 H 0.37077 0.81214 0.74727 0.0
H1409 H 0.36745 0.72607 0.77375 0.0
H1410 H 0.33949 0.72549 0.76597 0.0
H1411 H 0.35373 0.74097 0.78657 0.0
C1412 C 0.29396 0.74903 0.75501 0.0
C1413 C 0.28679 0.75039 0.77263 0.0
C1414 C 0.31916 0.75907 0.75065 0.0
C1415 C 0.33752 0.77003 0.76394 0.0
C1416 C 0.33048 0.77138 0.7816 0.0
H1417 H 0.4981 0.82921 0.7466 0.0
H1418 H 0.4586 0.82636 0.75578 0.0
C1419 C 0.30516 0.76143 0.78596 0.0
C1420 C 0.36364 0.77762 0.75944 0.0
H1421 H 0.40409 0.75524 0.75884 0.0
C1422 C 0.37828 0.79995 0.74995 0.0
C1423 C 0.3731 0.76145 0.76291 0.0
C1424 C 0.35774 0.73707 0.77282 0.0
C1425 C 0.40214 0.80629 0.74346 0.0
C1426 C 0.41134 0.7898 0.74659 0.0
C1427 C 0.39688 0.76778 0.75646 0.0
C1428 C 0.4354 0.79421 0.73912 0.0
C1429 C 0.41696 0.82999 0.73275 0.0
C1430 C 0.43538 0.77737 0.72648 0.0
C1431 C 0.45781 0.7789 0.72124 0.0
C1432 C 0.48067 0.79722 0.72866 0.0
C1433 C 0.48078 0.81493 0.74062 0.0
C1434 C 0.45826 0.81337 0.74585 0.0
H1435 H 0.40566 0.83884 0.72933 0.0
H1436 H 0.43346 0.8436 0.74064 0.0
H1437 H 0.42399 0.82601 0.72019 0.0
H1438 H 0.41787 0.76244 0.72116 0.0
H1439 H 0.45708 0.76503 0.71198 0.0
H1440 H 0.25397 0.51034 0.73588 0.0
H1441 H 0.23216 0.5329 0.74349 0.0
H1442 H 0.21296 0.49707 0.79525 0.0
H1443 H 0.2353 0.47456 0.78762 0.0
H1444 H 0.18301 0.5176 0.75368 0.0
H1445 H 0.25142 0.57157 0.80769 0.0
H1446 H 0.25688 0.55276 0.79183 0.0
H1447 H 0.23454 0.538 0.80959 0.0
C1448 C 0.24466 0.50692 0.74874 0.0
C1449 C 0.24572 0.49037 0.76104 0.0
C1450 C 0.23226 0.51983 0.7531 0.0
C1451 C 0.22104 0.51675 0.76996 0.0
C1452 C 0.22172 0.49988 0.78223 0.0
H1453 H 0.18575 0.63219 0.80362 0.0
H1454 H 0.18213 0.59074 0.80395 0.0
C1455 C 0.23434 0.48701 0.77788 0.0
C1456 C 0.21046 0.53286 0.77475 0.0
H1457 H 0.22388 0.58507 0.79898 0.0
C1458 C 0.19153 0.53199 0.76387 0.0
C1459 C 0.22155 0.55161 0.78809 0.0
C1460 C 0.24233 0.55379 0.79994 0.0
C1461 C 0.18451 0.55029 0.76521 0.0
C1462 C 0.19695 0.57009 0.77761 0.0
C1463 C 0.21443 0.56986 0.78945 0.0
C1464 C 0.19513 0.59307 0.77672 0.0
C1465 C 0.16457 0.54886 0.75284 0.0
C1466 C 0.20343 0.60796 0.76126 0.0
C1467 C 0.20572 0.63162 0.76108 0.0
C1468 C 0.19976 0.64086 0.77637 0.0
C1469 C 0.1904 0.62551 0.79161 0.0
C1470 C 0.18831 0.60186 0.79183 0.0
H1471 H 0.15129 0.52918 0.74884 0.0
H1472 H 0.15389 0.5569 0.75919 0.0
H1473 H 0.17359 0.55965 0.74049 0.0
H1474 H 0.20933 0.6018 0.74958 0.0
H1475 H 0.21298 0.643 0.74914 0.0
H1476 H 0.49997 0.71454 0.71204 0.0
H1477 H 0.47479 0.66982 0.71837 0.0
H1478 H 0.50636 0.6824 0.77143 0.0
H1479 H 0.53176 0.72761 0.76502 0.0
H1480 H 0.48576 0.63241 0.7299 0.0
H1481 H 0.43054 0.65258 0.77962 0.0
H1482 H 0.45213 0.67615 0.76429 0.0
H1483 H 0.46378 0.66703 0.78308 0.0
C1484 C 0.50206 0.70765 0.72487 0.0
C1485 C 0.51817 0.72423 0.73791 0.0
C1486 C 0.48765 0.68215 0.72849 0.0
C1487 C 0.48872 0.67284 0.74536 0.0
C1488 C 0.50526 0.68929 0.75835 0.0
H1489 H 0.37557 0.51202 0.76036 0.0
H1490 H 0.41673 0.55041 0.76271 0.0
C1491 C 0.51971 0.71497 0.75471 0.0
C1492 C 0.47032 0.64645 0.74957 0.0
H1493 H 0.41396 0.61106 0.77038 0.0
C1494 C 0.47038 0.62754 0.73912 0.0
C1495 C 0.45021 0.64032 0.7615 0.0
C1496 C 0.4489 0.66 0.77273 0.0
C1497 C 0.45004 0.60289 0.73948 0.0
C1498 C 0.42933 0.5972 0.7506 0.0
C1499 C 0.43002 0.61566 0.76192 0.0
C1500 C 0.40529 0.57357 0.74864 0.0
C1501 C 0.44989 0.58352 0.72707 0.0
C1502 C 0.38551 0.57406 0.73989 0.0
C1503 C 0.36218 0.55236 0.7385 0.0
C1504 C 0.35816 0.52975 0.74593 0.0
C1505 C 0.37815 0.52919 0.75449 0.0
C1506 C 0.40162 0.55101 0.75584 0.0
H1507 H 0.46743 0.59107 0.7191 0.0
H1508 H 0.44752 0.56725 0.73496 0.0
H1509 H 0.43376 0.57658 0.71776 0.0
H1510 H 0.38809 0.59137 0.73426 0.0
H1511 H 0.34719 0.55344 0.73182 0.0
H1512 H 0.41886 0.74942 0.49564 0.0
H1513 H 0.40918 0.70824 0.48479 0.0
H1514 H 0.46887 0.74279 0.44599 0.0
H1515 H 0.47885 0.78442 0.45686 0.0
H1516 H 0.39701 0.68908 0.44768 0.0
H1517 H 0.48241 0.69283 0.47592 0.0
H1518 H 0.4717 0.71343 0.48402 0.0
H1519 H 0.48561 0.71829 0.46223 0.0
C1520 C 0.42998 0.74835 0.48481 0.0
C1521 C 0.44969 0.77017 0.47716 0.0
C1522 C 0.42434 0.72481 0.47857 0.0
C1523 C 0.43833 0.72255 0.46462 0.0
C1524 C 0.45796 0.74422 0.45683 0.0
H1525 H 0.37283 0.55945 0.44411 0.0
H1526 H 0.39654 0.60382 0.43461 0.0
C1527 C 0.46361 0.76792 0.46305 0.0
C1528 C 0.43235 0.69721 0.45893 0.0
H1529 H 0.44923 0.65355 0.46752 0.0
C1530 C 0.40871 0.68134 0.45143 0.0
C1531 C 0.44778 0.68737 0.46384 0.0
C1532 C 0.47331 0.70372 0.47199 0.0
C1533 C 0.39912 0.65541 0.45023 0.0
C1534 C 0.41368 0.64529 0.45665 0.0
C1535 C 0.43823 0.66145 0.46255 0.0
C1536 C 0.40174 0.61855 0.46157 0.0
C1537 C 0.37262 0.63875 0.44378 0.0
C1538 C 0.39706 0.61239 0.47974 0.0
C1539 C 0.38363 0.58749 0.48505 0.0
C1540 C 0.3751 0.56818 0.47236 0.0
C1541 C 0.37972 0.57416 0.4541 0.0
C1542 C 0.39321 0.59934 0.44871 0.0
H1543 H 0.36373 0.64964 0.43941 0.0
H1544 H 0.37256 0.62719 0.43236 0.0
H1545 H 0.36108 0.62578 0.45465 0.0
H1546 H 0.40314 0.62695 0.48982 0.0
H1547 H 0.37948 0.58332 0.49914 0.0
H1548 H 0.22842 0.7116 0.56307 0.0
H1549 H 0.26786 0.74686 0.5525 0.0
H1550 H 0.22787 0.76495 0.51365 0.0
H1551 H 0.18816 0.72958 0.52418 0.0
H1552 H 0.26644 0.75852 0.49917 0.0
H1553 H 0.30101 0.82329 0.55689 0.0
H1554 H 0.29054 0.79157 0.56339 0.0
H1555 H 0.26842 0.79952 0.55436 0.0
C1556 C 0.22793 0.7234 0.55255 0.0
C1557 C 0.20521 0.71779 0.54444 0.0
C1558 C 0.25048 0.74364 0.54659 0.0
C1559 C 0.25073 0.75867 0.53242 0.0
C1560 C 0.22801 0.75368 0.52469 0.0
H1561 H 0.39744 0.8516 0.47756 0.0
H1562 H 0.35313 0.83769 0.48437 0.0
C1563 C 0.20538 0.73351 0.53076 0.0
C1564 C 0.27499 0.77758 0.52458 0.0
H1565 H 0.3326 0.82484 0.53676 0.0
C1566 C 0.2808 0.7736 0.50713 0.0
C1567 C 0.29354 0.79728 0.53496 0.0
C1568 C 0.28799 0.80335 0.55338 0.0
C1569 C 0.30539 0.78728 0.50046 0.0
C1570 C 0.32441 0.80553 0.5115 0.0
C1571 C 0.31805 0.81089 0.52832 0.0
C1572 C 0.35126 0.8156 0.50742 0.0
C1573 C 0.31127 0.78068 0.48233 0.0
C1574 C 0.36474 0.80795 0.51817 0.0
C1575 C 0.38965 0.81579 0.51433 0.0
C1576 C 0.40182 0.83186 0.49988 0.0
C1577 C 0.38842 0.83947 0.48893 0.0
C1578 C 0.36324 0.83155 0.49279 0.0
H1579 H 0.29464 0.76459 0.47607 0.0
H1580 H 0.31813 0.79708 0.47329 0.0
H1581 H 0.32636 0.77596 0.48352 0.0
H1582 H 0.3558 0.79544 0.52938 0.0
H1583 H 0.39937 0.80902 0.52262 0.0
H1584 H 0.29659 0.54887 0.52585 0.0
H1585 H 0.26264 0.55738 0.53138 0.0
H1586 H 0.21206 0.49186 0.50092 0.0
H1587 H 0.24616 0.48298 0.4953 0.0
H1588 H 0.23235 0.55883 0.49631 0.0
H1589 H 0.17966 0.49785 0.55408 0.0
H1590 H 0.21299 0.51009 0.55214 0.0
H1591 H 0.19212 0.487 0.53651 0.0
C1592 C 0.27819 0.53602 0.52051 0.0
C1593 C 0.27406 0.51537 0.51001 0.0
C1594 C 0.25883 0.54088 0.52373 0.0
C1595 C 0.235 0.52522 0.51655 0.0
C1596 C 0.23039 0.50401 0.50663 0.0
H1597 H 0.13822 0.59205 0.51398 0.0
H1598 H 0.15367 0.56358 0.50585 0.0
C1599 C 0.24983 0.49901 0.50345 0.0
C1600 C 0.21605 0.53291 0.51815 0.0
H1601 H 0.17107 0.52987 0.5463 0.0
C1602 C 0.21847 0.55217 0.50695 0.0
C1603 C 0.1983 0.52417 0.53215 0.0
C1604 C 0.19539 0.50359 0.54448 0.0
C1605 C 0.20455 0.56404 0.51002 0.0
C1606 C 0.18744 0.55602 0.52451 0.0
C1607 C 0.18411 0.53584 0.53517 0.0
C1608 C 0.17533 0.57039 0.53009 0.0
C1609 C 0.20955 0.58618 0.49851 0.0
C1610 C 0.18185 0.583 0.54658 0.0
C1611 C 0.17285 0.59892 0.55126 0.0
C1612 C 0.15691 0.60214 0.53965 0.0
C1613 C 0.15022 0.58944 0.52321 0.0
C1614 C 0.15904 0.5733 0.51858 0.0
H1615 H 0.22655 0.5927 0.49006 0.0
H1616 H 0.19335 0.58075 0.48951 0.0
H1617 H 0.21196 0.60209 0.50693 0.0
H1618 H 0.19458 0.58118 0.55557 0.0
H1619 H 0.17883 0.6092 0.56376 0.0
H1620 H 0.19949 0.21639 0.08585 0.0
H1621 H 0.21005 0.23576 0.05632 0.0
H1622 H 0.26657 0.21482 0.05013 0.0
H1623 H 0.25571 0.19477 0.07953 0.0
H1624 H 0.25221 0.26956 0.03409 0.0
H1625 H 0.20997 0.16872 0.0155 0.0
H1626 H 0.20911 0.17852 0.03809 0.0
H1627 H 0.23762 0.18173 0.02913 0.0
C1628 C 0.21481 0.21669 0.07854 0.0
C1629 C 0.22628 0.20343 0.08479 0.0
C1630 C 0.22087 0.22785 0.06164 0.0
C1631 C 0.23861 0.2261 0.05091 0.0
C1632 C 0.25248 0.21591 0.05813 0.0
H1633 H 0.21497 0.21171 0.93601 0.0
H1634 H 0.2397 0.22113 0.96336 0.0
C1635 C 0.24622 0.20445 0.07492 0.0
C1636 C 0.23859 0.23002 0.03141 0.0
H1637 H 0.21669 0.19683 0.99267 0.0
C1638 C 0.24493 0.25381 0.02491 0.0
C1639 C 0.22899 0.20936 0.01951 0.0
C1640 C 0.22084 0.18309 0.02584 0.0
C1641 C 0.24104 0.25729 0.00687 0.0
C1642 C 0.23013 0.23635 0.99524 0.0
C1643 C 0.2252 0.21292 0.00156 0.0
C1644 C 0.22019 0.23703 0.97736 0.0
C1645 C 0.24807 0.28321 0.00057 0.0
C1646 C 0.20157 0.24361 0.97592 0.0
C1647 C 0.18745 0.23834 0.96029 0.0
C1648 C 0.1914 0.22598 0.9459 0.0
C1649 C 0.21124 0.22099 0.94691 0.0
C1650 C 0.2255 0.22649 0.9625 0.0
H1651 H 0.26426 0.29777 0.00827 0.0
H1652 H 0.25285 0.28571 0.9861 0.0
H1653 H 0.23203 0.28626 0.00283 0.0
H1654 H 0.19664 0.25114 0.98732 0.0
H1655 H 0.17237 0.24248 0.96 0.0
H1656 H 0.75105 0.89966 0.93773 0.0
H1657 H 0.7438 0.91545 0.96591 0.0
H1658 H 0.81475 0.98389 0.95947 0.0
H1659 H 0.82116 0.96897 0.931 0.0
H1660 H 0.76699 0.92304 0.99452 0.0
H1661 H 0.77694 0.01395 0.97822 0.0
H1662 H 0.77318 0.99192 0.96089 0.0
H1663 H 0.80397 0.01429 0.96924 0.0
C1664 C 0.76465 0.91841 0.94212 0.0
C1665 C 0.78658 0.93316 0.93213 0.0
C1666 C 0.76054 0.92739 0.95823 0.0
C1667 C 0.77849 0.95109 0.96477 0.0
C1668 C 0.80007 0.96601 0.95449 0.0
H1669 H 0.83945 0.99148 0.06654 0.0
H1670 H 0.81758 0.96885 0.03956 0.0
C1671 C 0.80385 0.95734 0.93822 0.0
C1672 C 0.77669 0.95902 0.98326 0.0
H1673 H 0.79378 0.0117 0.00781 0.0
C1674 C 0.77214 0.94228 0.99741 0.0
C1675 C 0.78241 0.98375 0.98727 0.0
C1676 C 0.78406 0.0018 0.97302 0.0
C1677 C 0.77558 0.95029 0.01529 0.0
C1678 C 0.78511 0.976 0.01908 0.0
C1679 C 0.78722 0.99211 0.00505 0.0
C1680 C 0.79557 0.98718 0.03688 0.0
C1681 C 0.76932 0.93107 0.02982 0.0
C1682 C 0.79109 0.00552 0.04431 0.0
C1683 C 0.80451 0.01925 0.05929 0.0
C1684 C 0.82203 0.01432 0.0674 0.0
C1685 C 0.8256 0.99516 0.06066 0.0
C1686 C 0.81286 0.98204 0.04532 0.0
H1687 H 0.75269 0.9129 0.02602 0.0
H1688 H 0.78521 0.92766 0.03149 0.0
H1689 H 0.76542 0.93721 0.04281 0.0
H1690 H 0.77796 0.00995 0.03809 0.0
H1691 H 0.80165 0.03412 0.0643 0.0
H1692 H 0.06841 0.82093 0.9911 0.0
H1693 H 0.03989 0.79714 0.01518 0.0
H1694 H 0.97769 0.76704 0.9784 0.0
H1695 H 0.00613 0.79133 0.95412 0.0
H1696 H 0.97092 0.79092 0.0054 0.0
H1697 H -0.00049 0.72703 0.03393 0.0
H1698 H 0.02642 0.75762 0.03128 0.0
H1699 H 0.0091 0.74031 0.01181 0.0
C1700 C 0.04879 0.80872 0.98793 0.0
C1701 C 0.03956 0.80839 0.97069 0.0
C1702 C 0.03248 0.79485 0.00175 0.0
C1703 C 0.00664 0.78009 0.99859 0.0
C1704 C -0.00242 0.7782 0.98111 0.0
H1705 H 0.9039 0.75269 0.08925 0.0
H1706 H 0.91632 0.74406 0.06014 0.0
C1707 C 0.0139 0.79215 0.96725 0.0
C1708 C 0.98917 0.77081 0.01402 0.0
H1709 H 0.98182 0.74445 0.0553 0.0
C1710 C 0.97264 0.78003 0.01609 0.0
C1711 C 0.99139 0.75655 0.02793 0.0
C1712 C 0.0074 0.74461 0.02601 0.0
C1713 C 0.96015 0.77748 0.03232 0.0
C1714 C 0.9641 0.76509 0.04675 0.0
C1715 C 0.979 0.7541 0.04423 0.0
C1716 C 0.95611 0.76685 0.06509 0.0
C1717 C 0.9445 0.78985 0.03438 0.0
C1718 C 0.9744 0.78179 0.07768 0.0
C1719 C 0.96745 0.78678 0.09426 0.0
C1720 C 0.942 0.77684 0.09862 0.0
C1721 C 0.92366 0.7608 0.0863 0.0
C1722 C 0.93069 0.75585 0.06965 0.0
H1723 H 0.94581 0.80125 0.02251 0.0
H1724 H 0.92456 0.77525 0.03626 0.0
H1725 H 0.95049 0.80216 0.04638 0.0
H1726 H 0.99413 0.79047 0.07437 0.0
H1727 H 0.98209 0.79899 0.10346 0.0
H1728 H 0.80926 0.58305 0.23624 0.0
H1729 H 0.82677 0.59744 0.26616 0.0
H1730 H 0.82434 0.52724 0.27537 0.0
H1731 H 0.80802 0.51331 0.24537 0.0
H1732 H 0.80607 0.58019 0.29657 0.0
H1733 H 0.89119 0.57318 0.29539 0.0
H1734 H 0.87469 0.57172 0.27512 0.0
H1735 H 0.86567 0.54377 0.28809 0.0
C1736 C 0.813 0.57093 0.24453 0.0
C1737 C 0.80737 0.54708 0.23842 0.0
C1738 C 0.82299 0.57918 0.26162 0.0
C1739 C 0.82735 0.56365 0.27295 0.0
C1740 C 0.82205 0.53999 0.26671 0.0
H1741 H 0.79874 0.52675 0.3794 0.0
H1742 H 0.79933 0.54357 0.34983 0.0
C1743 C 0.8125 0.53193 0.24956 0.0
C1744 C 0.83487 0.57076 0.29187 0.0
H1745 H 0.86993 0.56503 0.32454 0.0
C1746 C 0.82051 0.57753 0.30263 0.0
C1747 C 0.85429 0.56831 0.29982 0.0
C1748 C 0.87249 0.56416 0.28889 0.0
C1749 C 0.82343 0.57948 0.3213 0.0
C1750 C 0.84041 0.57346 0.32944 0.0
C1751 C 0.85644 0.56913 0.3185 0.0
C1752 C 0.8397 0.56814 0.3489 0.0
C1753 C 0.80786 0.58742 0.33202 0.0
C1754 C 0.86208 0.57637 0.35849 0.0
C1755 C 0.86172 0.56599 0.37517 0.0
C1756 C 0.83894 0.54786 0.38272 0.0
C1757 C 0.81643 0.54123 0.37396 0.0
C1758 C 0.81681 0.55101 0.35706 0.0
H1759 H 0.80554 0.60169 0.3246 0.0
H1760 H 0.78886 0.571 0.33411 0.0
H1761 H 0.81638 0.59531 0.34524 0.0
H1762 H 0.87997 0.5895 0.35254 0.0
H1763 H 0.8793 0.571 0.38167 0.0
H1764 H 0.46951 0.26593 0.32347 0.0
H1765 H 0.47228 0.28629 0.35188 0.0
H1766 H 0.48963 0.35449 0.32437 0.0
H1767 H 0.48712 0.33423 0.29551 0.0
H1768 H 0.5213 0.36135 0.35319 0.0
H1769 H 0.42199 0.30332 0.37362 0.0
H1770 H 0.43562 0.28475 0.36719 0.0
H1771 H 0.43236 0.30431 0.35085 0.0
C1772 C 0.47376 0.28522 0.32332 0.0
C1773 C 0.4779 0.29838 0.30713 0.0
C1774 C 0.47515 0.29676 0.33963 0.0
C1775 C 0.48052 0.32165 0.34019 0.0
C1776 C 0.48512 0.33511 0.32416 0.0
H1777 H 0.51049 0.41524 0.43511 0.0
H1778 H 0.49924 0.39877 0.40477 0.0
C1779 C 0.48375 0.32354 0.30771 0.0
C1780 C 0.4826 0.33371 0.35772 0.0
H1781 H 0.45139 0.32598 0.39714 0.0
C1782 C 0.50592 0.35396 0.36271 0.0
C1783 C 0.46247 0.32392 0.37008 0.0
C1784 C 0.43663 0.30303 0.36511 0.0
C1785 C 0.51001 0.3639 0.38008 0.0
C1786 C 0.49014 0.35346 0.39263 0.0
C1787 C 0.46659 0.33377 0.38748 0.0
C1788 C 0.49387 0.3623 0.41135 0.0
C1789 C 0.53584 0.38479 0.38511 0.0
C1790 C 0.49344 0.34679 0.4252 0.0
C1791 C 0.4998 0.35609 0.44265 0.0
C1792 C 0.50666 0.38106 0.44646 0.0
C1793 C 0.50561 0.39601 0.43265 0.0
C1794 C 0.49924 0.38669 0.41527 0.0
H1795 H 0.55015 0.38749 0.37494 0.0
H1796 H 0.53557 0.40258 0.38631 0.0
H1797 H 0.54158 0.38095 0.39825 0.0
H1798 H 0.48918 0.32782 0.42237 0.0
H1799 H 0.50037 0.34405 0.45294 0.0
H1800 H 0.60543 0.08966 0.43257 0.0
H1801 H 0.60994 0.073 0.40385 0.0
H1802 H 0.66686 0.14754 0.38804 0.0
H1803 H 0.66347 0.16381 0.41696 0.0
H1804 H 0.60014 0.07969 0.37247 0.0
H1805 H 0.70028 0.11152 0.37145 0.0
H1806 H 0.68484 0.11248 0.39172 0.0
H1807 H 0.69779 0.13856 0.37628 0.0
C1808 C 0.6192 0.10233 0.42302 0.0
C1809 C 0.63425 0.12798 0.42698 0.0
C1810 C 0.62178 0.09281 0.40665 0.0
C1811 C 0.6392 0.10885 0.39388 0.0
C1812 C 0.65407 0.13451 0.39789 0.0
H1813 H 0.62848 0.12921 0.28854 0.0
H1814 H 0.61716 0.11092 0.31819 0.0
C1815 C 0.65194 0.1439 0.41437 0.0
C1816 C 0.64035 0.09967 0.37571 0.0
H1817 H 0.68209 0.1122 0.34203 0.0
C1818 C 0.61806 0.08616 0.36591 0.0
C1819 C 0.66346 0.10676 0.36721 0.0
C1820 C 0.68784 0.11782 0.37737 0.0
C1821 C 0.61854 0.08233 0.34743 0.0
C1822 C 0.6419 0.0935 0.3384 0.0
C1823 C 0.66402 0.10423 0.34862 0.0
C1824 C 0.64421 0.09823 0.31876 0.0
C1825 C 0.59396 0.06696 0.33781 0.0
C1826 C 0.66306 0.09718 0.30882 0.0
C1827 C 0.67037 0.10885 0.29212 0.0
C1828 C 0.65825 0.12083 0.28482 0.0
C1829 C 0.63772 0.11959 0.2938 0.0
C1830 C 0.63107 0.10884 0.31077 0.0
H1831 H 0.58096 0.05054 0.34607 0.0
H1832 H 0.58494 0.07844 0.33584 0.0
H1833 H 0.59642 0.06013 0.32462 0.0
H1834 H 0.67346 0.08905 0.31456 0.0
H1835 H 0.6864 0.1098 0.2854 0.0
H1836 H 0.5395 0.88759 0.53656 0.0
H1837 H 0.56648 0.88743 0.56051 0.0
H1838 H 0.51558 0.8082 0.56826 0.0
H1839 H 0.48982 0.8082 0.54353 0.0
H1840 H 0.55499 0.88102 0.5927 0.0
H1841 H 0.57809 0.80825 0.57673 0.0
H1842 H 0.56553 0.81997 0.56002 0.0
H1843 H 0.54489 0.7944 0.57454 0.0
C1844 C 0.53481 0.87003 0.54297 0.0
C1845 C 0.51296 0.84783 0.53821 0.0
C1846 C 0.55009 0.86993 0.55668 0.0
C1847 C 0.54334 0.84775 0.56614 0.0
C1848 C 0.52183 0.82539 0.56084 0.0
H1849 H 0.53612 0.82508 0.6756 0.0
H1850 H 0.53818 0.84072 0.64548 0.0
C1851 C 0.50697 0.82537 0.54679 0.0
C1852 C 0.55619 0.84858 0.58312 0.0
H1853 H 0.57202 0.8132 0.60888 0.0
C1854 C 0.55938 0.86657 0.59603 0.0
C1855 C 0.56278 0.83034 0.58752 0.0
C1856 C 0.5629 0.8124 0.57383 0.0
C1857 C 0.56673 0.8654 0.61356 0.0
C1858 C 0.56986 0.84506 0.61855 0.0
C1859 C 0.56898 0.82847 0.60527 0.0
C1860 C 0.57104 0.83887 0.63758 0.0
C1861 C 0.57048 0.88573 0.62657 0.0
C1862 C 0.58858 0.8322 0.64325 0.0
C1863 C 0.58697 0.82252 0.66041 0.0
C1864 C 0.56796 0.8196 0.67227 0.0
C1865 C 0.55122 0.82745 0.66689 0.0
C1866 C 0.55252 0.83662 0.64965 0.0
H1867 H 0.57823 0.90405 0.61962 0.0
H1868 H 0.5521 0.88126 0.63233 0.0
H1869 H 0.58334 0.88771 0.63763 0.0
H1870 H 0.60298 0.83366 0.63418 0.0
H1871 H 0.60015 0.81663 0.6642 0.0
H1872 H 0.07818 0.63545 0.6058 0.0
H1873 H 0.07351 0.65064 0.63509 0.0
H1874 H 0.15296 0.7042 0.63544 0.0
H1875 H 0.15699 0.69059 0.60571 0.0
H1876 H 0.08808 0.64574 0.66394 0.0
H1877 H 0.13253 0.7472 0.65838 0.0
H1878 H 0.12464 0.72786 0.63861 0.0
H1879 H 0.15491 0.73999 0.64921 0.0
C1880 C 0.09437 0.65112 0.61196 0.0
C1881 C 0.11788 0.6621 0.60353 0.0
C1882 C 0.09175 0.65973 0.62871 0.0
C1883 C 0.11277 0.67896 0.63753 0.0
C1884 C 0.13615 0.6902 0.62878 0.0
H1885 H 0.16445 0.67569 0.73593 0.0
H1886 H 0.1376 0.66486 0.70994 0.0
C1887 C 0.13856 0.68222 0.6118 0.0
C1888 C 0.1114 0.68476 0.65673 0.0
H1889 H 0.14233 0.73204 0.6867 0.0
C1890 C 0.0993 0.66476 0.66887 0.0
C1891 C 0.12477 0.70951 0.66353 0.0
C1892 C 0.13459 0.73227 0.65163 0.0
C1893 C 0.10291 0.66863 0.68738 0.0
C1894 C 0.12031 0.69283 0.69385 0.0
C1895 C 0.12974 0.71319 0.68192 0.0
C1896 C 0.1321 0.69689 0.71185 0.0
C1897 C 0.08849 0.64652 0.69966 0.0
C1898 C 0.13841 0.71866 0.72181 0.0
C1899 C 0.15491 0.72551 0.73629 0.0
C1900 C 0.16468 0.71026 0.74141 0.0
C1901 C 0.15674 0.68751 0.73248 0.0
C1902 C 0.14108 0.68116 0.71763 0.0
H1903 H 0.06892 0.63481 0.69485 0.0
H1904 H 0.09713 0.63451 0.69941 0.0
H1905 H 0.08802 0.6524 0.71364 0.0
H1906 H 0.13179 0.73116 0.71775 0.0
H1907 H 0.16089 0.74322 0.74297 0.0
H1908 H 0.38698 0.50681 0.5536 0.0
H1909 H 0.38028 0.49219 0.58459 0.0
H1910 H 0.30034 0.45363 0.57643 0.0
H1911 H 0.30672 0.46781 0.54545 0.0
H1912 H 0.355 0.50435 0.6094 0.0
H1913 H 0.30968 0.40129 0.60312 0.0
H1914 H 0.3269 0.42235 0.58499 0.0
H1915 H 0.29498 0.41409 0.58945 0.0
C1916 C 0.36796 0.49487 0.55828 0.0
C1917 C 0.34738 0.48858 0.54701 0.0
C1918 C 0.3642 0.48651 0.576 0.0
C1919 C 0.33984 0.47152 0.58271 0.0
C1920 C 0.31931 0.46468 0.57139 0.0
H1921 H 0.25639 0.4314 0.67778 0.0
H1922 H 0.2736 0.4344 0.64792 0.0
C1923 C 0.32301 0.47305 0.55371 0.0
C1924 C 0.33565 0.46535 0.60199 0.0
H1925 H 0.3032 0.41694 0.63108 0.0
C1926 C 0.34415 0.48523 0.61423 0.0
C1927 C 0.32147 0.4404 0.60819 0.0
C1928 C 0.31294 0.4183 0.59576 0.0
C1929 C 0.3375 0.48091 0.63237 0.0
C1930 C 0.32234 0.45598 0.63845 0.0
C1931 C 0.31482 0.43602 0.62636 0.0
C1932 C 0.31198 0.45057 0.65682 0.0
C1933 C 0.34545 0.50314 0.64463 0.0
C1934 C 0.32777 0.45773 0.67179 0.0
C1935 C 0.31802 0.45621 0.68895 0.0
C1936 C 0.29227 0.44734 0.6914 0.0
C1937 C 0.27632 0.4385 0.67644 0.0
C1938 C 0.28611 0.44013 0.65932 0.0
H1939 H 0.35311 0.52103 0.63711 0.0
H1940 H 0.32941 0.50075 0.65289 0.0
H1941 H 0.36025 0.50467 0.65382 0.0
H1942 H 0.34775 0.46541 0.67013 0.0
H1943 H 0.33083 0.46295 0.70018 0.0
loop_
_geom_bond_atom_site_label_1
_geom_bond_atom_site_label_2
_geom_bond_distance
_geom_bond_site_symmetry_2
_ccdc_geom_bond_type
Mn0 O5 2.095 . S
Mn0 O15 2.162 . S
Mn0 O16 2.297 . S
Mn0 O24 2.385 . S
Mn0 O25 2.209 . S
Mn0 O26 2.094 . S
Mn1 O6 2.121 . S
Mn1 N8 2.257 . S
Mn1 N17 2.282 . S
Mn1 O25 2.215 . S
Mn1 O27 2.117 . S
C2 O24 1.234 . S
C2 O25 1.283 . S
C3 O15 1.281 . S
C3 O16 1.236 . S
C4 O26 1.240 . S
C4 O27 1.264 . S
O5 Mn0 2.095 . S
O5 C14 1.250 . S
O6 Mn1 2.121 . S
O6 C14 1.258 . S
C7 N8 1.326 . S
C7 C11 1.460 . S
C7 H13 0.929 . S
N8 Mn1 2.257 . S
N8 C7 1.326 . S
N8 C12 1.362 . S
C9 C10 1.258 . S
C9 C12 1.431 . S
C9 C29 1.449 . S
C10 C9 1.258 . S
C10 C11 1.477 . S
C10 H30 0.931 . S
C11 C7 1.460 . S
C11 C10 1.477 . S
C11 H31 0.930 . S
C12 N8 1.362 . S
C12 C9 1.431 . S
C12 C22 1.476 . S
H13 C7 0.929 . S
C14 O5 1.250 . S
C14 O6 1.258 . S
O15 Mn0 2.162 . S
O15 C3 1.281 . S
O16 Mn0 2.297 . S
O16 C3 1.236 . S
N17 Mn1 2.282 . S
N17 C18 1.328 . S
N17 C22 1.318 . S
C18 N17 1.328 . S
C18 C19 1.457 . S
C18 H23 0.929 . S
C19 C18 1.457 . S
C19 C20 1.291 . S
C19 H32 0.931 . S
C20 C19 1.291 . S
C20 C21 1.373 . S
C20 H33 0.929 . S
C21 C20 1.373 . S
C21 C22 1.396 . S
C21 C28 1.403 . S
C22 C12 1.476 . S
C22 N17 1.318 . S
C22 C21 1.396 . S
H23 C18 0.929 . S
O24 Mn0 2.385 . S
O24 C2 1.234 . S
O25 Mn0 2.209 . S
O25 Mn1 2.215 . S
O25 C2 1.283 . S
O26 Mn0 2.094 . S
O26 C4 1.240 . S
O27 Mn1 2.117 . S
O27 C4 1.264 . S
C28 C21 1.403 . S
C28 C29 1.399 . S
C28 H34 0.929 . S
C29 C9 1.449 . S
C29 C28 1.399 . S
C29 H35 0.930 . S
H30 C10 0.931 . S
H31 C11 0.930 . S
H32 C19 0.931 . S
H33 C20 0.929 . S
H34 C28 0.929 . S
H35 C29 0.930 . S
Mn36 O41 2.095 . S
Mn36 O51 2.162 . S
Mn36 O52 2.297 . S
Mn36 O60 2.385 1_565 S
Mn36 O61 2.209 1_565 S
Mn36 O62 2.094 1_565 S
Mn37 O42 2.121 . S
Mn37 N44 2.257 . S
Mn37 N53 2.282 . S
Mn37 O61 2.215 . S
Mn37 O63 2.117 . S
C38 O60 1.234 . S
C38 O61 1.283 . S
C39 O51 1.281 . S
C39 O52 1.236 . S
C40 O62 1.240 . S
C40 O63 1.264 . S
O41 Mn36 2.095 . S
O41 C50 1.253 . S
O42 Mn37 2.121 . S
O42 C50 1.252 1_545 S
C43 N44 1.326 . S
C43 C47 1.460 . S
C43 H49 0.929 . S
N44 Mn37 2.257 . S
N44 C43 1.326 . S
N44 C48 1.362 . S
C45 C46 1.258 . S
C45 C48 1.431 . S
C45 C65 1.449 . S
C46 C45 1.258 . S
C46 C47 1.477 . S
C46 H66 0.931 . S
C47 C43 1.460 . S
C47 C46 1.477 . S
C47 H67 0.930 . S
C48 N44 1.362 . S
C48 C45 1.431 . S
C48 C58 1.476 . S
H49 C43 0.929 . S
C50 O41 1.253 . S
C50 O42 1.252 1_565 S
O51 Mn36 2.162 . S
O51 C39 1.281 . S
O52 Mn36 2.297 . S
O52 C39 1.236 . S
N53 Mn37 2.282 . S
N53 C54 1.328 . S
N53 C58 1.318 . S
C54 N53 1.328 . S
C54 C55 1.457 . S
C54 H59 0.929 . S
C55 C54 1.457 . S
C55 C56 1.291 . S
C55 H68 0.931 . S
C56 C55 1.291 . S
C56 C57 1.373 . S
C56 H69 0.929 . S
C57 C56 1.373 . S
C57 C58 1.396 . S
C57 C64 1.403 . S
C58 C48 1.476 . S
C58 N53 1.318 . S
C58 C57 1.396 . S
H59 C54 0.929 . S
O60 Mn36 2.385 1_545 S
O60 C38 1.234 . S
O61 Mn36 2.209 1_545 S
O61 Mn37 2.215 . S
O61 C38 1.283 . S
O62 Mn36 2.094 1_545 S
O62 C40 1.240 . S
O63 Mn37 2.117 . S
O63 C40 1.264 . S
C64 C57 1.403 . S
C64 C65 1.399 . S
C64 H70 0.929 . S
C65 C45 1.449 . S
C65 C64 1.399 . S
C65 H71 0.930 . S
H66 C46 0.931 . S
H67 C47 0.930 . S
H68 C55 0.931 . S
H69 C56 0.929 . S
H70 C64 0.929 . S
H71 C65 0.930 . S
Mn72 O77 2.095 . S
Mn72 O87 2.162 . S
Mn72 O88 2.297 . S
Mn72 O96 2.385 1_455 S
Mn72 O97 2.209 1_455 S
Mn72 O98 2.094 1_455 S
Mn73 O78 2.121 . S
Mn73 N80 2.257 . S
Mn73 N89 2.282 . S
Mn73 O97 2.215 . S
Mn73 O99 2.117 . S
C74 O96 1.234 . S
C74 O97 1.283 . S
C75 O87 1.281 . S
C75 O88 1.236 . S
C76 O98 1.240 . S
C76 O99 1.264 . S
O77 Mn72 2.095 . S
O77 C86 1.254 . S
O78 Mn73 2.121 . S
O78 C86 1.251 1_655 S
C79 N80 1.326 . S
C79 C83 1.460 . S
C79 H85 0.929 . S
N80 Mn73 2.257 . S
N80 C79 1.326 . S
N80 C84 1.362 . S
C81 C82 1.258 . S
C81 C84 1.431 . S
C81 C101 1.449 . S
C82 C81 1.258 . S
C82 C83 1.477 . S
C82 H102 0.931 . S
C83 C79 1.460 . S
C83 C82 1.477 . S
C83 H103 0.930 . S
C84 N80 1.362 . S
C84 C81 1.431 . S
C84 C94 1.476 . S
H85 C79 0.929 . S
C86 O77 1.254 . S
C86 O78 1.251 1_455 S
O87 Mn72 2.162 . S
O87 C75 1.281 . S
O88 Mn72 2.297 . S
O88 C75 1.236 . S
N89 Mn73 2.282 . S
N89 C90 1.328 . S
N89 C94 1.318 . S
C90 N89 1.328 . S
C90 C91 1.457 . S
C90 H95 0.929 . S
C91 C90 1.457 . S
C91 C92 1.291 . S
C91 H104 0.931 . S
C92 C91 1.291 . S
C92 C93 1.373 . S
C92 H105 0.929 . S
C93 C92 1.373 . S
C93 C94 1.396 . S
C93 C100 1.403 . S
C94 C84 1.476 . S
C94 N89 1.318 . S
C94 C93 1.396 . S
H95 C90 0.929 . S
O96 Mn72 2.385 1_655 S
O96 C74 1.234 . S
O97 Mn72 2.209 1_655 S
O97 Mn73 2.215 . S
O97 C74 1.283 . S
O98 Mn72 2.094 1_655 S
O98 C76 1.240 . S
O99 Mn73 2.117 . S
O99 C76 1.264 . S
C100 C93 1.403 . S
C100 C101 1.399 . S
C100 H106 0.929 . S
C101 C81 1.449 . S
C101 C100 1.399 . S
C101 H107 0.930 . S
H102 C82 0.931 . S
H103 C83 0.930 . S
H104 C91 0.931 . S
H105 C92 0.929 . S
H106 C100 0.929 . S
H107 C101 0.930 . S
Mn108 O113 2.095 . S
Mn108 O123 2.162 . S
Mn108 O124 2.297 . S
Mn108 O132 2.385 . S
Mn108 O133 2.209 . S
Mn108 O134 2.094 . S
Mn109 O114 2.121 . S
Mn109 N116 2.257 . S
Mn109 N125 2.282 . S
Mn109 O133 2.215 . S
Mn109 O135 2.117 . S
C110 O132 1.234 . S
C110 O133 1.283 . S
C111 O123 1.281 . S
C111 O124 1.236 . S
C112 O134 1.240 . S
C112 O135 1.264 . S
O113 Mn108 2.095 . S
O113 C122 1.250 . S
O114 Mn109 2.121 . S
O114 C122 1.258 . S
C115 N116 1.326 . S
C115 C119 1.460 . S
C115 H121 0.929 . S
N116 Mn109 2.257 . S
N116 C115 1.326 . S
N116 C120 1.362 . S
C117 C118 1.258 . S
C117 C120 1.431 . S
C117 C137 1.449 . S
C118 C117 1.258 . S
C118 C119 1.477 . S
C118 H138 0.931 . S
C119 C115 1.460 . S
C119 C118 1.477 . S
C119 H139 0.930 . S
C120 N116 1.362 . S
C120 C117 1.431 . S
C120 C130 1.476 . S
H121 C115 0.929 . S
C122 O113 1.250 . S
C122 O114 1.258 . S
O123 Mn108 2.162 . S
O123 C111 1.281 . S
O124 Mn108 2.297 . S
O124 C111 1.236 . S
N125 Mn109 2.282 . S
N125 C126 1.328 . S
N125 C130 1.318 . S
C126 N125 1.328 . S
C126 C127 1.457 . S
C126 H131 0.929 . S
C127 C126 1.457 . S
C127 C128 1.291 . S
C127 H140 0.931 . S
C128 C127 1.291 . S
C128 C129 1.373 . S
C128 H141 0.929 . S
C129 C128 1.373 . S
C129 C130 1.396 . S
C129 C136 1.403 . S
C130 C120 1.476 . S
C130 N125 1.318 . S
C130 C129 1.396 . S
H131 C126 0.929 . S
O132 Mn108 2.385 . S
O132 C110 1.234 . S
O133 Mn108 2.209 . S
O133 Mn109 2.215 . S
O133 C110 1.283 . S
O134 Mn108 2.094 . S
O134 C112 1.240 . S
O135 Mn109 2.117 . S
O135 C112 1.264 . S
C136 C129 1.403 . S
C136 C137 1.399 . S
C136 H142 0.929 . S
C137 C117 1.449 . S
C137 C136 1.399 . S
C137 H143 0.930 . S
H138 C118 0.931 . S
H139 C119 0.930 . S
H140 C127 0.931 . S
H141 C128 0.929 . S
H142 C136 0.929 . S
H143 C137 0.930 . S
Mn144 O149 2.095 . S
Mn144 O159 2.162 . S
Mn144 O160 2.297 . S
Mn144 O168 2.385 1_545 S
Mn144 O169 2.209 1_545 S
Mn144 O170 2.094 1_545 S
Mn145 O150 2.121 . S
Mn145 N152 2.257 . S
Mn145 N161 2.282 . S
Mn145 O169 2.215 . S
Mn145 O171 2.117 . S
C146 O168 1.234 . S
C146 O169 1.283 . S
C147 O159 1.281 . S
C147 O160 1.236 . S
C148 O170 1.240 . S
C148 O171 1.264 . S
O149 Mn144 2.095 . S
O149 C158 1.254 . S
O150 Mn145 2.121 . S
O150 C158 1.251 1_565 S
C151 N152 1.326 . S
C151 C155 1.460 . S
C151 H157 0.929 . S
N152 Mn145 2.257 . S
N152 C151 1.326 . S
N152 C156 1.362 . S
C153 C154 1.258 . S
C153 C156 1.431 . S
C153 C173 1.449 . S
C154 C153 1.258 . S
C154 C155 1.477 . S
C154 H174 0.931 . S
C155 C151 1.460 . S
C155 C154 1.477 . S
C155 H175 0.930 . S
C156 N152 1.362 . S
C156 C153 1.431 . S
C156 C166 1.476 . S
H157 C151 0.929 . S
C158 O149 1.254 . S
C158 O150 1.251 1_545 S
O159 Mn144 2.162 . S
O159 C147 1.281 . S
O160 Mn144 2.297 . S
O160 C147 1.236 . S
N161 Mn145 2.282 . S
N161 C162 1.328 . S
N161 C166 1.318 . S
C162 N161 1.328 . S
C162 C163 1.457 . S
C162 H167 0.929 . S
C163 C162 1.457 . S
C163 C164 1.291 . S
C163 H176 0.931 . S
C164 C163 1.291 . S
C164 C165 1.373 . S
C164 H177 0.929 . S
C165 C164 1.373 . S
C165 C166 1.396 . S
C165 C172 1.403 . S
C166 C156 1.476 . S
C166 N161 1.318 . S
C166 C165 1.396 . S
H167 C162 0.929 . S
O168 Mn144 2.385 1_565 S
O168 C146 1.234 . S
O169 Mn144 2.209 1_565 S
O169 Mn145 2.215 . S
O169 C146 1.283 . S
O170 Mn144 2.094 1_565 S
O170 C148 1.240 . S
O171 Mn145 2.117 . S
O171 C148 1.264 . S
C172 C165 1.403 . S
C172 C173 1.399 . S
C172 H178 0.929 . S
C173 C153 1.449 . S
C173 C172 1.399 . S
C173 H179 0.930 . S
H174 C154 0.931 . S
H175 C155 0.930 . S
H176 C163 0.931 . S
H177 C164 0.929 . S
H178 C172 0.929 . S
H179 C173 0.930 . S
Mn180 O185 2.095 . S
Mn180 O195 2.162 . S
Mn180 O196 2.297 . S
Mn180 O204 2.385 1_655 S
Mn180 O205 2.209 1_655 S
Mn180 O206 2.094 1_655 S
Mn181 O186 2.121 . S
Mn181 N188 2.257 . S
Mn181 N197 2.282 . S
Mn181 O205 2.215 . S
Mn181 O207 2.117 . S
C182 O204 1.234 . S
C182 O205 1.283 . S
C183 O195 1.281 . S
C183 O196 1.236 . S
C184 O206 1.240 . S
C184 O207 1.264 . S
O185 Mn180 2.095 . S
O185 C194 1.253 . S
O186 Mn181 2.121 . S
O186 C194 1.252 1_455 S
C187 N188 1.326 . S
C187 C191 1.460 . S
C187 H193 0.929 . S
N188 Mn181 2.257 . S
N188 C187 1.326 . S
N188 C192 1.362 . S
C189 C190 1.258 . S
C189 C192 1.431 . S
C189 C209 1.449 . S
C190 C189 1.258 . S
C190 C191 1.477 . S
C190 H210 0.931 . S
C191 C187 1.460 . S
C191 C190 1.477 . S
C191 H211 0.930 . S
C192 N188 1.362 . S
C192 C189 1.431 . S
C192 C202 1.476 . S
H193 C187 0.929 . S
C194 O185 1.253 . S
C194 O186 1.252 1_655 S
O195 Mn180 2.162 . S
O195 C183 1.281 . S
O196 Mn180 2.297 . S
O196 C183 1.236 . S
N197 Mn181 2.282 . S
N197 C198 1.328 . S
N197 C202 1.318 . S
C198 N197 1.328 . S
C198 C199 1.457 . S
C198 H203 0.929 . S
C199 C198 1.457 . S
C199 C200 1.291 . S
C199 H212 0.931 . S
C200 C199 1.291 . S
C200 C201 1.373 . S
C200 H213 0.929 . S
C201 C200 1.373 . S
C201 C202 1.396 . S
C201 C208 1.403 . S
C202 C192 1.476 . S
C202 N197 1.318 . S
C202 C201 1.396 . S
H203 C198 0.929 . S
O204 Mn180 2.385 1_455 S
O204 C182 1.234 . S
O205 Mn180 2.209 1_455 S
O205 Mn181 2.215 . S
O205 C182 1.283 . S
O206 Mn180 2.094 1_455 S
O206 C184 1.240 . S
O207 Mn181 2.117 . S
O207 C184 1.264 . S
C208 C201 1.403 . S
C208 C209 1.399 . S
C208 H214 0.929 . S
C209 C189 1.449 . S
C209 C208 1.399 . S
C209 H215 0.930 . S
H210 C190 0.931 . S
H211 C191 0.930 . S
H212 C199 0.931 . S
H213 C200 0.929 . S
H214 C208 0.929 . S
H215 C209 0.930 . S
Mn216 O221 2.095 . S
Mn216 O231 2.162 . S
Mn216 O232 2.297 . S
Mn216 O240 2.385 . S
Mn216 O241 2.209 . S
Mn216 O242 2.094 . S
Mn217 O222 2.121 . S
Mn217 N224 2.257 . S
Mn217 N233 2.282 . S
Mn217 O241 2.215 . S
Mn217 O243 2.117 . S
C218 O240 1.234 . S
C218 O241 1.283 . S
C219 O231 1.281 . S
C219 O232 1.236 . S
C220 O242 1.240 . S
C220 O243 1.264 . S
O221 Mn216 2.095 . S
O221 C230 1.250 . S
O222 Mn217 2.121 . S
O222 C230 1.258 . S
C223 N224 1.326 . S
C223 C227 1.460 . S
C223 H229 0.929 . S
N224 Mn217 2.257 . S
N224 C223 1.326 . S
N224 C228 1.362 . S
C225 C226 1.258 . S
C225 C228 1.431 . S
C225 C245 1.449 . S
C226 C225 1.258 . S
C226 C227 1.477 . S
C226 H246 0.931 . S
C227 C223 1.460 . S
C227 C226 1.477 . S
C227 H247 0.930 . S
C228 N224 1.362 . S
C228 C225 1.431 . S
C228 C238 1.476 . S
H229 C223 0.929 . S
C230 O221 1.250 . S
C230 O222 1.258 . S
O231 Mn216 2.162 . S
O231 C219 1.281 . S
O232 Mn216 2.297 . S
O232 C219 1.236 . S
N233 Mn217 2.282 . S
N233 C234 1.328 . S
N233 C238 1.318 . S
C234 N233 1.328 . S
C234 C235 1.457 . S
C234 H239 0.929 . S
C235 C234 1.457 . S
C235 C236 1.291 . S
C235 H248 0.931 . S
C236 C235 1.291 . S
C236 C237 1.373 . S
C236 H249 0.929 . S
C237 C236 1.373 . S
C237 C238 1.396 . S
C237 C244 1.403 . S
C238 C228 1.476 . S
C238 N233 1.318 . S
C238 C237 1.396 . S
H239 C234 0.929 . S
O240 Mn216 2.385 . S
O240 C218 1.234 . S
O241 Mn216 2.209 . S
O241 Mn217 2.215 . S
O241 C218 1.283 . S
O242 Mn216 2.094 . S
O242 C220 1.240 . S
O243 Mn217 2.117 . S
O243 C220 1.264 . S
C244 C237 1.403 . S
C244 C245 1.399 . S
C244 H250 0.929 . S
C245 C225 1.449 . S
C245 C244 1.399 . S
C245 H251 0.930 . S
H246 C226 0.931 . S
H247 C227 0.930 . S
H248 C235 0.931 . S
H249 C236 0.929 . S
H250 C244 0.929 . S
H251 C245 0.930 . S
Mn252 O257 2.095 . S
Mn252 O267 2.162 . S
Mn252 O268 2.297 . S
Mn252 O276 2.385 . S
Mn252 O277 2.209 . S
Mn252 O278 2.094 . S
Mn253 O258 2.121 . S
Mn253 N260 2.257 . S
Mn253 N269 2.282 . S
Mn253 O277 2.215 . S
Mn253 O279 2.117 . S
C254 O276 1.234 . S
C254 O277 1.283 . S
C255 O267 1.281 . S
C255 O268 1.236 . S
C256 O278 1.240 . S
C256 O279 1.264 . S
O257 Mn252 2.095 . S
O257 C266 1.250 . S
O258 Mn253 2.121 . S
O258 C266 1.258 . S
C259 N260 1.326 . S
C259 C263 1.460 . S
C259 H265 0.929 . S
N260 Mn253 2.257 . S
N260 C259 1.326 . S
N260 C264 1.362 . S
C261 C262 1.258 . S
C261 C264 1.431 . S
C261 C281 1.449 . S
C262 C261 1.258 . S
C262 C263 1.477 . S
C262 H282 0.931 . S
C263 C259 1.460 . S
C263 C262 1.477 . S
C263 H283 0.930 . S
C264 N260 1.362 . S
C264 C261 1.431 . S
C264 C274 1.476 . S
H265 C259 0.929 . S
C266 O257 1.250 . S
C266 O258 1.258 . S
O267 Mn252 2.162 . S
O267 C255 1.281 . S
O268 Mn252 2.297 . S
O268 C255 1.236 . S
N269 Mn253 2.282 . S
N269 C270 1.328 . S
N269 C274 1.318 . S
C270 N269 1.328 . S
C270 C271 1.457 . S
C270 H275 0.929 . S
C271 C270 1.457 . S
C271 C272 1.291 . S
C271 H284 0.931 . S
C272 C271 1.291 . S
C272 C273 1.373 . S
C272 H285 0.929 . S
C273 C272 1.373 . S
C273 C274 1.396 . S
C273 C280 1.403 . S
C274 C264 1.476 . S
C274 N269 1.318 . S
C274 C273 1.396 . S
H275 C270 0.929 . S
O276 Mn252 2.385 . S
O276 C254 1.234 . S
O277 Mn252 2.209 . S
O277 Mn253 2.215 . S
O277 C254 1.283 . S
O278 Mn252 2.094 . S
O278 C256 1.240 . S
O279 Mn253 2.117 . S
O279 C256 1.264 . S
C280 C273 1.403 . S
C280 C281 1.399 . S
C280 H286 0.929 . S
C281 C261 1.449 . S
C281 C280 1.399 . S
C281 H287 0.930 . S
H282 C262 0.931 . S
H283 C263 0.930 . S
H284 C271 0.931 . S
H285 C272 0.929 . S
H286 C280 0.929 . S
H287 C281 0.930 . S
Mn288 O293 2.095 . S
Mn288 O303 2.162 . S
Mn288 O304 2.297 . S
Mn288 O312 2.385 . S
Mn288 O313 2.209 . S
Mn288 O314 2.094 . S
Mn289 O294 2.121 . S
Mn289 N296 2.257 . S
Mn289 N305 2.282 . S
Mn289 O313 2.215 . S
Mn289 O315 2.117 . S
C290 O312 1.234 . S
C290 O313 1.283 . S
C291 O303 1.281 . S
C291 O304 1.236 . S
C292 O314 1.240 . S
C292 O315 1.264 . S
O293 Mn288 2.095 . S
O293 C302 1.250 . S
O294 Mn289 2.121 . S
O294 C302 1.258 . S
C295 N296 1.326 . S
C295 C299 1.460 . S
C295 H301 0.929 . S
N296 Mn289 2.257 . S
N296 C295 1.326 . S
N296 C300 1.362 . S
C297 C298 1.258 . S
C297 C300 1.431 . S
C297 C317 1.449 . S
C298 C297 1.258 . S
C298 C299 1.477 . S
C298 H318 0.931 . S
C299 C295 1.460 . S
C299 C298 1.477 . S
C299 H319 0.930 . S
C300 N296 1.362 . S
C300 C297 1.431 . S
C300 C310 1.476 . S
H301 C295 0.929 . S
C302 O293 1.250 . S
C302 O294 1.258 . S
O303 Mn288 2.162 . S
O303 C291 1.281 . S
O304 Mn288 2.297 . S
O304 C291 1.236 . S
N305 Mn289 2.282 . S
N305 C306 1.328 . S
N305 C310 1.318 . S
C306 N305 1.328 . S
C306 C307 1.457 . S
C306 H311 0.929 . S
C307 C306 1.457 . S
C307 C308 1.291 . S
C307 H320 0.931 . S
C308 C307 1.291 . S
C308 C309 1.373 . S
C308 H321 0.929 . S
C309 C308 1.373 . S
C309 C310 1.396 . S
C309 C316 1.403 . S
C310 C300 1.476 . S
C310 N305 1.318 . S
C310 C309 1.396 . S
H311 C306 0.929 . S
O312 Mn288 2.385 . S
O312 C290 1.234 . S
O313 Mn288 2.209 . S
O313 Mn289 2.215 . S
O313 C290 1.283 . S
O314 Mn288 2.094 . S
O314 C292 1.240 . S
O315 Mn289 2.117 . S
O315 C292 1.264 . S
C316 C309 1.403 . S
C316 C317 1.399 . S
C316 H322 0.929 . S
C317 C297 1.449 . S
C317 C316 1.399 . S
C317 H323 0.930 . S
H318 C298 0.931 . S
H319 C299 0.930 . S
H320 C307 0.931 . S
H321 C308 0.929 . S
H322 C316 0.929 . S
H323 C317 0.930 . S
Mn324 O329 2.095 . S
Mn324 O339 2.162 . S
Mn324 O340 2.297 . S
Mn324 O348 2.385 . S
Mn324 O349 2.209 . S
Mn324 O350 2.094 . S
Mn325 O330 2.121 . S
Mn325 N332 2.257 . S
Mn325 N341 2.282 . S
Mn325 O349 2.215 . S
Mn325 O351 2.117 . S
C326 O348 1.234 . S
C326 O349 1.283 . S
C327 O339 1.281 . S
C327 O340 1.236 . S
C328 O350 1.240 . S
C328 O351 1.264 . S
O329 Mn324 2.095 . S
O329 C338 1.250 . S
O330 Mn325 2.121 . S
O330 C338 1.258 . S
C331 N332 1.326 . S
C331 C335 1.460 . S
C331 H337 0.929 . S
N332 Mn325 2.257 . S
N332 C331 1.326 . S
N332 C336 1.362 . S
C333 C334 1.258 . S
C333 C336 1.431 . S
C333 C353 1.449 . S
C334 C333 1.258 . S
C334 C335 1.477 . S
C334 H354 0.931 . S
C335 C331 1.460 . S
C335 C334 1.477 . S
C335 H355 0.930 . S
C336 N332 1.362 . S
C336 C333 1.431 . S
C336 C346 1.476 . S
H337 C331 0.929 . S
C338 O329 1.250 . S
C338 O330 1.258 . S
O339 Mn324 2.162 . S
O339 C327 1.281 . S
O340 Mn324 2.297 . S
O340 C327 1.236 . S
N341 Mn325 2.282 . S
N341 C342 1.328 . S
N341 C346 1.318 . S
C342 N341 1.328 . S
C342 C343 1.457 . S
C342 H347 0.929 . S
C343 C342 1.457 . S
C343 C344 1.291 . S
C343 H356 0.931 . S
C344 C343 1.291 . S
C344 C345 1.373 . S
C344 H357 0.929 . S
C345 C344 1.373 . S
C345 C346 1.396 . S
C345 C352 1.403 . S
C346 C336 1.476 . S
C346 N341 1.318 . S
C346 C345 1.396 . S
H347 C342 0.929 . S
O348 Mn324 2.385 . S
O348 C326 1.234 . S
O349 Mn324 2.209 . S
O349 Mn325 2.215 . S
O349 C326 1.283 . S
O350 Mn324 2.094 . S
O350 C328 1.240 . S
O351 Mn325 2.117 . S
O351 C328 1.264 . S
C352 C345 1.403 . S
C352 C353 1.399 . S
C352 H358 0.929 . S
C353 C333 1.449 . S
C353 C352 1.399 . S
C353 H359 0.930 . S
H354 C334 0.931 . S
H355 C335 0.930 . S
H356 C343 0.931 . S
H357 C344 0.929 . S
H358 C352 0.929 . S
H359 C353 0.930 . S
Mn360 O365 2.095 . S
Mn360 O375 2.162 . S
Mn360 O376 2.297 . S
Mn360 O384 2.385 . S
Mn360 O385 2.209 . S
Mn360 O386 2.094 . S
Mn361 O366 2.121 . S
Mn361 N368 2.257 . S
Mn361 N377 2.282 . S
Mn361 O385 2.215 . S
Mn361 O387 2.117 . S
C362 O384 1.234 . S
C362 O385 1.283 . S
C363 O375 1.281 . S
C363 O376 1.236 . S
C364 O386 1.240 . S
C364 O387 1.264 . S
O365 Mn360 2.095 . S
O365 C374 1.250 . S
O366 Mn361 2.121 . S
O366 C374 1.258 . S
C367 N368 1.326 . S
C367 C371 1.460 . S
C367 H373 0.929 . S
N368 Mn361 2.257 . S
N368 C367 1.326 . S
N368 C372 1.362 . S
C369 C370 1.258 . S
C369 C372 1.431 . S
C369 C389 1.449 . S
C370 C369 1.258 . S
C370 C371 1.477 . S
C370 H390 0.931 . S
C371 C367 1.460 . S
C371 C370 1.477 . S
C371 H391 0.930 . S
C372 N368 1.362 . S
C372 C369 1.431 . S
C372 C382 1.476 . S
H373 C367 0.929 . S
C374 O365 1.250 . S
C374 O366 1.258 . S
O375 Mn360 2.162 . S
O375 C363 1.281 . S
O376 Mn360 2.297 . S
O376 C363 1.236 . S
N377 Mn361 2.282 . S
N377 C378 1.328 . S
N377 C382 1.318 . S
C378 N377 1.328 . S
C378 C379 1.457 . S
C378 H383 0.929 . S
C379 C378 1.457 . S
C379 C380 1.291 . S
C379 H392 0.931 . S
C380 C379 1.291 . S
C380 C381 1.373 . S
C380 H393 0.929 . S
C381 C380 1.373 . S
C381 C382 1.396 . S
C381 C388 1.403 . S
C382 C372 1.476 . S
C382 N377 1.318 . S
C382 C381 1.396 . S
H383 C378 0.929 . S
O384 Mn360 2.385 . S
O384 C362 1.234 . S
O385 Mn360 2.209 . S
O385 Mn361 2.215 . S
O385 C362 1.283 . S
O386 Mn360 2.094 . S
O386 C364 1.240 . S
O387 Mn361 2.117 . S
O387 C364 1.264 . S
C388 C381 1.403 . S
C388 C389 1.399 . S
C388 H394 0.929 . S
C389 C369 1.449 . S
C389 C388 1.399 . S
C389 H395 0.930 . S
H390 C370 0.931 . S
H391 C371 0.930 . S
H392 C379 0.931 . S
H393 C380 0.929 . S
H394 C388 0.929 . S
H395 C389 0.930 . S
Mn396 O401 2.095 . S
Mn396 O411 2.162 . S
Mn396 O412 2.297 . S
Mn396 O420 2.385 . S
Mn396 O421 2.209 . S
Mn396 O422 2.094 . S
Mn397 O402 2.121 . S
Mn397 N404 2.257 . S
Mn397 N413 2.282 . S
Mn397 O421 2.215 . S
Mn397 O423 2.117 . S
C398 O420 1.234 . S
C398 O421 1.283 . S
C399 O411 1.281 . S
C399 O412 1.236 . S
C400 O422 1.240 . S
C400 O423 1.264 . S
O401 Mn396 2.095 . S
O401 C410 1.250 . S
O402 Mn397 2.121 . S
O402 C410 1.258 . S
C403 N404 1.326 . S
C403 C407 1.460 . S
C403 H409 0.929 . S
N404 Mn397 2.257 . S
N404 C403 1.326 . S
N404 C408 1.362 . S
C405 C406 1.258 . S
C405 C408 1.431 . S
C405 C425 1.449 . S
C406 C405 1.258 . S
C406 C407 1.477 . S
C406 H426 0.931 . S
C407 C403 1.460 . S
C407 C406 1.477 . S
C407 H427 0.930 . S
C408 N404 1.362 . S
C408 C405 1.431 . S
C408 C418 1.476 . S
H409 C403 0.929 . S
C410 O401 1.250 . S
C410 O402 1.258 . S
O411 Mn396 2.162 . S
O411 C399 1.281 . S
O412 Mn396 2.297 . S
O412 C399 1.236 . S
N413 Mn397 2.282 . S
N413 C414 1.328 . S
N413 C418 1.318 . S
C414 N413 1.328 . S
C414 C415 1.457 . S
C414 H419 0.929 . S
C415 C414 1.457 . S
C415 C416 1.291 . S
C415 H428 0.931 . S
C416 C415 1.291 . S
C416 C417 1.373 . S
C416 H429 0.929 . S
C417 C416 1.373 . S
C417 C418 1.396 . S
C417 C424 1.403 . S
C418 C408 1.476 . S
C418 N413 1.318 . S
C418 C417 1.396 . S
H419 C414 0.929 . S
O420 Mn396 2.385 . S
O420 C398 1.234 . S
O421 Mn396 2.209 . S
O421 Mn397 2.215 . S
O421 C398 1.283 . S
O422 Mn396 2.094 . S
O422 C400 1.240 . S
O423 Mn397 2.117 . S
O423 C400 1.264 . S
C424 C417 1.403 . S
C424 C425 1.399 . S
C424 H430 0.929 . S
C425 C405 1.449 . S
C425 C424 1.399 . S
C425 H431 0.930 . S
H426 C406 0.931 . S
H427 C407 0.930 . S
H428 C415 0.931 . S
H429 C416 0.929 . S
H430 C424 0.929 . S
H431 C425 0.930 . S
Mn432 O437 2.095 . S
Mn432 O447 2.162 . S
Mn432 O448 2.297 . S
Mn432 O456 2.385 . S
Mn432 O457 2.209 . S
Mn432 O458 2.094 . S
Mn433 O438 2.121 . S
Mn433 N440 2.257 . S
Mn433 N449 2.282 . S
Mn433 O457 2.215 . S
Mn433 O459 2.117 . S
C434 O456 1.234 . S
C434 O457 1.283 . S
C435 O447 1.281 . S
C435 O448 1.236 . S
C436 O458 1.240 . S
C436 O459 1.264 . S
O437 Mn432 2.095 . S
O437 C446 1.250 . S
O438 Mn433 2.121 . S
O438 C446 1.258 . S
C439 N440 1.326 . S
C439 C443 1.460 . S
C439 H445 0.929 . S
N440 Mn433 2.257 . S
N440 C439 1.326 . S
N440 C444 1.362 . S
C441 C442 1.258 . S
C441 C444 1.431 . S
C441 C461 1.449 . S
C442 C441 1.258 . S
C442 C443 1.477 . S
C442 H462 0.931 . S
C443 C439 1.460 . S
C443 C442 1.477 . S
C443 H463 0.930 . S
C444 N440 1.362 . S
C444 C441 1.431 . S
C444 C454 1.476 . S
H445 C439 0.929 . S
C446 O437 1.250 . S
C446 O438 1.258 . S
O447 Mn432 2.162 . S
O447 C435 1.281 . S
O448 Mn432 2.297 . S
O448 C435 1.236 . S
N449 Mn433 2.282 . S
N449 C450 1.328 . S
N449 C454 1.318 . S
C450 N449 1.328 . S
C450 C451 1.457 . S
C450 H455 0.929 . S
C451 C450 1.457 . S
C451 C452 1.291 . S
C451 H464 0.931 . S
C452 C451 1.291 . S
C452 C453 1.373 . S
C452 H465 0.929 . S
C453 C452 1.373 . S
C453 C454 1.396 . S
C453 C460 1.403 . S
C454 C444 1.476 . S
C454 N449 1.318 . S
C454 C453 1.396 . S
H455 C450 0.929 . S
O456 Mn432 2.385 . S
O456 C434 1.234 . S
O457 Mn432 2.209 . S
O457 Mn433 2.215 . S
O457 C434 1.283 . S
O458 Mn432 2.094 . S
O458 C436 1.240 . S
O459 Mn433 2.117 . S
O459 C436 1.264 . S
C460 C453 1.403 . S
C460 C461 1.399 . S
C460 H466 0.929 . S
C461 C441 1.449 . S
C461 C460 1.399 . S
C461 H467 0.930 . S
H462 C442 0.931 . S
H463 C443 0.930 . S
H464 C451 0.931 . S
H465 C452 0.929 . S
H466 C460 0.929 . S
H467 C461 0.930 . S
Mn468 O473 2.095 . S
Mn468 O483 2.162 . S
Mn468 O484 2.297 . S
Mn468 O492 2.385 . S
Mn468 O493 2.209 . S
Mn468 O494 2.094 . S
Mn469 O474 2.121 . S
Mn469 N476 2.257 . S
Mn469 N485 2.282 . S
Mn469 O493 2.215 . S
Mn469 O495 2.117 . S
C470 O492 1.234 . S
C470 O493 1.283 . S
C471 O483 1.281 . S
C471 O484 1.236 . S
C472 O494 1.240 . S
C472 O495 1.264 . S
O473 Mn468 2.095 . S
O473 C482 1.250 . S
O474 Mn469 2.121 . S
O474 C482 1.258 . S
C475 N476 1.326 . S
C475 C479 1.460 . S
C475 H481 0.929 . S
N476 Mn469 2.257 . S
N476 C475 1.326 . S
N476 C480 1.362 . S
C477 C478 1.258 . S
C477 C480 1.431 . S
C477 C497 1.449 . S
C478 C477 1.258 . S
C478 C479 1.477 . S
C478 H498 0.931 . S
C479 C475 1.460 . S
C479 C478 1.477 . S
C479 H499 0.930 . S
C480 N476 1.362 . S
C480 C477 1.431 . S
C480 C490 1.476 . S
H481 C475 0.929 . S
C482 O473 1.250 . S
C482 O474 1.258 . S
O483 Mn468 2.162 . S
O483 C471 1.281 . S
O484 Mn468 2.297 . S
O484 C471 1.236 . S
N485 Mn469 2.282 . S
N485 C486 1.328 . S
N485 C490 1.318 . S
C486 N485 1.328 . S
C486 C487 1.457 . S
C486 H491 0.929 . S
C487 C486 1.457 . S
C487 C488 1.291 . S
C487 H500 0.931 . S
C488 C487 1.291 . S
C488 C489 1.373 . S
C488 H501 0.929 . S
C489 C488 1.373 . S
C489 C490 1.396 . S
C489 C496 1.403 . S
C490 C480 1.476 . S
C490 N485 1.318 . S
C490 C489 1.396 . S
H491 C486 0.929 . S
O492 Mn468 2.385 . S
O492 C470 1.234 . S
O493 Mn468 2.209 . S
O493 Mn469 2.215 . S
O493 C470 1.283 . S
O494 Mn468 2.094 . S
O494 C472 1.240 . S
O495 Mn469 2.117 . S
O495 C472 1.264 . S
C496 C489 1.403 . S
C496 C497 1.399 . S
C496 H502 0.929 . S
C497 C477 1.449 . S
C497 C496 1.399 . S
C497 H503 0.930 . S
H498 C478 0.931 . S
H499 C479 0.930 . S
H500 C487 0.931 . S
H501 C488 0.929 . S
H502 C496 0.929 . S
H503 C497 0.930 . S
Mn504 O509 2.095 . S
Mn504 O519 2.162 . S
Mn504 O520 2.297 . S
Mn504 O528 2.385 . S
Mn504 O529 2.209 . S
Mn504 O530 2.094 . S
Mn505 O510 2.121 . S
Mn505 N512 2.257 . S
Mn505 N521 2.282 . S
Mn505 O529 2.215 . S
Mn505 O531 2.117 . S
C506 O528 1.234 . S
C506 O529 1.283 . S
C507 O519 1.281 . S
C507 O520 1.236 . S
C508 O530 1.240 . S
C508 O531 1.264 . S
O509 Mn504 2.095 . S
O509 C518 1.250 . S
O510 Mn505 2.121 . S
O510 C518 1.258 . S
C511 N512 1.326 . S
C511 C515 1.460 . S
C511 H517 0.929 . S
N512 Mn505 2.257 . S
N512 C511 1.326 . S
N512 C516 1.362 . S
C513 C514 1.258 . S
C513 C516 1.431 . S
C513 C533 1.449 . S
C514 C513 1.258 . S
C514 C515 1.477 . S
C514 H534 0.931 . S
C515 C511 1.460 . S
C515 C514 1.477 . S
C515 H535 0.930 . S
C516 N512 1.362 . S
C516 C513 1.431 . S
C516 C526 1.476 . S
H517 C511 0.929 . S
C518 O509 1.250 . S
C518 O510 1.258 . S
O519 Mn504 2.162 . S
O519 C507 1.281 . S
O520 Mn504 2.297 . S
O520 C507 1.236 . S
N521 Mn505 2.282 . S
N521 C522 1.328 . S
N521 C526 1.318 . S
C522 N521 1.328 . S
C522 C523 1.457 . S
C522 H527 0.929 . S
C523 C522 1.457 . S
C523 C524 1.291 . S
C523 H536 0.931 . S
C524 C523 1.291 . S
C524 C525 1.373 . S
C524 H537 0.929 . S
C525 C524 1.373 . S
C525 C526 1.396 . S
C525 C532 1.403 . S
C526 C516 1.476 . S
C526 N521 1.318 . S
C526 C525 1.396 . S
H527 C522 0.929 . S
O528 Mn504 2.385 . S
O528 C506 1.234 . S
O529 Mn504 2.209 . S
O529 Mn505 2.215 . S
O529 C506 1.283 . S
O530 Mn504 2.094 . S
O530 C508 1.240 . S
O531 Mn505 2.117 . S
O531 C508 1.264 . S
C532 C525 1.403 . S
C532 C533 1.399 . S
C532 H538 0.929 . S
C533 C513 1.449 . S
C533 C532 1.399 . S
C533 H539 0.930 . S
H534 C514 0.931 . S
H535 C515 0.930 . S
H536 C523 0.931 . S
H537 C524 0.929 . S
H538 C532 0.929 . S
H539 C533 0.930 . S
Mn540 O545 2.095 . S
Mn540 O555 2.162 . S
Mn540 O556 2.297 . S
Mn540 O564 2.385 . S
Mn540 O565 2.209 . S
Mn540 O566 2.094 . S
Mn541 O546 2.121 . S
Mn541 N548 2.257 . S
Mn541 N557 2.282 . S
Mn541 O565 2.215 . S
Mn541 O567 2.117 . S
C542 O564 1.234 . S
C542 O565 1.283 . S
C543 O555 1.281 . S
C543 O556 1.236 . S
C544 O566 1.240 . S
C544 O567 1.264 . S
O545 Mn540 2.095 . S
O545 C554 1.250 . S
O546 Mn541 2.121 . S
O546 C554 1.258 . S
C547 N548 1.326 . S
C547 C551 1.460 . S
C547 H553 0.929 . S
N548 Mn541 2.257 . S
N548 C547 1.326 . S
N548 C552 1.362 . S
C549 C550 1.258 . S
C549 C552 1.431 . S
C549 C569 1.449 . S
C550 C549 1.258 . S
C550 C551 1.477 . S
C550 H570 0.931 . S
C551 C547 1.460 . S
C551 C550 1.477 . S
C551 H571 0.930 . S
C552 N548 1.362 . S
C552 C549 1.431 . S
C552 C562 1.476 . S
H553 C547 0.929 . S
C554 O545 1.250 . S
C554 O546 1.258 . S
O555 Mn540 2.162 . S
O555 C543 1.281 . S
O556 Mn540 2.297 . S
O556 C543 1.236 . S
N557 Mn541 2.282 . S
N557 C558 1.328 . S
N557 C562 1.318 . S
C558 N557 1.328 . S
C558 C559 1.457 . S
C558 H563 0.929 . S
C559 C558 1.457 . S
C559 C560 1.291 . S
C559 H572 0.931 . S
C560 C559 1.291 . S
C560 C561 1.373 . S
C560 H573 0.929 . S
C561 C560 1.373 . S
C561 C562 1.396 . S
C561 C568 1.403 . S
C562 C552 1.476 . S
C562 N557 1.318 . S
C562 C561 1.396 . S
H563 C558 0.929 . S
O564 Mn540 2.385 . S
O564 C542 1.234 . S
O565 Mn540 2.209 . S
O565 Mn541 2.215 . S
O565 C542 1.283 . S
O566 Mn540 2.094 . S
O566 C544 1.240 . S
O567 Mn541 2.117 . S
O567 C544 1.264 . S
C568 C561 1.403 . S
C568 C569 1.399 . S
C568 H574 0.929 . S
C569 C549 1.449 . S
C569 C568 1.399 . S
C569 H575 0.930 . S
H570 C550 0.931 . S
H571 C551 0.930 . S
H572 C559 0.931 . S
H573 C560 0.929 . S
H574 C568 0.929 . S
H575 C569 0.930 . S
Mn576 O581 2.095 . S
Mn576 O591 2.162 . S
Mn576 O592 2.297 . S
Mn576 O600 2.385 . S
Mn576 O601 2.209 . S
Mn576 O602 2.094 . S
Mn577 O582 2.121 . S
Mn577 N584 2.257 . S
Mn577 N593 2.282 . S
Mn577 O601 2.215 . S
Mn577 O603 2.117 . S
C578 O600 1.234 . S
C578 O601 1.283 . S
C579 O591 1.281 . S
C579 O592 1.236 . S
C580 O602 1.240 . S
C580 O603 1.264 . S
O581 Mn576 2.095 . S
O581 C590 1.250 . S
O582 Mn577 2.121 . S
O582 C590 1.258 . S
C583 N584 1.326 . S
C583 C587 1.460 . S
C583 H589 0.929 . S
N584 Mn577 2.257 . S
N584 C583 1.326 . S
N584 C588 1.362 . S
C585 C586 1.258 . S
C585 C588 1.431 . S
C585 C605 1.449 . S
C586 C585 1.258 . S
C586 C587 1.477 . S
C586 H606 0.931 . S
C587 C583 1.460 . S
C587 C586 1.477 . S
C587 H607 0.930 . S
C588 N584 1.362 . S
C588 C585 1.431 . S
C588 C598 1.476 . S
H589 C583 0.929 . S
C590 O581 1.250 . S
C590 O582 1.258 . S
O591 Mn576 2.162 . S
O591 C579 1.281 . S
O592 Mn576 2.297 . S
O592 C579 1.236 . S
N593 Mn577 2.282 . S
N593 C594 1.328 . S
N593 C598 1.318 . S
C594 N593 1.328 . S
C594 C595 1.457 . S
C594 H599 0.929 . S
C595 C594 1.457 . S
C595 C596 1.291 . S
C595 H608 0.931 . S
C596 C595 1.291 . S
C596 C597 1.373 . S
C596 H609 0.929 . S
C597 C596 1.373 . S
C597 C598 1.396 . S
C597 C604 1.403 . S
C598 C588 1.476 . S
C598 N593 1.318 . S
C598 C597 1.396 . S
H599 C594 0.929 . S
O600 Mn576 2.385 . S
O600 C578 1.234 . S
O601 Mn576 2.209 . S
O601 Mn577 2.215 . S
O601 C578 1.283 . S
O602 Mn576 2.094 . S
O602 C580 1.240 . S
O603 Mn577 2.117 . S
O603 C580 1.264 . S
C604 C597 1.403 . S
C604 C605 1.399 . S
C604 H610 0.929 . S
C605 C585 1.449 . S
C605 C604 1.399 . S
C605 H611 0.930 . S
H606 C586 0.931 . S
H607 C587 0.930 . S
H608 C595 0.931 . S
H609 C596 0.929 . S
H610 C604 0.929 . S
H611 C605 0.930 . S
Mn612 O617 2.095 . S
Mn612 O627 2.162 . S
Mn612 O628 2.297 . S
Mn612 O636 2.385 . S
Mn612 O637 2.209 . S
Mn612 O638 2.094 . S
Mn613 O618 2.121 . S
Mn613 N620 2.257 . S
Mn613 N629 2.282 . S
Mn613 O637 2.215 . S
Mn613 O639 2.117 . S
C614 O636 1.234 . S
C614 O637 1.283 . S
C615 O627 1.281 . S
C615 O628 1.236 . S
C616 O638 1.240 . S
C616 O639 1.264 . S
O617 Mn612 2.095 . S
O617 C626 1.250 . S
O618 Mn613 2.121 . S
O618 C626 1.258 . S
C619 N620 1.326 . S
C619 C623 1.460 . S
C619 H625 0.929 . S
N620 Mn613 2.257 . S
N620 C619 1.326 . S
N620 C624 1.362 . S
C621 C622 1.258 . S
C621 C624 1.431 . S
C621 C641 1.449 . S
C622 C621 1.258 . S
C622 C623 1.477 . S
C622 H642 0.931 . S
C623 C619 1.460 . S
C623 C622 1.477 . S
C623 H643 0.930 . S
C624 N620 1.362 . S
C624 C621 1.431 . S
C624 C634 1.476 . S
H625 C619 0.929 . S
C626 O617 1.250 . S
C626 O618 1.258 . S
O627 Mn612 2.162 . S
O627 C615 1.281 . S
O628 Mn612 2.297 . S
O628 C615 1.236 . S
N629 Mn613 2.282 . S
N629 C630 1.328 . S
N629 C634 1.318 . S
C630 N629 1.328 . S
C630 C631 1.457 . S
C630 H635 0.929 . S
C631 C630 1.457 . S
C631 C632 1.291 . S
C631 H644 0.931 . S
C632 C631 1.291 . S
C632 C633 1.373 . S
C632 H645 0.929 . S
C633 C632 1.373 . S
C633 C634 1.396 . S
C633 C640 1.403 . S
C634 C624 1.476 . S
C634 N629 1.318 . S
C634 C633 1.396 . S
H635 C630 0.929 . S
O636 Mn612 2.385 . S
O636 C614 1.234 . S
O637 Mn612 2.209 . S
O637 Mn613 2.215 . S
O637 C614 1.283 . S
O638 Mn612 2.094 . S
O638 C616 1.240 . S
O639 Mn613 2.117 . S
O639 C616 1.264 . S
C640 C633 1.403 . S
C640 C641 1.399 . S
C640 H646 0.929 . S
C641 C621 1.449 . S
C641 C640 1.399 . S
C641 H647 0.930 . S
H642 C622 0.931 . S
H643 C623 0.930 . S
H644 C631 0.931 . S
H645 C632 0.929 . S
H646 C640 0.929 . S
H647 C641 0.930 . S
H648 C656 0.929 . S
H649 C658 0.930 . S
H650 C660 0.930 . S
H651 C663 0.929 . S
H652 C666 0.930 . S
H653 C668 0.960 . S
H654 C668 0.960 . S
H655 C668 0.960 . S
C656 H648 0.929 . S
C656 C657 1.377 . S
C656 C658 1.384 . S
C657 C656 1.377 . S
C657 C663 1.390 . S
C658 H649 0.930 . S
C658 C656 1.384 . S
C658 C659 1.372 . S
C659 C658 1.372 . S
C659 C660 1.400 . S
C659 C664 1.490 . S
C660 H650 0.930 . S
C660 C659 1.400 . S
C660 C663 1.386 . S
H661 C677 0.930 . S
H662 C678 0.931 . S
C663 H651 0.929 . S
C663 C657 1.390 . S
C663 C660 1.386 . S
C664 C659 1.490 . S
C664 C666 1.395 . S
C664 C667 1.403 . S
H665 C671 0.930 . S
C666 H652 0.930 . S
C666 C664 1.395 . S
C666 C669 1.403 . S
C667 C664 1.403 . S
C667 C668 1.524 . S
C667 C671 1.400 . S
C668 H653 0.960 . S
C668 H654 0.960 . S
C668 H655 0.960 . S
C668 C667 1.524 . S
C669 C666 1.403 . S
C669 C670 1.392 . S
C669 C673 1.495 . S
C670 C669 1.392 . S
C670 C671 1.385 . S
C670 C672 1.478 . S
C671 H665 0.930 . S
C671 C667 1.400 . S
C671 C670 1.385 . S
C672 C670 1.478 . S
C672 C674 1.381 . S
C672 C678 1.383 . S
C673 C669 1.495 . S
C673 H679 0.959 . S
C673 H680 0.961 . S
C673 H681 0.960 . S
C674 C672 1.381 . S
C674 C675 1.394 . S
C674 H682 0.930 . S
C675 C674 1.394 . S
C675 C676 1.383 . S
C675 H683 0.929 . S
C676 C675 1.383 . S
C676 C677 1.377 . S
C677 H661 0.930 . S
C677 C676 1.377 . S
C677 C678 1.379 . S
C678 H662 0.931 . S
C678 C672 1.383 . S
C678 C677 1.379 . S
H679 C673 0.959 . S
H680 C673 0.961 . S
H681 C673 0.960 . S
H682 C674 0.930 . S
H683 C675 0.929 . S
H684 C692 0.929 . S
H685 C694 0.930 . S
H686 C696 0.930 . S
H687 C699 0.929 . S
H688 C702 0.930 . S
H689 C704 0.960 . S
H690 C704 0.960 . S
H691 C704 0.960 . S
C692 H684 0.929 . S
C692 C693 1.377 . S
C692 C694 1.384 . S
C693 C692 1.377 . S
C693 C699 1.390 . S
C694 H685 0.930 . S
C694 C692 1.384 . S
C694 C695 1.372 . S
C695 C694 1.372 . S
C695 C696 1.400 . S
C695 C700 1.490 . S
C696 H686 0.930 . S
C696 C695 1.400 . S
C696 C699 1.386 . S
H697 C713 0.930 . S
H698 C714 0.931 . S
C699 H687 0.929 . S
C699 C693 1.390 . S
C699 C696 1.386 . S
C700 C695 1.490 . S
C700 C702 1.395 . S
C700 C703 1.403 . S
H701 C707 0.930 . S
C702 H688 0.930 . S
C702 C700 1.395 . S
C702 C705 1.403 . S
C703 C700 1.403 . S
C703 C704 1.524 . S
C703 C707 1.400 . S
C704 H689 0.960 . S
C704 H690 0.960 . S
C704 H691 0.960 . S
C704 C703 1.524 . S
C705 C702 1.403 . S
C705 C706 1.392 . S
C705 C709 1.495 . S
C706 C705 1.392 . S
C706 C707 1.385 . S
C706 C708 1.478 . S
C707 H701 0.930 . S
C707 C703 1.400 . S
C707 C706 1.385 . S
C708 C706 1.478 . S
C708 C710 1.381 . S
C708 C714 1.383 . S
C709 C705 1.495 . S
C709 H715 0.959 . S
C709 H716 0.961 . S
C709 H717 0.960 . S
C710 C708 1.381 . S
C710 C711 1.394 . S
C710 H718 0.930 . S
C711 C710 1.394 . S
C711 C712 1.383 . S
C711 H719 0.929 . S
C712 C711 1.383 . S
C712 C713 1.377 . S
C713 H697 0.930 . S
C713 C712 1.377 . S
C713 C714 1.379 . S
C714 H698 0.931 . S
C714 C708 1.383 . S
C714 C713 1.379 . S
H715 C709 0.959 . S
H716 C709 0.961 . S
H717 C709 0.960 . S
H718 C710 0.930 . S
H719 C711 0.929 . S
H720 C728 0.929 . S
H721 C730 0.930 . S
H722 C732 0.930 . S
H723 C735 0.929 . S
H724 C738 0.930 . S
H725 C740 0.960 . S
H726 C740 0.960 . S
H727 C740 0.960 . S
C728 H720 0.929 . S
C728 C729 1.377 . S
C728 C730 1.384 . S
C729 C728 1.377 . S
C729 C735 1.390 . S
C730 H721 0.930 . S
C730 C728 1.384 . S
C730 C731 1.372 . S
C731 C730 1.372 . S
C731 C732 1.400 . S
C731 C736 1.490 . S
C732 H722 0.930 . S
C732 C731 1.400 . S
C732 C735 1.386 . S
H733 C749 0.921 1_455 S
H734 C750 0.931 . S
C735 H723 0.929 . S
C735 C729 1.390 . S
C735 C732 1.386 . S
C736 C731 1.490 . S
C736 C738 1.395 . S
C736 C739 1.403 . S
H737 C743 0.930 . S
C738 H724 0.930 . S
C738 C736 1.395 . S
C738 C741 1.403 . S
C739 C736 1.403 . S
C739 C740 1.524 . S
C739 C743 1.400 . S
C740 H725 0.960 . S
C740 H726 0.960 . S
C740 H727 0.960 . S
C740 C739 1.524 . S
C741 C738 1.403 . S
C741 C742 1.392 . S
C741 C745 1.495 . S
C742 C741 1.392 . S
C742 C743 1.385 . S
C742 C744 1.478 . S
C743 H737 0.930 . S
C743 C739 1.400 . S
C743 C742 1.385 . S
C744 C742 1.478 . S
C744 C746 1.381 . S
C744 C750 1.383 . S
C745 C741 1.495 . S
C745 H751 0.959 . S
C745 H752 0.961 . S
C745 H753 0.960 . S
C746 C744 1.381 . S
C746 C747 1.394 . S
C746 H754 0.930 . S
C747 C746 1.394 . S
C747 C748 1.383 . S
C747 H755 0.929 . S
C748 C747 1.383 . S
C748 C749 1.377 . S
C749 H733 0.921 1_655 S
C749 C748 1.377 . S
C749 C750 1.379 . S
C750 H734 0.931 . S
C750 C744 1.383 . S
C750 C749 1.379 . S
H751 C745 0.959 . S
H752 C745 0.961 . S
H753 C745 0.960 . S
H754 C746 0.930 . S
H755 C747 0.929 . S
H756 C764 0.929 . S
H757 C766 0.930 . S
H758 C768 0.930 . S
H759 C771 0.929 . S
H760 C774 0.930 . S
H761 C776 0.960 . S
H762 C776 0.960 . S
H763 C776 0.960 . S
C764 H756 0.929 . S
C764 C765 1.377 . S
C764 C766 1.384 . S
C765 C764 1.377 . S
C765 C771 1.390 . S
C766 H757 0.930 . S
C766 C764 1.384 . S
C766 C767 1.372 . S
C767 C766 1.372 . S
C767 C768 1.400 . S
C767 C772 1.490 . S
C768 H758 0.930 . S
C768 C767 1.400 . S
C768 C771 1.386 . S
H769 C785 0.930 . S
H770 C786 0.931 . S
C771 H759 0.929 . S
C771 C765 1.390 . S
C771 C768 1.386 . S
C772 C767 1.490 . S
C772 C774 1.395 . S
C772 C775 1.403 . S
H773 C779 0.930 . S
C774 H760 0.930 . S
C774 C772 1.395 . S
C774 C777 1.403 . S
C775 C772 1.403 . S
C775 C776 1.524 . S
C775 C779 1.400 . S
C776 H761 0.960 . S
C776 H762 0.960 . S
C776 H763 0.960 . S
C776 C775 1.524 . S
C777 C774 1.403 . S
C777 C778 1.392 . S
C777 C781 1.495 . S
C778 C777 1.392 . S
C778 C779 1.385 . S
C778 C780 1.478 . S
C779 H773 0.930 . S
C779 C775 1.400 . S
C779 C778 1.385 . S
C780 C778 1.478 . S
C780 C782 1.381 . S
C780 C786 1.383 . S
C781 C777 1.495 . S
C781 H787 0.959 . S
C781 H788 0.961 . S
C781 H789 0.960 . S
C782 C780 1.381 . S
C782 C783 1.394 . S
C782 H790 0.930 . S
C783 C782 1.394 . S
C783 C784 1.383 . S
C783 H791 0.929 . S
C784 C783 1.383 . S
C784 C785 1.377 . S
C785 H769 0.930 . S
C785 C784 1.377 . S
C785 C786 1.379 . S
C786 H770 0.931 . S
C786 C780 1.383 . S
C786 C785 1.379 . S
H787 C781 0.959 . S
H788 C781 0.961 . S
H789 C781 0.960 . S
H790 C782 0.930 . S
H791 C783 0.929 . S
H792 C800 0.929 . S
H793 C802 0.930 . S
H794 C804 0.930 . S
H795 C807 0.929 . S
H796 C810 0.930 . S
H797 C812 0.960 . S
H798 C812 0.960 . S
H799 C812 0.960 . S
C800 H792 0.929 . S
C800 C801 1.377 . S
C800 C802 1.384 . S
C801 C800 1.377 . S
C801 C807 1.390 . S
C802 H793 0.930 . S
C802 C800 1.384 . S
C802 C803 1.372 . S
C803 C802 1.372 . S
C803 C804 1.400 . S
C803 C808 1.490 . S
C804 H794 0.930 . S
C804 C803 1.400 . S
C804 C807 1.386 . S
H805 C821 0.930 . S
H806 C822 0.931 . S
C807 H795 0.929 . S
C807 C801 1.390 . S
C807 C804 1.386 . S
C808 C803 1.490 . S
C808 C810 1.395 . S
C808 C811 1.403 . S
H809 C815 0.930 . S
C810 H796 0.930 . S
C810 C808 1.395 . S
C810 C813 1.403 . S
C811 C808 1.403 . S
C811 C812 1.524 . S
C811 C815 1.400 . S
C812 H797 0.960 . S
C812 H798 0.960 . S
C812 H799 0.960 . S
C812 C811 1.524 . S
C813 C810 1.403 . S
C813 C814 1.392 . S
C813 C817 1.495 . S
C814 C813 1.392 . S
C814 C815 1.385 . S
C814 C816 1.478 . S
C815 H809 0.930 . S
C815 C811 1.400 . S
C815 C814 1.385 . S
C816 C814 1.478 . S
C816 C818 1.381 . S
C816 C822 1.383 . S
C817 C813 1.495 . S
C817 H823 0.959 . S
C817 H824 0.961 . S
C817 H825 0.960 . S
C818 C816 1.381 . S
C818 C819 1.394 . S
C818 H826 0.930 . S
C819 C818 1.394 . S
C819 C820 1.383 . S
C819 H827 0.929 . S
C820 C819 1.383 . S
C820 C821 1.377 . S
C821 H805 0.930 . S
C821 C820 1.377 . S
C821 C822 1.379 . S
C822 H806 0.931 . S
C822 C816 1.383 . S
C822 C821 1.379 . S
H823 C817 0.959 . S
H824 C817 0.961 . S
H825 C817 0.960 . S
H826 C818 0.930 . S
H827 C819 0.929 . S
H828 C836 0.929 . S
H829 C838 0.930 . S
H830 C840 0.930 . S
H831 C843 0.929 . S
H832 C846 0.930 . S
H833 C848 0.960 . S
H834 C848 0.960 . S
H835 C848 0.960 . S
C836 H828 0.929 . S
C836 C837 1.377 . S
C836 C838 1.384 . S
C837 C836 1.377 . S
C837 C843 1.390 . S
C838 H829 0.930 . S
C838 C836 1.384 . S
C838 C839 1.372 . S
C839 C838 1.372 . S
C839 C840 1.400 . S
C839 C844 1.490 . S
C840 H830 0.930 . S
C840 C839 1.400 . S
C840 C843 1.386 . S
H841 C857 0.930 . S
H842 C858 0.931 . S
C843 H831 0.929 . S
C843 C837 1.390 . S
C843 C840 1.386 . S
C844 C839 1.490 . S
C844 C846 1.395 . S
C844 C847 1.403 . S
H845 C851 0.930 . S
C846 H832 0.930 . S
C846 C844 1.395 . S
C846 C849 1.403 . S
C847 C844 1.403 . S
C847 C848 1.524 . S
C847 C851 1.400 . S
C848 H833 0.960 . S
C848 H834 0.960 . S
C848 H835 0.960 . S
C848 C847 1.524 . S
C849 C846 1.403 . S
C849 C850 1.392 . S
C849 C853 1.495 . S
C850 C849 1.392 . S
C850 C851 1.385 . S
C850 C852 1.478 . S
C851 H845 0.930 . S
C851 C847 1.400 . S
C851 C850 1.385 . S
C852 C850 1.478 . S
C852 C854 1.381 . S
C852 C858 1.383 . S
C853 C849 1.495 . S
C853 H859 0.959 . S
C853 H860 0.961 . S
C853 H861 0.960 . S
C854 C852 1.381 . S
C854 C855 1.394 . S
C854 H862 0.930 . S
C855 C854 1.394 . S
C855 C856 1.383 . S
C855 H863 0.929 . S
C856 C855 1.383 . S
C856 C857 1.377 . S
C857 H841 0.930 . S
C857 C856 1.377 . S
C857 C858 1.379 . S
C858 H842 0.931 . S
C858 C852 1.383 . S
C858 C857 1.379 . S
H859 C853 0.959 . S
H860 C853 0.961 . S
H861 C853 0.960 . S
H862 C854 0.930 . S
H863 C855 0.929 . S
H864 C872 0.929 . S
H865 C874 0.930 . S
H866 C876 0.930 . S
H867 C879 0.929 . S
H868 C882 0.930 . S
H869 C884 0.960 1_455 S
H870 C884 0.960 . S
H871 C884 0.960 . S
C872 H864 0.929 . S
C872 C873 1.377 . S
C872 C874 1.384 . S
C873 C872 1.377 . S
C873 C879 1.390 . S
C874 H865 0.930 . S
C874 C872 1.384 . S
C874 C875 1.372 . S
C875 C874 1.372 . S
C875 C876 1.400 . S
C875 C880 1.490 . S
C876 H866 0.930 . S
C876 C875 1.400 . S
C876 C879 1.386 . S
H877 C893 0.930 . S
H878 C894 0.931 . S
C879 H867 0.929 . S
C879 C873 1.390 . S
C879 C876 1.386 . S
C880 C875 1.490 . S
C880 C882 1.395 . S
C880 C883 1.403 . S
H881 C887 0.930 . S
C882 H868 0.930 . S
C882 C880 1.395 . S
C882 C885 1.403 1_655 S
C883 C880 1.403 . S
C883 C884 1.524 . S
C883 C887 1.400 1_655 S
C884 H869 0.960 1_655 S
C884 H870 0.960 . S
C884 H871 0.960 . S
C884 C883 1.524 . S
C885 C882 1.403 1_455 S
C885 C886 1.392 . S
C885 C889 1.495 . S
C886 C885 1.392 . S
C886 C887 1.385 . S
C886 C888 1.478 . S
C887 H881 0.930 . S
C887 C883 1.400 1_455 S
C887 C886 1.385 . S
C888 C886 1.478 . S
C888 C890 1.381 . S
C888 C894 1.383 . S
C889 C885 1.495 . S
C889 H895 0.959 1_455 S
C889 H896 0.961 . S
C889 H897 0.960 . S
C890 C888 1.381 . S
C890 C891 1.394 . S
C890 H898 0.930 . S
C891 C890 1.394 . S
C891 C892 1.383 . S
C891 H899 0.929 . S
C892 C891 1.383 . S
C892 C893 1.377 . S
C893 H877 0.930 . S
C893 C892 1.377 . S
C893 C894 1.379 . S
C894 H878 0.931 . S
C894 C888 1.383 . S
C894 C893 1.379 . S
H895 C889 0.959 1_655 S
H896 C889 0.961 . S
H897 C889 0.960 . S
H898 C890 0.930 . S
H899 C891 0.929 . S
H900 C908 0.929 . S
H901 C910 0.930 . S
H902 C912 0.930 . S
H903 C915 0.929 . S
H904 C918 0.930 . S
H905 C920 0.960 . S
H906 C920 0.960 . S
H907 C920 0.960 . S
C908 H900 0.929 . S
C908 C909 1.377 . S
C908 C910 1.384 . S
C909 C908 1.377 . S
C909 C915 1.390 . S
C910 H901 0.930 . S
C910 C908 1.384 . S
C910 C911 1.372 . S
C911 C910 1.372 . S
C911 C912 1.400 . S
C911 C916 1.490 . S
C912 H902 0.930 . S
C912 C911 1.400 . S
C912 C915 1.386 . S
H913 C929 0.930 . S
H914 C930 0.931 . S
C915 H903 0.929 . S
C915 C909 1.390 . S
C915 C912 1.386 . S
C916 C911 1.490 . S
C916 C918 1.395 . S
C916 C919 1.403 . S
H917 C923 0.930 . S
C918 H904 0.930 . S
C918 C916 1.395 . S
C918 C921 1.403 . S
C919 C916 1.403 . S
C919 C920 1.524 . S
C919 C923 1.400 . S
C920 H905 0.960 . S
C920 H906 0.960 . S
C920 H907 0.960 . S
C920 C919 1.524 . S
C921 C918 1.403 . S
C921 C922 1.392 . S
C921 C925 1.495 . S
C922 C921 1.392 . S
C922 C923 1.385 . S
C922 C924 1.478 . S
C923 H917 0.930 . S
C923 C919 1.400 . S
C923 C922 1.385 . S
C924 C922 1.478 . S
C924 C926 1.381 . S
C924 C930 1.383 . S
C925 C921 1.495 . S
C925 H931 0.959 . S
C925 H932 0.961 . S
C925 H933 0.960 . S
C926 C924 1.381 . S
C926 C927 1.394 . S
C926 H934 0.930 . S
C927 C926 1.394 . S
C927 C928 1.383 . S
C927 H935 0.929 . S
C928 C927 1.383 . S
C928 C929 1.377 . S
C929 H913 0.930 . S
C929 C928 1.377 . S
C929 C930 1.379 . S
C930 H914 0.931 . S
C930 C924 1.383 . S
C930 C929 1.379 . S
H931 C925 0.959 . S
H932 C925 0.961 . S
H933 C925 0.960 . S
H934 C926 0.930 . S
H935 C927 0.929 . S
H936 C944 0.929 . S
H937 C946 0.930 . S
H938 C948 0.930 . S
H939 C951 0.929 . S
H940 C954 0.930 . S
H941 C956 0.960 . S
H942 C956 0.960 . S
H943 C956 0.960 . S
C944 H936 0.929 . S
C944 C945 1.377 . S
C944 C946 1.384 . S
C945 C944 1.377 . S
C945 C951 1.390 . S
C946 H937 0.930 . S
C946 C944 1.384 . S
C946 C947 1.372 . S
C947 C946 1.372 . S
C947 C948 1.400 . S
C947 C952 1.490 . S
C948 H938 0.930 . S
C948 C947 1.400 . S
C948 C951 1.386 . S
H949 C965 0.930 . S
H950 C966 0.931 . S
C951 H939 0.929 . S
C951 C945 1.390 . S
C951 C948 1.386 . S
C952 C947 1.490 . S
C952 C954 1.395 . S
C952 C955 1.403 . S
H953 C959 0.930 . S
C954 H940 0.930 . S
C954 C952 1.395 . S
C954 C957 1.403 1_545 S
C955 C952 1.403 . S
C955 C956 1.524 . S
C955 C959 1.400 1_545 S
C956 H941 0.960 . S
C956 H942 0.960 . S
C956 H943 0.960 . S
C956 C955 1.524 . S
C957 C954 1.403 1_565 S
C957 C958 1.392 . S
C957 C961 1.495 . S
C958 C957 1.392 . S
C958 C959 1.385 . S
C958 C960 1.478 . S
C959 H953 0.930 . S
C959 C955 1.400 1_565 S
C959 C958 1.385 . S
C960 C958 1.478 . S
C960 C962 1.381 . S
C960 C966 1.383 . S
C961 C957 1.495 . S
C961 H967 0.959 . S
C961 H968 0.961 . S
C961 H969 0.960 . S
C962 C960 1.381 . S
C962 C963 1.394 . S
C962 H970 0.930 . S
C963 C962 1.394 . S
C963 C964 1.383 . S
C963 H971 0.929 . S
C964 C963 1.383 . S
C964 C965 1.377 . S
C965 H949 0.930 . S
C965 C964 1.377 . S
C965 C966 1.379 . S
C966 H950 0.931 . S
C966 C960 1.383 . S
C966 C965 1.379 . S
H967 C961 0.959 . S
H968 C961 0.961 . S
H969 C961 0.960 . S
H970 C962 0.930 . S
H971 C963 0.929 . S
H972 C980 0.929 . S
H973 C982 0.930 . S
H974 C984 0.930 . S
H975 C987 0.929 . S
H976 C990 0.930 . S
H977 C992 0.994 . S
H978 C992 0.960 . S
H979 C992 0.960 . S
C980 H972 0.929 . S
C980 C981 1.377 . S
C980 C982 1.384 . S
C981 C980 1.377 . S
C981 C987 1.390 . S
C982 H973 0.930 . S
C982 C980 1.384 . S
C982 C983 1.372 . S
C983 C982 1.372 . S
C983 C984 1.400 . S
C983 C988 1.490 . S
C984 H974 0.930 . S
C984 C983 1.400 . S
C984 C987 1.386 . S
H985 C1001 0.930 . S
H986 C1002 0.931 . S
C987 H975 0.929 . S
C987 C981 1.390 . S
C987 C984 1.386 . S
C988 C983 1.490 . S
C988 C990 1.395 . S
C988 C991 1.403 . S
H989 C995 0.930 . S
C990 H976 0.930 . S
C990 C988 1.395 . S
C990 C993 1.403 1_455 S
C991 C988 1.403 . S
C991 C992 1.524 . S
C991 C995 1.400 1_455 S
C992 H977 0.994 . S
C992 H978 0.960 . S
C992 H979 0.960 . S
C992 C991 1.524 . S
C993 C990 1.403 1_655 S
C993 C994 1.392 . S
C993 C997 1.495 . S
C994 C993 1.392 . S
C994 C995 1.385 . S
C994 C996 1.478 . S
C995 H989 0.930 . S
C995 C991 1.400 1_655 S
C995 C994 1.385 . S
C996 C994 1.478 . S
C996 C998 1.381 . S
C996 C1002 1.383 . S
C997 C993 1.495 . S
C997 H1003 0.959 . S
C997 H1004 0.961 . S
C997 H1005 0.960 . S
C998 C996 1.381 . S
C998 C999 1.394 . S
C998 H1006 0.930 . S
C999 C998 1.394 . S
C999 C1000 1.383 . S
C999 H1007 0.929 . S
C1000 C999 1.383 . S
C1000 C1001 1.377 . S
C1001 H985 0.930 . S
C1001 C1000 1.377 . S
C1001 C1002 1.379 . S
C1002 H986 0.931 . S
C1002 C996 1.383 . S
C1002 C1001 1.379 . S
H1003 C997 0.959 . S
H1004 C997 0.961 . S
H1005 C997 0.960 . S
H1006 C998 0.930 . S
H1007 C999 0.929 . S
H1008 C1016 0.929 . S
H1009 C1018 0.930 . S
H1010 C1020 0.930 . S
H1011 C1023 0.929 . S
H1012 C1026 0.930 . S
H1013 C1028 0.960 . S
H1014 C1028 0.960 . S
H1015 C1028 0.960 . S
C1016 H1008 0.929 . S
C1016 C1017 1.377 . S
C1016 C1018 1.384 . S
C1017 C1016 1.377 . S
C1017 C1023 1.390 . S
C1018 H1009 0.930 . S
C1018 C1016 1.384 . S
C1018 C1019 1.372 . S
C1019 C1018 1.372 . S
C1019 C1020 1.400 . S
C1019 C1024 1.490 . S
C1020 H1010 0.930 . S
C1020 C1019 1.400 . S
C1020 C1023 1.386 . S
H1021 C1037 0.930 . S
H1022 C1038 0.931 . S
C1023 H1011 0.929 . S
C1023 C1017 1.390 . S
C1023 C1020 1.386 . S
C1024 C1019 1.490 . S
C1024 C1026 1.395 . S
C1024 C1027 1.403 . S
H1025 C1031 0.930 . S
C1026 H1012 0.930 . S
C1026 C1024 1.395 . S
C1026 C1029 1.403 . S
C1027 C1024 1.403 . S
C1027 C1028 1.524 . S
C1027 C1031 1.400 . S
C1028 H1013 0.960 . S
C1028 H1014 0.960 . S
C1028 H1015 0.960 . S
C1028 C1027 1.524 . S
C1029 C1026 1.403 . S
C1029 C1030 1.392 . S
C1029 C1033 1.495 . S
C1030 C1029 1.392 . S
C1030 C1031 1.385 . S
C1030 C1032 1.478 . S
C1031 H1025 0.930 . S
C1031 C1027 1.400 . S
C1031 C1030 1.385 . S
C1032 C1030 1.478 . S
C1032 C1034 1.381 . S
C1032 C1038 1.383 . S
C1033 C1029 1.495 . S
C1033 H1039 0.959 . S
C1033 H1040 0.961 . S
C1033 H1041 0.960 . S
C1034 C1032 1.381 . S
C1034 C1035 1.394 . S
C1034 H1042 0.930 . S
C1035 C1034 1.394 . S
C1035 C1036 1.383 . S
C1035 H1043 0.929 . S
C1036 C1035 1.383 . S
C1036 C1037 1.377 . S
C1037 H1021 0.930 . S
C1037 C1036 1.377 . S
C1037 C1038 1.379 . S
C1038 H1022 0.931 . S
C1038 C1032 1.383 . S
C1038 C1037 1.379 . S
H1039 C1033 0.959 . S
H1040 C1033 0.961 . S
H1041 C1033 0.960 . S
H1042 C1034 0.930 . S
H1043 C1035 0.929 . S
H1044 C1052 0.929 . S
H1045 C1054 0.930 . S
H1046 C1056 0.930 . S
H1047 C1059 0.929 . S
H1048 C1062 0.930 . S
H1049 C1064 0.960 . S
H1050 C1064 0.960 . S
H1051 C1064 0.960 . S
C1052 H1044 0.929 . S
C1052 C1053 1.377 . S
C1052 C1054 1.384 . S
C1053 C1052 1.377 . S
C1053 C1059 1.390 . S
C1054 H1045 0.930 . S
C1054 C1052 1.384 . S
C1054 C1055 1.372 . S
C1055 C1054 1.372 . S
C1055 C1056 1.400 . S
C1055 C1060 1.490 . S
C1056 H1046 0.930 . S
C1056 C1055 1.400 . S
C1056 C1059 1.386 . S
H1057 C1073 0.930 . S
H1058 C1074 0.931 . S
C1059 H1047 0.929 . S
C1059 C1053 1.390 . S
C1059 C1056 1.386 . S
C1060 C1055 1.490 . S
C1060 C1062 1.395 . S
C1060 C1063 1.403 . S
H1061 C1067 0.930 . S
C1062 H1048 0.930 . S
C1062 C1060 1.395 . S
C1062 C1065 1.403 1_545 S
C1063 C1060 1.403 . S
C1063 C1064 1.524 . S
C1063 C1067 1.400 1_545 S
C1064 H1049 0.960 . S
C1064 H1050 0.960 . S
C1064 H1051 0.960 . S
C1064 C1063 1.524 . S
C1065 C1062 1.403 1_565 S
C1065 C1066 1.392 . S
C1065 C1069 1.495 . S
C1066 C1065 1.392 . S
C1066 C1067 1.385 . S
C1066 C1068 1.478 . S
C1067 H1061 0.930 . S
C1067 C1063 1.400 1_565 S
C1067 C1066 1.385 . S
C1068 C1066 1.478 . S
C1068 C1070 1.381 . S
C1068 C1074 1.383 . S
C1069 C1065 1.495 . S
C1069 H1075 0.959 . S
C1069 H1076 0.961 . S
C1069 H1077 0.960 . S
C1070 C1068 1.381 . S
C1070 C1071 1.394 . S
C1070 H1078 0.930 . S
C1071 C1070 1.394 . S
C1071 C1072 1.383 . S
C1071 H1079 0.929 . S
C1072 C1071 1.383 . S
C1072 C1073 1.377 . S
C1073 H1057 0.930 . S
C1073 C1072 1.377 . S
C1073 C1074 1.379 . S
C1074 H1058 0.931 . S
C1074 C1068 1.383 . S
C1074 C1073 1.379 . S
H1075 C1069 0.959 . S
H1076 C1069 0.961 . S
H1077 C1069 0.960 . S
H1078 C1070 0.930 . S
H1079 C1071 0.929 . S
H1080 C1088 0.929 . S
H1081 C1090 0.930 . S
H1082 C1092 0.930 . S
H1083 C1095 0.929 . S
H1084 C1098 0.930 . S
H1085 C1100 0.960 . S
H1086 C1100 0.960 . S
H1087 C1100 0.960 . S
C1088 H1080 0.929 . S
C1088 C1089 1.377 . S
C1088 C1090 1.384 . S
C1089 C1088 1.377 . S
C1089 C1095 1.390 . S
C1090 H1081 0.930 . S
C1090 C1088 1.384 . S
C1090 C1091 1.372 . S
C1091 C1090 1.372 . S
C1091 C1092 1.400 . S
C1091 C1096 1.490 . S
C1092 H1082 0.930 . S
C1092 C1091 1.400 . S
C1092 C1095 1.386 . S
H1093 C1109 0.930 . S
H1094 C1110 0.931 . S
C1095 H1083 0.929 . S
C1095 C1089 1.390 . S
C1095 C1092 1.386 . S
C1096 C1091 1.490 . S
C1096 C1098 1.395 . S
C1096 C1099 1.403 . S
H1097 C1103 0.930 . S
C1098 H1084 0.930 . S
C1098 C1096 1.395 . S
C1098 C1101 1.403 1_565 S
C1099 C1096 1.403 . S
C1099 C1100 1.524 . S
C1099 C1103 1.400 1_565 S
C1100 H1085 0.960 . S
C1100 H1086 0.960 . S
C1100 H1087 0.960 . S
C1100 C1099 1.524 . S
C1101 C1098 1.403 1_545 S
C1101 C1102 1.392 . S
C1101 C1105 1.495 . S
C1102 C1101 1.392 . S
C1102 C1103 1.385 . S
C1102 C1104 1.478 . S
C1103 H1097 0.930 . S
C1103 C1099 1.400 1_545 S
C1103 C1102 1.385 . S
C1104 C1102 1.478 . S
C1104 C1106 1.381 . S
C1104 C1110 1.383 . S
C1105 C1101 1.495 . S
C1105 H1111 0.959 . S
C1105 H1112 0.961 . S
C1105 H1113 0.960 . S
C1106 C1104 1.381 . S
C1106 C1107 1.394 . S
C1106 H1114 0.930 . S
C1107 C1106 1.394 . S
C1107 C1108 1.383 . S
C1107 H1115 0.929 . S
C1108 C1107 1.383 . S
C1108 C1109 1.377 . S
C1109 H1093 0.930 . S
C1109 C1108 1.377 . S
C1109 C1110 1.379 . S
C1110 H1094 0.931 . S
C1110 C1104 1.383 . S
C1110 C1109 1.379 . S
H1111 C1105 0.959 . S
H1112 C1105 0.961 . S
H1113 C1105 0.960 . S
H1114 C1106 0.930 . S
H1115 C1107 0.929 . S
H1116 C1124 0.929 . S
H1117 C1126 0.930 . S
H1118 C1128 0.930 . S
H1119 C1131 0.929 . S
H1120 C1134 0.930 . S
H1121 C1136 0.960 . S
H1122 C1136 0.960 . S
H1123 C1136 0.960 . S
C1124 H1116 0.929 . S
C1124 C1125 1.377 . S
C1124 C1126 1.384 . S
C1125 C1124 1.377 . S
C1125 C1131 1.390 . S
C1126 H1117 0.930 . S
C1126 C1124 1.384 . S
C1126 C1127 1.372 . S
C1127 C1126 1.372 . S
C1127 C1128 1.400 . S
C1127 C1132 1.490 . S
C1128 H1118 0.930 . S
C1128 C1127 1.400 . S
C1128 C1131 1.386 . S
H1129 C1145 0.930 . S
H1130 C1146 0.931 . S
C1131 H1119 0.929 . S
C1131 C1125 1.390 . S
C1131 C1128 1.386 . S
C1132 C1127 1.490 . S
C1132 C1134 1.395 . S
C1132 C1135 1.403 . S
H1133 C1139 0.930 . S
C1134 H1120 0.930 . S
C1134 C1132 1.395 . S
C1134 C1137 1.403 1_455 S
C1135 C1132 1.403 . S
C1135 C1136 1.524 . S
C1135 C1139 1.400 1_455 S
C1136 H1121 0.960 . S
C1136 H1122 0.960 . S
C1136 H1123 0.960 . S
C1136 C1135 1.524 . S
C1137 C1134 1.403 1_655 S
C1137 C1138 1.392 . S
C1137 C1141 1.495 . S
C1138 C1137 1.392 . S
C1138 C1139 1.385 . S
C1138 C1140 1.478 . S
C1139 H1133 0.930 . S
C1139 C1135 1.400 1_655 S
C1139 C1138 1.385 . S
C1140 C1138 1.478 . S
C1140 C1142 1.381 . S
C1140 C1146 1.383 . S
C1141 C1137 1.495 . S
C1141 H1147 0.959 . S
C1141 H1148 0.961 . S
C1141 H1149 0.960 . S
C1142 C1140 1.381 . S
C1142 C1143 1.394 . S
C1142 H1150 0.930 . S
C1143 C1142 1.394 . S
C1143 C1144 1.383 . S
C1143 H1151 0.929 . S
C1144 C1143 1.383 . S
C1144 C1145 1.377 . S
C1145 H1129 0.930 . S
C1145 C1144 1.377 . S
C1145 C1146 1.379 . S
C1146 H1130 0.931 . S
C1146 C1140 1.383 . S
C1146 C1145 1.379 . S
H1147 C1141 0.959 . S
H1148 C1141 0.961 . S
H1149 C1141 0.960 . S
H1150 C1142 0.930 . S
H1151 C1143 0.929 . S
H1152 C1160 0.929 . S
H1153 C1162 0.930 . S
H1154 C1164 0.930 . S
H1155 C1167 0.929 . S
H1156 C1170 0.930 . S
H1157 C1172 0.960 . S
H1158 C1172 0.960 . S
H1159 C1172 0.960 . S
C1160 H1152 0.929 . S
C1160 C1161 1.377 . S
C1160 C1162 1.384 . S
C1161 C1160 1.377 . S
C1161 C1167 1.390 . S
C1162 H1153 0.930 . S
C1162 C1160 1.384 . S
C1162 C1163 1.372 . S
C1163 C1162 1.372 . S
C1163 C1164 1.400 . S
C1163 C1168 1.490 . S
C1164 H1154 0.930 . S
C1164 C1163 1.400 . S
C1164 C1167 1.386 . S
H1165 C1181 0.930 . S
H1166 C1182 0.931 . S
C1167 H1155 0.929 . S
C1167 C1161 1.390 . S
C1167 C1164 1.386 . S
C1168 C1163 1.490 . S
C1168 C1170 1.395 . S
C1168 C1171 1.403 . S
H1169 C1175 0.930 . S
C1170 H1156 0.930 . S
C1170 C1168 1.395 . S
C1170 C1173 1.403 . S
C1171 C1168 1.403 . S
C1171 C1172 1.524 . S
C1171 C1175 1.400 . S
C1172 H1157 0.960 . S
C1172 H1158 0.960 . S
C1172 H1159 0.960 . S
C1172 C1171 1.524 . S
C1173 C1170 1.403 . S
C1173 C1174 1.392 . S
C1173 C1177 1.495 . S
C1174 C1173 1.392 . S
C1174 C1175 1.385 . S
C1174 C1176 1.478 . S
C1175 H1169 0.930 . S
C1175 C1171 1.400 . S
C1175 C1174 1.385 . S
C1176 C1174 1.478 . S
C1176 C1178 1.381 . S
C1176 C1182 1.383 . S
C1177 C1173 1.495 . S
C1177 H1183 0.959 . S
C1177 H1184 0.961 . S
C1177 H1185 0.960 . S
C1178 C1176 1.381 . S
C1178 C1179 1.394 . S
C1178 H1186 0.930 . S
C1179 C1178 1.394 . S
C1179 C1180 1.383 . S
C1179 H1187 0.929 . S
C1180 C1179 1.383 . S
C1180 C1181 1.377 . S
C1181 H1165 0.930 . S
C1181 C1180 1.377 . S
C1181 C1182 1.379 . S
C1182 H1166 0.931 . S
C1182 C1176 1.383 . S
C1182 C1181 1.379 . S
H1183 C1177 0.959 . S
H1184 C1177 0.961 . S
H1185 C1177 0.960 . S
H1186 C1178 0.930 . S
H1187 C1179 0.929 . S
H1188 C1196 0.929 . S
H1189 C1198 0.930 . S
H1190 C1200 0.930 . S
H1191 C1203 0.929 . S
H1192 C1206 0.930 . S
H1193 C1208 0.960 . S
H1194 C1208 0.960 . S
H1195 C1208 0.960 . S
C1196 H1188 0.929 . S
C1196 C1197 1.377 . S
C1196 C1198 1.384 . S
C1197 C1196 1.377 . S
C1197 C1203 1.390 . S
C1198 H1189 0.930 . S
C1198 C1196 1.384 . S
C1198 C1199 1.372 . S
C1199 C1198 1.372 . S
C1199 C1200 1.400 . S
C1199 C1204 1.490 . S
C1200 H1190 0.930 . S
C1200 C1199 1.400 . S
C1200 C1203 1.386 . S
H1201 C1217 0.930 . S
H1202 C1218 0.931 . S
C1203 H1191 0.929 . S
C1203 C1197 1.390 . S
C1203 C1200 1.386 . S
C1204 C1199 1.490 . S
C1204 C1206 1.395 . S
C1204 C1207 1.403 . S
H1205 C1211 0.930 . S
C1206 H1192 0.930 . S
C1206 C1204 1.395 . S
C1206 C1209 1.403 . S
C1207 C1204 1.403 . S
C1207 C1208 1.524 . S
C1207 C1211 1.400 . S
C1208 H1193 0.960 . S
C1208 H1194 0.960 . S
C1208 H1195 0.960 . S
C1208 C1207 1.524 . S
C1209 C1206 1.403 . S
C1209 C1210 1.392 . S
C1209 C1213 1.495 . S
C1210 C1209 1.392 . S
C1210 C1211 1.385 . S
C1210 C1212 1.478 . S
C1211 H1205 0.930 . S
C1211 C1207 1.400 . S
C1211 C1210 1.385 . S
C1212 C1210 1.478 . S
C1212 C1214 1.381 . S
C1212 C1218 1.383 . S
C1213 C1209 1.495 . S
C1213 H1219 0.959 . S
C1213 H1220 0.961 . S
C1213 H1221 0.960 . S
C1214 C1212 1.381 . S
C1214 C1215 1.394 . S
C1214 H1222 0.930 . S
C1215 C1214 1.394 . S
C1215 C1216 1.383 . S
C1215 H1223 0.929 . S
C1216 C1215 1.383 . S
C1216 C1217 1.377 . S
C1217 H1201 0.930 . S
C1217 C1216 1.377 . S
C1217 C1218 1.379 . S
C1218 H1202 0.931 . S
C1218 C1212 1.383 . S
C1218 C1217 1.379 . S
H1219 C1213 0.959 . S
H1220 C1213 0.961 . S
H1221 C1213 0.960 . S
H1222 C1214 0.930 . S
H1223 C1215 0.929 . S
H1224 C1232 0.929 . S
H1225 C1234 0.930 . S
H1226 C1236 0.930 . S
H1227 C1239 0.929 . S
H1228 C1242 0.930 . S
H1229 C1244 0.960 . S
H1230 C1244 0.960 . S
H1231 C1244 0.960 . S
C1232 H1224 0.929 . S
C1232 C1233 1.377 . S
C1232 C1234 1.384 . S
C1233 C1232 1.377 . S
C1233 C1239 1.390 . S
C1234 H1225 0.930 . S
C1234 C1232 1.384 . S
C1234 C1235 1.372 . S
C1235 C1234 1.372 . S
C1235 C1236 1.400 . S
C1235 C1240 1.490 . S
C1236 H1226 0.930 . S
C1236 C1235 1.400 . S
C1236 C1239 1.386 . S
H1237 C1253 0.930 . S
H1238 C1254 0.931 . S
C1239 H1227 0.929 . S
C1239 C1233 1.390 . S
C1239 C1236 1.386 . S
C1240 C1235 1.490 . S
C1240 C1242 1.395 . S
C1240 C1243 1.403 . S
H1241 C1247 0.930 . S
C1242 H1228 0.930 . S
C1242 C1240 1.395 . S
C1242 C1245 1.403 . S
C1243 C1240 1.403 . S
C1243 C1244 1.524 . S
C1243 C1247 1.400 . S
C1244 H1229 0.960 . S
C1244 H1230 0.960 . S
C1244 H1231 0.960 . S
C1244 C1243 1.524 . S
C1245 C1242 1.403 . S
C1245 C1246 1.392 . S
C1245 C1249 1.495 . S
C1246 C1245 1.392 . S
C1246 C1247 1.385 . S
C1246 C1248 1.478 . S
C1247 H1241 0.930 . S
C1247 C1243 1.400 . S
C1247 C1246 1.385 . S
C1248 C1246 1.478 . S
C1248 C1250 1.381 . S
C1248 C1254 1.383 . S
C1249 C1245 1.495 . S
C1249 H1255 0.959 . S
C1249 H1256 0.961 . S
C1249 H1257 0.960 . S
C1250 C1248 1.381 . S
C1250 C1251 1.394 . S
C1250 H1258 0.930 . S
C1251 C1250 1.394 . S
C1251 C1252 1.383 . S
C1251 H1259 0.929 . S
C1252 C1251 1.383 . S
C1252 C1253 1.377 . S
C1253 H1237 0.930 . S
C1253 C1252 1.377 . S
C1253 C1254 1.379 . S
C1254 H1238 0.931 . S
C1254 C1248 1.383 . S
C1254 C1253 1.379 . S
H1255 C1249 0.959 . S
H1256 C1249 0.961 . S
H1257 C1249 0.960 . S
H1258 C1250 0.930 . S
H1259 C1251 0.929 . S
H1260 C1268 0.929 . S
H1261 C1270 0.930 . S
H1262 C1272 0.930 . S
H1263 C1275 0.929 . S
H1264 C1278 0.930 . S
H1265 C1280 0.960 . S
H1266 C1280 0.960 . S
H1267 C1280 0.960 . S
C1268 H1260 0.929 . S
C1268 C1269 1.377 . S
C1268 C1270 1.384 . S
C1269 C1268 1.377 . S
C1269 C1275 1.390 . S
C1270 H1261 0.930 . S
C1270 C1268 1.384 . S
C1270 C1271 1.372 . S
C1271 C1270 1.372 . S
C1271 C1272 1.400 . S
C1271 C1276 1.490 . S
C1272 H1262 0.930 . S
C1272 C1271 1.400 . S
C1272 C1275 1.386 . S
H1273 C1289 0.930 . S
H1274 C1290 0.931 . S
C1275 H1263 0.929 . S
C1275 C1269 1.390 . S
C1275 C1272 1.386 . S
C1276 C1271 1.490 . S
C1276 C1278 1.395 . S
C1276 C1279 1.403 . S
H1277 C1283 0.930 . S
C1278 H1264 0.930 . S
C1278 C1276 1.395 . S
C1278 C1281 1.403 . S
C1279 C1276 1.403 . S
C1279 C1280 1.524 . S
C1279 C1283 1.400 . S
C1280 H1265 0.960 . S
C1280 H1266 0.960 . S
C1280 H1267 0.960 . S
C1280 C1279 1.524 . S
C1281 C1278 1.403 . S
C1281 C1282 1.392 . S
C1281 C1285 1.495 . S
C1282 C1281 1.392 . S
C1282 C1283 1.385 . S
C1282 C1284 1.478 . S
C1283 H1277 0.930 . S
C1283 C1279 1.400 . S
C1283 C1282 1.385 . S
C1284 C1282 1.478 . S
C1284 C1286 1.381 . S
C1284 C1290 1.383 . S
C1285 C1281 1.495 . S
C1285 H1291 0.959 . S
C1285 H1292 0.961 . S
C1285 H1293 0.960 . S
C1286 C1284 1.381 . S
C1286 C1287 1.394 . S
C1286 H1294 0.930 . S
C1287 C1286 1.394 . S
C1287 C1288 1.383 . S
C1287 H1295 0.929 . S
C1288 C1287 1.383 . S
C1288 C1289 1.377 . S
C1289 H1273 0.930 . S
C1289 C1288 1.377 . S
C1289 C1290 1.379 . S
C1290 H1274 0.931 . S
C1290 C1284 1.383 . S
C1290 C1289 1.379 . S
H1291 C1285 0.959 . S
H1292 C1285 0.961 . S
H1293 C1285 0.960 . S
H1294 C1286 0.930 . S
H1295 C1287 0.929 . S
H1296 C1304 0.929 . S
H1297 C1306 0.930 . S
H1298 C1308 0.930 . S
H1299 C1311 0.929 . S
H1300 C1314 0.930 . S
H1301 C1316 0.960 . S
H1302 C1316 0.960 . S
H1303 C1316 0.960 . S
C1304 H1296 0.929 . S
C1304 C1305 1.377 . S
C1304 C1306 1.384 . S
C1305 C1304 1.377 . S
C1305 C1311 1.390 . S
C1306 H1297 0.930 . S
C1306 C1304 1.384 . S
C1306 C1307 1.372 . S
C1307 C1306 1.372 . S
C1307 C1308 1.400 . S
C1307 C1312 1.490 . S
C1308 H1298 0.930 . S
C1308 C1307 1.400 . S
C1308 C1311 1.386 . S
H1309 C1325 0.930 . S
H1310 C1326 0.931 . S
C1311 H1299 0.929 . S
C1311 C1305 1.390 . S
C1311 C1308 1.386 . S
C1312 C1307 1.490 . S
C1312 C1314 1.395 . S
C1312 C1315 1.403 . S
H1313 C1319 0.930 . S
C1314 H1300 0.930 . S
C1314 C1312 1.395 . S
C1314 C1317 1.403 . S
C1315 C1312 1.403 . S
C1315 C1316 1.524 . S
C1315 C1319 1.400 . S
C1316 H1301 0.960 . S
C1316 H1302 0.960 . S
C1316 H1303 0.960 . S
C1316 C1315 1.524 . S
C1317 C1314 1.403 . S
C1317 C1318 1.392 . S
C1317 C1321 1.495 . S
C1318 C1317 1.392 . S
C1318 C1319 1.385 . S
C1318 C1320 1.478 . S
C1319 H1313 0.930 . S
C1319 C1315 1.400 . S
C1319 C1318 1.385 . S
C1320 C1318 1.478 . S
C1320 C1322 1.381 . S
C1320 C1326 1.383 . S
C1321 C1317 1.495 . S
C1321 H1327 0.959 . S
C1321 H1328 0.961 . S
C1321 H1329 0.960 . S
C1322 C1320 1.381 . S
C1322 C1323 1.394 . S
C1322 H1330 0.930 . S
C1323 C1322 1.394 . S
C1323 C1324 1.383 . S
C1323 H1331 0.929 . S
C1324 C1323 1.383 . S
C1324 C1325 1.377 . S
C1325 H1309 0.930 . S
C1325 C1324 1.377 . S
C1325 C1326 1.379 . S
C1326 H1310 0.931 . S
C1326 C1320 1.383 . S
C1326 C1325 1.379 . S
H1327 C1321 0.959 . S
H1328 C1321 0.961 . S
H1329 C1321 0.960 . S
H1330 C1322 0.930 . S
H1331 C1323 0.929 . S
H1332 C1340 0.929 . S
H1333 C1342 0.930 . S
H1334 C1344 0.930 . S
H1335 C1347 0.929 . S
H1336 C1350 0.930 . S
H1337 C1352 0.960 . S
H1338 C1352 0.960 . S
H1339 C1352 0.960 . S
C1340 H1332 0.929 . S
C1340 C1341 1.377 . S
C1340 C1342 1.384 . S
C1341 C1340 1.377 . S
C1341 C1347 1.390 . S
C1342 H1333 0.930 . S
C1342 C1340 1.384 . S
C1342 C1343 1.372 . S
C1343 C1342 1.372 . S
C1343 C1344 1.400 . S
C1343 C1348 1.490 . S
C1344 H1334 0.930 . S
C1344 C1343 1.400 . S
C1344 C1347 1.386 . S
H1345 C1361 0.930 . S
H1346 C1362 0.931 . S
C1347 H1335 0.929 . S
C1347 C1341 1.390 . S
C1347 C1344 1.386 . S
C1348 C1343 1.490 . S
C1348 C1350 1.395 . S
C1348 C1351 1.403 . S
H1349 C1355 0.930 . S
C1350 H1336 0.930 . S
C1350 C1348 1.395 . S
C1350 C1353 1.403 . S
C1351 C1348 1.403 . S
C1351 C1352 1.524 . S
C1351 C1355 1.400 . S
C1352 H1337 0.960 . S
C1352 H1338 0.960 . S
C1352 H1339 0.960 . S
C1352 C1351 1.524 . S
C1353 C1350 1.403 . S
C1353 C1354 1.392 . S
C1353 C1357 1.495 . S
C1354 C1353 1.392 . S
C1354 C1355 1.385 . S
C1354 C1356 1.478 . S
C1355 H1349 0.930 . S
C1355 C1351 1.400 . S
C1355 C1354 1.385 . S
C1356 C1354 1.478 . S
C1356 C1358 1.381 . S
C1356 C1362 1.383 . S
C1357 C1353 1.495 . S
C1357 H1363 0.959 . S
C1357 H1364 0.961 . S
C1357 H1365 0.960 . S
C1358 C1356 1.381 . S
C1358 C1359 1.394 . S
C1358 H1366 0.930 . S
C1359 C1358 1.394 . S
C1359 C1360 1.383 . S
C1359 H1367 0.929 . S
C1360 C1359 1.383 . S
C1360 C1361 1.377 . S
C1361 H1345 0.930 . S
C1361 C1360 1.377 . S
C1361 C1362 1.379 . S
C1362 H1346 0.931 . S
C1362 C1356 1.383 . S
C1362 C1361 1.379 . S
H1363 C1357 0.959 . S
H1364 C1357 0.961 . S
H1365 C1357 0.960 . S
H1366 C1358 0.930 . S
H1367 C1359 0.929 . S
H1368 C1376 0.929 . S
H1369 C1378 0.930 . S
H1370 C1380 0.930 . S
H1371 C1383 0.929 . S
H1372 C1386 0.930 . S
H1373 C1388 0.960 . S
H1374 C1388 0.960 . S
H1375 C1388 0.960 . S
C1376 H1368 0.929 . S
C1376 C1377 1.377 . S
C1376 C1378 1.384 . S
C1377 C1376 1.377 . S
C1377 C1383 1.390 . S
C1378 H1369 0.930 . S
C1378 C1376 1.384 . S
C1378 C1379 1.372 . S
C1379 C1378 1.372 . S
C1379 C1380 1.400 . S
C1379 C1384 1.490 . S
C1380 H1370 0.930 . S
C1380 C1379 1.400 . S
C1380 C1383 1.386 . S
H1381 C1397 0.930 . S
H1382 C1398 0.931 . S
C1383 H1371 0.929 . S
C1383 C1377 1.390 . S
C1383 C1380 1.386 . S
C1384 C1379 1.490 . S
C1384 C1386 1.395 . S
C1384 C1387 1.403 . S
H1385 C1391 0.930 . S
C1386 H1372 0.930 . S
C1386 C1384 1.395 . S
C1386 C1389 1.403 . S
C1387 C1384 1.403 . S
C1387 C1388 1.524 . S
C1387 C1391 1.400 . S
C1388 H1373 0.960 . S
C1388 H1374 0.960 . S
C1388 H1375 0.960 . S
C1388 C1387 1.524 . S
C1389 C1386 1.403 . S
C1389 C1390 1.392 . S
C1389 C1393 1.495 . S
C1390 C1389 1.392 . S
C1390 C1391 1.385 . S
C1390 C1392 1.478 . S
C1391 H1385 0.930 . S
C1391 C1387 1.400 . S
C1391 C1390 1.385 . S
C1392 C1390 1.478 . S
C1392 C1394 1.381 . S
C1392 C1398 1.383 . S
C1393 C1389 1.495 . S
C1393 H1399 0.959 . S
C1393 H1400 0.961 . S
C1393 H1401 0.960 . S
C1394 C1392 1.381 . S
C1394 C1395 1.394 . S
C1394 H1402 0.930 . S
C1395 C1394 1.394 . S
C1395 C1396 1.383 . S
C1395 H1403 0.929 . S
C1396 C1395 1.383 . S
C1396 C1397 1.377 . S
C1397 H1381 0.930 . S
C1397 C1396 1.377 . S
C1397 C1398 1.379 . S
C1398 H1382 0.931 . S
C1398 C1392 1.383 . S
C1398 C1397 1.379 . S
H1399 C1393 0.959 . S
H1400 C1393 0.961 . S
H1401 C1393 0.960 . S
H1402 C1394 0.930 . S
H1403 C1395 0.929 . S
H1404 C1412 0.929 . S
H1405 C1414 0.930 . S
H1406 C1416 0.930 . S
H1407 C1419 0.929 . S
H1408 C1422 0.930 . S
H1409 C1424 0.960 . S
H1410 C1424 0.960 . S
H1411 C1424 0.960 . S
C1412 H1404 0.929 . S
C1412 C1413 1.377 . S
C1412 C1414 1.384 . S
C1413 C1412 1.377 . S
C1413 C1419 1.390 . S
C1414 H1405 0.930 . S
C1414 C1412 1.384 . S
C1414 C1415 1.372 . S
C1415 C1414 1.372 . S
C1415 C1416 1.400 . S
C1415 C1420 1.490 . S
C1416 H1406 0.930 . S
C1416 C1415 1.400 . S
C1416 C1419 1.386 . S
H1417 C1433 0.930 . S
H1418 C1434 0.931 . S
C1419 H1407 0.929 . S
C1419 C1413 1.390 . S
C1419 C1416 1.386 . S
C1420 C1415 1.490 . S
C1420 C1422 1.395 . S
C1420 C1423 1.403 . S
H1421 C1427 0.930 . S
C1422 H1408 0.930 . S
C1422 C1420 1.395 . S
C1422 C1425 1.403 . S
C1423 C1420 1.403 . S
C1423 C1424 1.524 . S
C1423 C1427 1.400 . S
C1424 H1409 0.960 . S
C1424 H1410 0.960 . S
C1424 H1411 0.960 . S
C1424 C1423 1.524 . S
C1425 C1422 1.403 . S
C1425 C1426 1.392 . S
C1425 C1429 1.495 . S
C1426 C1425 1.392 . S
C1426 C1427 1.385 . S
C1426 C1428 1.478 . S
C1427 H1421 0.930 . S
C1427 C1423 1.400 . S
C1427 C1426 1.385 . S
C1428 C1426 1.478 . S
C1428 C1430 1.381 . S
C1428 C1434 1.383 . S
C1429 C1425 1.495 . S
C1429 H1435 0.959 . S
C1429 H1436 0.961 . S
C1429 H1437 0.960 . S
C1430 C1428 1.381 . S
C1430 C1431 1.394 . S
C1430 H1438 0.930 . S
C1431 C1430 1.394 . S
C1431 C1432 1.383 . S
C1431 H1439 0.929 . S
C1432 C1431 1.383 . S
C1432 C1433 1.377 . S
C1433 H1417 0.930 . S
C1433 C1432 1.377 . S
C1433 C1434 1.379 . S
C1434 H1418 0.931 . S
C1434 C1428 1.383 . S
C1434 C1433 1.379 . S
H1435 C1429 0.959 . S
H1436 C1429 0.961 . S
H1437 C1429 0.960 . S
H1438 C1430 0.930 . S
H1439 C1431 0.929 . S
H1440 C1448 0.929 . S
H1441 C1450 0.930 . S
H1442 C1452 0.930 . S
H1443 C1455 0.929 . S
H1444 C1458 0.930 . S
H1445 C1460 0.960 . S
H1446 C1460 0.960 . S
H1447 C1460 0.960 . S
C1448 H1440 0.929 . S
C1448 C1449 1.377 . S
C1448 C1450 1.384 . S
C1449 C1448 1.377 . S
C1449 C1455 1.390 . S
C1450 H1441 0.930 . S
C1450 C1448 1.384 . S
C1450 C1451 1.372 . S
C1451 C1450 1.372 . S
C1451 C1452 1.400 . S
C1451 C1456 1.490 . S
C1452 H1442 0.930 . S
C1452 C1451 1.400 . S
C1452 C1455 1.386 . S
H1453 C1469 0.930 . S
H1454 C1470 0.931 . S
C1455 H1443 0.929 . S
C1455 C1449 1.390 . S
C1455 C1452 1.386 . S
C1456 C1451 1.490 . S
C1456 C1458 1.395 . S
C1456 C1459 1.403 . S
H1457 C1463 0.930 . S
C1458 H1444 0.930 . S
C1458 C1456 1.395 . S
C1458 C1461 1.403 . S
C1459 C1456 1.403 . S
C1459 C1460 1.524 . S
C1459 C1463 1.400 . S
C1460 H1445 0.960 . S
C1460 H1446 0.960 . S
C1460 H1447 0.960 . S
C1460 C1459 1.524 . S
C1461 C1458 1.403 . S
C1461 C1462 1.392 . S
C1461 C1465 1.495 . S
C1462 C1461 1.392 . S
C1462 C1463 1.385 . S
C1462 C1464 1.478 . S
C1463 H1457 0.930 . S
C1463 C1459 1.400 . S
C1463 C1462 1.385 . S
C1464 C1462 1.478 . S
C1464 C1466 1.381 . S
C1464 C1470 1.383 . S
C1465 C1461 1.495 . S
C1465 H1471 0.959 . S
C1465 H1472 0.961 . S
C1465 H1473 0.960 . S
C1466 C1464 1.381 . S
C1466 C1467 1.394 . S
C1466 H1474 0.930 . S
C1467 C1466 1.394 . S
C1467 C1468 1.383 . S
C1467 H1475 0.929 . S
C1468 C1467 1.383 . S
C1468 C1469 1.377 . S
C1469 H1453 0.930 . S
C1469 C1468 1.377 . S
C1469 C1470 1.379 . S
C1470 H1454 0.931 . S
C1470 C1464 1.383 . S
C1470 C1469 1.379 . S
H1471 C1465 0.959 . S
H1472 C1465 0.961 . S
H1473 C1465 0.960 . S
H1474 C1466 0.930 . S
H1475 C1467 0.929 . S
H1476 C1484 0.929 . S
H1477 C1486 0.930 . S
H1478 C1488 0.930 . S
H1479 C1491 0.929 . S
H1480 C1494 0.930 . S
H1481 C1496 0.960 . S
H1482 C1496 0.960 . S
H1483 C1496 0.960 . S
C1484 H1476 0.929 . S
C1484 C1485 1.377 . S
C1484 C1486 1.384 . S
C1485 C1484 1.377 . S
C1485 C1491 1.390 . S
C1486 H1477 0.930 . S
C1486 C1484 1.384 . S
C1486 C1487 1.372 . S
C1487 C1486 1.372 . S
C1487 C1488 1.400 . S
C1487 C1492 1.490 . S
C1488 H1478 0.930 . S
C1488 C1487 1.400 . S
C1488 C1491 1.386 . S
H1489 C1505 0.930 . S
H1490 C1506 0.931 . S
C1491 H1479 0.929 . S
C1491 C1485 1.390 . S
C1491 C1488 1.386 . S
C1492 C1487 1.490 . S
C1492 C1494 1.395 . S
C1492 C1495 1.403 . S
H1493 C1499 0.930 . S
C1494 H1480 0.930 . S
C1494 C1492 1.395 . S
C1494 C1497 1.403 . S
C1495 C1492 1.403 . S
C1495 C1496 1.524 . S
C1495 C1499 1.400 . S
C1496 H1481 0.960 . S
C1496 H1482 0.960 . S
C1496 H1483 0.960 . S
C1496 C1495 1.524 . S
C1497 C1494 1.403 . S
C1497 C1498 1.392 . S
C1497 C1501 1.495 . S
C1498 C1497 1.392 . S
C1498 C1499 1.385 . S
C1498 C1500 1.478 . S
C1499 H1493 0.930 . S
C1499 C1495 1.400 . S
C1499 C1498 1.385 . S
C1500 C1498 1.478 . S
C1500 C1502 1.381 . S
C1500 C1506 1.383 . S
C1501 C1497 1.495 . S
C1501 H1507 0.959 . S
C1501 H1508 0.961 . S
C1501 H1509 0.960 . S
C1502 C1500 1.381 . S
C1502 C1503 1.394 . S
C1502 H1510 0.930 . S
C1503 C1502 1.394 . S
C1503 C1504 1.383 . S
C1503 H1511 0.929 . S
C1504 C1503 1.383 . S
C1504 C1505 1.377 . S
C1505 H1489 0.930 . S
C1505 C1504 1.377 . S
C1505 C1506 1.379 . S
C1506 H1490 0.931 . S
C1506 C1500 1.383 . S
C1506 C1505 1.379 . S
H1507 C1501 0.959 . S
H1508 C1501 0.961 . S
H1509 C1501 0.960 . S
H1510 C1502 0.930 . S
H1511 C1503 0.929 . S
H1512 C1520 0.929 . S
H1513 C1522 0.930 . S
H1514 C1524 0.930 . S
H1515 C1527 0.929 . S
H1516 C1530 0.930 . S
H1517 C1532 0.960 . S
H1518 C1532 0.960 . S
H1519 C1532 0.960 . S
C1520 H1512 0.929 . S
C1520 C1521 1.377 . S
C1520 C1522 1.384 . S
C1521 C1520 1.377 . S
C1521 C1527 1.390 . S
C1522 H1513 0.930 . S
C1522 C1520 1.384 . S
C1522 C1523 1.372 . S
C1523 C1522 1.372 . S
C1523 C1524 1.400 . S
C1523 C1528 1.490 . S
C1524 H1514 0.930 . S
C1524 C1523 1.400 . S
C1524 C1527 1.386 . S
H1525 C1541 0.930 . S
H1526 C1542 0.931 . S
C1527 H1515 0.929 . S
C1527 C1521 1.390 . S
C1527 C1524 1.386 . S
C1528 C1523 1.490 . S
C1528 C1530 1.395 . S
C1528 C1531 1.403 . S
H1529 C1535 0.930 . S
C1530 H1516 0.930 . S
C1530 C1528 1.395 . S
C1530 C1533 1.403 . S
C1531 C1528 1.403 . S
C1531 C1532 1.524 . S
C1531 C1535 1.400 . S
C1532 H1517 0.960 . S
C1532 H1518 0.960 . S
C1532 H1519 0.960 . S
C1532 C1531 1.524 . S
C1533 C1530 1.403 . S
C1533 C1534 1.392 . S
C1533 C1537 1.495 . S
C1534 C1533 1.392 . S
C1534 C1535 1.385 . S
C1534 C1536 1.478 . S
C1535 H1529 0.930 . S
C1535 C1531 1.400 . S
C1535 C1534 1.385 . S
C1536 C1534 1.478 . S
C1536 C1538 1.381 . S
C1536 C1542 1.383 . S
C1537 C1533 1.495 . S
C1537 H1543 0.959 . S
C1537 H1544 0.961 . S
C1537 H1545 0.960 . S
C1538 C1536 1.381 . S
C1538 C1539 1.394 . S
C1538 H1546 0.930 . S
C1539 C1538 1.394 . S
C1539 C1540 1.383 . S
C1539 H1547 0.929 . S
C1540 C1539 1.383 . S
C1540 C1541 1.377 . S
C1541 H1525 0.930 . S
C1541 C1540 1.377 . S
C1541 C1542 1.379 . S
C1542 H1526 0.931 . S
C1542 C1536 1.383 . S
C1542 C1541 1.379 . S
H1543 C1537 0.959 . S
H1544 C1537 0.961 . S
H1545 C1537 0.960 . S
H1546 C1538 0.930 . S
H1547 C1539 0.929 . S
H1548 C1556 0.929 . S
H1549 C1558 0.930 . S
H1550 C1560 0.930 . S
H1551 C1563 0.929 . S
H1552 C1566 0.930 . S
H1553 C1568 0.960 . S
H1554 C1568 0.960 . S
H1555 C1568 0.960 . S
C1556 H1548 0.929 . S
C1556 C1557 1.377 . S
C1556 C1558 1.384 . S
C1557 C1556 1.377 . S
C1557 C1563 1.390 . S
C1558 H1549 0.930 . S
C1558 C1556 1.384 . S
C1558 C1559 1.372 . S
C1559 C1558 1.372 . S
C1559 C1560 1.400 . S
C1559 C1564 1.490 . S
C1560 H1550 0.930 . S
C1560 C1559 1.400 . S
C1560 C1563 1.386 . S
H1561 C1577 0.930 . S
H1562 C1578 0.931 . S
C1563 H1551 0.929 . S
C1563 C1557 1.390 . S
C1563 C1560 1.386 . S
C1564 C1559 1.490 . S
C1564 C1566 1.395 . S
C1564 C1567 1.403 . S
H1565 C1571 0.930 . S
C1566 H1552 0.930 . S
C1566 C1564 1.395 . S
C1566 C1569 1.403 . S
C1567 C1564 1.403 . S
C1567 C1568 1.524 . S
C1567 C1571 1.400 . S
C1568 H1553 0.960 . S
C1568 H1554 0.960 . S
C1568 H1555 0.960 . S
C1568 C1567 1.524 . S
C1569 C1566 1.403 . S
C1569 C1570 1.392 . S
C1569 C1573 1.495 . S
C1570 C1569 1.392 . S
C1570 C1571 1.385 . S
C1570 C1572 1.478 . S
C1571 H1565 0.930 . S
C1571 C1567 1.400 . S
C1571 C1570 1.385 . S
C1572 C1570 1.478 . S
C1572 C1574 1.381 . S
C1572 C1578 1.383 . S
C1573 C1569 1.495 . S
C1573 H1579 0.959 . S
C1573 H1580 0.961 . S
C1573 H1581 0.960 . S
C1574 C1572 1.381 . S
C1574 C1575 1.394 . S
C1574 H1582 0.930 . S
C1575 C1574 1.394 . S
C1575 C1576 1.383 . S
C1575 H1583 0.929 . S
C1576 C1575 1.383 . S
C1576 C1577 1.377 . S
C1577 H1561 0.930 . S
C1577 C1576 1.377 . S
C1577 C1578 1.379 . S
C1578 H1562 0.931 . S
C1578 C1572 1.383 . S
C1578 C1577 1.379 . S
H1579 C1573 0.959 . S
H1580 C1573 0.961 . S
H1581 C1573 0.960 . S
H1582 C1574 0.930 . S
H1583 C1575 0.929 . S
H1584 C1592 0.929 . S
H1585 C1594 0.930 . S
H1586 C1596 0.930 . S
H1587 C1599 0.929 . S
H1588 C1602 0.930 . S
H1589 C1604 0.960 . S
H1590 C1604 0.960 . S
H1591 C1604 0.960 . S
C1592 H1584 0.929 . S
C1592 C1593 1.377 . S
C1592 C1594 1.384 . S
C1593 C1592 1.377 . S
C1593 C1599 1.390 . S
C1594 H1585 0.930 . S
C1594 C1592 1.384 . S
C1594 C1595 1.372 . S
C1595 C1594 1.372 . S
C1595 C1596 1.400 . S
C1595 C1600 1.490 . S
C1596 H1586 0.930 . S
C1596 C1595 1.400 . S
C1596 C1599 1.386 . S
H1597 C1613 0.930 . S
H1598 C1614 0.931 . S
C1599 H1587 0.929 . S
C1599 C1593 1.390 . S
C1599 C1596 1.386 . S
C1600 C1595 1.490 . S
C1600 C1602 1.395 . S
C1600 C1603 1.403 . S
H1601 C1607 0.930 . S
C1602 H1588 0.930 . S
C1602 C1600 1.395 . S
C1602 C1605 1.403 . S
C1603 C1600 1.403 . S
C1603 C1604 1.524 . S
C1603 C1607 1.400 . S
C1604 H1589 0.960 . S
C1604 H1590 0.960 . S
C1604 H1591 0.960 . S
C1604 C1603 1.524 . S
C1605 C1602 1.403 . S
C1605 C1606 1.392 . S
C1605 C1609 1.495 . S
C1606 C1605 1.392 . S
C1606 C1607 1.385 . S
C1606 C1608 1.478 . S
C1607 H1601 0.930 . S
C1607 C1603 1.400 . S
C1607 C1606 1.385 . S
C1608 C1606 1.478 . S
C1608 C1610 1.381 . S
C1608 C1614 1.383 . S
C1609 C1605 1.495 . S
C1609 H1615 0.959 . S
C1609 H1616 0.961 . S
C1609 H1617 0.960 . S
C1610 C1608 1.381 . S
C1610 C1611 1.394 . S
C1610 H1618 0.930 . S
C1611 C1610 1.394 . S
C1611 C1612 1.383 . S
C1611 H1619 0.929 . S
C1612 C1611 1.383 . S
C1612 C1613 1.377 . S
C1613 H1597 0.930 . S
C1613 C1612 1.377 . S
C1613 C1614 1.379 . S
C1614 H1598 0.931 . S
C1614 C1608 1.383 . S
C1614 C1613 1.379 . S
H1615 C1609 0.959 . S
H1616 C1609 0.961 . S
H1617 C1609 0.960 . S
H1618 C1610 0.930 . S
H1619 C1611 0.929 . S
H1620 C1628 0.929 . S
H1621 C1630 0.930 . S
H1622 C1632 0.930 . S
H1623 C1635 0.929 . S
H1624 C1638 0.930 . S
H1625 C1640 0.960 . S
H1626 C1640 0.960 . S
H1627 C1640 0.960 . S
C1628 H1620 0.929 . S
C1628 C1629 1.377 . S
C1628 C1630 1.384 . S
C1629 C1628 1.377 . S
C1629 C1635 1.390 . S
C1630 H1621 0.930 . S
C1630 C1628 1.384 . S
C1630 C1631 1.372 . S
C1631 C1630 1.372 . S
C1631 C1632 1.400 . S
C1631 C1636 1.490 . S
C1632 H1622 0.930 . S
C1632 C1631 1.400 . S
C1632 C1635 1.386 . S
H1633 C1649 0.930 . S
H1634 C1650 0.931 . S
C1635 H1623 0.929 . S
C1635 C1629 1.390 . S
C1635 C1632 1.386 . S
C1636 C1631 1.490 . S
C1636 C1638 1.395 . S
C1636 C1639 1.403 . S
H1637 C1643 0.930 . S
C1638 H1624 0.930 . S
C1638 C1636 1.395 . S
C1638 C1641 1.403 1_554 S
C1639 C1636 1.403 . S
C1639 C1640 1.524 . S
C1639 C1643 1.400 1_554 S
C1640 H1625 0.960 . S
C1640 H1626 0.960 . S
C1640 H1627 0.960 . S
C1640 C1639 1.524 . S
C1641 C1638 1.403 1_556 S
C1641 C1642 1.392 . S
C1641 C1645 1.495 . S
C1642 C1641 1.392 . S
C1642 C1643 1.385 . S
C1642 C1644 1.478 . S
C1643 H1637 0.930 . S
C1643 C1639 1.400 1_556 S
C1643 C1642 1.385 . S
C1644 C1642 1.478 . S
C1644 C1646 1.381 . S
C1644 C1650 1.383 . S
C1645 C1641 1.495 . S
C1645 H1651 0.959 . S
C1645 H1652 0.961 . S
C1645 H1653 0.960 . S
C1646 C1644 1.381 . S
C1646 C1647 1.394 . S
C1646 H1654 0.930 . S
C1647 C1646 1.394 . S
C1647 C1648 1.383 . S
C1647 H1655 0.929 . S
C1648 C1647 1.383 . S
C1648 C1649 1.377 . S
C1649 H1633 0.930 . S
C1649 C1648 1.377 . S
C1649 C1650 1.379 . S
C1650 H1634 0.931 . S
C1650 C1644 1.383 . S
C1650 C1649 1.379 . S
H1651 C1645 0.959 . S
H1652 C1645 0.961 . S
H1653 C1645 0.960 . S
H1654 C1646 0.930 . S
H1655 C1647 0.929 . S
H1656 C1664 0.929 . S
H1657 C1666 0.930 . S
H1658 C1668 0.930 . S
H1659 C1671 0.929 . S
H1660 C1674 0.930 . S
H1661 C1676 0.960 . S
H1662 C1676 0.960 . S
H1663 C1676 0.960 . S
C1664 H1656 0.929 . S
C1664 C1665 1.377 1_565 S
C1664 C1666 1.384 . S
C1665 C1664 1.377 1_545 S
C1665 C1671 1.390 . S
C1666 H1657 0.930 . S
C1666 C1664 1.384 . S
C1666 C1667 1.372 1_565 S
C1667 C1666 1.372 1_545 S
C1667 C1668 1.400 . S
C1667 C1672 1.489 . S
C1668 H1658 0.930 . S
C1668 C1667 1.400 . S
C1668 C1671 1.386 . S
H1669 C1685 0.930 . S
H1670 C1686 0.931 . S
C1671 H1659 0.929 . S
C1671 C1665 1.390 . S
C1671 C1668 1.386 . S
C1672 C1667 1.489 . S
C1672 C1674 1.399 1_545 S
C1672 C1675 1.399 . S
H1673 C1679 0.930 . S
C1674 H1660 0.930 . S
C1674 C1672 1.399 1_565 S
C1674 C1677 1.403 1_556 S
C1675 C1672 1.399 . S
C1675 C1676 1.524 . S
C1675 C1679 1.400 1_556 S
C1676 H1661 0.960 . S
C1676 H1662 0.960 . S
C1676 H1663 0.960 . S
C1676 C1675 1.524 . S
C1677 C1674 1.403 1_554 S
C1677 C1678 1.392 . S
C1677 C1681 1.495 . S
C1678 C1677 1.392 . S
C1678 C1679 1.385 1_565 S
C1678 C1680 1.478 . S
C1679 H1673 0.930 . S
C1679 C1675 1.400 1_554 S
C1679 C1678 1.385 1_545 S
C1680 C1678 1.478 . S
C1680 C1682 1.381 . S
C1680 C1686 1.383 1_565 S
C1681 C1677 1.495 . S
C1681 H1687 0.959 . S
C1681 H1688 0.961 . S
C1681 H1689 0.960 . S
C1682 C1680 1.381 . S
C1682 C1683 1.394 . S
C1682 H1690 0.930 . S
C1683 C1682 1.394 . S
C1683 C1684 1.383 . S
C1683 H1691 0.929 . S
C1684 C1683 1.383 . S
C1684 C1685 1.377 1_565 S
C1685 H1669 0.930 . S
C1685 C1684 1.377 1_545 S
C1685 C1686 1.379 . S
C1686 H1670 0.931 . S
C1686 C1680 1.383 1_545 S
C1686 C1685 1.379 . S
H1687 C1681 0.959 . S
H1688 C1681 0.961 . S
H1689 C1681 0.960 . S
H1690 C1682 0.930 . S
H1691 C1683 0.929 . S
H1692 C1700 0.929 . S
H1693 C1702 0.930 . S
H1694 C1704 0.930 . S
H1695 C1707 0.929 . S
H1696 C1710 0.930 . S
H1697 C1712 0.960 . S
H1698 C1712 0.960 1_455 S
H1699 C1712 0.960 . S
C1700 H1692 0.929 . S
C1700 C1701 1.377 1_455 S
C1700 C1702 1.384 . S
C1701 C1700 1.377 1_655 S
C1701 C1707 1.390 . S
C1702 H1693 0.930 . S
C1702 C1700 1.384 . S
C1702 C1703 1.372 1_455 S
C1703 C1702 1.372 1_655 S
C1703 C1704 1.400 . S
C1703 C1708 1.490 . S
C1704 H1694 0.930 . S
C1704 C1703 1.400 . S
C1704 C1707 1.386 . S
H1705 C1721 0.930 . S
H1706 C1722 0.931 . S
C1707 H1695 0.929 . S
C1707 C1701 1.390 . S
C1707 C1704 1.386 . S
C1708 C1703 1.490 . S
C1708 C1710 1.394 1_655 S
C1708 C1711 1.403 . S
H1709 C1715 0.916 . S
C1710 H1696 0.930 . S
C1710 C1708 1.394 1_455 S
C1710 C1713 1.403 1_556 S
C1711 C1708 1.403 . S
C1711 C1712 1.524 . S
C1711 C1715 1.401 1_556 S
C1712 H1697 0.960 . S
C1712 H1698 0.960 1_655 S
C1712 H1699 0.960 . S
C1712 C1711 1.524 . S
C1713 C1710 1.403 1_554 S
C1713 C1714 1.392 . S
C1713 C1717 1.495 . S
C1714 C1713 1.392 . S
C1714 C1715 1.401 1_455 S
C1714 C1716 1.478 . S
C1715 H1709 0.916 . S
C1715 C1711 1.401 1_554 S
C1715 C1714 1.401 1_655 S
C1716 C1714 1.478 . S
C1716 C1718 1.381 . S
C1716 C1722 1.383 1_455 S
C1717 C1713 1.495 . S
C1717 H1723 0.959 . S
C1717 H1724 0.961 1_455 S
C1717 H1725 0.960 . S
C1718 C1716 1.381 . S
C1718 C1719 1.394 . S
C1718 H1726 0.930 . S
C1719 C1718 1.394 . S
C1719 C1720 1.383 . S
C1719 H1727 0.929 . S
C1720 C1719 1.383 . S
C1720 C1721 1.377 1_455 S
C1721 H1705 0.930 . S
C1721 C1720 1.377 1_655 S
C1721 C1722 1.379 . S
C1722 H1706 0.931 . S
C1722 C1716 1.383 1_655 S
C1722 C1721 1.379 . S
H1723 C1717 0.959 . S
H1724 C1717 0.961 1_655 S
H1725 C1717 0.960 . S
H1726 C1718 0.930 . S
H1727 C1719 0.929 . S
H1728 C1736 0.929 . S
H1729 C1738 0.930 . S
H1730 C1740 0.930 . S
H1731 C1743 0.929 . S
H1732 C1746 0.930 . S
H1733 C1748 0.960 . S
H1734 C1748 0.960 . S
H1735 C1748 0.960 . S
C1736 H1728 0.929 . S
C1736 C1737 1.377 . S
C1736 C1738 1.384 . S
C1737 C1736 1.377 . S
C1737 C1743 1.390 . S
C1738 H1729 0.930 . S
C1738 C1736 1.384 . S
C1738 C1739 1.372 . S
C1739 C1738 1.372 . S
C1739 C1740 1.400 . S
C1739 C1744 1.490 . S
C1740 H1730 0.930 . S
C1740 C1739 1.400 . S
C1740 C1743 1.386 . S
H1741 C1757 0.930 . S
H1742 C1758 0.931 . S
C1743 H1731 0.929 . S
C1743 C1737 1.390 . S
C1743 C1740 1.386 . S
C1744 C1739 1.490 . S
C1744 C1746 1.395 . S
C1744 C1747 1.403 . S
H1745 C1751 0.930 . S
C1746 H1732 0.930 . S
C1746 C1744 1.395 . S
C1746 C1749 1.403 . S
C1747 C1744 1.403 . S
C1747 C1748 1.524 . S
C1747 C1751 1.400 . S
C1748 H1733 0.960 . S
C1748 H1734 0.960 . S
C1748 H1735 0.960 . S
C1748 C1747 1.524 . S
C1749 C1746 1.403 . S
C1749 C1750 1.392 . S
C1749 C1753 1.495 . S
C1750 C1749 1.392 . S
C1750 C1751 1.385 . S
C1750 C1752 1.478 . S
C1751 H1745 0.930 . S
C1751 C1747 1.400 . S
C1751 C1750 1.385 . S
C1752 C1750 1.478 . S
C1752 C1754 1.381 . S
C1752 C1758 1.383 . S
C1753 C1749 1.495 . S
C1753 H1759 0.959 . S
C1753 H1760 0.961 . S
C1753 H1761 0.960 . S
C1754 C1752 1.381 . S
C1754 C1755 1.394 . S
C1754 H1762 0.930 . S
C1755 C1754 1.394 . S
C1755 C1756 1.383 . S
C1755 H1763 0.929 . S
C1756 C1755 1.383 . S
C1756 C1757 1.377 . S
C1757 H1741 0.930 . S
C1757 C1756 1.377 . S
C1757 C1758 1.379 . S
C1758 H1742 0.931 . S
C1758 C1752 1.383 . S
C1758 C1757 1.379 . S
H1759 C1753 0.959 . S
H1760 C1753 0.961 . S
H1761 C1753 0.960 . S
H1762 C1754 0.930 . S
H1763 C1755 0.929 . S
H1764 C1772 0.929 . S
H1765 C1774 0.930 . S
H1766 C1776 0.930 . S
H1767 C1779 0.929 . S
H1768 C1782 0.930 . S
H1769 C1784 0.960 . S
H1770 C1784 0.960 . S
H1771 C1784 0.960 . S
C1772 H1764 0.929 . S
C1772 C1773 1.377 . S
C1772 C1774 1.384 . S
C1773 C1772 1.377 . S
C1773 C1779 1.390 . S
C1774 H1765 0.930 . S
C1774 C1772 1.384 . S
C1774 C1775 1.372 . S
C1775 C1774 1.372 . S
C1775 C1776 1.400 . S
C1775 C1780 1.490 . S
C1776 H1766 0.930 . S
C1776 C1775 1.400 . S
C1776 C1779 1.386 . S
H1777 C1793 0.930 . S
H1778 C1794 0.931 . S
C1779 H1767 0.929 . S
C1779 C1773 1.390 . S
C1779 C1776 1.386 . S
C1780 C1775 1.490 . S
C1780 C1782 1.395 . S
C1780 C1783 1.403 . S
H1781 C1787 0.930 . S
C1782 H1768 0.930 . S
C1782 C1780 1.395 . S
C1782 C1785 1.403 . S
C1783 C1780 1.403 . S
C1783 C1784 1.524 . S
C1783 C1787 1.400 . S
C1784 H1769 0.960 . S
C1784 H1770 0.960 . S
C1784 H1771 0.960 . S
C1784 C1783 1.524 . S
C1785 C1782 1.403 . S
C1785 C1786 1.392 . S
C1785 C1789 1.495 . S
C1786 C1785 1.392 . S
C1786 C1787 1.385 . S
C1786 C1788 1.478 . S
C1787 H1781 0.930 . S
C1787 C1783 1.400 . S
C1787 C1786 1.385 . S
C1788 C1786 1.478 . S
C1788 C1790 1.381 . S
C1788 C1794 1.383 . S
C1789 C1785 1.495 . S
C1789 H1795 0.959 . S
C1789 H1796 0.961 . S
C1789 H1797 0.960 . S
C1790 C1788 1.381 . S
C1790 C1791 1.394 . S
C1790 H1798 0.930 . S
C1791 C1790 1.394 . S
C1791 C1792 1.383 . S
C1791 H1799 0.929 . S
C1792 C1791 1.383 . S
C1792 C1793 1.377 . S
C1793 H1777 0.930 . S
C1793 C1792 1.377 . S
C1793 C1794 1.379 . S
C1794 H1778 0.931 . S
C1794 C1788 1.383 . S
C1794 C1793 1.379 . S
H1795 C1789 0.959 . S
H1796 C1789 0.961 . S
H1797 C1789 0.960 . S
H1798 C1790 0.930 . S
H1799 C1791 0.929 . S
H1800 C1808 0.929 . S
H1801 C1810 0.930 . S
H1802 C1812 0.930 . S
H1803 C1815 0.929 . S
H1804 C1818 0.930 . S
H1805 C1820 0.960 . S
H1806 C1820 0.960 . S
H1807 C1820 0.960 . S
C1808 H1800 0.929 . S
C1808 C1809 1.377 . S
C1808 C1810 1.384 . S
C1809 C1808 1.377 . S
C1809 C1815 1.390 . S
C1810 H1801 0.930 . S
C1810 C1808 1.384 . S
C1810 C1811 1.372 . S
C1811 C1810 1.372 . S
C1811 C1812 1.400 . S
C1811 C1816 1.490 . S
C1812 H1802 0.930 . S
C1812 C1811 1.400 . S
C1812 C1815 1.386 . S
H1813 C1829 0.930 . S
H1814 C1830 0.931 . S
C1815 H1803 0.929 . S
C1815 C1809 1.390 . S
C1815 C1812 1.386 . S
C1816 C1811 1.490 . S
C1816 C1818 1.395 . S
C1816 C1819 1.403 . S
H1817 C1823 0.930 . S
C1818 H1804 0.930 . S
C1818 C1816 1.395 . S
C1818 C1821 1.403 . S
C1819 C1816 1.403 . S
C1819 C1820 1.524 . S
C1819 C1823 1.400 . S
C1820 H1805 0.960 . S
C1820 H1806 0.960 . S
C1820 H1807 0.960 . S
C1820 C1819 1.524 . S
C1821 C1818 1.403 . S
C1821 C1822 1.392 . S
C1821 C1825 1.495 . S
C1822 C1821 1.392 . S
C1822 C1823 1.385 . S
C1822 C1824 1.478 . S
C1823 H1817 0.930 . S
C1823 C1819 1.400 . S
C1823 C1822 1.385 . S
C1824 C1822 1.478 . S
C1824 C1826 1.381 . S
C1824 C1830 1.383 . S
C1825 C1821 1.495 . S
C1825 H1831 0.959 . S
C1825 H1832 0.961 . S
C1825 H1833 0.960 . S
C1826 C1824 1.381 . S
C1826 C1827 1.394 . S
C1826 H1834 0.930 . S
C1827 C1826 1.394 . S
C1827 C1828 1.383 . S
C1827 H1835 0.929 . S
C1828 C1827 1.383 . S
C1828 C1829 1.377 . S
C1829 H1813 0.930 . S
C1829 C1828 1.377 . S
C1829 C1830 1.379 . S
C1830 H1814 0.931 . S
C1830 C1824 1.383 . S
C1830 C1829 1.379 . S
H1831 C1825 0.959 . S
H1832 C1825 0.961 . S
H1833 C1825 0.960 . S
H1834 C1826 0.930 . S
H1835 C1827 0.929 . S
H1836 C1844 0.929 . S
H1837 C1846 0.930 . S
H1838 C1848 0.930 . S
H1839 C1851 0.929 . S
H1840 C1854 0.930 . S
H1841 C1856 0.960 . S
H1842 C1856 0.960 . S
H1843 C1856 0.960 . S
C1844 H1836 0.929 . S
C1844 C1845 1.377 . S
C1844 C1846 1.384 . S
C1845 C1844 1.377 . S
C1845 C1851 1.390 . S
C1846 H1837 0.930 . S
C1846 C1844 1.384 . S
C1846 C1847 1.372 . S
C1847 C1846 1.372 . S
C1847 C1848 1.400 . S
C1847 C1852 1.490 . S
C1848 H1838 0.930 . S
C1848 C1847 1.400 . S
C1848 C1851 1.386 . S
H1849 C1865 0.930 . S
H1850 C1866 0.931 . S
C1851 H1839 0.929 . S
C1851 C1845 1.390 . S
C1851 C1848 1.386 . S
C1852 C1847 1.490 . S
C1852 C1854 1.395 . S
C1852 C1855 1.403 . S
H1853 C1859 0.930 . S
C1854 H1840 0.930 . S
C1854 C1852 1.395 . S
C1854 C1857 1.403 . S
C1855 C1852 1.403 . S
C1855 C1856 1.524 . S
C1855 C1859 1.400 . S
C1856 H1841 0.960 . S
C1856 H1842 0.960 . S
C1856 H1843 0.960 . S
C1856 C1855 1.524 . S
C1857 C1854 1.403 . S
C1857 C1858 1.392 . S
C1857 C1861 1.495 . S
C1858 C1857 1.392 . S
C1858 C1859 1.385 . S
C1858 C1860 1.478 . S
C1859 H1853 0.930 . S
C1859 C1855 1.400 . S
C1859 C1858 1.385 . S
C1860 C1858 1.478 . S
C1860 C1862 1.381 . S
C1860 C1866 1.383 . S
C1861 C1857 1.495 . S
C1861 H1867 0.959 . S
C1861 H1868 0.961 . S
C1861 H1869 0.960 . S
C1862 C1860 1.381 . S
C1862 C1863 1.394 . S
C1862 H1870 0.930 . S
C1863 C1862 1.394 . S
C1863 C1864 1.383 . S
C1863 H1871 0.929 . S
C1864 C1863 1.383 . S
C1864 C1865 1.377 . S
C1865 H1849 0.930 . S
C1865 C1864 1.377 . S
C1865 C1866 1.379 . S
C1866 H1850 0.931 . S
C1866 C1860 1.383 . S
C1866 C1865 1.379 . S
H1867 C1861 0.959 . S
H1868 C1861 0.961 . S
H1869 C1861 0.960 . S
H1870 C1862 0.930 . S
H1871 C1863 0.929 . S
H1872 C1880 0.929 . S
H1873 C1882 0.930 . S
H1874 C1884 0.930 . S
H1875 C1887 0.929 . S
H1876 C1890 0.930 . S
H1877 C1892 0.960 . S
H1878 C1892 0.960 . S
H1879 C1892 0.960 . S
C1880 H1872 0.929 . S
C1880 C1881 1.377 . S
C1880 C1882 1.384 . S
C1881 C1880 1.377 . S
C1881 C1887 1.390 . S
C1882 H1873 0.930 . S
C1882 C1880 1.384 . S
C1882 C1883 1.372 . S
C1883 C1882 1.372 . S
C1883 C1884 1.400 . S
C1883 C1888 1.490 . S
C1884 H1874 0.930 . S
C1884 C1883 1.400 . S
C1884 C1887 1.386 . S
H1885 C1901 0.930 . S
H1886 C1902 0.931 . S
C1887 H1875 0.929 . S
C1887 C1881 1.390 . S
C1887 C1884 1.386 . S
C1888 C1883 1.490 . S
C1888 C1890 1.395 . S
C1888 C1891 1.403 . S
H1889 C1895 0.930 . S
C1890 H1876 0.930 . S
C1890 C1888 1.395 . S
C1890 C1893 1.403 . S
C1891 C1888 1.403 . S
C1891 C1892 1.524 . S
C1891 C1895 1.400 . S
C1892 H1877 0.960 . S
C1892 H1878 0.960 . S
C1892 H1879 0.960 . S
C1892 C1891 1.524 . S
C1893 C1890 1.403 . S
C1893 C1894 1.392 . S
C1893 C1897 1.495 . S
C1894 C1893 1.392 . S
C1894 C1895 1.385 . S
C1894 C1896 1.478 . S
C1895 H1889 0.930 . S
C1895 C1891 1.400 . S
C1895 C1894 1.385 . S
C1896 C1894 1.478 . S
C1896 C1898 1.381 . S
C1896 C1902 1.383 . S
C1897 C1893 1.495 . S
C1897 H1903 0.959 . S
C1897 H1904 0.961 . S
C1897 H1905 0.960 . S
C1898 C1896 1.381 . S
C1898 C1899 1.394 . S
C1898 H1906 0.930 . S
C1899 C1898 1.394 . S
C1899 C1900 1.383 . S
C1899 H1907 0.929 . S
C1900 C1899 1.383 . S
C1900 C1901 1.377 . S
C1901 H1885 0.930 . S
C1901 C1900 1.377 . S
C1901 C1902 1.379 . S
C1902 H1886 0.931 . S
C1902 C1896 1.383 . S
C1902 C1901 1.379 . S
H1903 C1897 0.959 . S
H1904 C1897 0.961 . S
H1905 C1897 0.960 . S
H1906 C1898 0.930 . S
H1907 C1899 0.929 . S
H1908 C1916 0.929 . S
H1909 C1918 0.930 . S
H1910 C1920 0.930 . S
H1911 C1923 0.929 . S
H1912 C1926 0.930 . S
H1913 C1928 0.960 . S
H1914 C1928 0.960 . S
H1915 C1928 0.960 . S
C1916 H1908 0.929 . S
C1916 C1917 1.377 . S
C1916 C1918 1.384 . S
C1917 C1916 1.377 . S
C1917 C1923 1.390 . S
C1918 H1909 0.930 . S
C1918 C1916 1.384 . S
C1918 C1919 1.372 . S
C1919 C1918 1.372 . S
C1919 C1920 1.400 . S
C1919 C1924 1.490 . S
C1920 H1910 0.930 . S
C1920 C1919 1.400 . S
C1920 C1923 1.386 . S
H1921 C1937 0.930 . S
H1922 C1938 0.931 . S
C1923 H1911 0.929 . S
C1923 C1917 1.390 . S
C1923 C1920 1.386 . S
C1924 C1919 1.490 . S
C1924 C1926 1.395 . S
C1924 C1927 1.403 . S
H1925 C1931 0.930 . S
C1926 H1912 0.930 . S
C1926 C1924 1.395 . S
C1926 C1929 1.403 . S
C1927 C1924 1.403 . S
C1927 C1928 1.524 . S
C1927 C1931 1.400 . S
C1928 H1913 0.960 . S
C1928 H1914 0.960 . S
C1928 H1915 0.960 . S
C1928 C1927 1.524 . S
C1929 C1926 1.403 . S
C1929 C1930 1.392 . S
C1929 C1933 1.495 . S
C1930 C1929 1.392 . S
C1930 C1931 1.385 . S
C1930 C1932 1.478 . S
C1931 H1925 0.930 . S
C1931 C1927 1.400 . S
C1931 C1930 1.385 . S
C1932 C1930 1.478 . S
C1932 C1934 1.381 . S
C1932 C1938 1.383 . S
C1933 C1929 1.495 . S
C1933 H1939 0.959 . S
C1933 H1940 0.961 . S
C1933 H1941 0.960 . S
C1934 C1932 1.381 . S
C1934 C1935 1.394 . S
C1934 H1942 0.930 . S
C1935 C1934 1.394 . S
C1935 C1936 1.383 . S
C1935 H1943 0.929 . S
C1936 C1935 1.383 . S
C1936 C1937 1.377 . S
C1937 H1921 0.930 . S
C1937 C1936 1.377 . S
C1937 C1938 1.379 . S
C1938 H1922 0.931 . S
C1938 C1932 1.383 . S
C1938 C1937 1.379 . S
H1939 C1933 0.959 . S
H1940 C1933 0.961 . S
H1941 C1933 0.960 . S
H1942 C1934 0.930 . S
H1943 C1935 0.929 . S
C657 C364 0.962 . S
C676 C4 0.988 . S
C693 C40 0.965 . S
C712 C400 0.921 . S
C729 C328 0.958 . S
C748 C76 0.990 . S
C765 C508 0.974 . S
C784 C112 0.932 . S
C801 C148 0.969 . S
C820 C436 0.924 . S
C837 C472 0.966 . S
C856 C184 0.936 . S
C873 C220 0.986 . S
C892 C580 0.953 . S
C909 C616 0.976 . S
C928 C256 0.986 . S
C945 C292 0.983 . S
C964 C544 0.997 . S
C981 C3 0.783 . S
C1000 C38 0.766 . S
C1017 C39 0.784 . S
C1036 C74 0.807 . S
C1053 C2 0.808 . S
C1072 C75 0.784 . S
C1089 C182 0.792 . S
C1108 C111 0.746 . S
C1125 C110 0.815 . S
C1144 C147 0.779 . S
C1161 C183 0.781 . S
C1180 C146 0.769 . S
C1197 C219 0.798 . S
C1216 C254 0.799 . S
C1233 C255 0.802 . S
C1252 C290 0.805 . S
C1269 C218 0.800 . S
C1288 C291 0.779 . S
C1305 C398 0.814 . S
C1324 C327 0.843 . S
C1341 C326 0.791 . S
C1360 C363 0.833 . S
C1377 C362 0.794 . S
C1396 C399 0.837 . S
C1413 C470 0.813 . S
C1432 C435 0.850 . S
C1449 C506 0.792 . S
C1468 C471 0.831 . S
C1485 C434 0.790 . S
C1504 C507 0.814 . S
C1521 C543 0.804 . S
C1540 C614 0.790 . S
C1557 C579 0.800 . S
C1576 C542 0.781 . S
C1593 C615 0.802 . S
C1612 C578 0.778 . S
C1629 C14 1.557 . S
C1648 C122 1.550 . S
C1665 C158 1.551 . S
C1684 C50 1.578 . S
C1701 C194 1.544 . S
C1720 C86 1.548 . S
C1737 C338 1.553 . S
C1756 C230 1.571 . S
C1773 C374 1.546 . S
C1792 C266 1.518 . S
C1809 C302 1.564 . S
C1828 C410 1.577 . S
C1845 C554 1.561 . S
C1864 C446 1.570 . S
C1881 C590 1.563 . S
C1900 C482 1.581 . S
C1917 C626 1.541 . S
C1936 C518 1.543 . S
