# Generated by pormake.
# Topology lta, (4)-cn, num edge types: 1
# Building blocks:
#     Node 0, Type 0, BuildingBlock: GALJAG_clean_sbu_0, # of connection points: 4
#     Node 1, Type 0, BuildingBlock: GALJAG_clean_sbu_0, # of connection points: 4
#     Node 2, Type 0, BuildingBlock: GALJAG_clean_sbu_0, # of connection points: 4
#     Node 3, Type 0, BuildingBlock: GALJAG_clean_sbu_0, # of connection points: 4
#     Node 4, Type 0, BuildingBlock: GALJAG_clean_sbu_0, # of connection points: 4
#     Node 5, Type 0, BuildingBlock: GALJAG_clean_sbu_0, # of connection points: 4
#     Node 6, Type 0, BuildingBlock: GALJAG_clean_sbu_0, # of connection points: 4
#     Node 7, Type 0, BuildingBlock: GALJAG_clean_sbu_0, # of connection points: 4
#     Node 8, Type 0, BuildingBlock: GALJAG_clean_sbu_0, # of connection points: 4
#     Node 9, Type 0, BuildingBlock: GALJAG_clean_sbu_0, # of connection points: 4
#     Node 10, Type 0, BuildingBlock: GALJAG_clean_sbu_0, # of connection points: 4
#     Node 11, Type 0, BuildingBlock: GALJAG_clean_sbu_0, # of connection points: 4
#     Node 12, Type 0, BuildingBlock: GALJAG_clean_sbu_0, # of connection points: 4
#     Node 13, Type 0, BuildingBlock: GALJAG_clean_sbu_0, # of connection points: 4
#     Node 14, Type 0, BuildingBlock: GALJAG_clean_sbu_0, # of connection points: 4
#     Node 15, Type 0, BuildingBlock: GALJAG_clean_sbu_0, # of connection points: 4
#     Node 16, Type 0, BuildingBlock: GALJAG_clean_sbu_0, # of connection points: 4
#     Node 17, Type 0, BuildingBlock: GALJAG_clean_sbu_0, # of connection points: 4
#     Node 18, Type 0, BuildingBlock: GALJAG_clean_sbu_0, # of connection points: 4
#     Node 19, Type 0, BuildingBlock: GALJAG_clean_sbu_0, # of connection points: 4
#     Node 20, Type 0, BuildingBlock: GALJAG_clean_sbu_0, # of connection points: 4
#     Node 21, Type 0, BuildingBlock: GALJAG_clean_sbu_0, # of connection points: 4
#     Node 22, Type 0, BuildingBlock: GALJAG_clean_sbu_0, # of connection points: 4
#     Node 23, Type 0, BuildingBlock: GALJAG_clean_sbu_0, # of connection points: 4
#     Edge 24, Type (0, 0), BuildingBlock: TEMPAE_clean_linker_10, # of connection points: 2
#     Edge 25, Type (0, 0), BuildingBlock: TEMPAE_clean_linker_10, # of connection points: 2
#     Edge 26, Type (0, 0), BuildingBlock: TEMPAE_clean_linker_10, # of connection points: 2
#     Edge 27, Type (0, 0), BuildingBlock: TEMPAE_clean_linker_10, # of connection points: 2
#     Edge 28, Type (0, 0), BuildingBlock: TEMPAE_clean_linker_10, # of connection points: 2
#     Edge 29, Type (0, 0), BuildingBlock: TEMPAE_clean_linker_10, # of connection points: 2
#     Edge 30, Type (0, 0), BuildingBlock: TEMPAE_clean_linker_10, # of connection points: 2
#     Edge 31, Type (0, 0), BuildingBlock: TEMPAE_clean_linker_10, # of connection points: 2
#     Edge 32, Type (0, 0), BuildingBlock: TEMPAE_clean_linker_10, # of connection points: 2
#     Edge 33, Type (0, 0), BuildingBlock: TEMPAE_clean_linker_10, # of connection points: 2
#     Edge 34, Type (0, 0), BuildingBlock: TEMPAE_clean_linker_10, # of connection points: 2
#     Edge 35, Type (0, 0), BuildingBlock: TEMPAE_clean_linker_10, # of connection points: 2
#     Edge 36, Type (0, 0), BuildingBlock: TEMPAE_clean_linker_10, # of connection points: 2
#     Edge 37, Type (0, 0), BuildingBlock: TEMPAE_clean_linker_10, # of connection points: 2
#     Edge 38, Type (0, 0), BuildingBlock: TEMPAE_clean_linker_10, # of connection points: 2
#     Edge 39, Type (0, 0), BuildingBlock: TEMPAE_clean_linker_10, # of connection points: 2
#     Edge 40, Type (0, 0), BuildingBlock: TEMPAE_clean_linker_10, # of connection points: 2
#     Edge 41, Type (0, 0), BuildingBlock: TEMPAE_clean_linker_10, # of connection points: 2
#     Edge 42, Type (0, 0), BuildingBlock: TEMPAE_clean_linker_10, # of connection points: 2
#     Edge 43, Type (0, 0), BuildingBlock: TEMPAE_clean_linker_10, # of connection points: 2
#     Edge 44, Type (0, 0), BuildingBlock: TEMPAE_clean_linker_10, # of connection points: 2
#     Edge 45, Type (0, 0), BuildingBlock: TEMPAE_clean_linker_10, # of connection points: 2
#     Edge 46, Type (0, 0), BuildingBlock: TEMPAE_clean_linker_10, # of connection points: 2
#     Edge 47, Type (0, 0), BuildingBlock: TEMPAE_clean_linker_10, # of connection points: 2
#     Edge 48, Type (0, 0), BuildingBlock: TEMPAE_clean_linker_10, # of connection points: 2
#     Edge 49, Type (0, 0), BuildingBlock: TEMPAE_clean_linker_10, # of connection points: 2
#     Edge 50, Type (0, 0), BuildingBlock: TEMPAE_clean_linker_10, # of connection points: 2
#     Edge 51, Type (0, 0), BuildingBlock: TEMPAE_clean_linker_10, # of connection points: 2
#     Edge 52, Type (0, 0), BuildingBlock: TEMPAE_clean_linker_10, # of connection points: 2
#     Edge 53, Type (0, 0), BuildingBlock: TEMPAE_clean_linker_10, # of connection points: 2
#     Edge 54, Type (0, 0), BuildingBlock: TEMPAE_clean_linker_10, # of connection points: 2
#     Edge 55, Type (0, 0), BuildingBlock: TEMPAE_clean_linker_10, # of connection points: 2
#     Edge 56, Type (0, 0), BuildingBlock: TEMPAE_clean_linker_10, # of connection points: 2
#     Edge 57, Type (0, 0), BuildingBlock: TEMPAE_clean_linker_10, # of connection points: 2
#     Edge 58, Type (0, 0), BuildingBlock: TEMPAE_clean_linker_10, # of connection points: 2
#     Edge 59, Type (0, 0), BuildingBlock: TEMPAE_clean_linker_10, # of connection points: 2
#     Edge 60, Type (0, 0), BuildingBlock: TEMPAE_clean_linker_10, # of connection points: 2
#     Edge 61, Type (0, 0), BuildingBlock: TEMPAE_clean_linker_10, # of connection points: 2
#     Edge 62, Type (0, 0), BuildingBlock: TEMPAE_clean_linker_10, # of connection points: 2
#     Edge 63, Type (0, 0), BuildingBlock: TEMPAE_clean_linker_10, # of connection points: 2
#     Edge 64, Type (0, 0), BuildingBlock: TEMPAE_clean_linker_10, # of connection points: 2
#     Edge 65, Type (0, 0), BuildingBlock: TEMPAE_clean_linker_10, # of connection points: 2
#     Edge 66, Type (0, 0), BuildingBlock: TEMPAE_clean_linker_10, # of connection points: 2
#     Edge 67, Type (0, 0), BuildingBlock: TEMPAE_clean_linker_10, # of connection points: 2
#     Edge 68, Type (0, 0), BuildingBlock: TEMPAE_clean_linker_10, # of connection points: 2
#     Edge 69, Type (0, 0), BuildingBlock: TEMPAE_clean_linker_10, # of connection points: 2
#     Edge 70, Type (0, 0), BuildingBlock: TEMPAE_clean_linker_10, # of connection points: 2
#     Edge 71, Type (0, 0), BuildingBlock: TEMPAE_clean_linker_10, # of connection points: 2
# Relax obj value: 0.417
# Max RMSD: 0.230
# Mean RMSD: 0.230
data_MOF--net-lta--node1-GALJAG_clean_sbu_0--edge1-TEMPAE_clean_linker_10
_symmetry_space_group_name_H-M    P1
_symmetry_Int_Tables_number       1
_symmetry_cell_setting            triclinic
loop_
_symmetry_equiv_pos_as_xyz
'x, y, z'
_cell_length_a     56.895823
_cell_length_b     56.859009
_cell_length_c     56.850207
_cell_angle_alpha  90.017031
_cell_angle_beta   89.986582
_cell_angle_gamma 90.043682
loop_
_atom_site_label
_atom_site_type_symbol
_atom_site_fract_x
_atom_site_fract_y
_atom_site_fract_z
_atom_type_partial_charge
In0 In 0.14601 0.32702 0.50411 0.0
O1 O 0.15896 0.35695 0.52705 0.0
O2 O 0.12978 0.33697 0.53938 0.0
C3 C 0.16154 0.35043 0.46586 0.0
C4 C 0.17618 0.29216 0.51446 0.0
C5 C 0.10113 0.31511 0.49433 0.0
O6 O 0.15226 0.36038 0.48334 0.0
O7 O 0.16372 0.32843 0.46784 0.0
O8 O 0.11077 0.33345 0.48658 0.0
O9 O 0.11417 0.30251 0.50707 0.0
C10 C 0.14375 0.35387 0.54293 0.0
O11 O 0.16208 0.29098 0.49738 0.0
O12 O 0.17537 0.31108 0.52595 0.0
In13 In 0.71673 0.0996 0.49307 0.0
O14 O 0.70478 0.1194 0.52595 0.0
O15 O 0.68711 0.08772 0.51721 0.0
C16 C 0.68602 0.11557 0.46062 0.0
C17 C 0.75706 0.12387 0.48852 0.0
C18 C 0.73044 0.05428 0.49335 0.0
O19 O 0.6968 0.12912 0.47448 0.0
O20 O 0.69102 0.0941 0.46292 0.0
O21 O 0.7327 0.06753 0.511 0.0
O22 O 0.72239 0.06426 0.47526 0.0
C23 C 0.68891 0.10484 0.53118 0.0
O24 O 0.74661 0.11494 0.4711 0.0
O25 O 0.7476 0.11974 0.50813 0.0
In26 In 0.86113 0.66731 0.52603 0.0
O27 O 0.83846 0.698 0.51485 0.0
O28 O 0.83435 0.68545 0.54982 0.0
C29 C 0.90319 0.68923 0.52447 0.0
C30 C 0.85661 0.63419 0.55944 0.0
C31 C 0.857 0.64411 0.48484 0.0
O32 O 0.88464 0.69857 0.51685 0.0
O33 O 0.90038 0.66917 0.53344 0.0
O34 O 0.8761 0.64569 0.49593 0.0
O35 O 0.83981 0.6542 0.49454 0.0
C36 C 0.82805 0.69998 0.53431 0.0
O37 O 0.84788 0.63203 0.53914 0.0
O38 O 0.86726 0.65336 0.56307 0.0
In39 In 0.30013 0.8753 0.46475 0.0
O40 O 0.32841 0.86001 0.4888 0.0
O41 O 0.29748 0.87301 0.50484 0.0
C42 C 0.33264 0.87389 0.43038 0.0
C43 C 0.26713 0.84405 0.45231 0.0
C44 C 0.28522 0.92023 0.46844 0.0
O45 O 0.3354 0.88538 0.44916 0.0
O46 O 0.31325 0.86322 0.42871 0.0
O47 O 0.27357 0.90318 0.47647 0.0
O48 O 0.3038 0.9145 0.45786 0.0
C49 C 0.31737 0.86379 0.50762 0.0
O50 O 0.26575 0.86552 0.44679 0.0
O51 O 0.28529 0.83842 0.46373 0.0
In52 In 0.10828 0.69101 0.47008 0.0
O53 O 0.13068 0.66105 0.45566 0.0
O54 O 0.09986 0.67056 0.43678 0.0
C55 C 0.11024 0.66588 0.51025 0.0
C56 C 0.13747 0.72708 0.46065 0.0
C57 C 0.06543 0.71085 0.47296 0.0
O58 O 0.09216 0.66679 0.49748 0.0
O59 O 0.12759 0.6774 0.50258 0.0
O60 O 0.08213 0.71661 0.48635 0.0
O61 O 0.0707 0.6958 0.45753 0.0
C62 C 0.11749 0.65718 0.43823 0.0
O63 O 0.13222 0.72089 0.48125 0.0
O64 O 0.12785 0.71517 0.44463 0.0
In65 In 0.31492 0.12163 0.53643 0.0
O66 O 0.34997 0.11809 0.51741 0.0
O67 O 0.32258 0.13595 0.49961 0.0
C68 C 0.34332 0.1188 0.57428 0.0
C69 C 0.28728 0.15914 0.54306 0.0
C70 C 0.28966 0.08245 0.52717 0.0
O71 O 0.34405 0.10438 0.55745 0.0
O72 O 0.32772 0.13445 0.57241 0.0
O73 O 0.29854 0.08647 0.54707 0.0
O74 O 0.2929 0.09849 0.51226 0.0
C75 C 0.34354 0.12887 0.49918 0.0
O76 O 0.28057 0.13857 0.54821 0.0
O77 O 0.30802 0.16063 0.53537 0.0
In78 In 0.87926 0.30882 0.48015 0.0
O79 O 0.85805 0.33791 0.46241 0.0
O80 O 0.8849 0.32159 0.44245 0.0
C81 C 0.86847 0.33053 0.52088 0.0
C82 C 0.85693 0.26714 0.47706 0.0
C83 C 0.92624 0.30329 0.48273 0.0
O84 O 0.8799 0.34031 0.50455 0.0
O85 O 0.86217 0.30963 0.51662 0.0
O86 O 0.91455 0.29694 0.46498 0.0
O87 O 0.91423 0.31227 0.49903 0.0
C88 C 0.86909 0.33706 0.44324 0.0
O89 O 0.8779 0.26903 0.48386 0.0
O90 O 0.84709 0.28632 0.47191 0.0
In91 In 0.66391 0.8464 0.52057 0.0
O92 O 0.69423 0.83321 0.54302 0.0
O93 O 0.67984 0.81002 0.5174 0.0
C94 C 0.68615 0.88816 0.5189 0.0
C95 C 0.64448 0.84798 0.47736 0.0
C96 C 0.6294 0.83762 0.55176 0.0
O97 O 0.69461 0.86982 0.50974 0.0
O98 O 0.66668 0.8853 0.52916 0.0
O99 O 0.63252 0.82531 0.53358 0.0
O100 O 0.64394 0.85418 0.55439 0.0
C101 C 0.69489 0.81324 0.53337 0.0
O102 O 0.63571 0.85812 0.495 0.0
O103 O 0.66319 0.83681 0.48145 0.0
In104 In 0.50206 0.14562 0.34471 0.0
O105 O 0.48633 0.15555 0.30939 0.0
O106 O 0.50753 0.18102 0.32662 0.0
C107 C 0.51069 0.1006 0.33282 0.0
C108 C 0.543 0.15347 0.36702 0.0
C109 C 0.46242 0.1484 0.37077 0.0
O110 O 0.5053 0.11599 0.31778 0.0
O111 O 0.5116 0.10791 0.35373 0.0
O112 O 0.47794 0.16423 0.37098 0.0
O113 O 0.46672 0.1315 0.35713 0.0
C114 C 0.4953 0.17581 0.30887 0.0
O115 O 0.52351 0.15255 0.37759 0.0
O116 O 0.54175 0.15125 0.34494 0.0
In117 In 0.87031 0.51341 0.30678 0.0
O118 O 0.84642 0.53592 0.28388 0.0
O119 O 0.84909 0.49959 0.2758 0.0
C120 C 0.91484 0.51626 0.29052 0.0
C121 C 0.85716 0.5449 0.33959 0.0
C122 C 0.86895 0.47268 0.33105 0.0
O123 O 0.89931 0.50414 0.28037 0.0
O124 O 0.90769 0.52733 0.3083 0.0
O125 O 0.88602 0.4868 0.33209 0.0
O126 O 0.85249 0.47901 0.31759 0.0
C127 C 0.83988 0.51915 0.27096 0.0
O128 O 0.85059 0.5237 0.34002 0.0
O129 O 0.86989 0.55036 0.32224 0.0
In130 In 0.51426 0.87941 0.30432 0.0
O131 O 0.50504 0.87788 0.26524 0.0
O132 O 0.52369 0.8492 0.27981 0.0
C133 C 0.51675 0.92655 0.30695 0.0
C134 C 0.47249 0.86903 0.32424 0.0
C135 C 0.55102 0.86541 0.3306 0.0
O136 O 0.52957 0.91492 0.29302 0.0
O137 O 0.50315 0.91437 0.31952 0.0
O138 O 0.53214 0.85386 0.32914 0.0
O139 O 0.55165 0.88384 0.31821 0.0
C140 C 0.51394 0.8579 0.26197 0.0
O141 O 0.49187 0.86449 0.33397 0.0
O142 O 0.47415 0.87847 0.30424 0.0
In143 In 0.13244 0.48335 0.2977 0.0
O144 O 0.16104 0.46497 0.31908 0.0
O145 O 0.12951 0.44623 0.31222 0.0
C146 C 0.13412 0.51975 0.32814 0.0
C147 C 0.1569 0.48119 0.2573 0.0
C148 C 0.08695 0.48751 0.28529 0.0
O149 O 0.12455 0.50037 0.33306 0.0
O150 O 0.14307 0.52076 0.30787 0.0
O151 O 0.10247 0.50182 0.27848 0.0
O152 O 0.09449 0.47096 0.29797 0.0
C153 C 0.14934 0.44636 0.3221 0.0
O154 O 0.13933 0.46823 0.2612 0.0
O155 O 0.16225 0.49489 0.27389 0.0
In156 In 0.45115 0.85755 0.67951 0.0
O157 O 0.44739 0.85729 0.71944 0.0
O158 O 0.44738 0.82451 0.70165 0.0
C159 C 0.47031 0.89949 0.68971 0.0
C160 C 0.48403 0.84092 0.64966 0.0
C161 C 0.41032 0.85795 0.65528 0.0
O162 O 0.44842 0.89584 0.69105 0.0
O163 O 0.48236 0.88191 0.68365 0.0
O164 O 0.41906 0.83929 0.66344 0.0
O165 O 0.42163 0.87633 0.66027 0.0
C166 C 0.44702 0.8352 0.72106 0.0
O167 O 0.46791 0.85472 0.64328 0.0
O168 O 0.4832 0.83501 0.67102 0.0
In169 In 0.118 0.52357 0.6826 0.0
O170 O 0.13806 0.52962 0.7169 0.0
O171 O 0.15664 0.53327 0.68476 0.0
C172 C 0.07805 0.5199 0.70781 0.0
C173 C 0.11615 0.55675 0.64898 0.0
C174 C 0.11993 0.48136 0.66112 0.0
O175 O 0.09506 0.50592 0.71023 0.0
O176 O 0.08162 0.53639 0.69339 0.0
O177 O 0.10385 0.49611 0.65738 0.0
O178 O 0.13503 0.48772 0.67608 0.0
C179 C 0.15737 0.53383 0.70686 0.0
O180 O 0.12028 0.53537 0.64483 0.0
O181 O 0.11273 0.56166 0.67041 0.0
In182 In 0.53122 0.11217 0.68745 0.0
O183 O 0.53315 0.1173 0.72707 0.0
O184 O 0.53599 0.1476 0.70552 0.0
C185 C 0.52906 0.065 0.68852 0.0
C186 C 0.48705 0.12241 0.67344 0.0
C187 C 0.569 0.1185 0.65951 0.0
O188 O 0.53553 0.07698 0.70606 0.0
O189 O 0.52441 0.07682 0.67034 0.0
O190 O 0.54853 0.12466 0.65381 0.0
O191 O 0.57067 0.1095 0.67973 0.0
C192 C 0.53522 0.13932 0.72606 0.0
O193 O 0.50502 0.13116 0.66386 0.0
O194 O 0.49133 0.10892 0.69049 0.0
In195 In 0.87107 0.45903 0.69843 0.0
O196 O 0.85007 0.47547 0.7278 0.0
O197 O 0.85032 0.43814 0.72594 0.0
C198 C 0.91548 0.46297 0.71468 0.0
C199 C 0.86034 0.42297 0.66957 0.0
C200 C 0.86637 0.49701 0.67035 0.0
O201 O 0.89824 0.47246 0.72484 0.0
O202 O 0.91015 0.45081 0.69692 0.0
O203 O 0.84998 0.4897 0.68336 0.0
O204 O 0.88499 0.4851 0.6714 0.0
C205 C 0.84299 0.45632 0.73638 0.0
O206 O 0.84914 0.44212 0.66956 0.0
O207 O 0.87643 0.42167 0.6848 0.0
In208 In 0.29529 0.49819 0.08586 0.0
O209 O 0.25727 0.50254 0.09858 0.0
O210 O 0.27915 0.4782 0.11632 0.0
C211 C 0.28286 0.49988 0.04009 0.0
C212 C 0.31647 0.53921 0.09662 0.0
C213 C 0.32904 0.46555 0.09191 0.0
O214 O 0.28875 0.51784 0.05164 0.0
O215 O 0.28242 0.4811 0.05186 0.0
O216 O 0.32674 0.48307 0.10535 0.0
O217 O 0.31435 0.46454 0.07531 0.0
C218 C 0.25928 0.48773 0.11495 0.0
O219 O 0.32566 0.52388 0.08348 0.0
O220 O 0.29634 0.53394 0.10439 0.0
In221 In 0.3408 0.50764 0.82659 0.0
O222 O 0.37177 0.48262 0.82788 0.0
O223 O 0.3385 0.46815 0.81905 0.0
C224 C 0.37278 0.54199 0.8206 0.0
C225 C 0.30827 0.51995 0.79468 0.0
C226 C 0.32271 0.50428 0.87038 0.0
O227 O 0.3712 0.5248 0.8066 0.0
O228 O 0.35803 0.54191 0.83715 0.0
O229 O 0.31 0.50382 0.85226 0.0
O230 O 0.34436 0.5064 0.86638 0.0
C231 C 0.36004 0.46449 0.82283 0.0
O232 O 0.31315 0.53251 0.81228 0.0
O233 O 0.32023 0.50135 0.79283 0.0
In234 In 0.48275 0.29417 0.87284 0.0
O235 O 0.50846 0.26528 0.86361 0.0
O236 O 0.47335 0.26208 0.85093 0.0
C237 C 0.47561 0.28385 0.9185 0.0
C238 C 0.51957 0.32416 0.8702 0.0
C239 C 0.44586 0.31656 0.85284 0.0
O240 O 0.47892 0.26804 0.90327 0.0
O241 O 0.47555 0.30455 0.91056 0.0
O242 O 0.46578 0.31529 0.84332 0.0
O243 O 0.44421 0.30576 0.87211 0.0
C244 C 0.49388 0.25361 0.85162 0.0
O245 O 0.51335 0.31138 0.85321 0.0
O246 O 0.50738 0.32168 0.88851 0.0
In247 In 0.67322 0.48525 0.87617 0.0
O248 O 0.64496 0.5126 0.8695 0.0
O249 O 0.6804 0.52364 0.86601 0.0
C250 C 0.64465 0.44859 0.86745 0.0
C251 C 0.70963 0.47236 0.84899 0.0
C252 C 0.67691 0.48934 0.92332 0.0
O253 O 0.64067 0.46898 0.85964 0.0
O254 O 0.66329 0.44663 0.87932 0.0
O255 O 0.69338 0.49514 0.90965 0.0
O256 O 0.6589 0.48142 0.91321 0.0
C257 C 0.65897 0.52919 0.8651 0.0
O258 O 0.71041 0.47134 0.87115 0.0
O259 O 0.69055 0.47998 0.84065 0.0
In260 In 0.52905 0.69207 0.86112 0.0
O261 O 0.50209 0.72087 0.85703 0.0
O262 O 0.53452 0.72533 0.83906 0.0
C263 C 0.51966 0.69572 0.90724 0.0
C264 C 0.50245 0.65757 0.84239 0.0
C265 C 0.57364 0.67744 0.85382 0.0
O266 O 0.53349 0.70973 0.89691 0.0
O267 O 0.51098 0.6799 0.89434 0.0
O268 O 0.55856 0.67836 0.83761 0.0
O269 O 0.56662 0.68537 0.87329 0.0
C270 C 0.51427 0.73335 0.84342 0.0
O271 O 0.51534 0.65449 0.86016 0.0
O272 O 0.50324 0.678 0.83381 0.0
In273 In 0.65689 0.5185 0.14355 0.0
O274 O 0.69524 0.5291 0.14811 0.0
O275 O 0.67732 0.51556 0.17788 0.0
C276 C 0.66796 0.51426 0.09773 0.0
C277 C 0.63023 0.47945 0.14698 0.0
C278 C 0.63033 0.55577 0.15594 0.0
O279 O 0.67431 0.49938 0.11292 0.0
O280 O 0.65624 0.53131 0.10572 0.0
O281 O 0.62948 0.53643 0.16674 0.0
O282 O 0.64507 0.55648 0.13939 0.0
C283 C 0.69624 0.52347 0.1695 0.0
O284 O 0.62334 0.49794 0.13689 0.0
O285 O 0.65067 0.48061 0.15553 0.0
In286 In 0.46407 0.69536 0.12397 0.0
O287 O 0.48041 0.7316 0.1273 0.0
O288 O 0.45326 0.72277 0.15131 0.0
C289 C 0.47635 0.69927 0.07844 0.0
C290 C 0.49565 0.66531 0.14245 0.0
C291 C 0.42128 0.67504 0.1274 0.0
O292 O 0.45858 0.70963 0.08678 0.0
O293 O 0.48764 0.687 0.09302 0.0
O294 O 0.43669 0.6733 0.14322 0.0
O295 O 0.42707 0.68789 0.11029 0.0
C296 C 0.46809 0.73784 0.14458 0.0
O297 O 0.48104 0.65944 0.12682 0.0
O298 O 0.49407 0.6864 0.14921 0.0
In299 In 0.4867 0.31081 0.13038 0.0
O300 O 0.47286 0.34345 0.11193 0.0
O301 O 0.44979 0.32564 0.13533 0.0
C302 C 0.52291 0.33986 0.1401 0.0
C303 C 0.48627 0.28069 0.16691 0.0
C304 C 0.48423 0.28447 0.091 0.0
O305 O 0.52211 0.32734 0.12181 0.0
O306 O 0.50563 0.33738 0.15378 0.0
O307 O 0.50326 0.29271 0.0988 0.0
O308 O 0.4665 0.28874 0.1036 0.0
C309 C 0.4528 0.34259 0.12133 0.0
O310 O 0.5014 0.2796 0.15074 0.0
O311 O 0.47127 0.29678 0.16448 0.0
C312 C 0.14052 0.41045 0.34546 0.0
C313 C 0.15667 0.42777 0.33865 0.0
C314 C 0.14518 0.39563 0.36456 0.0
C315 C 0.16668 0.39798 0.37689 0.0
C316 C 0.18396 0.41391 0.36868 0.0
C317 C 0.17867 0.42881 0.34972 0.0
C318 C 0.12623 0.37893 0.37279 0.0
C319 C 0.20735 0.41643 0.38095 0.0
C320 C 0.15998 0.38697 0.44203 0.0
C321 C 0.16659 0.36332 0.44389 0.0
C322 C 0.16101 0.39874 0.42045 0.0
C323 C 0.16922 0.38666 0.40028 0.0
C324 C 0.17749 0.36328 0.40236 0.0
C325 C 0.17588 0.35175 0.42418 0.0
C326 C 0.15191 0.42367 0.41901 0.0
C327 C 0.18692 0.35006 0.38137 0.0
H328 H 0.12355 0.40946 0.33683 0.0
H329 H 0.19133 0.442 0.34432 0.0
H330 H 0.13361 0.36117 0.37592 0.0
H331 H 0.11889 0.38529 0.38973 0.0
H332 H 0.11162 0.37742 0.3599 0.0
H333 H 0.22036 0.42591 0.36988 0.0
H334 H 0.20494 0.42647 0.39751 0.0
H335 H 0.21459 0.39894 0.38567 0.0
H336 H 0.15291 0.39604 0.45724 0.0
H337 H 0.18116 0.3335 0.4256 0.0
H338 H 0.13602 0.42417 0.40769 0.0
H339 H 0.16526 0.43531 0.41085 0.0
H340 H 0.14724 0.43092 0.43655 0.0
H341 H 0.17214 0.34489 0.36975 0.0
H342 H 0.19649 0.33388 0.38667 0.0
H343 H 0.19891 0.36137 0.37092 0.0
C344 C 0.66329 0.148 0.44156 0.0
C345 C 0.66777 0.1239 0.44418 0.0
C346 C 0.64456 0.15592 0.42758 0.0
C347 C 0.62988 0.13929 0.41627 0.0
C348 C 0.63488 0.11497 0.41821 0.0
C349 C 0.65385 0.10758 0.43205 0.0
C350 C 0.63996 0.18199 0.42559 0.0
C351 C 0.61956 0.09667 0.4065 0.0
C352 C 0.56576 0.15192 0.40435 0.0
C353 C 0.56558 0.15391 0.37978 0.0
C354 C 0.58681 0.14832 0.41658 0.0
C355 C 0.6082 0.14694 0.40394 0.0
C356 C 0.60832 0.15054 0.3793 0.0
C357 C 0.58692 0.15385 0.36746 0.0
C358 C 0.58594 0.14447 0.44286 0.0
C359 C 0.63084 0.14959 0.3653 0.0
H360 H 0.67413 0.16067 0.45081 0.0
H361 H 0.65728 0.08893 0.43399 0.0
H362 H 0.63761 0.18706 0.4069 0.0
H363 H 0.62344 0.18644 0.43495 0.0
H364 H 0.65445 0.19264 0.43323 0.0
H365 H 0.62653 0.07857 0.40879 0.0
H366 H 0.60159 0.09737 0.41406 0.0
H367 H 0.61801 0.10037 0.38741 0.0
H368 H 0.5493 0.15202 0.41396 0.0
H369 H 0.58686 0.15552 0.34846 0.0
H370 H 0.59884 0.156 0.45186 0.0
H371 H 0.59079 0.12601 0.44691 0.0
H372 H 0.56822 0.14797 0.45028 0.0
H373 H 0.64471 0.16028 0.37392 0.0
H374 H 0.62839 0.15601 0.34701 0.0
H375 H 0.63725 0.13119 0.36456 0.0
C376 C 0.87381 0.61733 0.4546 0.0
C377 C 0.85496 0.63105 0.46251 0.0
C378 C 0.87214 0.60432 0.43376 0.0
C379 C 0.85118 0.60527 0.42037 0.0
C380 C 0.8322 0.61938 0.42806 0.0
C381 C 0.83426 0.63203 0.44918 0.0
C382 C 0.89272 0.5893 0.42623 0.0
C383 C 0.80972 0.62101 0.41405 0.0
C384 C 0.85929 0.58493 0.35748 0.0
C385 C 0.85235 0.56133 0.35908 0.0
C386 C 0.85769 0.59993 0.377 0.0
C387 C 0.84921 0.59097 0.39863 0.0
C388 C 0.84106 0.56748 0.39998 0.0
C389 C 0.84261 0.55296 0.38012 0.0
C390 C 0.86621 0.62499 0.37481 0.0
C391 C 0.83203 0.55725 0.42278 0.0
H392 H 0.88983 0.61651 0.46489 0.0
H393 H 0.81969 0.64272 0.45522 0.0
H394 H 0.8872 0.57062 0.42502 0.0
H395 H 0.89881 0.59472 0.40851 0.0
H396 H 0.90775 0.59056 0.43863 0.0
H397 H 0.79692 0.63342 0.42203 0.0
H398 H 0.81361 0.62685 0.39584 0.0
H399 H 0.80139 0.60341 0.41281 0.0
H400 H 0.86668 0.5915 0.34117 0.0
H401 H 0.83718 0.53473 0.38142 0.0
H402 H 0.88281 0.62713 0.38481 0.0
H403 H 0.85318 0.63732 0.38246 0.0
H404 H 0.8695 0.63004 0.35622 0.0
H405 H 0.84668 0.556 0.4356 0.0
H406 H 0.82436 0.53944 0.42036 0.0
H407 H 0.81847 0.56889 0.43059 0.0
C408 C 0.35038 0.85501 0.39488 0.0
C409 C 0.3511 0.8725 0.41224 0.0
C410 C 0.36878 0.85263 0.37858 0.0
C411 C 0.38806 0.86834 0.37956 0.0
C412 C 0.38846 0.88647 0.39663 0.0
C413 C 0.37005 0.88821 0.41288 0.0
C414 C 0.36793 0.83293 0.36079 0.0
C415 C 0.40858 0.90379 0.39802 0.0
C416 C 0.4488 0.85294 0.35737 0.0
C417 C 0.44986 0.86592 0.33647 0.0
C418 C 0.42821 0.8524 0.3709 0.0
C419 C 0.40839 0.86547 0.36346 0.0
C420 C 0.40899 0.87767 0.34177 0.0
C421 C 0.42973 0.87761 0.32842 0.0
C422 C 0.4281 0.83886 0.39374 0.0
C423 C 0.38827 0.89195 0.33337 0.0
H424 H 0.33576 0.84278 0.39442 0.0
H425 H 0.37057 0.90184 0.42621 0.0
H426 H 0.37014 0.84001 0.34275 0.0
H427 H 0.38268 0.82058 0.36398 0.0
H428 H 0.35116 0.82293 0.3616 0.0
H429 H 0.40557 0.91761 0.41151 0.0
H430 H 0.42508 0.89438 0.4024 0.0
H431 H 0.41121 0.91243 0.38073 0.0
H432 H 0.4643 0.84373 0.36353 0.0
H433 H 0.43052 0.88769 0.31225 0.0
H434 H 0.41216 0.82768 0.39496 0.0
H435 H 0.42764 0.85135 0.40874 0.0
H436 H 0.44387 0.82751 0.39565 0.0
H437 H 0.37188 0.88143 0.33429 0.0
H438 H 0.39064 0.8983 0.31504 0.0
H439 H 0.38592 0.90743 0.34503 0.0
C440 C 0.12021 0.56734 0.60677 0.0
C441 C 0.11552 0.57437 0.62993 0.0
C442 C 0.11957 0.58349 0.58822 0.0
C443 C 0.11405 0.60728 0.59293 0.0
C444 C 0.10944 0.61458 0.6163 0.0
C445 C 0.11025 0.59799 0.6346 0.0
C446 C 0.1246 0.57501 0.56353 0.0
C447 C 0.10347 0.63983 0.6219 0.0
C448 C 0.13192 0.65016 0.54507 0.0
C449 C 0.11097 0.65217 0.53226 0.0
C450 C 0.13298 0.63627 0.56544 0.0
C451 C 0.1126 0.62421 0.57312 0.0
C452 C 0.09123 0.62681 0.56067 0.0
C453 C 0.09069 0.64074 0.54035 0.0
C454 C 0.15609 0.63385 0.57827 0.0
C455 C 0.06911 0.61426 0.56835 0.0
H456 H 0.12435 0.5491 0.60306 0.0
H457 H 0.10664 0.60347 0.6525 0.0
H458 H 0.10905 0.57804 0.55217 0.0
H459 H 0.13943 0.58513 0.55588 0.0
H460 H 0.12908 0.556 0.56294 0.0
H461 H 0.10087 0.64276 0.64105 0.0
H462 H 0.1177 0.65162 0.61563 0.0
H463 H 0.08717 0.64498 0.61253 0.0
H464 H 0.14761 0.65907 0.53893 0.0
H465 H 0.0744 0.6424 0.53059 0.0
H466 H 0.16248 0.61548 0.5768 0.0
H467 H 0.15373 0.63768 0.59726 0.0
H468 H 0.1698 0.6458 0.57112 0.0
H469 H 0.07153 0.59498 0.5665 0.0
H470 H 0.05355 0.61958 0.55782 0.0
H471 H 0.06547 0.61788 0.58718 0.0
C472 C 0.36051 0.13576 0.61109 0.0
C473 C 0.36102 0.11873 0.59325 0.0
C474 C 0.37894 0.13752 0.62743 0.0
C475 C 0.39833 0.12205 0.62563 0.0
C476 C 0.39838 0.10417 0.60829 0.0
C477 C 0.37966 0.10267 0.59238 0.0
C478 C 0.37815 0.15656 0.64592 0.0
C479 C 0.41876 0.08733 0.60577 0.0
C480 C 0.45982 0.13949 0.64374 0.0
C481 C 0.46322 0.12547 0.6637 0.0
C482 C 0.43819 0.13966 0.63197 0.0
C483 C 0.41954 0.12549 0.64044 0.0
C484 C 0.42238 0.11256 0.66151 0.0
C485 C 0.44425 0.11268 0.67291 0.0
C486 C 0.43582 0.15379 0.6096 0.0
C487 C 0.40282 0.09744 0.67119 0.0
H488 H 0.34605 0.14814 0.61188 0.0
H489 H 0.38011 0.08944 0.57866 0.0
H490 H 0.38248 0.14922 0.66348 0.0
H491 H 0.39153 0.17017 0.64185 0.0
H492 H 0.36066 0.16517 0.64685 0.0
H493 H 0.41544 0.07361 0.59225 0.0
H494 H 0.43482 0.0972 0.60075 0.0
H495 H 0.42239 0.07853 0.62279 0.0
H496 H 0.47439 0.14955 0.63666 0.0
H497 H 0.44676 0.10191 0.68844 0.0
H498 H 0.41957 0.16454 0.61003 0.0
H499 H 0.43442 0.14167 0.59436 0.0
H500 H 0.45107 0.16565 0.6067 0.0
H501 H 0.38594 0.1072 0.67118 0.0
H502 H 0.40657 0.09137 0.68938 0.0
H503 H 0.4005 0.08175 0.65982 0.0
C504 C 0.83876 0.40739 0.63468 0.0
C505 C 0.85698 0.405 0.65111 0.0
C506 C 0.83781 0.39304 0.61462 0.0
C507 C 0.85565 0.37612 0.61085 0.0
C508 C 0.87314 0.37255 0.6282 0.0
C509 C 0.87353 0.387 0.64821 0.0
C510 C 0.81867 0.39715 0.5967 0.0
C511 C 0.8925 0.35472 0.62481 0.0
C512 C 0.85078 0.33142 0.56126 0.0
C513 C 0.86406 0.34236 0.54359 0.0
C514 C 0.84748 0.34232 0.58321 0.0
C515 C 0.85791 0.36452 0.58754 0.0
C516 C 0.87109 0.37571 0.56962 0.0
C517 C 0.87392 0.36454 0.54786 0.0
C518 C 0.83311 0.33001 0.60183 0.0
C519 C 0.88258 0.39936 0.57355 0.0
H520 H 0.8258 0.42117 0.63695 0.0
H521 H 0.88762 0.38504 0.6609 0.0
H522 H 0.82622 0.40604 0.58106 0.0
H523 H 0.8111 0.38019 0.59071 0.0
H524 H 0.8043 0.40831 0.60379 0.0
H525 H 0.903 0.35211 0.64107 0.0
H526 H 0.88513 0.33753 0.61927 0.0
H527 H 0.90447 0.36078 0.61063 0.0
H528 H 0.84309 0.31428 0.55799 0.0
H529 H 0.88423 0.37307 0.53427 0.0
H530 H 0.81875 0.34168 0.608 0.0
H531 H 0.84432 0.32604 0.61729 0.0
H532 H 0.8253 0.31332 0.59533 0.0
H533 H 0.86912 0.41261 0.57841 0.0
H534 H 0.89213 0.40573 0.55774 0.0
H535 H 0.89521 0.39822 0.58838 0.0
C536 C 0.52263 0.82123 0.64283 0.0
C537 C 0.50401 0.83492 0.63428 0.0
C538 C 0.5433 0.81844 0.62968 0.0
C539 C 0.54535 0.82972 0.6076 0.0
C540 C 0.5261 0.84249 0.59835 0.0
C541 C 0.50561 0.84487 0.6118 0.0
C542 C 0.56337 0.80445 0.63995 0.0
C543 C 0.52761 0.85476 0.57483 0.0
C544 C 0.60477 0.85017 0.58573 0.0
C545 C 0.60924 0.83403 0.56767 0.0
C546 C 0.58437 0.84845 0.59942 0.0
C547 C 0.56818 0.83004 0.59501 0.0
C548 C 0.57313 0.81307 0.5775 0.0
C549 C 0.59361 0.81532 0.56394 0.0
C550 C 0.57966 0.86691 0.61795 0.0
C551 C 0.55638 0.79307 0.5725 0.0
H552 H 0.52141 0.81343 0.66019 0.0
H553 H 0.49122 0.8554 0.60509 0.0
H554 H 0.57043 0.79194 0.62675 0.0
H555 H 0.57788 0.81654 0.64487 0.0
H556 H 0.55799 0.79445 0.65586 0.0
H557 H 0.51052 0.86246 0.56939 0.0
H558 H 0.54082 0.8691 0.57579 0.0
H559 H 0.53352 0.84231 0.56103 0.0
H560 H 0.61684 0.86463 0.58869 0.0
H561 H 0.59708 0.80273 0.55005 0.0
H562 H 0.57609 0.85845 0.63517 0.0
H563 H 0.56379 0.87715 0.61311 0.0
H564 H 0.59462 0.8793 0.62007 0.0
H565 H 0.55167 0.78386 0.58905 0.0
H566 H 0.56391 0.78008 0.55999 0.0
H567 H 0.53987 0.80012 0.56489 0.0
C568 C 0.35205 0.14641 0.45976 0.0
C569 C 0.35942 0.13297 0.47908 0.0
C570 C 0.36719 0.15055 0.4407 0.0
C571 C 0.39012 0.14094 0.44103 0.0
C572 C 0.39759 0.12731 0.46047 0.0
C573 C 0.38215 0.12353 0.47928 0.0
C574 C 0.35869 0.1652 0.42026 0.0
C575 C 0.4219 0.11667 0.46141 0.0
C576 C 0.4254 0.13025 0.38561 0.0
C577 C 0.44201 0.14843 0.38678 0.0
C578 C 0.40758 0.12829 0.40253 0.0
C579 C 0.40647 0.14487 0.42106 0.0
C580 C 0.42245 0.16395 0.42163 0.0
C581 C 0.44005 0.16554 0.40442 0.0
C582 C 0.39073 0.1078 0.40124 0.0
C583 C 0.42176 0.18199 0.44112 0.0
H584 H 0.33449 0.15378 0.45958 0.0
H585 H 0.38789 0.11311 0.49417 0.0
H586 H 0.37032 0.18068 0.41787 0.0
H587 H 0.35953 0.15476 0.40379 0.0
H588 H 0.34037 0.17146 0.42276 0.0
H589 H 0.42496 0.10656 0.47784 0.0
H590 H 0.42452 0.10474 0.44619 0.0
H591 H 0.43536 0.13074 0.46016 0.0
H592 H 0.42676 0.11707 0.37189 0.0
H593 H 0.45282 0.17966 0.40533 0.0
H594 H 0.37233 0.11399 0.40302 0.0
H595 H 0.39419 0.09556 0.41603 0.0
H596 H 0.39241 0.09789 0.38447 0.0
H597 H 0.40367 0.18892 0.44334 0.0
H598 H 0.43384 0.19697 0.43775 0.0
H599 H 0.42686 0.17359 0.45797 0.0
C600 C 0.8775 0.35199 0.40281 0.0
C601 C 0.86545 0.35431 0.42419 0.0
C602 C 0.8765 0.36976 0.38573 0.0
C603 C 0.86339 0.3904 0.39033 0.0
C604 C 0.85031 0.39232 0.41143 0.0
C605 C 0.8514 0.37416 0.42807 0.0
C606 C 0.89038 0.36694 0.36327 0.0
C607 C 0.83625 0.41413 0.41705 0.0
C608 C 0.88458 0.44741 0.36315 0.0
C609 C 0.86794 0.45107 0.34537 0.0
C610 C 0.88335 0.42761 0.37775 0.0
C611 C 0.86521 0.41091 0.37428 0.0
C612 C 0.84865 0.41422 0.356 0.0
C613 C 0.85011 0.4344 0.34183 0.0
C614 C 0.90121 0.42483 0.39722 0.0
C615 C 0.82929 0.3966 0.3516 0.0
H616 H 0.88826 0.33657 0.39969 0.0
H617 H 0.84204 0.37601 0.44458 0.0
H618 H 0.8793 0.37125 0.3478 0.0
H619 H 0.90542 0.37938 0.36329 0.0
H620 H 0.89734 0.34881 0.36114 0.0
H621 H 0.82552 0.41205 0.43325 0.0
H622 H 0.84836 0.42924 0.41955 0.0
H623 H 0.82439 0.41858 0.40223 0.0
H624 H 0.89835 0.46029 0.36598 0.0
H625 H 0.83727 0.43715 0.32801 0.0
H626 H 0.91071 0.40792 0.39518 0.0
H627 H 0.89216 0.42437 0.41451 0.0
H628 H 0.9143 0.43933 0.39744 0.0
H629 H 0.83687 0.37882 0.34896 0.0
H630 H 0.81851 0.40119 0.33597 0.0
H631 H 0.81758 0.39562 0.36717 0.0
C632 C 0.56707 0.83935 0.36189 0.0
C633 C 0.56951 0.8594 0.34776 0.0
C634 C 0.58197 0.83558 0.38114 0.0
C635 C 0.59967 0.85229 0.38633 0.0
C636 C 0.60338 0.87159 0.37103 0.0
C637 C 0.58821 0.87492 0.35187 0.0
C638 C 0.57756 0.81469 0.39695 0.0
C639 C 0.62219 0.88968 0.37589 0.0
C640 C 0.61246 0.86158 0.45096 0.0
C641 C 0.63351 0.84917 0.45388 0.0
C642 C 0.60147 0.86285 0.42898 0.0
C643 C 0.61181 0.85145 0.40941 0.0
C644 C 0.63319 0.83904 0.41216 0.0
C645 C 0.64381 0.83801 0.43445 0.0
C646 C 0.57864 0.87624 0.42678 0.0
C647 C 0.64469 0.82673 0.39164 0.0
H648 H 0.55276 0.82717 0.35864 0.0
H649 H 0.59025 0.89037 0.34088 0.0
H650 H 0.5943 0.80572 0.40133 0.0
H651 H 0.56964 0.82081 0.41371 0.0
H652 H 0.56544 0.80172 0.38877 0.0
H653 H 0.62511 0.9015 0.36061 0.0
H654 H 0.61689 0.90059 0.39119 0.0
H655 H 0.63905 0.88103 0.38046 0.0
H656 H 0.60444 0.87025 0.46592 0.0
H657 H 0.66013 0.82844 0.43666 0.0
H658 H 0.56447 0.86425 0.42075 0.0
H659 H 0.58043 0.89034 0.41341 0.0
H660 H 0.57311 0.88437 0.44368 0.0
H661 H 0.63277 0.81297 0.38463 0.0
H662 H 0.66163 0.81839 0.39658 0.0
H663 H 0.64794 0.83944 0.37719 0.0
C664 C 0.14182 0.62374 0.42341 0.0
C665 C 0.12181 0.63795 0.42132 0.0
C666 C 0.1455 0.60473 0.4081 0.0
C667 C 0.12868 0.59981 0.39042 0.0
C668 C 0.10865 0.61437 0.38799 0.0
C669 C 0.10549 0.63331 0.40345 0.0
C670 C 0.16711 0.58964 0.41112 0.0
C671 C 0.0903 0.60962 0.36939 0.0
C672 C 0.14422 0.56137 0.33807 0.0
C673 C 0.134 0.53988 0.34454 0.0
C674 C 0.14311 0.58094 0.35308 0.0
C675 C 0.13146 0.57892 0.37499 0.0
C676 C 0.12157 0.55711 0.38181 0.0
C677 C 0.12297 0.53784 0.3665 0.0
C678 C 0.15394 0.60391 0.34529 0.0
C679 C 0.10901 0.55428 0.40505 0.0
H680 H 0.15451 0.62732 0.43717 0.0
H681 H 0.08998 0.64425 0.40178 0.0
H682 H 0.16185 0.57146 0.41586 0.0
H683 H 0.17698 0.5886 0.39431 0.0
H684 H 0.17905 0.59649 0.42499 0.0
H685 H 0.07614 0.62306 0.36935 0.0
H686 H 0.09857 0.60924 0.35172 0.0
H687 H 0.08223 0.5921 0.37239 0.0
H688 H 0.15281 0.563 0.32113 0.0
H689 H 0.11509 0.52124 0.3716 0.0
H690 H 0.16644 0.61037 0.3588 0.0
H691 H 0.14002 0.61743 0.34336 0.0
H692 H 0.16339 0.60225 0.32827 0.0
H693 H 0.12073 0.55956 0.41972 0.0
H694 H 0.10307 0.53591 0.4081 0.0
H695 H 0.09343 0.566 0.40559 0.0
C696 C 0.31411 0.8624 0.55144 0.0
C697 C 0.32766 0.85947 0.53104 0.0
C698 C 0.32433 0.8605 0.57383 0.0
C699 C 0.3487 0.85595 0.57574 0.0
C700 C 0.36226 0.85216 0.55518 0.0
C701 C 0.35152 0.85381 0.53308 0.0
C702 C 0.30927 0.86422 0.59537 0.0
C703 C 0.38835 0.84742 0.55647 0.0
C704 C 0.38507 0.87887 0.62639 0.0
C705 C 0.39085 0.858 0.63813 0.0
C706 C 0.37019 0.87863 0.60677 0.0
C707 C 0.36064 0.85701 0.59893 0.0
C708 C 0.36488 0.83617 0.61187 0.0
C709 C 0.3801 0.83688 0.6313 0.0
C710 C 0.36615 0.90124 0.59343 0.0
C711 C 0.3546 0.81289 0.60432 0.0
H712 H 0.2956 0.86664 0.54991 0.0
H713 H 0.36204 0.85152 0.51734 0.0
H714 H 0.31236 0.85001 0.60839 0.0
H715 H 0.31412 0.88108 0.60392 0.0
H716 H 0.29024 0.86474 0.59103 0.0
H717 H 0.39613 0.84382 0.53891 0.0
H718 H 0.39745 0.86286 0.56422 0.0
H719 H 0.39187 0.83215 0.56808 0.0
H720 H 0.39326 0.89527 0.63167 0.0
H721 H 0.3844 0.82072 0.64043 0.0
H722 H 0.34714 0.90386 0.59005 0.0
H723 H 0.37508 0.90025 0.5761 0.0
H724 H 0.37299 0.91682 0.60304 0.0
H725 H 0.33571 0.81483 0.59986 0.0
H726 H 0.35643 0.79925 0.61819 0.0
H727 H 0.36377 0.80663 0.58827 0.0
C728 C 0.10725 0.45582 0.62799 0.0
C729 C 0.12196 0.45945 0.64742 0.0
C730 C 0.11065 0.43664 0.61294 0.0
C731 C 0.12901 0.42054 0.61766 0.0
C732 C 0.14307 0.42336 0.638 0.0
C733 C 0.13949 0.44295 0.65259 0.0
C734 C 0.0954 0.43434 0.59131 0.0
C735 C 0.16251 0.40626 0.6438 0.0
C736 C 0.12643 0.36428 0.58194 0.0
C737 C 0.14164 0.36972 0.56332 0.0
C738 C 0.12297 0.3802 0.60049 0.0
C739 C 0.13471 0.40215 0.60007 0.0
C740 C 0.15064 0.40738 0.58167 0.0
C741 C 0.15405 0.39101 0.5636 0.0
C742 C 0.10619 0.37389 0.62007 0.0
C743 C 0.16329 0.43073 0.58047 0.0
H744 H 0.09363 0.46853 0.62396 0.0
H745 H 0.15078 0.44564 0.66772 0.0
H746 H 0.10632 0.43673 0.57531 0.0
H747 H 0.08755 0.41651 0.59038 0.0
H748 H 0.08099 0.44751 0.59098 0.0
H749 H 0.16986 0.40927 0.66164 0.0
H750 H 0.15598 0.3879 0.64269 0.0
H751 H 0.17691 0.4081 0.63077 0.0
H752 H 0.11695 0.34774 0.58184 0.0
H753 H 0.16582 0.39526 0.54922 0.0
H754 H 0.09034 0.38519 0.619 0.0
H755 H 0.11447 0.37715 0.63744 0.0
H756 H 0.10054 0.3552 0.61919 0.0
H757 H 0.15029 0.44513 0.57839 0.0
H758 H 0.17591 0.43158 0.56558 0.0
H759 H 0.17299 0.43402 0.59707 0.0
C760 C 0.58538 0.12961 0.62047 0.0
C761 C 0.58885 0.11987 0.64285 0.0
C762 C 0.60303 0.12863 0.60333 0.0
C763 C 0.62468 0.11766 0.60873 0.0
C764 C 0.6287 0.10877 0.63164 0.0
C765 C 0.61069 0.10997 0.64848 0.0
C766 C 0.59809 0.13837 0.57911 0.0
C767 C 0.65163 0.09705 0.63803 0.0
C768 C 0.65641 0.09056 0.55683 0.0
C769 C 0.67333 0.10774 0.55172 0.0
C770 C 0.64085 0.09336 0.57572 0.0
C771 C 0.64224 0.11385 0.5898 0.0
C772 C 0.65958 0.13105 0.58502 0.0
C773 C 0.67497 0.12778 0.566 0.0
C774 C 0.62258 0.07461 0.58028 0.0
C775 C 0.66153 0.15312 0.59967 0.0
H776 H 0.56855 0.13738 0.61607 0.0
H777 H 0.61345 0.10247 0.66578 0.0
H778 H 0.61235 0.1505 0.57362 0.0
H779 H 0.59757 0.12377 0.56616 0.0
H780 H 0.5811 0.14795 0.57831 0.0
H781 H 0.65281 0.09308 0.65713 0.0
H782 H 0.6534 0.08034 0.6281 0.0
H783 H 0.66668 0.10841 0.63303 0.0
H784 H 0.65514 0.075 0.54588 0.0
H785 H 0.68806 0.14108 0.56211 0.0
H786 H 0.60473 0.0821 0.57794 0.0
H787 H 0.62387 0.06831 0.5987 0.0
H788 H 0.62449 0.05929 0.56829 0.0
H789 H 0.64528 0.16372 0.59778 0.0
H790 H 0.67679 0.16415 0.59446 0.0
H791 H 0.66326 0.14854 0.61856 0.0
C792 C 0.88205 0.52367 0.63932 0.0
C793 C 0.86399 0.51778 0.655 0.0
C794 C 0.88002 0.54318 0.62441 0.0
C795 C 0.8595 0.5572 0.62536 0.0
C796 C 0.84129 0.5515 0.64134 0.0
C797 C 0.84372 0.53175 0.65594 0.0
C798 C 0.89974 0.54865 0.60747 0.0
C799 C 0.81924 0.56617 0.64293 0.0
C800 C 0.86507 0.61845 0.59956 0.0
C801 C 0.85561 0.61516 0.57703 0.0
C802 C 0.86578 0.5999 0.61579 0.0
C803 C 0.85699 0.57755 0.60922 0.0
C804 C 0.84687 0.5743 0.58672 0.0
C805 C 0.84622 0.59319 0.57091 0.0
C806 C 0.87653 0.60403 0.63973 0.0
C807 C 0.83742 0.55068 0.57905 0.0
H808 H 0.89775 0.5129 0.63854 0.0
H809 H 0.82975 0.52728 0.66812 0.0
H810 H 0.89309 0.54808 0.58913 0.0
H811 H 0.90647 0.56669 0.61065 0.0
H812 H 0.9146 0.53608 0.60908 0.0
H813 H 0.80701 0.55971 0.65673 0.0
H814 H 0.82385 0.58473 0.64684 0.0
H815 H 0.80994 0.56602 0.62578 0.0
H816 H 0.87227 0.63544 0.60437 0.0
H817 H 0.8389 0.59057 0.5535 0.0
H818 H 0.89272 0.59332 0.64158 0.0
H819 H 0.86419 0.59834 0.65373 0.0
H820 H 0.88112 0.62279 0.64265 0.0
H821 H 0.85192 0.53765 0.57857 0.0
H822 H 0.82912 0.55138 0.56138 0.0
H823 H 0.82424 0.5442 0.59189 0.0
C824 C 0.36354 0.44994 0.11396 0.0
C825 C 0.34725 0.44748 0.09563 0.0
C826 C 0.38074 0.43277 0.11797 0.0
C827 C 0.3816 0.41266 0.10332 0.0
C828 C 0.36525 0.41011 0.08474 0.0
C829 C 0.34826 0.4276 0.08109 0.0
C830 C 0.39797 0.43613 0.13791 0.0
C831 C 0.36564 0.38886 0.06879 0.0
C832 C 0.43894 0.37881 0.10088 0.0
C833 C 0.43441 0.36019 0.1164 0.0
C834 C 0.42181 0.39591 0.09629 0.0
C835 C 0.39966 0.39431 0.10749 0.0
C836 C 0.39491 0.37543 0.12302 0.0
C837 C 0.41238 0.35858 0.1273 0.0
C838 C 0.4275 0.41581 0.07963 0.0
C839 C 0.37145 0.37316 0.13525 0.0
H840 H 0.36283 0.4653 0.12524 0.0
H841 H 0.33567 0.42562 0.06691 0.0
H842 H 0.39651 0.4213 0.15051 0.0
H843 H 0.41621 0.4361 0.131 0.0
H844 H 0.395 0.45284 0.14758 0.0
H845 H 0.35172 0.38957 0.05512 0.0
H846 H 0.38297 0.3875 0.05995 0.0
H847 H 0.36322 0.37261 0.07932 0.0
H848 H 0.45596 0.38011 0.09239 0.0
H849 H 0.40881 0.34419 0.13929 0.0
H850 H 0.42617 0.43288 0.08901 0.0
H851 H 0.41457 0.4162 0.06503 0.0
H852 H 0.44542 0.41426 0.07204 0.0
H853 H 0.3683 0.38881 0.14648 0.0
H854 H 0.37041 0.35717 0.14643 0.0
H855 H 0.3571 0.3725 0.12206 0.0
C856 C 0.48557 0.61722 0.84452 0.0
C857 C 0.48602 0.63941 0.83383 0.0
C858 C 0.46798 0.60088 0.83899 0.0
C859 C 0.45043 0.60696 0.82242 0.0
C860 C 0.45165 0.62877 0.8105 0.0
C861 C 0.46949 0.64478 0.81636 0.0
C862 C 0.46735 0.57772 0.85197 0.0
C863 C 0.43333 0.6358 0.79264 0.0
C864 C 0.41006 0.55741 0.80301 0.0
C865 C 0.39145 0.55993 0.81899 0.0
C866 C 0.42911 0.57313 0.80326 0.0
C867 C 0.42942 0.59171 0.81984 0.0
C868 C 0.41016 0.59488 0.83529 0.0
C869 C 0.39143 0.57893 0.83468 0.0
C870 C 0.44931 0.56931 0.78647 0.0
C871 C 0.40977 0.61457 0.85314 0.0
H872 H 0.49845 0.61293 0.85789 0.0
H873 H 0.46987 0.66189 0.80796 0.0
H874 H 0.45209 0.57746 0.86412 0.0
H875 H 0.4651 0.56293 0.83944 0.0
H876 H 0.48358 0.57467 0.8624 0.0
H877 H 0.43855 0.65176 0.78267 0.0
H878 H 0.43009 0.62127 0.78002 0.0
H879 H 0.41648 0.63946 0.80177 0.0
H880 H 0.4101 0.54274 0.79084 0.0
H881 H 0.377 0.58103 0.84696 0.0
H882 H 0.46511 0.56376 0.79647 0.0
H883 H 0.45381 0.58594 0.77731 0.0
H884 H 0.4453 0.55563 0.7731 0.0
H885 H 0.42419 0.61205 0.86603 0.0
H886 H 0.39286 0.61541 0.86289 0.0
H887 H 0.41274 0.63172 0.84434 0.0
C888 C 0.42954 0.34266 0.82169 0.0
C889 C 0.42755 0.3327 0.84415 0.0
C890 C 0.41554 0.36185 0.81511 0.0
C891 C 0.3996 0.3715 0.8316 0.0
C892 C 0.39615 0.36025 0.85355 0.0
C893 C 0.41007 0.34079 0.85949 0.0
C894 C 0.41928 0.37298 0.7913 0.0
C895 C 0.37944 0.37007 0.87169 0.0
C896 C 0.39318 0.4377 0.83223 0.0
C897 C 0.37049 0.44076 0.8232 0.0
C898 C 0.40287 0.41524 0.83472 0.0
C899 C 0.38969 0.39532 0.82764 0.0
C900 C 0.36708 0.39831 0.81771 0.0
C901 C 0.35762 0.42106 0.81579 0.0
C902 C 0.427 0.41281 0.84557 0.0
C903 C 0.35275 0.3775 0.80956 0.0
H904 H 0.44288 0.33624 0.80968 0.0
H905 H 0.40845 0.33309 0.87686 0.0
H906 H 0.40225 0.37799 0.78325 0.0
H907 H 0.42985 0.38926 0.79335 0.0
H908 H 0.42874 0.36102 0.77909 0.0
H909 H 0.37637 0.35757 0.88639 0.0
H910 H 0.38689 0.38654 0.87908 0.0
H911 H 0.36229 0.37453 0.86358 0.0
H912 H 0.40318 0.45288 0.83803 0.0
H913 H 0.34009 0.4234 0.80872 0.0
H914 H 0.43896 0.40354 0.83327 0.0
H915 H 0.42589 0.40209 0.86185 0.0
H916 H 0.43494 0.4301 0.85007 0.0
H917 H 0.36331 0.3663 0.79757 0.0
H918 H 0.33644 0.38295 0.80032 0.0
H919 H 0.34781 0.3665 0.82489 0.0
C920 C 0.60564 0.43313 0.85478 0.0
C921 C 0.62787 0.42901 0.86454 0.0
C922 C 0.58859 0.41532 0.85418 0.0
C923 C 0.59405 0.39285 0.86338 0.0
C924 C 0.61682 0.3883 0.87229 0.0
C925 C 0.63346 0.4065 0.87285 0.0
C926 C 0.56445 0.42085 0.84463 0.0
C927 C 0.62333 0.36447 0.88201 0.0
C928 C 0.54343 0.3567 0.88724 0.0
C929 C 0.5391 0.34115 0.86862 0.0
C930 C 0.56137 0.37352 0.88577 0.0
C931 C 0.57541 0.37467 0.86524 0.0
C932 C 0.57136 0.35879 0.8465 0.0
C933 C 0.55315 0.34224 0.84838 0.0
C934 C 0.56509 0.39027 0.90607 0.0
C935 C 0.58613 0.35942 0.82444 0.0
H936 H 0.60125 0.45052 0.84832 0.0
H937 H 0.65069 0.40322 0.88029 0.0
H938 H 0.55934 0.40775 0.83111 0.0
H939 H 0.55132 0.41975 0.85903 0.0
H940 H 0.56353 0.4387 0.83673 0.0
H941 H 0.64232 0.36322 0.88638 0.0
H942 H 0.61301 0.36095 0.8982 0.0
H943 H 0.61892 0.35046 0.86915 0.0
H944 H 0.53258 0.35593 0.9029 0.0
H945 H 0.54986 0.33019 0.83397 0.0
H946 H 0.56269 0.40866 0.90001 0.0
H947 H 0.58333 0.38872 0.91276 0.0
H948 H 0.55274 0.38692 0.92084 0.0
H949 H 0.58416 0.37672 0.81564 0.0
H950 H 0.58116 0.34538 0.81179 0.0
H951 H 0.60498 0.35738 0.82898 0.0
C952 C 0.62678 0.55854 0.86218 0.0
C953 C 0.65075 0.55334 0.86027 0.0
C954 C 0.61852 0.58149 0.85904 0.0
C955 C 0.63461 0.59973 0.8536 0.0
C956 C 0.65879 0.59451 0.85095 0.0
C957 C 0.66663 0.57133 0.8545 0.0
C958 C 0.59255 0.58627 0.86207 0.0
C959 C 0.67639 0.61343 0.84488 0.0
C960 C 0.60011 0.65125 0.8307 0.0
C961 C 0.59512 0.66301 0.85179 0.0
C962 C 0.61543 0.63193 0.83037 0.0
C963 C 0.62572 0.62421 0.85168 0.0
C964 C 0.62303 0.63785 0.87234 0.0
C965 C 0.60781 0.65723 0.87211 0.0
C966 C 0.61841 0.61826 0.80781 0.0
C967 C 0.63387 0.63039 0.89539 0.0
H968 H 0.61444 0.5447 0.86662 0.0
H969 H 0.68519 0.56734 0.85293 0.0
H970 H 0.58981 0.59904 0.87657 0.0
H971 H 0.58529 0.59421 0.8458 0.0
H972 H 0.58241 0.57006 0.8661 0.0
H973 H 0.69384 0.606 0.84024 0.0
H974 H 0.66999 0.62423 0.82995 0.0
H975 H 0.67864 0.62539 0.86014 0.0
H976 H 0.59062 0.65589 0.81483 0.0
H977 H 0.60427 0.66646 0.88842 0.0
H978 H 0.60669 0.60266 0.80814 0.0
H979 H 0.63673 0.61187 0.80589 0.0
H980 H 0.61381 0.62905 0.79219 0.0
H981 H 0.62375 0.61536 0.90268 0.0
H982 H 0.6337 0.64486 0.90854 0.0
H983 H 0.65224 0.62445 0.89284 0.0
C984 C 0.6126 0.59421 0.14491 0.0
C985 C 0.61328 0.57486 0.16014 0.0
C986 C 0.59397 0.61028 0.14576 0.0
C987 C 0.57573 0.60698 0.16239 0.0
C988 C 0.57731 0.58855 0.17904 0.0
C989 C 0.59606 0.57259 0.17764 0.0
C990 C 0.59294 0.62973 0.1277 0.0
C991 C 0.55841 0.58474 0.19728 0.0
C992 C 0.53179 0.65704 0.16613 0.0
C993 C 0.51455 0.64937 0.15026 0.0
C994 C 0.55137 0.64292 0.17128 0.0
C995 C 0.55373 0.6208 0.16011 0.0
C996 C 0.53578 0.61255 0.14496 0.0
C997 C 0.51637 0.62691 0.14029 0.0
C998 C 0.57 0.65211 0.1878 0.0
C999 C 0.53763 0.58904 0.13269 0.0
H1000 H 0.62595 0.59612 0.13144 0.0
H1001 H 0.59663 0.55774 0.18959 0.0
H1002 H 0.57845 0.62613 0.11512 0.0
H1003 H 0.58914 0.64683 0.13627 0.0
H1004 H 0.60959 0.63135 0.11761 0.0
H1005 H 0.56411 0.5723 0.21122 0.0
H1006 H 0.55335 0.60164 0.20561 0.0
H1007 H 0.54249 0.57743 0.18868 0.0
H1008 H 0.53038 0.67437 0.17396 0.0
H1009 H 0.50302 0.62085 0.1281 0.0
H1010 H 0.586 0.65672 0.17764 0.0
H1011 H 0.57504 0.63839 0.20072 0.0
H1012 H 0.56404 0.668 0.19749 0.0
H1013 H 0.55281 0.58924 0.12041 0.0
H1014 H 0.52153 0.58466 0.12253 0.0
H1015 H 0.54081 0.57486 0.14569 0.0
C1016 C 0.35192 0.56474 0.09527 0.0
C1017 C 0.32867 0.56133 0.10261 0.0
C1018 C 0.36416 0.58531 0.10103 0.0
C1019 C 0.3528 0.60304 0.11432 0.0
C1020 C 0.32922 0.59986 0.1216 0.0
C1021 C 0.31742 0.57893 0.11573 0.0
C1022 C 0.38936 0.58794 0.09303 0.0
C1023 C 0.31654 0.61849 0.13562 0.0
C1024 C 0.3971 0.64252 0.14409 0.0
C1025 C 0.40008 0.66005 0.12701 0.0
C1026 C 0.3803 0.62472 0.14113 0.0
C1027 C 0.36609 0.62461 0.1207 0.0
C1028 C 0.36751 0.64351 0.10456 0.0
C1029 C 0.38459 0.66101 0.10787 0.0
C1030 C 0.37929 0.60491 0.1588 0.0
C1031 C 0.35241 0.64421 0.08274 0.0
H1032 H 0.36071 0.55117 0.08517 0.0
H1033 H 0.2994 0.57637 0.12138 0.0
H1034 H 0.3912 0.60384 0.08187 0.0
H1035 H 0.40102 0.59029 0.1085 0.0
H1036 H 0.39559 0.57248 0.08284 0.0
H1037 H 0.29802 0.61357 0.13941 0.0
H1038 H 0.32577 0.62152 0.15254 0.0
H1039 H 0.31668 0.6354 0.12589 0.0
H1040 H 0.40892 0.64179 0.15902 0.0
H1041 H 0.38667 0.67467 0.09473 0.0
H1042 H 0.38753 0.58899 0.15109 0.0
H1043 H 0.36083 0.60042 0.16315 0.0
H1044 H 0.38874 0.60936 0.17532 0.0
H1045 H 0.35897 0.63106 0.06989 0.0
H1046 H 0.35273 0.6618 0.07423 0.0
H1047 H 0.33395 0.63958 0.08696 0.0
C1048 C 0.62396 0.4376 0.15909 0.0
C1049 C 0.61559 0.45804 0.14814 0.0
C1050 C 0.6103 0.41702 0.15962 0.0
C1051 C 0.58784 0.41697 0.14893 0.0
C1052 C 0.57923 0.43766 0.1381 0.0
C1053 C 0.59321 0.45794 0.13785 0.0
C1054 C 0.61998 0.39527 0.17137 0.0
C1055 C 0.55536 0.4383 0.12648 0.0
C1056 C 0.55899 0.36107 0.12705 0.0
C1057 C 0.54145 0.35761 0.14402 0.0
C1058 C 0.57498 0.37974 0.12902 0.0
C1059 C 0.57337 0.39524 0.14844 0.0
C1060 C 0.55647 0.3911 0.16624 0.0
C1061 C 0.54065 0.37231 0.16379 0.0
C1062 C 0.59279 0.38358 0.10969 0.0
C1063 C 0.55432 0.40718 0.18727 0.0
H1064 H 0.64125 0.43762 0.16708 0.0
H1065 H 0.58665 0.47371 0.12939 0.0
H1066 H 0.60766 0.38905 0.18515 0.0
H1067 H 0.62172 0.38091 0.15827 0.0
H1068 H 0.63744 0.39843 0.17954 0.0
H1069 H 0.55111 0.45592 0.11921 0.0
H1070 H 0.55469 0.42527 0.11197 0.0
H1071 H 0.54154 0.43338 0.13935 0.0
H1072 H 0.55973 0.34969 0.11177 0.0
H1073 H 0.52717 0.36963 0.17701 0.0
H1074 H 0.61063 0.3858 0.11723 0.0
H1075 H 0.5885 0.39998 0.10002 0.0
H1076 H 0.59316 0.36878 0.09693 0.0
H1077 H 0.57174 0.40989 0.19559 0.0
H1078 H 0.54197 0.40017 0.20068 0.0
H1079 H 0.54789 0.42466 0.18147 0.0
C1080 C 0.06242 0.32558 0.47701 0.0
C1081 C 0.07614 0.3098 0.49002 0.0
C1082 C 0.03817 0.3222 0.47459 0.0
C1083 C 0.02744 0.3025 0.48536 0.0
C1084 C 0.04137 0.28588 0.49758 0.0
C1085 C 0.06562 0.28978 0.49984 0.0
C1086 C 0.02388 0.34035 0.46147 0.0
C1087 C 0.03051 0.26455 0.50907 0.0
C1088 C 0.96404 0.31174 0.50294 0.0
C1089 C 0.95203 0.30138 0.48409 0.0
C1090 C 0.98862 0.31159 0.50387 0.0
C1091 C 0.00146 0.30061 0.4856 0.0
C1092 C 0.98942 0.28935 0.46694 0.0
C1093 C 0.96477 0.28999 0.46633 0.0
C1094 C 0.00084 0.32394 0.52399 0.0
C1095 C 0.00259 0.27724 0.44732 0.0
H1096 H 0.07051 0.34102 0.46927 0.0
H1097 H 0.07623 0.27748 0.5098 0.0
H1098 H 0.01279 0.33174 0.44794 0.0
H1099 H 0.01192 0.34946 0.4739 0.0
H1100 H 0.03511 0.35375 0.45274 0.0
H1101 H 0.044 0.25205 0.51562 0.0
H1102 H 0.01946 0.27016 0.52414 0.0
H1103 H 0.01889 0.25521 0.49648 0.0
H1104 H 0.95424 0.32054 0.51673 0.0
H1105 H 0.9555 0.28184 0.4518 0.0
H1106 H 0.01125 0.33896 0.51712 0.0
H1107 H 0.01327 0.31178 0.5328 0.0
H1108 H 0.98826 0.33071 0.53732 0.0
H1109 H 0.01247 0.29047 0.43692 0.0
H1110 H 0.99065 0.26754 0.43528 0.0
H1111 H 0.01562 0.26473 0.45466 0.0
C1112 C 0.74024 0.01804 0.51605 0.0
C1113 C 0.7326 0.02848 0.49507 0.0
C1114 C 0.73711 0.99389 0.51999 0.0
C1115 C 0.72581 0.98006 0.50264 0.0
C1116 C 0.71994 0.99015 0.48065 0.0
C1117 C 0.72358 0.01426 0.47707 0.0
C1118 C 0.74413 0.98363 0.54344 0.0
C1119 C 0.70781 0.97602 0.4617 0.0
C1120 C 0.71998 0.91366 0.50706 0.0
C1121 C 0.69732 0.91145 0.51654 0.0
C1122 C 0.72999 0.93592 0.50323 0.0
C1123 C 0.71681 0.95631 0.50866 0.0
C1124 C 0.69416 0.95411 0.51877 0.0
C1125 C 0.68478 0.93169 0.52274 0.0
C1126 C 0.75435 0.93763 0.49286 0.0
C1127 C 0.67946 0.97544 0.52465 0.0
H1128 H 0.74744 0.02896 0.52994 0.0
H1129 H 0.71776 0.02222 0.46075 0.0
H1130 H 0.72821 0.98106 0.55442 0.0
H1131 H 0.75253 0.96618 0.54111 0.0
H1132 H 0.75643 0.99534 0.5531 0.0
H1133 H 0.70711 0.98561 0.44469 0.0
H1134 H 0.71687 0.95899 0.45891 0.0
H1135 H 0.68954 0.97207 0.46731 0.0
H1136 H 0.72978 0.898 0.50237 0.0
H1137 H 0.66725 0.93005 0.53006 0.0
H1138 H 0.76537 0.94981 0.50339 0.0
H1139 H 0.75331 0.94492 0.47479 0.0
H1140 H 0.76321 0.92024 0.492 0.0
H1141 H 0.68917 0.98716 0.53686 0.0
H1142 H 0.6624 0.97067 0.5329 0.0
H1143 H 0.67585 0.98564 0.50841 0.0
C1144 C 0.94671 0.68661 0.52658 0.0
C1145 C 0.92667 0.69943 0.52037 0.0
C1146 C 0.96904 0.69378 0.51917 0.0
C1147 C 0.97136 0.71441 0.50539 0.0
C1148 C 0.95139 0.72842 0.50061 0.0
C1149 C 0.92917 0.72068 0.50807 0.0
C1150 C 0.98995 0.67837 0.52476 0.0
C1151 C 0.95325 0.75077 0.48642 0.0
C1152 C 0.03529 0.73041 0.49809 0.0
C1153 C 0.04087 0.71748 0.47784 0.0
C1154 C 0.01205 0.73158 0.50626 0.0
C1155 C 0.99422 0.71939 0.49391 0.0
C1156 C -0.00055 0.70843 0.47216 0.0
C1157 C 0.02276 0.70769 0.46433 0.0
C1158 C 0.00702 0.74399 0.52918 0.0
C1159 C 0.98087 0.69544 0.45831 0.0
H1160 H 0.94486 0.67027 0.53624 0.0
H1161 H 0.9137 0.73075 0.50339 0.0
H1162 H -0.00309 0.67057 0.50827 0.0
H1163 H 0.00424 0.68897 0.53274 0.0
H1164 H 0.98539 0.66385 0.53702 0.0
H1165 H 0.93735 0.76193 0.48839 0.0
H1166 H 0.96892 0.76113 0.49173 0.0
H1167 H 0.95528 0.7463 0.46754 0.0
H1168 H 0.04923 0.73827 0.50845 0.0
H1169 H 0.02697 0.69793 0.44849 0.0
H1170 H 0.00566 0.7308 0.5435 0.0
H1171 H 0.99006 0.75357 0.52835 0.0
H1172 H 0.0212 0.75662 0.53382 0.0
H1173 H 0.97587 0.67916 0.46787 0.0
H1174 H 0.98712 0.69044 0.44049 0.0
H1175 H 0.96482 0.70633 0.45647 0.0
C1176 C 0.28523 0.03953 0.53408 0.0
C1177 C 0.27988 0.05938 0.52055 0.0
C1178 C 0.28121 0.01686 0.52528 0.0
C1179 C 0.27116 0.01412 0.50265 0.0
C1180 C 0.26341 0.03412 0.49006 0.0
C1181 C 0.26814 0.0566 0.49905 0.0
C1182 C 0.28984 0.99598 0.53923 0.0
C1183 C 0.25187 0.03187 0.46626 0.0
C1184 C 0.29613 0.96249 0.46919 0.0
C1185 C 0.27948 0.94494 0.4738 0.0
C1186 C 0.29307 0.98537 0.4777 0.0
C1187 C 0.27261 0.99094 0.49075 0.0
C1188 C 0.25491 0.97374 0.494 0.0
C1189 C 0.25868 0.95078 0.48568 0.0
C1190 C 0.31246 0.00317 0.47393 0.0
C1191 C 0.23258 0.97923 0.50721 0.0
H1192 H 0.29423 0.04164 0.55076 0.0
H1193 H 0.2637 0.07198 0.48869 0.0
H1194 H 0.27619 0.98208 0.53998 0.0
H1195 H 0.30548 0.98835 0.53041 0.0
H1196 H 0.2948 0.00086 0.55749 0.0
H1197 H 0.24262 0.04829 0.46114 0.0
H1198 H 0.26545 0.02806 0.45279 0.0
H1199 H 0.23911 0.0171 0.46611 0.0
H1200 H 0.31221 0.95806 0.45997 0.0
H1201 H 0.24569 0.93726 0.48914 0.0
H1202 H 0.32007 0.00834 0.49115 0.0
H1203 H 0.30532 0.0193 0.46563 0.0
H1204 H 0.32681 0.99625 0.46264 0.0
H1205 H 0.23637 0.98012 0.52633 0.0
H1206 H 0.21889 0.96559 0.50431 0.0
H1207 H 0.22546 0.99658 0.50183 0.0
C1208 C 0.49879 0.96416 0.31981 0.0
C1209 C 0.51728 0.95239 0.3086 0.0
C1210 C 0.49892 0.98865 0.32209 0.0
C1211 C 0.51823 0.00164 0.3133 0.0
C1212 C 0.53694 0.98988 0.30183 0.0
C1213 C 0.53614 0.96531 0.29942 0.0
C1214 C 0.47847 0.00059 0.33415 0.0
C1215 C 0.55796 0.0032 0.29258 0.0
C1216 C 0.507 0.0668 0.3051 0.0
C1217 C 0.51472 0.07576 0.32672 0.0
C1218 C 0.50882 0.04271 0.30006 0.0
C1219 C 0.51896 0.02746 0.31691 0.0
C1220 C 0.52785 0.03666 0.33826 0.0
C1221 C 0.52542 0.06071 0.343 0.0
C1222 C 0.49886 0.03345 0.27725 0.0
C1223 C 0.53908 0.02098 0.35651 0.0
H1224 H 0.48409 0.95419 0.32676 0.0
H1225 H 0.55048 0.95618 0.29082 0.0
H1226 H 0.48463 0.0095 0.35038 0.0
H1227 H 0.47092 0.01429 0.3225 0.0
H1228 H 0.46432 0.98801 0.33898 0.0
H1229 H 0.57075 0.9915 0.28358 0.0
H1230 H 0.55221 0.01698 0.28004 0.0
H1231 H 0.56702 0.01223 0.30732 0.0
H1232 H 0.4987 0.07844 0.2925 0.0
H1233 H 0.53162 0.06769 0.35963 0.0
H1234 H 0.48339 0.02217 0.28101 0.0
H1235 H 0.51201 0.02236 0.26807 0.0
H1236 H 0.49331 0.04782 0.26524 0.0
H1237 H 0.52561 0.00912 0.36416 0.0
H1238 H 0.54726 0.03121 0.37101 0.0
H1239 H 0.55274 0.00974 0.34828 0.0
C1240 C 0.94765 0.50112 0.26548 0.0
C1241 C 0.93994 0.51533 0.2841 0.0
C1242 C 0.97173 0.4973 0.26167 0.0
C1243 C 0.98831 0.50776 0.27701 0.0
C1244 C 0.98062 0.52323 0.29494 0.0
C1245 C 0.95652 0.52691 0.29819 0.0
C1246 C 0.97934 0.48104 0.24211 0.0
C1247 C -0.00225 0.5347 0.31171 0.0
C1248 C 0.0451 0.47671 0.29193 0.0
C1249 C 0.0617 0.49093 0.28056 0.0
C1250 C 0.02103 0.48142 0.29003 0.0
C1251 C 0.01339 0.50067 0.27621 0.0
C1252 C 0.02998 0.51427 0.26361 0.0
C1253 C 0.05403 0.50933 0.26605 0.0
C1254 C 0.00387 0.46656 0.30386 0.0
C1255 C 0.02243 0.53468 0.24841 0.0
H1256 H 0.93488 0.49224 0.25445 0.0
H1257 H 0.95064 0.53802 0.31253 0.0
H1258 H 0.99422 0.48879 0.23215 0.0
H1259 H 0.98554 0.46418 0.24972 0.0
H1260 H 0.96476 0.47719 0.22969 0.0
H1261 H 0.98908 0.54768 0.32345 0.0
H1262 H 0.00615 0.52101 0.3228 0.0
H1263 H 0.01193 0.54373 0.30184 0.0
H1264 H 0.05096 0.46242 0.3031 0.0
H1265 H 0.06683 0.52026 0.2571 0.0
H1266 H 0.98978 0.45985 0.29217 0.0
H1267 H 0.99535 0.4775 0.3176 0.0
H1268 H 0.01252 0.45136 0.31254 0.0
H1269 H 0.00767 0.52943 0.23678 0.0
H1270 H 0.03706 0.54142 0.23735 0.0
H1271 H 0.01606 0.54922 0.25974 0.0
C1272 C 0.46682 0.94235 0.69832 0.0
C1273 C 0.48096 0.92284 0.69331 0.0
C1274 C 0.47649 0.96501 0.69932 0.0
C1275 C 0.50084 0.96812 0.6952 0.0
C1276 C 0.51537 0.94836 0.69117 0.0
C1277 C 0.50524 0.92591 0.69027 0.0
C1278 C 0.46047 0.98571 0.70377 0.0
C1279 C 0.54142 0.95102 0.68678 0.0
C1280 C 0.51728 0.0273 0.66973 0.0
C1281 C 0.52478 0.03948 0.6898 0.0
C1282 C 0.51021 0.00376 0.67115 0.0
C1283 C 0.51063 0.99219 0.69318 0.0
C1284 C 0.51917 0.00406 0.71332 0.0
C1285 C 0.52619 0.02764 0.71138 0.0
C1286 C 0.50138 0.99158 0.64924 0.0
C1287 C 0.51996 0.9922 0.73706 0.0
H1288 H 0.44806 0.94001 0.70077 0.0
H1289 H 0.51626 0.91084 0.68649 0.0
H1290 H 0.4675 -0.00327 0.71826 0.0
H1291 H 0.45967 -0.0031 0.6878 0.0
H1292 H 0.44232 0.98015 0.70838 0.0
H1293 H 0.55059 0.93379 0.6862 0.0
H1294 H 0.54428 0.96012 0.66976 0.0
H1295 H 0.54958 0.96202 0.70068 0.0
H1296 H 0.51626 0.03638 0.653 0.0
H1297 H 0.53199 0.03702 0.72694 0.0
H1298 H 0.48247 0.98726 0.6513 0.0
H1299 H 0.51091 0.97479 0.64653 0.0
H1300 H 0.50352 0.00261 0.63325 0.0
H1301 H 0.50179 0.98862 0.74319 0.0
H1302 H 0.52899 0.00314 0.75049 0.0
H1303 H 0.5291 0.97502 0.73576 0.0
C1304 C 0.94528 0.48337 0.73978 0.0
C1305 C 0.94007 0.4685 0.72079 0.0
C1306 C 0.96817 0.492 0.74317 0.0
C1307 C 0.986 0.48585 0.72696 0.0
C1308 C 0.9811 0.46966 0.70866 0.0
C1309 C 0.95821 0.46106 0.70591 0.0
C1310 C 0.97289 0.50871 0.76325 0.0
C1311 C -0.00036 0.46262 0.69097 0.0
C1312 C 0.03493 0.52686 0.70906 0.0
C1313 C 0.0546 0.51482 0.71765 0.0
C1314 C 0.01217 0.51859 0.71356 0.0
C1315 C 0.0091 0.498 0.72725 0.0
C1316 C 0.02877 0.48725 0.73798 0.0
C1317 C 0.05138 0.4957 0.7329 0.0
C1318 C 0.99163 0.53062 0.70181 0.0
C1319 C 0.02613 0.46571 0.75326 0.0
H1320 H 0.93131 0.48904 0.75145 0.0
H1321 H 0.95429 0.44947 0.69128 0.0
H1322 H 0.9899 0.5046 0.77185 0.0
H1323 H 0.97404 0.52694 0.75639 0.0
H1324 H 0.95872 0.50811 0.77669 0.0
H1325 H 0.99331 0.44883 0.67866 0.0
H1326 H 0.00499 0.47823 0.68053 0.0
H1327 H 0.01552 0.45598 0.7001 0.0
H1328 H 0.03733 0.54175 0.6974 0.0
H1329 H 0.06657 0.48651 0.73982 0.0
H1330 H 0.97721 0.53359 0.71459 0.0
H1331 H 0.98464 0.51914 0.68764 0.0
H1332 H -0.00335 0.54778 0.69394 0.0
H1333 H 0.01078 0.46746 0.76517 0.0
H1334 H 0.04211 0.46247 0.764 0.0
H1335 H 0.02308 0.4501 0.74196 0.0
C1336 C 0.32853 0.50169 0.91362 0.0
C1337 C 0.31315 0.50277 0.89444 0.0
C1338 C 0.31998 0.50074 0.93668 0.0
C1339 C 0.29541 0.501 0.94065 0.0
C1340 C 0.27973 0.5019 0.92136 0.0
C1341 C 0.28881 0.50272 0.89839 0.0
C1342 C 0.3373 0.49969 0.95681 0.0
C1343 C 0.25346 0.5023 0.925 0.0
C1344 C 0.28023 0.47919 0.00153 0.0
C1345 C 0.28051 0.50029 0.01427 0.0
C1346 C 0.28327 0.4792 0.97705 0.0
C1347 C 0.28652 0.50084 0.96517 0.0
C1348 C 0.28467 0.52226 0.97771 0.0
C1349 C 0.28175 0.52172 0.00218 0.0
C1350 C 0.28505 0.45599 0.96427 0.0
C1351 C 0.28775 0.54571 0.96563 0.0
H1352 H 0.34735 0.50165 0.91063 0.0
H1353 H 0.27687 0.50358 0.88356 0.0
H1354 H 0.33512 0.51533 0.96827 0.0
H1355 H 0.33386 0.48391 0.96776 0.0
H1356 H 0.35582 0.49906 0.95065 0.0
H1357 H 0.24365 0.50228 0.90811 0.0
H1358 H 0.24789 0.48681 0.93549 0.0
H1359 H 0.24845 0.5182 0.93513 0.0
H1360 H 0.27915 0.46257 0.01081 0.0
H1361 H 0.28174 0.5381 0.01196 0.0
H1362 H 0.3037 0.45256 0.95971 0.0
H1363 H 0.27496 0.45647 0.94759 0.0
H1364 H 0.27853 0.44113 0.97515 0.0
H1365 H 0.30653 0.54816 0.96093 0.0
H1366 H 0.28228 0.5606 0.97704 0.0
H1367 H 0.27745 0.54634 0.94908 0.0
C1368 C 0.47132 0.29767 0.9597 0.0
C1369 C 0.47362 0.27892 0.9439 0.0
C1370 C 0.47175 0.29388 0.984 0.0
C1371 C 0.4744 0.27071 0.99274 0.0
C1372 C 0.47567 0.25154 0.97691 0.0
C1373 C 0.47538 0.25589 0.95257 0.0
C1374 C 0.47029 0.31485 0.00029 0.0
C1375 C 0.4782 0.2266 0.98562 0.0
C1376 C 0.50223 0.2733 0.05272 0.0
C1377 C 0.48228 0.2745 0.06711 0.0
C1378 C 0.50007 0.26974 0.02843 0.0
C1379 C 0.47742 0.26724 0.01843 0.0
C1380 C 0.45747 0.26585 0.03323 0.0
C1381 C 0.46013 0.26957 0.05749 0.0
C1382 C 0.52183 0.27112 0.01328 0.0
C1383 C 0.43308 0.26271 0.02328 0.0
H1384 H 0.46984 0.31549 0.95309 0.0
H1385 H 0.47709 0.24133 0.94038 0.0
H1386 H 0.45574 0.31245 0.01306 0.0
H1387 H 0.48683 0.31643 0.01052 0.0
H1388 H 0.46738 0.33158 0.99065 0.0
H1389 H 0.47536 0.21354 0.97136 0.0
H1390 H 0.49612 0.22404 0.99284 0.0
H1391 H 0.46556 0.22303 5e-05 0.0
H1392 H 0.51943 0.2768 0.06014 0.0
H1393 H 0.44465 0.2702 0.0686 0.0
H1394 H 0.52217 0.2883 0.00402 0.0
H1395 H 0.5217 0.25712 -0.0003 0.0
H1396 H 0.53819 0.2695 0.02383 0.0
H1397 H 0.42701 0.27962 0.01567 0.0
H1398 H 0.42031 0.25722 0.03701 0.0
H1399 H 0.43304 0.24945 0.00896 0.0
C1400 C 0.69757 0.50298 0.9597 0.0
C1401 C 0.67812 0.49217 0.94908 0.0
C1402 C 0.69819 0.5067 0.98411 0.0
C1403 C 0.67893 0.49939 -0.00192 0.0
C1404 C 0.65949 0.48804 0.98747 0.0
C1405 C 0.65932 0.4846 0.96309 0.0
C1406 C 0.71918 0.51887 0.99487 0.0
C1407 C 0.63864 0.47994 0.00181 0.0
C1408 C 0.684 0.4911 0.06404 0.0
C1409 C 0.67279 0.51139 0.0724 0.0
C1410 C 0.68695 0.48733 0.03983 0.0
C1411 C 0.67851 0.5043 0.02371 0.0
C1412 C 0.66798 0.52522 0.0321 0.0
C1413 C 0.66522 0.52851 0.05637 0.0
C1414 C 0.69827 0.46481 0.0315 0.0
C1415 C 0.6588 0.54374 0.01542 0.0
H1416 H 0.71214 0.50885 0.94889 0.0
H1417 H 0.64428 0.47616 0.95496 0.0
H1418 H 0.71363 0.53577 0.00288 0.0
H1419 H 0.72668 0.50791 0.00916 0.0
H1420 H 0.73317 0.52251 0.98173 0.0
H1421 H 0.6253 0.47066 0.99095 0.0
H1422 H 0.64451 0.46794 0.01603 0.0
H1423 H 0.63013 0.49529 0.01034 0.0
H1424 H 0.68994 0.47785 0.07639 0.0
H1425 H 0.65664 0.54428 0.06277 0.0
H1426 H 0.71257 0.4687 0.01882 0.0
H1427 H 0.68506 0.4539 0.02215 0.0
H1428 H 0.70562 0.45434 0.04626 0.0
H1429 H 0.67267 0.54888 0.0027 0.0
H1430 H 0.65267 0.55975 0.02479 0.0
H1431 H 0.64389 0.53648 0.00514 0.0
C1432 C 0.49808 0.68153 0.94253 0.0
C1433 C 0.51366 0.69771 0.93238 0.0
C1434 C 0.49201 0.68302 0.96634 0.0
C1435 C 0.50176 0.70116 0.98031 0.0
C1436 C 0.51738 0.71768 0.97016 0.0
C1437 C 0.52317 0.71575 0.94624 0.0
C1438 C 0.47533 0.66505 0.97659 0.0
C1439 C 0.5281 0.73722 0.9846 0.0
C1440 C 0.47005 0.71405 0.03755 0.0
C1441 C 0.48338 0.70092 0.05355 0.0
C1442 C 0.47621 0.71487 0.01366 0.0
C1443 C 0.49613 0.70222 0.00574 0.0
C1444 C 0.50994 0.68939 0.02194 0.0
C1445 C 0.50339 0.68889 0.04567 0.0
C1446 C 0.46111 0.72874 -0.00318 0.0
C1447 C 0.53129 0.67567 0.01412 0.0
H1448 H 0.49064 0.66758 0.93186 0.0
H1449 H 0.53517 0.72832 0.93841 0.0
H1450 H 0.48425 0.65506 0.99077 0.0
H1451 H 0.45996 0.67399 0.9846 0.0
H1452 H 0.46889 0.65237 0.96318 0.0
H1453 H 0.53942 0.74901 0.97389 0.0
H1454 H 0.51404 0.74789 0.9929 0.0
H1455 H 0.53885 0.72966 -0.00099 0.0
H1456 H 0.45461 0.72343 0.04362 0.0
H1457 H 0.51381 0.67879 0.05802 0.0
H1458 H 0.45278 0.71665 0.98397 0.0
H1459 H 0.47209 0.74129 0.98669 0.0
H1460 H 0.44705 0.73872 0.00601 0.0
H1461 H 0.52587 0.66146 0.00188 0.0
H1462 H 0.54083 0.66761 0.02914 0.0
H1463 H 0.54359 0.6873 0.00443 0.0
C1464 C 0.20397 0.27313 0.54241 0.0
C1465 C 0.19208 0.2728 0.52082 0.0
C1466 C 0.21913 0.25479 0.54874 0.0
C1467 C 0.22266 0.23593 0.53291 0.0
C1468 C 0.21056 0.23544 0.51115 0.0
C1469 C 0.19527 0.25385 0.50543 0.0
C1470 C 0.23153 0.25568 0.5722 0.0
C1471 C 0.21414 0.21571 0.49371 0.0
C1472 C 0.27909 0.20106 0.53406 0.0
C1473 C 0.27149 0.17964 0.54357 0.0
C1474 C 0.26352 0.21988 0.53127 0.0
C1475 C 0.23986 0.21722 0.53844 0.0
C1476 C 0.23239 0.19609 0.54928 0.0
C1477 C 0.24831 0.17742 0.55161 0.0
C1478 C 0.27209 0.24212 0.51953 0.0
C1479 C 0.20735 0.19285 0.55748 0.0
H1480 H 0.20135 0.2877 0.55443 0.0
H1481 H 0.18606 0.25358 0.48873 0.0
H1482 H 0.22813 0.23928 0.58221 0.0
H1483 H 0.2508 0.25688 0.56944 0.0
H1484 H 0.22586 0.27093 0.58303 0.0
H1485 H 0.20305 0.21777 0.47776 0.0
H1486 H 0.23285 0.21508 0.48821 0.0
H1487 H 0.20994 0.19858 0.50203 0.0
H1488 H 0.29703 0.20286 0.52786 0.0
H1489 H 0.24244 0.1609 0.55908 0.0
H1490 H 0.26775 0.25768 0.53047 0.0
H1491 H 0.26305 0.24436 0.50238 0.0
H1492 H 0.29136 0.24191 0.51638 0.0
H1493 H 0.2018 0.20799 0.56847 0.0
H1494 H 0.20502 0.17641 0.56777 0.0
H1495 H 0.19546 0.19221 0.54202 0.0
C1496 C 0.78453 0.15317 0.50571 0.0
C1497 C 0.77664 0.14065 0.486 0.0
C1498 C 0.79991 0.17223 0.50323 0.0
C1499 C 0.80777 0.17867 0.48051 0.0
C1500 C 0.80125 0.16502 0.46074 0.0
C1501 C 0.7856 0.14618 0.46371 0.0
C1502 C 0.80643 0.18641 0.52474 0.0
C1503 C 0.80969 0.17114 0.43632 0.0
C1504 C 0.82028 0.24358 0.47297 0.0
C1505 C 0.84466 0.24435 0.47611 0.0
C1506 C 0.80814 0.22216 0.4737 0.0
C1507 C 0.82079 0.20103 0.47736 0.0
C1508 C 0.84554 0.20161 0.4796 0.0
C1509 C 0.85719 0.22334 0.47912 0.0
C1510 C 0.78168 0.22223 0.47142 0.0
C1511 C 0.85959 0.17938 0.48316 0.0
H1512 H 0.77771 0.14889 0.52299 0.0
H1513 H 0.77963 0.13642 0.44844 0.0
H1514 H 0.82574 0.18891 0.52566 0.0
H1515 H 0.79832 0.20412 0.52358 0.0
H1516 H 0.80043 0.17793 0.5413 0.0
H1517 H 0.80578 0.15696 0.42345 0.0
H1518 H 0.80092 0.1875 0.43032 0.0
H1519 H 0.8289 0.17451 0.43635 0.0
H1520 H 0.81056 0.25981 0.47061 0.0
H1521 H 0.87611 0.22389 0.48136 0.0
H1522 H 0.77364 0.21567 0.48795 0.0
H1523 H 0.77612 0.21024 0.45707 0.0
H1524 H 0.77461 0.24006 0.46773 0.0
H1525 H 0.85535 0.17164 0.50056 0.0
H1526 H 0.87883 0.18262 0.48234 0.0
H1527 H 0.85487 0.16613 0.46963 0.0
C1528 C 0.80563 0.73508 0.52139 0.0
C1529 C 0.80937 0.71743 0.53813 0.0
C1530 C 0.78697 0.75088 0.52371 0.0
C1531 C 0.77156 0.7488 0.54315 0.0
C1532 C 0.77564 0.73146 0.56052 0.0
C1533 C 0.79464 0.71597 0.55785 0.0
C1534 C 0.78331 0.76935 0.50495 0.0
C1535 C 0.75947 0.72872 0.5814 0.0
C1536 C 0.73274 0.80195 0.55226 0.0
C1537 C 0.713 0.79566 0.53893 0.0
C1538 C 0.75158 0.78631 0.55496 0.0
C1539 C 0.75041 0.7639 0.54422 0.0
C1540 C 0.72985 0.75693 0.53206 0.0
C1541 C 0.71141 0.77298 0.52945 0.0
C1542 C 0.77328 0.79434 0.56798 0.0
C1543 C 0.72788 0.73303 0.52062 0.0
H1544 H 0.81713 0.73634 0.50623 0.0
H1545 H 0.79754 0.70231 0.57082 0.0
H1546 H 0.76652 0.76598 0.49561 0.0
H1547 H 0.78205 0.78705 0.51307 0.0
H1548 H 0.79776 0.76955 0.4918 0.0
H1549 H 0.76622 0.71573 0.59432 0.0
H1550 H 0.75705 0.74586 0.59041 0.0
H1551 H 0.7419 0.72284 0.5753 0.0
H1552 H 0.73396 0.81948 0.55968 0.0
H1553 H 0.69602 0.76801 0.51935 0.0
H1554 H 0.78775 0.79729 0.55523 0.0
H1555 H 0.77924 0.78062 0.58049 0.0
H1556 H 0.77024 0.81094 0.57783 0.0
H1557 H 0.74013 0.73203 0.50546 0.0
H1558 H 0.7098 0.7294 0.51418 0.0
H1559 H 0.73296 0.71902 0.53319 0.0
C1560 C 0.16413 0.7488 0.43337 0.0
C1561 C 0.15446 0.746 0.45588 0.0
C1562 C 0.18192 0.7654 0.42929 0.0
C1563 C 0.18994 0.77953 0.44814 0.0
C1564 C 0.17949 0.77742 0.47064 0.0
C1565 C 0.16195 0.76057 0.47426 0.0
C1566 C 0.19279 0.76714 0.40512 0.0
C1567 C 0.18743 0.79238 0.49114 0.0
C1568 C 0.25177 0.80314 0.45197 0.0
C1569 C 0.24817 0.82709 0.44753 0.0
C1570 C 0.23313 0.78714 0.4507 0.0
C1571 C 0.21036 0.7954 0.44508 0.0
C1572 C 0.20689 0.81933 0.43922 0.0
C1573 C 0.22594 0.83494 0.44043 0.0
C1574 C 0.23755 0.76166 0.45676 0.0
C1575 C 0.18283 0.82873 0.43319 0.0
H1576 H 0.15834 0.73751 0.41913 0.0
H1577 H 0.15435 0.75854 0.49163 0.0
H1578 H 0.19324 0.78571 0.39917 0.0
H1579 H 0.21123 0.76085 0.40581 0.0
H1580 H 0.1831 0.75651 0.39189 0.0
H1581 H 0.17638 0.78967 0.50702 0.0
H1582 H 0.2059 0.78805 0.49566 0.0
H1583 H 0.18689 0.81128 0.48632 0.0
H1584 H 0.26903 0.797 0.45722 0.0
H1585 H 0.22315 0.85347 0.43693 0.0
H1586 H 0.22961 0.74995 0.44333 0.0
H1587 H 0.22915 0.75747 0.47388 0.0
H1588 H 0.25661 0.75761 0.45811 0.0
H1589 H 0.17405 0.81725 0.42008 0.0
H1590 H 0.18363 0.84692 0.4261 0.0
H1591 H 0.17171 0.82882 0.44923 0.0
C1592 C 0.50312 0.21391 0.28858 0.0
C1593 C 0.49246 0.19169 0.28859 0.0
C1594 C 0.50148 0.22867 0.26891 0.0
C1595 C 0.48892 0.22095 0.24885 0.0
C1596 C 0.4778 0.19869 0.24892 0.0
C1597 C 0.4797 0.18431 0.26884 0.0
C1598 C 0.51349 0.25236 0.26944 0.0
C1599 C 0.46425 0.18991 0.22782 0.0
C1600 C 0.46907 0.26678 0.20476 0.0
C1601 C 0.48653 0.26491 0.18746 0.0
C1602 C 0.46953 0.25244 0.2248 0.0
C1603 C 0.48791 0.23593 0.22755 0.0
C1604 C 0.50546 0.23382 0.21004 0.0
C1605 C 0.50454 0.24834 0.19015 0.0
C1606 C 0.45047 0.25508 0.24311 0.0
C1607 C 0.52533 0.21637 0.21241 0.0
H1608 H 0.51298 0.21966 0.30385 0.0
H1609 H 0.47143 0.16713 0.26879 0.0
H1610 H 0.52712 0.25317 0.25549 0.0
H1611 H 0.50059 0.2665 0.26573 0.0
H1612 H 0.52197 0.25601 0.28666 0.0
H1613 H 0.45604 0.17246 0.231 0.0
H1614 H 0.45025 0.20262 0.2231 0.0
H1615 H 0.47617 0.18845 0.21244 0.0
H1616 H 0.4551 0.27957 0.20272 0.0
H1617 H 0.51808 0.24687 0.1768 0.0
H1618 H 0.45835 0.26016 0.26022 0.0
H1619 H 0.44137 0.23802 0.24578 0.0
H1620 H 0.43721 0.26852 0.23813 0.0
H1621 H 0.5356 0.2202 0.22856 0.0
H1622 H 0.53743 0.21677 0.19708 0.0
H1623 H 0.51817 0.19831 0.21424 0.0
C1624 C 0.81438 0.5023 0.23959 0.0
C1625 C 0.82136 0.52173 0.25304 0.0
C1626 C 0.795 0.50374 0.22447 0.0
C1627 C 0.78233 0.52509 0.2229 0.0
C1628 C 0.78994 0.54507 0.23564 0.0
C1629 C 0.80945 0.54315 0.25057 0.0
C1630 C 0.78747 0.48211 0.21099 0.0
C1631 C 0.77685 0.56812 0.23434 0.0
C1632 C 0.73919 0.53174 0.17253 0.0
C1633 C 0.71805 0.52513 0.18336 0.0
C1634 C 0.76029 0.53217 0.18527 0.0
C1635 C 0.7601 0.52592 0.20935 0.0
C1636 C 0.73871 0.51973 0.22047 0.0
C1637 C 0.71792 0.51936 0.2073 0.0
C1638 C 0.78281 0.53881 0.17287 0.0
C1639 C 0.73785 0.51308 0.24618 0.0
H1640 H 0.82364 0.48575 0.24138 0.0
H1641 H 0.81485 0.55824 0.26092 0.0
H1642 H 0.77019 0.47595 0.21763 0.0
H1643 H 0.78526 0.48634 0.19207 0.0
H1644 H 0.80031 0.4675 0.21267 0.0
H1645 H 0.78622 0.58249 0.24372 0.0
H1646 H 0.77426 0.57343 0.21575 0.0
H1647 H 0.75917 0.56603 0.24231 0.0
H1648 H 0.73933 0.5362 0.154 0.0
H1649 H 0.70158 0.5143 0.21572 0.0
H1650 H 0.79512 0.52369 0.17306 0.0
H1651 H 0.79156 0.55351 0.18226 0.0
H1652 H 0.77978 0.54414 0.15432 0.0
H1653 H 0.74867 0.49715 0.24925 0.0
H1654 H 0.71966 0.5095 0.25233 0.0
H1655 H 0.74539 0.52743 0.25706 0.0
C1656 C 0.49082 0.77487 0.15014 0.0
C1657 C 0.47271 0.75982 0.15749 0.0
C1658 C 0.49797 0.79384 0.16417 0.0
C1659 C 0.48672 0.7977 0.186 0.0
C1660 C 0.46741 0.78349 0.19276 0.0
C1661 C 0.46061 0.76468 0.17837 0.0
C1662 C 0.51847 0.80877 0.15631 0.0
C1663 C 0.45487 0.78722 0.21588 0.0
C1664 C 0.51999 0.82179 0.23813 0.0
C1665 C 0.51028 0.84432 0.24022 0.0
C1666 C 0.51337 0.80687 0.21972 0.0
C1667 C 0.49665 0.81472 0.20305 0.0
C1668 C 0.488 0.83801 0.20415 0.0
C1669 C 0.49495 0.8526 0.22279 0.0
C1670 C 0.52319 0.7822 0.21896 0.0
C1671 C 0.47033 0.84703 0.18652 0.0
H1672 H 0.50012 0.77126 0.13389 0.0
H1673 H 0.4465 0.75316 0.18401 0.0
H1674 H 0.51461 0.82772 0.1589 0.0
H1675 H 0.53412 0.80449 0.16714 0.0
H1676 H 0.52295 0.80576 0.13753 0.0
H1677 H 0.43887 0.77612 0.21748 0.0
H1678 H 0.4669 0.78288 0.23061 0.0
H1679 H 0.44973 0.80593 0.21788 0.0
H1680 H 0.53199 0.81541 0.2515 0.0
H1681 H 0.48747 0.87006 0.22433 0.0
H1682 H 0.53017 0.7782 0.20118 0.0
H1683 H 0.50896 0.76937 0.22266 0.0
H1684 H 0.53746 0.77953 0.23202 0.0
H1685 H 0.47579 0.84251 0.16834 0.0
H1686 H 0.46799 0.86639 0.18777 0.0
H1687 H 0.45308 0.8385 0.18972 0.0
C1688 C 0.16299 0.46588 0.21655 0.0
C1689 C 0.16998 0.48076 0.23494 0.0
C1690 C 0.17536 0.46552 0.1952 0.0
C1691 C 0.19512 0.48036 0.19233 0.0
C1692 C 0.20211 0.49553 0.21079 0.0
C1693 C 0.18943 0.49555 0.23188 0.0
C1694 C 0.16745 0.44916 0.17583 0.0
C1695 C 0.22317 0.51157 0.20839 0.0
C1696 C 0.24455 0.46663 0.15026 0.0
C1697 C 0.24083 0.48343 0.13262 0.0
C1698 C 0.22897 0.4645 0.16919 0.0
C1699 C 0.20924 0.47956 0.17045 0.0
C1700 C 0.2046 0.49556 0.15195 0.0
C1701 C 0.22051 0.49731 0.13317 0.0
C1702 C 0.23446 0.44716 0.18855 0.0
C1703 C 0.18362 0.51178 0.15267 0.0
H1704 H 0.14788 0.45448 0.21886 0.0
H1705 H 0.19484 0.50713 0.24604 0.0
H1706 H 0.16417 0.45925 0.15946 0.0
H1707 H 0.18154 0.43626 0.1719 0.0
H1708 H 0.15121 0.43939 0.18055 0.0
H1709 H 0.22591 0.52269 0.22423 0.0
H1710 H 0.23925 0.50095 0.20541 0.0
H1711 H 0.22096 0.52324 0.19291 0.0
H1712 H 0.26016 0.45571 0.14978 0.0
H1713 H 0.21755 0.51024 0.11949 0.0
H1714 H 0.21869 0.43652 0.19289 0.0
H1715 H 0.23959 0.45684 0.20471 0.0
H1716 H 0.24901 0.43506 0.18371 0.0
H1717 H 0.16743 0.50183 0.15708 0.0
H1718 H 0.18091 0.52103 0.13568 0.0
H1719 H 0.18623 0.52516 0.16664 0.0
C1720 C 0.51655 0.76473 0.8129 0.0
C1721 C 0.50412 0.75373 0.83107 0.0
C1722 C 0.50536 0.78086 0.79801 0.0
C1723 C 0.48123 0.78598 0.80147 0.0
C1724 C 0.46916 0.77638 0.82095 0.0
C1725 C 0.48078 0.76033 0.83556 0.0
C1726 C 0.51891 0.79106 0.77757 0.0
C1727 C 0.44353 0.78163 0.82535 0.0
C1728 C 0.4579 0.83541 0.76351 0.0
C1729 C 0.45061 0.82287 0.74355 0.0
C1730 C 0.46673 0.82359 0.78328 0.0
C1731 C 0.46812 0.79877 0.78294 0.0
C1732 C 0.45894 0.78602 0.76361 0.0
C1733 C 0.45031 0.79827 0.74409 0.0
C1734 C 0.47613 0.83774 0.80369 0.0
C1735 C 0.45973 0.75948 0.7628 0.0
H1736 H 0.53463 0.7598 0.8095 0.0
H1737 H 0.47115 0.75202 0.84977 0.0
H1738 H 0.51228 0.78336 0.76089 0.0
H1739 H 0.51627 0.81036 0.77658 0.0
H1740 H 0.53805 0.78743 0.77886 0.0
H1741 H 0.43791 0.77612 0.84323 0.0
H1742 H 0.43988 0.80067 0.8232 0.0
H1743 H 0.43265 0.77206 0.81227 0.0
H1744 H 0.45812 0.85447 0.76316 0.0
H1745 H 0.44451 0.78855 0.72874 0.0
H1746 H 0.49563 0.8376 0.80319 0.0
H1747 H 0.47066 0.8299 0.82069 0.0
H1748 H 0.47012 0.85631 0.80308 0.0
H1749 H 0.47827 0.75355 0.76158 0.0
H1750 H 0.44993 0.75224 0.74752 0.0
H1751 H 0.45223 0.75194 0.77916 0.0
C1752 C 0.27699 0.54719 0.78064 0.0
C1753 C 0.28842 0.52541 0.779 0.0
C1754 C 0.25631 0.55154 0.76799 0.0
C1755 C 0.24676 0.53354 0.75371 0.0
C1756 C 0.25876 0.51188 0.75126 0.0
C1757 C 0.27959 0.50813 0.76384 0.0
C1758 C 0.2442 0.57502 0.77063 0.0
C1759 C 0.24901 0.49221 0.73628 0.0
C1760 C 0.18115 0.5302 0.74341 0.0
C1761 C 0.1796 0.53684 0.71975 0.0
C1762 C 0.2029 0.52982 0.75495 0.0
C1763 C 0.22342 0.53661 0.74258 0.0
C1764 C 0.22173 0.54463 0.7191 0.0
C1765 C 0.19981 0.54446 0.70787 0.0
C1766 C 0.20408 0.52099 0.77998 0.0
C1767 C 0.24318 0.55245 0.70555 0.0
H1768 H 0.2839 0.56064 0.79226 0.0
H1769 H 0.28839 0.49127 0.76257 0.0
H1770 H 0.23977 0.58238 0.75311 0.0
H1771 H 0.22747 0.57268 0.78036 0.0
H1772 H 0.25521 0.58796 0.78028 0.0
H1773 H 0.26109 0.4769 0.73534 0.0
H1774 H 0.23196 0.48621 0.74363 0.0
H1775 H 0.24562 0.49857 0.71815 0.0
H1776 H 0.16554 0.52426 0.75259 0.0
H1777 H 0.19859 0.54977 0.6896 0.0
H1778 H 0.21327 0.53395 0.79131 0.0
H1779 H 0.21434 0.50441 0.78059 0.0
H1780 H 0.18637 0.51759 0.7875 0.0
H1781 H 0.25357 0.56523 0.71602 0.0
H1782 H 0.23852 0.56066 0.68844 0.0
H1783 H 0.25467 0.53708 0.70207 0.0
C1784 C 0.5294 0.14441 0.76921 0.0
C1785 C 0.53394 0.15436 0.74711 0.0
C1786 C 0.52459 0.15868 0.78874 0.0
C1787 C 0.52436 0.18339 0.78596 0.0
C1788 C 0.53027 0.19353 0.76399 0.0
C1789 C 0.53498 0.17885 0.74479 0.0
C1790 C 0.51853 0.1473 0.81196 0.0
C1791 C 0.5304 0.21986 0.76044 0.0
C1792 C 0.48473 0.22205 0.82267 0.0
C1793 C 0.501 0.23311 0.83748 0.0
C1794 C 0.49198 0.2049 0.80656 0.0
C1795 C 0.51606 0.19873 0.80531 0.0
C1796 C 0.53233 0.20884 0.82116 0.0
C1797 C 0.52458 0.22596 0.8371 0.0
C1798 C 0.47409 0.19433 0.79 0.0
C1799 C 0.55809 0.20254 0.82043 0.0
H1800 H 0.52866 0.12545 0.77107 0.0
H1801 H 0.53861 0.18659 0.72774 0.0
H1802 H 0.52852 0.15565 0.82649 0.0
H1803 H 0.49957 0.14989 0.81571 0.0
H1804 H 0.52226 0.12813 0.81194 0.0
H1805 H 0.53712 0.22492 0.7428 0.0
H1806 H 0.51227 0.22679 0.76238 0.0
H1807 H 0.54141 0.22849 0.77403 0.0
H1808 H 0.46646 0.22746 0.82301 0.0
H1809 H 0.53721 0.23441 0.84863 0.0
H1810 H 0.47527 0.17486 0.79025 0.0
H1811 H 0.47783 0.20017 0.77175 0.0
H1812 H 0.45583 0.19954 0.79456 0.0
H1813 H 0.5604 0.18317 0.82 0.0
H1814 H 0.56785 0.20972 0.83576 0.0
H1815 H 0.56608 0.20971 0.80412 0.0
C1816 C 0.72751 0.46709 0.80942 0.0
C1817 C 0.72971 0.46597 0.83392 0.0
C1818 C 0.74683 0.46281 0.79479 0.0
C1819 C 0.76886 0.45733 0.80497 0.0
C1820 C 0.77097 0.45521 0.82967 0.0
C1821 C 0.7513 0.45957 0.84391 0.0
C1822 C 0.74389 0.46516 0.76848 0.0
C1823 C 0.79419 0.44935 0.8411 0.0
C1824 C 0.81472 0.43469 0.7622 0.0
C1825 C 0.82613 0.45565 0.75604 0.0
C1826 C 0.79663 0.43468 0.779 0.0
C1827 C 0.78998 0.45612 0.78976 0.0
C1828 C 0.80231 0.47707 0.78445 0.0
C1829 C 0.82022 0.47657 0.76761 0.0
C1830 C 0.78389 0.41201 0.78434 0.0
C1831 C 0.79581 0.50028 0.79567 0.0
H1832 H 0.71079 0.47186 0.80163 0.0
H1833 H 0.75301 0.45857 0.86287 0.0
H1834 H 0.75423 0.48043 0.76208 0.0
H1835 H 0.75074 0.44929 0.75945 0.0
H1836 H 0.72524 0.46771 0.76331 0.0
H1837 H 0.79232 0.44588 0.86023 0.0
H1838 H 0.80218 0.43371 0.83261 0.0
H1839 H 0.80658 0.46423 0.83869 0.0
H1840 H 0.81932 0.41847 0.75329 0.0
H1841 H 0.82916 0.49279 0.76302 0.0
H1842 H 0.76579 0.41286 0.77713 0.0
H1843 H 0.78234 0.40943 0.80362 0.0
H1844 H 0.79289 0.3965 0.7766 0.0
H1845 H 0.77797 0.50557 0.78985 0.0
H1846 H 0.80833 0.51454 0.79099 0.0
H1847 H 0.79533 0.49853 0.81509 0.0
loop_
_geom_bond_atom_site_label_1
_geom_bond_atom_site_label_2
_geom_bond_distance
_geom_bond_site_symmetry_2
_ccdc_geom_bond_type
In0 O1 2.294 . S
In0 O2 2.326 . S
In0 O6 2.266 . S
In0 O7 2.326 . S
In0 O8 2.266 . S
In0 O9 2.326 . S
In0 O11 2.294 . S
In0 O12 2.326 . S
O1 In0 2.294 . S
O1 C10 1.240 . S
O2 In0 2.326 . S
O2 C10 1.252 . S
C3 O6 1.252 . S
C3 O7 1.260 . S
C4 O11 1.240 . S
C4 O12 1.252 . S
C5 O8 1.252 . S
C5 O9 1.260 . S
O6 In0 2.266 . S
O6 C3 1.252 . S
O7 In0 2.326 . S
O7 C3 1.260 . S
O8 In0 2.266 . S
O8 C5 1.252 . S
O9 In0 2.326 . S
O9 C5 1.260 . S
C10 O1 1.240 . S
C10 O2 1.252 . S
O11 In0 2.294 . S
O11 C4 1.240 . S
O12 In0 2.326 . S
O12 C4 1.252 . S
In13 O14 2.294 . S
In13 O15 2.326 . S
In13 O19 2.266 . S
In13 O20 2.326 . S
In13 O21 2.266 . S
In13 O22 2.326 . S
In13 O24 2.294 . S
In13 O25 2.326 . S
O14 In13 2.294 . S
O14 C23 1.240 . S
O15 In13 2.326 . S
O15 C23 1.252 . S
C16 O19 1.252 . S
C16 O20 1.260 . S
C17 O24 1.240 . S
C17 O25 1.252 . S
C18 O21 1.252 . S
C18 O22 1.260 . S
O19 In13 2.266 . S
O19 C16 1.252 . S
O20 In13 2.326 . S
O20 C16 1.260 . S
O21 In13 2.266 . S
O21 C18 1.252 . S
O22 In13 2.326 . S
O22 C18 1.260 . S
C23 O14 1.240 . S
C23 O15 1.252 . S
O24 In13 2.294 . S
O24 C17 1.240 . S
O25 In13 2.326 . S
O25 C17 1.252 . S
In26 O27 2.294 . S
In26 O28 2.326 . S
In26 O32 2.266 . S
In26 O33 2.326 . S
In26 O34 2.266 . S
In26 O35 2.326 . S
In26 O37 2.294 . S
In26 O38 2.326 . S
O27 In26 2.294 . S
O27 C36 1.240 . S
O28 In26 2.326 . S
O28 C36 1.252 . S
C29 O32 1.252 . S
C29 O33 1.260 . S
C30 O37 1.240 . S
C30 O38 1.252 . S
C31 O34 1.252 . S
C31 O35 1.260 . S
O32 In26 2.266 . S
O32 C29 1.252 . S
O33 In26 2.326 . S
O33 C29 1.260 . S
O34 In26 2.266 . S
O34 C31 1.252 . S
O35 In26 2.326 . S
O35 C31 1.260 . S
C36 O27 1.240 . S
C36 O28 1.252 . S
O37 In26 2.294 . S
O37 C30 1.240 . S
O38 In26 2.326 . S
O38 C30 1.252 . S
In39 O40 2.294 . S
In39 O41 2.326 . S
In39 O45 2.266 . S
In39 O46 2.326 . S
In39 O47 2.266 . S
In39 O48 2.326 . S
In39 O50 2.294 . S
In39 O51 2.326 . S
O40 In39 2.294 . S
O40 C49 1.240 . S
O41 In39 2.326 . S
O41 C49 1.252 . S
C42 O45 1.252 . S
C42 O46 1.260 . S
C43 O50 1.240 . S
C43 O51 1.252 . S
C44 O47 1.252 . S
C44 O48 1.260 . S
O45 In39 2.266 . S
O45 C42 1.252 . S
O46 In39 2.326 . S
O46 C42 1.260 . S
O47 In39 2.266 . S
O47 C44 1.252 . S
O48 In39 2.326 . S
O48 C44 1.260 . S
C49 O40 1.240 . S
C49 O41 1.252 . S
O50 In39 2.294 . S
O50 C43 1.240 . S
O51 In39 2.326 . S
O51 C43 1.252 . S
In52 O53 2.294 . S
In52 O54 2.326 . S
In52 O58 2.266 . S
In52 O59 2.326 . S
In52 O60 2.266 . S
In52 O61 2.326 . S
In52 O63 2.294 . S
In52 O64 2.326 . S
O53 In52 2.294 . S
O53 C62 1.240 . S
O54 In52 2.326 . S
O54 C62 1.252 . S
C55 O58 1.252 . S
C55 O59 1.260 . S
C56 O63 1.240 . S
C56 O64 1.252 . S
C57 O60 1.252 . S
C57 O61 1.260 . S
O58 In52 2.266 . S
O58 C55 1.252 . S
O59 In52 2.326 . S
O59 C55 1.260 . S
O60 In52 2.266 . S
O60 C57 1.252 . S
O61 In52 2.326 . S
O61 C57 1.260 . S
C62 O53 1.240 . S
C62 O54 1.252 . S
O63 In52 2.294 . S
O63 C56 1.240 . S
O64 In52 2.326 . S
O64 C56 1.252 . S
In65 O66 2.294 . S
In65 O67 2.326 . S
In65 O71 2.266 . S
In65 O72 2.326 . S
In65 O73 2.266 . S
In65 O74 2.326 . S
In65 O76 2.294 . S
In65 O77 2.326 . S
O66 In65 2.294 . S
O66 C75 1.240 . S
O67 In65 2.326 . S
O67 C75 1.252 . S
C68 O71 1.252 . S
C68 O72 1.260 . S
C69 O76 1.240 . S
C69 O77 1.252 . S
C70 O73 1.252 . S
C70 O74 1.260 . S
O71 In65 2.266 . S
O71 C68 1.252 . S
O72 In65 2.326 . S
O72 C68 1.260 . S
O73 In65 2.266 . S
O73 C70 1.252 . S
O74 In65 2.326 . S
O74 C70 1.260 . S
C75 O66 1.240 . S
C75 O67 1.252 . S
O76 In65 2.294 . S
O76 C69 1.240 . S
O77 In65 2.326 . S
O77 C69 1.252 . S
In78 O79 2.294 . S
In78 O80 2.326 . S
In78 O84 2.266 . S
In78 O85 2.326 . S
In78 O86 2.266 . S
In78 O87 2.326 . S
In78 O89 2.294 . S
In78 O90 2.326 . S
O79 In78 2.294 . S
O79 C88 1.240 . S
O80 In78 2.326 . S
O80 C88 1.252 . S
C81 O84 1.252 . S
C81 O85 1.260 . S
C82 O89 1.240 . S
C82 O90 1.252 . S
C83 O86 1.252 . S
C83 O87 1.260 . S
O84 In78 2.266 . S
O84 C81 1.252 . S
O85 In78 2.326 . S
O85 C81 1.260 . S
O86 In78 2.266 . S
O86 C83 1.252 . S
O87 In78 2.326 . S
O87 C83 1.260 . S
C88 O79 1.240 . S
C88 O80 1.252 . S
O89 In78 2.294 . S
O89 C82 1.240 . S
O90 In78 2.326 . S
O90 C82 1.252 . S
In91 O92 2.294 . S
In91 O93 2.326 . S
In91 O97 2.266 . S
In91 O98 2.326 . S
In91 O99 2.266 . S
In91 O100 2.326 . S
In91 O102 2.294 . S
In91 O103 2.326 . S
O92 In91 2.294 . S
O92 C101 1.240 . S
O93 In91 2.326 . S
O93 C101 1.252 . S
C94 O97 1.252 . S
C94 O98 1.260 . S
C95 O102 1.240 . S
C95 O103 1.252 . S
C96 O99 1.252 . S
C96 O100 1.260 . S
O97 In91 2.266 . S
O97 C94 1.252 . S
O98 In91 2.326 . S
O98 C94 1.260 . S
O99 In91 2.266 . S
O99 C96 1.252 . S
O100 In91 2.326 . S
O100 C96 1.260 . S
C101 O92 1.240 . S
C101 O93 1.252 . S
O102 In91 2.294 . S
O102 C95 1.240 . S
O103 In91 2.326 . S
O103 C95 1.252 . S
In104 O105 2.294 . S
In104 O106 2.326 . S
In104 O110 2.266 . S
In104 O111 2.326 . S
In104 O112 2.266 . S
In104 O113 2.326 . S
In104 O115 2.294 . S
In104 O116 2.326 . S
O105 In104 2.294 . S
O105 C114 1.240 . S
O106 In104 2.326 . S
O106 C114 1.252 . S
C107 O110 1.252 . S
C107 O111 1.260 . S
C108 O115 1.240 . S
C108 O116 1.252 . S
C109 O112 1.252 . S
C109 O113 1.260 . S
O110 In104 2.266 . S
O110 C107 1.252 . S
O111 In104 2.326 . S
O111 C107 1.260 . S
O112 In104 2.266 . S
O112 C109 1.252 . S
O113 In104 2.326 . S
O113 C109 1.260 . S
C114 O105 1.240 . S
C114 O106 1.252 . S
O115 In104 2.294 . S
O115 C108 1.240 . S
O116 In104 2.326 . S
O116 C108 1.252 . S
In117 O118 2.294 . S
In117 O119 2.326 . S
In117 O123 2.266 . S
In117 O124 2.326 . S
In117 O125 2.266 . S
In117 O126 2.326 . S
In117 O128 2.294 . S
In117 O129 2.326 . S
O118 In117 2.294 . S
O118 C127 1.240 . S
O119 In117 2.326 . S
O119 C127 1.252 . S
C120 O123 1.252 . S
C120 O124 1.260 . S
C121 O128 1.240 . S
C121 O129 1.252 . S
C122 O125 1.252 . S
C122 O126 1.260 . S
O123 In117 2.266 . S
O123 C120 1.252 . S
O124 In117 2.326 . S
O124 C120 1.260 . S
O125 In117 2.266 . S
O125 C122 1.252 . S
O126 In117 2.326 . S
O126 C122 1.260 . S
C127 O118 1.240 . S
C127 O119 1.252 . S
O128 In117 2.294 . S
O128 C121 1.240 . S
O129 In117 2.326 . S
O129 C121 1.252 . S
In130 O131 2.294 . S
In130 O132 2.326 . S
In130 O136 2.266 . S
In130 O137 2.326 . S
In130 O138 2.266 . S
In130 O139 2.326 . S
In130 O141 2.294 . S
In130 O142 2.326 . S
O131 In130 2.294 . S
O131 C140 1.240 . S
O132 In130 2.326 . S
O132 C140 1.252 . S
C133 O136 1.252 . S
C133 O137 1.260 . S
C134 O141 1.240 . S
C134 O142 1.252 . S
C135 O138 1.252 . S
C135 O139 1.260 . S
O136 In130 2.266 . S
O136 C133 1.252 . S
O137 In130 2.326 . S
O137 C133 1.260 . S
O138 In130 2.266 . S
O138 C135 1.252 . S
O139 In130 2.326 . S
O139 C135 1.260 . S
C140 O131 1.240 . S
C140 O132 1.252 . S
O141 In130 2.294 . S
O141 C134 1.240 . S
O142 In130 2.326 . S
O142 C134 1.252 . S
In143 O144 2.294 . S
In143 O145 2.326 . S
In143 O149 2.266 . S
In143 O150 2.326 . S
In143 O151 2.266 . S
In143 O152 2.326 . S
In143 O154 2.294 . S
In143 O155 2.326 . S
O144 In143 2.294 . S
O144 C153 1.240 . S
O145 In143 2.326 . S
O145 C153 1.252 . S
C146 O149 1.252 . S
C146 O150 1.260 . S
C147 O154 1.240 . S
C147 O155 1.252 . S
C148 O151 1.252 . S
C148 O152 1.260 . S
O149 In143 2.266 . S
O149 C146 1.252 . S
O150 In143 2.326 . S
O150 C146 1.260 . S
O151 In143 2.266 . S
O151 C148 1.252 . S
O152 In143 2.326 . S
O152 C148 1.260 . S
C153 O144 1.240 . S
C153 O145 1.252 . S
O154 In143 2.294 . S
O154 C147 1.240 . S
O155 In143 2.326 . S
O155 C147 1.252 . S
In156 O157 2.294 . S
In156 O158 2.326 . S
In156 O162 2.266 . S
In156 O163 2.326 . S
In156 O164 2.266 . S
In156 O165 2.326 . S
In156 O167 2.294 . S
In156 O168 2.326 . S
O157 In156 2.294 . S
O157 C166 1.240 . S
O158 In156 2.326 . S
O158 C166 1.252 . S
C159 O162 1.252 . S
C159 O163 1.260 . S
C160 O167 1.240 . S
C160 O168 1.252 . S
C161 O164 1.252 . S
C161 O165 1.260 . S
O162 In156 2.266 . S
O162 C159 1.252 . S
O163 In156 2.326 . S
O163 C159 1.260 . S
O164 In156 2.266 . S
O164 C161 1.252 . S
O165 In156 2.326 . S
O165 C161 1.260 . S
C166 O157 1.240 . S
C166 O158 1.252 . S
O167 In156 2.294 . S
O167 C160 1.240 . S
O168 In156 2.326 . S
O168 C160 1.252 . S
In169 O170 2.294 . S
In169 O171 2.326 . S
In169 O175 2.266 . S
In169 O176 2.326 . S
In169 O177 2.266 . S
In169 O178 2.326 . S
In169 O180 2.294 . S
In169 O181 2.326 . S
O170 In169 2.294 . S
O170 C179 1.240 . S
O171 In169 2.326 . S
O171 C179 1.252 . S
C172 O175 1.252 . S
C172 O176 1.260 . S
C173 O180 1.240 . S
C173 O181 1.252 . S
C174 O177 1.252 . S
C174 O178 1.260 . S
O175 In169 2.266 . S
O175 C172 1.252 . S
O176 In169 2.326 . S
O176 C172 1.260 . S
O177 In169 2.266 . S
O177 C174 1.252 . S
O178 In169 2.326 . S
O178 C174 1.260 . S
C179 O170 1.240 . S
C179 O171 1.252 . S
O180 In169 2.294 . S
O180 C173 1.240 . S
O181 In169 2.326 . S
O181 C173 1.252 . S
In182 O183 2.294 . S
In182 O184 2.326 . S
In182 O188 2.266 . S
In182 O189 2.326 . S
In182 O190 2.266 . S
In182 O191 2.326 . S
In182 O193 2.294 . S
In182 O194 2.326 . S
O183 In182 2.294 . S
O183 C192 1.240 . S
O184 In182 2.326 . S
O184 C192 1.252 . S
C185 O188 1.252 . S
C185 O189 1.260 . S
C186 O193 1.240 . S
C186 O194 1.252 . S
C187 O190 1.252 . S
C187 O191 1.260 . S
O188 In182 2.266 . S
O188 C185 1.252 . S
O189 In182 2.326 . S
O189 C185 1.260 . S
O190 In182 2.266 . S
O190 C187 1.252 . S
O191 In182 2.326 . S
O191 C187 1.260 . S
C192 O183 1.240 . S
C192 O184 1.252 . S
O193 In182 2.294 . S
O193 C186 1.240 . S
O194 In182 2.326 . S
O194 C186 1.252 . S
In195 O196 2.294 . S
In195 O197 2.326 . S
In195 O201 2.266 . S
In195 O202 2.326 . S
In195 O203 2.266 . S
In195 O204 2.326 . S
In195 O206 2.294 . S
In195 O207 2.326 . S
O196 In195 2.294 . S
O196 C205 1.240 . S
O197 In195 2.326 . S
O197 C205 1.252 . S
C198 O201 1.252 . S
C198 O202 1.260 . S
C199 O206 1.240 . S
C199 O207 1.252 . S
C200 O203 1.252 . S
C200 O204 1.260 . S
O201 In195 2.266 . S
O201 C198 1.252 . S
O202 In195 2.326 . S
O202 C198 1.260 . S
O203 In195 2.266 . S
O203 C200 1.252 . S
O204 In195 2.326 . S
O204 C200 1.260 . S
C205 O196 1.240 . S
C205 O197 1.252 . S
O206 In195 2.294 . S
O206 C199 1.240 . S
O207 In195 2.326 . S
O207 C199 1.252 . S
In208 O209 2.294 . S
In208 O210 2.326 . S
In208 O214 2.266 . S
In208 O215 2.326 . S
In208 O216 2.266 . S
In208 O217 2.326 . S
In208 O219 2.294 . S
In208 O220 2.326 . S
O209 In208 2.294 . S
O209 C218 1.240 . S
O210 In208 2.326 . S
O210 C218 1.252 . S
C211 O214 1.252 . S
C211 O215 1.260 . S
C212 O219 1.240 . S
C212 O220 1.252 . S
C213 O216 1.252 . S
C213 O217 1.260 . S
O214 In208 2.266 . S
O214 C211 1.252 . S
O215 In208 2.326 . S
O215 C211 1.260 . S
O216 In208 2.266 . S
O216 C213 1.252 . S
O217 In208 2.326 . S
O217 C213 1.260 . S
C218 O209 1.240 . S
C218 O210 1.252 . S
O219 In208 2.294 . S
O219 C212 1.240 . S
O220 In208 2.326 . S
O220 C212 1.252 . S
In221 O222 2.294 . S
In221 O223 2.326 . S
In221 O227 2.266 . S
In221 O228 2.326 . S
In221 O229 2.266 . S
In221 O230 2.326 . S
In221 O232 2.294 . S
In221 O233 2.326 . S
O222 In221 2.294 . S
O222 C231 1.240 . S
O223 In221 2.326 . S
O223 C231 1.252 . S
C224 O227 1.252 . S
C224 O228 1.260 . S
C225 O232 1.240 . S
C225 O233 1.252 . S
C226 O229 1.252 . S
C226 O230 1.260 . S
O227 In221 2.266 . S
O227 C224 1.252 . S
O228 In221 2.326 . S
O228 C224 1.260 . S
O229 In221 2.266 . S
O229 C226 1.252 . S
O230 In221 2.326 . S
O230 C226 1.260 . S
C231 O222 1.240 . S
C231 O223 1.252 . S
O232 In221 2.294 . S
O232 C225 1.240 . S
O233 In221 2.326 . S
O233 C225 1.252 . S
In234 O235 2.294 . S
In234 O236 2.326 . S
In234 O240 2.266 . S
In234 O241 2.326 . S
In234 O242 2.266 . S
In234 O243 2.326 . S
In234 O245 2.294 . S
In234 O246 2.326 . S
O235 In234 2.294 . S
O235 C244 1.240 . S
O236 In234 2.326 . S
O236 C244 1.252 . S
C237 O240 1.252 . S
C237 O241 1.260 . S
C238 O245 1.240 . S
C238 O246 1.252 . S
C239 O242 1.252 . S
C239 O243 1.260 . S
O240 In234 2.266 . S
O240 C237 1.252 . S
O241 In234 2.326 . S
O241 C237 1.260 . S
O242 In234 2.266 . S
O242 C239 1.252 . S
O243 In234 2.326 . S
O243 C239 1.260 . S
C244 O235 1.240 . S
C244 O236 1.252 . S
O245 In234 2.294 . S
O245 C238 1.240 . S
O246 In234 2.326 . S
O246 C238 1.252 . S
In247 O248 2.294 . S
In247 O249 2.326 . S
In247 O253 2.266 . S
In247 O254 2.326 . S
In247 O255 2.266 . S
In247 O256 2.326 . S
In247 O258 2.294 . S
In247 O259 2.326 . S
O248 In247 2.294 . S
O248 C257 1.240 . S
O249 In247 2.326 . S
O249 C257 1.252 . S
C250 O253 1.252 . S
C250 O254 1.260 . S
C251 O258 1.240 . S
C251 O259 1.252 . S
C252 O255 1.252 . S
C252 O256 1.260 . S
O253 In247 2.266 . S
O253 C250 1.252 . S
O254 In247 2.326 . S
O254 C250 1.260 . S
O255 In247 2.266 . S
O255 C252 1.252 . S
O256 In247 2.326 . S
O256 C252 1.260 . S
C257 O248 1.240 . S
C257 O249 1.252 . S
O258 In247 2.294 . S
O258 C251 1.240 . S
O259 In247 2.326 . S
O259 C251 1.252 . S
In260 O261 2.294 . S
In260 O262 2.326 . S
In260 O266 2.266 . S
In260 O267 2.326 . S
In260 O268 2.266 . S
In260 O269 2.326 . S
In260 O271 2.294 . S
In260 O272 2.326 . S
O261 In260 2.294 . S
O261 C270 1.240 . S
O262 In260 2.326 . S
O262 C270 1.252 . S
C263 O266 1.252 . S
C263 O267 1.260 . S
C264 O271 1.240 . S
C264 O272 1.252 . S
C265 O268 1.252 . S
C265 O269 1.260 . S
O266 In260 2.266 . S
O266 C263 1.252 . S
O267 In260 2.326 . S
O267 C263 1.260 . S
O268 In260 2.266 . S
O268 C265 1.252 . S
O269 In260 2.326 . S
O269 C265 1.260 . S
C270 O261 1.240 . S
C270 O262 1.252 . S
O271 In260 2.294 . S
O271 C264 1.240 . S
O272 In260 2.326 . S
O272 C264 1.252 . S
In273 O274 2.294 . S
In273 O275 2.326 . S
In273 O279 2.266 . S
In273 O280 2.326 . S
In273 O281 2.266 . S
In273 O282 2.326 . S
In273 O284 2.294 . S
In273 O285 2.326 . S
O274 In273 2.294 . S
O274 C283 1.240 . S
O275 In273 2.326 . S
O275 C283 1.252 . S
C276 O279 1.252 . S
C276 O280 1.260 . S
C277 O284 1.240 . S
C277 O285 1.252 . S
C278 O281 1.252 . S
C278 O282 1.260 . S
O279 In273 2.266 . S
O279 C276 1.252 . S
O280 In273 2.326 . S
O280 C276 1.260 . S
O281 In273 2.266 . S
O281 C278 1.252 . S
O282 In273 2.326 . S
O282 C278 1.260 . S
C283 O274 1.240 . S
C283 O275 1.252 . S
O284 In273 2.294 . S
O284 C277 1.240 . S
O285 In273 2.326 . S
O285 C277 1.252 . S
In286 O287 2.294 . S
In286 O288 2.326 . S
In286 O292 2.266 . S
In286 O293 2.326 . S
In286 O294 2.266 . S
In286 O295 2.326 . S
In286 O297 2.294 . S
In286 O298 2.326 . S
O287 In286 2.294 . S
O287 C296 1.240 . S
O288 In286 2.326 . S
O288 C296 1.252 . S
C289 O292 1.252 . S
C289 O293 1.260 . S
C290 O297 1.240 . S
C290 O298 1.252 . S
C291 O294 1.252 . S
C291 O295 1.260 . S
O292 In286 2.266 . S
O292 C289 1.252 . S
O293 In286 2.326 . S
O293 C289 1.260 . S
O294 In286 2.266 . S
O294 C291 1.252 . S
O295 In286 2.326 . S
O295 C291 1.260 . S
C296 O287 1.240 . S
C296 O288 1.252 . S
O297 In286 2.294 . S
O297 C290 1.240 . S
O298 In286 2.326 . S
O298 C290 1.252 . S
In299 O300 2.294 . S
In299 O301 2.326 . S
In299 O305 2.266 . S
In299 O306 2.326 . S
In299 O307 2.266 . S
In299 O308 2.326 . S
In299 O310 2.294 . S
In299 O311 2.326 . S
O300 In299 2.294 . S
O300 C309 1.240 . S
O301 In299 2.326 . S
O301 C309 1.252 . S
C302 O305 1.252 . S
C302 O306 1.260 . S
C303 O310 1.240 . S
C303 O311 1.252 . S
C304 O307 1.252 . S
C304 O308 1.260 . S
O305 In299 2.266 . S
O305 C302 1.252 . S
O306 In299 2.326 . S
O306 C302 1.260 . S
O307 In299 2.266 . S
O307 C304 1.252 . S
O308 In299 2.326 . S
O308 C304 1.260 . S
C309 O300 1.240 . S
C309 O301 1.252 . S
O310 In299 2.294 . S
O310 C303 1.240 . S
O311 In299 2.326 . S
O311 C303 1.252 . S
C312 C313 1.391 . S
C312 C314 1.394 . S
C312 H328 0.931 . S
C313 C312 1.391 . S
C313 C317 1.376 . S
C314 C312 1.394 . S
C314 C315 1.369 . S
C314 C318 1.531 . S
C315 C314 1.369 . S
C315 C316 1.410 . S
C315 C323 1.503 . S
C316 C315 1.410 . S
C316 C317 1.392 . S
C316 C319 1.511 . S
C317 C313 1.376 . S
C317 C316 1.392 . S
C317 H329 0.929 . S
C318 C314 1.531 . S
C318 H330 0.960 . S
C318 H331 0.962 . S
C318 H332 0.960 . S
C319 C316 1.511 . S
C319 H333 0.961 . S
C319 H334 0.961 . S
C319 H335 0.961 . S
C320 C321 1.370 . S
C320 C322 1.363 . S
C320 H336 0.931 . S
C321 C320 1.370 . S
C321 C325 1.408 . S
C322 C320 1.363 . S
C322 C323 1.370 . S
C322 C326 1.524 . S
C323 C315 1.503 . S
C323 C322 1.370 . S
C323 C324 1.403 . S
C324 C323 1.403 . S
C324 C325 1.404 . S
C324 C327 1.539 . S
C325 C321 1.408 . S
C325 C324 1.404 . S
C325 H337 0.930 . S
C326 C322 1.524 . S
C326 H338 0.956 . S
C326 H339 0.961 . S
C326 H340 0.961 . S
C327 C324 1.539 . S
C327 H341 0.958 . S
C327 H342 0.961 . S
C327 H343 0.960 . S
H328 C312 0.931 . S
H329 C317 0.929 . S
H330 C318 0.960 . S
H331 C318 0.962 . S
H332 C318 0.960 . S
H333 C319 0.961 . S
H334 C319 0.961 . S
H335 C319 0.961 . S
H336 C320 0.931 . S
H337 C325 0.930 . S
H338 C326 0.956 . S
H339 C326 0.961 . S
H340 C326 0.961 . S
H341 C327 0.958 . S
H342 C327 0.961 . S
H343 C327 0.960 . S
C344 C345 1.391 . S
C344 C346 1.394 . S
C344 H360 0.931 . S
C345 C344 1.391 . S
C345 C349 1.376 . S
C346 C344 1.394 . S
C346 C347 1.369 . S
C346 C350 1.531 . S
C347 C346 1.369 . S
C347 C348 1.410 . S
C347 C355 1.503 . S
C348 C347 1.410 . S
C348 C349 1.392 . S
C348 C351 1.511 . S
C349 C345 1.376 . S
C349 C348 1.392 . S
C349 H361 0.929 . S
C350 C346 1.531 . S
C350 H362 0.960 . S
C350 H363 0.962 . S
C350 H364 0.960 . S
C351 C348 1.511 . S
C351 H365 0.961 . S
C351 H366 0.961 . S
C351 H367 0.961 . S
C352 C353 1.370 . S
C352 C354 1.363 . S
C352 H368 0.931 . S
C353 C352 1.370 . S
C353 C357 1.408 . S
C354 C352 1.363 . S
C354 C355 1.370 . S
C354 C358 1.524 . S
C355 C347 1.503 . S
C355 C354 1.370 . S
C355 C356 1.403 . S
C356 C355 1.403 . S
C356 C357 1.404 . S
C356 C359 1.539 . S
C357 C353 1.408 . S
C357 C356 1.404 . S
C357 H369 0.930 . S
C358 C354 1.524 . S
C358 H370 0.956 . S
C358 H371 0.961 . S
C358 H372 0.961 . S
C359 C356 1.539 . S
C359 H373 0.958 . S
C359 H374 0.961 . S
C359 H375 0.960 . S
H360 C344 0.931 . S
H361 C349 0.929 . S
H362 C350 0.960 . S
H363 C350 0.962 . S
H364 C350 0.960 . S
H365 C351 0.961 . S
H366 C351 0.961 . S
H367 C351 0.961 . S
H368 C352 0.931 . S
H369 C357 0.930 . S
H370 C358 0.956 . S
H371 C358 0.961 . S
H372 C358 0.961 . S
H373 C359 0.958 . S
H374 C359 0.961 . S
H375 C359 0.960 . S
C376 C377 1.391 . S
C376 C378 1.394 . S
C376 H392 0.931 . S
C377 C376 1.391 . S
C377 C381 1.376 . S
C378 C376 1.394 . S
C378 C379 1.369 . S
C378 C382 1.531 . S
C379 C378 1.369 . S
C379 C380 1.410 . S
C379 C387 1.503 . S
C380 C379 1.410 . S
C380 C381 1.392 . S
C380 C383 1.511 . S
C381 C377 1.376 . S
C381 C380 1.392 . S
C381 H393 0.929 . S
C382 C378 1.531 . S
C382 H394 0.960 . S
C382 H395 0.962 . S
C382 H396 0.960 . S
C383 C380 1.511 . S
C383 H397 0.961 . S
C383 H398 0.961 . S
C383 H399 0.961 . S
C384 C385 1.370 . S
C384 C386 1.363 . S
C384 H400 0.931 . S
C385 C384 1.370 . S
C385 C389 1.408 . S
C386 C384 1.363 . S
C386 C387 1.370 . S
C386 C390 1.524 . S
C387 C379 1.503 . S
C387 C386 1.370 . S
C387 C388 1.403 . S
C388 C387 1.403 . S
C388 C389 1.404 . S
C388 C391 1.539 . S
C389 C385 1.408 . S
C389 C388 1.404 . S
C389 H401 0.930 . S
C390 C386 1.524 . S
C390 H402 0.956 . S
C390 H403 0.961 . S
C390 H404 0.961 . S
C391 C388 1.539 . S
C391 H405 0.958 . S
C391 H406 0.961 . S
C391 H407 0.960 . S
H392 C376 0.931 . S
H393 C381 0.929 . S
H394 C382 0.960 . S
H395 C382 0.962 . S
H396 C382 0.960 . S
H397 C383 0.961 . S
H398 C383 0.961 . S
H399 C383 0.961 . S
H400 C384 0.931 . S
H401 C389 0.930 . S
H402 C390 0.956 . S
H403 C390 0.961 . S
H404 C390 0.961 . S
H405 C391 0.958 . S
H406 C391 0.961 . S
H407 C391 0.960 . S
C408 C409 1.391 . S
C408 C410 1.394 . S
C408 H424 0.931 . S
C409 C408 1.391 . S
C409 C413 1.376 . S
C410 C408 1.394 . S
C410 C411 1.369 . S
C410 C414 1.531 . S
C411 C410 1.369 . S
C411 C412 1.410 . S
C411 C419 1.503 . S
C412 C411 1.410 . S
C412 C413 1.392 . S
C412 C415 1.511 . S
C413 C409 1.376 . S
C413 C412 1.392 . S
C413 H425 0.929 . S
C414 C410 1.531 . S
C414 H426 0.960 . S
C414 H427 0.962 . S
C414 H428 0.960 . S
C415 C412 1.511 . S
C415 H429 0.961 . S
C415 H430 0.961 . S
C415 H431 0.961 . S
C416 C417 1.370 . S
C416 C418 1.363 . S
C416 H432 0.931 . S
C417 C416 1.370 . S
C417 C421 1.408 . S
C418 C416 1.363 . S
C418 C419 1.370 . S
C418 C422 1.524 . S
C419 C411 1.503 . S
C419 C418 1.370 . S
C419 C420 1.403 . S
C420 C419 1.403 . S
C420 C421 1.404 . S
C420 C423 1.539 . S
C421 C417 1.408 . S
C421 C420 1.404 . S
C421 H433 0.930 . S
C422 C418 1.524 . S
C422 H434 0.956 . S
C422 H435 0.961 . S
C422 H436 0.961 . S
C423 C420 1.539 . S
C423 H437 0.958 . S
C423 H438 0.961 . S
C423 H439 0.960 . S
H424 C408 0.931 . S
H425 C413 0.929 . S
H426 C414 0.960 . S
H427 C414 0.962 . S
H428 C414 0.960 . S
H429 C415 0.961 . S
H430 C415 0.961 . S
H431 C415 0.961 . S
H432 C416 0.931 . S
H433 C421 0.930 . S
H434 C422 0.956 . S
H435 C422 0.961 . S
H436 C422 0.961 . S
H437 C423 0.958 . S
H438 C423 0.961 . S
H439 C423 0.960 . S
C440 C441 1.391 . S
C440 C442 1.394 . S
C440 H456 0.931 . S
C441 C440 1.391 . S
C441 C445 1.376 . S
C442 C440 1.394 . S
C442 C443 1.369 . S
C442 C446 1.531 . S
C443 C442 1.369 . S
C443 C444 1.410 . S
C443 C451 1.503 . S
C444 C443 1.410 . S
C444 C445 1.392 . S
C444 C447 1.511 . S
C445 C441 1.376 . S
C445 C444 1.392 . S
C445 H457 0.929 . S
C446 C442 1.531 . S
C446 H458 0.960 . S
C446 H459 0.962 . S
C446 H460 0.960 . S
C447 C444 1.511 . S
C447 H461 0.961 . S
C447 H462 0.961 . S
C447 H463 0.961 . S
C448 C449 1.370 . S
C448 C450 1.363 . S
C448 H464 0.931 . S
C449 C448 1.370 . S
C449 C453 1.408 . S
C450 C448 1.363 . S
C450 C451 1.370 . S
C450 C454 1.524 . S
C451 C443 1.503 . S
C451 C450 1.370 . S
C451 C452 1.403 . S
C452 C451 1.403 . S
C452 C453 1.404 . S
C452 C455 1.539 . S
C453 C449 1.408 . S
C453 C452 1.404 . S
C453 H465 0.930 . S
C454 C450 1.524 . S
C454 H466 0.956 . S
C454 H467 0.961 . S
C454 H468 0.961 . S
C455 C452 1.539 . S
C455 H469 0.958 . S
C455 H470 0.961 . S
C455 H471 0.960 . S
H456 C440 0.931 . S
H457 C445 0.929 . S
H458 C446 0.960 . S
H459 C446 0.962 . S
H460 C446 0.960 . S
H461 C447 0.961 . S
H462 C447 0.961 . S
H463 C447 0.961 . S
H464 C448 0.931 . S
H465 C453 0.930 . S
H466 C454 0.956 . S
H467 C454 0.961 . S
H468 C454 0.961 . S
H469 C455 0.958 . S
H470 C455 0.961 . S
H471 C455 0.960 . S
C472 C473 1.391 . S
C472 C474 1.394 . S
C472 H488 0.931 . S
C473 C472 1.391 . S
C473 C477 1.376 . S
C474 C472 1.394 . S
C474 C475 1.369 . S
C474 C478 1.531 . S
C475 C474 1.369 . S
C475 C476 1.410 . S
C475 C483 1.503 . S
C476 C475 1.410 . S
C476 C477 1.392 . S
C476 C479 1.511 . S
C477 C473 1.376 . S
C477 C476 1.392 . S
C477 H489 0.929 . S
C478 C474 1.531 . S
C478 H490 0.960 . S
C478 H491 0.962 . S
C478 H492 0.960 . S
C479 C476 1.511 . S
C479 H493 0.961 . S
C479 H494 0.961 . S
C479 H495 0.961 . S
C480 C481 1.370 . S
C480 C482 1.363 . S
C480 H496 0.931 . S
C481 C480 1.370 . S
C481 C485 1.408 . S
C482 C480 1.363 . S
C482 C483 1.370 . S
C482 C486 1.524 . S
C483 C475 1.503 . S
C483 C482 1.370 . S
C483 C484 1.403 . S
C484 C483 1.403 . S
C484 C485 1.404 . S
C484 C487 1.539 . S
C485 C481 1.408 . S
C485 C484 1.404 . S
C485 H497 0.930 . S
C486 C482 1.524 . S
C486 H498 0.956 . S
C486 H499 0.961 . S
C486 H500 0.961 . S
C487 C484 1.539 . S
C487 H501 0.958 . S
C487 H502 0.961 . S
C487 H503 0.960 . S
H488 C472 0.931 . S
H489 C477 0.929 . S
H490 C478 0.960 . S
H491 C478 0.962 . S
H492 C478 0.960 . S
H493 C479 0.961 . S
H494 C479 0.961 . S
H495 C479 0.961 . S
H496 C480 0.931 . S
H497 C485 0.930 . S
H498 C486 0.956 . S
H499 C486 0.961 . S
H500 C486 0.961 . S
H501 C487 0.958 . S
H502 C487 0.961 . S
H503 C487 0.960 . S
C504 C505 1.391 . S
C504 C506 1.394 . S
C504 H520 0.931 . S
C505 C504 1.391 . S
C505 C509 1.376 . S
C506 C504 1.394 . S
C506 C507 1.369 . S
C506 C510 1.531 . S
C507 C506 1.369 . S
C507 C508 1.410 . S
C507 C515 1.503 . S
C508 C507 1.410 . S
C508 C509 1.392 . S
C508 C511 1.511 . S
C509 C505 1.376 . S
C509 C508 1.392 . S
C509 H521 0.929 . S
C510 C506 1.531 . S
C510 H522 0.960 . S
C510 H523 0.962 . S
C510 H524 0.960 . S
C511 C508 1.511 . S
C511 H525 0.961 . S
C511 H526 0.961 . S
C511 H527 0.961 . S
C512 C513 1.370 . S
C512 C514 1.363 . S
C512 H528 0.931 . S
C513 C512 1.370 . S
C513 C517 1.408 . S
C514 C512 1.363 . S
C514 C515 1.370 . S
C514 C518 1.524 . S
C515 C507 1.503 . S
C515 C514 1.370 . S
C515 C516 1.403 . S
C516 C515 1.403 . S
C516 C517 1.404 . S
C516 C519 1.539 . S
C517 C513 1.408 . S
C517 C516 1.404 . S
C517 H529 0.930 . S
C518 C514 1.524 . S
C518 H530 0.956 . S
C518 H531 0.961 . S
C518 H532 0.961 . S
C519 C516 1.539 . S
C519 H533 0.958 . S
C519 H534 0.961 . S
C519 H535 0.960 . S
H520 C504 0.931 . S
H521 C509 0.929 . S
H522 C510 0.960 . S
H523 C510 0.962 . S
H524 C510 0.960 . S
H525 C511 0.961 . S
H526 C511 0.961 . S
H527 C511 0.961 . S
H528 C512 0.931 . S
H529 C517 0.930 . S
H530 C518 0.956 . S
H531 C518 0.961 . S
H532 C518 0.961 . S
H533 C519 0.958 . S
H534 C519 0.961 . S
H535 C519 0.960 . S
C536 C537 1.391 . S
C536 C538 1.394 . S
C536 H552 0.931 . S
C537 C536 1.391 . S
C537 C541 1.376 . S
C538 C536 1.394 . S
C538 C539 1.369 . S
C538 C542 1.531 . S
C539 C538 1.369 . S
C539 C540 1.410 . S
C539 C547 1.503 . S
C540 C539 1.410 . S
C540 C541 1.392 . S
C540 C543 1.511 . S
C541 C537 1.376 . S
C541 C540 1.392 . S
C541 H553 0.929 . S
C542 C538 1.531 . S
C542 H554 0.960 . S
C542 H555 0.962 . S
C542 H556 0.960 . S
C543 C540 1.511 . S
C543 H557 0.961 . S
C543 H558 0.961 . S
C543 H559 0.961 . S
C544 C545 1.370 . S
C544 C546 1.363 . S
C544 H560 0.931 . S
C545 C544 1.370 . S
C545 C549 1.408 . S
C546 C544 1.363 . S
C546 C547 1.370 . S
C546 C550 1.524 . S
C547 C539 1.503 . S
C547 C546 1.370 . S
C547 C548 1.403 . S
C548 C547 1.403 . S
C548 C549 1.404 . S
C548 C551 1.539 . S
C549 C545 1.408 . S
C549 C548 1.404 . S
C549 H561 0.930 . S
C550 C546 1.524 . S
C550 H562 0.956 . S
C550 H563 0.961 . S
C550 H564 0.961 . S
C551 C548 1.539 . S
C551 H565 0.958 . S
C551 H566 0.961 . S
C551 H567 0.960 . S
H552 C536 0.931 . S
H553 C541 0.929 . S
H554 C542 0.960 . S
H555 C542 0.962 . S
H556 C542 0.960 . S
H557 C543 0.961 . S
H558 C543 0.961 . S
H559 C543 0.961 . S
H560 C544 0.931 . S
H561 C549 0.930 . S
H562 C550 0.956 . S
H563 C550 0.961 . S
H564 C550 0.961 . S
H565 C551 0.958 . S
H566 C551 0.961 . S
H567 C551 0.960 . S
C568 C569 1.391 . S
C568 C570 1.394 . S
C568 H584 0.931 . S
C569 C568 1.391 . S
C569 C573 1.376 . S
C570 C568 1.394 . S
C570 C571 1.369 . S
C570 C574 1.531 . S
C571 C570 1.369 . S
C571 C572 1.410 . S
C571 C579 1.503 . S
C572 C571 1.410 . S
C572 C573 1.392 . S
C572 C575 1.511 . S
C573 C569 1.376 . S
C573 C572 1.392 . S
C573 H585 0.929 . S
C574 C570 1.531 . S
C574 H586 0.960 . S
C574 H587 0.962 . S
C574 H588 0.960 . S
C575 C572 1.511 . S
C575 H589 0.961 . S
C575 H590 0.961 . S
C575 H591 0.961 . S
C576 C577 1.370 . S
C576 C578 1.363 . S
C576 H592 0.931 . S
C577 C576 1.370 . S
C577 C581 1.408 . S
C578 C576 1.363 . S
C578 C579 1.370 . S
C578 C582 1.524 . S
C579 C571 1.503 . S
C579 C578 1.370 . S
C579 C580 1.403 . S
C580 C579 1.403 . S
C580 C581 1.404 . S
C580 C583 1.539 . S
C581 C577 1.408 . S
C581 C580 1.404 . S
C581 H593 0.930 . S
C582 C578 1.524 . S
C582 H594 0.956 . S
C582 H595 0.961 . S
C582 H596 0.961 . S
C583 C580 1.539 . S
C583 H597 0.958 . S
C583 H598 0.961 . S
C583 H599 0.960 . S
H584 C568 0.931 . S
H585 C573 0.929 . S
H586 C574 0.960 . S
H587 C574 0.962 . S
H588 C574 0.960 . S
H589 C575 0.961 . S
H590 C575 0.961 . S
H591 C575 0.961 . S
H592 C576 0.931 . S
H593 C581 0.930 . S
H594 C582 0.956 . S
H595 C582 0.961 . S
H596 C582 0.961 . S
H597 C583 0.958 . S
H598 C583 0.961 . S
H599 C583 0.960 . S
C600 C601 1.391 . S
C600 C602 1.394 . S
C600 H616 0.931 . S
C601 C600 1.391 . S
C601 C605 1.376 . S
C602 C600 1.394 . S
C602 C603 1.369 . S
C602 C606 1.531 . S
C603 C602 1.369 . S
C603 C604 1.410 . S
C603 C611 1.503 . S
C604 C603 1.410 . S
C604 C605 1.392 . S
C604 C607 1.511 . S
C605 C601 1.376 . S
C605 C604 1.392 . S
C605 H617 0.929 . S
C606 C602 1.531 . S
C606 H618 0.960 . S
C606 H619 0.962 . S
C606 H620 0.960 . S
C607 C604 1.511 . S
C607 H621 0.961 . S
C607 H622 0.961 . S
C607 H623 0.961 . S
C608 C609 1.370 . S
C608 C610 1.363 . S
C608 H624 0.931 . S
C609 C608 1.370 . S
C609 C613 1.408 . S
C610 C608 1.363 . S
C610 C611 1.370 . S
C610 C614 1.524 . S
C611 C603 1.503 . S
C611 C610 1.370 . S
C611 C612 1.403 . S
C612 C611 1.403 . S
C612 C613 1.404 . S
C612 C615 1.539 . S
C613 C609 1.408 . S
C613 C612 1.404 . S
C613 H625 0.930 . S
C614 C610 1.524 . S
C614 H626 0.956 . S
C614 H627 0.961 . S
C614 H628 0.961 . S
C615 C612 1.539 . S
C615 H629 0.958 . S
C615 H630 0.961 . S
C615 H631 0.960 . S
H616 C600 0.931 . S
H617 C605 0.929 . S
H618 C606 0.960 . S
H619 C606 0.962 . S
H620 C606 0.960 . S
H621 C607 0.961 . S
H622 C607 0.961 . S
H623 C607 0.961 . S
H624 C608 0.931 . S
H625 C613 0.930 . S
H626 C614 0.956 . S
H627 C614 0.961 . S
H628 C614 0.961 . S
H629 C615 0.958 . S
H630 C615 0.961 . S
H631 C615 0.960 . S
C632 C633 1.391 . S
C632 C634 1.394 . S
C632 H648 0.931 . S
C633 C632 1.391 . S
C633 C637 1.376 . S
C634 C632 1.394 . S
C634 C635 1.369 . S
C634 C638 1.531 . S
C635 C634 1.369 . S
C635 C636 1.410 . S
C635 C643 1.503 . S
C636 C635 1.410 . S
C636 C637 1.392 . S
C636 C639 1.511 . S
C637 C633 1.376 . S
C637 C636 1.392 . S
C637 H649 0.929 . S
C638 C634 1.531 . S
C638 H650 0.960 . S
C638 H651 0.962 . S
C638 H652 0.960 . S
C639 C636 1.511 . S
C639 H653 0.961 . S
C639 H654 0.961 . S
C639 H655 0.961 . S
C640 C641 1.370 . S
C640 C642 1.363 . S
C640 H656 0.931 . S
C641 C640 1.370 . S
C641 C645 1.408 . S
C642 C640 1.363 . S
C642 C643 1.370 . S
C642 C646 1.524 . S
C643 C635 1.503 . S
C643 C642 1.370 . S
C643 C644 1.403 . S
C644 C643 1.403 . S
C644 C645 1.404 . S
C644 C647 1.539 . S
C645 C641 1.408 . S
C645 C644 1.404 . S
C645 H657 0.930 . S
C646 C642 1.524 . S
C646 H658 0.956 . S
C646 H659 0.961 . S
C646 H660 0.961 . S
C647 C644 1.539 . S
C647 H661 0.958 . S
C647 H662 0.961 . S
C647 H663 0.960 . S
H648 C632 0.931 . S
H649 C637 0.929 . S
H650 C638 0.960 . S
H651 C638 0.962 . S
H652 C638 0.960 . S
H653 C639 0.961 . S
H654 C639 0.961 . S
H655 C639 0.961 . S
H656 C640 0.931 . S
H657 C645 0.930 . S
H658 C646 0.956 . S
H659 C646 0.961 . S
H660 C646 0.961 . S
H661 C647 0.958 . S
H662 C647 0.961 . S
H663 C647 0.960 . S
C664 C665 1.391 . S
C664 C666 1.394 . S
C664 H680 0.931 . S
C665 C664 1.391 . S
C665 C669 1.376 . S
C666 C664 1.394 . S
C666 C667 1.369 . S
C666 C670 1.531 . S
C667 C666 1.369 . S
C667 C668 1.410 . S
C667 C675 1.503 . S
C668 C667 1.410 . S
C668 C669 1.392 . S
C668 C671 1.511 . S
C669 C665 1.376 . S
C669 C668 1.392 . S
C669 H681 0.929 . S
C670 C666 1.531 . S
C670 H682 0.960 . S
C670 H683 0.962 . S
C670 H684 0.960 . S
C671 C668 1.511 . S
C671 H685 0.961 . S
C671 H686 0.961 . S
C671 H687 0.961 . S
C672 C673 1.370 . S
C672 C674 1.363 . S
C672 H688 0.931 . S
C673 C672 1.370 . S
C673 C677 1.408 . S
C674 C672 1.363 . S
C674 C675 1.370 . S
C674 C678 1.524 . S
C675 C667 1.503 . S
C675 C674 1.370 . S
C675 C676 1.403 . S
C676 C675 1.403 . S
C676 C677 1.404 . S
C676 C679 1.539 . S
C677 C673 1.408 . S
C677 C676 1.404 . S
C677 H689 0.930 . S
C678 C674 1.524 . S
C678 H690 0.956 . S
C678 H691 0.961 . S
C678 H692 0.961 . S
C679 C676 1.539 . S
C679 H693 0.958 . S
C679 H694 0.961 . S
C679 H695 0.960 . S
H680 C664 0.931 . S
H681 C669 0.929 . S
H682 C670 0.960 . S
H683 C670 0.962 . S
H684 C670 0.960 . S
H685 C671 0.961 . S
H686 C671 0.961 . S
H687 C671 0.961 . S
H688 C672 0.931 . S
H689 C677 0.930 . S
H690 C678 0.956 . S
H691 C678 0.961 . S
H692 C678 0.961 . S
H693 C679 0.958 . S
H694 C679 0.961 . S
H695 C679 0.960 . S
C696 C697 1.391 . S
C696 C698 1.394 . S
C696 H712 0.931 . S
C697 C696 1.391 . S
C697 C701 1.376 . S
C698 C696 1.394 . S
C698 C699 1.369 . S
C698 C702 1.531 . S
C699 C698 1.369 . S
C699 C700 1.410 . S
C699 C707 1.503 . S
C700 C699 1.410 . S
C700 C701 1.392 . S
C700 C703 1.511 . S
C701 C697 1.376 . S
C701 C700 1.392 . S
C701 H713 0.929 . S
C702 C698 1.531 . S
C702 H714 0.960 . S
C702 H715 0.962 . S
C702 H716 0.960 . S
C703 C700 1.511 . S
C703 H717 0.961 . S
C703 H718 0.961 . S
C703 H719 0.961 . S
C704 C705 1.370 . S
C704 C706 1.363 . S
C704 H720 0.931 . S
C705 C704 1.370 . S
C705 C709 1.408 . S
C706 C704 1.363 . S
C706 C707 1.370 . S
C706 C710 1.524 . S
C707 C699 1.503 . S
C707 C706 1.370 . S
C707 C708 1.403 . S
C708 C707 1.403 . S
C708 C709 1.404 . S
C708 C711 1.539 . S
C709 C705 1.408 . S
C709 C708 1.404 . S
C709 H721 0.930 . S
C710 C706 1.524 . S
C710 H722 0.956 . S
C710 H723 0.961 . S
C710 H724 0.961 . S
C711 C708 1.539 . S
C711 H725 0.958 . S
C711 H726 0.961 . S
C711 H727 0.960 . S
H712 C696 0.931 . S
H713 C701 0.929 . S
H714 C702 0.960 . S
H715 C702 0.962 . S
H716 C702 0.960 . S
H717 C703 0.961 . S
H718 C703 0.961 . S
H719 C703 0.961 . S
H720 C704 0.931 . S
H721 C709 0.930 . S
H722 C710 0.956 . S
H723 C710 0.961 . S
H724 C710 0.961 . S
H725 C711 0.958 . S
H726 C711 0.961 . S
H727 C711 0.960 . S
C728 C729 1.391 . S
C728 C730 1.394 . S
C728 H744 0.931 . S
C729 C728 1.391 . S
C729 C733 1.376 . S
C730 C728 1.394 . S
C730 C731 1.369 . S
C730 C734 1.531 . S
C731 C730 1.369 . S
C731 C732 1.410 . S
C731 C739 1.503 . S
C732 C731 1.410 . S
C732 C733 1.392 . S
C732 C735 1.511 . S
C733 C729 1.376 . S
C733 C732 1.392 . S
C733 H745 0.929 . S
C734 C730 1.531 . S
C734 H746 0.960 . S
C734 H747 0.962 . S
C734 H748 0.960 . S
C735 C732 1.511 . S
C735 H749 0.961 . S
C735 H750 0.961 . S
C735 H751 0.961 . S
C736 C737 1.370 . S
C736 C738 1.363 . S
C736 H752 0.931 . S
C737 C736 1.370 . S
C737 C741 1.408 . S
C738 C736 1.363 . S
C738 C739 1.370 . S
C738 C742 1.524 . S
C739 C731 1.503 . S
C739 C738 1.370 . S
C739 C740 1.403 . S
C740 C739 1.403 . S
C740 C741 1.404 . S
C740 C743 1.539 . S
C741 C737 1.408 . S
C741 C740 1.404 . S
C741 H753 0.930 . S
C742 C738 1.524 . S
C742 H754 0.956 . S
C742 H755 0.961 . S
C742 H756 0.961 . S
C743 C740 1.539 . S
C743 H757 0.958 . S
C743 H758 0.961 . S
C743 H759 0.960 . S
H744 C728 0.931 . S
H745 C733 0.929 . S
H746 C734 0.960 . S
H747 C734 0.962 . S
H748 C734 0.960 . S
H749 C735 0.961 . S
H750 C735 0.961 . S
H751 C735 0.961 . S
H752 C736 0.931 . S
H753 C741 0.930 . S
H754 C742 0.956 . S
H755 C742 0.961 . S
H756 C742 0.961 . S
H757 C743 0.958 . S
H758 C743 0.961 . S
H759 C743 0.960 . S
C760 C761 1.391 . S
C760 C762 1.394 . S
C760 H776 0.931 . S
C761 C760 1.391 . S
C761 C765 1.376 . S
C762 C760 1.394 . S
C762 C763 1.369 . S
C762 C766 1.531 . S
C763 C762 1.369 . S
C763 C764 1.410 . S
C763 C771 1.503 . S
C764 C763 1.410 . S
C764 C765 1.392 . S
C764 C767 1.511 . S
C765 C761 1.376 . S
C765 C764 1.392 . S
C765 H777 0.929 . S
C766 C762 1.531 . S
C766 H778 0.960 . S
C766 H779 0.962 . S
C766 H780 0.960 . S
C767 C764 1.511 . S
C767 H781 0.961 . S
C767 H782 0.961 . S
C767 H783 0.961 . S
C768 C769 1.370 . S
C768 C770 1.363 . S
C768 H784 0.931 . S
C769 C768 1.370 . S
C769 C773 1.408 . S
C770 C768 1.363 . S
C770 C771 1.370 . S
C770 C774 1.524 . S
C771 C763 1.503 . S
C771 C770 1.370 . S
C771 C772 1.403 . S
C772 C771 1.403 . S
C772 C773 1.404 . S
C772 C775 1.539 . S
C773 C769 1.408 . S
C773 C772 1.404 . S
C773 H785 0.930 . S
C774 C770 1.524 . S
C774 H786 0.956 . S
C774 H787 0.961 . S
C774 H788 0.961 . S
C775 C772 1.539 . S
C775 H789 0.958 . S
C775 H790 0.961 . S
C775 H791 0.960 . S
H776 C760 0.931 . S
H777 C765 0.929 . S
H778 C766 0.960 . S
H779 C766 0.962 . S
H780 C766 0.960 . S
H781 C767 0.961 . S
H782 C767 0.961 . S
H783 C767 0.961 . S
H784 C768 0.931 . S
H785 C773 0.930 . S
H786 C774 0.956 . S
H787 C774 0.961 . S
H788 C774 0.961 . S
H789 C775 0.958 . S
H790 C775 0.961 . S
H791 C775 0.960 . S
C792 C793 1.391 . S
C792 C794 1.394 . S
C792 H808 0.931 . S
C793 C792 1.391 . S
C793 C797 1.376 . S
C794 C792 1.394 . S
C794 C795 1.369 . S
C794 C798 1.531 . S
C795 C794 1.369 . S
C795 C796 1.410 . S
C795 C803 1.503 . S
C796 C795 1.410 . S
C796 C797 1.392 . S
C796 C799 1.511 . S
C797 C793 1.376 . S
C797 C796 1.392 . S
C797 H809 0.929 . S
C798 C794 1.531 . S
C798 H810 0.960 . S
C798 H811 0.962 . S
C798 H812 0.960 . S
C799 C796 1.511 . S
C799 H813 0.961 . S
C799 H814 0.961 . S
C799 H815 0.961 . S
C800 C801 1.370 . S
C800 C802 1.363 . S
C800 H816 0.931 . S
C801 C800 1.370 . S
C801 C805 1.408 . S
C802 C800 1.363 . S
C802 C803 1.370 . S
C802 C806 1.524 . S
C803 C795 1.503 . S
C803 C802 1.370 . S
C803 C804 1.403 . S
C804 C803 1.403 . S
C804 C805 1.404 . S
C804 C807 1.539 . S
C805 C801 1.408 . S
C805 C804 1.404 . S
C805 H817 0.930 . S
C806 C802 1.524 . S
C806 H818 0.956 . S
C806 H819 0.961 . S
C806 H820 0.961 . S
C807 C804 1.539 . S
C807 H821 0.958 . S
C807 H822 0.961 . S
C807 H823 0.960 . S
H808 C792 0.931 . S
H809 C797 0.929 . S
H810 C798 0.960 . S
H811 C798 0.962 . S
H812 C798 0.960 . S
H813 C799 0.961 . S
H814 C799 0.961 . S
H815 C799 0.961 . S
H816 C800 0.931 . S
H817 C805 0.930 . S
H818 C806 0.956 . S
H819 C806 0.961 . S
H820 C806 0.961 . S
H821 C807 0.958 . S
H822 C807 0.961 . S
H823 C807 0.960 . S
C824 C825 1.391 . S
C824 C826 1.394 . S
C824 H840 0.931 . S
C825 C824 1.391 . S
C825 C829 1.376 . S
C826 C824 1.394 . S
C826 C827 1.369 . S
C826 C830 1.531 . S
C827 C826 1.369 . S
C827 C828 1.410 . S
C827 C835 1.503 . S
C828 C827 1.410 . S
C828 C829 1.392 . S
C828 C831 1.511 . S
C829 C825 1.376 . S
C829 C828 1.392 . S
C829 H841 0.929 . S
C830 C826 1.531 . S
C830 H842 0.960 . S
C830 H843 0.962 . S
C830 H844 0.960 . S
C831 C828 1.511 . S
C831 H845 0.961 . S
C831 H846 0.961 . S
C831 H847 0.961 . S
C832 C833 1.370 . S
C832 C834 1.363 . S
C832 H848 0.931 . S
C833 C832 1.370 . S
C833 C837 1.408 . S
C834 C832 1.363 . S
C834 C835 1.370 . S
C834 C838 1.524 . S
C835 C827 1.503 . S
C835 C834 1.370 . S
C835 C836 1.403 . S
C836 C835 1.403 . S
C836 C837 1.404 . S
C836 C839 1.539 . S
C837 C833 1.408 . S
C837 C836 1.404 . S
C837 H849 0.930 . S
C838 C834 1.524 . S
C838 H850 0.956 . S
C838 H851 0.961 . S
C838 H852 0.961 . S
C839 C836 1.539 . S
C839 H853 0.958 . S
C839 H854 0.961 . S
C839 H855 0.960 . S
H840 C824 0.931 . S
H841 C829 0.929 . S
H842 C830 0.960 . S
H843 C830 0.962 . S
H844 C830 0.960 . S
H845 C831 0.961 . S
H846 C831 0.961 . S
H847 C831 0.961 . S
H848 C832 0.931 . S
H849 C837 0.930 . S
H850 C838 0.956 . S
H851 C838 0.961 . S
H852 C838 0.961 . S
H853 C839 0.958 . S
H854 C839 0.961 . S
H855 C839 0.960 . S
C856 C857 1.391 . S
C856 C858 1.394 . S
C856 H872 0.931 . S
C857 C856 1.391 . S
C857 C861 1.376 . S
C858 C856 1.394 . S
C858 C859 1.369 . S
C858 C862 1.531 . S
C859 C858 1.369 . S
C859 C860 1.410 . S
C859 C867 1.503 . S
C860 C859 1.410 . S
C860 C861 1.392 . S
C860 C863 1.511 . S
C861 C857 1.376 . S
C861 C860 1.392 . S
C861 H873 0.929 . S
C862 C858 1.531 . S
C862 H874 0.960 . S
C862 H875 0.962 . S
C862 H876 0.960 . S
C863 C860 1.511 . S
C863 H877 0.961 . S
C863 H878 0.961 . S
C863 H879 0.961 . S
C864 C865 1.370 . S
C864 C866 1.363 . S
C864 H880 0.931 . S
C865 C864 1.370 . S
C865 C869 1.408 . S
C866 C864 1.363 . S
C866 C867 1.370 . S
C866 C870 1.524 . S
C867 C859 1.503 . S
C867 C866 1.370 . S
C867 C868 1.403 . S
C868 C867 1.403 . S
C868 C869 1.404 . S
C868 C871 1.539 . S
C869 C865 1.408 . S
C869 C868 1.404 . S
C869 H881 0.930 . S
C870 C866 1.524 . S
C870 H882 0.956 . S
C870 H883 0.961 . S
C870 H884 0.961 . S
C871 C868 1.539 . S
C871 H885 0.958 . S
C871 H886 0.961 . S
C871 H887 0.960 . S
H872 C856 0.931 . S
H873 C861 0.929 . S
H874 C862 0.960 . S
H875 C862 0.962 . S
H876 C862 0.960 . S
H877 C863 0.961 . S
H878 C863 0.961 . S
H879 C863 0.961 . S
H880 C864 0.931 . S
H881 C869 0.930 . S
H882 C870 0.956 . S
H883 C870 0.961 . S
H884 C870 0.961 . S
H885 C871 0.958 . S
H886 C871 0.961 . S
H887 C871 0.960 . S
C888 C889 1.391 . S
C888 C890 1.394 . S
C888 H904 0.931 . S
C889 C888 1.391 . S
C889 C893 1.376 . S
C890 C888 1.394 . S
C890 C891 1.369 . S
C890 C894 1.531 . S
C891 C890 1.369 . S
C891 C892 1.410 . S
C891 C899 1.503 . S
C892 C891 1.410 . S
C892 C893 1.392 . S
C892 C895 1.511 . S
C893 C889 1.376 . S
C893 C892 1.392 . S
C893 H905 0.929 . S
C894 C890 1.531 . S
C894 H906 0.960 . S
C894 H907 0.962 . S
C894 H908 0.960 . S
C895 C892 1.511 . S
C895 H909 0.961 . S
C895 H910 0.961 . S
C895 H911 0.961 . S
C896 C897 1.370 . S
C896 C898 1.363 . S
C896 H912 0.931 . S
C897 C896 1.370 . S
C897 C901 1.408 . S
C898 C896 1.363 . S
C898 C899 1.370 . S
C898 C902 1.524 . S
C899 C891 1.503 . S
C899 C898 1.370 . S
C899 C900 1.403 . S
C900 C899 1.403 . S
C900 C901 1.404 . S
C900 C903 1.539 . S
C901 C897 1.408 . S
C901 C900 1.404 . S
C901 H913 0.930 . S
C902 C898 1.524 . S
C902 H914 0.956 . S
C902 H915 0.961 . S
C902 H916 0.961 . S
C903 C900 1.539 . S
C903 H917 0.958 . S
C903 H918 0.961 . S
C903 H919 0.960 . S
H904 C888 0.931 . S
H905 C893 0.929 . S
H906 C894 0.960 . S
H907 C894 0.962 . S
H908 C894 0.960 . S
H909 C895 0.961 . S
H910 C895 0.961 . S
H911 C895 0.961 . S
H912 C896 0.931 . S
H913 C901 0.930 . S
H914 C902 0.956 . S
H915 C902 0.961 . S
H916 C902 0.961 . S
H917 C903 0.958 . S
H918 C903 0.961 . S
H919 C903 0.960 . S
C920 C921 1.391 . S
C920 C922 1.394 . S
C920 H936 0.931 . S
C921 C920 1.391 . S
C921 C925 1.376 . S
C922 C920 1.394 . S
C922 C923 1.369 . S
C922 C926 1.531 . S
C923 C922 1.369 . S
C923 C924 1.410 . S
C923 C931 1.503 . S
C924 C923 1.410 . S
C924 C925 1.392 . S
C924 C927 1.511 . S
C925 C921 1.376 . S
C925 C924 1.392 . S
C925 H937 0.929 . S
C926 C922 1.531 . S
C926 H938 0.960 . S
C926 H939 0.962 . S
C926 H940 0.960 . S
C927 C924 1.511 . S
C927 H941 0.961 . S
C927 H942 0.961 . S
C927 H943 0.961 . S
C928 C929 1.370 . S
C928 C930 1.363 . S
C928 H944 0.931 . S
C929 C928 1.370 . S
C929 C933 1.408 . S
C930 C928 1.363 . S
C930 C931 1.370 . S
C930 C934 1.524 . S
C931 C923 1.503 . S
C931 C930 1.370 . S
C931 C932 1.403 . S
C932 C931 1.403 . S
C932 C933 1.404 . S
C932 C935 1.539 . S
C933 C929 1.408 . S
C933 C932 1.404 . S
C933 H945 0.930 . S
C934 C930 1.524 . S
C934 H946 0.956 . S
C934 H947 0.961 . S
C934 H948 0.961 . S
C935 C932 1.539 . S
C935 H949 0.958 . S
C935 H950 0.961 . S
C935 H951 0.960 . S
H936 C920 0.931 . S
H937 C925 0.929 . S
H938 C926 0.960 . S
H939 C926 0.962 . S
H940 C926 0.960 . S
H941 C927 0.961 . S
H942 C927 0.961 . S
H943 C927 0.961 . S
H944 C928 0.931 . S
H945 C933 0.930 . S
H946 C934 0.956 . S
H947 C934 0.961 . S
H948 C934 0.961 . S
H949 C935 0.958 . S
H950 C935 0.961 . S
H951 C935 0.960 . S
C952 C953 1.391 . S
C952 C954 1.394 . S
C952 H968 0.931 . S
C953 C952 1.391 . S
C953 C957 1.376 . S
C954 C952 1.394 . S
C954 C955 1.369 . S
C954 C958 1.531 . S
C955 C954 1.369 . S
C955 C956 1.410 . S
C955 C963 1.503 . S
C956 C955 1.410 . S
C956 C957 1.392 . S
C956 C959 1.511 . S
C957 C953 1.376 . S
C957 C956 1.392 . S
C957 H969 0.929 . S
C958 C954 1.531 . S
C958 H970 0.960 . S
C958 H971 0.962 . S
C958 H972 0.960 . S
C959 C956 1.511 . S
C959 H973 0.961 . S
C959 H974 0.961 . S
C959 H975 0.961 . S
C960 C961 1.370 . S
C960 C962 1.363 . S
C960 H976 0.931 . S
C961 C960 1.370 . S
C961 C965 1.408 . S
C962 C960 1.363 . S
C962 C963 1.370 . S
C962 C966 1.524 . S
C963 C955 1.503 . S
C963 C962 1.370 . S
C963 C964 1.403 . S
C964 C963 1.403 . S
C964 C965 1.404 . S
C964 C967 1.539 . S
C965 C961 1.408 . S
C965 C964 1.404 . S
C965 H977 0.930 . S
C966 C962 1.524 . S
C966 H978 0.956 . S
C966 H979 0.961 . S
C966 H980 0.961 . S
C967 C964 1.539 . S
C967 H981 0.958 . S
C967 H982 0.961 . S
C967 H983 0.960 . S
H968 C952 0.931 . S
H969 C957 0.929 . S
H970 C958 0.960 . S
H971 C958 0.962 . S
H972 C958 0.960 . S
H973 C959 0.961 . S
H974 C959 0.961 . S
H975 C959 0.961 . S
H976 C960 0.931 . S
H977 C965 0.930 . S
H978 C966 0.956 . S
H979 C966 0.961 . S
H980 C966 0.961 . S
H981 C967 0.958 . S
H982 C967 0.961 . S
H983 C967 0.960 . S
C984 C985 1.391 . S
C984 C986 1.394 . S
C984 H1000 0.931 . S
C985 C984 1.391 . S
C985 C989 1.376 . S
C986 C984 1.394 . S
C986 C987 1.369 . S
C986 C990 1.531 . S
C987 C986 1.369 . S
C987 C988 1.410 . S
C987 C995 1.503 . S
C988 C987 1.410 . S
C988 C989 1.392 . S
C988 C991 1.511 . S
C989 C985 1.376 . S
C989 C988 1.392 . S
C989 H1001 0.929 . S
C990 C986 1.531 . S
C990 H1002 0.960 . S
C990 H1003 0.962 . S
C990 H1004 0.960 . S
C991 C988 1.511 . S
C991 H1005 0.961 . S
C991 H1006 0.961 . S
C991 H1007 0.961 . S
C992 C993 1.370 . S
C992 C994 1.363 . S
C992 H1008 0.931 . S
C993 C992 1.370 . S
C993 C997 1.408 . S
C994 C992 1.363 . S
C994 C995 1.370 . S
C994 C998 1.524 . S
C995 C987 1.503 . S
C995 C994 1.370 . S
C995 C996 1.403 . S
C996 C995 1.403 . S
C996 C997 1.404 . S
C996 C999 1.539 . S
C997 C993 1.408 . S
C997 C996 1.404 . S
C997 H1009 0.930 . S
C998 C994 1.524 . S
C998 H1010 0.956 . S
C998 H1011 0.961 . S
C998 H1012 0.961 . S
C999 C996 1.539 . S
C999 H1013 0.958 . S
C999 H1014 0.961 . S
C999 H1015 0.960 . S
H1000 C984 0.931 . S
H1001 C989 0.929 . S
H1002 C990 0.960 . S
H1003 C990 0.962 . S
H1004 C990 0.960 . S
H1005 C991 0.961 . S
H1006 C991 0.961 . S
H1007 C991 0.961 . S
H1008 C992 0.931 . S
H1009 C997 0.930 . S
H1010 C998 0.956 . S
H1011 C998 0.961 . S
H1012 C998 0.961 . S
H1013 C999 0.958 . S
H1014 C999 0.961 . S
H1015 C999 0.960 . S
C1016 C1017 1.391 . S
C1016 C1018 1.394 . S
C1016 H1032 0.931 . S
C1017 C1016 1.391 . S
C1017 C1021 1.376 . S
C1018 C1016 1.394 . S
C1018 C1019 1.369 . S
C1018 C1022 1.531 . S
C1019 C1018 1.369 . S
C1019 C1020 1.410 . S
C1019 C1027 1.503 . S
C1020 C1019 1.410 . S
C1020 C1021 1.392 . S
C1020 C1023 1.511 . S
C1021 C1017 1.376 . S
C1021 C1020 1.392 . S
C1021 H1033 0.929 . S
C1022 C1018 1.531 . S
C1022 H1034 0.960 . S
C1022 H1035 0.962 . S
C1022 H1036 0.960 . S
C1023 C1020 1.511 . S
C1023 H1037 0.961 . S
C1023 H1038 0.961 . S
C1023 H1039 0.961 . S
C1024 C1025 1.370 . S
C1024 C1026 1.363 . S
C1024 H1040 0.931 . S
C1025 C1024 1.370 . S
C1025 C1029 1.408 . S
C1026 C1024 1.363 . S
C1026 C1027 1.370 . S
C1026 C1030 1.524 . S
C1027 C1019 1.503 . S
C1027 C1026 1.370 . S
C1027 C1028 1.403 . S
C1028 C1027 1.403 . S
C1028 C1029 1.404 . S
C1028 C1031 1.539 . S
C1029 C1025 1.408 . S
C1029 C1028 1.404 . S
C1029 H1041 0.930 . S
C1030 C1026 1.524 . S
C1030 H1042 0.956 . S
C1030 H1043 0.961 . S
C1030 H1044 0.961 . S
C1031 C1028 1.539 . S
C1031 H1045 0.958 . S
C1031 H1046 0.961 . S
C1031 H1047 0.960 . S
H1032 C1016 0.931 . S
H1033 C1021 0.929 . S
H1034 C1022 0.960 . S
H1035 C1022 0.962 . S
H1036 C1022 0.960 . S
H1037 C1023 0.961 . S
H1038 C1023 0.961 . S
H1039 C1023 0.961 . S
H1040 C1024 0.931 . S
H1041 C1029 0.930 . S
H1042 C1030 0.956 . S
H1043 C1030 0.961 . S
H1044 C1030 0.961 . S
H1045 C1031 0.958 . S
H1046 C1031 0.961 . S
H1047 C1031 0.960 . S
C1048 C1049 1.391 . S
C1048 C1050 1.394 . S
C1048 H1064 0.931 . S
C1049 C1048 1.391 . S
C1049 C1053 1.376 . S
C1050 C1048 1.394 . S
C1050 C1051 1.369 . S
C1050 C1054 1.531 . S
C1051 C1050 1.369 . S
C1051 C1052 1.410 . S
C1051 C1059 1.503 . S
C1052 C1051 1.410 . S
C1052 C1053 1.392 . S
C1052 C1055 1.511 . S
C1053 C1049 1.376 . S
C1053 C1052 1.392 . S
C1053 H1065 0.929 . S
C1054 C1050 1.531 . S
C1054 H1066 0.960 . S
C1054 H1067 0.962 . S
C1054 H1068 0.960 . S
C1055 C1052 1.511 . S
C1055 H1069 0.961 . S
C1055 H1070 0.961 . S
C1055 H1071 0.961 . S
C1056 C1057 1.370 . S
C1056 C1058 1.363 . S
C1056 H1072 0.931 . S
C1057 C1056 1.370 . S
C1057 C1061 1.408 . S
C1058 C1056 1.363 . S
C1058 C1059 1.370 . S
C1058 C1062 1.524 . S
C1059 C1051 1.503 . S
C1059 C1058 1.370 . S
C1059 C1060 1.403 . S
C1060 C1059 1.403 . S
C1060 C1061 1.404 . S
C1060 C1063 1.539 . S
C1061 C1057 1.408 . S
C1061 C1060 1.404 . S
C1061 H1073 0.930 . S
C1062 C1058 1.524 . S
C1062 H1074 0.956 . S
C1062 H1075 0.961 . S
C1062 H1076 0.961 . S
C1063 C1060 1.539 . S
C1063 H1077 0.958 . S
C1063 H1078 0.961 . S
C1063 H1079 0.960 . S
H1064 C1048 0.931 . S
H1065 C1053 0.929 . S
H1066 C1054 0.960 . S
H1067 C1054 0.962 . S
H1068 C1054 0.960 . S
H1069 C1055 0.961 . S
H1070 C1055 0.961 . S
H1071 C1055 0.961 . S
H1072 C1056 0.931 . S
H1073 C1061 0.930 . S
H1074 C1062 0.956 . S
H1075 C1062 0.961 . S
H1076 C1062 0.961 . S
H1077 C1063 0.958 . S
H1078 C1063 0.961 . S
H1079 C1063 0.960 . S
C1080 C1081 1.391 . S
C1080 C1082 1.394 . S
C1080 H1096 0.931 . S
C1081 C1080 1.391 . S
C1081 C1085 1.376 . S
C1082 C1080 1.394 . S
C1082 C1083 1.369 . S
C1082 C1086 1.531 . S
C1083 C1082 1.369 . S
C1083 C1084 1.410 . S
C1083 C1091 1.503 1_455 S
C1084 C1083 1.410 . S
C1084 C1085 1.392 . S
C1084 C1087 1.511 . S
C1085 C1081 1.376 . S
C1085 C1084 1.392 . S
C1085 H1097 0.929 . S
C1086 C1082 1.531 . S
C1086 H1098 0.960 1_455 S
C1086 H1099 0.974 . S
C1086 H1100 0.960 . S
C1087 C1084 1.511 . S
C1087 H1101 0.961 . S
C1087 H1102 0.961 . S
C1087 H1103 0.961 . S
C1088 C1089 1.370 . S
C1088 C1090 1.363 . S
C1088 H1104 0.931 . S
C1089 C1088 1.370 . S
C1089 C1093 1.408 . S
C1090 C1088 1.363 . S
C1090 C1091 1.370 . S
C1090 C1094 1.524 . S
C1091 C1083 1.503 1_655 S
C1091 C1090 1.370 . S
C1091 C1092 1.403 . S
C1092 C1091 1.403 . S
C1092 C1093 1.404 . S
C1092 C1095 1.539 . S
C1093 C1089 1.408 . S
C1093 C1092 1.404 . S
C1093 H1105 0.930 . S
C1094 C1090 1.524 . S
C1094 H1106 0.956 . S
C1094 H1107 0.961 1_655 S
C1094 H1108 0.961 . S
C1095 C1092 1.539 . S
C1095 H1109 0.958 . S
C1095 H1110 0.961 . S
C1095 H1111 0.960 1_655 S
H1096 C1080 0.931 . S
H1097 C1085 0.929 . S
H1098 C1086 0.960 1_655 S
H1099 C1086 0.974 . S
H1100 C1086 0.960 . S
H1101 C1087 0.961 . S
H1102 C1087 0.961 . S
H1103 C1087 0.961 . S
H1104 C1088 0.931 . S
H1105 C1093 0.930 . S
H1106 C1094 0.956 . S
H1107 C1094 0.961 1_455 S
H1108 C1094 0.961 . S
H1109 C1095 0.958 . S
H1110 C1095 0.961 . S
H1111 C1095 0.960 1_455 S
C1112 C1113 1.391 . S
C1112 C1114 1.394 . S
C1112 H1128 0.931 . S
C1113 C1112 1.391 . S
C1113 C1117 1.376 . S
C1114 C1112 1.394 . S
C1114 C1115 1.369 . S
C1114 C1118 1.531 . S
C1115 C1114 1.369 . S
C1115 C1116 1.410 . S
C1115 C1123 1.503 1_545 S
C1116 C1115 1.410 . S
C1116 C1117 1.392 . S
C1116 C1119 1.511 . S
C1117 C1113 1.376 . S
C1117 C1116 1.392 . S
C1117 H1129 0.929 . S
C1118 C1114 1.531 . S
C1118 H1130 0.960 . S
C1118 H1131 0.962 . S
C1118 H1132 0.960 . S
C1119 C1116 1.511 . S
C1119 H1133 0.961 . S
C1119 H1134 0.961 1_545 S
C1119 H1135 0.961 . S
C1120 C1121 1.370 . S
C1120 C1122 1.363 . S
C1120 H1136 0.931 . S
C1121 C1120 1.370 . S
C1121 C1125 1.408 . S
C1122 C1120 1.363 . S
C1122 C1123 1.370 . S
C1122 C1126 1.524 . S
C1123 C1115 1.503 1_565 S
C1123 C1122 1.370 . S
C1123 C1124 1.403 . S
C1124 C1123 1.403 . S
C1124 C1125 1.404 . S
C1124 C1127 1.539 . S
C1125 C1121 1.408 . S
C1125 C1124 1.404 . S
C1125 H1137 0.930 . S
C1126 C1122 1.524 . S
C1126 H1138 0.956 . S
C1126 H1139 0.961 . S
C1126 H1140 0.961 . S
C1127 C1124 1.539 . S
C1127 H1141 0.958 . S
C1127 H1142 0.961 . S
C1127 H1143 0.960 1_565 S
H1128 C1112 0.931 . S
H1129 C1117 0.929 . S
H1130 C1118 0.960 . S
H1131 C1118 0.962 . S
H1132 C1118 0.960 . S
H1133 C1119 0.961 . S
H1134 C1119 0.961 1_565 S
H1135 C1119 0.961 . S
H1136 C1120 0.931 . S
H1137 C1125 0.930 . S
H1138 C1126 0.956 . S
H1139 C1126 0.961 . S
H1140 C1126 0.961 . S
H1141 C1127 0.958 . S
H1142 C1127 0.961 . S
H1143 C1127 0.960 1_545 S
C1144 C1145 1.391 . S
C1144 C1146 1.394 . S
C1144 H1160 0.931 . S
C1145 C1144 1.391 . S
C1145 C1149 1.376 . S
C1146 C1144 1.394 . S
C1146 C1147 1.369 . S
C1146 C1150 1.531 . S
C1147 C1146 1.369 . S
C1147 C1148 1.410 . S
C1147 C1155 1.503 1_655 S
C1148 C1147 1.410 . S
C1148 C1149 1.392 . S
C1148 C1151 1.511 . S
C1149 C1145 1.376 . S
C1149 C1148 1.392 . S
C1149 H1161 0.929 . S
C1150 C1146 1.531 . S
C1150 H1162 0.960 1_655 S
C1150 H1163 0.962 . S
C1150 H1164 0.960 . S
C1151 C1148 1.511 . S
C1151 H1165 0.961 . S
C1151 H1166 0.961 1_655 S
C1151 H1167 0.961 . S
C1152 C1153 1.370 . S
C1152 C1154 1.363 . S
C1152 H1168 0.931 . S
C1153 C1152 1.370 . S
C1153 C1157 1.408 . S
C1154 C1152 1.363 . S
C1154 C1155 1.370 . S
C1154 C1158 1.524 . S
C1155 C1147 1.503 1_455 S
C1155 C1154 1.370 . S
C1155 C1156 1.403 . S
C1156 C1155 1.403 . S
C1156 C1157 1.404 . S
C1156 C1159 1.539 . S
C1157 C1153 1.408 . S
C1157 C1156 1.404 . S
C1157 H1169 0.930 . S
C1158 C1154 1.524 . S
C1158 H1170 0.956 1_455 S
C1158 H1171 0.961 1_455 S
C1158 H1172 0.961 . S
C1159 C1156 1.539 . S
C1159 H1173 0.958 . S
C1159 H1174 0.961 . S
C1159 H1175 0.960 . S
H1160 C1144 0.931 . S
H1161 C1149 0.929 . S
H1162 C1150 0.960 1_455 S
H1163 C1150 0.962 . S
H1164 C1150 0.960 . S
H1165 C1151 0.961 . S
H1166 C1151 0.961 1_455 S
H1167 C1151 0.961 . S
H1168 C1152 0.931 . S
H1169 C1157 0.930 . S
H1170 C1158 0.956 1_655 S
H1171 C1158 0.961 1_655 S
H1172 C1158 0.961 . S
H1173 C1159 0.958 . S
H1174 C1159 0.961 . S
H1175 C1159 0.960 . S
C1176 C1177 1.391 . S
C1176 C1178 1.394 . S
C1176 H1192 0.931 . S
C1177 C1176 1.391 . S
C1177 C1181 1.376 . S
C1178 C1176 1.394 . S
C1178 C1179 1.369 . S
C1178 C1182 1.531 . S
C1179 C1178 1.369 . S
C1179 C1180 1.410 . S
C1179 C1187 1.503 1_545 S
C1180 C1179 1.410 . S
C1180 C1181 1.392 . S
C1180 C1183 1.511 . S
C1181 C1177 1.376 . S
C1181 C1180 1.392 . S
C1181 H1193 0.929 . S
C1182 C1178 1.531 . S
C1182 H1194 0.960 1_545 S
C1182 H1195 0.962 . S
C1182 H1196 0.960 . S
C1183 C1180 1.511 . S
C1183 H1197 0.961 . S
C1183 H1198 0.961 . S
C1183 H1199 0.961 . S
C1184 C1185 1.370 . S
C1184 C1186 1.363 . S
C1184 H1200 0.931 . S
C1185 C1184 1.370 . S
C1185 C1189 1.408 . S
C1186 C1184 1.363 . S
C1186 C1187 1.370 . S
C1186 C1190 1.524 . S
C1187 C1179 1.503 1_565 S
C1187 C1186 1.370 . S
C1187 C1188 1.403 . S
C1188 C1187 1.403 . S
C1188 C1189 1.404 . S
C1188 C1191 1.539 . S
C1189 C1185 1.408 . S
C1189 C1188 1.404 . S
C1189 H1201 0.930 . S
C1190 C1186 1.524 . S
C1190 H1202 0.956 . S
C1190 H1203 0.961 1_565 S
C1190 H1204 0.961 . S
C1191 C1188 1.539 . S
C1191 H1205 0.958 . S
C1191 H1206 0.961 . S
C1191 H1207 0.942 1_565 S
H1192 C1176 0.931 . S
H1193 C1181 0.929 . S
H1194 C1182 0.960 1_565 S
H1195 C1182 0.962 . S
H1196 C1182 0.960 . S
H1197 C1183 0.961 . S
H1198 C1183 0.961 . S
H1199 C1183 0.961 . S
H1200 C1184 0.931 . S
H1201 C1189 0.930 . S
H1202 C1190 0.956 . S
H1203 C1190 0.961 1_545 S
H1204 C1190 0.961 . S
H1205 C1191 0.958 . S
H1206 C1191 0.961 . S
H1207 C1191 0.942 1_545 S
C1208 C1209 1.391 . S
C1208 C1210 1.394 . S
C1208 H1224 0.931 . S
C1209 C1208 1.391 . S
C1209 C1213 1.376 . S
C1210 C1208 1.394 . S
C1210 C1211 1.369 . S
C1210 C1214 1.531 . S
C1211 C1210 1.369 . S
C1211 C1212 1.410 . S
C1211 C1219 1.503 1_565 S
C1212 C1211 1.410 . S
C1212 C1213 1.392 . S
C1212 C1215 1.511 . S
C1213 C1209 1.376 . S
C1213 C1212 1.392 . S
C1213 H1225 0.929 . S
C1214 C1210 1.531 . S
C1214 H1226 0.960 . S
C1214 H1227 0.962 . S
C1214 H1228 0.960 . S
C1215 C1212 1.511 . S
C1215 H1229 0.961 . S
C1215 H1230 0.961 1_565 S
C1215 H1231 0.961 . S
C1216 C1217 1.370 . S
C1216 C1218 1.363 . S
C1216 H1232 0.931 . S
C1217 C1216 1.370 . S
C1217 C1221 1.408 . S
C1218 C1216 1.363 . S
C1218 C1219 1.370 . S
C1218 C1222 1.524 . S
C1219 C1211 1.503 1_545 S
C1219 C1218 1.370 . S
C1219 C1220 1.403 . S
C1220 C1219 1.403 . S
C1220 C1221 1.404 . S
C1220 C1223 1.539 . S
C1221 C1217 1.408 . S
C1221 C1220 1.404 . S
C1221 H1233 0.930 . S
C1222 C1218 1.524 . S
C1222 H1234 0.941 1_545 S
C1222 H1235 0.961 . S
C1222 H1236 0.961 . S
C1223 C1220 1.539 . S
C1223 H1237 0.958 . S
C1223 H1238 0.961 . S
C1223 H1239 0.998 . S
H1224 C1208 0.931 . S
H1225 C1213 0.929 . S
H1226 C1214 0.960 . S
H1227 C1214 0.962 . S
H1228 C1214 0.960 . S
H1229 C1215 0.961 . S
H1230 C1215 0.961 1_545 S
H1231 C1215 0.961 . S
H1232 C1216 0.931 . S
H1233 C1221 0.930 . S
H1234 C1222 0.941 1_565 S
H1235 C1222 0.961 . S
H1236 C1222 0.961 . S
H1237 C1223 0.958 . S
H1238 C1223 0.961 . S
H1239 C1223 0.998 . S
C1240 C1241 1.391 . S
C1240 C1242 1.394 . S
C1240 H1256 0.931 . S
C1241 C1240 1.391 . S
C1241 C1245 1.376 . S
C1242 C1240 1.394 . S
C1242 C1243 1.369 . S
C1242 C1246 1.531 . S
C1243 C1242 1.369 . S
C1243 C1244 1.410 . S
C1243 C1251 1.503 1_655 S
C1244 C1243 1.410 . S
C1244 C1245 1.392 . S
C1244 C1247 1.511 . S
C1245 C1241 1.376 . S
C1245 C1244 1.392 . S
C1245 H1257 0.929 . S
C1246 C1242 1.531 . S
C1246 H1258 0.960 1_655 S
C1246 H1259 0.962 . S
C1246 H1260 0.960 . S
C1247 C1244 1.511 . S
C1247 H1261 0.961 . S
C1247 H1262 0.961 . S
C1247 H1263 0.961 . S
C1248 C1249 1.370 . S
C1248 C1250 1.363 . S
C1248 H1264 0.931 . S
C1249 C1248 1.370 . S
C1249 C1253 1.408 . S
C1250 C1248 1.363 . S
C1250 C1251 1.370 . S
C1250 C1254 1.524 . S
C1251 C1243 1.503 1_455 S
C1251 C1250 1.370 . S
C1251 C1252 1.403 . S
C1252 C1251 1.403 . S
C1252 C1253 1.404 . S
C1252 C1255 1.539 . S
C1253 C1249 1.408 . S
C1253 C1252 1.404 . S
C1253 H1265 0.930 . S
C1254 C1250 1.524 . S
C1254 H1266 0.956 . S
C1254 H1267 0.964 1_455 S
C1254 H1268 0.961 . S
C1255 C1252 1.539 . S
C1255 H1269 0.958 . S
C1255 H1270 0.961 . S
C1255 H1271 0.960 1_455 S
H1256 C1240 0.931 . S
H1257 C1245 0.929 . S
H1258 C1246 0.960 1_455 S
H1259 C1246 0.962 . S
H1260 C1246 0.960 . S
H1261 C1247 0.961 . S
H1262 C1247 0.961 . S
H1263 C1247 0.961 . S
H1264 C1248 0.931 . S
H1265 C1253 0.930 . S
H1266 C1254 0.956 . S
H1267 C1254 0.964 1_655 S
H1268 C1254 0.961 . S
H1269 C1255 0.958 . S
H1270 C1255 0.961 . S
H1271 C1255 0.960 1_655 S
C1272 C1273 1.391 . S
C1272 C1274 1.394 . S
C1272 H1288 0.931 . S
C1273 C1272 1.391 . S
C1273 C1277 1.376 . S
C1274 C1272 1.394 . S
C1274 C1275 1.369 . S
C1274 C1278 1.531 . S
C1275 C1274 1.369 . S
C1275 C1276 1.410 . S
C1275 C1283 1.503 1_565 S
C1276 C1275 1.410 . S
C1276 C1277 1.392 . S
C1276 C1279 1.511 . S
C1277 C1273 1.376 . S
C1277 C1276 1.392 . S
C1277 H1289 0.929 . S
C1278 C1274 1.531 . S
C1278 H1290 0.960 1_565 S
C1278 H1291 0.962 . S
C1278 H1292 0.960 . S
C1279 C1276 1.511 . S
C1279 H1293 0.961 . S
C1279 H1294 0.961 . S
C1279 H1295 0.961 . S
C1280 C1281 1.370 . S
C1280 C1282 1.363 . S
C1280 H1296 0.931 . S
C1281 C1280 1.370 . S
C1281 C1285 1.408 . S
C1282 C1280 1.363 . S
C1282 C1283 1.370 . S
C1282 C1286 1.524 . S
C1283 C1275 1.503 1_545 S
C1283 C1282 1.370 . S
C1283 C1284 1.403 . S
C1284 C1283 1.403 . S
C1284 C1285 1.404 . S
C1284 C1287 1.539 . S
C1285 C1281 1.408 . S
C1285 C1284 1.404 . S
C1285 H1297 0.930 . S
C1286 C1282 1.524 . S
C1286 H1298 0.956 . S
C1286 H1299 0.977 . S
C1286 H1300 0.961 . S
C1287 C1284 1.539 . S
C1287 H1301 0.958 . S
C1287 H1302 0.961 . S
C1287 H1303 0.960 1_545 S
H1288 C1272 0.931 . S
H1289 C1277 0.929 . S
H1290 C1278 0.960 1_545 S
H1291 C1278 0.962 . S
H1292 C1278 0.960 . S
H1293 C1279 0.961 . S
H1294 C1279 0.961 . S
H1295 C1279 0.961 . S
H1296 C1280 0.931 . S
H1297 C1285 0.930 . S
H1298 C1286 0.956 . S
H1299 C1286 0.977 . S
H1300 C1286 0.961 . S
H1301 C1287 0.958 . S
H1302 C1287 0.961 . S
H1303 C1287 0.960 1_565 S
C1304 C1305 1.391 . S
C1304 C1306 1.394 . S
C1304 H1320 0.931 . S
C1305 C1304 1.391 . S
C1305 C1309 1.376 . S
C1306 C1304 1.394 . S
C1306 C1307 1.369 . S
C1306 C1310 1.531 . S
C1307 C1306 1.369 . S
C1307 C1308 1.410 . S
C1307 C1315 1.503 1_655 S
C1308 C1307 1.410 . S
C1308 C1309 1.392 . S
C1308 C1311 1.511 . S
C1309 C1305 1.376 . S
C1309 C1308 1.392 . S
C1309 H1321 0.929 . S
C1310 C1306 1.531 . S
C1310 H1322 0.960 1_655 S
C1310 H1323 0.962 . S
C1310 H1324 0.960 . S
C1311 C1308 1.511 . S
C1311 H1325 0.961 . S
C1311 H1326 0.967 . S
C1311 H1327 0.961 . S
C1312 C1313 1.370 . S
C1312 C1314 1.363 . S
C1312 H1328 0.931 . S
C1313 C1312 1.370 . S
C1313 C1317 1.408 . S
C1314 C1312 1.363 . S
C1314 C1315 1.370 . S
C1314 C1318 1.524 . S
C1315 C1307 1.503 1_455 S
C1315 C1314 1.370 . S
C1315 C1316 1.403 . S
C1316 C1315 1.403 . S
C1316 C1317 1.404 . S
C1316 C1319 1.539 . S
C1317 C1313 1.408 . S
C1317 C1316 1.404 . S
C1317 H1329 0.930 . S
C1318 C1314 1.524 . S
C1318 H1330 0.956 . S
C1318 H1331 0.961 . S
C1318 H1332 0.961 . S
C1319 C1316 1.539 . S
C1319 H1333 0.958 . S
C1319 H1334 0.961 . S
C1319 H1335 0.960 1_455 S
H1320 C1304 0.931 . S
H1321 C1309 0.929 . S
H1322 C1310 0.960 1_455 S
H1323 C1310 0.962 . S
H1324 C1310 0.960 . S
H1325 C1311 0.961 . S
H1326 C1311 0.967 . S
H1327 C1311 0.961 . S
H1328 C1312 0.931 . S
H1329 C1317 0.930 . S
H1330 C1318 0.956 . S
H1331 C1318 0.961 . S
H1332 C1318 0.961 . S
H1333 C1319 0.958 . S
H1334 C1319 0.961 . S
H1335 C1319 0.960 1_655 S
C1336 C1337 1.391 . S
C1336 C1338 1.394 . S
C1336 H1352 0.931 . S
C1337 C1336 1.391 . S
C1337 C1341 1.376 . S
C1338 C1336 1.394 . S
C1338 C1339 1.369 . S
C1338 C1342 1.531 . S
C1339 C1338 1.369 . S
C1339 C1340 1.410 . S
C1339 C1347 1.503 1_556 S
C1340 C1339 1.410 . S
C1340 C1341 1.392 . S
C1340 C1343 1.511 . S
C1341 C1337 1.376 . S
C1341 C1340 1.392 . S
C1341 H1353 0.929 . S
C1342 C1338 1.531 . S
C1342 H1354 0.960 1_556 S
C1342 H1355 0.962 . S
C1342 H1356 0.960 . S
C1343 C1340 1.511 . S
C1343 H1357 0.961 . S
C1343 H1358 0.961 . S
C1343 H1359 0.961 . S
C1344 C1345 1.370 . S
C1344 C1346 1.363 . S
C1344 H1360 0.931 . S
C1345 C1344 1.370 . S
C1345 C1349 1.408 . S
C1346 C1344 1.363 . S
C1346 C1347 1.370 . S
C1346 C1350 1.524 . S
C1347 C1339 1.503 1_554 S
C1347 C1346 1.370 . S
C1347 C1348 1.403 . S
C1348 C1347 1.403 . S
C1348 C1349 1.404 . S
C1348 C1351 1.539 . S
C1349 C1345 1.408 . S
C1349 C1348 1.404 . S
C1349 H1361 0.930 . S
C1350 C1346 1.524 . S
C1350 H1362 0.956 1_554 S
C1350 H1363 0.961 1_554 S
C1350 H1364 0.961 . S
C1351 C1348 1.539 . S
C1351 H1365 0.958 . S
C1351 H1366 0.961 . S
C1351 H1367 0.960 . S
H1352 C1336 0.931 . S
H1353 C1341 0.929 . S
H1354 C1342 0.960 1_554 S
H1355 C1342 0.962 . S
H1356 C1342 0.960 . S
H1357 C1343 0.961 . S
H1358 C1343 0.961 . S
H1359 C1343 0.961 . S
H1360 C1344 0.931 . S
H1361 C1349 0.930 . S
H1362 C1350 0.956 1_556 S
H1363 C1350 0.961 1_556 S
H1364 C1350 0.961 . S
H1365 C1351 0.958 . S
H1366 C1351 0.961 . S
H1367 C1351 0.960 . S
C1368 C1369 1.391 . S
C1368 C1370 1.394 . S
C1368 H1384 0.931 . S
C1369 C1368 1.391 . S
C1369 C1373 1.376 . S
C1370 C1368 1.394 . S
C1370 C1371 1.369 . S
C1370 C1374 1.531 . S
C1371 C1370 1.369 . S
C1371 C1372 1.410 . S
C1371 C1379 1.503 1_556 S
C1372 C1371 1.410 . S
C1372 C1373 1.392 . S
C1372 C1375 1.511 . S
C1373 C1369 1.376 . S
C1373 C1372 1.392 . S
C1373 H1385 0.929 . S
C1374 C1370 1.531 . S
C1374 H1386 0.935 1_556 S
C1374 H1387 0.962 . S
C1374 H1388 0.960 . S
C1375 C1372 1.511 . S
C1375 H1389 0.961 . S
C1375 H1390 0.961 1_556 S
C1375 H1391 0.961 . S
C1376 C1377 1.370 . S
C1376 C1378 1.363 . S
C1376 H1392 0.931 . S
C1377 C1376 1.370 . S
C1377 C1381 1.408 . S
C1378 C1376 1.363 . S
C1378 C1379 1.370 . S
C1378 C1382 1.524 . S
C1379 C1371 1.503 1_554 S
C1379 C1378 1.370 . S
C1379 C1380 1.403 . S
C1380 C1379 1.403 . S
C1380 C1381 1.404 . S
C1380 C1383 1.539 . S
C1381 C1377 1.408 . S
C1381 C1380 1.404 . S
C1381 H1393 0.930 . S
C1382 C1378 1.524 . S
C1382 H1394 0.956 1_554 S
C1382 H1395 0.961 1_554 S
C1382 H1396 0.961 . S
C1383 C1380 1.539 . S
C1383 H1397 0.958 . S
C1383 H1398 0.961 . S
C1383 H1399 0.960 . S
H1384 C1368 0.931 . S
H1385 C1373 0.929 . S
H1386 C1374 0.935 1_554 S
H1387 C1374 0.962 . S
H1388 C1374 0.960 . S
H1389 C1375 0.961 . S
H1390 C1375 0.961 1_554 S
H1391 C1375 0.961 . S
H1392 C1376 0.931 . S
H1393 C1381 0.930 . S
H1394 C1382 0.956 1_556 S
H1395 C1382 0.961 1_556 S
H1396 C1382 0.961 . S
H1397 C1383 0.958 . S
H1398 C1383 0.961 . S
H1399 C1383 0.960 . S
C1400 C1401 1.391 . S
C1400 C1402 1.394 . S
C1400 H1416 0.931 . S
C1401 C1400 1.391 . S
C1401 C1405 1.376 . S
C1402 C1400 1.394 . S
C1402 C1403 1.369 . S
C1402 C1406 1.531 . S
C1403 C1402 1.369 . S
C1403 C1404 1.410 . S
C1403 C1411 1.503 1_556 S
C1404 C1403 1.410 . S
C1404 C1405 1.392 . S
C1404 C1407 1.511 . S
C1405 C1401 1.376 . S
C1405 C1404 1.392 . S
C1405 H1417 0.929 . S
C1406 C1402 1.531 . S
C1406 H1418 0.960 . S
C1406 H1419 0.962 . S
C1406 H1420 0.960 . S
C1407 C1404 1.511 . S
C1407 H1421 0.961 . S
C1407 H1422 0.961 1_556 S
C1407 H1423 0.961 . S
C1408 C1409 1.370 . S
C1408 C1410 1.363 . S
C1408 H1424 0.931 . S
C1409 C1408 1.370 . S
C1409 C1413 1.408 . S
C1410 C1408 1.363 . S
C1410 C1411 1.370 . S
C1410 C1414 1.524 . S
C1411 C1403 1.503 1_554 S
C1411 C1410 1.370 . S
C1411 C1412 1.403 . S
C1412 C1411 1.403 . S
C1412 C1413 1.404 . S
C1412 C1415 1.539 . S
C1413 C1409 1.408 . S
C1413 C1412 1.404 . S
C1413 H1425 0.930 . S
C1414 C1410 1.524 . S
C1414 H1426 0.956 . S
C1414 H1427 0.961 . S
C1414 H1428 0.961 . S
C1415 C1412 1.539 . S
C1415 H1429 0.958 . S
C1415 H1430 0.961 . S
C1415 H1431 0.960 1_554 S
H1416 C1400 0.931 . S
H1417 C1405 0.929 . S
H1418 C1406 0.960 . S
H1419 C1406 0.962 . S
H1420 C1406 0.960 . S
H1421 C1407 0.961 . S
H1422 C1407 0.961 1_554 S
H1423 C1407 0.961 . S
H1424 C1408 0.931 . S
H1425 C1413 0.930 . S
H1426 C1414 0.956 . S
H1427 C1414 0.961 . S
H1428 C1414 0.961 . S
H1429 C1415 0.958 . S
H1430 C1415 0.961 . S
H1431 C1415 0.960 1_556 S
C1432 C1433 1.391 . S
C1432 C1434 1.394 . S
C1432 H1448 0.931 . S
C1433 C1432 1.391 . S
C1433 C1437 1.376 . S
C1434 C1432 1.394 . S
C1434 C1435 1.369 . S
C1434 C1438 1.531 . S
C1435 C1434 1.369 . S
C1435 C1436 1.410 . S
C1435 C1443 1.503 1_556 S
C1436 C1435 1.410 . S
C1436 C1437 1.392 . S
C1436 C1439 1.511 . S
C1437 C1433 1.376 . S
C1437 C1436 1.392 . S
C1437 H1449 0.929 . S
C1438 C1434 1.531 . S
C1438 H1450 0.960 1_556 S
C1438 H1451 0.962 . S
C1438 H1452 0.960 . S
C1439 C1436 1.511 . S
C1439 H1453 0.961 . S
C1439 H1454 0.961 1_556 S
C1439 H1455 0.961 . S
C1440 C1441 1.370 . S
C1440 C1442 1.363 . S
C1440 H1456 0.931 . S
C1441 C1440 1.370 . S
C1441 C1445 1.408 . S
C1442 C1440 1.363 . S
C1442 C1443 1.370 . S
C1442 C1446 1.524 . S
C1443 C1435 1.503 1_554 S
C1443 C1442 1.370 . S
C1443 C1444 1.403 . S
C1444 C1443 1.403 . S
C1444 C1445 1.404 . S
C1444 C1447 1.539 . S
C1445 C1441 1.408 . S
C1445 C1444 1.404 . S
C1445 H1457 0.930 . S
C1446 C1442 1.524 . S
C1446 H1458 0.956 1_554 S
C1446 H1459 0.961 1_554 S
C1446 H1460 0.961 . S
C1447 C1444 1.539 . S
C1447 H1461 0.958 . S
C1447 H1462 0.961 . S
C1447 H1463 0.960 . S
H1448 C1432 0.931 . S
H1449 C1437 0.929 . S
H1450 C1438 0.960 1_554 S
H1451 C1438 0.962 . S
H1452 C1438 0.960 . S
H1453 C1439 0.961 . S
H1454 C1439 0.961 1_554 S
H1455 C1439 0.961 . S
H1456 C1440 0.931 . S
H1457 C1445 0.930 . S
H1458 C1446 0.956 1_556 S
H1459 C1446 0.961 1_556 S
H1460 C1446 0.961 . S
H1461 C1447 0.958 . S
H1462 C1447 0.961 . S
H1463 C1447 0.960 . S
C1464 C1465 1.391 . S
C1464 C1466 1.394 . S
C1464 H1480 0.931 . S
C1465 C1464 1.391 . S
C1465 C1469 1.376 . S
C1466 C1464 1.394 . S
C1466 C1467 1.369 . S
C1466 C1470 1.531 . S
C1467 C1466 1.369 . S
C1467 C1468 1.410 . S
C1467 C1475 1.503 . S
C1468 C1467 1.410 . S
C1468 C1469 1.392 . S
C1468 C1471 1.511 . S
C1469 C1465 1.376 . S
C1469 C1468 1.392 . S
C1469 H1481 0.929 . S
C1470 C1466 1.531 . S
C1470 H1482 0.960 . S
C1470 H1483 0.962 . S
C1470 H1484 0.960 . S
C1471 C1468 1.511 . S
C1471 H1485 0.961 . S
C1471 H1486 0.961 . S
C1471 H1487 0.961 . S
C1472 C1473 1.370 . S
C1472 C1474 1.363 . S
C1472 H1488 0.931 . S
C1473 C1472 1.370 . S
C1473 C1477 1.408 . S
C1474 C1472 1.363 . S
C1474 C1475 1.370 . S
C1474 C1478 1.524 . S
C1475 C1467 1.503 . S
C1475 C1474 1.370 . S
C1475 C1476 1.403 . S
C1476 C1475 1.403 . S
C1476 C1477 1.404 . S
C1476 C1479 1.539 . S
C1477 C1473 1.408 . S
C1477 C1476 1.404 . S
C1477 H1489 0.930 . S
C1478 C1474 1.524 . S
C1478 H1490 0.956 . S
C1478 H1491 0.961 . S
C1478 H1492 0.961 . S
C1479 C1476 1.539 . S
C1479 H1493 0.958 . S
C1479 H1494 0.961 . S
C1479 H1495 0.960 . S
H1480 C1464 0.931 . S
H1481 C1469 0.929 . S
H1482 C1470 0.960 . S
H1483 C1470 0.962 . S
H1484 C1470 0.960 . S
H1485 C1471 0.961 . S
H1486 C1471 0.961 . S
H1487 C1471 0.961 . S
H1488 C1472 0.931 . S
H1489 C1477 0.930 . S
H1490 C1478 0.956 . S
H1491 C1478 0.961 . S
H1492 C1478 0.961 . S
H1493 C1479 0.958 . S
H1494 C1479 0.961 . S
H1495 C1479 0.960 . S
C1496 C1497 1.391 . S
C1496 C1498 1.394 . S
C1496 H1512 0.931 . S
C1497 C1496 1.391 . S
C1497 C1501 1.376 . S
C1498 C1496 1.394 . S
C1498 C1499 1.369 . S
C1498 C1502 1.531 . S
C1499 C1498 1.369 . S
C1499 C1500 1.410 . S
C1499 C1507 1.503 . S
C1500 C1499 1.410 . S
C1500 C1501 1.392 . S
C1500 C1503 1.511 . S
C1501 C1497 1.376 . S
C1501 C1500 1.392 . S
C1501 H1513 0.929 . S
C1502 C1498 1.531 . S
C1502 H1514 0.960 . S
C1502 H1515 0.962 . S
C1502 H1516 0.960 . S
C1503 C1500 1.511 . S
C1503 H1517 0.961 . S
C1503 H1518 0.961 . S
C1503 H1519 0.961 . S
C1504 C1505 1.370 . S
C1504 C1506 1.363 . S
C1504 H1520 0.931 . S
C1505 C1504 1.370 . S
C1505 C1509 1.408 . S
C1506 C1504 1.363 . S
C1506 C1507 1.370 . S
C1506 C1510 1.524 . S
C1507 C1499 1.503 . S
C1507 C1506 1.370 . S
C1507 C1508 1.403 . S
C1508 C1507 1.403 . S
C1508 C1509 1.404 . S
C1508 C1511 1.539 . S
C1509 C1505 1.408 . S
C1509 C1508 1.404 . S
C1509 H1521 0.930 . S
C1510 C1506 1.524 . S
C1510 H1522 0.956 . S
C1510 H1523 0.961 . S
C1510 H1524 0.961 . S
C1511 C1508 1.539 . S
C1511 H1525 0.958 . S
C1511 H1526 0.961 . S
C1511 H1527 0.960 . S
H1512 C1496 0.931 . S
H1513 C1501 0.929 . S
H1514 C1502 0.960 . S
H1515 C1502 0.962 . S
H1516 C1502 0.960 . S
H1517 C1503 0.961 . S
H1518 C1503 0.961 . S
H1519 C1503 0.961 . S
H1520 C1504 0.931 . S
H1521 C1509 0.930 . S
H1522 C1510 0.956 . S
H1523 C1510 0.961 . S
H1524 C1510 0.961 . S
H1525 C1511 0.958 . S
H1526 C1511 0.961 . S
H1527 C1511 0.960 . S
C1528 C1529 1.391 . S
C1528 C1530 1.394 . S
C1528 H1544 0.931 . S
C1529 C1528 1.391 . S
C1529 C1533 1.376 . S
C1530 C1528 1.394 . S
C1530 C1531 1.369 . S
C1530 C1534 1.531 . S
C1531 C1530 1.369 . S
C1531 C1532 1.410 . S
C1531 C1539 1.503 . S
C1532 C1531 1.410 . S
C1532 C1533 1.392 . S
C1532 C1535 1.511 . S
C1533 C1529 1.376 . S
C1533 C1532 1.392 . S
C1533 H1545 0.929 . S
C1534 C1530 1.531 . S
C1534 H1546 0.960 . S
C1534 H1547 0.962 . S
C1534 H1548 0.960 . S
C1535 C1532 1.511 . S
C1535 H1549 0.961 . S
C1535 H1550 0.961 . S
C1535 H1551 0.961 . S
C1536 C1537 1.370 . S
C1536 C1538 1.363 . S
C1536 H1552 0.931 . S
C1537 C1536 1.370 . S
C1537 C1541 1.408 . S
C1538 C1536 1.363 . S
C1538 C1539 1.370 . S
C1538 C1542 1.524 . S
C1539 C1531 1.503 . S
C1539 C1538 1.370 . S
C1539 C1540 1.403 . S
C1540 C1539 1.403 . S
C1540 C1541 1.404 . S
C1540 C1543 1.539 . S
C1541 C1537 1.408 . S
C1541 C1540 1.404 . S
C1541 H1553 0.930 . S
C1542 C1538 1.524 . S
C1542 H1554 0.956 . S
C1542 H1555 0.961 . S
C1542 H1556 0.961 . S
C1543 C1540 1.539 . S
C1543 H1557 0.958 . S
C1543 H1558 0.961 . S
C1543 H1559 0.960 . S
H1544 C1528 0.931 . S
H1545 C1533 0.929 . S
H1546 C1534 0.960 . S
H1547 C1534 0.962 . S
H1548 C1534 0.960 . S
H1549 C1535 0.961 . S
H1550 C1535 0.961 . S
H1551 C1535 0.961 . S
H1552 C1536 0.931 . S
H1553 C1541 0.930 . S
H1554 C1542 0.956 . S
H1555 C1542 0.961 . S
H1556 C1542 0.961 . S
H1557 C1543 0.958 . S
H1558 C1543 0.961 . S
H1559 C1543 0.960 . S
C1560 C1561 1.391 . S
C1560 C1562 1.394 . S
C1560 H1576 0.931 . S
C1561 C1560 1.391 . S
C1561 C1565 1.376 . S
C1562 C1560 1.394 . S
C1562 C1563 1.369 . S
C1562 C1566 1.531 . S
C1563 C1562 1.369 . S
C1563 C1564 1.410 . S
C1563 C1571 1.503 . S
C1564 C1563 1.410 . S
C1564 C1565 1.392 . S
C1564 C1567 1.511 . S
C1565 C1561 1.376 . S
C1565 C1564 1.392 . S
C1565 H1577 0.929 . S
C1566 C1562 1.531 . S
C1566 H1578 0.960 . S
C1566 H1579 0.962 . S
C1566 H1580 0.960 . S
C1567 C1564 1.511 . S
C1567 H1581 0.961 . S
C1567 H1582 0.961 . S
C1567 H1583 0.961 . S
C1568 C1569 1.370 . S
C1568 C1570 1.363 . S
C1568 H1584 0.931 . S
C1569 C1568 1.370 . S
C1569 C1573 1.408 . S
C1570 C1568 1.363 . S
C1570 C1571 1.370 . S
C1570 C1574 1.524 . S
C1571 C1563 1.503 . S
C1571 C1570 1.370 . S
C1571 C1572 1.403 . S
C1572 C1571 1.403 . S
C1572 C1573 1.404 . S
C1572 C1575 1.539 . S
C1573 C1569 1.408 . S
C1573 C1572 1.404 . S
C1573 H1585 0.930 . S
C1574 C1570 1.524 . S
C1574 H1586 0.956 . S
C1574 H1587 0.961 . S
C1574 H1588 0.961 . S
C1575 C1572 1.539 . S
C1575 H1589 0.958 . S
C1575 H1590 0.961 . S
C1575 H1591 0.960 . S
H1576 C1560 0.931 . S
H1577 C1565 0.929 . S
H1578 C1566 0.960 . S
H1579 C1566 0.962 . S
H1580 C1566 0.960 . S
H1581 C1567 0.961 . S
H1582 C1567 0.961 . S
H1583 C1567 0.961 . S
H1584 C1568 0.931 . S
H1585 C1573 0.930 . S
H1586 C1574 0.956 . S
H1587 C1574 0.961 . S
H1588 C1574 0.961 . S
H1589 C1575 0.958 . S
H1590 C1575 0.961 . S
H1591 C1575 0.960 . S
C1592 C1593 1.391 . S
C1592 C1594 1.394 . S
C1592 H1608 0.931 . S
C1593 C1592 1.391 . S
C1593 C1597 1.376 . S
C1594 C1592 1.394 . S
C1594 C1595 1.369 . S
C1594 C1598 1.531 . S
C1595 C1594 1.369 . S
C1595 C1596 1.410 . S
C1595 C1603 1.503 . S
C1596 C1595 1.410 . S
C1596 C1597 1.392 . S
C1596 C1599 1.511 . S
C1597 C1593 1.376 . S
C1597 C1596 1.392 . S
C1597 H1609 0.929 . S
C1598 C1594 1.531 . S
C1598 H1610 0.960 . S
C1598 H1611 0.962 . S
C1598 H1612 0.960 . S
C1599 C1596 1.511 . S
C1599 H1613 0.961 . S
C1599 H1614 0.961 . S
C1599 H1615 0.961 . S
C1600 C1601 1.370 . S
C1600 C1602 1.363 . S
C1600 H1616 0.931 . S
C1601 C1600 1.370 . S
C1601 C1605 1.408 . S
C1602 C1600 1.363 . S
C1602 C1603 1.370 . S
C1602 C1606 1.524 . S
C1603 C1595 1.503 . S
C1603 C1602 1.370 . S
C1603 C1604 1.403 . S
C1604 C1603 1.403 . S
C1604 C1605 1.404 . S
C1604 C1607 1.539 . S
C1605 C1601 1.408 . S
C1605 C1604 1.404 . S
C1605 H1617 0.930 . S
C1606 C1602 1.524 . S
C1606 H1618 0.956 . S
C1606 H1619 0.961 . S
C1606 H1620 0.961 . S
C1607 C1604 1.539 . S
C1607 H1621 0.958 . S
C1607 H1622 0.961 . S
C1607 H1623 0.960 . S
H1608 C1592 0.931 . S
H1609 C1597 0.929 . S
H1610 C1598 0.960 . S
H1611 C1598 0.962 . S
H1612 C1598 0.960 . S
H1613 C1599 0.961 . S
H1614 C1599 0.961 . S
H1615 C1599 0.961 . S
H1616 C1600 0.931 . S
H1617 C1605 0.930 . S
H1618 C1606 0.956 . S
H1619 C1606 0.961 . S
H1620 C1606 0.961 . S
H1621 C1607 0.958 . S
H1622 C1607 0.961 . S
H1623 C1607 0.960 . S
C1624 C1625 1.391 . S
C1624 C1626 1.394 . S
C1624 H1640 0.931 . S
C1625 C1624 1.391 . S
C1625 C1629 1.376 . S
C1626 C1624 1.394 . S
C1626 C1627 1.369 . S
C1626 C1630 1.531 . S
C1627 C1626 1.369 . S
C1627 C1628 1.410 . S
C1627 C1635 1.503 . S
C1628 C1627 1.410 . S
C1628 C1629 1.392 . S
C1628 C1631 1.511 . S
C1629 C1625 1.376 . S
C1629 C1628 1.392 . S
C1629 H1641 0.929 . S
C1630 C1626 1.531 . S
C1630 H1642 0.960 . S
C1630 H1643 0.962 . S
C1630 H1644 0.960 . S
C1631 C1628 1.511 . S
C1631 H1645 0.961 . S
C1631 H1646 0.961 . S
C1631 H1647 0.961 . S
C1632 C1633 1.370 . S
C1632 C1634 1.363 . S
C1632 H1648 0.931 . S
C1633 C1632 1.370 . S
C1633 C1637 1.408 . S
C1634 C1632 1.363 . S
C1634 C1635 1.370 . S
C1634 C1638 1.524 . S
C1635 C1627 1.503 . S
C1635 C1634 1.370 . S
C1635 C1636 1.403 . S
C1636 C1635 1.403 . S
C1636 C1637 1.404 . S
C1636 C1639 1.539 . S
C1637 C1633 1.408 . S
C1637 C1636 1.404 . S
C1637 H1649 0.930 . S
C1638 C1634 1.524 . S
C1638 H1650 0.956 . S
C1638 H1651 0.961 . S
C1638 H1652 0.961 . S
C1639 C1636 1.539 . S
C1639 H1653 0.958 . S
C1639 H1654 0.961 . S
C1639 H1655 0.960 . S
H1640 C1624 0.931 . S
H1641 C1629 0.929 . S
H1642 C1630 0.960 . S
H1643 C1630 0.962 . S
H1644 C1630 0.960 . S
H1645 C1631 0.961 . S
H1646 C1631 0.961 . S
H1647 C1631 0.961 . S
H1648 C1632 0.931 . S
H1649 C1637 0.930 . S
H1650 C1638 0.956 . S
H1651 C1638 0.961 . S
H1652 C1638 0.961 . S
H1653 C1639 0.958 . S
H1654 C1639 0.961 . S
H1655 C1639 0.960 . S
C1656 C1657 1.391 . S
C1656 C1658 1.394 . S
C1656 H1672 0.931 . S
C1657 C1656 1.391 . S
C1657 C1661 1.376 . S
C1658 C1656 1.394 . S
C1658 C1659 1.369 . S
C1658 C1662 1.531 . S
C1659 C1658 1.369 . S
C1659 C1660 1.410 . S
C1659 C1667 1.503 . S
C1660 C1659 1.410 . S
C1660 C1661 1.392 . S
C1660 C1663 1.511 . S
C1661 C1657 1.376 . S
C1661 C1660 1.392 . S
C1661 H1673 0.929 . S
C1662 C1658 1.531 . S
C1662 H1674 0.960 . S
C1662 H1675 0.962 . S
C1662 H1676 0.960 . S
C1663 C1660 1.511 . S
C1663 H1677 0.961 . S
C1663 H1678 0.961 . S
C1663 H1679 0.961 . S
C1664 C1665 1.370 . S
C1664 C1666 1.363 . S
C1664 H1680 0.931 . S
C1665 C1664 1.370 . S
C1665 C1669 1.408 . S
C1666 C1664 1.363 . S
C1666 C1667 1.370 . S
C1666 C1670 1.524 . S
C1667 C1659 1.503 . S
C1667 C1666 1.370 . S
C1667 C1668 1.403 . S
C1668 C1667 1.403 . S
C1668 C1669 1.404 . S
C1668 C1671 1.539 . S
C1669 C1665 1.408 . S
C1669 C1668 1.404 . S
C1669 H1681 0.930 . S
C1670 C1666 1.524 . S
C1670 H1682 0.956 . S
C1670 H1683 0.961 . S
C1670 H1684 0.961 . S
C1671 C1668 1.539 . S
C1671 H1685 0.958 . S
C1671 H1686 0.961 . S
C1671 H1687 0.960 . S
H1672 C1656 0.931 . S
H1673 C1661 0.929 . S
H1674 C1662 0.960 . S
H1675 C1662 0.962 . S
H1676 C1662 0.960 . S
H1677 C1663 0.961 . S
H1678 C1663 0.961 . S
H1679 C1663 0.961 . S
H1680 C1664 0.931 . S
H1681 C1669 0.930 . S
H1682 C1670 0.956 . S
H1683 C1670 0.961 . S
H1684 C1670 0.961 . S
H1685 C1671 0.958 . S
H1686 C1671 0.961 . S
H1687 C1671 0.960 . S
C1688 C1689 1.391 . S
C1688 C1690 1.394 . S
C1688 H1704 0.931 . S
C1689 C1688 1.391 . S
C1689 C1693 1.376 . S
C1690 C1688 1.394 . S
C1690 C1691 1.369 . S
C1690 C1694 1.531 . S
C1691 C1690 1.369 . S
C1691 C1692 1.410 . S
C1691 C1699 1.503 . S
C1692 C1691 1.410 . S
C1692 C1693 1.392 . S
C1692 C1695 1.511 . S
C1693 C1689 1.376 . S
C1693 C1692 1.392 . S
C1693 H1705 0.929 . S
C1694 C1690 1.531 . S
C1694 H1706 0.960 . S
C1694 H1707 0.962 . S
C1694 H1708 0.960 . S
C1695 C1692 1.511 . S
C1695 H1709 0.961 . S
C1695 H1710 0.961 . S
C1695 H1711 0.961 . S
C1696 C1697 1.370 . S
C1696 C1698 1.363 . S
C1696 H1712 0.931 . S
C1697 C1696 1.370 . S
C1697 C1701 1.408 . S
C1698 C1696 1.363 . S
C1698 C1699 1.370 . S
C1698 C1702 1.524 . S
C1699 C1691 1.503 . S
C1699 C1698 1.370 . S
C1699 C1700 1.403 . S
C1700 C1699 1.403 . S
C1700 C1701 1.404 . S
C1700 C1703 1.539 . S
C1701 C1697 1.408 . S
C1701 C1700 1.404 . S
C1701 H1713 0.930 . S
C1702 C1698 1.524 . S
C1702 H1714 0.956 . S
C1702 H1715 0.961 . S
C1702 H1716 0.961 . S
C1703 C1700 1.539 . S
C1703 H1717 0.958 . S
C1703 H1718 0.961 . S
C1703 H1719 0.960 . S
H1704 C1688 0.931 . S
H1705 C1693 0.929 . S
H1706 C1694 0.960 . S
H1707 C1694 0.962 . S
H1708 C1694 0.960 . S
H1709 C1695 0.961 . S
H1710 C1695 0.961 . S
H1711 C1695 0.961 . S
H1712 C1696 0.931 . S
H1713 C1701 0.930 . S
H1714 C1702 0.956 . S
H1715 C1702 0.961 . S
H1716 C1702 0.961 . S
H1717 C1703 0.958 . S
H1718 C1703 0.961 . S
H1719 C1703 0.960 . S
C1720 C1721 1.391 . S
C1720 C1722 1.394 . S
C1720 H1736 0.931 . S
C1721 C1720 1.391 . S
C1721 C1725 1.376 . S
C1722 C1720 1.394 . S
C1722 C1723 1.369 . S
C1722 C1726 1.531 . S
C1723 C1722 1.369 . S
C1723 C1724 1.410 . S
C1723 C1731 1.503 . S
C1724 C1723 1.410 . S
C1724 C1725 1.392 . S
C1724 C1727 1.511 . S
C1725 C1721 1.376 . S
C1725 C1724 1.392 . S
C1725 H1737 0.929 . S
C1726 C1722 1.531 . S
C1726 H1738 0.960 . S
C1726 H1739 0.962 . S
C1726 H1740 0.960 . S
C1727 C1724 1.511 . S
C1727 H1741 0.961 . S
C1727 H1742 0.961 . S
C1727 H1743 0.961 . S
C1728 C1729 1.370 . S
C1728 C1730 1.363 . S
C1728 H1744 0.931 . S
C1729 C1728 1.370 . S
C1729 C1733 1.408 . S
C1730 C1728 1.363 . S
C1730 C1731 1.370 . S
C1730 C1734 1.524 . S
C1731 C1723 1.503 . S
C1731 C1730 1.370 . S
C1731 C1732 1.403 . S
C1732 C1731 1.403 . S
C1732 C1733 1.404 . S
C1732 C1735 1.539 . S
C1733 C1729 1.408 . S
C1733 C1732 1.404 . S
C1733 H1745 0.930 . S
C1734 C1730 1.524 . S
C1734 H1746 0.956 . S
C1734 H1747 0.961 . S
C1734 H1748 0.961 . S
C1735 C1732 1.539 . S
C1735 H1749 0.958 . S
C1735 H1750 0.961 . S
C1735 H1751 0.960 . S
H1736 C1720 0.931 . S
H1737 C1725 0.929 . S
H1738 C1726 0.960 . S
H1739 C1726 0.962 . S
H1740 C1726 0.960 . S
H1741 C1727 0.961 . S
H1742 C1727 0.961 . S
H1743 C1727 0.961 . S
H1744 C1728 0.931 . S
H1745 C1733 0.930 . S
H1746 C1734 0.956 . S
H1747 C1734 0.961 . S
H1748 C1734 0.961 . S
H1749 C1735 0.958 . S
H1750 C1735 0.961 . S
H1751 C1735 0.960 . S
C1752 C1753 1.391 . S
C1752 C1754 1.394 . S
C1752 H1768 0.931 . S
C1753 C1752 1.391 . S
C1753 C1757 1.376 . S
C1754 C1752 1.394 . S
C1754 C1755 1.369 . S
C1754 C1758 1.531 . S
C1755 C1754 1.369 . S
C1755 C1756 1.410 . S
C1755 C1763 1.503 . S
C1756 C1755 1.410 . S
C1756 C1757 1.392 . S
C1756 C1759 1.511 . S
C1757 C1753 1.376 . S
C1757 C1756 1.392 . S
C1757 H1769 0.929 . S
C1758 C1754 1.531 . S
C1758 H1770 0.960 . S
C1758 H1771 0.962 . S
C1758 H1772 0.960 . S
C1759 C1756 1.511 . S
C1759 H1773 0.961 . S
C1759 H1774 0.961 . S
C1759 H1775 0.961 . S
C1760 C1761 1.370 . S
C1760 C1762 1.363 . S
C1760 H1776 0.931 . S
C1761 C1760 1.370 . S
C1761 C1765 1.408 . S
C1762 C1760 1.363 . S
C1762 C1763 1.370 . S
C1762 C1766 1.524 . S
C1763 C1755 1.503 . S
C1763 C1762 1.370 . S
C1763 C1764 1.403 . S
C1764 C1763 1.403 . S
C1764 C1765 1.404 . S
C1764 C1767 1.539 . S
C1765 C1761 1.408 . S
C1765 C1764 1.404 . S
C1765 H1777 0.930 . S
C1766 C1762 1.524 . S
C1766 H1778 0.956 . S
C1766 H1779 0.961 . S
C1766 H1780 0.961 . S
C1767 C1764 1.539 . S
C1767 H1781 0.958 . S
C1767 H1782 0.961 . S
C1767 H1783 0.960 . S
H1768 C1752 0.931 . S
H1769 C1757 0.929 . S
H1770 C1758 0.960 . S
H1771 C1758 0.962 . S
H1772 C1758 0.960 . S
H1773 C1759 0.961 . S
H1774 C1759 0.961 . S
H1775 C1759 0.961 . S
H1776 C1760 0.931 . S
H1777 C1765 0.930 . S
H1778 C1766 0.956 . S
H1779 C1766 0.961 . S
H1780 C1766 0.961 . S
H1781 C1767 0.958 . S
H1782 C1767 0.961 . S
H1783 C1767 0.960 . S
C1784 C1785 1.391 . S
C1784 C1786 1.394 . S
C1784 H1800 0.931 . S
C1785 C1784 1.391 . S
C1785 C1789 1.376 . S
C1786 C1784 1.394 . S
C1786 C1787 1.369 . S
C1786 C1790 1.531 . S
C1787 C1786 1.369 . S
C1787 C1788 1.410 . S
C1787 C1795 1.503 . S
C1788 C1787 1.410 . S
C1788 C1789 1.392 . S
C1788 C1791 1.511 . S
C1789 C1785 1.376 . S
C1789 C1788 1.392 . S
C1789 H1801 0.929 . S
C1790 C1786 1.531 . S
C1790 H1802 0.960 . S
C1790 H1803 0.962 . S
C1790 H1804 0.960 . S
C1791 C1788 1.511 . S
C1791 H1805 0.961 . S
C1791 H1806 0.961 . S
C1791 H1807 0.961 . S
C1792 C1793 1.370 . S
C1792 C1794 1.363 . S
C1792 H1808 0.931 . S
C1793 C1792 1.370 . S
C1793 C1797 1.408 . S
C1794 C1792 1.363 . S
C1794 C1795 1.370 . S
C1794 C1798 1.524 . S
C1795 C1787 1.503 . S
C1795 C1794 1.370 . S
C1795 C1796 1.403 . S
C1796 C1795 1.403 . S
C1796 C1797 1.404 . S
C1796 C1799 1.539 . S
C1797 C1793 1.408 . S
C1797 C1796 1.404 . S
C1797 H1809 0.930 . S
C1798 C1794 1.524 . S
C1798 H1810 0.956 . S
C1798 H1811 0.961 . S
C1798 H1812 0.961 . S
C1799 C1796 1.539 . S
C1799 H1813 0.958 . S
C1799 H1814 0.961 . S
C1799 H1815 0.960 . S
H1800 C1784 0.931 . S
H1801 C1789 0.929 . S
H1802 C1790 0.960 . S
H1803 C1790 0.962 . S
H1804 C1790 0.960 . S
H1805 C1791 0.961 . S
H1806 C1791 0.961 . S
H1807 C1791 0.961 . S
H1808 C1792 0.931 . S
H1809 C1797 0.930 . S
H1810 C1798 0.956 . S
H1811 C1798 0.961 . S
H1812 C1798 0.961 . S
H1813 C1799 0.958 . S
H1814 C1799 0.961 . S
H1815 C1799 0.960 . S
C1816 C1817 1.391 . S
C1816 C1818 1.394 . S
C1816 H1832 0.931 . S
C1817 C1816 1.391 . S
C1817 C1821 1.376 . S
C1818 C1816 1.394 . S
C1818 C1819 1.369 . S
C1818 C1822 1.531 . S
C1819 C1818 1.369 . S
C1819 C1820 1.410 . S
C1819 C1827 1.503 . S
C1820 C1819 1.410 . S
C1820 C1821 1.392 . S
C1820 C1823 1.511 . S
C1821 C1817 1.376 . S
C1821 C1820 1.392 . S
C1821 H1833 0.929 . S
C1822 C1818 1.531 . S
C1822 H1834 0.960 . S
C1822 H1835 0.962 . S
C1822 H1836 0.960 . S
C1823 C1820 1.511 . S
C1823 H1837 0.961 . S
C1823 H1838 0.961 . S
C1823 H1839 0.961 . S
C1824 C1825 1.370 . S
C1824 C1826 1.363 . S
C1824 H1840 0.931 . S
C1825 C1824 1.370 . S
C1825 C1829 1.408 . S
C1826 C1824 1.363 . S
C1826 C1827 1.370 . S
C1826 C1830 1.524 . S
C1827 C1819 1.503 . S
C1827 C1826 1.370 . S
C1827 C1828 1.403 . S
C1828 C1827 1.403 . S
C1828 C1829 1.404 . S
C1828 C1831 1.539 . S
C1829 C1825 1.408 . S
C1829 C1828 1.404 . S
C1829 H1841 0.930 . S
C1830 C1826 1.524 . S
C1830 H1842 0.956 . S
C1830 H1843 0.961 . S
C1830 H1844 0.961 . S
C1831 C1828 1.539 . S
C1831 H1845 0.958 . S
C1831 H1846 0.961 . S
C1831 H1847 0.960 . S
H1832 C1816 0.931 . S
H1833 C1821 0.929 . S
H1834 C1822 0.960 . S
H1835 C1822 0.962 . S
H1836 C1822 0.960 . S
H1837 C1823 0.961 . S
H1838 C1823 0.961 . S
H1839 C1823 0.961 . S
H1840 C1824 0.931 . S
H1841 C1829 0.930 . S
H1842 C1830 0.956 . S
H1843 C1830 0.961 . S
H1844 C1830 0.961 . S
H1845 C1831 0.958 . S
H1846 C1831 0.961 . S
H1847 C1831 0.960 . S
C313 C153 1.525 . S
C321 C3 1.520 . S
C345 C16 1.528 . S
C353 C108 1.513 . S
C377 C31 1.491 . S
C385 C121 1.501 . S
C409 C42 1.520 . S
C417 C134 1.500 . S
C441 C173 1.475 . S
C449 C55 1.509 . S
C473 C68 1.502 . S
C481 C186 1.493 . S
C505 C199 1.476 . S
C513 C81 1.511 . S
C537 C160 1.514 . S
C545 C96 1.512 . S
C569 C75 1.488 . S
C577 C109 1.505 . S
C601 C88 1.520 . S
C609 C122 1.522 . S
C633 C135 1.524 . S
C641 C95 1.514 . S
C665 C62 1.479 . S
C673 C146 1.504 . S
C697 C49 1.510 . S
C705 C161 1.510 . S
C729 C174 1.491 . S
C737 C10 1.501 . S
C761 C187 1.494 . S
C769 C23 1.503 . S
C793 C200 1.488 . S
C801 C30 1.494 . S
C825 C213 1.530 . S
C833 C309 1.513 . S
C857 C264 1.497 . S
C865 C224 1.519 . S
C889 C239 1.527 . S
C897 C231 1.513 . S
C921 C250 1.511 . S
C929 C238 1.511 . S
C953 C257 1.509 . S
C961 C265 1.522 . S
C985 C278 1.493 . S
C993 C290 1.492 . S
C1017 C212 1.486 . S
C1025 C291 1.516 . S
C1049 C277 1.523 . S
C1057 C302 1.517 . S
C1081 C5 1.629 . S
C1089 C83 1.633 . S
C1113 C18 1.611 . S
C1121 C94 1.630 . S
C1145 C29 1.634 . S
C1153 C57 1.623 . S
C1177 C70 1.632 . S
C1185 C44 1.632 . S
C1209 C133 1.617 . S
C1217 C107 1.625 . S
C1241 C120 1.624 . S
C1249 C148 1.634 . S
C1273 C159 1.623 . S
C1281 C185 1.634 . S
C1305 C198 1.616 . S
C1313 C172 1.634 . S
C1337 C226 1.638 . S
C1345 C211 1.627 . S
C1369 C237 1.631 . S
C1377 C304 1.623 . S
C1401 C252 1.610 . S
C1409 C276 1.632 . S
C1433 C263 1.633 . S
C1441 C289 1.623 . S
C1465 C4 0.992 . S
C1473 C69 0.994 . S
C1497 C17 0.991 . S
C1505 C82 0.994 . S
C1529 C36 1.001 . S
C1537 C101 0.999 . S
C1561 C56 0.987 . S
C1569 C43 0.993 . S
C1593 C114 0.989 . S
C1601 C303 0.994 . S
C1625 C127 1.002 . S
C1633 C283 1.000 . S
C1657 C296 0.989 . S
C1665 C140 0.995 . S
C1689 C147 0.987 . S
C1697 C218 0.993 . S
C1721 C270 1.002 . S
C1729 C166 0.999 . S
C1753 C225 1.000 . S
C1761 C179 0.999 . S
C1785 C192 0.989 . S
C1793 C244 0.995 . S
C1817 C251 0.994 . S
C1825 C205 0.995 . S
