# Generated by pormake.
# Topology cbo, (4)-cn, num edge types: 1
# Building blocks:
#     Node 0, Type 0, BuildingBlock: QUQFOY_clean_sbu_1, # of connection points: 4
#     Node 1, Type 0, BuildingBlock: QUQFOY_clean_sbu_1, # of connection points: 4
#     Node 2, Type 0, BuildingBlock: QUQFOY_clean_sbu_1, # of connection points: 4
#     Node 3, Type 0, BuildingBlock: QUQFOY_clean_sbu_1, # of connection points: 4
#     Node 4, Type 0, BuildingBlock: QUQFOY_clean_sbu_1, # of connection points: 4
#     Node 5, Type 0, BuildingBlock: QUQFOY_clean_sbu_1, # of connection points: 4
#     Node 6, Type 0, BuildingBlock: QUQFOY_clean_sbu_1, # of connection points: 4
#     Node 7, Type 0, BuildingBlock: QUQFOY_clean_sbu_1, # of connection points: 4
#     Node 8, Type 0, BuildingBlock: QUQFOY_clean_sbu_1, # of connection points: 4
#     Node 9, Type 0, BuildingBlock: QUQFOY_clean_sbu_1, # of connection points: 4
#     Node 10, Type 0, BuildingBlock: QUQFOY_clean_sbu_1, # of connection points: 4
#     Node 11, Type 0, BuildingBlock: QUQFOY_clean_sbu_1, # of connection points: 4
#     Node 12, Type 0, BuildingBlock: QUQFOY_clean_sbu_1, # of connection points: 4
#     Node 13, Type 0, BuildingBlock: QUQFOY_clean_sbu_1, # of connection points: 4
#     Node 14, Type 0, BuildingBlock: QUQFOY_clean_sbu_1, # of connection points: 4
#     Node 15, Type 0, BuildingBlock: QUQFOY_clean_sbu_1, # of connection points: 4
#     Node 16, Type 0, BuildingBlock: QUQFOY_clean_sbu_1, # of connection points: 4
#     Node 17, Type 0, BuildingBlock: QUQFOY_clean_sbu_1, # of connection points: 4
#     Node 18, Type 0, BuildingBlock: QUQFOY_clean_sbu_1, # of connection points: 4
#     Node 19, Type 0, BuildingBlock: QUQFOY_clean_sbu_1, # of connection points: 4
#     Node 20, Type 0, BuildingBlock: QUQFOY_clean_sbu_1, # of connection points: 4
#     Node 21, Type 0, BuildingBlock: QUQFOY_clean_sbu_1, # of connection points: 4
#     Node 22, Type 0, BuildingBlock: QUQFOY_clean_sbu_1, # of connection points: 4
#     Node 23, Type 0, BuildingBlock: QUQFOY_clean_sbu_1, # of connection points: 4
#     Edge 24, Type (0, 0), BuildingBlock: AJUNOK_clean_linker_0, # of connection points: 2
#     Edge 25, Type (0, 0), BuildingBlock: AJUNOK_clean_linker_0, # of connection points: 2
#     Edge 26, Type (0, 0), BuildingBlock: AJUNOK_clean_linker_0, # of connection points: 2
#     Edge 27, Type (0, 0), BuildingBlock: AJUNOK_clean_linker_0, # of connection points: 2
#     Edge 28, Type (0, 0), BuildingBlock: AJUNOK_clean_linker_0, # of connection points: 2
#     Edge 29, Type (0, 0), BuildingBlock: AJUNOK_clean_linker_0, # of connection points: 2
#     Edge 30, Type (0, 0), BuildingBlock: AJUNOK_clean_linker_0, # of connection points: 2
#     Edge 31, Type (0, 0), BuildingBlock: AJUNOK_clean_linker_0, # of connection points: 2
#     Edge 32, Type (0, 0), BuildingBlock: AJUNOK_clean_linker_0, # of connection points: 2
#     Edge 33, Type (0, 0), BuildingBlock: AJUNOK_clean_linker_0, # of connection points: 2
#     Edge 34, Type (0, 0), BuildingBlock: AJUNOK_clean_linker_0, # of connection points: 2
#     Edge 35, Type (0, 0), BuildingBlock: AJUNOK_clean_linker_0, # of connection points: 2
#     Edge 36, Type (0, 0), BuildingBlock: AJUNOK_clean_linker_0, # of connection points: 2
#     Edge 37, Type (0, 0), BuildingBlock: AJUNOK_clean_linker_0, # of connection points: 2
#     Edge 38, Type (0, 0), BuildingBlock: AJUNOK_clean_linker_0, # of connection points: 2
#     Edge 39, Type (0, 0), BuildingBlock: AJUNOK_clean_linker_0, # of connection points: 2
#     Edge 40, Type (0, 0), BuildingBlock: AJUNOK_clean_linker_0, # of connection points: 2
#     Edge 41, Type (0, 0), BuildingBlock: AJUNOK_clean_linker_0, # of connection points: 2
#     Edge 42, Type (0, 0), BuildingBlock: AJUNOK_clean_linker_0, # of connection points: 2
#     Edge 43, Type (0, 0), BuildingBlock: AJUNOK_clean_linker_0, # of connection points: 2
#     Edge 44, Type (0, 0), BuildingBlock: AJUNOK_clean_linker_0, # of connection points: 2
#     Edge 45, Type (0, 0), BuildingBlock: AJUNOK_clean_linker_0, # of connection points: 2
#     Edge 46, Type (0, 0), BuildingBlock: AJUNOK_clean_linker_0, # of connection points: 2
#     Edge 47, Type (0, 0), BuildingBlock: AJUNOK_clean_linker_0, # of connection points: 2
#     Edge 48, Type (0, 0), BuildingBlock: AJUNOK_clean_linker_0, # of connection points: 2
#     Edge 49, Type (0, 0), BuildingBlock: AJUNOK_clean_linker_0, # of connection points: 2
#     Edge 50, Type (0, 0), BuildingBlock: AJUNOK_clean_linker_0, # of connection points: 2
#     Edge 51, Type (0, 0), BuildingBlock: AJUNOK_clean_linker_0, # of connection points: 2
#     Edge 52, Type (0, 0), BuildingBlock: AJUNOK_clean_linker_0, # of connection points: 2
#     Edge 53, Type (0, 0), BuildingBlock: AJUNOK_clean_linker_0, # of connection points: 2
#     Edge 54, Type (0, 0), BuildingBlock: AJUNOK_clean_linker_0, # of connection points: 2
#     Edge 55, Type (0, 0), BuildingBlock: AJUNOK_clean_linker_0, # of connection points: 2
#     Edge 56, Type (0, 0), BuildingBlock: AJUNOK_clean_linker_0, # of connection points: 2
#     Edge 57, Type (0, 0), BuildingBlock: AJUNOK_clean_linker_0, # of connection points: 2
#     Edge 58, Type (0, 0), BuildingBlock: AJUNOK_clean_linker_0, # of connection points: 2
#     Edge 59, Type (0, 0), BuildingBlock: AJUNOK_clean_linker_0, # of connection points: 2
#     Edge 60, Type (0, 0), BuildingBlock: AJUNOK_clean_linker_0, # of connection points: 2
#     Edge 61, Type (0, 0), BuildingBlock: AJUNOK_clean_linker_0, # of connection points: 2
#     Edge 62, Type (0, 0), BuildingBlock: AJUNOK_clean_linker_0, # of connection points: 2
#     Edge 63, Type (0, 0), BuildingBlock: AJUNOK_clean_linker_0, # of connection points: 2
#     Edge 64, Type (0, 0), BuildingBlock: AJUNOK_clean_linker_0, # of connection points: 2
#     Edge 65, Type (0, 0), BuildingBlock: AJUNOK_clean_linker_0, # of connection points: 2
#     Edge 66, Type (0, 0), BuildingBlock: AJUNOK_clean_linker_0, # of connection points: 2
#     Edge 67, Type (0, 0), BuildingBlock: AJUNOK_clean_linker_0, # of connection points: 2
#     Edge 68, Type (0, 0), BuildingBlock: AJUNOK_clean_linker_0, # of connection points: 2
#     Edge 69, Type (0, 0), BuildingBlock: AJUNOK_clean_linker_0, # of connection points: 2
#     Edge 70, Type (0, 0), BuildingBlock: AJUNOK_clean_linker_0, # of connection points: 2
#     Edge 71, Type (0, 0), BuildingBlock: AJUNOK_clean_linker_0, # of connection points: 2
# Relax obj value: 0.088
# Max RMSD: 0.127
# Mean RMSD: 0.127
data_MOF--net-cbo--node1-QUQFOY_clean_sbu_1--edge1-AJUNOK_clean_linker_0
_symmetry_space_group_name_H-M    P1
_symmetry_Int_Tables_number       1
_symmetry_cell_setting            triclinic
loop_
_symmetry_equiv_pos_as_xyz
'x, y, z'
_cell_length_a     40.255173
_cell_length_b     40.234438
_cell_length_c     40.227128
_cell_angle_alpha  90.026222
_cell_angle_beta   89.966495
_cell_angle_gamma 89.985814
loop_
_atom_site_label
_atom_site_type_symbol
_atom_site_fract_x
_atom_site_fract_y
_atom_site_fract_z
_atom_type_partial_charge
O0 O 0.08616 0.19566 0.26785 0.0
Cd1 Cd 0.08547 0.15382 0.29734 0.0
Cd2 Cd 0.12148 0.19276 0.33647 0.0
O3 O 0.10891 0.23035 0.30343 0.0
O4 O 0.04819 0.12791 0.27748 0.0
O5 O 0.04718 0.14687 0.32904 0.0
C6 C 0.032 0.13231 0.30477 0.0
C7 C 0.11534 0.19827 0.39399 0.0
C8 C 0.09592 0.22476 0.27514 0.0
C9 C 0.15679 0.13524 0.30406 0.0
O10 O 0.15944 0.16225 0.32027 0.0
O11 O 0.12825 0.12519 0.29475 0.0
O12 O 0.13738 0.215 0.37784 0.0
O13 O 0.09582 0.17896 0.37735 0.0
O14 O 0.425 0.81773 0.76435 0.0
Cd15 Cd 0.42627 0.85974 0.79355 0.0
Cd16 Cd 0.39026 0.8216 0.83326 0.0
O17 O 0.40257 0.78365 0.80063 0.0
O18 O 0.46397 0.88507 0.77382 0.0
O19 O 0.46434 0.86624 0.82545 0.0
C20 C 0.47986 0.88058 0.80125 0.0
C21 C 0.39537 0.81524 0.89071 0.0
C22 C 0.4151 0.78878 0.77208 0.0
C23 C 0.35538 0.87917 0.80049 0.0
O24 O 0.35259 0.85234 0.81695 0.0
O25 O 0.38394 0.88888 0.79091 0.0
O26 O 0.37331 0.79914 0.874 0.0
O27 O 0.41541 0.83454 0.87469 0.0
O28 O 0.58154 0.32436 0.74996 0.0
Cd29 Cd 0.58188 0.36525 0.71918 0.0
Cd30 Cd 0.61622 0.32487 0.68039 0.0
O31 O 0.60233 0.28856 0.71433 0.0
O32 O 0.54378 0.39224 0.73575 0.0
O33 O 0.5457 0.37075 0.68512 0.0
C34 C 0.52936 0.38682 0.70765 0.0
C35 C 0.61173 0.31591 0.6231 0.0
C36 C 0.59021 0.29485 0.74285 0.0
C37 C 0.65321 0.38219 0.71157 0.0
O38 O 0.65495 0.35488 0.69571 0.0
O39 O 0.62506 0.3931 0.72108 0.0
O40 O 0.63306 0.30003 0.64092 0.0
O41 O 0.59218 0.33666 0.63787 0.0
O42 O 0.92372 0.69373 0.24787 0.0
Cd43 Cd 0.92467 0.65179 0.21854 0.0
Cd44 Cd 0.88817 0.69029 0.17921 0.0
O45 O 0.90044 0.72796 0.21223 0.0
O46 O 0.96206 0.62621 0.2385 0.0
O47 O 0.96293 0.64483 0.18682 0.0
C48 C 0.97819 0.63048 0.21116 0.0
C49 C 0.89291 0.69763 0.12177 0.0
C50 C 0.91359 0.72268 0.24048 0.0
C51 C 0.85363 0.63248 0.21199 0.0
O52 O 0.85072 0.65927 0.1955 0.0
O53 O 0.88224 0.62282 0.22147 0.0
O54 O 0.87075 0.71318 0.13891 0.0
O55 O 0.9131 0.67812 0.1373 0.0
O56 O 0.26281 0.08586 0.19773 0.0
Cd57 Cd 0.29144 0.08396 0.15531 0.0
Cd58 Cd 0.33119 0.12227 0.19164 0.0
O59 O 0.29855 0.11144 0.2301 0.0
O60 O 0.2716 0.04567 0.13096 0.0
O61 O 0.32364 0.0461 0.14841 0.0
C62 C 0.29935 0.03018 0.13473 0.0
C63 C 0.38869 0.11818 0.19924 0.0
C64 C 0.27039 0.09774 0.22598 0.0
C65 C 0.29679 0.15438 0.13332 0.0
O66 O 0.31432 0.15842 0.15932 0.0
O67 O 0.28714 0.12537 0.12518 0.0
O68 O 0.37141 0.14093 0.21375 0.0
O69 O 0.3733 0.09714 0.18051 0.0
O70 O 0.24906 0.92523 0.69349 0.0
Cd71 Cd 0.2196 0.92605 0.65165 0.0
Cd72 Cd 0.18033 0.88948 0.68972 0.0
O73 O 0.21334 0.9016 0.72734 0.0
O74 O 0.23775 0.96446 0.62624 0.0
O75 O 0.18626 0.96287 0.64545 0.0
C76 C 0.20964 0.97918 0.63067 0.0
C77 C 0.12306 0.89347 0.69827 0.0
C78 C 0.24162 0.91472 0.72231 0.0
C79 C 0.21316 0.85527 0.63165 0.0
O80 O 0.19646 0.85222 0.65832 0.0
O81 O 0.2229 0.88391 0.62235 0.0
O82 O 0.14072 0.87129 0.71314 0.0
O83 O 0.13795 0.91403 0.67863 0.0
O84 O 0.76301 0.42375 0.81541 0.0
Cd85 Cd 0.79287 0.4227 0.85695 0.0
Cd86 Cd 0.83115 0.38793 0.81645 0.0
O87 O 0.7981 0.40204 0.77956 0.0
O88 O 0.77463 0.46003 0.88413 0.0
O89 O 0.82586 0.45969 0.86428 0.0
C90 C 0.80245 0.47529 0.87979 0.0
C91 C 0.88855 0.39415 0.81107 0.0
C92 C 0.76998 0.415 0.7859 0.0
C93 C 0.79909 0.35063 0.87273 0.0
O94 O 0.81501 0.3489 0.84546 0.0
O95 O 0.79019 0.37886 0.88403 0.0
O96 O 0.87237 0.37268 0.79362 0.0
O97 O 0.87196 0.41308 0.83101 0.0
O98 O 0.74776 0.58732 0.31982 0.0
Cd99 Cd 0.71821 0.58638 0.36164 0.0
Cd100 Cd 0.67856 0.62196 0.32322 0.0
O101 O 0.71163 0.60975 0.28563 0.0
O102 O 0.73748 0.54883 0.38754 0.0
O103 O 0.68611 0.54845 0.36815 0.0
C104 C 0.71006 0.53298 0.38291 0.0
C105 C 0.62135 0.61614 0.31551 0.0
C106 C 0.74014 0.59722 0.29084 0.0
C107 C 0.71086 0.65746 0.38068 0.0
O108 O 0.69422 0.66001 0.35392 0.0
O109 O 0.72066 0.629 0.39043 0.0
O110 O 0.63816 0.63851 0.29995 0.0
O111 O 0.63707 0.59644 0.33538 0.0
O112 O 0.18808 0.2602 0.08898 0.0
Cd113 Cd 0.14846 0.29255 0.08823 0.0
Cd114 Cd 0.18878 0.3306 0.12307 0.0
O115 O 0.22436 0.29612 0.10864 0.0
O116 O 0.12088 0.28172 0.04823 0.0
O117 O 0.15039 0.32795 0.05337 0.0
C118 C 0.13172 0.30904 0.03534 0.0
C119 C 0.1978 0.3879 0.11866 0.0
C120 C 0.21772 0.26739 0.09715 0.0
C121 C 0.13092 0.30055 0.15957 0.0
O122 O 0.15881 0.31524 0.16174 0.0
O123 O 0.11976 0.29225 0.13113 0.0
O124 O 0.21392 0.37 0.13977 0.0
O125 O 0.17689 0.37318 0.09931 0.0
O126 O 0.69376 0.24426 0.92187 0.0
Cd127 Cd 0.64976 0.21829 0.92485 0.0
Cd128 Cd 0.68376 0.17761 0.8845 0.0
O129 O 0.72379 0.20907 0.89259 0.0
O130 O 0.62813 0.23965 0.96399 0.0
O131 O 0.64204 0.18656 0.96303 0.0
C132 C 0.63062 0.21172 0.97941 0.0
C133 C 0.68851 0.11985 0.88824 0.0
C134 C 0.72111 0.23652 0.90813 0.0
C135 C 0.6248 0.21437 0.85543 0.0
O136 O 0.64965 0.19548 0.85069 0.0
O137 O 0.6184 0.225 0.88456 0.0
O138 O 0.69996 0.13598 0.86304 0.0
O139 O 0.67517 0.13658 0.9122 0.0
O140 O 0.81687 0.76451 0.42561 0.0
Cd141 Cd 0.85887 0.79371 0.42623 0.0
Cd142 Cd 0.82043 0.83291 0.39 0.0
O143 O 0.78261 0.80026 0.40258 0.0
O144 O 0.88448 0.77396 0.46375 0.0
O145 O 0.86582 0.82563 0.46433 0.0
C146 C 0.88015 0.80138 0.47974 0.0
C147 C 0.81462 0.89036 0.39582 0.0
C148 C 0.78789 0.77202 0.41574 0.0
C149 C 0.87777 0.79997 0.35493 0.0
O150 O 0.85098 0.81651 0.35216 0.0
O151 O 0.8876 0.79067 0.38355 0.0
O152 O 0.79819 0.87403 0.37368 0.0
O153 O 0.83391 0.87395 0.41553 0.0
O154 O 0.32097 0.74953 0.58707 0.0
Cd155 Cd 0.36251 0.71963 0.58628 0.0
Cd156 Cd 0.32356 0.68009 0.6206 0.0
O157 O 0.28616 0.71308 0.60798 0.0
O158 O 0.38885 0.73839 0.54879 0.0
O159 O 0.3686 0.6873 0.54853 0.0
C160 C 0.38379 0.71096 0.53302 0.0
C161 C 0.31721 0.62295 0.61341 0.0
C162 C 0.29174 0.74182 0.59612 0.0
C163 C 0.38049 0.71154 0.65739 0.0
O164 O 0.35341 0.6954 0.65941 0.0
O165 O 0.3909 0.72133 0.62914 0.0
O166 O 0.30055 0.63896 0.63563 0.0
O167 O 0.33714 0.63951 0.59447 0.0
O168 O 0.92541 0.8149 0.74859 0.0
Cd169 Cd 0.92695 0.85741 0.72014 0.0
Cd170 Cd 0.88905 0.82083 0.68021 0.0
O171 O 0.89998 0.7824 0.71278 0.0
O172 O 0.96507 0.88189 0.74004 0.0
O173 O 0.96472 0.86449 0.68791 0.0
C174 C 0.98058 0.87816 0.71226 0.0
C175 C 0.89354 0.81336 0.62273 0.0
C176 C 0.91386 0.78658 0.74087 0.0
C177 C 0.85645 0.879 0.71446 0.0
O178 O 0.85267 0.85296 0.69694 0.0
O179 O 0.88532 0.88728 0.72441 0.0
O180 O 0.87077 0.79871 0.63983 0.0
O181 O 0.91436 0.83218 0.63829 0.0
O182 O 0.5862 0.19452 0.24861 0.0
Cd183 Cd 0.5853 0.15256 0.2193 0.0
Cd184 Cd 0.62213 0.19109 0.18002 0.0
O185 O 0.60996 0.22866 0.21317 0.0
O186 O 0.54751 0.12724 0.23894 0.0
O187 O 0.54724 0.1459 0.18727 0.0
C188 C 0.53164 0.1317 0.21149 0.0
C189 C 0.61787 0.19928 0.12262 0.0
C190 C 0.59655 0.22342 0.24132 0.0
C191 C 0.6564 0.13305 0.21285 0.0
O192 O 0.65936 0.15976 0.19622 0.0
O193 O 0.62777 0.12352 0.22244 0.0
O194 O 0.64013 0.21425 0.1401 0.0
O195 O 0.59738 0.17978 0.13778 0.0
O196 O 0.42483 0.69083 0.26423 0.0
Cd197 Cd 0.42528 0.64947 0.29435 0.0
Cd198 Cd 0.3899 0.68883 0.33323 0.0
O199 O 0.40255 0.72585 0.29976 0.0
O200 O 0.46267 0.62313 0.2754 0.0
O201 O 0.46313 0.64329 0.32655 0.0
C202 C 0.47856 0.6282 0.30274 0.0
C203 C 0.39602 0.69695 0.39034 0.0
C204 C 0.41536 0.72004 0.27145 0.0
C205 C 0.35408 0.63117 0.30174 0.0
O206 O 0.35167 0.65825 0.3179 0.0
O207 O 0.38249 0.62098 0.29223 0.0
O208 O 0.37374 0.71263 0.37351 0.0
O209 O 0.41544 0.67673 0.37469 0.0
O210 O 0.08815 0.31763 0.76803 0.0
Cd211 Cd 0.08578 0.3618 0.79385 0.0
Cd212 Cd 0.12603 0.32778 0.8345 0.0
O213 O 0.11768 0.28772 0.80305 0.0
O214 O 0.04641 0.38373 0.7733 0.0
O215 O 0.04851 0.37 0.82644 0.0
C216 C 0.03175 0.38177 0.80171 0.0
C217 C 0.12257 0.32301 0.8923 0.0
C218 C 0.10193 0.2903 0.77573 0.0
C219 C 0.15524 0.38647 0.79741 0.0
O220 O 0.1599 0.36177 0.8165 0.0
O221 O 0.12618 0.39284 0.78672 0.0
O222 O 0.14762 0.31148 0.876 0.0
O223 O 0.09859 0.33645 0.87573 0.0
O224 O 0.75075 0.92253 0.82355 0.0
Cd225 Cd 0.71838 0.92371 0.86315 0.0
Cd226 Cd 0.67991 0.88965 0.82281 0.0
O227 O 0.71435 0.90405 0.78719 0.0
O228 O 0.72932 0.96373 0.89071 0.0
O229 O 0.68322 0.95876 0.861 0.0
C230 C 0.70214 0.97675 0.8797 0.0
C231 C 0.62265 0.89451 0.81393 0.0
C232 C 0.74337 0.9147 0.79383 0.0
C233 C 0.70971 0.85249 0.88036 0.0
O234 O 0.69508 0.85063 0.8524 0.0
O235 O 0.71815 0.8808 0.89177 0.0
O236 O 0.64038 0.87343 0.79755 0.0
O237 O 0.63749 0.91356 0.83503 0.0
O238 O 0.76284 0.08715 0.32008 0.0
Cd239 Cd 0.79234 0.08637 0.3619 0.0
Cd240 Cd 0.83167 0.12281 0.32375 0.0
O241 O 0.79857 0.11062 0.28612 0.0
O242 O 0.77431 0.04787 0.38735 0.0
O243 O 0.82576 0.04959 0.36808 0.0
C244 C 0.80244 0.0332 0.38287 0.0
C245 C 0.8891 0.11806 0.31607 0.0
C246 C 0.77024 0.09759 0.29123 0.0
C247 C 0.79866 0.15733 0.38157 0.0
O248 O 0.81547 0.16028 0.35494 0.0
O249 O 0.78904 0.1287 0.39101 0.0
O250 O 0.87191 0.14026 0.30068 0.0
O251 O 0.87364 0.09786 0.33565 0.0
O252 O 0.24699 0.5854 0.19619 0.0
Cd253 Cd 0.2179 0.58438 0.15415 0.0
Cd254 Cd 0.17841 0.62112 0.19238 0.0
O255 O 0.21131 0.60909 0.23016 0.0
O256 O 0.23775 0.54668 0.12886 0.0
O257 O 0.18604 0.54629 0.1474 0.0
C258 C 0.21032 0.53077 0.13321 0.0
C259 C 0.12104 0.61633 0.19992 0.0
C260 C 0.23949 0.59572 0.22506 0.0
C261 C 0.21122 0.65534 0.13435 0.0
O262 O 0.19459 0.6584 0.16107 0.0
O263 O 0.2209 0.62669 0.12496 0.0
O264 O 0.13813 0.63867 0.21523 0.0
O265 O 0.13658 0.59602 0.18048 0.0
O266 O 0.26022 0.42853 0.68671 0.0
Cd267 Cd 0.2909 0.42805 0.64576 0.0
Cd268 Cd 0.32966 0.39425 0.68595 0.0
O269 O 0.29612 0.40839 0.72253 0.0
O270 O 0.27448 0.46608 0.61868 0.0
O271 O 0.32498 0.46412 0.64036 0.0
C272 C 0.30256 0.48048 0.62424 0.0
C273 C 0.38695 0.40026 0.69292 0.0
C274 C 0.26752 0.42029 0.71629 0.0
C275 C 0.29853 0.3567 0.6291 0.0
O276 O 0.31429 0.35509 0.65647 0.0
O277 O 0.28914 0.3848 0.61803 0.0
O278 O 0.37022 0.37886 0.70989 0.0
O279 O 0.37103 0.41916 0.67246 0.0
O280 O 0.81441 0.74396 0.92464 0.0
Cd281 Cd 0.85641 0.71471 0.92531 0.0
Cd282 Cd 0.8179 0.67573 0.88851 0.0
O283 O 0.78012 0.70858 0.90104 0.0
O284 O 0.8821 0.73504 0.96247 0.0
O285 O 0.86376 0.6833 0.96376 0.0
C286 C 0.87807 0.7078 0.9788 0.0
C287 C 0.8125 0.61819 0.89432 0.0
C288 C 0.78545 0.7367 0.91449 0.0
C289 C 0.87559 0.70856 0.85398 0.0
O290 O 0.84872 0.69221 0.85091 0.0
O291 O 0.88526 0.71768 0.88272 0.0
O292 O 0.79593 0.63439 0.8722 0.0
O293 O 0.83159 0.63478 0.91409 0.0
O294 O 0.31802 0.76156 0.08707 0.0
Cd295 Cd 0.35986 0.79103 0.08633 0.0
Cd296 Cd 0.32194 0.83031 0.12307 0.0
O297 O 0.28434 0.79722 0.11107 0.0
O298 O 0.38526 0.77328 0.04765 0.0
O299 O 0.36608 0.82477 0.04987 0.0
C300 C 0.38089 0.80158 0.03328 0.0
C301 C 0.31343 0.88763 0.11913 0.0
C302 C 0.28928 0.76896 0.09781 0.0
C303 C 0.37986 0.79726 0.15717 0.0
O304 O 0.35334 0.81419 0.16028 0.0
O305 O 0.38907 0.78752 0.12849 0.0
O306 O 0.29854 0.86997 0.1413 0.0
O307 O 0.33304 0.87273 0.09854 0.0
O308 O 0.19405 0.2475 0.5882 0.0
Cd309 Cd 0.15235 0.2179 0.58947 0.0
Cd310 Cd 0.1926 0.17938 0.62413 0.0
O311 O 0.22962 0.21217 0.6099 0.0
O312 O 0.12522 0.23621 0.55219 0.0
O313 O 0.1448 0.18486 0.55254 0.0
C314 C 0.12943 0.20833 0.53694 0.0
C315 C 0.19812 0.12202 0.61789 0.0
C316 C 0.2235 0.2403 0.59688 0.0
C317 C 0.13667 0.21181 0.66164 0.0
O318 O 0.16379 0.19567 0.66329 0.0
O319 O 0.12542 0.22081 0.63343 0.0
O320 O 0.21555 0.13826 0.63931 0.0
O321 O 0.17799 0.1385 0.59909 0.0
O322 O 0.69213 0.26422 0.42719 0.0
Cd323 Cd 0.6503 0.29372 0.42744 0.0
Cd324 Cd 0.68922 0.33293 0.39141 0.0
O325 O 0.72655 0.29973 0.40398 0.0
O326 O 0.62406 0.27447 0.46481 0.0
O327 O 0.64312 0.32599 0.46519 0.0
C328 C 0.6283 0.30202 0.4806 0.0
C329 C 0.69708 0.39023 0.39667 0.0
C330 C 0.72114 0.27154 0.41722 0.0
C331 C 0.63183 0.3004 0.35605 0.0
O332 O 0.65858 0.31703 0.35346 0.0
O333 O 0.62195 0.29081 0.38456 0.0
O334 O 0.71269 0.37312 0.37453 0.0
O335 O 0.67711 0.37476 0.41649 0.0
C336 C 0.13017 0.29391 0.22155 0.0
C337 C 0.11492 0.28789 0.19054 0.0
C338 C 0.12162 0.27548 0.24989 0.0
C339 C 0.09752 0.25021 0.24839 0.0
H340 H 0.15053 0.31138 0.22357 0.0
H341 H 0.13587 0.27936 0.27239 0.0
S342 S 0.04451 0.23014 0.1756 0.0
N343 N 0.07024 0.25896 0.16181 0.0
N344 N 0.05429 0.22436 0.21502 0.0
C345 C 0.07951 0.24653 0.2186 0.0
C346 C 0.08814 0.26538 0.18972 0.0
C347 C 0.42748 0.76966 0.71423 0.0
C348 C 0.41337 0.76298 0.74559 0.0
C349 C 0.41918 0.75074 0.68619 0.0
C350 C 0.39631 0.72438 0.68828 0.0
H351 H 0.44343 0.79106 0.71072 0.0
H352 H 0.42894 0.75853 0.66233 0.0
S353 S 0.35853 0.69161 0.76593 0.0
N354 N 0.38003 0.72436 0.77809 0.0
N355 N 0.36445 0.68876 0.72542 0.0
C356 C 0.38499 0.71505 0.72012 0.0
C357 C 0.39353 0.73433 0.74877 0.0
C358 C 0.58147 0.27855 0.80232 0.0
C359 C 0.59109 0.26948 0.76984 0.0
C360 C 0.58961 0.25882 0.82985 0.0
C361 C 0.60776 0.22916 0.8261 0.0
H362 H 0.56948 0.30222 0.80693 0.0
H363 H 0.58379 0.26827 0.85439 0.0
S364 S 0.63162 0.19007 0.74585 0.0
N365 N 0.6144 0.22573 0.73512 0.0
N366 N 0.6296 0.18861 0.78681 0.0
C367 C 0.61415 0.2179 0.79351 0.0
C368 C 0.60585 0.23805 0.76541 0.0
C369 C 0.88791 0.77377 0.26501 0.0
C370 C 0.91177 0.7483 0.26706 0.0
C371 C 0.87915 0.79256 0.29307 0.0
C372 C 0.89392 0.78668 0.32432 0.0
H373 H 0.87402 0.77761 0.24228 0.0
H374 H 0.85899 0.81021 0.29061 0.0
S375 S 0.96367 0.7285 0.34072 0.0
N376 N 0.95436 0.7224 0.30123 0.0
N377 N 0.93797 0.75766 0.35391 0.0
C378 C 0.92047 0.76391 0.32572 0.0
C379 C 0.92934 0.74473 0.29712 0.0
C380 C 0.21232 0.08692 0.24549 0.0
C381 C 0.24401 0.1004 0.25187 0.0
C382 C 0.18458 0.09597 0.26454 0.0
C383 C 0.18729 0.11894 0.29079 0.0
H384 H 0.20833 0.07089 0.22422 0.0
H385 H 0.1605 0.08664 0.25699 0.0
S386 S 0.26587 0.1553 0.32281 0.0
N387 N 0.27737 0.13334 0.29009 0.0
N388 N 0.2253 0.15027 0.32594 0.0
C389 C 0.2194 0.1297 0.29978 0.0
C390 C 0.24773 0.12044 0.28035 0.0
C391 C 0.32769 0.91738 0.76002 0.0
C392 C 0.32498 0.89544 0.78712 0.0
C393 C 0.29989 0.92589 0.74088 0.0
C394 C 0.26816 0.91292 0.74805 0.0
H395 H 0.3518 0.92615 0.75189 0.0
H396 H 0.30384 0.94103 0.71896 0.0
S397 S 0.24639 0.8611 0.82128 0.0
N398 N 0.28703 0.86588 0.82383 0.0
N399 N 0.23481 0.88186 0.78784 0.0
C400 C 0.26448 0.89409 0.77733 0.0
C401 C 0.29287 0.88535 0.79684 0.0
C402 C 0.74393 0.39057 0.73503 0.0
C403 C 0.74297 0.41423 0.76076 0.0
C404 C 0.71523 0.38247 0.717 0.0
C405 C 0.68445 0.39778 0.7239 0.0
H406 H 0.76625 0.37622 0.73051 0.0
H407 H 0.71682 0.36237 0.69915 0.0
S408 S 0.67096 0.46744 0.78302 0.0
N409 N 0.71039 0.4573 0.78794 0.0
N410 N 0.65652 0.44224 0.75404 0.0
C411 C 0.68418 0.42425 0.74684 0.0
C412 C 0.71341 0.4324 0.76528 0.0
C413 C 0.82614 0.59452 0.25286 0.0
C414 C 0.8233 0.61622 0.22558 0.0
C415 C 0.79842 0.58611 0.27218 0.0
C416 C 0.76663 0.59895 0.26502 0.0
H417 H 0.85029 0.58586 0.26097 0.0
H418 H 0.80245 0.57115 0.2942 0.0
S419 S 0.74454 0.65017 0.19149 0.0
N420 N 0.78519 0.64544 0.18881 0.0
N421 N 0.7331 0.62965 0.22513 0.0
C422 C 0.76282 0.61754 0.23561 0.0
C423 C 0.79114 0.62618 0.21592 0.0
C424 C 0.28969 0.21609 0.12902 0.0
C425 C 0.28261 0.18414 0.11645 0.0
C426 C 0.27035 0.24372 0.12027 0.0
C427 C 0.24306 0.24054 0.09866 0.0
H428 H 0.30888 0.21952 0.14757 0.0
H429 H 0.27538 0.26715 0.13254 0.0
S430 S 0.21904 0.16431 0.05253 0.0
N431 N 0.25013 0.15238 0.07647 0.0
N432 N 0.21377 0.20427 0.06018 0.0
C433 C 0.23802 0.2096 0.08307 0.0
C434 C 0.25782 0.18144 0.09188 0.0
C435 C 0.78924 0.28914 0.87046 0.0
C436 C 0.78603 0.31944 0.88786 0.0
C437 C 0.77033 0.26115 0.8791 0.0
C438 C 0.74746 0.2623 0.90551 0.0
H439 H 0.80471 0.28755 0.84848 0.0
H440 H 0.77189 0.23936 0.86334 0.0
S441 S 0.73576 0.33269 0.96414 0.0
N442 N 0.76266 0.34675 0.93654 0.0
N443 N 0.72727 0.29418 0.95282 0.0
C444 C 0.74679 0.29115 0.92539 0.0
C445 C 0.76603 0.31969 0.91658 0.0
C446 C 0.73678 0.74744 0.39027 0.0
C447 C 0.76218 0.74555 0.41419 0.0
C448 C 0.71802 0.71934 0.3817 0.0
C449 C 0.72387 0.68821 0.39674 0.0
H450 H 0.73303 0.77005 0.37614 0.0
H451 H 0.70047 0.72164 0.36143 0.0
S452 S 0.78171 0.67237 0.46688 0.0
N453 N 0.78788 0.71176 0.45721 0.0
N454 N 0.75266 0.65899 0.44121 0.0
C455 C 0.7465 0.68703 0.42341 0.0
C456 C 0.76566 0.71567 0.43208 0.0
C457 C 0.25412 0.82793 0.59369 0.0
C458 C 0.22668 0.82502 0.61518 0.0
C459 C 0.27339 0.8002 0.58521 0.0
C460 C 0.266 0.76834 0.59775 0.0
H461 H 0.2624 0.85213 0.5853 0.0
H462 H 0.29555 0.80426 0.57046 0.0
S463 S 0.19198 0.7461 0.64821 0.0
N464 N 0.1895 0.78682 0.64379 0.0
N465 N 0.22573 0.73469 0.62785 0.0
C466 C 0.23641 0.76448 0.61605 0.0
C467 C 0.21678 0.79281 0.62478 0.0
C468 C 0.8772 0.717 0.79226 0.0
C469 C 0.89212 0.72189 0.82361 0.0
C470 C 0.88657 0.73594 0.76454 0.0
C471 C 0.91123 0.76059 0.76702 0.0
H472 H 0.85648 0.70005 0.7895 0.0
H473 H 0.87257 0.73292 0.74175 0.0
S474 S 0.96371 0.77745 0.84102 0.0
N475 N 0.93707 0.74895 0.8537 0.0
N476 N 0.95462 0.7845 0.80164 0.0
C477 C 0.92889 0.76309 0.79714 0.0
C478 C 0.91938 0.74375 0.8254 0.0
C479 C 0.62226 0.27437 0.26605 0.0
C480 C 0.59828 0.24901 0.26793 0.0
C481 C 0.63087 0.2931 0.29417 0.0
C482 C 0.61583 0.28727 0.32532 0.0
H483 H 0.63635 0.27814 0.24342 0.0
H484 H 0.65114 0.31065 0.29186 0.0
S485 S 0.54567 0.22946 0.34121 0.0
N486 N 0.55529 0.22332 0.30178 0.0
N487 N 0.57139 0.25848 0.35459 0.0
C488 C 0.58916 0.26464 0.32652 0.0
C489 C 0.58044 0.24552 0.29786 0.0
C490 C 0.39081 0.77167 0.24704 0.0
C491 C 0.41387 0.7455 0.24474 0.0
C492 C 0.38216 0.7905 0.21903 0.0
C493 C 0.39626 0.78396 0.18759 0.0
H494 H 0.37738 0.77606 0.26997 0.0
H495 H 0.36253 0.80872 0.2217 0.0
S496 S 0.46414 0.7238 0.17042 0.0
N497 N 0.45524 0.71821 0.21009 0.0
N498 N 0.43907 0.75357 0.15747 0.0
C499 C 0.42217 0.76049 0.1859 0.0
C500 C 0.43092 0.74125 0.21445 0.0
C501 C 0.13918 0.22185 0.72311 0.0
C502 C 0.1217 0.22501 0.69287 0.0
C503 C 0.1307 0.24088 0.75109 0.0
C504 C 0.10437 0.26383 0.75 0.0
H505 H 0.1611 0.20631 0.72463 0.0
H506 H 0.14651 0.23934 0.77282 0.0
S507 S 0.04559 0.27547 0.67981 0.0
N508 N 0.07305 0.24844 0.66571 0.0
N509 N 0.05705 0.28405 0.71826 0.0
C510 C 0.08441 0.26446 0.72123 0.0
C511 C 0.09307 0.2451 0.69269 0.0
C512 C 0.80247 0.92395 0.77684 0.0
C513 C 0.77027 0.91313 0.76843 0.0
C514 C 0.83008 0.91552 0.75735 0.0
C515 C 0.82668 0.89574 0.72867 0.0
H516 H 0.80682 0.93729 0.79983 0.0
H517 H 0.85447 0.9225 0.76631 0.0
S518 S 0.74706 0.86765 0.69148 0.0
N519 N 0.73602 0.88656 0.7262 0.0
N520 N 0.78792 0.87064 0.68964 0.0
C521 C 0.79429 0.88788 0.718 0.0
C522 C 0.76609 0.89659 0.73783 0.0
C523 C 0.684 0.09516 0.25374 0.0
C524 C 0.68676 0.11677 0.22639 0.0
C525 C 0.71181 0.08669 0.27292 0.0
C526 C 0.74361 0.09939 0.26555 0.0
H527 H 0.65986 0.08661 0.26202 0.0
H528 H 0.70781 0.0718 0.29499 0.0
S529 S 0.7655 0.15035 0.19176 0.0
N530 N 0.72482 0.14575 0.18933 0.0
N531 N 0.77703 0.12988 0.22539 0.0
C532 C 0.74732 0.11792 0.23608 0.0
C533 C 0.71892 0.1266 0.21652 0.0
C534 C 0.29225 0.63045 0.29453 0.0
C535 C 0.32327 0.61512 0.28892 0.0
C536 C 0.26413 0.62179 0.27586 0.0
C537 C 0.26592 0.59748 0.25078 0.0
H538 H 0.29005 0.65098 0.31181 0.0
H539 H 0.24162 0.63612 0.27939 0.0
S540 S 0.33876 0.54403 0.23203 0.0
N541 N 0.35225 0.57004 0.26076 0.0
N542 N 0.29946 0.55387 0.22569 0.0
C543 C 0.29568 0.57935 0.24758 0.0
C544 C 0.32433 0.5881 0.26665 0.0
C545 C 0.20828 0.42947 0.73295 0.0
C546 C 0.2407 0.41964 0.74184 0.0
C547 C 0.18081 0.42152 0.75285 0.0
C548 C 0.18459 0.40336 0.78249 0.0
H549 H 0.20363 0.44147 0.7093 0.0
H550 H 0.15629 0.42749 0.74353 0.0
S551 S 0.26481 0.37906 0.82114 0.0
N552 N 0.27547 0.39617 0.7854 0.0
N553 N 0.2239 0.38133 0.82285 0.0
C554 C 0.21717 0.3968 0.79357 0.0
C555 C 0.2452 0.40491 0.77326 0.0
C556 C 0.73491 0.76213 0.88866 0.0
C557 C 0.75992 0.76339 0.91303 0.0
C558 C 0.71648 0.79054 0.88034 0.0
C559 C 0.72225 0.82135 0.89609 0.0
H560 H 0.73126 0.73982 0.87404 0.0
H561 H 0.69924 0.78874 0.85976 0.0
S562 S 0.77916 0.83549 0.96735 0.0
N563 N 0.78518 0.79623 0.95705 0.0
N564 N 0.75058 0.84955 0.94151 0.0
C565 C 0.74446 0.82187 0.92313 0.0
C566 C 0.7633 0.79293 0.93153 0.0
C567 C 0.25175 0.68274 0.09595 0.0
C568 C 0.2246 0.68563 0.11781 0.0
C569 C 0.27085 0.7105 0.08718 0.0
C570 C 0.26359 0.74238 0.09981 0.0
H571 H 0.25995 0.65854 0.08744 0.0
H572 H 0.2928 0.70643 0.07212 0.0
S573 S 0.19021 0.76456 0.15127 0.0
N574 N 0.18776 0.72384 0.14691 0.0
N575 N 0.22366 0.77599 0.13045 0.0
C576 C 0.23426 0.7462 0.11855 0.0
C577 C 0.2148 0.71784 0.12755 0.0
C578 C 0.29269 0.2947 0.62922 0.0
C579 C 0.28612 0.32541 0.61366 0.0
C580 C 0.27447 0.26608 0.62126 0.0
C581 C 0.24887 0.26708 0.59749 0.0
H582 H 0.31041 0.29313 0.64942 0.0
H583 H 0.27871 0.24383 0.6358 0.0
S584 S 0.22754 0.33883 0.54362 0.0
N585 N 0.25651 0.35325 0.56882 0.0
N586 N 0.22221 0.29951 0.55406 0.0
C587 C 0.2447 0.29652 0.57907 0.0
C588 C 0.26336 0.32566 0.58707 0.0
C589 C 0.77257 0.24717 0.39211 0.0
C590 C 0.74677 0.24496 0.41561 0.0
C591 C 0.79145 0.21918 0.38341 0.0
C592 C 0.78533 0.18784 0.39787 0.0
H593 H 0.77662 0.26999 0.37841 0.0
H594 H 0.80936 0.22177 0.36347 0.0
S595 S 0.72627 0.17099 0.46682 0.0
N596 N 0.72031 0.21054 0.45768 0.0
N597 N 0.75575 0.15797 0.4414 0.0
C598 C 0.76224 0.18628 0.42415 0.0
C599 C 0.74296 0.21481 0.43296 0.0
C600 C 0.1223 0.23363 0.48088 0.0
C601 C 0.12085 0.2052 0.50123 0.0
C602 C 0.1194 0.23123 0.44625 0.0
C603 C 0.11391 0.20046 0.43067 0.0
H604 H 0.12742 0.25781 0.49159 0.0
H605 H 0.12215 0.25357 0.43148 0.0
S606 S 0.10552 0.11889 0.47271 0.0
N607 N 0.11219 0.14546 0.50333 0.0
N608 N 0.10535 0.14116 0.4382 0.0
C609 C 0.11062 0.17206 0.45075 0.0
C610 C 0.1145 0.17436 0.48605 0.0
C611 C 0.38741 0.77779 0.97651 0.0
C612 C 0.38908 0.80566 0.99761 0.0
C613 C 0.39049 0.78107 0.94198 0.0
C614 C 0.3964 0.81217 0.92729 0.0
H615 H 0.38208 0.75338 0.98656 0.0
H616 H 0.38764 0.75914 0.92661 0.0
S617 S 0.40536 0.89253 0.97149 0.0
N618 N 0.3983 0.86525 1.00137 0.0
N619 N 0.40546 0.87118 0.93639 0.0
C620 C 0.39981 0.84002 0.94811 0.0
C621 C 0.39575 0.83684 0.9833 0.0
C622 C 0.61317 0.33591 0.5309 0.0
C623 C 0.61967 0.30474 0.51636 0.0
C624 C 0.60856 0.33915 0.56542 0.0
C625 C 0.6113 0.31146 0.58661 0.0
H626 H 0.61226 0.35804 0.51558 0.0
H627 H 0.60449 0.36368 0.57573 0.0
S628 S 0.62656 0.22427 0.56107 0.0
N629 N 0.62688 0.24542 0.52592 0.0
N630 N 0.61942 0.25184 0.59063 0.0
C631 C 0.6169 0.28013 0.57234 0.0
C632 C 0.62076 0.27667 0.53725 0.0
C633 C 0.89738 0.67308 0.06469 0.0
C634 C 0.8937 0.70119 0.0852 0.0
C635 C 0.8932 0.67541 0.03004 0.0
C636 C 0.88622 0.70608 0.01471 0.0
H637 H 0.90188 0.6489 0.07561 0.0
H638 H 0.89485 0.65296 0.01523 0.0
S639 S 0.8767 0.78737 0.0575 0.0
N640 N 0.88407 0.76067 0.08777 0.0
N641 N 0.87742 0.7654 0.02284 0.0
C642 C 0.88414 0.73459 0.03495 0.0
C643 C 0.88755 0.73203 0.07015 0.0
C644 C 0.44611 0.11287 0.17564 0.0
C645 C 0.42519 0.11741 0.20332 0.0
C646 C 0.48075 0.11672 0.17846 0.0
C647 C 0.49564 0.12416 0.20924 0.0
H648 H 0.43554 0.10789 0.1514 0.0
H649 H 0.49591 0.11435 0.15631 0.0
S650 S 0.45164 0.13616 0.28954 0.0
N651 N 0.42175 0.12852 0.26251 0.0
N652 N 0.48664 0.1345 0.26819 0.0
C653 C 0.47496 0.1272 0.23733 0.0
C654 C 0.43979 0.12416 0.23426 0.0
C655 C 0.03087 0.89358 0.67859 0.0
C656 C 0.01643 0.88618 0.7096 0.0
C657 C 0.0654 0.89791 0.67534 0.0
C658 C 0.08664 0.89397 0.70281 0.0
H659 H 0.01546 0.8955 0.65659 0.0
H660 H 0.07564 0.90276 0.65092 0.0
S661 S 0.06139 0.8759 0.78955 0.0
N662 N 0.02616 0.87672 0.76857 0.0
N663 N 0.09087 0.88368 0.7621 0.0
C664 C 0.07248 0.88739 0.734 0.0
C665 C 0.03741 0.88382 0.7375 0.0
C666 C 0.97549 0.38569 0.7763 0.0
C667 C 0.99581 0.38928 0.80454 0.0
C668 C 0.94087 0.38833 0.77854 0.0
C669 C 0.92521 0.39557 0.80892 0.0
H670 H 0.98624 0.37929 0.75244 0.0
H671 H 0.92619 0.38409 0.75638 0.0
S672 S 0.96713 0.40981 0.88976 0.0
N673 N 0.99781 0.40186 0.86363 0.0
N674 N 0.93264 0.408 0.86759 0.0
C675 C 0.94524 0.40086 0.83706 0.0
C676 C 0.98056 0.39736 0.83496 0.0
C677 C 0.52942 0.61475 0.33634 0.0
C678 C 0.51449 0.62047 0.30522 0.0
C679 C 0.56407 0.61128 0.33933 0.0
C680 C 0.58492 0.61445 0.31144 0.0
H681 H 0.51431 0.61361 0.35861 0.0
H682 H 0.57469 0.60779 0.36381 0.0
S683 S 0.55835 0.62805 0.22431 0.0
N684 N 0.52338 0.62741 0.24575 0.0
N685 N 0.58829 0.62213 0.25171 0.0
C686 C 0.57029 0.61927 0.28017 0.0
C687 C 0.53511 0.62193 0.27696 0.0
C688 C 0.17431 0.44537 0.11435 0.0
C689 C 0.20204 0.4244 0.11821 0.0
C690 C 0.17719 0.47998 0.11839 0.0
C691 C 0.20805 0.49482 0.12541 0.0
H692 H 0.14999 0.43486 0.10973 0.0
H693 H 0.15501 0.49514 0.11654 0.0
S694 S 0.28854 0.45079 0.13546 0.0
N695 N 0.26141 0.42092 0.1281 0.0
N696 N 0.26715 0.48579 0.13452 0.0
C697 C 0.2362 0.47414 0.12774 0.0
C698 C 0.23308 0.43896 0.12447 0.0
C699 C 0.68227 0.03107 0.85792 0.0
C700 C 0.69522 0.01254 0.88456 0.0
C701 C 0.67993 0.06578 0.85961 0.0
C702 C 0.68941 0.08316 0.88839 0.0
H703 H 0.67533 0.01883 0.83495 0.0
H704 H 0.67085 0.07918 0.83809 0.0
S705 S 0.72262 0.04621 0.96588 0.0
N706 N 0.71671 0.01405 0.941 0.0
N707 N 0.71066 0.07933 0.94473 0.0
C708 C 0.70093 0.06491 0.9158 0.0
C709 C 0.7043 0.02957 0.91372 0.0
C710 C 0.77806 0.97666 0.38897 0.0
C711 C 0.80615 0.99743 0.39079 0.0
C712 C 0.78098 0.94207 0.39165 0.0
C713 C 0.81192 0.92696 0.39728 0.0
H714 H 0.75376 0.98704 0.38382 0.0
H715 H 0.75889 0.92698 0.38869 0.0
S716 S 0.89273 0.97017 0.40653 0.0
N717 N 0.86576 1.00041 0.39988 0.0
N718 N 0.87101 0.93532 0.40629 0.0
C719 C 0.83999 0.94743 0.40086 0.0
C720 C 0.83717 0.9827 0.39722 0.0
C721 C 0.27913 0.53723 0.61701 0.0
C722 C 0.307 0.51612 0.61629 0.0
C723 C 0.28264 0.5718 0.61493 0.0
C724 C 0.31403 0.58649 0.611 0.0
H725 H 0.25449 0.52716 0.62099 0.0
H726 H 0.26066 0.58719 0.61713 0.0
S727 S 0.39459 0.54227 0.60485 0.0
N728 N 0.36694 0.51234 0.60985 0.0
N729 N 0.37336 0.57742 0.60453 0.0
C730 C 0.34195 0.56568 0.60835 0.0
C731 C 0.33848 0.53044 0.6114 0.0
C732 C 0.89498 0.83436 0.53073 0.0
C733 C 0.88788 0.80355 0.51573 0.0
C734 C 0.89878 0.83713 0.5654 0.0
C735 C 0.89455 0.80935 0.58622 0.0
H736 H 0.89704 0.85658 0.51565 0.0
H737 H 0.90343 0.8614 0.57607 0.0
S738 S 0.87691 0.723 0.55945 0.0
N739 N 0.87831 0.74446 0.52451 0.0
N740 N 0.8842 0.75003 0.58945 0.0
C741 C 0.88821 0.77838 0.57151 0.0
C742 C 0.88522 0.77536 0.5363 0.0
C743 C 0.61509 0.17906 0.03039 0.0
C744 C 0.62365 0.20957 0.01557 0.0
C745 C 0.61142 0.17621 0.06506 0.0
C746 C 0.61716 0.20357 0.0861 0.0
H747 H 0.61165 0.15711 0.01514 0.0
H748 H 0.60554 0.15214 0.07554 0.0
S749 S 0.63902 0.28914 0.05986 0.0
N750 N 0.63636 0.26801 0.02477 0.0
N751 N 0.63054 0.26229 0.08969 0.0
C752 C 0.62503 0.23429 0.07157 0.0
C753 C 0.62798 0.23741 0.03637 0.0
C754 C 0.40034 0.67346 0.44776 0.0
C755 C 0.39785 0.70127 0.42674 0.0
C756 C 0.39683 0.67678 0.4824 0.0
C757 C 0.39175 0.70812 0.49714 0.0
H758 H 0.40326 0.64884 0.43729 0.0
H759 H 0.3974 0.65459 0.49765 0.0
S760 S 0.38633 0.78888 0.45275 0.0
N761 N 0.39165 0.76113 0.42297 0.0
N762 N 0.38632 0.76768 0.48788 0.0
C763 C 0.39105 0.73627 0.47635 0.0
C764 C 0.39375 0.73275 0.44117 0.0
C765 C 0.15339 0.32885 0.98094 0.0
C766 C 0.12673 0.31612 0.9996 0.0
C767 C 0.15154 0.33126 0.94623 0.0
C768 C 0.12259 0.32208 0.929 0.0
H769 H 0.17648 0.33553 0.99305 0.0
H770 H 0.17307 0.34015 0.93272 0.0
S771 S 0.04502 0.28958 0.96639 0.0
N772 N 0.07012 0.29518 0.99841 0.0
N773 N 0.06609 0.3014 0.93316 0.0
C774 C 0.09518 0.3108 0.94741 0.0
C775 C 0.09742 0.30734 0.98274 0.0
C776 C 0.56526 0.89848 0.8376 0.0
C777 C 0.58618 0.89525 0.80974 0.0
C778 C 0.53067 0.8946 0.83465 0.0
C779 C 0.51579 0.88838 0.80362 0.0
H780 H 0.5758 0.90243 0.86204 0.0
H781 H 0.51554 0.89591 0.85692 0.0
S782 S 0.55973 0.88042 0.72276 0.0
N783 N 0.58961 0.88695 0.75008 0.0
N784 N 0.52475 0.88086 0.74422 0.0
C785 C 0.53643 0.88676 0.77537 0.0
C786 C 0.57159 0.88987 0.77853 0.0
C787 C 0.9463 0.11348 0.34021 0.0
C788 C 0.92563 0.11718 0.31225 0.0
C789 C 0.98093 0.1175 0.3376 0.0
C790 C 0.99608 0.12432 0.3068 0.0
H791 H 0.93552 0.10908 0.36448 0.0
H792 H 0.99587 0.11585 0.35995 0.0
S793 S 0.95282 0.1338 0.22581 0.0
N794 N 0.92272 0.12665 0.25275 0.0
N795 N 0.98761 0.13298 0.24751 0.0
C796 C 0.97568 0.12641 0.27844 0.0
C797 C 0.94049 0.12318 0.28127 0.0
C798 C 0.06389 0.61166 0.17575 0.0
C799 C 0.08454 0.61539 0.20372 0.0
C800 C 0.02926 0.61567 0.17834 0.0
C801 C 0.01411 0.62253 0.20914 0.0
H802 H 0.07469 0.60725 0.15148 0.0
H803 H 0.01433 0.61399 0.15599 0.0
S804 S 0.05732 0.6321 0.29015 0.0
N805 N 0.08743 0.62492 0.26321 0.0
N806 N 0.02255 0.63126 0.26844 0.0
C807 C 0.03449 0.62465 0.23751 0.0
C808 C 0.06967 0.62142 0.23469 0.0
C809 C 0.43805 0.39678 0.72754 0.0
C810 C 0.42349 0.4017 0.6962 0.0
C811 C 0.47256 0.39402 0.73107 0.0
C812 C 0.49376 0.39503 0.70325 0.0
H813 H 0.42259 0.39441 0.74946 0.0
H814 H 0.48251 0.38938 0.75565 0.0
S815 S 0.46806 0.40889 0.61584 0.0
N816 N 0.43287 0.40932 0.63701 0.0
N817 N 0.4978 0.40271 0.64346 0.0
C818 C 0.4796 0.40081 0.67184 0.0
C819 C 0.44443 0.40455 0.66837 0.0
C820 C 0.77957 0.56597 0.89003 0.0
C821 C 0.81031 0.58151 0.89559 0.0
C822 C 0.77717 0.53135 0.88702 0.0
C823 C 0.80559 0.51099 0.8884 0.0
H824 H 0.75724 0.58076 0.88732 0.0
H825 H 0.75301 0.52066 0.88186 0.0
S826 S 0.89184 0.53942 0.90383 0.0
N827 N 0.86959 0.57394 0.90412 0.0
N828 N 0.8653 0.50883 0.89705 0.0
C829 C 0.83641 0.52614 0.8948 0.0
C830 C 0.83871 0.56141 0.8988 0.0
C831 C 0.33644 0.94533 0.11514 0.0
C832 C 0.30892 0.92407 0.11867 0.0
C833 C 0.33315 0.97986 0.11956 0.0
C834 C 0.30209 0.99431 0.12664 0.0
H835 H 0.36089 0.93508 0.11055 0.0
H836 H 0.35518 0.99528 0.11795 0.0
S837 S 0.22202 0.94931 0.13572 0.0
N838 N 0.24955 0.91983 0.12821 0.0
N839 N 0.24301 0.98455 0.1353 0.0
C840 C 0.27415 0.97331 0.12858 0.0
C841 C 0.27768 0.93823 0.12492 0.0
C842 C 0.23426 0.03554 0.62425 0.0
C843 C 0.20605 0.01494 0.62271 0.0
C844 C 0.23151 0.07013 0.62159 0.0
C845 C 0.20059 0.08541 0.6163 0.0
H846 H 0.25856 0.02504 0.62917 0.0
H847 H 0.25371 0.08509 0.62434 0.0
S848 S 0.11947 0.04263 0.60768 0.0
N849 N 0.14634 0.01225 0.6141 0.0
N850 N 0.14137 0.07737 0.60777 0.0
C851 C 0.17238 0.06509 0.61294 0.0
C852 C 0.17505 0.02982 0.61654 0.0
C853 C 0.67328 0.44762 0.40057 0.0
C854 C 0.70117 0.4267 0.39792 0.0
C855 C 0.67634 0.48223 0.39666 0.0
C856 C 0.70749 0.49709 0.39099 0.0
H857 H 0.64878 0.43705 0.40399 0.0
H858 H 0.65408 0.49737 0.39744 0.0
S859 S 0.78839 0.45305 0.38481 0.0
N860 N 0.76092 0.4232 0.39085 0.0
N861 N 0.76699 0.48806 0.38475 0.0
C862 C 0.73573 0.47643 0.39006 0.0
C863 C 0.73247 0.44126 0.39318 0.0
loop_
_geom_bond_atom_site_label_1
_geom_bond_atom_site_label_2
_geom_bond_distance
_geom_bond_site_symmetry_2
_ccdc_geom_bond_type
O0 Cd1 2.223 . S
O0 C8 1.315 . S
Cd1 O0 2.223 . S
Cd1 O4 2.297 . S
Cd1 O5 2.439 . S
Cd1 O11 2.240 . S
Cd2 O3 2.240 . S
Cd2 O10 2.223 . S
Cd2 O12 2.297 . S
Cd2 O13 2.439 . S
O3 Cd2 2.240 . S
O3 C8 1.279 . S
O4 Cd1 2.297 . S
O4 C6 1.247 . S
O5 Cd1 2.439 . S
O5 C6 1.208 . S
C6 O4 1.247 . S
C6 O5 1.208 . S
C7 O12 1.247 . S
C7 O13 1.208 . S
C8 O0 1.315 . S
C8 O3 1.279 . S
C9 O10 1.315 . S
C9 O11 1.279 . S
O10 Cd2 2.223 . S
O10 C9 1.315 . S
O11 Cd1 2.240 . S
O11 C9 1.279 . S
O12 Cd2 2.297 . S
O12 C7 1.247 . S
O13 Cd2 2.439 . S
O13 C7 1.208 . S
O14 Cd15 2.223 . S
O14 C22 1.315 . S
Cd15 O14 2.223 . S
Cd15 O18 2.297 . S
Cd15 O19 2.439 . S
Cd15 O25 2.240 . S
Cd16 O17 2.240 . S
Cd16 O24 2.223 . S
Cd16 O26 2.297 . S
Cd16 O27 2.439 . S
O17 Cd16 2.240 . S
O17 C22 1.279 . S
O18 Cd15 2.297 . S
O18 C20 1.247 . S
O19 Cd15 2.439 . S
O19 C20 1.208 . S
C20 O18 1.247 . S
C20 O19 1.208 . S
C21 O26 1.247 . S
C21 O27 1.208 . S
C22 O14 1.315 . S
C22 O17 1.279 . S
C23 O24 1.315 . S
C23 O25 1.279 . S
O24 Cd16 2.223 . S
O24 C23 1.315 . S
O25 Cd15 2.240 . S
O25 C23 1.279 . S
O26 Cd16 2.297 . S
O26 C21 1.247 . S
O27 Cd16 2.439 . S
O27 C21 1.208 . S
O28 Cd29 2.223 . S
O28 C36 1.315 . S
Cd29 O28 2.223 . S
Cd29 O32 2.297 . S
Cd29 O33 2.439 . S
Cd29 O39 2.240 . S
Cd30 O31 2.240 . S
Cd30 O38 2.223 . S
Cd30 O40 2.297 . S
Cd30 O41 2.439 . S
O31 Cd30 2.240 . S
O31 C36 1.279 . S
O32 Cd29 2.297 . S
O32 C34 1.247 . S
O33 Cd29 2.439 . S
O33 C34 1.208 . S
C34 O32 1.247 . S
C34 O33 1.208 . S
C35 O40 1.247 . S
C35 O41 1.208 . S
C36 O28 1.315 . S
C36 O31 1.279 . S
C37 O38 1.315 . S
C37 O39 1.279 . S
O38 Cd30 2.223 . S
O38 C37 1.315 . S
O39 Cd29 2.240 . S
O39 C37 1.279 . S
O40 Cd30 2.297 . S
O40 C35 1.247 . S
O41 Cd30 2.439 . S
O41 C35 1.208 . S
O42 Cd43 2.223 . S
O42 C50 1.315 . S
Cd43 O42 2.223 . S
Cd43 O46 2.297 . S
Cd43 O47 2.439 . S
Cd43 O53 2.240 . S
Cd44 O45 2.240 . S
Cd44 O52 2.223 . S
Cd44 O54 2.297 . S
Cd44 O55 2.439 . S
O45 Cd44 2.240 . S
O45 C50 1.279 . S
O46 Cd43 2.297 . S
O46 C48 1.247 . S
O47 Cd43 2.439 . S
O47 C48 1.208 . S
C48 O46 1.247 . S
C48 O47 1.208 . S
C49 O54 1.247 . S
C49 O55 1.208 . S
C50 O42 1.315 . S
C50 O45 1.279 . S
C51 O52 1.315 . S
C51 O53 1.279 . S
O52 Cd44 2.223 . S
O52 C51 1.315 . S
O53 Cd43 2.240 . S
O53 C51 1.279 . S
O54 Cd44 2.297 . S
O54 C49 1.247 . S
O55 Cd44 2.439 . S
O55 C49 1.208 . S
O56 Cd57 2.223 . S
O56 C64 1.315 . S
Cd57 O56 2.223 . S
Cd57 O60 2.297 . S
Cd57 O61 2.439 . S
Cd57 O67 2.240 . S
Cd58 O59 2.240 . S
Cd58 O66 2.223 . S
Cd58 O68 2.297 . S
Cd58 O69 2.439 . S
O59 Cd58 2.240 . S
O59 C64 1.279 . S
O60 Cd57 2.297 . S
O60 C62 1.247 . S
O61 Cd57 2.439 . S
O61 C62 1.208 . S
C62 O60 1.247 . S
C62 O61 1.208 . S
C63 O68 1.247 . S
C63 O69 1.208 . S
C64 O56 1.315 . S
C64 O59 1.279 . S
C65 O66 1.315 . S
C65 O67 1.279 . S
O66 Cd58 2.223 . S
O66 C65 1.315 . S
O67 Cd57 2.240 . S
O67 C65 1.279 . S
O68 Cd58 2.297 . S
O68 C63 1.247 . S
O69 Cd58 2.439 . S
O69 C63 1.208 . S
O70 Cd71 2.223 . S
O70 C78 1.315 . S
Cd71 O70 2.223 . S
Cd71 O74 2.297 . S
Cd71 O75 2.439 . S
Cd71 O81 2.240 . S
Cd72 O73 2.240 . S
Cd72 O80 2.223 . S
Cd72 O82 2.297 . S
Cd72 O83 2.439 . S
O73 Cd72 2.240 . S
O73 C78 1.279 . S
O74 Cd71 2.297 . S
O74 C76 1.247 . S
O75 Cd71 2.439 . S
O75 C76 1.208 . S
C76 O74 1.247 . S
C76 O75 1.208 . S
C77 O82 1.247 . S
C77 O83 1.208 . S
C78 O70 1.315 . S
C78 O73 1.279 . S
C79 O80 1.315 . S
C79 O81 1.279 . S
O80 Cd72 2.223 . S
O80 C79 1.315 . S
O81 Cd71 2.240 . S
O81 C79 1.279 . S
O82 Cd72 2.297 . S
O82 C77 1.247 . S
O83 Cd72 2.439 . S
O83 C77 1.208 . S
O84 Cd85 2.223 . S
O84 C92 1.315 . S
Cd85 O84 2.223 . S
Cd85 O88 2.297 . S
Cd85 O89 2.439 . S
Cd85 O95 2.240 . S
Cd86 O87 2.240 . S
Cd86 O94 2.223 . S
Cd86 O96 2.297 . S
Cd86 O97 2.439 . S
O87 Cd86 2.240 . S
O87 C92 1.279 . S
O88 Cd85 2.297 . S
O88 C90 1.247 . S
O89 Cd85 2.439 . S
O89 C90 1.208 . S
C90 O88 1.247 . S
C90 O89 1.208 . S
C91 O96 1.247 . S
C91 O97 1.208 . S
C92 O84 1.315 . S
C92 O87 1.279 . S
C93 O94 1.315 . S
C93 O95 1.279 . S
O94 Cd86 2.223 . S
O94 C93 1.315 . S
O95 Cd85 2.240 . S
O95 C93 1.279 . S
O96 Cd86 2.297 . S
O96 C91 1.247 . S
O97 Cd86 2.439 . S
O97 C91 1.208 . S
O98 Cd99 2.223 . S
O98 C106 1.315 . S
Cd99 O98 2.223 . S
Cd99 O102 2.297 . S
Cd99 O103 2.439 . S
Cd99 O109 2.240 . S
Cd100 O101 2.240 . S
Cd100 O108 2.223 . S
Cd100 O110 2.297 . S
Cd100 O111 2.439 . S
O101 Cd100 2.240 . S
O101 C106 1.279 . S
O102 Cd99 2.297 . S
O102 C104 1.247 . S
O103 Cd99 2.439 . S
O103 C104 1.208 . S
C104 O102 1.247 . S
C104 O103 1.208 . S
C105 O110 1.247 . S
C105 O111 1.208 . S
C106 O98 1.315 . S
C106 O101 1.279 . S
C107 O108 1.315 . S
C107 O109 1.279 . S
O108 Cd100 2.223 . S
O108 C107 1.315 . S
O109 Cd99 2.240 . S
O109 C107 1.279 . S
O110 Cd100 2.297 . S
O110 C105 1.247 . S
O111 Cd100 2.439 . S
O111 C105 1.208 . S
O112 Cd113 2.223 . S
O112 C120 1.315 . S
Cd113 O112 2.223 . S
Cd113 O116 2.297 . S
Cd113 O117 2.439 . S
Cd113 O123 2.240 . S
Cd114 O115 2.240 . S
Cd114 O122 2.223 . S
Cd114 O124 2.297 . S
Cd114 O125 2.439 . S
O115 Cd114 2.240 . S
O115 C120 1.279 . S
O116 Cd113 2.297 . S
O116 C118 1.247 . S
O117 Cd113 2.439 . S
O117 C118 1.208 . S
C118 O116 1.247 . S
C118 O117 1.208 . S
C119 O124 1.247 . S
C119 O125 1.208 . S
C120 O112 1.315 . S
C120 O115 1.279 . S
C121 O122 1.315 . S
C121 O123 1.279 . S
O122 Cd114 2.223 . S
O122 C121 1.315 . S
O123 Cd113 2.240 . S
O123 C121 1.279 . S
O124 Cd114 2.297 . S
O124 C119 1.247 . S
O125 Cd114 2.439 . S
O125 C119 1.208 . S
O126 Cd127 2.223 . S
O126 C134 1.315 . S
Cd127 O126 2.223 . S
Cd127 O130 2.297 . S
Cd127 O131 2.439 . S
Cd127 O137 2.240 . S
Cd128 O129 2.240 . S
Cd128 O136 2.223 . S
Cd128 O138 2.297 . S
Cd128 O139 2.439 . S
O129 Cd128 2.240 . S
O129 C134 1.279 . S
O130 Cd127 2.297 . S
O130 C132 1.247 . S
O131 Cd127 2.439 . S
O131 C132 1.208 . S
C132 O130 1.247 . S
C132 O131 1.208 . S
C133 O138 1.247 . S
C133 O139 1.208 . S
C134 O126 1.315 . S
C134 O129 1.279 . S
C135 O136 1.315 . S
C135 O137 1.279 . S
O136 Cd128 2.223 . S
O136 C135 1.315 . S
O137 Cd127 2.240 . S
O137 C135 1.279 . S
O138 Cd128 2.297 . S
O138 C133 1.247 . S
O139 Cd128 2.439 . S
O139 C133 1.208 . S
O140 Cd141 2.223 . S
O140 C148 1.315 . S
Cd141 O140 2.223 . S
Cd141 O144 2.297 . S
Cd141 O145 2.439 . S
Cd141 O151 2.240 . S
Cd142 O143 2.240 . S
Cd142 O150 2.223 . S
Cd142 O152 2.297 . S
Cd142 O153 2.439 . S
O143 Cd142 2.240 . S
O143 C148 1.279 . S
O144 Cd141 2.297 . S
O144 C146 1.247 . S
O145 Cd141 2.439 . S
O145 C146 1.208 . S
C146 O144 1.247 . S
C146 O145 1.208 . S
C147 O152 1.247 . S
C147 O153 1.208 . S
C148 O140 1.315 . S
C148 O143 1.279 . S
C149 O150 1.315 . S
C149 O151 1.279 . S
O150 Cd142 2.223 . S
O150 C149 1.315 . S
O151 Cd141 2.240 . S
O151 C149 1.279 . S
O152 Cd142 2.297 . S
O152 C147 1.247 . S
O153 Cd142 2.439 . S
O153 C147 1.208 . S
O154 Cd155 2.223 . S
O154 C162 1.315 . S
Cd155 O154 2.223 . S
Cd155 O158 2.297 . S
Cd155 O159 2.439 . S
Cd155 O165 2.240 . S
Cd156 O157 2.240 . S
Cd156 O164 2.223 . S
Cd156 O166 2.297 . S
Cd156 O167 2.439 . S
O157 Cd156 2.240 . S
O157 C162 1.279 . S
O158 Cd155 2.297 . S
O158 C160 1.247 . S
O159 Cd155 2.439 . S
O159 C160 1.208 . S
C160 O158 1.247 . S
C160 O159 1.208 . S
C161 O166 1.247 . S
C161 O167 1.208 . S
C162 O154 1.315 . S
C162 O157 1.279 . S
C163 O164 1.315 . S
C163 O165 1.279 . S
O164 Cd156 2.223 . S
O164 C163 1.315 . S
O165 Cd155 2.240 . S
O165 C163 1.279 . S
O166 Cd156 2.297 . S
O166 C161 1.247 . S
O167 Cd156 2.439 . S
O167 C161 1.208 . S
O168 Cd169 2.223 . S
O168 C176 1.315 . S
Cd169 O168 2.223 . S
Cd169 O172 2.297 . S
Cd169 O173 2.439 . S
Cd169 O179 2.240 . S
Cd170 O171 2.240 . S
Cd170 O178 2.223 . S
Cd170 O180 2.297 . S
Cd170 O181 2.439 . S
O171 Cd170 2.240 . S
O171 C176 1.279 . S
O172 Cd169 2.297 . S
O172 C174 1.247 . S
O173 Cd169 2.439 . S
O173 C174 1.208 . S
C174 O172 1.247 . S
C174 O173 1.208 . S
C175 O180 1.247 . S
C175 O181 1.208 . S
C176 O168 1.315 . S
C176 O171 1.279 . S
C177 O178 1.315 . S
C177 O179 1.279 . S
O178 Cd170 2.223 . S
O178 C177 1.315 . S
O179 Cd169 2.240 . S
O179 C177 1.279 . S
O180 Cd170 2.297 . S
O180 C175 1.247 . S
O181 Cd170 2.439 . S
O181 C175 1.208 . S
O182 Cd183 2.223 . S
O182 C190 1.315 . S
Cd183 O182 2.223 . S
Cd183 O186 2.297 . S
Cd183 O187 2.439 . S
Cd183 O193 2.240 . S
Cd184 O185 2.240 . S
Cd184 O192 2.223 . S
Cd184 O194 2.297 . S
Cd184 O195 2.439 . S
O185 Cd184 2.240 . S
O185 C190 1.279 . S
O186 Cd183 2.297 . S
O186 C188 1.247 . S
O187 Cd183 2.439 . S
O187 C188 1.208 . S
C188 O186 1.247 . S
C188 O187 1.208 . S
C189 O194 1.247 . S
C189 O195 1.208 . S
C190 O182 1.315 . S
C190 O185 1.279 . S
C191 O192 1.315 . S
C191 O193 1.279 . S
O192 Cd184 2.223 . S
O192 C191 1.315 . S
O193 Cd183 2.240 . S
O193 C191 1.279 . S
O194 Cd184 2.297 . S
O194 C189 1.247 . S
O195 Cd184 2.439 . S
O195 C189 1.208 . S
O196 Cd197 2.223 . S
O196 C204 1.315 . S
Cd197 O196 2.223 . S
Cd197 O200 2.297 . S
Cd197 O201 2.439 . S
Cd197 O207 2.240 . S
Cd198 O199 2.240 . S
Cd198 O206 2.223 . S
Cd198 O208 2.297 . S
Cd198 O209 2.439 . S
O199 Cd198 2.240 . S
O199 C204 1.279 . S
O200 Cd197 2.297 . S
O200 C202 1.247 . S
O201 Cd197 2.439 . S
O201 C202 1.208 . S
C202 O200 1.247 . S
C202 O201 1.208 . S
C203 O208 1.247 . S
C203 O209 1.208 . S
C204 O196 1.315 . S
C204 O199 1.279 . S
C205 O206 1.315 . S
C205 O207 1.279 . S
O206 Cd198 2.223 . S
O206 C205 1.315 . S
O207 Cd197 2.240 . S
O207 C205 1.279 . S
O208 Cd198 2.297 . S
O208 C203 1.247 . S
O209 Cd198 2.439 . S
O209 C203 1.208 . S
O210 Cd211 2.223 . S
O210 C218 1.315 . S
Cd211 O210 2.223 . S
Cd211 O214 2.297 . S
Cd211 O215 2.439 . S
Cd211 O221 2.240 . S
Cd212 O213 2.240 . S
Cd212 O220 2.223 . S
Cd212 O222 2.297 . S
Cd212 O223 2.439 . S
O213 Cd212 2.240 . S
O213 C218 1.279 . S
O214 Cd211 2.297 . S
O214 C216 1.247 . S
O215 Cd211 2.439 . S
O215 C216 1.208 . S
C216 O214 1.247 . S
C216 O215 1.208 . S
C217 O222 1.247 . S
C217 O223 1.208 . S
C218 O210 1.315 . S
C218 O213 1.279 . S
C219 O220 1.315 . S
C219 O221 1.279 . S
O220 Cd212 2.223 . S
O220 C219 1.315 . S
O221 Cd211 2.240 . S
O221 C219 1.279 . S
O222 Cd212 2.297 . S
O222 C217 1.247 . S
O223 Cd212 2.439 . S
O223 C217 1.208 . S
O224 Cd225 2.223 . S
O224 C232 1.315 . S
Cd225 O224 2.223 . S
Cd225 O228 2.297 . S
Cd225 O229 2.439 . S
Cd225 O235 2.240 . S
Cd226 O227 2.240 . S
Cd226 O234 2.223 . S
Cd226 O236 2.297 . S
Cd226 O237 2.439 . S
O227 Cd226 2.240 . S
O227 C232 1.279 . S
O228 Cd225 2.297 . S
O228 C230 1.247 . S
O229 Cd225 2.439 . S
O229 C230 1.208 . S
C230 O228 1.247 . S
C230 O229 1.208 . S
C231 O236 1.247 . S
C231 O237 1.208 . S
C232 O224 1.315 . S
C232 O227 1.279 . S
C233 O234 1.315 . S
C233 O235 1.279 . S
O234 Cd226 2.223 . S
O234 C233 1.315 . S
O235 Cd225 2.240 . S
O235 C233 1.279 . S
O236 Cd226 2.297 . S
O236 C231 1.247 . S
O237 Cd226 2.439 . S
O237 C231 1.208 . S
O238 Cd239 2.223 . S
O238 C246 1.315 . S
Cd239 O238 2.223 . S
Cd239 O242 2.297 . S
Cd239 O243 2.439 . S
Cd239 O249 2.240 . S
Cd240 O241 2.240 . S
Cd240 O248 2.223 . S
Cd240 O250 2.297 . S
Cd240 O251 2.439 . S
O241 Cd240 2.240 . S
O241 C246 1.279 . S
O242 Cd239 2.297 . S
O242 C244 1.247 . S
O243 Cd239 2.439 . S
O243 C244 1.208 . S
C244 O242 1.247 . S
C244 O243 1.208 . S
C245 O250 1.247 . S
C245 O251 1.208 . S
C246 O238 1.315 . S
C246 O241 1.279 . S
C247 O248 1.315 . S
C247 O249 1.279 . S
O248 Cd240 2.223 . S
O248 C247 1.315 . S
O249 Cd239 2.240 . S
O249 C247 1.279 . S
O250 Cd240 2.297 . S
O250 C245 1.247 . S
O251 Cd240 2.439 . S
O251 C245 1.208 . S
O252 Cd253 2.223 . S
O252 C260 1.315 . S
Cd253 O252 2.223 . S
Cd253 O256 2.297 . S
Cd253 O257 2.439 . S
Cd253 O263 2.240 . S
Cd254 O255 2.240 . S
Cd254 O262 2.223 . S
Cd254 O264 2.297 . S
Cd254 O265 2.439 . S
O255 Cd254 2.240 . S
O255 C260 1.279 . S
O256 Cd253 2.297 . S
O256 C258 1.247 . S
O257 Cd253 2.439 . S
O257 C258 1.208 . S
C258 O256 1.247 . S
C258 O257 1.208 . S
C259 O264 1.247 . S
C259 O265 1.208 . S
C260 O252 1.315 . S
C260 O255 1.279 . S
C261 O262 1.315 . S
C261 O263 1.279 . S
O262 Cd254 2.223 . S
O262 C261 1.315 . S
O263 Cd253 2.240 . S
O263 C261 1.279 . S
O264 Cd254 2.297 . S
O264 C259 1.247 . S
O265 Cd254 2.439 . S
O265 C259 1.208 . S
O266 Cd267 2.223 . S
O266 C274 1.315 . S
Cd267 O266 2.223 . S
Cd267 O270 2.297 . S
Cd267 O271 2.439 . S
Cd267 O277 2.240 . S
Cd268 O269 2.240 . S
Cd268 O276 2.223 . S
Cd268 O278 2.297 . S
Cd268 O279 2.439 . S
O269 Cd268 2.240 . S
O269 C274 1.279 . S
O270 Cd267 2.297 . S
O270 C272 1.247 . S
O271 Cd267 2.439 . S
O271 C272 1.208 . S
C272 O270 1.247 . S
C272 O271 1.208 . S
C273 O278 1.247 . S
C273 O279 1.208 . S
C274 O266 1.315 . S
C274 O269 1.279 . S
C275 O276 1.315 . S
C275 O277 1.279 . S
O276 Cd268 2.223 . S
O276 C275 1.315 . S
O277 Cd267 2.240 . S
O277 C275 1.279 . S
O278 Cd268 2.297 . S
O278 C273 1.247 . S
O279 Cd268 2.439 . S
O279 C273 1.208 . S
O280 Cd281 2.223 . S
O280 C288 1.315 . S
Cd281 O280 2.223 . S
Cd281 O284 2.297 . S
Cd281 O285 2.439 . S
Cd281 O291 2.240 . S
Cd282 O283 2.240 . S
Cd282 O290 2.223 . S
Cd282 O292 2.297 . S
Cd282 O293 2.439 . S
O283 Cd282 2.240 . S
O283 C288 1.279 . S
O284 Cd281 2.297 . S
O284 C286 1.247 . S
O285 Cd281 2.439 . S
O285 C286 1.208 . S
C286 O284 1.247 . S
C286 O285 1.208 . S
C287 O292 1.247 . S
C287 O293 1.208 . S
C288 O280 1.315 . S
C288 O283 1.279 . S
C289 O290 1.315 . S
C289 O291 1.279 . S
O290 Cd282 2.223 . S
O290 C289 1.315 . S
O291 Cd281 2.240 . S
O291 C289 1.279 . S
O292 Cd282 2.297 . S
O292 C287 1.247 . S
O293 Cd282 2.439 . S
O293 C287 1.208 . S
O294 Cd295 2.223 . S
O294 C302 1.315 . S
Cd295 O294 2.223 . S
Cd295 O298 2.297 . S
Cd295 O299 2.439 . S
Cd295 O305 2.240 . S
Cd296 O297 2.240 . S
Cd296 O304 2.223 . S
Cd296 O306 2.297 . S
Cd296 O307 2.439 . S
O297 Cd296 2.240 . S
O297 C302 1.279 . S
O298 Cd295 2.297 . S
O298 C300 1.247 . S
O299 Cd295 2.439 . S
O299 C300 1.208 . S
C300 O298 1.247 . S
C300 O299 1.208 . S
C301 O306 1.247 . S
C301 O307 1.208 . S
C302 O294 1.315 . S
C302 O297 1.279 . S
C303 O304 1.315 . S
C303 O305 1.279 . S
O304 Cd296 2.223 . S
O304 C303 1.315 . S
O305 Cd295 2.240 . S
O305 C303 1.279 . S
O306 Cd296 2.297 . S
O306 C301 1.247 . S
O307 Cd296 2.439 . S
O307 C301 1.208 . S
O308 Cd309 2.223 . S
O308 C316 1.315 . S
Cd309 O308 2.223 . S
Cd309 O312 2.297 . S
Cd309 O313 2.439 . S
Cd309 O319 2.240 . S
Cd310 O311 2.240 . S
Cd310 O318 2.223 . S
Cd310 O320 2.297 . S
Cd310 O321 2.439 . S
O311 Cd310 2.240 . S
O311 C316 1.279 . S
O312 Cd309 2.297 . S
O312 C314 1.247 . S
O313 Cd309 2.439 . S
O313 C314 1.208 . S
C314 O312 1.247 . S
C314 O313 1.208 . S
C315 O320 1.247 . S
C315 O321 1.208 . S
C316 O308 1.315 . S
C316 O311 1.279 . S
C317 O318 1.315 . S
C317 O319 1.279 . S
O318 Cd310 2.223 . S
O318 C317 1.315 . S
O319 Cd309 2.240 . S
O319 C317 1.279 . S
O320 Cd310 2.297 . S
O320 C315 1.247 . S
O321 Cd310 2.439 . S
O321 C315 1.208 . S
O322 Cd323 2.223 . S
O322 C330 1.315 . S
Cd323 O322 2.223 . S
Cd323 O326 2.297 . S
Cd323 O327 2.439 . S
Cd323 O333 2.240 . S
Cd324 O325 2.240 . S
Cd324 O332 2.223 . S
Cd324 O334 2.297 . S
Cd324 O335 2.439 . S
O325 Cd324 2.240 . S
O325 C330 1.279 . S
O326 Cd323 2.297 . S
O326 C328 1.247 . S
O327 Cd323 2.439 . S
O327 C328 1.208 . S
C328 O326 1.247 . S
C328 O327 1.208 . S
C329 O334 1.247 . S
C329 O335 1.208 . S
C330 O322 1.315 . S
C330 O325 1.279 . S
C331 O332 1.315 . S
C331 O333 1.279 . S
O332 Cd324 2.223 . S
O332 C331 1.315 . S
O333 Cd323 2.240 . S
O333 C331 1.279 . S
O334 Cd324 2.297 . S
O334 C329 1.247 . S
O335 Cd324 2.439 . S
O335 C329 1.208 . S
C336 C337 1.369 . S
C336 C338 1.419 . S
C336 H340 0.930 . S
C337 C336 1.369 . S
C337 C346 1.429 . S
C338 C336 1.419 . S
C338 C339 1.363 . S
C338 H341 0.929 . S
C339 C338 1.363 . S
C339 C345 1.428 . S
H340 C336 0.930 . S
H341 C338 0.929 . S
S342 N343 1.613 . S
S342 N344 1.610 . S
N343 S342 1.613 . S
N343 C346 1.350 . S
N344 S342 1.610 . S
N344 C345 1.351 . S
C345 C339 1.428 . S
C345 N344 1.351 . S
C345 C346 1.434 . S
C346 C337 1.429 . S
C346 N343 1.350 . S
C346 C345 1.434 . S
C347 C348 1.369 . S
C347 C349 1.419 . S
C347 H351 0.930 . S
C348 C347 1.369 . S
C348 C357 1.429 . S
C349 C347 1.419 . S
C349 C350 1.363 . S
C349 H352 0.929 . S
C350 C349 1.363 . S
C350 C356 1.428 . S
H351 C347 0.930 . S
H352 C349 0.929 . S
S353 N354 1.613 . S
S353 N355 1.610 . S
N354 S353 1.613 . S
N354 C357 1.350 . S
N355 S353 1.610 . S
N355 C356 1.351 . S
C356 C350 1.428 . S
C356 N355 1.351 . S
C356 C357 1.434 . S
C357 C348 1.429 . S
C357 N354 1.350 . S
C357 C356 1.434 . S
C358 C359 1.369 . S
C358 C360 1.419 . S
C358 H362 0.930 . S
C359 C358 1.369 . S
C359 C368 1.429 . S
C360 C358 1.419 . S
C360 C361 1.363 . S
C360 H363 0.929 . S
C361 C360 1.363 . S
C361 C367 1.428 . S
H362 C358 0.930 . S
H363 C360 0.929 . S
S364 N365 1.613 . S
S364 N366 1.610 . S
N365 S364 1.613 . S
N365 C368 1.350 . S
N366 S364 1.610 . S
N366 C367 1.351 . S
C367 C361 1.428 . S
C367 N366 1.351 . S
C367 C368 1.434 . S
C368 C359 1.429 . S
C368 N365 1.350 . S
C368 C367 1.434 . S
C369 C370 1.369 . S
C369 C371 1.419 . S
C369 H373 0.930 . S
C370 C369 1.369 . S
C370 C379 1.429 . S
C371 C369 1.419 . S
C371 C372 1.363 . S
C371 H374 0.929 . S
C372 C371 1.363 . S
C372 C378 1.428 . S
H373 C369 0.930 . S
H374 C371 0.929 . S
S375 N376 1.613 . S
S375 N377 1.610 . S
N376 S375 1.613 . S
N376 C379 1.350 . S
N377 S375 1.610 . S
N377 C378 1.351 . S
C378 C372 1.428 . S
C378 N377 1.351 . S
C378 C379 1.434 . S
C379 C370 1.429 . S
C379 N376 1.350 . S
C379 C378 1.434 . S
C380 C381 1.369 . S
C380 C382 1.419 . S
C380 H384 0.930 . S
C381 C380 1.369 . S
C381 C390 1.429 . S
C382 C380 1.419 . S
C382 C383 1.363 . S
C382 H385 0.929 . S
C383 C382 1.363 . S
C383 C389 1.428 . S
H384 C380 0.930 . S
H385 C382 0.929 . S
S386 N387 1.613 . S
S386 N388 1.610 . S
N387 S386 1.613 . S
N387 C390 1.350 . S
N388 S386 1.610 . S
N388 C389 1.351 . S
C389 C383 1.428 . S
C389 N388 1.351 . S
C389 C390 1.434 . S
C390 C381 1.429 . S
C390 N387 1.350 . S
C390 C389 1.434 . S
C391 C392 1.369 . S
C391 C393 1.419 . S
C391 H395 0.930 . S
C392 C391 1.369 . S
C392 C401 1.429 . S
C393 C391 1.419 . S
C393 C394 1.363 . S
C393 H396 0.929 . S
C394 C393 1.363 . S
C394 C400 1.428 . S
H395 C391 0.930 . S
H396 C393 0.929 . S
S397 N398 1.613 . S
S397 N399 1.610 . S
N398 S397 1.613 . S
N398 C401 1.350 . S
N399 S397 1.610 . S
N399 C400 1.351 . S
C400 C394 1.428 . S
C400 N399 1.351 . S
C400 C401 1.434 . S
C401 C392 1.429 . S
C401 N398 1.350 . S
C401 C400 1.434 . S
C402 C403 1.369 . S
C402 C404 1.419 . S
C402 H406 0.930 . S
C403 C402 1.369 . S
C403 C412 1.429 . S
C404 C402 1.419 . S
C404 C405 1.363 . S
C404 H407 0.929 . S
C405 C404 1.363 . S
C405 C411 1.428 . S
H406 C402 0.930 . S
H407 C404 0.929 . S
S408 N409 1.613 . S
S408 N410 1.610 . S
N409 S408 1.613 . S
N409 C412 1.350 . S
N410 S408 1.610 . S
N410 C411 1.351 . S
C411 C405 1.428 . S
C411 N410 1.351 . S
C411 C412 1.434 . S
C412 C403 1.429 . S
C412 N409 1.350 . S
C412 C411 1.434 . S
C413 C414 1.369 . S
C413 C415 1.419 . S
C413 H417 0.930 . S
C414 C413 1.369 . S
C414 C423 1.429 . S
C415 C413 1.419 . S
C415 C416 1.363 . S
C415 H418 0.929 . S
C416 C415 1.363 . S
C416 C422 1.428 . S
H417 C413 0.930 . S
H418 C415 0.929 . S
S419 N420 1.613 . S
S419 N421 1.610 . S
N420 S419 1.613 . S
N420 C423 1.350 . S
N421 S419 1.610 . S
N421 C422 1.351 . S
C422 C416 1.428 . S
C422 N421 1.351 . S
C422 C423 1.434 . S
C423 C414 1.429 . S
C423 N420 1.350 . S
C423 C422 1.434 . S
C424 C425 1.369 . S
C424 C426 1.419 . S
C424 H428 0.930 . S
C425 C424 1.369 . S
C425 C434 1.429 . S
C426 C424 1.419 . S
C426 C427 1.363 . S
C426 H429 0.929 . S
C427 C426 1.363 . S
C427 C433 1.428 . S
H428 C424 0.930 . S
H429 C426 0.929 . S
S430 N431 1.613 . S
S430 N432 1.610 . S
N431 S430 1.613 . S
N431 C434 1.350 . S
N432 S430 1.610 . S
N432 C433 1.351 . S
C433 C427 1.428 . S
C433 N432 1.351 . S
C433 C434 1.434 . S
C434 C425 1.429 . S
C434 N431 1.350 . S
C434 C433 1.434 . S
C435 C436 1.369 . S
C435 C437 1.419 . S
C435 H439 0.930 . S
C436 C435 1.369 . S
C436 C445 1.429 . S
C437 C435 1.419 . S
C437 C438 1.363 . S
C437 H440 0.929 . S
C438 C437 1.363 . S
C438 C444 1.428 . S
H439 C435 0.930 . S
H440 C437 0.929 . S
S441 N442 1.613 . S
S441 N443 1.610 . S
N442 S441 1.613 . S
N442 C445 1.350 . S
N443 S441 1.610 . S
N443 C444 1.351 . S
C444 C438 1.428 . S
C444 N443 1.351 . S
C444 C445 1.434 . S
C445 C436 1.429 . S
C445 N442 1.350 . S
C445 C444 1.434 . S
C446 C447 1.369 . S
C446 C448 1.419 . S
C446 H450 0.930 . S
C447 C446 1.369 . S
C447 C456 1.429 . S
C448 C446 1.419 . S
C448 C449 1.363 . S
C448 H451 0.929 . S
C449 C448 1.363 . S
C449 C455 1.428 . S
H450 C446 0.930 . S
H451 C448 0.929 . S
S452 N453 1.613 . S
S452 N454 1.610 . S
N453 S452 1.613 . S
N453 C456 1.350 . S
N454 S452 1.610 . S
N454 C455 1.351 . S
C455 C449 1.428 . S
C455 N454 1.351 . S
C455 C456 1.434 . S
C456 C447 1.429 . S
C456 N453 1.350 . S
C456 C455 1.434 . S
C457 C458 1.369 . S
C457 C459 1.419 . S
C457 H461 0.930 . S
C458 C457 1.369 . S
C458 C467 1.429 . S
C459 C457 1.419 . S
C459 C460 1.363 . S
C459 H462 0.929 . S
C460 C459 1.363 . S
C460 C466 1.428 . S
H461 C457 0.930 . S
H462 C459 0.929 . S
S463 N464 1.613 . S
S463 N465 1.610 . S
N464 S463 1.613 . S
N464 C467 1.350 . S
N465 S463 1.610 . S
N465 C466 1.351 . S
C466 C460 1.428 . S
C466 N465 1.351 . S
C466 C467 1.434 . S
C467 C458 1.429 . S
C467 N464 1.350 . S
C467 C466 1.434 . S
C468 C469 1.369 . S
C468 C470 1.419 . S
C468 H472 0.930 . S
C469 C468 1.369 . S
C469 C478 1.429 . S
C470 C468 1.419 . S
C470 C471 1.363 . S
C470 H473 0.929 . S
C471 C470 1.363 . S
C471 C477 1.428 . S
H472 C468 0.930 . S
H473 C470 0.929 . S
S474 N475 1.613 . S
S474 N476 1.610 . S
N475 S474 1.613 . S
N475 C478 1.350 . S
N476 S474 1.610 . S
N476 C477 1.351 . S
C477 C471 1.428 . S
C477 N476 1.351 . S
C477 C478 1.434 . S
C478 C469 1.429 . S
C478 N475 1.350 . S
C478 C477 1.434 . S
C479 C480 1.369 . S
C479 C481 1.419 . S
C479 H483 0.930 . S
C480 C479 1.369 . S
C480 C489 1.429 . S
C481 C479 1.419 . S
C481 C482 1.363 . S
C481 H484 0.929 . S
C482 C481 1.363 . S
C482 C488 1.428 . S
H483 C479 0.930 . S
H484 C481 0.929 . S
S485 N486 1.613 . S
S485 N487 1.610 . S
N486 S485 1.613 . S
N486 C489 1.350 . S
N487 S485 1.610 . S
N487 C488 1.351 . S
C488 C482 1.428 . S
C488 N487 1.351 . S
C488 C489 1.434 . S
C489 C480 1.429 . S
C489 N486 1.350 . S
C489 C488 1.434 . S
C490 C491 1.369 . S
C490 C492 1.419 . S
C490 H494 0.930 . S
C491 C490 1.369 . S
C491 C500 1.429 . S
C492 C490 1.419 . S
C492 C493 1.363 . S
C492 H495 0.929 . S
C493 C492 1.363 . S
C493 C499 1.428 . S
H494 C490 0.930 . S
H495 C492 0.929 . S
S496 N497 1.613 . S
S496 N498 1.610 . S
N497 S496 1.613 . S
N497 C500 1.350 . S
N498 S496 1.610 . S
N498 C499 1.351 . S
C499 C493 1.428 . S
C499 N498 1.351 . S
C499 C500 1.434 . S
C500 C491 1.429 . S
C500 N497 1.350 . S
C500 C499 1.434 . S
C501 C502 1.369 . S
C501 C503 1.419 . S
C501 H505 0.930 . S
C502 C501 1.369 . S
C502 C511 1.429 . S
C503 C501 1.419 . S
C503 C504 1.363 . S
C503 H506 0.929 . S
C504 C503 1.363 . S
C504 C510 1.428 . S
H505 C501 0.930 . S
H506 C503 0.929 . S
S507 N508 1.613 . S
S507 N509 1.610 . S
N508 S507 1.613 . S
N508 C511 1.350 . S
N509 S507 1.610 . S
N509 C510 1.351 . S
C510 C504 1.428 . S
C510 N509 1.351 . S
C510 C511 1.434 . S
C511 C502 1.429 . S
C511 N508 1.350 . S
C511 C510 1.434 . S
C512 C513 1.369 . S
C512 C514 1.419 . S
C512 H516 0.930 . S
C513 C512 1.369 . S
C513 C522 1.429 . S
C514 C512 1.419 . S
C514 C515 1.363 . S
C514 H517 0.929 . S
C515 C514 1.363 . S
C515 C521 1.428 . S
H516 C512 0.930 . S
H517 C514 0.929 . S
S518 N519 1.613 . S
S518 N520 1.610 . S
N519 S518 1.613 . S
N519 C522 1.350 . S
N520 S518 1.610 . S
N520 C521 1.351 . S
C521 C515 1.428 . S
C521 N520 1.351 . S
C521 C522 1.434 . S
C522 C513 1.429 . S
C522 N519 1.350 . S
C522 C521 1.434 . S
C523 C524 1.369 . S
C523 C525 1.419 . S
C523 H527 0.930 . S
C524 C523 1.369 . S
C524 C533 1.429 . S
C525 C523 1.419 . S
C525 C526 1.363 . S
C525 H528 0.929 . S
C526 C525 1.363 . S
C526 C532 1.428 . S
H527 C523 0.930 . S
H528 C525 0.929 . S
S529 N530 1.613 . S
S529 N531 1.610 . S
N530 S529 1.613 . S
N530 C533 1.350 . S
N531 S529 1.610 . S
N531 C532 1.351 . S
C532 C526 1.428 . S
C532 N531 1.351 . S
C532 C533 1.434 . S
C533 C524 1.429 . S
C533 N530 1.350 . S
C533 C532 1.434 . S
C534 C535 1.369 . S
C534 C536 1.419 . S
C534 H538 0.930 . S
C535 C534 1.369 . S
C535 C544 1.429 . S
C536 C534 1.419 . S
C536 C537 1.363 . S
C536 H539 0.929 . S
C537 C536 1.363 . S
C537 C543 1.428 . S
H538 C534 0.930 . S
H539 C536 0.929 . S
S540 N541 1.613 . S
S540 N542 1.610 . S
N541 S540 1.613 . S
N541 C544 1.350 . S
N542 S540 1.610 . S
N542 C543 1.351 . S
C543 C537 1.428 . S
C543 N542 1.351 . S
C543 C544 1.434 . S
C544 C535 1.429 . S
C544 N541 1.350 . S
C544 C543 1.434 . S
C545 C546 1.369 . S
C545 C547 1.419 . S
C545 H549 0.930 . S
C546 C545 1.369 . S
C546 C555 1.429 . S
C547 C545 1.419 . S
C547 C548 1.363 . S
C547 H550 0.929 . S
C548 C547 1.363 . S
C548 C554 1.428 . S
H549 C545 0.930 . S
H550 C547 0.929 . S
S551 N552 1.613 . S
S551 N553 1.610 . S
N552 S551 1.613 . S
N552 C555 1.350 . S
N553 S551 1.610 . S
N553 C554 1.351 . S
C554 C548 1.428 . S
C554 N553 1.351 . S
C554 C555 1.434 . S
C555 C546 1.429 . S
C555 N552 1.350 . S
C555 C554 1.434 . S
C556 C557 1.369 . S
C556 C558 1.419 . S
C556 H560 0.930 . S
C557 C556 1.369 . S
C557 C566 1.429 . S
C558 C556 1.419 . S
C558 C559 1.363 . S
C558 H561 0.929 . S
C559 C558 1.363 . S
C559 C565 1.428 . S
H560 C556 0.930 . S
H561 C558 0.929 . S
S562 N563 1.613 . S
S562 N564 1.610 . S
N563 S562 1.613 . S
N563 C566 1.350 . S
N564 S562 1.610 . S
N564 C565 1.351 . S
C565 C559 1.428 . S
C565 N564 1.351 . S
C565 C566 1.434 . S
C566 C557 1.429 . S
C566 N563 1.350 . S
C566 C565 1.434 . S
C567 C568 1.369 . S
C567 C569 1.419 . S
C567 H571 0.930 . S
C568 C567 1.369 . S
C568 C577 1.429 . S
C569 C567 1.419 . S
C569 C570 1.363 . S
C569 H572 0.929 . S
C570 C569 1.363 . S
C570 C576 1.428 . S
H571 C567 0.930 . S
H572 C569 0.929 . S
S573 N574 1.613 . S
S573 N575 1.610 . S
N574 S573 1.613 . S
N574 C577 1.350 . S
N575 S573 1.610 . S
N575 C576 1.351 . S
C576 C570 1.428 . S
C576 N575 1.351 . S
C576 C577 1.434 . S
C577 C568 1.429 . S
C577 N574 1.350 . S
C577 C576 1.434 . S
C578 C579 1.369 . S
C578 C580 1.419 . S
C578 H582 0.930 . S
C579 C578 1.369 . S
C579 C588 1.429 . S
C580 C578 1.419 . S
C580 C581 1.363 . S
C580 H583 0.929 . S
C581 C580 1.363 . S
C581 C587 1.428 . S
H582 C578 0.930 . S
H583 C580 0.929 . S
S584 N585 1.613 . S
S584 N586 1.610 . S
N585 S584 1.613 . S
N585 C588 1.350 . S
N586 S584 1.610 . S
N586 C587 1.351 . S
C587 C581 1.428 . S
C587 N586 1.351 . S
C587 C588 1.434 . S
C588 C579 1.429 . S
C588 N585 1.350 . S
C588 C587 1.434 . S
C589 C590 1.369 . S
C589 C591 1.419 . S
C589 H593 0.930 . S
C590 C589 1.369 . S
C590 C599 1.429 . S
C591 C589 1.419 . S
C591 C592 1.363 . S
C591 H594 0.929 . S
C592 C591 1.363 . S
C592 C598 1.428 . S
H593 C589 0.930 . S
H594 C591 0.929 . S
S595 N596 1.613 . S
S595 N597 1.610 . S
N596 S595 1.613 . S
N596 C599 1.350 . S
N597 S595 1.610 . S
N597 C598 1.351 . S
C598 C592 1.428 . S
C598 N597 1.351 . S
C598 C599 1.434 . S
C599 C590 1.429 . S
C599 N596 1.350 . S
C599 C598 1.434 . S
C600 C601 1.369 . S
C600 C602 1.419 . S
C600 H604 0.930 . S
C601 C600 1.369 . S
C601 C610 1.429 . S
C602 C600 1.419 . S
C602 C603 1.363 . S
C602 H605 0.929 . S
C603 C602 1.363 . S
C603 C609 1.428 . S
H604 C600 0.930 . S
H605 C602 0.929 . S
S606 N607 1.613 . S
S606 N608 1.610 . S
N607 S606 1.613 . S
N607 C610 1.350 . S
N608 S606 1.610 . S
N608 C609 1.351 . S
C609 C603 1.428 . S
C609 N608 1.351 . S
C609 C610 1.434 . S
C610 C601 1.429 . S
C610 N607 1.350 . S
C610 C609 1.434 . S
C611 C612 1.369 . S
C611 C613 1.419 1_554 S
C611 H615 0.930 . S
C612 C611 1.369 . S
C612 C621 1.429 . S
C613 C611 1.419 1_556 S
C613 C614 1.363 . S
C613 H616 0.929 . S
C614 C613 1.363 . S
C614 C620 1.428 . S
H615 C611 0.930 . S
H616 C613 0.929 . S
S617 N618 1.613 1_556 S
S617 N619 1.610 . S
N618 S617 1.613 1_554 S
N618 C621 1.350 . S
N619 S617 1.610 . S
N619 C620 1.351 . S
C620 C614 1.428 . S
C620 N619 1.351 . S
C620 C621 1.434 1_556 S
C621 C612 1.429 . S
C621 N618 1.350 . S
C621 C620 1.434 1_554 S
C622 C623 1.369 . S
C622 C624 1.419 . S
C622 H626 0.930 . S
C623 C622 1.369 . S
C623 C632 1.429 . S
C624 C622 1.419 . S
C624 C625 1.363 . S
C624 H627 0.929 . S
C625 C624 1.363 . S
C625 C631 1.428 . S
H626 C622 0.930 . S
H627 C624 0.929 . S
S628 N629 1.613 . S
S628 N630 1.610 . S
N629 S628 1.613 . S
N629 C632 1.350 . S
N630 S628 1.610 . S
N630 C631 1.351 . S
C631 C625 1.428 . S
C631 N630 1.351 . S
C631 C632 1.434 . S
C632 C623 1.429 . S
C632 N629 1.350 . S
C632 C631 1.434 . S
C633 C634 1.369 . S
C633 C635 1.419 1_554 S
C633 H637 0.930 . S
C634 C633 1.369 . S
C634 C643 1.429 . S
C635 C633 1.419 1_556 S
C635 C636 1.363 . S
C635 H638 0.929 . S
C636 C635 1.363 . S
C636 C642 1.428 . S
H637 C633 0.930 . S
H638 C635 0.929 . S
S639 N640 1.613 1_556 S
S639 N641 1.610 . S
N640 S639 1.613 1_554 S
N640 C643 1.350 . S
N641 S639 1.610 . S
N641 C642 1.351 . S
C642 C636 1.428 . S
C642 N641 1.351 . S
C642 C643 1.434 1_556 S
C643 C634 1.429 . S
C643 N640 1.350 . S
C643 C642 1.434 1_554 S
C644 C645 1.369 . S
C644 C646 1.419 . S
C644 H648 0.930 . S
C645 C644 1.369 . S
C645 C654 1.429 . S
C646 C644 1.419 . S
C646 C647 1.363 . S
C646 H649 0.929 . S
C647 C646 1.363 . S
C647 C653 1.428 . S
H648 C644 0.930 . S
H649 C646 0.929 . S
S650 N651 1.613 . S
S650 N652 1.610 . S
N651 S650 1.613 . S
N651 C654 1.350 . S
N652 S650 1.610 . S
N652 C653 1.351 . S
C653 C647 1.428 . S
C653 N652 1.351 . S
C653 C654 1.434 . S
C654 C645 1.429 . S
C654 N651 1.350 . S
C654 C653 1.434 . S
C655 C656 1.397 . S
C655 C657 1.390 1_655 S
C655 H659 0.931 . S
C656 C655 1.397 . S
C656 C665 1.429 . S
C657 C655 1.390 1_455 S
C657 C658 1.363 . S
C657 H660 0.929 . S
C658 C657 1.363 . S
C658 C664 1.428 . S
H659 C655 0.931 . S
H660 C657 0.929 . S
S661 N662 1.613 . S
S661 N663 1.610 1_655 S
N662 S661 1.613 . S
N662 C665 1.350 . S
N663 S661 1.610 1_455 S
N663 C664 1.351 . S
C664 C658 1.428 . S
C664 N663 1.351 . S
C664 C665 1.434 1_455 S
C665 C656 1.429 . S
C665 N662 1.350 . S
C665 C664 1.434 1_655 S
C666 C667 1.369 . S
C666 C668 1.419 1_455 S
C666 H670 0.930 . S
C667 C666 1.369 . S
C667 C676 1.429 1_455 S
C668 C666 1.419 1_655 S
C668 C669 1.363 . S
C668 H671 0.931 . S
C669 C668 1.363 . S
C669 C675 1.428 . S
H670 C666 0.930 . S
H671 C668 0.931 . S
S672 N673 1.613 . S
S672 N674 1.610 . S
N673 S672 1.613 . S
N673 C676 1.350 . S
N674 S672 1.610 . S
N674 C675 1.351 . S
C675 C669 1.428 . S
C675 N674 1.351 . S
C675 C676 1.434 . S
C676 C667 1.429 1_655 S
C676 N673 1.350 . S
C676 C675 1.434 . S
C677 C678 1.369 . S
C677 C679 1.419 . S
C677 H681 0.930 . S
C678 C677 1.369 . S
C678 C687 1.429 . S
C679 C677 1.419 . S
C679 C680 1.363 . S
C679 H682 0.929 . S
C680 C679 1.363 . S
C680 C686 1.428 . S
H681 C677 0.930 . S
H682 C679 0.929 . S
S683 N684 1.613 . S
S683 N685 1.610 . S
N684 S683 1.613 . S
N684 C687 1.350 . S
N685 S683 1.610 . S
N685 C686 1.351 . S
C686 C680 1.428 . S
C686 N685 1.351 . S
C686 C687 1.434 . S
C687 C678 1.429 . S
C687 N684 1.350 . S
C687 C686 1.434 . S
C688 C689 1.369 . S
C688 C690 1.419 . S
C688 H692 0.930 . S
C689 C688 1.369 . S
C689 C698 1.429 . S
C690 C688 1.419 . S
C690 C691 1.363 . S
C690 H693 0.929 . S
C691 C690 1.363 . S
C691 C697 1.428 . S
H692 C688 0.930 . S
H693 C690 0.929 . S
S694 N695 1.613 . S
S694 N696 1.610 . S
N695 S694 1.613 . S
N695 C698 1.350 . S
N696 S694 1.610 . S
N696 C697 1.351 . S
C697 C691 1.428 . S
C697 N696 1.351 . S
C697 C698 1.434 . S
C698 C689 1.429 . S
C698 N695 1.350 . S
C698 C697 1.434 . S
C699 C700 1.369 . S
C699 C701 1.419 1_565 S
C699 H703 0.930 . S
C700 C699 1.369 . S
C700 C709 1.429 . S
C701 C699 1.419 1_545 S
C701 C702 1.363 . S
C701 H704 0.929 . S
C702 C701 1.363 . S
C702 C708 1.428 . S
H703 C699 0.930 . S
H704 C701 0.929 . S
S705 N706 1.613 . S
S705 N707 1.610 1_565 S
N706 S705 1.613 . S
N706 C709 1.350 . S
N707 S705 1.610 1_545 S
N707 C708 1.351 . S
C708 C702 1.428 . S
C708 N707 1.351 . S
C708 C709 1.434 1_545 S
C709 C700 1.429 . S
C709 N706 1.350 . S
C709 C708 1.434 1_565 S
C710 C711 1.369 . S
C710 C712 1.419 1_545 S
C710 H714 0.930 . S
C711 C710 1.369 . S
C711 C720 1.429 . S
C712 C710 1.419 1_565 S
C712 C713 1.363 . S
C712 H715 0.929 . S
C713 C712 1.363 . S
C713 C719 1.428 . S
H714 C710 0.930 . S
H715 C712 0.929 . S
S716 N717 1.613 . S
S716 N718 1.610 1_545 S
N717 S716 1.613 . S
N717 C720 1.350 . S
N718 S716 1.610 1_565 S
N718 C719 1.351 . S
C719 C713 1.428 . S
C719 N718 1.351 . S
C719 C720 1.434 1_565 S
C720 C711 1.429 . S
C720 N717 1.350 . S
C720 C719 1.434 1_545 S
C721 C722 1.369 . S
C721 C723 1.419 . S
C721 H725 0.930 . S
C722 C721 1.369 . S
C722 C731 1.429 . S
C723 C721 1.419 . S
C723 C724 1.363 . S
C723 H726 0.929 . S
C724 C723 1.363 . S
C724 C730 1.428 . S
H725 C721 0.930 . S
H726 C723 0.929 . S
S727 N728 1.613 . S
S727 N729 1.610 . S
N728 S727 1.613 . S
N728 C731 1.350 . S
N729 S727 1.610 . S
N729 C730 1.351 . S
C730 C724 1.428 . S
C730 N729 1.351 . S
C730 C731 1.434 . S
C731 C722 1.429 . S
C731 N728 1.350 . S
C731 C730 1.434 . S
C732 C733 1.369 . S
C732 C734 1.419 . S
C732 H736 0.930 . S
C733 C732 1.369 . S
C733 C742 1.429 . S
C734 C732 1.419 . S
C734 C735 1.363 . S
C734 H737 0.929 . S
C735 C734 1.363 . S
C735 C741 1.428 . S
H736 C732 0.930 . S
H737 C734 0.929 . S
S738 N739 1.613 . S
S738 N740 1.610 . S
N739 S738 1.613 . S
N739 C742 1.350 . S
N740 S738 1.610 . S
N740 C741 1.351 . S
C741 C735 1.428 . S
C741 N740 1.351 . S
C741 C742 1.434 . S
C742 C733 1.429 . S
C742 N739 1.350 . S
C742 C741 1.434 . S
C743 C744 1.369 . S
C743 C745 1.419 1_556 S
C743 H747 0.930 . S
C744 C743 1.369 . S
C744 C753 1.426 . S
C745 C743 1.419 1_554 S
C745 C746 1.363 . S
C745 H748 0.929 . S
C746 C745 1.363 . S
C746 C752 1.428 . S
H747 C743 0.930 . S
H748 C745 0.929 . S
S749 N750 1.613 . S
S749 N751 1.610 . S
N750 S749 1.613 . S
N750 C753 1.350 1_554 S
N751 S749 1.610 . S
N751 C752 1.351 . S
C752 C746 1.428 . S
C752 N751 1.351 . S
C752 C753 1.437 1_554 S
C753 C744 1.426 . S
C753 N750 1.350 1_556 S
C753 C752 1.437 1_556 S
C754 C755 1.369 . S
C754 C756 1.419 . S
C754 H758 0.930 . S
C755 C754 1.369 . S
C755 C764 1.429 . S
C756 C754 1.419 . S
C756 C757 1.363 . S
C756 H759 0.929 . S
C757 C756 1.363 . S
C757 C763 1.428 . S
H758 C754 0.930 . S
H759 C756 0.929 . S
S760 N761 1.613 . S
S760 N762 1.610 . S
N761 S760 1.613 . S
N761 C764 1.350 . S
N762 S760 1.610 . S
N762 C763 1.351 . S
C763 C757 1.428 . S
C763 N762 1.351 . S
C763 C764 1.434 . S
C764 C755 1.429 . S
C764 N761 1.350 . S
C764 C763 1.434 . S
C765 C766 1.370 . S
C765 C767 1.418 1_554 S
C765 H769 0.930 . S
C766 C765 1.370 . S
C766 C775 1.429 . S
C767 C765 1.418 1_556 S
C767 C768 1.363 . S
C767 H770 0.929 . S
C768 C767 1.363 . S
C768 C774 1.428 . S
H769 C765 0.930 . S
H770 C767 0.929 . S
S771 N772 1.613 . S
S771 N773 1.628 . S
N772 S771 1.613 . S
N772 C775 1.350 . S
N773 S771 1.628 . S
N773 C774 1.349 1_554 S
C774 C768 1.428 . S
C774 N773 1.349 1_556 S
C774 C775 1.434 1_556 S
C775 C766 1.429 . S
C775 N772 1.350 . S
C775 C774 1.434 1_554 S
C776 C777 1.369 . S
C776 C778 1.419 . S
C776 H780 0.930 . S
C777 C776 1.369 . S
C777 C786 1.429 . S
C778 C776 1.419 . S
C778 C779 1.363 . S
C778 H781 0.929 . S
C779 C778 1.363 . S
C779 C785 1.428 . S
H780 C776 0.930 . S
H781 C778 0.929 . S
S782 N783 1.613 . S
S782 N784 1.610 . S
N783 S782 1.613 . S
N783 C786 1.350 . S
N784 S782 1.610 . S
N784 C785 1.351 . S
C785 C779 1.428 . S
C785 N784 1.351 . S
C785 C786 1.434 . S
C786 C777 1.429 . S
C786 N783 1.350 . S
C786 C785 1.434 . S
C787 C788 1.369 . S
C787 C789 1.419 1_655 S
C787 H791 0.930 . S
C788 C787 1.369 . S
C788 C797 1.429 . S
C789 C787 1.419 1_455 S
C789 C790 1.363 . S
C789 H792 0.929 . S
C790 C789 1.363 . S
C790 C796 1.428 . S
H791 C787 0.930 . S
H792 C789 0.929 . S
S793 N794 1.613 1_455 S
S793 N795 1.610 . S
N794 S793 1.613 1_655 S
N794 C797 1.350 . S
N795 S793 1.610 . S
N795 C796 1.351 . S
C796 C790 1.428 . S
C796 N795 1.351 . S
C796 C797 1.434 1_455 S
C797 C788 1.429 . S
C797 N794 1.350 . S
C797 C796 1.434 1_655 S
C798 C799 1.369 . S
C798 C800 1.419 . S
C798 H802 0.930 . S
C799 C798 1.369 . S
C799 C808 1.429 . S
C800 C798 1.419 . S
C800 C801 1.363 1_455 S
C800 H803 0.929 . S
C801 C800 1.363 1_655 S
C801 C807 1.428 . S
H802 C798 0.930 . S
H803 C800 0.929 . S
S804 N805 1.613 . S
S804 N806 1.610 . S
N805 S804 1.613 . S
N805 C808 1.350 1_655 S
N806 S804 1.610 . S
N806 C807 1.351 . S
C807 C801 1.428 . S
C807 N806 1.351 . S
C807 C808 1.434 1_655 S
C808 C799 1.429 . S
C808 N805 1.350 1_455 S
C808 C807 1.434 1_455 S
C809 C810 1.369 . S
C809 C811 1.419 . S
C809 H813 0.930 . S
C810 C809 1.369 . S
C810 C819 1.429 . S
C811 C809 1.419 . S
C811 C812 1.363 . S
C811 H814 0.929 . S
C812 C811 1.363 . S
C812 C818 1.428 . S
H813 C809 0.930 . S
H814 C811 0.929 . S
S815 N816 1.613 . S
S815 N817 1.610 . S
N816 S815 1.613 . S
N816 C819 1.350 . S
N817 S815 1.610 . S
N817 C818 1.351 . S
C818 C812 1.428 . S
C818 N817 1.351 . S
C818 C819 1.434 . S
C819 C810 1.429 . S
C819 N816 1.350 . S
C819 C818 1.434 . S
C820 C821 1.369 . S
C820 C822 1.419 . S
C820 H824 0.930 . S
C821 C820 1.369 . S
C821 C830 1.429 . S
C822 C820 1.419 . S
C822 C823 1.363 . S
C822 H825 0.929 . S
C823 C822 1.363 . S
C823 C829 1.428 . S
H824 C820 0.930 . S
H825 C822 0.929 . S
S826 N827 1.613 . S
S826 N828 1.610 . S
N827 S826 1.613 . S
N827 C830 1.350 . S
N828 S826 1.610 . S
N828 C829 1.351 . S
C829 C823 1.428 . S
C829 N828 1.351 . S
C829 C830 1.434 . S
C830 C821 1.429 . S
C830 N827 1.350 . S
C830 C829 1.434 . S
C831 C832 1.369 . S
C831 C833 1.419 1_565 S
C831 H835 0.930 . S
C832 C831 1.369 . S
C832 C841 1.429 . S
C833 C831 1.419 1_545 S
C833 C834 1.363 . S
C833 H836 0.929 . S
C834 C833 1.363 . S
C834 C840 1.428 . S
H835 C831 0.930 . S
H836 C833 0.929 . S
S837 N838 1.613 . S
S837 N839 1.610 1_565 S
N838 S837 1.613 . S
N838 C841 1.350 . S
N839 S837 1.610 1_545 S
N839 C840 1.351 . S
C840 C834 1.428 . S
C840 N839 1.351 . S
C840 C841 1.434 1_545 S
C841 C832 1.429 . S
C841 N838 1.350 . S
C841 C840 1.434 1_565 S
C842 C843 1.369 . S
C842 C844 1.419 1_565 S
C842 H846 0.930 . S
C843 C842 1.369 . S
C843 C852 1.429 . S
C844 C842 1.419 1_545 S
C844 C845 1.363 . S
C844 H847 0.929 . S
C845 C844 1.363 . S
C845 C851 1.428 . S
H846 C842 0.930 . S
H847 C844 0.929 . S
S848 N849 1.614 . S
S848 N850 1.610 1_565 S
N849 S848 1.614 . S
N849 C852 1.350 . S
N850 S848 1.610 1_545 S
N850 C851 1.351 . S
C851 C845 1.428 . S
C851 N850 1.351 . S
C851 C852 1.434 1_545 S
C852 C843 1.429 . S
C852 N849 1.350 . S
C852 C851 1.434 1_565 S
C853 C854 1.369 . S
C853 C855 1.419 . S
C853 H857 0.930 . S
C854 C853 1.369 . S
C854 C863 1.429 . S
C855 C853 1.419 . S
C855 C856 1.363 . S
C855 H858 0.929 . S
C856 C855 1.363 . S
C856 C862 1.428 . S
H857 C853 0.930 . S
H858 C855 0.929 . S
S859 N860 1.613 . S
S859 N861 1.610 . S
N860 S859 1.613 . S
N860 C863 1.350 . S
N861 S859 1.610 . S
N861 C862 1.351 . S
C862 C856 1.428 . S
C862 N861 1.351 . S
C862 C863 1.434 . S
C863 C854 1.429 . S
C863 N860 1.350 . S
C863 C862 1.434 . S
C337 C121 1.364 . S
C339 C8 1.304 . S
C348 C22 1.313 . S
C350 C163 1.360 . S
C359 C36 1.313 . S
C361 C135 1.361 . S
C370 C50 1.306 . S
C372 C149 1.363 . S
C381 C64 1.309 . S
C383 C9 1.360 . S
C392 C23 1.359 . S
C394 C78 1.311 . S
C403 C92 1.307 . S
C405 C37 1.363 . S
C414 C51 1.360 . S
C416 C106 1.310 . S
C425 C65 1.364 . S
C427 C120 1.304 . S
C436 C93 1.362 . S
C438 C134 1.310 . S
C447 C148 1.304 . S
C449 C107 1.364 . S
C458 C79 1.362 . S
C460 C162 1.305 . S
C469 C289 1.363 . S
C471 C176 1.303 . S
C480 C190 1.302 . S
C482 C331 1.363 . S
C491 C204 1.302 . S
C493 C303 1.363 . S
C502 C317 1.363 . S
C504 C218 1.303 . S
C513 C232 1.308 . S
C515 C177 1.360 . S
C524 C191 1.360 . S
C526 C246 1.308 . S
C535 C205 1.363 . S
C537 C260 1.303 . S
C546 C274 1.312 . S
C548 C219 1.360 . S
C557 C288 1.312 . S
C559 C233 1.362 . S
C568 C261 1.360 . S
C570 C302 1.307 . S
C579 C275 1.364 . S
C581 C316 1.303 . S
C590 C330 1.303 . S
C592 C247 1.364 . S
C601 C314 1.497 . S
C603 C7 1.561 . S
C612 C300 1.501 . S
C614 C21 1.559 . S
C623 C328 1.491 . S
C625 C35 1.560 . S
C634 C49 1.557 . S
C636 C286 1.494 . S
C645 C63 1.556 . S
C647 C188 1.496 . S
C656 C174 1.491 . S
C658 C77 1.559 . S
C667 C216 1.501 . S
C669 C91 1.556 . S
C678 C202 1.493 . S
C680 C105 1.561 . S
C689 C119 1.555 . S
C691 C258 1.498 . S
C700 C230 1.495 . S
C702 C133 1.561 . S
C711 C244 1.495 . S
C713 C147 1.561 . S
C722 C272 1.497 . S
C724 C161 1.561 . S
C733 C146 1.499 . S
C735 C175 1.556 . S
C744 C132 1.502 . S
C746 C189 1.556 . S
C755 C203 1.558 . S
C757 C160 1.494 . S
C766 C118 1.491 . S
C768 C217 1.560 . S
C777 C231 1.558 . S
C779 C20 1.494 . S
C788 C245 1.559 . S
C790 C6 1.493 . S
C799 C259 1.561 . S
C801 C48 1.493 . S
C810 C273 1.561 . S
C812 C34 1.498 . S
C821 C287 1.557 . S
C823 C90 1.501 . S
C832 C301 1.555 . S
C834 C62 1.497 . S
C843 C76 1.495 . S
C845 C315 1.561 . S
C854 C329 1.560 . S
C856 C104 1.492 . S
