# Generated by pormake.
# Topology wgw, (6)-cn, num edge types: 1
# Building blocks:
#     Node 0, Type 0, BuildingBlock: OJICUG_clean_sbu_0, # of connection points: 6
#     Node 1, Type 0, BuildingBlock: OJICUG_clean_sbu_0, # of connection points: 6
#     Node 2, Type 0, BuildingBlock: OJICUG_clean_sbu_0, # of connection points: 6
#     Node 3, Type 0, BuildingBlock: OJICUG_clean_sbu_0, # of connection points: 6
#     Node 4, Type 0, BuildingBlock: OJICUG_clean_sbu_0, # of connection points: 6
#     Node 5, Type 0, BuildingBlock: OJICUG_clean_sbu_0, # of connection points: 6
#     Node 6, Type 0, BuildingBlock: OJICUG_clean_sbu_0, # of connection points: 6
#     Node 7, Type 0, BuildingBlock: OJICUG_clean_sbu_0, # of connection points: 6
#     Edge 8, Type (0, 0), BuildingBlock: KIFKEQ_clean_linker_1, # of connection points: 2
#     Edge 9, Type (0, 0), BuildingBlock: KIFKEQ_clean_linker_1, # of connection points: 2
#     Edge 10, Type (0, 0), BuildingBlock: KIFKEQ_clean_linker_1, # of connection points: 2
#     Edge 11, Type (0, 0), BuildingBlock: KIFKEQ_clean_linker_1, # of connection points: 2
#     Edge 12, Type (0, 0), BuildingBlock: KIFKEQ_clean_linker_1, # of connection points: 2
#     Edge 13, Type (0, 0), BuildingBlock: KIFKEQ_clean_linker_1, # of connection points: 2
#     Edge 14, Type (0, 0), BuildingBlock: KIFKEQ_clean_linker_1, # of connection points: 2
#     Edge 15, Type (0, 0), BuildingBlock: KIFKEQ_clean_linker_1, # of connection points: 2
#     Edge 16, Type (0, 0), BuildingBlock: KIFKEQ_clean_linker_1, # of connection points: 2
#     Edge 17, Type (0, 0), BuildingBlock: KIFKEQ_clean_linker_1, # of connection points: 2
#     Edge 18, Type (0, 0), BuildingBlock: KIFKEQ_clean_linker_1, # of connection points: 2
#     Edge 19, Type (0, 0), BuildingBlock: KIFKEQ_clean_linker_1, # of connection points: 2
#     Edge 20, Type (0, 0), BuildingBlock: KIFKEQ_clean_linker_1, # of connection points: 2
#     Edge 21, Type (0, 0), BuildingBlock: KIFKEQ_clean_linker_1, # of connection points: 2
#     Edge 22, Type (0, 0), BuildingBlock: KIFKEQ_clean_linker_1, # of connection points: 2
#     Edge 23, Type (0, 0), BuildingBlock: KIFKEQ_clean_linker_1, # of connection points: 2
#     Edge 24, Type (0, 0), BuildingBlock: KIFKEQ_clean_linker_1, # of connection points: 2
#     Edge 25, Type (0, 0), BuildingBlock: KIFKEQ_clean_linker_1, # of connection points: 2
#     Edge 26, Type (0, 0), BuildingBlock: KIFKEQ_clean_linker_1, # of connection points: 2
#     Edge 27, Type (0, 0), BuildingBlock: KIFKEQ_clean_linker_1, # of connection points: 2
#     Edge 28, Type (0, 0), BuildingBlock: KIFKEQ_clean_linker_1, # of connection points: 2
#     Edge 29, Type (0, 0), BuildingBlock: KIFKEQ_clean_linker_1, # of connection points: 2
#     Edge 30, Type (0, 0), BuildingBlock: KIFKEQ_clean_linker_1, # of connection points: 2
#     Edge 31, Type (0, 0), BuildingBlock: KIFKEQ_clean_linker_1, # of connection points: 2
# Relax obj value: 0.221
# Max RMSD: 0.288
# Mean RMSD: 0.288
data_MOF--net-wgw--node1-OJICUG_clean_sbu_0--edge1-KIFKEQ_clean_linker_1
_symmetry_space_group_name_H-M    P1
_symmetry_Int_Tables_number       1
_symmetry_cell_setting            triclinic
loop_
_symmetry_equiv_pos_as_xyz
'x, y, z'
_cell_length_a     29.682389
_cell_length_b     29.599303
_cell_length_c     44.105586
_cell_angle_alpha  89.958915
_cell_angle_beta   89.838289
_cell_angle_gamma 89.921867
loop_
_atom_site_label
_atom_site_type_symbol
_atom_site_fract_x
_atom_site_fract_y
_atom_site_fract_z
_atom_type_partial_charge
Sc0 Sc 0.10256 0.47259 0.15441 0.0
Sc1 Sc 0.04689 0.44231 0.22151 0.0
Sc2 Sc 0.02477 0.38305 0.15416 0.0
O3 O 0.05801 0.43251 0.17664 0.0
C4 C 0.03288 0.4543 0.10086 0.0
C5 C 0.05022 0.543 0.19399 0.0
C6 C 0.94791 0.42713 0.19465 0.0
C7 C 0.14884 0.46618 0.21996 0.0
C8 C 0.12831 0.37223 0.13417 0.0
C9 C 0.03922 0.33616 0.21898 0.0
O10 O 0.06612 0.47461 0.11247 0.0
O11 O 0.04458 0.51409 0.21503 0.0
O12 O 0.95986 0.40655 0.17054 0.0
O13 O 0.14659 0.47953 0.19267 0.0
O14 O 0.08802 0.35747 0.13669 0.0
O15 O 0.04727 0.37216 0.23348 0.0
O16 O 0.13957 0.41291 0.14033 0.0
O17 O 0.11698 0.44533 0.23302 0.0
O18 O 0.03052 0.33574 0.19083 0.0
O19 O 0.0672 0.53317 0.16824 0.0
O20 O 0.01325 0.42172 0.11392 0.0
O21 O 0.97557 0.44052 0.21469 0.0
Sc22 Sc 0.10527 0.01852 0.6571 0.0
Sc23 Sc 0.03863 0.03485 0.72261 0.0
Sc24 Sc 0.02232 0.10367 0.65872 0.0
O25 O 0.05558 0.05238 0.67946 0.0
C26 C 0.12584 0.12213 0.64202 0.0
C27 C 0.14417 0.01754 0.72436 0.0
C28 C 0.03385 0.14027 0.72699 0.0
C29 C 0.04705 0.94062 0.68801 0.0
C30 C 0.03759 0.03774 0.60267 0.0
C31 C 0.94223 0.05695 0.69365 0.0
O32 O 0.13818 0.08103 0.64464 0.0
O33 O 0.10657 0.02336 0.73745 0.0
O34 O 0.02374 0.14423 0.6991 0.0
O35 O 0.07567 0.9535 0.6682 0.0
O36 O 0.01694 0.06979 0.61581 0.0
O37 O 0.96822 0.04332 0.71453 0.0
O38 O 0.06981 0.01634 0.61487 0.0
O39 O 0.03133 0.96617 0.70866 0.0
O40 O 0.95642 0.07667 0.66986 0.0
O41 O 0.1485 0.01612 0.69579 0.0
O42 O 0.08529 0.13509 0.64608 0.0
O43 O 0.0431 0.10274 0.73948 0.0
Sc44 Sc 0.46082 0.10327 0.15376 0.0
Sc45 Sc 0.43722 0.03951 0.21942 0.0
Sc46 Sc 0.37495 0.02175 0.15305 0.0
O47 O 0.42425 0.05514 0.17543 0.0
C48 C 0.35887 0.12483 0.13466 0.0
C49 C 0.45611 0.14548 0.22 0.0
C50 C 0.33232 0.03347 0.21986 0.0
C51 C 0.53455 0.0456 0.18932 0.0
C52 C 0.44612 0.03474 0.09942 0.0
C53 C 0.41835 0.9424 0.19003 0.0
O54 O 0.40026 0.13576 0.13719 0.0
O55 O 0.44954 0.10825 0.23359 0.0
O56 O 0.3315 0.02132 0.19222 0.0
O57 O 0.52382 0.07432 0.16903 0.0
O58 O 0.4108 0.0174 0.1107 0.0
O59 O 0.4277 0.96866 0.21187 0.0
O60 O 0.46874 0.0648 0.11297 0.0
O61 O 0.50686 0.02981 0.20865 0.0
O62 O 0.40291 0.95632 0.16481 0.0
O63 O 0.45869 0.14867 0.19139 0.0
O64 O 0.3443 0.08509 0.1401 0.0
O65 O 0.36801 0.04613 0.23322 0.0
Sc66 Sc 0.4707 0.38373 0.65504 0.0
Sc67 Sc 0.45211 0.45175 0.71894 0.0
Sc68 Sc 0.38439 0.46533 0.65416 0.0
O69 O 0.4355 0.43357 0.67609 0.0
C70 C 0.44952 0.44796 0.59858 0.0
C71 C 0.54759 0.44054 0.68518 0.0
C72 C 0.43621 0.54651 0.68595 0.0
C73 C 0.47136 0.34815 0.72385 0.0
C74 C 0.36868 0.35949 0.64099 0.0
C75 C 0.34539 0.46073 0.72167 0.0
O76 O 0.46801 0.41382 0.61068 0.0
O77 O 0.52272 0.45085 0.70772 0.0
O78 O 0.40905 0.53225 0.66581 0.0
O79 O 0.48086 0.34544 0.69585 0.0
O80 O 0.35594 0.40076 0.64082 0.0
O81 O 0.38327 0.45674 0.73477 0.0
O82 O 0.40895 0.34733 0.64701 0.0
O83 O 0.45428 0.38326 0.73579 0.0
O84 O 0.34127 0.46337 0.6931 0.0
O85 O 0.53372 0.41801 0.66248 0.0
O86 O 0.42061 0.47196 0.61232 0.0
O87 O 0.45332 0.52135 0.7062 0.0
Sc88 Sc 0.52453 0.60604 0.33206 0.0
Sc89 Sc 0.54062 0.54039 0.26618 0.0
Sc90 Sc 0.60747 0.52074 0.33087 0.0
O91 O 0.55769 0.55591 0.30965 0.0
C92 C 0.62771 0.62285 0.34962 0.0
C93 C 0.53042 0.64731 0.26501 0.0
C94 C 0.6463 0.52856 0.26313 0.0
C95 C 0.44516 0.55521 0.29828 0.0
C96 C 0.53904 0.53588 0.38585 0.0
C97 C 0.55405 0.4432 0.29693 0.0
O98 O 0.58697 0.63581 0.34691 0.0
O99 O 0.5362 0.60989 0.2514 0.0
O100 O 0.64949 0.52079 0.29134 0.0
O101 O 0.45896 0.58093 0.31936 0.0
O102 O 0.57238 0.51629 0.37346 0.0
O103 O 0.54069 0.4697 0.27615 0.0
O104 O 0.51789 0.56808 0.37331 0.0
O105 O 0.47063 0.53916 0.27777 0.0
O106 O 0.57836 0.45589 0.31907 0.0
O107 O 0.52639 0.6504 0.29361 0.0
O108 O 0.64049 0.58251 0.34427 0.0
O109 O 0.60932 0.5378 0.25008 0.0
Sc110 Sc 0.88344 0.51567 0.83049 0.0
Sc111 Sc 0.94798 0.53454 0.766 0.0
Sc112 Sc 0.96642 0.59977 0.83112 0.0
O113 O 0.93275 0.55041 0.80927 0.0
C114 C 0.86149 0.61769 0.84581 0.0
C115 C 0.84589 0.52097 0.76234 0.0
C116 C 0.96329 0.64086 0.76472 0.0
C117 C 0.93214 0.4381 0.79731 0.0
C118 C 0.94885 0.53462 0.88629 0.0
C119 C 0.04361 0.54311 0.79756 0.0
O120 O 0.84829 0.57806 0.83868 0.0
O121 O 0.87948 0.54167 0.75123 0.0
O122 O 0.96323 0.6449 0.79332 0.0
O123 O 0.91794 0.45265 0.82273 0.0
O124 O 0.97436 0.5615 0.87197 0.0
O125 O 0.01686 0.52547 0.77847 0.0
O126 O 0.91324 0.51844 0.87484 0.0
O127 O 0.93807 0.46356 0.77437 0.0
O128 O 0.03163 0.57316 0.81674 0.0
O129 O 0.84523 0.50598 0.78937 0.0
O130 O 0.90305 0.62915 0.84658 0.0
O131 O 0.96041 0.60296 0.75147 0.0
Sc132 Sc 0.87733 0.97161 0.33661 0.0
Sc133 Sc 0.93398 0.94915 0.26934 0.0
Sc134 Sc 0.96014 0.88705 0.33488 0.0
O135 O 0.92392 0.93547 0.31371 0.0
C136 C 0.94831 0.95487 0.38958 0.0
C137 C 0.92182 0.04704 0.29873 0.0
C138 C 0.03266 0.94367 0.29697 0.0
C139 C 0.83173 0.96212 0.27088 0.0
C140 C 0.85736 0.86975 0.35484 0.0
C141 C 0.95059 0.84329 0.26939 0.0
O142 O 0.91279 0.97245 0.37895 0.0
O143 O 0.92455 0.0205 0.27614 0.0
O144 O 0.02325 0.91485 0.31764 0.0
O145 O 0.83413 0.97828 0.29754 0.0
O146 O 0.89868 0.85768 0.35296 0.0
O147 O 0.94536 0.88038 0.25551 0.0
O148 O 0.84361 0.90963 0.34863 0.0
O149 O 0.86416 0.94118 0.25841 0.0
O150 O 0.95438 0.84066 0.29793 0.0
O151 O 0.91065 0.03394 0.32515 0.0
O152 O 0.97094 0.92543 0.37535 0.0
O153 O 0.00385 0.95896 0.27826 0.0
Sc154 Sc 0.52206 0.881 0.83205 0.0
Sc155 Sc 0.53428 0.95151 0.76791 0.0
Sc156 Sc 0.60516 0.96595 0.83117 0.0
O157 O 0.55397 0.93268 0.81031 0.0
C158 C 0.54036 0.9476 0.88747 0.0
C159 C 0.44115 0.93566 0.8029 0.0
C160 C 0.55111 0.04662 0.80035 0.0
C161 C 0.52291 0.84512 0.76355 0.0
C162 C 0.62575 0.862 0.84617 0.0
C163 C 0.64029 0.96137 0.76242 0.0
O164 O 0.52041 0.91458 0.87509 0.0
O165 O 0.46526 0.95156 0.78161 0.0
O166 O 0.57773 0.03204 0.82072 0.0
O167 O 0.51942 0.84011 0.79204 0.0
O168 O 0.63771 0.9031 0.84321 0.0
O169 O 0.60211 0.95545 0.75008 0.0
O170 O 0.58524 0.84882 0.84281 0.0
O171 O 0.52947 0.88322 0.75101 0.0
O172 O 0.64553 0.96587 0.79083 0.0
O173 O 0.45603 0.90906 0.82322 0.0
O174 O 0.57107 0.97003 0.87421 0.0
O175 O 0.53451 0.02159 0.77989 0.0
H176 H 0.41274 0.47177 0.28839 0.0
H177 H 0.37095 0.60904 0.3054 0.0
H178 H 0.33531 0.45056 0.2774 0.0
H179 H 0.29277 0.58802 0.29369 0.0
H180 H 0.20142 0.53947 0.21069 0.0
H181 H 0.26753 0.56257 0.23912 0.0
H182 H 0.25215 0.44711 0.2981 0.0
H183 H 0.18484 0.42406 0.26977 0.0
C184 C 0.38666 0.49711 0.29039 0.0
C185 C 0.39758 0.542 0.29733 0.0
C186 C 0.34236 0.48492 0.28439 0.0
C187 C 0.30831 0.51773 0.28464 0.0
C188 C 0.31868 0.56221 0.29341 0.0
C189 C 0.36313 0.57419 0.3001 0.0
C190 C 0.21196 0.51902 0.22979 0.0
C191 C 0.18853 0.47952 0.23774 0.0
C192 C 0.24932 0.53272 0.24635 0.0
C193 C 0.26446 0.50684 0.27092 0.0
C194 C 0.24072 0.46772 0.27932 0.0
C195 C 0.20258 0.45444 0.26306 0.0
H196 H 0.96709 0.37891 0.83933 0.0
H197 H 0.92382 0.3896 0.74613 0.0
H198 H -0.00077 0.30375 0.82839 0.0
H199 H 0.95529 0.31568 0.73548 0.0
H200 H 0.06263 0.22343 0.71148 0.0
H201 H 0.04009 0.29437 0.73502 0.0
H202 H 0.97365 0.221 0.80696 0.0
H203 H -0.00266 0.14938 0.7836 0.0
C204 C 0.96361 0.36479 0.81681 0.0
C205 C 0.94372 0.39015 0.79341 0.0
C206 C 0.98212 0.32214 0.81057 0.0
C207 C 0.98079 0.30486 0.78092 0.0
C208 C 0.95792 0.32895 0.7583 0.0
C209 C 0.9397 0.37111 0.76445 0.0
C210 C 0.04448 0.22249 0.73283 0.0
C211 C 0.03104 0.18126 0.74556 0.0
C212 C 0.03151 0.26294 0.74624 0.0
C213 C 0.00425 0.26284 0.77231 0.0
C214 C -0.00542 0.22174 0.78681 0.0
C215 C 0.00812 0.18095 0.77349 0.0
H216 H 0.32118 0.01035 0.27957 0.0
H217 H 0.24807 0.04662 0.19857 0.0
H218 H 0.24964 0.99279 0.30521 0.0
H219 H 0.17738 0.02947 0.22392 0.0
H220 H 0.11359 0.90189 0.30929 0.0
H221 H 0.1889 0.93078 0.29646 0.0
H222 H 0.12958 0.05658 0.26694 0.0
H223 H 0.05511 0.02785 0.27916 0.0
C224 C 0.28982 0.01554 0.26755 0.0
C225 C 0.28997 0.0298 0.23713 0.0
C226 C 0.24909 0.00513 0.28208 0.0
C227 C 0.20809 0.0098 0.26654 0.0
C228 C 0.20842 0.02602 0.2366 0.0
C229 C 0.24888 0.03568 0.22202 0.0
C230 C 0.11695 0.93597 0.30062 0.0
C231 C 0.0786 0.96218 0.29443 0.0
C232 C 0.15991 0.95258 0.29344 0.0
C233 C 0.16481 -0.00438 0.28024 0.0
C234 C 0.12665 0.02298 0.27652 0.0
C235 C 0.08405 0.00642 0.28342 0.0
H236 H 0.54666 0.29779 0.71884 0.0
H237 H 0.42529 0.31185 0.77221 0.0
H238 H 0.56656 0.22983 0.74692 0.0
H239 H 0.44486 0.24244 0.8001 0.0
H240 H 0.46937 0.0812 0.78653 0.0
H241 H 0.45027 0.16 0.77684 0.0
H242 H 0.58513 0.19958 0.80166 0.0
H243 H 0.60406 0.12024 0.81214 0.0
C244 C 0.52443 0.28644 0.73683 0.0
C245 C 0.48416 0.30958 0.74316 0.0
C246 C 0.53612 0.24789 0.75313 0.0
C247 C 0.50736 0.2311 0.77573 0.0
C248 C 0.46767 0.25497 0.78282 0.0
C249 C 0.45645 0.29444 0.76691 0.0
C250 C 0.49459 0.10686 0.79068 0.0
C251 C 0.53831 0.09474 0.79976 0.0
C252 C 0.48352 0.15195 0.78539 0.0
C253 C 0.51625 0.18573 0.78847 0.0
C254 C 0.55932 0.17401 0.79919 0.0
C255 C 0.57013 0.12879 0.80518 0.0
H256 H 0.72836 0.56093 0.27711 0.0
H257 H 0.65753 0.48332 0.2096 0.0
H258 H 0.80007 0.53719 0.25548 0.0
H259 H 0.7299 0.45799 0.18832 0.0
H260 H 0.88202 0.44733 0.1529 0.0
H261 H 0.80644 0.47754 0.16412 0.0
H262 H 0.83153 0.46041 0.25989 0.0
H263 H 0.90616 0.43145 0.24885 0.0
C264 C 0.72829 0.53954 0.25717 0.0
C265 C 0.68772 0.52353 0.24514 0.0
C266 C 0.76924 0.52564 0.24493 0.0
C267 C 0.77047 0.49464 0.22081 0.0
C268 C 0.72985 0.48171 0.207 0.0
C269 C 0.68857 0.49627 0.21908 0.0
C270 C 0.87083 0.44944 0.17625 0.0
C271 C 0.90004 0.43776 0.20006 0.0
C272 C 0.82782 0.46685 0.18266 0.0
C273 C 0.81375 0.47259 0.21289 0.0
C274 C 0.84203 0.4579 0.2364 0.0
C275 C 0.88466 0.44096 0.23007 0.0
H276 H 0.96146 0.91414 0.69738 0.0
H277 H 0.09462 0.86245 0.67832 0.0
H278 H 0.93508 0.83798 0.70817 0.0
H279 H 0.06841 0.78572 0.69 0.0
H280 H -0.00158 0.64909 0.70736 0.0
H281 H 0.01452 0.71959 0.68004 0.0
H282 H 0.95702 0.7957 0.75425 0.0
H283 H 0.94102 0.72613 0.78121 0.0
C284 C 0.98484 0.8862 0.69496 0.0
C285 C 0.03022 0.89397 0.68765 0.0
C286 C 0.96977 0.8427 0.70113 0.0
C287 C -5e-05 0.80619 0.70057 0.0
C288 C 0.04444 0.81333 0.69056 0.0
C289 C 0.05949 0.85711 0.68398 0.0
C290 C 0.98858 0.68096 0.71748 0.0
C291 C 0.96868 0.68224 0.74646 0.0
C292 C -0.00199 0.72115 0.70195 0.0
C293 C 0.98683 0.763 0.71496 0.0
C294 C 0.96542 0.76394 0.74341 0.0
C295 C 0.95658 0.72408 0.75899 0.0
H296 H 0.56372 0.96273 0.20649 0.0
H297 H 0.61091 0.09385 0.17742 0.0
H298 H 0.64077 0.94061 0.21876 0.0
H299 H 0.68821 0.07176 0.19022 0.0
H300 H 0.77995 0.03679 0.27561 0.0
H301 H 0.71259 0.05562 0.247 0.0
H302 H 0.72466 0.93089 0.19692 0.0
H303 H 0.79343 0.91218 0.22536 0.0
C304 C 0.59077 0.98647 0.2022 0.0
C305 C 0.58152 0.03023 0.19151 0.0
C306 C 0.63479 0.97363 0.20892 0.0
C307 C 0.67009 0.00461 0.20551 0.0
C308 C 0.6613 0.0474 0.193 0.0
C309 C 0.61727 0.05998 0.18571 0.0
C310 C 0.76841 0.01339 0.25842 0.0
C311 C 0.79142 0.97272 0.25293 0.0
C312 C 0.73028 0.02452 0.24178 0.0
C313 C 0.71392 -0.00512 0.21964 0.0
C314 C 0.73705 0.95434 0.21379 0.0
C315 C 0.77604 0.94361 0.23007 0.0
H316 H 0.38534 0.62394 0.68125 0.0
H317 H 0.52159 0.5751 0.69056 0.0
H318 H 0.41123 0.70092 0.69303 0.0
H319 H 0.54747 0.65126 0.70171 0.0
H320 H 0.54732 0.75971 0.77762 0.0
H321 H 0.52887 0.69081 0.75053 0.0
H322 H 0.46463 0.76905 0.68011 0.0
H323 H 0.48366 0.83889 0.70745 0.0
C324 C 0.42092 0.63 0.68481 0.0
C325 C 0.45144 0.59379 0.68565 0.0
C326 C 0.43576 0.67389 0.69146 0.0
C327 C 0.48123 0.68175 0.6988 0.0
C328 C 0.51214 0.646 0.69669 0.0
C329 C 0.49735 0.60248 0.69035 0.0
C330 C 0.52994 0.76234 0.75611 0.0
C331 C 0.51694 0.80455 0.74461 0.0
C332 C 0.51954 0.7229 0.7405 0.0
C333 C 0.49541 0.72463 0.71316 0.0
C334 C 0.48323 0.76689 0.70116 0.0
C335 C 0.49441 0.8067 0.71663 0.0
H336 H 0.80017 0.44246 0.76121 0.0
H337 H 0.80559 0.57432 0.71942 0.0
H338 H 0.73259 0.42464 0.73239 0.0
H339 H 0.73657 0.55676 0.69095 0.0
H340 H 0.578 0.51973 0.70755 0.0
H341 H 0.65591 0.54134 0.71684 0.0
H342 H 0.70147 0.41706 0.67571 0.0
H343 H 0.62294 0.39586 0.66548 0.0
C344 C 0.78698 0.46747 0.74561 0.0
C345 C 0.80747 0.50998 0.74277 0.0
C346 C 0.74874 0.45704 0.72885 0.0
C347 C 0.72972 0.48925 0.70939 0.0
C348 C 0.75098 0.53134 0.70571 0.0
C349 C 0.79014 0.5414 0.722 0.0
C350 C 0.60469 0.49761 0.69972 0.0
C351 C 0.59465 0.45597 0.68608 0.0
C352 C 0.64922 0.51017 0.7048 0.0
C353 C 0.68445 0.48084 0.69695 0.0
C354 C 0.67466 0.44025 0.68181 0.0
C355 C 0.62995 0.42814 0.67602 0.0
H356 H 0.04398 0.58112 0.24932 0.0
H357 H 0.02433 0.61027 0.15421 0.0
H358 H 0.01412 0.65438 0.26255 0.0
H359 H -0.0068 0.68473 0.16778 0.0
H360 H -0.00707 0.8315 0.21485 0.0
H361 H 0.01471 0.75907 0.1921 0.0
H362 H 0.93967 0.68876 0.26168 0.0
H363 H 0.9197 0.76061 0.28491 0.0
C364 C 0.03305 0.60322 0.23116 0.0
C365 C 0.03587 0.58966 0.20072 0.0
C366 C 0.01559 0.64518 0.23879 0.0
C367 C 7e-05 0.67477 0.21625 0.0
C368 C 0.00458 0.66231 0.18561 0.0
C369 C 0.02245 0.61991 0.17786 0.0
C370 C 0.98037 0.80046 0.22477 0.0
C371 C 0.95546 0.80131 0.25191 0.0
C372 C -0.00728 0.75912 0.21174 0.0
C373 C 0.97981 0.71835 0.22558 0.0
C374 C 0.95121 0.71967 0.25103 0.0
C375 C 0.93961 0.7607 0.26427 0.0
H376 H 0.87769 0.03657 0.65079 0.0
H377 H 0.89777 0.05663 0.74681 0.0
H378 H 0.80098 0.0083 0.66122 0.0
H379 H 0.8224 0.02912 0.75698 0.0
H380 H 0.72209 0.92558 0.77344 0.0
H381 H 0.7933 0.94849 0.75073 0.0
H382 H 0.72215 0.03335 0.68714 0.0
H383 H 0.6501 0.00927 0.70964 0.0
C384 C 0.8654 0.03585 0.67393 0.0
C385 C 0.89378 0.04804 0.69806 0.0
C386 C 0.82179 0.01954 0.67987 0.0
C387 C 0.80648 0.01535 0.70995 0.0
C388 C 0.83388 0.03069 0.73365 0.0
C389 C 0.87696 0.04668 0.7278 0.0
C390 C 0.72157 0.94805 0.75403 0.0
C391 C 0.68087 0.96615 0.74348 0.0
C392 C 0.76225 0.96131 0.74111 0.0
C393 C 0.76312 0.99355 0.71773 0.0
C394 C 0.72227 0.00855 0.70522 0.0
C395 C 0.68119 -0.00525 0.71802 0.0
H396 H 0.45481 0.88104 0.14994 0.0
H397 H 0.40564 0.89573 0.24163 0.0
H398 H 0.48688 0.80678 0.16331 0.0
H399 H 0.43684 0.82243 0.25472 0.0
H400 H 0.49521 0.65538 0.20773 0.0
H401 H 0.46639 0.72503 0.18444 0.0
H402 H 0.51966 0.80222 0.25918 0.0
H403 H 0.54769 0.73329 0.28249 0.0
C404 C 0.44976 0.86782 0.1726 0.0
C405 C 0.42828 0.89415 0.19489 0.0
C406 C 0.46828 0.82563 0.18027 0.0
C407 C 0.4654 0.80964 0.21026 0.0
C408 C 0.4407 0.83456 0.23167 0.0
C409 C 0.42253 0.87633 0.22412 0.0
C410 C 0.50181 0.68743 0.21868 0.0
C411 C 0.523 0.68892 0.24718 0.0
C412 C 0.48522 0.72717 0.20539 0.0
C413 C 0.4898 0.7687 0.22045 0.0
C414 C 0.51464 0.77043 0.24749 0.0
C415 C 0.53088 0.73101 0.26076 0.0
H416 H 0.26135 0.43565 0.70528 0.0
H417 H 0.33562 0.4962 0.77886 0.0
H418 H 0.19109 0.45174 0.73128 0.0
H419 H 0.26439 0.51239 0.80528 0.0
H420 H 0.1216 0.59135 0.80624 0.0
H421 H 0.19836 0.56539 0.79459 0.0
H422 H 0.14716 0.43158 0.7765 0.0
H423 H 0.07106 0.45765 0.78725 0.0
C424 C 0.26263 0.45178 0.72731 0.0
C425 C 0.30391 0.46482 0.73999 0.0
C426 C 0.22235 0.46076 0.74234 0.0
C427 C 0.22223 0.48327 0.77038 0.0
C428 C 0.26357 0.49512 0.78365 0.0
C429 C 0.30421 0.48555 0.76868 0.0
C430 C 0.12713 0.55621 0.80046 0.0
C431 C 0.09051 0.52674 0.79692 0.0
C432 C 0.17096 0.54129 0.79392 0.0
C433 C 0.17853 0.49666 0.78407 0.0
C434 C 0.14221 0.46638 0.78336 0.0
C435 C 0.09868 0.48132 0.78951 0.0
H436 H 0.01847 0.32557 0.27908 0.0
H437 H 0.04609 0.25076 0.19694 0.0
H438 H 0.99035 0.25656 0.30312 0.0
H439 H 0.01888 0.1821 0.22111 0.0
H440 H 0.90303 0.09626 0.24912 0.0
H441 H 0.93789 0.1669 0.23385 0.0
H442 H 0.00703 0.17415 0.31976 0.0
H443 H 0.97118 0.10286 0.33538 0.0
C444 C 0.01988 0.29418 0.2665 0.0
C445 C 0.03356 0.29362 0.23592 0.0
C446 C 0.00372 0.25479 0.28027 0.0
C447 C 0.0013 0.2145 0.26362 0.0
C448 C 0.01921 0.21314 0.23412 0.0
C449 C 0.035 0.25234 0.22035 0.0
C450 C 0.92498 0.11337 0.265 0.0
C451 C 0.93481 0.09415 0.29327 0.0
C452 C 0.94529 0.15349 0.25615 0.0
C453 C 0.97621 0.17508 0.27528 0.0
C454 C 0.9836 0.15778 0.30454 0.0
C455 C 0.96291 0.11737 0.31353 0.0
H456 H 0.36479 0.88486 0.81051 0.0
H457 H 0.41236 0.02106 0.79681 0.0
H458 H 0.28774 0.9097 0.7986 0.0
H459 H 0.33601 0.04595 0.78558 0.0
H460 H 0.22993 0.03774 0.70857 0.0
H461 H 0.29828 0.02134 0.73662 0.0
H462 H 0.21939 0.96498 0.80984 0.0
H463 H 0.1501 0.98186 0.78158 0.0
C464 C 0.3584 0.92029 0.80608 0.0
C465 C 0.3942 0.95101 0.80389 0.0
C466 C 0.3145 0.93452 0.79936 0.0
C467 C 0.30636 0.97953 0.79065 0.0
C468 C 0.34163 0.01094 0.79173 0.0
C469 C 0.3852 -0.00327 0.79811 0.0
C470 C 0.22703 0.02231 0.73078 0.0
C471 C 0.18482 0.01097 0.74289 0.0
C472 C 0.26612 0.01323 0.74695 0.0
C473 C 0.26395 0.99218 0.77546 0.0
C474 C 0.22176 0.98132 0.78791 0.0
C475 C 0.18233 0.99116 0.77185 0.0
H476 H 0.46927 0.4192 0.28461 0.0
H477 H 0.59937 0.36285 0.30602 0.0
H478 H 0.44052 0.34446 0.27322 0.0
H479 H 0.5709 0.287 0.29337 0.0
H480 H 0.49094 0.15305 0.27743 0.0
H481 H 0.51254 0.22316 0.30346 0.0
H482 H 0.46187 0.30061 0.2278 0.0
H483 H 0.4404 0.23154 0.20218 0.0
C484 C 0.49148 0.39053 0.28734 0.0
C485 C 0.53658 0.39672 0.29572 0.0
C486 C 0.47509 0.34775 0.28074 0.0
C487 C 0.50373 0.3101 0.28177 0.0
C488 C 0.5481 0.31556 0.29243 0.0
C489 C 0.56443 0.35879 0.29954 0.0
C490 C 0.48371 0.18521 0.26675 0.0
C491 C 0.46395 0.18693 0.2378 0.0
C492 C 0.49644 0.22515 0.28149 0.0
C493 C 0.48875 0.26726 0.2677 0.0
C494 C 0.46769 0.26872 0.23922 0.0
C495 C 0.45555 0.22911 0.22445 0.0
H496 H 0.21885 0.37865 0.14505 0.0
H497 H 0.11859 0.29039 0.10625 0.0
H498 H 0.27513 0.31926 0.13998 0.0
H499 H 0.17522 0.23156 0.10008 0.0
H500 H 0.26697 0.12013 0.13822 0.0
H501 H 0.21311 0.18123 0.13277 0.0
H502 H 0.32105 0.27256 0.10887 0.0
H503 H 0.37538 0.21152 0.11539 0.0
C504 C 0.20906 0.34697 0.1347 0.0
C505 C 0.16407 0.33913 0.12638 0.0
C506 C 0.24145 0.31285 0.13169 0.0
C507 C 0.22971 0.27024 0.11996 0.0
C508 C 0.18529 0.26349 0.10991 0.0
C509 C 0.15283 0.29738 0.11325 0.0
C510 C 0.2793 0.15305 0.13138 0.0
C511 C 0.32566 0.16084 0.12744 0.0
C512 C 0.24824 0.1882 0.12808 0.0
C513 C 0.2626 0.23207 0.12045 0.0
C514 C 0.3088 0.23945 0.11527 0.0
C515 C 0.33997 0.20432 0.11882 0.0
H516 H 0.11815 0.21363 0.64886 0.0
H517 H 0.21292 0.10968 0.62264 0.0
H518 H 0.17715 0.27 0.6449 0.0
H519 H 0.27178 0.16653 0.61753 0.0
H520 H 0.3757 0.26895 0.65273 0.0
H521 H 0.31715 0.21198 0.64913 0.0
H522 H 0.22547 0.3119 0.61301 0.0
H523 H 0.28365 0.36937 0.61774 0.0
C524 C 0.15138 0.20287 0.64162 0.0
C525 C 0.16076 0.15698 0.63621 0.0
C526 C 0.18531 0.23536 0.6392 0.0
C527 C 0.22947 0.22297 0.63099 0.0
C528 C 0.23843 0.17727 0.62447 0.0
C529 C 0.20456 0.14466 0.6272 0.0
C530 C 0.34321 0.27875 0.64371 0.0
C531 C 0.33437 0.3239 0.63573 0.0
C532 C 0.30959 0.2459 0.64148 0.0
C533 C 0.26632 0.25721 0.6309 0.0
C534 C 0.25804 0.30206 0.62183 0.0
C535 C 0.29155 0.33502 0.62436 0.0
H536 H 0.87139 0.78395 0.37647 0.0
H537 H 0.76599 0.87568 0.34837 0.0
H538 H 0.81613 0.7236 0.38154 0.0
H539 H 0.7113 0.81521 0.35232 0.0
H540 H 0.61431 0.70589 0.3753 0.0
H541 H 0.66983 0.76514 0.38331 0.0
H542 H 0.77405 0.67729 0.34814 0.0
H543 H 0.71888 0.61759 0.34127 0.0
C544 C 0.83641 0.79138 0.37161 0.0
C545 C 0.82325 0.83465 0.36182 0.0
C546 C 0.80474 0.75667 0.37432 0.0
C547 C 0.75924 0.76429 0.36705 0.0
C548 C 0.74585 0.80809 0.35853 0.0
C549 C 0.77739 0.84287 0.3561 0.0
C550 C 0.6492 0.69905 0.36965 0.0
C551 C 0.66209 0.65711 0.35744 0.0
C552 C 0.68103 0.73312 0.3741 0.0
C553 C 0.72643 0.72629 0.36609 0.0
C554 C 0.73956 0.68369 0.35497 0.0
C555 C 0.70782 0.64943 0.35086 0.0
H556 H 0.71678 0.87008 0.83811 0.0
H557 H 0.61434 0.7756 0.86689 0.0
H558 H 0.77352 0.81106 0.84211 0.0
H559 H 0.67138 0.71694 0.87206 0.0
H560 H 0.77099 0.61189 0.83543 0.0
H561 H 0.71502 0.67125 0.83952 0.0
H562 H 0.81643 0.76253 0.87371 0.0
H563 H 0.87311 0.7033 0.86851 0.0
C564 C 0.70649 0.83694 0.8459 0.0
C565 C 0.66093 0.82749 0.85194 0.0
C566 C 0.73914 0.80305 0.84835 0.0
C567 C 0.7271 0.759 0.85721 0.0
C568 C 0.68178 0.75017 0.86453 0.0
C569 C 0.64907 0.7839 0.86174 0.0
C570 C 0.78141 0.64442 0.84415 0.0
C571 C 0.82671 0.65278 0.85148 0.0
C572 C 0.74911 0.67854 0.84668 0.0
C573 C 0.76108 0.72187 0.85691 0.0
C574 C 0.80611 0.72982 0.86526 0.0
C575 C 0.83858 0.69573 0.86246 0.0
H576 H 0.89477 0.49481 0.92879 0.0
H577 H 0.02909 0.54757 0.91522 0.0
H578 H 0.91301 0.47747 0.98126 0.0
H579 H 0.04781 0.52878 0.96738 0.0
H580 H 0.05411 0.5313 0.06972 0.0
H581 H 0.03225 0.55151 0.01831 0.0
H582 H 0.9572 0.42693 0.01098 0.0
H583 H 0.97772 0.4075 0.06269 0.0
C584 C 0.92833 0.5023 0.93691 0.0
C585 C 0.96047 0.52261 0.91783 0.0
C586 C 0.93884 0.49222 0.96698 0.0
C587 C 0.98185 0.50182 0.97856 0.0
C588 C 0.0141 0.52174 0.95937 0.0
C589 C 0.00346 0.53221 0.92939 0.0
C590 C 0.03273 0.50837 0.05719 0.0
C591 C 0.01775 0.46776 0.07027 0.0
C592 C 0.02043 0.5198 0.02765 0.0
C593 C -0.00675 0.49068 0.01043 0.0
C594 C 0.97769 0.45041 0.02372 0.0
C595 C 0.98962 0.43919 0.05335 0.0
H596 H 0.08852 -0.00586 0.56036 0.0
H597 H 0.95732 0.0541 0.57451 0.0
H598 H 0.06826 0.97592 0.50847 0.0
H599 H 0.93613 0.03397 0.52295 0.0
H600 H 0.92681 0.03183 0.42049 0.0
H601 H 0.94926 0.0526 0.47166 0.0
H602 H 0.02323 0.92715 0.47963 0.0
H603 H 0.00249 0.90754 0.42803 0.0
C604 C 0.0551 0.00292 0.55247 0.0
C605 C 0.02449 0.02554 0.5715 0.0
C606 C 0.04339 0.99228 0.52273 0.0
C607 C 0.0005 0.00336 0.51146 0.0
C608 C 0.96974 0.02567 0.53065 0.0
C609 C 0.98173 0.03694 0.56028 0.0
C610 C 0.94805 0.00885 0.43317 0.0
C611 C 0.96296 0.96811 0.42025 0.0
C612 C 0.96066 0.02057 0.46259 0.0
C613 C 0.98791 0.99148 0.47989 0.0
C614 C 0.00289 0.95077 0.46684 0.0
C615 C 0.99084 0.9394 0.43727 0.0
H616 H 0.49141 0.89754 0.92772 0.0
H617 H 0.56001 0.02553 0.91809 0.0
H618 H 0.47025 0.91726 0.97928 0.0
H619 H 0.53742 0.04597 0.96943 0.0
H620 H 0.52752 0.0501 0.07219 0.0
H621 H 0.55118 0.0281 0.02143 0.0
H622 H 0.4212 0.96643 0.00638 0.0
H623 H 0.39812 0.98703 0.05749 0.0
C624 C 0.50168 0.93008 0.93652 0.0
C625 C 0.52737 0.96 0.91876 0.0
C626 C 0.48934 0.94148 0.96607 0.0
C627 C 0.50198 0.98326 0.9785 0.0
C628 C 0.52769 0.01321 0.96074 0.0
C629 C 0.54043 0.00162 0.93124 0.0
C630 C 0.50404 0.0317 0.05808 0.0
C631 C 0.46092 0.02031 0.06889 0.0
C632 C 0.51751 0.01934 0.0289 0.0
C633 C 0.48805 -0.00435 0.00976 0.0
C634 C 0.44502 0.98405 0.02067 0.0
C635 C 0.43169 -0.00396 0.04995 0.0
H636 H 0.45993 0.55499 0.41503 0.0
H637 H 0.58614 0.48384 0.42599 0.0
H638 H 0.43734 0.53233 0.46589 0.0
H639 H 0.56426 0.46257 0.47721 0.0
H640 H 0.49414 0.39594 0.55704 0.0
H641 H 0.51409 0.41567 0.50516 0.0
H642 H 0.45458 0.5478 0.51753 0.0
H643 H 0.43319 0.52748 0.56904 0.0
C644 C 0.48296 0.5347 0.42835 0.0
C645 C 0.52486 0.52126 0.41647 0.0
C646 C 0.47011 0.52192 0.45758 0.0
C647 C 0.49905 0.4958 0.47572 0.0
C648 C 0.54083 0.48212 0.46373 0.0
C649 C 0.55349 0.49451 0.43438 0.0
C650 C 0.48531 0.42921 0.54868 0.0
C651 C 0.46206 0.46013 0.56717 0.0
C652 C 0.49694 0.4406 0.51897 0.0
C653 C 0.48599 0.48334 0.50715 0.0
C654 C 0.46284 0.5143 0.5257 0.0
C655 C 0.45081 0.50275 0.55532 0.0
loop_
_geom_bond_atom_site_label_1
_geom_bond_atom_site_label_2
_geom_bond_distance
_geom_bond_site_symmetry_2
_ccdc_geom_bond_type
Sc0 O3 2.025 . S
Sc0 O10 2.105 . S
Sc0 O13 2.105 . S
Sc0 O16 2.105 . S
Sc0 O19 2.105 . S
Sc1 O3 2.025 . S
Sc1 O11 2.105 . S
Sc1 O15 2.105 . S
Sc1 O17 2.105 . S
Sc1 O21 2.105 1_455 S
Sc2 O3 2.025 . S
Sc2 O12 2.105 1_455 S
Sc2 O14 2.105 . S
Sc2 O18 2.105 . S
Sc2 O20 2.105 . S
O3 Sc0 2.025 . S
O3 Sc1 2.025 . S
O3 Sc2 2.025 . S
C4 O10 1.268 . S
C4 O20 1.268 . S
C5 O11 1.268 . S
C5 O19 1.268 . S
C6 O12 1.268 . S
C6 O21 1.268 . S
C7 O13 1.268 . S
C7 O17 1.268 . S
C8 O14 1.268 . S
C8 O16 1.268 . S
C9 O15 1.268 . S
C9 O18 1.268 . S
O10 Sc0 2.105 . S
O10 C4 1.268 . S
O11 Sc1 2.105 . S
O11 C5 1.268 . S
O12 Sc2 2.105 1_655 S
O12 C6 1.268 . S
O13 Sc0 2.105 . S
O13 C7 1.268 . S
O14 Sc2 2.105 . S
O14 C8 1.268 . S
O15 Sc1 2.105 . S
O15 C9 1.268 . S
O16 Sc0 2.105 . S
O16 C8 1.268 . S
O17 Sc1 2.105 . S
O17 C7 1.268 . S
O18 Sc2 2.105 . S
O18 C9 1.268 . S
O19 Sc0 2.105 . S
O19 C5 1.268 . S
O20 Sc2 2.105 . S
O20 C4 1.268 . S
O21 Sc1 2.105 1_655 S
O21 C6 1.268 . S
Sc22 O25 2.025 . S
Sc22 O32 2.105 . S
Sc22 O35 2.105 1_545 S
Sc22 O38 2.105 . S
Sc22 O41 2.105 . S
Sc23 O25 2.025 . S
Sc23 O33 2.105 . S
Sc23 O37 2.105 1_455 S
Sc23 O39 2.105 1_545 S
Sc23 O43 2.105 . S
Sc24 O25 2.025 . S
Sc24 O34 2.105 . S
Sc24 O36 2.105 . S
Sc24 O40 2.105 1_455 S
Sc24 O42 2.105 . S
O25 Sc22 2.025 . S
O25 Sc23 2.025 . S
O25 Sc24 2.025 . S
C26 O32 1.268 . S
C26 O42 1.268 . S
C27 O33 1.268 . S
C27 O41 1.268 . S
C28 O34 1.268 . S
C28 O43 1.268 . S
C29 O35 1.268 . S
C29 O39 1.268 . S
C30 O36 1.268 . S
C30 O38 1.268 . S
C31 O37 1.268 . S
C31 O40 1.268 . S
O32 Sc22 2.105 . S
O32 C26 1.268 . S
O33 Sc23 2.105 . S
O33 C27 1.268 . S
O34 Sc24 2.105 . S
O34 C28 1.268 . S
O35 Sc22 2.105 1_565 S
O35 C29 1.268 . S
O36 Sc24 2.105 . S
O36 C30 1.268 . S
O37 Sc23 2.105 1_655 S
O37 C31 1.268 . S
O38 Sc22 2.105 . S
O38 C30 1.268 . S
O39 Sc23 2.105 1_565 S
O39 C29 1.268 . S
O40 Sc24 2.105 1_655 S
O40 C31 1.268 . S
O41 Sc22 2.105 . S
O41 C27 1.268 . S
O42 Sc24 2.105 . S
O42 C26 1.268 . S
O43 Sc23 2.105 . S
O43 C28 1.268 . S
Sc44 O47 2.025 . S
Sc44 O54 2.105 . S
Sc44 O57 2.105 . S
Sc44 O60 2.105 . S
Sc44 O63 2.105 . S
Sc45 O47 2.025 . S
Sc45 O55 2.105 . S
Sc45 O59 2.105 1_545 S
Sc45 O61 2.105 . S
Sc45 O65 2.105 . S
Sc46 O47 2.025 . S
Sc46 O56 2.105 . S
Sc46 O58 2.105 . S
Sc46 O62 2.105 1_545 S
Sc46 O64 2.105 . S
O47 Sc44 2.025 . S
O47 Sc45 2.025 . S
O47 Sc46 2.025 . S
C48 O54 1.268 . S
C48 O64 1.268 . S
C49 O55 1.268 . S
C49 O63 1.268 . S
C50 O56 1.268 . S
C50 O65 1.268 . S
C51 O57 1.268 . S
C51 O61 1.268 . S
C52 O58 1.268 . S
C52 O60 1.268 . S
C53 O59 1.268 . S
C53 O62 1.268 . S
O54 Sc44 2.105 . S
O54 C48 1.268 . S
O55 Sc45 2.105 . S
O55 C49 1.268 . S
O56 Sc46 2.105 . S
O56 C50 1.268 . S
O57 Sc44 2.105 . S
O57 C51 1.268 . S
O58 Sc46 2.105 . S
O58 C52 1.268 . S
O59 Sc45 2.105 1_565 S
O59 C53 1.268 . S
O60 Sc44 2.105 . S
O60 C52 1.268 . S
O61 Sc45 2.105 . S
O61 C51 1.268 . S
O62 Sc46 2.105 1_565 S
O62 C53 1.268 . S
O63 Sc44 2.105 . S
O63 C49 1.268 . S
O64 Sc46 2.105 . S
O64 C48 1.268 . S
O65 Sc45 2.105 . S
O65 C50 1.268 . S
Sc66 O69 2.025 . S
Sc66 O76 2.105 . S
Sc66 O79 2.105 . S
Sc66 O82 2.105 . S
Sc66 O85 2.105 . S
Sc67 O69 2.025 . S
Sc67 O77 2.105 . S
Sc67 O81 2.105 . S
Sc67 O83 2.105 . S
Sc67 O87 2.105 . S
Sc68 O69 2.025 . S
Sc68 O78 2.105 . S
Sc68 O80 2.105 . S
Sc68 O84 2.105 . S
Sc68 O86 2.105 . S
O69 Sc66 2.025 . S
O69 Sc67 2.025 . S
O69 Sc68 2.025 . S
C70 O76 1.268 . S
C70 O86 1.268 . S
C71 O77 1.268 . S
C71 O85 1.268 . S
C72 O78 1.268 . S
C72 O87 1.268 . S
C73 O79 1.268 . S
C73 O83 1.268 . S
C74 O80 1.268 . S
C74 O82 1.268 . S
C75 O81 1.268 . S
C75 O84 1.268 . S
O76 Sc66 2.105 . S
O76 C70 1.268 . S
O77 Sc67 2.105 . S
O77 C71 1.268 . S
O78 Sc68 2.105 . S
O78 C72 1.268 . S
O79 Sc66 2.105 . S
O79 C73 1.268 . S
O80 Sc68 2.105 . S
O80 C74 1.268 . S
O81 Sc67 2.105 . S
O81 C75 1.268 . S
O82 Sc66 2.105 . S
O82 C74 1.268 . S
O83 Sc67 2.105 . S
O83 C73 1.268 . S
O84 Sc68 2.105 . S
O84 C75 1.268 . S
O85 Sc66 2.105 . S
O85 C71 1.268 . S
O86 Sc68 2.105 . S
O86 C70 1.268 . S
O87 Sc67 2.105 . S
O87 C72 1.268 . S
Sc88 O91 2.025 . S
Sc88 O98 2.105 . S
Sc88 O101 2.105 . S
Sc88 O104 2.105 . S
Sc88 O107 2.105 . S
Sc89 O91 2.025 . S
Sc89 O99 2.105 . S
Sc89 O103 2.105 . S
Sc89 O105 2.105 . S
Sc89 O109 2.105 . S
Sc90 O91 2.025 . S
Sc90 O100 2.105 . S
Sc90 O102 2.105 . S
Sc90 O106 2.105 . S
Sc90 O108 2.105 . S
O91 Sc88 2.025 . S
O91 Sc89 2.025 . S
O91 Sc90 2.025 . S
C92 O98 1.268 . S
C92 O108 1.268 . S
C93 O99 1.268 . S
C93 O107 1.268 . S
C94 O100 1.268 . S
C94 O109 1.268 . S
C95 O101 1.268 . S
C95 O105 1.268 . S
C96 O102 1.268 . S
C96 O104 1.268 . S
C97 O103 1.268 . S
C97 O106 1.268 . S
O98 Sc88 2.105 . S
O98 C92 1.268 . S
O99 Sc89 2.105 . S
O99 C93 1.268 . S
O100 Sc90 2.105 . S
O100 C94 1.268 . S
O101 Sc88 2.105 . S
O101 C95 1.268 . S
O102 Sc90 2.105 . S
O102 C96 1.268 . S
O103 Sc89 2.105 . S
O103 C97 1.268 . S
O104 Sc88 2.105 . S
O104 C96 1.268 . S
O105 Sc89 2.105 . S
O105 C95 1.268 . S
O106 Sc90 2.105 . S
O106 C97 1.268 . S
O107 Sc88 2.105 . S
O107 C93 1.268 . S
O108 Sc90 2.105 . S
O108 C92 1.268 . S
O109 Sc89 2.105 . S
O109 C94 1.268 . S
Sc110 O113 2.025 . S
Sc110 O120 2.105 . S
Sc110 O123 2.105 . S
Sc110 O126 2.105 . S
Sc110 O129 2.105 . S
Sc111 O113 2.025 . S
Sc111 O121 2.105 . S
Sc111 O125 2.105 1_655 S
Sc111 O127 2.105 . S
Sc111 O131 2.105 . S
Sc112 O113 2.025 . S
Sc112 O122 2.105 . S
Sc112 O124 2.105 . S
Sc112 O128 2.105 1_655 S
Sc112 O130 2.105 . S
O113 Sc110 2.025 . S
O113 Sc111 2.025 . S
O113 Sc112 2.025 . S
C114 O120 1.268 . S
C114 O130 1.268 . S
C115 O121 1.268 . S
C115 O129 1.268 . S
C116 O122 1.268 . S
C116 O131 1.268 . S
C117 O123 1.268 . S
C117 O127 1.268 . S
C118 O124 1.268 . S
C118 O126 1.268 . S
C119 O125 1.268 . S
C119 O128 1.268 . S
O120 Sc110 2.105 . S
O120 C114 1.268 . S
O121 Sc111 2.105 . S
O121 C115 1.268 . S
O122 Sc112 2.105 . S
O122 C116 1.268 . S
O123 Sc110 2.105 . S
O123 C117 1.268 . S
O124 Sc112 2.105 . S
O124 C118 1.268 . S
O125 Sc111 2.105 1_455 S
O125 C119 1.268 . S
O126 Sc110 2.105 . S
O126 C118 1.268 . S
O127 Sc111 2.105 . S
O127 C117 1.268 . S
O128 Sc112 2.105 1_455 S
O128 C119 1.268 . S
O129 Sc110 2.105 . S
O129 C115 1.268 . S
O130 Sc112 2.105 . S
O130 C114 1.268 . S
O131 Sc111 2.105 . S
O131 C116 1.268 . S
Sc132 O135 2.025 . S
Sc132 O142 2.105 . S
Sc132 O145 2.105 . S
Sc132 O148 2.105 . S
Sc132 O151 2.105 1_565 S
Sc133 O135 2.025 . S
Sc133 O143 2.105 1_565 S
Sc133 O147 2.105 . S
Sc133 O149 2.105 . S
Sc133 O153 2.105 1_655 S
Sc134 O135 2.025 . S
Sc134 O144 2.105 1_655 S
Sc134 O146 2.105 . S
Sc134 O150 2.105 . S
Sc134 O152 2.105 . S
O135 Sc132 2.025 . S
O135 Sc133 2.025 . S
O135 Sc134 2.025 . S
C136 O142 1.268 . S
C136 O152 1.268 . S
C137 O143 1.268 . S
C137 O151 1.268 . S
C138 O144 1.268 . S
C138 O153 1.268 . S
C139 O145 1.268 . S
C139 O149 1.268 . S
C140 O146 1.268 . S
C140 O148 1.268 . S
C141 O147 1.268 . S
C141 O150 1.268 . S
O142 Sc132 2.105 . S
O142 C136 1.268 . S
O143 Sc133 2.105 1_545 S
O143 C137 1.268 . S
O144 Sc134 2.105 1_455 S
O144 C138 1.268 . S
O145 Sc132 2.105 . S
O145 C139 1.268 . S
O146 Sc134 2.105 . S
O146 C140 1.268 . S
O147 Sc133 2.105 . S
O147 C141 1.268 . S
O148 Sc132 2.105 . S
O148 C140 1.268 . S
O149 Sc133 2.105 . S
O149 C139 1.268 . S
O150 Sc134 2.105 . S
O150 C141 1.268 . S
O151 Sc132 2.105 1_545 S
O151 C137 1.268 . S
O152 Sc134 2.105 . S
O152 C136 1.268 . S
O153 Sc133 2.105 1_455 S
O153 C138 1.268 . S
Sc154 O157 2.025 . S
Sc154 O164 2.105 . S
Sc154 O167 2.105 . S
Sc154 O170 2.105 . S
Sc154 O173 2.105 . S
Sc155 O157 2.025 . S
Sc155 O165 2.105 . S
Sc155 O169 2.105 . S
Sc155 O171 2.105 . S
Sc155 O175 2.105 1_565 S
Sc156 O157 2.025 . S
Sc156 O166 2.105 1_565 S
Sc156 O168 2.105 . S
Sc156 O172 2.105 . S
Sc156 O174 2.105 . S
O157 Sc154 2.025 . S
O157 Sc155 2.025 . S
O157 Sc156 2.025 . S
C158 O164 1.268 . S
C158 O174 1.268 . S
C159 O165 1.268 . S
C159 O173 1.268 . S
C160 O166 1.268 . S
C160 O175 1.268 . S
C161 O167 1.268 . S
C161 O171 1.268 . S
C162 O168 1.268 . S
C162 O170 1.268 . S
C163 O169 1.268 . S
C163 O172 1.268 . S
O164 Sc154 2.105 . S
O164 C158 1.268 . S
O165 Sc155 2.105 . S
O165 C159 1.268 . S
O166 Sc156 2.105 1_545 S
O166 C160 1.268 . S
O167 Sc154 2.105 . S
O167 C161 1.268 . S
O168 Sc156 2.105 . S
O168 C162 1.268 . S
O169 Sc155 2.105 . S
O169 C163 1.268 . S
O170 Sc154 2.105 . S
O170 C162 1.268 . S
O171 Sc155 2.105 . S
O171 C161 1.268 . S
O172 Sc156 2.105 . S
O172 C163 1.268 . S
O173 Sc154 2.105 . S
O173 C159 1.268 . S
O174 Sc156 2.105 . S
O174 C158 1.268 . S
O175 Sc155 2.105 1_545 S
O175 C160 1.268 . S
H176 C184 0.950 . S
H177 C189 0.950 . S
H178 C186 0.950 . S
H179 C188 0.950 . S
H180 C190 0.950 . S
H181 C192 0.950 . S
H182 C194 0.950 . S
H183 C195 0.950 . S
C184 H176 0.950 . S
C184 C185 1.386 . S
C184 C186 1.391 . S
C185 C184 1.386 . S
C185 C189 1.393 . S
C186 H178 0.950 . S
C186 C184 1.391 . S
C186 C187 1.400 . S
C187 C186 1.400 . S
C187 C188 1.398 . S
C187 C193 1.491 . S
C188 H179 0.950 . S
C188 C187 1.398 . S
C188 C189 1.391 . S
C189 H177 0.950 . S
C189 C185 1.393 . S
C189 C188 1.391 . S
C190 H180 0.950 . S
C190 C191 1.386 . S
C190 C192 1.391 . S
C191 C190 1.386 . S
C191 C195 1.393 . S
C192 H181 0.950 . S
C192 C190 1.391 . S
C192 C193 1.400 . S
C193 C187 1.491 . S
C193 C192 1.400 . S
C193 C194 1.398 . S
C194 H182 0.950 . S
C194 C193 1.398 . S
C194 C195 1.391 . S
C195 H183 0.950 . S
C195 C191 1.393 . S
C195 C194 1.391 . S
H196 C204 0.950 . S
H197 C209 0.950 . S
H198 C206 0.952 . S
H199 C208 0.950 . S
H200 C210 0.950 . S
H201 C212 0.950 1_655 S
H202 C214 0.950 . S
H203 C215 0.950 . S
C204 H196 0.950 . S
C204 C205 1.386 . S
C204 C206 1.391 . S
C205 C204 1.386 . S
C205 C209 1.393 . S
C206 H198 0.952 . S
C206 C204 1.391 . S
C206 C207 1.400 . S
C207 C206 1.400 . S
C207 C208 1.398 . S
C207 C213 1.491 1_655 S
C208 H199 0.950 . S
C208 C207 1.398 . S
C208 C209 1.391 . S
C209 H197 0.950 . S
C209 C205 1.393 . S
C209 C208 1.391 . S
C210 H200 0.950 . S
C210 C211 1.386 . S
C210 C212 1.391 . S
C211 C210 1.386 . S
C211 C215 1.393 . S
C212 H201 0.950 1_455 S
C212 C210 1.391 . S
C212 C213 1.400 . S
C213 C207 1.491 1_455 S
C213 C212 1.400 . S
C213 C214 1.398 . S
C214 H202 0.950 . S
C214 C213 1.398 . S
C214 C215 1.391 . S
C215 H203 0.950 . S
C215 C211 1.393 . S
C215 C214 1.391 . S
H216 C224 0.950 . S
H217 C229 0.950 1_565 S
H218 C226 0.950 . S
H219 C228 0.950 . S
H220 C230 0.950 . S
H221 C232 0.950 . S
H222 C234 0.950 . S
H223 C235 0.950 . S
C224 H216 0.950 . S
C224 C225 1.386 . S
C224 C226 1.391 . S
C225 C224 1.386 . S
C225 C229 1.393 . S
C226 H218 0.950 . S
C226 C224 1.391 . S
C226 C227 1.400 . S
C227 C226 1.400 . S
C227 C228 1.398 1_545 S
C227 C233 1.491 1_545 S
C228 H219 0.950 . S
C228 C227 1.398 1_565 S
C228 C229 1.391 1_565 S
C229 H217 0.950 1_545 S
C229 C225 1.393 . S
C229 C228 1.391 1_545 S
C230 H220 0.950 . S
C230 C231 1.386 . S
C230 C232 1.391 . S
C231 C230 1.386 . S
C231 C235 1.393 . S
C232 H221 0.950 . S
C232 C230 1.391 . S
C232 C233 1.400 . S
C233 C227 1.491 1_565 S
C233 C232 1.400 . S
C233 C234 1.398 1_565 S
C234 H222 0.950 . S
C234 C233 1.398 1_545 S
C234 C235 1.391 1_545 S
C235 H223 0.950 . S
C235 C231 1.393 . S
C235 C234 1.391 1_565 S
H236 C244 0.950 . S
H237 C249 0.950 . S
H238 C246 0.950 . S
H239 C248 0.950 . S
H240 C250 0.950 . S
H241 C252 0.950 . S
H242 C254 0.950 . S
H243 C255 0.950 . S
C244 H236 0.950 . S
C244 C245 1.386 . S
C244 C246 1.391 . S
C245 C244 1.386 . S
C245 C249 1.393 . S
C246 H238 0.950 . S
C246 C244 1.391 . S
C246 C247 1.400 . S
C247 C246 1.400 . S
C247 C248 1.398 . S
C247 C253 1.491 . S
C248 H239 0.950 . S
C248 C247 1.398 . S
C248 C249 1.391 . S
C249 H237 0.950 . S
C249 C245 1.393 . S
C249 C248 1.391 . S
C250 H240 0.950 . S
C250 C251 1.386 . S
C250 C252 1.391 . S
C251 C250 1.386 . S
C251 C255 1.393 . S
C252 H241 0.950 . S
C252 C250 1.391 . S
C252 C253 1.400 . S
C253 C247 1.491 . S
C253 C252 1.400 . S
C253 C254 1.398 . S
C254 H242 0.950 . S
C254 C253 1.398 . S
C254 C255 1.391 . S
C255 H243 0.950 . S
C255 C251 1.393 . S
C255 C254 1.391 . S
H256 C264 0.950 . S
H257 C269 0.950 . S
H258 C266 0.950 . S
H259 C268 0.950 . S
H260 C270 0.950 . S
H261 C272 0.950 . S
H262 C274 0.950 . S
H263 C275 0.950 . S
C264 H256 0.950 . S
C264 C265 1.386 . S
C264 C266 1.391 . S
C265 C264 1.386 . S
C265 C269 1.393 . S
C266 H258 0.950 . S
C266 C264 1.391 . S
C266 C267 1.400 . S
C267 C266 1.400 . S
C267 C268 1.398 . S
C267 C273 1.491 . S
C268 H259 0.950 . S
C268 C267 1.398 . S
C268 C269 1.391 . S
C269 H257 0.950 . S
C269 C265 1.393 . S
C269 C268 1.391 . S
C270 H260 0.950 . S
C270 C271 1.386 . S
C270 C272 1.391 . S
C271 C270 1.386 . S
C271 C275 1.393 . S
C272 H261 0.950 . S
C272 C270 1.391 . S
C272 C273 1.400 . S
C273 C267 1.491 . S
C273 C272 1.400 . S
C273 C274 1.398 . S
C274 H262 0.950 . S
C274 C273 1.398 . S
C274 C275 1.391 . S
C275 H263 0.950 . S
C275 C271 1.393 . S
C275 C274 1.391 . S
H276 C284 0.950 . S
H277 C289 0.950 . S
H278 C286 0.950 . S
H279 C288 0.950 . S
H280 C290 0.950 . S
H281 C292 0.950 . S
H282 C294 0.950 . S
H283 C295 0.950 . S
C284 H276 0.950 . S
C284 C285 1.386 1_655 S
C284 C286 1.391 . S
C285 C284 1.386 1_455 S
C285 C289 1.393 . S
C286 H278 0.950 . S
C286 C284 1.391 . S
C286 C287 1.400 1_655 S
C287 C286 1.400 1_455 S
C287 C288 1.398 . S
C287 C293 1.491 1_455 S
C288 H279 0.950 . S
C288 C287 1.398 . S
C288 C289 1.391 . S
C289 H277 0.950 . S
C289 C285 1.393 . S
C289 C288 1.391 . S
C290 H280 0.950 . S
C290 C291 1.386 1_455 S
C290 C292 1.391 . S
C291 C290 1.386 1_655 S
C291 C295 1.393 . S
C292 H281 0.950 . S
C292 C290 1.391 . S
C292 C293 1.400 1_455 S
C293 C287 1.491 1_655 S
C293 C292 1.400 1_655 S
C293 C294 1.398 . S
C294 H282 0.950 . S
C294 C293 1.398 . S
C294 C295 1.391 . S
C295 H283 0.950 . S
C295 C291 1.393 . S
C295 C294 1.391 . S
H296 C304 0.950 . S
H297 C309 0.950 . S
H298 C306 0.950 . S
H299 C308 0.950 . S
H300 C310 0.950 . S
H301 C312 0.950 . S
H302 C314 0.950 . S
H303 C315 0.950 . S
C304 H296 0.950 . S
C304 C305 1.386 1_565 S
C304 C306 1.391 . S
C305 C304 1.386 1_545 S
C305 C309 1.393 . S
C306 H298 0.950 . S
C306 C304 1.391 . S
C306 C307 1.400 1_565 S
C307 C306 1.400 1_545 S
C307 C308 1.398 . S
C307 C313 1.491 1_545 S
C308 H299 0.950 . S
C308 C307 1.398 . S
C308 C309 1.391 . S
C309 H297 0.950 . S
C309 C305 1.393 . S
C309 C308 1.391 . S
C310 H300 0.950 . S
C310 C311 1.386 1_545 S
C310 C312 1.391 . S
C311 C310 1.386 1_565 S
C311 C315 1.393 . S
C312 H301 0.950 . S
C312 C310 1.391 . S
C312 C313 1.400 1_545 S
C313 C307 1.491 1_565 S
C313 C312 1.400 1_565 S
C313 C314 1.398 . S
C314 H302 0.950 . S
C314 C313 1.398 . S
C314 C315 1.391 . S
C315 H303 0.950 . S
C315 C311 1.393 . S
C315 C314 1.391 . S
H316 C324 0.950 . S
H317 C329 0.950 . S
H318 C326 0.950 . S
H319 C328 0.950 . S
H320 C330 0.950 . S
H321 C332 0.950 . S
H322 C334 0.950 . S
H323 C335 0.950 . S
C324 H316 0.950 . S
C324 C325 1.386 . S
C324 C326 1.391 . S
C325 C324 1.386 . S
C325 C329 1.393 . S
C326 H318 0.950 . S
C326 C324 1.391 . S
C326 C327 1.400 . S
C327 C326 1.400 . S
C327 C328 1.398 . S
C327 C333 1.491 . S
C328 H319 0.950 . S
C328 C327 1.398 . S
C328 C329 1.391 . S
C329 H317 0.950 . S
C329 C325 1.393 . S
C329 C328 1.391 . S
C330 H320 0.950 . S
C330 C331 1.386 . S
C330 C332 1.391 . S
C331 C330 1.386 . S
C331 C335 1.393 . S
C332 H321 0.950 . S
C332 C330 1.391 . S
C332 C333 1.400 . S
C333 C327 1.491 . S
C333 C332 1.400 . S
C333 C334 1.398 . S
C334 H322 0.950 . S
C334 C333 1.398 . S
C334 C335 1.391 . S
C335 H323 0.950 . S
C335 C331 1.393 . S
C335 C334 1.391 . S
H336 C344 0.950 . S
H337 C349 0.950 . S
H338 C346 0.950 . S
H339 C348 0.950 . S
H340 C350 0.950 . S
H341 C352 0.950 . S
H342 C354 0.950 . S
H343 C355 0.950 . S
C344 H336 0.950 . S
C344 C345 1.386 . S
C344 C346 1.391 . S
C345 C344 1.386 . S
C345 C349 1.393 . S
C346 H338 0.950 . S
C346 C344 1.391 . S
C346 C347 1.400 . S
C347 C346 1.400 . S
C347 C348 1.398 . S
C347 C353 1.491 . S
C348 H339 0.950 . S
C348 C347 1.398 . S
C348 C349 1.391 . S
C349 H337 0.950 . S
C349 C345 1.393 . S
C349 C348 1.391 . S
C350 H340 0.950 . S
C350 C351 1.386 . S
C350 C352 1.391 . S
C351 C350 1.386 . S
C351 C355 1.393 . S
C352 H341 0.950 . S
C352 C350 1.391 . S
C352 C353 1.400 . S
C353 C347 1.491 . S
C353 C352 1.400 . S
C353 C354 1.398 . S
C354 H342 0.950 . S
C354 C353 1.398 . S
C354 C355 1.391 . S
C355 H343 0.950 . S
C355 C351 1.393 . S
C355 C354 1.391 . S
H356 C364 0.950 . S
H357 C369 0.950 . S
H358 C366 0.946 1_655 S
H359 C368 0.950 . S
H360 C370 0.950 . S
H361 C372 0.950 1_455 S
H362 C374 0.950 . S
H363 C375 0.950 . S
C364 H356 0.950 . S
C364 C365 1.386 . S
C364 C366 1.391 . S
C365 C364 1.386 . S
C365 C369 1.393 . S
C366 H358 0.946 1_455 S
C366 C364 1.391 . S
C366 C367 1.400 . S
C367 C366 1.400 . S
C367 C368 1.398 . S
C367 C373 1.491 1_455 S
C368 H359 0.950 . S
C368 C367 1.398 . S
C368 C369 1.391 . S
C369 H357 0.950 . S
C369 C365 1.393 . S
C369 C368 1.391 . S
C370 H360 0.950 . S
C370 C371 1.386 . S
C370 C372 1.391 . S
C371 C370 1.386 . S
C371 C375 1.393 . S
C372 H361 0.950 1_655 S
C372 C370 1.391 . S
C372 C373 1.400 . S
C373 C367 1.491 1_655 S
C373 C372 1.400 . S
C373 C374 1.398 . S
C374 H362 0.950 . S
C374 C373 1.398 . S
C374 C375 1.391 . S
C375 H363 0.950 . S
C375 C371 1.393 . S
C375 C374 1.391 . S
H376 C384 0.950 . S
H377 C389 0.950 . S
H378 C386 0.950 . S
H379 C388 0.950 . S
H380 C390 0.950 1_545 S
H381 C392 0.950 . S
H382 C394 0.950 . S
H383 C395 0.950 . S
C384 H376 0.950 . S
C384 C385 1.386 . S
C384 C386 1.391 1_545 S
C385 C384 1.386 . S
C385 C389 1.393 . S
C386 H378 0.950 . S
C386 C384 1.391 1_565 S
C386 C387 1.400 1_565 S
C387 C386 1.400 1_545 S
C387 C388 1.398 . S
C387 C393 1.491 1_545 S
C388 H379 0.950 . S
C388 C387 1.398 . S
C388 C389 1.391 . S
C389 H377 0.950 . S
C389 C385 1.393 . S
C389 C388 1.391 . S
C390 H380 0.950 1_565 S
C390 C391 1.386 . S
C390 C392 1.391 1_565 S
C391 C390 1.386 . S
C391 C395 1.393 . S
C392 H381 0.950 . S
C392 C390 1.391 1_545 S
C392 C393 1.400 1_545 S
C393 C387 1.491 1_565 S
C393 C392 1.400 1_565 S
C393 C394 1.398 . S
C394 H382 0.950 . S
C394 C393 1.398 . S
C394 C395 1.391 . S
C395 H383 0.950 . S
C395 C391 1.393 . S
C395 C394 1.391 . S
H396 C404 0.950 . S
H397 C409 0.950 . S
H398 C406 0.950 . S
H399 C408 0.950 . S
H400 C410 0.950 . S
H401 C412 0.950 . S
H402 C414 0.950 . S
H403 C415 0.950 . S
C404 H396 0.950 . S
C404 C405 1.386 . S
C404 C406 1.391 . S
C405 C404 1.386 . S
C405 C409 1.393 . S
C406 H398 0.950 . S
C406 C404 1.391 . S
C406 C407 1.400 . S
C407 C406 1.400 . S
C407 C408 1.398 . S
C407 C413 1.491 . S
C408 H399 0.950 . S
C408 C407 1.398 . S
C408 C409 1.391 . S
C409 H397 0.950 . S
C409 C405 1.393 . S
C409 C408 1.391 . S
C410 H400 0.950 . S
C410 C411 1.386 . S
C410 C412 1.391 . S
C411 C410 1.386 . S
C411 C415 1.393 . S
C412 H401 0.950 . S
C412 C410 1.391 . S
C412 C413 1.400 . S
C413 C407 1.491 . S
C413 C412 1.400 . S
C413 C414 1.398 . S
C414 H402 0.950 . S
C414 C413 1.398 . S
C414 C415 1.391 . S
C415 H403 0.950 . S
C415 C411 1.393 . S
C415 C414 1.391 . S
H416 C424 0.950 . S
H417 C429 0.950 . S
H418 C426 0.950 . S
H419 C428 0.950 . S
H420 C430 0.950 . S
H421 C432 0.950 . S
H422 C434 0.950 . S
H423 C435 0.950 . S
C424 H416 0.950 . S
C424 C425 1.386 . S
C424 C426 1.391 . S
C425 C424 1.386 . S
C425 C429 1.393 . S
C426 H418 0.950 . S
C426 C424 1.391 . S
C426 C427 1.400 . S
C427 C426 1.400 . S
C427 C428 1.398 . S
C427 C433 1.491 . S
C428 H419 0.950 . S
C428 C427 1.398 . S
C428 C429 1.391 . S
C429 H417 0.950 . S
C429 C425 1.393 . S
C429 C428 1.391 . S
C430 H420 0.950 . S
C430 C431 1.386 . S
C430 C432 1.391 . S
C431 C430 1.386 . S
C431 C435 1.393 . S
C432 H421 0.950 . S
C432 C430 1.391 . S
C432 C433 1.400 . S
C433 C427 1.491 . S
C433 C432 1.400 . S
C433 C434 1.398 . S
C434 H422 0.950 . S
C434 C433 1.398 . S
C434 C435 1.391 . S
C435 H423 0.950 . S
C435 C431 1.393 . S
C435 C434 1.391 . S
H436 C444 0.950 . S
H437 C449 0.950 . S
H438 C446 0.950 . S
H439 C448 0.950 1_655 S
H440 C450 0.950 . S
H441 C452 0.950 . S
H442 C454 0.950 1_455 S
H443 C455 0.950 . S
C444 H436 0.950 . S
C444 C445 1.386 . S
C444 C446 1.391 . S
C445 C444 1.386 . S
C445 C449 1.393 . S
C446 H438 0.950 . S
C446 C444 1.391 . S
C446 C447 1.400 . S
C447 C446 1.400 . S
C447 C448 1.398 . S
C447 C453 1.491 1_455 S
C448 H439 0.950 1_455 S
C448 C447 1.398 . S
C448 C449 1.391 . S
C449 H437 0.950 . S
C449 C445 1.393 . S
C449 C448 1.391 . S
C450 H440 0.950 . S
C450 C451 1.386 . S
C450 C452 1.391 . S
C451 C450 1.386 . S
C451 C455 1.393 . S
C452 H441 0.950 . S
C452 C450 1.391 . S
C452 C453 1.400 . S
C453 C447 1.491 1_655 S
C453 C452 1.400 . S
C453 C454 1.398 . S
C454 H442 0.950 1_655 S
C454 C453 1.398 . S
C454 C455 1.391 . S
C455 H443 0.950 . S
C455 C451 1.393 . S
C455 C454 1.391 . S
H456 C464 0.950 . S
H457 C469 0.950 . S
H458 C466 0.950 . S
H459 C468 0.950 . S
H460 C470 0.950 . S
H461 C472 0.950 . S
H462 C474 0.950 . S
H463 C475 0.950 1_565 S
C464 H456 0.950 . S
C464 C465 1.386 . S
C464 C466 1.391 . S
C465 C464 1.386 . S
C465 C469 1.393 . S
C466 H458 0.950 . S
C466 C464 1.391 . S
C466 C467 1.400 . S
C467 C466 1.400 . S
C467 C468 1.398 1_565 S
C467 C473 1.491 1_565 S
C468 H459 0.950 . S
C468 C467 1.398 1_545 S
C468 C469 1.391 1_545 S
C469 H457 0.950 . S
C469 C465 1.393 . S
C469 C468 1.391 1_565 S
C470 H460 0.950 . S
C470 C471 1.386 . S
C470 C472 1.391 . S
C471 C470 1.386 . S
C471 C475 1.393 . S
C472 H461 0.950 . S
C472 C470 1.391 . S
C472 C473 1.400 . S
C473 C467 1.491 1_545 S
C473 C472 1.400 . S
C473 C474 1.398 1_545 S
C474 H462 0.950 . S
C474 C473 1.398 1_565 S
C474 C475 1.391 1_565 S
C475 H463 0.950 1_545 S
C475 C471 1.393 . S
C475 C474 1.391 1_545 S
H476 C484 0.950 . S
H477 C489 0.950 . S
H478 C486 0.950 . S
H479 C488 0.950 . S
H480 C490 0.950 . S
H481 C492 0.950 . S
H482 C494 0.950 . S
H483 C495 0.950 . S
C484 H476 0.950 . S
C484 C485 1.386 . S
C484 C486 1.391 . S
C485 C484 1.386 . S
C485 C489 1.393 . S
C486 H478 0.950 . S
C486 C484 1.391 . S
C486 C487 1.400 . S
C487 C486 1.400 . S
C487 C488 1.398 . S
C487 C493 1.491 . S
C488 H479 0.950 . S
C488 C487 1.398 . S
C488 C489 1.391 . S
C489 H477 0.950 . S
C489 C485 1.393 . S
C489 C488 1.391 . S
C490 H480 0.950 . S
C490 C491 1.386 . S
C490 C492 1.391 . S
C491 C490 1.386 . S
C491 C495 1.393 . S
C492 H481 0.950 . S
C492 C490 1.391 . S
C492 C493 1.400 . S
C493 C487 1.491 . S
C493 C492 1.400 . S
C493 C494 1.398 . S
C494 H482 0.950 . S
C494 C493 1.398 . S
C494 C495 1.391 . S
C495 H483 0.950 . S
C495 C491 1.393 . S
C495 C494 1.391 . S
H496 C504 0.950 . S
H497 C509 0.950 . S
H498 C506 0.950 . S
H499 C508 0.950 . S
H500 C510 0.950 . S
H501 C512 0.950 . S
H502 C514 0.950 . S
H503 C515 0.950 . S
C504 H496 0.950 . S
C504 C505 1.386 . S
C504 C506 1.391 . S
C505 C504 1.386 . S
C505 C509 1.393 . S
C506 H498 0.950 . S
C506 C504 1.391 . S
C506 C507 1.400 . S
C507 C506 1.400 . S
C507 C508 1.398 . S
C507 C513 1.491 . S
C508 H499 0.950 . S
C508 C507 1.398 . S
C508 C509 1.391 . S
C509 H497 0.950 . S
C509 C505 1.393 . S
C509 C508 1.391 . S
C510 H500 0.950 . S
C510 C511 1.386 . S
C510 C512 1.391 . S
C511 C510 1.386 . S
C511 C515 1.393 . S
C512 H501 0.950 . S
C512 C510 1.391 . S
C512 C513 1.400 . S
C513 C507 1.491 . S
C513 C512 1.400 . S
C513 C514 1.398 . S
C514 H502 0.950 . S
C514 C513 1.398 . S
C514 C515 1.391 . S
C515 H503 0.950 . S
C515 C511 1.393 . S
C515 C514 1.391 . S
H516 C524 0.950 . S
H517 C529 0.950 . S
H518 C526 0.950 . S
H519 C528 0.950 . S
H520 C530 0.950 . S
H521 C532 0.950 . S
H522 C534 0.950 . S
H523 C535 0.950 . S
C524 H516 0.950 . S
C524 C525 1.386 . S
C524 C526 1.391 . S
C525 C524 1.386 . S
C525 C529 1.393 . S
C526 H518 0.950 . S
C526 C524 1.391 . S
C526 C527 1.400 . S
C527 C526 1.400 . S
C527 C528 1.398 . S
C527 C533 1.491 . S
C528 H519 0.950 . S
C528 C527 1.398 . S
C528 C529 1.391 . S
C529 H517 0.950 . S
C529 C525 1.393 . S
C529 C528 1.391 . S
C530 H520 0.950 . S
C530 C531 1.386 . S
C530 C532 1.391 . S
C531 C530 1.386 . S
C531 C535 1.393 . S
C532 H521 0.950 . S
C532 C530 1.391 . S
C532 C533 1.400 . S
C533 C527 1.491 . S
C533 C532 1.400 . S
C533 C534 1.398 . S
C534 H522 0.950 . S
C534 C533 1.398 . S
C534 C535 1.391 . S
C535 H523 0.950 . S
C535 C531 1.393 . S
C535 C534 1.391 . S
H536 C544 0.950 . S
H537 C549 0.950 . S
H538 C546 0.950 . S
H539 C548 0.950 . S
H540 C550 0.950 . S
H541 C552 0.950 . S
H542 C554 0.950 . S
H543 C555 0.950 . S
C544 H536 0.950 . S
C544 C545 1.386 . S
C544 C546 1.391 . S
C545 C544 1.386 . S
C545 C549 1.393 . S
C546 H538 0.950 . S
C546 C544 1.391 . S
C546 C547 1.400 . S
C547 C546 1.400 . S
C547 C548 1.398 . S
C547 C553 1.491 . S
C548 H539 0.950 . S
C548 C547 1.398 . S
C548 C549 1.391 . S
C549 H537 0.950 . S
C549 C545 1.393 . S
C549 C548 1.391 . S
C550 H540 0.950 . S
C550 C551 1.386 . S
C550 C552 1.391 . S
C551 C550 1.386 . S
C551 C555 1.393 . S
C552 H541 0.950 . S
C552 C550 1.391 . S
C552 C553 1.400 . S
C553 C547 1.491 . S
C553 C552 1.400 . S
C553 C554 1.398 . S
C554 H542 0.950 . S
C554 C553 1.398 . S
C554 C555 1.391 . S
C555 H543 0.950 . S
C555 C551 1.393 . S
C555 C554 1.391 . S
H556 C564 0.950 . S
H557 C569 0.950 . S
H558 C566 0.950 . S
H559 C568 0.950 . S
H560 C570 0.950 . S
H561 C572 0.950 . S
H562 C574 0.950 . S
H563 C575 0.950 . S
C564 H556 0.950 . S
C564 C565 1.386 . S
C564 C566 1.391 . S
C565 C564 1.386 . S
C565 C569 1.393 . S
C566 H558 0.950 . S
C566 C564 1.391 . S
C566 C567 1.400 . S
C567 C566 1.400 . S
C567 C568 1.398 . S
C567 C573 1.491 . S
C568 H559 0.950 . S
C568 C567 1.398 . S
C568 C569 1.391 . S
C569 H557 0.950 . S
C569 C565 1.393 . S
C569 C568 1.391 . S
C570 H560 0.950 . S
C570 C571 1.386 . S
C570 C572 1.391 . S
C571 C570 1.386 . S
C571 C575 1.393 . S
C572 H561 0.950 . S
C572 C570 1.391 . S
C572 C573 1.400 . S
C573 C567 1.491 . S
C573 C572 1.400 . S
C573 C574 1.398 . S
C574 H562 0.950 . S
C574 C573 1.398 . S
C574 C575 1.391 . S
C575 H563 0.950 . S
C575 C571 1.393 . S
C575 C574 1.391 . S
H576 C584 0.950 . S
H577 C589 0.950 . S
H578 C586 0.950 . S
H579 C588 0.950 . S
H580 C590 0.950 . S
H581 C592 0.950 . S
H582 C594 0.950 . S
H583 C595 0.950 . S
C584 H576 0.950 . S
C584 C585 1.386 . S
C584 C586 1.391 . S
C585 C584 1.386 . S
C585 C589 1.393 1_655 S
C586 H578 0.950 . S
C586 C584 1.391 . S
C586 C587 1.400 . S
C587 C586 1.400 . S
C587 C588 1.398 1_655 S
C587 C593 1.491 1_656 S
C588 H579 0.950 . S
C588 C587 1.398 1_455 S
C588 C589 1.391 . S
C589 H577 0.950 . S
C589 C585 1.393 1_455 S
C589 C588 1.391 . S
C590 H580 0.950 . S
C590 C591 1.386 . S
C590 C592 1.391 . S
C591 C590 1.386 . S
C591 C595 1.393 1_455 S
C592 H581 0.950 . S
C592 C590 1.391 . S
C592 C593 1.400 . S
C593 C587 1.491 1_454 S
C593 C592 1.400 . S
C593 C594 1.398 1_455 S
C594 H582 0.950 . S
C594 C593 1.398 1_655 S
C594 C595 1.391 . S
C595 H583 0.950 . S
C595 C591 1.393 1_655 S
C595 C594 1.391 . S
H596 C604 0.950 . S
H597 C609 0.950 . S
H598 C606 0.950 . S
H599 C608 0.950 . S
H600 C610 0.950 . S
H601 C612 0.950 . S
H602 C614 0.950 . S
H603 C615 0.950 . S
C604 H596 0.950 . S
C604 C605 1.386 . S
C604 C606 1.391 . S
C605 C604 1.386 . S
C605 C609 1.393 1_455 S
C606 H598 0.950 . S
C606 C604 1.391 . S
C606 C607 1.400 . S
C607 C606 1.400 . S
C607 C608 1.398 1_445 S
C607 C613 1.491 1_445 S
C608 H599 0.950 . S
C608 C607 1.398 1_665 S
C608 C609 1.391 1_565 S
C609 H597 0.950 . S
C609 C605 1.393 1_655 S
C609 C608 1.391 1_545 S
C610 H600 0.950 . S
C610 C611 1.386 . S
C610 C612 1.391 . S
C611 C610 1.386 . S
C611 C615 1.393 1_655 S
C612 H601 0.950 . S
C612 C610 1.391 . S
C612 C613 1.400 . S
C613 C607 1.491 1_665 S
C613 C612 1.400 . S
C613 C614 1.398 1_665 S
C614 H602 0.950 . S
C614 C613 1.398 1_445 S
C614 C615 1.391 1_545 S
C615 H603 0.950 . S
C615 C611 1.393 1_455 S
C615 C614 1.391 1_565 S
H616 C624 0.950 . S
H617 C629 0.950 . S
H618 C626 0.950 . S
H619 C628 0.950 . S
H620 C630 0.950 . S
H621 C632 0.950 . S
H622 C634 0.950 . S
H623 C635 0.950 . S
C624 H616 0.950 . S
C624 C625 1.386 . S
C624 C626 1.391 . S
C625 C624 1.386 . S
C625 C629 1.393 . S
C626 H618 0.950 . S
C626 C624 1.391 . S
C626 C627 1.400 . S
C627 C626 1.400 . S
C627 C628 1.398 . S
C627 C633 1.491 1_566 S
C628 H619 0.950 . S
C628 C627 1.398 . S
C628 C629 1.391 . S
C629 H617 0.950 . S
C629 C625 1.393 . S
C629 C628 1.391 . S
C630 H620 0.950 . S
C630 C631 1.386 . S
C630 C632 1.391 . S
C631 C630 1.386 . S
C631 C635 1.393 . S
C632 H621 0.950 . S
C632 C630 1.391 . S
C632 C633 1.400 . S
C633 C627 1.491 1_544 S
C633 C632 1.400 . S
C633 C634 1.398 . S
C634 H622 0.950 . S
C634 C633 1.398 . S
C634 C635 1.391 . S
C635 H623 0.950 . S
C635 C631 1.393 . S
C635 C634 1.391 . S
H636 C644 0.950 . S
H637 C649 0.950 . S
H638 C646 0.950 . S
H639 C648 0.950 . S
H640 C650 0.950 . S
H641 C652 0.950 . S
H642 C654 0.950 . S
H643 C655 0.950 . S
C644 H636 0.950 . S
C644 C645 1.386 . S
C644 C646 1.391 . S
C645 C644 1.386 . S
C645 C649 1.393 . S
C646 H638 0.950 . S
C646 C644 1.391 . S
C646 C647 1.400 . S
C647 C646 1.400 . S
C647 C648 1.398 . S
C647 C653 1.491 . S
C648 H639 0.950 . S
C648 C647 1.398 . S
C648 C649 1.391 . S
C649 H637 0.950 . S
C649 C645 1.393 . S
C649 C648 1.391 . S
C650 H640 0.950 . S
C650 C651 1.386 . S
C650 C652 1.391 . S
C651 C650 1.386 . S
C651 C655 1.393 . S
C652 H641 0.950 . S
C652 C650 1.391 . S
C652 C653 1.400 . S
C653 C647 1.491 . S
C653 C652 1.400 . S
C653 C654 1.398 . S
C654 H642 0.950 . S
C654 C653 1.398 . S
C654 C655 1.391 . S
C655 H643 0.950 . S
C655 C651 1.393 . S
C655 C654 1.391 . S
C185 C95 1.366 . S
C191 C7 1.337 . S
C205 C117 1.356 . S
C211 C28 1.349 . S
C225 C50 1.343 . S
C231 C138 1.362 . S
C245 C73 1.330 . S
C251 C160 1.349 . S
C265 C94 1.325 . S
C271 C6 1.353 . S
C285 C29 1.367 . S
C291 C116 1.327 . S
C305 C51 1.367 . S
C311 C139 1.334 . S
C325 C72 1.346 . S
C331 C161 1.348 . S
C345 C115 1.335 . S
C351 C71 1.366 . S
C365 C5 1.353 . S
C371 C141 1.350 . S
C385 C31 1.350 . S
C391 C163 1.328 . S
C405 C53 1.348 . S
C411 C93 1.332 . S
C425 C75 1.345 . S
C431 C119 1.345 . S
C445 C9 1.322 . S
C451 C137 1.357 . S
C465 C159 1.362 . S
C471 C27 1.321 . S
C485 C97 1.345 . S
C491 C49 1.341 . S
C505 C8 1.650 . S
C511 C48 1.655 . S
C525 C26 1.651 . S
C531 C74 1.654 . S
C545 C140 1.656 . S
C551 C92 1.649 . S
C565 C162 1.654 . S
C571 C114 1.651 . S
C585 C118 1.443 . S
C591 C4 1.443 . S
C605 C30 1.439 . S
C611 C136 1.439 . S
C625 C158 1.421 . S
C631 C52 1.421 . S
C645 C96 1.442 . S
C651 C70 1.442 . S
