# Generated by pormake.
# Topology wkj, (6)-cn, num edge types: 1
# Building blocks:
#     Node 0, Type 0, BuildingBlock: CUWYAW_clean_sbu_0, # of connection points: 6
#     Node 1, Type 0, BuildingBlock: CUWYAW_clean_sbu_0, # of connection points: 6
#     Node 2, Type 0, BuildingBlock: CUWYAW_clean_sbu_0, # of connection points: 6
#     Node 3, Type 0, BuildingBlock: CUWYAW_clean_sbu_0, # of connection points: 6
#     Node 4, Type 0, BuildingBlock: CUWYAW_clean_sbu_0, # of connection points: 6
#     Node 5, Type 0, BuildingBlock: CUWYAW_clean_sbu_0, # of connection points: 6
#     Node 6, Type 0, BuildingBlock: CUWYAW_clean_sbu_0, # of connection points: 6
#     Node 7, Type 0, BuildingBlock: CUWYAW_clean_sbu_0, # of connection points: 6
#     Node 8, Type 0, BuildingBlock: CUWYAW_clean_sbu_0, # of connection points: 6
#     Node 9, Type 0, BuildingBlock: CUWYAW_clean_sbu_0, # of connection points: 6
#     Node 10, Type 0, BuildingBlock: CUWYAW_clean_sbu_0, # of connection points: 6
#     Node 11, Type 0, BuildingBlock: CUWYAW_clean_sbu_0, # of connection points: 6
#     Edge 12, Type (0, 0), BuildingBlock: MIFKUJ_clean_linker_0, # of connection points: 2
#     Edge 13, Type (0, 0), BuildingBlock: MIFKUJ_clean_linker_0, # of connection points: 2
#     Edge 14, Type (0, 0), BuildingBlock: MIFKUJ_clean_linker_0, # of connection points: 2
#     Edge 15, Type (0, 0), BuildingBlock: MIFKUJ_clean_linker_0, # of connection points: 2
#     Edge 16, Type (0, 0), BuildingBlock: MIFKUJ_clean_linker_0, # of connection points: 2
#     Edge 17, Type (0, 0), BuildingBlock: MIFKUJ_clean_linker_0, # of connection points: 2
#     Edge 18, Type (0, 0), BuildingBlock: MIFKUJ_clean_linker_0, # of connection points: 2
#     Edge 19, Type (0, 0), BuildingBlock: MIFKUJ_clean_linker_0, # of connection points: 2
#     Edge 20, Type (0, 0), BuildingBlock: MIFKUJ_clean_linker_0, # of connection points: 2
#     Edge 21, Type (0, 0), BuildingBlock: MIFKUJ_clean_linker_0, # of connection points: 2
#     Edge 22, Type (0, 0), BuildingBlock: MIFKUJ_clean_linker_0, # of connection points: 2
#     Edge 23, Type (0, 0), BuildingBlock: MIFKUJ_clean_linker_0, # of connection points: 2
#     Edge 24, Type (0, 0), BuildingBlock: MIFKUJ_clean_linker_0, # of connection points: 2
#     Edge 25, Type (0, 0), BuildingBlock: MIFKUJ_clean_linker_0, # of connection points: 2
#     Edge 26, Type (0, 0), BuildingBlock: MIFKUJ_clean_linker_0, # of connection points: 2
#     Edge 27, Type (0, 0), BuildingBlock: MIFKUJ_clean_linker_0, # of connection points: 2
#     Edge 28, Type (0, 0), BuildingBlock: MIFKUJ_clean_linker_0, # of connection points: 2
#     Edge 29, Type (0, 0), BuildingBlock: MIFKUJ_clean_linker_0, # of connection points: 2
#     Edge 30, Type (0, 0), BuildingBlock: MIFKUJ_clean_linker_0, # of connection points: 2
#     Edge 31, Type (0, 0), BuildingBlock: MIFKUJ_clean_linker_0, # of connection points: 2
#     Edge 32, Type (0, 0), BuildingBlock: MIFKUJ_clean_linker_0, # of connection points: 2
#     Edge 33, Type (0, 0), BuildingBlock: MIFKUJ_clean_linker_0, # of connection points: 2
#     Edge 34, Type (0, 0), BuildingBlock: MIFKUJ_clean_linker_0, # of connection points: 2
#     Edge 35, Type (0, 0), BuildingBlock: MIFKUJ_clean_linker_0, # of connection points: 2
#     Edge 36, Type (0, 0), BuildingBlock: MIFKUJ_clean_linker_0, # of connection points: 2
#     Edge 37, Type (0, 0), BuildingBlock: MIFKUJ_clean_linker_0, # of connection points: 2
#     Edge 38, Type (0, 0), BuildingBlock: MIFKUJ_clean_linker_0, # of connection points: 2
#     Edge 39, Type (0, 0), BuildingBlock: MIFKUJ_clean_linker_0, # of connection points: 2
#     Edge 40, Type (0, 0), BuildingBlock: MIFKUJ_clean_linker_0, # of connection points: 2
#     Edge 41, Type (0, 0), BuildingBlock: MIFKUJ_clean_linker_0, # of connection points: 2
#     Edge 42, Type (0, 0), BuildingBlock: MIFKUJ_clean_linker_0, # of connection points: 2
#     Edge 43, Type (0, 0), BuildingBlock: MIFKUJ_clean_linker_0, # of connection points: 2
#     Edge 44, Type (0, 0), BuildingBlock: MIFKUJ_clean_linker_0, # of connection points: 2
#     Edge 45, Type (0, 0), BuildingBlock: MIFKUJ_clean_linker_0, # of connection points: 2
#     Edge 46, Type (0, 0), BuildingBlock: MIFKUJ_clean_linker_0, # of connection points: 2
#     Edge 47, Type (0, 0), BuildingBlock: MIFKUJ_clean_linker_0, # of connection points: 2
# Relax obj value: 0.603
# Max RMSD: 0.182
# Mean RMSD: 0.182
data_MOF--net-wkj--node1-CUWYAW_clean_sbu_0--edge1-MIFKUJ_clean_linker_0
_symmetry_space_group_name_H-M    P1
_symmetry_Int_Tables_number       1
_symmetry_cell_setting            triclinic
loop_
_symmetry_equiv_pos_as_xyz
'x, y, z'
_cell_length_a     63.898009
_cell_length_b     63.629916
_cell_length_c     37.669617
_cell_angle_alpha  90.535641
_cell_angle_beta   89.789473
_cell_angle_gamma 120.08271
loop_
_atom_site_label
_atom_site_type_symbol
_atom_site_fract_x
_atom_site_fract_y
_atom_site_fract_z
_atom_type_partial_charge
C0 C 0.55702 0.14373 0.30194 0.0
Eu1 Eu 0.51437 0.11316 0.32665 0.0
C2 C 0.56569 0.16415 0.27716 0.0
C3 C 0.55499 0.16113 0.24369 0.0
C4 C 0.56103 0.18125 0.22259 0.0
C5 C 0.57761 0.20488 0.23468 0.0
C6 C 0.58875 0.20781 0.26786 0.0
C7 C 0.58285 0.1876 0.28887 0.0
C8 C 0.49769 0.07023 0.35761 0.0
C9 C 0.47425 0.07567 0.26638 0.0
C10 C 0.4201 0.075 0.36656 0.0
Eu11 Eu 0.4643 0.09253 0.34365 0.0
C12 C 0.40733 0.07073 0.40059 0.0
C13 C 0.39453 0.08287 0.40797 0.0
C14 C 0.38306 0.07996 0.44063 0.0
C15 C 0.38404 0.06467 0.46639 0.0
C16 C 0.39643 0.05209 0.45855 0.0
C17 C 0.4081 0.05521 0.42608 0.0
C18 C 0.48402 0.1366 0.30913 0.0
C19 C 0.50343 0.11003 0.41209 0.0
O20 O 0.54837 0.14707 0.33148 0.0
O21 O 0.54376 0.12168 0.28917 0.0
O22 O 0.52008 0.08747 0.35934 0.0
O23 O 0.48576 0.07471 0.33559 0.0
O24 O 0.49666 0.09439 0.27175 0.0
O25 O 0.45831 0.06976 0.29257 0.0
O26 O 0.42955 0.06149 0.35856 0.0
O27 O 0.43427 0.09772 0.35845 0.0
O28 O 0.46407 0.11728 0.3003 0.0
O29 O 0.49304 0.13144 0.33512 0.0
O30 O 0.48033 0.09837 0.4015 0.0
O31 O 0.52053 0.11954 0.38737 0.0
H32 H 0.54151 0.14331 0.23409 0.0
H33 H 0.55261 0.17824 0.19672 0.0
H34 H 0.6016 0.2257 0.27794 0.0
H35 H 0.59112 0.19034 0.31484 0.0
H36 H 0.39369 0.0949 0.38858 0.0
H37 H 0.37382 0.09002 0.44591 0.0
H38 H 0.39705 0.0397 0.47747 0.0
H39 H 0.41778 0.04555 0.42108 0.0
C40 C 0.42935 0.57871 0.64118 0.0
Eu41 Eu 0.40832 0.5334 0.66061 0.0
C42 C 0.42703 0.59376 0.61381 0.0
C43 C 0.42343 0.6129 0.62462 0.0
C44 C 0.41845 0.62588 0.59969 0.0
C45 C 0.41734 0.62015 0.56346 0.0
C46 C 0.42204 0.6017 0.5525 0.0
C47 C 0.42673 0.5885 0.5775 0.0
C48 C 0.42806 0.50992 0.69476 0.0
C49 C 0.40336 0.4937 0.59852 0.0
C50 C 0.34373 0.43813 0.69198 0.0
Eu51 Eu 0.3734 0.48272 0.67283 0.0
C52 C 0.34027 0.42228 0.72208 0.0
C53 C 0.33211 0.3976 0.71587 0.0
C54 C 0.32719 0.38189 0.74435 0.0
C55 C 0.33013 0.39072 0.7793 0.0
C56 C 0.33914 0.41562 0.78542 0.0
C57 C 0.34427 0.43132 0.75701 0.0
C58 C 0.35313 0.50596 0.63748 0.0
C59 C 0.39502 0.5197 0.74391 0.0
O60 O 0.4114 0.56889 0.66362 0.0
O61 O 0.43706 0.56391 0.63166 0.0
O62 O 0.43582 0.53297 0.69849 0.0
O63 O 0.41276 0.50179 0.6701 0.0
O64 O 0.40897 0.51663 0.60513 0.0
O65 O 0.3912 0.47705 0.62305 0.0
O66 O 0.36272 0.44426 0.67229 0.0
O67 O 0.33992 0.45619 0.69798 0.0
O68 O 0.35125 0.48548 0.62835 0.0
O69 O 0.36751 0.51451 0.66378 0.0
O70 O 0.38262 0.49686 0.73175 0.0
O71 O 0.40497 0.53767 0.72071 0.0
H72 H 0.42367 0.61727 0.65254 0.0
H73 H 0.41496 0.64004 0.60875 0.0
H74 H 0.42094 0.59669 0.52472 0.0
H75 H 0.42933 0.57376 0.56846 0.0
H76 H 0.32912 0.39041 0.68902 0.0
H77 H 0.3204 0.36277 0.73914 0.0
H78 H 0.34205 0.42288 0.81224 0.0
H79 H 0.35097 0.4504 0.76236 0.0
C80 C 0.85197 0.42895 0.99245 0.0
Eu81 Eu 0.87607 0.40647 1.00293 0.0
C82 C 0.83086 0.42298 0.97031 0.0
C83 C 0.8226 0.4395 0.9666 0.0
C84 C 0.80154 0.43297 0.94715 0.0
C85 C 0.78847 0.40978 0.93133 0.0
C86 C 0.79676 0.39323 0.93561 0.0
C87 C 0.81782 0.39983 0.95474 0.0
C88 C 0.92292 0.42245 1.02113 0.0
C89 C 0.90427 0.39564 0.94301 0.0
C90 C 0.90004 0.33772 1.03029 0.0
Eu91 Eu 0.88476 0.36856 1.02217 0.0
C92 C 0.92274 0.33895 1.04114 0.0
C93 C 0.94449 0.35302 1.02261 0.0
C94 C 0.96638 0.35713 1.03695 0.0
C95 C 0.96689 0.34746 1.07017 0.0
C96 C 0.94485 0.33183 1.08708 0.0
C97 C 0.92302 0.32753 1.07258 0.0
C98 C 0.83663 0.35007 1.00641 0.0
C99 C 0.87619 0.39658 1.08989 0.0
O100 O 0.8475 0.41368 1.01819 0.0
O101 O 0.87211 0.4346 0.97584 0.0
O102 O 0.91712 0.43353 0.99769 0.0
O103 O 0.90433 0.40649 1.03579 0.0
O104 O 0.88774 0.40214 0.94724 0.0
O105 O 0.90816 0.38458 0.97012 0.0
O106 O 0.89978 0.34716 0.99981 0.0
O107 O 0.88908 0.34302 1.05505 0.0
O108 O 0.84519 0.34458 1.03334 0.0
O109 O 0.85423 0.36632 0.98864 0.0
O110 O 0.88489 0.38216 1.08026 0.0
O111 O 0.87036 0.40694 1.06416 0.0
H112 H 0.83237 0.45736 0.97879 0.0
H113 H 0.79575 0.44619 0.94396 0.0
H114 H 0.78692 0.37511 0.92426 0.0
H115 H 0.8238 0.38674 0.95779 0.0
H116 H 0.94479 0.36191 0.99807 0.0
H117 H 0.983 0.36896 1.02298 0.0
H118 H 0.94442 0.32426 0.11287 0.0
H119 H 0.90644 0.31642 1.08713 0.0
C120 C 0.41743 0.86901 0.32216 0.0
Eu121 Eu 0.46387 0.88786 0.33154 0.0
C122 C 0.40056 0.84808 0.30053 0.0
C123 C 0.40886 0.83371 0.28434 0.0
C124 C 0.39275 0.8122 0.26703 0.0
C125 C 0.36802 0.80472 0.26524 0.0
C126 C 0.35977 0.81944 0.28076 0.0
C127 C 0.37597 0.84094 0.29864 0.0
C128 C 0.49917 0.93087 0.35914 0.0
C129 C 0.50211 0.91397 0.26955 0.0
C130 C 0.55288 0.90026 0.35616 0.0
Eu131 Eu 0.508 0.8893 0.34704 0.0
C132 C 0.5696 0.90685 0.38607 0.0
C133 C 0.59399 0.91447 0.37984 0.0
C134 C 0.61046 0.9226 0.40801 0.0
C135 C 0.60265 0.92313 0.44276 0.0
C136 C 0.578 0.91491 0.44888 0.0
C137 C 0.56161 0.90686 0.42074 0.0
C138 C 0.47387 0.84353 0.32716 0.0
C139 C 0.47179 0.87996 0.41682 0.0
O140 O 0.42698 0.86329 0.34816 0.0
O141 O 0.43352 0.88813 0.30505 0.0
O142 O 0.48372 0.93004 0.33597 0.0
O143 O 0.49322 0.91004 0.3681 0.0
O144 O 0.47904 0.9043 0.27778 0.0
O145 O 0.51647 0.91053 0.29191 0.0
O146 O 0.54641 0.91613 0.34832 0.0
O147 O 0.53468 0.87805 0.35571 0.0
O148 O 0.48772 0.84921 0.35466 0.0
O149 O 0.47757 0.86289 0.31149 0.0
O150 O 0.49413 0.88547 0.4065 0.0
O151 O 0.45667 0.87886 0.39171 0.0
H152 H 0.42779 0.83891 0.28569 0.0
H153 H 0.39975 0.80154 0.25469 0.0
H154 H 0.34082 0.81414 0.27949 0.0
H155 H 0.36928 0.85176 0.31137 0.0
H156 H 0.60039 0.91462 0.35311 0.0
H157 H 0.62933 0.92885 0.40259 0.0
H158 H 0.57153 0.91563 0.47524 0.0
H159 H 0.54283 0.90122 0.42589 0.0
C160 C 0.54435 0.40756 0.64615 0.0
Eu161 Eu 0.56086 0.45369 0.65945 0.0
C162 C 0.55432 0.3939 0.62857 0.0
C163 C 0.54013 0.36866 0.62451 0.0
C164 C 0.54889 0.35589 0.60502 0.0
C165 C 0.57189 0.36831 0.58925 0.0
C166 C 0.58651 0.39346 0.59501 0.0
C167 C 0.57778 0.40617 0.61454 0.0
C168 C 0.53329 0.47243 0.68371 0.0
C169 C 0.56277 0.49205 0.60036 0.0
C170 C 0.61807 0.54624 0.69908 0.0
Eu171 Eu 0.5911 0.50238 0.67456 0.0
C172 C 0.62056 0.55786 0.73363 0.0
C173 C 0.64213 0.57908 0.74213 0.0
C174 C 0.6453 0.58955 0.77579 0.0
C175 C 0.62689 0.5789 0.80141 0.0
C176 C 0.60524 0.55756 0.79268 0.0
C177 C 0.60213 0.54708 0.75903 0.0
C178 C 0.61488 0.48326 0.63596 0.0
C179 C 0.57283 0.46556 0.74453 0.0
O180 O 0.55481 0.41828 0.67577 0.0
O181 O 0.54049 0.42168 0.62572 0.0
O182 O 0.52713 0.45677 0.65802 0.0
O183 O 0.55407 0.47795 0.69426 0.0
O184 O 0.56174 0.47072 0.60408 0.0
O185 O 0.57079 0.50713 0.62786 0.0
O186 O 0.59768 0.53915 0.68227 0.0
O187 O 0.62487 0.53002 0.69823 0.0
O188 O 0.61437 0.50268 0.62784 0.0
O189 O 0.60113 0.4738 0.66226 0.0
O190 O 0.58643 0.48823 0.73293 0.0
O191 O 0.56037 0.44829 0.72051 0.0
H192 H 0.52201 0.35898 0.63538 0.0
H193 H 0.53718 0.33657 0.60063 0.0
H194 H 0.60437 0.40342 0.58332 0.0
H195 H 0.58901 0.42567 0.61773 0.0
H196 H 0.65663 0.58736 0.72288 0.0
H197 H 0.66231 0.60577 0.78193 0.0
H198 H 0.59063 0.54909 0.81171 0.0
H199 H 0.5854 0.53052 0.7529 0.0
C200 C 0.11909 0.55871 0.99438 0.0
Eu201 Eu 0.09156 0.5774 1.00678 0.0
C202 C 0.13811 0.56406 0.9682 0.0
C203 C 0.14763 0.54857 0.96374 0.0
C204 C 0.16618 0.55425 0.93911 0.0
C205 C 0.1753 0.57545 0.91872 0.0
C206 C 0.16599 0.59112 0.924 0.0
C207 C 0.1475 0.58541 0.94835 0.0
C208 C 0.04609 0.5565 1.03615 0.0
C209 C 0.05855 0.5823 0.94766 0.0
C210 C 0.06366 0.64253 1.03797 0.0
Eu211 Eu 0.07967 0.61267 1.02529 0.0
C212 C 0.06858 0.66034 1.06623 0.0
C213 C 0.057 0.67408 1.06654 0.0
C214 C 0.05955 0.68886 1.09584 0.0
C215 C 0.07351 0.68982 0.12534 0.0
C216 C 0.08642 0.67724 0.12347 0.0
C217 C 0.08396 0.66266 1.09421 0.0
C218 C 0.12728 0.63378 1.00661 0.0
C219 C 0.09739 0.59222 1.09282 0.0
O220 O 0.12434 0.57622 1.01724 0.0
O221 O 0.09707 0.54933 0.98202 0.0
O222 O 0.05223 0.54692 1.01038 0.0
O223 O 0.06448 0.57598 1.04499 0.0
O224 O 0.07398 0.57453 0.95289 0.0
O225 O 0.05664 0.59612 0.97294 0.0
O226 O 0.05245 0.61988 1.04797 0.0
O227 O 0.08178 0.64754 1.01693 0.0
O228 O 0.11916 0.63824 1.0355 0.0
O229 O 0.10975 0.61655 0.9895 0.0
O230 O 0.089 0.60689 1.08349 0.0
O231 O 0.09991 0.57905 1.06729 0.0
H232 H 0.14065 0.5321 0.9791 0.0
H233 H 0.17295 0.54181 0.93538 0.0
H234 H 0.17294 0.60778 0.90908 0.0
H235 H 0.1405 0.59768 0.95176 0.0
H236 H 0.04529 0.67266 1.04481 0.0
H237 H 0.04968 0.69858 1.0961 0.0
H238 H 0.09709 0.67714 0.14564 0.0
H239 H 0.09317 0.65227 1.0942 0.0
C240 C 0.83318 0.41739 0.58594 0.0
Eu241 Eu 0.86631 0.45732 0.55702 0.0
C242 C 0.81385 0.41437 0.61005 0.0
C243 C 0.79343 0.39152 0.61567 0.0
C244 C 0.77436 0.38944 0.6367 0.0
C245 C 0.77546 0.41026 0.65195 0.0
C246 C 0.79573 0.43314 0.6452 0.0
C247 C 0.8148 0.43512 0.62479 0.0
C248 C 0.90772 0.46914 0.5229 0.0
C249 C 0.90534 0.49875 0.61496 0.0
C250 C 0.91185 0.55182 0.51142 0.0
Eu251 Eu 0.88957 0.50784 0.53648 0.0
C252 C 0.92929 0.56648 0.48419 0.0
C253 C 0.94311 0.59161 0.48935 0.0
C254 C 0.96036 0.60608 0.46434 0.0
C255 C 0.96423 0.59556 0.43385 0.0
C256 C 0.95028 0.57021 0.4289 0.0
C257 C 0.93284 0.55579 0.45383 0.0
C258 C 0.84532 0.49215 0.56937 0.0
C259 C 0.86952 0.46666 0.47099 0.0
O260 O 0.83127 0.42423 0.55419 0.0
O261 O 0.85523 0.42994 0.59842 0.0
O262 O 0.89009 0.44694 0.52684 0.0
O263 O 0.90435 0.48328 0.54304 0.0
O264 O 0.88744 0.4759 0.60977 0.0
O265 O 0.91064 0.5146 0.58901 0.0
O266 O 0.92033 0.54461 0.53709 0.0
O267 O 0.89045 0.53498 0.50069 0.0
O268 O 0.86477 0.51256 0.57553 0.0
O269 O 0.85028 0.48076 0.54631 0.0
O270 O 0.8827 0.49002 0.48022 0.0
O271 O 0.85949 0.45007 0.49641 0.0
H272 H 0.79227 0.37537 0.60388 0.0
H273 H 0.7591 0.37155 0.64176 0.0
H274 H 0.79697 0.44957 0.65601 0.0
H275 H 0.83027 0.45296 0.62018 0.0
H276 H 0.94048 0.60009 0.51272 0.0
H277 H 0.97031 0.62555 0.46864 0.0
H278 H 0.95289 0.56145 0.4059 0.0
H279 H 0.92217 0.53636 0.44947 0.0
C280 C 0.40529 0.84067 0.89487 0.0
Eu281 Eu 0.39845 0.87693 0.88247 0.0
C282 C 0.39426 0.82051 0.91999 0.0
C283 C 0.38363 0.82291 0.95119 0.0
C284 C 0.37 0.80282 0.97256 0.0
C285 C 0.36657 0.77984 0.96307 0.0
C286 C 0.37768 0.77759 0.93213 0.0
C287 C 0.39132 0.7978 0.91062 0.0
C288 C 0.4275 0.92201 0.8561 0.0
C289 C 0.39658 0.91392 0.94009 0.0
C290 C 0.35041 0.92495 0.84863 0.0
Eu291 Eu 0.37049 0.89858 0.85944 0.0
C292 C 0.34039 0.93298 0.82049 0.0
C293 C 0.32219 0.93833 0.82895 0.0
C294 C 0.31357 0.94776 0.80324 0.0
C295 C 0.32312 0.95201 0.76871 0.0
C296 C 0.34095 0.94595 0.76017 0.0
C297 C 0.34944 0.9364 0.78583 0.0
C298 C 0.34211 0.85104 0.87862 0.0
C299 C 0.39001 0.8785 0.79345 0.0
O300 O 0.39019 0.84007 0.87105 0.0
O301 O 0.41915 0.8625 0.90817 0.0
O302 O 0.43427 0.9126 0.88105 0.0
O303 O 0.40671 0.90644 0.84611 0.0
O304 O 0.4004 0.89529 0.93668 0.0
O305 O 0.38684 0.91919 0.91287 0.0
O306 O 0.37376 0.93353 0.84811 0.0
O307 O 0.33821 0.90199 0.85675 0.0
O308 O 0.33937 0.8606 0.85007 0.0
O309 O 0.36047 0.867 0.8958 0.0
O310 O 0.37849 0.89059 0.80174 0.0
O311 O 0.39851 0.87112 0.82026 0.0
H312 H 0.38536 0.84022 0.95858 0.0
H313 H 0.3622 0.80534 0.99667 0.0
H314 H 0.37542 0.76016 0.92422 0.0
H315 H 0.39906 0.79557 0.88621 0.0
H316 H 0.31498 0.93565 0.85566 0.0
H317 H 0.29969 0.95202 0.81051 0.0
H318 H 0.34902 0.9494 0.734 0.0
H319 H 0.3635 0.93232 0.77886 0.0
C320 C 0.55767 0.40277 0.23827 0.0
Eu321 Eu 0.52275 0.40962 0.21805 0.0
C322 C 0.55971 0.3844 0.25933 0.0
C323 C 0.55345 0.38088 0.29536 0.0
C324 C 0.55374 0.36212 0.31387 0.0
C325 C 0.56018 0.34637 0.29678 0.0
C326 C 0.56675 0.3501 0.26084 0.0
C327 C 0.56654 0.36895 0.24233 0.0
C328 C 0.52122 0.44653 0.18745 0.0
C329 C 0.48671 0.41586 0.27466 0.0
C330 C 0.42719 0.37896 0.18125 0.0
Eu331 Eu 0.47238 0.39247 0.19233 0.0
C332 C 0.40828 0.36244 0.1566 0.0
C333 C 0.38391 0.35249 0.16587 0.0
C334 C 0.3658 0.33901 0.14096 0.0
C335 C 0.3719 0.33555 0.1063 0.0
C336 C 0.3964 0.34432 1.09802 0.0
C337 C 0.41441 0.35754 0.12302 0.0
C338 C 0.48394 0.35676 0.20405 0.0
C339 C 0.5111 0.40656 0.1292 0.0
O340 O 0.5459 0.39445 0.20834 0.0
O341 O 0.55243 0.4179 0.25475 0.0
O342 O 0.54126 0.44677 0.19459 0.0
O343 O 0.50374 0.429 0.20351 0.0
O344 O 0.50815 0.41709 0.27081 0.0
O345 O 0.47115 0.40802 0.24762 0.0
O346 O 0.44524 0.39825 0.167 0.0
O347 O 0.4342 0.3688 0.20477 0.0
O348 O 0.47236 0.35749 0.17636 0.0
O349 O 0.4889 0.37487 0.22344 0.0
O350 O 0.48912 0.40206 0.13749 0.0
O351 O 0.52591 0.40735 0.15518 0.0
H352 H 0.54802 0.39238 0.3092 0.0
H353 H 0.54917 0.36016 0.34182 0.0
H354 H 0.57179 0.33832 0.24695 0.0
H355 H 0.57135 0.37124 0.21445 0.0
H356 H 0.37891 0.35587 0.19193 0.0
H357 H 0.34711 0.33218 0.14838 0.0
H358 H 0.4019 0.34239 1.07154 0.0
H359 H 0.43319 0.36489 0.11556 0.0
C360 C 0.13242 0.57129 0.59531 0.0
Eu361 Eu 0.10108 0.53171 0.56243 0.0
C362 C 0.1589 0.58333 0.59723 0.0
C363 C 0.17159 0.60201 0.62197 0.0
C364 C 0.19553 0.60907 0.63041 0.0
C365 C 0.20681 0.59718 0.61467 0.0
C366 C 0.19481 0.58013 0.58748 0.0
C367 C 0.17103 0.57341 0.57857 0.0
C368 C 0.05702 0.51674 0.5367 0.0
C369 C 0.0623 0.48734 0.61757 0.0
C370 C 0.06258 0.43976 0.5058 0.0
Eu371 Eu 0.08008 0.48174 0.53808 0.0
C372 C 0.06005 0.4322 0.46837 0.0
C373 C 0.0639 0.41312 0.45838 0.0
C374 C 0.0646 0.40773 0.42247 0.0
C375 C 0.06164 0.42152 0.3961 0.0
C376 C 0.05717 0.4402 0.40628 0.0
C377 C 0.05643 0.4455 0.44206 0.0
C378 C 0.12465 0.49982 0.56933 0.0
C379 C 0.09832 0.52497 0.47601 0.0
O380 O 0.12321 0.57131 0.56445 0.0
O381 O 0.12121 0.54996 0.61024 0.0
O382 O 0.07347 0.53954 0.53921 0.0
O383 O 0.0633 0.50346 0.55279 0.0
O384 O 0.07779 0.51112 0.61275 0.0
O385 O 0.05937 0.47188 0.59139 0.0
O386 O 0.04914 0.44858 0.51709 0.0
O387 O 0.08485 0.45247 0.51689 0.0
O388 O 0.10557 0.47959 0.57772 0.0
O389 O 0.11899 0.51064 0.54637 0.0
O390 O 0.08652 0.50143 0.48372 0.0
O391 O 0.10853 0.54095 0.50247 0.0
H392 H 0.16247 0.6098 0.63668 0.0
H393 H 0.20428 0.62194 0.65192 0.0
H394 H 0.20316 0.57069 0.57526 0.0
H395 H 0.16143 0.55912 0.55915 0.0
H396 H 0.06701 0.40283 0.47834 0.0
H397 H 0.06811 0.39325 0.41535 0.0
H398 H 0.05431 0.4508 0.38656 0.0
H399 H 0.05357 0.46034 0.44898 0.0
C400 C 0.54377 0.12554 0.88818 0.0
Eu401 Eu 0.56363 0.09883 0.87775 0.0
C402 C 0.55003 0.14766 0.90847 0.0
C403 C 0.57293 0.16102 0.9242 0.0
C404 C 0.58002 0.18349 0.94008 0.0
C405 C 0.5643 0.19295 0.94061 0.0
C406 C 0.54125 0.17937 0.92507 0.0
C407 C 0.53423 0.15692 0.90893 0.0
C408 C 0.54641 0.05396 0.84773 0.0
C409 C 0.57352 0.06851 0.93809 0.0
C410 C 0.63002 0.07023 0.84594 0.0
Eu411 Eu 0.60175 0.088 0.85852 0.0
C412 C 0.63815 0.06226 0.81493 0.0
C413 C 0.64687 0.04619 0.81941 0.0
C414 C 0.65391 0.03774 0.78997 0.0
C415 C 0.65241 0.04537 0.75567 0.0
C416 C 0.6439 0.06174 0.75136 0.0
C417 C 0.63671 0.07004 0.78079 0.0
C418 C 0.62004 0.13533 0.87888 0.0
C419 C 0.57792 0.10257 0.79105 0.0
O420 O 0.55883 0.12882 0.8625 0.0
O421 O 0.5376 0.10573 0.90608 0.0
O422 O 0.53315 0.05928 0.86807 0.0
O423 O 0.56531 0.07319 0.84155 0.0
O424 O 0.56269 0.08129 0.93157 0.0
O425 O 0.58866 0.06823 0.91365 0.0
O426 O 0.60714 0.05687 0.85396 0.0
O427 O 0.63767 0.09347 0.84827 0.0
O428 O 0.62672 0.12798 0.85125 0.0
O429 O 0.60293 0.1171 0.89469 0.0
O430 O 0.5906 0.0918 0.8002 0.0
O431 O 0.56785 0.10879 0.81722 0.0
H432 H 0.58545 0.15421 0.92372 0.0
H433 H 0.59767 0.19324 0.95255 0.0
H434 H 0.52877 0.18621 0.9252 0.0
H435 H 0.51663 0.14695 0.89636 0.0
H436 H 0.64801 0.04 0.84566 0.0
H437 H 0.66045 0.02518 0.79399 0.0
H438 H 0.64218 0.06758 0.72515 0.0
H439 H 0.62977 0.08228 0.77688 0.0
C440 C 0.39945 0.54824 0.22107 0.0
Eu441 Eu 0.44585 0.56583 0.21331 0.0
C442 C 0.38622 0.56127 0.22747 0.0
C443 C 0.36603 0.55132 0.24986 0.0
C444 C 0.35703 0.56587 0.26296 0.0
C445 C 0.36831 0.59063 0.25406 0.0
C446 C 0.38701 0.59983 0.22884 0.0
C447 C 0.39598 0.5853 0.21581 0.0
C448 C 0.47211 0.54617 0.18743 0.0
C449 C 0.48291 0.56974 0.27496 0.0
C450 C 0.54266 0.63073 0.19681 0.0
Eu451 Eu 0.49585 0.60246 0.1996 0.0
C452 C 0.5616 0.64516 0.17137 0.0
C453 C 0.58582 0.65622 0.18205 0.0
C454 C 0.60425 0.66652 0.15686 0.0
C455 C 0.59854 0.6658 0.12074 0.0
C456 C 0.57422 0.65631 0.11063 0.0
C457 C 0.55584 0.64595 0.1358 0.0
C458 C 0.46768 0.62271 0.21234 0.0
C459 C 0.46163 0.58283 0.12827 0.0
O460 O 0.40996 0.55177 0.19025 0.0
O461 O 0.41365 0.54965 0.24691 0.0
O462 O 0.4532 0.53401 0.20757 0.0
O463 O 0.47363 0.56594 0.18038 0.0
O464 O 0.45969 0.55995 0.26667 0.0
O465 O 0.49937 0.58583 0.25289 0.0
O466 O 0.53167 0.60724 0.19173 0.0
O467 O 0.52777 0.63842 0.20503 0.0
O468 O 0.48292 0.62831 0.1865 0.0
O469 O 0.46693 0.60536 0.23025 0.0
O470 O 0.48453 0.59483 0.13985 0.0
O471 O 0.44394 0.57258 0.15243 0.0
H472 H 0.35835 0.53286 0.25925 0.0
H473 H 0.34277 0.5583 0.28262 0.0
H474 H 0.39598 0.61879 0.2214 0.0
H475 H 0.41165 0.5934 0.19857 0.0
H476 H 0.59043 0.65574 0.20957 0.0
H477 H 0.62282 0.67376 0.16532 0.0
H478 H 0.5692 0.65513 1.08295 0.0
H479 H 0.53714 0.63737 0.12726 0.0
H480 H 0.51125 0.1677 0.25578 0.0
H481 H 0.51472 0.20683 0.2399 0.0
H482 H 0.46901 0.20048 0.32841 0.0
H483 H 0.46569 0.16156 0.34421 0.0
H484 H 0.4534 0.21156 0.26997 0.0
H485 H 0.5307 0.2391 0.3237 0.0
H486 H 0.57173 0.2454 0.33217 0.0
H487 H 0.59409 0.2831 0.23323 0.0
H488 H 0.55283 0.27523 0.22263 0.0
H489 H 0.50504 0.35159 0.26429 0.0
H490 H 0.50758 0.3161 0.28334 0.0
H491 H 0.47019 0.27761 0.18833 0.0
H492 H 0.46785 0.31314 0.16903 0.0
H493 H 0.52845 0.29059 0.25287 0.0
H494 H 0.43223 0.21725 0.21167 0.0
H495 H 0.3919 0.21284 0.20362 0.0
H496 H 0.40947 0.2699 0.27987 0.0
H497 H 0.44975 0.27442 0.28874 0.0
C498 C 0.50231 0.17491 0.27215 0.0
C499 C 0.48834 0.16156 0.30144 0.0
C500 C 0.50428 0.19734 0.26305 0.0
C501 C 0.49217 0.20697 0.28283 0.0
C502 C 0.47854 0.1937 0.31246 0.0
C503 C 0.47672 0.17142 0.32166 0.0
C504 C 0.49232 0.22992 0.27181 0.0
C505 C 0.46995 0.22872 0.26606 0.0
C506 C 0.5138 0.25272 0.26663 0.0
C507 C 0.53838 0.25618 0.27219 0.0
C508 C 0.54415 0.24813 0.30331 0.0
C509 C 0.56749 0.252 0.30849 0.0
C510 C 0.58549 0.26465 0.28332 0.0
C511 C 0.58011 0.27318 0.25266 0.0
C512 C 0.55666 0.26876 0.24687 0.0
C513 C 0.49763 0.33569 0.24722 0.0
C514 C 0.48635 0.33539 0.21499 0.0
C515 C 0.49912 0.31535 0.25816 0.0
C516 C 0.48908 0.29394 0.23746 0.0
C517 C 0.47799 0.2937 0.20507 0.0
C518 C 0.4767 0.31413 0.19396 0.0
C519 C 0.48971 0.27177 0.25003 0.0
C520 C 0.51208 0.27321 0.25629 0.0
C521 C 0.46838 0.24911 0.25528 0.0
C522 C 0.44408 0.24632 0.25056 0.0
C523 C 0.42744 0.22879 0.22681 0.0
C524 C 0.4046 0.22628 0.22209 0.0
C525 C 0.39816 0.24114 0.24113 0.0
C526 C 0.41452 0.25847 0.26504 0.0
C527 C 0.43736 0.26103 0.26988 0.0
H528 H 0.38048 0.23918 0.23741 0.0
H529 H 0.60361 0.26789 0.28758 0.0
H530 H 0.3195 0.48541 0.58489 0.0
H531 H 0.28322 0.48801 0.57455 0.0
H532 H 0.3026 0.53885 0.66163 0.0
H533 H 0.33939 0.53635 0.67197 0.0
H534 H 0.24492 0.47424 0.61159 0.0
H535 H 0.27434 0.57332 0.65072 0.0
H536 H 0.31031 0.61436 0.64871 0.0
H537 H 0.33876 0.59199 0.56194 0.0
H538 H 0.30304 0.55109 0.56342 0.0
H539 H 0.13852 0.48302 0.62566 0.0
H540 H 0.1781 0.4875 0.63846 0.0
H541 H 0.20751 0.53149 0.54524 0.0
H542 H 0.16772 0.52708 0.53243 0.0
H543 H 0.2408 0.54957 0.59883 0.0
H544 H 0.19146 0.47107 0.5452 0.0
H545 H 0.15532 0.43044 0.53877 0.0
H546 H 0.16745 0.41139 0.64266 0.0
H547 H 0.2035 0.45205 0.6499 0.0
C548 C 0.31632 0.49744 0.60171 0.0
C549 C 0.33265 0.51065 0.62934 0.0
C550 C 0.29529 0.4988 0.59584 0.0
C551 C 0.28964 0.51355 0.61721 0.0
C552 C 0.3063 0.52743 0.6443 0.0
C553 C 0.32749 0.52602 0.65026 0.0
C554 C 0.26591 0.51333 0.6116 0.0
C555 C 0.24421 0.49084 0.60904 0.0
C556 C 0.26434 0.53472 0.60776 0.0
C557 C 0.28621 0.55909 0.60752 0.0
C558 C 0.28835 0.57722 0.63132 0.0
C559 C 0.30871 0.60047 0.63028 0.0
C560 C 0.32695 0.60582 0.60538 0.0
C561 C 0.32483 0.58791 0.58148 0.0
C562 C 0.30455 0.56465 0.58246 0.0
C563 C 0.15344 0.49388 0.60799 0.0
C564 C 0.14977 0.50483 0.57811 0.0
C565 C 0.17619 0.49636 0.6153 0.0
C566 C 0.19612 0.50965 0.59274 0.0
C567 C 0.19267 0.52116 0.5633 0.0
C568 C 0.16983 0.5187 0.55599 0.0
C569 C 0.22001 0.51054 0.59907 0.0
C570 C 0.24161 0.53306 0.60182 0.0
C571 C 0.2216 0.48916 0.60258 0.0
C572 C 0.20003 0.46467 0.59822 0.0
C573 C 0.18632 0.45827 0.56677 0.0
C574 C 0.16587 0.43523 0.56296 0.0
C575 C 0.15905 0.41837 0.59032 0.0
C576 C 0.17273 0.42449 0.62151 0.0
C577 C 0.19318 0.44752 0.62547 0.0
H578 H 0.14321 0.40054 0.58733 0.0
H579 H 0.34266 0.62386 0.60451 0.0
H580 H 0.81632 0.34374 0.93837 0.0
H581 H 0.77726 0.30961 0.91763 0.0
H582 H 0.76219 0.28019 1.02325 0.0
H583 H 0.80048 0.31396 1.04391 0.0
H584 H 0.75368 0.24479 0.97726 0.0
H585 H 0.72409 0.3006 0.99016 0.0
H586 H 0.72463 0.33939 0.9829 0.0
H587 H 0.72949 0.33395 0.86985 0.0
H588 H 0.72818 0.29472 0.87639 0.0
H589 H 0.63142 0.149 0.94988 0.0
H590 H 0.66563 0.1873 0.97266 0.0
H591 H 0.68254 0.21496 0.86611 0.0
H592 H 0.64878 0.17692 0.84348 0.0
H593 H 0.68974 0.2515 0.9129 0.0
H594 H 0.71293 0.18998 0.90468 0.0
H595 H 0.70897 0.15022 0.91763 0.0
H596 H 0.71634 0.167 1.02916 0.0
H597 H 0.72001 0.20675 1.01688 0.0
C598 C 0.80447 0.33025 0.95726 0.0
C599 C 0.81181 0.33175 0.99288 0.0
C600 C 0.78206 0.31061 0.94538 0.0
C601 C 0.76652 0.29191 0.96873 0.0
C602 C 0.77365 0.29397 1.00439 0.0
C603 C 0.79571 0.31353 1.01624 0.0
C604 C 0.7434 0.26971 0.95631 0.0
C605 C 0.73966 0.24637 0.9635 0.0
C606 C 0.72486 0.27125 0.93812 0.0
C607 C 0.72607 0.29486 0.93376 0.0
C608 C 0.72528 0.30773 0.96376 0.0
C609 C 0.72556 0.32968 0.95977 0.0
C610 C 0.72682 0.33897 0.92592 0.0
C611 C 0.72821 0.32656 0.89601 0.0
C612 C 0.7275 0.30438 0.8998 0.0
C613 C 0.64207 0.16347 0.93145 0.0
C614 C 0.63723 0.15978 0.89478 0.0
C615 C 0.66185 0.18537 0.94445 0.0
C616 C 0.67715 0.20421 0.92115 0.0
C617 C 0.6713 0.20096 0.88484 0.0
C618 C 0.65186 0.17908 0.87188 0.0
C619 C 0.70003 0.22655 0.93384 0.0
C620 C 0.70377 0.2499 0.9266 0.0
C621 C 0.71846 0.22498 0.95251 0.0
C622 C 0.7165 0.20122 0.95989 0.0
C623 C 0.71354 0.18512 0.93198 0.0
C624 C 0.71137 0.1626 0.9392 0.0
C625 C 0.71234 0.15606 0.97421 0.0
C626 C 0.71556 0.17207 1.00206 0.0
C627 C 0.7177 0.1946 0.99499 0.0
H628 H 0.71065 0.13861 0.97974 0.0
H629 H 0.72654 0.35568 0.92292 0.0
H630 H 0.46403 0.65551 0.17166 0.0
H631 H 0.45989 0.69011 0.18976 0.0
H632 H 0.45217 0.66743 0.29873 0.0
H633 H 0.45615 0.63217 0.28041 0.0
H634 H 0.42199 0.68689 0.28216 0.0
H635 H 0.50623 0.71207 0.26868 0.0
H636 H 0.54196 0.71605 0.23728 0.0
H637 H 0.53156 0.75552 0.15394 0.0
H638 H 0.49553 0.75145 0.18459 0.0
H639 H 0.45744 0.80177 0.36288 0.0
H640 H 0.45202 0.76318 0.34199 0.0
H641 H 0.46539 0.78946 0.23468 0.0
H642 H 0.47177 0.82912 0.25607 0.0
H643 H 0.49077 0.76744 0.24903 0.0
H644 H 0.39904 0.72675 0.25143 0.0
H645 H 0.36185 0.72164 0.27983 0.0
H646 H 0.38781 0.71511 0.38166 0.0
H647 H 0.42443 0.71862 0.35332 0.0
C648 C 0.46109 0.65755 0.19952 0.0
C649 C 0.46064 0.64096 0.22452 0.0
C650 C 0.45885 0.67759 0.2099 0.0
C651 C 0.45625 0.68203 0.24581 0.0
C652 C 0.45437 0.66473 0.27084 0.0
C653 C 0.45655 0.64443 0.26034 0.0
C654 C 0.45685 0.70533 0.25674 0.0
C655 C 0.43722 0.70443 0.27521 0.0
C656 C 0.47625 0.72857 0.24706 0.0
C657 C 0.49806 0.73126 0.22878 0.0
C658 C 0.51147 0.72146 0.24354 0.0
C659 C 0.53178 0.72374 0.22589 0.0
C660 C 0.53899 0.73598 0.1936 0.0
C661 C 0.52594 0.74602 0.17894 0.0
C662 C 0.50558 0.74374 0.19645 0.0
C663 C 0.45844 0.7992 0.33458 0.0
C664 C 0.46466 0.81865 0.31122 0.0
C665 C 0.45506 0.77677 0.3225 0.0
C666 C 0.45733 0.77257 0.28637 0.0
C667 C 0.46297 0.79179 0.26261 0.0
C668 C 0.46641 0.81449 0.2748 0.0
C669 C 0.45599 0.74904 0.2745 0.0
C670 C 0.47549 0.74989 0.2558 0.0
C671 C 0.43649 0.7258 0.28372 0.0
C672 C 0.41444 0.72319 0.30054 0.0
C673 C 0.39673 0.72416 0.27985 0.0
C674 C 0.37573 0.72143 0.29584 0.0
C675 C 0.37257 0.71831 0.33253 0.0
C676 C 0.39024 0.7175 0.35324 0.0
C677 C 0.41091 0.71946 0.3372 0.0
H678 H 0.3564 0.71642 0.34487 0.0
H679 H 0.55472 0.73773 0.17997 0.0
H680 H 0.64792 0.50368 0.58164 0.0
H681 H 0.68437 0.50092 0.57017 0.0
H682 H 0.66708 0.45295 0.6591 0.0
H683 H 0.63042 0.45534 0.67031 0.0
H684 H 0.71543 0.49047 0.6606 0.0
H685 H 0.66232 0.42964 0.57894 0.0
H686 H 0.63294 0.41174 0.52998 0.0
H687 H 0.68389 0.4651 0.45844 0.0
H688 H 0.71364 0.48344 0.50706 0.0
H689 H 0.80026 0.45201 0.55447 0.0
H690 H 0.76005 0.44666 0.56709 0.0
H691 H 0.79375 0.51867 0.61289 0.0
H692 H 0.83351 0.52338 0.60218 0.0
H693 H 0.73497 0.46487 0.54644 0.0
H694 H 0.76006 0.52834 0.66876 0.0
H695 H 0.7877 0.54157 0.72018 0.0
H696 H 0.78911 0.47492 0.71578 0.0
H697 H 0.76113 0.46103 0.66454 0.0
C698 C 0.65169 0.4923 0.59855 0.0
C699 C 0.63604 0.47979 0.62699 0.0
C700 C 0.67265 0.49072 0.59193 0.0
C701 C 0.67889 0.47682 0.6138 0.0
C702 C 0.66305 0.464 0.64188 0.0
C703 C 0.64189 0.46527 0.64817 0.0
C704 C 0.70228 0.47648 0.60826 0.0
C705 C 0.71958 0.48472 0.63566 0.0
C706 C 0.708 0.46879 0.57597 0.0
C707 C 0.69009 0.45812 0.54676 0.0
C708 C 0.66718 0.43774 0.55287 0.0
C709 C 0.65046 0.42747 0.52516 0.0
C710 C 0.65643 0.4374 0.4912 0.0
C711 C 0.67923 0.45751 0.48481 0.0
C712 C 0.69606 0.46782 0.51242 0.0
C713 C 0.79906 0.46658 0.56762 0.0
C714 C 0.82036 0.48807 0.57747 0.0
C715 C 0.77593 0.46357 0.57476 0.0
C716 C 0.77328 0.48204 0.5917 0.0
C717 C 0.79469 0.50362 0.60096 0.0
C718 C 0.81769 0.50643 0.59445 0.0
C719 C 0.74846 0.4792 0.59873 0.0
C720 C 0.73086 0.47044 0.57155 0.0
C721 C 0.74221 0.4859 0.6316 0.0
C722 C 0.7587 0.49377 0.66264 0.0
C723 C 0.7662 0.51645 0.67883 0.0
C724 C 0.78193 0.52406 0.70789 0.0
C725 C 0.79019 0.50908 0.72112 0.0
C726 C 0.78267 0.48643 0.7054 0.0
C727 C 0.7669 0.4787 0.67634 0.0
H728 H 0.80235 0.51498 0.74364 0.0
H729 H 0.64346 0.42938 0.46979 0.0
H730 H 0.29836 0.82097 0.84785 0.0
H731 H 0.26463 0.78296 0.86975 0.0
H732 H 0.30625 0.78757 0.96206 0.0
H733 H 0.34016 0.8264 0.94067 0.0
H734 H 0.27256 0.73538 0.90968 0.0
H735 H 0.27423 0.79692 0.99262 0.0
H736 H 0.27653 0.83625 1.00432 0.0
H737 H 0.21481 0.81513 0.93723 0.0
H738 H 0.21243 0.77582 0.92472 0.0
H739 H 0.16362 0.67134 1.04276 0.0
H740 H 0.20103 0.70539 1.02069 0.0
H741 H 0.18421 0.67448 0.91526 0.0
H742 H 0.14608 0.64 0.93748 0.0
H743 H 0.20699 0.73962 0.97428 0.0
H744 H 0.24129 0.69686 0.87006 0.0
H745 H 0.23998 0.65804 0.85764 0.0
H746 H 0.22983 0.6408 0.96855 0.0
H747 H 0.23142 0.67967 0.98158 0.0
C748 C 0.30056 0.81398 0.87281 0.0
C749 C 0.32225 0.827 0.89238 0.0
C750 C 0.28112 0.79205 0.88527 0.0
C751 C 0.2827 0.78207 0.91754 0.0
C752 C 0.3045 0.79466 0.93694 0.0
C753 C 0.32395 0.81694 0.92469 0.0
C754 C 0.26102 0.7593 0.93137 0.0
C755 C 0.25824 0.73631 0.92385 0.0
C756 C 0.24206 0.76017 0.94967 0.0
C757 C 0.24335 0.78362 0.95742 0.0
C758 C 0.26132 0.80079 0.98009 0.0
C759 C 0.2626 0.82304 0.98693 0.0
C760 C 0.24587 0.82822 0.97144 0.0
C761 C 0.22778 0.81112 0.94916 0.0
C762 C 0.22646 0.78886 0.9422 0.0
C763 C 0.1678 0.67151 1.01483 0.0
C764 C 0.15149 0.65271 0.99201 0.0
C765 C 0.18935 0.69124 1.00215 0.0
C766 C 0.19576 0.69298 0.96612 0.0
C767 C 0.17998 0.67379 0.94324 0.0
C768 C 0.1581 0.65394 0.95599 0.0
C769 C 0.21839 0.71538 0.95307 0.0
C770 C 0.22125 0.73847 0.96028 0.0
C771 C 0.23734 0.71446 0.93447 0.0
C772 C 0.23623 0.69104 0.92678 0.0
C773 C 0.23882 0.6848 0.89179 0.0
C774 C 0.23803 0.66281 0.88462 0.0
C775 C 0.23483 0.647 0.91229 0.0
C776 C 0.23228 0.65306 0.94715 0.0
C777 C 0.23308 0.67503 0.95442 0.0
H778 H 0.23448 0.63015 0.90675 0.0
H779 H 0.24688 0.84545 0.97677 0.0
H780 H 0.53694 0.20168 0.98729 0.0
H781 H 0.55153 0.23395 1.03129 0.0
H782 H 0.62231 0.26846 0.98296 0.0
H783 H 0.60767 0.23563 0.93883 0.0
H784 H 0.62498 0.25527 1.0452 0.0
H785 H 0.59414 0.30296 1.00503 0.0
H786 H 0.56585 0.31317 0.97628 0.0
H787 H 0.51365 0.27634 1.05846 0.0
H788 H 0.54129 0.26539 1.08734 0.0
H789 H 0.62198 0.24585 0.22427 0.0
H790 H 0.63268 0.27508 0.17633 0.0
H791 H 0.55768 0.23995 0.1446 0.0
H792 H 0.54674 0.2123 0.19399 0.0
H793 H 0.57907 0.28329 0.11871 0.0
H794 H 0.59959 0.21612 0.12115 0.0
H795 H 0.62278 0.19822 0.14618 0.0
H796 H 0.68892 0.26578 0.13173 0.0
H797 H 0.66601 0.28406 0.10686 0.0
C798 C 0.55531 0.21667 0.985 0.0
C799 C 0.57133 0.21584 0.96022 0.0
C800 C 0.56366 0.2354 1.01008 0.0
C801 C 0.58813 0.25375 1.01066 0.0
C802 C 0.60339 0.2545 0.98314 0.0
C803 C 0.59508 0.23561 0.95819 0.0
C804 C 0.59852 0.26685 1.04464 0.0
C805 C 0.61566 0.26246 1.06087 0.0
C806 C 0.5867 0.27652 1.06524 0.0
C807 C 0.56999 0.28347 1.04854 0.0
C808 C 0.57661 0.29696 1.01697 0.0
C809 C 0.56063 0.30283 1.00058 0.0
C810 C 0.53797 0.2954 1.01553 0.0
C811 C 0.53124 0.28214 1.04695 0.0
C812 C 0.54711 0.27615 1.06342 0.0
C813 C 0.60766 0.24501 0.20797 0.0
C814 C 0.58362 0.22602 0.2118 0.0
C815 C 0.61382 0.26173 0.18046 0.0
C816 C 0.59619 0.25902 0.15575 0.0
C817 C 0.5718 0.24225 0.16276 0.0
C818 C 0.56557 0.22601 0.19065 0.0
C819 C 0.60277 0.2684 0.11901 0.0
C820 C 0.58936 0.27757 1.1024 0.0
C821 C 0.61738 0.26235 1.09779 0.0
C822 C 0.63115 0.25148 0.11264 0.0
C823 C 0.61908 0.22711 0.12341 0.0
C824 C 0.63215 0.21693 0.13758 0.0
C825 C 0.6573 0.23088 0.14064 0.0
C826 C 0.66944 0.25503 0.12945 0.0
C827 C 0.65643 0.26532 0.11536 0.0
H828 H 0.6674 0.22297 0.1516 0.0
H829 H 0.52562 0.29996 1.00278 0.0
H830 H 0.40316 0.6328 0.28295 0.0
H831 H 0.39953 0.6515 0.33669 0.0
H832 H 0.32179 0.60611 0.33254 0.0
H833 H 0.32558 0.58622 0.27884 0.0
H834 H 0.3829 0.67266 0.37304 0.0
H835 H 0.30094 0.58413 0.41108 0.0
H836 H 0.2771 0.54122 0.39168 0.0
H837 H 0.34143 0.54454 0.35036 0.0
H838 H 0.36557 0.5874 0.36963 0.0
H839 H 0.3783 0.62634 0.56879 0.0
H840 H 0.35868 0.63541 0.52009 0.0
H841 H 0.41827 0.64925 0.45125 0.0
H842 H 0.43726 0.63916 0.49921 0.0
H843 H 0.34896 0.60381 0.45676 0.0
H844 H 0.42654 0.69202 0.39912 0.0
H845 H 0.45627 0.73351 0.4191 0.0
H846 H 0.40847 0.72877 0.50306 0.0
H847 H 0.3783 0.68742 0.48312 0.0
C848 C 0.38517 0.62741 0.29243 0.0
C849 C 0.36471 0.6075 0.27727 0.0
C850 C 0.38307 0.63822 0.32344 0.0
C851 C 0.36042 0.62945 0.33973 0.0
C852 C 0.33955 0.6125 0.32123 0.0
C853 C 0.3417 0.6012 0.29048 0.0
C854 C 0.3599 0.63407 0.37842 0.0
C855 C 0.37493 0.65775 0.3915 0.0
C856 C 0.34922 0.61461 0.40285 0.0
C857 C 0.3349 0.58892 0.39134 0.0
C858 C 0.30992 0.57564 0.39784 0.0
C859 C 0.29639 0.55137 0.38687 0.0
C860 C 0.30773 0.5402 0.36966 0.0
C861 C 0.33265 0.55323 0.36357 0.0
C862 C 0.34626 0.57749 0.37451 0.0
C863 C 0.3874 0.63189 0.54345 0.0
C864 C 0.40892 0.63149 0.53734 0.0
C865 C 0.37628 0.63721 0.51584 0.0
C866 C 0.38711 0.64311 0.48226 0.0
C867 C 0.40979 0.64503 0.47718 0.0
C868 C 0.42052 0.63906 0.50442 0.0
C869 C 0.37318 0.64216 0.45056 0.0
C870 C 0.35545 0.61908 0.43881 0.0
C871 C 0.38199 0.66199 0.42727 0.0
C872 C 0.40008 0.68679 0.43935 0.0
C873 C 0.42229 0.69996 0.4216 0.0
C874 C 0.43924 0.72341 0.43298 0.0
C875 C 0.43424 0.7338 0.46228 0.0
C876 C 0.4123 0.72072 0.48032 0.0
C877 C 0.39528 0.69729 0.46898 0.0
H878 H 0.44738 0.75196 0.47105 0.0
H879 H 0.29721 0.52142 0.36114 0.0
H880 H 0.75117 0.41899 0.94302 0.0
H881 H 0.71726 0.40964 0.9029 0.0
H882 H 0.74423 0.37665 0.82881 0.0
H883 H 0.77771 0.38608 0.86795 0.0
H884 H 0.71892 0.42703 0.84124 0.0
H885 H 0.70557 0.33252 0.78367 0.0
H886 H 0.69063 0.29155 0.80725 0.0
H887 H 0.66145 0.309 0.89823 0.0
H888 H 0.67569 0.35 0.87495 0.0
H889 H 0.78369 0.43421 0.71438 0.0
H890 H 0.75517 0.42947 0.75976 0.0
H891 H 0.69654 0.37537 0.69585 0.0
H892 H 0.7257 0.38088 0.6488 0.0
H893 H 0.69372 0.35773 0.75794 0.0
H894 H 0.68759 0.42288 0.73293 0.0
H895 H 0.69495 0.46207 0.71002 0.0
H896 H 0.75254 0.49994 0.78509 0.0
H897 H 0.74581 0.46106 0.80836 0.0
C898 C 0.74961 0.40954 0.91825 0.0
C899 C 0.76707 0.40319 0.90868 0.0
C900 C 0.73007 0.40392 0.89563 0.0
C901 C 0.72765 0.39175 0.86327 0.0
C902 C 0.74496 0.38515 0.85418 0.0
C903 C 0.76437 0.39079 0.87651 0.0
C904 C 0.71044 0.38988 0.83537 0.0
C905 C 0.71275 0.41171 0.82317 0.0
C906 C 0.69952 0.36915 0.81293 0.0
C907 C 0.69149 0.34447 0.82719 0.0
C908 C 0.69563 0.32764 0.8084 0.0
C909 C 0.68731 0.30434 0.82179 0.0
C910 C 0.67488 0.29759 0.85403 0.0
C911 C 0.67092 0.31419 0.87312 0.0
C912 C 0.67919 0.33751 0.85987 0.0
C913 C 0.76465 0.42208 0.70909 0.0
C914 C 0.75698 0.40822 0.67775 0.0
C915 C 0.74816 0.4194 0.73516 0.0
C916 C 0.72341 0.4025 0.73104 0.0
C917 C 0.71544 0.38886 0.69939 0.0
C918 C 0.73212 0.3918 0.67278 0.0
C919 C 0.70788 0.39622 0.76306 0.0
C920 C 0.69861 0.37267 0.77631 0.0
C921 C 0.71106 0.415 0.78669 0.0
C922 C 0.71585 0.43885 0.77284 0.0
C923 C 0.70188 0.43954 0.74458 0.0
C924 C 0.70597 0.46175 0.73147 0.0
C925 C 0.72411 0.48349 0.74619 0.0
C926 C 0.73832 0.48307 0.77395 0.0
C927 C 0.73428 0.4609 0.78725 0.0
H928 H 0.72721 0.50067 0.736 0.0
H929 H 0.66857 0.27959 0.86442 0.0
H930 H 0.37734 0.74512 0.98383 0.0
H931 H 0.36105 0.71924 1.03582 0.0
H932 H 0.30878 0.74283 1.04908 0.0
H933 H 0.32392 0.76723 0.99624 0.0
H934 H 0.371 0.74303 1.09146 0.0
H935 H 0.26849 0.71744 0.10888 0.0
H936 H 0.22947 0.69129 1.07918 0.0
H937 H 0.25886 0.65143 1.0274 0.0
H938 H 0.29801 0.67705 1.05715 0.0
H939 H 0.33473 0.79899 0.21526 0.0
H940 H 0.31802 0.76734 0.16953 0.0
H941 H 0.34812 0.72882 0.22271 0.0
H942 H 0.36492 0.76052 0.26871 0.0
H943 H 0.29312 0.71391 0.15451 0.0
H944 H 0.38548 0.72918 0.17077 0.0
H945 H 0.42462 0.75719 0.19953 0.0
H946 H 0.41425 0.81751 0.17784 0.0
H947 H 0.37518 0.78986 0.14893 0.0
C948 C 0.36157 0.74377 0.9968 0.0
C949 C 0.35249 0.75893 0.98688 0.0
C950 C 0.35222 0.72891 1.02657 0.0
C951 C 0.33399 0.72937 1.04709 0.0
C952 C 0.32273 0.74186 1.034 0.0
C953 C 0.33179 0.75634 1.00402 0.0
C954 C 0.33207 0.72398 1.08569 0.0
C955 C 0.35377 0.73541 0.10513 0.0
C956 C 0.30976 0.71429 0.1041 0.0
C957 C 0.28628 0.69916 1.08553 0.0
C958 C 0.26665 0.70297 1.09144 0.0
C959 C 0.24448 0.68826 1.07451 0.0
C960 C 0.24164 0.6696 1.05166 0.0
C961 C 0.26106 0.66583 1.04525 0.0
C962 C 0.28328 0.6805 1.06206 0.0
C963 C 0.33677 0.78319 0.2182 0.0
C964 C 0.35162 0.78243 0.24492 0.0
C965 C 0.32704 0.76498 0.19216 0.0
C966 C 0.33214 0.74594 0.1926 0.0
C967 C 0.34404 0.7434 0.22201 0.0
C968 C 0.35384 0.76163 0.24795 0.0
C969 C 0.33187 0.73415 0.15849 0.0
C970 C 0.30998 0.7198 0.14047 0.0
C971 C 0.35393 0.74095 0.14104 0.0
C972 C 0.37755 0.75754 0.15782 0.0
C973 C 0.39167 0.74844 0.17205 0.0
C974 C 0.41379 0.76424 0.18841 0.0
C975 C 0.42191 0.78912 0.19042 0.0
C976 C 0.40796 0.79826 0.17616 0.0
C977 C 0.38586 0.78256 0.15983 0.0
H978 H 0.43902 0.80137 0.20295 0.0
H979 H 0.2244 0.65809 1.03885 0.0
H980 H 0.59474 0.33261 0.29434 0.0
H981 H 0.60263 0.31101 0.34081 0.0
H982 H 0.53651 0.29672 0.39322 0.0
H983 H 0.52786 0.31626 0.34581 0.0
H984 H 0.61634 0.33095 0.39638 0.0
H985 H 0.51805 0.26858 0.45637 0.0
H986 H 0.48232 0.22914 0.44126 0.0
H987 H 0.52636 0.21046 0.37708 0.0
H988 H 0.56242 0.24979 0.39203 0.0
H989 H 0.58832 0.38361 0.5232 0.0
H990 H 0.59566 0.36195 0.47628 0.0
H991 H 0.57823 0.30248 0.54731 0.0
H992 H 0.57025 0.32437 0.59486 0.0
H993 H 0.55598 0.28452 0.48934 0.0
H994 H 0.63697 0.33539 0.50952 0.0
H995 H 0.67475 0.37248 0.5264 0.0
H996 H 0.67029 0.40827 0.43314 0.0
H997 H 0.63221 0.37174 0.41607 0.0
C998 C 0.58133 0.32376 0.31493 0.0
C999 C 0.56125 0.32716 0.31749 0.0
C1000 C 0.58589 0.31141 0.34166 0.0
C1001 C 0.5707 0.30273 0.37158 0.0
C1002 C 0.54875 0.30292 0.37087 0.0
C1003 C 0.544 0.31478 0.34394 0.0
C1004 C 0.58045 0.30098 0.40675 0.0
C1005 C 0.60332 0.32035 0.41663 0.0
C1006 C 0.56481 0.28591 0.43379 0.0
C1007 C 0.54298 0.26223 0.42513 0.0
C1008 C 0.52019 0.25603 0.43923 0.0
C1009 C 0.49983 0.23372 0.43059 0.0
C1010 C 0.50205 0.21733 0.40814 0.0
C1011 C 0.52464 0.2232 0.39436 0.0
C1012 C 0.54501 0.24557 0.40268 0.0
C1013 C 0.58683 0.36629 0.52927 0.0
C1014 C 0.57913 0.35585 0.5628 0.0
C1015 C 0.59115 0.35388 0.50239 0.0
C1016 C 0.58823 0.33079 0.50839 0.0
C1017 C 0.58095 0.3204 0.54216 0.0
C1018 C 0.57637 0.33285 0.56922 0.0
C1019 C 0.58973 0.31689 0.47754 0.0
C1020 C 0.56938 0.29438 0.46909 0.0
C1021 C 0.60826 0.32849 0.45199 0.0
C1022 C 0.63171 0.35055 0.4613 0.0
C1023 C 0.64402 0.35115 0.49255 0.0
C1024 C 0.66548 0.37213 0.50222 0.0
C1025 C 0.67496 0.39268 0.48079 0.0
C1026 C 0.663 0.39227 0.4496 0.0
C1027 C 0.64148 0.37138 0.43987 0.0
H1028 H 0.6915 0.40895 0.48842 0.0
H1029 H 0.48628 0.20008 0.40148 0.0
H1030 H 0.17351 0.58906 0.85167 0.0
H1031 H 0.20306 0.59956 0.80478 0.0
H1032 H 0.24774 0.58458 0.8738 0.0
H1033 H 0.21745 0.57346 0.92138 0.0
H1034 H 0.24841 0.63511 0.80153 0.0
H1035 H 0.28244 0.57041 0.81382 0.0
H1036 H 0.27322 0.53193 0.8425 0.0
H1037 H 0.19714 0.50577 0.83195 0.0
H1038 H 0.20598 0.54402 0.80301 0.0
H1039 H 0.25324 0.6351 0.62588 0.0
H1040 H 0.2783 0.63796 0.67688 0.0
H1041 H 0.22741 0.56302 0.70151 0.0
H1042 H 0.20497 0.55944 0.64837 0.0
H1043 H 0.26053 0.57267 0.74076 0.0
H1044 H 0.22019 0.62582 0.72128 0.0
H1045 H 0.2211 0.66097 0.6923 0.0
H1046 H 0.29689 0.70481 0.71565 0.0
H1047 H 0.29631 0.66987 0.7448 0.0
C1048 C 0.18967 0.58811 0.85707 0.0
C1049 C 0.19332 0.58074 0.89029 0.0
C1050 C 0.20664 0.59419 0.83025 0.0
C1051 C 0.22787 0.59325 0.83586 0.0
C1052 C 0.23153 0.58548 0.86887 0.0
C1053 C 0.21422 0.57906 0.8959 0.0
C1054 C 0.24514 0.59993 0.80588 0.0
C1055 C 0.25157 0.62168 0.78843 0.0
C1056 C 0.25043 0.58307 0.78951 0.0
C1057 C 0.24488 0.5601 0.80678 0.0
C1058 C 0.26377 0.55642 0.8177 0.0
C1059 C 0.25861 0.53467 0.83395 0.0
C1060 C 0.2346 0.51646 0.83918 0.0
C1061 C 0.21571 0.51992 0.82802 0.0
C1062 C 0.22079 0.54162 0.81172 0.0
C1063 C 0.24843 0.61897 0.64117 0.0
C1064 C 0.22685 0.59724 0.63406 0.0
C1065 C 0.26244 0.62068 0.67079 0.0
C1066 C 0.25371 0.60141 0.69511 0.0
C1067 C 0.23446 0.57863 0.68426 0.0
C1068 C 0.22138 0.57652 0.65367 0.0
C1069 C 0.25922 0.60566 0.73399 0.0
C1070 C 0.2584 0.58668 0.75409 0.0
C1071 C 0.25778 0.62449 0.75248 0.0
C1072 C 0.25829 0.64529 0.73461 0.0
C1073 C 0.23701 0.64298 0.72009 0.0
C1074 C 0.23748 0.66282 0.70367 0.0
C1075 C 0.25907 0.68506 0.70197 0.0
C1076 C 0.28021 0.68754 0.71684 0.0
C1077 C 0.27984 0.66775 0.7333 0.0
H1078 H 0.25939 0.7004 0.68924 0.0
H1079 H 0.23064 0.49964 0.85178 0.0
H1080 H 0.40533 0.96121 0.94893 0.0
H1081 H 0.41804 0.98765 1.00182 0.0
H1082 H 0.41704 0.93053 1.06315 0.0
H1083 H 0.40523 0.90425 1.00982 0.0
H1084 H 0.39463 0.95741 1.09996 0.0
H1085 H 0.46878 0.97557 1.03893 0.0
H1086 H 0.49285 0.98698 0.98389 0.0
H1087 H 0.49266 0.05433 0.98162 0.0
H1088 H 0.46835 0.0432 1.03652 0.0
H1089 H 0.44564 0.02569 0.2599 0.0
H1090 H 0.43425 -0.00073 0.20779 0.0
H1091 H 0.47305 0.06184 0.14103 0.0
H1092 H 0.48662 0.08813 0.19427 0.0
H1093 H 0.47504 0.0322 0.1042 0.0
H1094 H 0.40037 0.01684 0.15576 0.0
H1095 H 0.36916 0.00609 0.20185 0.0
H1096 H 0.36394 0.93662 0.21457 0.0
H1097 H 0.39531 0.94706 0.16881 0.0
C1098 C 0.40776 0.95404 0.97355 0.0
C1099 C 0.40404 0.93009 0.97409 0.0
C1100 C 0.41516 0.96945 1.00426 0.0
C1101 C 0.41875 0.96167 1.03764 0.0
C1102 C 0.41459 0.93757 1.03846 0.0
C1103 C 0.40779 0.92234 1.00746 0.0
C1104 C 0.42742 0.97874 1.07086 0.0
C1105 C 0.41239 0.97357 1.10091 0.0
C1106 C 0.45012 0.0008 1.07269 0.0
C1107 C 0.4666 0.00846 1.0417 0.0
C1108 C 0.47388 0.99283 1.0267 0.0
C1109 C 0.48746 -0.00082 0.99544 0.0
C1110 C 0.49397 0.0212 0.97899 0.0
C1111 C 0.4874 0.03717 0.99423 0.0
C1112 C 0.47381 0.03089 1.02552 0.0
C1113 C 0.45183 0.03404 0.23419 0.0
C1114 C 0.46707 0.05956 0.23231 0.0
C1115 C 0.44481 0.01862 0.20353 0.0
C1116 C 0.45139 0.02772 0.16845 0.0
C1117 C 0.46701 0.05337 0.16667 0.0
C1118 C 0.47485 0.06877 0.19766 0.0
C1119 C 0.44241 0.01078 0.13451 0.0
C1120 C 0.45729 0.01607 0.10387 0.0
C1121 C 0.41912 0.98915 0.13163 0.0
C1122 C 0.40035 0.98283 0.15916 0.0
C1123 C 0.39265 -0.00068 0.16854 0.0
C1124 C 0.37493 0.99328 0.19458 0.0
C1125 C 0.36463 0.97072 0.2112 0.0
C1126 C 0.37197 0.95411 0.20173 0.0
C1127 C 0.3897 0.96007 0.17572 0.0
H1128 H 0.35091 0.96608 0.23135 0.0
H1129 H 0.50437 0.02604 0.95467 0.0
H1130 H 0.44388 0.4151 0.29018 0.0
H1131 H 0.4315 0.42826 0.34306 0.0
H1132 H 0.49963 0.44847 0.39267 0.0
H1133 H 0.51218 0.43502 0.33926 0.0
H1134 H 0.4744 0.43955 0.44386 0.0
H1135 H 0.47856 0.48958 0.35276 0.0
H1136 H 0.47255 0.50313 0.29459 0.0
H1137 H 0.39673 0.4718 0.3162 0.0
H1138 H 0.40211 0.45735 0.37411 0.0
H1139 H 0.40698 0.4526 0.58508 0.0
H1140 H 0.42168 0.44114 0.53256 0.0
H1141 H 0.43335 0.5059 0.47999 0.0
H1142 H 0.41935 0.51782 0.53325 0.0
H1143 H 0.42507 0.47911 0.43022 0.0
H1144 H 0.45628 0.41721 0.50196 0.0
H1145 H 0.47448 0.41653 0.55927 0.0
H1146 H 0.49807 0.492 0.57606 0.0
H1147 H 0.48061 0.49334 0.51852 0.0
C1148 C 0.45658 0.42254 0.31203 0.0
C1149 C 0.47944 0.42406 0.30915 0.0
C1150 C 0.44943 0.43049 0.34279 0.0
C1151 C 0.46481 0.44094 0.37262 0.0
C1152 C 0.48732 0.44155 0.3704 0.0
C1153 C 0.49457 0.43359 0.33943 0.0
C1154 C 0.45728 0.45088 0.40542 0.0
C1155 C 0.46338 0.44791 0.44044 0.0
C1156 C 0.44419 0.46363 0.40264 0.0
C1157 C 0.4407 0.47209 0.3677 0.0
C1158 C 0.46052 0.48525 0.34494 0.0
C1159 C 0.45722 0.49306 0.31196 0.0
C1160 C 0.43426 0.48826 0.30164 0.0
C1161 C 0.41451 0.4755 0.32422 0.0
C1162 C 0.41766 0.46743 0.35711 0.0
C1163 C 0.41289 0.4647 0.56258 0.0
C1164 C 0.41204 0.48652 0.56453 0.0
C1165 C 0.4217 0.45814 0.53209 0.0
C1166 C 0.43017 0.47295 0.5015 0.0
C1167 C 0.42816 0.4942 0.50284 0.0
C1168 C 0.41985 0.50107 0.53372 0.0
C1169 C 0.44069 0.46618 0.46868 0.0
C1170 C 0.43559 0.47021 0.43364 0.0
C1171 C 0.45614 0.45597 0.4714 0.0
C1172 C 0.46676 0.45525 0.50607 0.0
C1173 C 0.46541 0.43369 0.5178 0.0
C1174 C 0.47563 0.4332 0.55034 0.0
C1175 C 0.48728 0.45417 0.5714 0.0
C1176 C 0.48887 0.47571 0.55988 0.0
C1177 C 0.47885 0.47635 0.52726 0.0
H1178 H 0.4952 0.45376 0.59656 0.0
H1179 H 0.43179 0.49452 0.27622 0.0
H1180 H 0.03463 0.43987 0.64228 0.0
H1181 H 0.00857 0.42437 0.69463 0.0
H1182 H 0.02593 0.4971 0.72239 0.0
H1183 H 0.05249 0.51269 0.67043 0.0
H1184 H 0.98234 0.47135 0.74185 0.0
H1185 H -0.00988 0.38556 0.76445 0.0
H1186 H 0.01976 0.37187 0.75593 0.0
H1187 H 0.07789 0.44586 0.75963 0.0
H1188 H 0.04864 0.45995 0.76858 0.0
H1189 H 0.8942 0.40628 0.87588 0.0
H1190 H 0.91924 0.41975 0.82261 0.0
H1191 H 0.97702 0.41836 0.8791 0.0
H1192 H 0.95103 0.40304 0.93189 0.0
H1193 H 0.9846 0.40983 0.81889 0.0
H1194 H 0.97633 0.47878 0.84751 0.0
H1195 H 0.95426 0.49991 0.86468 0.0
H1196 H 0.90878 0.47042 0.77273 0.0
H1197 H 0.93099 0.44959 0.75471 0.0
C1198 C 0.03329 0.45279 0.65966 0.0
C1199 C 0.04647 0.47788 0.65143 0.0
C1200 C 0.0182 0.44377 0.69028 0.0
C1201 C 0.01516 0.45924 0.71455 0.0
C1202 C 0.02781 0.48426 0.70569 0.0
C1203 C 0.04328 0.49336 0.67538 0.0
C1204 C -0.00097 0.44946 0.74848 0.0
C1205 C 0.98294 0.45775 0.75825 0.0
C1206 C -0.00053 0.43212 0.77195 0.0
C1207 C 0.01716 0.4238 0.76677 0.0
C1208 C 0.00923 0.39889 0.76353 0.0
C1209 C 0.02596 0.39107 0.75862 0.0
C1210 C 0.05068 0.40799 0.75711 0.0
C1211 C 0.05874 0.43278 0.76066 0.0
C1212 C 0.04209 0.44069 0.76561 0.0
C1213 C 0.91219 0.40867 0.87719 0.0
C1214 C 0.92009 0.40324 0.90909 0.0
C1215 C 0.92702 0.41698 0.84628 0.0
C1216 C 0.95112 0.42137 0.8456 0.0
C1217 C 0.95889 0.41557 0.8775 0.0
C1218 C 0.94378 0.40665 0.90826 0.0
C1219 C 0.96776 0.43158 0.81213 0.0
C1220 C 0.98384 0.42326 0.8023 0.0
C1221 C 0.96826 0.44981 0.78962 0.0
C1222 C 0.95522 0.46264 0.79982 0.0
C1223 C 0.96165 0.47689 0.83096 0.0
C1224 C 0.94917 0.48884 0.8408 0.0
C1225 C 0.93009 0.48648 0.81986 0.0
C1226 C 0.92361 0.47232 0.78889 0.0
C1227 C 0.93625 0.4606 0.77868 0.0
H1228 H 0.92036 0.49564 0.82763 0.0
H1229 H 0.0636 0.4019 0.75328 0.0
H1230 H 0.48242 0.93843 0.2357 0.0
H1231 H 0.49573 0.9646 0.18416 0.0
H1232 H 0.55617 0.95301 0.17151 0.0
H1233 H 0.54368 0.92801 0.22572 0.0
H1234 H 0.57249 -0.00557 0.14607 0.0
H1235 H 0.49645 0.92651 0.108 0.0
H1236 H 0.45335 0.89601 0.1164 0.0
H1237 H 0.43665 0.9529 0.13141 0.0
H1238 H 0.47947 0.98378 0.12153 0.0
H1239 H 0.59128 0.03859 0.96268 0.0
H1240 H 0.58125 0.01405 1.01685 0.0
H1241 H 0.53226 0.03857 1.04841 0.0
H1242 H 0.5428 0.06366 0.99483 0.0
H1243 H 0.5107 0.98989 1.06255 0.0
H1244 H 0.58875 0.05768 1.09104 0.0
H1245 H 0.63231 0.08602 1.08227 0.0
H1246 H 0.64598 0.0265 1.0845 0.0
H1247 H 0.60242 -0.00226 1.09281 0.0
C1248 C 0.49855 0.94114 0.22212 0.0
C1249 C 0.51147 0.93023 0.23582 0.0
C1250 C 0.50614 0.95619 0.19148 0.0
C1251 C 0.52673 0.96073 0.17114 0.0
C1252 C 0.54006 0.9502 0.1852 0.0
C1253 C 0.53276 0.93555 0.21672 0.0
C1254 C 0.53414 0.97639 0.13626 0.0
C1255 C 0.55872 0.99291 0.12783 0.0
C1256 C 0.51702 0.97566 0.11104 0.0
C1257 C 0.49108 0.95737 0.11418 0.0
C1258 C 0.48348 0.93248 0.11263 0.0
C1259 C 0.45912 0.91516 0.11747 0.0
C1260 C 0.44225 0.92256 0.12416 0.0
C1261 C 0.44967 0.94727 0.12559 0.0
C1262 C 0.47393 0.96468 0.12004 0.0
C1263 C 0.57848 0.03908 0.98109 0.0
C1264 C 0.56798 0.05358 0.97308 0.0
C1265 C 0.57266 0.02478 1.0127 0.0
C1266 C 0.55575 0.02384 1.0382 0.0
C1267 C 0.54527 0.03833 1.03017 0.0
C1268 C 0.55142 0.05294 0.99891 0.0
C1269 C 0.54888 0.00791 1.07251 0.0
C1270 C 0.5244 0.99136 1.08079 0.0
C1271 C 0.56614 0.00832 1.09706 0.0
C1272 C 0.5923 0.02554 1.09217 0.0
C1273 C 0.60102 0.05061 1.08937 0.0
C1274 C 0.62571 0.06675 1.08454 0.0
C1275 C 0.64189 0.05806 1.08273 0.0
C1276 C 0.63341 0.0332 1.08585 0.0
C1277 C 0.60873 0.01698 1.09065 0.0
H1278 H 0.661 0.07058 1.07899 0.0
H1279 H 0.42343 0.90915 0.12834 0.0
H1280 H 0.54427 0.46662 0.5355 0.0
H1281 H 0.53129 0.47908 0.48204 0.0
H1282 H 0.5502 0.5473 0.53257 0.0
H1283 H 0.56259 0.53472 0.58584 0.0
H1284 H 0.51415 0.53847 0.49812 0.0
H1285 H 0.58246 0.53521 0.46243 0.0
H1286 H 0.60982 0.51929 0.45015 0.0
H1287 H 0.56045 0.47052 0.37155 0.0
H1288 H 0.53278 0.48614 0.38347 0.0
H1289 H 0.52814 0.57606 0.29243 0.0
H1290 H 0.54122 0.56348 0.3453 0.0
H1291 H 0.46965 0.53312 0.38912 0.0
H1292 H 0.45646 0.54553 0.33593 0.0
H1293 H 0.53435 0.5253 0.37608 0.0
H1294 H 0.47426 0.53328 0.48863 0.0
H1295 H 0.45458 0.55735 0.50176 0.0
H1296 H 0.50194 0.61177 0.42827 0.0
H1297 H 0.52196 0.58813 0.41504 0.0
C1298 C 0.54586 0.48437 0.53535 0.0
C1299 C 0.55489 0.49949 0.56593 0.0
C1300 C 0.53843 0.49169 0.50419 0.0
C1301 C 0.53976 0.51464 0.50171 0.0
C1302 C 0.54861 0.52954 0.53248 0.0
C1303 C 0.55597 0.52225 0.56347 0.0
C1304 C 0.53191 0.52313 0.468 0.0
C1305 C 0.51839 0.53515 0.47152 0.0
C1306 C 0.5381 0.52036 0.43236 0.0
C1307 C 0.55492 0.51109 0.42498 0.0
C1308 C 0.57715 0.52075 0.44303 0.0
C1309 C 0.59285 0.51191 0.43595 0.0
C1310 C 0.58675 0.49368 0.41042 0.0
C1311 C 0.56505 0.48443 0.39165 0.0
C1312 C 0.5493 0.49321 0.39867 0.0
C1313 C 0.51503 0.56679 0.31324 0.0
C1314 C 0.49103 0.56216 0.30897 0.0
C1315 C 0.52261 0.55934 0.34391 0.0
C1316 C 0.50682 0.54721 0.37263 0.0
C1317 C 0.48281 0.54268 0.36849 0.0
C1318 C 0.47511 0.54981 0.3375 0.0
C1319 C 0.51548 0.53945 0.40621 0.0
C1320 C 0.52951 0.52795 0.40266 0.0
C1321 C 0.51067 0.54366 0.44191 0.0
C1322 C 0.49887 0.55826 0.44969 0.0
C1323 C 0.48016 0.55015 0.47485 0.0
C1324 C 0.46908 0.56383 0.48251 0.0
C1325 C 0.47678 0.58592 0.46549 0.0
C1326 C 0.49576 0.59449 0.44109 0.0
C1327 C 0.50693 0.58088 0.43342 0.0
H1328 H 0.46819 0.59651 0.47146 0.0
H1329 H 0.59894 0.48688 0.40495 0.0
H1330 H 0.043 0.54058 0.90672 0.0
H1331 H 0.01665 0.52605 0.8549 0.0
H1332 H 0.01122 0.59077 0.85666 0.0
H1333 H 0.03597 0.6043 0.91114 0.0
H1334 H 0.97161 0.56022 0.83107 0.0
H1335 H 0.04644 0.57531 0.77259 0.0
H1336 H 0.08487 0.57483 0.77133 0.0
H1337 H 0.04658 0.49859 0.79461 0.0
H1338 H 0.00817 0.49895 0.79619 0.0
H1339 H 0.92925 0.54445 0.64785 0.0
H1340 H 0.95376 0.55788 0.70235 0.0
H1341 H 0.94284 0.48605 0.71556 0.0
H1342 H 0.91711 0.4722 0.66218 0.0
H1343 H -0.00938 0.52002 0.73306 0.0
H1344 H 0.91335 0.51087 0.76603 0.0
H1345 H 0.87953 0.5189 0.76345 0.0
H1346 H 0.92822 0.59446 0.78548 0.0
H1347 H 0.96246 0.58692 0.78784 0.0
C1348 C 0.03646 0.552 0.89617 0.0
C1349 C 0.0424 0.57404 0.91388 0.0
C1350 C 0.02143 0.54373 0.86537 0.0
C1351 C 0.01218 0.55744 0.84906 0.0
C1352 C 0.01782 0.5794 0.86717 0.0
C1353 C 0.03231 0.58735 0.89881 0.0
C1354 C -0.00344 0.54872 0.81426 0.0
C1355 C 0.97622 0.55178 0.80966 0.0
C1356 C 0.00151 0.53735 0.78505 0.0
C1357 C 0.02442 0.53697 0.7839 0.0
C1358 C 0.04628 0.55845 0.77724 0.0
C1359 C 0.06806 0.55825 0.77654 0.0
C1360 C 0.06817 0.53667 0.7827 0.0
C1361 C 0.0465 0.51528 0.78962 0.0
C1362 C 0.02469 0.5154 0.79 0.0
C1363 C 0.93166 0.53124 0.66247 0.0
C1364 C 0.9204 0.50688 0.64988 0.0
C1365 C 0.94592 0.53907 0.69419 0.0
C1366 C 0.95039 0.52318 0.71487 0.0
C1367 C 0.93977 0.49901 0.70163 0.0
C1368 C 0.9248 0.49096 0.67054 0.0
C1369 C 0.96572 0.53165 0.74982 0.0
C1370 C 0.986 0.52848 0.75445 0.0
C1371 C 0.96121 0.54383 0.77843 0.0
C1372 C 0.94056 0.54831 0.77696 0.0
C1373 C 0.91692 0.52921 0.77021 0.0
C1374 C 0.89764 0.53368 0.76878 0.0
C1375 C 0.90172 0.55718 0.77426 0.0
C1376 C 0.92509 0.57626 0.78123 0.0
C1377 C 0.94444 0.57188 0.78265 0.0
H1378 H 0.88677 0.56061 0.77313 0.0
H1379 H 0.08505 0.53655 0.78225 0.0
H1380 H 0.47778 0.05943 0.42378 0.0
H1381 H 0.49958 0.04784 0.46555 0.0
H1382 H 0.51882 0.0168 0.378 0.0
H1383 H 0.49978 0.0309 0.33671 0.0
H1384 H 0.50673 0.0063 0.48267 0.0
H1385 H 0.58121 0.05546 0.37017 0.0
H1386 H 0.59619 0.09235 0.33456 0.0
H1387 H 0.56607 0.1213 0.40887 0.0
H1388 H 0.55057 0.08447 0.44523 0.0
H1389 H 0.52245 0.97916 0.3407 0.0
H1390 H 0.55187 0.01297 0.37669 0.0
H1391 H 0.55062 0.96304 0.45465 0.0
H1392 H 0.52296 0.92961 0.41765 0.0
H1393 H 0.58655 0.0405 0.42412 0.0
H1394 H 0.56611 -0.00344 0.52205 0.0
H1395 H 0.55347 0.9621 0.5628 0.0
H1396 H 0.48077 0.92964 0.52322 0.0
H1397 H 0.49321 0.96315 0.48122 0.0
C1398 C 0.48628 0.0496 0.41389 0.0
C1399 C 0.48917 0.04788 0.37719 0.0
C1400 C 0.49871 0.04307 0.43769 0.0
C1401 C 0.51229 0.03314 0.42431 0.0
C1402 C 0.50963 0.02575 0.38855 0.0
C1403 C 0.49795 0.03304 0.36494 0.0
C1404 C 0.53127 0.03256 0.44538 0.0
C1405 C 0.52425 0.01392 0.4699 0.0
C1406 C 0.55542 0.04473 0.43272 0.0
C1407 C 0.56481 0.06706 0.41081 0.0
C1408 C 0.57784 0.06966 0.37932 0.0
C1409 C 0.58633 0.09057 0.35881 0.0
C1410 C 0.58206 0.10915 0.36951 0.0
C1411 C 0.56926 0.10684 0.4007 0.0
C1412 C 0.5605 0.08588 0.42117 0.0
C1413 C 0.52866 0.97553 0.36538 0.0
C1414 C 0.51907 0.95186 0.37751 0.0
C1415 C 0.54563 -0.00515 0.38622 0.0
C1416 C 0.55183 0.9908 0.4206 0.0
C1417 C 0.54521 0.96701 0.42961 0.0
C1418 C 0.52894 0.94775 0.40835 0.0
C1419 C 0.55754 0.00936 0.44924 0.0
C1420 C 0.56935 0.03347 0.43758 0.0
C1421 C 0.53848 0.00303 0.47386 0.0
C1422 C 0.53068 0.9824 0.49846 0.0
C1423 C 0.54752 0.98186 0.52173 0.0
C1424 C 0.54038 0.96245 0.54502 0.0
C1425 C 0.51633 0.94359 0.54553 0.0
C1426 C 0.49941 0.9441 0.52269 0.0
C1427 C 0.50652 0.96332 0.49912 0.0
H1428 H 0.51078 0.92863 0.5637 0.0
H1429 H 0.58865 0.12534 0.3536 0.0
H1430 H 0.44912 0.525 0.75986 0.0
H1431 H 0.44357 0.50037 0.81115 0.0
H1432 H 0.39626 0.43578 0.74935 0.0
H1433 H 0.40374 0.4608 0.69796 0.0
H1434 H 0.3984 0.41273 0.79594 0.0
H1435 H 0.40966 0.474 0.85979 0.0
H1436 H 0.40985 0.49224 0.91745 0.0
H1437 H 0.47647 0.49562 0.94513 0.0
H1438 H 0.47674 0.47688 0.88814 0.0
H1439 H 0.48498 0.45482 0.67333 0.0
H1440 H 0.45406 0.44294 0.7191 0.0
H1441 H 0.50921 0.46806 0.80033 0.0
H1442 H 0.5401 0.48261 0.75471 0.0
H1443 H 0.48092 0.47628 0.82739 0.0
H1444 H 0.46368 0.40349 0.7858 0.0
H1445 H 0.45732 0.36828 0.74981 0.0
H1446 H 0.39399 0.36368 0.703 0.0
H1447 H 0.40012 0.39909 0.73801 0.0
C1448 C 0.438 0.50545 0.75726 0.0
C1449 C 0.42716 0.49475 0.72476 0.0
C1450 C 0.43426 0.49112 0.78706 0.0
C1451 C 0.4199 0.46547 0.78512 0.0
C1452 C 0.40801 0.45516 0.7526 0.0
C1453 C 0.41227 0.4695 0.72273 0.0
C1454 C 0.42146 0.44968 0.81364 0.0
C1455 C 0.41685 0.42686 0.80118 0.0
C1456 C 0.44255 0.46134 0.83468 0.0
C1457 C 0.44342 0.47419 0.86861 0.0
C1458 C 0.42456 0.47868 0.87777 0.0
C1459 C 0.42451 0.48906 0.91059 0.0
C1460 C 0.44314 0.49509 0.93481 0.0
C1461 C 0.46207 0.49102 0.92618 0.0
C1462 C 0.46223 0.48056 0.89341 0.0
C1463 C 0.49046 0.45827 0.70094 0.0
C1464 C 0.51494 0.46938 0.71031 0.0
C1465 C 0.47276 0.45085 0.72728 0.0
C1466 C 0.47908 0.45353 0.76357 0.0
C1467 C 0.50364 0.46547 0.7728 0.0
C1468 C 0.52136 0.47377 0.74649 0.0
C1469 C 0.45999 0.4461 0.7912 0.0
C1470 C 0.46314 0.46218 0.8195 0.0
C1471 C 0.43648 0.42562 0.78622 0.0
C1472 C 0.43236 0.40407 0.76487 0.0
C1473 C 0.44843 0.39509 0.76774 0.0
C1474 C 0.44487 0.37505 0.74745 0.0
C1475 C 0.42524 0.36373 0.72418 0.0
C1476 C 0.40914 0.37242 0.72114 0.0
C1477 C 0.41262 0.39247 0.74134 0.0
H1478 H 0.42252 0.34822 0.70848 0.0
H1479 H 0.44274 0.50271 0.96038 0.0
H1480 H 0.96794 0.45827 0.99909 0.0
H1481 H 0.00623 0.46627 1.02398 0.0
H1482 H 0.96963 0.39874 1.08159 0.0
H1483 H 0.93159 0.39107 1.05688 0.0
H1484 H 0.98507 0.42623 0.12873 0.0
H1485 H 0.04026 0.42848 1.05388 0.0
H1486 H 0.06232 0.42837 1.00032 0.0
H1487 H 0.07839 0.50074 0.97643 0.0
H1488 H 0.05601 0.5012 1.02943 0.0
H1489 H 0.04997 0.56557 0.10788 0.0
H1490 H 0.04212 0.53333 0.14932 0.0
H1491 H -0.00905 0.48103 1.07577 0.0
H1492 H 0.00404 0.51224 1.03014 0.0
H1493 H 0.05665 0.50222 1.0915 0.0
H1494 H 0.96176 0.43039 0.1663 0.0
H1495 H 0.94526 0.43066 0.22461 0.0
H1496 H 0.00675 0.50036 0.24811 0.0
H1497 H 0.02519 0.49979 0.19143 0.0
C1498 C 0.96829 0.44484 1.01618 0.0
C1499 C 0.94676 0.42487 1.02775 0.0
C1500 C -0.00961 0.44906 1.03008 0.0
C1501 C -0.00896 0.43367 1.05649 0.0
C1502 C 0.96986 0.41146 1.06248 0.0
C1503 C 0.94791 0.40729 1.04871 0.0
C1504 C 0.00951 0.44452 1.08547 0.0
C1505 C 0.00014 0.44318 0.11994 0.0
C1506 C 0.03267 0.46451 1.07822 0.0
C1507 C 0.04641 0.46481 1.04605 0.0
C1508 C 0.04828 0.4443 1.03715 0.0
C1509 C 0.06093 0.44422 1.00686 0.0
C1510 C 0.07183 0.46459 0.98506 0.0
C1511 C 0.07009 0.48507 0.99353 0.0
C1512 C 0.0575 0.48527 1.02386 0.0
C1513 C 0.03726 0.5471 1.10019 0.0
C1514 C 0.02978 0.54095 1.06452 0.0
C1515 C 0.03224 0.52878 0.12453 0.0
C1516 C 0.01764 0.50458 0.11416 0.0
C1517 C 0.00387 0.49956 1.08284 0.0
C1518 C 0.01109 0.51741 1.05687 0.0
C1519 C 0.0247 0.48657 0.12399 0.0
C1520 C 0.04078 0.48546 1.09947 0.0
C1521 C 0.00702 0.46473 0.13931 0.0
C1522 C -0.0048 0.46505 0.17359 0.0
C1523 C 0.97236 0.44569 0.18371 0.0
C1524 C 0.96257 0.44583 0.2169 0.0
C1525 C 0.97487 0.46558 0.23993 0.0
C1526 C -0.00287 0.48513 0.23009 0.0
C1527 C 0.0074 0.48478 0.19745 0.0
H1528 H 0.96719 0.46578 0.26543 0.0
H1529 H 0.08159 0.46449 0.96158 0.0
H1530 H 0.04291 0.48011 0.48873 0.0
H1531 H 0.02351 0.4779 0.4323 0.0
H1532 H 0.00229 0.52799 0.47457 0.0
H1533 H 0.02695 0.53434 0.52687 0.0
H1534 H -0.01007 0.4663 0.39929 0.0
H1535 H -0.00793 0.56194 0.42268 0.0
H1536 H 0.02268 0.60169 0.44562 0.0
H1537 H 0.07785 0.58295 0.42996 0.0
H1538 H 0.04779 0.54316 0.40554 0.0
H1539 H 0.90601 0.43906 0.47065 0.0
H1540 H 0.92196 0.44908 0.41184 0.0
H1541 H 0.9564 0.5256 0.43927 0.0
H1542 H 0.93827 0.51501 0.49764 0.0
H1543 H 0.97281 0.53264 0.38014 0.0
H1544 H 0.95471 0.43028 0.39373 0.0
H1545 H 0.93046 0.39372 0.3575 0.0
H1546 H 0.91668 0.43541 0.28236 0.0
H1547 H 0.94013 0.47243 0.31867 0.0
C1548 C 0.03473 0.4911 0.48512 0.0
C1549 C 0.03755 0.50833 0.51078 0.0
C1550 C 0.02336 0.48973 0.453 0.0
C1551 C 0.01284 0.50422 0.4476 0.0
C1552 C 0.01222 0.51837 0.47621 0.0
C1553 C 0.02548 0.52133 0.50682 0.0
C1554 C 0.00078 0.50348 0.41365 0.0
C1555 C 0.98607 0.48093 0.39687 0.0
C1556 C -0.00139 0.52363 0.40249 0.0
C1557 C 0.01732 0.5491 0.4122 0.0
C1558 C 0.01069 0.56622 0.42316 0.0
C1559 C 0.02802 0.58885 0.43675 0.0
C1560 C 0.05214 0.59474 0.43962 0.0
C1561 C 0.0591 0.57822 0.42814 0.0
C1562 C 0.04191 0.55567 0.41418 0.0
C1563 C 0.91723 0.45809 0.46419 0.0
C1564 C 0.92138 0.47626 0.48918 0.0
C1565 C 0.92645 0.46397 0.42992 0.0
C1566 C 0.94174 0.4883 0.41991 0.0
C1567 C 0.94527 0.50654 0.44512 0.0
C1568 C 0.9353 0.50059 0.47924 0.0
C1569 C 0.95755 0.49413 0.38718 0.0
C1570 C 0.97673 0.5183 0.38571 0.0
C1571 C 0.96498 0.47703 0.3796 0.0
C1572 C 0.94963 0.45443 0.35883 0.0
C1573 C 0.94668 0.4319 0.36942 0.0
C1574 C 0.93272 0.41095 0.34907 0.0
C1575 C 0.9218 0.41224 0.3178 0.0
C1576 C 0.92462 0.43442 0.30704 0.0
C1577 C 0.9381 0.45538 0.32766 0.0
H1578 H 0.91123 0.39607 0.30182 0.0
H1579 H 0.06549 0.61222 0.45035 0.0
H1580 H 0.41569 0.93426 0.79372 0.0
H1581 H 0.44027 0.9472 0.74062 0.0
H1582 H 0.50263 0.96094 0.80304 0.0
H1583 H 0.47709 0.94453 0.85524 0.0
H1584 H 0.47012 0.9801 0.71075 0.0
H1585 H 0.54701 0.96031 0.76779 0.0
H1586 H 0.54757 0.92416 0.78888 0.0
H1587 H 0.47594 0.87828 0.74794 0.0
H1588 H 0.47507 0.91414 0.72577 0.0
H1589 H 0.56259 0.02409 0.82879 0.0
H1590 H 0.56031 0.00745 0.76994 0.0
H1591 H 0.51183 0.03316 0.7382 0.0
H1592 H 0.51467 0.04965 0.79728 0.0
H1593 H 0.54823 0.98285 0.71809 0.0
H1594 H 0.54786 0.03508 0.66326 0.0
H1595 H 0.54855 0.05793 0.61105 0.0
H1596 H 0.47109 0.02145 0.61034 0.0
H1597 H 0.46943 -0.00225 0.66176 0.0
C1598 C 0.43465 0.93982 0.79605 0.0
C1599 C 0.44433 0.93762 0.82845 0.0
C1600 C 0.44873 0.94722 0.76547 0.0
C1601 C 0.47319 0.95395 0.76697 0.0
C1602 C 0.48346 0.95428 0.8003 0.0
C1603 C 0.46907 0.94572 0.83061 0.0
C1604 C 0.48888 0.96338 0.73512 0.0
C1605 C 0.48693 0.9801 0.71286 0.0
C1606 C 0.51015 0.96165 0.73199 0.0
C1607 C 0.51103 0.94004 0.74476 0.0
C1608 C 0.53149 0.94256 0.76266 0.0
C1609 C 0.53182 0.92208 0.775 0.0
C1610 C 0.51183 0.89894 0.76968 0.0
C1611 C 0.49143 0.89622 0.75201 0.0
C1612 C 0.491 0.91663 0.73958 0.0
C1613 C 0.55056 0.02504 0.8095 0.0
C1614 C 0.5374 0.03654 0.81827 0.0
C1615 C 0.54972 0.0161 0.77525 0.0
C1616 C 0.53519 0.01793 0.74863 0.0
C1617 C 0.52268 0.0304 0.75755 0.0
C1618 C 0.52354 0.03924 0.79193 0.0
C1619 C 0.52975 0.00333 0.71446 0.0
C1620 C 0.53087 0.98197 0.71821 0.0
C1621 C 0.50824 -0.0012 0.69739 0.0
C1622 C 0.50856 0.01439 0.66757 0.0
C1623 C 0.53079 0.03183 0.65252 0.0
C1624 C 0.53137 0.04495 0.62262 0.0
C1625 C 0.5099 0.04121 0.60742 0.0
C1626 C 0.48775 0.02433 0.62215 0.0
C1627 C 0.487 0.01093 0.65183 0.0
H1628 H 0.51041 0.05137 0.58423 0.0
H1629 H 0.51212 0.88312 0.77932 0.0
H1630 H 0.50774 0.571 0.14086 0.0
H1631 H 0.51518 0.5564 1.08582 0.0
H1632 H 0.46521 0.48256 0.11721 0.0
H1633 H 0.45493 0.49777 0.17064 0.0
H1634 H 0.53595 0.5384 1.06689 0.0
H1635 H 0.44445 0.4392 1.04691 0.0
H1636 H 0.40147 0.42495 1.03778 0.0
H1637 H 0.4163 0.4985 1.03351 0.0
H1638 H 0.45952 0.51344 1.04244 0.0
H1639 H 0.48051 0.43994 0.15332 0.0
H1640 H 0.47805 0.44994 1.0926 0.0
H1641 H 0.55655 0.49061 1.08787 0.0
H1642 H 0.55823 0.47832 0.14686 0.0
H1643 H 0.48177 0.45515 1.02449 0.0
H1644 H 0.56284 0.55278 1.02196 0.0
H1645 H 0.60426 0.57031 1.00007 0.0
H1646 H 0.59988 0.50098 1.00701 0.0
H1647 H 0.55809 0.48253 1.02785 0.0
C1648 C 0.49807 0.55159 0.13598 0.0
C1649 C 0.48052 0.53551 0.15999 0.0
C1650 C 0.50243 0.54324 0.10427 0.0
C1651 C 0.49059 0.51835 1.0966 0.0
C1652 C 0.47399 0.50198 0.12158 0.0
C1653 C 0.46864 0.51054 0.15278 0.0
C1654 C 0.49827 0.50934 1.06549 0.0
C1655 C 0.5233 0.52008 1.05827 0.0
C1656 C 0.48237 0.48692 1.04808 0.0
C1657 C 0.45584 0.47768 1.04444 0.0
C1658 C 0.43891 0.45256 1.04347 0.0
C1659 C 0.41428 0.44426 1.03858 0.0
C1660 C 0.40616 0.4608 1.03478 0.0
C1661 C 0.42261 0.48568 1.03628 0.0
C1662 C 0.44723 0.49408 1.04124 0.0
C1663 C 0.49709 0.45087 0.13888 0.0
C1664 C 0.5194 0.45774 0.15447 0.0
C1665 C 0.49591 0.45662 1.10354 0.0
C1666 C 0.51723 0.47085 1.08335 0.0
C1667 C 0.53956 0.47893 1.10057 0.0
C1668 C 0.54061 0.47239 0.13533 0.0
C1669 C 0.51631 0.4804 1.04703 0.0
C1670 C 0.49282 0.47326 1.03528 0.0
C1671 C 0.53206 0.50561 1.04351 0.0
C1672 C 0.55721 0.51631 1.02891 0.0
C1673 C 0.57059 0.54112 1.01978 0.0
C1674 C 0.59422 0.55127 1.00692 0.0
C1675 C 0.6049 0.53692 1.00287 0.0
C1676 C 0.59176 0.51223 1.01083 0.0
C1677 C 0.56789 0.50184 1.02275 0.0
H1678 H 0.62324 0.54484 0.99305 0.0
H1679 H 0.3871 0.45432 1.03086 0.0
H1680 H 0.31508 0.94186 0.69794 0.0
H1681 H 0.3128 0.9676 0.65273 0.0
H1682 H 0.31127 0.01509 0.73405 0.0
H1683 H 0.31516 0.99013 0.77956 0.0
H1684 H 0.28733 0.98578 0.62977 0.0
H1685 H 0.34638 0.07267 0.70721 0.0
H1686 H 0.37437 0.08822 0.75837 0.0
H1687 H 0.39447 0.03399 0.73957 0.0
H1688 H 0.36669 0.01826 0.68826 0.0
H1689 H 0.34043 0.0617 0.48141 0.0
H1690 H 0.31962 0.05242 0.53871 0.0
H1691 H 0.3798 0.0503 0.58679 0.0
H1692 H 0.40126 0.06138 0.53081 0.0
H1693 H 0.36225 0.06631 0.633 0.0
H1694 H 0.32703 -0.00231 0.5468 0.0
H1695 H 0.30552 0.978 0.49116 0.0
H1696 H 0.24682 0.98894 0.52168 0.0
H1697 H 0.26813 0.00887 0.57738 0.0
C1698 C 0.31403 0.95765 0.70625 0.0
C1699 C 0.31601 0.96434 0.74222 0.0
C1700 C 0.31234 0.97219 0.68039 0.0
C1701 C 0.31232 0.99356 0.68998 0.0
C1702 C 0.31166 -0.00111 0.72606 0.0
C1703 C 0.31372 0.9845 0.75204 0.0
C1704 C 0.31703 0.01164 0.66209 0.0
C1705 C 0.30338 0.00367 0.63069 0.0
C1706 C 0.33787 0.03507 0.66329 0.0
C1707 C 0.35423 0.0441 0.6944 0.0
C1708 C 0.35673 0.06405 0.71414 0.0
C1709 C 0.37256 0.0729 0.7431 0.0
C1710 C 0.3861 0.06203 0.75231 0.0
C1711 C 0.38389 0.04232 0.73253 0.0
C1712 C 0.36809 0.03342 0.70355 0.0
C1713 C 0.34948 0.05995 0.50447 0.0
C1714 C 0.37227 0.06168 0.50141 0.0
C1715 C 0.33748 0.05448 0.53714 0.0
C1716 C 0.3479 0.05017 0.56693 0.0
C1717 C 0.37129 0.05348 0.56426 0.0
C1718 C 0.38341 0.05938 0.53199 0.0
C1719 C 0.33396 0.03934 0.59983 0.0
C1720 C 0.34549 0.04899 0.63245 0.0
C1721 C 0.31198 0.01686 0.59926 0.0
C1722 C 0.29926 0.00502 0.56587 0.0
C1723 C 0.30958 -0.00402 0.54149 0.0
C1724 C 0.29744 0.98479 0.50999 0.0
C1725 C 0.27486 0.9823 0.50283 0.0
C1726 C 0.26434 0.99095 0.52721 0.0
C1727 C 0.27644 0.00221 0.55872 0.0
H1728 H 0.26547 0.97361 0.47844 0.0
H1729 H 0.39837 0.06892 0.77471 0.0
H1730 H 0.33475 0.34461 1.09744 0.0
H1731 H 0.31317 0.34057 1.04259 0.0
H1732 H 0.34738 0.30404 0.99335 0.0
H1733 H 0.36807 0.30673 1.04895 0.0
H1734 H 0.34165 0.36615 0.99026 0.0
H1735 H 0.31845 0.27661 0.91545 0.0
H1736 H 0.3007 0.23301 0.92823 0.0
H1737 H 0.26245 0.2401 1.01723 0.0
H1738 H 0.27966 0.28364 1.00472 0.0
H1739 H 0.34488 0.35812 0.79319 0.0
H1740 H 0.3391 0.3361 0.84891 0.0
H1741 H 0.29434 0.36404 0.88876 0.0
H1742 H 0.3003 0.38623 0.83354 0.0
H1743 H 0.30018 0.30334 0.8966 0.0
H1744 H 0.32048 0.39244 0.96663 0.0
H1745 H 0.33847 0.43587 0.95197 0.0
H1746 H 0.38363 0.42891 0.87354 0.0
H1747 H 0.36656 0.38583 0.88856 0.0
C1748 C 0.3368 0.33458 1.07566 0.0
C1749 C 0.35364 0.32652 1.07736 0.0
C1750 C 0.32451 0.33243 1.04414 0.0
C1751 C 0.32896 0.32237 1.01375 0.0
C1752 C 0.3436 0.31182 1.01649 0.0
C1753 C 0.35569 0.31369 1.04819 0.0
C1754 C 0.32286 0.32771 0.97838 0.0
C1755 C 0.33198 0.35227 0.97018 0.0
C1756 C 0.31116 0.30974 0.9517 0.0
C1757 C 0.30054 0.28348 0.95929 0.0
C1758 C 0.30616 0.26886 0.93766 0.0
C1759 C 0.29621 0.24415 0.94487 0.0
C1760 C 0.28051 0.23381 0.97358 0.0
C1761 C 0.27469 0.24815 0.99508 0.0
C1762 C 0.28458 0.27286 0.98798 0.0
C1763 C 0.33328 0.35894 0.81354 0.0
C1764 C 0.32342 0.37416 0.80965 0.0
C1765 C 0.32984 0.34625 0.84512 0.0
C1766 C 0.3165 0.3487 0.8729 0.0
C1767 C 0.30479 0.36208 0.86761 0.0
C1768 C 0.3084 0.3749 0.83632 0.0
C1769 C 0.31869 0.34153 0.90919 0.0
C1770 C 0.30928 0.31693 0.91722 0.0
C1771 C 0.33035 0.35942 0.93591 0.0
C1772 C 0.34193 0.3858 0.92834 0.0
C1773 C 0.33442 0.40027 0.94652 0.0
C1774 C 0.34449 0.42485 0.93817 0.0
C1775 C 0.36211 0.43514 0.91173 0.0
C1776 C 0.36999 0.42099 0.89399 0.0
C1777 C 0.36014 0.39649 0.90245 0.0
H1778 H 0.3696 0.45407 0.90498 0.0
H1779 H 0.27283 0.21468 0.97912 0.0
H1780 H 0.00527 0.39365 1.07177 0.0
H1781 H 0.03688 0.41125 0.11664 0.0
H1782 H 0.01072 0.3401 0.1612 0.0
H1783 H 0.98023 0.32229 0.11484 0.0
H1784 H 0.02485 0.41211 0.18008 0.0
H1785 H 0.04767 0.33675 0.21809 0.0
H1786 H 0.05839 0.3089 0.18792 0.0
H1787 H 0.08443 0.35621 1.09799 0.0
H1788 H 0.07421 0.38455 0.12779 0.0
H1789 H 0.04101 0.37736 0.36267 0.0
H1790 H 0.03891 0.3695 0.29875 0.0
H1791 H 0.08307 0.44637 0.27964 0.0
H1792 H 0.08523 0.45437 0.34356 0.0
H1793 H 0.07095 0.37976 0.24222 0.0
H1794 H 0.05765 0.45968 0.21253 0.0
H1795 H 0.04685 0.48713 0.24402 0.0
H1796 H 0.0008 0.42952 0.3144 0.0
H1797 H 0.01149 0.40181 0.28348 0.0
C1798 C 0.00703 0.38158 1.08991 0.0
C1799 C -0.01011 0.35664 1.09012 0.0
C1800 C 0.02504 0.39172 0.11582 0.0
C1801 C 0.02614 0.37711 0.14257 0.0
C1802 C 0.01057 0.35184 0.1407 0.0
C1803 C -0.00718 0.34166 0.11441 0.0
C1804 C 0.03985 0.38837 0.17571 0.0
C1805 C 0.03562 0.40556 0.193 0.0
C1806 C 0.05353 0.37958 0.19311 0.0
C1807 C 0.06008 0.36277 0.17519 0.0
C1808 C 0.05586 0.34134 0.19199 0.0
C1809 C 0.0618 0.32542 0.17491 0.0
C1810 C 0.07205 0.33077 0.14104 0.0
C1811 C 0.07643 0.35206 0.1242 0.0
C1812 C 0.07053 0.36804 0.14115 0.0
C1813 C 0.05072 0.39252 0.3449 0.0
C1814 C 0.06294 0.41648 0.35798 0.0
C1815 C 0.04958 0.38802 0.30843 0.0
C1816 C 0.06063 0.40738 0.28456 0.0
C1817 C 0.07422 0.43121 0.29768 0.0
C1818 C 0.07527 0.43574 0.33411 0.0
C1819 C 0.05525 0.40272 0.24626 0.0
C1820 C 0.06093 0.3868 0.22836 0.0
C1821 C 0.04289 0.41262 0.22812 0.0
C1822 C 0.03562 0.42882 0.246 0.0
C1823 C 0.04519 0.45289 0.23468 0.0
C1824 C 0.03915 0.46849 0.25249 0.0
C1825 C 0.02326 0.46011 0.2813 0.0
C1826 C 0.01323 0.43604 0.29222 0.0
C1827 C 0.01933 0.4204 0.27464 0.0
H1828 H 0.01863 0.47223 0.29508 0.0
H1829 H 0.07662 0.31841 0.12786 0.0
H1830 H 0.63801 -0.00202 0.7421 0.0
H1831 H 0.64353 0.98055 0.68744 0.0
H1832 H 0.68555 0.05235 0.64346 0.0
H1833 H 0.67961 0.06987 0.69813 0.0
H1834 H 0.65153 0.02451 0.59986 0.0
H1835 H 0.7114 0.01634 0.66177 0.0
H1836 H 0.72953 0.00594 0.71134 0.0
H1837 H 0.67514 0.93076 0.70053 0.0
H1838 H 0.65644 0.94073 0.65123 0.0
H1839 H 0.64592 0.96552 0.44179 0.0
H1840 H 0.66941 0.98881 0.49344 0.0
H1841 H 0.62199 0.92995 0.56189 0.0
H1842 H 0.59874 0.90634 0.51031 0.0
H1843 H 0.66979 0.95755 0.58872 0.0
H1844 H 0.60596 0.96825 0.53686 0.0
H1845 H 0.58786 0.97757 0.48626 0.0
H1846 H 0.6499 0.04916 0.48022 0.0
H1847 H 0.66904 0.03976 0.52972 0.0
C1848 C 0.64892 0.01008 0.72111 0.0
C1849 C 0.65832 0.03525 0.72424 0.0
C1850 C 0.65219 0.00012 0.68991 0.0
C1851 C 0.66525 0.01516 0.66147 0.0
C1852 C 0.67548 0.04042 0.66511 0.0
C1853 C 0.672 0.05038 0.69622 0.0
C1854 C 0.66542 0.00421 0.62665 0.0
C1855 C 0.65628 0.01041 0.59723 0.0
C1856 C 0.6712 0.9855 0.6233 0.0
C1857 C 0.68245 0.97933 0.65283 0.0
C1858 C 0.7032 -0.0024 0.67008 0.0
C1859 C 0.7136 0.99178 0.69813 0.0
C1860 C 0.70349 0.96771 0.7091 0.0
C1861 C 0.68297 0.9494 0.69199 0.0
C1862 C 0.67249 0.95512 0.66394 0.0
C1863 C 0.64112 0.95712 0.46767 0.0
C1864 C 0.6202 0.93435 0.47221 0.0
C1865 C 0.65456 0.97046 0.49714 0.0
C1866 C 0.64712 0.96123 0.53142 0.0
C1867 C 0.62795 0.9374 0.53562 0.0
C1868 C 0.61451 0.92406 0.5062 0.0
C1869 C 0.65556 0.97765 0.56264 0.0
C1870 C 0.666 0.97231 0.59128 0.0
C1871 C 0.65098 -0.00281 0.56545 0.0
C1872 C 0.63911 0.00316 0.53659 0.0
C1873 C 0.61588 0.98589 0.52452 0.0
C1874 C 0.60545 0.99117 0.49597 0.0
C1875 C 0.61767 0.01396 0.48003 0.0
C1876 C 0.64046 0.03149 0.49254 0.0
C1877 C 0.65119 0.02614 0.52069 0.0
H1878 H 0.60949 0.01804 0.45802 0.0
H1879 H 0.71156 0.96324 0.73083 0.0
H1880 H 0.60601 0.68974 1.05788 0.0
H1881 H 0.62326 0.68187 1.00487 0.0
H1882 H 0.64847 0.64275 1.06778 0.0
H1883 H 0.63108 0.65016 0.12068 0.0
H1884 H 0.67563 0.66973 0.99397 0.0
H1885 H 0.59953 0.60075 1.04765 0.0
H1886 H 0.5617 0.58853 1.08062 0.0
H1887 H 0.54192 0.62586 1.00534 0.0
H1888 H 0.57956 0.63802 0.97175 0.0
H1889 H 0.61381 0.5563 0.86585 0.0
H1890 H 0.61831 0.57534 0.92423 0.0
H1891 H 0.65171 0.64592 0.8754 0.0
H1892 H 0.6471 0.62711 0.81711 0.0
H1893 H 0.59849 0.6016 0.94697 0.0
H1894 H 0.69377 0.68786 0.93162 0.0
H1895 H 0.73279 0.69947 0.90284 0.0
H1896 H 0.71664 0.62538 0.9057 0.0
H1897 H 0.67771 0.61338 0.93497 0.0
C1898 C 0.61622 0.68047 1.06066 0.0
C1899 C 0.61669 0.67005 1.09314 0.0
C1900 C 0.62623 0.67618 1.03047 0.0
C1901 C 0.63681 0.66154 1.03265 0.0
C1902 C 0.64049 0.65423 1.06583 0.0
C1903 C 0.63047 0.65849 1.09605 0.0
C1904 C 0.63713 0.64819 1.00088 0.0
C1905 C 0.65889 0.65492 0.98338 0.0
C1906 C 0.6153 0.62837 0.98826 0.0
C1907 C 0.59217 0.62013 1.0072 0.0
C1908 C 0.58698 0.60617 1.03806 0.0
C1909 C 0.56561 0.59927 1.05683 0.0
C1910 C 0.54938 0.60636 1.04503 0.0
C1911 C 0.5545 0.62036 1.01442 0.0
C1912 C 0.57576 0.62711 0.99537 0.0
C1913 C 0.62209 0.57587 0.86758 0.0
C1914 C 0.63016 0.59024 0.83692 0.0
C1915 C 0.62474 0.5867 0.9009 0.0
C1916 C 0.63561 0.61201 0.90404 0.0
C1917 C 0.64376 0.62638 0.87355 0.0
C1918 C 0.64111 0.61561 0.84028 0.0
C1919 C 0.63706 0.62346 0.93885 0.0
C1920 C 0.61543 0.61631 0.95724 0.0
C1921 C 0.65918 0.64259 0.95246 0.0
C1922 C 0.68271 0.6497 0.93522 0.0
C1923 C 0.69859 0.67406 0.92626 0.0
C1924 C 0.72069 0.68071 0.90983 0.0
C1925 C 0.72715 0.66317 0.90235 0.0
C1926 C 0.71157 0.63894 0.91138 0.0
C1927 C 0.68947 0.6322 0.92784 0.0
H1928 H 0.74426 0.66835 0.88961 0.0
H1929 H 0.53287 0.60108 1.05965 0.0
H1930 H 0.10812 0.71295 0.1773 0.0
H1931 H 0.099 0.71137 0.24054 0.0
H1932 H 0.02471 0.68807 0.21588 0.0
H1933 H 0.03309 0.68816 0.15315 0.0
H1934 H 0.04665 0.71442 0.28989 0.0
H1935 H 0.0224 0.63867 0.21502 0.0
H1936 H 0.0332 0.6202 0.16549 0.0
H1937 H 0.10264 0.6442 0.21305 0.0
H1938 H 0.09207 0.66258 0.26299 0.0
H1939 H 0.9601 0.59002 0.36176 0.0
H1940 H -0.01207 0.61692 0.31701 0.0
H1941 H 0.03589 0.66398 0.399 0.0
H1942 H 0.0085 0.6366 0.44434 0.0
H1943 H 0.03591 0.63199 0.30389 0.0
H1944 H 0.05661 0.72395 0.36378 0.0
H1945 H 0.03893 0.74071 0.40594 0.0
H1946 H 0.96777 0.68158 0.38229 0.0
H1947 H 0.98499 0.66471 0.33967 0.0
C1948 C 0.09001 0.70832 0.18524 0.0
C1949 C 0.07112 0.6996 0.16017 0.0
C1950 C 0.08496 0.70783 0.22141 0.0
C1951 C 0.06112 0.69922 0.23266 0.0
C1952 C 0.04324 0.69483 0.20757 0.0
C1953 C 0.04814 0.69485 0.17148 0.0
C1954 C 0.05324 0.68711 0.26722 0.0
C1955 C 0.04494 0.69674 0.29366 0.0
C1956 C 0.05033 0.66374 0.27137 0.0
C1957 C 0.05647 0.65188 0.24255 0.0
C1958 C 0.03988 0.63977 0.21497 0.0
C1959 C 0.04593 0.62932 0.18689 0.0
C1960 C 0.06849 0.63082 0.18628 0.0
C1961 C 0.08506 0.64278 0.21376 0.0
C1962 C 0.07905 0.6532 0.24197 0.0
C1963 C 0.97678 0.60575 0.37045 0.0
C1964 C 0.98198 0.61116 0.4067 0.0
C1965 C -0.00739 0.62119 0.3448 0.0
C1966 C 0.01379 0.64247 0.35483 0.0
C1967 C 0.01945 0.64774 0.39087 0.0
C1968 C 0.0037 0.63215 0.41664 0.0
C1969 C 0.02934 0.65925 0.32706 0.0
C1970 C 0.03879 0.65024 0.30143 0.0
C1971 C 0.03273 0.68291 0.32355 0.0
C1972 C 0.02215 0.69288 0.34903 0.0
C1973 C 0.0372 0.71454 0.36762 0.0
C1974 C 0.02726 0.72407 0.39155 0.0
C1975 C 0.00226 0.71215 0.39693 0.0
C1976 C 0.98714 0.69073 0.37826 0.0
C1977 C -0.00301 0.68115 0.35427 0.0
H1978 H -0.0054 0.71956 0.41546 0.0
H1979 H 0.07315 0.6229 0.1643 0.0
H1980 H 0.54817 0.13797 0.446 0.0
H1981 H 0.56036 0.13706 0.50697 0.0
H1982 H 0.4877 0.08111 0.53145 0.0
H1983 H 0.47522 0.08331 0.4708 0.0
H1984 H 0.49973 0.09951 0.58834 0.0
H1985 H 0.55121 0.07348 0.53032 0.0
H1986 H 0.58152 0.07433 0.48867 0.0
H1987 H 0.63011 0.14919 0.51474 0.0
H1988 H 0.60064 0.14838 0.55817 0.0
H1989 H 0.55304 0.12434 0.76329 0.0
H1990 H 0.54091 0.12578 0.70222 0.0
H1991 H 0.57436 0.08505 0.66684 0.0
H1992 H 0.58693 0.08401 0.72813 0.0
H1993 H 0.58098 0.11222 0.61581 0.0
H1994 H 0.49506 0.12054 0.64369 0.0
H1995 H 0.46229 0.10685 0.68783 0.0
H1996 H 0.47622 0.05072 0.72154 0.0
H1997 H 0.50886 0.06391 0.67757 0.0
C1998 C 0.53465 0.12523 0.46404 0.0
C1999 C 0.51058 0.11034 0.45178 0.0
C2000 C 0.54185 0.12442 0.4997 0.0
C2001 C 0.5256 0.10828 0.52557 0.0
C2002 C 0.50132 0.09383 0.51347 0.0
C2003 C 0.49402 0.095 0.47793 0.0
C2004 C 0.53351 0.10704 0.56469 0.0
C2005 C 0.51765 0.10251 0.59385 0.0
C2006 C 0.55652 0.10992 0.57411 0.0
C2007 C 0.5736 0.11103 0.54677 0.0
C2008 C 0.56827 0.09017 0.52685 0.0
C2009 C 0.58535 0.09059 0.50315 0.0
C2010 C 0.60749 0.1119 0.49847 0.0
C2011 C 0.61286 0.13274 0.51813 0.0
C2012 C 0.59611 0.13225 0.5426 0.0
C2013 C 0.55801 0.11568 0.74269 0.0
C2014 C 0.57135 0.10416 0.75185 0.0
C2015 C 0.55071 0.11631 0.70711 0.0
C2016 C 0.55594 0.10514 0.6783 0.0
C2017 C 0.56961 0.09391 0.6874 0.0
C2018 C 0.57699 0.09333 0.72308 0.0
C2019 C 0.54747 0.10534 0.63938 0.0
C2020 C 0.56318 0.10961 0.61034 0.0
C2021 C 0.52391 0.10108 0.63011 0.0
C2022 C 0.50458 0.09335 0.65731 0.0
C2023 C 0.49111 0.10524 0.66045 0.0
C2024 C 0.47254 0.09758 0.6855 0.0
C2025 C 0.46718 0.07795 0.70751 0.0
C2026 C 0.48039 0.06595 0.70454 0.0
C2027 C 0.49895 0.07354 0.67953 0.0
H2028 H 0.45278 0.07203 0.72684 0.0
H2029 H 0.62058 0.11218 0.47987 0.0
H2030 H 0.42907 0.56286 0.77606 0.0
H2031 H 0.44051 0.57228 0.83868 0.0
H2032 H 0.38664 0.49947 0.86677 0.0
H2033 H 0.37554 0.48974 0.80375 0.0
H2034 H 0.45907 0.55452 0.88943 0.0
H2035 H 0.38469 0.55846 0.88076 0.0
H2036 H 0.34138 0.54051 0.86625 0.0
H2037 H 0.32394 0.48146 0.93709 0.0
H2038 H 0.36718 0.49899 0.95179 0.0
H2039 H 0.48991 0.60503 1.06766 0.0
H2040 H 0.47974 0.59493 1.00471 0.0
H2041 H 0.40995 0.53543 1.03446 0.0
H2042 H 0.41953 0.54671 1.09675 0.0
H2043 H 0.39928 0.54502 0.98094 0.0
H2044 H 0.46788 0.53759 0.99531 0.0
H2045 H 0.50876 0.54401 1.0054 0.0
H2046 H 0.5368 0.59805 0.92404 0.0
H2047 H 0.49601 0.59203 0.91382 0.0
C2048 C 0.41938 0.54872 0.79536 0.0
C2049 C 0.4009 0.52548 0.78381 0.0
C2050 C 0.42619 0.55418 0.83169 0.0
C2051 C 0.41459 0.5369 0.85878 0.0
C2052 C 0.39605 0.5136 0.84737 0.0
C2053 C 0.38954 0.50796 0.81082 0.0
C2054 C 0.42184 0.54347 0.89834 0.0
C2055 C 0.44608 0.5529 0.90937 0.0
C2056 C 0.40505 0.54022 0.92562 0.0
C2057 C 0.37911 0.52999 0.91728 0.0
C2058 C 0.3716 0.54163 0.89317 0.0
C2059 C 0.34708 0.53153 0.88492 0.0
C2060 C 0.32992 0.50986 0.90073 0.0
C2061 C 0.33724 0.49827 0.9249 0.0
C2062 C 0.36173 0.5083 0.93326 0.0
C2063 C 0.47226 0.5899 1.06089 0.0
C2064 C 0.45559 0.57708 1.08837 0.0
C2065 C 0.46643 0.58372 1.02422 0.0
C2066 C 0.4439 0.56379 1.0129 0.0
C2067 C 0.42741 0.55099 1.04069 0.0
C2068 C 0.433 0.55752 1.07713 0.0
C2069 C 0.43703 0.55656 0.97301 0.0
C2070 C 0.41272 0.54697 0.96162 0.0
C2071 C 0.45375 0.55872 0.9457 0.0
C2072 C 0.47878 0.56435 0.95405 0.0
C2073 C 0.48279 0.55102 0.97996 0.0
C2074 C 0.50593 0.55451 0.98555 0.0
C2075 C 0.52534 0.57127 0.96516 0.0
C2076 C 0.52169 0.58492 0.93964 0.0
C2077 C 0.49854 0.58149 0.93402 0.0
H2078 H 0.54321 0.57379 0.96928 0.0
H2079 H 0.31095 0.50206 0.89427 0.0
H2080 H 0.86663 0.43163 0.11772 0.0
H2081 H 0.8653 0.44325 0.17957 0.0
H2082 H 0.88184 0.38912 0.21502 0.0
H2083 H 0.88342 0.37755 0.15285 0.0
H2084 H 0.84765 0.38851 0.25866 0.0
H2085 H 0.92245 0.45161 0.2152 0.0
H2086 H 0.95116 0.48536 0.17756 0.0
H2087 H 0.91671 0.52622 0.20622 0.0
H2088 H 0.88776 0.49258 0.24391 0.0
H2089 H 0.86261 0.423 0.4427 0.0
H2090 H 0.86538 0.41205 0.38148 0.0
H2091 H 0.87511 0.48075 0.34667 0.0
H2092 H 0.87561 0.49284 0.40874 0.0
H2093 H 0.89535 0.47369 0.3008 0.0
H2094 H 0.81691 0.41034 0.33722 0.0
H2095 H 0.78691 0.37686 0.37416 0.0
H2096 H 0.82396 0.33705 0.35635 0.0
H2097 H 0.85431 0.37041 0.31957 0.0
C2098 C 0.87003 0.42205 0.13846 0.0
C2099 C 0.87513 0.40341 0.12917 0.0
C2100 C 0.86936 0.4289 0.17441 0.0
C2101 C 0.87357 0.41742 0.20331 0.0
C2102 C 0.8784 0.39858 0.19413 0.0
C2103 C 0.87938 0.3919 0.15806 0.0
C2104 C 0.87285 0.42489 0.24252 0.0
C2105 C 0.85832 0.40719 0.26771 0.0
C2106 C 0.88585 0.44936 0.25545 0.0
C2107 C 0.90283 0.46944 0.23217 0.0
C2108 C 0.92095 0.46772 0.21331 0.0
C2109 C 0.93728 0.48685 0.192 0.0
C2110 C 0.93573 0.50791 0.18942 0.0
C2111 C 0.91787 0.50987 0.2082 0.0
C2112 C 0.90151 0.49077 0.22958 0.0
C2113 C 0.86514 0.43582 0.4221 0.0
C2114 C 0.86851 0.45887 0.43173 0.0
C2115 C 0.86635 0.42928 0.38615 0.0
C2116 C 0.86936 0.44473 0.35717 0.0
C2117 C 0.87262 0.46782 0.36703 0.0
C2118 C 0.87261 0.47481 0.40319 0.0
C2119 C 0.86969 0.43733 0.31743 0.0
C2120 C 0.88422 0.45505 0.29196 0.0
C2121 C 0.8561 0.41295 0.30389 0.0
C2122 C 0.83796 0.39293 0.32594 0.0
C2123 C 0.81869 0.39448 0.34133 0.0
C2124 C 0.80164 0.37553 0.36222 0.0
C2125 C 0.80356 0.35487 0.36767 0.0
C2126 C 0.82251 0.35308 0.35214 0.0
C2127 C 0.83963 0.37198 0.33124 0.0
H2128 H 0.79035 0.34023 0.38386 0.0
H2129 H 0.94838 0.52273 0.17293 0.0
H2130 H 0.4957 0.88026 0.48032 0.0
H2131 H 0.48307 0.87968 0.54246 0.0
H2132 H 0.41833 0.87776 0.50635 0.0
H2133 H 0.43065 0.87802 0.44478 0.0
H2134 H 0.43364 0.90741 0.56104 0.0
H2135 H 0.42092 0.82655 0.54595 0.0
H2136 H 0.43295 0.79611 0.53203 0.0
H2137 H 0.48663 0.82558 0.61444 0.0
H2138 H 0.4751 0.85638 0.62857 0.0
H2139 H 0.37152 0.88441 0.72918 0.0
H2140 H 0.38453 0.88369 0.66815 0.0
H2141 H 0.44065 0.8713 0.70723 0.0
H2142 H 0.42665 0.87056 0.76807 0.0
H2143 H 0.43164 0.85015 0.65085 0.0
H2144 H 0.44385 0.93049 0.66808 0.0
H2145 H 0.43187 0.96101 0.68201 0.0
H2146 H 0.38172 0.93505 0.59511 0.0
H2147 H 0.39257 0.90374 0.58138 0.0
C2148 C 0.47862 0.87945 0.4854 0.0
C2149 C 0.46431 0.87892 0.45633 0.0
C2150 C 0.47122 0.87902 0.5215 0.0
C2151 C 0.44927 0.8784 0.53056 0.0
C2152 C 0.43525 0.8782 0.50143 0.0
C2153 C 0.44242 0.87825 0.46555 0.0
C2154 C 0.44093 0.87836 0.56957 0.0
C2155 C 0.43302 0.89461 0.5804 0.0
C2156 C 0.44043 0.86242 0.59642 0.0
C2157 C 0.44732 0.84391 0.58806 0.0
C2158 C 0.4354 0.82663 0.56093 0.0
C2159 C 0.44211 0.80931 0.55303 0.0
C2160 C 0.46059 0.80896 0.57227 0.0
C2161 C 0.47235 0.8259 0.59952 0.0
C2162 C 0.46572 0.84328 0.6075 0.0
C2163 C 0.38659 0.88139 0.725 0.0
C2164 C 0.39766 0.87739 0.75467 0.0
C2165 C 0.39448 0.88136 0.68943 0.0
C2166 C 0.41456 0.87827 0.68134 0.0
C2167 C 0.42536 0.87395 0.71116 0.0
C2168 C 0.41717 0.87349 0.74665 0.0
C2169 C 0.42408 0.87919 0.64264 0.0
C2170 C 0.43229 0.8631 0.63178 0.0
C2171 C 0.42512 0.89553 0.61583 0.0
C2172 C 0.41886 0.91459 0.6239 0.0
C2173 C 0.43016 0.93118 0.65204 0.0
C2174 C 0.42358 0.94861 0.65992 0.0
C2175 C 0.40617 0.95003 0.6394 0.0
C2176 C 0.39521 0.93394 0.611 0.0
C2177 C 0.40149 0.91628 0.60323 0.0
H2178 H 0.40117 0.96358 0.64554 0.0
H2179 H 0.46576 0.79553 0.56612 0.0
H2180 H 0.5436 0.42156 0.77873 0.0
H2181 H 0.53495 0.41322 0.84222 0.0
H2182 H 0.5833 0.48877 0.8664 0.0
H2183 H 0.59159 0.4972 0.80289 0.0
H2184 H 0.55842 0.41463 0.90048 0.0
H2185 H 0.57222 0.50432 0.94664 0.0
H2186 H 0.57267 0.54109 0.92564 0.0
H2187 H 0.51943 0.49865 0.8471 0.0
H2188 H 0.51752 0.46118 0.86929 0.0
H2189 H 0.55555 0.41895 1.09539 0.0
H2190 H 0.56727 0.4298 1.03275 0.0
H2191 H 0.49709 0.42031 1.0104 0.0
H2192 H 0.48509 0.40877 1.072 0.0
H2193 H 0.53276 0.46193 0.97574 0.0
H2194 H 0.51276 0.37747 0.98419 0.0
H2195 H 0.51802 0.34499 1.01036 0.0
H2196 H 0.59291 0.38274 0.98034 0.0
H2197 H 0.58816 0.41558 0.95437 0.0
C2198 C 0.55255 0.43652 0.7974 0.0
C2199 C 0.56852 0.46017 0.78462 0.0
C2200 C 0.54752 0.43167 0.83427 0.0
C2201 C 0.55795 0.45021 0.86051 0.0
C2202 C 0.57423 0.47383 0.84776 0.0
C2203 C 0.57927 0.47869 0.81086 0.0
C2204 C 0.5518 0.44465 0.90051 0.0
C2205 C 0.55297 0.42524 0.91667 0.0
C2206 C 0.54481 0.45819 0.92322 0.0
C2207 C 0.54455 0.47997 0.91016 0.0
C2208 C 0.56008 0.50273 0.92569 0.0
C2209 C 0.56062 0.52365 0.91346 0.0
C2210 C 0.54586 0.52208 0.88518 0.0
C2211 C 0.5305 0.49958 0.86928 0.0
C2212 C 0.5296 0.4785 0.88184 0.0
C2213 C 0.54242 0.41888 1.07723 0.0
C2214 C 0.51911 0.4126 1.08992 0.0
C2215 C 0.54924 0.42526 1.04093 0.0
C2216 C 0.53323 0.42604 1.01554 0.0
C2217 C 0.51014 0.42008 1.02841 0.0
C2218 C 0.5032 0.41326 1.06428 0.0
C2219 C 0.53999 0.43232 0.97585 0.0
C2220 C 0.53858 0.45159 0.95966 0.0
C2221 C 0.54763 0.41927 0.9534 0.0
C2222 C 0.55016 0.39905 0.96763 0.0
C2223 C 0.53035 0.37885 0.98325 0.0
C2224 C 0.53324 0.36039 0.99805 0.0
C2225 C 0.55581 0.36188 0.99715 0.0
C2226 C 0.57546 0.38166 0.98108 0.0
C2227 C 0.57267 0.40017 0.96628 0.0
H2228 H 0.55812 0.34777 1.00899 0.0
H2229 H 0.54644 0.53831 0.87542 0.0
H2230 H 0.11673 0.57189 0.44744 0.0
H2231 H 0.11661 0.58419 0.38585 0.0
H2232 H 0.07976 0.50921 0.35281 0.0
H2233 H 0.08029 0.49701 0.41407 0.0
H2234 H 0.11168 0.53191 0.30506 0.0
H2235 H 0.04472 0.55814 0.32006 0.0
H2236 H 0.02861 0.58359 0.34344 0.0
H2237 H 0.10047 0.63964 0.37097 0.0
H2238 H 0.117 0.61488 0.3464 0.0
H2239 H 0.08813 0.54866 0.1225 0.0
H2240 H 0.08758 0.53766 0.18453 0.0
H2241 H 0.11232 0.61171 0.21606 0.0
H2242 H 0.11064 0.62211 0.1538 0.0
H2243 H 0.08711 0.59017 0.26493 0.0
H2244 H 0.14573 0.57269 0.21406 0.0
H2245 H 0.16135 0.55316 0.17337 0.0
H2246 H 0.1077 0.48288 0.21075 0.0
H2247 H 0.09173 0.50201 0.25149 0.0
C2248 C 0.10853 0.55787 0.42724 0.0
C2249 C 0.09871 0.53319 0.43702 0.0
C2250 C 0.10808 0.56502 0.39136 0.0
C2251 C 0.0977 0.54795 0.36302 0.0
C2252 C 0.08791 0.5233 0.37295 0.0
C2253 C 0.08826 0.51617 0.40871 0.0
C2254 C 0.09849 0.55528 0.32326 0.0
C2255 C 0.10603 0.54455 0.29666 0.0
C2256 C 0.09185 0.57224 0.31029 0.0
C2257 C 0.08198 0.58415 0.33309 0.0
C2258 C 0.05698 0.57558 0.33214 0.0
C2259 C 0.04783 0.59012 0.34478 0.0
C2260 C 0.0635 0.61321 0.35873 0.0
C2261 C 0.08833 0.62169 0.36038 0.0
C2262 C 0.0976 0.60739 0.34716 0.0
C2263 C 0.0936 0.56279 0.14249 0.0
C2264 C 0.09929 0.58644 0.13211 0.0
C2265 C 0.09357 0.55644 0.17872 0.0
C2266 C 0.10047 0.57368 0.20684 0.0
C2267 C 0.10662 0.5975 0.1962 0.0
C2268 C 0.10579 0.60364 0.16 0.0
C2269 C 0.10053 0.56705 0.24676 0.0
C2270 C 0.09297 0.57766 0.27326 0.0
C2271 C 0.10742 0.55022 0.25956 0.0
C2272 C 0.11721 0.53877 0.23531 0.0
C2273 C 0.13716 0.55307 0.21339 0.0
C2274 C 0.14611 0.54207 0.19037 0.0
C2275 C 0.13543 0.51679 0.18931 0.0
C2276 C 0.11587 0.50246 0.21143 0.0
C2277 C 0.10686 0.51337 0.23448 0.0
H2278 H 0.14238 0.50832 0.17145 0.0
H2279 H 0.05639 0.62447 0.36839 0.0
loop_
_geom_bond_atom_site_label_1
_geom_bond_atom_site_label_2
_geom_bond_distance
_geom_bond_site_symmetry_2
_ccdc_geom_bond_type
C0 Eu1 2.835 . S
C0 C2 1.500 . S
C0 O20 1.257 . S
C0 O21 1.260 . S
Eu1 C0 2.835 . S
Eu1 O20 2.473 . S
Eu1 O21 2.480 . S
Eu1 O22 2.430 . S
Eu1 O23 2.670 . S
Eu1 O24 2.394 . S
Eu1 O29 2.355 . S
Eu1 O31 2.374 . S
C2 C0 1.500 . S
C2 C3 1.377 . S
C2 C7 1.377 . S
C3 C2 1.377 . S
C3 C4 1.395 . S
C3 H32 0.931 . S
C4 C3 1.395 . S
C4 C5 1.383 . S
C4 H33 0.931 . S
C5 C4 1.383 . S
C5 C6 1.394 . S
C6 C5 1.394 . S
C6 C7 1.378 . S
C6 H34 0.931 . S
C7 C2 1.377 . S
C7 C6 1.378 . S
C7 H35 0.931 . S
C8 O22 1.259 . S
C8 O23 1.270 . S
C9 O24 1.251 . S
C9 O25 1.251 . S
C10 Eu11 2.835 . S
C10 C12 1.500 . S
C10 O26 1.257 . S
C10 O27 1.260 . S
Eu11 C10 2.835 . S
Eu11 O23 2.355 . S
Eu11 O25 2.374 . S
Eu11 O26 2.473 . S
Eu11 O27 2.480 . S
Eu11 O28 2.430 . S
Eu11 O29 2.670 . S
Eu11 O30 2.394 . S
C12 C10 1.500 . S
C12 C13 1.377 . S
C12 C17 1.377 . S
C13 C12 1.377 . S
C13 C14 1.395 . S
C13 H36 0.931 . S
C14 C13 1.395 . S
C14 C15 1.383 . S
C14 H37 0.931 . S
C15 C14 1.383 . S
C15 C16 1.394 . S
C16 C15 1.394 . S
C16 C17 1.378 . S
C16 H38 0.931 . S
C17 C12 1.377 . S
C17 C16 1.378 . S
C17 H39 0.931 . S
C18 O28 1.259 . S
C18 O29 1.270 . S
C19 O30 1.251 . S
C19 O31 1.251 . S
O20 C0 1.257 . S
O20 Eu1 2.473 . S
O21 C0 1.260 . S
O21 Eu1 2.480 . S
O22 Eu1 2.430 . S
O22 C8 1.259 . S
O23 Eu1 2.670 . S
O23 C8 1.270 . S
O23 Eu11 2.355 . S
O24 Eu1 2.394 . S
O24 C9 1.251 . S
O25 C9 1.251 . S
O25 Eu11 2.374 . S
O26 C10 1.257 . S
O26 Eu11 2.473 . S
O27 C10 1.260 . S
O27 Eu11 2.480 . S
O28 Eu11 2.430 . S
O28 C18 1.259 . S
O29 Eu1 2.355 . S
O29 Eu11 2.670 . S
O29 C18 1.270 . S
O30 Eu11 2.394 . S
O30 C19 1.251 . S
O31 Eu1 2.374 . S
O31 C19 1.251 . S
H32 C3 0.931 . S
H33 C4 0.931 . S
H34 C6 0.931 . S
H35 C7 0.931 . S
H36 C13 0.931 . S
H37 C14 0.931 . S
H38 C16 0.931 . S
H39 C17 0.931 . S
C40 Eu41 2.835 . S
C40 C42 1.500 . S
C40 O60 1.257 . S
C40 O61 1.260 . S
Eu41 C40 2.835 . S
Eu41 O60 2.473 . S
Eu41 O61 2.480 . S
Eu41 O62 2.430 . S
Eu41 O63 2.670 . S
Eu41 O64 2.394 . S
Eu41 O69 2.355 . S
Eu41 O71 2.374 . S
C42 C40 1.500 . S
C42 C43 1.377 . S
C42 C47 1.377 . S
C43 C42 1.377 . S
C43 C44 1.395 . S
C43 H72 0.931 . S
C44 C43 1.395 . S
C44 C45 1.383 . S
C44 H73 0.931 . S
C45 C44 1.383 . S
C45 C46 1.394 . S
C46 C45 1.394 . S
C46 C47 1.378 . S
C46 H74 0.931 . S
C47 C42 1.377 . S
C47 C46 1.378 . S
C47 H75 0.931 . S
C48 O62 1.259 . S
C48 O63 1.270 . S
C49 O64 1.251 . S
C49 O65 1.251 . S
C50 Eu51 2.835 . S
C50 C52 1.500 . S
C50 O66 1.257 . S
C50 O67 1.260 . S
Eu51 C50 2.835 . S
Eu51 O63 2.355 . S
Eu51 O65 2.374 . S
Eu51 O66 2.473 . S
Eu51 O67 2.480 . S
Eu51 O68 2.430 . S
Eu51 O69 2.670 . S
Eu51 O70 2.394 . S
C52 C50 1.500 . S
C52 C53 1.377 . S
C52 C57 1.377 . S
C53 C52 1.377 . S
C53 C54 1.395 . S
C53 H76 0.931 . S
C54 C53 1.395 . S
C54 C55 1.383 . S
C54 H77 0.931 . S
C55 C54 1.383 . S
C55 C56 1.394 . S
C56 C55 1.394 . S
C56 C57 1.378 . S
C56 H78 0.931 . S
C57 C52 1.377 . S
C57 C56 1.378 . S
C57 H79 0.931 . S
C58 O68 1.259 . S
C58 O69 1.270 . S
C59 O70 1.251 . S
C59 O71 1.251 . S
O60 C40 1.257 . S
O60 Eu41 2.473 . S
O61 C40 1.260 . S
O61 Eu41 2.480 . S
O62 Eu41 2.430 . S
O62 C48 1.259 . S
O63 Eu41 2.670 . S
O63 C48 1.270 . S
O63 Eu51 2.355 . S
O64 Eu41 2.394 . S
O64 C49 1.251 . S
O65 C49 1.251 . S
O65 Eu51 2.374 . S
O66 C50 1.257 . S
O66 Eu51 2.473 . S
O67 C50 1.260 . S
O67 Eu51 2.480 . S
O68 Eu51 2.430 . S
O68 C58 1.259 . S
O69 Eu41 2.355 . S
O69 Eu51 2.670 . S
O69 C58 1.270 . S
O70 Eu51 2.394 . S
O70 C59 1.251 . S
O71 Eu41 2.374 . S
O71 C59 1.251 . S
H72 C43 0.931 . S
H73 C44 0.931 . S
H74 C46 0.931 . S
H75 C47 0.931 . S
H76 C53 0.931 . S
H77 C54 0.931 . S
H78 C56 0.931 . S
H79 C57 0.931 . S
C80 Eu81 2.835 . S
C80 C82 1.500 . S
C80 O100 1.257 . S
C80 O101 1.260 . S
Eu81 C80 2.835 . S
Eu81 O100 2.473 . S
Eu81 O101 2.480 . S
Eu81 O102 2.430 . S
Eu81 O103 2.670 . S
Eu81 O104 2.394 . S
Eu81 O109 2.355 . S
Eu81 O111 2.374 . S
C82 C80 1.500 . S
C82 C83 1.377 . S
C82 C87 1.377 . S
C83 C82 1.377 . S
C83 C84 1.395 . S
C83 H112 0.931 . S
C84 C83 1.395 . S
C84 C85 1.383 . S
C84 H113 0.931 . S
C85 C84 1.383 . S
C85 C86 1.394 . S
C86 C85 1.394 . S
C86 C87 1.378 . S
C86 H114 0.931 . S
C87 C82 1.377 . S
C87 C86 1.378 . S
C87 H115 0.931 . S
C88 O102 1.259 . S
C88 O103 1.270 . S
C89 O104 1.251 . S
C89 O105 1.251 . S
C90 Eu91 2.835 . S
C90 C92 1.500 1_556 S
C90 O106 1.257 . S
C90 O107 1.260 . S
Eu91 C90 2.835 . S
Eu91 O103 2.355 . S
Eu91 O105 2.374 . S
Eu91 O106 2.473 . S
Eu91 O107 2.480 . S
Eu91 O108 2.430 . S
Eu91 O109 2.670 . S
Eu91 O110 2.394 . S
C92 C90 1.500 1_554 S
C92 C93 1.377 . S
C92 C97 1.377 . S
C93 C92 1.377 . S
C93 C94 1.395 . S
C93 H116 0.931 . S
C94 C93 1.395 . S
C94 C95 1.383 . S
C94 H117 0.931 . S
C95 C94 1.383 . S
C95 C96 1.394 . S
C96 C95 1.394 . S
C96 C97 1.378 . S
C96 H118 0.931 . S
C97 C92 1.377 . S
C97 C96 1.378 . S
C97 H119 0.931 . S
C98 O108 1.259 . S
C98 O109 1.270 . S
C99 O110 1.251 . S
C99 O111 1.251 . S
O100 C80 1.257 . S
O100 Eu81 2.473 . S
O101 C80 1.260 . S
O101 Eu81 2.480 . S
O102 Eu81 2.430 . S
O102 C88 1.259 . S
O103 Eu81 2.670 . S
O103 C88 1.270 . S
O103 Eu91 2.355 . S
O104 Eu81 2.394 . S
O104 C89 1.251 . S
O105 C89 1.251 . S
O105 Eu91 2.374 . S
O106 C90 1.257 . S
O106 Eu91 2.473 . S
O107 C90 1.260 . S
O107 Eu91 2.480 . S
O108 Eu91 2.430 . S
O108 C98 1.259 . S
O109 Eu81 2.355 . S
O109 Eu91 2.670 . S
O109 C98 1.270 . S
O110 Eu91 2.394 . S
O110 C99 1.251 . S
O111 Eu81 2.374 . S
O111 C99 1.251 . S
H112 C83 0.931 . S
H113 C84 0.931 . S
H114 C86 0.931 . S
H115 C87 0.931 . S
H116 C93 0.931 . S
H117 C94 0.931 . S
H118 C96 0.931 . S
H119 C97 0.931 . S
C120 Eu121 2.835 . S
C120 C122 1.500 . S
C120 O140 1.257 . S
C120 O141 1.260 . S
Eu121 C120 2.835 . S
Eu121 O140 2.473 . S
Eu121 O141 2.480 . S
Eu121 O142 2.430 . S
Eu121 O143 2.670 . S
Eu121 O144 2.394 . S
Eu121 O149 2.355 . S
Eu121 O151 2.374 . S
C122 C120 1.500 . S
C122 C123 1.377 . S
C122 C127 1.377 . S
C123 C122 1.377 . S
C123 C124 1.395 . S
C123 H152 0.931 . S
C124 C123 1.395 . S
C124 C125 1.383 . S
C124 H153 0.931 . S
C125 C124 1.383 . S
C125 C126 1.394 . S
C126 C125 1.394 . S
C126 C127 1.378 . S
C126 H154 0.931 . S
C127 C122 1.377 . S
C127 C126 1.378 . S
C127 H155 0.931 . S
C128 O142 1.259 . S
C128 O143 1.270 . S
C129 O144 1.251 . S
C129 O145 1.251 . S
C130 Eu131 2.835 . S
C130 C132 1.500 . S
C130 O146 1.257 . S
C130 O147 1.260 . S
Eu131 C130 2.835 . S
Eu131 O143 2.355 . S
Eu131 O145 2.374 . S
Eu131 O146 2.473 . S
Eu131 O147 2.480 . S
Eu131 O148 2.430 . S
Eu131 O149 2.670 . S
Eu131 O150 2.394 . S
C132 C130 1.500 . S
C132 C133 1.377 . S
C132 C137 1.377 . S
C133 C132 1.377 . S
C133 C134 1.395 . S
C133 H156 0.931 . S
C134 C133 1.395 . S
C134 C135 1.383 . S
C134 H157 0.931 . S
C135 C134 1.383 . S
C135 C136 1.394 . S
C136 C135 1.394 . S
C136 C137 1.378 . S
C136 H158 0.931 . S
C137 C132 1.377 . S
C137 C136 1.378 . S
C137 H159 0.931 . S
C138 O148 1.259 . S
C138 O149 1.270 . S
C139 O150 1.251 . S
C139 O151 1.251 . S
O140 C120 1.257 . S
O140 Eu121 2.473 . S
O141 C120 1.260 . S
O141 Eu121 2.480 . S
O142 Eu121 2.430 . S
O142 C128 1.259 . S
O143 Eu121 2.670 . S
O143 C128 1.270 . S
O143 Eu131 2.355 . S
O144 Eu121 2.394 . S
O144 C129 1.251 . S
O145 C129 1.251 . S
O145 Eu131 2.374 . S
O146 C130 1.257 . S
O146 Eu131 2.473 . S
O147 C130 1.260 . S
O147 Eu131 2.480 . S
O148 Eu131 2.430 . S
O148 C138 1.259 . S
O149 Eu121 2.355 . S
O149 Eu131 2.670 . S
O149 C138 1.270 . S
O150 Eu131 2.394 . S
O150 C139 1.251 . S
O151 Eu121 2.374 . S
O151 C139 1.251 . S
H152 C123 0.931 . S
H153 C124 0.931 . S
H154 C126 0.931 . S
H155 C127 0.931 . S
H156 C133 0.931 . S
H157 C134 0.931 . S
H158 C136 0.931 . S
H159 C137 0.931 . S
C160 Eu161 2.835 . S
C160 C162 1.500 . S
C160 O180 1.257 . S
C160 O181 1.260 . S
Eu161 C160 2.835 . S
Eu161 O180 2.473 . S
Eu161 O181 2.480 . S
Eu161 O182 2.430 . S
Eu161 O183 2.670 . S
Eu161 O184 2.394 . S
Eu161 O189 2.355 . S
Eu161 O191 2.374 . S
C162 C160 1.500 . S
C162 C163 1.377 . S
C162 C167 1.377 . S
C163 C162 1.377 . S
C163 C164 1.395 . S
C163 H192 0.931 . S
C164 C163 1.395 . S
C164 C165 1.383 . S
C164 H193 0.931 . S
C165 C164 1.383 . S
C165 C166 1.394 . S
C166 C165 1.394 . S
C166 C167 1.378 . S
C166 H194 0.931 . S
C167 C162 1.377 . S
C167 C166 1.378 . S
C167 H195 0.931 . S
C168 O182 1.259 . S
C168 O183 1.270 . S
C169 O184 1.251 . S
C169 O185 1.251 . S
C170 Eu171 2.835 . S
C170 C172 1.500 . S
C170 O186 1.257 . S
C170 O187 1.260 . S
Eu171 C170 2.835 . S
Eu171 O183 2.355 . S
Eu171 O185 2.374 . S
Eu171 O186 2.473 . S
Eu171 O187 2.480 . S
Eu171 O188 2.430 . S
Eu171 O189 2.670 . S
Eu171 O190 2.394 . S
C172 C170 1.500 . S
C172 C173 1.377 . S
C172 C177 1.377 . S
C173 C172 1.377 . S
C173 C174 1.395 . S
C173 H196 0.931 . S
C174 C173 1.395 . S
C174 C175 1.383 . S
C174 H197 0.931 . S
C175 C174 1.383 . S
C175 C176 1.394 . S
C176 C175 1.394 . S
C176 C177 1.378 . S
C176 H198 0.931 . S
C177 C172 1.377 . S
C177 C176 1.378 . S
C177 H199 0.931 . S
C178 O188 1.259 . S
C178 O189 1.270 . S
C179 O190 1.251 . S
C179 O191 1.251 . S
O180 C160 1.257 . S
O180 Eu161 2.473 . S
O181 C160 1.260 . S
O181 Eu161 2.480 . S
O182 Eu161 2.430 . S
O182 C168 1.259 . S
O183 Eu161 2.670 . S
O183 C168 1.270 . S
O183 Eu171 2.355 . S
O184 Eu161 2.394 . S
O184 C169 1.251 . S
O185 C169 1.251 . S
O185 Eu171 2.374 . S
O186 C170 1.257 . S
O186 Eu171 2.473 . S
O187 C170 1.260 . S
O187 Eu171 2.480 . S
O188 Eu171 2.430 . S
O188 C178 1.259 . S
O189 Eu161 2.355 . S
O189 Eu171 2.670 . S
O189 C178 1.270 . S
O190 Eu171 2.394 . S
O190 C179 1.251 . S
O191 Eu161 2.374 . S
O191 C179 1.251 . S
H192 C163 0.931 . S
H193 C164 0.931 . S
H194 C166 0.931 . S
H195 C167 0.931 . S
H196 C173 0.931 . S
H197 C174 0.931 . S
H198 C176 0.931 . S
H199 C177 0.931 . S
C200 Eu201 2.835 . S
C200 C202 1.500 . S
C200 O220 1.257 . S
C200 O221 1.260 . S
Eu201 C200 2.835 . S
Eu201 O220 2.473 . S
Eu201 O221 2.480 . S
Eu201 O222 2.430 . S
Eu201 O223 2.670 . S
Eu201 O224 2.394 . S
Eu201 O229 2.355 . S
Eu201 O231 2.374 . S
C202 C200 1.500 . S
C202 C203 1.377 . S
C202 C207 1.377 . S
C203 C202 1.377 . S
C203 C204 1.395 . S
C203 H232 0.931 . S
C204 C203 1.395 . S
C204 C205 1.383 . S
C204 H233 0.931 . S
C205 C204 1.383 . S
C205 C206 1.394 . S
C206 C205 1.394 . S
C206 C207 1.378 . S
C206 H234 0.931 . S
C207 C202 1.377 . S
C207 C206 1.378 . S
C207 H235 0.931 . S
C208 O222 1.259 . S
C208 O223 1.270 . S
C209 O224 1.251 . S
C209 O225 1.251 . S
C210 Eu211 2.835 . S
C210 C212 1.500 1_556 S
C210 O226 1.257 . S
C210 O227 1.260 . S
Eu211 C210 2.835 . S
Eu211 O223 2.355 . S
Eu211 O225 2.374 . S
Eu211 O226 2.473 . S
Eu211 O227 2.480 . S
Eu211 O228 2.430 . S
Eu211 O229 2.670 . S
Eu211 O230 2.394 . S
C212 C210 1.500 1_554 S
C212 C213 1.377 . S
C212 C217 1.377 . S
C213 C212 1.377 . S
C213 C214 1.395 . S
C213 H236 0.931 . S
C214 C213 1.395 . S
C214 C215 1.383 . S
C214 H237 0.931 . S
C215 C214 1.383 . S
C215 C216 1.394 . S
C216 C215 1.394 . S
C216 C217 1.378 . S
C216 H238 0.931 . S
C217 C212 1.377 . S
C217 C216 1.378 . S
C217 H239 0.931 . S
C218 O228 1.259 . S
C218 O229 1.270 . S
C219 O230 1.251 . S
C219 O231 1.251 . S
O220 C200 1.257 . S
O220 Eu201 2.473 . S
O221 C200 1.260 . S
O221 Eu201 2.480 . S
O222 Eu201 2.430 . S
O222 C208 1.259 . S
O223 Eu201 2.670 . S
O223 C208 1.270 . S
O223 Eu211 2.355 . S
O224 Eu201 2.394 . S
O224 C209 1.251 . S
O225 C209 1.251 . S
O225 Eu211 2.374 . S
O226 C210 1.257 . S
O226 Eu211 2.473 . S
O227 C210 1.260 . S
O227 Eu211 2.480 . S
O228 Eu211 2.430 . S
O228 C218 1.259 . S
O229 Eu201 2.355 . S
O229 Eu211 2.670 . S
O229 C218 1.270 . S
O230 Eu211 2.394 . S
O230 C219 1.251 . S
O231 Eu201 2.374 . S
O231 C219 1.251 . S
H232 C203 0.931 . S
H233 C204 0.931 . S
H234 C206 0.931 . S
H235 C207 0.931 . S
H236 C213 0.931 . S
H237 C214 0.931 . S
H238 C216 0.931 . S
H239 C217 0.931 . S
C240 Eu241 2.835 . S
C240 C242 1.500 . S
C240 O260 1.257 . S
C240 O261 1.260 . S
Eu241 C240 2.835 . S
Eu241 O260 2.473 . S
Eu241 O261 2.480 . S
Eu241 O262 2.430 . S
Eu241 O263 2.670 . S
Eu241 O264 2.394 . S
Eu241 O269 2.355 . S
Eu241 O271 2.374 . S
C242 C240 1.500 . S
C242 C243 1.377 . S
C242 C247 1.377 . S
C243 C242 1.377 . S
C243 C244 1.395 . S
C243 H272 0.931 . S
C244 C243 1.395 . S
C244 C245 1.383 . S
C244 H273 0.931 . S
C245 C244 1.383 . S
C245 C246 1.394 . S
C246 C245 1.394 . S
C246 C247 1.378 . S
C246 H274 0.931 . S
C247 C242 1.377 . S
C247 C246 1.378 . S
C247 H275 0.931 . S
C248 O262 1.259 . S
C248 O263 1.270 . S
C249 O264 1.251 . S
C249 O265 1.251 . S
C250 Eu251 2.835 . S
C250 C252 1.500 . S
C250 O266 1.257 . S
C250 O267 1.260 . S
Eu251 C250 2.835 . S
Eu251 O263 2.355 . S
Eu251 O265 2.374 . S
Eu251 O266 2.473 . S
Eu251 O267 2.480 . S
Eu251 O268 2.430 . S
Eu251 O269 2.670 . S
Eu251 O270 2.394 . S
C252 C250 1.500 . S
C252 C253 1.377 . S
C252 C257 1.377 . S
C253 C252 1.377 . S
C253 C254 1.395 . S
C253 H276 0.931 . S
C254 C253 1.395 . S
C254 C255 1.383 . S
C254 H277 0.931 . S
C255 C254 1.383 . S
C255 C256 1.394 . S
C256 C255 1.394 . S
C256 C257 1.378 . S
C256 H278 0.931 . S
C257 C252 1.377 . S
C257 C256 1.378 . S
C257 H279 0.931 . S
C258 O268 1.259 . S
C258 O269 1.270 . S
C259 O270 1.251 . S
C259 O271 1.251 . S
O260 C240 1.257 . S
O260 Eu241 2.473 . S
O261 C240 1.260 . S
O261 Eu241 2.480 . S
O262 Eu241 2.430 . S
O262 C248 1.259 . S
O263 Eu241 2.670 . S
O263 C248 1.270 . S
O263 Eu251 2.355 . S
O264 Eu241 2.394 . S
O264 C249 1.251 . S
O265 C249 1.251 . S
O265 Eu251 2.374 . S
O266 C250 1.257 . S
O266 Eu251 2.473 . S
O267 C250 1.260 . S
O267 Eu251 2.480 . S
O268 Eu251 2.430 . S
O268 C258 1.259 . S
O269 Eu241 2.355 . S
O269 Eu251 2.670 . S
O269 C258 1.270 . S
O270 Eu251 2.394 . S
O270 C259 1.251 . S
O271 Eu241 2.374 . S
O271 C259 1.251 . S
H272 C243 0.931 . S
H273 C244 0.931 . S
H274 C246 0.931 . S
H275 C247 0.931 . S
H276 C253 0.931 . S
H277 C254 0.931 . S
H278 C256 0.931 . S
H279 C257 0.931 . S
C280 Eu281 2.835 . S
C280 C282 1.500 . S
C280 O300 1.257 . S
C280 O301 1.260 . S
Eu281 C280 2.835 . S
Eu281 O300 2.473 . S
Eu281 O301 2.480 . S
Eu281 O302 2.430 . S
Eu281 O303 2.670 . S
Eu281 O304 2.394 . S
Eu281 O309 2.355 . S
Eu281 O311 2.374 . S
C282 C280 1.500 . S
C282 C283 1.377 . S
C282 C287 1.377 . S
C283 C282 1.377 . S
C283 C284 1.395 . S
C283 H312 0.931 . S
C284 C283 1.395 . S
C284 C285 1.383 . S
C284 H313 0.931 . S
C285 C284 1.383 . S
C285 C286 1.394 . S
C286 C285 1.394 . S
C286 C287 1.378 . S
C286 H314 0.931 . S
C287 C282 1.377 . S
C287 C286 1.378 . S
C287 H315 0.931 . S
C288 O302 1.259 . S
C288 O303 1.270 . S
C289 O304 1.251 . S
C289 O305 1.251 . S
C290 Eu291 2.835 . S
C290 C292 1.500 . S
C290 O306 1.257 . S
C290 O307 1.260 . S
Eu291 C290 2.835 . S
Eu291 O303 2.355 . S
Eu291 O305 2.374 . S
Eu291 O306 2.473 . S
Eu291 O307 2.480 . S
Eu291 O308 2.430 . S
Eu291 O309 2.670 . S
Eu291 O310 2.394 . S
C292 C290 1.500 . S
C292 C293 1.377 . S
C292 C297 1.377 . S
C293 C292 1.377 . S
C293 C294 1.395 . S
C293 H316 0.931 . S
C294 C293 1.395 . S
C294 C295 1.383 . S
C294 H317 0.931 . S
C295 C294 1.383 . S
C295 C296 1.394 . S
C296 C295 1.394 . S
C296 C297 1.378 . S
C296 H318 0.931 . S
C297 C292 1.377 . S
C297 C296 1.378 . S
C297 H319 0.931 . S
C298 O308 1.259 . S
C298 O309 1.270 . S
C299 O310 1.251 . S
C299 O311 1.251 . S
O300 C280 1.257 . S
O300 Eu281 2.473 . S
O301 C280 1.260 . S
O301 Eu281 2.480 . S
O302 Eu281 2.430 . S
O302 C288 1.259 . S
O303 Eu281 2.670 . S
O303 C288 1.270 . S
O303 Eu291 2.355 . S
O304 Eu281 2.394 . S
O304 C289 1.251 . S
O305 C289 1.251 . S
O305 Eu291 2.374 . S
O306 C290 1.257 . S
O306 Eu291 2.473 . S
O307 C290 1.260 . S
O307 Eu291 2.480 . S
O308 Eu291 2.430 . S
O308 C298 1.259 . S
O309 Eu281 2.355 . S
O309 Eu291 2.670 . S
O309 C298 1.270 . S
O310 Eu291 2.394 . S
O310 C299 1.251 . S
O311 Eu281 2.374 . S
O311 C299 1.251 . S
H312 C283 0.931 . S
H313 C284 0.931 . S
H314 C286 0.931 . S
H315 C287 0.931 . S
H316 C293 0.931 . S
H317 C294 0.931 . S
H318 C296 0.931 . S
H319 C297 0.931 . S
C320 Eu321 2.835 . S
C320 C322 1.500 . S
C320 O340 1.257 . S
C320 O341 1.260 . S
Eu321 C320 2.835 . S
Eu321 O340 2.473 . S
Eu321 O341 2.480 . S
Eu321 O342 2.430 . S
Eu321 O343 2.670 . S
Eu321 O344 2.394 . S
Eu321 O349 2.355 . S
Eu321 O351 2.374 . S
C322 C320 1.500 . S
C322 C323 1.377 . S
C322 C327 1.377 . S
C323 C322 1.377 . S
C323 C324 1.395 . S
C323 H352 0.931 . S
C324 C323 1.395 . S
C324 C325 1.383 . S
C324 H353 0.931 . S
C325 C324 1.383 . S
C325 C326 1.394 . S
C326 C325 1.394 . S
C326 C327 1.378 . S
C326 H354 0.931 . S
C327 C322 1.377 . S
C327 C326 1.378 . S
C327 H355 0.931 . S
C328 O342 1.259 . S
C328 O343 1.270 . S
C329 O344 1.251 . S
C329 O345 1.251 . S
C330 Eu331 2.835 . S
C330 C332 1.500 1_554 S
C330 O346 1.257 . S
C330 O347 1.260 . S
Eu331 C330 2.835 . S
Eu331 O343 2.355 . S
Eu331 O345 2.374 . S
Eu331 O346 2.473 . S
Eu331 O347 2.480 . S
Eu331 O348 2.430 . S
Eu331 O349 2.670 . S
Eu331 O350 2.394 . S
C332 C330 1.500 1_556 S
C332 C333 1.377 . S
C332 C337 1.377 . S
C333 C332 1.377 . S
C333 C334 1.395 . S
C333 H356 0.931 . S
C334 C333 1.395 . S
C334 C335 1.383 . S
C334 H357 0.931 . S
C335 C334 1.383 . S
C335 C336 1.394 . S
C336 C335 1.394 . S
C336 C337 1.378 . S
C336 H358 0.931 . S
C337 C332 1.377 . S
C337 C336 1.378 . S
C337 H359 0.931 . S
C338 O348 1.259 . S
C338 O349 1.270 . S
C339 O350 1.251 . S
C339 O351 1.251 . S
O340 C320 1.257 . S
O340 Eu321 2.473 . S
O341 C320 1.260 . S
O341 Eu321 2.480 . S
O342 Eu321 2.430 . S
O342 C328 1.259 . S
O343 Eu321 2.670 . S
O343 C328 1.270 . S
O343 Eu331 2.355 . S
O344 Eu321 2.394 . S
O344 C329 1.251 . S
O345 C329 1.251 . S
O345 Eu331 2.374 . S
O346 C330 1.257 . S
O346 Eu331 2.473 . S
O347 C330 1.260 . S
O347 Eu331 2.480 . S
O348 Eu331 2.430 . S
O348 C338 1.259 . S
O349 Eu321 2.355 . S
O349 Eu331 2.670 . S
O349 C338 1.270 . S
O350 Eu331 2.394 . S
O350 C339 1.251 . S
O351 Eu321 2.374 . S
O351 C339 1.251 . S
H352 C323 0.931 . S
H353 C324 0.931 . S
H354 C326 0.931 . S
H355 C327 0.931 . S
H356 C333 0.931 . S
H357 C334 0.931 . S
H358 C336 0.931 . S
H359 C337 0.931 . S
C360 Eu361 2.835 . S
C360 C362 1.500 . S
C360 O380 1.257 . S
C360 O381 1.260 . S
Eu361 C360 2.835 . S
Eu361 O380 2.473 . S
Eu361 O381 2.480 . S
Eu361 O382 2.430 . S
Eu361 O383 2.670 . S
Eu361 O384 2.394 . S
Eu361 O389 2.355 . S
Eu361 O391 2.374 . S
C362 C360 1.500 . S
C362 C363 1.377 . S
C362 C367 1.377 . S
C363 C362 1.377 . S
C363 C364 1.395 . S
C363 H392 0.931 . S
C364 C363 1.395 . S
C364 C365 1.383 . S
C364 H393 0.931 . S
C365 C364 1.383 . S
C365 C366 1.394 . S
C366 C365 1.394 . S
C366 C367 1.378 . S
C366 H394 0.931 . S
C367 C362 1.377 . S
C367 C366 1.378 . S
C367 H395 0.931 . S
C368 O382 1.259 . S
C368 O383 1.270 . S
C369 O384 1.251 . S
C369 O385 1.251 . S
C370 Eu371 2.835 . S
C370 C372 1.500 . S
C370 O386 1.257 . S
C370 O387 1.260 . S
Eu371 C370 2.835 . S
Eu371 O383 2.355 . S
Eu371 O385 2.374 . S
Eu371 O386 2.473 . S
Eu371 O387 2.480 . S
Eu371 O388 2.430 . S
Eu371 O389 2.670 . S
Eu371 O390 2.394 . S
C372 C370 1.500 . S
C372 C373 1.377 . S
C372 C377 1.377 . S
C373 C372 1.377 . S
C373 C374 1.395 . S
C373 H396 0.931 . S
C374 C373 1.395 . S
C374 C375 1.383 . S
C374 H397 0.931 . S
C375 C374 1.383 . S
C375 C376 1.394 . S
C376 C375 1.394 . S
C376 C377 1.378 . S
C376 H398 0.931 . S
C377 C372 1.377 . S
C377 C376 1.378 . S
C377 H399 0.931 . S
C378 O388 1.259 . S
C378 O389 1.270 . S
C379 O390 1.251 . S
C379 O391 1.251 . S
O380 C360 1.257 . S
O380 Eu361 2.473 . S
O381 C360 1.260 . S
O381 Eu361 2.480 . S
O382 Eu361 2.430 . S
O382 C368 1.259 . S
O383 Eu361 2.670 . S
O383 C368 1.270 . S
O383 Eu371 2.355 . S
O384 Eu361 2.394 . S
O384 C369 1.251 . S
O385 C369 1.251 . S
O385 Eu371 2.374 . S
O386 C370 1.257 . S
O386 Eu371 2.473 . S
O387 C370 1.260 . S
O387 Eu371 2.480 . S
O388 Eu371 2.430 . S
O388 C378 1.259 . S
O389 Eu361 2.355 . S
O389 Eu371 2.670 . S
O389 C378 1.270 . S
O390 Eu371 2.394 . S
O390 C379 1.251 . S
O391 Eu361 2.374 . S
O391 C379 1.251 . S
H392 C363 0.931 . S
H393 C364 0.931 . S
H394 C366 0.931 . S
H395 C367 0.931 . S
H396 C373 0.931 . S
H397 C374 0.931 . S
H398 C376 0.931 . S
H399 C377 0.931 . S
C400 Eu401 2.835 . S
C400 C402 1.500 . S
C400 O420 1.257 . S
C400 O421 1.260 . S
Eu401 C400 2.835 . S
Eu401 O420 2.473 . S
Eu401 O421 2.480 . S
Eu401 O422 2.430 . S
Eu401 O423 2.670 . S
Eu401 O424 2.394 . S
Eu401 O429 2.355 . S
Eu401 O431 2.374 . S
C402 C400 1.500 . S
C402 C403 1.377 . S
C402 C407 1.377 . S
C403 C402 1.377 . S
C403 C404 1.395 . S
C403 H432 0.931 . S
C404 C403 1.395 . S
C404 C405 1.383 . S
C404 H433 0.931 . S
C405 C404 1.383 . S
C405 C406 1.394 . S
C406 C405 1.394 . S
C406 C407 1.378 . S
C406 H434 0.931 . S
C407 C402 1.377 . S
C407 C406 1.378 . S
C407 H435 0.931 . S
C408 O422 1.259 . S
C408 O423 1.270 . S
C409 O424 1.251 . S
C409 O425 1.251 . S
C410 Eu411 2.835 . S
C410 C412 1.500 . S
C410 O426 1.257 . S
C410 O427 1.260 . S
Eu411 C410 2.835 . S
Eu411 O423 2.355 . S
Eu411 O425 2.374 . S
Eu411 O426 2.473 . S
Eu411 O427 2.480 . S
Eu411 O428 2.430 . S
Eu411 O429 2.670 . S
Eu411 O430 2.394 . S
C412 C410 1.500 . S
C412 C413 1.377 . S
C412 C417 1.377 . S
C413 C412 1.377 . S
C413 C414 1.395 . S
C413 H436 0.931 . S
C414 C413 1.395 . S
C414 C415 1.383 . S
C414 H437 0.931 . S
C415 C414 1.383 . S
C415 C416 1.394 . S
C416 C415 1.394 . S
C416 C417 1.378 . S
C416 H438 0.931 . S
C417 C412 1.377 . S
C417 C416 1.378 . S
C417 H439 0.931 . S
C418 O428 1.259 . S
C418 O429 1.270 . S
C419 O430 1.251 . S
C419 O431 1.251 . S
O420 C400 1.257 . S
O420 Eu401 2.473 . S
O421 C400 1.260 . S
O421 Eu401 2.480 . S
O422 Eu401 2.430 . S
O422 C408 1.259 . S
O423 Eu401 2.670 . S
O423 C408 1.270 . S
O423 Eu411 2.355 . S
O424 Eu401 2.394 . S
O424 C409 1.251 . S
O425 C409 1.251 . S
O425 Eu411 2.374 . S
O426 C410 1.257 . S
O426 Eu411 2.473 . S
O427 C410 1.260 . S
O427 Eu411 2.480 . S
O428 Eu411 2.430 . S
O428 C418 1.259 . S
O429 Eu401 2.355 . S
O429 Eu411 2.670 . S
O429 C418 1.270 . S
O430 Eu411 2.394 . S
O430 C419 1.251 . S
O431 Eu401 2.374 . S
O431 C419 1.251 . S
H432 C403 0.931 . S
H433 C404 0.931 . S
H434 C406 0.931 . S
H435 C407 0.931 . S
H436 C413 0.931 . S
H437 C414 0.931 . S
H438 C416 0.931 . S
H439 C417 0.931 . S
C440 Eu441 2.835 . S
C440 C442 1.500 . S
C440 O460 1.257 . S
C440 O461 1.260 . S
Eu441 C440 2.835 . S
Eu441 O460 2.473 . S
Eu441 O461 2.480 . S
Eu441 O462 2.430 . S
Eu441 O463 2.670 . S
Eu441 O464 2.394 . S
Eu441 O469 2.355 . S
Eu441 O471 2.374 . S
C442 C440 1.500 . S
C442 C443 1.377 . S
C442 C447 1.377 . S
C443 C442 1.377 . S
C443 C444 1.395 . S
C443 H472 0.931 . S
C444 C443 1.395 . S
C444 C445 1.383 . S
C444 H473 0.931 . S
C445 C444 1.383 . S
C445 C446 1.394 . S
C446 C445 1.394 . S
C446 C447 1.378 . S
C446 H474 0.931 . S
C447 C442 1.377 . S
C447 C446 1.378 . S
C447 H475 0.931 . S
C448 O462 1.259 . S
C448 O463 1.270 . S
C449 O464 1.251 . S
C449 O465 1.251 . S
C450 Eu451 2.835 . S
C450 C452 1.500 1_554 S
C450 O466 1.257 . S
C450 O467 1.260 . S
Eu451 C450 2.835 . S
Eu451 O463 2.355 . S
Eu451 O465 2.374 . S
Eu451 O466 2.473 . S
Eu451 O467 2.480 . S
Eu451 O468 2.430 . S
Eu451 O469 2.670 . S
Eu451 O470 2.394 . S
C452 C450 1.500 1_556 S
C452 C453 1.377 . S
C452 C457 1.377 . S
C453 C452 1.377 . S
C453 C454 1.395 . S
C453 H476 0.931 . S
C454 C453 1.395 . S
C454 C455 1.383 . S
C454 H477 0.931 . S
C455 C454 1.383 . S
C455 C456 1.394 . S
C456 C455 1.394 . S
C456 C457 1.378 . S
C456 H478 0.931 . S
C457 C452 1.377 . S
C457 C456 1.378 . S
C457 H479 0.931 . S
C458 O468 1.259 . S
C458 O469 1.270 . S
C459 O470 1.251 . S
C459 O471 1.251 . S
O460 C440 1.257 . S
O460 Eu441 2.473 . S
O461 C440 1.260 . S
O461 Eu441 2.480 . S
O462 Eu441 2.430 . S
O462 C448 1.259 . S
O463 Eu441 2.670 . S
O463 C448 1.270 . S
O463 Eu451 2.355 . S
O464 Eu441 2.394 . S
O464 C449 1.251 . S
O465 C449 1.251 . S
O465 Eu451 2.374 . S
O466 C450 1.257 . S
O466 Eu451 2.473 . S
O467 C450 1.260 . S
O467 Eu451 2.480 . S
O468 Eu451 2.430 . S
O468 C458 1.259 . S
O469 Eu441 2.355 . S
O469 Eu451 2.670 . S
O469 C458 1.270 . S
O470 Eu451 2.394 . S
O470 C459 1.251 . S
O471 Eu441 2.374 . S
O471 C459 1.251 . S
H472 C443 0.931 . S
H473 C444 0.931 . S
H474 C446 0.931 . S
H475 C447 0.931 . S
H476 C453 0.931 . S
H477 C454 0.931 . S
H478 C456 0.931 . S
H479 C457 0.931 . S
H480 C498 0.951 . S
H481 C500 0.951 . S
H482 C502 0.950 . S
H483 C503 0.950 . S
H484 C505 0.950 . S
H485 C508 0.950 . S
H486 C509 0.950 . S
H487 C511 0.950 . S
H488 C512 0.950 . S
H489 C513 0.951 . S
H490 C515 0.951 . S
H491 C517 0.950 . S
H492 C518 0.950 . S
H493 C520 0.950 . S
H494 C523 0.950 . S
H495 C524 0.950 . S
H496 C526 0.950 . S
H497 C527 0.950 . S
C498 H480 0.951 . S
C498 C499 1.366 . S
C498 C500 1.388 . S
C499 C498 1.366 . S
C499 C503 1.385 . S
C500 H481 0.951 . S
C500 C498 1.388 . S
C500 C501 1.366 . S
C501 C500 1.366 . S
C501 C502 1.414 . S
C501 C504 1.499 . S
C502 H482 0.950 . S
C502 C501 1.414 . S
C502 C503 1.374 . S
C503 H483 0.950 . S
C503 C499 1.385 . S
C503 C502 1.374 . S
C504 C501 1.499 . S
C504 C505 1.373 . S
C504 C506 1.389 . S
C505 H484 0.950 . S
C505 C504 1.373 . S
C505 C521 1.377 . S
C506 C504 1.389 . S
C506 C507 1.524 . S
C506 C520 1.377 . S
C507 C506 1.524 . S
C507 C508 1.397 . S
C507 C512 1.363 . S
C508 H485 0.950 . S
C508 C507 1.397 . S
C508 C509 1.334 . S
C509 H486 0.950 . S
C509 C508 1.334 . S
C509 C510 1.287 . S
C510 C509 1.287 . S
C510 C511 1.524 . S
C510 H529 0.913 . S
C511 H487 0.950 . S
C511 C510 1.524 . S
C511 C512 1.415 . S
C512 H488 0.950 . S
C512 C507 1.363 . S
C512 C511 1.415 . S
C513 H489 0.951 . S
C513 C514 1.366 . S
C513 C515 1.388 . S
C514 C513 1.366 . S
C514 C518 1.385 . S
C515 H490 0.951 . S
C515 C513 1.388 . S
C515 C516 1.366 . S
C516 C515 1.366 . S
C516 C517 1.414 . S
C516 C519 1.499 . S
C517 H491 0.950 . S
C517 C516 1.414 . S
C517 C518 1.374 . S
C518 H492 0.950 . S
C518 C514 1.385 . S
C518 C517 1.374 . S
C519 C516 1.499 . S
C519 C520 1.373 . S
C519 C521 1.389 . S
C520 H493 0.950 . S
C520 C506 1.377 . S
C520 C519 1.373 . S
C521 C505 1.377 . S
C521 C519 1.389 . S
C521 C522 1.524 . S
C522 C521 1.524 . S
C522 C523 1.397 . S
C522 C527 1.363 . S
C523 H494 0.950 . S
C523 C522 1.397 . S
C523 C524 1.334 . S
C524 H495 0.950 . S
C524 C523 1.334 . S
C524 C525 1.287 . S
C525 C524 1.287 . S
C525 C526 1.524 . S
C525 H528 0.999 . S
C526 H496 0.950 . S
C526 C525 1.524 . S
C526 C527 1.415 . S
C527 H497 0.950 . S
C527 C522 1.363 . S
C527 C526 1.415 . S
H528 C525 0.999 . S
H529 C510 0.913 . S
H530 C548 0.951 . S
H531 C550 0.951 . S
H532 C552 0.950 . S
H533 C553 0.950 . S
H534 C555 0.950 . S
H535 C558 0.950 . S
H536 C559 0.950 . S
H537 C561 0.950 . S
H538 C562 0.950 . S
H539 C563 0.951 . S
H540 C565 0.951 . S
H541 C567 0.950 . S
H542 C568 0.950 . S
H543 C570 0.950 . S
H544 C573 0.950 . S
H545 C574 0.950 . S
H546 C576 0.950 . S
H547 C577 0.950 . S
C548 H530 0.951 . S
C548 C549 1.366 . S
C548 C550 1.388 . S
C549 C548 1.366 . S
C549 C553 1.385 . S
C550 H531 0.951 . S
C550 C548 1.388 . S
C550 C551 1.366 . S
C551 C550 1.366 . S
C551 C552 1.414 . S
C551 C554 1.499 . S
C552 H532 0.950 . S
C552 C551 1.414 . S
C552 C553 1.374 . S
C553 H533 0.950 . S
C553 C549 1.385 . S
C553 C552 1.374 . S
C554 C551 1.499 . S
C554 C555 1.373 . S
C554 C556 1.389 . S
C555 H534 0.950 . S
C555 C554 1.373 . S
C555 C571 1.377 . S
C556 C554 1.389 . S
C556 C557 1.524 . S
C556 C570 1.377 . S
C557 C556 1.524 . S
C557 C558 1.397 . S
C557 C562 1.363 . S
C558 H535 0.950 . S
C558 C557 1.397 . S
C558 C559 1.334 . S
C559 H536 0.950 . S
C559 C558 1.334 . S
C559 C560 1.287 . S
C560 C559 1.287 . S
C560 C561 1.524 . S
C560 H579 0.913 . S
C561 H537 0.950 . S
C561 C560 1.524 . S
C561 C562 1.415 . S
C562 H538 0.950 . S
C562 C557 1.363 . S
C562 C561 1.415 . S
C563 H539 0.951 . S
C563 C564 1.366 . S
C563 C565 1.388 . S
C564 C563 1.366 . S
C564 C568 1.385 . S
C565 H540 0.951 . S
C565 C563 1.388 . S
C565 C566 1.366 . S
C566 C565 1.366 . S
C566 C567 1.414 . S
C566 C569 1.499 . S
C567 H541 0.950 . S
C567 C566 1.414 . S
C567 C568 1.374 . S
C568 H542 0.950 . S
C568 C564 1.385 . S
C568 C567 1.374 . S
C569 C566 1.499 . S
C569 C570 1.373 . S
C569 C571 1.389 . S
C570 H543 0.950 . S
C570 C556 1.377 . S
C570 C569 1.373 . S
C571 C555 1.377 . S
C571 C569 1.389 . S
C571 C572 1.524 . S
C572 C571 1.524 . S
C572 C573 1.397 . S
C572 C577 1.363 . S
C573 H544 0.950 . S
C573 C572 1.397 . S
C573 C574 1.334 . S
C574 H545 0.950 . S
C574 C573 1.334 . S
C574 C575 1.287 . S
C575 C574 1.287 . S
C575 C576 1.524 . S
C575 H578 0.999 . S
C576 H546 0.950 . S
C576 C575 1.524 . S
C576 C577 1.415 . S
C577 H547 0.950 . S
C577 C572 1.363 . S
C577 C576 1.415 . S
H578 C575 0.999 . S
H579 C560 0.913 . S
H580 C598 0.951 . S
H581 C600 0.951 . S
H582 C602 0.950 . S
H583 C603 0.950 . S
H584 C605 0.950 . S
H585 C608 0.950 . S
H586 C609 0.950 . S
H587 C611 0.950 . S
H588 C612 0.950 . S
H589 C613 0.951 . S
H590 C615 0.951 . S
H591 C617 0.950 . S
H592 C618 0.950 . S
H593 C620 0.950 . S
H594 C623 0.950 . S
H595 C624 0.950 . S
H596 C626 0.950 . S
H597 C627 0.950 . S
C598 H580 0.951 . S
C598 C599 1.366 . S
C598 C600 1.388 . S
C599 C598 1.366 . S
C599 C603 1.385 . S
C600 H581 0.951 . S
C600 C598 1.388 . S
C600 C601 1.366 . S
C601 C600 1.366 . S
C601 C602 1.414 . S
C601 C604 1.499 . S
C602 H582 0.950 . S
C602 C601 1.414 . S
C602 C603 1.374 . S
C603 H583 0.950 . S
C603 C599 1.385 . S
C603 C602 1.374 . S
C604 C601 1.499 . S
C604 C605 1.373 . S
C604 C606 1.389 . S
C605 H584 0.950 . S
C605 C604 1.373 . S
C605 C621 1.377 . S
C606 C604 1.389 . S
C606 C607 1.524 . S
C606 C620 1.377 . S
C607 C606 1.524 . S
C607 C608 1.397 . S
C607 C612 1.363 . S
C608 H585 0.950 . S
C608 C607 1.397 . S
C608 C609 1.334 . S
C609 H586 0.950 . S
C609 C608 1.334 . S
C609 C610 1.287 . S
C610 C609 1.287 . S
C610 C611 1.524 . S
C610 H629 0.913 . S
C611 H587 0.950 . S
C611 C610 1.524 . S
C611 C612 1.415 . S
C612 H588 0.950 . S
C612 C607 1.363 . S
C612 C611 1.415 . S
C613 H589 0.951 . S
C613 C614 1.366 . S
C613 C615 1.388 . S
C614 C613 1.366 . S
C614 C618 1.385 . S
C615 H590 0.951 . S
C615 C613 1.388 . S
C615 C616 1.366 . S
C616 C615 1.366 . S
C616 C617 1.414 . S
C616 C619 1.499 . S
C617 H591 0.950 . S
C617 C616 1.414 . S
C617 C618 1.374 . S
C618 H592 0.950 . S
C618 C614 1.385 . S
C618 C617 1.374 . S
C619 C616 1.499 . S
C619 C620 1.373 . S
C619 C621 1.389 . S
C620 H593 0.950 . S
C620 C606 1.377 . S
C620 C619 1.373 . S
C621 C605 1.377 . S
C621 C619 1.389 . S
C621 C622 1.524 . S
C622 C621 1.524 . S
C622 C623 1.397 . S
C622 C627 1.363 . S
C623 H594 0.950 . S
C623 C622 1.397 . S
C623 C624 1.334 . S
C624 H595 0.950 . S
C624 C623 1.334 . S
C624 C625 1.287 . S
C625 C624 1.287 . S
C625 C626 1.524 . S
C625 H628 0.999 . S
C626 H596 0.950 . S
C626 C625 1.524 . S
C626 C627 1.415 . S
C627 H597 0.950 . S
C627 C622 1.363 . S
C627 C626 1.415 . S
H628 C625 0.999 . S
H629 C610 0.913 . S
H630 C648 0.951 . S
H631 C650 0.951 . S
H632 C652 0.950 . S
H633 C653 0.950 . S
H634 C655 0.950 . S
H635 C658 0.950 . S
H636 C659 0.950 . S
H637 C661 0.950 . S
H638 C662 0.950 . S
H639 C663 0.951 . S
H640 C665 0.951 . S
H641 C667 0.950 . S
H642 C668 0.950 . S
H643 C670 0.950 . S
H644 C673 0.950 . S
H645 C674 0.950 . S
H646 C676 0.950 . S
H647 C677 0.950 . S
C648 H630 0.951 . S
C648 C649 1.366 . S
C648 C650 1.388 . S
C649 C648 1.366 . S
C649 C653 1.385 . S
C650 H631 0.951 . S
C650 C648 1.388 . S
C650 C651 1.366 . S
C651 C650 1.366 . S
C651 C652 1.414 . S
C651 C654 1.499 . S
C652 H632 0.950 . S
C652 C651 1.414 . S
C652 C653 1.374 . S
C653 H633 0.950 . S
C653 C649 1.385 . S
C653 C652 1.374 . S
C654 C651 1.499 . S
C654 C655 1.373 . S
C654 C656 1.389 . S
C655 H634 0.950 . S
C655 C654 1.373 . S
C655 C671 1.377 . S
C656 C654 1.389 . S
C656 C657 1.524 . S
C656 C670 1.377 . S
C657 C656 1.524 . S
C657 C658 1.397 . S
C657 C662 1.363 . S
C658 H635 0.950 . S
C658 C657 1.397 . S
C658 C659 1.334 . S
C659 H636 0.950 . S
C659 C658 1.334 . S
C659 C660 1.287 . S
C660 C659 1.287 . S
C660 C661 1.524 . S
C660 H679 0.913 . S
C661 H637 0.950 . S
C661 C660 1.524 . S
C661 C662 1.415 . S
C662 H638 0.950 . S
C662 C657 1.363 . S
C662 C661 1.415 . S
C663 H639 0.951 . S
C663 C664 1.366 . S
C663 C665 1.388 . S
C664 C663 1.366 . S
C664 C668 1.385 . S
C665 H640 0.951 . S
C665 C663 1.388 . S
C665 C666 1.366 . S
C666 C665 1.366 . S
C666 C667 1.414 . S
C666 C669 1.499 . S
C667 H641 0.950 . S
C667 C666 1.414 . S
C667 C668 1.374 . S
C668 H642 0.950 . S
C668 C664 1.385 . S
C668 C667 1.374 . S
C669 C666 1.499 . S
C669 C670 1.373 . S
C669 C671 1.389 . S
C670 H643 0.950 . S
C670 C656 1.377 . S
C670 C669 1.373 . S
C671 C655 1.377 . S
C671 C669 1.389 . S
C671 C672 1.524 . S
C672 C671 1.524 . S
C672 C673 1.397 . S
C672 C677 1.363 . S
C673 H644 0.950 . S
C673 C672 1.397 . S
C673 C674 1.334 . S
C674 H645 0.950 . S
C674 C673 1.334 . S
C674 C675 1.287 . S
C675 C674 1.287 . S
C675 C676 1.524 . S
C675 H678 0.999 . S
C676 H646 0.950 . S
C676 C675 1.524 . S
C676 C677 1.415 . S
C677 H647 0.950 . S
C677 C672 1.363 . S
C677 C676 1.415 . S
H678 C675 0.999 . S
H679 C660 0.913 . S
H680 C698 0.951 . S
H681 C700 0.951 . S
H682 C702 0.950 . S
H683 C703 0.950 . S
H684 C705 0.950 . S
H685 C708 0.950 . S
H686 C709 0.950 . S
H687 C711 0.950 . S
H688 C712 0.950 . S
H689 C713 0.951 . S
H690 C715 0.951 . S
H691 C717 0.950 . S
H692 C718 0.950 . S
H693 C720 0.950 . S
H694 C723 0.950 . S
H695 C724 0.950 . S
H696 C726 0.950 . S
H697 C727 0.950 . S
C698 H680 0.951 . S
C698 C699 1.366 . S
C698 C700 1.388 . S
C699 C698 1.366 . S
C699 C703 1.385 . S
C700 H681 0.951 . S
C700 C698 1.388 . S
C700 C701 1.366 . S
C701 C700 1.366 . S
C701 C702 1.414 . S
C701 C704 1.499 . S
C702 H682 0.950 . S
C702 C701 1.414 . S
C702 C703 1.374 . S
C703 H683 0.950 . S
C703 C699 1.385 . S
C703 C702 1.374 . S
C704 C701 1.499 . S
C704 C705 1.373 . S
C704 C706 1.389 . S
C705 H684 0.950 . S
C705 C704 1.373 . S
C705 C721 1.377 . S
C706 C704 1.389 . S
C706 C707 1.524 . S
C706 C720 1.377 . S
C707 C706 1.524 . S
C707 C708 1.397 . S
C707 C712 1.363 . S
C708 H685 0.950 . S
C708 C707 1.397 . S
C708 C709 1.334 . S
C709 H686 0.950 . S
C709 C708 1.334 . S
C709 C710 1.287 . S
C710 C709 1.287 . S
C710 C711 1.524 . S
C710 H729 0.913 . S
C711 H687 0.950 . S
C711 C710 1.524 . S
C711 C712 1.415 . S
C712 H688 0.950 . S
C712 C707 1.363 . S
C712 C711 1.415 . S
C713 H689 0.951 . S
C713 C714 1.366 . S
C713 C715 1.388 . S
C714 C713 1.366 . S
C714 C718 1.385 . S
C715 H690 0.951 . S
C715 C713 1.388 . S
C715 C716 1.366 . S
C716 C715 1.366 . S
C716 C717 1.414 . S
C716 C719 1.499 . S
C717 H691 0.950 . S
C717 C716 1.414 . S
C717 C718 1.374 . S
C718 H692 0.950 . S
C718 C714 1.385 . S
C718 C717 1.374 . S
C719 C716 1.499 . S
C719 C720 1.373 . S
C719 C721 1.389 . S
C720 H693 0.950 . S
C720 C706 1.377 . S
C720 C719 1.373 . S
C721 C705 1.377 . S
C721 C719 1.389 . S
C721 C722 1.524 . S
C722 C721 1.524 . S
C722 C723 1.397 . S
C722 C727 1.363 . S
C723 H694 0.950 . S
C723 C722 1.397 . S
C723 C724 1.334 . S
C724 H695 0.950 . S
C724 C723 1.334 . S
C724 C725 1.287 . S
C725 C724 1.287 . S
C725 C726 1.524 . S
C725 H728 0.999 . S
C726 H696 0.950 . S
C726 C725 1.524 . S
C726 C727 1.415 . S
C727 H697 0.950 . S
C727 C722 1.363 . S
C727 C726 1.415 . S
H728 C725 0.999 . S
H729 C710 0.913 . S
H730 C748 0.951 . S
H731 C750 0.951 . S
H732 C752 0.950 . S
H733 C753 0.950 . S
H734 C755 0.950 . S
H735 C758 0.950 . S
H736 C759 0.950 . S
H737 C761 0.950 . S
H738 C762 0.950 . S
H739 C763 0.951 . S
H740 C765 0.951 . S
H741 C767 0.950 . S
H742 C768 0.950 . S
H743 C770 0.950 . S
H744 C773 0.950 . S
H745 C774 0.950 . S
H746 C776 0.950 . S
H747 C777 0.950 . S
C748 H730 0.951 . S
C748 C749 1.366 . S
C748 C750 1.388 . S
C749 C748 1.366 . S
C749 C753 1.385 . S
C750 H731 0.951 . S
C750 C748 1.388 . S
C750 C751 1.366 . S
C751 C750 1.366 . S
C751 C752 1.414 . S
C751 C754 1.499 . S
C752 H732 0.950 . S
C752 C751 1.414 . S
C752 C753 1.374 . S
C753 H733 0.950 . S
C753 C749 1.385 . S
C753 C752 1.374 . S
C754 C751 1.499 . S
C754 C755 1.373 . S
C754 C756 1.389 . S
C755 H734 0.950 . S
C755 C754 1.373 . S
C755 C771 1.377 . S
C756 C754 1.389 . S
C756 C757 1.524 . S
C756 C770 1.377 . S
C757 C756 1.524 . S
C757 C758 1.397 . S
C757 C762 1.363 . S
C758 H735 0.950 . S
C758 C757 1.397 . S
C758 C759 1.334 . S
C759 H736 0.950 . S
C759 C758 1.334 . S
C759 C760 1.287 . S
C760 C759 1.287 . S
C760 C761 1.524 . S
C760 H779 0.913 . S
C761 H737 0.950 . S
C761 C760 1.524 . S
C761 C762 1.415 . S
C762 H738 0.950 . S
C762 C757 1.363 . S
C762 C761 1.415 . S
C763 H739 0.951 . S
C763 C764 1.366 . S
C763 C765 1.388 . S
C764 C763 1.366 . S
C764 C768 1.385 . S
C765 H740 0.951 . S
C765 C763 1.388 . S
C765 C766 1.366 . S
C766 C765 1.366 . S
C766 C767 1.414 . S
C766 C769 1.499 . S
C767 H741 0.950 . S
C767 C766 1.414 . S
C767 C768 1.374 . S
C768 H742 0.950 . S
C768 C764 1.385 . S
C768 C767 1.374 . S
C769 C766 1.499 . S
C769 C770 1.373 . S
C769 C771 1.389 . S
C770 H743 0.950 . S
C770 C756 1.377 . S
C770 C769 1.373 . S
C771 C755 1.377 . S
C771 C769 1.389 . S
C771 C772 1.524 . S
C772 C771 1.524 . S
C772 C773 1.397 . S
C772 C777 1.363 . S
C773 H744 0.950 . S
C773 C772 1.397 . S
C773 C774 1.334 . S
C774 H745 0.950 . S
C774 C773 1.334 . S
C774 C775 1.287 . S
C775 C774 1.287 . S
C775 C776 1.524 . S
C775 H778 0.999 . S
C776 H746 0.950 . S
C776 C775 1.524 . S
C776 C777 1.415 . S
C777 H747 0.950 . S
C777 C772 1.363 . S
C777 C776 1.415 . S
H778 C775 0.999 . S
H779 C760 0.913 . S
H780 C798 0.951 . S
H781 C800 0.951 . S
H782 C802 0.950 . S
H783 C803 0.950 . S
H784 C805 0.950 . S
H785 C808 0.950 . S
H786 C809 0.950 . S
H787 C811 0.950 . S
H788 C812 0.950 . S
H789 C813 0.951 . S
H790 C815 0.951 . S
H791 C817 0.950 . S
H792 C818 0.950 . S
H793 C820 0.950 . S
H794 C823 0.950 . S
H795 C824 0.950 . S
H796 C826 0.950 . S
H797 C827 0.950 . S
C798 H780 0.951 . S
C798 C799 1.366 . S
C798 C800 1.388 . S
C799 C798 1.366 . S
C799 C803 1.385 . S
C800 H781 0.951 . S
C800 C798 1.388 . S
C800 C801 1.366 . S
C801 C800 1.366 . S
C801 C802 1.414 . S
C801 C804 1.499 . S
C802 H782 0.950 . S
C802 C801 1.414 . S
C802 C803 1.374 . S
C803 H783 0.950 . S
C803 C799 1.385 . S
C803 C802 1.374 . S
C804 C801 1.499 . S
C804 C805 1.369 1_556 S
C804 C806 1.389 . S
C805 H784 0.950 . S
C805 C804 1.369 1_554 S
C805 C821 1.380 . S
C806 C804 1.389 . S
C806 C807 1.524 . S
C806 C820 1.380 . S
C807 C806 1.524 . S
C807 C808 1.397 . S
C807 C812 1.363 . S
C808 H785 0.950 . S
C808 C807 1.397 . S
C808 C809 1.334 . S
C809 H786 0.950 . S
C809 C808 1.334 . S
C809 C810 1.287 . S
C810 C809 1.287 . S
C810 C811 1.524 . S
C810 H829 0.913 . S
C811 H787 0.950 . S
C811 C810 1.524 . S
C811 C812 1.415 . S
C812 H788 0.950 . S
C812 C807 1.363 . S
C812 C811 1.415 . S
C813 H789 0.951 . S
C813 C814 1.366 . S
C813 C815 1.388 . S
C814 C813 1.366 . S
C814 C818 1.385 . S
C815 H790 0.951 . S
C815 C813 1.388 . S
C815 C816 1.366 . S
C816 C815 1.366 . S
C816 C817 1.414 . S
C816 C819 1.499 . S
C817 H791 0.950 . S
C817 C816 1.414 . S
C817 C818 1.374 . S
C818 H792 0.950 . S
C818 C814 1.385 . S
C818 C817 1.374 . S
C819 C816 1.499 . S
C819 C820 1.370 1_554 S
C819 C821 1.389 . S
C820 H793 0.950 . S
C820 C806 1.380 . S
C820 C819 1.370 1_556 S
C821 C805 1.380 . S
C821 C819 1.389 . S
C821 C822 1.524 . S
C822 C821 1.524 . S
C822 C823 1.397 . S
C822 C827 1.363 . S
C823 H794 0.950 . S
C823 C822 1.397 . S
C823 C824 1.334 . S
C824 H795 0.950 . S
C824 C823 1.334 . S
C824 C825 1.287 . S
C825 C824 1.287 . S
C825 C826 1.524 . S
C825 H828 0.999 . S
C826 H796 0.950 . S
C826 C825 1.524 . S
C826 C827 1.415 . S
C827 H797 0.950 . S
C827 C822 1.363 . S
C827 C826 1.415 . S
H828 C825 0.999 . S
H829 C810 0.913 . S
H830 C848 0.951 . S
H831 C850 0.951 . S
H832 C852 0.950 . S
H833 C853 0.950 . S
H834 C855 0.950 . S
H835 C858 0.950 . S
H836 C859 0.950 . S
H837 C861 0.950 . S
H838 C862 0.950 . S
H839 C863 0.951 . S
H840 C865 0.951 . S
H841 C867 0.950 . S
H842 C868 0.950 . S
H843 C870 0.950 . S
H844 C873 0.950 . S
H845 C874 0.950 . S
H846 C876 0.950 . S
H847 C877 0.950 . S
C848 H830 0.951 . S
C848 C849 1.366 . S
C848 C850 1.388 . S
C849 C848 1.366 . S
C849 C853 1.385 . S
C850 H831 0.951 . S
C850 C848 1.388 . S
C850 C851 1.366 . S
C851 C850 1.366 . S
C851 C852 1.414 . S
C851 C854 1.499 . S
C852 H832 0.950 . S
C852 C851 1.414 . S
C852 C853 1.374 . S
C853 H833 0.950 . S
C853 C849 1.385 . S
C853 C852 1.374 . S
C854 C851 1.499 . S
C854 C855 1.373 . S
C854 C856 1.389 . S
C855 H834 0.950 . S
C855 C854 1.373 . S
C855 C871 1.377 . S
C856 C854 1.389 . S
C856 C857 1.524 . S
C856 C870 1.377 . S
C857 C856 1.524 . S
C857 C858 1.397 . S
C857 C862 1.363 . S
C858 H835 0.950 . S
C858 C857 1.397 . S
C858 C859 1.334 . S
C859 H836 0.950 . S
C859 C858 1.334 . S
C859 C860 1.287 . S
C860 C859 1.287 . S
C860 C861 1.524 . S
C860 H879 0.913 . S
C861 H837 0.950 . S
C861 C860 1.524 . S
C861 C862 1.415 . S
C862 H838 0.950 . S
C862 C857 1.363 . S
C862 C861 1.415 . S
C863 H839 0.951 . S
C863 C864 1.366 . S
C863 C865 1.388 . S
C864 C863 1.366 . S
C864 C868 1.385 . S
C865 H840 0.951 . S
C865 C863 1.388 . S
C865 C866 1.366 . S
C866 C865 1.366 . S
C866 C867 1.414 . S
C866 C869 1.499 . S
C867 H841 0.950 . S
C867 C866 1.414 . S
C867 C868 1.374 . S
C868 H842 0.950 . S
C868 C864 1.385 . S
C868 C867 1.374 . S
C869 C866 1.499 . S
C869 C870 1.373 . S
C869 C871 1.389 . S
C870 H843 0.950 . S
C870 C856 1.377 . S
C870 C869 1.373 . S
C871 C855 1.377 . S
C871 C869 1.389 . S
C871 C872 1.524 . S
C872 C871 1.524 . S
C872 C873 1.397 . S
C872 C877 1.363 . S
C873 H844 0.950 . S
C873 C872 1.397 . S
C873 C874 1.334 . S
C874 H845 0.950 . S
C874 C873 1.334 . S
C874 C875 1.287 . S
C875 C874 1.287 . S
C875 C876 1.524 . S
C875 H878 0.999 . S
C876 H846 0.950 . S
C876 C875 1.524 . S
C876 C877 1.415 . S
C877 H847 0.950 . S
C877 C872 1.363 . S
C877 C876 1.415 . S
H878 C875 0.999 . S
H879 C860 0.913 . S
H880 C898 0.951 . S
H881 C900 0.951 . S
H882 C902 0.950 . S
H883 C903 0.950 . S
H884 C905 0.950 . S
H885 C908 0.950 . S
H886 C909 0.950 . S
H887 C911 0.950 . S
H888 C912 0.950 . S
H889 C913 0.951 . S
H890 C915 0.951 . S
H891 C917 0.950 . S
H892 C918 0.950 . S
H893 C920 0.950 . S
H894 C923 0.950 . S
H895 C924 0.950 . S
H896 C926 0.950 . S
H897 C927 0.950 . S
C898 H880 0.951 . S
C898 C899 1.366 . S
C898 C900 1.388 . S
C899 C898 1.366 . S
C899 C903 1.385 . S
C900 H881 0.951 . S
C900 C898 1.388 . S
C900 C901 1.366 . S
C901 C900 1.366 . S
C901 C902 1.414 . S
C901 C904 1.499 . S
C902 H882 0.950 . S
C902 C901 1.414 . S
C902 C903 1.374 . S
C903 H883 0.950 . S
C903 C899 1.385 . S
C903 C902 1.374 . S
C904 C901 1.499 . S
C904 C905 1.373 . S
C904 C906 1.389 . S
C905 H884 0.950 . S
C905 C904 1.373 . S
C905 C921 1.377 . S
C906 C904 1.389 . S
C906 C907 1.524 . S
C906 C920 1.377 . S
C907 C906 1.524 . S
C907 C908 1.397 . S
C907 C912 1.363 . S
C908 H885 0.950 . S
C908 C907 1.397 . S
C908 C909 1.334 . S
C909 H886 0.950 . S
C909 C908 1.334 . S
C909 C910 1.287 . S
C910 C909 1.287 . S
C910 C911 1.524 . S
C910 H929 0.913 . S
C911 H887 0.950 . S
C911 C910 1.524 . S
C911 C912 1.415 . S
C912 H888 0.950 . S
C912 C907 1.363 . S
C912 C911 1.415 . S
C913 H889 0.951 . S
C913 C914 1.366 . S
C913 C915 1.388 . S
C914 C913 1.366 . S
C914 C918 1.385 . S
C915 H890 0.951 . S
C915 C913 1.388 . S
C915 C916 1.366 . S
C916 C915 1.366 . S
C916 C917 1.414 . S
C916 C919 1.499 . S
C917 H891 0.950 . S
C917 C916 1.414 . S
C917 C918 1.374 . S
C918 H892 0.950 . S
C918 C914 1.385 . S
C918 C917 1.374 . S
C919 C916 1.499 . S
C919 C920 1.373 . S
C919 C921 1.389 . S
C920 H893 0.950 . S
C920 C906 1.377 . S
C920 C919 1.373 . S
C921 C905 1.377 . S
C921 C919 1.389 . S
C921 C922 1.524 . S
C922 C921 1.524 . S
C922 C923 1.397 . S
C922 C927 1.363 . S
C923 H894 0.950 . S
C923 C922 1.397 . S
C923 C924 1.334 . S
C924 H895 0.950 . S
C924 C923 1.334 . S
C924 C925 1.287 . S
C925 C924 1.287 . S
C925 C926 1.524 . S
C925 H928 0.999 . S
C926 H896 0.950 . S
C926 C925 1.524 . S
C926 C927 1.415 . S
C927 H897 0.950 . S
C927 C922 1.363 . S
C927 C926 1.415 . S
H928 C925 0.999 . S
H929 C910 0.913 . S
H930 C948 0.951 . S
H931 C950 0.951 . S
H932 C952 0.950 . S
H933 C953 0.950 . S
H934 C955 0.950 . S
H935 C958 0.950 . S
H936 C959 0.950 . S
H937 C961 0.950 . S
H938 C962 0.950 . S
H939 C963 0.951 . S
H940 C965 0.951 . S
H941 C967 0.950 . S
H942 C968 0.950 . S
H943 C970 0.950 . S
H944 C973 0.950 . S
H945 C974 0.950 . S
H946 C976 0.950 . S
H947 C977 0.950 . S
C948 H930 0.951 . S
C948 C949 1.366 . S
C948 C950 1.388 . S
C949 C948 1.366 . S
C949 C953 1.385 . S
C950 H931 0.951 . S
C950 C948 1.388 . S
C950 C951 1.366 . S
C951 C950 1.366 . S
C951 C952 1.414 . S
C951 C954 1.499 . S
C952 H932 0.950 . S
C952 C951 1.414 . S
C952 C953 1.374 . S
C953 H933 0.950 . S
C953 C949 1.385 . S
C953 C952 1.374 . S
C954 C951 1.499 . S
C954 C955 1.373 . S
C954 C956 1.389 . S
C955 H934 0.950 . S
C955 C954 1.373 . S
C955 C971 1.377 1_556 S
C956 C954 1.389 . S
C956 C957 1.524 . S
C956 C970 1.377 1_556 S
C957 C956 1.524 . S
C957 C958 1.397 . S
C957 C962 1.363 . S
C958 H935 0.950 . S
C958 C957 1.397 . S
C958 C959 1.334 . S
C959 H936 0.950 . S
C959 C958 1.334 . S
C959 C960 1.287 . S
C960 C959 1.287 . S
C960 C961 1.524 . S
C960 H979 0.913 . S
C961 H937 0.950 . S
C961 C960 1.524 . S
C961 C962 1.415 . S
C962 H938 0.950 . S
C962 C957 1.363 . S
C962 C961 1.415 . S
C963 H939 0.951 . S
C963 C964 1.366 . S
C963 C965 1.388 . S
C964 C963 1.366 . S
C964 C968 1.385 . S
C965 H940 0.951 . S
C965 C963 1.388 . S
C965 C966 1.366 . S
C966 C965 1.366 . S
C966 C967 1.414 . S
C966 C969 1.499 . S
C967 H941 0.950 . S
C967 C966 1.414 . S
C967 C968 1.374 . S
C968 H942 0.950 . S
C968 C964 1.385 . S
C968 C967 1.374 . S
C969 C966 1.499 . S
C969 C970 1.373 . S
C969 C971 1.389 . S
C970 H943 0.950 . S
C970 C956 1.377 1_554 S
C970 C969 1.373 . S
C971 C955 1.377 1_554 S
C971 C969 1.389 . S
C971 C972 1.524 . S
C972 C971 1.524 . S
C972 C973 1.397 . S
C972 C977 1.363 . S
C973 H944 0.950 . S
C973 C972 1.397 . S
C973 C974 1.334 . S
C974 H945 0.950 . S
C974 C973 1.334 . S
C974 C975 1.287 . S
C975 C974 1.287 . S
C975 C976 1.524 . S
C975 H978 0.999 . S
C976 H946 0.950 . S
C976 C975 1.524 . S
C976 C977 1.415 . S
C977 H947 0.950 . S
C977 C972 1.363 . S
C977 C976 1.415 . S
H978 C975 0.999 . S
H979 C960 0.913 . S
H980 C998 0.951 . S
H981 C1000 0.951 . S
H982 C1002 0.950 . S
H983 C1003 0.950 . S
H984 C1005 0.950 . S
H985 C1008 0.950 . S
H986 C1009 0.950 . S
H987 C1011 0.950 . S
H988 C1012 0.950 . S
H989 C1013 0.951 . S
H990 C1015 0.951 . S
H991 C1017 0.950 . S
H992 C1018 0.950 . S
H993 C1020 0.950 . S
H994 C1023 0.950 . S
H995 C1024 0.950 . S
H996 C1026 0.950 . S
H997 C1027 0.950 . S
C998 H980 0.951 . S
C998 C999 1.366 . S
C998 C1000 1.388 . S
C999 C998 1.366 . S
C999 C1003 1.385 . S
C1000 H981 0.951 . S
C1000 C998 1.388 . S
C1000 C1001 1.366 . S
C1001 C1000 1.366 . S
C1001 C1002 1.414 . S
C1001 C1004 1.499 . S
C1002 H982 0.950 . S
C1002 C1001 1.414 . S
C1002 C1003 1.374 . S
C1003 H983 0.950 . S
C1003 C999 1.385 . S
C1003 C1002 1.374 . S
C1004 C1001 1.499 . S
C1004 C1005 1.373 . S
C1004 C1006 1.389 . S
C1005 H984 0.950 . S
C1005 C1004 1.373 . S
C1005 C1021 1.377 . S
C1006 C1004 1.389 . S
C1006 C1007 1.524 . S
C1006 C1020 1.377 . S
C1007 C1006 1.524 . S
C1007 C1008 1.397 . S
C1007 C1012 1.363 . S
C1008 H985 0.950 . S
C1008 C1007 1.397 . S
C1008 C1009 1.334 . S
C1009 H986 0.950 . S
C1009 C1008 1.334 . S
C1009 C1010 1.287 . S
C1010 C1009 1.287 . S
C1010 C1011 1.524 . S
C1010 H1029 0.913 . S
C1011 H987 0.950 . S
C1011 C1010 1.524 . S
C1011 C1012 1.415 . S
C1012 H988 0.950 . S
C1012 C1007 1.363 . S
C1012 C1011 1.415 . S
C1013 H989 0.951 . S
C1013 C1014 1.366 . S
C1013 C1015 1.388 . S
C1014 C1013 1.366 . S
C1014 C1018 1.385 . S
C1015 H990 0.951 . S
C1015 C1013 1.388 . S
C1015 C1016 1.366 . S
C1016 C1015 1.366 . S
C1016 C1017 1.414 . S
C1016 C1019 1.499 . S
C1017 H991 0.950 . S
C1017 C1016 1.414 . S
C1017 C1018 1.374 . S
C1018 H992 0.950 . S
C1018 C1014 1.385 . S
C1018 C1017 1.374 . S
C1019 C1016 1.499 . S
C1019 C1020 1.373 . S
C1019 C1021 1.389 . S
C1020 H993 0.950 . S
C1020 C1006 1.377 . S
C1020 C1019 1.373 . S
C1021 C1005 1.377 . S
C1021 C1019 1.389 . S
C1021 C1022 1.524 . S
C1022 C1021 1.524 . S
C1022 C1023 1.397 . S
C1022 C1027 1.363 . S
C1023 H994 0.950 . S
C1023 C1022 1.397 . S
C1023 C1024 1.334 . S
C1024 H995 0.950 . S
C1024 C1023 1.334 . S
C1024 C1025 1.287 . S
C1025 C1024 1.287 . S
C1025 C1026 1.524 . S
C1025 H1028 0.999 . S
C1026 H996 0.950 . S
C1026 C1025 1.524 . S
C1026 C1027 1.415 . S
C1027 H997 0.950 . S
C1027 C1022 1.363 . S
C1027 C1026 1.415 . S
H1028 C1025 0.999 . S
H1029 C1010 0.913 . S
H1030 C1048 0.951 . S
H1031 C1050 0.951 . S
H1032 C1052 0.950 . S
H1033 C1053 0.950 . S
H1034 C1055 0.950 . S
H1035 C1058 0.950 . S
H1036 C1059 0.950 . S
H1037 C1061 0.950 . S
H1038 C1062 0.950 . S
H1039 C1063 0.951 . S
H1040 C1065 0.951 . S
H1041 C1067 0.950 . S
H1042 C1068 0.950 . S
H1043 C1070 0.950 . S
H1044 C1073 0.950 . S
H1045 C1074 0.950 . S
H1046 C1076 0.950 . S
H1047 C1077 0.950 . S
C1048 H1030 0.951 . S
C1048 C1049 1.366 . S
C1048 C1050 1.388 . S
C1049 C1048 1.366 . S
C1049 C1053 1.385 . S
C1050 H1031 0.951 . S
C1050 C1048 1.388 . S
C1050 C1051 1.366 . S
C1051 C1050 1.366 . S
C1051 C1052 1.414 . S
C1051 C1054 1.499 . S
C1052 H1032 0.950 . S
C1052 C1051 1.414 . S
C1052 C1053 1.374 . S
C1053 H1033 0.950 . S
C1053 C1049 1.385 . S
C1053 C1052 1.374 . S
C1054 C1051 1.499 . S
C1054 C1055 1.373 . S
C1054 C1056 1.389 . S
C1055 H1034 0.950 . S
C1055 C1054 1.373 . S
C1055 C1071 1.377 . S
C1056 C1054 1.389 . S
C1056 C1057 1.524 . S
C1056 C1070 1.377 . S
C1057 C1056 1.524 . S
C1057 C1058 1.397 . S
C1057 C1062 1.363 . S
C1058 H1035 0.950 . S
C1058 C1057 1.397 . S
C1058 C1059 1.334 . S
C1059 H1036 0.950 . S
C1059 C1058 1.334 . S
C1059 C1060 1.287 . S
C1060 C1059 1.287 . S
C1060 C1061 1.524 . S
C1060 H1079 0.913 . S
C1061 H1037 0.950 . S
C1061 C1060 1.524 . S
C1061 C1062 1.415 . S
C1062 H1038 0.950 . S
C1062 C1057 1.363 . S
C1062 C1061 1.415 . S
C1063 H1039 0.951 . S
C1063 C1064 1.366 . S
C1063 C1065 1.388 . S
C1064 C1063 1.366 . S
C1064 C1068 1.385 . S
C1065 H1040 0.951 . S
C1065 C1063 1.388 . S
C1065 C1066 1.366 . S
C1066 C1065 1.366 . S
C1066 C1067 1.414 . S
C1066 C1069 1.499 . S
C1067 H1041 0.950 . S
C1067 C1066 1.414 . S
C1067 C1068 1.374 . S
C1068 H1042 0.950 . S
C1068 C1064 1.385 . S
C1068 C1067 1.374 . S
C1069 C1066 1.499 . S
C1069 C1070 1.373 . S
C1069 C1071 1.389 . S
C1070 H1043 0.950 . S
C1070 C1056 1.377 . S
C1070 C1069 1.373 . S
C1071 C1055 1.377 . S
C1071 C1069 1.389 . S
C1071 C1072 1.524 . S
C1072 C1071 1.524 . S
C1072 C1073 1.397 . S
C1072 C1077 1.363 . S
C1073 H1044 0.950 . S
C1073 C1072 1.397 . S
C1073 C1074 1.334 . S
C1074 H1045 0.950 . S
C1074 C1073 1.334 . S
C1074 C1075 1.287 . S
C1075 C1074 1.287 . S
C1075 C1076 1.524 . S
C1075 H1078 0.999 . S
C1076 H1046 0.950 . S
C1076 C1075 1.524 . S
C1076 C1077 1.415 . S
C1077 H1047 0.950 . S
C1077 C1072 1.363 . S
C1077 C1076 1.415 . S
H1078 C1075 0.999 . S
H1079 C1060 0.913 . S
H1080 C1098 0.951 . S
H1081 C1100 0.951 1_545 S
H1082 C1102 0.950 . S
H1083 C1103 0.950 . S
H1084 C1105 0.950 . S
H1085 C1108 0.950 . S
H1086 C1109 0.950 1_565 S
H1087 C1111 0.950 . S
H1088 C1112 0.950 . S
H1089 C1113 0.951 . S
H1090 C1115 0.951 1_565 S
H1091 C1117 0.950 . S
H1092 C1118 0.950 . S
H1093 C1120 0.950 . S
H1094 C1123 0.950 . S
H1095 C1124 0.950 1_545 S
H1096 C1126 0.950 . S
H1097 C1127 0.950 . S
C1098 H1080 0.951 . S
C1098 C1099 1.366 . S
C1098 C1100 1.388 . S
C1099 C1098 1.366 . S
C1099 C1103 1.385 . S
C1100 H1081 0.951 1_565 S
C1100 C1098 1.388 . S
C1100 C1101 1.366 . S
C1101 C1100 1.366 . S
C1101 C1102 1.414 . S
C1101 C1104 1.499 . S
C1102 H1082 0.950 . S
C1102 C1101 1.414 . S
C1102 C1103 1.374 . S
C1103 H1083 0.950 . S
C1103 C1099 1.385 . S
C1103 C1102 1.374 . S
C1104 C1101 1.499 . S
C1104 C1105 1.373 . S
C1104 C1106 1.389 1_565 S
C1105 H1084 0.950 . S
C1105 C1104 1.373 . S
C1105 C1121 1.377 1_556 S
C1106 C1104 1.389 1_545 S
C1106 C1107 1.524 . S
C1106 C1120 1.377 1_556 S
C1107 C1106 1.524 . S
C1107 C1108 1.397 1_545 S
C1107 C1112 1.363 . S
C1108 H1085 0.950 . S
C1108 C1107 1.397 1_565 S
C1108 C1109 1.334 1_565 S
C1109 H1086 0.950 1_545 S
C1109 C1108 1.334 1_545 S
C1109 C1110 1.287 . S
C1110 C1109 1.287 . S
C1110 C1111 1.524 . S
C1110 H1129 0.913 . S
C1111 H1087 0.950 . S
C1111 C1110 1.524 . S
C1111 C1112 1.415 . S
C1112 H1088 0.950 . S
C1112 C1107 1.363 . S
C1112 C1111 1.415 . S
C1113 H1089 0.951 . S
C1113 C1114 1.366 . S
C1113 C1115 1.388 . S
C1114 C1113 1.366 . S
C1114 C1118 1.385 . S
C1115 H1090 0.951 1_545 S
C1115 C1113 1.388 . S
C1115 C1116 1.366 . S
C1116 C1115 1.366 . S
C1116 C1117 1.414 . S
C1116 C1119 1.499 . S
C1117 H1091 0.950 . S
C1117 C1116 1.414 . S
C1117 C1118 1.374 . S
C1118 H1092 0.950 . S
C1118 C1114 1.385 . S
C1118 C1117 1.374 . S
C1119 C1116 1.499 . S
C1119 C1120 1.373 . S
C1119 C1121 1.389 1_545 S
C1120 H1093 0.950 . S
C1120 C1106 1.377 1_554 S
C1120 C1119 1.373 . S
C1121 C1105 1.377 1_554 S
C1121 C1119 1.389 1_565 S
C1121 C1122 1.524 . S
C1122 C1121 1.524 . S
C1122 C1123 1.397 1_565 S
C1122 C1127 1.363 . S
C1123 H1094 0.950 . S
C1123 C1122 1.397 1_545 S
C1123 C1124 1.334 1_545 S
C1124 H1095 0.950 1_565 S
C1124 C1123 1.334 1_565 S
C1124 C1125 1.287 . S
C1125 C1124 1.287 . S
C1125 C1126 1.524 . S
C1125 H1128 0.999 . S
C1126 H1096 0.950 . S
C1126 C1125 1.524 . S
C1126 C1127 1.415 . S
C1127 H1097 0.950 . S
C1127 C1122 1.363 . S
C1127 C1126 1.415 . S
H1128 C1125 0.999 . S
H1129 C1110 0.913 . S
H1130 C1148 0.951 . S
H1131 C1150 0.951 . S
H1132 C1152 0.950 . S
H1133 C1153 0.950 . S
H1134 C1155 0.950 . S
H1135 C1158 0.950 . S
H1136 C1159 0.950 . S
H1137 C1161 0.950 . S
H1138 C1162 0.950 . S
H1139 C1163 0.951 . S
H1140 C1165 0.951 . S
H1141 C1167 0.950 . S
H1142 C1168 0.950 . S
H1143 C1170 0.950 . S
H1144 C1173 0.950 . S
H1145 C1174 0.950 . S
H1146 C1176 0.950 . S
H1147 C1177 0.950 . S
C1148 H1130 0.951 . S
C1148 C1149 1.366 . S
C1148 C1150 1.388 . S
C1149 C1148 1.366 . S
C1149 C1153 1.385 . S
C1150 H1131 0.951 . S
C1150 C1148 1.388 . S
C1150 C1151 1.366 . S
C1151 C1150 1.366 . S
C1151 C1152 1.414 . S
C1151 C1154 1.499 . S
C1152 H1132 0.950 . S
C1152 C1151 1.414 . S
C1152 C1153 1.374 . S
C1153 H1133 0.950 . S
C1153 C1149 1.385 . S
C1153 C1152 1.374 . S
C1154 C1151 1.499 . S
C1154 C1155 1.373 . S
C1154 C1156 1.389 . S
C1155 H1134 0.950 . S
C1155 C1154 1.373 . S
C1155 C1171 1.377 . S
C1156 C1154 1.389 . S
C1156 C1157 1.524 . S
C1156 C1170 1.377 . S
C1157 C1156 1.524 . S
C1157 C1158 1.397 . S
C1157 C1162 1.363 . S
C1158 H1135 0.950 . S
C1158 C1157 1.397 . S
C1158 C1159 1.334 . S
C1159 H1136 0.950 . S
C1159 C1158 1.334 . S
C1159 C1160 1.287 . S
C1160 C1159 1.287 . S
C1160 C1161 1.524 . S
C1160 H1179 0.913 . S
C1161 H1137 0.950 . S
C1161 C1160 1.524 . S
C1161 C1162 1.415 . S
C1162 H1138 0.950 . S
C1162 C1157 1.363 . S
C1162 C1161 1.415 . S
C1163 H1139 0.951 . S
C1163 C1164 1.366 . S
C1163 C1165 1.388 . S
C1164 C1163 1.366 . S
C1164 C1168 1.385 . S
C1165 H1140 0.951 . S
C1165 C1163 1.388 . S
C1165 C1166 1.366 . S
C1166 C1165 1.366 . S
C1166 C1167 1.414 . S
C1166 C1169 1.499 . S
C1167 H1141 0.950 . S
C1167 C1166 1.414 . S
C1167 C1168 1.374 . S
C1168 H1142 0.950 . S
C1168 C1164 1.385 . S
C1168 C1167 1.374 . S
C1169 C1166 1.499 . S
C1169 C1170 1.373 . S
C1169 C1171 1.389 . S
C1170 H1143 0.950 . S
C1170 C1156 1.377 . S
C1170 C1169 1.373 . S
C1171 C1155 1.377 . S
C1171 C1169 1.389 . S
C1171 C1172 1.524 . S
C1172 C1171 1.524 . S
C1172 C1173 1.397 . S
C1172 C1177 1.363 . S
C1173 H1144 0.950 . S
C1173 C1172 1.397 . S
C1173 C1174 1.334 . S
C1174 H1145 0.950 . S
C1174 C1173 1.334 . S
C1174 C1175 1.287 . S
C1175 C1174 1.287 . S
C1175 C1176 1.524 . S
C1175 H1178 0.999 . S
C1176 H1146 0.950 . S
C1176 C1175 1.524 . S
C1176 C1177 1.415 . S
C1177 H1147 0.950 . S
C1177 C1172 1.363 . S
C1177 C1176 1.415 . S
H1178 C1175 0.999 . S
H1179 C1160 0.913 . S
H1180 C1198 0.951 . S
H1181 C1200 0.951 . S
H1182 C1202 0.950 . S
H1183 C1203 0.950 . S
H1184 C1205 0.950 . S
H1185 C1208 0.950 . S
H1186 C1209 0.950 . S
H1187 C1211 0.950 . S
H1188 C1212 0.950 . S
H1189 C1213 0.951 . S
H1190 C1215 0.951 . S
H1191 C1217 0.950 . S
H1192 C1218 0.950 . S
H1193 C1220 0.950 . S
H1194 C1223 0.950 . S
H1195 C1224 0.950 . S
H1196 C1226 0.950 . S
H1197 C1227 0.950 . S
C1198 H1180 0.951 . S
C1198 C1199 1.366 . S
C1198 C1200 1.388 . S
C1199 C1198 1.366 . S
C1199 C1203 1.385 . S
C1200 H1181 0.951 . S
C1200 C1198 1.388 . S
C1200 C1201 1.366 . S
C1201 C1200 1.366 . S
C1201 C1202 1.414 . S
C1201 C1204 1.499 . S
C1202 H1182 0.950 . S
C1202 C1201 1.414 . S
C1202 C1203 1.374 . S
C1203 H1183 0.950 . S
C1203 C1199 1.385 . S
C1203 C1202 1.374 . S
C1204 C1201 1.499 . S
C1204 C1205 1.373 . S
C1204 C1206 1.389 . S
C1205 H1184 0.950 . S
C1205 C1204 1.373 . S
C1205 C1221 1.377 1_455 S
C1206 C1204 1.389 . S
C1206 C1207 1.524 . S
C1206 C1220 1.377 1_455 S
C1207 C1206 1.524 . S
C1207 C1208 1.397 1_455 S
C1207 C1212 1.363 . S
C1208 H1185 0.950 . S
C1208 C1207 1.397 1_655 S
C1208 C1209 1.334 . S
C1209 H1186 0.950 . S
C1209 C1208 1.334 . S
C1209 C1210 1.287 1_655 S
C1210 C1209 1.287 1_455 S
C1210 C1211 1.524 . S
C1210 H1229 0.913 . S
C1211 H1187 0.950 . S
C1211 C1210 1.524 . S
C1211 C1212 1.415 . S
C1212 H1188 0.950 . S
C1212 C1207 1.363 . S
C1212 C1211 1.415 . S
C1213 H1189 0.951 . S
C1213 C1214 1.366 . S
C1213 C1215 1.388 . S
C1214 C1213 1.366 . S
C1214 C1218 1.385 . S
C1215 H1190 0.951 . S
C1215 C1213 1.388 . S
C1215 C1216 1.366 . S
C1216 C1215 1.366 . S
C1216 C1217 1.414 . S
C1216 C1219 1.499 . S
C1217 H1191 0.950 . S
C1217 C1216 1.414 . S
C1217 C1218 1.374 . S
C1218 H1192 0.950 . S
C1218 C1214 1.385 . S
C1218 C1217 1.374 . S
C1219 C1216 1.499 . S
C1219 C1220 1.373 . S
C1219 C1221 1.389 . S
C1220 H1193 0.950 . S
C1220 C1206 1.377 1_655 S
C1220 C1219 1.373 . S
C1221 C1205 1.377 1_655 S
C1221 C1219 1.389 . S
C1221 C1222 1.524 . S
C1222 C1221 1.524 . S
C1222 C1223 1.397 1_655 S
C1222 C1227 1.363 . S
C1223 H1194 0.950 . S
C1223 C1222 1.397 1_455 S
C1223 C1224 1.334 . S
C1224 H1195 0.950 . S
C1224 C1223 1.334 . S
C1224 C1225 1.287 1_455 S
C1225 C1224 1.287 1_655 S
C1225 C1226 1.524 . S
C1225 H1228 0.999 . S
C1226 H1196 0.950 . S
C1226 C1225 1.524 . S
C1226 C1227 1.415 . S
C1227 H1197 0.950 . S
C1227 C1222 1.363 . S
C1227 C1226 1.415 . S
H1228 C1225 0.999 . S
H1229 C1210 0.913 . S
H1230 C1248 0.951 . S
H1231 C1250 0.951 . S
H1232 C1252 0.950 . S
H1233 C1253 0.950 . S
H1234 C1255 0.950 . S
H1235 C1258 0.950 . S
H1236 C1259 0.950 . S
H1237 C1261 0.950 . S
H1238 C1262 0.950 . S
H1239 C1263 0.951 . S
H1240 C1265 0.951 . S
H1241 C1267 0.950 . S
H1242 C1268 0.950 . S
H1243 C1270 0.950 . S
H1244 C1273 0.950 . S
H1245 C1274 0.950 . S
H1246 C1276 0.950 . S
H1247 C1277 0.950 . S
C1248 H1230 0.951 . S
C1248 C1249 1.366 . S
C1248 C1250 1.388 . S
C1249 C1248 1.366 . S
C1249 C1253 1.385 . S
C1250 H1231 0.951 . S
C1250 C1248 1.388 . S
C1250 C1251 1.366 . S
C1251 C1250 1.366 . S
C1251 C1252 1.414 . S
C1251 C1254 1.499 . S
C1252 H1232 0.950 . S
C1252 C1251 1.414 . S
C1252 C1253 1.374 . S
C1253 H1233 0.950 . S
C1253 C1249 1.385 . S
C1253 C1252 1.374 . S
C1254 C1251 1.499 . S
C1254 C1255 1.373 . S
C1254 C1256 1.389 . S
C1255 H1234 0.950 . S
C1255 C1254 1.373 . S
C1255 C1271 1.377 1_564 S
C1256 C1254 1.389 . S
C1256 C1257 1.524 . S
C1256 C1270 1.377 1_564 S
C1257 C1256 1.524 . S
C1257 C1258 1.397 . S
C1257 C1262 1.363 1_565 S
C1258 H1235 0.950 . S
C1258 C1257 1.397 . S
C1258 C1259 1.334 . S
C1259 H1236 0.950 . S
C1259 C1258 1.334 . S
C1259 C1260 1.287 . S
C1260 C1259 1.287 . S
C1260 C1261 1.524 1_565 S
C1260 H1279 0.913 . S
C1261 H1237 0.950 . S
C1261 C1260 1.524 1_545 S
C1261 C1262 1.415 . S
C1262 H1238 0.950 . S
C1262 C1257 1.363 1_545 S
C1262 C1261 1.415 . S
C1263 H1239 0.951 . S
C1263 C1264 1.366 . S
C1263 C1265 1.388 . S
C1264 C1263 1.366 . S
C1264 C1268 1.385 . S
C1265 H1240 0.951 . S
C1265 C1263 1.388 . S
C1265 C1266 1.366 . S
C1266 C1265 1.366 . S
C1266 C1267 1.414 . S
C1266 C1269 1.499 . S
C1267 H1241 0.950 . S
C1267 C1266 1.414 . S
C1267 C1268 1.374 . S
C1268 H1242 0.950 . S
C1268 C1264 1.385 . S
C1268 C1267 1.374 . S
C1269 C1266 1.499 . S
C1269 C1270 1.373 . S
C1269 C1271 1.389 . S
C1270 H1243 0.950 . S
C1270 C1256 1.377 1_546 S
C1270 C1269 1.373 . S
C1271 C1255 1.377 1_546 S
C1271 C1269 1.389 . S
C1271 C1272 1.524 . S
C1272 C1271 1.524 . S
C1272 C1273 1.397 . S
C1272 C1277 1.363 1_545 S
C1273 H1244 0.950 . S
C1273 C1272 1.397 . S
C1273 C1274 1.334 . S
C1274 H1245 0.950 . S
C1274 C1273 1.334 . S
C1274 C1275 1.287 . S
C1275 C1274 1.287 . S
C1275 C1276 1.524 1_545 S
C1275 H1278 0.999 . S
C1276 H1246 0.950 . S
C1276 C1275 1.524 1_565 S
C1276 C1277 1.415 . S
C1277 H1247 0.950 . S
C1277 C1272 1.363 1_565 S
C1277 C1276 1.415 . S
H1278 C1275 0.999 . S
H1279 C1260 0.913 . S
H1280 C1298 0.951 . S
H1281 C1300 0.951 . S
H1282 C1302 0.950 . S
H1283 C1303 0.950 . S
H1284 C1305 0.950 . S
H1285 C1308 0.950 . S
H1286 C1309 0.950 . S
H1287 C1311 0.950 . S
H1288 C1312 0.950 . S
H1289 C1313 0.951 . S
H1290 C1315 0.951 . S
H1291 C1317 0.950 . S
H1292 C1318 0.950 . S
H1293 C1320 0.950 . S
H1294 C1323 0.950 . S
H1295 C1324 0.950 . S
H1296 C1326 0.950 . S
H1297 C1327 0.950 . S
C1298 H1280 0.951 . S
C1298 C1299 1.366 . S
C1298 C1300 1.388 . S
C1299 C1298 1.366 . S
C1299 C1303 1.385 . S
C1300 H1281 0.951 . S
C1300 C1298 1.388 . S
C1300 C1301 1.366 . S
C1301 C1300 1.366 . S
C1301 C1302 1.414 . S
C1301 C1304 1.499 . S
C1302 H1282 0.950 . S
C1302 C1301 1.414 . S
C1302 C1303 1.374 . S
C1303 H1283 0.950 . S
C1303 C1299 1.385 . S
C1303 C1302 1.374 . S
C1304 C1301 1.499 . S
C1304 C1305 1.373 . S
C1304 C1306 1.389 . S
C1305 H1284 0.950 . S
C1305 C1304 1.373 . S
C1305 C1321 1.377 . S
C1306 C1304 1.389 . S
C1306 C1307 1.524 . S
C1306 C1320 1.377 . S
C1307 C1306 1.524 . S
C1307 C1308 1.397 . S
C1307 C1312 1.363 . S
C1308 H1285 0.950 . S
C1308 C1307 1.397 . S
C1308 C1309 1.334 . S
C1309 H1286 0.950 . S
C1309 C1308 1.334 . S
C1309 C1310 1.287 . S
C1310 C1309 1.287 . S
C1310 C1311 1.524 . S
C1310 H1329 0.913 . S
C1311 H1287 0.950 . S
C1311 C1310 1.524 . S
C1311 C1312 1.415 . S
C1312 H1288 0.950 . S
C1312 C1307 1.363 . S
C1312 C1311 1.415 . S
C1313 H1289 0.951 . S
C1313 C1314 1.366 . S
C1313 C1315 1.388 . S
C1314 C1313 1.366 . S
C1314 C1318 1.385 . S
C1315 H1290 0.951 . S
C1315 C1313 1.388 . S
C1315 C1316 1.366 . S
C1316 C1315 1.366 . S
C1316 C1317 1.414 . S
C1316 C1319 1.499 . S
C1317 H1291 0.950 . S
C1317 C1316 1.414 . S
C1317 C1318 1.374 . S
C1318 H1292 0.950 . S
C1318 C1314 1.385 . S
C1318 C1317 1.374 . S
C1319 C1316 1.499 . S
C1319 C1320 1.373 . S
C1319 C1321 1.389 . S
C1320 H1293 0.950 . S
C1320 C1306 1.377 . S
C1320 C1319 1.373 . S
C1321 C1305 1.377 . S
C1321 C1319 1.389 . S
C1321 C1322 1.524 . S
C1322 C1321 1.524 . S
C1322 C1323 1.397 . S
C1322 C1327 1.363 . S
C1323 H1294 0.950 . S
C1323 C1322 1.397 . S
C1323 C1324 1.334 . S
C1324 H1295 0.950 . S
C1324 C1323 1.334 . S
C1324 C1325 1.287 . S
C1325 C1324 1.287 . S
C1325 C1326 1.524 . S
C1325 H1328 0.999 . S
C1326 H1296 0.950 . S
C1326 C1325 1.524 . S
C1326 C1327 1.415 . S
C1327 H1297 0.950 . S
C1327 C1322 1.363 . S
C1327 C1326 1.415 . S
H1328 C1325 0.999 . S
H1329 C1310 0.913 . S
H1330 C1348 0.951 . S
H1331 C1350 0.951 . S
H1332 C1352 0.950 . S
H1333 C1353 0.950 . S
H1334 C1355 0.950 . S
H1335 C1358 0.950 . S
H1336 C1359 0.950 . S
H1337 C1361 0.950 . S
H1338 C1362 0.950 . S
H1339 C1363 0.951 . S
H1340 C1365 0.951 . S
H1341 C1367 0.950 . S
H1342 C1368 0.950 . S
H1343 C1370 0.950 . S
H1344 C1373 0.950 . S
H1345 C1374 0.950 . S
H1346 C1376 0.950 . S
H1347 C1377 0.950 . S
C1348 H1330 0.951 . S
C1348 C1349 1.366 . S
C1348 C1350 1.388 . S
C1349 C1348 1.366 . S
C1349 C1353 1.385 . S
C1350 H1331 0.951 . S
C1350 C1348 1.388 . S
C1350 C1351 1.366 . S
C1351 C1350 1.366 . S
C1351 C1352 1.414 . S
C1351 C1354 1.499 . S
C1352 H1332 0.950 . S
C1352 C1351 1.414 . S
C1352 C1353 1.374 . S
C1353 H1333 0.950 . S
C1353 C1349 1.385 . S
C1353 C1352 1.374 . S
C1354 C1351 1.499 . S
C1354 C1355 1.373 1_455 S
C1354 C1356 1.389 . S
C1355 H1334 0.950 . S
C1355 C1354 1.373 1_655 S
C1355 C1371 1.377 . S
C1356 C1354 1.389 . S
C1356 C1357 1.524 . S
C1356 C1370 1.377 . S
C1357 C1356 1.524 . S
C1357 C1358 1.397 . S
C1357 C1362 1.363 . S
C1358 H1335 0.950 . S
C1358 C1357 1.397 . S
C1358 C1359 1.334 . S
C1359 H1336 0.950 . S
C1359 C1358 1.334 . S
C1359 C1360 1.287 . S
C1360 C1359 1.287 . S
C1360 C1361 1.524 . S
C1360 H1379 0.913 . S
C1361 H1337 0.950 . S
C1361 C1360 1.524 . S
C1361 C1362 1.415 . S
C1362 H1338 0.950 . S
C1362 C1357 1.363 . S
C1362 C1361 1.415 . S
C1363 H1339 0.951 . S
C1363 C1364 1.366 . S
C1363 C1365 1.388 . S
C1364 C1363 1.366 . S
C1364 C1368 1.385 . S
C1365 H1340 0.951 . S
C1365 C1363 1.388 . S
C1365 C1366 1.366 . S
C1366 C1365 1.366 . S
C1366 C1367 1.414 . S
C1366 C1369 1.499 . S
C1367 H1341 0.950 . S
C1367 C1366 1.414 . S
C1367 C1368 1.374 . S
C1368 H1342 0.950 . S
C1368 C1364 1.385 . S
C1368 C1367 1.374 . S
C1369 C1366 1.499 . S
C1369 C1370 1.373 1_655 S
C1369 C1371 1.389 . S
C1370 H1343 0.950 . S
C1370 C1356 1.377 . S
C1370 C1369 1.373 1_455 S
C1371 C1355 1.377 . S
C1371 C1369 1.389 . S
C1371 C1372 1.524 . S
C1372 C1371 1.524 . S
C1372 C1373 1.397 . S
C1372 C1377 1.363 . S
C1373 H1344 0.950 . S
C1373 C1372 1.397 . S
C1373 C1374 1.334 . S
C1374 H1345 0.950 . S
C1374 C1373 1.334 . S
C1374 C1375 1.287 . S
C1375 C1374 1.287 . S
C1375 C1376 1.524 . S
C1375 H1378 0.999 . S
C1376 H1346 0.950 . S
C1376 C1375 1.524 . S
C1376 C1377 1.415 . S
C1377 H1347 0.950 . S
C1377 C1372 1.363 . S
C1377 C1376 1.415 . S
H1378 C1375 0.999 . S
H1379 C1360 0.913 . S
H1380 C1398 0.951 . S
H1381 C1400 0.951 . S
H1382 C1402 0.950 . S
H1383 C1403 0.950 . S
H1384 C1405 0.950 . S
H1385 C1408 0.950 . S
H1386 C1409 0.950 . S
H1387 C1411 0.950 . S
H1388 C1412 0.950 . S
H1389 C1413 0.951 . S
H1390 C1415 0.951 . S
H1391 C1417 0.950 . S
H1392 C1418 0.950 . S
H1393 C1420 0.950 . S
H1394 C1423 0.950 . S
H1395 C1424 0.950 . S
H1396 C1426 0.950 . S
H1397 C1427 0.950 . S
C1398 H1380 0.951 . S
C1398 C1399 1.366 . S
C1398 C1400 1.388 . S
C1399 C1398 1.366 . S
C1399 C1403 1.385 . S
C1400 H1381 0.951 . S
C1400 C1398 1.388 . S
C1400 C1401 1.366 . S
C1401 C1400 1.366 . S
C1401 C1402 1.414 . S
C1401 C1404 1.499 . S
C1402 H1382 0.950 . S
C1402 C1401 1.414 . S
C1402 C1403 1.374 . S
C1403 H1383 0.950 . S
C1403 C1399 1.385 . S
C1403 C1402 1.374 . S
C1404 C1401 1.499 . S
C1404 C1405 1.373 1_545 S
C1404 C1406 1.389 . S
C1405 H1384 0.950 . S
C1405 C1404 1.373 1_565 S
C1405 C1421 1.377 . S
C1406 C1404 1.389 . S
C1406 C1407 1.524 . S
C1406 C1420 1.377 . S
C1407 C1406 1.524 . S
C1407 C1408 1.397 . S
C1407 C1412 1.363 . S
C1408 H1385 0.950 . S
C1408 C1407 1.397 . S
C1408 C1409 1.334 . S
C1409 H1386 0.950 . S
C1409 C1408 1.334 . S
C1409 C1410 1.287 . S
C1410 C1409 1.287 . S
C1410 C1411 1.524 . S
C1410 H1429 0.913 . S
C1411 H1387 0.950 . S
C1411 C1410 1.524 . S
C1411 C1412 1.415 . S
C1412 H1388 0.950 . S
C1412 C1407 1.363 . S
C1412 C1411 1.415 . S
C1413 H1389 0.951 . S
C1413 C1414 1.366 . S
C1413 C1415 1.388 . S
C1414 C1413 1.366 . S
C1414 C1418 1.385 . S
C1415 H1390 0.951 . S
C1415 C1413 1.388 . S
C1415 C1416 1.366 . S
C1416 C1415 1.366 . S
C1416 C1417 1.414 . S
C1416 C1419 1.499 . S
C1417 H1391 0.950 . S
C1417 C1416 1.414 . S
C1417 C1418 1.374 . S
C1418 H1392 0.950 . S
C1418 C1414 1.385 . S
C1418 C1417 1.374 . S
C1419 C1416 1.499 . S
C1419 C1420 1.373 1_565 S
C1419 C1421 1.389 . S
C1420 H1393 0.950 . S
C1420 C1406 1.377 . S
C1420 C1419 1.373 1_545 S
C1421 C1405 1.377 . S
C1421 C1419 1.389 . S
C1421 C1422 1.524 . S
C1422 C1421 1.524 . S
C1422 C1423 1.397 . S
C1422 C1427 1.363 . S
C1423 H1394 0.950 . S
C1423 C1422 1.397 . S
C1423 C1424 1.334 . S
C1424 H1395 0.950 . S
C1424 C1423 1.334 . S
C1424 C1425 1.287 . S
C1425 C1424 1.287 . S
C1425 C1426 1.524 . S
C1425 H1428 0.999 . S
C1426 H1396 0.950 . S
C1426 C1425 1.524 . S
C1426 C1427 1.415 . S
C1427 H1397 0.950 . S
C1427 C1422 1.363 . S
C1427 C1426 1.415 . S
H1428 C1425 0.999 . S
H1429 C1410 0.913 . S
H1430 C1448 0.951 . S
H1431 C1450 0.951 . S
H1432 C1452 0.950 . S
H1433 C1453 0.950 . S
H1434 C1455 0.950 . S
H1435 C1458 0.950 . S
H1436 C1459 0.950 . S
H1437 C1461 0.950 . S
H1438 C1462 0.950 . S
H1439 C1463 0.951 . S
H1440 C1465 0.951 . S
H1441 C1467 0.950 . S
H1442 C1468 0.950 . S
H1443 C1470 0.950 . S
H1444 C1473 0.950 . S
H1445 C1474 0.950 . S
H1446 C1476 0.950 . S
H1447 C1477 0.950 . S
C1448 H1430 0.951 . S
C1448 C1449 1.366 . S
C1448 C1450 1.388 . S
C1449 C1448 1.366 . S
C1449 C1453 1.385 . S
C1450 H1431 0.951 . S
C1450 C1448 1.388 . S
C1450 C1451 1.366 . S
C1451 C1450 1.366 . S
C1451 C1452 1.414 . S
C1451 C1454 1.499 . S
C1452 H1432 0.950 . S
C1452 C1451 1.414 . S
C1452 C1453 1.374 . S
C1453 H1433 0.950 . S
C1453 C1449 1.385 . S
C1453 C1452 1.374 . S
C1454 C1451 1.499 . S
C1454 C1455 1.373 . S
C1454 C1456 1.389 . S
C1455 H1434 0.950 . S
C1455 C1454 1.373 . S
C1455 C1471 1.377 . S
C1456 C1454 1.389 . S
C1456 C1457 1.524 . S
C1456 C1470 1.377 . S
C1457 C1456 1.524 . S
C1457 C1458 1.397 . S
C1457 C1462 1.363 . S
C1458 H1435 0.950 . S
C1458 C1457 1.397 . S
C1458 C1459 1.334 . S
C1459 H1436 0.950 . S
C1459 C1458 1.334 . S
C1459 C1460 1.287 . S
C1460 C1459 1.287 . S
C1460 C1461 1.524 . S
C1460 H1479 0.913 . S
C1461 H1437 0.950 . S
C1461 C1460 1.524 . S
C1461 C1462 1.415 . S
C1462 H1438 0.950 . S
C1462 C1457 1.363 . S
C1462 C1461 1.415 . S
C1463 H1439 0.951 . S
C1463 C1464 1.366 . S
C1463 C1465 1.388 . S
C1464 C1463 1.366 . S
C1464 C1468 1.385 . S
C1465 H1440 0.951 . S
C1465 C1463 1.388 . S
C1465 C1466 1.366 . S
C1466 C1465 1.366 . S
C1466 C1467 1.414 . S
C1466 C1469 1.499 . S
C1467 H1441 0.950 . S
C1467 C1466 1.414 . S
C1467 C1468 1.374 . S
C1468 H1442 0.950 . S
C1468 C1464 1.385 . S
C1468 C1467 1.374 . S
C1469 C1466 1.499 . S
C1469 C1470 1.373 . S
C1469 C1471 1.389 . S
C1470 H1443 0.950 . S
C1470 C1456 1.377 . S
C1470 C1469 1.373 . S
C1471 C1455 1.377 . S
C1471 C1469 1.389 . S
C1471 C1472 1.524 . S
C1472 C1471 1.524 . S
C1472 C1473 1.397 . S
C1472 C1477 1.363 . S
C1473 H1444 0.950 . S
C1473 C1472 1.397 . S
C1473 C1474 1.334 . S
C1474 H1445 0.950 . S
C1474 C1473 1.334 . S
C1474 C1475 1.287 . S
C1475 C1474 1.287 . S
C1475 C1476 1.524 . S
C1475 H1478 0.999 . S
C1476 H1446 0.950 . S
C1476 C1475 1.524 . S
C1476 C1477 1.415 . S
C1477 H1447 0.950 . S
C1477 C1472 1.363 . S
C1477 C1476 1.415 . S
H1478 C1475 0.999 . S
H1479 C1460 0.913 . S
H1480 C1498 0.951 . S
H1481 C1500 0.951 . S
H1482 C1502 0.950 . S
H1483 C1503 0.950 . S
H1484 C1505 0.950 . S
H1485 C1508 0.950 . S
H1486 C1509 0.950 . S
H1487 C1511 0.950 . S
H1488 C1512 0.950 . S
H1489 C1513 0.951 . S
H1490 C1515 0.951 . S
H1491 C1517 0.950 . S
H1492 C1518 0.950 . S
H1493 C1520 0.950 . S
H1494 C1523 0.950 . S
H1495 C1524 0.950 . S
H1496 C1526 0.950 . S
H1497 C1527 0.951 . S
C1498 H1480 0.951 . S
C1498 C1499 1.366 . S
C1498 C1500 1.388 . S
C1499 C1498 1.366 . S
C1499 C1503 1.385 . S
C1500 H1481 0.951 . S
C1500 C1498 1.388 . S
C1500 C1501 1.366 . S
C1501 C1500 1.366 . S
C1501 C1502 1.414 . S
C1501 C1504 1.499 . S
C1502 H1482 0.950 . S
C1502 C1501 1.414 . S
C1502 C1503 1.374 . S
C1503 H1483 0.950 . S
C1503 C1499 1.385 . S
C1503 C1502 1.374 . S
C1504 C1501 1.499 . S
C1504 C1505 1.373 . S
C1504 C1506 1.389 . S
C1505 H1484 0.950 . S
C1505 C1504 1.373 . S
C1505 C1521 1.377 1_655 S
C1506 C1504 1.389 . S
C1506 C1507 1.524 . S
C1506 C1520 1.377 1_655 S
C1507 C1506 1.524 . S
C1507 C1508 1.397 1_655 S
C1507 C1512 1.363 . S
C1508 H1485 0.950 . S
C1508 C1507 1.397 1_455 S
C1508 C1509 1.334 . S
C1509 H1486 0.950 . S
C1509 C1508 1.334 . S
C1509 C1510 1.287 . S
C1510 C1509 1.287 . S
C1510 C1511 1.524 1_455 S
C1510 H1529 0.913 . S
C1511 H1487 0.950 . S
C1511 C1510 1.524 1_655 S
C1511 C1512 1.415 . S
C1512 H1488 0.950 . S
C1512 C1507 1.363 . S
C1512 C1511 1.415 . S
C1513 H1489 0.951 . S
C1513 C1514 1.366 . S
C1513 C1515 1.388 . S
C1514 C1513 1.366 . S
C1514 C1518 1.385 . S
C1515 H1490 0.951 . S
C1515 C1513 1.388 . S
C1515 C1516 1.366 . S
C1516 C1515 1.366 . S
C1516 C1517 1.414 . S
C1516 C1519 1.499 . S
C1517 H1491 0.950 . S
C1517 C1516 1.414 . S
C1517 C1518 1.374 . S
C1518 H1492 0.950 . S
C1518 C1514 1.385 . S
C1518 C1517 1.374 . S
C1519 C1516 1.499 . S
C1519 C1520 1.373 . S
C1519 C1521 1.389 . S
C1520 H1493 0.950 . S
C1520 C1506 1.377 1_455 S
C1520 C1519 1.373 . S
C1521 C1505 1.377 1_455 S
C1521 C1519 1.389 . S
C1521 C1522 1.524 . S
C1522 C1521 1.524 . S
C1522 C1523 1.397 1_455 S
C1522 C1527 1.363 . S
C1523 H1494 0.950 . S
C1523 C1522 1.397 1_655 S
C1523 C1524 1.334 . S
C1524 H1495 0.950 . S
C1524 C1523 1.334 . S
C1524 C1525 1.287 1_556 S
C1525 C1524 1.287 1_554 S
C1525 C1526 1.524 1_655 S
C1525 H1528 0.999 . S
C1526 H1496 0.950 . S
C1526 C1525 1.524 1_455 S
C1526 C1527 1.415 1_554 S
C1527 H1497 0.951 . S
C1527 C1522 1.363 . S
C1527 C1526 1.415 1_556 S
H1528 C1525 0.999 . S
H1529 C1510 0.913 . S
H1530 C1548 0.951 . S
H1531 C1550 0.951 . S
H1532 C1552 0.950 . S
H1533 C1553 0.950 . S
H1534 C1555 0.940 . S
H1535 C1558 0.950 . S
H1536 C1559 0.950 . S
H1537 C1561 0.950 . S
H1538 C1562 0.950 . S
H1539 C1563 0.951 . S
H1540 C1565 0.951 . S
H1541 C1567 0.950 . S
H1542 C1568 0.950 . S
H1543 C1570 0.940 . S
H1544 C1573 0.950 . S
H1545 C1574 0.950 . S
H1546 C1576 0.950 . S
H1547 C1577 0.950 . S
C1548 H1530 0.951 . S
C1548 C1549 1.366 . S
C1548 C1550 1.388 . S
C1549 C1548 1.366 . S
C1549 C1553 1.385 . S
C1550 H1531 0.951 . S
C1550 C1548 1.388 . S
C1550 C1551 1.366 . S
C1551 C1550 1.366 . S
C1551 C1552 1.414 . S
C1551 C1554 1.499 . S
C1552 H1532 0.950 . S
C1552 C1551 1.414 . S
C1552 C1553 1.374 . S
C1553 H1533 0.950 . S
C1553 C1549 1.385 . S
C1553 C1552 1.374 . S
C1554 C1551 1.499 . S
C1554 C1555 1.355 1_455 S
C1554 C1556 1.389 . S
C1555 H1534 0.940 . S
C1555 C1554 1.355 1_655 S
C1555 C1571 1.406 . S
C1556 C1554 1.389 . S
C1556 C1557 1.524 . S
C1556 C1570 1.406 . S
C1557 C1556 1.524 . S
C1557 C1558 1.397 . S
C1557 C1562 1.363 . S
C1558 H1535 0.950 . S
C1558 C1557 1.397 . S
C1558 C1559 1.334 . S
C1559 H1536 0.950 . S
C1559 C1558 1.334 . S
C1559 C1560 1.287 . S
C1560 C1559 1.287 . S
C1560 C1561 1.524 . S
C1560 H1579 0.913 . S
C1561 H1537 0.950 . S
C1561 C1560 1.524 . S
C1561 C1562 1.415 . S
C1562 H1538 0.950 . S
C1562 C1557 1.363 . S
C1562 C1561 1.415 . S
C1563 H1539 0.951 . S
C1563 C1564 1.366 . S
C1563 C1565 1.388 . S
C1564 C1563 1.366 . S
C1564 C1568 1.385 . S
C1565 H1540 0.951 . S
C1565 C1563 1.388 . S
C1565 C1566 1.366 . S
C1566 C1565 1.366 . S
C1566 C1567 1.414 . S
C1566 C1569 1.499 . S
C1567 H1541 0.950 . S
C1567 C1566 1.414 . S
C1567 C1568 1.374 . S
C1568 H1542 0.950 . S
C1568 C1564 1.385 . S
C1568 C1567 1.374 . S
C1569 C1566 1.499 . S
C1569 C1570 1.355 1_655 S
C1569 C1571 1.389 . S
C1570 H1543 0.940 . S
C1570 C1556 1.406 . S
C1570 C1569 1.355 1_455 S
C1571 C1555 1.406 . S
C1571 C1569 1.389 . S
C1571 C1572 1.524 . S
C1572 C1571 1.524 . S
C1572 C1573 1.397 . S
C1572 C1577 1.363 . S
C1573 H1544 0.950 . S
C1573 C1572 1.397 . S
C1573 C1574 1.334 . S
C1574 H1545 0.950 . S
C1574 C1573 1.334 . S
C1574 C1575 1.287 . S
C1575 C1574 1.287 . S
C1575 C1576 1.524 . S
C1575 H1578 0.999 . S
C1576 H1546 0.950 . S
C1576 C1575 1.524 . S
C1576 C1577 1.415 . S
C1577 H1547 0.950 . S
C1577 C1572 1.363 . S
C1577 C1576 1.415 . S
H1578 C1575 0.999 . S
H1579 C1560 0.913 . S
H1580 C1598 0.951 . S
H1581 C1600 0.951 . S
H1582 C1602 0.950 . S
H1583 C1603 0.950 . S
H1584 C1605 0.950 . S
H1585 C1608 0.950 . S
H1586 C1609 0.950 . S
H1587 C1611 0.950 . S
H1588 C1612 0.950 . S
H1589 C1613 0.951 . S
H1590 C1615 0.951 . S
H1591 C1617 0.950 . S
H1592 C1618 0.950 . S
H1593 C1620 0.950 . S
H1594 C1623 0.950 . S
H1595 C1624 0.950 . S
H1596 C1626 0.950 . S
H1597 C1627 0.950 . S
C1598 H1580 0.951 . S
C1598 C1599 1.366 . S
C1598 C1600 1.388 . S
C1599 C1598 1.366 . S
C1599 C1603 1.385 . S
C1600 H1581 0.951 . S
C1600 C1598 1.388 . S
C1600 C1601 1.366 . S
C1601 C1600 1.366 . S
C1601 C1602 1.414 . S
C1601 C1604 1.499 . S
C1602 H1582 0.950 . S
C1602 C1601 1.414 . S
C1602 C1603 1.374 . S
C1603 H1583 0.950 . S
C1603 C1599 1.385 . S
C1603 C1602 1.374 . S
C1604 C1601 1.499 . S
C1604 C1605 1.373 1_565 S
C1604 C1606 1.389 . S
C1605 H1584 0.950 . S
C1605 C1604 1.373 1_545 S
C1605 C1621 1.377 . S
C1606 C1604 1.389 . S
C1606 C1607 1.524 . S
C1606 C1620 1.377 . S
C1607 C1606 1.524 . S
C1607 C1608 1.397 . S
C1607 C1612 1.363 . S
C1608 H1585 0.950 . S
C1608 C1607 1.397 . S
C1608 C1609 1.334 . S
C1609 H1586 0.950 . S
C1609 C1608 1.334 . S
C1609 C1610 1.287 . S
C1610 C1609 1.287 . S
C1610 C1611 1.524 . S
C1610 H1629 0.913 . S
C1611 H1587 0.950 . S
C1611 C1610 1.524 . S
C1611 C1612 1.415 . S
C1612 H1588 0.950 . S
C1612 C1607 1.363 . S
C1612 C1611 1.415 . S
C1613 H1589 0.951 . S
C1613 C1614 1.366 . S
C1613 C1615 1.388 . S
C1614 C1613 1.366 . S
C1614 C1618 1.385 . S
C1615 H1590 0.951 . S
C1615 C1613 1.388 . S
C1615 C1616 1.366 . S
C1616 C1615 1.366 . S
C1616 C1617 1.414 . S
C1616 C1619 1.499 . S
C1617 H1591 0.950 . S
C1617 C1616 1.414 . S
C1617 C1618 1.374 . S
C1618 H1592 0.950 . S
C1618 C1614 1.385 . S
C1618 C1617 1.374 . S
C1619 C1616 1.499 . S
C1619 C1620 1.373 1_545 S
C1619 C1621 1.389 . S
C1620 H1593 0.950 . S
C1620 C1606 1.377 . S
C1620 C1619 1.373 1_565 S
C1621 C1605 1.377 . S
C1621 C1619 1.389 . S
C1621 C1622 1.524 . S
C1622 C1621 1.524 . S
C1622 C1623 1.397 . S
C1622 C1627 1.363 . S
C1623 H1594 0.950 . S
C1623 C1622 1.397 . S
C1623 C1624 1.334 . S
C1624 H1595 0.950 . S
C1624 C1623 1.334 . S
C1624 C1625 1.287 . S
C1625 C1624 1.287 . S
C1625 C1626 1.524 . S
C1625 H1628 0.999 . S
C1626 H1596 0.950 . S
C1626 C1625 1.524 . S
C1626 C1627 1.415 . S
C1627 H1597 0.950 . S
C1627 C1622 1.363 . S
C1627 C1626 1.415 . S
H1628 C1625 0.999 . S
H1629 C1610 0.913 . S
H1630 C1648 0.951 . S
H1631 C1650 0.951 . S
H1632 C1652 0.950 . S
H1633 C1653 0.950 . S
H1634 C1655 0.950 . S
H1635 C1658 0.950 . S
H1636 C1659 0.950 . S
H1637 C1661 0.950 . S
H1638 C1662 0.950 . S
H1639 C1663 0.951 . S
H1640 C1665 0.951 . S
H1641 C1667 0.950 . S
H1642 C1668 0.950 . S
H1643 C1670 0.950 . S
H1644 C1673 0.950 . S
H1645 C1674 0.950 . S
H1646 C1676 0.950 . S
H1647 C1677 0.950 . S
C1648 H1630 0.951 . S
C1648 C1649 1.366 . S
C1648 C1650 1.388 . S
C1649 C1648 1.366 . S
C1649 C1653 1.385 . S
C1650 H1631 0.951 . S
C1650 C1648 1.388 . S
C1650 C1651 1.366 . S
C1651 C1650 1.366 . S
C1651 C1652 1.414 . S
C1651 C1654 1.499 . S
C1652 H1632 0.950 . S
C1652 C1651 1.414 . S
C1652 C1653 1.374 . S
C1653 H1633 0.950 . S
C1653 C1649 1.385 . S
C1653 C1652 1.374 . S
C1654 C1651 1.499 . S
C1654 C1655 1.373 . S
C1654 C1656 1.389 . S
C1655 H1634 0.950 . S
C1655 C1654 1.373 . S
C1655 C1671 1.377 . S
C1656 C1654 1.389 . S
C1656 C1657 1.524 . S
C1656 C1670 1.377 . S
C1657 C1656 1.524 . S
C1657 C1658 1.397 . S
C1657 C1662 1.363 . S
C1658 H1635 0.950 . S
C1658 C1657 1.397 . S
C1658 C1659 1.334 . S
C1659 H1636 0.950 . S
C1659 C1658 1.334 . S
C1659 C1660 1.287 . S
C1660 C1659 1.287 . S
C1660 C1661 1.524 . S
C1660 H1679 0.913 . S
C1661 H1637 0.950 . S
C1661 C1660 1.524 . S
C1661 C1662 1.415 . S
C1662 H1638 0.950 . S
C1662 C1657 1.363 . S
C1662 C1661 1.415 . S
C1663 H1639 0.951 . S
C1663 C1664 1.366 . S
C1663 C1665 1.388 . S
C1664 C1663 1.366 . S
C1664 C1668 1.385 . S
C1665 H1640 0.951 . S
C1665 C1663 1.388 . S
C1665 C1666 1.366 . S
C1666 C1665 1.366 . S
C1666 C1667 1.414 . S
C1666 C1669 1.499 . S
C1667 H1641 0.950 . S
C1667 C1666 1.414 . S
C1667 C1668 1.374 . S
C1668 H1642 0.950 . S
C1668 C1664 1.385 . S
C1668 C1667 1.374 . S
C1669 C1666 1.499 . S
C1669 C1670 1.373 . S
C1669 C1671 1.389 . S
C1670 H1643 0.950 . S
C1670 C1656 1.377 . S
C1670 C1669 1.373 . S
C1671 C1655 1.377 . S
C1671 C1669 1.389 . S
C1671 C1672 1.524 . S
C1672 C1671 1.524 . S
C1672 C1673 1.397 . S
C1672 C1677 1.363 . S
C1673 H1644 0.950 . S
C1673 C1672 1.397 . S
C1673 C1674 1.334 . S
C1674 H1645 0.950 . S
C1674 C1673 1.334 . S
C1674 C1675 1.287 . S
C1675 C1674 1.287 . S
C1675 C1676 1.524 . S
C1675 H1678 0.999 . S
C1676 H1646 0.950 . S
C1676 C1675 1.524 . S
C1676 C1677 1.415 . S
C1677 H1647 0.950 . S
C1677 C1672 1.363 . S
C1677 C1676 1.415 . S
H1678 C1675 0.999 . S
H1679 C1660 0.913 . S
H1680 C1698 0.951 . S
H1681 C1700 0.951 . S
H1682 C1702 0.950 . S
H1683 C1703 0.950 . S
H1684 C1705 0.950 . S
H1685 C1708 0.950 . S
H1686 C1709 0.950 . S
H1687 C1711 0.950 . S
H1688 C1712 0.950 . S
H1689 C1713 0.951 . S
H1690 C1715 0.951 . S
H1691 C1717 0.950 . S
H1692 C1718 0.950 . S
H1693 C1720 0.950 . S
H1694 C1723 0.950 . S
H1695 C1724 0.950 . S
H1696 C1726 0.950 . S
H1697 C1727 0.950 . S
C1698 H1680 0.951 . S
C1698 C1699 1.366 . S
C1698 C1700 1.388 . S
C1699 C1698 1.366 . S
C1699 C1703 1.385 . S
C1700 H1681 0.951 . S
C1700 C1698 1.388 . S
C1700 C1701 1.366 . S
C1701 C1700 1.366 . S
C1701 C1702 1.414 . S
C1701 C1704 1.499 . S
C1702 H1682 0.950 . S
C1702 C1701 1.414 . S
C1702 C1703 1.374 . S
C1703 H1683 0.950 . S
C1703 C1699 1.385 . S
C1703 C1702 1.374 . S
C1704 C1701 1.499 . S
C1704 C1705 1.373 . S
C1704 C1706 1.389 1_565 S
C1705 H1684 0.950 . S
C1705 C1704 1.373 . S
C1705 C1721 1.377 . S
C1706 C1704 1.389 1_545 S
C1706 C1707 1.524 . S
C1706 C1720 1.377 . S
C1707 C1706 1.524 . S
C1707 C1708 1.397 . S
C1707 C1712 1.363 . S
C1708 H1685 0.950 . S
C1708 C1707 1.397 . S
C1708 C1709 1.334 . S
C1709 H1686 0.950 . S
C1709 C1708 1.334 . S
C1709 C1710 1.287 . S
C1710 C1709 1.287 . S
C1710 C1711 1.524 . S
C1710 H1729 0.913 . S
C1711 H1687 0.950 . S
C1711 C1710 1.524 . S
C1711 C1712 1.415 . S
C1712 H1688 0.950 . S
C1712 C1707 1.363 . S
C1712 C1711 1.415 . S
C1713 H1689 0.951 . S
C1713 C1714 1.366 . S
C1713 C1715 1.388 . S
C1714 C1713 1.366 . S
C1714 C1718 1.385 . S
C1715 H1690 0.951 . S
C1715 C1713 1.388 . S
C1715 C1716 1.366 . S
C1716 C1715 1.366 . S
C1716 C1717 1.414 . S
C1716 C1719 1.499 . S
C1717 H1691 0.950 . S
C1717 C1716 1.414 . S
C1717 C1718 1.374 . S
C1718 H1692 0.950 . S
C1718 C1714 1.385 . S
C1718 C1717 1.374 . S
C1719 C1716 1.499 . S
C1719 C1720 1.373 . S
C1719 C1721 1.389 1_545 S
C1720 H1693 0.950 . S
C1720 C1706 1.377 . S
C1720 C1719 1.373 . S
C1721 C1705 1.377 . S
C1721 C1719 1.389 1_565 S
C1721 C1722 1.524 . S
C1722 C1721 1.524 . S
C1722 C1723 1.397 . S
C1722 C1727 1.363 . S
C1723 H1694 0.950 . S
C1723 C1722 1.397 . S
C1723 C1724 1.334 . S
C1724 H1695 0.950 . S
C1724 C1723 1.334 . S
C1724 C1725 1.287 . S
C1725 C1724 1.287 . S
C1725 C1726 1.524 . S
C1725 H1728 0.999 . S
C1726 H1696 0.950 . S
C1726 C1725 1.524 . S
C1726 C1727 1.415 . S
C1727 H1697 0.950 . S
C1727 C1722 1.363 . S
C1727 C1726 1.415 . S
H1728 C1725 0.999 . S
H1729 C1710 0.913 . S
H1730 C1748 0.951 . S
H1731 C1750 0.951 . S
H1732 C1752 0.950 . S
H1733 C1753 0.950 . S
H1734 C1755 0.950 . S
H1735 C1758 0.950 . S
H1736 C1759 0.950 . S
H1737 C1761 0.950 . S
H1738 C1762 0.950 . S
H1739 C1763 0.951 . S
H1740 C1765 0.951 . S
H1741 C1767 0.950 . S
H1742 C1768 0.950 . S
H1743 C1770 0.950 . S
H1744 C1773 0.950 . S
H1745 C1774 0.950 . S
H1746 C1776 0.950 . S
H1747 C1777 0.950 . S
C1748 H1730 0.951 . S
C1748 C1749 1.366 . S
C1748 C1750 1.388 . S
C1749 C1748 1.366 . S
C1749 C1753 1.385 . S
C1750 H1731 0.951 . S
C1750 C1748 1.388 . S
C1750 C1751 1.366 . S
C1751 C1750 1.366 . S
C1751 C1752 1.414 . S
C1751 C1754 1.499 . S
C1752 H1732 0.950 . S
C1752 C1751 1.414 . S
C1752 C1753 1.374 . S
C1753 H1733 0.950 . S
C1753 C1749 1.385 . S
C1753 C1752 1.374 . S
C1754 C1751 1.499 . S
C1754 C1755 1.373 . S
C1754 C1756 1.389 . S
C1755 H1734 0.950 . S
C1755 C1754 1.373 . S
C1755 C1771 1.377 . S
C1756 C1754 1.389 . S
C1756 C1757 1.524 . S
C1756 C1770 1.377 . S
C1757 C1756 1.524 . S
C1757 C1758 1.397 . S
C1757 C1762 1.363 . S
C1758 H1735 0.950 . S
C1758 C1757 1.397 . S
C1758 C1759 1.334 . S
C1759 H1736 0.950 . S
C1759 C1758 1.334 . S
C1759 C1760 1.287 . S
C1760 C1759 1.287 . S
C1760 C1761 1.524 . S
C1760 H1779 0.913 . S
C1761 H1737 0.950 . S
C1761 C1760 1.524 . S
C1761 C1762 1.415 . S
C1762 H1738 0.950 . S
C1762 C1757 1.363 . S
C1762 C1761 1.415 . S
C1763 H1739 0.951 . S
C1763 C1764 1.366 . S
C1763 C1765 1.388 . S
C1764 C1763 1.366 . S
C1764 C1768 1.385 . S
C1765 H1740 0.951 . S
C1765 C1763 1.388 . S
C1765 C1766 1.366 . S
C1766 C1765 1.366 . S
C1766 C1767 1.414 . S
C1766 C1769 1.499 . S
C1767 H1741 0.950 . S
C1767 C1766 1.414 . S
C1767 C1768 1.374 . S
C1768 H1742 0.950 . S
C1768 C1764 1.385 . S
C1768 C1767 1.374 . S
C1769 C1766 1.499 . S
C1769 C1770 1.373 . S
C1769 C1771 1.389 . S
C1770 H1743 0.950 . S
C1770 C1756 1.377 . S
C1770 C1769 1.373 . S
C1771 C1755 1.377 . S
C1771 C1769 1.389 . S
C1771 C1772 1.524 . S
C1772 C1771 1.524 . S
C1772 C1773 1.397 . S
C1772 C1777 1.363 . S
C1773 H1744 0.950 . S
C1773 C1772 1.397 . S
C1773 C1774 1.334 . S
C1774 H1745 0.950 . S
C1774 C1773 1.334 . S
C1774 C1775 1.287 . S
C1775 C1774 1.287 . S
C1775 C1776 1.524 . S
C1775 H1778 0.999 . S
C1776 H1746 0.950 . S
C1776 C1775 1.524 . S
C1776 C1777 1.415 . S
C1777 H1747 0.950 . S
C1777 C1772 1.363 . S
C1777 C1776 1.415 . S
H1778 C1775 0.999 . S
H1779 C1760 0.913 . S
H1780 C1798 0.951 . S
H1781 C1800 0.951 . S
H1782 C1802 0.950 . S
H1783 C1803 0.950 . S
H1784 C1805 0.950 . S
H1785 C1808 0.950 . S
H1786 C1809 0.950 . S
H1787 C1811 0.950 . S
H1788 C1812 0.950 . S
H1789 C1813 0.951 . S
H1790 C1815 0.951 . S
H1791 C1817 0.950 . S
H1792 C1818 0.950 . S
H1793 C1820 0.950 . S
H1794 C1823 0.950 . S
H1795 C1824 0.950 . S
H1796 C1826 0.950 . S
H1797 C1827 0.950 . S
C1798 H1780 0.951 . S
C1798 C1799 1.366 . S
C1798 C1800 1.388 . S
C1799 C1798 1.366 . S
C1799 C1803 1.385 . S
C1800 H1781 0.951 . S
C1800 C1798 1.388 . S
C1800 C1801 1.366 . S
C1801 C1800 1.366 . S
C1801 C1802 1.414 . S
C1801 C1804 1.499 . S
C1802 H1782 0.950 . S
C1802 C1801 1.414 . S
C1802 C1803 1.374 . S
C1803 H1783 0.950 . S
C1803 C1799 1.385 . S
C1803 C1802 1.374 . S
C1804 C1801 1.499 . S
C1804 C1805 1.373 . S
C1804 C1806 1.402 . S
C1805 H1784 0.950 . S
C1805 C1804 1.373 . S
C1805 C1821 1.371 1_655 S
C1806 C1804 1.402 . S
C1806 C1807 1.526 . S
C1806 C1820 1.369 1_655 S
C1807 C1806 1.526 . S
C1807 C1808 1.405 . S
C1807 C1812 1.348 1_655 S
C1808 H1785 0.950 . S
C1808 C1807 1.405 . S
C1808 C1809 1.334 . S
C1809 H1786 0.950 . S
C1809 C1808 1.334 . S
C1809 C1810 1.287 . S
C1810 C1809 1.287 . S
C1810 C1811 1.524 1_655 S
C1810 H1829 0.913 . S
C1811 H1787 0.950 . S
C1811 C1810 1.524 1_455 S
C1811 C1812 1.415 . S
C1812 H1788 0.950 . S
C1812 C1807 1.348 1_455 S
C1812 C1811 1.415 . S
C1813 H1789 0.951 . S
C1813 C1814 1.366 . S
C1813 C1815 1.388 . S
C1814 C1813 1.366 . S
C1814 C1818 1.385 . S
C1815 H1790 0.951 . S
C1815 C1813 1.388 . S
C1815 C1816 1.366 . S
C1816 C1815 1.366 . S
C1816 C1817 1.414 . S
C1816 C1819 1.499 . S
C1817 H1791 0.950 . S
C1817 C1816 1.414 . S
C1817 C1818 1.374 . S
C1818 H1792 0.950 . S
C1818 C1814 1.385 . S
C1818 C1817 1.374 . S
C1819 C1816 1.499 . S
C1819 C1820 1.373 . S
C1819 C1821 1.398 . S
C1820 H1793 0.950 . S
C1820 C1806 1.369 1_455 S
C1820 C1819 1.373 . S
C1821 C1805 1.371 1_455 S
C1821 C1819 1.398 . S
C1821 C1822 1.526 . S
C1822 C1821 1.526 . S
C1822 C1823 1.403 . S
C1822 C1827 1.352 1_455 S
C1823 H1794 0.950 . S
C1823 C1822 1.403 . S
C1823 C1824 1.334 . S
C1824 H1795 0.950 . S
C1824 C1823 1.334 . S
C1824 C1825 1.287 . S
C1825 C1824 1.287 . S
C1825 C1826 1.524 1_455 S
C1825 H1828 0.999 . S
C1826 H1796 0.950 . S
C1826 C1825 1.524 1_655 S
C1826 C1827 1.415 . S
C1827 H1797 0.950 . S
C1827 C1822 1.352 1_655 S
C1827 C1826 1.415 . S
H1828 C1825 0.999 . S
H1829 C1810 0.913 . S
H1830 C1848 0.951 . S
H1831 C1850 0.951 . S
H1832 C1852 0.950 . S
H1833 C1853 0.950 . S
H1834 C1855 0.950 . S
H1835 C1858 0.950 . S
H1836 C1859 0.950 1_545 S
H1837 C1861 0.950 . S
H1838 C1862 0.950 . S
H1839 C1863 0.951 . S
H1840 C1865 0.951 . S
H1841 C1867 0.950 . S
H1842 C1868 0.950 . S
H1843 C1870 0.950 . S
H1844 C1873 0.950 . S
H1845 C1874 0.950 1_565 S
H1846 C1876 0.950 . S
H1847 C1877 0.950 . S
C1848 H1830 0.951 . S
C1848 C1849 1.366 . S
C1848 C1850 1.388 . S
C1849 C1848 1.366 . S
C1849 C1853 1.385 . S
C1850 H1831 0.951 . S
C1850 C1848 1.388 . S
C1850 C1851 1.366 . S
C1851 C1850 1.366 . S
C1851 C1852 1.414 . S
C1851 C1854 1.499 . S
C1852 H1832 0.950 . S
C1852 C1851 1.414 . S
C1852 C1853 1.374 . S
C1853 H1833 0.950 . S
C1853 C1849 1.385 . S
C1853 C1852 1.374 . S
C1854 C1851 1.499 . S
C1854 C1855 1.373 . S
C1854 C1856 1.389 1_545 S
C1855 H1834 0.950 . S
C1855 C1854 1.373 . S
C1855 C1871 1.377 . S
C1856 C1854 1.389 1_565 S
C1856 C1857 1.524 . S
C1856 C1870 1.377 . S
C1857 C1856 1.524 . S
C1857 C1858 1.397 1_565 S
C1857 C1862 1.363 . S
C1858 H1835 0.950 . S
C1858 C1857 1.397 1_545 S
C1858 C1859 1.334 1_545 S
C1859 H1836 0.950 1_565 S
C1859 C1858 1.334 1_565 S
C1859 C1860 1.287 . S
C1860 C1859 1.287 . S
C1860 C1861 1.524 . S
C1860 H1879 0.913 . S
C1861 H1837 0.950 . S
C1861 C1860 1.524 . S
C1861 C1862 1.415 . S
C1862 H1838 0.950 . S
C1862 C1857 1.363 . S
C1862 C1861 1.415 . S
C1863 H1839 0.951 . S
C1863 C1864 1.366 . S
C1863 C1865 1.388 . S
C1864 C1863 1.366 . S
C1864 C1868 1.385 . S
C1865 H1840 0.951 . S
C1865 C1863 1.388 . S
C1865 C1866 1.366 . S
C1866 C1865 1.366 . S
C1866 C1867 1.414 . S
C1866 C1869 1.499 . S
C1867 H1841 0.950 . S
C1867 C1866 1.414 . S
C1867 C1868 1.374 . S
C1868 H1842 0.950 . S
C1868 C1864 1.385 . S
C1868 C1867 1.374 . S
C1869 C1866 1.499 . S
C1869 C1870 1.373 . S
C1869 C1871 1.389 1_565 S
C1870 H1843 0.950 . S
C1870 C1856 1.377 . S
C1870 C1869 1.373 . S
C1871 C1855 1.377 . S
C1871 C1869 1.389 1_545 S
C1871 C1872 1.524 . S
C1872 C1871 1.524 . S
C1872 C1873 1.397 1_545 S
C1872 C1877 1.363 . S
C1873 H1844 0.950 . S
C1873 C1872 1.397 1_565 S
C1873 C1874 1.334 1_565 S
C1874 H1845 0.950 1_545 S
C1874 C1873 1.334 1_545 S
C1874 C1875 1.287 . S
C1875 C1874 1.287 . S
C1875 C1876 1.524 . S
C1875 H1878 0.999 . S
C1876 H1846 0.950 . S
C1876 C1875 1.524 . S
C1876 C1877 1.415 . S
C1877 H1847 0.950 . S
C1877 C1872 1.363 . S
C1877 C1876 1.415 . S
H1878 C1875 0.999 . S
H1879 C1860 0.913 . S
H1880 C1898 0.951 . S
H1881 C1900 0.951 . S
H1882 C1902 0.950 . S
H1883 C1903 0.950 . S
H1884 C1905 0.950 . S
H1885 C1908 0.950 . S
H1886 C1909 0.950 . S
H1887 C1911 0.950 . S
H1888 C1912 0.950 . S
H1889 C1913 0.951 . S
H1890 C1915 0.951 . S
H1891 C1917 0.950 . S
H1892 C1918 0.950 . S
H1893 C1920 0.950 . S
H1894 C1923 0.950 . S
H1895 C1924 0.950 . S
H1896 C1926 0.950 . S
H1897 C1927 0.950 . S
C1898 H1880 0.951 . S
C1898 C1899 1.366 . S
C1898 C1900 1.388 . S
C1899 C1898 1.366 . S
C1899 C1903 1.385 . S
C1900 H1881 0.951 . S
C1900 C1898 1.388 . S
C1900 C1901 1.366 . S
C1901 C1900 1.366 . S
C1901 C1902 1.414 . S
C1901 C1904 1.499 . S
C1902 H1882 0.950 . S
C1902 C1901 1.414 . S
C1902 C1903 1.374 . S
C1903 H1883 0.950 . S
C1903 C1899 1.385 . S
C1903 C1902 1.374 . S
C1904 C1901 1.499 . S
C1904 C1905 1.373 . S
C1904 C1906 1.389 . S
C1905 H1884 0.950 . S
C1905 C1904 1.373 . S
C1905 C1921 1.377 . S
C1906 C1904 1.389 . S
C1906 C1907 1.524 . S
C1906 C1920 1.377 . S
C1907 C1906 1.524 . S
C1907 C1908 1.397 . S
C1907 C1912 1.363 . S
C1908 H1885 0.950 . S
C1908 C1907 1.397 . S
C1908 C1909 1.334 . S
C1909 H1886 0.950 . S
C1909 C1908 1.334 . S
C1909 C1910 1.287 . S
C1910 C1909 1.287 . S
C1910 C1911 1.524 . S
C1910 H1929 0.913 . S
C1911 H1887 0.950 . S
C1911 C1910 1.524 . S
C1911 C1912 1.415 . S
C1912 H1888 0.950 . S
C1912 C1907 1.363 . S
C1912 C1911 1.415 . S
C1913 H1889 0.951 . S
C1913 C1914 1.366 . S
C1913 C1915 1.388 . S
C1914 C1913 1.366 . S
C1914 C1918 1.385 . S
C1915 H1890 0.951 . S
C1915 C1913 1.388 . S
C1915 C1916 1.366 . S
C1916 C1915 1.366 . S
C1916 C1917 1.414 . S
C1916 C1919 1.499 . S
C1917 H1891 0.950 . S
C1917 C1916 1.414 . S
C1917 C1918 1.374 . S
C1918 H1892 0.950 . S
C1918 C1914 1.385 . S
C1918 C1917 1.374 . S
C1919 C1916 1.499 . S
C1919 C1920 1.373 . S
C1919 C1921 1.389 . S
C1920 H1893 0.950 . S
C1920 C1906 1.377 . S
C1920 C1919 1.373 . S
C1921 C1905 1.377 . S
C1921 C1919 1.389 . S
C1921 C1922 1.524 . S
C1922 C1921 1.524 . S
C1922 C1923 1.397 . S
C1922 C1927 1.363 . S
C1923 H1894 0.950 . S
C1923 C1922 1.397 . S
C1923 C1924 1.334 . S
C1924 H1895 0.950 . S
C1924 C1923 1.334 . S
C1924 C1925 1.287 . S
C1925 C1924 1.287 . S
C1925 C1926 1.524 . S
C1925 H1928 0.999 . S
C1926 H1896 0.950 . S
C1926 C1925 1.524 . S
C1926 C1927 1.415 . S
C1927 H1897 0.950 . S
C1927 C1922 1.363 . S
C1927 C1926 1.415 . S
H1928 C1925 0.999 . S
H1929 C1910 0.913 . S
H1930 C1948 0.951 . S
H1931 C1950 0.951 . S
H1932 C1952 0.950 . S
H1933 C1953 0.950 . S
H1934 C1955 0.973 . S
H1935 C1958 0.950 . S
H1936 C1959 0.950 . S
H1937 C1961 0.950 . S
H1938 C1962 0.950 . S
H1939 C1963 0.951 . S
H1940 C1965 0.951 . S
H1941 C1967 0.950 . S
H1942 C1968 0.950 . S
H1943 C1970 0.950 . S
H1944 C1973 0.950 . S
H1945 C1974 0.950 . S
H1946 C1976 0.950 . S
H1947 C1977 0.950 . S
C1948 H1930 0.951 . S
C1948 C1949 1.366 . S
C1948 C1950 1.388 . S
C1949 C1948 1.366 . S
C1949 C1953 1.385 . S
C1950 H1931 0.951 . S
C1950 C1948 1.388 . S
C1950 C1951 1.366 . S
C1951 C1950 1.366 . S
C1951 C1952 1.414 . S
C1951 C1954 1.499 . S
C1952 H1932 0.950 . S
C1952 C1951 1.414 . S
C1952 C1953 1.374 . S
C1953 H1933 0.950 . S
C1953 C1949 1.385 . S
C1953 C1952 1.374 . S
C1954 C1951 1.499 . S
C1954 C1955 1.320 1_455 S
C1954 C1956 1.389 . S
C1955 H1934 0.973 . S
C1955 C1954 1.320 1_655 S
C1955 C1971 1.409 . S
C1956 C1954 1.389 . S
C1956 C1957 1.524 . S
C1956 C1970 1.377 . S
C1957 C1956 1.524 . S
C1957 C1958 1.397 . S
C1957 C1962 1.363 . S
C1958 H1935 0.950 . S
C1958 C1957 1.397 . S
C1958 C1959 1.334 . S
C1959 H1936 0.950 . S
C1959 C1958 1.334 . S
C1959 C1960 1.287 . S
C1960 C1959 1.287 . S
C1960 C1961 1.524 . S
C1960 H1979 0.913 . S
C1961 H1937 0.950 . S
C1961 C1960 1.524 . S
C1961 C1962 1.415 . S
C1962 H1938 0.950 . S
C1962 C1957 1.363 . S
C1962 C1961 1.415 . S
C1963 H1939 0.951 . S
C1963 C1964 1.366 . S
C1963 C1965 1.388 . S
C1964 C1963 1.366 . S
C1964 C1968 1.385 . S
C1965 H1940 0.951 . S
C1965 C1963 1.388 . S
C1965 C1966 1.366 . S
C1966 C1965 1.366 . S
C1966 C1967 1.414 . S
C1966 C1969 1.499 . S
C1967 H1941 0.950 . S
C1967 C1966 1.414 . S
C1967 C1968 1.374 . S
C1968 H1942 0.950 . S
C1968 C1964 1.385 . S
C1968 C1967 1.374 . S
C1969 C1966 1.499 . S
C1969 C1970 1.373 1_655 S
C1969 C1971 1.389 . S
C1970 H1943 0.950 . S
C1970 C1956 1.377 . S
C1970 C1969 1.373 1_455 S
C1971 C1955 1.409 . S
C1971 C1969 1.389 . S
C1971 C1972 1.524 . S
C1972 C1971 1.524 . S
C1972 C1973 1.397 . S
C1972 C1977 1.363 . S
C1973 H1944 0.950 . S
C1973 C1972 1.397 . S
C1973 C1974 1.334 . S
C1974 H1945 0.950 . S
C1974 C1973 1.334 . S
C1974 C1975 1.287 . S
C1975 C1974 1.287 . S
C1975 C1976 1.524 . S
C1975 H1978 0.999 . S
C1976 H1946 0.950 . S
C1976 C1975 1.524 . S
C1976 C1977 1.415 . S
C1977 H1947 0.950 . S
C1977 C1972 1.363 . S
C1977 C1976 1.415 . S
H1978 C1975 0.999 . S
H1979 C1960 0.913 . S
H1980 C1998 0.951 . S
H1981 C2000 0.951 . S
H1982 C2002 0.950 . S
H1983 C2003 0.950 . S
H1984 C2005 0.950 . S
H1985 C2008 0.950 . S
H1986 C2009 0.950 . S
H1987 C2011 0.950 . S
H1988 C2012 0.950 . S
H1989 C2013 0.951 . S
H1990 C2015 0.951 . S
H1991 C2017 0.950 . S
H1992 C2018 0.950 . S
H1993 C2020 0.950 . S
H1994 C2023 0.950 . S
H1995 C2024 0.950 . S
H1996 C2026 0.950 . S
H1997 C2027 0.950 . S
C1998 H1980 0.951 . S
C1998 C1999 1.366 . S
C1998 C2000 1.388 . S
C1999 C1998 1.366 . S
C1999 C2003 1.385 . S
C2000 H1981 0.951 . S
C2000 C1998 1.388 . S
C2000 C2001 1.366 . S
C2001 C2000 1.366 . S
C2001 C2002 1.414 . S
C2001 C2004 1.499 . S
C2002 H1982 0.950 . S
C2002 C2001 1.414 . S
C2002 C2003 1.374 . S
C2003 H1983 0.950 . S
C2003 C1999 1.385 . S
C2003 C2002 1.374 . S
C2004 C2001 1.499 . S
C2004 C2005 1.373 . S
C2004 C2006 1.389 . S
C2005 H1984 0.950 . S
C2005 C2004 1.373 . S
C2005 C2021 1.377 . S
C2006 C2004 1.389 . S
C2006 C2007 1.524 . S
C2006 C2020 1.377 . S
C2007 C2006 1.524 . S
C2007 C2008 1.397 . S
C2007 C2012 1.363 . S
C2008 H1985 0.950 . S
C2008 C2007 1.397 . S
C2008 C2009 1.334 . S
C2009 H1986 0.950 . S
C2009 C2008 1.334 . S
C2009 C2010 1.287 . S
C2010 C2009 1.287 . S
C2010 C2011 1.524 . S
C2010 H2029 0.913 . S
C2011 H1987 0.950 . S
C2011 C2010 1.524 . S
C2011 C2012 1.415 . S
C2012 H1988 0.950 . S
C2012 C2007 1.363 . S
C2012 C2011 1.415 . S
C2013 H1989 0.951 . S
C2013 C2014 1.366 . S
C2013 C2015 1.388 . S
C2014 C2013 1.366 . S
C2014 C2018 1.385 . S
C2015 H1990 0.951 . S
C2015 C2013 1.388 . S
C2015 C2016 1.366 . S
C2016 C2015 1.366 . S
C2016 C2017 1.414 . S
C2016 C2019 1.499 . S
C2017 H1991 0.950 . S
C2017 C2016 1.414 . S
C2017 C2018 1.374 . S
C2018 H1992 0.950 . S
C2018 C2014 1.385 . S
C2018 C2017 1.374 . S
C2019 C2016 1.499 . S
C2019 C2020 1.373 . S
C2019 C2021 1.389 . S
C2020 H1993 0.950 . S
C2020 C2006 1.377 . S
C2020 C2019 1.373 . S
C2021 C2005 1.377 . S
C2021 C2019 1.389 . S
C2021 C2022 1.524 . S
C2022 C2021 1.524 . S
C2022 C2023 1.397 . S
C2022 C2027 1.363 . S
C2023 H1994 0.950 . S
C2023 C2022 1.397 . S
C2023 C2024 1.334 . S
C2024 H1995 0.950 . S
C2024 C2023 1.334 . S
C2024 C2025 1.287 . S
C2025 C2024 1.287 . S
C2025 C2026 1.524 . S
C2025 H2028 0.999 . S
C2026 H1996 0.950 . S
C2026 C2025 1.524 . S
C2026 C2027 1.415 . S
C2027 H1997 0.950 . S
C2027 C2022 1.363 . S
C2027 C2026 1.415 . S
H2028 C2025 0.999 . S
H2029 C2010 0.913 . S
H2030 C2048 0.951 . S
H2031 C2050 0.951 . S
H2032 C2052 0.950 . S
H2033 C2053 0.950 . S
H2034 C2055 0.950 . S
H2035 C2058 0.950 . S
H2036 C2059 0.950 . S
H2037 C2061 0.950 . S
H2038 C2062 0.950 . S
H2039 C2063 0.951 . S
H2040 C2065 0.951 . S
H2041 C2067 0.950 . S
H2042 C2068 0.950 . S
H2043 C2070 0.950 . S
H2044 C2073 0.950 . S
H2045 C2074 0.950 . S
H2046 C2076 0.950 . S
H2047 C2077 0.950 . S
C2048 H2030 0.951 . S
C2048 C2049 1.366 . S
C2048 C2050 1.388 . S
C2049 C2048 1.366 . S
C2049 C2053 1.385 . S
C2050 H2031 0.951 . S
C2050 C2048 1.388 . S
C2050 C2051 1.366 . S
C2051 C2050 1.366 . S
C2051 C2052 1.414 . S
C2051 C2054 1.499 . S
C2052 H2032 0.950 . S
C2052 C2051 1.414 . S
C2052 C2053 1.374 . S
C2053 H2033 0.950 . S
C2053 C2049 1.385 . S
C2053 C2052 1.374 . S
C2054 C2051 1.499 . S
C2054 C2055 1.373 . S
C2054 C2056 1.389 . S
C2055 H2034 0.950 . S
C2055 C2054 1.373 . S
C2055 C2071 1.377 . S
C2056 C2054 1.389 . S
C2056 C2057 1.524 . S
C2056 C2070 1.377 . S
C2057 C2056 1.524 . S
C2057 C2058 1.397 . S
C2057 C2062 1.363 . S
C2058 H2035 0.950 . S
C2058 C2057 1.397 . S
C2058 C2059 1.334 . S
C2059 H2036 0.950 . S
C2059 C2058 1.334 . S
C2059 C2060 1.287 . S
C2060 C2059 1.287 . S
C2060 C2061 1.524 . S
C2060 H2079 0.913 . S
C2061 H2037 0.950 . S
C2061 C2060 1.524 . S
C2061 C2062 1.415 . S
C2062 H2038 0.950 . S
C2062 C2057 1.363 . S
C2062 C2061 1.415 . S
C2063 H2039 0.951 . S
C2063 C2064 1.366 . S
C2063 C2065 1.388 . S
C2064 C2063 1.366 . S
C2064 C2068 1.385 . S
C2065 H2040 0.951 . S
C2065 C2063 1.388 . S
C2065 C2066 1.366 . S
C2066 C2065 1.366 . S
C2066 C2067 1.414 . S
C2066 C2069 1.499 . S
C2067 H2041 0.950 . S
C2067 C2066 1.414 . S
C2067 C2068 1.374 . S
C2068 H2042 0.950 . S
C2068 C2064 1.385 . S
C2068 C2067 1.374 . S
C2069 C2066 1.499 . S
C2069 C2070 1.373 . S
C2069 C2071 1.389 . S
C2070 H2043 0.950 . S
C2070 C2056 1.377 . S
C2070 C2069 1.373 . S
C2071 C2055 1.377 . S
C2071 C2069 1.389 . S
C2071 C2072 1.524 . S
C2072 C2071 1.524 . S
C2072 C2073 1.397 . S
C2072 C2077 1.363 . S
C2073 H2044 0.950 . S
C2073 C2072 1.397 . S
C2073 C2074 1.334 . S
C2074 H2045 0.950 . S
C2074 C2073 1.334 . S
C2074 C2075 1.287 . S
C2075 C2074 1.287 . S
C2075 C2076 1.524 . S
C2075 H2078 0.999 . S
C2076 H2046 0.950 . S
C2076 C2075 1.524 . S
C2076 C2077 1.415 . S
C2077 H2047 0.950 . S
C2077 C2072 1.363 . S
C2077 C2076 1.415 . S
H2078 C2075 0.999 . S
H2079 C2060 0.913 . S
H2080 C2098 0.951 . S
H2081 C2100 0.951 . S
H2082 C2102 0.950 . S
H2083 C2103 0.950 . S
H2084 C2105 0.950 . S
H2085 C2108 0.950 . S
H2086 C2109 0.950 . S
H2087 C2111 0.950 . S
H2088 C2112 0.950 . S
H2089 C2113 0.951 . S
H2090 C2115 0.951 . S
H2091 C2117 0.950 . S
H2092 C2118 0.950 . S
H2093 C2120 0.950 . S
H2094 C2123 0.950 . S
H2095 C2124 0.950 . S
H2096 C2126 0.950 . S
H2097 C2127 0.950 . S
C2098 H2080 0.951 . S
C2098 C2099 1.366 . S
C2098 C2100 1.388 . S
C2099 C2098 1.366 . S
C2099 C2103 1.385 . S
C2100 H2081 0.951 . S
C2100 C2098 1.388 . S
C2100 C2101 1.366 . S
C2101 C2100 1.366 . S
C2101 C2102 1.414 . S
C2101 C2104 1.499 . S
C2102 H2082 0.950 . S
C2102 C2101 1.414 . S
C2102 C2103 1.374 . S
C2103 H2083 0.950 . S
C2103 C2099 1.385 . S
C2103 C2102 1.374 . S
C2104 C2101 1.499 . S
C2104 C2105 1.373 . S
C2104 C2106 1.389 . S
C2105 H2084 0.950 . S
C2105 C2104 1.373 . S
C2105 C2121 1.377 . S
C2106 C2104 1.389 . S
C2106 C2107 1.524 . S
C2106 C2120 1.377 . S
C2107 C2106 1.524 . S
C2107 C2108 1.397 . S
C2107 C2112 1.363 . S
C2108 H2085 0.950 . S
C2108 C2107 1.397 . S
C2108 C2109 1.334 . S
C2109 H2086 0.950 . S
C2109 C2108 1.334 . S
C2109 C2110 1.287 . S
C2110 C2109 1.287 . S
C2110 C2111 1.524 . S
C2110 H2129 0.913 . S
C2111 H2087 0.950 . S
C2111 C2110 1.524 . S
C2111 C2112 1.415 . S
C2112 H2088 0.950 . S
C2112 C2107 1.363 . S
C2112 C2111 1.415 . S
C2113 H2089 0.951 . S
C2113 C2114 1.366 . S
C2113 C2115 1.388 . S
C2114 C2113 1.366 . S
C2114 C2118 1.385 . S
C2115 H2090 0.951 . S
C2115 C2113 1.388 . S
C2115 C2116 1.366 . S
C2116 C2115 1.366 . S
C2116 C2117 1.414 . S
C2116 C2119 1.499 . S
C2117 H2091 0.950 . S
C2117 C2116 1.414 . S
C2117 C2118 1.374 . S
C2118 H2092 0.950 . S
C2118 C2114 1.385 . S
C2118 C2117 1.374 . S
C2119 C2116 1.499 . S
C2119 C2120 1.373 . S
C2119 C2121 1.389 . S
C2120 H2093 0.950 . S
C2120 C2106 1.377 . S
C2120 C2119 1.373 . S
C2121 C2105 1.377 . S
C2121 C2119 1.389 . S
C2121 C2122 1.524 . S
C2122 C2121 1.524 . S
C2122 C2123 1.397 . S
C2122 C2127 1.363 . S
C2123 H2094 0.950 . S
C2123 C2122 1.397 . S
C2123 C2124 1.334 . S
C2124 H2095 0.950 . S
C2124 C2123 1.334 . S
C2124 C2125 1.287 . S
C2125 C2124 1.287 . S
C2125 C2126 1.524 . S
C2125 H2128 0.999 . S
C2126 H2096 0.950 . S
C2126 C2125 1.524 . S
C2126 C2127 1.415 . S
C2127 H2097 0.950 . S
C2127 C2122 1.363 . S
C2127 C2126 1.415 . S
H2128 C2125 0.999 . S
H2129 C2110 0.913 . S
H2130 C2148 0.951 . S
H2131 C2150 0.951 . S
H2132 C2152 0.950 . S
H2133 C2153 0.950 . S
H2134 C2155 0.950 . S
H2135 C2158 0.950 . S
H2136 C2159 0.950 . S
H2137 C2161 0.950 . S
H2138 C2162 0.950 . S
H2139 C2163 0.951 . S
H2140 C2165 0.951 . S
H2141 C2167 0.950 . S
H2142 C2168 0.950 . S
H2143 C2170 0.950 . S
H2144 C2173 0.950 . S
H2145 C2174 0.950 . S
H2146 C2176 0.950 . S
H2147 C2177 0.950 . S
C2148 H2130 0.951 . S
C2148 C2149 1.366 . S
C2148 C2150 1.388 . S
C2149 C2148 1.366 . S
C2149 C2153 1.385 . S
C2150 H2131 0.951 . S
C2150 C2148 1.388 . S
C2150 C2151 1.366 . S
C2151 C2150 1.366 . S
C2151 C2152 1.414 . S
C2151 C2154 1.499 . S
C2152 H2132 0.950 . S
C2152 C2151 1.414 . S
C2152 C2153 1.374 . S
C2153 H2133 0.950 . S
C2153 C2149 1.385 . S
C2153 C2152 1.374 . S
C2154 C2151 1.499 . S
C2154 C2155 1.373 . S
C2154 C2156 1.389 . S
C2155 H2134 0.950 . S
C2155 C2154 1.373 . S
C2155 C2171 1.377 . S
C2156 C2154 1.389 . S
C2156 C2157 1.524 . S
C2156 C2170 1.377 . S
C2157 C2156 1.524 . S
C2157 C2158 1.397 . S
C2157 C2162 1.363 . S
C2158 H2135 0.950 . S
C2158 C2157 1.397 . S
C2158 C2159 1.334 . S
C2159 H2136 0.950 . S
C2159 C2158 1.334 . S
C2159 C2160 1.287 . S
C2160 C2159 1.287 . S
C2160 C2161 1.524 . S
C2160 H2179 0.913 . S
C2161 H2137 0.950 . S
C2161 C2160 1.524 . S
C2161 C2162 1.415 . S
C2162 H2138 0.950 . S
C2162 C2157 1.363 . S
C2162 C2161 1.415 . S
C2163 H2139 0.951 . S
C2163 C2164 1.366 . S
C2163 C2165 1.388 . S
C2164 C2163 1.366 . S
C2164 C2168 1.385 . S
C2165 H2140 0.951 . S
C2165 C2163 1.388 . S
C2165 C2166 1.366 . S
C2166 C2165 1.366 . S
C2166 C2167 1.414 . S
C2166 C2169 1.499 . S
C2167 H2141 0.950 . S
C2167 C2166 1.414 . S
C2167 C2168 1.374 . S
C2168 H2142 0.950 . S
C2168 C2164 1.385 . S
C2168 C2167 1.374 . S
C2169 C2166 1.499 . S
C2169 C2170 1.373 . S
C2169 C2171 1.389 . S
C2170 H2143 0.950 . S
C2170 C2156 1.377 . S
C2170 C2169 1.373 . S
C2171 C2155 1.377 . S
C2171 C2169 1.389 . S
C2171 C2172 1.524 . S
C2172 C2171 1.524 . S
C2172 C2173 1.397 . S
C2172 C2177 1.363 . S
C2173 H2144 0.950 . S
C2173 C2172 1.397 . S
C2173 C2174 1.334 . S
C2174 H2145 0.950 . S
C2174 C2173 1.334 . S
C2174 C2175 1.287 . S
C2175 C2174 1.287 . S
C2175 C2176 1.524 . S
C2175 H2178 0.999 . S
C2176 H2146 0.950 . S
C2176 C2175 1.524 . S
C2176 C2177 1.415 . S
C2177 H2147 0.950 . S
C2177 C2172 1.363 . S
C2177 C2176 1.415 . S
H2178 C2175 0.999 . S
H2179 C2160 0.913 . S
H2180 C2198 0.951 . S
H2181 C2200 0.951 . S
H2182 C2202 0.950 . S
H2183 C2203 0.950 . S
H2184 C2205 0.950 . S
H2185 C2208 0.950 . S
H2186 C2209 0.950 . S
H2187 C2211 0.950 . S
H2188 C2212 0.950 . S
H2189 C2213 0.951 . S
H2190 C2215 0.951 . S
H2191 C2217 0.950 . S
H2192 C2218 0.950 . S
H2193 C2220 0.950 . S
H2194 C2223 0.950 . S
H2195 C2224 0.950 . S
H2196 C2226 0.950 . S
H2197 C2227 0.950 . S
C2198 H2180 0.951 . S
C2198 C2199 1.366 . S
C2198 C2200 1.388 . S
C2199 C2198 1.366 . S
C2199 C2203 1.385 . S
C2200 H2181 0.951 . S
C2200 C2198 1.388 . S
C2200 C2201 1.366 . S
C2201 C2200 1.366 . S
C2201 C2202 1.414 . S
C2201 C2204 1.499 . S
C2202 H2182 0.950 . S
C2202 C2201 1.414 . S
C2202 C2203 1.374 . S
C2203 H2183 0.950 . S
C2203 C2199 1.385 . S
C2203 C2202 1.374 . S
C2204 C2201 1.499 . S
C2204 C2205 1.373 . S
C2204 C2206 1.389 . S
C2205 H2184 0.950 . S
C2205 C2204 1.373 . S
C2205 C2221 1.377 . S
C2206 C2204 1.389 . S
C2206 C2207 1.524 . S
C2206 C2220 1.377 . S
C2207 C2206 1.524 . S
C2207 C2208 1.397 . S
C2207 C2212 1.363 . S
C2208 H2185 0.950 . S
C2208 C2207 1.397 . S
C2208 C2209 1.334 . S
C2209 H2186 0.950 . S
C2209 C2208 1.334 . S
C2209 C2210 1.287 . S
C2210 C2209 1.287 . S
C2210 C2211 1.524 . S
C2210 H2229 0.913 . S
C2211 H2187 0.950 . S
C2211 C2210 1.524 . S
C2211 C2212 1.415 . S
C2212 H2188 0.950 . S
C2212 C2207 1.363 . S
C2212 C2211 1.415 . S
C2213 H2189 0.951 . S
C2213 C2214 1.366 . S
C2213 C2215 1.388 . S
C2214 C2213 1.366 . S
C2214 C2218 1.385 . S
C2215 H2190 0.951 . S
C2215 C2213 1.388 . S
C2215 C2216 1.366 . S
C2216 C2215 1.366 . S
C2216 C2217 1.414 . S
C2216 C2219 1.499 . S
C2217 H2191 0.950 . S
C2217 C2216 1.414 . S
C2217 C2218 1.374 . S
C2218 H2192 0.950 . S
C2218 C2214 1.385 . S
C2218 C2217 1.374 . S
C2219 C2216 1.499 . S
C2219 C2220 1.373 . S
C2219 C2221 1.389 . S
C2220 H2193 0.950 . S
C2220 C2206 1.377 . S
C2220 C2219 1.373 . S
C2221 C2205 1.377 . S
C2221 C2219 1.389 . S
C2221 C2222 1.524 . S
C2222 C2221 1.524 . S
C2222 C2223 1.397 . S
C2222 C2227 1.363 . S
C2223 H2194 0.950 . S
C2223 C2222 1.397 . S
C2223 C2224 1.334 . S
C2224 H2195 0.950 . S
C2224 C2223 1.334 . S
C2224 C2225 1.287 . S
C2225 C2224 1.287 . S
C2225 C2226 1.524 . S
C2225 H2228 0.999 . S
C2226 H2196 0.950 . S
C2226 C2225 1.524 . S
C2226 C2227 1.415 . S
C2227 H2197 0.950 . S
C2227 C2222 1.363 . S
C2227 C2226 1.415 . S
H2228 C2225 0.999 . S
H2229 C2210 0.913 . S
H2230 C2248 0.951 . S
H2231 C2250 0.951 . S
H2232 C2252 0.950 . S
H2233 C2253 0.950 . S
H2234 C2255 0.950 . S
H2235 C2258 0.950 . S
H2236 C2259 0.950 . S
H2237 C2261 0.950 . S
H2238 C2262 0.950 . S
H2239 C2263 0.951 . S
H2240 C2265 0.951 . S
H2241 C2267 0.950 . S
H2242 C2268 0.950 . S
H2243 C2270 0.950 . S
H2244 C2273 0.950 . S
H2245 C2274 0.950 . S
H2246 C2276 0.950 . S
H2247 C2277 0.950 . S
C2248 H2230 0.951 . S
C2248 C2249 1.366 . S
C2248 C2250 1.388 . S
C2249 C2248 1.366 . S
C2249 C2253 1.385 . S
C2250 H2231 0.951 . S
C2250 C2248 1.388 . S
C2250 C2251 1.366 . S
C2251 C2250 1.366 . S
C2251 C2252 1.414 . S
C2251 C2254 1.499 . S
C2252 H2232 0.950 . S
C2252 C2251 1.414 . S
C2252 C2253 1.374 . S
C2253 H2233 0.950 . S
C2253 C2249 1.385 . S
C2253 C2252 1.374 . S
C2254 C2251 1.499 . S
C2254 C2255 1.373 . S
C2254 C2256 1.389 . S
C2255 H2234 0.950 . S
C2255 C2254 1.373 . S
C2255 C2271 1.377 . S
C2256 C2254 1.389 . S
C2256 C2257 1.524 . S
C2256 C2270 1.377 . S
C2257 C2256 1.524 . S
C2257 C2258 1.397 . S
C2257 C2262 1.363 . S
C2258 H2235 0.950 . S
C2258 C2257 1.397 . S
C2258 C2259 1.334 . S
C2259 H2236 0.950 . S
C2259 C2258 1.334 . S
C2259 C2260 1.287 . S
C2260 C2259 1.287 . S
C2260 C2261 1.524 . S
C2260 H2279 0.913 . S
C2261 H2237 0.950 . S
C2261 C2260 1.524 . S
C2261 C2262 1.415 . S
C2262 H2238 0.950 . S
C2262 C2257 1.363 . S
C2262 C2261 1.415 . S
C2263 H2239 0.951 . S
C2263 C2264 1.366 . S
C2263 C2265 1.388 . S
C2264 C2263 1.366 . S
C2264 C2268 1.385 . S
C2265 H2240 0.951 . S
C2265 C2263 1.388 . S
C2265 C2266 1.366 . S
C2266 C2265 1.366 . S
C2266 C2267 1.414 . S
C2266 C2269 1.499 . S
C2267 H2241 0.950 . S
C2267 C2266 1.414 . S
C2267 C2268 1.374 . S
C2268 H2242 0.950 . S
C2268 C2264 1.385 . S
C2268 C2267 1.374 . S
C2269 C2266 1.499 . S
C2269 C2270 1.373 . S
C2269 C2271 1.389 . S
C2270 H2243 0.950 . S
C2270 C2256 1.377 . S
C2270 C2269 1.373 . S
C2271 C2255 1.377 . S
C2271 C2269 1.389 . S
C2271 C2272 1.524 . S
C2272 C2271 1.524 . S
C2272 C2273 1.397 . S
C2272 C2277 1.363 . S
C2273 H2244 0.950 . S
C2273 C2272 1.397 . S
C2273 C2274 1.334 . S
C2274 H2245 0.950 . S
C2274 C2273 1.334 . S
C2274 C2275 1.287 . S
C2275 C2274 1.287 . S
C2275 C2276 1.524 . S
C2275 H2278 0.999 . S
C2276 H2246 0.950 . S
C2276 C2275 1.524 . S
C2276 C2277 1.415 . S
C2277 H2247 0.950 . S
C2277 C2272 1.363 . S
C2277 C2276 1.415 . S
H2278 C2275 0.999 . S
H2279 C2260 0.913 . S
C499 C18 0.925 . S
C514 C338 0.926 . S
C549 C58 0.925 . S
C564 C378 0.927 . S
C599 C98 0.925 . S
C614 C418 0.926 . S
C649 C458 0.925 . S
C664 C138 0.926 . S
C699 C178 0.926 . S
C714 C258 0.927 . S
C749 C298 0.926 . S
C764 C218 0.925 . S
C799 C405 1.711 . S
C814 C5 1.712 . S
C849 C445 1.712 . S
C864 C45 1.712 . S
C899 C85 1.711 . S
C914 C245 1.711 . S
C949 C285 1.711 . S
C964 C125 1.712 . S
C999 C325 1.711 . S
C1014 C165 1.711 . S
C1049 C205 1.712 . S
C1064 C365 1.711 . S
C1099 C289 4.239 . S
C1114 C9 4.238 . S
C1149 C329 4.239 . S
C1164 C49 4.238 . S
C1199 C369 4.238 . S
C1214 C89 4.239 . S
C1249 C129 4.239 . S
C1264 C409 4.238 . S
C1299 C169 4.239 . S
C1314 C449 4.238 . S
C1349 C209 4.238 . S
C1364 C249 4.238 . S
C1399 C8 0.701 . S
C1414 C128 0.700 . S
C1449 C48 0.698 . S
C1464 C168 0.699 . S
C1499 C88 0.699 . S
C1514 C208 0.698 . S
C1549 C368 0.700 . S
C1564 C248 0.699 . S
C1599 C288 0.701 . S
C1614 C408 0.701 . S
C1649 C448 0.701 . S
C1664 C328 0.700 . S
C1699 C295 0.668 . S
C1714 C15 0.668 . S
C1749 C335 0.667 . S
C1764 C55 0.668 . S
C1799 C95 0.666 . S
C1814 C375 0.668 . S
C1849 C415 0.667 . S
C1864 C135 0.668 . S
C1899 C455 0.668 . S
C1914 C175 0.666 . S
C1949 C215 0.668 . S
C1964 C255 0.666 . S
C1999 C19 4.568 . S
C2014 C419 4.568 . S
C2049 C59 4.568 . S
C2064 C459 4.568 1_556 S
C2099 C99 4.568 1_554 S
C2114 C259 4.568 . S
C2149 C139 4.568 . S
C2164 C299 4.568 . S
C2199 C179 4.568 . S
C2214 C339 4.568 1_556 S
C2249 C379 4.568 . S
C2264 C219 4.568 1_554 S
