# Generated by pormake.
# Topology snk, (6)-cn, num edge types: 1
# Building blocks:
#     Node 0, Type 0, BuildingBlock: PAMTUU_clean_sbu_0, # of connection points: 6
#     Node 1, Type 0, BuildingBlock: PAMTUU_clean_sbu_0, # of connection points: 6
#     Node 2, Type 0, BuildingBlock: PAMTUU_clean_sbu_0, # of connection points: 6
#     Node 3, Type 0, BuildingBlock: PAMTUU_clean_sbu_0, # of connection points: 6
#     Node 4, Type 0, BuildingBlock: PAMTUU_clean_sbu_0, # of connection points: 6
#     Node 5, Type 0, BuildingBlock: PAMTUU_clean_sbu_0, # of connection points: 6
#     Node 6, Type 0, BuildingBlock: PAMTUU_clean_sbu_0, # of connection points: 6
#     Node 7, Type 0, BuildingBlock: PAMTUU_clean_sbu_0, # of connection points: 6
#     Edge 8, Type (0, 0), BuildingBlock: CIFDUS_clean_linker_0, # of connection points: 2
#     Edge 9, Type (0, 0), BuildingBlock: CIFDUS_clean_linker_0, # of connection points: 2
#     Edge 10, Type (0, 0), BuildingBlock: CIFDUS_clean_linker_0, # of connection points: 2
#     Edge 11, Type (0, 0), BuildingBlock: CIFDUS_clean_linker_0, # of connection points: 2
#     Edge 12, Type (0, 0), BuildingBlock: CIFDUS_clean_linker_0, # of connection points: 2
#     Edge 13, Type (0, 0), BuildingBlock: CIFDUS_clean_linker_0, # of connection points: 2
#     Edge 14, Type (0, 0), BuildingBlock: CIFDUS_clean_linker_0, # of connection points: 2
#     Edge 15, Type (0, 0), BuildingBlock: CIFDUS_clean_linker_0, # of connection points: 2
#     Edge 16, Type (0, 0), BuildingBlock: CIFDUS_clean_linker_0, # of connection points: 2
#     Edge 17, Type (0, 0), BuildingBlock: CIFDUS_clean_linker_0, # of connection points: 2
#     Edge 18, Type (0, 0), BuildingBlock: CIFDUS_clean_linker_0, # of connection points: 2
#     Edge 19, Type (0, 0), BuildingBlock: CIFDUS_clean_linker_0, # of connection points: 2
#     Edge 20, Type (0, 0), BuildingBlock: CIFDUS_clean_linker_0, # of connection points: 2
#     Edge 21, Type (0, 0), BuildingBlock: CIFDUS_clean_linker_0, # of connection points: 2
#     Edge 22, Type (0, 0), BuildingBlock: CIFDUS_clean_linker_0, # of connection points: 2
#     Edge 23, Type (0, 0), BuildingBlock: CIFDUS_clean_linker_0, # of connection points: 2
#     Edge 24, Type (0, 0), BuildingBlock: CIFDUS_clean_linker_0, # of connection points: 2
#     Edge 25, Type (0, 0), BuildingBlock: CIFDUS_clean_linker_0, # of connection points: 2
#     Edge 26, Type (0, 0), BuildingBlock: CIFDUS_clean_linker_0, # of connection points: 2
#     Edge 27, Type (0, 0), BuildingBlock: CIFDUS_clean_linker_0, # of connection points: 2
#     Edge 28, Type (0, 0), BuildingBlock: CIFDUS_clean_linker_0, # of connection points: 2
#     Edge 29, Type (0, 0), BuildingBlock: CIFDUS_clean_linker_0, # of connection points: 2
#     Edge 30, Type (0, 0), BuildingBlock: CIFDUS_clean_linker_0, # of connection points: 2
#     Edge 31, Type (0, 0), BuildingBlock: CIFDUS_clean_linker_0, # of connection points: 2
# Relax obj value: 0.092
# Max RMSD: 0.135
# Mean RMSD: 0.135
data_MOF--net-snk--node1-PAMTUU_clean_sbu_0--edge1-CIFDUS_clean_linker_0
_symmetry_space_group_name_H-M    P1
_symmetry_Int_Tables_number       1
_symmetry_cell_setting            triclinic
loop_
_symmetry_equiv_pos_as_xyz
'x, y, z'
_cell_length_a     33.581613
_cell_length_b     33.599567
_cell_length_c     23.301236
_cell_angle_alpha  89.929627
_cell_angle_beta   89.823746
_cell_angle_gamma 89.98638
loop_
_atom_site_label
_atom_site_type_symbol
_atom_site_fract_x
_atom_site_fract_y
_atom_site_fract_z
_atom_type_partial_charge
Tb0 Tb 0.98561 0.01192 0.56874 0.0
Tb1 Tb -0.00862 0.96027 0.44647 0.0
C2 C 0.9373 0.03526 0.4578 0.0
C3 C 0.98557 0.03974 0.72437 0.0
C4 C -0.0061 0.02347 0.84287 0.0
C5 C 0.97931 0.06048 0.82385 0.0
C6 C 0.97522 0.06849 0.76525 0.0
C7 C -9e-05 0.00262 0.7428 0.0
C8 C 0.00405 -0.00545 0.80155 0.0
C9 C 0.98105 0.04906 0.66292 0.0
O10 O 0.95915 0.95478 0.58554 0.0
O11 O 0.93963 0.93858 0.49423 0.0
O12 O 0.02059 0.92405 0.51036 0.0
O13 O 0.03724 0.97273 0.57576 0.0
O14 O 0.96162 0.93375 0.37745 0.0
O15 O 0.02567 0.93107 0.38335 0.0
O16 O 0.04112 0.00199 0.44829 0.0
O17 O 0.01441 0.05024 0.5068 0.0
O18 O 0.93613 0.0307 0.51398 0.0
O19 O 0.96271 0.01583 0.42554 0.0
C20 C 0.93652 0.93473 0.55026 0.0
O21 O 0.01326 0.04701 0.63161 0.0
O22 O 0.95062 0.03292 0.63724 0.0
C23 C 0.04162 0.93681 0.55405 0.0
C24 C -0.00245 0.93372 0.29028 0.0
C25 C -0.00173 0.9498 0.17105 0.0
C26 C 0.01084 0.91263 0.19232 0.0
C27 C 0.01041 0.9047 0.25128 0.0
C28 C 0.98602 0.97128 0.26965 0.0
C29 C 0.98636 0.97924 0.21058 0.0
C30 C -0.0054 0.92357 0.35174 0.0
C31 C 0.03973 0.0388 0.46725 0.0
H32 H 0.97055 0.0832 0.85432 0.0
H33 H 0.96387 0.09721 0.75182 0.0
H34 H 0.00801 0.98 0.71177 0.0
H35 H 0.01573 0.96589 0.81455 0.0
H36 H 0.02089 0.88951 0.16335 0.0
H37 H 0.01958 0.8756 0.26639 0.0
H38 H 0.97598 -0.00586 0.2991 0.0
H39 H 0.97616 0.00805 0.19581 0.0
Tb40 Tb 0.21162 0.74662 0.84461 0.0
Tb41 Tb 0.26051 0.74511 0.72057 0.0
C42 C 0.18474 0.69176 0.74271 0.0
C43 C 0.18509 0.74304 1.00015 0.0
C44 C 0.20325 0.73403 0.11748 0.0
C45 C 0.16397 0.72924 0.09788 0.0
C46 C 0.155 0.73379 0.03971 0.0
C47 C 0.22446 0.74728 1.01919 0.0
C48 C 0.23345 0.74295 0.07745 0.0
C49 C 0.17484 0.74821 0.93936 0.0
O50 O 0.25313 0.69692 0.85047 0.0
O51 O 0.29872 0.71456 0.7807 0.0
O52 O 0.28165 0.7959 0.76996 0.0
O53 O 0.26861 0.77413 0.86134 0.0
O54 O 0.29108 0.71443 0.65536 0.0
O55 O 0.28485 0.77835 0.65283 0.0
O56 O 0.20375 0.77296 0.70393 0.0
O57 O 0.19211 0.79772 0.79398 0.0
O58 O 0.17359 0.71523 0.78481 0.0
O59 O 0.22003 0.69454 0.71838 0.0
C60 C 0.28808 0.69316 0.82534 0.0
O61 O 0.18941 0.77965 0.91402 0.0
O62 O 0.17798 0.71659 0.90735 0.0
C63 C 0.28786 0.79737 0.82557 0.0
C64 C 0.2878 0.74525 0.56437 0.0
C65 C 0.27055 0.74725 0.44614 0.0
C66 C 0.30959 0.75357 0.46578 0.0
C67 C 0.31809 0.75259 0.52436 0.0
C68 C 0.24884 0.73829 0.54526 0.0
C69 C 0.24029 0.73916 0.48648 0.0
C70 C 0.29727 0.74679 0.62573 0.0
C71 C 0.18606 0.79829 0.73827 0.0
H72 H 0.14001 0.72276 0.12767 0.0
H73 H 0.12447 0.73034 1.02565 0.0
H74 H 0.24817 0.7541 0.98908 0.0
H75 H 0.26406 0.74632 0.09113 0.0
H76 H 0.33364 0.75931 0.43581 0.0
H77 H 0.34831 0.75804 0.5385 0.0
H78 H 0.22504 0.73281 0.57578 0.0
H79 H 0.20987 0.73451 0.47272 0.0
Tb80 Tb 0.49341 0.96016 0.10393 0.0
Tb81 Tb 0.49467 0.00972 0.98089 0.0
C82 C 0.54471 0.93117 0.99982 0.0
C83 C 0.498 0.9365 0.26073 0.0
C84 C 0.50734 0.95607 0.37766 0.0
C85 C 0.51402 0.91697 0.35834 0.0
C86 C 0.50933 0.90731 0.30043 0.0
C87 C 0.49177 0.97571 0.27947 0.0
C88 C 0.49627 0.98538 0.33752 0.0
C89 C 0.49263 0.92534 0.20023 0.0
O90 O 0.54621 -0.00272 0.10257 0.0
O91 O 0.52268 0.04741 0.04538 0.0
O92 O 0.44121 0.02599 1.02753 0.0
O93 O 0.46426 0.017 0.11884 0.0
O94 O 0.52728 0.0399 0.91711 0.0
O95 O 0.46315 0.03742 0.91427 0.0
O96 O 0.46415 0.95442 0.9618 0.0
O97 O 0.44368 0.9382 0.05338 0.0
O98 O 0.52193 0.92059 0.04313 0.0
O99 O 0.54317 0.96687 0.97667 0.0
C100 C 0.54732 0.0342 0.08463 0.0
O101 O 0.46097 0.93922 0.17489 0.0
O102 O 0.52405 0.92808 0.16756 0.0
C103 C 0.43904 0.03309 0.08271 0.0
C104 C 0.49672 0.03935 0.82583 0.0
C105 C 0.49449 0.0229 0.70718 0.0
C106 C 0.48646 0.06142 0.72777 0.0
C107 C 0.48757 0.06952 0.78653 0.0
C108 C 0.50525 0.00091 0.80574 0.0
C109 C 0.50429 -0.00722 0.7468 0.0
C110 C 0.49546 0.04828 0.88753 0.0
C111 C 0.44106 0.93446 0.99729 0.0
H112 H 0.52214 0.89363 0.38819 0.0
H113 H 0.51428 0.87691 0.28668 0.0
H114 H 0.4833 -0.00125 0.24931 0.0
H115 H 0.49138 0.01585 0.35092 0.0
H116 H 0.47934 0.08539 0.6984 0.0
H117 H 0.48086 0.09934 0.80137 0.0
H118 H 0.5121 0.97716 0.83564 0.0
H119 H 0.51025 0.96272 0.73237 0.0
Tb120 Tb 0.26314 0.24545 0.32825 0.0
Tb121 Tb 0.21136 0.23414 0.20689 0.0
C122 C 0.28249 0.29306 0.21404 0.0
C123 C 0.28799 0.25279 0.48489 0.0
C124 C 0.2696 0.2507 0.60354 0.0
C125 C 0.30827 0.26015 0.58437 0.0
C126 C 0.31731 0.26117 0.52574 0.0
C127 C 0.24939 0.24296 0.50346 0.0
C128 C 0.24029 0.24183 0.5623 0.0
C129 C 0.29822 0.25513 0.42335 0.0
O130 O 0.20343 0.26643 0.34415 0.0
O131 O 0.18739 0.28557 0.25283 0.0
O132 O 0.1787 0.20326 0.27367 0.0
O133 O 0.23152 0.18898 0.33291 0.0
O134 O 0.18211 0.2609 0.13741 0.0
O135 O 0.18398 0.19701 0.14576 0.0
O136 O 0.2578 0.1886 0.20818 0.0
O137 O 0.3037 0.21646 0.26981 0.0
O138 O 0.27978 0.29416 0.27048 0.0
O139 O 0.26445 0.26594 0.18339 0.0
C140 C 0.1827 0.28841 0.30873 0.0
O141 O 0.29802 0.22175 0.3949 0.0
O142 O 0.2814 0.28374 0.39437 0.0
C143 C 0.19526 0.18205 0.31447 0.0
C144 C 0.18479 0.22387 0.05162 0.0
C145 C 0.20289 0.22156 0.93285 0.0
C146 C 0.16433 0.21251 0.95292 0.0
C147 C 0.15541 0.21371 1.01165 0.0
C148 C 0.22347 0.23241 0.03212 0.0
C149 C 0.23242 0.23135 0.97331 0.0
C150 C 0.17419 0.22695 0.113 0.0
C151 C 0.2938 0.19033 0.23054 0.0
H152 H 0.33174 0.26654 0.61478 0.0
H153 H 0.34729 0.26871 0.51226 0.0
H154 H 0.22628 0.2365 0.47249 0.0
H155 H 0.21014 0.23481 0.57544 0.0
H156 H 0.14073 0.20532 0.92311 0.0
H157 H 0.12534 0.20722 1.0258 0.0
H158 H 0.24664 0.24023 0.06234 0.0
H159 H 0.26253 0.23798 0.95955 0.0
Tb160 Tb 0.70316 0.24852 0.35586 0.0
Tb161 Tb 0.75445 0.24149 0.23477 0.0
C162 C 0.67485 0.19516 0.25459 0.0
C163 C 0.67971 0.24714 0.51099 0.0
C164 C 0.70354 0.23694 0.62627 0.0
C165 C 0.66308 0.24203 0.61225 0.0
C166 C 0.65132 0.24712 0.55513 0.0
C167 C 0.72006 0.24179 0.52448 0.0
C168 C 0.73188 0.23681 0.58156 0.0
C169 C 0.66716 0.25281 0.45109 0.0
O170 O 0.73981 0.19549 0.36204 0.0
O171 O 0.79022 0.21116 0.29887 0.0
O172 O 0.77728 0.29269 0.28129 0.0
O173 O 0.76154 0.27354 0.37307 0.0
O174 O 0.78101 0.20637 0.17045 0.0
O175 O 0.78259 0.27036 0.16582 0.0
O176 O 0.7002 0.27356 0.21482 0.0
O177 O 0.68816 0.30014 0.3038 0.0
O178 O 0.66349 0.22125 0.29329 0.0
O179 O 0.71204 0.19279 0.23755 0.0
C180 C 0.77621 0.19055 0.34251 0.0
O181 O 0.6827 0.28333 0.42466 0.0
O182 O 0.66771 0.22106 0.41902 0.0
C183 C 0.78207 0.29555 0.33704 0.0
C184 C 0.77562 0.23597 0.07901 0.0
C185 C 0.7493 0.23852 0.96407 0.0
C186 C 0.79021 0.23641 0.97683 0.0
C187 C 0.80321 0.23522 0.03382 0.0
C188 C 0.73477 0.23734 0.06666 0.0
C189 C 0.72172 0.23862 1.00973 0.0
C190 C 0.78958 0.2372 0.13874 0.0
C191 C 0.68361 0.30052 0.24782 0.0
H192 H 0.64039 0.24167 0.64538 0.0
H193 H 0.62002 0.251 0.54542 0.0
H194 H 0.74243 0.24169 0.49085 0.0
H195 H 0.7633 0.23348 0.5907 0.0
H196 H 0.81224 0.23677 0.9428 0.0
H197 H 0.83487 0.23439 0.04263 0.0
H198 H 0.71301 0.23792 0.10109 0.0
H199 H 0.69002 0.23971 1.00146 0.0
Tb200 Tb 0.77553 0.74533 0.8489 0.0
Tb201 Tb 0.72388 0.73633 0.72812 0.0
C202 C 0.79507 0.79545 0.73861 0.0
C203 C 0.79859 0.74574 1.00377 0.0
C204 C 0.77436 0.73547 0.11908 0.0
C205 C 0.815 0.73897 0.10478 0.0
C206 C 0.82696 0.74404 0.04763 0.0
C207 C 0.75804 0.74221 1.01761 0.0
C208 C 0.74602 0.73715 0.0747 0.0
C209 C 0.81137 0.75084 0.94373 0.0
O210 O 0.71745 0.77087 0.86556 0.0
O211 O 0.70107 0.7883 0.77337 0.0
O212 O 0.68792 0.70738 0.79356 0.0
O213 O 0.73813 0.69304 0.85752 0.0
O214 O 0.69484 0.76411 0.65927 0.0
O215 O 0.6982 0.70021 0.66443 0.0
O216 O 0.76687 0.68799 0.73209 0.0
O217 O 0.81512 0.71764 0.78673 0.0
O218 O 0.79093 0.79576 0.79474 0.0
O219 O 0.7777 0.76859 0.70646 0.0
C220 C 0.69669 0.79213 0.82914 0.0
O221 O 0.81104 0.71871 0.9124 0.0
O222 O 0.79585 0.78104 0.91661 0.0
C223 C 0.70157 0.68841 0.8388 0.0
C224 C 0.70265 0.72967 0.57263 0.0
C225 C 0.72888 0.73335 0.45744 0.0
C226 C 0.68797 0.73156 0.47063 0.0
C227 C 0.67501 0.7298 0.52774 0.0
C228 C 0.7435 0.73073 0.55985 0.0
C229 C 0.7565 0.73253 0.5028 0.0
C230 C 0.68875 0.73067 0.63256 0.0
C231 C 0.80405 0.69109 0.74872 0.0
H232 H 0.83764 0.73725 0.13769 0.0
H233 H 0.8584 0.7465 0.03766 0.0
H234 H 0.73567 0.74351 0.98424 0.0
H235 H 0.71449 0.73507 0.08411 0.0
H236 H 0.66588 0.73264 0.43689 0.0
H237 H 0.64336 0.72929 0.53688 0.0
H238 H 0.7653 0.73071 0.59404 0.0
H239 H 0.7882 0.73335 0.49423 0.0
Tb240 Tb 0.49416 0.52334 0.09287 0.0
Tb241 Tb 0.48226 0.4705 0.97133 0.0
C242 C 0.4352 0.54845 0.9946 0.0
C243 C 0.50333 0.54891 0.24895 0.0
C244 C 0.50581 0.5299 0.36751 0.0
C245 C 0.50961 0.56956 0.34858 0.0
C246 C 0.50834 0.5789 0.29002 0.0
C247 C 0.49994 0.5092 0.26727 0.0
C248 C 0.50109 0.49978 0.32598 0.0
C249 C 0.49988 0.55985 0.1877 0.0
O250 O 0.46649 0.46784 0.11669 0.0
O251 O 0.43562 0.45265 1.03161 0.0
O252 O 0.5167 0.4328 1.02825 0.0
O253 O 0.54237 0.48028 0.08948 0.0
O254 O 0.44385 0.45061 0.90628 0.0
O255 O 0.50611 0.43484 0.90551 0.0
O256 O 0.53306 0.50906 0.95772 0.0
O257 O 0.52325 0.55813 1.02609 0.0
O258 O 0.44017 0.54392 0.05014 0.0
O259 O 0.45651 0.52857 0.95722 0.0
C260 C 0.43891 0.44913 0.08772 0.0
O261 O 0.53015 0.55162 0.15461 0.0
O262 O 0.46628 0.55077 0.1632 0.0
C263 C 0.5422 0.44417 0.06767 0.0
C264 C 0.47492 0.4435 0.81548 0.0
C265 C 0.47828 0.46031 0.69626 0.0
C266 C 0.47325 0.42104 0.71627 0.0
C267 C 0.4716 0.41279 0.77515 0.0
C268 C 0.48033 0.48273 0.79607 0.0
C269 C 0.48206 0.49106 0.73703 0.0
C270 C 0.47264 0.43391 0.87733 0.0
C271 C 0.53995 0.54466 0.97875 0.0
H272 H 0.51272 0.59361 0.37914 0.0
H273 H 0.51072 0.60975 0.27683 0.0
H274 H 0.49606 0.48555 0.23621 0.0
H275 H 0.49854 0.4689 0.33881 0.0
H276 H 0.47088 0.39651 0.68638 0.0
H277 H 0.46765 0.38229 0.78922 0.0
H278 H 0.48295 0.5069 0.82656 0.0
H279 H 0.48557 0.52167 0.72333 0.0
Tb280 Tb -0.00539 0.45898 0.60248 0.0
Tb281 Tb -0.00919 0.50954 0.48002 0.0
C282 C 0.0438 0.43379 0.49231 0.0
C283 C -0.0055 0.43308 0.75923 0.0
C284 C 0.9864 0.45028 0.87738 0.0
C285 C -0.00483 0.41142 0.85871 0.0
C286 C -0.00084 0.40296 0.80025 0.0
C287 C 0.98591 0.47198 0.77732 0.0
C288 C 0.98194 0.48053 0.83594 0.0
C289 C -0.00127 0.4232 0.69801 0.0
O290 O 0.02144 0.51677 0.61789 0.0
O291 O 0.0438 0.52792 0.52654 0.0
O292 O 0.96155 0.54582 0.54512 0.0
O293 O 0.94104 0.49506 0.60425 0.0
O294 O 0.02148 0.53691 0.41214 0.0
O295 O 0.95742 0.53987 0.41729 0.0
O296 O 0.94206 0.46679 0.4779 0.0
O297 O 0.96391 0.42003 0.5432 0.0
O298 O 0.04338 0.438 0.54848 0.0
O299 O 0.01972 0.45387 0.45879 0.0
C300 C 0.04575 0.53456 0.58194 0.0
O301 O 0.9665 0.4255 0.66718 0.0
O302 O 0.02926 0.43863 0.67148 0.0
C303 C 0.938 0.53169 0.58536 0.0
C304 C 0.98658 0.53844 0.32473 0.0
C305 C 0.98715 0.52291 0.20554 0.0
C306 C 0.98011 0.56159 0.22639 0.0
C307 C 0.97988 0.56924 0.28538 0.0
C308 C -0.00727 0.49958 0.30447 0.0
C309 C -0.007 0.49187 0.24537 0.0
C310 C 0.98886 0.54777 0.38636 0.0
C311 C 0.94034 0.43109 0.50117 0.0
H312 H -0.00055 0.38755 0.88935 0.0
H313 H 0.00598 0.37279 0.78704 0.0
H314 H 0.98217 0.49563 0.74613 0.0
H315 H 0.97481 0.51068 0.84875 0.0
H316 H 0.97484 0.58606 0.19708 0.0
H317 H 0.97498 0.59939 0.30026 0.0
H318 H -0.00196 0.4754 0.33429 0.0
H319 H -0.00112 0.46182 0.23088 0.0
H320 H 0.11693 0.03293 0.43409 0.0
H321 H 0.01628 0.11262 0.43691 0.0
H322 H 0.05521 0.16363 0.3873 0.0
H323 H 0.11789 0.18563 0.34353 0.0
H324 H 0.22073 0.10899 0.34861 0.0
H325 H 0.18116 0.05656 0.39479 0.0
C326 C 0.10375 0.06152 0.42371 0.0
C327 C 0.06404 0.06925 0.43878 0.0
C328 C 0.12664 0.09108 0.39669 0.0
C329 C 0.04704 0.10636 0.42592 0.0
C330 C 0.06916 0.1354 0.39742 0.0
C331 C 0.13145 0.15732 0.35459 0.0
C332 C 0.17179 0.15071 0.34239 0.0
C333 C 0.10895 0.12808 0.38264 0.0
C334 C 0.18955 0.11444 0.35776 0.0
C335 C 0.16698 0.08456 0.38399 0.0
H336 H 0.07048 0.93765 0.66341 0.0
H337 H 0.07671 0.87307 0.50352 0.0
H338 H 0.12204 0.82499 0.54647 0.0
H339 H 0.15895 0.80061 0.62907 0.0
H340 H 0.15181 0.863 0.79065 0.0
H341 H 0.10759 0.91249 0.74739 0.0
C342 C 0.08203 0.91321 0.63794 0.0
C343 C 0.07033 0.90898 0.58034 0.0
C344 C 0.10768 0.88515 0.66322 0.0
C345 C 0.08513 0.8769 0.54802 0.0
C346 C 0.11108 0.84939 0.5725 0.0
C347 C 0.14785 0.82503 0.65499 0.0
C348 C 0.15877 0.82809 0.713 0.0
C349 C 0.12235 0.8531 0.63006 0.0
C350 C 0.14381 0.85986 0.74589 0.0
C351 C 0.1186 0.88824 0.72115 0.0
H352 H 0.30712 0.80983 0.93732 0.0
H353 H 0.33608 0.8482 0.76519 0.0
H354 H 0.38616 0.89372 0.80302 0.0
H355 H 0.42191 0.9225 0.8849 0.0
H356 H 0.39233 0.88404 0.05684 0.0
H357 H 0.34241 0.8387 1.01885 0.0
C358 C 0.32431 0.82814 0.90794 0.0
C359 C 0.31777 0.82552 0.84847 0.0
C360 C 0.35306 0.85424 0.9299 0.0
C361 C 0.34039 0.84957 0.81119 0.0
C362 C 0.36911 0.87562 0.83276 0.0
C363 C 0.40462 0.90417 0.91412 0.0
C364 C 0.411 0.90674 0.97368 0.0
C365 C 0.37575 0.87815 0.89204 0.0
C366 C 0.38813 0.8828 1.01081 0.0
C367 C 0.35951 0.85679 0.98916 0.0
H368 H 0.43799 0.07446 0.18282 0.0
H369 H 0.37013 0.05295 1.02893 0.0
H370 H 0.31882 0.09912 0.06152 0.0
H371 H 0.2936 0.14632 0.13293 0.0
H372 H 0.36266 0.17013 0.28503 0.0
H373 H 0.41309 0.12249 0.25384 0.0
C374 C 0.41184 0.07973 0.15667 0.0
C375 C 0.40779 0.06028 0.1037 0.0
C376 C 0.38273 0.10685 0.17517 0.0
C377 C 0.374 0.0677 0.06985 0.0
C378 C 0.3446 0.09405 0.08844 0.0
C379 C 0.31961 0.14098 0.15935 0.0
C380 C 0.32432 0.16167 0.2112 0.0
C381 C 0.34873 0.11391 0.14089 0.0
C382 C 0.3584 0.15472 0.24471 0.0
C383 C 0.38722 0.12739 0.22704 0.0
H384 H 0.91714 0.92716 0.66233 0.0
H385 H 0.88997 0.87965 0.49481 0.0
H386 H 0.84299 0.83269 0.53841 0.0
H387 H 0.81094 0.80447 0.62449 0.0
H388 H 0.83897 0.85297 0.79131 0.0
H389 H 0.88449 0.90038 0.74711 0.0
C390 C 0.90105 0.90656 0.63509 0.0
C391 C 0.90726 0.90678 0.57536 0.0
C392 C 0.87429 0.87985 0.6603 0.0
C393 C 0.88579 0.88008 0.54091 0.0
C394 C 0.85898 0.85321 0.56582 0.0
C395 C 0.82691 0.82546 0.65122 0.0
C396 C 0.8216 0.82502 0.71122 0.0
C397 C 0.85317 0.85273 0.62554 0.0
C398 C 0.84247 0.85255 0.74509 0.0
C399 C 0.86856 0.87969 0.71988 0.0
H400 H 0.86909 0.06873 0.49976 0.0
H401 H 0.947 0.06794 0.35197 0.0
H402 H 0.90456 0.11613 0.30378 0.0
H403 H 0.84512 0.15826 0.30277 0.0
H404 H 0.76578 0.15799 0.44889 0.0
H405 H 0.80886 0.1106 0.49824 0.0
C406 C 0.87677 0.0792 0.4571 0.0
C407 C 0.91109 0.06466 0.42958 0.0
C408 C 0.85193 0.10671 0.42911 0.0
C409 C 0.92057 0.07836 0.37409 0.0
C410 C 0.89638 0.10605 0.34643 0.0
C411 C 0.83728 0.14789 0.34544 0.0
C412 C 0.80229 0.1616 0.37196 0.0
C413 C 0.86194 0.12035 0.37341 0.0
C414 C 0.79243 0.14768 0.4272 0.0
C415 C 0.81711 0.12065 0.45562 0.0
H416 H 0.68866 0.12431 0.20364 0.0
H417 H 0.59485 0.20794 0.24194 0.0
H418 H 0.54727 0.16677 0.18897 0.0
H419 H 0.53256 0.10666 0.13122 0.0
H420 H 0.62578 0.02111 0.10024 0.0
H421 H 0.67365 0.06358 0.15011 0.0
C422 C 0.65777 0.13351 0.2005 0.0
C423 C 0.64528 0.16912 0.22652 0.0
C424 C 0.63065 0.10952 0.17074 0.0
C425 C 0.6051 0.18047 0.22262 0.0
C426 C 0.57797 0.15709 0.19201 0.0
C427 C 0.5635 0.09775 0.13498 0.0
C428 C 0.57605 0.06133 0.11151 0.0
C429 C 0.59046 0.12164 0.16563 0.0
C430 C 0.61579 0.04929 0.11772 0.0
C431 C 0.64304 0.07344 0.14633 0.0
H432 H 0.6643 0.79359 0.93576 0.0
H433 H 0.66338 0.8554 0.77326 0.0
H434 H 0.61656 0.90428 0.812 0.0
H435 H 0.5765 0.92982 0.89249 0.0
H436 H 0.57551 0.86612 0.05348 0.0
H437 H 0.62255 0.81759 1.0148 0.0
C438 C 0.65392 0.81779 0.90881 0.0
C439 C 0.66748 0.82102 0.85185 0.0
C440 C 0.62672 0.84545 0.9311 0.0
C441 C 0.65333 0.85223 0.81725 0.0
C442 C 0.62667 0.88025 0.8394 0.0
C443 C 0.58671 0.90538 0.91913 0.0
C444 C 0.57278 0.90169 0.97586 0.0
C445 C 0.6133 0.87724 0.89635 0.0
C446 C 0.58576 0.86956 1.00963 0.0
C447 C 0.61271 0.84185 0.9876 0.0
H448 H 0.59883 0.59216 1.01855 0.0
H449 H 0.53941 0.55526 0.86384 0.0
H450 H 0.58329 0.59767 0.80634 0.0
H451 H 0.63948 0.64447 0.80003 0.0
H452 H 0.7029 0.67641 0.9539 0.0
H453 H 0.65691 0.63676 1.01175 0.0
C454 C 0.59552 0.59372 0.9723 0.0
C455 C 0.56603 0.57104 0.94526 0.0
C456 C 0.62173 0.61706 0.9394 0.0
C457 C 0.56213 0.57257 0.88531 0.0
C458 C 0.58714 0.59677 0.85249 0.0
C459 C 0.64312 0.64266 0.84621 0.0
C460 C 0.67436 0.66325 0.87272 0.0
C461 C 0.6172 0.61898 0.87903 0.0
C462 C 0.67915 0.66051 0.93252 0.0
C463 C 0.65279 0.638 0.96567 0.0
H464 H 0.65249 0.30088 0.14026 0.0
H465 H 0.65806 0.36982 0.29635 0.0
H466 H 0.61622 0.42108 0.25321 0.0
H467 H 0.57715 0.44573 0.17213 0.0
H468 H 0.56878 0.37565 1.01753 0.0
H469 H 0.61287 0.32541 0.05915 0.0
C470 C 0.64469 0.32719 0.16478 0.0
C471 C 0.65842 0.33154 0.22142 0.0
C472 C 0.62019 0.35632 0.14001 0.0
C473 C 0.64776 0.36565 0.25276 0.0
C474 C 0.62391 0.39503 0.2281 0.0
C475 C 0.58527 0.41965 0.14729 0.0
C476 C 0.56998 0.41451 0.0917 0.0
C477 C 0.60989 0.39061 0.17186 0.0
C478 C 0.58019 0.38024 0.06045 0.0
C479 C 0.60537 0.35154 0.0842 0.0
H480 H 0.90496 0.43138 0.39651 0.0
H481 H 0.91021 0.36572 0.55561 0.0
H482 H 0.86116 0.31837 0.51936 0.0
H483 H 0.81664 0.29568 0.44248 0.0
H484 H 0.81383 0.35973 0.28184 0.0
H485 H 0.86203 0.4076 0.31872 0.0
C486 C 0.89527 0.40678 0.42333 0.0
C487 C 0.91105 0.4022 0.47877 0.0
C488 C 0.86751 0.37935 0.40193 0.0
C489 C 0.8986 0.36986 0.51269 0.0
C490 C 0.87048 0.34282 0.49207 0.0
C491 C 0.8265 0.32018 0.41561 0.0
C492 C 0.81153 0.32421 0.3596 0.0
C493 C 0.8547 0.34729 0.43677 0.0
C494 C 0.82495 0.35586 0.32508 0.0
C495 C 0.85246 0.38332 0.34615 0.0
H496 H 0.79307 0.61786 0.7034 0.0
H497 H 0.88262 0.70772 0.73124 0.0
H498 H 0.93168 0.66736 0.67959 0.0
H499 H 0.94901 0.60623 0.62617 0.0
H500 H 0.86078 0.51423 0.60616 0.0
H501 H 0.81107 0.55576 0.65449 0.0
C502 C 0.82336 0.62852 0.69823 0.0
C503 C 0.83426 0.66565 0.72092 0.0
C504 C 0.85148 0.6049 0.66948 0.0
C505 C 0.87366 0.67903 0.71449 0.0
C506 C 0.90163 0.65611 0.68467 0.0
C507 C 0.91875 0.59563 0.63206 0.0
C508 C 0.90812 0.5577 0.61213 0.0
C509 C 0.89083 0.61906 0.66178 0.0
C510 C 0.86929 0.54356 0.62101 0.0
C511 C 0.84099 0.5672 0.64867 0.0
H512 H 0.33788 0.34356 0.25869 0.0
H513 H 0.28321 0.30796 0.09923 0.0
H514 H 0.3261 0.3534 0.04631 0.0
H515 H 0.38027 0.40205 0.04451 0.0
H516 H 0.43578 0.43718 0.20359 0.0
H517 H 0.39149 0.39326 0.25699 0.0
C518 C 0.33519 0.34596 0.21244 0.0
C519 C 0.3075 0.32226 0.18312 0.0
C520 C 0.36024 0.37198 0.18193 0.0
C521 C 0.30449 0.32561 0.12304 0.0
C522 C 0.32899 0.35165 0.09257 0.0
C523 C 0.38266 0.4002 0.09085 0.0
C524 C 0.41142 0.42282 0.11977 0.0
C525 C 0.35719 0.37473 0.12149 0.0
C526 C 0.41402 0.42002 0.17997 0.0
C527 C 0.38865 0.39491 0.21072 0.0
H528 H 0.42779 0.57594 0.88604 0.0
H529 H 0.3741 0.58375 0.05422 0.0
H530 H 0.32274 0.62826 1.01636 0.0
H531 H 0.29317 0.66501 0.93496 0.0
H532 H 0.34923 0.65819 0.76825 0.0
H533 H 0.39943 0.61297 0.80613 0.0
C534 C 0.40486 0.58727 0.91456 0.0
C535 C 0.40472 0.5764 0.97284 0.0
C536 C 0.37574 0.61293 0.89269 0.0
C537 C 0.37497 0.59174 1.00918 0.0
C538 C 0.34551 0.61708 0.98753 0.0
C539 C 0.31623 0.65335 0.90695 0.0
C540 C 0.3174 0.66479 0.84885 0.0
C541 C 0.34555 0.6278 0.92927 0.0
C542 C 0.34775 0.64994 0.81317 0.0
C543 C 0.37647 0.62406 0.83475 0.0
H544 H 0.18493 0.65465 0.6388 0.0
H545 H 0.11959 0.66231 0.79823 0.0
H546 H 0.07142 0.61381 0.76315 0.0
H547 H 0.04737 0.56965 0.687 0.0
H548 H 0.11106 0.56386 0.52603 0.0
H549 H 0.16024 0.61113 0.56193 0.0
C550 C 0.16027 0.64555 0.66596 0.0
C551 C 0.15597 0.66201 0.72111 0.0
C552 C 0.13228 0.61802 0.64522 0.0
C553 C 0.12355 0.65024 0.75551 0.0
C554 C 0.096 0.62243 0.73554 0.0
C555 C 0.07209 0.57859 0.65983 0.0
C556 C 0.07557 0.56311 0.604 0.0
C557 C 0.1 0.60619 0.68044 0.0
C558 C 0.10759 0.57536 0.56916 0.0
C559 C 0.13579 0.60236 0.58967 0.0
H560 H 0.17039 0.30448 0.42124 0.0
H561 H 0.13018 0.33697 0.25164 0.0
H562 H 0.08356 0.3849 0.29356 0.0
H563 H 0.05468 0.4177 0.37849 0.0
H564 H 0.09608 0.38483 0.54749 0.0
H565 H 0.14192 0.33687 0.50526 0.0
C566 C 0.15141 0.32189 0.3932 0.0
C567 C 0.15378 0.31704 0.33329 0.0
C568 C 0.12495 0.34941 0.41747 0.0
C569 C 0.12899 0.34007 0.29787 0.0
C570 C 0.10234 0.3675 0.32182 0.0
C571 C 0.07371 0.40008 0.40616 0.0
C572 C 0.07186 0.40497 0.46618 0.0
C573 C 0.10015 0.37246 0.38159 0.0
C574 C 0.09682 0.38183 0.50122 0.0
C575 C 0.12307 0.35431 0.47713 0.0
H576 H 0.97652 0.95486 0.90104 0.0
H577 H 0.02144 0.0739 0.92601 0.0
H578 H 0.0267 0.06184 1.029 0.0
H579 H 0.01851 0.01756 0.11242 0.0
H580 H 0.97331 0.89863 0.08731 0.0
H581 H 0.96925 0.91031 0.98418 0.0
C582 C 0.9879 0.97804 0.92886 0.0
C583 C -0.00162 0.01531 0.90554 0.0
C584 C -0.00899 0.97089 0.98823 0.0
C585 C 0.01255 0.04512 0.94265 0.0
C586 C 0.01579 0.0382 1.00164 0.0
C587 C 0.00752 -0.00573 0.08448 0.0
C588 C -0.00364 0.95722 0.10791 0.0
C589 C 0.00491 0.00126 1.025 0.0
C590 C 0.98271 0.92724 0.07066 0.0
C591 C 0.9801 0.93397 1.01157 0.0
H592 H 0.22355 0.69811 0.38242 0.0
H593 H 0.29729 0.80296 0.37004 0.0
H594 H 0.28378 0.80751 0.26743 0.0
H595 H 0.25043 0.78234 0.18134 0.0
H596 H 0.17635 0.67776 0.19316 0.0
H597 H 0.19008 0.67284 0.29591 0.0
C598 C 0.23639 0.72211 0.35731 0.0
C599 C 0.26152 0.75003 0.38386 0.0
C600 C 0.22839 0.72467 0.29823 0.0
C601 C 0.27832 0.78072 0.35056 0.0
C602 C 0.27046 0.78348 0.29191 0.0
C603 C 0.23763 0.75823 0.20628 0.0
C604 C 0.21245 0.73046 0.17961 0.0
C605 C 0.24563 0.75558 0.26527 0.0
C606 C 0.19553 0.69977 0.21277 0.0
C607 C 0.20348 0.69685 0.27147 0.0
H608 H 0.54525 0.97853 0.64162 0.0
H609 H 0.43716 0.04768 0.63243 0.0
H610 H 0.43226 0.03417 0.52982 0.0
H611 H 0.45785 0.00167 0.4429 0.0
H612 H 0.56577 0.93229 0.45172 0.0
H613 H 0.57121 0.94642 0.55424 0.0
C614 C 0.52049 -0.0096 0.61721 0.0
C615 C 0.4917 0.01418 0.64473 0.0
C616 C 0.51774 0.98239 0.55813 0.0
C617 C 0.46005 0.02975 0.61226 0.0
C618 C 0.45709 0.02187 0.55359 0.0
C619 C 0.4828 -0.00999 0.46711 0.0
C620 C 0.51132 0.96592 0.43962 0.0
C621 C 0.48576 -0.00175 0.52606 0.0
C622 C 0.54314 0.95053 0.47191 0.0
C623 C 0.54637 0.95873 0.53052 0.0
H624 H 0.24784 0.27464 0.87169 0.0
H625 H 0.17816 0.16766 0.85222 0.0
H626 H 0.19165 0.16763 0.74914 0.0
H627 H 0.22403 0.19751 0.66422 0.0
H628 H 0.29365 0.30451 0.68423 0.0
H629 H 0.27997 0.30451 0.78709 0.0
C630 C 0.23592 0.25106 0.84506 0.0
C631 C 0.21199 0.22121 0.87 0.0
C632 C 0.24389 0.25113 0.78568 0.0
C633 C 0.19628 0.19131 0.83434 0.0
C634 C 0.20414 0.19115 0.7753 0.0
C635 C 0.23593 0.22102 0.69098 0.0
C636 C 0.26005 0.25084 0.66625 0.0
C637 C 0.22785 0.22095 0.75041 0.0
C638 C 0.27554 0.2808 0.70197 0.0
C639 C 0.26756 0.28097 0.7609 0.0
H640 H 0.77688 0.19821 0.87028 0.0
H641 H 0.69077 0.28673 0.92166 0.0
H642 H 0.66868 0.29351 0.82245 0.0
H643 H 0.67497 0.27578 0.72068 0.0
H644 H 0.76067 0.18687 0.6691 0.0
H645 H 0.78238 0.1796 0.76845 0.0
C646 C 0.75344 0.21915 0.85973 0.0
C647 C 0.73552 0.24186 0.90353 0.0
C648 C 0.74099 0.22311 0.80242 0.0
C649 C 0.70476 0.26845 0.88907 0.0
C650 C 0.69226 0.27257 0.83222 0.0
C651 C 0.69807 0.25444 0.73115 0.0
C652 C 0.71616 0.23201 0.68719 0.0
C653 C 0.71022 0.25013 0.78852 0.0
C654 C 0.74657 0.20501 0.70174 0.0
C655 C 0.75886 0.20062 0.75868 0.0
H656 H 0.70018 0.69519 0.36265 0.0
H657 H 0.78849 0.7808 0.41571 0.0
H658 H 0.81067 0.78842 0.3165 0.0
H659 H 0.804 0.77219 0.21426 0.0
H660 H 0.71576 0.6866 0.16094 0.0
H661 H 0.69397 0.67842 0.26031 0.0
C662 C 0.72411 0.71572 0.35249 0.0
C663 C 0.74264 0.73729 0.3968 0.0
C664 C 0.73658 0.72024 0.29515 0.0
C665 C 0.77402 0.76334 0.38277 0.0
C666 C 0.78658 0.76795 0.32591 0.0
C667 C 0.78029 0.75141 0.22437 0.0
C668 C 0.76155 0.73013 0.17995 0.0
C669 C 0.76804 0.74662 0.28173 0.0
C670 C 0.7304 0.70382 0.19399 0.0
C671 C 0.71805 0.69892 0.25093 0.0
H672 H 0.5263 0.51239 0.6373 0.0
H673 H 0.43134 0.42764 0.61278 0.0
H674 H 0.43231 0.44051 0.50975 0.0
H675 H 0.45904 0.47678 0.42625 0.0
H676 H 0.55388 0.56167 0.45055 0.0
H677 H 0.55344 0.54831 0.55355 0.0
C678 C 0.50558 0.49695 0.60954 0.0
C679 C 0.47888 0.46894 0.63318 0.0
C680 C 0.50612 0.50463 0.54999 0.0
C681 C 0.45265 0.4489 0.59605 0.0
C682 C 0.45301 0.45641 0.53697 0.0
C683 C 0.47994 0.49206 0.45392 0.0
C684 C 0.50636 0.52033 0.43029 0.0
C685 C 0.47962 0.48419 0.51338 0.0
C686 C 0.5328 0.54019 0.46731 0.0
C687 C 0.53271 0.53243 0.52636 0.0
H688 H 0.01415 0.51466 0.93659 0.0
H689 H 0.94865 0.40521 0.9589 0.0
H690 H 0.94323 0.41777 0.06176 0.0
H691 H 0.95708 0.45976 0.14575 0.0
H692 H 0.02281 0.56908 0.12341 0.0
H693 H 0.02726 0.55706 1.02037 0.0
C694 C -0.0017 0.49376 0.96382 0.0
C695 C 0.982 0.45895 0.93985 0.0
C696 C -0.00484 0.5012 1.02309 0.0
C697 C 0.96203 0.43196 0.97613 0.0
C698 C 0.95872 0.4392 0.03502 0.0
C699 C 0.97262 0.48083 0.11843 0.0
C700 C 0.98948 0.51533 0.14254 0.0
C701 C 0.97535 0.47362 0.05906 0.0
C702 C 0.00902 0.54256 0.10613 0.0
C703 C 0.01182 0.5356 0.04713 0.0
loop_
_geom_bond_atom_site_label_1
_geom_bond_atom_site_label_2
_geom_bond_distance
_geom_bond_site_symmetry_2
_ccdc_geom_bond_type
Tb0 C9 2.764 1_455 S
Tb0 O10 2.325 1_445 S
Tb0 O13 2.303 1_545 S
Tb0 O17 2.322 . S
Tb0 O18 2.349 1_455 S
Tb0 O21 2.415 . S
Tb0 O22 2.399 1_455 S
Tb1 O11 2.322 . S
Tb1 O12 2.349 1_655 S
Tb1 O14 2.415 . S
Tb1 O15 2.399 1_655 S
Tb1 O16 2.325 1_665 S
Tb1 O19 2.303 1_565 S
Tb1 C30 2.764 1_655 S
C2 O18 1.261 . S
C2 O19 1.257 . S
C3 C6 1.358 . S
C3 C7 1.332 1_545 S
C3 C9 1.504 . S
C4 C5 1.373 . S
C4 C8 1.308 1_545 S
C5 C4 1.373 . S
C5 C6 1.429 . S
C5 H32 0.932 . S
C6 C3 1.358 . S
C6 C5 1.429 . S
C6 H33 0.930 . S
C7 C3 1.332 1_565 S
C7 C8 1.394 . S
C7 H34 0.932 1_655 S
C8 C4 1.308 1_565 S
C8 C7 1.394 . S
C8 H35 0.929 . S
C9 Tb0 2.764 1_655 S
C9 C3 1.504 . S
C9 O21 1.239 1_655 S
C9 O22 1.263 . S
O10 Tb0 2.325 1_665 S
O10 C20 1.236 . S
O11 Tb1 2.322 . S
O11 C20 1.257 . S
O12 Tb1 2.349 1_455 S
O12 C23 1.261 . S
O13 Tb0 2.303 1_565 S
O13 C23 1.257 . S
O14 Tb1 2.415 . S
O14 C30 1.239 1_655 S
O15 Tb1 2.399 1_455 S
O15 C30 1.263 . S
O16 Tb1 2.325 1_445 S
O16 C31 1.236 . S
O17 Tb0 2.322 . S
O17 C31 1.257 . S
O18 Tb0 2.349 1_655 S
O18 C2 1.261 . S
O19 Tb1 2.303 1_545 S
O19 C2 1.257 . S
C20 O10 1.236 . S
C20 O11 1.257 . S
O21 Tb0 2.415 . S
O21 C9 1.239 1_455 S
O22 Tb0 2.399 1_655 S
O22 C9 1.263 . S
C23 O12 1.261 . S
C23 O13 1.257 . S
C24 C27 1.358 . S
C24 C28 1.332 1_565 S
C24 C30 1.504 . S
C25 C26 1.373 . S
C25 C29 1.308 1_565 S
C26 C25 1.373 . S
C26 C27 1.429 . S
C26 H36 0.932 . S
C27 C24 1.358 . S
C27 C26 1.429 . S
C27 H37 0.930 . S
C28 C24 1.332 1_545 S
C28 C29 1.394 . S
C28 H38 0.932 1_455 S
C29 C25 1.308 1_545 S
C29 C28 1.394 . S
C29 H39 0.929 . S
C30 Tb1 2.764 1_455 S
C30 O14 1.239 1_455 S
C30 O15 1.263 . S
C30 C24 1.504 . S
C31 O16 1.236 . S
C31 O17 1.257 . S
H32 C5 0.932 . S
H33 C6 0.930 . S
H34 C7 0.932 1_455 S
H35 C8 0.929 . S
H36 C26 0.932 . S
H37 C27 0.930 . S
H38 C28 0.932 1_655 S
H39 C29 0.929 . S
Tb40 C49 2.764 . S
Tb40 O50 2.325 . S
Tb40 O53 2.303 . S
Tb40 O57 2.322 . S
Tb40 O58 2.349 . S
Tb40 O61 2.415 . S
Tb40 O62 2.399 . S
Tb41 O51 2.322 . S
Tb41 O52 2.349 . S
Tb41 O54 2.415 . S
Tb41 O55 2.399 . S
Tb41 O56 2.325 . S
Tb41 O59 2.303 . S
Tb41 C70 2.764 . S
C42 O58 1.261 . S
C42 O59 1.257 . S
C43 C46 1.358 1_556 S
C43 C47 1.332 1_556 S
C43 C49 1.504 . S
C44 C45 1.373 . S
C44 C48 1.308 . S
C45 C44 1.373 . S
C45 C46 1.429 . S
C45 H72 0.932 . S
C46 C43 1.358 1_554 S
C46 C45 1.429 . S
C46 H73 0.930 1_554 S
C47 C43 1.332 1_554 S
C47 C48 1.394 . S
C47 H74 0.923 1_554 S
C48 C44 1.308 . S
C48 C47 1.394 . S
C48 H75 0.929 . S
C49 Tb40 2.764 . S
C49 C43 1.504 . S
C49 O61 1.239 . S
C49 O62 1.263 . S
O50 Tb40 2.325 . S
O50 C60 1.236 . S
O51 Tb41 2.322 . S
O51 C60 1.257 . S
O52 Tb41 2.349 . S
O52 C63 1.261 . S
O53 Tb40 2.303 . S
O53 C63 1.257 . S
O54 Tb41 2.415 . S
O54 C70 1.239 . S
O55 Tb41 2.399 . S
O55 C70 1.263 . S
O56 Tb41 2.325 . S
O56 C71 1.236 . S
O57 Tb40 2.322 . S
O57 C71 1.257 . S
O58 Tb40 2.349 . S
O58 C42 1.261 . S
O59 Tb41 2.303 . S
O59 C42 1.257 . S
C60 O50 1.236 . S
C60 O51 1.257 . S
O61 Tb40 2.415 . S
O61 C49 1.239 . S
O62 Tb40 2.399 . S
O62 C49 1.263 . S
C63 O52 1.261 . S
C63 O53 1.257 . S
C64 C67 1.358 . S
C64 C68 1.332 . S
C64 C70 1.504 . S
C65 C66 1.373 . S
C65 C69 1.308 . S
C66 C65 1.373 . S
C66 C67 1.429 . S
C66 H76 0.932 . S
C67 C64 1.358 . S
C67 C66 1.429 . S
C67 H77 0.930 . S
C68 C64 1.332 . S
C68 C69 1.394 . S
C68 H78 0.932 . S
C69 C65 1.308 . S
C69 C68 1.394 . S
C69 H79 0.929 . S
C70 Tb41 2.764 . S
C70 O54 1.239 . S
C70 O55 1.263 . S
C70 C64 1.504 . S
C71 O56 1.236 . S
C71 O57 1.257 . S
H72 C45 0.932 . S
H73 C46 0.930 1_556 S
H74 C47 0.923 1_556 S
H75 C48 0.929 . S
H76 C66 0.932 . S
H77 C67 0.930 . S
H78 C68 0.932 . S
H79 C69 0.929 . S
Tb80 C89 2.764 . S
Tb80 O90 2.325 1_565 S
Tb80 O93 2.303 1_565 S
Tb80 O97 2.322 1_554 S
Tb80 O98 2.349 . S
Tb80 O101 2.415 . S
Tb80 O102 2.399 . S
Tb81 O91 2.322 1_556 S
Tb81 O92 2.349 . S
Tb81 O94 2.415 . S
Tb81 O95 2.399 . S
Tb81 O96 2.325 1_545 S
Tb81 O99 2.303 1_545 S
Tb81 C110 2.764 . S
C82 O98 1.261 1_556 S
C82 O99 1.257 . S
C83 C86 1.358 . S
C83 C87 1.332 1_565 S
C83 C89 1.504 . S
C84 C85 1.373 . S
C84 C88 1.308 1_565 S
C85 C84 1.373 . S
C85 C86 1.429 . S
C85 H112 0.932 . S
C86 C83 1.358 . S
C86 C85 1.429 . S
C86 H113 0.930 . S
C87 C83 1.332 1_545 S
C87 C88 1.394 . S
C87 H114 0.932 . S
C88 C84 1.308 1_545 S
C88 C87 1.394 . S
C88 H115 0.929 . S
C89 Tb80 2.764 . S
C89 C83 1.504 . S
C89 O101 1.239 . S
C89 O102 1.263 . S
O90 Tb80 2.325 1_545 S
O90 C100 1.236 . S
O91 Tb81 2.322 1_554 S
O91 C100 1.257 . S
O92 Tb81 2.349 . S
O92 C103 1.261 1_556 S
O93 Tb80 2.303 1_545 S
O93 C103 1.257 . S
O94 Tb81 2.415 . S
O94 C110 1.239 . S
O95 Tb81 2.399 . S
O95 C110 1.263 . S
O96 Tb81 2.325 1_565 S
O96 C111 1.236 . S
O97 Tb80 2.322 1_556 S
O97 C111 1.257 . S
O98 Tb80 2.349 . S
O98 C82 1.261 1_554 S
O99 Tb81 2.303 1_565 S
O99 C82 1.257 . S
C100 O90 1.236 . S
C100 O91 1.257 . S
O101 Tb80 2.415 . S
O101 C89 1.239 . S
O102 Tb80 2.399 . S
O102 C89 1.263 . S
C103 O92 1.261 1_554 S
C103 O93 1.257 . S
C104 C107 1.358 . S
C104 C108 1.332 1_545 S
C104 C110 1.504 . S
C105 C106 1.373 . S
C105 C109 1.308 1_545 S
C106 C105 1.373 . S
C106 C107 1.429 . S
C106 H116 0.932 . S
C107 C104 1.358 . S
C107 C106 1.429 . S
C107 H117 0.930 . S
C108 C104 1.332 1_565 S
C108 C109 1.394 . S
C108 H118 0.932 . S
C109 C105 1.308 1_565 S
C109 C108 1.394 . S
C109 H119 0.929 . S
C110 Tb81 2.764 . S
C110 O94 1.239 . S
C110 O95 1.263 . S
C110 C104 1.504 . S
C111 O96 1.236 . S
C111 O97 1.257 . S
H112 C85 0.932 . S
H113 C86 0.930 . S
H114 C87 0.932 . S
H115 C88 0.929 . S
H116 C106 0.932 . S
H117 C107 0.930 . S
H118 C108 0.932 . S
H119 C109 0.929 . S
Tb120 C129 2.764 . S
Tb120 O130 2.325 . S
Tb120 O133 2.303 . S
Tb120 O137 2.322 . S
Tb120 O138 2.349 . S
Tb120 O141 2.415 . S
Tb120 O142 2.399 . S
Tb121 O131 2.322 . S
Tb121 O132 2.349 . S
Tb121 O134 2.415 . S
Tb121 O135 2.399 . S
Tb121 O136 2.325 . S
Tb121 O139 2.303 . S
Tb121 C150 2.764 . S
C122 O138 1.261 . S
C122 O139 1.257 . S
C123 C126 1.358 . S
C123 C127 1.332 . S
C123 C129 1.504 . S
C124 C125 1.373 . S
C124 C128 1.308 . S
C125 C124 1.373 . S
C125 C126 1.429 . S
C125 H152 0.932 . S
C126 C123 1.358 . S
C126 C125 1.429 . S
C126 H153 0.930 . S
C127 C123 1.332 . S
C127 C128 1.394 . S
C127 H154 0.932 . S
C128 C124 1.308 . S
C128 C127 1.394 . S
C128 H155 0.929 . S
C129 Tb120 2.764 . S
C129 C123 1.504 . S
C129 O141 1.239 . S
C129 O142 1.263 . S
O130 Tb120 2.325 . S
O130 C140 1.236 . S
O131 Tb121 2.322 . S
O131 C140 1.257 . S
O132 Tb121 2.349 . S
O132 C143 1.261 . S
O133 Tb120 2.303 . S
O133 C143 1.257 . S
O134 Tb121 2.415 . S
O134 C150 1.239 . S
O135 Tb121 2.399 . S
O135 C150 1.263 . S
O136 Tb121 2.325 . S
O136 C151 1.236 . S
O137 Tb120 2.322 . S
O137 C151 1.257 . S
O138 Tb120 2.349 . S
O138 C122 1.261 . S
O139 Tb121 2.303 . S
O139 C122 1.257 . S
C140 O130 1.236 . S
C140 O131 1.257 . S
O141 Tb120 2.415 . S
O141 C129 1.239 . S
O142 Tb120 2.399 . S
O142 C129 1.263 . S
C143 O132 1.261 . S
C143 O133 1.257 . S
C144 C147 1.358 1_554 S
C144 C148 1.332 1_554 S
C144 C150 1.504 . S
C145 C146 1.373 . S
C145 C149 1.308 . S
C146 C145 1.373 . S
C146 C147 1.429 . S
C146 H156 0.932 . S
C147 C144 1.358 1_556 S
C147 C146 1.429 . S
C147 H157 0.930 1_556 S
C148 C144 1.332 1_556 S
C148 C149 1.394 . S
C148 H158 0.923 1_556 S
C149 C145 1.308 . S
C149 C148 1.394 . S
C149 H159 0.929 . S
C150 Tb121 2.764 . S
C150 O134 1.239 . S
C150 O135 1.263 . S
C150 C144 1.504 . S
C151 O136 1.236 . S
C151 O137 1.257 . S
H152 C125 0.932 . S
H153 C126 0.930 . S
H154 C127 0.932 . S
H155 C128 0.929 . S
H156 C146 0.932 . S
H157 C147 0.930 1_554 S
H158 C148 0.923 1_554 S
H159 C149 0.929 . S
Tb160 C169 2.764 . S
Tb160 O170 2.325 . S
Tb160 O173 2.303 . S
Tb160 O177 2.322 . S
Tb160 O178 2.349 . S
Tb160 O181 2.415 . S
Tb160 O182 2.399 . S
Tb161 O171 2.322 . S
Tb161 O172 2.349 . S
Tb161 O174 2.415 . S
Tb161 O175 2.399 . S
Tb161 O176 2.325 . S
Tb161 O179 2.303 . S
Tb161 C190 2.764 . S
C162 O178 1.261 . S
C162 O179 1.257 . S
C163 C166 1.358 . S
C163 C167 1.332 . S
C163 C169 1.504 . S
C164 C165 1.373 . S
C164 C168 1.308 . S
C165 C164 1.373 . S
C165 C166 1.429 . S
C165 H192 0.932 . S
C166 C163 1.358 . S
C166 C165 1.429 . S
C166 H193 0.930 . S
C167 C163 1.332 . S
C167 C168 1.394 . S
C167 H194 0.932 . S
C168 C164 1.308 . S
C168 C167 1.394 . S
C168 H195 0.929 . S
C169 Tb160 2.764 . S
C169 C163 1.504 . S
C169 O181 1.239 . S
C169 O182 1.263 . S
O170 Tb160 2.325 . S
O170 C180 1.236 . S
O171 Tb161 2.322 . S
O171 C180 1.257 . S
O172 Tb161 2.349 . S
O172 C183 1.261 . S
O173 Tb160 2.303 . S
O173 C183 1.257 . S
O174 Tb161 2.415 . S
O174 C190 1.239 . S
O175 Tb161 2.399 . S
O175 C190 1.263 . S
O176 Tb161 2.325 . S
O176 C191 1.236 . S
O177 Tb160 2.322 . S
O177 C191 1.257 . S
O178 Tb160 2.349 . S
O178 C162 1.261 . S
O179 Tb161 2.303 . S
O179 C162 1.257 . S
C180 O170 1.236 . S
C180 O171 1.257 . S
O181 Tb160 2.415 . S
O181 C169 1.239 . S
O182 Tb160 2.399 . S
O182 C169 1.263 . S
C183 O172 1.261 . S
C183 O173 1.257 . S
C184 C187 1.358 1_554 S
C184 C188 1.332 1_554 S
C184 C190 1.504 . S
C185 C186 1.373 . S
C185 C189 1.308 . S
C186 C185 1.373 . S
C186 C187 1.429 . S
C186 H196 0.932 . S
C187 C184 1.358 1_556 S
C187 C186 1.429 . S
C187 H197 0.930 1_556 S
C188 C184 1.332 1_556 S
C188 C189 1.394 . S
C188 H198 0.923 1_556 S
C189 C185 1.308 . S
C189 C188 1.394 . S
C189 H199 0.929 . S
C190 Tb161 2.764 . S
C190 O174 1.239 . S
C190 O175 1.263 . S
C190 C184 1.504 . S
C191 O176 1.236 . S
C191 O177 1.257 . S
H192 C165 0.932 . S
H193 C166 0.930 . S
H194 C167 0.932 . S
H195 C168 0.929 . S
H196 C186 0.932 . S
H197 C187 0.930 1_554 S
H198 C188 0.923 1_554 S
H199 C189 0.929 . S
Tb200 C209 2.764 . S
Tb200 O210 2.325 . S
Tb200 O213 2.303 . S
Tb200 O217 2.322 . S
Tb200 O218 2.349 . S
Tb200 O221 2.415 . S
Tb200 O222 2.399 . S
Tb201 O211 2.322 . S
Tb201 O212 2.349 . S
Tb201 O214 2.415 . S
Tb201 O215 2.399 . S
Tb201 O216 2.325 . S
Tb201 O219 2.303 . S
Tb201 C230 2.764 . S
C202 O218 1.261 . S
C202 O219 1.257 . S
C203 C206 1.358 1_556 S
C203 C207 1.332 1_556 S
C203 C209 1.504 . S
C204 C205 1.373 . S
C204 C208 1.308 . S
C205 C204 1.373 . S
C205 C206 1.429 . S
C205 H232 0.932 . S
C206 C203 1.358 1_554 S
C206 C205 1.429 . S
C206 H233 0.930 1_554 S
C207 C203 1.332 1_554 S
C207 C208 1.394 . S
C207 H234 0.923 1_554 S
C208 C204 1.308 . S
C208 C207 1.394 . S
C208 H235 0.929 . S
C209 Tb200 2.764 . S
C209 C203 1.504 . S
C209 O221 1.239 . S
C209 O222 1.263 . S
O210 Tb200 2.325 . S
O210 C220 1.236 . S
O211 Tb201 2.322 . S
O211 C220 1.257 . S
O212 Tb201 2.349 . S
O212 C223 1.261 . S
O213 Tb200 2.303 . S
O213 C223 1.257 . S
O214 Tb201 2.415 . S
O214 C230 1.239 . S
O215 Tb201 2.399 . S
O215 C230 1.263 . S
O216 Tb201 2.325 . S
O216 C231 1.236 . S
O217 Tb200 2.322 . S
O217 C231 1.257 . S
O218 Tb200 2.349 . S
O218 C202 1.261 . S
O219 Tb201 2.303 . S
O219 C202 1.257 . S
C220 O210 1.236 . S
C220 O211 1.257 . S
O221 Tb200 2.415 . S
O221 C209 1.239 . S
O222 Tb200 2.399 . S
O222 C209 1.263 . S
C223 O212 1.261 . S
C223 O213 1.257 . S
C224 C227 1.358 . S
C224 C228 1.332 . S
C224 C230 1.504 . S
C225 C226 1.373 . S
C225 C229 1.308 . S
C226 C225 1.373 . S
C226 C227 1.429 . S
C226 H236 0.932 . S
C227 C224 1.358 . S
C227 C226 1.429 . S
C227 H237 0.930 . S
C228 C224 1.332 . S
C228 C229 1.394 . S
C228 H238 0.932 . S
C229 C225 1.308 . S
C229 C228 1.394 . S
C229 H239 0.929 . S
C230 Tb201 2.764 . S
C230 O214 1.239 . S
C230 O215 1.263 . S
C230 C224 1.504 . S
C231 O216 1.236 . S
C231 O217 1.257 . S
H232 C205 0.932 . S
H233 C206 0.930 1_556 S
H234 C207 0.923 1_556 S
H235 C208 0.929 . S
H236 C226 0.932 . S
H237 C227 0.930 . S
H238 C228 0.932 . S
H239 C229 0.929 . S
Tb240 C249 2.764 . S
Tb240 O250 2.325 . S
Tb240 O253 2.303 . S
Tb240 O257 2.322 1_554 S
Tb240 O258 2.349 . S
Tb240 O261 2.415 . S
Tb240 O262 2.399 . S
Tb241 O251 2.322 1_556 S
Tb241 O252 2.349 . S
Tb241 O254 2.415 . S
Tb241 O255 2.399 . S
Tb241 O256 2.325 . S
Tb241 O259 2.303 . S
Tb241 C270 2.764 . S
C242 O258 1.261 1_556 S
C242 O259 1.257 . S
C243 C246 1.358 . S
C243 C247 1.332 . S
C243 C249 1.504 . S
C244 C245 1.373 . S
C244 C248 1.308 . S
C245 C244 1.373 . S
C245 C246 1.429 . S
C245 H272 0.932 . S
C246 C243 1.358 . S
C246 C245 1.429 . S
C246 H273 0.930 . S
C247 C243 1.332 . S
C247 C248 1.394 . S
C247 H274 0.932 . S
C248 C244 1.308 . S
C248 C247 1.394 . S
C248 H275 0.929 . S
C249 Tb240 2.764 . S
C249 C243 1.504 . S
C249 O261 1.239 . S
C249 O262 1.263 . S
O250 Tb240 2.325 . S
O250 C260 1.236 . S
O251 Tb241 2.322 1_554 S
O251 C260 1.257 . S
O252 Tb241 2.349 . S
O252 C263 1.261 1_556 S
O253 Tb240 2.303 . S
O253 C263 1.257 . S
O254 Tb241 2.415 . S
O254 C270 1.239 . S
O255 Tb241 2.399 . S
O255 C270 1.263 . S
O256 Tb241 2.325 . S
O256 C271 1.236 . S
O257 Tb240 2.322 1_556 S
O257 C271 1.257 . S
O258 Tb240 2.349 . S
O258 C242 1.261 1_554 S
O259 Tb241 2.303 . S
O259 C242 1.257 . S
C260 O250 1.236 . S
C260 O251 1.257 . S
O261 Tb240 2.415 . S
O261 C249 1.239 . S
O262 Tb240 2.399 . S
O262 C249 1.263 . S
C263 O252 1.261 1_554 S
C263 O253 1.257 . S
C264 C267 1.358 . S
C264 C268 1.332 . S
C264 C270 1.504 . S
C265 C266 1.373 . S
C265 C269 1.308 . S
C266 C265 1.373 . S
C266 C267 1.429 . S
C266 H276 0.932 . S
C267 C264 1.358 . S
C267 C266 1.429 . S
C267 H277 0.930 . S
C268 C264 1.332 . S
C268 C269 1.394 . S
C268 H278 0.932 . S
C269 C265 1.308 . S
C269 C268 1.394 . S
C269 H279 0.929 . S
C270 Tb241 2.764 . S
C270 O254 1.239 . S
C270 O255 1.263 . S
C270 C264 1.504 . S
C271 O256 1.236 . S
C271 O257 1.257 . S
H272 C245 0.932 . S
H273 C246 0.930 . S
H274 C247 0.932 . S
H275 C248 0.929 . S
H276 C266 0.932 . S
H277 C267 0.930 . S
H278 C268 0.932 . S
H279 C269 0.929 . S
Tb280 C289 2.764 1_655 S
Tb280 O290 2.325 1_655 S
Tb280 O293 2.303 . S
Tb280 O297 2.322 . S
Tb280 O298 2.349 1_655 S
Tb280 O301 2.415 . S
Tb280 O302 2.399 1_655 S
Tb281 O291 2.322 . S
Tb281 O292 2.349 1_455 S
Tb281 O294 2.415 . S
Tb281 O295 2.399 1_455 S
Tb281 O296 2.325 1_455 S
Tb281 O299 2.303 . S
Tb281 C310 2.764 1_455 S
C282 O298 1.261 . S
C282 O299 1.257 . S
C283 C286 1.358 . S
C283 C287 1.332 . S
C283 C289 1.504 . S
C284 C285 1.373 . S
C284 C288 1.308 . S
C285 C284 1.373 . S
C285 C286 1.429 . S
C285 H312 0.932 . S
C286 C283 1.358 . S
C286 C285 1.429 . S
C286 H313 0.930 . S
C287 C283 1.332 . S
C287 C288 1.394 . S
C287 H314 0.932 1_455 S
C288 C284 1.308 . S
C288 C287 1.394 . S
C288 H315 0.929 . S
C289 Tb280 2.764 1_455 S
C289 C283 1.504 . S
C289 O301 1.239 1_455 S
C289 O302 1.263 . S
O290 Tb280 2.325 1_455 S
O290 C300 1.236 . S
O291 Tb281 2.322 . S
O291 C300 1.257 . S
O292 Tb281 2.349 1_655 S
O292 C303 1.261 . S
O293 Tb280 2.303 . S
O293 C303 1.257 . S
O294 Tb281 2.415 . S
O294 C310 1.239 1_455 S
O295 Tb281 2.399 1_655 S
O295 C310 1.263 . S
O296 Tb281 2.325 1_655 S
O296 C311 1.236 . S
O297 Tb280 2.322 . S
O297 C311 1.257 . S
O298 Tb280 2.349 1_455 S
O298 C282 1.261 . S
O299 Tb281 2.303 . S
O299 C282 1.257 . S
C300 O290 1.236 . S
C300 O291 1.257 . S
O301 Tb280 2.415 . S
O301 C289 1.239 1_655 S
O302 Tb280 2.399 1_455 S
O302 C289 1.263 . S
C303 O292 1.261 . S
C303 O293 1.257 . S
C304 C307 1.358 . S
C304 C308 1.332 . S
C304 C310 1.504 . S
C305 C306 1.373 . S
C305 C309 1.308 . S
C306 C305 1.373 . S
C306 C307 1.429 . S
C306 H316 0.932 . S
C307 C304 1.358 . S
C307 C306 1.429 . S
C307 H317 0.930 . S
C308 C304 1.332 . S
C308 C309 1.394 . S
C308 H318 0.932 1_655 S
C309 C305 1.308 . S
C309 C308 1.394 . S
C309 H319 0.929 . S
C310 Tb281 2.764 1_655 S
C310 O294 1.239 1_655 S
C310 O295 1.263 . S
C310 C304 1.504 . S
C311 O296 1.236 . S
C311 O297 1.257 . S
H312 C285 0.932 . S
H313 C286 0.930 . S
H314 C287 0.932 1_655 S
H315 C288 0.929 . S
H316 C306 0.932 . S
H317 C307 0.930 . S
H318 C308 0.932 1_455 S
H319 C309 0.929 . S
H320 C326 0.930 . S
H321 C329 0.930 . S
H322 C330 0.930 . S
H323 C331 0.930 . S
H324 C334 0.930 . S
H325 C335 0.930 . S
C326 H320 0.930 . S
C326 C327 1.355 . S
C326 C328 1.415 . S
C327 C326 1.355 . S
C327 C329 1.419 . S
C328 C326 1.415 . S
C328 C333 1.425 . S
C328 C335 1.409 . S
C329 H321 0.930 . S
C329 C327 1.419 . S
C329 C330 1.362 . S
C330 H322 0.930 . S
C330 C329 1.362 . S
C330 C333 1.409 . S
C331 H323 0.930 . S
C331 C332 1.355 . S
C331 C333 1.415 . S
C332 C331 1.355 . S
C332 C334 1.419 . S
C333 C328 1.425 . S
C333 C330 1.409 . S
C333 C331 1.415 . S
C334 H324 0.930 . S
C334 C332 1.419 . S
C334 C335 1.362 . S
C335 H325 0.930 . S
C335 C328 1.409 . S
C335 C334 1.362 . S
H336 C342 0.930 . S
H337 C345 0.930 . S
H338 C346 0.930 . S
H339 C347 0.930 . S
H340 C350 0.930 . S
H341 C351 0.930 . S
C342 H336 0.930 . S
C342 C343 1.355 . S
C342 C344 1.415 . S
C343 C342 1.355 . S
C343 C345 1.419 . S
C344 C342 1.415 . S
C344 C349 1.425 . S
C344 C351 1.409 . S
C345 H337 0.930 . S
C345 C343 1.419 . S
C345 C346 1.362 . S
C346 H338 0.930 . S
C346 C345 1.362 . S
C346 C349 1.409 . S
C347 H339 0.930 . S
C347 C348 1.355 . S
C347 C349 1.415 . S
C348 C347 1.355 . S
C348 C350 1.419 . S
C349 C344 1.425 . S
C349 C346 1.409 . S
C349 C347 1.415 . S
C350 H340 0.930 . S
C350 C348 1.419 . S
C350 C351 1.362 . S
C351 H341 0.930 . S
C351 C344 1.409 . S
C351 C350 1.362 . S
H352 C358 0.930 . S
H353 C361 0.930 . S
H354 C362 0.930 . S
H355 C363 0.930 . S
H356 C366 0.930 . S
H357 C367 0.930 . S
C358 H352 0.930 . S
C358 C359 1.355 . S
C358 C360 1.415 . S
C359 C358 1.355 . S
C359 C361 1.419 . S
C360 C358 1.415 . S
C360 C365 1.425 . S
C360 C367 1.409 . S
C361 H353 0.930 . S
C361 C359 1.419 . S
C361 C362 1.362 . S
C362 H354 0.930 . S
C362 C361 1.362 . S
C362 C365 1.409 . S
C363 H355 0.930 . S
C363 C364 1.355 . S
C363 C365 1.415 . S
C364 C363 1.355 . S
C364 C366 1.419 . S
C365 C360 1.425 . S
C365 C362 1.409 . S
C365 C363 1.415 . S
C366 H356 0.930 . S
C366 C364 1.419 . S
C366 C367 1.362 . S
C367 H357 0.930 . S
C367 C360 1.409 . S
C367 C366 1.362 . S
H368 C374 0.930 . S
H369 C377 0.930 1_556 S
H370 C378 0.930 . S
H371 C379 0.930 . S
H372 C382 0.930 . S
H373 C383 0.930 . S
C374 H368 0.930 . S
C374 C375 1.355 . S
C374 C376 1.415 . S
C375 C374 1.355 . S
C375 C377 1.419 . S
C376 C374 1.415 . S
C376 C381 1.425 . S
C376 C383 1.409 . S
C377 H369 0.930 1_554 S
C377 C375 1.419 . S
C377 C378 1.362 . S
C378 H370 0.930 . S
C378 C377 1.362 . S
C378 C381 1.409 . S
C379 H371 0.930 . S
C379 C380 1.355 . S
C379 C381 1.415 . S
C380 C379 1.355 . S
C380 C382 1.419 . S
C381 C376 1.425 . S
C381 C378 1.409 . S
C381 C379 1.415 . S
C382 H372 0.930 . S
C382 C380 1.419 . S
C382 C383 1.362 . S
C383 H373 0.930 . S
C383 C376 1.409 . S
C383 C382 1.362 . S
H384 C390 0.930 . S
H385 C393 0.930 . S
H386 C394 0.930 . S
H387 C395 0.930 . S
H388 C398 0.930 . S
H389 C399 0.930 . S
C390 H384 0.930 . S
C390 C391 1.355 . S
C390 C392 1.415 . S
C391 C390 1.355 . S
C391 C393 1.419 . S
C392 C390 1.415 . S
C392 C397 1.425 . S
C392 C399 1.409 . S
C393 H385 0.930 . S
C393 C391 1.419 . S
C393 C394 1.362 . S
C394 H386 0.930 . S
C394 C393 1.362 . S
C394 C397 1.409 . S
C395 H387 0.930 . S
C395 C396 1.355 . S
C395 C397 1.415 . S
C396 C395 1.355 . S
C396 C398 1.419 . S
C397 C392 1.425 . S
C397 C394 1.409 . S
C397 C395 1.415 . S
C398 H388 0.930 . S
C398 C396 1.419 . S
C398 C399 1.362 . S
C399 H389 0.930 . S
C399 C392 1.409 . S
C399 C398 1.362 . S
H400 C406 0.930 . S
H401 C409 0.930 . S
H402 C410 0.930 . S
H403 C411 0.930 . S
H404 C414 0.930 . S
H405 C415 0.930 . S
C406 H400 0.930 . S
C406 C407 1.355 . S
C406 C408 1.415 . S
C407 C406 1.355 . S
C407 C409 1.419 . S
C408 C406 1.415 . S
C408 C413 1.425 . S
C408 C415 1.409 . S
C409 H401 0.930 . S
C409 C407 1.419 . S
C409 C410 1.362 . S
C410 H402 0.930 . S
C410 C409 1.362 . S
C410 C413 1.409 . S
C411 H403 0.930 . S
C411 C412 1.355 . S
C411 C413 1.415 . S
C412 C411 1.355 . S
C412 C414 1.419 . S
C413 C408 1.425 . S
C413 C410 1.409 . S
C413 C411 1.415 . S
C414 H404 0.930 . S
C414 C412 1.419 . S
C414 C415 1.362 . S
C415 H405 0.930 . S
C415 C408 1.409 . S
C415 C414 1.362 . S
H416 C422 0.930 . S
H417 C425 0.930 . S
H418 C426 0.930 . S
H419 C427 0.930 . S
H420 C430 0.930 . S
H421 C431 0.930 . S
C422 H416 0.930 . S
C422 C423 1.355 . S
C422 C424 1.415 . S
C423 C422 1.355 . S
C423 C425 1.419 . S
C424 C422 1.415 . S
C424 C429 1.425 . S
C424 C431 1.409 . S
C425 H417 0.930 . S
C425 C423 1.419 . S
C425 C426 1.362 . S
C426 H418 0.930 . S
C426 C425 1.362 . S
C426 C429 1.409 . S
C427 H419 0.930 . S
C427 C428 1.355 . S
C427 C429 1.415 . S
C428 C427 1.355 . S
C428 C430 1.419 . S
C429 C424 1.425 . S
C429 C426 1.409 . S
C429 C427 1.415 . S
C430 H420 0.930 . S
C430 C428 1.419 . S
C430 C431 1.362 . S
C431 H421 0.930 . S
C431 C424 1.409 . S
C431 C430 1.362 . S
H432 C438 0.930 . S
H433 C441 0.930 . S
H434 C442 0.930 . S
H435 C443 0.930 . S
H436 C446 0.930 . S
H437 C447 0.930 . S
C438 H432 0.930 . S
C438 C439 1.355 . S
C438 C440 1.415 . S
C439 C438 1.355 . S
C439 C441 1.419 . S
C440 C438 1.415 . S
C440 C445 1.425 . S
C440 C447 1.409 . S
C441 H433 0.930 . S
C441 C439 1.419 . S
C441 C442 1.362 . S
C442 H434 0.930 . S
C442 C441 1.362 . S
C442 C445 1.409 . S
C443 H435 0.930 . S
C443 C444 1.355 . S
C443 C445 1.415 . S
C444 C443 1.355 . S
C444 C446 1.419 . S
C445 C440 1.425 . S
C445 C442 1.409 . S
C445 C443 1.415 . S
C446 H436 0.930 . S
C446 C444 1.419 . S
C446 C447 1.362 . S
C447 H437 0.930 . S
C447 C440 1.409 . S
C447 C446 1.362 . S
H448 C454 0.930 . S
H449 C457 0.930 . S
H450 C458 0.930 . S
H451 C459 0.930 . S
H452 C462 0.930 . S
H453 C463 0.930 . S
C454 H448 0.930 . S
C454 C455 1.355 . S
C454 C456 1.415 . S
C455 C454 1.355 . S
C455 C457 1.419 . S
C456 C454 1.415 . S
C456 C461 1.425 . S
C456 C463 1.409 . S
C457 H449 0.930 . S
C457 C455 1.419 . S
C457 C458 1.362 . S
C458 H450 0.930 . S
C458 C457 1.362 . S
C458 C461 1.409 . S
C459 H451 0.930 . S
C459 C460 1.355 . S
C459 C461 1.415 . S
C460 C459 1.355 . S
C460 C462 1.419 . S
C461 C456 1.425 . S
C461 C458 1.409 . S
C461 C459 1.415 . S
C462 H452 0.930 . S
C462 C460 1.419 . S
C462 C463 1.362 . S
C463 H453 0.930 . S
C463 C456 1.409 . S
C463 C462 1.362 . S
H464 C470 0.930 . S
H465 C473 0.930 . S
H466 C474 0.930 . S
H467 C475 0.930 . S
H468 C478 0.930 . S
H469 C479 0.930 . S
C470 H464 0.930 . S
C470 C471 1.355 . S
C470 C472 1.415 . S
C471 C470 1.355 . S
C471 C473 1.419 . S
C472 C470 1.415 . S
C472 C477 1.425 . S
C472 C479 1.409 . S
C473 H465 0.930 . S
C473 C471 1.419 . S
C473 C474 1.362 . S
C474 H466 0.930 . S
C474 C473 1.362 . S
C474 C477 1.409 . S
C475 H467 0.930 . S
C475 C476 1.355 . S
C475 C477 1.415 . S
C476 C475 1.355 . S
C476 C478 1.419 . S
C477 C472 1.425 . S
C477 C474 1.409 . S
C477 C475 1.415 . S
C478 H468 0.930 . S
C478 C476 1.419 . S
C478 C479 1.362 . S
C479 H469 0.930 . S
C479 C472 1.409 . S
C479 C478 1.362 . S
H480 C486 0.930 . S
H481 C489 0.930 . S
H482 C490 0.930 . S
H483 C491 0.930 . S
H484 C494 0.930 . S
H485 C495 0.930 . S
C486 H480 0.930 . S
C486 C487 1.355 . S
C486 C488 1.415 . S
C487 C486 1.355 . S
C487 C489 1.419 . S
C488 C486 1.415 . S
C488 C493 1.425 . S
C488 C495 1.409 . S
C489 H481 0.930 . S
C489 C487 1.419 . S
C489 C490 1.362 . S
C490 H482 0.930 . S
C490 C489 1.362 . S
C490 C493 1.409 . S
C491 H483 0.930 . S
C491 C492 1.355 . S
C491 C493 1.415 . S
C492 C491 1.355 . S
C492 C494 1.419 . S
C493 C488 1.425 . S
C493 C490 1.409 . S
C493 C491 1.415 . S
C494 H484 0.930 . S
C494 C492 1.419 . S
C494 C495 1.362 . S
C495 H485 0.930 . S
C495 C488 1.409 . S
C495 C494 1.362 . S
H496 C502 0.930 . S
H497 C505 0.930 . S
H498 C506 0.930 . S
H499 C507 0.930 . S
H500 C510 0.930 . S
H501 C511 0.930 . S
C502 H496 0.930 . S
C502 C503 1.355 . S
C502 C504 1.415 . S
C503 C502 1.355 . S
C503 C505 1.419 . S
C504 C502 1.415 . S
C504 C509 1.425 . S
C504 C511 1.409 . S
C505 H497 0.930 . S
C505 C503 1.419 . S
C505 C506 1.362 . S
C506 H498 0.930 . S
C506 C505 1.362 . S
C506 C509 1.409 . S
C507 H499 0.930 . S
C507 C508 1.355 . S
C507 C509 1.415 . S
C508 C507 1.355 . S
C508 C510 1.419 . S
C509 C504 1.425 . S
C509 C506 1.409 . S
C509 C507 1.415 . S
C510 H500 0.930 . S
C510 C508 1.419 . S
C510 C511 1.362 . S
C511 H501 0.930 . S
C511 C504 1.409 . S
C511 C510 1.362 . S
H512 C518 0.930 . S
H513 C521 0.930 . S
H514 C522 0.930 . S
H515 C523 0.930 . S
H516 C526 0.930 . S
H517 C527 0.930 . S
C518 H512 0.930 . S
C518 C519 1.355 . S
C518 C520 1.415 . S
C519 C518 1.355 . S
C519 C521 1.419 . S
C520 C518 1.415 . S
C520 C525 1.425 . S
C520 C527 1.409 . S
C521 H513 0.930 . S
C521 C519 1.419 . S
C521 C522 1.362 . S
C522 H514 0.930 . S
C522 C521 1.362 . S
C522 C525 1.409 . S
C523 H515 0.930 . S
C523 C524 1.355 . S
C523 C525 1.415 . S
C524 C523 1.355 . S
C524 C526 1.419 . S
C525 C520 1.425 . S
C525 C522 1.409 . S
C525 C523 1.415 . S
C526 H516 0.930 . S
C526 C524 1.419 . S
C526 C527 1.362 . S
C527 H517 0.930 . S
C527 C520 1.409 . S
C527 C526 1.362 . S
H528 C534 0.930 . S
H529 C537 0.930 . S
H530 C538 0.930 . S
H531 C539 0.930 . S
H532 C542 0.930 . S
H533 C543 0.930 . S
C534 H528 0.930 . S
C534 C535 1.355 . S
C534 C536 1.415 . S
C535 C534 1.355 . S
C535 C537 1.419 . S
C536 C534 1.415 . S
C536 C541 1.425 . S
C536 C543 1.409 . S
C537 H529 0.930 . S
C537 C535 1.419 . S
C537 C538 1.362 . S
C538 H530 0.930 . S
C538 C537 1.362 . S
C538 C541 1.409 . S
C539 H531 0.930 . S
C539 C540 1.355 . S
C539 C541 1.415 . S
C540 C539 1.355 . S
C540 C542 1.419 . S
C541 C536 1.425 . S
C541 C538 1.409 . S
C541 C539 1.415 . S
C542 H532 0.930 . S
C542 C540 1.419 . S
C542 C543 1.362 . S
C543 H533 0.930 . S
C543 C536 1.409 . S
C543 C542 1.362 . S
H544 C550 0.930 . S
H545 C553 0.930 . S
H546 C554 0.930 . S
H547 C555 0.930 . S
H548 C558 0.930 . S
H549 C559 0.930 . S
C550 H544 0.930 . S
C550 C551 1.355 . S
C550 C552 1.415 . S
C551 C550 1.355 . S
C551 C553 1.419 . S
C552 C550 1.415 . S
C552 C557 1.425 . S
C552 C559 1.409 . S
C553 H545 0.930 . S
C553 C551 1.419 . S
C553 C554 1.362 . S
C554 H546 0.930 . S
C554 C553 1.362 . S
C554 C557 1.409 . S
C555 H547 0.930 . S
C555 C556 1.355 . S
C555 C557 1.415 . S
C556 C555 1.355 . S
C556 C558 1.419 . S
C557 C552 1.425 . S
C557 C554 1.409 . S
C557 C555 1.415 . S
C558 H548 0.930 . S
C558 C556 1.419 . S
C558 C559 1.362 . S
C559 H549 0.930 . S
C559 C552 1.409 . S
C559 C558 1.362 . S
H560 C566 0.930 . S
H561 C569 0.930 . S
H562 C570 0.930 . S
H563 C571 0.930 . S
H564 C574 0.930 . S
H565 C575 0.930 . S
C566 H560 0.930 . S
C566 C567 1.355 . S
C566 C568 1.415 . S
C567 C566 1.355 . S
C567 C569 1.419 . S
C568 C566 1.415 . S
C568 C573 1.425 . S
C568 C575 1.409 . S
C569 H561 0.930 . S
C569 C567 1.419 . S
C569 C570 1.362 . S
C570 H562 0.930 . S
C570 C569 1.362 . S
C570 C573 1.409 . S
C571 H563 0.930 . S
C571 C572 1.355 . S
C571 C573 1.415 . S
C572 C571 1.355 . S
C572 C574 1.419 . S
C573 C568 1.425 . S
C573 C570 1.409 . S
C573 C571 1.415 . S
C574 H564 0.930 . S
C574 C572 1.419 . S
C574 C575 1.362 . S
C575 H565 0.930 . S
C575 C568 1.409 . S
C575 C574 1.362 . S
H576 C582 0.930 . S
H577 C585 0.930 . S
H578 C586 0.937 . S
H579 C587 0.930 . S
H580 C590 0.930 . S
H581 C591 0.937 . S
C582 H576 0.930 . S
C582 C583 1.355 1_565 S
C582 C584 1.415 1_655 S
C583 C582 1.355 1_545 S
C583 C585 1.419 . S
C584 C582 1.415 1_455 S
C584 C589 1.425 1_466 S
C584 C591 1.412 . S
C585 H577 0.930 . S
C585 C583 1.419 . S
C585 C586 1.353 1_556 S
C586 H578 0.937 . S
C586 C585 1.353 1_554 S
C586 C589 1.412 . S
C587 H579 0.930 . S
C587 C588 1.355 1_545 S
C587 C589 1.415 1_455 S
C588 C587 1.355 1_565 S
C588 C590 1.419 . S
C589 C584 1.425 1_644 S
C589 C586 1.412 . S
C589 C587 1.415 1_655 S
C590 H580 0.930 . S
C590 C588 1.419 . S
C590 C591 1.353 1_554 S
C591 H581 0.937 . S
C591 C584 1.412 . S
C591 C590 1.353 1_556 S
H592 C598 0.930 . S
H593 C601 0.930 . S
H594 C602 0.930 . S
H595 C603 0.930 . S
H596 C606 0.930 . S
H597 C607 0.930 . S
C598 H592 0.930 . S
C598 C599 1.355 . S
C598 C600 1.415 . S
C599 C598 1.355 . S
C599 C601 1.419 . S
C600 C598 1.415 . S
C600 C605 1.425 . S
C600 C607 1.409 . S
C601 H593 0.930 . S
C601 C599 1.419 . S
C601 C602 1.362 . S
C602 H594 0.930 . S
C602 C601 1.362 . S
C602 C605 1.409 . S
C603 H595 0.930 . S
C603 C604 1.355 . S
C603 C605 1.415 . S
C604 C603 1.355 . S
C604 C606 1.419 . S
C605 C600 1.425 . S
C605 C602 1.409 . S
C605 C603 1.415 . S
C606 H596 0.930 . S
C606 C604 1.419 . S
C606 C607 1.362 . S
C607 H597 0.930 . S
C607 C600 1.409 . S
C607 C606 1.362 . S
H608 C614 0.930 . S
H609 C617 0.930 . S
H610 C618 0.930 . S
H611 C619 0.930 . S
H612 C622 0.930 . S
H613 C623 0.930 . S
C614 H608 0.930 . S
C614 C615 1.355 . S
C614 C616 1.415 . S
C615 C614 1.355 . S
C615 C617 1.419 . S
C616 C614 1.415 . S
C616 C621 1.425 1_545 S
C616 C623 1.409 1_545 S
C617 H609 0.930 . S
C617 C615 1.419 . S
C617 C618 1.362 . S
C618 H610 0.930 . S
C618 C617 1.362 . S
C618 C621 1.409 1_545 S
C619 H611 0.930 . S
C619 C620 1.355 . S
C619 C621 1.415 . S
C620 C619 1.355 . S
C620 C622 1.419 . S
C621 C616 1.425 1_565 S
C621 C618 1.409 1_565 S
C621 C619 1.415 . S
C622 H612 0.930 . S
C622 C620 1.419 . S
C622 C623 1.362 . S
C623 H613 0.930 . S
C623 C616 1.409 1_565 S
C623 C622 1.362 . S
H624 C630 0.930 . S
H625 C633 0.930 . S
H626 C634 0.930 . S
H627 C635 0.930 . S
H628 C638 0.930 . S
H629 C639 0.930 . S
C630 H624 0.930 . S
C630 C631 1.355 . S
C630 C632 1.415 . S
C631 C630 1.355 . S
C631 C633 1.419 . S
C632 C630 1.415 . S
C632 C637 1.425 . S
C632 C639 1.409 . S
C633 H625 0.930 . S
C633 C631 1.419 . S
C633 C634 1.362 . S
C634 H626 0.930 . S
C634 C633 1.362 . S
C634 C637 1.409 . S
C635 H627 0.930 . S
C635 C636 1.355 . S
C635 C637 1.415 . S
C636 C635 1.355 . S
C636 C638 1.419 . S
C637 C632 1.425 . S
C637 C634 1.409 . S
C637 C635 1.415 . S
C638 H628 0.930 . S
C638 C636 1.419 . S
C638 C639 1.362 . S
C639 H629 0.930 . S
C639 C632 1.409 . S
C639 C638 1.362 . S
H640 C646 0.930 . S
H641 C649 0.930 . S
H642 C650 0.930 . S
H643 C651 0.930 . S
H644 C654 0.930 . S
H645 C655 0.930 . S
C646 H640 0.930 . S
C646 C647 1.355 . S
C646 C648 1.415 . S
C647 C646 1.355 . S
C647 C649 1.419 . S
C648 C646 1.415 . S
C648 C653 1.425 . S
C648 C655 1.409 . S
C649 H641 0.930 . S
C649 C647 1.419 . S
C649 C650 1.362 . S
C650 H642 0.930 . S
C650 C649 1.362 . S
C650 C653 1.409 . S
C651 H643 0.930 . S
C651 C652 1.355 . S
C651 C653 1.415 . S
C652 C651 1.355 . S
C652 C654 1.419 . S
C653 C648 1.425 . S
C653 C650 1.409 . S
C653 C651 1.415 . S
C654 H644 0.930 . S
C654 C652 1.419 . S
C654 C655 1.362 . S
C655 H645 0.930 . S
C655 C648 1.409 . S
C655 C654 1.362 . S
H656 C662 0.930 . S
H657 C665 0.930 . S
H658 C666 0.930 . S
H659 C667 0.930 . S
H660 C670 0.930 . S
H661 C671 0.930 . S
C662 H656 0.930 . S
C662 C663 1.355 . S
C662 C664 1.415 . S
C663 C662 1.355 . S
C663 C665 1.419 . S
C664 C662 1.415 . S
C664 C669 1.425 . S
C664 C671 1.409 . S
C665 H657 0.930 . S
C665 C663 1.419 . S
C665 C666 1.362 . S
C666 H658 0.930 . S
C666 C665 1.362 . S
C666 C669 1.409 . S
C667 H659 0.930 . S
C667 C668 1.355 . S
C667 C669 1.415 . S
C668 C667 1.355 . S
C668 C670 1.419 . S
C669 C664 1.425 . S
C669 C666 1.409 . S
C669 C667 1.415 . S
C670 H660 0.930 . S
C670 C668 1.419 . S
C670 C671 1.362 . S
C671 H661 0.930 . S
C671 C664 1.409 . S
C671 C670 1.362 . S
H672 C678 0.930 . S
H673 C681 0.930 . S
H674 C682 0.930 . S
H675 C683 0.930 . S
H676 C686 0.930 . S
H677 C687 0.930 . S
C678 H672 0.930 . S
C678 C679 1.355 . S
C678 C680 1.415 . S
C679 C678 1.355 . S
C679 C681 1.419 . S
C680 C678 1.415 . S
C680 C685 1.425 . S
C680 C687 1.409 . S
C681 H673 0.930 . S
C681 C679 1.419 . S
C681 C682 1.362 . S
C682 H674 0.930 . S
C682 C681 1.362 . S
C682 C685 1.409 . S
C683 H675 0.930 . S
C683 C684 1.355 . S
C683 C685 1.415 . S
C684 C683 1.355 . S
C684 C686 1.419 . S
C685 C680 1.425 . S
C685 C682 1.409 . S
C685 C683 1.415 . S
C686 H676 0.930 . S
C686 C684 1.419 . S
C686 C687 1.362 . S
C687 H677 0.930 . S
C687 C680 1.409 . S
C687 C686 1.362 . S
H688 C694 0.930 . S
H689 C697 0.930 . S
H690 C698 0.936 . S
H691 C699 0.930 . S
H692 C702 0.930 . S
H693 C703 0.936 . S
C694 H688 0.930 . S
C694 C695 1.355 . S
C694 C696 1.415 . S
C695 C694 1.355 . S
C695 C697 1.419 . S
C696 C694 1.415 . S
C696 C701 1.425 1_456 S
C696 C703 1.409 1_556 S
C697 H689 0.930 . S
C697 C695 1.419 . S
C697 C698 1.362 1_455 S
C698 H690 0.936 . S
C698 C697 1.362 1_655 S
C698 C701 1.409 1_556 S
C699 H691 0.930 . S
C699 C700 1.355 . S
C699 C701 1.415 . S
C700 C699 1.355 . S
C700 C702 1.419 . S
C701 C696 1.425 1_654 S
C701 C698 1.409 1_554 S
C701 C699 1.415 . S
C702 H692 0.930 . S
C702 C700 1.419 . S
C702 C703 1.362 1_655 S
C703 H693 0.936 . S
C703 C696 1.409 1_554 S
C703 C702 1.362 1_455 S
C327 C31 1.531 . S
C332 C143 1.517 . S
C343 C23 1.507 . S
C348 C71 1.526 . S
C359 C63 1.513 . S
C364 C111 1.532 . S
C375 C103 1.518 . S
C380 C151 1.528 . S
C391 C20 1.523 . S
C396 C202 1.509 . S
C407 C2 1.532 . S
C412 C180 1.528 . S
C423 C162 1.520 . S
C428 C100 1.516 . S
C439 C220 1.531 . S
C444 C82 1.528 . S
C455 C271 1.526 . S
C460 C223 1.534 . S
C471 C191 1.519 . S
C476 C263 1.514 . S
C487 C311 1.523 . S
C492 C183 1.507 . S
C503 C231 1.531 . S
C508 C303 1.523 . S
C519 C122 1.531 . S
C524 C260 1.528 . S
C535 C242 1.531 . S
C540 C60 1.531 . S
C551 C42 1.514 . S
C556 C300 1.517 . S
C567 C140 1.530 . S
C572 C282 1.513 . S
C583 C4 1.618 . S
C588 C25 1.618 . S
C599 C65 1.619 . S
C604 C44 1.619 . S
C615 C105 1.617 . S
C620 C84 1.617 . S
C631 C145 1.609 . S
C636 C124 1.609 . S
C647 C185 1.587 . S
C652 C164 1.587 . S
C663 C225 1.545 . S
C668 C204 1.545 . S
C679 C265 1.568 . S
C684 C244 1.568 . S
C695 C284 1.605 . S
C700 C305 1.605 . S
