# Generated by pormake.
# Topology ume, (4)-cn, num edge types: 1
# Building blocks:
#     Node 0, Type 0, BuildingBlock: KOZSID_clean_sbu_0, # of connection points: 4
#     Node 1, Type 0, BuildingBlock: KOZSID_clean_sbu_0, # of connection points: 4
#     Node 2, Type 0, BuildingBlock: KOZSID_clean_sbu_0, # of connection points: 4
#     Node 3, Type 0, BuildingBlock: KOZSID_clean_sbu_0, # of connection points: 4
#     Node 4, Type 0, BuildingBlock: KOZSID_clean_sbu_0, # of connection points: 4
#     Node 5, Type 0, BuildingBlock: KOZSID_clean_sbu_0, # of connection points: 4
#     Node 6, Type 0, BuildingBlock: KOZSID_clean_sbu_0, # of connection points: 4
#     Node 7, Type 0, BuildingBlock: KOZSID_clean_sbu_0, # of connection points: 4
#     Node 8, Type 0, BuildingBlock: KOZSID_clean_sbu_0, # of connection points: 4
#     Node 9, Type 0, BuildingBlock: KOZSID_clean_sbu_0, # of connection points: 4
#     Node 10, Type 0, BuildingBlock: KOZSID_clean_sbu_0, # of connection points: 4
#     Node 11, Type 0, BuildingBlock: KOZSID_clean_sbu_0, # of connection points: 4
#     Node 12, Type 0, BuildingBlock: KOZSID_clean_sbu_0, # of connection points: 4
#     Node 13, Type 0, BuildingBlock: KOZSID_clean_sbu_0, # of connection points: 4
#     Node 14, Type 0, BuildingBlock: KOZSID_clean_sbu_0, # of connection points: 4
#     Node 15, Type 0, BuildingBlock: KOZSID_clean_sbu_0, # of connection points: 4
#     Edge 16, Type (0, 0), BuildingBlock: KIFKEQ_clean_linker_1, # of connection points: 2
#     Edge 17, Type (0, 0), BuildingBlock: KIFKEQ_clean_linker_1, # of connection points: 2
#     Edge 18, Type (0, 0), BuildingBlock: KIFKEQ_clean_linker_1, # of connection points: 2
#     Edge 19, Type (0, 0), BuildingBlock: KIFKEQ_clean_linker_1, # of connection points: 2
#     Edge 20, Type (0, 0), BuildingBlock: KIFKEQ_clean_linker_1, # of connection points: 2
#     Edge 21, Type (0, 0), BuildingBlock: KIFKEQ_clean_linker_1, # of connection points: 2
#     Edge 22, Type (0, 0), BuildingBlock: KIFKEQ_clean_linker_1, # of connection points: 2
#     Edge 23, Type (0, 0), BuildingBlock: KIFKEQ_clean_linker_1, # of connection points: 2
#     Edge 24, Type (0, 0), BuildingBlock: KIFKEQ_clean_linker_1, # of connection points: 2
#     Edge 25, Type (0, 0), BuildingBlock: KIFKEQ_clean_linker_1, # of connection points: 2
#     Edge 26, Type (0, 0), BuildingBlock: KIFKEQ_clean_linker_1, # of connection points: 2
#     Edge 27, Type (0, 0), BuildingBlock: KIFKEQ_clean_linker_1, # of connection points: 2
#     Edge 28, Type (0, 0), BuildingBlock: KIFKEQ_clean_linker_1, # of connection points: 2
#     Edge 29, Type (0, 0), BuildingBlock: KIFKEQ_clean_linker_1, # of connection points: 2
#     Edge 30, Type (0, 0), BuildingBlock: KIFKEQ_clean_linker_1, # of connection points: 2
#     Edge 31, Type (0, 0), BuildingBlock: KIFKEQ_clean_linker_1, # of connection points: 2
#     Edge 32, Type (0, 0), BuildingBlock: KIFKEQ_clean_linker_1, # of connection points: 2
#     Edge 33, Type (0, 0), BuildingBlock: KIFKEQ_clean_linker_1, # of connection points: 2
#     Edge 34, Type (0, 0), BuildingBlock: KIFKEQ_clean_linker_1, # of connection points: 2
#     Edge 35, Type (0, 0), BuildingBlock: KIFKEQ_clean_linker_1, # of connection points: 2
#     Edge 36, Type (0, 0), BuildingBlock: KIFKEQ_clean_linker_1, # of connection points: 2
#     Edge 37, Type (0, 0), BuildingBlock: KIFKEQ_clean_linker_1, # of connection points: 2
#     Edge 38, Type (0, 0), BuildingBlock: KIFKEQ_clean_linker_1, # of connection points: 2
#     Edge 39, Type (0, 0), BuildingBlock: KIFKEQ_clean_linker_1, # of connection points: 2
#     Edge 40, Type (0, 0), BuildingBlock: KIFKEQ_clean_linker_1, # of connection points: 2
#     Edge 41, Type (0, 0), BuildingBlock: KIFKEQ_clean_linker_1, # of connection points: 2
#     Edge 42, Type (0, 0), BuildingBlock: KIFKEQ_clean_linker_1, # of connection points: 2
#     Edge 43, Type (0, 0), BuildingBlock: KIFKEQ_clean_linker_1, # of connection points: 2
#     Edge 44, Type (0, 0), BuildingBlock: KIFKEQ_clean_linker_1, # of connection points: 2
#     Edge 45, Type (0, 0), BuildingBlock: KIFKEQ_clean_linker_1, # of connection points: 2
#     Edge 46, Type (0, 0), BuildingBlock: KIFKEQ_clean_linker_1, # of connection points: 2
#     Edge 47, Type (0, 0), BuildingBlock: KIFKEQ_clean_linker_1, # of connection points: 2
# Relax obj value: 0.054
# Max RMSD: 0.244
# Mean RMSD: 0.214
data_MOF--net-ume--node1-KOZSID_clean_sbu_0--edge1-KIFKEQ_clean_linker_1
_symmetry_space_group_name_H-M    P1
_symmetry_Int_Tables_number       1
_symmetry_cell_setting            triclinic
loop_
_symmetry_equiv_pos_as_xyz
'x, y, z'
_cell_length_a     32.756815
_cell_length_b     38.6908
_cell_length_c     135.03612
_cell_angle_alpha  90.017282
_cell_angle_beta   89.96295
_cell_angle_gamma 89.89012
loop_
_atom_site_label
_atom_site_type_symbol
_atom_site_fract_x
_atom_site_fract_y
_atom_site_fract_z
_atom_type_partial_charge
C0 C 0.33852 0.08165 0.32025 0.0
C1 C 0.35638 0.11321 0.32245 0.0
C2 C 0.32909 0.13838 0.3196 0.0
C3 C 0.2961 0.12091 0.31581 0.0
N4 N 0.30094 0.08639 0.31622 0.0
Co5 Co 0.26151 0.05204 0.31112 0.0
N6 N 0.21596 0.08601 0.31081 0.0
C7 C 0.22012 0.12057 0.31088 0.0
C8 C 0.18306 0.13739 0.31078 0.0
C9 C 0.15397 0.11172 0.31062 0.0
C10 C 0.17489 0.08056 0.31065 0.0
N11 N 0.22197 0.01763 0.30596 0.0
C12 C 0.18057 0.01783 0.30614 0.0
C13 C 0.16494 0.98828 0.30172 0.0
C14 C 0.19775 0.96911 0.29863 0.0
C15 C 0.23146 0.98786 0.30135 0.0
N16 N 0.30603 0.01728 0.31135 0.0
C17 C 0.30646 0.98721 0.30632 0.0
C18 C 0.34121 0.96822 0.30787 0.0
C19 C 0.36432 0.98771 0.31418 0.0
C20 C 0.34228 0.01777 0.31613 0.0
N21 N 0.24751 0.04031 0.32504 0.0
C22 C 0.24659 0.02945 0.34586 0.0
C23 C 0.25221 1.00176 0.33919 0.0
C24 C 0.25225 1.00768 0.32884 0.0
C25 C 0.2382 0.06194 0.34172 0.0
C26 C 0.2391 0.06682 0.33145 0.0
N27 N 0.27787 0.06571 0.29738 0.0
C28 C 0.33283 0.08379 0.28644 0.0
C29 C 0.30545 0.09691 0.2794 0.0
C30 C 0.26347 0.09275 0.28148 0.0
C31 C 0.25038 0.07681 0.2904 0.0
C32 C 0.31869 0.06865 0.29524 0.0
H33 H 0.21801 0.07451 0.29179 0.0
H34 H 0.34146 0.06081 0.30051 0.0
H35 H 0.25814 0.98616 0.32395 0.0
H36 H 0.23516 0.09279 0.3288 0.0
C37 C 0.25835 0.1354 0.313 0.0
C38 C 0.35918 0.04792 0.32134 0.0
C39 C 0.15533 0.04628 0.30994 0.0
C40 C 0.27146 0.97538 0.30149 0.0
H41 H 0.38618 0.11755 0.32567 0.0
H42 H 0.33257 0.16605 0.32041 0.0
H43 H 0.1777 0.16495 0.31125 0.0
H44 H 0.12122 0.11544 0.31051 0.0
H45 H 0.13321 0.9812 0.30085 0.0
H46 H 0.19708 0.94372 0.29526 0.0
H47 H 0.34848 0.94286 0.30497 0.0
H48 H 0.39445 0.98085 0.31681 0.0
H49 H 0.25841 0.97598 0.34191 0.0
H50 H 0.23205 0.08411 0.34638 0.0
H51 H 0.36545 0.0865 0.28542 0.0
H52 H 0.24076 0.10188 0.27628 0.0
C53 C 0.96248 0.78051 0.54931 0.0
C54 C 0.99209 0.77779 0.54202 0.0
C55 C 0.02524 0.7617 0.54632 0.0
C56 C 0.01413 0.75536 0.55598 0.0
N57 N 0.97612 0.76646 0.55797 0.0
Co58 Co 0.94894 0.76413 0.5711 0.0
N59 N 1.00122 0.75829 0.57838 0.0
C60 C 0.03658 0.74805 0.57421 0.0
C61 C 0.06757 0.74496 0.58101 0.0
C62 C 0.05042 0.7533 0.59 0.0
C63 C 0.00967 0.76094 0.58823 0.0
N64 N 0.92074 0.76241 0.58414 0.0
C65 C 0.93564 0.76551 0.59348 0.0
C66 C 0.90469 0.7611 0.60042 0.0
C67 C 0.86956 0.7548 0.59524 0.0
C68 C 0.8808 0.7556 0.58546 0.0
N69 N 0.89663 0.76966 0.56383 0.0
C70 C 0.85943 0.76152 0.56733 0.0
C71 C 0.82869 0.76899 0.56075 0.0
C72 C 0.84775 0.78278 0.55262 0.0
C73 C 0.88924 0.78286 0.55468 0.0
N74 N 0.94571 0.71293 0.57002 0.0
C75 C 0.9623 0.64121 0.56811 0.0
C76 C 0.96395 0.65786 0.57732 0.0
C77 C 0.95533 0.69322 0.57813 0.0
C78 C 0.94879 0.6609 0.55998 0.0
C79 C 0.94064 0.69664 0.56108 0.0
N80 N 0.95462 0.81457 0.5722 0.0
C81 C 0.92896 0.87198 0.57562 0.0
C82 C 0.96678 0.88646 0.57296 0.0
C83 C 0.99824 0.86412 0.57017 0.0
C84 C 0.99169 0.82867 0.5699 0.0
C85 C 0.92339 0.83584 0.57511 0.0
H86 H 0.01697 0.81271 0.56771 0.0
H87 H 0.89398 0.82511 0.577 0.0
H88 H 0.95898 0.70484 0.5853 0.0
H89 H 0.93227 0.71141 0.5546 0.0
C90 C 0.04046 0.74618 0.56381 0.0
C91 C 0.92089 0.79452 0.54771 0.0
C92 C 0.97921 0.76792 0.59611 0.0
C93 C 0.85409 0.75431 0.57739 0.0
H94 H 0.98995 0.78664 0.53444 0.0
H95 H 0.05465 0.7569 0.54292 0.0
H96 H 0.09913 0.73826 0.57958 0.0
H97 H 0.06601 0.75329 0.59706 0.0
H98 H 0.90731 0.76133 0.60841 0.0
H99 H 0.83934 0.75064 0.59825 0.0
H100 H 0.79613 0.76665 0.56194 0.0
H101 H 0.83271 0.79209 0.54601 0.0
H102 H 0.97301 0.64383 0.58391 0.0
H103 H 0.9465 0.64926 0.55271 0.0
H104 H 0.90377 0.88841 0.57784 0.0
H105 H 0.02813 0.874 0.56822 0.0
C106 C 0.17199 0.44409 0.82048 0.0
C107 C 0.15429 0.41249 0.82274 0.0
C108 C 0.18163 0.38737 0.81986 0.0
C109 C 0.21448 0.4049 0.81602 0.0
N110 N 0.20951 0.43941 0.81641 0.0
Co111 Co 0.24867 0.47381 0.81121 0.0
N112 N 0.29432 0.43995 0.81082 0.0
C113 C 0.29029 0.40538 0.81092 0.0
C114 C 0.3274 0.38866 0.81077 0.0
C115 C 0.35639 0.4144 0.81055 0.0
C116 C 0.33537 0.4455 0.8106 0.0
N117 N 0.28797 0.50825 0.80594 0.0
C118 C 0.32937 0.50817 0.80606 0.0
C119 C 0.3448 0.53774 0.80161 0.0
C120 C 0.31185 0.5568 0.79856 0.0
C121 C 0.27827 0.53797 0.80133 0.0
N122 N 0.20405 0.50847 0.8115 0.0
C123 C 0.20342 0.53852 0.80646 0.0
C124 C 0.16866 0.55746 0.80807 0.0
C125 C 0.14576 0.53797 0.81443 0.0
C126 C 0.16791 0.50794 0.81634 0.0
N127 N 0.26302 0.48573 0.82509 0.0
C128 C 0.26407 0.49677 0.8459 0.0
C129 C 0.25827 0.52438 0.83922 0.0
C130 C 0.25817 0.51838 0.82887 0.0
C131 C 0.27264 0.46428 0.84176 0.0
C132 C 0.27168 0.45932 0.8315 0.0
N133 N 0.23194 0.45993 0.79752 0.0
C134 C 0.17668 0.44056 0.78688 0.0
C135 C 0.20383 0.42712 0.77982 0.0
C136 C 0.24584 0.43263 0.7816 0.0
C137 C 0.25919 0.44907 0.79044 0.0
C138 C 0.19106 0.45653 0.79552 0.0
H139 H 0.29159 0.45177 0.7917 0.0
H140 H 0.16845 0.46467 0.8008 0.0
H141 H 0.25211 0.53984 0.82398 0.0
H142 H 0.27573 0.43334 0.82886 0.0
C143 C 0.25218 0.39048 0.81313 0.0
C144 C 0.15113 0.47775 0.82155 0.0
C145 C 0.35479 0.47983 0.80985 0.0
C146 C 0.23824 0.55038 0.80156 0.0
H147 H 0.12455 0.40809 0.82599 0.0
H148 H 0.17826 0.3597 0.82068 0.0
H149 H 0.33287 0.36111 0.81126 0.0
H150 H 0.38916 0.41076 0.8104 0.0
H151 H 0.37648 0.54493 0.8007 0.0
H152 H 0.31236 0.58219 0.7952 0.0
H153 H 0.16126 0.5828 0.80518 0.0
H154 H 0.11568 0.54479 0.81711 0.0
H155 H 0.25195 0.55017 0.84193 0.0
H156 H 0.27893 0.44217 0.84644 0.0
H157 H 0.14401 0.43834 0.78587 0.0
H158 H 0.26844 0.42315 0.77642 0.0
C159 C 0.5482 0.74538 0.04931 0.0
C160 C 0.51864 0.74826 0.04203 0.0
C161 C 0.48559 0.76454 0.04633 0.0
C162 C 0.49672 0.77084 0.05599 0.0
N163 N 0.53464 0.75953 0.05797 0.0
Co164 Co 0.56179 0.76173 0.0711 0.0
N165 N 0.50956 0.76794 0.07838 0.0
C166 C 0.47429 0.77837 0.07422 0.0
C167 C 0.44329 0.78162 0.08102 0.0
C168 C 0.46036 0.77319 0.09001 0.0
C169 C 0.50105 0.76533 0.08824 0.0
N170 N 0.58998 0.76332 0.08413 0.0
C171 C 0.57503 0.76034 0.09348 0.0
C172 C 0.60598 0.7646 0.10041 0.0
C173 C 0.64117 0.7707 0.09523 0.0
C174 C 0.62997 0.76992 0.08545 0.0
N175 N 0.61408 0.75584 0.06383 0.0
C176 C 0.65134 0.76379 0.06732 0.0
C177 C 0.68204 0.75615 0.06073 0.0
C178 C 0.66289 0.74246 0.0526 0.0
C179 C 0.62139 0.74259 0.05468 0.0
N180 N 0.56556 0.8129 0.07001 0.0
C181 C 0.55286 0.88541 0.06824 0.0
C182 C 0.54985 0.86844 0.0774 0.0
C183 C 0.5565 0.83275 0.07813 0.0
C184 C 0.5645 0.86508 0.06003 0.0
C185 C 0.57097 0.8291 0.06108 0.0
N186 N 0.55567 0.71134 0.07221 0.0
C187 C 0.58089 0.65382 0.07564 0.0
C188 C 0.54296 0.63953 0.073 0.0
C189 C 0.51167 0.66202 0.0702 0.0
C190 C 0.51849 0.69744 0.06992 0.0
C191 C 0.58673 0.68991 0.07512 0.0
H192 H 0.49334 0.71353 0.06773 0.0
H193 H 0.61622 0.70049 0.07699 0.0
H194 H 0.55201 0.82111 0.08527 0.0
H195 H 0.57882 0.81419 0.05458 0.0
C196 C 0.47045 0.78021 0.06382 0.0
C197 C 0.58968 0.73113 0.04771 0.0
C198 C 0.53143 0.75815 0.09611 0.0
C199 C 0.65671 0.77103 0.07737 0.0
H200 H 0.52073 0.73938 0.03444 0.0
H201 H 0.45624 0.76951 0.04293 0.0
H202 H 0.41179 0.78847 0.0796 0.0
H203 H 0.44474 0.77327 0.09708 0.0
H204 H 0.60332 0.7644 0.1084 0.0
H205 H 0.67141 0.7747 0.09824 0.0
H206 H 0.71461 0.75834 0.06192 0.0
H207 H 0.67787 0.73308 0.04598 0.0
H208 H 0.54055 0.88222 0.084 0.0
H209 H 0.5682 0.87671 0.05279 0.0
H210 H 0.60596 0.63727 0.07785 0.0
H211 H 0.48171 0.6523 0.06827 0.0
C212 C 0.33929 0.44548 0.94672 0.0
C213 C 0.35737 0.41411 0.94432 0.0
C214 C 0.33035 0.38868 0.94709 0.0
C215 C 0.29729 0.40582 0.95101 0.0
N216 N 0.30183 0.44037 0.95077 0.0
Co217 Co 0.26228 0.47427 0.95613 0.0
N218 N 0.21703 0.44016 0.95635 0.0
C219 C 0.22144 0.40563 0.95609 0.0
C220 C 0.18449 0.38876 0.95609 0.0
C221 C 0.15522 0.41437 0.95638 0.0
C222 C 0.17593 0.44556 0.95653 0.0
N223 N 0.22261 0.5082 0.96152 0.0
C224 C 0.18123 0.50799 0.96131 0.0
C225 C 0.16533 0.53695 0.96601 0.0
C226 C 0.198 0.55592 0.96924 0.0
C227 C 0.23189 0.53754 0.96636 0.0
N228 N 0.30646 0.50916 0.95602 0.0
C229 C 0.30676 0.53883 0.96125 0.0
C230 C 0.34134 0.55801 0.95976 0.0
C231 C 0.36447 0.53906 0.95329 0.0
C232 C 0.34263 0.50909 0.95119 0.0
N233 N 0.24775 0.48689 0.94231 0.0
C234 C 0.24238 0.49988 0.92166 0.0
C235 C 0.24997 0.52678 0.92844 0.0
C236 C 0.25187 0.51986 0.93873 0.0
C237 C 0.23596 0.4668 0.92557 0.0
C238 C 0.23904 0.46087 0.93576 0.0
N239 N 0.27907 0.45977 0.96976 0.0
C240 C 0.33434 0.44024 0.98039 0.0
C241 C 0.30719 0.42678 0.98743 0.0
C242 C 0.26517 0.43228 0.98563 0.0
C243 C 0.25181 0.4488 0.97681 0.0
C244 C 0.31995 0.45632 0.97176 0.0
H245 H 0.21941 0.45153 0.97553 0.0
H246 H 0.34254 0.46458 0.9665 0.0
H247 H 0.25818 0.54096 0.94373 0.0
H248 H 0.23628 0.43458 0.93824 0.0
C249 C 0.25974 0.39104 0.95382 0.0
C250 C 0.3597 0.47933 0.9458 0.0
C251 C 0.15627 0.47988 0.95729 0.0
C252 C 0.2718 0.55016 0.96623 0.0
H253 H 0.38716 0.41005 0.94105 0.0
H254 H 0.33407 0.36108 0.94614 0.0
H255 H 0.17931 0.36124 0.95544 0.0
H256 H 0.1225 0.41058 0.9564 0.0
H257 H 0.13349 0.54367 0.96698 0.0
H258 H 0.19711 0.58095 0.97282 0.0
H259 H 0.3485 0.58314 0.96282 0.0
H260 H 0.39451 0.54617 0.95066 0.0
H261 H 0.25467 0.55292 0.92583 0.0
H262 H 0.23042 0.44501 0.92071 0.0
H263 H 0.36701 0.43801 0.98141 0.0
H264 H 0.24258 0.42276 0.9908 0.0
C265 C 0.54655 0.7802 0.2181 0.0
C266 C 0.51627 0.77838 0.22526 0.0
C267 C 0.48328 0.76233 0.22092 0.0
C268 C 0.49493 0.7553 0.21133 0.0
N269 N 0.53315 0.76597 0.20943 0.0
Co270 Co 0.56063 0.76343 0.19632 0.0
N271 N 0.50857 0.7578 0.18896 0.0
C272 C 0.47305 0.74782 0.19307 0.0
C273 C 0.44223 0.74492 0.18622 0.0
C274 C 0.45968 0.7531 0.17725 0.0
C275 C 0.50042 0.76048 0.17909 0.0
N276 N 0.58921 0.76144 0.18335 0.0
C277 C 0.57462 0.7646 0.17397 0.0
C278 C 0.60574 0.75984 0.16709 0.0
C279 C 0.64064 0.7532 0.17234 0.0
C280 C 0.62912 0.75418 0.1821 0.0
N281 N 0.6127 0.76877 0.20366 0.0
C282 C 0.64988 0.75989 0.20028 0.0
C283 C 0.68041 0.76672 0.20697 0.0
C284 C 0.66119 0.78092 0.21503 0.0
C285 C 0.61988 0.78212 0.21279 0.0
N286 N 0.5637 0.71221 0.19744 0.0
C287 C 0.54702 0.64056 0.19935 0.0
C288 C 0.54556 0.65717 0.19014 0.0
C289 C 0.55422 0.69248 0.18933 0.0
C290 C 0.56036 0.66027 0.2075 0.0
C291 C 0.56855 0.69597 0.20639 0.0
N292 N 0.55512 0.81388 0.19519 0.0
C293 C 0.58108 0.87114 0.19183 0.0
C294 C 0.5432 0.88583 0.1944 0.0
C295 C 0.51157 0.86367 0.19712 0.0
C296 C 0.51801 0.82819 0.19741 0.0
C297 C 0.58652 0.83497 0.19234 0.0
H298 H 0.4926 0.81238 0.19955 0.0
H299 H 0.61597 0.82407 0.19053 0.0
H300 H 0.55075 0.70407 0.18214 0.0
H301 H 0.57679 0.71076 0.21287 0.0
C302 C 0.46884 0.7462 0.20346 0.0
C303 C 0.5882 0.79427 0.21969 0.0
C304 C 0.53113 0.7673 0.17127 0.0
C305 C 0.65554 0.7525 0.19023 0.0
H306 H 0.51751 0.78805 0.23276 0.0
H307 H 0.45354 0.75824 0.2242 0.0
H308 H 0.41059 0.73849 0.18759 0.0
H309 H 0.44427 0.75321 0.17017 0.0
H310 H 0.60334 0.76001 0.1591 0.0
H311 H 0.6709 0.74865 0.16938 0.0
H312 H 0.71296 0.76354 0.20591 0.0
H313 H 0.67589 0.78957 0.22177 0.0
H314 H 0.53662 0.64311 0.18355 0.0
H315 H 0.56249 0.64867 0.21478 0.0
H316 H 0.6064 0.88743 0.18967 0.0
H317 H 0.48164 0.87371 0.199 0.0
C318 C 0.17119 0.08118 0.44686 0.0
C319 C 0.15309 0.11258 0.44452 0.0
C320 C 0.18017 0.13796 0.44728 0.0
C321 C 0.21328 0.12077 0.45114 0.0
N322 N 0.2087 0.08623 0.45088 0.0
Co323 Co 0.24834 0.05224 0.45613 0.0
N324 N 0.29363 0.08631 0.45631 0.0
C325 C 0.28925 0.12085 0.45609 0.0
C326 C 0.32621 0.13771 0.45606 0.0
C327 C 0.35546 0.11208 0.4563 0.0
C328 C 0.33473 0.0809 0.45646 0.0
N329 N 0.28808 0.01821 0.46144 0.0
C330 C 0.32945 0.01843 0.46119 0.0
C331 C 0.34538 0.98941 0.46585 0.0
C332 C 0.31273 0.97042 0.46909 0.0
C333 C 0.27883 0.98884 0.46626 0.0
N334 N 0.20411 0.01739 0.45606 0.0
C335 C 0.20386 0.98766 0.46125 0.0
C336 C 0.16923 0.96853 0.45979 0.0
C337 C 0.14602 0.98757 0.45337 0.0
C338 C 0.16787 0.01753 0.45127 0.0
N339 N 0.26258 0.03974 0.44229 0.0
C340 C 0.26788 0.02678 0.42163 0.0
C341 C 0.26041 0.99986 0.42841 0.0
C342 C 0.25854 1.00676 0.43869 0.0
C343 C 0.27418 0.05988 0.42554 0.0
C344 C 0.27113 0.06579 0.43574 0.0
N345 N 0.23186 0.06657 0.46981 0.0
C346 C 0.17685 0.08485 0.48073 0.0
C347 C 0.2042 0.09794 0.48778 0.0
C348 C 0.24619 0.09375 0.4857 0.0
C349 C 0.25932 0.07774 0.47678 0.0
C350 C 0.19103 0.06962 0.47194 0.0
H351 H 0.29169 0.07538 0.47539 0.0
H352 H 0.1683 0.06171 0.46668 0.0
H353 H 0.25235 0.98564 0.44369 0.0
H354 H 0.27384 0.09208 0.43822 0.0
C355 C 0.25091 0.1355 0.4539 0.0
C356 C 0.15079 0.04734 0.44592 0.0
C357 C 0.3544 0.04659 0.45719 0.0
C358 C 0.23891 0.97625 0.46618 0.0
H359 H 0.12327 0.11669 0.44128 0.0
H360 H 0.17648 0.16558 0.44635 0.0
H361 H 0.33139 0.16524 0.45543 0.0
H362 H 0.38818 0.11587 0.4563 0.0
H363 H 0.37722 0.98267 0.4668 0.0
H364 H 0.31365 0.94537 0.47265 0.0
H365 H 0.16209 0.94337 0.46283 0.0
H366 H 0.11593 0.98051 0.45077 0.0
H367 H 0.2558 0.9737 0.4258 0.0
H368 H 0.27964 0.08168 0.42069 0.0
H369 H 0.14422 0.08759 0.48176 0.0
H370 H 0.26888 0.10288 0.4909 0.0
C371 C 0.96241 0.74577 0.71804 0.0
C372 C 0.99196 0.74853 0.72533 0.0
C373 C 0.02501 0.76472 0.72104 0.0
C374 C 0.01388 0.77108 0.71138 0.0
N375 N 0.97597 0.75989 0.70939 0.0
Co376 Co 0.94883 0.7622 0.69625 0.0
N377 N 1.00108 0.76825 0.68898 0.0
C378 C 0.03634 0.77855 0.69315 0.0
C379 C 0.06735 0.7817 0.68635 0.0
C380 C 0.0503 0.77334 0.67736 0.0
C381 C 0.0096 0.76562 0.67912 0.0
N382 N 0.92067 0.76389 0.68323 0.0
C383 C 0.93563 0.76088 0.67388 0.0
C384 C 0.90468 0.76526 0.66694 0.0
C385 C 0.86948 0.77145 0.67213 0.0
C386 C 0.88068 0.77062 0.6819 0.0
N387 N 0.89653 0.75647 0.70353 0.0
C388 C 0.85928 0.76454 0.70004 0.0
C389 C 0.82858 0.75699 0.70661 0.0
C390 C 0.84771 0.74321 0.71474 0.0
C391 C 0.88922 0.74322 0.71267 0.0
N392 N 0.94506 0.81338 0.69736 0.0
C393 C 0.95775 0.88586 0.69915 0.0
C394 C 0.96075 0.86887 0.68998 0.0
C395 C 0.95412 0.83321 0.68925 0.0
C396 C 0.94612 0.86556 0.70735 0.0
C397 C 0.93966 0.8296 0.70629 0.0
N398 N 0.95496 0.71179 0.69513 0.0
C399 C 0.92972 0.65435 0.69171 0.0
C400 C 0.96765 0.63994 0.69435 0.0
C401 C 0.99895 0.66233 0.69714 0.0
C402 C 0.99213 0.69777 0.69742 0.0
C403 C 0.92389 0.69047 0.69223 0.0
H404 H 0.01729 0.71378 0.69961 0.0
H405 H 0.8944 0.70114 0.69036 0.0
H406 H 0.95861 0.82156 0.6821 0.0
H407 H 0.93182 0.81471 0.71279 0.0
C408 C 0.04017 0.78036 0.70355 0.0
C409 C 0.92092 0.73164 0.71964 0.0
C410 C 0.97923 0.75855 0.67125 0.0
C411 C 0.85392 0.7718 0.68998 0.0
H412 H 0.98986 0.73964 0.73291 0.0
H413 H 0.05435 0.76958 0.72444 0.0
H414 H 0.09885 0.78844 0.68778 0.0
H415 H 0.06594 0.77337 0.6703 0.0
H416 H 0.90735 0.76507 0.65896 0.0
H417 H 0.83925 0.77556 0.66912 0.0
H418 H 0.79601 0.75927 0.70543 0.0
H419 H 0.83273 0.73386 0.72136 0.0
H420 H 0.97005 0.88263 0.68338 0.0
H421 H 0.94242 0.8772 0.71459 0.0
H422 H 0.90465 0.63788 0.68949 0.0
H423 H 0.02891 0.65251 0.69907 0.0
C424 C 0.83927 0.5805 0.82037 0.0
C425 C 0.8573 0.61186 0.82273 0.0
C426 C 0.83019 0.63731 0.81997 0.0
C427 C 0.79713 0.62019 0.81609 0.0
N428 N 0.80177 0.58564 0.81634 0.0
Co429 Co 0.76221 0.55174 0.81108 0.0
N430 N 0.71684 0.58589 0.81089 0.0
C431 C 0.72117 0.62042 0.81113 0.0
C432 C 0.68417 0.63735 0.81116 0.0
C433 C 0.65497 0.61178 0.81091 0.0
C434 C 0.67575 0.58055 0.81075 0.0
N435 N 0.72255 0.51779 0.80576 0.0
C436 C 0.68118 0.51808 0.80599 0.0
C437 C 0.66531 0.48911 0.80132 0.0
C438 C 0.698 0.47007 0.79808 0.0
C439 C 0.73187 0.48841 0.80092 0.0
N440 N 0.80649 0.51679 0.81115 0.0
C441 C 0.80681 0.48708 0.80594 0.0
C442 C 0.84148 0.46788 0.80741 0.0
C443 C 0.86463 0.48686 0.81384 0.0
C444 C 0.84271 0.51685 0.81595 0.0
N445 N 0.74793 0.53926 0.82492 0.0
C446 C 0.74259 0.52637 0.84557 0.0
C447 C 0.75018 0.49942 0.8388 0.0
C448 C 0.75207 0.50629 0.82851 0.0
C449 C 0.7362 0.55946 0.84166 0.0
C450 C 0.73928 0.56534 0.83146 0.0
N451 N 0.77872 0.56605 0.7974 0.0
C452 C 0.83375 0.58425 0.7865 0.0
C453 C 0.80642 0.59746 0.77946 0.0
C454 C 0.76442 0.59335 0.78153 0.0
C455 C 0.75127 0.57733 0.79044 0.0
C456 C 0.81956 0.56901 0.79528 0.0
H457 H 0.7189 0.57504 0.79181 0.0
H458 H 0.84227 0.56103 0.80055 0.0
H459 H 0.75834 0.48515 0.82351 0.0
H460 H 0.73651 0.59163 0.82898 0.0
C461 C 0.75947 0.63499 0.81333 0.0
C462 C 0.85972 0.54662 0.82132 0.0
C463 C 0.65616 0.54627 0.81001 0.0
C464 C 0.77181 0.47575 0.80101 0.0
H465 H 0.8871 0.61591 0.82598 0.0
H466 H 0.83383 0.66491 0.8209 0.0
H467 H 0.67893 0.66488 0.8118 0.0
H468 H 0.62224 0.61563 0.81092 0.0
H469 H 0.63348 0.48244 0.80037 0.0
H470 H 0.69715 0.44503 0.79451 0.0
H471 H 0.84867 0.44272 0.80436 0.0
H472 H 0.89472 0.47973 0.81645 0.0
H473 H 0.75486 0.47326 0.84141 0.0
H474 H 0.73066 0.58128 0.84651 0.0
H475 H 0.86638 0.58692 0.78549 0.0
H476 H 0.74174 0.60257 0.77633 0.0
C477 C 0.46371 0.28004 0.04931 0.0
C478 C 0.49407 0.27831 0.04217 0.0
C479 C 0.52716 0.26238 0.04653 0.0
C480 C 0.51547 0.25533 0.05611 0.0
N481 N 0.47714 0.26588 0.05798 0.0
Co482 Co 0.44954 0.26328 0.07108 0.0
N483 N 0.50158 0.25784 0.07847 0.0
C484 C 0.53724 0.24799 0.07438 0.0
C485 C 0.56802 0.24521 0.08125 0.0
C486 C 0.5504 0.25334 0.09021 0.0
C487 C 0.50961 0.26057 0.08834 0.0
N488 N 0.42085 0.26121 0.08404 0.0
C489 C 0.43532 0.26442 0.09342 0.0
C490 C 0.40418 0.25955 0.10028 0.0
C491 C 0.36938 0.2528 0.09501 0.0
C492 C 0.381 0.25381 0.08526 0.0
N493 N 0.39751 0.26846 0.06371 0.0
C494 C 0.36037 0.25947 0.06707 0.0
C495 C 0.32985 0.26621 0.06036 0.0
C496 C 0.34903 0.28047 0.05231 0.0
C497 C 0.39031 0.28178 0.05458 0.0
N498 N 0.44692 0.21206 0.06996 0.0
C499 C 0.46389 0.14041 0.06804 0.0
C500 C 0.46535 0.15704 0.07725 0.0
C501 C 0.45654 0.19236 0.07806 0.0
C502 C 0.45045 0.16011 0.05989 0.0
C503 C 0.44213 0.19581 0.061 0.0
N504 N 0.45458 0.31375 0.07222 0.0
C505 C 0.42803 0.3709 0.07559 0.0
C506 C 0.46575 0.38573 0.07302 0.0
C507 C 0.4976 0.36372 0.07028 0.0
C508 C 0.49154 0.32821 0.06999 0.0
C509 C 0.42297 0.33472 0.07507 0.0
H510 H 0.5171 0.31249 0.06785 0.0
H511 H 0.39363 0.3237 0.07689 0.0
H512 H 0.45998 0.20396 0.08525 0.0
H513 H 0.43379 0.21059 0.05452 0.0
C514 C 0.54157 0.24634 0.064 0.0
C515 C 0.42196 0.29399 0.04769 0.0
C516 C 0.47875 0.26726 0.09615 0.0
C517 C 0.35467 0.25206 0.07711 0.0
H518 H 0.49284 0.28796 0.03466 0.0
H519 H 0.55698 0.25838 0.04326 0.0
H520 H 0.59973 0.23888 0.07989 0.0
H521 H 0.56572 0.2535 0.0973 0.0
H522 H 0.40649 0.25974 0.10827 0.0
H523 H 0.33914 0.24816 0.09795 0.0
H524 H 0.29732 0.26293 0.0614 0.0
H525 H 0.33433 0.28906 0.04557 0.0
H526 H 0.47437 0.14299 0.08384 0.0
H527 H 0.44832 0.14849 0.05262 0.0
H528 H 0.40256 0.3871 0.07777 0.0
H529 H 0.5274 0.3739 0.06839 0.0
C530 C 0.67103 0.94477 0.32046 0.0
C531 C 0.65308 0.91327 0.32271 0.0
C532 C 0.68025 0.888 0.31985 0.0
C533 C 0.71325 0.90534 0.31602 0.0
N534 N 0.70854 0.93987 0.3164 0.0
Co535 Co 0.74799 0.97405 0.31122 0.0
N536 N 0.7934 0.93995 0.31085 0.0
C537 C 0.78912 0.90541 0.31095 0.0
C538 C 0.82614 0.88852 0.31086 0.0
C539 C 0.85531 0.91413 0.31067 0.0
C540 C 0.83449 0.94534 0.31067 0.0
N541 N 0.78754 1.00828 0.30599 0.0
C542 C 0.82892 1.00802 0.30618 0.0
C543 C 0.84469 0.03722 0.30161 0.0
C544 C 0.81193 0.05639 0.29848 0.0
C545 C 0.77813 0.03788 0.30129 0.0
N546 N 0.70365 1.00895 0.31148 0.0
C547 C 0.70327 0.03893 0.3064 0.0
C548 C 0.66862 0.05805 0.30798 0.0
C549 C 0.64554 0.03874 0.31435 0.0
C550 C 0.66746 1.00863 0.31631 0.0
N551 N 0.7623 0.98588 0.32511 0.0
C552 C 0.76344 0.99684 0.34592 0.0
C553 C 0.75777 0.0245 0.33925 0.0
C554 C 0.75763 0.01853 0.3289 0.0
C555 C 0.77181 0.96433 0.34178 0.0
C556 C 0.7708 0.95941 0.33152 0.0
N557 N 0.73127 0.96024 0.29752 0.0
C558 C 0.676 0.94099 0.28687 0.0
C559 C 0.70314 0.92742 0.27983 0.0
C560 C 0.74516 0.93281 0.28163 0.0
C561 C 0.75853 0.94926 0.29046 0.0
C562 C 0.6904 0.95699 0.29551 0.0
H563 H 0.79093 0.95185 0.29174 0.0
H564 H 0.66779 0.96524 0.30078 0.0
H565 H 0.75168 0.04003 0.32401 0.0
H566 H 0.77471 0.93342 0.32887 0.0
C567 C 0.75089 0.89071 0.31315 0.0
C568 C 0.65044 0.97856 0.32152 0.0
C569 C 0.85403 0.97967 0.31005 0.0
C570 C 0.73819 0.05052 0.30148 0.0
H571 H 0.62329 0.90904 0.32596 0.0
H572 H 0.67667 0.86035 0.32068 0.0
H573 H 0.83143 0.86096 0.31138 0.0
H574 H 0.88805 0.91032 0.31062 0.0
H575 H 0.87649 0.04397 0.30065 0.0
H576 H 0.81271 0.08161 0.29502 0.0
H577 H 0.66139 0.08337 0.30505 0.0
H578 H 0.61546 0.04573 0.317 0.0
H579 H 0.7516 0.0503 0.34198 0.0
H580 H 0.77799 0.94219 0.34645 0.0
H581 H 0.64333 0.93886 0.28585 0.0
H582 H 0.76774 0.92323 0.27645 0.0
C583 C 0.048 0.24611 0.54929 0.0
C584 C 0.01834 0.24874 0.54202 0.0
C585 C 0.98517 0.26479 0.54633 0.0
C586 C 0.99633 0.27121 0.55599 0.0
N587 N 0.03439 0.26019 0.55795 0.0
Co588 Co 0.06163 0.26259 0.57107 0.0
N589 N 0.0094 0.26837 0.57838 0.0
C590 C 0.97397 0.27852 0.57423 0.0
C591 C 0.94301 0.2815 0.58105 0.0
C592 C 0.96025 0.2732 0.59004 0.0
C593 C 1.00101 0.26566 0.58824 0.0
N594 N 0.08991 0.2644 0.58408 0.0
C595 C 0.07508 0.26127 0.59343 0.0
C596 C 0.10605 0.26577 0.60035 0.0
C597 C 0.14112 0.27217 0.59515 0.0
C598 C 0.12984 0.27133 0.58538 0.0
N599 N 0.11391 0.25712 0.56377 0.0
C600 C 0.15111 0.26538 0.56723 0.0
C601 C 0.18183 0.25797 0.56063 0.0
C602 C 0.16276 0.2441 0.55252 0.0
C603 C 0.12128 0.24391 0.55461 0.0
N604 N 0.06483 0.31379 0.56998 0.0
C605 C 0.0516 0.38625 0.56823 0.0
C606 C 0.04871 0.36922 0.57739 0.0
C607 C 0.05562 0.33357 0.5781 0.0
C608 C 0.06334 0.36601 0.56001 0.0
C609 C 0.07006 0.33005 0.56105 0.0
N610 N 0.05608 0.21215 0.57217 0.0
C611 C 0.08196 0.15483 0.5756 0.0
C612 C 0.04421 0.14024 0.57295 0.0
C613 C 0.01267 0.16247 0.57015 0.0
C614 C 0.01907 0.19794 0.56988 0.0
C615 C 0.08739 0.19098 0.57508 0.0
H616 H 0.99373 0.21383 0.56769 0.0
H617 H 0.11675 0.20179 0.57696 0.0
H618 H 0.05125 0.32187 0.58525 0.0
H619 H 0.078 0.31522 0.55455 0.0
C620 C 0.97002 0.28035 0.56384 0.0
C621 C 0.08961 0.23217 0.54767 0.0
C622 C 0.03154 0.25871 0.59609 0.0
C623 C 0.1565 0.27266 0.57729 0.0
H624 H 0.02045 0.23984 0.53444 0.0
H625 H 0.95573 0.26951 0.54296 0.0
H626 H 0.91142 0.28811 0.57965 0.0
H627 H 0.9447 0.27315 0.59711 0.0
H628 H 0.10346 0.26552 0.60834 0.0
H629 H 0.17134 0.27641 0.59815 0.0
H630 H 0.21439 0.26041 0.5618 0.0
H631 H 0.17778 0.23481 0.54589 0.0
H632 H 0.03933 0.38293 0.584 0.0
H633 H 0.06694 0.37769 0.55279 0.0
H634 H 0.10721 0.13848 0.57782 0.0
H635 H 0.98284 0.15248 0.56821 0.0
C636 C 0.83907 0.94491 0.44687 0.0
C637 C 0.85699 0.91343 0.44452 0.0
C638 C 0.82979 0.88816 0.44729 0.0
C639 C 0.7968 0.90549 0.45118 0.0
N640 N 0.80154 0.94002 0.45091 0.0
Co641 Co 0.76212 0.97416 0.45619 0.0
N642 N 0.71666 0.94026 0.4564 0.0
C643 C 0.72087 0.9057 0.45617 0.0
C644 C 0.68384 0.88896 0.4562 0.0
C645 C 0.65471 0.91468 0.45648 0.0
C646 C 0.67558 0.94579 0.45658 0.0
N647 N 0.72256 1.00835 0.46155 0.0
C648 C 0.68116 1.00825 0.46138 0.0
C649 C 0.6655 0.03762 0.46592 0.0
C650 C 0.69829 0.05655 0.46909 0.0
C651 C 0.73203 0.03785 0.46629 0.0
N652 N 0.80655 1.00885 0.45608 0.0
C653 C 0.80697 0.03865 0.46124 0.0
C654 C 0.84168 0.05765 0.45974 0.0
C655 C 0.86475 0.03847 0.45332 0.0
C656 C 0.84275 1.00855 0.45126 0.0
N657 N 0.74781 0.98671 0.44236 0.0
C658 C 0.74245 0.99965 0.42171 0.0
C659 C 0.75008 0.02656 0.42849 0.0
C660 C 0.75198 0.01966 0.43877 0.0
C661 C 0.73602 0.96658 0.42562 0.0
C662 C 0.7391 0.96067 0.43582 0.0
N663 N 0.77865 0.9598 0.46986 0.0
C664 C 0.83367 0.94144 0.48075 0.0
C665 C 0.80633 0.92847 0.48782 0.0
C666 C 0.76434 0.93275 0.48577 0.0
C667 C 0.7512 0.94874 0.47685 0.0
C668 C 0.81949 0.95664 0.47196 0.0
H669 H 0.71883 0.95118 0.47549 0.0
H670 H 0.8422 0.96446 0.46668 0.0
H671 H 0.7583 0.04077 0.44376 0.0
H672 H 0.7363 0.93439 0.4383 0.0
C673 C 0.75911 0.89091 0.45396 0.0
C674 C 0.85967 0.97864 0.44591 0.0
C675 C 0.65598 0.98008 0.45745 0.0
C676 C 0.772 0.05027 0.46615 0.0
H677 H 0.88677 0.9092 0.44126 0.0
H678 H 0.83333 0.86053 0.44637 0.0
H679 H 0.67852 0.86144 0.45561 0.0
H680 H 0.62197 0.91103 0.45657 0.0
H681 H 0.63376 0.04476 0.46682 0.0
H682 H 0.69758 0.08178 0.47255 0.0
H683 H 0.84893 0.08284 0.46274 0.0
H684 H 0.89484 0.04541 0.45069 0.0
H685 H 0.75479 0.0527 0.42587 0.0
H686 H 0.73044 0.94479 0.42077 0.0
H687 H 0.8663 0.93862 0.48175 0.0
H688 H 0.74166 0.92372 0.49099 0.0
C689 C 0.04703 0.28031 0.71807 0.0
C690 C 0.01673 0.27871 0.72522 0.0
C691 C 0.9836 0.26286 0.72088 0.0
C692 C 0.99521 0.25572 0.7113 0.0
N693 N 0.03353 0.26615 0.70941 0.0
Co694 Co 0.06102 0.2634 0.6963 0.0
N695 N 0.00892 0.25812 0.68893 0.0
C696 C 0.97329 0.24839 0.69304 0.0
C697 C 0.94246 0.24571 0.68619 0.0
C698 C 0.96001 0.25377 0.67722 0.0
C699 C 1.00082 0.26086 0.67906 0.0
N700 N 0.08961 0.26119 0.68333 0.0
C701 C 0.07506 0.26443 0.67395 0.0
C702 C 0.10615 0.25944 0.66708 0.0
C703 C 0.14098 0.25256 0.67233 0.0
C704 C 0.12945 0.25364 0.68209 0.0
N705 N 0.11311 0.26842 0.70364 0.0
C706 C 0.15022 0.25928 0.70027 0.0
C707 C 0.1808 0.26597 0.70696 0.0
C708 C 0.16168 0.28034 0.71502 0.0
C709 C 0.12039 0.28178 0.71277 0.0
N710 N 0.06363 0.21218 0.69742 0.0
C711 C 0.04666 0.14058 0.69935 0.0
C712 C 0.04514 0.1572 0.69014 0.0
C713 C 0.05395 0.19249 0.68932 0.0
C714 C 0.06015 0.16025 0.70749 0.0
C715 C 0.06847 0.19593 0.70638 0.0
N716 N 0.05599 0.31388 0.69516 0.0
C717 C 0.08252 0.37092 0.69176 0.0
C718 C 0.04483 0.3859 0.69435 0.0
C719 C 0.01299 0.364 0.6971 0.0
C720 C 0.01905 0.32847 0.6974 0.0
C721 C 0.08759 0.33473 0.69229 0.0
H722 H 0.9935 0.31286 0.69955 0.0
H723 H 0.11691 0.3236 0.69046 0.0
H724 H 0.05047 0.20408 0.68214 0.0
H725 H 0.07685 0.21069 0.71285 0.0
C726 C 0.96905 0.2468 0.70343 0.0
C727 C 0.08879 0.29415 0.71966 0.0
C728 C 0.03162 0.26745 0.67125 0.0
C729 C 0.15584 0.25181 0.69023 0.0
H730 H 0.01803 0.2884 0.73273 0.0
H731 H 0.95381 0.25898 0.72417 0.0
H732 H 0.91076 0.2395 0.68756 0.0
H733 H 0.94463 0.25397 0.67013 0.0
H734 H 0.10377 0.25962 0.65909 0.0
H735 H 0.1712 0.2478 0.66938 0.0
H736 H 0.21332 0.26257 0.70591 0.0
H737 H 0.17644 0.28893 0.72175 0.0
H738 H 0.03608 0.14317 0.68355 0.0
H739 H 0.06232 0.14864 0.71477 0.0
H740 H 0.10798 0.38703 0.68957 0.0
H741 H 0.98321 0.37429 0.69901 0.0
C742 C 0.67137 0.58192 0.94697 0.0
C743 C 0.65341 0.61351 0.94477 0.0
C744 C 0.68063 0.63864 0.94763 0.0
C745 C 0.71367 0.62112 0.95141 0.0
N746 N 0.70893 0.58661 0.951 0.0
Co747 Co 0.74846 0.5522 0.95608 0.0
N748 N 0.79391 0.58613 0.95641 0.0
C749 C 0.78964 0.62069 0.95635 0.0
C750 C 0.82664 0.63748 0.95645 0.0
C751 C 0.85581 0.61179 0.95662 0.0
C752 C 0.83499 0.58064 0.95657 0.0
N753 N 0.7881 0.51774 0.96123 0.0
C754 C 0.8295 0.51791 0.96106 0.0
C755 C 0.84522 0.48832 0.96547 0.0
C756 C 0.81246 0.46916 0.96854 0.0
C757 C 0.7787 0.48796 0.96583 0.0
N758 N 0.70405 0.51749 0.95584 0.0
C759 C 0.70371 0.48739 0.96085 0.0
C760 C 0.66902 0.46845 0.95929 0.0
C761 C 0.64585 0.48798 0.95299 0.0
C762 C 0.66779 0.51803 0.95105 0.0
N763 N 0.76251 0.54047 0.94216 0.0
C764 C 0.76358 0.52954 0.92135 0.0
C765 C 0.75809 0.50187 0.92802 0.0
C766 C 0.75797 0.50783 0.93837 0.0
C767 C 0.77177 0.56205 0.92549 0.0
C768 C 0.7708 0.56696 0.93575 0.0
N769 N 0.73205 0.56585 0.96982 0.0
C770 C 0.67705 0.58391 0.98078 0.0
C771 C 0.70439 0.59694 0.98783 0.0
C772 C 0.74639 0.59276 0.98575 0.0
C773 C 0.75952 0.57688 0.97681 0.0
C774 C 0.69123 0.56882 0.97197 0.0
H775 H 0.79189 0.57456 0.97543 0.0
H776 H 0.66848 0.56104 0.96669 0.0
H777 H 0.75218 0.48632 0.94326 0.0
H778 H 0.7746 0.59295 0.9384 0.0
C779 C 0.75137 0.63557 0.95423 0.0
C780 C 0.65079 0.54823 0.94587 0.0
C781 C 0.85467 0.54635 0.95729 0.0
C782 C 0.73874 0.47552 0.96567 0.0
H783 H 0.6236 0.6179 0.94156 0.0
H784 H 0.67707 0.66632 0.94684 0.0
H785 H 0.83191 0.66504 0.956 0.0
H786 H 0.88855 0.61548 0.95673 0.0
H787 H 0.87697 0.4812 0.96634 0.0
H788 H 0.81321 0.44376 0.9719 0.0
H789 H 0.66184 0.44308 0.96217 0.0
H790 H 0.61575 0.48116 0.95035 0.0
H791 H 0.75205 0.47607 0.9253 0.0
H792 H 0.77781 0.58421 0.92082 0.0
H793 H 0.64442 0.58663 0.98181 0.0
H794 H 0.76907 0.60184 0.99096 0.0
C795 C 0.46158 0.24557 0.21809 0.0
C796 C 0.49119 0.2481 0.22537 0.0
C797 C 0.52436 0.26412 0.22108 0.0
C798 C 0.51324 0.27062 0.21143 0.0
N799 N 0.47522 0.25969 0.20944 0.0
Co800 Co 0.44806 0.26219 0.19632 0.0
N801 N 0.50033 0.26788 0.18903 0.0
C802 C 0.53571 0.27795 0.1932 0.0
C803 C 0.56671 0.28089 0.18639 0.0
C804 C 0.54954 0.27264 0.17739 0.0
C805 C 0.50878 0.26518 0.17918 0.0
N806 N 0.41985 0.26408 0.1833 0.0
C807 C 0.43475 0.26094 0.17395 0.0
C808 C 0.40382 0.26553 0.16702 0.0
C809 C 0.3687 0.27199 0.17221 0.0
C810 C 0.37993 0.2711 0.18199 0.0
N811 N 0.39574 0.25681 0.2036 0.0
C812 C 0.35856 0.26516 0.20012 0.0
C813 C 0.32781 0.25777 0.20671 0.0
C814 C 0.34685 0.24381 0.21482 0.0
C815 C 0.38834 0.24355 0.21274 0.0
N816 N 0.44477 0.3134 0.19742 0.0
C817 C 0.4579 0.38583 0.19919 0.0
C818 C 0.46084 0.36879 0.19003 0.0
C819 C 0.45399 0.33316 0.18931 0.0
C820 C 0.44616 0.36561 0.2074 0.0
C821 C 0.4395 0.32966 0.20635 0.0
N822 N 0.4537 0.21174 0.19519 0.0
C823 C 0.42794 0.15448 0.19174 0.0
C824 C 0.4657 0.13981 0.1944 0.0
C825 C 0.49719 0.16197 0.19721 0.0
C826 C 0.49072 0.19746 0.1975 0.0
C827 C 0.42245 0.19064 0.19227 0.0
H828 H 0.51602 0.21329 0.19969 0.0
H829 H 0.39307 0.20151 0.19039 0.0
H830 H 0.4584 0.32147 0.18216 0.0
H831 H 0.43155 0.31483 0.21285 0.0
C832 C 0.53959 0.27974 0.20359 0.0
C833 C 0.41999 0.23168 0.21969 0.0
C834 C 0.47831 0.25831 0.17131 0.0
C835 C 0.35322 0.27247 0.19007 0.0
H836 H 0.48906 0.23915 0.23295 0.0
H837 H 0.55377 0.26875 0.22447 0.0
H838 H 0.59828 0.28742 0.1878 0.0
H839 H 0.56514 0.27257 0.17033 0.0
H840 H 0.40646 0.26529 0.15903 0.0
H841 H 0.3385 0.27631 0.1692 0.0
H842 H 0.29525 0.26027 0.20553 0.0
H843 H 0.3318 0.2345 0.22143 0.0
H844 H 0.47023 0.38249 0.18343 0.0
H845 H 0.44251 0.37729 0.21463 0.0
H846 H 0.40274 0.13818 0.18951 0.0
H847 H 0.52702 0.15192 0.19917 0.0
H848 H 0.91448 0.96242 0.29683 0.0
H849 H 0.89514 1.01204 0.32497 0.0
H850 H 0.98633 0.98033 0.29708 0.0
H851 H 0.96695 0.02999 0.32532 0.0
H852 H 0.11026 0.02714 0.32609 0.0
H853 H 0.03832 1.0094 0.3266 0.0
H854 H 0.02663 0.03378 0.29554 0.0
H855 H 0.09846 0.0516 0.29514 0.0
C856 C 0.92592 0.97644 0.30319 0.0
C857 C 0.89936 0.9851 0.31099 0.0
C858 C 0.96699 0.98723 0.30328 0.0
C859 C 0.9828 1.00691 0.3112 0.0
C860 C 0.95629 0.01468 0.31914 0.0
C861 C 0.91511 1.00425 0.31897 0.0
C862 C 0.09193 0.02947 0.31945 0.0
C863 C 0.10984 0.04132 0.31062 0.0
C864 C 0.0507 0.01912 0.31971 0.0
C865 C 0.02636 0.01974 0.31109 0.0
C866 C 0.04429 0.03238 0.30231 0.0
C867 C 0.08534 0.04311 0.30209 0.0
H868 H 0.03045 0.61173 0.57624 0.0
H869 H 0.92758 0.5867 0.55771 0.0
H870 H 0.05356 0.55218 0.57551 0.0
H871 H 0.94986 0.52619 0.55722 0.0
H872 H 0.01518 0.42189 0.55267 0.0
H873 H 0.99543 0.48277 0.5519 0.0
H874 H 0.04197 0.4977 0.58151 0.0
H875 H 0.06398 0.43806 0.58199 0.0
C876 C 0.01239 0.59336 0.57208 0.0
C877 C 0.97673 0.60426 0.56715 0.0
C878 C 0.02562 0.55884 0.57169 0.0
C879 C 1.00347 0.53349 0.56645 0.0
C880 C 0.96821 0.54458 0.56129 0.0
C881 C 0.95521 0.57943 0.56159 0.0
C882 C 0.02195 0.43827 0.55895 0.0
C883 C 0.04123 0.42437 0.56741 0.0
C884 C 0.00995 0.47335 0.55857 0.0
C885 C 0.01677 0.49587 0.56664 0.0
C886 C 0.03648 0.48192 0.57503 0.0
C887 C 0.04868 0.4471 0.57538 0.0
H888 H 0.59554 0.56455 0.79697 0.0
H889 H 0.61521 0.5129 0.82478 0.0
H890 H 0.52364 0.54675 0.7972 0.0
H891 H 0.54337 0.49504 0.82512 0.0
H892 H 0.40009 0.49782 0.82607 0.0
H893 H 0.47204 0.51552 0.82661 0.0
H894 H 0.48327 0.49351 0.79538 0.0
H895 H 0.41143 0.47574 0.79495 0.0
C896 C 0.58416 0.5501 0.80326 0.0
C897 C 0.61083 0.54084 0.81097 0.0
C898 C 0.54307 0.53938 0.80334 0.0
C899 C 0.52734 0.51916 0.81116 0.0
C900 C 0.55397 0.51078 0.81901 0.0
C901 C 0.59517 0.52116 0.81886 0.0
C902 C 0.41831 0.49603 0.81939 0.0
C903 C 0.40026 0.48489 0.81051 0.0
C904 C 0.45955 0.50635 0.81967 0.0
C905 C 0.48377 0.50638 0.81102 0.0
C906 C 0.4657 0.49442 0.80218 0.0
C907 C 0.42465 0.48372 0.80194 0.0
H908 H 0.53202 0.11097 0.07619 0.0
H909 H 0.42928 0.08591 0.05762 0.0
H910 H 0.55515 0.05142 0.07547 0.0
H911 H 0.45156 0.02541 0.05715 0.0
H912 H 0.51663 0.92105 0.05265 0.0
H913 H 0.49706 0.98196 0.05185 0.0
H914 H 0.54358 0.99695 0.08146 0.0
H915 H 0.56544 0.93727 0.08197 0.0
C916 C 0.514 0.0926 0.07202 0.0
C917 C 0.47837 0.10348 0.06707 0.0
C918 C 0.52723 0.05807 0.07163 0.0
C919 C 0.50512 0.03272 0.06639 0.0
C920 C 0.46989 0.0438 0.06122 0.0
C921 C 0.45688 0.07865 0.06151 0.0
C922 C 0.52345 0.93746 0.05892 0.0
C923 C 0.54267 0.92356 0.06739 0.0
C924 C 0.51155 0.97255 0.05853 0.0
C925 C 0.51839 0.99509 0.06659 0.0
C926 C 0.53807 0.98115 0.07498 0.0
C927 C 0.55017 0.94631 0.07535 0.0
H928 H 0.11529 0.51277 0.94242 0.0
H929 H 0.09569 0.46222 0.9704 0.0
H930 H 0.04339 0.53069 0.94204 0.0
H931 H 0.02375 0.4801 0.97012 0.0
H932 H 0.91126 0.55126 0.97215 0.0
H933 H 0.9832 0.53352 0.97176 0.0
H934 H 0.97213 0.51004 0.94063 0.0
H935 H 0.90008 0.5277 0.94112 0.0
C936 C 0.09526 0.50478 0.94838 0.0
C937 C 0.11095 0.48538 0.95632 0.0
C938 C 0.05403 0.51519 0.9482 0.0
C939 C 0.02741 0.50714 0.95608 0.0
C940 C 0.04318 0.48721 0.96396 0.0
C941 C 0.08429 0.47645 0.96407 0.0
C942 C 0.92454 0.54298 0.96519 0.0
C943 C 0.90018 0.5414 0.95663 0.0
C944 C 0.96565 0.5323 0.96498 0.0
C945 C 0.98379 0.51993 0.95618 0.0
C946 C 0.95959 0.51954 0.94753 0.0
C947 C 0.91829 0.52984 0.94778 0.0
H948 H 0.44555 0.43767 0.18544 0.0
H949 H 0.49415 0.42141 0.21478 0.0
H950 H 0.46751 0.49724 0.18593 0.0
H951 H 0.51382 0.48224 0.21556 0.0
H952 H 0.5816 0.58601 0.2098 0.0
H953 H 0.55934 0.52556 0.21027 0.0
H954 H 0.4559 0.55177 0.19189 0.0
H955 H 0.479 0.61125 0.19117 0.0
C956 C 0.4608 0.44668 0.19206 0.0
C957 C 0.46821 0.42394 0.20002 0.0
C958 C 0.47296 0.48146 0.19241 0.0
C959 C 0.49259 0.49538 0.20081 0.0
C960 C 0.49936 0.47286 0.20888 0.0
C961 C 0.48741 0.43781 0.20849 0.0
C962 C 0.55403 0.57879 0.20589 0.0
C963 C 0.53258 0.60366 0.20032 0.0
C964 C 0.54105 0.54398 0.20619 0.0
C965 C 0.50586 0.53297 0.201 0.0
C966 C 0.48379 0.55836 0.19574 0.0
C967 C 0.497 0.59285 0.19536 0.0
H968 H 0.39564 0.0136 0.44236 0.0
H969 H 0.41477 0.06444 0.47032 0.0
H970 H 0.46756 0.99571 0.44203 0.0
H971 H 0.48672 0.0466 0.47009 0.0
H972 H 0.59909 0.97542 0.47226 0.0
H973 H 0.52718 0.99319 0.4718 0.0
H974 H 0.53887 0.0163 0.44066 0.0
H975 H 0.61091 0.99861 0.44122 0.0
C976 C 0.41558 0.02167 0.44832 0.0
C977 C 0.39975 0.04113 0.45624 0.0
C978 C 0.45682 1.01128 0.44817 0.0
C979 C 0.4833 0.01942 0.45607 0.0
C980 C 0.4674 0.03942 0.46393 0.0
C981 C 0.42627 0.05015 0.464 0.0
C982 C 0.58596 0.98365 0.46529 0.0
C983 C 0.6105 0.98514 0.45675 0.0
C984 C 0.54487 0.99434 0.46503 0.0
C985 C 0.52692 1.00662 0.45621 0.0
C986 C 0.55128 1.00689 0.44758 0.0
C987 C 0.59257 0.99658 0.44788 0.0
H988 H 0.97849 0.11135 0.69122 0.0
H989 H 0.08131 0.08599 0.70976 0.0
H990 H 0.95536 0.05187 0.69194 0.0
H991 H 0.05904 0.02556 0.71023 0.0
H992 H 0.994 0.9214 0.71474 0.0
H993 H 0.01356 0.98225 0.71554 0.0
H994 H 0.96693 0.99736 0.68594 0.0
H995 H 0.9451 0.93775 0.68543 0.0
C996 C 0.99653 0.09292 0.69538 0.0
C997 C 0.03218 0.1037 0.70032 0.0
C998 C 0.9833 0.05844 0.69577 0.0
C999 C 0.00544 0.03302 0.70101 0.0
C1000 C 0.04069 0.044 0.70616 0.0
C1001 C 0.05369 0.07881 0.70587 0.0
C1002 C 0.98716 0.93782 0.70846 0.0
C1003 C 0.96792 0.92397 0.69999 0.0
C1004 C 0.99905 0.97288 0.70886 0.0
C1005 C 0.99217 0.99544 0.7008 0.0
C1006 C 0.97247 0.98155 0.69241 0.0
C1007 C 0.96038 0.94675 0.69204 0.0
H1008 H 0.61556 1.00588 0.33819 0.0
H1009 H 0.58684 0.95944 0.31004 0.0
H1010 H 0.54442 0.02586 0.33979 0.0
H1011 H 0.51633 0.97984 0.3115 0.0
H1012 H 0.42304 0.06699 0.30992 0.0
H1013 H 0.49353 0.04664 0.31147 0.0
H1014 H 0.46477 1.00083 0.33975 0.0
H1015 H 0.39366 0.02076 0.33806 0.0
C1016 C 0.59356 0.99876 0.33257 0.0
C1017 C 0.60629 0.98062 0.32408 0.0
C1018 C 0.55311 1.0105 0.33342 0.0
C1019 C 0.52519 1.00489 0.32568 0.0
C1020 C 0.53741 0.98485 0.31751 0.0
C1021 C 0.57749 0.97268 0.31675 0.0
C1022 C 0.43224 0.05381 0.31664 0.0
C1023 C 0.40326 0.04592 0.32395 0.0
C1024 C 0.47231 0.04167 0.31746 0.0
C1025 C 0.48434 0.0217 0.32566 0.0
C1026 C 0.45623 0.01613 0.33336 0.0
C1027 C 0.41579 0.02785 0.33246 0.0
H1028 H 0.9525 0.9343 0.5877 0.0
H1029 H 0.99997 0.92413 0.55803 0.0
H1030 H 0.97317 0.99539 0.58788 0.0
H1031 H 0.02095 0.98445 0.55823 0.0
H1032 H 0.01191 0.10234 0.55797 0.0
H1033 H 0.99106 0.04197 0.55816 0.0
H1034 H 0.0374 0.0315 0.58794 0.0
H1035 H 0.05796 0.09263 0.58775 0.0
C1036 C 0.96683 0.94523 0.58119 0.0
C1037 C 0.97453 0.92443 0.57285 0.0
C1038 C 0.97919 0.98004 0.58133 0.0
C1039 C 0.99898 0.99485 0.57309 0.0
C1040 C 0.0056 0.97411 0.56468 0.0
C1041 C 0.99365 0.93945 0.56458 0.0
C1042 C 0.01796 0.0871 0.56454 0.0
C1043 C 0.03663 0.10225 0.57284 0.0
C1044 C 0.00608 0.05243 0.56464 0.0
C1045 C 0.01232 0.03181 0.57308 0.0
C1046 C 0.03168 0.04675 0.58136 0.0
C1047 C 0.04398 0.08158 0.58122 0.0
H1048 H 0.11601 0.50461 0.83825 0.0
H1049 H 0.08772 0.45847 0.81004 0.0
H1050 H 0.04472 0.52422 0.83985 0.0
H1051 H 0.01708 0.47853 0.8115 0.0
H1052 H 0.92385 0.56606 0.81004 0.0
H1053 H 0.99432 0.54566 0.81162 0.0
H1054 H 0.96491 0.49849 0.83966 0.0
H1055 H 0.89381 0.51845 0.83795 0.0
C1056 C 0.09408 0.49747 0.83261 0.0
C1057 C 0.10697 0.47953 0.82411 0.0
C1058 C 0.05355 0.509 0.83347 0.0
C1059 C 0.0257 0.50337 0.82572 0.0
C1060 C 0.03809 0.48352 0.81753 0.0
C1061 C 0.07825 0.47156 0.81675 0.0
C1062 C 0.93289 0.55254 0.81672 0.0
C1063 C 0.90374 0.5443 0.82396 0.0
C1064 C 0.97295 0.54039 0.81755 0.0
C1065 C 0.98481 0.52007 0.82569 0.0
C1066 C 0.9565 0.51408 0.83332 0.0
C1067 C 0.91607 0.5258 0.83241 0.0
H1068 H 0.50922 0.60196 0.05812 0.0
H1069 H 0.55729 0.59165 0.0877 0.0
H1070 H 0.48809 0.54168 0.05833 0.0
H1071 H 0.53648 0.53059 0.0879 0.0
H1072 H 0.45182 0.43328 0.08784 0.0
H1073 H 0.47216 0.49447 0.08802 0.0
H1074 H 0.51816 0.48417 0.05819 0.0
H1075 H 0.49757 0.42374 0.058 0.0
C1076 C 0.51561 0.58662 0.06465 0.0
C1077 C 0.53496 0.60159 0.07289 0.0
C1078 C 0.50358 0.55199 0.06476 0.0
C1079 C 0.51035 0.53122 0.07314 0.0
C1080 C 0.53034 0.54597 0.08136 0.0
C1081 C 0.54277 0.58076 0.08121 0.0
C1082 C 0.46566 0.44439 0.08129 0.0
C1083 C 0.473 0.42376 0.0729 0.0
C1084 C 0.47783 0.47925 0.08143 0.0
C1085 C 0.49705 0.49425 0.07314 0.0
C1086 C 0.50324 0.47367 0.06468 0.0
C1087 C 0.4915 0.43897 0.06458 0.0
H1088 H 0.42363 0.45966 0.95711 0.0
H1089 H 0.39406 0.5075 0.9292 0.0
H1090 H 0.49407 0.47999 0.95562 0.0
H1091 H 0.46514 0.52739 0.92757 0.0
H1092 H 0.6162 0.52135 0.92914 0.0
H1093 H 0.54507 0.50165 0.92746 0.0
H1094 H 0.51651 0.54712 0.9558 0.0
H1095 H 0.58701 0.56726 0.95735 0.0
C1096 C 0.43278 0.47321 0.95045 0.0
C1097 C 0.40377 0.48154 0.94319 0.0
C1098 C 0.47282 0.48532 0.94967 0.0
C1099 C 0.48479 0.50569 0.94155 0.0
C1100 C 0.45664 0.51176 0.93389 0.0
C1101 C 0.41622 0.50007 0.93476 0.0
C1102 C 0.5941 0.52842 0.93476 0.0
C1103 C 0.60669 0.54633 0.94328 0.0
C1104 C 0.55366 0.51684 0.93386 0.0
C1105 C 0.52561 0.52239 0.94158 0.0
C1106 C 0.53769 0.54219 0.9498 0.0
C1107 C 0.57776 0.5542 0.95062 0.0
H1108 H 0.55786 0.93362 0.17969 0.0
H1109 H 0.50985 0.92362 0.2093 0.0
H1110 H 0.53723 0.9948 0.1795 0.0
H1111 H 0.48891 0.98401 0.2091 0.0
H1112 H 0.49789 0.10185 0.2094 0.0
H1113 H 0.51884 0.04144 0.20921 0.0
H1114 H 0.47291 0.03108 0.17939 0.0
H1115 H 0.45224 0.09225 0.17957 0.0
C1116 C 0.54343 0.94461 0.18619 0.0
C1117 C 0.53556 0.92384 0.19452 0.0
C1118 C 0.53109 0.97947 0.18604 0.0
C1119 C 0.51116 0.99433 0.19427 0.0
C1120 C 0.50438 0.97362 0.20266 0.0
C1121 C 0.51631 0.93892 0.20277 0.0
C1122 C 0.49195 0.08662 0.20282 0.0
C1123 C 0.47335 0.10181 0.1945 0.0
C1124 C 0.50389 0.05193 0.20271 0.0
C1125 C 0.4978 0.03133 0.19426 0.0
C1126 C 0.47852 0.04631 0.18597 0.0
C1127 C 0.46615 0.08116 0.18612 0.0
H1128 H 0.89412 1.00632 0.42926 0.0
H1129 H 0.92353 0.959 0.45725 0.0
H1130 H 0.96529 0.02596 0.42759 0.0
H1131 H 0.99406 0.9791 0.45572 0.0
H1132 H 0.08678 0.06685 0.45725 0.0
H1133 H 0.01631 0.04662 0.45572 0.0
H1134 H 0.04543 0.99962 0.42761 0.0
H1135 H 0.11653 0.01939 0.42928 0.0
C1136 C 0.91626 0.99894 0.43483 0.0
C1137 C 0.90374 0.98064 0.44329 0.0
C1138 C 0.95672 1.01048 0.43394 0.0
C1139 C 0.98486 1.0045 0.44161 0.0
C1140 C 0.97282 0.98434 0.44976 0.0
C1141 C 0.93273 0.97237 0.45057 0.0
C1142 C 0.07767 0.05341 0.45057 0.0
C1143 C 0.10673 0.04515 0.4433 0.0
C1144 C 0.03761 0.04136 0.44976 0.0
C1145 C 0.02569 0.02114 0.44161 0.0
C1146 C 0.0539 0.01514 0.43395 0.0
C1147 C 0.09433 0.02675 0.43485 0.0
H1148 H 0.0587 0.43333 0.67952 0.0
H1149 H 0.01308 0.42407 0.70937 0.0
H1150 H 0.03836 0.49459 0.67933 0.0
H1151 H 0.99248 0.48456 0.70917 0.0
H1152 H 1.00141 0.60231 0.70923 0.0
H1153 H 0.02253 0.54196 0.70902 0.0
H1154 H 0.97407 0.53092 0.67946 0.0
H1155 H 0.95327 0.59206 0.67965 0.0
C1156 C 0.04489 0.44452 0.68607 0.0
C1157 C 0.03759 0.42394 0.69446 0.0
C1158 C 0.03272 0.47941 0.68592 0.0
C1159 C 0.01353 0.49451 0.69422 0.0
C1160 C 0.00737 0.47399 0.70268 0.0
C1161 C 0.01912 0.43925 0.70279 0.0
C1162 C 0.995 0.58697 0.7027 0.0
C1163 C 0.97564 0.60197 0.69445 0.0
C1164 C 0.00702 0.5523 0.70259 0.0
C1165 C 1.00023 0.53152 0.69421 0.0
C1166 C 0.98023 0.54631 0.68599 0.0
C1167 C 0.9678 0.58114 0.68614 0.0
H1168 H 0.27862 0.07624 0.35906 0.0
H1169 H 0.22603 0.97407 0.35812 0.0
H1170 H 0.28366 0.07275 0.37687 0.0
H1171 H 0.23339 0.96969 0.37614 0.0
H1172 H 0.21335 0.9901 0.41005 0.0
H1173 H 0.20911 0.98822 0.39194 0.0
H1174 H 0.31906 0.04933 0.39003 0.0
H1175 H 0.32228 0.052 0.408 0.0
C1176 C 0.26794 0.05288 0.36262 0.0
C1177 C 0.25124 0.02567 0.35697 0.0
C1178 C 0.27159 0.05061 0.37295 0.0
C1179 C 0.25927 0.02081 0.37815 0.0
C1180 C 0.24295 0.99328 0.37253 0.0
C1181 C 0.23912 0.99564 0.36211 0.0
C1182 C 0.23689 1.00274 0.40575 0.0
C1183 C 0.26794 0.02149 0.41056 0.0
C1184 C 0.23449 1.00168 0.3953 0.0
C1185 C 0.26329 0.01914 0.38933 0.0
C1186 C 0.2954 0.03643 0.39422 0.0
C1187 C 0.29751 0.03777 0.40461 0.0
H1188 H 0.97015 0.82041 0.6095 0.0
H1189 H 0.01014 0.71465 0.60732 0.0
H1190 H 0.97612 0.81776 0.62754 0.0
H1191 H 0.01737 0.71191 0.62536 0.0
H1192 H 0.97054 0.70604 0.65786 0.0
H1193 H 0.97647 0.70869 0.63982 0.0
H1194 H 0.01708 0.81459 0.64198 0.0
H1195 H 0.00988 0.81184 0.66002 0.0
C1196 C 0.98145 0.79688 0.61289 0.0
C1197 C 0.99042 0.76799 0.60695 0.0
C1198 C 0.9849 0.79526 0.62327 0.0
C1199 C 0.99721 0.76455 0.62808 0.0
C1200 C 0.00733 0.73594 0.62205 0.0
C1201 C 1.00384 0.73761 0.61166 0.0
C1202 C 0.9817 0.72958 0.65447 0.0
C1203 C 0.99048 0.75848 0.66041 0.0
C1204 C 0.98512 0.7312 0.64409 0.0
C1205 C 0.99722 0.76192 0.63927 0.0
C1206 C 0.00718 0.79055 0.6453 0.0
C1207 C 1.00372 0.78888 0.65569 0.0
H1208 H 0.28443 0.55228 0.85814 0.0
H1209 H 0.23219 0.44999 0.85912 0.0
H1210 H 0.27699 0.55677 0.87616 0.0
H1211 H 0.22703 0.45361 0.87693 0.0
H1212 H 0.18801 0.47465 0.90803 0.0
H1213 H 0.19137 0.47719 0.89006 0.0
H1214 H 0.30133 0.53828 0.89196 0.0
H1215 H 0.29698 0.5365 0.91008 0.0
C1216 C 0.2714 0.53071 0.86214 0.0
C1217 C 0.25939 0.50061 0.85701 0.0
C1218 C 0.26752 0.53313 0.87255 0.0
C1219 C 0.25125 0.50561 0.87819 0.0
C1220 C 0.23905 0.47575 0.873 0.0
C1221 C 0.24277 0.4734 0.86267 0.0
C1222 C 0.21282 0.48885 0.90464 0.0
C1223 C 0.24236 0.50514 0.91059 0.0
C1224 C 0.215 0.49012 0.89426 0.0
C1225 C 0.24715 0.50737 0.88936 0.0
C1226 C 0.27591 0.52485 0.89533 0.0
C1227 C 0.27346 0.52386 0.90577 0.0
H1228 H 0.50102 0.81157 0.10736 0.0
H1229 H 0.53994 0.70552 0.10947 0.0
H1230 H 0.4939 0.8143 0.1254 0.0
H1231 H 0.53405 0.70814 0.12751 0.0
H1232 H 0.50011 0.71426 0.16001 0.0
H1233 H 0.49303 0.71161 0.14197 0.0
H1234 H 0.53503 0.81712 0.13984 0.0
H1235 H 0.54087 0.81968 0.15789 0.0
C1236 C 0.5071 0.78856 0.11168 0.0
C1237 C 0.5202 0.7581 0.10695 0.0
C1238 C 0.50368 0.79022 0.12207 0.0
C1239 C 0.51353 0.76151 0.12808 0.0
C1240 C 0.52549 0.73072 0.12325 0.0
C1241 C 0.52889 0.72912 0.11287 0.0
C1242 C 0.50663 0.73716 0.15568 0.0
C1243 C 0.52021 0.76743 0.16041 0.0
C1244 C 0.50322 0.73554 0.14529 0.0
C1245 C 0.51357 0.76409 0.13928 0.0
C1246 C 0.52607 0.79468 0.1441 0.0
C1247 C 0.52946 0.79625 0.15449 0.0
H1248 H 0.68801 0.55164 0.85918 0.0
H1249 H 0.79724 0.48975 0.85717 0.0
H1250 H 0.69119 0.54911 0.87715 0.0
H1251 H 0.80144 0.488 0.87529 0.0
H1252 H 0.78447 0.47409 0.90911 0.0
H1253 H 0.7772 0.46958 0.89109 0.0
H1254 H 0.72645 0.57263 0.89031 0.0
H1255 H 0.73141 0.57624 0.90812 0.0
C1256 C 0.71284 0.53744 0.86259 0.0
C1257 C 0.7425 0.52113 0.85664 0.0
C1258 C 0.71492 0.53617 0.87297 0.0
C1259 C 0.7471 0.51892 0.87787 0.0
C1260 C 0.776 0.50143 0.87191 0.0
C1261 C 0.77363 0.50241 0.86147 0.0
C1262 C 0.7713 0.49563 0.9051 0.0
C1263 C 0.75901 0.52569 0.91023 0.0
C1264 C 0.76751 0.4932 0.89469 0.0
C1265 C 0.75109 0.52068 0.88905 0.0
C1266 C 0.73861 0.55052 0.89424 0.0
C1267 C 0.74222 0.55286 0.90457 0.0
H1268 H 0.50886 0.31154 0.16006 0.0
H1269 H 0.4696 0.20571 0.15795 0.0
H1270 H 0.51593 0.31422 0.14201 0.0
H1271 H 0.47551 0.20826 0.13991 0.0
H1272 H 0.50986 0.21421 0.10741 0.0
H1273 H 0.51683 0.21157 0.12546 0.0
H1274 H 0.47452 0.31713 0.12758 0.0
H1275 H 0.46872 0.31967 0.10953 0.0
C1276 C 0.5027 0.28856 0.15574 0.0
C1277 C 0.48952 0.25817 0.16047 0.0
C1278 C 0.5061 0.29019 0.14534 0.0
C1279 C 0.49616 0.26152 0.13934 0.0
C1280 C 0.48412 0.2308 0.14416 0.0
C1281 C 0.48072 0.22923 0.15455 0.0
C1282 C 0.50323 0.23712 0.11174 0.0
C1283 C 0.48958 0.2674 0.10701 0.0
C1284 C 0.50659 0.23551 0.12213 0.0
C1285 C 0.49614 0.26408 0.12814 0.0
C1286 C 0.48355 0.29468 0.12332 0.0
C1287 C 0.4802 0.29623 0.11293 0.0
H1288 H 0.7314 0.95011 0.35914 0.0
H1289 H 0.78412 0.05223 0.35818 0.0
H1290 H 0.72643 0.95364 0.37695 0.0
H1291 H 0.77684 0.05665 0.3762 0.0
H1292 H 0.79702 0.03622 0.4101 0.0
H1293 H 0.80119 0.03808 0.39199 0.0
H1294 H 0.69109 0.97715 0.39013 0.0
H1295 H 0.68793 0.97451 0.4081 0.0
C1296 C 0.74212 0.97347 0.3627 0.0
C1297 C 0.75883 1.00065 0.35704 0.0
C1298 C 0.73851 0.97577 0.37303 0.0
C1299 C 0.7509 1.00556 0.37822 0.0
C1300 C 0.76723 0.03306 0.37259 0.0
C1301 C 0.77102 0.03068 0.36218 0.0
C1302 C 0.77344 0.02362 0.40581 0.0
C1303 C 0.74236 1.00492 0.41064 0.0
C1304 C 0.77579 0.02466 0.39536 0.0
C1305 C 0.74693 1.00725 0.38941 0.0
C1306 C 0.71479 0.99002 0.39431 0.0
C1307 C 0.71273 0.98869 0.4047 0.0
H1308 H 1.00041 0.21454 0.65998 0.0
H1309 H 0.04156 0.31986 0.65788 0.0
H1310 H 0.99331 0.21197 0.64193 0.0
H1311 H 0.03563 0.31739 0.63983 0.0
H1312 H 1.00103 0.312 0.60737 0.0
H1313 H 0.99408 0.31465 0.62542 0.0
H1314 H 0.03458 0.20857 0.62747 0.0
H1315 H 0.04037 0.20605 0.60942 0.0
C1316 C 0.00701 0.23744 0.65565 0.0
C1317 C 0.02071 0.26765 0.66039 0.0
C1318 C 1.00358 0.23586 0.64526 0.0
C1319 C 0.01399 0.26441 0.63926 0.0
C1320 C 0.02662 0.29496 0.64409 0.0
C1321 C 0.03005 0.29647 0.65447 0.0
C1322 C 0.00723 0.28899 0.61168 0.0
C1323 C 0.0204 0.25858 0.60693 0.0
C1324 C 1.0039 0.2906 0.62207 0.0
C1325 C 0.01389 0.26188 0.62807 0.0
C1326 C 0.02592 0.23115 0.62322 0.0
C1327 C 0.02925 0.22959 0.61284 0.0
H1328 H 0.37327 0.08155 0.26797 0.0
H1329 H 0.27449 0.1551 0.26994 0.0
H1330 H 0.40243 0.11379 0.25419 0.0
H1331 H 0.30317 0.18701 0.25592 0.0
H1332 H 0.38588 0.25694 0.23687 0.0
H1333 H 0.358 0.22449 0.25094 0.0
H1334 H 0.39626 0.12909 0.23714 0.0
H1335 H 0.42429 0.1619 0.22316 0.0
C1336 C 0.35753 0.10458 0.26548 0.0
C1337 C 0.32132 0.1155 0.27025 0.0
C1338 C 0.37423 0.12307 0.25744 0.0
C1339 C 0.35563 0.15347 0.25382 0.0
C1340 C 0.31905 0.16415 0.25849 0.0
C1341 C 0.30214 0.14546 0.2665 0.0
C1342 C 0.38888 0.22905 0.23695 0.0
C1343 C 0.4078 0.21209 0.22893 0.0
C1344 C 0.37236 0.21027 0.24497 0.0
C1345 C 0.37431 0.17379 0.24529 0.0
C1346 C 0.39426 0.15701 0.23733 0.0
C1347 C 0.41053 0.17583 0.22928 0.0
H1348 H 0.77546 0.8705 0.49736 0.0
H1349 H 0.87415 0.94384 0.4992 0.0
H1350 H 0.80415 0.83877 0.51142 0.0
H1351 H 0.90331 0.91178 0.51302 0.0
H1352 H 0.92505 0.86422 0.54413 0.0
H1353 H 0.89704 0.89683 0.53011 0.0
H1354 H 0.85906 0.80125 0.51645 0.0
H1355 H 0.88692 0.76901 0.53056 0.0
C1356 C 0.80309 0.88013 0.50078 0.0
C1357 C 0.82225 0.90997 0.49698 0.0
C1358 C 0.82001 0.86154 0.50882 0.0
C1359 C 0.85656 0.87222 0.51346 0.0
C1360 C 0.87514 0.90251 0.5098 0.0
C1361 C 0.85844 0.92089 0.50173 0.0
C1362 C 0.91135 0.85021 0.53804 0.0
C1363 C 0.9087 0.81396 0.53844 0.0
C1364 C 0.8951 0.86891 0.52996 0.0
C1365 C 0.87523 0.85202 0.52202 0.0
C1366 C 0.87335 0.81555 0.5224 0.0
C1367 C 0.88985 0.79689 0.53045 0.0
H1368 H 0.08681 0.27544 0.73948 0.0
H1369 H 0.12332 0.35845 0.72024 0.0
H1370 H 0.11494 0.30649 0.75371 0.0
H1371 H 0.15129 0.38995 0.73442 0.0
H1372 H 0.23305 0.4244 0.76041 0.0
H1373 H 0.20497 0.39294 0.74624 0.0
H1374 H 0.10868 0.35312 0.76481 0.0
H1375 H 0.13749 0.3832 0.77894 0.0
C1376 C 0.09981 0.30082 0.73832 0.0
C1377 C 0.1016 0.31478 0.7287 0.0
C1378 C 0.11634 0.31873 0.74651 0.0
C1379 C 0.1357 0.35117 0.74538 0.0
C1380 C 0.1373 0.36504 0.73572 0.0
C1381 C 0.12071 0.34714 0.72755 0.0
C1382 C 0.20613 0.40869 0.76152 0.0
C1383 C 0.18768 0.40698 0.77096 0.0
C1384 C 0.18955 0.39081 0.7533 0.0
C1385 C 0.15403 0.37026 0.7542 0.0
C1386 C 0.13609 0.36819 0.76368 0.0
C1387 C 0.15252 0.38606 0.77185 0.0
H1388 H 0.73508 0.65508 0.99732 0.0
H1389 H 0.63673 0.58145 0.99927 0.0
H1390 H 0.7063 0.68689 1.01137 0.0
H1391 H 0.60749 0.61357 1.01309 0.0
H1392 H 0.5858 0.66138 0.04419 0.0
H1393 H 0.61386 0.62871 0.03017 0.0
H1394 H 0.65119 0.72428 1.0164 0.0
H1395 H 0.62327 0.75658 0.03051 0.0
C1396 C 0.70751 0.6454 1.00076 0.0
C1397 C 0.68847 0.61546 0.997 0.0
C1398 C 0.69055 0.66403 1.00879 0.0
C1399 C 0.65406 0.65328 1.01347 0.0
C1400 C 0.63561 0.62289 1.00984 0.0
C1401 C 0.65236 0.60447 1.00178 0.0
C1402 C 0.59935 0.67538 0.03807 0.0
C1403 C 0.60179 0.71164 0.03843 0.0
C1404 C 0.61564 0.65664 0.02999 0.0
C1405 C 0.63533 0.67352 1.02202 0.0
C1406 C 0.63702 0.71 1.02237 0.0
C1407 C 0.62047 0.72869 0.03041 0.0
H1408 H 0.42418 0.27513 0.02788 0.0
H1409 H 0.38735 0.35837 0.04707 0.0
H1410 H 0.39616 0.30616 1.01363 0.0
H1411 H 0.35946 0.38982 0.03286 0.0
H1412 H 0.27778 0.42413 1.00682 0.0
H1413 H 0.30583 0.39272 1.02101 0.0
H1414 H 0.40249 0.35279 1.00251 0.0
H1415 H 0.37373 0.38285 0.98836 0.0
C1416 C 0.41113 0.30056 0.02902 0.0
C1417 C 0.40922 0.31459 0.03864 0.0
C1418 C 0.39466 0.31845 1.02082 0.0
C1419 C 0.37523 0.35093 1.02192 0.0
C1420 C 0.37351 0.36488 0.03158 0.0
C1421 C 0.39005 0.347 0.03977 0.0
C1422 C 0.30478 0.40841 1.00573 0.0
C1423 C 0.32335 0.40666 0.99631 0.0
C1424 C 0.32133 0.39056 1.01396 0.0
C1425 C 0.35694 0.36999 1.01309 0.0
C1426 C 0.37501 0.36788 1.00362 0.0
C1427 C 0.3586 0.38573 0.99544 0.0
H1428 H 0.73234 0.92462 0.26042 0.0
H1429 H 0.63676 0.88353 0.27897 0.0
H1430 H 0.7042 0.89313 0.24626 0.0
H1431 H 0.60793 0.85338 0.26485 0.0
H1432 H 0.5863 0.77553 0.23952 0.0
H1433 H 0.61435 0.80665 0.25374 0.0
H1434 H 0.65035 0.89023 0.23446 0.0
H1435 H 0.62241 0.85869 0.22028 0.0
C1436 C 0.7054 0.90892 0.26154 0.0
C1437 C 0.68696 0.90725 0.27097 0.0
C1438 C 0.6888 0.89103 0.25333 0.0
C1439 C 0.65327 0.87049 0.25423 0.0
C1440 C 0.63534 0.86845 0.26371 0.0
C1441 C 0.65179 0.88635 0.27187 0.0
C1442 C 0.59919 0.80096 0.23835 0.0
C1443 C 0.60089 0.81494 0.22874 0.0
C1444 C 0.61568 0.8189 0.24654 0.0
C1445 C 0.63494 0.85139 0.24542 0.0
C1446 C 0.63643 0.86528 0.23575 0.0
C1447 C 0.61986 0.84736 0.22759 0.0
H1448 H 0.1365 0.08252 0.49921 0.0
H1449 H 0.23496 0.15606 0.49727 0.0
H1450 H 0.10732 0.11464 0.51303 0.0
H1451 H 0.20626 0.18785 0.51133 0.0
H1452 H 0.12339 0.2576 0.53048 0.0
H1453 H 0.15127 0.22529 0.51637 0.0
H1454 H 0.11365 0.12975 0.53011 0.0
H1455 H 0.08562 0.16242 0.54413 0.0
C1456 C 0.15216 0.10553 0.50172 0.0
C1457 C 0.18829 0.11648 0.49694 0.0
C1458 C 0.13545 0.12394 0.50979 0.0
C1459 C 0.15396 0.1543 0.51342 0.0
C1460 C 0.19046 0.16502 0.50875 0.0
C1461 C 0.20738 0.1464 0.50071 0.0
C1462 C 0.12054 0.22971 0.53039 0.0
C1463 C 0.1018 0.21267 0.5384 0.0
C1464 C 0.13705 0.21101 0.52234 0.0
C1465 C 0.13528 0.17454 0.52198 0.0
C1466 C 0.11551 0.15767 0.52994 0.0
C1467 C 0.09924 0.17641 0.53802 0.0
H1468 H 0.92498 0.66188 0.72315 0.0
H1469 H 0.88718 0.75711 0.73684 0.0
H1470 H 0.89699 0.62924 0.73716 0.0
H1471 H 0.85933 0.72483 0.75094 0.0
H1472 H 0.77565 0.65572 0.77 0.0
H1473 H 0.80436 0.68751 0.75597 0.0
H1474 H 0.90334 0.61405 0.75423 0.0
H1475 H 0.87417 0.58193 0.76803 0.0
C1476 C 0.91137 0.67589 0.72927 0.0
C1477 C 0.90881 0.71216 0.72891 0.0
C1478 C 0.89512 0.65716 0.73734 0.0
C1479 C 0.87535 0.67405 0.74531 0.0
C1480 C 0.87356 0.71054 0.74497 0.0
C1481 C 0.89006 0.72922 0.73693 0.0
C1482 C 0.80324 0.64601 0.76656 0.0
C1483 C 0.82234 0.61602 0.77031 0.0
C1484 C 0.82017 0.66462 0.75854 0.0
C1485 C 0.85668 0.65383 0.75386 0.0
C1486 C 0.8752 0.62341 0.75748 0.0
C1487 C 0.85849 0.60499 0.76553 0.0
loop_
_geom_bond_atom_site_label_1
_geom_bond_atom_site_label_2
_geom_bond_distance
_geom_bond_site_symmetry_2
_ccdc_geom_bond_type
C0 C1 1.443 . S
C0 N4 1.376 . S
C0 C38 1.389 . S
C1 C0 1.443 . S
C1 C2 1.340 . S
C1 H41 0.951 . S
C2 C1 1.340 . S
C2 C3 1.439 . S
C2 H42 0.950 . S
C3 C2 1.439 . S
C3 N4 1.374 . S
C3 C37 1.395 . S
N4 C0 1.376 . S
N4 C3 1.374 . S
N4 Co5 2.008 . S
Co5 N4 2.008 . S
Co5 N6 1.995 . S
Co5 N11 2.008 . S
Co5 N16 1.995 . S
Co5 N21 2.282 . S
Co5 N27 2.282 . S
N6 Co5 1.995 . S
N6 C7 1.376 . S
N6 C10 1.383 . S
C7 N6 1.376 . S
C7 C8 1.446 . S
C7 C37 1.391 . S
C8 C7 1.446 . S
C8 C9 1.339 . S
C8 H43 0.949 . S
C9 C8 1.339 . S
C9 C10 1.439 . S
C9 H44 0.950 . S
C10 N6 1.383 . S
C10 C9 1.439 . S
C10 C39 1.392 . S
N11 Co5 2.008 . S
N11 C12 1.376 . S
N11 C15 1.374 1_545 S
C12 N11 1.376 . S
C12 C13 1.443 1_545 S
C12 C39 1.389 . S
C13 C12 1.443 1_565 S
C13 C14 1.340 . S
C13 H45 0.951 . S
C14 C13 1.340 . S
C14 C15 1.439 . S
C14 H46 0.950 . S
C15 N11 1.374 1_565 S
C15 C14 1.439 . S
C15 C40 1.395 . S
N16 Co5 1.995 . S
N16 C17 1.376 1_545 S
N16 C20 1.383 . S
C17 N16 1.376 1_565 S
C17 C18 1.446 . S
C17 C40 1.391 . S
C18 C17 1.446 . S
C18 C19 1.339 . S
C18 H47 0.949 . S
C19 C18 1.339 . S
C19 C20 1.439 1_565 S
C19 H48 0.950 . S
C20 N16 1.383 . S
C20 C19 1.439 1_545 S
C20 C38 1.392 . S
N21 Co5 2.282 . S
N21 C24 1.332 . S
N21 C26 1.332 . S
C22 C23 1.386 . S
C22 C25 1.388 . S
C23 C22 1.386 . S
C23 C24 1.382 . S
C23 H49 0.950 1_545 S
C24 N21 1.332 . S
C24 C23 1.382 . S
C24 H35 0.952 1_545 S
C25 C22 1.388 . S
C25 C26 1.382 . S
C25 H50 0.950 . S
C26 N21 1.332 . S
C26 C25 1.382 . S
C26 H36 0.948 . S
N27 Co5 2.282 . S
N27 C31 1.332 . S
N27 C32 1.332 . S
C28 C29 1.388 . S
C28 C32 1.382 . S
C28 H51 0.950 . S
C29 C28 1.388 . S
C29 C30 1.386 . S
C30 C29 1.386 . S
C30 C31 1.382 . S
C30 H52 0.950 . S
C31 N27 1.332 . S
C31 C30 1.382 . S
C31 H33 0.952 . S
C32 N27 1.332 . S
C32 C28 1.382 . S
C32 H34 0.948 . S
H33 C31 0.952 . S
H34 C32 0.948 . S
H35 C24 0.952 1_565 S
H36 C26 0.948 . S
C37 C3 1.395 . S
C37 C7 1.391 . S
C38 C0 1.389 . S
C38 C20 1.392 . S
C39 C10 1.392 . S
C39 C12 1.389 . S
C40 C15 1.395 . S
C40 C17 1.391 . S
H41 C1 0.951 . S
H42 C2 0.950 . S
H43 C8 0.949 . S
H44 C9 0.950 . S
H45 C13 0.951 . S
H46 C14 0.950 . S
H47 C18 0.949 . S
H48 C19 0.950 . S
H49 C23 0.950 1_565 S
H50 C25 0.950 . S
H51 C28 0.950 . S
H52 C30 0.950 . S
C53 C54 1.443 1_655 S
C53 N57 1.376 . S
C53 C91 1.389 . S
C54 C53 1.443 1_455 S
C54 C55 1.340 . S
C54 H94 0.951 . S
C55 C54 1.340 . S
C55 C56 1.439 . S
C55 H95 0.950 . S
C56 C55 1.439 . S
C56 N57 1.374 1_455 S
C56 C90 1.395 . S
N57 C53 1.376 . S
N57 C56 1.374 1_655 S
N57 Co58 2.008 . S
Co58 N57 2.008 . S
Co58 N59 1.995 1_655 S
Co58 N64 2.008 . S
Co58 N69 1.995 . S
Co58 N74 2.282 . S
Co58 N80 2.282 . S
N59 Co58 1.995 1_455 S
N59 C60 1.376 . S
N59 C63 1.383 . S
C60 N59 1.376 . S
C60 C61 1.446 . S
C60 C90 1.391 . S
C61 C60 1.446 . S
C61 C62 1.339 . S
C61 H96 0.949 . S
C62 C61 1.339 . S
C62 C63 1.439 . S
C62 H97 0.950 . S
C63 N59 1.383 . S
C63 C62 1.439 . S
C63 C92 1.392 1_455 S
N64 Co58 2.008 . S
N64 C65 1.376 . S
N64 C68 1.374 . S
C65 N64 1.376 . S
C65 C66 1.443 . S
C65 C92 1.389 . S
C66 C65 1.443 . S
C66 C67 1.340 . S
C66 H98 0.951 . S
C67 C66 1.340 . S
C67 C68 1.439 . S
C67 H99 0.950 . S
C68 N64 1.374 . S
C68 C67 1.439 . S
C68 C93 1.395 . S
N69 Co58 1.995 . S
N69 C70 1.376 . S
N69 C73 1.383 . S
C70 N69 1.376 . S
C70 C71 1.446 . S
C70 C93 1.391 . S
C71 C70 1.446 . S
C71 C72 1.339 . S
C71 H100 0.949 . S
C72 C71 1.339 . S
C72 C73 1.439 . S
C72 H101 0.950 . S
C73 N69 1.383 . S
C73 C72 1.439 . S
C73 C91 1.392 . S
N74 Co58 2.282 . S
N74 C77 1.332 . S
N74 C79 1.332 . S
C75 C76 1.386 . S
C75 C78 1.388 . S
C76 C75 1.386 . S
C76 C77 1.382 . S
C76 H102 0.950 . S
C77 N74 1.332 . S
C77 C76 1.382 . S
C77 H88 0.952 . S
C78 C75 1.388 . S
C78 C79 1.382 . S
C78 H103 0.950 1_655 S
C79 N74 1.332 . S
C79 C78 1.382 . S
C79 H89 0.948 1_655 S
N80 Co58 2.282 . S
N80 C84 1.332 . S
N80 C85 1.332 . S
C81 C82 1.388 . S
C81 C85 1.382 . S
C81 H104 0.950 . S
C82 C81 1.388 . S
C82 C83 1.386 . S
C83 C82 1.386 . S
C83 C84 1.382 . S
C83 H105 0.950 1_655 S
C84 N80 1.332 . S
C84 C83 1.382 . S
C84 H86 0.952 1_655 S
C85 N80 1.332 . S
C85 C81 1.382 . S
C85 H87 0.948 . S
H86 C84 0.952 1_455 S
H87 C85 0.948 . S
H88 C77 0.952 . S
H89 C79 0.948 1_455 S
C90 C56 1.395 . S
C90 C60 1.391 . S
C91 C53 1.389 . S
C91 C73 1.392 . S
C92 C63 1.392 1_655 S
C92 C65 1.389 . S
C93 C68 1.395 . S
C93 C70 1.391 . S
H94 C54 0.951 . S
H95 C55 0.950 . S
H96 C61 0.949 . S
H97 C62 0.950 . S
H98 C66 0.951 . S
H99 C67 0.950 . S
H100 C71 0.949 . S
H101 C72 0.950 . S
H102 C76 0.950 . S
H103 C78 0.950 1_455 S
H104 C81 0.950 . S
H105 C83 0.950 1_455 S
C106 C107 1.443 . S
C106 N110 1.376 . S
C106 C144 1.389 . S
C107 C106 1.443 . S
C107 C108 1.340 . S
C107 H147 0.951 . S
C108 C107 1.340 . S
C108 C109 1.439 . S
C108 H148 0.950 . S
C109 C108 1.439 . S
C109 N110 1.374 . S
C109 C143 1.395 . S
N110 C106 1.376 . S
N110 C109 1.374 . S
N110 Co111 2.008 . S
Co111 N110 2.008 . S
Co111 N112 1.995 . S
Co111 N117 2.008 . S
Co111 N122 1.995 . S
Co111 N127 2.282 . S
Co111 N133 2.282 . S
N112 Co111 1.995 . S
N112 C113 1.376 . S
N112 C116 1.383 . S
C113 N112 1.376 . S
C113 C114 1.446 . S
C113 C143 1.391 . S
C114 C113 1.446 . S
C114 C115 1.339 . S
C114 H149 0.949 . S
C115 C114 1.339 . S
C115 C116 1.439 . S
C115 H150 0.950 . S
C116 N112 1.383 . S
C116 C115 1.439 . S
C116 C145 1.392 . S
N117 Co111 2.008 . S
N117 C118 1.376 . S
N117 C121 1.374 . S
C118 N117 1.376 . S
C118 C119 1.443 . S
C118 C145 1.389 . S
C119 C118 1.443 . S
C119 C120 1.340 . S
C119 H151 0.951 . S
C120 C119 1.340 . S
C120 C121 1.439 . S
C120 H152 0.950 . S
C121 N117 1.374 . S
C121 C120 1.439 . S
C121 C146 1.395 . S
N122 Co111 1.995 . S
N122 C123 1.376 . S
N122 C126 1.383 . S
C123 N122 1.376 . S
C123 C124 1.446 . S
C123 C146 1.391 . S
C124 C123 1.446 . S
C124 C125 1.339 . S
C124 H153 0.949 . S
C125 C124 1.339 . S
C125 C126 1.439 . S
C125 H154 0.950 . S
C126 N122 1.383 . S
C126 C125 1.439 . S
C126 C144 1.392 . S
N127 Co111 2.282 . S
N127 C130 1.332 . S
N127 C132 1.332 . S
C128 C129 1.386 . S
C128 C131 1.388 . S
C129 C128 1.386 . S
C129 C130 1.382 . S
C129 H155 0.950 . S
C130 N127 1.332 . S
C130 C129 1.382 . S
C130 H141 0.952 . S
C131 C128 1.388 . S
C131 C132 1.382 . S
C131 H156 0.950 . S
C132 N127 1.332 . S
C132 C131 1.382 . S
C132 H142 0.948 . S
N133 Co111 2.282 . S
N133 C137 1.332 . S
N133 C138 1.332 . S
C134 C135 1.388 . S
C134 C138 1.382 . S
C134 H157 0.950 . S
C135 C134 1.388 . S
C135 C136 1.386 . S
C136 C135 1.386 . S
C136 C137 1.382 . S
C136 H158 0.950 . S
C137 N133 1.332 . S
C137 C136 1.382 . S
C137 H139 0.952 . S
C138 N133 1.332 . S
C138 C134 1.382 . S
C138 H140 0.948 . S
H139 C137 0.952 . S
H140 C138 0.948 . S
H141 C130 0.952 . S
H142 C132 0.948 . S
C143 C109 1.395 . S
C143 C113 1.391 . S
C144 C106 1.389 . S
C144 C126 1.392 . S
C145 C116 1.392 . S
C145 C118 1.389 . S
C146 C121 1.395 . S
C146 C123 1.391 . S
H147 C107 0.951 . S
H148 C108 0.950 . S
H149 C114 0.949 . S
H150 C115 0.950 . S
H151 C119 0.951 . S
H152 C120 0.950 . S
H153 C124 0.949 . S
H154 C125 0.950 . S
H155 C129 0.950 . S
H156 C131 0.950 . S
H157 C134 0.950 . S
H158 C136 0.950 . S
C159 C160 1.443 . S
C159 N163 1.376 . S
C159 C197 1.389 . S
C160 C159 1.443 . S
C160 C161 1.340 . S
C160 H200 0.951 . S
C161 C160 1.340 . S
C161 C162 1.439 . S
C161 H201 0.950 . S
C162 C161 1.439 . S
C162 N163 1.374 . S
C162 C196 1.395 . S
N163 C159 1.376 . S
N163 C162 1.374 . S
N163 Co164 2.008 . S
Co164 N163 2.008 . S
Co164 N165 1.995 . S
Co164 N170 2.008 . S
Co164 N175 1.995 . S
Co164 N180 2.282 . S
Co164 N186 2.282 . S
N165 Co164 1.995 . S
N165 C166 1.376 . S
N165 C169 1.383 . S
C166 N165 1.376 . S
C166 C167 1.446 . S
C166 C196 1.391 . S
C167 C166 1.446 . S
C167 C168 1.339 . S
C167 H202 0.949 . S
C168 C167 1.339 . S
C168 C169 1.439 . S
C168 H203 0.950 . S
C169 N165 1.383 . S
C169 C168 1.439 . S
C169 C198 1.392 . S
N170 Co164 2.008 . S
N170 C171 1.376 . S
N170 C174 1.374 . S
C171 N170 1.376 . S
C171 C172 1.443 . S
C171 C198 1.389 . S
C172 C171 1.443 . S
C172 C173 1.340 . S
C172 H204 0.951 . S
C173 C172 1.340 . S
C173 C174 1.439 . S
C173 H205 0.950 . S
C174 N170 1.374 . S
C174 C173 1.439 . S
C174 C199 1.395 . S
N175 Co164 1.995 . S
N175 C176 1.376 . S
N175 C179 1.383 . S
C176 N175 1.376 . S
C176 C177 1.446 . S
C176 C199 1.391 . S
C177 C176 1.446 . S
C177 C178 1.339 . S
C177 H206 0.949 . S
C178 C177 1.339 . S
C178 C179 1.439 . S
C178 H207 0.950 . S
C179 N175 1.383 . S
C179 C178 1.439 . S
C179 C197 1.392 . S
N180 Co164 2.282 . S
N180 C183 1.332 . S
N180 C185 1.332 . S
C181 C182 1.386 . S
C181 C184 1.388 . S
C182 C181 1.386 . S
C182 C183 1.382 . S
C182 H208 0.950 . S
C183 N180 1.332 . S
C183 C182 1.382 . S
C183 H194 0.952 . S
C184 C181 1.388 . S
C184 C185 1.382 . S
C184 H209 0.950 . S
C185 N180 1.332 . S
C185 C184 1.382 . S
C185 H195 0.948 . S
N186 Co164 2.282 . S
N186 C190 1.332 . S
N186 C191 1.332 . S
C187 C188 1.388 . S
C187 C191 1.382 . S
C187 H210 0.950 . S
C188 C187 1.388 . S
C188 C189 1.386 . S
C189 C188 1.386 . S
C189 C190 1.382 . S
C189 H211 0.950 . S
C190 N186 1.332 . S
C190 C189 1.382 . S
C190 H192 0.952 . S
C191 N186 1.332 . S
C191 C187 1.382 . S
C191 H193 0.948 . S
H192 C190 0.952 . S
H193 C191 0.948 . S
H194 C183 0.952 . S
H195 C185 0.948 . S
C196 C162 1.395 . S
C196 C166 1.391 . S
C197 C159 1.389 . S
C197 C179 1.392 . S
C198 C169 1.392 . S
C198 C171 1.389 . S
C199 C174 1.395 . S
C199 C176 1.391 . S
H200 C160 0.951 . S
H201 C161 0.950 . S
H202 C167 0.949 . S
H203 C168 0.950 . S
H204 C172 0.951 . S
H205 C173 0.950 . S
H206 C177 0.949 . S
H207 C178 0.950 . S
H208 C182 0.950 . S
H209 C184 0.950 . S
H210 C187 0.950 . S
H211 C189 0.950 . S
C212 C213 1.443 . S
C212 N216 1.376 . S
C212 C250 1.389 . S
C213 C212 1.443 . S
C213 C214 1.340 . S
C213 H253 0.951 . S
C214 C213 1.340 . S
C214 C215 1.439 . S
C214 H254 0.950 . S
C215 C214 1.439 . S
C215 N216 1.374 . S
C215 C249 1.395 . S
N216 C212 1.376 . S
N216 C215 1.374 . S
N216 Co217 2.008 . S
Co217 N216 2.008 . S
Co217 N218 1.995 . S
Co217 N223 2.008 . S
Co217 N228 1.995 . S
Co217 N233 2.282 . S
Co217 N239 2.282 . S
N218 Co217 1.995 . S
N218 C219 1.376 . S
N218 C222 1.383 . S
C219 N218 1.376 . S
C219 C220 1.446 . S
C219 C249 1.391 . S
C220 C219 1.446 . S
C220 C221 1.339 . S
C220 H255 0.949 . S
C221 C220 1.339 . S
C221 C222 1.439 . S
C221 H256 0.950 . S
C222 N218 1.383 . S
C222 C221 1.439 . S
C222 C251 1.392 . S
N223 Co217 2.008 . S
N223 C224 1.376 . S
N223 C227 1.374 . S
C224 N223 1.376 . S
C224 C225 1.443 . S
C224 C251 1.389 . S
C225 C224 1.443 . S
C225 C226 1.340 . S
C225 H257 0.951 . S
C226 C225 1.340 . S
C226 C227 1.439 . S
C226 H258 0.950 . S
C227 N223 1.374 . S
C227 C226 1.439 . S
C227 C252 1.395 . S
N228 Co217 1.995 . S
N228 C229 1.376 . S
N228 C232 1.383 . S
C229 N228 1.376 . S
C229 C230 1.446 . S
C229 C252 1.391 . S
C230 C229 1.446 . S
C230 C231 1.339 . S
C230 H259 0.949 . S
C231 C230 1.339 . S
C231 C232 1.439 . S
C231 H260 0.950 . S
C232 N228 1.383 . S
C232 C231 1.439 . S
C232 C250 1.392 . S
N233 Co217 2.282 . S
N233 C236 1.332 . S
N233 C238 1.332 . S
C234 C235 1.386 . S
C234 C237 1.388 . S
C235 C234 1.386 . S
C235 C236 1.382 . S
C235 H261 0.950 . S
C236 N233 1.332 . S
C236 C235 1.382 . S
C236 H247 0.952 . S
C237 C234 1.388 . S
C237 C238 1.382 . S
C237 H262 0.950 . S
C238 N233 1.332 . S
C238 C237 1.382 . S
C238 H248 0.948 . S
N239 Co217 2.282 . S
N239 C243 1.332 . S
N239 C244 1.332 . S
C240 C241 1.388 . S
C240 C244 1.382 . S
C240 H263 0.950 . S
C241 C240 1.388 . S
C241 C242 1.386 . S
C242 C241 1.386 . S
C242 C243 1.382 . S
C242 H264 0.950 . S
C243 N239 1.332 . S
C243 C242 1.382 . S
C243 H245 0.952 . S
C244 N239 1.332 . S
C244 C240 1.382 . S
C244 H246 0.948 . S
H245 C243 0.952 . S
H246 C244 0.948 . S
H247 C236 0.952 . S
H248 C238 0.948 . S
C249 C215 1.395 . S
C249 C219 1.391 . S
C250 C212 1.389 . S
C250 C232 1.392 . S
C251 C222 1.392 . S
C251 C224 1.389 . S
C252 C227 1.395 . S
C252 C229 1.391 . S
H253 C213 0.951 . S
H254 C214 0.950 . S
H255 C220 0.949 . S
H256 C221 0.950 . S
H257 C225 0.951 . S
H258 C226 0.950 . S
H259 C230 0.949 . S
H260 C231 0.950 . S
H261 C235 0.950 . S
H262 C237 0.950 . S
H263 C240 0.950 . S
H264 C242 0.950 . S
C265 C266 1.443 . S
C265 N269 1.376 . S
C265 C303 1.389 . S
C266 C265 1.443 . S
C266 C267 1.340 . S
C266 H306 0.951 . S
C267 C266 1.340 . S
C267 C268 1.439 . S
C267 H307 0.950 . S
C268 C267 1.439 . S
C268 N269 1.374 . S
C268 C302 1.395 . S
N269 C265 1.376 . S
N269 C268 1.374 . S
N269 Co270 2.008 . S
Co270 N269 2.008 . S
Co270 N271 1.995 . S
Co270 N276 2.008 . S
Co270 N281 1.995 . S
Co270 N286 2.282 . S
Co270 N292 2.282 . S
N271 Co270 1.995 . S
N271 C272 1.376 . S
N271 C275 1.383 . S
C272 N271 1.376 . S
C272 C273 1.446 . S
C272 C302 1.391 . S
C273 C272 1.446 . S
C273 C274 1.339 . S
C273 H308 0.949 . S
C274 C273 1.339 . S
C274 C275 1.439 . S
C274 H309 0.950 . S
C275 N271 1.383 . S
C275 C274 1.439 . S
C275 C304 1.392 . S
N276 Co270 2.008 . S
N276 C277 1.376 . S
N276 C280 1.374 . S
C277 N276 1.376 . S
C277 C278 1.443 . S
C277 C304 1.389 . S
C278 C277 1.443 . S
C278 C279 1.340 . S
C278 H310 0.951 . S
C279 C278 1.340 . S
C279 C280 1.439 . S
C279 H311 0.950 . S
C280 N276 1.374 . S
C280 C279 1.439 . S
C280 C305 1.395 . S
N281 Co270 1.995 . S
N281 C282 1.376 . S
N281 C285 1.383 . S
C282 N281 1.376 . S
C282 C283 1.446 . S
C282 C305 1.391 . S
C283 C282 1.446 . S
C283 C284 1.339 . S
C283 H312 0.949 . S
C284 C283 1.339 . S
C284 C285 1.439 . S
C284 H313 0.950 . S
C285 N281 1.383 . S
C285 C284 1.439 . S
C285 C303 1.392 . S
N286 Co270 2.282 . S
N286 C289 1.332 . S
N286 C291 1.332 . S
C287 C288 1.386 . S
C287 C290 1.388 . S
C288 C287 1.386 . S
C288 C289 1.382 . S
C288 H314 0.950 . S
C289 N286 1.332 . S
C289 C288 1.382 . S
C289 H300 0.952 . S
C290 C287 1.388 . S
C290 C291 1.382 . S
C290 H315 0.950 . S
C291 N286 1.332 . S
C291 C290 1.382 . S
C291 H301 0.948 . S
N292 Co270 2.282 . S
N292 C296 1.332 . S
N292 C297 1.332 . S
C293 C294 1.388 . S
C293 C297 1.382 . S
C293 H316 0.950 . S
C294 C293 1.388 . S
C294 C295 1.386 . S
C295 C294 1.386 . S
C295 C296 1.382 . S
C295 H317 0.950 . S
C296 N292 1.332 . S
C296 C295 1.382 . S
C296 H298 0.952 . S
C297 N292 1.332 . S
C297 C293 1.382 . S
C297 H299 0.948 . S
H298 C296 0.952 . S
H299 C297 0.948 . S
H300 C289 0.952 . S
H301 C291 0.948 . S
C302 C268 1.395 . S
C302 C272 1.391 . S
C303 C265 1.389 . S
C303 C285 1.392 . S
C304 C275 1.392 . S
C304 C277 1.389 . S
C305 C280 1.395 . S
C305 C282 1.391 . S
H306 C266 0.951 . S
H307 C267 0.950 . S
H308 C273 0.949 . S
H309 C274 0.950 . S
H310 C278 0.951 . S
H311 C279 0.950 . S
H312 C283 0.949 . S
H313 C284 0.950 . S
H314 C288 0.950 . S
H315 C290 0.950 . S
H316 C293 0.950 . S
H317 C295 0.950 . S
C318 C319 1.443 . S
C318 N322 1.376 . S
C318 C356 1.389 . S
C319 C318 1.443 . S
C319 C320 1.340 . S
C319 H359 0.951 . S
C320 C319 1.340 . S
C320 C321 1.439 . S
C320 H360 0.950 . S
C321 C320 1.439 . S
C321 N322 1.374 . S
C321 C355 1.395 . S
N322 C318 1.376 . S
N322 C321 1.374 . S
N322 Co323 2.008 . S
Co323 N322 2.008 . S
Co323 N324 1.995 . S
Co323 N329 2.008 . S
Co323 N334 1.995 . S
Co323 N339 2.282 . S
Co323 N345 2.282 . S
N324 Co323 1.995 . S
N324 C325 1.376 . S
N324 C328 1.383 . S
C325 N324 1.376 . S
C325 C326 1.446 . S
C325 C355 1.391 . S
C326 C325 1.446 . S
C326 C327 1.339 . S
C326 H361 0.949 . S
C327 C326 1.339 . S
C327 C328 1.439 . S
C327 H362 0.950 . S
C328 N324 1.383 . S
C328 C327 1.439 . S
C328 C357 1.392 . S
N329 Co323 2.008 . S
N329 C330 1.376 . S
N329 C333 1.374 1_545 S
C330 N329 1.376 . S
C330 C331 1.443 1_545 S
C330 C357 1.389 . S
C331 C330 1.443 1_565 S
C331 C332 1.340 . S
C331 H363 0.951 . S
C332 C331 1.340 . S
C332 C333 1.439 . S
C332 H364 0.950 . S
C333 N329 1.374 1_565 S
C333 C332 1.439 . S
C333 C358 1.395 . S
N334 Co323 1.995 . S
N334 C335 1.376 1_545 S
N334 C338 1.383 . S
C335 N334 1.376 1_565 S
C335 C336 1.446 . S
C335 C358 1.391 . S
C336 C335 1.446 . S
C336 C337 1.339 . S
C336 H365 0.949 . S
C337 C336 1.339 . S
C337 C338 1.439 1_565 S
C337 H366 0.950 . S
C338 N334 1.383 . S
C338 C337 1.439 1_545 S
C338 C356 1.392 . S
N339 Co323 2.282 . S
N339 C342 1.332 . S
N339 C344 1.332 . S
C340 C341 1.386 . S
C340 C343 1.388 . S
C341 C340 1.386 . S
C341 C342 1.382 . S
C341 H367 0.950 1_545 S
C342 N339 1.332 . S
C342 C341 1.382 . S
C342 H353 0.952 1_545 S
C343 C340 1.388 . S
C343 C344 1.382 . S
C343 H368 0.950 . S
C344 N339 1.332 . S
C344 C343 1.382 . S
C344 H354 0.948 . S
N345 Co323 2.282 . S
N345 C349 1.332 . S
N345 C350 1.332 . S
C346 C347 1.388 . S
C346 C350 1.382 . S
C346 H369 0.950 . S
C347 C346 1.388 . S
C347 C348 1.386 . S
C348 C347 1.386 . S
C348 C349 1.382 . S
C348 H370 0.950 . S
C349 N345 1.332 . S
C349 C348 1.382 . S
C349 H351 0.952 . S
C350 N345 1.332 . S
C350 C346 1.382 . S
C350 H352 0.948 . S
H351 C349 0.952 . S
H352 C350 0.948 . S
H353 C342 0.952 1_565 S
H354 C344 0.948 . S
C355 C321 1.395 . S
C355 C325 1.391 . S
C356 C318 1.389 . S
C356 C338 1.392 . S
C357 C328 1.392 . S
C357 C330 1.389 . S
C358 C333 1.395 . S
C358 C335 1.391 . S
H359 C319 0.951 . S
H360 C320 0.950 . S
H361 C326 0.949 . S
H362 C327 0.950 . S
H363 C331 0.951 . S
H364 C332 0.950 . S
H365 C336 0.949 . S
H366 C337 0.950 . S
H367 C341 0.950 1_565 S
H368 C343 0.950 . S
H369 C346 0.950 . S
H370 C348 0.950 . S
C371 C372 1.443 1_655 S
C371 N375 1.376 . S
C371 C409 1.389 . S
C372 C371 1.443 1_455 S
C372 C373 1.340 . S
C372 H412 0.951 . S
C373 C372 1.340 . S
C373 C374 1.439 . S
C373 H413 0.950 . S
C374 C373 1.439 . S
C374 N375 1.374 1_455 S
C374 C408 1.395 . S
N375 C371 1.376 . S
N375 C374 1.374 1_655 S
N375 Co376 2.008 . S
Co376 N375 2.008 . S
Co376 N377 1.995 1_655 S
Co376 N382 2.008 . S
Co376 N387 1.995 . S
Co376 N392 2.282 . S
Co376 N398 2.282 . S
N377 Co376 1.995 1_455 S
N377 C378 1.376 . S
N377 C381 1.383 . S
C378 N377 1.376 . S
C378 C379 1.446 . S
C378 C408 1.391 . S
C379 C378 1.446 . S
C379 C380 1.339 . S
C379 H414 0.949 . S
C380 C379 1.339 . S
C380 C381 1.439 . S
C380 H415 0.950 . S
C381 N377 1.383 . S
C381 C380 1.439 . S
C381 C410 1.392 1_455 S
N382 Co376 2.008 . S
N382 C383 1.376 . S
N382 C386 1.374 . S
C383 N382 1.376 . S
C383 C384 1.443 . S
C383 C410 1.389 . S
C384 C383 1.443 . S
C384 C385 1.340 . S
C384 H416 0.951 . S
C385 C384 1.340 . S
C385 C386 1.439 . S
C385 H417 0.950 . S
C386 N382 1.374 . S
C386 C385 1.439 . S
C386 C411 1.395 . S
N387 Co376 1.995 . S
N387 C388 1.376 . S
N387 C391 1.383 . S
C388 N387 1.376 . S
C388 C389 1.446 . S
C388 C411 1.391 . S
C389 C388 1.446 . S
C389 C390 1.339 . S
C389 H418 0.949 . S
C390 C389 1.339 . S
C390 C391 1.439 . S
C390 H419 0.950 . S
C391 N387 1.383 . S
C391 C390 1.439 . S
C391 C409 1.392 . S
N392 Co376 2.282 . S
N392 C395 1.332 . S
N392 C397 1.332 . S
C393 C394 1.386 . S
C393 C396 1.388 . S
C394 C393 1.386 . S
C394 C395 1.382 . S
C394 H420 0.950 . S
C395 N392 1.332 . S
C395 C394 1.382 . S
C395 H406 0.952 . S
C396 C393 1.388 . S
C396 C397 1.382 . S
C396 H421 0.950 1_655 S
C397 N392 1.332 . S
C397 C396 1.382 . S
C397 H407 0.948 1_655 S
N398 Co376 2.282 . S
N398 C402 1.332 . S
N398 C403 1.332 . S
C399 C400 1.388 . S
C399 C403 1.382 . S
C399 H422 0.950 . S
C400 C399 1.388 . S
C400 C401 1.386 . S
C401 C400 1.386 . S
C401 C402 1.382 . S
C401 H423 0.950 1_655 S
C402 N398 1.332 . S
C402 C401 1.382 . S
C402 H404 0.952 1_655 S
C403 N398 1.332 . S
C403 C399 1.382 . S
C403 H405 0.948 . S
H404 C402 0.952 1_455 S
H405 C403 0.948 . S
H406 C395 0.952 . S
H407 C397 0.948 1_455 S
C408 C374 1.395 . S
C408 C378 1.391 . S
C409 C371 1.389 . S
C409 C391 1.392 . S
C410 C381 1.392 1_655 S
C410 C383 1.389 . S
C411 C386 1.395 . S
C411 C388 1.391 . S
H412 C372 0.951 . S
H413 C373 0.950 . S
H414 C379 0.949 . S
H415 C380 0.950 . S
H416 C384 0.951 . S
H417 C385 0.950 . S
H418 C389 0.949 . S
H419 C390 0.950 . S
H420 C394 0.950 . S
H421 C396 0.950 1_455 S
H422 C399 0.950 . S
H423 C401 0.950 1_455 S
C424 C425 1.443 . S
C424 N428 1.376 . S
C424 C462 1.389 . S
C425 C424 1.443 . S
C425 C426 1.340 . S
C425 H465 0.951 . S
C426 C425 1.340 . S
C426 C427 1.439 . S
C426 H466 0.950 . S
C427 C426 1.439 . S
C427 N428 1.374 . S
C427 C461 1.395 . S
N428 C424 1.376 . S
N428 C427 1.374 . S
N428 Co429 2.008 . S
Co429 N428 2.008 . S
Co429 N430 1.995 . S
Co429 N435 2.008 . S
Co429 N440 1.995 . S
Co429 N445 2.282 . S
Co429 N451 2.282 . S
N430 Co429 1.995 . S
N430 C431 1.376 . S
N430 C434 1.383 . S
C431 N430 1.376 . S
C431 C432 1.446 . S
C431 C461 1.391 . S
C432 C431 1.446 . S
C432 C433 1.339 . S
C432 H467 0.949 . S
C433 C432 1.339 . S
C433 C434 1.439 . S
C433 H468 0.950 . S
C434 N430 1.383 . S
C434 C433 1.439 . S
C434 C463 1.392 . S
N435 Co429 2.008 . S
N435 C436 1.376 . S
N435 C439 1.374 . S
C436 N435 1.376 . S
C436 C437 1.443 . S
C436 C463 1.389 . S
C437 C436 1.443 . S
C437 C438 1.340 . S
C437 H469 0.951 . S
C438 C437 1.340 . S
C438 C439 1.439 . S
C438 H470 0.950 . S
C439 N435 1.374 . S
C439 C438 1.439 . S
C439 C464 1.395 . S
N440 Co429 1.995 . S
N440 C441 1.376 . S
N440 C444 1.383 . S
C441 N440 1.376 . S
C441 C442 1.446 . S
C441 C464 1.391 . S
C442 C441 1.446 . S
C442 C443 1.339 . S
C442 H471 0.949 . S
C443 C442 1.339 . S
C443 C444 1.439 . S
C443 H472 0.950 . S
C444 N440 1.383 . S
C444 C443 1.439 . S
C444 C462 1.392 . S
N445 Co429 2.282 . S
N445 C448 1.332 . S
N445 C450 1.332 . S
C446 C447 1.386 . S
C446 C449 1.388 . S
C447 C446 1.386 . S
C447 C448 1.382 . S
C447 H473 0.950 . S
C448 N445 1.332 . S
C448 C447 1.382 . S
C448 H459 0.952 . S
C449 C446 1.388 . S
C449 C450 1.382 . S
C449 H474 0.950 . S
C450 N445 1.332 . S
C450 C449 1.382 . S
C450 H460 0.948 . S
N451 Co429 2.282 . S
N451 C455 1.332 . S
N451 C456 1.332 . S
C452 C453 1.388 . S
C452 C456 1.382 . S
C452 H475 0.950 . S
C453 C452 1.388 . S
C453 C454 1.386 . S
C454 C453 1.386 . S
C454 C455 1.382 . S
C454 H476 0.950 . S
C455 N451 1.332 . S
C455 C454 1.382 . S
C455 H457 0.952 . S
C456 N451 1.332 . S
C456 C452 1.382 . S
C456 H458 0.948 . S
H457 C455 0.952 . S
H458 C456 0.948 . S
H459 C448 0.952 . S
H460 C450 0.948 . S
C461 C427 1.395 . S
C461 C431 1.391 . S
C462 C424 1.389 . S
C462 C444 1.392 . S
C463 C434 1.392 . S
C463 C436 1.389 . S
C464 C439 1.395 . S
C464 C441 1.391 . S
H465 C425 0.951 . S
H466 C426 0.950 . S
H467 C432 0.949 . S
H468 C433 0.950 . S
H469 C437 0.951 . S
H470 C438 0.950 . S
H471 C442 0.949 . S
H472 C443 0.950 . S
H473 C447 0.950 . S
H474 C449 0.950 . S
H475 C452 0.950 . S
H476 C454 0.950 . S
C477 C478 1.443 . S
C477 N481 1.376 . S
C477 C515 1.389 . S
C478 C477 1.443 . S
C478 C479 1.340 . S
C478 H518 0.951 . S
C479 C478 1.340 . S
C479 C480 1.439 . S
C479 H519 0.950 . S
C480 C479 1.439 . S
C480 N481 1.374 . S
C480 C514 1.395 . S
N481 C477 1.376 . S
N481 C480 1.374 . S
N481 Co482 2.008 . S
Co482 N481 2.008 . S
Co482 N483 1.995 . S
Co482 N488 2.008 . S
Co482 N493 1.995 . S
Co482 N498 2.282 . S
Co482 N504 2.282 . S
N483 Co482 1.995 . S
N483 C484 1.376 . S
N483 C487 1.383 . S
C484 N483 1.376 . S
C484 C485 1.446 . S
C484 C514 1.391 . S
C485 C484 1.446 . S
C485 C486 1.339 . S
C485 H520 0.949 . S
C486 C485 1.339 . S
C486 C487 1.439 . S
C486 H521 0.950 . S
C487 N483 1.383 . S
C487 C486 1.439 . S
C487 C516 1.392 . S
N488 Co482 2.008 . S
N488 C489 1.376 . S
N488 C492 1.374 . S
C489 N488 1.376 . S
C489 C490 1.443 . S
C489 C516 1.389 . S
C490 C489 1.443 . S
C490 C491 1.340 . S
C490 H522 0.951 . S
C491 C490 1.340 . S
C491 C492 1.439 . S
C491 H523 0.950 . S
C492 N488 1.374 . S
C492 C491 1.439 . S
C492 C517 1.395 . S
N493 Co482 1.995 . S
N493 C494 1.376 . S
N493 C497 1.383 . S
C494 N493 1.376 . S
C494 C495 1.446 . S
C494 C517 1.391 . S
C495 C494 1.446 . S
C495 C496 1.339 . S
C495 H524 0.949 . S
C496 C495 1.339 . S
C496 C497 1.439 . S
C496 H525 0.950 . S
C497 N493 1.383 . S
C497 C496 1.439 . S
C497 C515 1.392 . S
N498 Co482 2.282 . S
N498 C501 1.332 . S
N498 C503 1.332 . S
C499 C500 1.386 . S
C499 C502 1.388 . S
C500 C499 1.386 . S
C500 C501 1.382 . S
C500 H526 0.950 . S
C501 N498 1.332 . S
C501 C500 1.382 . S
C501 H512 0.952 . S
C502 C499 1.388 . S
C502 C503 1.382 . S
C502 H527 0.950 . S
C503 N498 1.332 . S
C503 C502 1.382 . S
C503 H513 0.948 . S
N504 Co482 2.282 . S
N504 C508 1.332 . S
N504 C509 1.332 . S
C505 C506 1.388 . S
C505 C509 1.382 . S
C505 H528 0.950 . S
C506 C505 1.388 . S
C506 C507 1.386 . S
C507 C506 1.386 . S
C507 C508 1.382 . S
C507 H529 0.950 . S
C508 N504 1.332 . S
C508 C507 1.382 . S
C508 H510 0.952 . S
C509 N504 1.332 . S
C509 C505 1.382 . S
C509 H511 0.948 . S
H510 C508 0.952 . S
H511 C509 0.948 . S
H512 C501 0.952 . S
H513 C503 0.948 . S
C514 C480 1.395 . S
C514 C484 1.391 . S
C515 C477 1.389 . S
C515 C497 1.392 . S
C516 C487 1.392 . S
C516 C489 1.389 . S
C517 C492 1.395 . S
C517 C494 1.391 . S
H518 C478 0.951 . S
H519 C479 0.950 . S
H520 C485 0.949 . S
H521 C486 0.950 . S
H522 C490 0.951 . S
H523 C491 0.950 . S
H524 C495 0.949 . S
H525 C496 0.950 . S
H526 C500 0.950 . S
H527 C502 0.950 . S
H528 C505 0.950 . S
H529 C507 0.950 . S
C530 C531 1.443 . S
C530 N534 1.376 . S
C530 C568 1.389 . S
C531 C530 1.443 . S
C531 C532 1.340 . S
C531 H571 0.951 . S
C532 C531 1.340 . S
C532 C533 1.439 . S
C532 H572 0.950 . S
C533 C532 1.439 . S
C533 N534 1.374 . S
C533 C567 1.395 . S
N534 C530 1.376 . S
N534 C533 1.374 . S
N534 Co535 2.008 . S
Co535 N534 2.008 . S
Co535 N536 1.995 . S
Co535 N541 2.008 . S
Co535 N546 1.995 . S
Co535 N551 2.282 . S
Co535 N557 2.282 . S
N536 Co535 1.995 . S
N536 C537 1.376 . S
N536 C540 1.383 . S
C537 N536 1.376 . S
C537 C538 1.446 . S
C537 C567 1.391 . S
C538 C537 1.446 . S
C538 C539 1.339 . S
C538 H573 0.949 . S
C539 C538 1.339 . S
C539 C540 1.439 . S
C539 H574 0.950 . S
C540 N536 1.383 . S
C540 C539 1.439 . S
C540 C569 1.392 . S
N541 Co535 2.008 . S
N541 C542 1.376 . S
N541 C545 1.374 1_565 S
C542 N541 1.376 . S
C542 C543 1.443 1_565 S
C542 C569 1.389 . S
C543 C542 1.443 1_545 S
C543 C544 1.340 . S
C543 H575 0.951 . S
C544 C543 1.340 . S
C544 C545 1.439 . S
C544 H576 0.950 . S
C545 N541 1.374 1_545 S
C545 C544 1.439 . S
C545 C570 1.395 . S
N546 Co535 1.995 . S
N546 C547 1.376 1_565 S
N546 C550 1.383 . S
C547 N546 1.376 1_545 S
C547 C548 1.446 . S
C547 C570 1.391 . S
C548 C547 1.446 . S
C548 C549 1.339 . S
C548 H577 0.949 . S
C549 C548 1.339 . S
C549 C550 1.439 1_545 S
C549 H578 0.950 . S
C550 N546 1.383 . S
C550 C549 1.439 1_565 S
C550 C568 1.392 . S
N551 Co535 2.282 . S
N551 C554 1.332 . S
N551 C556 1.332 . S
C552 C553 1.386 . S
C552 C555 1.388 . S
C553 C552 1.386 . S
C553 C554 1.382 . S
C553 H579 0.950 1_565 S
C554 N551 1.332 . S
C554 C553 1.382 . S
C554 H565 0.952 1_565 S
C555 C552 1.388 . S
C555 C556 1.382 . S
C555 H580 0.950 . S
C556 N551 1.332 . S
C556 C555 1.382 . S
C556 H566 0.948 . S
N557 Co535 2.282 . S
N557 C561 1.332 . S
N557 C562 1.332 . S
C558 C559 1.388 . S
C558 C562 1.382 . S
C558 H581 0.950 . S
C559 C558 1.388 . S
C559 C560 1.386 . S
C560 C559 1.386 . S
C560 C561 1.382 . S
C560 H582 0.950 . S
C561 N557 1.332 . S
C561 C560 1.382 . S
C561 H563 0.952 . S
C562 N557 1.332 . S
C562 C558 1.382 . S
C562 H564 0.948 . S
H563 C561 0.952 . S
H564 C562 0.948 . S
H565 C554 0.952 1_545 S
H566 C556 0.948 . S
C567 C533 1.395 . S
C567 C537 1.391 . S
C568 C530 1.389 . S
C568 C550 1.392 . S
C569 C540 1.392 . S
C569 C542 1.389 . S
C570 C545 1.395 . S
C570 C547 1.391 . S
H571 C531 0.951 . S
H572 C532 0.950 . S
H573 C538 0.949 . S
H574 C539 0.950 . S
H575 C543 0.951 . S
H576 C544 0.950 . S
H577 C548 0.949 . S
H578 C549 0.950 . S
H579 C553 0.950 1_545 S
H580 C555 0.950 . S
H581 C558 0.950 . S
H582 C560 0.950 . S
C583 C584 1.443 1_455 S
C583 N587 1.376 . S
C583 C621 1.389 . S
C584 C583 1.443 1_655 S
C584 C585 1.340 . S
C584 H624 0.951 . S
C585 C584 1.340 . S
C585 C586 1.439 . S
C585 H625 0.950 . S
C586 C585 1.439 . S
C586 N587 1.374 1_655 S
C586 C620 1.395 . S
N587 C583 1.376 . S
N587 C586 1.374 1_455 S
N587 Co588 2.008 . S
Co588 N587 2.008 . S
Co588 N589 1.995 1_455 S
Co588 N594 2.008 . S
Co588 N599 1.995 . S
Co588 N604 2.282 . S
Co588 N610 2.282 . S
N589 Co588 1.995 1_655 S
N589 C590 1.376 . S
N589 C593 1.383 . S
C590 N589 1.376 . S
C590 C591 1.446 . S
C590 C620 1.391 . S
C591 C590 1.446 . S
C591 C592 1.339 . S
C591 H626 0.949 . S
C592 C591 1.339 . S
C592 C593 1.439 . S
C592 H627 0.950 . S
C593 N589 1.383 . S
C593 C592 1.439 . S
C593 C622 1.392 1_655 S
N594 Co588 2.008 . S
N594 C595 1.376 . S
N594 C598 1.374 . S
C595 N594 1.376 . S
C595 C596 1.443 . S
C595 C622 1.389 . S
C596 C595 1.443 . S
C596 C597 1.340 . S
C596 H628 0.951 . S
C597 C596 1.340 . S
C597 C598 1.439 . S
C597 H629 0.950 . S
C598 N594 1.374 . S
C598 C597 1.439 . S
C598 C623 1.395 . S
N599 Co588 1.995 . S
N599 C600 1.376 . S
N599 C603 1.383 . S
C600 N599 1.376 . S
C600 C601 1.446 . S
C600 C623 1.391 . S
C601 C600 1.446 . S
C601 C602 1.339 . S
C601 H630 0.949 . S
C602 C601 1.339 . S
C602 C603 1.439 . S
C602 H631 0.950 . S
C603 N599 1.383 . S
C603 C602 1.439 . S
C603 C621 1.392 . S
N604 Co588 2.282 . S
N604 C607 1.332 . S
N604 C609 1.332 . S
C605 C606 1.386 . S
C605 C608 1.388 . S
C606 C605 1.386 . S
C606 C607 1.382 . S
C606 H632 0.950 . S
C607 N604 1.332 . S
C607 C606 1.382 . S
C607 H618 0.952 . S
C608 C605 1.388 . S
C608 C609 1.382 . S
C608 H633 0.950 1_455 S
C609 N604 1.332 . S
C609 C608 1.382 . S
C609 H619 0.948 1_455 S
N610 Co588 2.282 . S
N610 C614 1.332 . S
N610 C615 1.332 . S
C611 C612 1.388 . S
C611 C615 1.382 . S
C611 H634 0.950 . S
C612 C611 1.388 . S
C612 C613 1.386 . S
C613 C612 1.386 . S
C613 C614 1.382 . S
C613 H635 0.950 1_455 S
C614 N610 1.332 . S
C614 C613 1.382 . S
C614 H616 0.952 1_455 S
C615 N610 1.332 . S
C615 C611 1.382 . S
C615 H617 0.948 . S
H616 C614 0.952 1_655 S
H617 C615 0.948 . S
H618 C607 0.952 . S
H619 C609 0.948 1_655 S
C620 C586 1.395 . S
C620 C590 1.391 . S
C621 C583 1.389 . S
C621 C603 1.392 . S
C622 C593 1.392 1_455 S
C622 C595 1.389 . S
C623 C598 1.395 . S
C623 C600 1.391 . S
H624 C584 0.951 . S
H625 C585 0.950 . S
H626 C591 0.949 . S
H627 C592 0.950 . S
H628 C596 0.951 . S
H629 C597 0.950 . S
H630 C601 0.949 . S
H631 C602 0.950 . S
H632 C606 0.950 . S
H633 C608 0.950 1_655 S
H634 C611 0.950 . S
H635 C613 0.950 1_655 S
C636 C637 1.443 . S
C636 N640 1.376 . S
C636 C674 1.389 . S
C637 C636 1.443 . S
C637 C638 1.340 . S
C637 H677 0.951 . S
C638 C637 1.340 . S
C638 C639 1.439 . S
C638 H678 0.950 . S
C639 C638 1.439 . S
C639 N640 1.374 . S
C639 C673 1.395 . S
N640 C636 1.376 . S
N640 C639 1.374 . S
N640 Co641 2.008 . S
Co641 N640 2.008 . S
Co641 N642 1.995 . S
Co641 N647 2.008 . S
Co641 N652 1.995 . S
Co641 N657 2.282 . S
Co641 N663 2.282 . S
N642 Co641 1.995 . S
N642 C643 1.376 . S
N642 C646 1.383 . S
C643 N642 1.376 . S
C643 C644 1.446 . S
C643 C673 1.391 . S
C644 C643 1.446 . S
C644 C645 1.339 . S
C644 H679 0.949 . S
C645 C644 1.339 . S
C645 C646 1.439 . S
C645 H680 0.950 . S
C646 N642 1.383 . S
C646 C645 1.439 . S
C646 C675 1.392 . S
N647 Co641 2.008 . S
N647 C648 1.376 . S
N647 C651 1.374 1_565 S
C648 N647 1.376 . S
C648 C649 1.443 1_565 S
C648 C675 1.389 . S
C649 C648 1.443 1_545 S
C649 C650 1.340 . S
C649 H681 0.951 . S
C650 C649 1.340 . S
C650 C651 1.439 . S
C650 H682 0.950 . S
C651 N647 1.374 1_545 S
C651 C650 1.439 . S
C651 C676 1.395 . S
N652 Co641 1.995 . S
N652 C653 1.376 1_565 S
N652 C656 1.383 . S
C653 N652 1.376 1_545 S
C653 C654 1.446 . S
C653 C676 1.391 . S
C654 C653 1.446 . S
C654 C655 1.339 . S
C654 H683 0.949 . S
C655 C654 1.339 . S
C655 C656 1.439 1_545 S
C655 H684 0.950 . S
C656 N652 1.383 . S
C656 C655 1.439 1_565 S
C656 C674 1.392 . S
N657 Co641 2.282 . S
N657 C660 1.332 . S
N657 C662 1.332 . S
C658 C659 1.386 . S
C658 C661 1.388 . S
C659 C658 1.386 . S
C659 C660 1.382 . S
C659 H685 0.950 1_565 S
C660 N657 1.332 . S
C660 C659 1.382 . S
C660 H671 0.952 1_565 S
C661 C658 1.388 . S
C661 C662 1.382 . S
C661 H686 0.950 . S
C662 N657 1.332 . S
C662 C661 1.382 . S
C662 H672 0.948 . S
N663 Co641 2.282 . S
N663 C667 1.332 . S
N663 C668 1.332 . S
C664 C665 1.388 . S
C664 C668 1.382 . S
C664 H687 0.950 . S
C665 C664 1.388 . S
C665 C666 1.386 . S
C666 C665 1.386 . S
C666 C667 1.382 . S
C666 H688 0.950 . S
C667 N663 1.332 . S
C667 C666 1.382 . S
C667 H669 0.952 . S
C668 N663 1.332 . S
C668 C664 1.382 . S
C668 H670 0.948 . S
H669 C667 0.952 . S
H670 C668 0.948 . S
H671 C660 0.952 1_545 S
H672 C662 0.948 . S
C673 C639 1.395 . S
C673 C643 1.391 . S
C674 C636 1.389 . S
C674 C656 1.392 . S
C675 C646 1.392 . S
C675 C648 1.389 . S
C676 C651 1.395 . S
C676 C653 1.391 . S
H677 C637 0.951 . S
H678 C638 0.950 . S
H679 C644 0.949 . S
H680 C645 0.950 . S
H681 C649 0.951 . S
H682 C650 0.950 . S
H683 C654 0.949 . S
H684 C655 0.950 . S
H685 C659 0.950 1_545 S
H686 C661 0.950 . S
H687 C664 0.950 . S
H688 C666 0.950 . S
C689 C690 1.443 1_455 S
C689 N693 1.376 . S
C689 C727 1.389 . S
C690 C689 1.443 1_655 S
C690 C691 1.340 . S
C690 H730 0.951 . S
C691 C690 1.340 . S
C691 C692 1.439 . S
C691 H731 0.950 . S
C692 C691 1.439 . S
C692 N693 1.374 1_655 S
C692 C726 1.395 . S
N693 C689 1.376 . S
N693 C692 1.374 1_455 S
N693 Co694 2.008 . S
Co694 N693 2.008 . S
Co694 N695 1.995 1_455 S
Co694 N700 2.008 . S
Co694 N705 1.995 . S
Co694 N710 2.282 . S
Co694 N716 2.282 . S
N695 Co694 1.995 1_655 S
N695 C696 1.376 . S
N695 C699 1.383 . S
C696 N695 1.376 . S
C696 C697 1.446 . S
C696 C726 1.391 . S
C697 C696 1.446 . S
C697 C698 1.339 . S
C697 H732 0.949 . S
C698 C697 1.339 . S
C698 C699 1.439 . S
C698 H733 0.950 . S
C699 N695 1.383 . S
C699 C698 1.439 . S
C699 C728 1.392 1_655 S
N700 Co694 2.008 . S
N700 C701 1.376 . S
N700 C704 1.374 . S
C701 N700 1.376 . S
C701 C702 1.443 . S
C701 C728 1.389 . S
C702 C701 1.443 . S
C702 C703 1.340 . S
C702 H734 0.951 . S
C703 C702 1.340 . S
C703 C704 1.439 . S
C703 H735 0.950 . S
C704 N700 1.374 . S
C704 C703 1.439 . S
C704 C729 1.395 . S
N705 Co694 1.995 . S
N705 C706 1.376 . S
N705 C709 1.383 . S
C706 N705 1.376 . S
C706 C707 1.446 . S
C706 C729 1.391 . S
C707 C706 1.446 . S
C707 C708 1.339 . S
C707 H736 0.949 . S
C708 C707 1.339 . S
C708 C709 1.439 . S
C708 H737 0.950 . S
C709 N705 1.383 . S
C709 C708 1.439 . S
C709 C727 1.392 . S
N710 Co694 2.282 . S
N710 C713 1.332 . S
N710 C715 1.332 . S
C711 C712 1.386 . S
C711 C714 1.388 . S
C712 C711 1.386 . S
C712 C713 1.382 . S
C712 H738 0.950 . S
C713 N710 1.332 . S
C713 C712 1.382 . S
C713 H724 0.952 . S
C714 C711 1.388 . S
C714 C715 1.382 . S
C714 H739 0.950 1_455 S
C715 N710 1.332 . S
C715 C714 1.382 . S
C715 H725 0.948 1_455 S
N716 Co694 2.282 . S
N716 C720 1.332 . S
N716 C721 1.332 . S
C717 C718 1.388 . S
C717 C721 1.382 . S
C717 H740 0.950 . S
C718 C717 1.388 . S
C718 C719 1.386 . S
C719 C718 1.386 . S
C719 C720 1.382 . S
C719 H741 0.950 1_455 S
C720 N716 1.332 . S
C720 C719 1.382 . S
C720 H722 0.952 1_455 S
C721 N716 1.332 . S
C721 C717 1.382 . S
C721 H723 0.948 . S
H722 C720 0.952 1_655 S
H723 C721 0.948 . S
H724 C713 0.952 . S
H725 C715 0.948 1_655 S
C726 C692 1.395 . S
C726 C696 1.391 . S
C727 C689 1.389 . S
C727 C709 1.392 . S
C728 C699 1.392 1_455 S
C728 C701 1.389 . S
C729 C704 1.395 . S
C729 C706 1.391 . S
H730 C690 0.951 . S
H731 C691 0.950 . S
H732 C697 0.949 . S
H733 C698 0.950 . S
H734 C702 0.951 . S
H735 C703 0.950 . S
H736 C707 0.949 . S
H737 C708 0.950 . S
H738 C712 0.950 . S
H739 C714 0.950 1_655 S
H740 C717 0.950 . S
H741 C719 0.950 1_655 S
C742 C743 1.443 . S
C742 N746 1.376 . S
C742 C780 1.389 . S
C743 C742 1.443 . S
C743 C744 1.340 . S
C743 H783 0.951 . S
C744 C743 1.340 . S
C744 C745 1.439 . S
C744 H784 0.950 . S
C745 C744 1.439 . S
C745 N746 1.374 . S
C745 C779 1.395 . S
N746 C742 1.376 . S
N746 C745 1.374 . S
N746 Co747 2.008 . S
Co747 N746 2.008 . S
Co747 N748 1.995 . S
Co747 N753 2.008 . S
Co747 N758 1.995 . S
Co747 N763 2.282 . S
Co747 N769 2.282 . S
N748 Co747 1.995 . S
N748 C749 1.376 . S
N748 C752 1.383 . S
C749 N748 1.376 . S
C749 C750 1.446 . S
C749 C779 1.391 . S
C750 C749 1.446 . S
C750 C751 1.339 . S
C750 H785 0.949 . S
C751 C750 1.339 . S
C751 C752 1.439 . S
C751 H786 0.950 . S
C752 N748 1.383 . S
C752 C751 1.439 . S
C752 C781 1.392 . S
N753 Co747 2.008 . S
N753 C754 1.376 . S
N753 C757 1.374 . S
C754 N753 1.376 . S
C754 C755 1.443 . S
C754 C781 1.389 . S
C755 C754 1.443 . S
C755 C756 1.340 . S
C755 H787 0.951 . S
C756 C755 1.340 . S
C756 C757 1.439 . S
C756 H788 0.950 . S
C757 N753 1.374 . S
C757 C756 1.439 . S
C757 C782 1.395 . S
N758 Co747 1.995 . S
N758 C759 1.376 . S
N758 C762 1.383 . S
C759 N758 1.376 . S
C759 C760 1.446 . S
C759 C782 1.391 . S
C760 C759 1.446 . S
C760 C761 1.339 . S
C760 H789 0.949 . S
C761 C760 1.339 . S
C761 C762 1.439 . S
C761 H790 0.950 . S
C762 N758 1.383 . S
C762 C761 1.439 . S
C762 C780 1.392 . S
N763 Co747 2.282 . S
N763 C766 1.332 . S
N763 C768 1.332 . S
C764 C765 1.386 . S
C764 C767 1.388 . S
C765 C764 1.386 . S
C765 C766 1.382 . S
C765 H791 0.950 . S
C766 N763 1.332 . S
C766 C765 1.382 . S
C766 H777 0.952 . S
C767 C764 1.388 . S
C767 C768 1.382 . S
C767 H792 0.950 . S
C768 N763 1.332 . S
C768 C767 1.382 . S
C768 H778 0.948 . S
N769 Co747 2.282 . S
N769 C773 1.332 . S
N769 C774 1.332 . S
C770 C771 1.388 . S
C770 C774 1.382 . S
C770 H793 0.950 . S
C771 C770 1.388 . S
C771 C772 1.386 . S
C772 C771 1.386 . S
C772 C773 1.382 . S
C772 H794 0.950 . S
C773 N769 1.332 . S
C773 C772 1.382 . S
C773 H775 0.952 . S
C774 N769 1.332 . S
C774 C770 1.382 . S
C774 H776 0.948 . S
H775 C773 0.952 . S
H776 C774 0.948 . S
H777 C766 0.952 . S
H778 C768 0.948 . S
C779 C745 1.395 . S
C779 C749 1.391 . S
C780 C742 1.389 . S
C780 C762 1.392 . S
C781 C752 1.392 . S
C781 C754 1.389 . S
C782 C757 1.395 . S
C782 C759 1.391 . S
H783 C743 0.951 . S
H784 C744 0.950 . S
H785 C750 0.949 . S
H786 C751 0.950 . S
H787 C755 0.951 . S
H788 C756 0.950 . S
H789 C760 0.949 . S
H790 C761 0.950 . S
H791 C765 0.950 . S
H792 C767 0.950 . S
H793 C770 0.950 . S
H794 C772 0.950 . S
C795 C796 1.443 . S
C795 N799 1.376 . S
C795 C833 1.389 . S
C796 C795 1.443 . S
C796 C797 1.340 . S
C796 H836 0.951 . S
C797 C796 1.340 . S
C797 C798 1.439 . S
C797 H837 0.950 . S
C798 C797 1.439 . S
C798 N799 1.374 . S
C798 C832 1.395 . S
N799 C795 1.376 . S
N799 C798 1.374 . S
N799 Co800 2.008 . S
Co800 N799 2.008 . S
Co800 N801 1.995 . S
Co800 N806 2.008 . S
Co800 N811 1.995 . S
Co800 N816 2.282 . S
Co800 N822 2.282 . S
N801 Co800 1.995 . S
N801 C802 1.376 . S
N801 C805 1.383 . S
C802 N801 1.376 . S
C802 C803 1.446 . S
C802 C832 1.391 . S
C803 C802 1.446 . S
C803 C804 1.339 . S
C803 H838 0.949 . S
C804 C803 1.339 . S
C804 C805 1.439 . S
C804 H839 0.950 . S
C805 N801 1.383 . S
C805 C804 1.439 . S
C805 C834 1.392 . S
N806 Co800 2.008 . S
N806 C807 1.376 . S
N806 C810 1.374 . S
C807 N806 1.376 . S
C807 C808 1.443 . S
C807 C834 1.389 . S
C808 C807 1.443 . S
C808 C809 1.340 . S
C808 H840 0.951 . S
C809 C808 1.340 . S
C809 C810 1.439 . S
C809 H841 0.950 . S
C810 N806 1.374 . S
C810 C809 1.439 . S
C810 C835 1.395 . S
N811 Co800 1.995 . S
N811 C812 1.376 . S
N811 C815 1.383 . S
C812 N811 1.376 . S
C812 C813 1.446 . S
C812 C835 1.391 . S
C813 C812 1.446 . S
C813 C814 1.339 . S
C813 H842 0.949 . S
C814 C813 1.339 . S
C814 C815 1.439 . S
C814 H843 0.950 . S
C815 N811 1.383 . S
C815 C814 1.439 . S
C815 C833 1.392 . S
N816 Co800 2.282 . S
N816 C819 1.332 . S
N816 C821 1.332 . S
C817 C818 1.386 . S
C817 C820 1.388 . S
C818 C817 1.386 . S
C818 C819 1.382 . S
C818 H844 0.950 . S
C819 N816 1.332 . S
C819 C818 1.382 . S
C819 H830 0.952 . S
C820 C817 1.388 . S
C820 C821 1.382 . S
C820 H845 0.950 . S
C821 N816 1.332 . S
C821 C820 1.382 . S
C821 H831 0.948 . S
N822 Co800 2.282 . S
N822 C826 1.332 . S
N822 C827 1.332 . S
C823 C824 1.388 . S
C823 C827 1.382 . S
C823 H846 0.950 . S
C824 C823 1.388 . S
C824 C825 1.386 . S
C825 C824 1.386 . S
C825 C826 1.382 . S
C825 H847 0.950 . S
C826 N822 1.332 . S
C826 C825 1.382 . S
C826 H828 0.952 . S
C827 N822 1.332 . S
C827 C823 1.382 . S
C827 H829 0.948 . S
H828 C826 0.952 . S
H829 C827 0.948 . S
H830 C819 0.952 . S
H831 C821 0.948 . S
C832 C798 1.395 . S
C832 C802 1.391 . S
C833 C795 1.389 . S
C833 C815 1.392 . S
C834 C805 1.392 . S
C834 C807 1.389 . S
C835 C810 1.395 . S
C835 C812 1.391 . S
H836 C796 0.951 . S
H837 C797 0.950 . S
H838 C803 0.949 . S
H839 C804 0.950 . S
H840 C808 0.951 . S
H841 C809 0.950 . S
H842 C813 0.949 . S
H843 C814 0.950 . S
H844 C818 0.950 . S
H845 C820 0.950 . S
H846 C823 0.950 . S
H847 C825 0.950 . S
H848 C856 0.950 . S
H849 C861 0.950 1_545 S
H850 C858 0.950 . S
H851 C860 0.950 . S
H852 C862 0.950 . S
H853 C864 0.950 . S
H854 C866 0.950 . S
H855 C867 0.950 1_565 S
C856 H848 0.950 . S
C856 C857 1.386 . S
C856 C858 1.391 . S
C857 C856 1.386 . S
C857 C861 1.393 . S
C858 H850 0.950 . S
C858 C856 1.391 . S
C858 C859 1.400 . S
C859 C858 1.400 . S
C859 C860 1.398 1_565 S
C859 C865 1.491 1_665 S
C860 H851 0.950 . S
C860 C859 1.398 1_545 S
C860 C861 1.391 1_545 S
C861 H849 0.950 1_565 S
C861 C857 1.393 . S
C861 C860 1.391 1_565 S
C862 H852 0.950 . S
C862 C863 1.386 . S
C862 C864 1.391 . S
C863 C862 1.386 . S
C863 C867 1.393 . S
C864 H853 0.950 . S
C864 C862 1.391 . S
C864 C865 1.400 . S
C865 C859 1.491 1_445 S
C865 C864 1.400 . S
C865 C866 1.398 1_545 S
C866 H854 0.950 . S
C866 C865 1.398 1_565 S
C866 C867 1.391 1_565 S
C867 H855 0.950 1_545 S
C867 C863 1.393 . S
C867 C866 1.391 1_545 S
H868 C876 0.950 . S
H869 C881 0.950 . S
H870 C878 0.950 . S
H871 C880 0.950 . S
H872 C882 0.950 . S
H873 C884 0.950 . S
H874 C886 0.950 . S
H875 C887 0.950 . S
C876 H868 0.950 . S
C876 C877 1.386 1_455 S
C876 C878 1.391 . S
C877 C876 1.386 1_655 S
C877 C881 1.393 . S
C878 H870 0.950 . S
C878 C876 1.391 . S
C878 C879 1.400 1_455 S
C879 C878 1.400 1_655 S
C879 C880 1.398 . S
C879 C885 1.491 1_655 S
C880 H871 0.950 . S
C880 C879 1.398 . S
C880 C881 1.391 . S
C881 H869 0.950 . S
C881 C877 1.393 . S
C881 C880 1.391 . S
C882 H872 0.950 . S
C882 C883 1.386 1_655 S
C882 C884 1.391 . S
C883 C882 1.386 1_455 S
C883 C887 1.393 . S
C884 H873 0.950 . S
C884 C882 1.391 . S
C884 C885 1.400 1_655 S
C885 C879 1.491 1_455 S
C885 C884 1.400 1_455 S
C885 C886 1.398 . S
C886 H874 0.950 . S
C886 C885 1.398 . S
C886 C887 1.391 . S
C887 H875 0.950 . S
C887 C883 1.393 . S
C887 C886 1.391 . S
H888 C896 0.950 . S
H889 C901 0.950 . S
H890 C898 0.950 . S
H891 C900 0.950 . S
H892 C902 0.950 . S
H893 C904 0.950 . S
H894 C906 0.950 . S
H895 C907 0.950 . S
C896 H888 0.950 . S
C896 C897 1.386 . S
C896 C898 1.391 . S
C897 C896 1.386 . S
C897 C901 1.393 . S
C898 H890 0.950 . S
C898 C896 1.391 . S
C898 C899 1.400 . S
C899 C898 1.400 . S
C899 C900 1.398 . S
C899 C905 1.491 . S
C900 H891 0.950 . S
C900 C899 1.398 . S
C900 C901 1.391 . S
C901 H889 0.950 . S
C901 C897 1.393 . S
C901 C900 1.391 . S
C902 H892 0.950 . S
C902 C903 1.386 . S
C902 C904 1.391 . S
C903 C902 1.386 . S
C903 C907 1.393 . S
C904 H893 0.950 . S
C904 C902 1.391 . S
C904 C905 1.400 . S
C905 C899 1.491 . S
C905 C904 1.400 . S
C905 C906 1.398 . S
C906 H894 0.950 . S
C906 C905 1.398 . S
C906 C907 1.391 . S
C907 H895 0.950 . S
C907 C903 1.393 . S
C907 C906 1.391 . S
H908 C916 0.950 . S
H909 C921 0.950 . S
H910 C918 0.950 . S
H911 C920 0.950 . S
H912 C922 0.950 . S
H913 C924 0.950 . S
H914 C926 0.950 . S
H915 C927 0.950 . S
C916 H908 0.950 . S
C916 C917 1.386 . S
C916 C918 1.391 . S
C917 C916 1.386 . S
C917 C921 1.393 . S
C918 H910 0.950 . S
C918 C916 1.391 . S
C918 C919 1.400 . S
C919 C918 1.400 . S
C919 C920 1.398 . S
C919 C925 1.491 1_545 S
C920 H911 0.950 . S
C920 C919 1.398 . S
C920 C921 1.391 . S
C921 H909 0.950 . S
C921 C917 1.393 . S
C921 C920 1.391 . S
C922 H912 0.950 . S
C922 C923 1.386 . S
C922 C924 1.391 . S
C923 C922 1.386 . S
C923 C927 1.393 . S
C924 H913 0.950 . S
C924 C922 1.391 . S
C924 C925 1.400 . S
C925 C919 1.491 1_565 S
C925 C924 1.400 . S
C925 C926 1.398 . S
C926 H914 0.950 . S
C926 C925 1.398 . S
C926 C927 1.391 . S
C927 H915 0.950 . S
C927 C923 1.393 . S
C927 C926 1.391 . S
H928 C936 0.950 . S
H929 C941 0.950 . S
H930 C938 0.950 . S
H931 C940 0.950 . S
H932 C942 0.950 . S
H933 C944 0.950 . S
H934 C946 0.950 . S
H935 C947 0.950 . S
C936 H928 0.950 . S
C936 C937 1.386 . S
C936 C938 1.391 . S
C937 C936 1.386 . S
C937 C941 1.393 . S
C938 H930 0.950 . S
C938 C936 1.391 . S
C938 C939 1.400 . S
C939 C938 1.400 . S
C939 C940 1.398 . S
C939 C945 1.491 1_455 S
C940 H931 0.950 . S
C940 C939 1.398 . S
C940 C941 1.391 . S
C941 H929 0.950 . S
C941 C937 1.393 . S
C941 C940 1.391 . S
C942 H932 0.950 . S
C942 C943 1.386 . S
C942 C944 1.391 . S
C943 C942 1.386 . S
C943 C947 1.393 . S
C944 H933 0.950 . S
C944 C942 1.391 . S
C944 C945 1.400 . S
C945 C939 1.491 1_655 S
C945 C944 1.400 . S
C945 C946 1.398 . S
C946 H934 0.950 . S
C946 C945 1.398 . S
C946 C947 1.391 . S
C947 H935 0.950 . S
C947 C943 1.393 . S
C947 C946 1.391 . S
H948 C956 0.950 . S
H949 C961 0.950 . S
H950 C958 0.950 . S
H951 C960 0.950 . S
H952 C962 0.950 . S
H953 C964 0.950 . S
H954 C966 0.950 . S
H955 C967 0.950 . S
C956 H948 0.950 . S
C956 C957 1.386 . S
C956 C958 1.391 . S
C957 C956 1.386 . S
C957 C961 1.393 . S
C958 H950 0.950 . S
C958 C956 1.391 . S
C958 C959 1.400 . S
C959 C958 1.400 . S
C959 C960 1.398 . S
C959 C965 1.491 . S
C960 H951 0.950 . S
C960 C959 1.398 . S
C960 C961 1.391 . S
C961 H949 0.950 . S
C961 C957 1.393 . S
C961 C960 1.391 . S
C962 H952 0.950 . S
C962 C963 1.386 . S
C962 C964 1.391 . S
C963 C962 1.386 . S
C963 C967 1.393 . S
C964 H953 0.950 . S
C964 C962 1.391 . S
C964 C965 1.400 . S
C965 C959 1.491 . S
C965 C964 1.400 . S
C965 C966 1.398 . S
C966 H954 0.950 . S
C966 C965 1.398 . S
C966 C967 1.391 . S
C967 H955 0.950 . S
C967 C963 1.393 . S
C967 C966 1.391 . S
H968 C976 0.950 . S
H969 C981 0.950 . S
H970 C978 0.950 . S
H971 C980 0.950 . S
H972 C982 0.950 . S
H973 C984 0.950 . S
H974 C986 0.950 . S
H975 C987 0.950 . S
C976 H968 0.950 . S
C976 C977 1.386 . S
C976 C978 1.391 1_545 S
C977 C976 1.386 . S
C977 C981 1.393 . S
C978 H970 0.950 . S
C978 C976 1.391 1_565 S
C978 C979 1.400 1_565 S
C979 C978 1.400 1_545 S
C979 C980 1.398 . S
C979 C985 1.491 1_545 S
C980 H971 0.950 . S
C980 C979 1.398 . S
C980 C981 1.391 . S
C981 H969 0.950 . S
C981 C977 1.393 . S
C981 C980 1.391 . S
C982 H972 0.950 . S
C982 C983 1.386 . S
C982 C984 1.391 1_565 S
C983 C982 1.386 . S
C983 C987 1.393 . S
C984 H973 0.950 . S
C984 C982 1.391 1_545 S
C984 C985 1.400 1_545 S
C985 C979 1.491 1_565 S
C985 C984 1.400 1_565 S
C985 C986 1.398 . S
C986 H974 0.950 . S
C986 C985 1.398 . S
C986 C987 1.391 . S
C987 H975 0.950 . S
C987 C983 1.393 . S
C987 C986 1.391 . S
H988 C996 0.950 . S
H989 C1001 0.950 . S
H990 C998 0.950 . S
H991 C1000 0.950 . S
H992 C1002 0.950 . S
H993 C1004 0.950 . S
H994 C1006 0.950 . S
H995 C1007 0.950 . S
C996 H988 0.950 . S
C996 C997 1.386 1_655 S
C996 C998 1.391 . S
C997 C996 1.386 1_455 S
C997 C1001 1.393 . S
C998 H990 0.950 . S
C998 C996 1.391 . S
C998 C999 1.400 1_655 S
C999 C998 1.400 1_455 S
C999 C1000 1.398 . S
C999 C1005 1.491 1_445 S
C1000 H991 0.950 . S
C1000 C999 1.398 . S
C1000 C1001 1.391 . S
C1001 H989 0.950 . S
C1001 C997 1.393 . S
C1001 C1000 1.391 . S
C1002 H992 0.950 . S
C1002 C1003 1.386 1_455 S
C1002 C1004 1.391 . S
C1003 C1002 1.386 1_655 S
C1003 C1007 1.393 . S
C1004 H993 0.950 . S
C1004 C1002 1.391 . S
C1004 C1005 1.400 1_455 S
C1005 C999 1.491 1_665 S
C1005 C1004 1.400 1_655 S
C1005 C1006 1.398 . S
C1006 H994 0.950 . S
C1006 C1005 1.398 . S
C1006 C1007 1.391 . S
C1007 H995 0.950 . S
C1007 C1003 1.393 . S
C1007 C1006 1.391 . S
H1008 C1016 0.950 . S
H1009 C1021 0.950 . S
H1010 C1018 0.950 . S
H1011 C1020 0.950 . S
H1012 C1022 0.950 . S
H1013 C1024 0.950 . S
H1014 C1026 0.950 . S
H1015 C1027 0.950 . S
C1016 H1008 0.950 . S
C1016 C1017 1.386 . S
C1016 C1018 1.391 . S
C1017 C1016 1.386 . S
C1017 C1021 1.393 . S
C1018 H1010 0.950 . S
C1018 C1016 1.391 . S
C1018 C1019 1.400 . S
C1019 C1018 1.400 . S
C1019 C1020 1.398 1_565 S
C1019 C1025 1.491 1_565 S
C1020 H1011 0.950 . S
C1020 C1019 1.398 1_545 S
C1020 C1021 1.391 1_545 S
C1021 H1009 0.950 . S
C1021 C1017 1.393 . S
C1021 C1020 1.391 1_565 S
C1022 H1012 0.950 . S
C1022 C1023 1.386 . S
C1022 C1024 1.391 . S
C1023 C1022 1.386 . S
C1023 C1027 1.393 . S
C1024 H1013 0.950 . S
C1024 C1022 1.391 . S
C1024 C1025 1.400 . S
C1025 C1019 1.491 1_545 S
C1025 C1024 1.400 . S
C1025 C1026 1.398 1_545 S
C1026 H1014 0.950 . S
C1026 C1025 1.398 1_565 S
C1026 C1027 1.391 1_565 S
C1027 H1015 0.950 . S
C1027 C1023 1.393 . S
C1027 C1026 1.391 1_545 S
H1028 C1036 0.950 . S
H1029 C1041 0.950 1_455 S
H1030 C1038 0.950 . S
H1031 C1040 0.950 . S
H1032 C1042 0.950 . S
H1033 C1044 0.950 . S
H1034 C1046 0.950 . S
H1035 C1047 0.950 1_655 S
C1036 H1028 0.950 . S
C1036 C1037 1.386 . S
C1036 C1038 1.391 . S
C1037 C1036 1.386 . S
C1037 C1041 1.393 . S
C1038 H1030 0.950 . S
C1038 C1036 1.391 . S
C1038 C1039 1.400 . S
C1039 C1038 1.400 . S
C1039 C1040 1.398 1_655 S
C1039 C1045 1.491 1_665 S
C1040 H1031 0.950 . S
C1040 C1039 1.398 1_455 S
C1040 C1041 1.391 1_455 S
C1041 H1029 0.950 1_655 S
C1041 C1037 1.393 . S
C1041 C1040 1.391 1_655 S
C1042 H1032 0.950 . S
C1042 C1043 1.386 . S
C1042 C1044 1.391 . S
C1043 C1042 1.386 . S
C1043 C1047 1.393 . S
C1044 H1033 0.950 . S
C1044 C1042 1.391 . S
C1044 C1045 1.400 . S
C1045 C1039 1.491 1_445 S
C1045 C1044 1.400 . S
C1045 C1046 1.398 1_455 S
C1046 H1034 0.950 . S
C1046 C1045 1.398 1_655 S
C1046 C1047 1.391 1_655 S
C1047 H1035 0.950 1_455 S
C1047 C1043 1.393 . S
C1047 C1046 1.391 1_455 S
H1048 C1056 0.950 . S
H1049 C1061 0.950 . S
H1050 C1058 0.950 . S
H1051 C1060 0.950 1_655 S
H1052 C1062 0.950 . S
H1053 C1064 0.950 . S
H1054 C1066 0.950 1_455 S
H1055 C1067 0.950 . S
C1056 H1048 0.950 . S
C1056 C1057 1.386 . S
C1056 C1058 1.391 . S
C1057 C1056 1.386 . S
C1057 C1061 1.393 . S
C1058 H1050 0.950 . S
C1058 C1056 1.391 . S
C1058 C1059 1.400 . S
C1059 C1058 1.400 . S
C1059 C1060 1.398 . S
C1059 C1065 1.491 1_455 S
C1060 H1051 0.950 1_455 S
C1060 C1059 1.398 . S
C1060 C1061 1.391 . S
C1061 H1049 0.950 . S
C1061 C1057 1.393 . S
C1061 C1060 1.391 . S
C1062 H1052 0.950 . S
C1062 C1063 1.386 . S
C1062 C1064 1.391 . S
C1063 C1062 1.386 . S
C1063 C1067 1.393 . S
C1064 H1053 0.950 . S
C1064 C1062 1.391 . S
C1064 C1065 1.400 . S
C1065 C1059 1.491 1_655 S
C1065 C1064 1.400 . S
C1065 C1066 1.398 . S
C1066 H1054 0.950 1_655 S
C1066 C1065 1.398 . S
C1066 C1067 1.391 . S
C1067 H1055 0.950 . S
C1067 C1063 1.393 . S
C1067 C1066 1.391 . S
H1068 C1076 0.950 . S
H1069 C1081 0.950 . S
H1070 C1078 0.950 . S
H1071 C1080 0.950 . S
H1072 C1082 0.950 . S
H1073 C1084 0.950 . S
H1074 C1086 0.950 . S
H1075 C1087 0.950 . S
C1076 H1068 0.950 . S
C1076 C1077 1.386 . S
C1076 C1078 1.391 . S
C1077 C1076 1.386 . S
C1077 C1081 1.393 . S
C1078 H1070 0.950 . S
C1078 C1076 1.391 . S
C1078 C1079 1.400 . S
C1079 C1078 1.400 . S
C1079 C1080 1.398 . S
C1079 C1085 1.491 . S
C1080 H1071 0.950 . S
C1080 C1079 1.398 . S
C1080 C1081 1.391 . S
C1081 H1069 0.950 . S
C1081 C1077 1.393 . S
C1081 C1080 1.391 . S
C1082 H1072 0.950 . S
C1082 C1083 1.386 . S
C1082 C1084 1.391 . S
C1083 C1082 1.386 . S
C1083 C1087 1.393 . S
C1084 H1073 0.950 . S
C1084 C1082 1.391 . S
C1084 C1085 1.400 . S
C1085 C1079 1.491 . S
C1085 C1084 1.400 . S
C1085 C1086 1.398 . S
C1086 H1074 0.950 . S
C1086 C1085 1.398 . S
C1086 C1087 1.391 . S
C1087 H1075 0.950 . S
C1087 C1083 1.393 . S
C1087 C1086 1.391 . S
H1088 C1096 0.950 . S
H1089 C1101 0.950 . S
H1090 C1098 0.950 . S
H1091 C1100 0.950 . S
H1092 C1102 0.950 . S
H1093 C1104 0.950 . S
H1094 C1106 0.950 . S
H1095 C1107 0.950 . S
C1096 H1088 0.950 . S
C1096 C1097 1.386 . S
C1096 C1098 1.391 . S
C1097 C1096 1.386 . S
C1097 C1101 1.393 . S
C1098 H1090 0.950 . S
C1098 C1096 1.391 . S
C1098 C1099 1.400 . S
C1099 C1098 1.400 . S
C1099 C1100 1.398 . S
C1099 C1105 1.491 . S
C1100 H1091 0.950 . S
C1100 C1099 1.398 . S
C1100 C1101 1.391 . S
C1101 H1089 0.950 . S
C1101 C1097 1.393 . S
C1101 C1100 1.391 . S
C1102 H1092 0.950 . S
C1102 C1103 1.386 . S
C1102 C1104 1.391 . S
C1103 C1102 1.386 . S
C1103 C1107 1.393 . S
C1104 H1093 0.950 . S
C1104 C1102 1.391 . S
C1104 C1105 1.400 . S
C1105 C1099 1.491 . S
C1105 C1104 1.400 . S
C1105 C1106 1.398 . S
C1106 H1094 0.950 . S
C1106 C1105 1.398 . S
C1106 C1107 1.391 . S
C1107 H1095 0.950 . S
C1107 C1103 1.393 . S
C1107 C1106 1.391 . S
H1108 C1116 0.950 . S
H1109 C1121 0.950 . S
H1110 C1118 0.950 . S
H1111 C1120 0.950 . S
H1112 C1122 0.950 . S
H1113 C1124 0.950 . S
H1114 C1126 0.950 . S
H1115 C1127 0.950 . S
C1116 H1108 0.950 . S
C1116 C1117 1.386 . S
C1116 C1118 1.391 . S
C1117 C1116 1.386 . S
C1117 C1121 1.393 . S
C1118 H1110 0.950 . S
C1118 C1116 1.391 . S
C1118 C1119 1.400 . S
C1119 C1118 1.400 . S
C1119 C1120 1.398 . S
C1119 C1125 1.491 1_565 S
C1120 H1111 0.950 . S
C1120 C1119 1.398 . S
C1120 C1121 1.391 . S
C1121 H1109 0.950 . S
C1121 C1117 1.393 . S
C1121 C1120 1.391 . S
C1122 H1112 0.950 . S
C1122 C1123 1.386 . S
C1122 C1124 1.391 . S
C1123 C1122 1.386 . S
C1123 C1127 1.393 . S
C1124 H1113 0.950 . S
C1124 C1122 1.391 . S
C1124 C1125 1.400 . S
C1125 C1119 1.491 1_545 S
C1125 C1124 1.400 . S
C1125 C1126 1.398 . S
C1126 H1114 0.950 . S
C1126 C1125 1.398 . S
C1126 C1127 1.391 . S
C1127 H1115 0.950 . S
C1127 C1123 1.393 . S
C1127 C1126 1.391 . S
H1128 C1136 0.950 . S
H1129 C1141 0.950 . S
H1130 C1138 0.954 . S
H1131 C1140 0.950 . S
H1132 C1142 0.950 . S
H1133 C1144 0.951 . S
H1134 C1146 0.950 . S
H1135 C1147 0.950 . S
C1136 H1128 0.950 . S
C1136 C1137 1.386 . S
C1136 C1138 1.391 . S
C1137 C1136 1.386 . S
C1137 C1141 1.393 . S
C1138 H1130 0.954 . S
C1138 C1136 1.391 . S
C1138 C1139 1.400 . S
C1139 C1138 1.400 . S
C1139 C1140 1.398 1_565 S
C1139 C1145 1.491 1_665 S
C1140 H1131 0.950 . S
C1140 C1139 1.398 1_545 S
C1140 C1141 1.391 1_545 S
C1141 H1129 0.950 . S
C1141 C1137 1.393 . S
C1141 C1140 1.391 1_565 S
C1142 H1132 0.950 . S
C1142 C1143 1.386 . S
C1142 C1144 1.391 . S
C1143 C1142 1.386 . S
C1143 C1147 1.393 . S
C1144 H1133 0.951 . S
C1144 C1142 1.391 . S
C1144 C1145 1.400 . S
C1145 C1139 1.491 1_445 S
C1145 C1144 1.400 . S
C1145 C1146 1.398 1_545 S
C1146 H1134 0.950 . S
C1146 C1145 1.398 1_565 S
C1146 C1147 1.391 1_565 S
C1147 H1135 0.950 . S
C1147 C1143 1.393 . S
C1147 C1146 1.391 1_545 S
H1148 C1156 0.950 . S
H1149 C1161 0.950 . S
H1150 C1158 0.950 1_655 S
H1151 C1160 0.950 . S
H1152 C1162 0.950 . S
H1153 C1164 0.950 1_455 S
H1154 C1166 0.950 . S
H1155 C1167 0.950 . S
C1156 H1148 0.950 . S
C1156 C1157 1.386 . S
C1156 C1158 1.391 . S
C1157 C1156 1.386 . S
C1157 C1161 1.393 . S
C1158 H1150 0.950 1_455 S
C1158 C1156 1.391 . S
C1158 C1159 1.400 . S
C1159 C1158 1.400 . S
C1159 C1160 1.398 . S
C1159 C1165 1.491 1_455 S
C1160 H1151 0.950 . S
C1160 C1159 1.398 . S
C1160 C1161 1.391 . S
C1161 H1149 0.950 . S
C1161 C1157 1.393 . S
C1161 C1160 1.391 . S
C1162 H1152 0.950 . S
C1162 C1163 1.386 . S
C1162 C1164 1.391 . S
C1163 C1162 1.386 . S
C1163 C1167 1.393 . S
C1164 H1153 0.950 1_655 S
C1164 C1162 1.391 . S
C1164 C1165 1.400 . S
C1165 C1159 1.491 1_655 S
C1165 C1164 1.400 . S
C1165 C1166 1.398 . S
C1166 H1154 0.950 . S
C1166 C1165 1.398 . S
C1166 C1167 1.391 . S
C1167 H1155 0.950 . S
C1167 C1163 1.393 . S
C1167 C1166 1.391 . S
H1168 C1176 0.950 . S
H1169 C1181 0.950 . S
H1170 C1178 0.950 . S
H1171 C1180 0.950 . S
H1172 C1182 0.950 . S
H1173 C1184 0.950 . S
H1174 C1186 0.950 . S
H1175 C1187 0.950 . S
C1176 H1168 0.950 . S
C1176 C1177 1.386 . S
C1176 C1178 1.391 . S
C1177 C1176 1.386 . S
C1177 C1181 1.393 . S
C1178 H1170 0.950 . S
C1178 C1176 1.391 . S
C1178 C1179 1.400 . S
C1179 C1178 1.400 . S
C1179 C1180 1.398 . S
C1179 C1185 1.491 . S
C1180 H1171 0.950 . S
C1180 C1179 1.398 . S
C1180 C1181 1.391 . S
C1181 H1169 0.950 . S
C1181 C1177 1.393 . S
C1181 C1180 1.391 . S
C1182 H1172 0.950 . S
C1182 C1183 1.386 . S
C1182 C1184 1.391 . S
C1183 C1182 1.386 . S
C1183 C1187 1.393 . S
C1184 H1173 0.950 . S
C1184 C1182 1.391 . S
C1184 C1185 1.400 . S
C1185 C1179 1.491 . S
C1185 C1184 1.400 . S
C1185 C1186 1.398 . S
C1186 H1174 0.950 . S
C1186 C1185 1.398 . S
C1186 C1187 1.391 . S
C1187 H1175 0.950 . S
C1187 C1183 1.393 . S
C1187 C1186 1.391 . S
H1188 C1196 0.950 . S
H1189 C1201 0.952 . S
H1190 C1198 0.950 . S
H1191 C1200 0.948 1_455 S
H1192 C1202 0.950 . S
H1193 C1204 0.950 . S
H1194 C1206 0.950 . S
H1195 C1207 0.950 . S
C1196 H1188 0.950 . S
C1196 C1197 1.386 . S
C1196 C1198 1.391 . S
C1197 C1196 1.386 . S
C1197 C1201 1.391 1_655 S
C1198 H1190 0.950 . S
C1198 C1196 1.391 . S
C1198 C1199 1.400 . S
C1199 C1198 1.400 . S
C1199 C1200 1.400 . S
C1199 C1205 1.491 . S
C1200 H1191 0.948 1_655 S
C1200 C1199 1.400 . S
C1200 C1201 1.391 1_655 S
C1201 H1189 0.952 . S
C1201 C1197 1.391 1_455 S
C1201 C1200 1.391 1_455 S
C1202 H1192 0.950 . S
C1202 C1203 1.386 1_455 S
C1202 C1204 1.391 . S
C1203 C1202 1.386 1_655 S
C1203 C1207 1.393 . S
C1204 H1193 0.950 . S
C1204 C1202 1.391 . S
C1204 C1205 1.400 1_455 S
C1205 C1199 1.491 . S
C1205 C1204 1.400 1_655 S
C1205 C1206 1.398 . S
C1206 H1194 0.950 . S
C1206 C1205 1.398 . S
C1206 C1207 1.391 . S
C1207 H1195 0.950 . S
C1207 C1203 1.393 . S
C1207 C1206 1.391 . S
H1208 C1216 0.950 . S
H1209 C1221 0.950 . S
H1210 C1218 0.950 . S
H1211 C1220 0.950 . S
H1212 C1222 0.950 . S
H1213 C1224 0.950 . S
H1214 C1226 0.950 . S
H1215 C1227 0.950 . S
C1216 H1208 0.950 . S
C1216 C1217 1.386 . S
C1216 C1218 1.391 . S
C1217 C1216 1.386 . S
C1217 C1221 1.393 . S
C1218 H1210 0.950 . S
C1218 C1216 1.391 . S
C1218 C1219 1.400 . S
C1219 C1218 1.400 . S
C1219 C1220 1.398 . S
C1219 C1225 1.491 . S
C1220 H1211 0.950 . S
C1220 C1219 1.398 . S
C1220 C1221 1.391 . S
C1221 H1209 0.950 . S
C1221 C1217 1.393 . S
C1221 C1220 1.391 . S
C1222 H1212 0.950 . S
C1222 C1223 1.386 . S
C1222 C1224 1.391 . S
C1223 C1222 1.386 . S
C1223 C1227 1.393 . S
C1224 H1213 0.950 . S
C1224 C1222 1.391 . S
C1224 C1225 1.400 . S
C1225 C1219 1.491 . S
C1225 C1224 1.400 . S
C1225 C1226 1.398 . S
C1226 H1214 0.950 . S
C1226 C1225 1.398 . S
C1226 C1227 1.391 . S
C1227 H1215 0.950 . S
C1227 C1223 1.393 . S
C1227 C1226 1.391 . S
H1228 C1236 0.950 . S
H1229 C1241 0.950 . S
H1230 C1238 0.950 . S
H1231 C1240 0.950 . S
H1232 C1242 0.950 . S
H1233 C1244 0.950 . S
H1234 C1246 0.950 . S
H1235 C1247 0.950 . S
C1236 H1228 0.950 . S
C1236 C1237 1.386 . S
C1236 C1238 1.391 . S
C1237 C1236 1.386 . S
C1237 C1241 1.393 . S
C1238 H1230 0.950 . S
C1238 C1236 1.391 . S
C1238 C1239 1.400 . S
C1239 C1238 1.400 . S
C1239 C1240 1.398 . S
C1239 C1245 1.491 . S
C1240 H1231 0.950 . S
C1240 C1239 1.398 . S
C1240 C1241 1.391 . S
C1241 H1229 0.950 . S
C1241 C1237 1.393 . S
C1241 C1240 1.391 . S
C1242 H1232 0.950 . S
C1242 C1243 1.386 . S
C1242 C1244 1.391 . S
C1243 C1242 1.386 . S
C1243 C1247 1.393 . S
C1244 H1233 0.950 . S
C1244 C1242 1.391 . S
C1244 C1245 1.400 . S
C1245 C1239 1.491 . S
C1245 C1244 1.400 . S
C1245 C1246 1.398 . S
C1246 H1234 0.950 . S
C1246 C1245 1.398 . S
C1246 C1247 1.391 . S
C1247 H1235 0.950 . S
C1247 C1243 1.393 . S
C1247 C1246 1.391 . S
H1248 C1256 0.950 . S
H1249 C1261 0.950 . S
H1250 C1258 0.950 . S
H1251 C1260 0.950 . S
H1252 C1262 0.950 . S
H1253 C1264 0.950 . S
H1254 C1266 0.950 . S
H1255 C1267 0.950 . S
C1256 H1248 0.950 . S
C1256 C1257 1.386 . S
C1256 C1258 1.391 . S
C1257 C1256 1.386 . S
C1257 C1261 1.393 . S
C1258 H1250 0.950 . S
C1258 C1256 1.391 . S
C1258 C1259 1.400 . S
C1259 C1258 1.400 . S
C1259 C1260 1.398 . S
C1259 C1265 1.491 . S
C1260 H1251 0.950 . S
C1260 C1259 1.398 . S
C1260 C1261 1.391 . S
C1261 H1249 0.950 . S
C1261 C1257 1.393 . S
C1261 C1260 1.391 . S
C1262 H1252 0.950 . S
C1262 C1263 1.386 . S
C1262 C1264 1.391 . S
C1263 C1262 1.386 . S
C1263 C1267 1.393 . S
C1264 H1253 0.950 . S
C1264 C1262 1.391 . S
C1264 C1265 1.400 . S
C1265 C1259 1.491 . S
C1265 C1264 1.400 . S
C1265 C1266 1.398 . S
C1266 H1254 0.950 . S
C1266 C1265 1.398 . S
C1266 C1267 1.391 . S
C1267 H1255 0.950 . S
C1267 C1263 1.393 . S
C1267 C1266 1.391 . S
H1268 C1276 0.950 . S
H1269 C1281 0.950 . S
H1270 C1278 0.950 . S
H1271 C1280 0.950 . S
H1272 C1282 0.950 . S
H1273 C1284 0.950 . S
H1274 C1286 0.950 . S
H1275 C1287 0.950 . S
C1276 H1268 0.950 . S
C1276 C1277 1.386 . S
C1276 C1278 1.391 . S
C1277 C1276 1.386 . S
C1277 C1281 1.393 . S
C1278 H1270 0.950 . S
C1278 C1276 1.391 . S
C1278 C1279 1.400 . S
C1279 C1278 1.400 . S
C1279 C1280 1.398 . S
C1279 C1285 1.491 . S
C1280 H1271 0.950 . S
C1280 C1279 1.398 . S
C1280 C1281 1.391 . S
C1281 H1269 0.950 . S
C1281 C1277 1.393 . S
C1281 C1280 1.391 . S
C1282 H1272 0.950 . S
C1282 C1283 1.386 . S
C1282 C1284 1.391 . S
C1283 C1282 1.386 . S
C1283 C1287 1.393 . S
C1284 H1273 0.950 . S
C1284 C1282 1.391 . S
C1284 C1285 1.400 . S
C1285 C1279 1.491 . S
C1285 C1284 1.400 . S
C1285 C1286 1.398 . S
C1286 H1274 0.950 . S
C1286 C1285 1.398 . S
C1286 C1287 1.391 . S
C1287 H1275 0.950 . S
C1287 C1283 1.393 . S
C1287 C1286 1.391 . S
H1288 C1296 0.950 . S
H1289 C1301 0.950 . S
H1290 C1298 0.950 . S
H1291 C1300 0.950 . S
H1292 C1302 0.950 . S
H1293 C1304 0.950 . S
H1294 C1306 0.950 . S
H1295 C1307 0.950 . S
C1296 H1288 0.950 . S
C1296 C1297 1.386 . S
C1296 C1298 1.391 . S
C1297 C1296 1.386 . S
C1297 C1301 1.393 . S
C1298 H1290 0.950 . S
C1298 C1296 1.391 . S
C1298 C1299 1.400 . S
C1299 C1298 1.400 . S
C1299 C1300 1.398 . S
C1299 C1305 1.491 . S
C1300 H1291 0.950 . S
C1300 C1299 1.398 . S
C1300 C1301 1.391 . S
C1301 H1289 0.950 . S
C1301 C1297 1.393 . S
C1301 C1300 1.391 . S
C1302 H1292 0.950 . S
C1302 C1303 1.386 . S
C1302 C1304 1.391 . S
C1303 C1302 1.386 . S
C1303 C1307 1.393 . S
C1304 H1293 0.950 . S
C1304 C1302 1.391 . S
C1304 C1305 1.400 . S
C1305 C1299 1.491 . S
C1305 C1304 1.400 . S
C1305 C1306 1.398 . S
C1306 H1294 0.950 . S
C1306 C1305 1.398 . S
C1306 C1307 1.391 . S
C1307 H1295 0.950 . S
C1307 C1303 1.393 . S
C1307 C1306 1.391 . S
H1308 C1316 0.950 . S
H1309 C1321 0.950 . S
H1310 C1318 0.950 . S
H1311 C1320 0.950 . S
H1312 C1322 0.950 . S
H1313 C1324 0.950 . S
H1314 C1326 0.950 . S
H1315 C1327 0.950 . S
C1316 H1308 0.950 . S
C1316 C1317 1.386 . S
C1316 C1318 1.391 . S
C1317 C1316 1.386 . S
C1317 C1321 1.393 . S
C1318 H1310 0.950 . S
C1318 C1316 1.391 . S
C1318 C1319 1.400 . S
C1319 C1318 1.400 . S
C1319 C1320 1.398 . S
C1319 C1325 1.491 . S
C1320 H1311 0.950 . S
C1320 C1319 1.398 . S
C1320 C1321 1.391 . S
C1321 H1309 0.950 . S
C1321 C1317 1.393 . S
C1321 C1320 1.391 . S
C1322 H1312 0.950 . S
C1322 C1323 1.386 . S
C1322 C1324 1.391 . S
C1323 C1322 1.386 . S
C1323 C1327 1.393 . S
C1324 H1313 0.950 . S
C1324 C1322 1.391 . S
C1324 C1325 1.400 . S
C1325 C1319 1.491 . S
C1325 C1324 1.400 . S
C1325 C1326 1.398 . S
C1326 H1314 0.950 . S
C1326 C1325 1.398 . S
C1326 C1327 1.391 . S
C1327 H1315 0.950 . S
C1327 C1323 1.393 . S
C1327 C1326 1.391 . S
H1328 C1336 0.950 . S
H1329 C1341 0.950 . S
H1330 C1338 0.950 . S
H1331 C1340 0.950 . S
H1332 C1342 0.950 . S
H1333 C1344 0.950 . S
H1334 C1346 0.950 . S
H1335 C1347 0.950 . S
C1336 H1328 0.950 . S
C1336 C1337 1.386 . S
C1336 C1338 1.391 . S
C1337 C1336 1.386 . S
C1337 C1341 1.393 . S
C1338 H1330 0.950 . S
C1338 C1336 1.391 . S
C1338 C1339 1.400 . S
C1339 C1338 1.400 . S
C1339 C1340 1.398 . S
C1339 C1345 1.491 . S
C1340 H1331 0.950 . S
C1340 C1339 1.398 . S
C1340 C1341 1.391 . S
C1341 H1329 0.950 . S
C1341 C1337 1.393 . S
C1341 C1340 1.391 . S
C1342 H1332 0.950 . S
C1342 C1343 1.386 . S
C1342 C1344 1.391 . S
C1343 C1342 1.386 . S
C1343 C1347 1.393 . S
C1344 H1333 0.950 . S
C1344 C1342 1.391 . S
C1344 C1345 1.400 . S
C1345 C1339 1.491 . S
C1345 C1344 1.400 . S
C1345 C1346 1.398 . S
C1346 H1334 0.950 . S
C1346 C1345 1.398 . S
C1346 C1347 1.391 . S
C1347 H1335 0.950 . S
C1347 C1343 1.393 . S
C1347 C1346 1.391 . S
H1348 C1356 0.950 . S
H1349 C1361 0.950 . S
H1350 C1358 0.950 . S
H1351 C1360 0.950 . S
H1352 C1362 0.950 . S
H1353 C1364 0.950 . S
H1354 C1366 0.950 . S
H1355 C1367 0.950 . S
C1356 H1348 0.950 . S
C1356 C1357 1.386 . S
C1356 C1358 1.391 . S
C1357 C1356 1.386 . S
C1357 C1361 1.393 . S
C1358 H1350 0.950 . S
C1358 C1356 1.391 . S
C1358 C1359 1.400 . S
C1359 C1358 1.400 . S
C1359 C1360 1.398 . S
C1359 C1365 1.491 . S
C1360 H1351 0.950 . S
C1360 C1359 1.398 . S
C1360 C1361 1.391 . S
C1361 H1349 0.950 . S
C1361 C1357 1.393 . S
C1361 C1360 1.391 . S
C1362 H1352 0.950 . S
C1362 C1363 1.386 . S
C1362 C1364 1.391 . S
C1363 C1362 1.386 . S
C1363 C1367 1.393 . S
C1364 H1353 0.950 . S
C1364 C1362 1.391 . S
C1364 C1365 1.400 . S
C1365 C1359 1.491 . S
C1365 C1364 1.400 . S
C1365 C1366 1.398 . S
C1366 H1354 0.950 . S
C1366 C1365 1.398 . S
C1366 C1367 1.391 . S
C1367 H1355 0.950 . S
C1367 C1363 1.393 . S
C1367 C1366 1.391 . S
H1368 C1376 0.950 . S
H1369 C1381 0.950 . S
H1370 C1378 0.950 . S
H1371 C1380 0.950 . S
H1372 C1382 0.950 . S
H1373 C1384 0.950 . S
H1374 C1386 0.950 . S
H1375 C1387 0.950 . S
C1376 H1368 0.950 . S
C1376 C1377 1.386 . S
C1376 C1378 1.391 . S
C1377 C1376 1.386 . S
C1377 C1381 1.393 . S
C1378 H1370 0.950 . S
C1378 C1376 1.391 . S
C1378 C1379 1.400 . S
C1379 C1378 1.400 . S
C1379 C1380 1.398 . S
C1379 C1385 1.491 . S
C1380 H1371 0.950 . S
C1380 C1379 1.398 . S
C1380 C1381 1.391 . S
C1381 H1369 0.950 . S
C1381 C1377 1.393 . S
C1381 C1380 1.391 . S
C1382 H1372 0.950 . S
C1382 C1383 1.386 . S
C1382 C1384 1.391 . S
C1383 C1382 1.386 . S
C1383 C1387 1.393 . S
C1384 H1373 0.950 . S
C1384 C1382 1.391 . S
C1384 C1385 1.400 . S
C1385 C1379 1.491 . S
C1385 C1384 1.400 . S
C1385 C1386 1.398 . S
C1386 H1374 0.950 . S
C1386 C1385 1.398 . S
C1386 C1387 1.391 . S
C1387 H1375 0.950 . S
C1387 C1383 1.393 . S
C1387 C1386 1.391 . S
H1388 C1396 0.950 . S
H1389 C1401 0.950 . S
H1390 C1398 0.950 . S
H1391 C1400 0.950 . S
H1392 C1402 0.950 . S
H1393 C1404 0.950 1_556 S
H1394 C1406 0.950 . S
H1395 C1407 0.950 . S
C1396 H1388 0.950 . S
C1396 C1397 1.386 . S
C1396 C1398 1.391 . S
C1397 C1396 1.386 . S
C1397 C1401 1.393 . S
C1398 H1390 0.950 . S
C1398 C1396 1.391 . S
C1398 C1399 1.400 . S
C1399 C1398 1.400 . S
C1399 C1400 1.398 . S
C1399 C1405 1.436 1_556 S
C1400 H1391 0.950 . S
C1400 C1399 1.398 . S
C1400 C1401 1.391 . S
C1401 H1389 0.950 . S
C1401 C1397 1.393 . S
C1401 C1400 1.391 . S
C1402 H1392 0.950 . S
C1402 C1403 1.386 . S
C1402 C1404 1.391 . S
C1403 C1402 1.386 . S
C1403 C1407 1.393 . S
C1404 H1393 0.950 1_554 S
C1404 C1402 1.391 . S
C1404 C1405 1.413 . S
C1405 C1399 1.436 1_554 S
C1405 C1404 1.413 . S
C1405 C1406 1.447 . S
C1406 H1394 0.950 . S
C1406 C1405 1.447 . S
C1406 C1407 1.391 . S
C1407 H1395 0.950 . S
C1407 C1403 1.393 . S
C1407 C1406 1.391 . S
H1408 C1416 0.950 . S
H1409 C1421 0.950 . S
H1410 C1418 0.873 1_556 S
H1411 C1420 0.950 . S
H1412 C1422 0.950 . S
H1413 C1424 0.950 . S
H1414 C1426 0.950 . S
H1415 C1427 0.950 . S
C1416 H1408 0.950 . S
C1416 C1417 1.386 . S
C1416 C1418 1.478 . S
C1417 C1416 1.386 . S
C1417 C1421 1.393 . S
C1418 H1410 0.873 1_554 S
C1418 C1416 1.478 . S
C1418 C1419 1.398 . S
C1419 C1418 1.398 . S
C1419 C1420 1.429 . S
C1419 C1425 1.459 1_554 S
C1420 H1411 0.950 . S
C1420 C1419 1.429 . S
C1420 C1421 1.391 . S
C1421 H1409 0.950 . S
C1421 C1417 1.393 . S
C1421 C1420 1.391 . S
C1422 H1412 0.950 . S
C1422 C1423 1.386 . S
C1422 C1424 1.391 . S
C1423 C1422 1.386 . S
C1423 C1427 1.393 . S
C1424 H1413 0.950 . S
C1424 C1422 1.391 . S
C1424 C1425 1.400 . S
C1425 C1419 1.459 1_556 S
C1425 C1424 1.400 . S
C1425 C1426 1.398 . S
C1426 H1414 0.950 . S
C1426 C1425 1.398 . S
C1426 C1427 1.391 . S
C1427 H1415 0.950 . S
C1427 C1423 1.393 . S
C1427 C1426 1.391 . S
H1428 C1436 0.950 . S
H1429 C1441 0.950 . S
H1430 C1438 0.950 . S
H1431 C1440 0.950 . S
H1432 C1442 0.950 . S
H1433 C1444 0.950 . S
H1434 C1446 0.950 . S
H1435 C1447 0.950 . S
C1436 H1428 0.950 . S
C1436 C1437 1.386 . S
C1436 C1438 1.391 . S
C1437 C1436 1.386 . S
C1437 C1441 1.393 . S
C1438 H1430 0.950 . S
C1438 C1436 1.391 . S
C1438 C1439 1.400 . S
C1439 C1438 1.400 . S
C1439 C1440 1.398 . S
C1439 C1445 1.491 . S
C1440 H1431 0.950 . S
C1440 C1439 1.398 . S
C1440 C1441 1.391 . S
C1441 H1429 0.950 . S
C1441 C1437 1.393 . S
C1441 C1440 1.391 . S
C1442 H1432 0.950 . S
C1442 C1443 1.386 . S
C1442 C1444 1.391 . S
C1443 C1442 1.386 . S
C1443 C1447 1.393 . S
C1444 H1433 0.950 . S
C1444 C1442 1.391 . S
C1444 C1445 1.400 . S
C1445 C1439 1.491 . S
C1445 C1444 1.400 . S
C1445 C1446 1.398 . S
C1446 H1434 0.950 . S
C1446 C1445 1.398 . S
C1446 C1447 1.391 . S
C1447 H1435 0.950 . S
C1447 C1443 1.393 . S
C1447 C1446 1.391 . S
H1448 C1456 0.950 . S
H1449 C1461 0.950 . S
H1450 C1458 0.950 . S
H1451 C1460 0.950 . S
H1452 C1462 0.950 . S
H1453 C1464 0.950 . S
H1454 C1466 0.950 . S
H1455 C1467 0.950 . S
C1456 H1448 0.950 . S
C1456 C1457 1.386 . S
C1456 C1458 1.391 . S
C1457 C1456 1.386 . S
C1457 C1461 1.393 . S
C1458 H1450 0.950 . S
C1458 C1456 1.391 . S
C1458 C1459 1.400 . S
C1459 C1458 1.400 . S
C1459 C1460 1.398 . S
C1459 C1465 1.491 . S
C1460 H1451 0.950 . S
C1460 C1459 1.398 . S
C1460 C1461 1.391 . S
C1461 H1449 0.950 . S
C1461 C1457 1.393 . S
C1461 C1460 1.391 . S
C1462 H1452 0.950 . S
C1462 C1463 1.386 . S
C1462 C1464 1.391 . S
C1463 C1462 1.386 . S
C1463 C1467 1.393 . S
C1464 H1453 0.950 . S
C1464 C1462 1.391 . S
C1464 C1465 1.400 . S
C1465 C1459 1.491 . S
C1465 C1464 1.400 . S
C1465 C1466 1.398 . S
C1466 H1454 0.950 . S
C1466 C1465 1.398 . S
C1466 C1467 1.391 . S
C1467 H1455 0.950 . S
C1467 C1463 1.393 . S
C1467 C1466 1.391 . S
H1468 C1476 0.950 . S
H1469 C1481 0.950 . S
H1470 C1478 0.950 . S
H1471 C1480 0.950 . S
H1472 C1482 0.950 . S
H1473 C1484 0.950 . S
H1474 C1486 0.950 . S
H1475 C1487 0.950 . S
C1476 H1468 0.950 . S
C1476 C1477 1.386 . S
C1476 C1478 1.391 . S
C1477 C1476 1.386 . S
C1477 C1481 1.393 . S
C1478 H1470 0.950 . S
C1478 C1476 1.391 . S
C1478 C1479 1.400 . S
C1479 C1478 1.400 . S
C1479 C1480 1.398 . S
C1479 C1485 1.491 . S
C1480 H1471 0.950 . S
C1480 C1479 1.398 . S
C1480 C1481 1.391 . S
C1481 H1469 0.950 . S
C1481 C1477 1.393 . S
C1481 C1480 1.391 . S
C1482 H1472 0.950 . S
C1482 C1483 1.386 . S
C1482 C1484 1.391 . S
C1483 C1482 1.386 . S
C1483 C1487 1.393 . S
C1484 H1473 0.950 . S
C1484 C1482 1.391 . S
C1484 C1485 1.400 . S
C1485 C1479 1.491 . S
C1485 C1484 1.400 . S
C1485 C1486 1.398 . S
C1486 H1474 0.950 . S
C1486 C1485 1.398 . S
C1486 C1487 1.391 . S
C1487 H1475 0.950 . S
C1487 C1483 1.393 . S
C1487 C1486 1.391 . S
C857 C569 2.381 . S
C863 C39 2.384 . S
C877 C75 2.138 . S
C883 C605 2.136 . S
C897 C463 2.379 . S
C903 C145 2.382 . S
C917 C499 2.140 . S
C923 C181 2.139 . S
C937 C251 2.392 . S
C943 C781 2.390 . S
C957 C817 2.139 . S
C963 C287 2.140 . S
C977 C357 2.392 . S
C983 C675 2.390 . S
C997 C711 2.137 . S
C1003 C393 2.134 . S
C1017 C568 1.256 . S
C1023 C38 1.261 . S
C1037 C82 0.978 . S
C1043 C612 0.982 . S
C1057 C144 1.267 . S
C1063 C462 1.261 . S
C1077 C188 1.004 . S
C1083 C506 1.000 . S
C1097 C250 1.283 . S
C1103 C780 1.281 . S
C1117 C294 0.976 . S
C1123 C824 0.976 . S
C1137 C674 1.256 . S
C1143 C356 1.261 . S
C1157 C718 0.977 . S
C1163 C400 0.975 . S
C1177 C22 1.913 . S
C1183 C340 1.920 . S
C1197 C92 1.822 . S
C1203 C410 1.826 . S
C1217 C128 1.908 . S
C1223 C234 1.903 . S
C1237 C198 1.811 . S
C1243 C304 1.808 . S
C1257 C446 1.918 . S
C1263 C764 1.911 . S
C1277 C834 1.814 . S
C1283 C516 1.809 . S
C1297 C552 1.913 . S
C1303 C658 1.920 . S
C1317 C728 1.816 . S
C1323 C622 1.810 . S
C1337 C29 1.902 . S
C1343 C833 1.911 . S
C1357 C665 1.892 . S
C1363 C91 1.899 . S
C1377 C727 1.910 . S
C1383 C135 1.906 . S
C1397 C771 1.891 . S
C1403 C197 1.899 . S
C1417 C515 1.910 . S
C1423 C241 1.906 . S
C1437 C559 1.891 . S
C1443 C303 1.901 . S
C1457 C347 1.903 . S
C1463 C621 1.912 . S
C1477 C409 1.911 . S
C1483 C453 1.902 . S
