# Generated by pormake.
# Topology cag, (4)-cn, num edge types: 1
# Building blocks:
#     Node 0, Type 0, BuildingBlock: CEKHIL_clean_sbu_0, # of connection points: 4
#     Node 1, Type 0, BuildingBlock: CEKHIL_clean_sbu_0, # of connection points: 4
#     Node 2, Type 0, BuildingBlock: CEKHIL_clean_sbu_0, # of connection points: 4
#     Node 3, Type 0, BuildingBlock: CEKHIL_clean_sbu_0, # of connection points: 4
#     Node 4, Type 0, BuildingBlock: CEKHIL_clean_sbu_0, # of connection points: 4
#     Node 5, Type 0, BuildingBlock: CEKHIL_clean_sbu_0, # of connection points: 4
#     Node 6, Type 0, BuildingBlock: CEKHIL_clean_sbu_0, # of connection points: 4
#     Node 7, Type 0, BuildingBlock: CEKHIL_clean_sbu_0, # of connection points: 4
#     Node 8, Type 0, BuildingBlock: CEKHIL_clean_sbu_0, # of connection points: 4
#     Node 9, Type 0, BuildingBlock: CEKHIL_clean_sbu_0, # of connection points: 4
#     Node 10, Type 0, BuildingBlock: CEKHIL_clean_sbu_0, # of connection points: 4
#     Node 11, Type 0, BuildingBlock: CEKHIL_clean_sbu_0, # of connection points: 4
#     Node 12, Type 0, BuildingBlock: CEKHIL_clean_sbu_0, # of connection points: 4
#     Node 13, Type 0, BuildingBlock: CEKHIL_clean_sbu_0, # of connection points: 4
#     Node 14, Type 0, BuildingBlock: CEKHIL_clean_sbu_0, # of connection points: 4
#     Node 15, Type 0, BuildingBlock: CEKHIL_clean_sbu_0, # of connection points: 4
#     Edge 16, Type (0, 0), BuildingBlock: AJUNOK_clean_linker_0, # of connection points: 2
#     Edge 17, Type (0, 0), BuildingBlock: AJUNOK_clean_linker_0, # of connection points: 2
#     Edge 18, Type (0, 0), BuildingBlock: AJUNOK_clean_linker_0, # of connection points: 2
#     Edge 19, Type (0, 0), BuildingBlock: AJUNOK_clean_linker_0, # of connection points: 2
#     Edge 20, Type (0, 0), BuildingBlock: AJUNOK_clean_linker_0, # of connection points: 2
#     Edge 21, Type (0, 0), BuildingBlock: AJUNOK_clean_linker_0, # of connection points: 2
#     Edge 22, Type (0, 0), BuildingBlock: AJUNOK_clean_linker_0, # of connection points: 2
#     Edge 23, Type (0, 0), BuildingBlock: AJUNOK_clean_linker_0, # of connection points: 2
#     Edge 24, Type (0, 0), BuildingBlock: AJUNOK_clean_linker_0, # of connection points: 2
#     Edge 25, Type (0, 0), BuildingBlock: AJUNOK_clean_linker_0, # of connection points: 2
#     Edge 26, Type (0, 0), BuildingBlock: AJUNOK_clean_linker_0, # of connection points: 2
#     Edge 27, Type (0, 0), BuildingBlock: AJUNOK_clean_linker_0, # of connection points: 2
#     Edge 28, Type (0, 0), BuildingBlock: AJUNOK_clean_linker_0, # of connection points: 2
#     Edge 29, Type (0, 0), BuildingBlock: AJUNOK_clean_linker_0, # of connection points: 2
#     Edge 30, Type (0, 0), BuildingBlock: AJUNOK_clean_linker_0, # of connection points: 2
#     Edge 31, Type (0, 0), BuildingBlock: AJUNOK_clean_linker_0, # of connection points: 2
#     Edge 32, Type (0, 0), BuildingBlock: AJUNOK_clean_linker_0, # of connection points: 2
#     Edge 33, Type (0, 0), BuildingBlock: AJUNOK_clean_linker_0, # of connection points: 2
#     Edge 34, Type (0, 0), BuildingBlock: AJUNOK_clean_linker_0, # of connection points: 2
#     Edge 35, Type (0, 0), BuildingBlock: AJUNOK_clean_linker_0, # of connection points: 2
#     Edge 36, Type (0, 0), BuildingBlock: AJUNOK_clean_linker_0, # of connection points: 2
#     Edge 37, Type (0, 0), BuildingBlock: AJUNOK_clean_linker_0, # of connection points: 2
#     Edge 38, Type (0, 0), BuildingBlock: AJUNOK_clean_linker_0, # of connection points: 2
#     Edge 39, Type (0, 0), BuildingBlock: AJUNOK_clean_linker_0, # of connection points: 2
#     Edge 40, Type (0, 0), BuildingBlock: AJUNOK_clean_linker_0, # of connection points: 2
#     Edge 41, Type (0, 0), BuildingBlock: AJUNOK_clean_linker_0, # of connection points: 2
#     Edge 42, Type (0, 0), BuildingBlock: AJUNOK_clean_linker_0, # of connection points: 2
#     Edge 43, Type (0, 0), BuildingBlock: AJUNOK_clean_linker_0, # of connection points: 2
#     Edge 44, Type (0, 0), BuildingBlock: AJUNOK_clean_linker_0, # of connection points: 2
#     Edge 45, Type (0, 0), BuildingBlock: AJUNOK_clean_linker_0, # of connection points: 2
#     Edge 46, Type (0, 0), BuildingBlock: AJUNOK_clean_linker_0, # of connection points: 2
#     Edge 47, Type (0, 0), BuildingBlock: AJUNOK_clean_linker_0, # of connection points: 2
# Relax obj value: 0.093
# Max RMSD: 0.131
# Mean RMSD: 0.130
data_MOF--net-cag--node1-CEKHIL_clean_sbu_0--edge1-AJUNOK_clean_linker_0
_symmetry_space_group_name_H-M    P1
_symmetry_Int_Tables_number       1
_symmetry_cell_setting            triclinic
loop_
_symmetry_equiv_pos_as_xyz
'x, y, z'
_cell_length_a     32.3459
_cell_length_b     35.397557
_cell_length_c     29.311379
_cell_angle_alpha  89.946999
_cell_angle_beta   89.988953
_cell_angle_gamma 90.036324
loop_
_atom_site_label
_atom_site_type_symbol
_atom_site_fract_x
_atom_site_fract_y
_atom_site_fract_z
_atom_type_partial_charge
Co0 Co 0.32248 0.14193 0.07675 0.0
O1 O 0.26751 0.15548 0.0555 0.0
O2 O 0.32221 0.19276 0.05295 0.0
C3 C 0.32466 0.08443 0.04317 0.0
O4 O 0.38455 0.13914 0.09037 0.0
Co5 Co 0.34307 0.07391 0.13912 0.0
O6 O 0.40139 0.08373 0.12273 0.0
C7 C 0.30246 0.14129 0.17839 0.0
C8 C 0.28343 0.18773 0.04337 0.0
C9 C 0.41151 0.11497 0.10436 0.0
O10 O 0.3076 0.15991 0.14085 0.0
O11 O 0.31223 0.10651 0.18317 0.0
O12 O 0.33255 0.11484 0.01982 0.0
O13 O 0.31324 0.08982 0.08488 0.0
Co14 Co 0.19302 0.87288 0.57877 0.0
O15 O 0.24814 0.86054 0.55701 0.0
O16 O 0.19368 0.82315 0.55174 0.0
C17 C 0.1906 0.93187 0.54875 0.0
O18 O 0.13085 0.87482 0.59239 0.0
Co19 Co 0.17188 0.93768 0.64524 0.0
O20 O 0.11372 0.92867 0.62803 0.0
C21 C 0.21241 0.86896 0.68064 0.0
C22 C 0.2325 0.82878 0.54283 0.0
C23 C 0.10374 0.89823 0.60782 0.0
O24 O 0.20782 0.85212 0.64182 0.0
O25 O 0.2023 0.90338 0.68757 0.0
O26 O 0.183 0.90249 0.52352 0.0
O27 O 0.20199 0.92465 0.59008 0.0
Co28 Co 0.32286 0.87211 0.94113 0.0
O29 O 0.26728 0.86005 0.96179 0.0
O30 O 0.32139 0.82246 0.96848 0.0
C31 C 0.32518 0.93124 0.97065 0.0
O32 O 0.3853 0.87374 0.92884 0.0
Co33 Co 0.34545 0.93651 0.87445 0.0
O34 O 0.40331 0.92718 0.89261 0.0
C35 C 0.30449 0.86805 0.83909 0.0
C36 C 0.28243 0.82822 0.97641 0.0
C37 C 0.41277 0.8969 0.9135 0.0
O38 O 0.30887 0.8512 0.87796 0.0
O39 O 0.31472 0.90246 0.83214 0.0
O40 O 0.33213 0.90194 0.99633 0.0
O41 O 0.31443 0.92385 0.92918 0.0
Co42 Co 0.19192 0.14222 0.44113 0.0
O43 O 0.24694 0.15593 0.46206 0.0
O44 O 0.19198 0.19294 0.4651 0.0
C45 C 0.19003 0.08473 0.47487 0.0
O46 O 0.12986 0.13923 0.42773 0.0
Co47 Co 0.17125 0.07418 0.37898 0.0
O48 O 0.11288 0.08403 0.39505 0.0
C49 C 0.21177 0.14164 0.33952 0.0
C50 C 0.23076 0.18792 0.47462 0.0
C51 C 0.10284 0.1152 0.41355 0.0
O52 O 0.20652 0.1603 0.37696 0.0
O53 O 0.20222 0.10679 0.33492 0.0
O54 O 0.1821 0.11512 0.49813 0.0
O55 O 0.20129 0.0901 0.43308 0.0
Co56 Co 0.6773 0.88474 0.91567 0.0
O57 O 0.7317 0.89 0.88663 0.0
O58 O 0.67472 0.87262 0.85152 0.0
C59 C 0.6783 0.93982 0.95621 0.0
O60 O 0.61529 0.87844 0.92706 0.0
Co61 Co 0.65523 0.88053 0.01804 0.0
O62 O 0.59673 0.88657 0.99992 0.0
C63 C 0.69519 0.81524 0.97353 0.0
C64 C 0.71365 0.8806 0.84848 0.0
C65 C 0.58747 0.88221 0.95811 0.0
O66 O 0.69068 0.83028 0.93353 0.0
O67 O 0.68532 0.83184 0.01065 0.0
O68 O 0.66949 0.93989 0.91284 0.0
O69 O 0.68821 0.90734 0.97277 0.0
Co70 Co 0.83815 0.13269 0.4149 0.0
O71 O 0.78295 0.12895 0.38816 0.0
O72 O 0.8389 0.14658 0.35099 0.0
C73 C 0.83739 0.07641 0.45255 0.0
O74 O 0.90048 0.13768 0.42511 0.0
Co75 Co 0.86094 0.13338 0.51767 0.0
O76 O 0.91893 0.12695 0.49771 0.0
C77 C 0.82284 0.20103 0.47577 0.0
C78 C 0.79971 0.13913 0.34961 0.0
C79 C 0.92814 0.13233 0.45603 0.0
O80 O 0.82624 0.18674 0.43529 0.0
O81 O 0.83275 0.18333 0.5122 0.0
O82 O 0.84511 0.07784 0.40899 0.0
O83 O 0.82806 0.10828 0.47115 0.0
Co84 Co 0.67584 0.13242 0.10689 0.0
O85 O 0.73029 0.12877 0.13589 0.0
O86 O 0.67311 0.14635 0.17053 0.0
C87 C 0.67758 0.07619 0.06924 0.0
O88 O 0.61382 0.1373 0.09486 0.0
Co89 Co 0.65511 0.13313 1.00367 0.0
O90 O 0.5966 0.1267 0.02194 0.0
C91 C 0.69219 0.20083 0.04647 0.0
C92 C 0.71216 0.13885 0.17372 0.0
C93 C 0.58666 0.132 0.06343 0.0
O94 O 0.68813 0.18651 0.08687 0.0
O95 O 0.68318 0.18312 1.00981 0.0
O96 O 0.66881 0.07753 0.11256 0.0
O97 O 0.68731 0.1081 0.0509 0.0
Co98 Co 0.83868 0.88483 0.60606 0.0
O99 O 0.78364 0.88964 0.63313 0.0
O100 O 0.83975 0.8731 0.67061 0.0
C101 C 0.83788 0.93976 0.56521 0.0
O102 O 0.90097 0.8791 0.59586 0.0
Co103 Co 0.86169 0.88034 0.50379 0.0
O104 O 0.91984 0.88669 0.52289 0.0
C105 C 0.8224 0.81473 0.54855 0.0
C106 C 0.80058 0.88054 0.67198 0.0
C107 C 0.92886 0.88277 0.56483 0.0
O108 O 0.82621 0.83013 0.58841 0.0
O109 O 0.83241 0.83122 0.51136 0.0
O110 O 0.84589 0.94001 0.60877 0.0
O111 O 0.82848 0.90717 0.54864 0.0
Co112 Co 0.82346 0.64249 0.07978 0.0
O113 O 0.76904 0.65672 0.05759 0.0
O114 O 0.82428 0.6934 0.05594 0.0
C115 C 0.8248 0.58516 0.04562 0.0
O116 O 0.8853 0.63871 0.09498 0.0
Co117 Co 0.84224 0.57366 0.14135 0.0
O118 O 0.89931 0.57973 0.11803 0.0
C119 C 0.80328 0.64174 0.18146 0.0
C120 C 0.78566 0.68862 0.04537 0.0
C121 C 0.91108 0.61178 0.10324 0.0
O122 O 0.80795 0.6603 0.14379 0.0
O123 O 0.81308 0.60694 0.18619 0.0
O124 O 0.8339 0.61554 0.02279 0.0
O125 O 0.81304 0.5905 0.08723 0.0
Co126 Co 0.69175 0.37232 0.58036 0.0
O127 O 0.74737 0.35997 0.55989 0.0
O128 O 0.69283 0.32276 0.55316 0.0
C129 C 0.6897 0.43143 0.55067 0.0
O130 O 0.62935 0.37389 0.59228 0.0
Co131 Co 0.66811 0.43656 0.64641 0.0
O132 O 0.61045 0.42755 0.62711 0.0
C133 C 0.70958 0.3685 0.68239 0.0
C134 C 0.73176 0.32837 0.54509 0.0
C135 C 0.60148 0.39717 0.60624 0.0
O136 O 0.7055 0.3515 0.64361 0.0
O137 O 0.69887 0.4028 0.6891 0.0
O138 O 0.68278 0.40212 0.52505 0.0
O139 O 0.70015 0.42409 0.59228 0.0
Co140 Co 0.82194 0.3733 0.94208 0.0
O141 O 0.76645 0.36097 0.96279 0.0
O142 O 0.82077 0.32353 0.96906 0.0
C143 C 0.82428 0.4323 0.97198 0.0
O144 O 0.88431 0.37513 0.92948 0.0
Co145 Co 0.84396 0.43795 0.87558 0.0
O146 O 0.90197 0.42864 0.89321 0.0
C147 C 0.80303 0.36951 0.84017 0.0
C148 C 0.78179 0.32909 0.97701 0.0
C149 C 0.91164 0.39835 0.91396 0.0
O150 O 0.80781 0.35256 0.8789 0.0
O151 O 0.81302 0.40399 0.8333 0.0
O152 O 0.83133 0.40288 0.99742 0.0
O153 O 0.81332 0.4251 0.93052 0.0
Co154 Co 0.69244 0.64237 0.44456 0.0
O155 O 0.7474 0.65562 0.4662 0.0
O156 O 0.69279 0.69301 0.46895 0.0
C157 C 0.6899 0.58469 0.4779 0.0
O158 O 0.63039 0.63985 0.43052 0.0
Co159 Co 0.67169 0.57466 0.38189 0.0
O160 O 0.6133 0.58481 0.39753 0.0
C161 C 0.71289 0.64203 0.34299 0.0
C162 C 0.73142 0.68765 0.47892 0.0
C163 C 0.6033 0.616 0.416 0.0
O164 O 0.70774 0.66058 0.38056 0.0
O165 O 0.70291 0.6073 0.33813 0.0
O166 O 0.68196 0.61502 0.50128 0.0
O167 O 0.70149 0.59022 0.43626 0.0
Co168 Co 0.17584 0.38383 0.91248 0.0
O169 O 0.23016 0.38854 0.88338 0.0
O170 O 0.17327 0.37007 0.84879 0.0
C171 C 0.17651 0.43993 0.95041 0.0
O172 O 0.11399 0.37776 0.92465 0.0
Co173 Co 0.15527 0.38228 0.01571 0.0
O174 O 0.09659 0.38789 0.99758 0.0
C175 C 0.1945 0.31587 0.97248 0.0
C176 C 0.21216 0.37824 0.84556 0.0
C177 C 0.08672 0.38255 0.95608 0.0
O178 O 0.18925 0.32994 0.93214 0.0
O179 O 0.18553 0.33338 1.00929 0.0
O180 O 0.16769 0.43858 0.9071 0.0
O181 O 0.1869 0.40813 0.96858 0.0
Co182 Co 0.33842 0.63217 0.41276 0.0
O183 O 0.28383 0.62753 0.38417 0.0
O184 O 0.34086 0.64411 0.34847 0.0
C185 C 0.3368 0.57714 0.45335 0.0
O186 O 0.40059 0.63761 0.42424 0.0
Co187 Co 0.35981 0.63625 0.51545 0.0
O188 O 0.41824 0.62955 0.49749 0.0
C189 C 0.32153 0.70206 0.4703 0.0
C190 C 0.30178 0.63653 0.34581 0.0
C191 C 0.42797 0.63357 0.45574 0.0
O192 O 0.32596 0.68687 0.43041 0.0
O193 O 0.33065 0.68534 0.50759 0.0
O194 O 0.34548 0.57698 0.40995 0.0
O195 O 0.32716 0.60968 0.46986 0.0
Co196 Co 0.17529 0.63127 0.10425 0.0
O197 O 0.23024 0.62627 0.13135 0.0
O198 O 0.17428 0.64314 0.16883 0.0
C199 C 0.17642 0.57616 0.06368 0.0
O200 O 0.11296 0.63757 0.09339 0.0
Co201 Co 0.15305 0.63503 1.00166 0.0
O202 O 0.09676 0.62088 0.02179 0.0
C203 C 0.1911 0.7014 0.04649 0.0
C204 C 0.21346 0.63559 0.17016 0.0
C205 C 0.08643 0.62835 0.0626 0.0
O206 O 0.18804 0.68582 0.08635 0.0
O207 O 0.18079 0.68497 1.00936 0.0
O208 O 0.16789 0.57601 0.10712 0.0
O209 O 0.18588 0.60875 0.04713 0.0
Co210 Co 0.33753 0.38441 0.60388 0.0
O211 O 0.28261 0.38877 0.63108 0.0
O212 O 0.33854 0.37057 0.66784 0.0
C213 C 0.33718 0.44064 0.56616 0.0
O214 O 0.39969 0.37859 0.5928 0.0
Co215 Co 0.35888 0.38342 0.5006 0.0
O216 O 0.41731 0.38791 0.51963 0.0
C217 C 0.32059 0.31622 0.54338 0.0
C218 C 0.29944 0.3784 0.66949 0.0
C219 C 0.427 0.38247 0.56116 0.0
O220 O 0.32469 0.33049 0.58377 0.0
O221 O 0.33009 0.3338 0.50672 0.0
O222 O 0.34533 0.43919 0.60962 0.0
O223 O 0.3272 0.40887 0.54775 0.0
C224 C 0.2802 0.24759 0.99771 0.0
C225 C 0.25929 0.21741 0.01912 0.0
C226 C 0.25856 0.27782 0.97786 0.0
C227 C 0.21519 0.27912 0.97878 0.0
H228 H 0.31367 0.24857 0.99754 0.0
H229 H 0.27595 0.30153 0.96443 0.0
S230 S 0.1454 0.20649 0.0274 0.0
N231 N 0.19229 0.18978 0.03695 0.0
N232 N 0.15191 0.24719 1.00071 0.0
C233 C 0.19382 0.2485 0.99812 0.0
C234 C 0.21577 0.21745 0.01791 0.0
C235 C 0.25886 0.74247 0.47094 0.0
C236 C 0.30191 0.73942 0.47593 0.0
C237 C 0.23687 0.77221 0.49146 0.0
C238 C 0.25716 0.80018 0.51744 0.0
H239 H 0.2417 0.72018 0.45411 0.0
H240 H 0.20351 0.77247 0.48831 0.0
S241 S 0.37021 0.8063 0.53744 0.0
N242 N 0.36434 0.76769 0.50649 0.0
N243 N 0.3234 0.82415 0.54392 0.0
C244 C 0.30055 0.7987 0.52009 0.0
C245 C 0.32279 0.76815 0.49969 0.0
C246 C 0.27656 0.77156 0.02759 0.0
C247 C 0.25703 0.79958 1.00097 0.0
C248 C 0.25398 0.74174 0.04729 0.0
C249 C 0.21111 0.73862 0.04067 0.0
H250 H 0.30981 0.77187 0.03195 0.0
H251 H 0.27064 0.71949 0.06482 0.0
S252 S 0.14458 0.80573 0.9772 0.0
N253 N 0.19157 0.82361 0.97234 0.0
N254 N 0.14957 0.76697 1.00812 0.0
C255 C 0.19093 0.76739 0.01625 0.0
C256 C 0.21374 0.79805 0.99677 0.0
C257 C 0.3197 0.25245 0.50771 0.0
C258 C 0.30075 0.27902 0.5367 0.0
C259 C 0.29745 0.22181 0.48967 0.0
C260 C 0.25504 0.21738 0.49874 0.0
H261 H 0.3515 0.25648 0.4971 0.0
H262 H 0.31297 0.20279 0.46635 0.0
S263 S 0.1918 0.27759 0.57545 0.0
N264 N 0.23809 0.29733 0.57634 0.0
N265 N 0.19577 0.24047 0.54158 0.0
C266 C 0.23624 0.24275 0.52942 0.0
C267 C 0.25922 0.27338 0.54866 0.0
C268 C 0.71874 0.7202 0.02486 0.0
C269 C 0.76196 0.71802 0.02021 0.0
C270 C 0.69631 0.7502 1.00549 0.0
C271 C 0.71602 0.77843 0.9795 0.0
H272 H 0.70238 0.69983 0.04576 0.0
H273 H 0.6636 0.75249 0.013 0.0
S274 S 0.82774 0.78345 0.95263 0.0
N275 N 0.82313 0.74519 0.98457 0.0
N276 N 0.78062 0.80092 0.9475 0.0
C277 C 0.75867 0.77514 0.97191 0.0
C278 C 0.78173 0.74511 0.99245 0.0
C279 C 0.82125 0.26394 0.51382 0.0
C280 C 0.80318 0.23831 0.48289 0.0
C281 C 0.79871 0.29443 0.5318 0.0
C282 C 0.75686 0.29968 0.52062 0.0
H283 H 0.85246 0.25924 0.52598 0.0
H284 H 0.81343 0.31256 0.55675 0.0
S285 S 0.69617 0.24239 0.43827 0.0
N286 N 0.7421 0.22201 0.43913 0.0
N287 N 0.69924 0.27856 0.47372 0.0
C288 C 0.73907 0.27539 0.48795 0.0
C289 C 0.76238 0.24492 0.46883 0.0
C290 C 0.77598 0.27316 0.02926 0.0
C291 C 0.75653 0.30011 1.00102 0.0
C292 C 0.75374 0.24296 0.04856 0.0
C293 C 0.71135 0.23834 0.03981 0.0
H294 H 0.80898 0.27468 0.03531 0.0
H295 H 0.77043 0.22162 0.06764 0.0
S296 S 0.64517 0.30205 0.97098 0.0
N297 N 0.69158 0.32142 0.96819 0.0
N298 N 0.65026 0.26402 1.0032 0.0
C299 C 0.69116 0.26597 0.01353 0.0
C300 C 0.71359 0.29705 0.99451 0.0
C301 C 0.82118 0.75026 0.51493 0.0
C302 C 0.80212 0.77759 0.5428 0.0
C303 C 0.79859 0.72003 0.49633 0.0
C304 C 0.75579 0.71674 0.50372 0.0
H305 H 0.85335 0.75347 0.50537 0.0
H306 H 0.81429 0.70049 0.4738 0.0
S307 S 0.69202 0.77914 0.57731 0.0
N308 N 0.73881 0.79775 0.57975 0.0
N309 N 0.69595 0.74162 0.54409 0.0
C310 C 0.73683 0.74279 0.53346 0.0
C311 C 0.7601 0.77302 0.55323 0.0
C312 C 0.32831 0.01423 0.05276 0.0
C313 C 0.32786 0.04589 0.02364 0.0
C314 C 0.32875 0.97732 0.03532 0.0
C315 C 0.32806 0.97057 0.98804 0.0
H316 H 0.32795 0.01789 0.08944 0.0
H317 H 0.32851 0.95392 0.05916 0.0
S318 S 0.32814 0.04381 0.89711 0.0
N319 N 0.32825 0.06807 0.94516 0.0
N320 N 0.32815 0.99891 0.91233 0.0
C321 C 0.32833 1.00202 0.95852 0.0
C322 C 0.3285 0.03961 0.97632 0.0
C323 C 0.18605 0.97764 0.48373 0.0
C324 C 0.18759 0.97112 0.53105 0.0
C325 C 0.18622 0.01447 0.46593 0.0
C326 C 0.18723 0.04626 0.49475 0.0
H327 H 0.18579 0.95413 0.4601 0.0
H328 H 0.18589 0.01798 0.42922 0.0
S329 S 0.18944 0.04479 0.62128 0.0
N330 N 0.18905 0.99982 0.60648 0.0
N331 N 0.18842 0.06881 0.57302 0.0
C332 C 0.1875 0.0402 0.54214 0.0
C333 C 0.18796 1.00271 0.56028 0.0
C334 C 0.67294 0.01035 0.96624 0.0
C335 C 0.67589 0.97413 0.98577 0.0
C336 C 0.67306 0.04307 0.99351 0.0
C337 C 0.67534 0.04098 0.04152 0.0
H338 H 0.67145 0.01356 0.92953 0.0
H339 H 0.67153 0.07026 0.97665 0.0
S340 S 0.68246 0.95317 0.11006 0.0
N341 N 0.6809 0.93841 0.0567 0.0
N342 N 0.6798 0.99967 0.10741 0.0
C343 C 0.67729 1.00501 0.06157 0.0
C344 C 0.67794 0.97171 0.03387 0.0
C345 C 0.84188 0.0431 0.52817 0.0
C346 C 0.84004 0.04112 0.48013 0.0
C347 C 0.84228 0.01031 0.55535 0.0
C348 C 0.84013 0.97413 0.5357 0.0
H349 H 0.84279 0.07026 0.54511 0.0
H350 H 0.84335 0.01345 0.59208 0.0
S351 S 0.8353 0.95339 0.41134 0.0
N352 N 0.83702 0.99992 0.41409 0.0
N353 N 0.83658 0.9385 0.46469 0.0
C354 C 0.83865 0.97179 0.4876 0.0
C355 C 0.83894 1.00518 0.45997 0.0
C356 C 0.82772 0.47805 0.03698 0.0
C357 C 0.82728 0.47154 0.98965 0.0
C358 C 0.82751 0.51487 0.05471 0.0
C359 C 0.82759 0.54669 0.02583 0.0
H360 H 0.82711 0.45453 0.06065 0.0
H361 H 0.82696 0.51834 0.09141 0.0
S362 S 0.82863 0.54524 0.89929 0.0
N363 N 0.82809 0.50027 0.91416 0.0
N364 N 0.82868 0.56926 0.94752 0.0
C365 C 0.82846 0.54064 0.97846 0.0
C366 C 0.82801 0.50314 0.96037 0.0
C367 C 0.6862 0.47753 0.48588 0.0
C368 C 0.68681 0.47076 0.53317 0.0
C369 C 0.68653 0.51445 0.46837 0.0
C370 C 0.68679 0.54611 0.49744 0.0
H371 H 0.68657 0.45414 0.46208 0.0
H372 H 0.68696 0.51815 0.43169 0.0
S373 S 0.68626 0.54396 0.62399 0.0
N374 N 0.68646 0.49907 0.60883 0.0
N375 N 0.68615 0.56824 0.5759 0.0
C376 C 0.68608 0.53979 0.54478 0.0
C377 C 0.68636 0.5022 0.56264 0.0
C378 C 0.17154 0.5056 0.05355 0.0
C379 C 0.1741 0.54186 0.03407 0.0
C380 C 0.17185 0.47291 0.02624 0.0
C381 C 0.17392 0.47507 0.97821 0.0
H382 H 0.17024 0.50234 0.09027 0.0
H383 H 0.17065 0.44568 0.04304 0.0
S384 S 0.17997 0.563 0.90977 0.0
N385 N 0.17853 0.57768 0.96315 0.0
N386 N 0.1777 0.51649 0.91236 0.0
C387 C 0.17543 0.51108 0.95821 0.0
C388 C 0.17592 0.54435 0.98596 0.0
C389 C 0.34211 0.50665 0.46333 0.0
C390 C 0.33916 0.54282 0.48291 0.0
C391 C 0.34199 0.47389 0.49055 0.0
C392 C 0.3397 0.47589 0.53856 0.0
H393 H 0.3436 0.50352 0.42661 0.0
H394 H 0.34348 0.44673 0.47367 0.0
S395 S 0.33267 0.56355 0.6072 0.0
N396 N 0.33422 0.57842 0.55386 0.0
N397 N 0.3353 0.51706 0.60451 0.0
C398 C 0.33779 0.51181 0.55866 0.0
C399 C 0.33715 0.54516 0.531 0.0
C400 C 0.51167 0.14286 0.04542 0.0
C401 C 0.54224 0.1306 0.07627 0.0
C402 C 0.46939 0.13944 0.05576 0.0
C403 C 0.45609 0.12269 0.09679 0.0
H404 H 0.52048 0.15493 0.01286 0.0
H405 H 0.44697 0.14857 0.03061 0.0
S406 S 0.52353 0.08709 0.18971 0.0
N407 N 0.55608 0.10244 0.15044 0.0
N408 N 0.4768 0.09501 0.16913 0.0
C409 C 0.48629 0.11096 0.12825 0.0
C410 C 0.52929 0.11521 0.11821 0.0
C411 C 1.00388 0.87112 0.54793 0.0
C412 C 0.97313 0.88361 0.57842 0.0
C413 C 0.04609 0.87418 0.55868 0.0
C414 C 0.05917 0.8907 0.59987 0.0
H415 H 0.9953 0.85922 0.51523 0.0
H416 H 0.06862 0.86497 0.53371 0.0
S417 S 0.9912 0.9264 0.69227 0.0
N418 N 0.95887 0.91156 0.65255 0.0
N419 N 0.03803 0.91815 0.67218 0.0
C420 C 0.02877 0.90249 0.6311 0.0
C421 C 0.98583 0.89869 0.62056 0.0
C422 C 0.47001 0.8748 0.96461 0.0
C423 C 0.45719 0.88929 0.9222 0.0
C424 C 0.51218 0.87203 0.97575 0.0
C425 C 0.54315 0.88278 0.94448 0.0
H426 H 0.44729 0.86704 0.99013 0.0
H427 H 0.52056 0.86174 1.00931 0.0
S428 S 0.5256 0.91973 0.82742 0.0
N429 N 0.47868 0.91284 0.84802 0.0
N430 N 0.55772 0.90678 0.8683 0.0
C431 C 0.53063 0.89578 0.9012 0.0
C432 C 0.48774 0.89928 0.89026 0.0
C433 C 0.04537 0.14006 0.46223 0.0
C434 C 0.05832 0.12296 0.42133 0.0
C435 C 1.00319 0.14359 0.47288 0.0
C436 C 0.97237 0.13107 0.44251 0.0
H437 H 0.06798 0.14938 0.48706 0.0
H438 H 0.99467 0.15588 0.50538 0.0
S439 S 0.9901 0.0867 0.32951 0.0
N440 N 0.037 0.09474 0.34953 0.0
N441 N 0.95787 0.10237 0.36888 0.0
C442 C 0.98495 0.11538 0.40066 0.0
C443 C 0.02786 0.11102 0.39028 0.0
C444 C 0.02333 0.58971 0.07521 0.0
C445 C 0.04233 0.62534 0.07499 0.0
C446 C 0.98116 0.58577 0.08527 0.0
C447 C 0.95605 0.61743 0.09451 0.0
H448 H 0.04126 0.56465 0.06755 0.0
H449 H 0.96798 0.55763 0.08481 0.0
S450 S 0.99155 0.7172 0.09746 0.0
N451 N 0.03366 0.69287 0.08504 0.0
N452 N 0.95394 0.68585 0.10268 0.0
C453 C 0.97487 0.65336 0.09416 0.0
C454 C 0.01814 0.65721 0.08479 0.0
C455 C 0.52629 0.40251 0.62602 0.0
C456 C 0.55727 0.38935 0.59625 0.0
C457 C 0.48418 0.39866 0.61531 0.0
C458 C 0.47143 0.38238 0.57385 0.0
H459 H 0.53465 0.41635 0.65766 0.0
H460 H 0.46151 0.40988 0.63889 0.0
S461 S 0.54004 0.34191 0.485 0.0
N462 N 0.57208 0.35771 0.52448 0.0
N463 N 0.49307 0.3514 0.50384 0.0
C464 C 0.50201 0.36832 0.54426 0.0
C465 C 0.54486 0.3715 0.55561 0.0
C466 C 0.0116 0.37241 0.97459 0.0
C467 C 0.04228 0.38345 0.94314 0.0
C468 C 0.96933 0.37551 0.96404 0.0
C469 C 0.95614 0.39066 0.92209 0.0
H470 H 0.02031 0.36161 1.00781 0.0
H471 H 0.94684 0.36743 0.98965 0.0
S472 S 0.02378 0.42239 0.82723 0.0
N473 N 0.05623 0.40863 0.8674 0.0
N474 N 0.97703 0.41533 0.84821 0.0
C475 C 0.98643 0.40104 0.89 0.0
C476 C 0.02939 0.39718 0.90033 0.0
C477 C 0.54525 0.64099 0.46386 0.0
C478 C 0.55871 0.624 0.42309 0.0
C479 C 0.50292 0.64459 0.47384 0.0
C480 C 0.47244 0.63223 0.44293 0.0
H481 H 0.56755 0.65016 0.48911 0.0
H482 H 0.49402 0.65681 0.50625 0.0
S483 S 0.49163 0.58836 0.3299 0.0
N484 N 0.53827 0.5962 0.35077 0.0
N485 N 0.45891 0.6039 0.36884 0.0
C486 C 0.48557 0.61668 0.40118 0.0
C487 C 0.52862 0.61229 0.39148 0.0
C488 C 0.30021 0.15883 0.26045 0.0
C489 C 0.28056 0.15837 0.21758 0.0
C490 C 0.27719 0.1594 0.30117 0.0
C491 C 0.23373 0.1587 0.30034 0.0
H492 H 0.3334 0.15509 0.26255 0.0
H493 H 0.29343 0.15598 0.33324 0.0
S494 S 0.16767 0.16165 0.19716 0.0
N495 N 0.21536 0.16155 0.17693 0.0
N496 N 0.1721 0.16127 0.25333 0.0
C497 C 0.2139 0.16166 0.25783 0.0
C498 C 0.23734 0.16186 0.21643 0.0
C499 C 0.23879 0.84901 0.80248 0.0
C500 C 0.28223 0.84975 0.80095 0.0
C501 C 0.21526 0.84976 0.76212 0.0
C502 C 0.23435 0.85045 0.71892 0.0
H503 H 0.22297 0.85261 0.83479 0.0
H504 H 0.18214 0.85379 0.7648 0.0
S505 S 0.34691 0.8462 0.69669 0.0
N506 N 0.3432 0.84658 0.75293 0.0
N507 N 0.29897 0.84666 0.67723 0.0
C508 C 0.27749 0.84645 0.71707 0.0
C509 C 0.30146 0.84646 0.75811 0.0
C510 C 0.77874 0.88085 0.80051 0.0
C511 C 0.7353 0.88016 0.8032 0.0
C512 C 0.79934 0.88048 0.75808 0.0
C513 C 0.77749 0.88003 0.71633 0.0
H514 H 0.79706 0.88145 0.83142 0.0
H515 H 0.83282 0.88103 0.75811 0.0
S516 S 0.66337 0.87844 0.70408 0.0
N517 N 0.67109 0.87896 0.75975 0.0
N518 N 0.70979 0.87887 0.68069 0.0
C519 C 0.73409 0.87953 0.7185 0.0
C520 C 0.71307 0.87942 0.76165 0.0
C521 C 0.79815 0.13976 0.2636 0.0
C522 C 0.77647 0.14029 0.30544 0.0
C523 C 0.77736 0.13934 0.22132 0.0
C524 C 0.73391 0.14007 0.21888 0.0
H525 H 0.83162 0.13901 0.2634 0.0
H526 H 0.79556 0.13848 0.19032 0.0
S527 S 0.66241 0.14243 0.31835 0.0
N528 N 0.70893 0.14186 0.34148 0.0
N529 N 0.66988 0.14175 0.26263 0.0
C530 C 0.71185 0.14113 0.26052 0.0
C531 C 0.73305 0.14103 0.30353 0.0
C532 C 0.71517 0.6597 0.26092 0.0
C533 C 0.7349 0.65907 0.30375 0.0
C534 C 0.73811 0.65998 0.22011 0.0
C535 C 0.78156 0.65882 0.2208 0.0
H536 H 0.68193 0.6563 0.25892 0.0
H537 H 0.72174 0.65673 0.1881 0.0
S538 S 0.84789 0.66124 0.32378 0.0
N539 N 0.80025 0.66162 0.34416 0.0
N540 N 0.84332 0.66084 0.26763 0.0
C541 C 0.80152 0.66161 0.26325 0.0
C542 C 0.77817 0.6621 0.30474 0.0
C543 C 0.7134 0.34985 0.76404 0.0
C544 C 0.73213 0.35058 0.72064 0.0
C545 C 0.73728 0.3497 0.80416 0.0
C546 C 0.78068 0.35111 0.80218 0.0
H547 H 0.68023 0.35335 0.76701 0.0
H548 H 0.72165 0.35316 0.8366 0.0
S549 S 0.84459 0.34819 0.69733 0.0
N550 N 0.79649 0.34771 0.67835 0.0
N551 N 0.84132 0.34879 0.75359 0.0
C552 C 0.79964 0.34797 0.75919 0.0
C553 C 0.77534 0.34732 0.7184 0.0
C554 C 0.29806 0.37751 0.75552 0.0
C555 C 0.2763 0.37731 0.71374 0.0
C556 C 0.27733 0.37787 0.79786 0.0
C557 C 0.23388 0.37737 0.80037 0.0
H558 H 0.33154 0.37801 0.75564 0.0
H559 H 0.29557 0.37842 0.82884 0.0
S560 S 0.1622 0.37611 0.70108 0.0
N561 N 0.20869 0.37644 0.67785 0.0
N562 N 0.16977 0.37643 0.75678 0.0
C563 C 0.21175 0.37672 0.75879 0.0
C564 C 0.23288 0.37689 0.71574 0.0
C565 C 0.23632 0.63725 0.2985 0.0
C566 C 0.27978 0.63678 0.30075 0.0
C567 C 0.21537 0.63737 0.25628 0.0
C568 C 0.23687 0.63639 0.21432 0.0
H569 H 0.21824 0.63775 0.3296 0.0
H570 H 0.18189 0.63777 0.25664 0.0
S571 S 0.35094 0.63421 0.20102 0.0
N572 N 0.34364 0.63514 0.25675 0.0
N573 N 0.30434 0.63473 0.17807 0.0
C574 C 0.28031 0.63567 0.21609 0.0
C575 C 0.30168 0.63605 0.25901 0.0
loop_
_geom_bond_atom_site_label_1
_geom_bond_atom_site_label_2
_geom_bond_distance
_geom_bond_site_symmetry_2
_ccdc_geom_bond_type
Co0 O1 2.216 . S
Co0 O2 2.091 . S
Co0 O4 2.004 . S
Co0 O10 2.021 . S
Co0 O12 2.137 . S
Co0 O13 2.244 . S
O1 Co0 2.216 . S
O1 C8 1.247 . S
O2 Co0 2.091 . S
O2 C8 1.261 . S
C3 O12 1.247 . S
C3 O13 1.272 . S
O4 Co0 2.004 . S
O4 C9 1.259 . S
Co5 O6 2.061 . S
Co5 O11 2.052 . S
Co5 O13 2.135 . S
O6 Co5 2.061 . S
O6 C9 1.235 . S
C7 O10 1.238 . S
C7 O11 1.241 . S
C8 O1 1.247 . S
C8 O2 1.261 . S
C9 O4 1.259 . S
C9 O6 1.235 . S
O10 Co0 2.021 . S
O10 C7 1.238 . S
O11 Co5 2.052 . S
O11 C7 1.241 . S
O12 Co0 2.137 . S
O12 C3 1.247 . S
O13 Co0 2.244 . S
O13 C3 1.272 . S
O13 Co5 2.135 . S
Co14 O15 2.216 . S
Co14 O16 2.091 . S
Co14 O18 2.004 . S
Co14 O24 2.021 . S
Co14 O26 2.137 . S
Co14 O27 2.244 . S
O15 Co14 2.216 . S
O15 C22 1.247 . S
O16 Co14 2.091 . S
O16 C22 1.261 . S
C17 O26 1.247 . S
C17 O27 1.272 . S
O18 Co14 2.004 . S
O18 C23 1.259 . S
Co19 O20 2.061 . S
Co19 O25 2.052 . S
Co19 O27 2.135 . S
O20 Co19 2.061 . S
O20 C23 1.235 . S
C21 O24 1.238 . S
C21 O25 1.241 . S
C22 O15 1.247 . S
C22 O16 1.261 . S
C23 O18 1.259 . S
C23 O20 1.235 . S
O24 Co14 2.021 . S
O24 C21 1.238 . S
O25 Co19 2.052 . S
O25 C21 1.241 . S
O26 Co14 2.137 . S
O26 C17 1.247 . S
O27 Co14 2.244 . S
O27 C17 1.272 . S
O27 Co19 2.135 . S
Co28 O29 2.216 . S
Co28 O30 2.091 . S
Co28 O32 2.004 . S
Co28 O38 2.021 . S
Co28 O40 2.137 . S
Co28 O41 2.244 . S
O29 Co28 2.216 . S
O29 C36 1.247 . S
O30 Co28 2.091 . S
O30 C36 1.261 . S
C31 O40 1.247 . S
C31 O41 1.272 . S
O32 Co28 2.004 . S
O32 C37 1.259 . S
Co33 O34 2.061 . S
Co33 O39 2.052 . S
Co33 O41 2.135 . S
O34 Co33 2.061 . S
O34 C37 1.235 . S
C35 O38 1.238 . S
C35 O39 1.241 . S
C36 O29 1.247 . S
C36 O30 1.261 . S
C37 O32 1.259 . S
C37 O34 1.235 . S
O38 Co28 2.021 . S
O38 C35 1.238 . S
O39 Co33 2.052 . S
O39 C35 1.241 . S
O40 Co28 2.137 . S
O40 C31 1.247 . S
O41 Co28 2.244 . S
O41 C31 1.272 . S
O41 Co33 2.135 . S
Co42 O43 2.216 . S
Co42 O44 2.091 . S
Co42 O46 2.004 . S
Co42 O52 2.021 . S
Co42 O54 2.137 . S
Co42 O55 2.244 . S
O43 Co42 2.216 . S
O43 C50 1.247 . S
O44 Co42 2.091 . S
O44 C50 1.261 . S
C45 O54 1.247 . S
C45 O55 1.272 . S
O46 Co42 2.004 . S
O46 C51 1.259 . S
Co47 O48 2.061 . S
Co47 O53 2.052 . S
Co47 O55 2.135 . S
O48 Co47 2.061 . S
O48 C51 1.235 . S
C49 O52 1.238 . S
C49 O53 1.241 . S
C50 O43 1.247 . S
C50 O44 1.261 . S
C51 O46 1.259 . S
C51 O48 1.235 . S
O52 Co42 2.021 . S
O52 C49 1.238 . S
O53 Co47 2.052 . S
O53 C49 1.241 . S
O54 Co42 2.137 . S
O54 C45 1.247 . S
O55 Co42 2.244 . S
O55 C45 1.272 . S
O55 Co47 2.135 . S
Co56 O57 2.216 . S
Co56 O58 2.091 . S
Co56 O60 2.004 . S
Co56 O66 2.021 . S
Co56 O68 2.137 . S
Co56 O69 2.244 . S
O57 Co56 2.216 . S
O57 C64 1.247 . S
O58 Co56 2.091 . S
O58 C64 1.261 . S
C59 O68 1.247 . S
C59 O69 1.272 . S
O60 Co56 2.004 . S
O60 C65 1.259 . S
Co61 O62 2.061 1_554 S
Co61 O67 2.052 1_554 S
Co61 O69 2.135 1_554 S
O62 Co61 2.061 1_556 S
O62 C65 1.235 . S
C63 O66 1.238 . S
C63 O67 1.241 . S
C64 O57 1.247 . S
C64 O58 1.261 . S
C65 O60 1.259 . S
C65 O62 1.235 . S
O66 Co56 2.021 . S
O66 C63 1.238 . S
O67 Co61 2.052 1_556 S
O67 C63 1.241 . S
O68 Co56 2.137 . S
O68 C59 1.247 . S
O69 Co56 2.244 . S
O69 C59 1.272 . S
O69 Co61 2.135 1_556 S
Co70 O71 2.216 . S
Co70 O72 2.091 . S
Co70 O74 2.004 . S
Co70 O80 2.021 . S
Co70 O82 2.137 . S
Co70 O83 2.244 . S
O71 Co70 2.216 . S
O71 C78 1.247 . S
O72 Co70 2.091 . S
O72 C78 1.261 . S
C73 O82 1.247 . S
C73 O83 1.272 . S
O74 Co70 2.004 . S
O74 C79 1.259 . S
Co75 O76 2.061 . S
Co75 O81 2.052 . S
Co75 O83 2.135 . S
O76 Co75 2.061 . S
O76 C79 1.235 . S
C77 O80 1.238 . S
C77 O81 1.241 . S
C78 O71 1.247 . S
C78 O72 1.261 . S
C79 O74 1.259 . S
C79 O76 1.235 . S
O80 Co70 2.021 . S
O80 C77 1.238 . S
O81 Co75 2.052 . S
O81 C77 1.241 . S
O82 Co70 2.137 . S
O82 C73 1.247 . S
O83 Co70 2.244 . S
O83 C73 1.272 . S
O83 Co75 2.135 . S
Co84 O85 2.216 . S
Co84 O86 2.091 . S
Co84 O88 2.004 . S
Co84 O94 2.021 . S
Co84 O96 2.137 . S
Co84 O97 2.244 . S
O85 Co84 2.216 . S
O85 C92 1.247 . S
O86 Co84 2.091 . S
O86 C92 1.261 . S
C87 O96 1.247 . S
C87 O97 1.272 . S
O88 Co84 2.004 . S
O88 C93 1.259 . S
Co89 O90 2.061 1_556 S
Co89 O95 2.052 1_556 S
Co89 O97 2.135 1_556 S
O90 Co89 2.061 1_554 S
O90 C93 1.235 . S
C91 O94 1.238 . S
C91 O95 1.241 . S
C92 O85 1.247 . S
C92 O86 1.261 . S
C93 O88 1.259 . S
C93 O90 1.235 . S
O94 Co84 2.021 . S
O94 C91 1.238 . S
O95 Co89 2.052 1_554 S
O95 C91 1.241 . S
O96 Co84 2.137 . S
O96 C87 1.247 . S
O97 Co84 2.244 . S
O97 C87 1.272 . S
O97 Co89 2.135 1_554 S
Co98 O99 2.216 . S
Co98 O100 2.091 . S
Co98 O102 2.004 . S
Co98 O108 2.021 . S
Co98 O110 2.137 . S
Co98 O111 2.244 . S
O99 Co98 2.216 . S
O99 C106 1.247 . S
O100 Co98 2.091 . S
O100 C106 1.261 . S
C101 O110 1.247 . S
C101 O111 1.272 . S
O102 Co98 2.004 . S
O102 C107 1.259 . S
Co103 O104 2.061 . S
Co103 O109 2.052 . S
Co103 O111 2.135 . S
O104 Co103 2.061 . S
O104 C107 1.235 . S
C105 O108 1.238 . S
C105 O109 1.241 . S
C106 O99 1.247 . S
C106 O100 1.261 . S
C107 O102 1.259 . S
C107 O104 1.235 . S
O108 Co98 2.021 . S
O108 C105 1.238 . S
O109 Co103 2.052 . S
O109 C105 1.241 . S
O110 Co98 2.137 . S
O110 C101 1.247 . S
O111 Co98 2.244 . S
O111 C101 1.272 . S
O111 Co103 2.135 . S
Co112 O113 2.216 . S
Co112 O114 2.091 . S
Co112 O116 2.004 . S
Co112 O122 2.021 . S
Co112 O124 2.137 . S
Co112 O125 2.244 . S
O113 Co112 2.216 . S
O113 C120 1.247 . S
O114 Co112 2.091 . S
O114 C120 1.261 . S
C115 O124 1.247 . S
C115 O125 1.272 . S
O116 Co112 2.004 . S
O116 C121 1.259 . S
Co117 O118 2.061 . S
Co117 O123 2.052 . S
Co117 O125 2.135 . S
O118 Co117 2.061 . S
O118 C121 1.235 . S
C119 O122 1.238 . S
C119 O123 1.241 . S
C120 O113 1.247 . S
C120 O114 1.261 . S
C121 O116 1.259 . S
C121 O118 1.235 . S
O122 Co112 2.021 . S
O122 C119 1.238 . S
O123 Co117 2.052 . S
O123 C119 1.241 . S
O124 Co112 2.137 . S
O124 C115 1.247 . S
O125 Co112 2.244 . S
O125 C115 1.272 . S
O125 Co117 2.135 . S
Co126 O127 2.216 . S
Co126 O128 2.091 . S
Co126 O130 2.004 . S
Co126 O136 2.021 . S
Co126 O138 2.137 . S
Co126 O139 2.244 . S
O127 Co126 2.216 . S
O127 C134 1.247 . S
O128 Co126 2.091 . S
O128 C134 1.261 . S
C129 O138 1.247 . S
C129 O139 1.272 . S
O130 Co126 2.004 . S
O130 C135 1.259 . S
Co131 O132 2.061 . S
Co131 O137 2.052 . S
Co131 O139 2.135 . S
O132 Co131 2.061 . S
O132 C135 1.235 . S
C133 O136 1.238 . S
C133 O137 1.241 . S
C134 O127 1.247 . S
C134 O128 1.261 . S
C135 O130 1.259 . S
C135 O132 1.235 . S
O136 Co126 2.021 . S
O136 C133 1.238 . S
O137 Co131 2.052 . S
O137 C133 1.241 . S
O138 Co126 2.137 . S
O138 C129 1.247 . S
O139 Co126 2.244 . S
O139 C129 1.272 . S
O139 Co131 2.135 . S
Co140 O141 2.216 . S
Co140 O142 2.091 . S
Co140 O144 2.004 . S
Co140 O150 2.021 . S
Co140 O152 2.137 . S
Co140 O153 2.244 . S
O141 Co140 2.216 . S
O141 C148 1.247 . S
O142 Co140 2.091 . S
O142 C148 1.261 . S
C143 O152 1.247 . S
C143 O153 1.272 . S
O144 Co140 2.004 . S
O144 C149 1.259 . S
Co145 O146 2.061 . S
Co145 O151 2.052 . S
Co145 O153 2.135 . S
O146 Co145 2.061 . S
O146 C149 1.235 . S
C147 O150 1.238 . S
C147 O151 1.241 . S
C148 O141 1.247 . S
C148 O142 1.261 . S
C149 O144 1.259 . S
C149 O146 1.235 . S
O150 Co140 2.021 . S
O150 C147 1.238 . S
O151 Co145 2.052 . S
O151 C147 1.241 . S
O152 Co140 2.137 . S
O152 C143 1.247 . S
O153 Co140 2.244 . S
O153 C143 1.272 . S
O153 Co145 2.135 . S
Co154 O155 2.216 . S
Co154 O156 2.091 . S
Co154 O158 2.004 . S
Co154 O164 2.021 . S
Co154 O166 2.137 . S
Co154 O167 2.244 . S
O155 Co154 2.216 . S
O155 C162 1.247 . S
O156 Co154 2.091 . S
O156 C162 1.261 . S
C157 O166 1.247 . S
C157 O167 1.272 . S
O158 Co154 2.004 . S
O158 C163 1.259 . S
Co159 O160 2.061 . S
Co159 O165 2.052 . S
Co159 O167 2.135 . S
O160 Co159 2.061 . S
O160 C163 1.235 . S
C161 O164 1.238 . S
C161 O165 1.241 . S
C162 O155 1.247 . S
C162 O156 1.261 . S
C163 O158 1.259 . S
C163 O160 1.235 . S
O164 Co154 2.021 . S
O164 C161 1.238 . S
O165 Co159 2.052 . S
O165 C161 1.241 . S
O166 Co154 2.137 . S
O166 C157 1.247 . S
O167 Co154 2.244 . S
O167 C157 1.272 . S
O167 Co159 2.135 . S
Co168 O169 2.216 . S
Co168 O170 2.091 . S
Co168 O172 2.004 . S
Co168 O178 2.021 . S
Co168 O180 2.137 . S
Co168 O181 2.244 . S
O169 Co168 2.216 . S
O169 C176 1.247 . S
O170 Co168 2.091 . S
O170 C176 1.261 . S
C171 O180 1.247 . S
C171 O181 1.272 . S
O172 Co168 2.004 . S
O172 C177 1.259 . S
Co173 O174 2.061 1_554 S
Co173 O179 2.052 1_554 S
Co173 O181 2.135 1_554 S
O174 Co173 2.061 1_556 S
O174 C177 1.235 . S
C175 O178 1.238 . S
C175 O179 1.241 . S
C176 O169 1.247 . S
C176 O170 1.261 . S
C177 O172 1.259 . S
C177 O174 1.235 . S
O178 Co168 2.021 . S
O178 C175 1.238 . S
O179 Co173 2.052 1_556 S
O179 C175 1.241 . S
O180 Co168 2.137 . S
O180 C171 1.247 . S
O181 Co168 2.244 . S
O181 C171 1.272 . S
O181 Co173 2.135 1_556 S
Co182 O183 2.216 . S
Co182 O184 2.091 . S
Co182 O186 2.004 . S
Co182 O192 2.021 . S
Co182 O194 2.137 . S
Co182 O195 2.244 . S
O183 Co182 2.216 . S
O183 C190 1.247 . S
O184 Co182 2.091 . S
O184 C190 1.261 . S
C185 O194 1.247 . S
C185 O195 1.272 . S
O186 Co182 2.004 . S
O186 C191 1.259 . S
Co187 O188 2.061 . S
Co187 O193 2.052 . S
Co187 O195 2.135 . S
O188 Co187 2.061 . S
O188 C191 1.235 . S
C189 O192 1.238 . S
C189 O193 1.241 . S
C190 O183 1.247 . S
C190 O184 1.261 . S
C191 O186 1.259 . S
C191 O188 1.235 . S
O192 Co182 2.021 . S
O192 C189 1.238 . S
O193 Co187 2.052 . S
O193 C189 1.241 . S
O194 Co182 2.137 . S
O194 C185 1.247 . S
O195 Co182 2.244 . S
O195 C185 1.272 . S
O195 Co187 2.135 . S
Co196 O197 2.216 . S
Co196 O198 2.091 . S
Co196 O200 2.004 . S
Co196 O206 2.021 . S
Co196 O208 2.137 . S
Co196 O209 2.244 . S
O197 Co196 2.216 . S
O197 C204 1.247 . S
O198 Co196 2.091 . S
O198 C204 1.261 . S
C199 O208 1.247 . S
C199 O209 1.272 . S
O200 Co196 2.004 . S
O200 C205 1.259 . S
Co201 O202 2.061 1_556 S
Co201 O207 2.052 1_556 S
Co201 O209 2.135 1_556 S
O202 Co201 2.061 1_554 S
O202 C205 1.235 . S
C203 O206 1.238 . S
C203 O207 1.241 . S
C204 O197 1.247 . S
C204 O198 1.261 . S
C205 O200 1.259 . S
C205 O202 1.235 . S
O206 Co196 2.021 . S
O206 C203 1.238 . S
O207 Co201 2.052 1_554 S
O207 C203 1.241 . S
O208 Co196 2.137 . S
O208 C199 1.247 . S
O209 Co196 2.244 . S
O209 C199 1.272 . S
O209 Co201 2.135 1_554 S
Co210 O211 2.216 . S
Co210 O212 2.091 . S
Co210 O214 2.004 . S
Co210 O220 2.021 . S
Co210 O222 2.137 . S
Co210 O223 2.244 . S
O211 Co210 2.216 . S
O211 C218 1.247 . S
O212 Co210 2.091 . S
O212 C218 1.261 . S
C213 O222 1.247 . S
C213 O223 1.272 . S
O214 Co210 2.004 . S
O214 C219 1.259 . S
Co215 O216 2.061 . S
Co215 O221 2.052 . S
Co215 O223 2.135 . S
O216 Co215 2.061 . S
O216 C219 1.235 . S
C217 O220 1.238 . S
C217 O221 1.241 . S
C218 O211 1.247 . S
C218 O212 1.261 . S
C219 O214 1.259 . S
C219 O216 1.235 . S
O220 Co210 2.021 . S
O220 C217 1.238 . S
O221 Co215 2.052 . S
O221 C217 1.241 . S
O222 Co210 2.137 . S
O222 C213 1.247 . S
O223 Co210 2.244 . S
O223 C213 1.272 . S
O223 Co215 2.135 . S
C224 C225 1.369 . S
C224 C226 1.419 . S
C224 H228 0.930 . S
C225 C224 1.369 . S
C225 C234 1.429 1_554 S
C226 C224 1.419 . S
C226 C227 1.363 1_554 S
C226 H229 0.929 . S
C227 C226 1.363 1_556 S
C227 C233 1.428 . S
H228 C224 0.930 . S
H229 C226 0.929 . S
S230 N231 1.613 . S
S230 N232 1.610 . S
N231 S230 1.613 . S
N231 C234 1.350 . S
N232 S230 1.610 . S
N232 C233 1.351 . S
C233 C227 1.428 . S
C233 N232 1.351 . S
C233 C234 1.434 . S
C234 C225 1.429 1_556 S
C234 N231 1.350 . S
C234 C233 1.434 . S
C235 C236 1.369 . S
C235 C237 1.419 . S
C235 H239 0.930 . S
C236 C235 1.369 . S
C236 C245 1.429 . S
C237 C235 1.419 . S
C237 C238 1.363 . S
C237 H240 0.929 . S
C238 C237 1.363 . S
C238 C244 1.428 . S
H239 C235 0.930 . S
H240 C237 0.929 . S
S241 N242 1.613 . S
S241 N243 1.610 . S
N242 S241 1.613 . S
N242 C245 1.350 . S
N243 S241 1.610 . S
N243 C244 1.351 . S
C244 C238 1.428 . S
C244 N243 1.351 . S
C244 C245 1.434 . S
C245 C236 1.429 . S
C245 N242 1.350 . S
C245 C244 1.434 . S
C246 C247 1.369 . S
C246 C248 1.419 . S
C246 H250 0.930 . S
C247 C246 1.369 . S
C247 C256 1.429 1_556 S
C248 C246 1.419 . S
C248 C249 1.363 1_556 S
C248 H251 0.929 . S
C249 C248 1.363 1_554 S
C249 C255 1.428 . S
H250 C246 0.930 . S
H251 C248 0.929 . S
S252 N253 1.613 . S
S252 N254 1.610 . S
N253 S252 1.613 . S
N253 C256 1.350 . S
N254 S252 1.610 . S
N254 C255 1.351 . S
C255 C249 1.428 . S
C255 N254 1.351 . S
C255 C256 1.434 . S
C256 C247 1.429 1_554 S
C256 N253 1.350 . S
C256 C255 1.434 . S
C257 C258 1.369 . S
C257 C259 1.419 . S
C257 H261 0.930 . S
C258 C257 1.369 . S
C258 C267 1.429 . S
C259 C257 1.419 . S
C259 C260 1.363 . S
C259 H262 0.929 . S
C260 C259 1.363 . S
C260 C266 1.428 . S
H261 C257 0.930 . S
H262 C259 0.929 . S
S263 N264 1.613 . S
S263 N265 1.610 . S
N264 S263 1.613 . S
N264 C267 1.350 . S
N265 S263 1.610 . S
N265 C266 1.351 . S
C266 C260 1.428 . S
C266 N265 1.351 . S
C266 C267 1.434 . S
C267 C258 1.429 . S
C267 N264 1.350 . S
C267 C266 1.434 . S
C268 C269 1.369 1_556 S
C268 C270 1.419 . S
C268 H272 0.930 . S
C269 C268 1.369 1_554 S
C269 C278 1.429 . S
C270 C268 1.419 . S
C270 C271 1.363 . S
C270 H273 0.929 . S
C271 C270 1.363 . S
C271 C277 1.428 . S
H272 C268 0.930 . S
H273 C270 0.929 . S
S274 N275 1.613 . S
S274 N276 1.610 . S
N275 S274 1.613 . S
N275 C278 1.350 . S
N276 S274 1.610 . S
N276 C277 1.351 1_554 S
C277 C271 1.428 . S
C277 N276 1.351 1_556 S
C277 C278 1.434 1_556 S
C278 C269 1.429 . S
C278 N275 1.350 . S
C278 C277 1.434 1_554 S
C279 C280 1.369 . S
C279 C281 1.419 . S
C279 H283 0.930 . S
C280 C279 1.369 . S
C280 C289 1.429 . S
C281 C279 1.419 . S
C281 C282 1.363 . S
C281 H284 0.929 . S
C282 C281 1.363 . S
C282 C288 1.428 . S
H283 C279 0.930 . S
H284 C281 0.929 . S
S285 N286 1.613 . S
S285 N287 1.610 . S
N286 S285 1.613 . S
N286 C289 1.350 . S
N287 S285 1.610 . S
N287 C288 1.351 . S
C288 C282 1.428 . S
C288 N287 1.351 . S
C288 C289 1.434 . S
C289 C280 1.429 . S
C289 N286 1.350 . S
C289 C288 1.434 . S
C290 C291 1.369 1_554 S
C290 C292 1.419 . S
C290 H294 0.930 . S
C291 C290 1.369 1_556 S
C291 C300 1.429 . S
C292 C290 1.419 . S
C292 C293 1.363 . S
C292 H295 0.929 . S
C293 C292 1.363 . S
C293 C299 1.428 1_554 S
H294 C290 0.930 . S
H295 C292 0.929 . S
S296 N297 1.613 . S
S296 N298 1.610 . S
N297 S296 1.613 . S
N297 C300 1.350 . S
N298 S296 1.610 . S
N298 C299 1.351 . S
C299 C293 1.428 1_556 S
C299 N298 1.351 . S
C299 C300 1.434 . S
C300 C291 1.429 . S
C300 N297 1.350 . S
C300 C299 1.434 . S
C301 C302 1.369 . S
C301 C303 1.419 . S
C301 H305 0.930 . S
C302 C301 1.369 . S
C302 C311 1.429 . S
C303 C301 1.419 . S
C303 C304 1.363 . S
C303 H306 0.929 . S
C304 C303 1.363 . S
C304 C310 1.428 . S
H305 C301 0.930 . S
H306 C303 0.929 . S
S307 N308 1.613 . S
S307 N309 1.610 . S
N308 S307 1.613 . S
N308 C311 1.350 . S
N309 S307 1.610 . S
N309 C310 1.351 . S
C310 C304 1.428 . S
C310 N309 1.351 . S
C310 C311 1.434 . S
C311 C302 1.429 . S
C311 N308 1.350 . S
C311 C310 1.434 . S
C312 C313 1.369 . S
C312 C314 1.419 1_545 S
C312 H316 0.930 . S
C313 C312 1.369 . S
C313 C322 1.429 1_554 S
C314 C312 1.419 1_565 S
C314 C315 1.363 1_554 S
C314 H317 0.929 . S
C315 C314 1.363 1_556 S
C315 C321 1.428 . S
H316 C312 0.930 . S
H317 C314 0.929 . S
S318 N319 1.613 . S
S318 N320 1.610 1_545 S
N319 S318 1.613 . S
N319 C322 1.350 . S
N320 S318 1.610 1_565 S
N320 C321 1.351 . S
C321 C315 1.428 . S
C321 N320 1.351 . S
C321 C322 1.434 1_565 S
C322 C313 1.429 1_556 S
C322 N319 1.350 . S
C322 C321 1.434 1_545 S
C323 C324 1.369 . S
C323 C325 1.419 1_565 S
C323 H327 0.930 . S
C324 C323 1.369 . S
C324 C333 1.429 . S
C325 C323 1.419 1_545 S
C325 C326 1.363 . S
C325 H328 0.929 . S
C326 C325 1.363 . S
C326 C332 1.428 . S
H327 C323 0.930 . S
H328 C325 0.929 . S
S329 N330 1.613 1_545 S
S329 N331 1.610 . S
N330 S329 1.613 1_565 S
N330 C333 1.350 . S
N331 S329 1.610 . S
N331 C332 1.351 . S
C332 C326 1.428 . S
C332 N331 1.351 . S
C332 C333 1.434 1_545 S
C333 C324 1.429 . S
C333 N330 1.350 . S
C333 C332 1.434 1_565 S
C334 C335 1.369 . S
C334 C336 1.422 1_565 S
C334 H338 0.930 . S
C335 C334 1.369 . S
C335 C344 1.429 1_556 S
C336 C334 1.422 1_545 S
C336 C337 1.359 1_556 S
C336 H339 0.929 . S
C337 C336 1.359 1_554 S
C337 C343 1.435 . S
H338 C334 0.930 . S
H339 C336 0.929 . S
S340 N341 1.613 . S
S340 N342 1.610 . S
N341 S340 1.613 . S
N341 C344 1.350 . S
N342 S340 1.610 . S
N342 C343 1.350 1_565 S
C343 C337 1.435 . S
C343 N342 1.350 1_545 S
C343 C344 1.427 1_545 S
C344 C335 1.429 1_554 S
C344 N341 1.350 . S
C344 C343 1.427 1_565 S
C345 C346 1.369 . S
C345 C347 1.419 1_545 S
C345 H349 0.930 . S
C346 C345 1.369 . S
C346 C355 1.430 . S
C347 C345 1.419 1_565 S
C347 C348 1.363 . S
C347 H350 0.929 . S
C348 C347 1.363 . S
C348 C354 1.428 . S
H349 C345 0.930 . S
H350 C347 0.929 . S
S351 N352 1.613 . S
S351 N353 1.610 . S
N352 S351 1.613 . S
N352 C355 1.350 1_565 S
N353 S351 1.610 . S
N353 C354 1.351 . S
C354 C348 1.428 . S
C354 N353 1.351 . S
C354 C355 1.433 1_565 S
C355 C346 1.430 . S
C355 N352 1.350 1_545 S
C355 C354 1.433 1_545 S
C356 C357 1.369 1_554 S
C356 C358 1.419 . S
C356 H360 0.930 . S
C357 C356 1.369 1_556 S
C357 C366 1.429 . S
C358 C356 1.419 . S
C358 C359 1.363 . S
C358 H361 0.929 . S
C359 C358 1.363 . S
C359 C365 1.428 1_554 S
H360 C356 0.930 . S
H361 C358 0.929 . S
S362 N363 1.613 . S
S362 N364 1.610 . S
N363 S362 1.613 . S
N363 C366 1.350 . S
N364 S362 1.610 . S
N364 C365 1.351 . S
C365 C359 1.428 1_556 S
C365 N364 1.351 . S
C365 C366 1.434 . S
C366 C357 1.429 . S
C366 N363 1.350 . S
C366 C365 1.434 . S
C367 C368 1.369 . S
C367 C369 1.419 . S
C367 H371 0.930 . S
C368 C367 1.369 . S
C368 C377 1.429 . S
C369 C367 1.419 . S
C369 C370 1.363 . S
C369 H372 0.929 . S
C370 C369 1.363 . S
C370 C376 1.428 . S
H371 C367 0.930 . S
H372 C369 0.929 . S
S373 N374 1.613 . S
S373 N375 1.610 . S
N374 S373 1.613 . S
N374 C377 1.350 . S
N375 S373 1.610 . S
N375 C376 1.351 . S
C376 C370 1.428 . S
C376 N375 1.351 . S
C376 C377 1.434 . S
C377 C368 1.429 . S
C377 N374 1.350 . S
C377 C376 1.434 . S
C378 C379 1.369 . S
C378 C380 1.419 . S
C378 H382 0.930 . S
C379 C378 1.369 . S
C379 C388 1.429 1_554 S
C380 C378 1.419 . S
C380 C381 1.363 1_554 S
C380 H383 0.929 . S
C381 C380 1.363 1_556 S
C381 C387 1.428 . S
H382 C378 0.930 . S
H383 C380 0.929 . S
S384 N385 1.613 . S
S384 N386 1.610 . S
N385 S384 1.613 . S
N385 C388 1.350 . S
N386 S384 1.610 . S
N386 C387 1.351 . S
C387 C381 1.428 . S
C387 N386 1.351 . S
C387 C388 1.434 . S
C388 C379 1.429 1_556 S
C388 N385 1.350 . S
C388 C387 1.434 . S
C389 C390 1.369 . S
C389 C391 1.419 . S
C389 H393 0.930 . S
C390 C389 1.369 . S
C390 C399 1.429 . S
C391 C389 1.419 . S
C391 C392 1.363 . S
C391 H394 0.929 . S
C392 C391 1.363 . S
C392 C398 1.428 . S
H393 C389 0.930 . S
H394 C391 0.929 . S
S395 N396 1.613 . S
S395 N397 1.610 . S
N396 S395 1.613 . S
N396 C399 1.350 . S
N397 S395 1.610 . S
N397 C398 1.351 . S
C398 C392 1.428 . S
C398 N397 1.351 . S
C398 C399 1.434 . S
C399 C390 1.429 . S
C399 N396 1.350 . S
C399 C398 1.434 . S
C400 C401 1.369 . S
C400 C402 1.419 . S
C400 H404 0.930 . S
C401 C400 1.369 . S
C401 C410 1.429 . S
C402 C400 1.419 . S
C402 C403 1.363 . S
C402 H405 0.929 . S
C403 C402 1.363 . S
C403 C409 1.428 . S
H404 C400 0.930 . S
H405 C402 0.929 . S
S406 N407 1.613 . S
S406 N408 1.610 . S
N407 S406 1.613 . S
N407 C410 1.350 . S
N408 S406 1.610 . S
N408 C409 1.351 . S
C409 C403 1.428 . S
C409 N408 1.351 . S
C409 C410 1.434 . S
C410 C401 1.429 . S
C410 N407 1.350 . S
C410 C409 1.434 . S
C411 C412 1.369 1_455 S
C411 C413 1.419 . S
C411 H415 0.930 . S
C412 C411 1.369 1_655 S
C412 C421 1.429 1_655 S
C413 C411 1.419 . S
C413 C414 1.363 . S
C413 H416 0.929 . S
C414 C413 1.363 . S
C414 C420 1.428 . S
H415 C411 0.930 . S
H416 C413 0.929 . S
S417 N418 1.613 1_455 S
S417 N419 1.610 . S
N418 S417 1.613 1_655 S
N418 C421 1.350 1_655 S
N419 S417 1.610 . S
N419 C420 1.351 . S
C420 C414 1.428 . S
C420 N419 1.351 . S
C420 C421 1.434 . S
C421 C412 1.429 1_455 S
C421 N418 1.350 1_455 S
C421 C420 1.434 . S
C422 C423 1.369 . S
C422 C424 1.419 . S
C422 H426 0.930 . S
C423 C422 1.369 . S
C423 C432 1.429 . S
C424 C422 1.419 . S
C424 C425 1.363 . S
C424 H427 0.929 . S
C425 C424 1.363 . S
C425 C431 1.428 . S
H426 C422 0.930 . S
H427 C424 0.929 . S
S428 N429 1.613 . S
S428 N430 1.610 . S
N429 S428 1.613 . S
N429 C432 1.350 . S
N430 S428 1.610 . S
N430 C431 1.351 . S
C431 C425 1.428 . S
C431 N430 1.351 . S
C431 C432 1.434 . S
C432 C423 1.429 . S
C432 N429 1.350 . S
C432 C431 1.434 . S
C433 C434 1.369 . S
C433 C435 1.419 . S
C433 H437 0.930 . S
C434 C433 1.369 . S
C434 C443 1.429 . S
C435 C433 1.419 . S
C435 C436 1.363 1_455 S
C435 H438 0.929 . S
C436 C435 1.363 1_655 S
C436 C442 1.428 1_655 S
H437 C433 0.930 . S
H438 C435 0.929 . S
S439 N440 1.613 . S
S439 N441 1.610 1_455 S
N440 S439 1.613 . S
N440 C443 1.350 . S
N441 S439 1.610 1_655 S
N441 C442 1.351 1_655 S
C442 C436 1.428 1_455 S
C442 N441 1.351 1_455 S
C442 C443 1.434 . S
C443 C434 1.429 . S
C443 N440 1.350 . S
C443 C442 1.434 . S
C444 C445 1.369 1_655 S
C444 C446 1.419 . S
C444 H448 0.930 1_655 S
C445 C444 1.369 1_455 S
C445 C454 1.429 1_455 S
C446 C444 1.419 . S
C446 C447 1.363 . S
C446 H449 0.929 . S
C447 C446 1.363 . S
C447 C453 1.428 . S
H448 C444 0.930 1_455 S
H449 C446 0.929 . S
S450 N451 1.613 1_655 S
S450 N452 1.610 . S
N451 S450 1.613 1_455 S
N451 C454 1.350 1_455 S
N452 S450 1.610 . S
N452 C453 1.351 . S
C453 C447 1.428 . S
C453 N452 1.351 . S
C453 C454 1.434 . S
C454 C445 1.429 1_655 S
C454 N451 1.350 1_655 S
C454 C453 1.434 . S
C455 C456 1.369 . S
C455 C457 1.419 . S
C455 H459 0.930 . S
C456 C455 1.369 . S
C456 C465 1.429 . S
C457 C455 1.419 . S
C457 C458 1.363 . S
C457 H460 0.929 . S
C458 C457 1.363 . S
C458 C464 1.428 . S
H459 C455 0.930 . S
H460 C457 0.929 . S
S461 N462 1.613 . S
S461 N463 1.610 . S
N462 S461 1.613 . S
N462 C465 1.350 . S
N463 S461 1.610 . S
N463 C464 1.351 . S
C464 C458 1.428 . S
C464 N463 1.351 . S
C464 C465 1.434 . S
C465 C456 1.429 . S
C465 N462 1.350 . S
C465 C464 1.434 . S
C466 C467 1.369 1_655 S
C466 C468 1.419 . S
C466 H470 0.940 . S
C467 C466 1.369 1_455 S
C467 C476 1.429 1_455 S
C468 C466 1.419 . S
C468 C469 1.363 . S
C468 H471 0.929 . S
C469 C468 1.363 . S
C469 C475 1.428 . S
H470 C466 0.940 . S
H471 C468 0.929 . S
S472 N473 1.613 1_655 S
S472 N474 1.610 . S
N473 S472 1.613 1_455 S
N473 C476 1.350 1_455 S
N474 S472 1.610 . S
N474 C475 1.351 . S
C475 C469 1.428 . S
C475 N474 1.351 . S
C475 C476 1.434 . S
C476 C467 1.429 1_655 S
C476 N473 1.350 1_655 S
C476 C475 1.434 . S
C477 C478 1.369 . S
C477 C479 1.419 . S
C477 H481 0.930 . S
C478 C477 1.369 . S
C478 C487 1.429 . S
C479 C477 1.419 . S
C479 C480 1.363 . S
C479 H482 0.929 . S
C480 C479 1.363 . S
C480 C486 1.428 . S
H481 C477 0.930 . S
H482 C479 0.929 . S
S483 N484 1.613 . S
S483 N485 1.610 . S
N484 S483 1.613 . S
N484 C487 1.350 . S
N485 S483 1.610 . S
N485 C486 1.351 . S
C486 C480 1.428 . S
C486 N485 1.351 . S
C486 C487 1.434 . S
C487 C478 1.429 . S
C487 N484 1.350 . S
C487 C486 1.434 . S
C488 C489 1.369 . S
C488 C490 1.419 . S
C488 H492 0.930 . S
C489 C488 1.369 . S
C489 C498 1.429 . S
C490 C488 1.419 . S
C490 C491 1.363 . S
C490 H493 0.929 . S
C491 C490 1.363 . S
C491 C497 1.428 . S
H492 C488 0.930 . S
H493 C490 0.929 . S
S494 N495 1.613 . S
S494 N496 1.610 . S
N495 S494 1.613 . S
N495 C498 1.350 . S
N496 S494 1.610 . S
N496 C497 1.351 . S
C497 C491 1.428 . S
C497 N496 1.351 . S
C497 C498 1.434 . S
C498 C489 1.429 . S
C498 N495 1.350 . S
C498 C497 1.434 . S
C499 C500 1.369 . S
C499 C501 1.419 . S
C499 H503 0.930 . S
C500 C499 1.369 . S
C500 C509 1.429 . S
C501 C499 1.419 . S
C501 C502 1.363 . S
C501 H504 0.929 . S
C502 C501 1.363 . S
C502 C508 1.428 . S
H503 C499 0.930 . S
H504 C501 0.929 . S
S505 N506 1.613 . S
S505 N507 1.610 . S
N506 S505 1.613 . S
N506 C509 1.350 . S
N507 S505 1.610 . S
N507 C508 1.351 . S
C508 C502 1.428 . S
C508 N507 1.351 . S
C508 C509 1.434 . S
C509 C500 1.429 . S
C509 N506 1.350 . S
C509 C508 1.434 . S
C510 C511 1.369 . S
C510 C512 1.419 . S
C510 H514 0.930 . S
C511 C510 1.369 . S
C511 C520 1.429 . S
C512 C510 1.419 . S
C512 C513 1.363 . S
C512 H515 0.929 . S
C513 C512 1.363 . S
C513 C519 1.428 . S
H514 C510 0.930 . S
H515 C512 0.929 . S
S516 N517 1.613 . S
S516 N518 1.610 . S
N517 S516 1.613 . S
N517 C520 1.350 . S
N518 S516 1.610 . S
N518 C519 1.351 . S
C519 C513 1.428 . S
C519 N518 1.351 . S
C519 C520 1.434 . S
C520 C511 1.429 . S
C520 N517 1.350 . S
C520 C519 1.434 . S
C521 C522 1.369 . S
C521 C523 1.419 . S
C521 H525 0.930 . S
C522 C521 1.369 . S
C522 C531 1.429 . S
C523 C521 1.419 . S
C523 C524 1.363 . S
C523 H526 0.929 . S
C524 C523 1.363 . S
C524 C530 1.428 . S
H525 C521 0.930 . S
H526 C523 0.929 . S
S527 N528 1.613 . S
S527 N529 1.610 . S
N528 S527 1.613 . S
N528 C531 1.350 . S
N529 S527 1.610 . S
N529 C530 1.351 . S
C530 C524 1.428 . S
C530 N529 1.351 . S
C530 C531 1.434 . S
C531 C522 1.429 . S
C531 N528 1.350 . S
C531 C530 1.434 . S
C532 C533 1.369 . S
C532 C534 1.419 . S
C532 H536 0.930 . S
C533 C532 1.369 . S
C533 C542 1.429 . S
C534 C532 1.419 . S
C534 C535 1.363 . S
C534 H537 0.929 . S
C535 C534 1.363 . S
C535 C541 1.428 . S
H536 C532 0.930 . S
H537 C534 0.929 . S
S538 N539 1.613 . S
S538 N540 1.610 . S
N539 S538 1.613 . S
N539 C542 1.350 . S
N540 S538 1.610 . S
N540 C541 1.351 . S
C541 C535 1.428 . S
C541 N540 1.351 . S
C541 C542 1.434 . S
C542 C533 1.429 . S
C542 N539 1.350 . S
C542 C541 1.434 . S
C543 C544 1.369 . S
C543 C545 1.419 . S
C543 H547 0.930 . S
C544 C543 1.369 . S
C544 C553 1.429 . S
C545 C543 1.419 . S
C545 C546 1.363 . S
C545 H548 0.929 . S
C546 C545 1.363 . S
C546 C552 1.428 . S
H547 C543 0.930 . S
H548 C545 0.929 . S
S549 N550 1.613 . S
S549 N551 1.610 . S
N550 S549 1.613 . S
N550 C553 1.350 . S
N551 S549 1.610 . S
N551 C552 1.351 . S
C552 C546 1.428 . S
C552 N551 1.351 . S
C552 C553 1.434 . S
C553 C544 1.429 . S
C553 N550 1.350 . S
C553 C552 1.434 . S
C554 C555 1.369 . S
C554 C556 1.419 . S
C554 H558 0.930 . S
C555 C554 1.369 . S
C555 C564 1.429 . S
C556 C554 1.419 . S
C556 C557 1.363 . S
C556 H559 0.929 . S
C557 C556 1.363 . S
C557 C563 1.428 . S
H558 C554 0.930 . S
H559 C556 0.929 . S
S560 N561 1.613 . S
S560 N562 1.610 . S
N561 S560 1.613 . S
N561 C564 1.350 . S
N562 S560 1.610 . S
N562 C563 1.351 . S
C563 C557 1.428 . S
C563 N562 1.351 . S
C563 C564 1.434 . S
C564 C555 1.429 . S
C564 N561 1.350 . S
C564 C563 1.434 . S
C565 C566 1.369 . S
C565 C567 1.419 . S
C565 H569 0.930 . S
C566 C565 1.369 . S
C566 C575 1.429 . S
C567 C565 1.419 . S
C567 C568 1.363 . S
C567 H570 0.929 . S
C568 C567 1.363 . S
C568 C574 1.428 . S
H569 C565 0.930 . S
H570 C567 0.929 . S
S571 N572 1.613 . S
S571 N573 1.610 . S
N572 S571 1.613 . S
N572 C575 1.350 . S
N573 S571 1.610 . S
N573 C574 1.351 . S
C574 C568 1.428 . S
C574 N573 1.351 . S
C574 C575 1.434 . S
C575 C566 1.429 . S
C575 N572 1.350 . S
C575 C574 1.434 . S
C225 C8 1.510 . S
C227 C175 1.485 . S
C236 C189 1.485 . S
C238 C22 1.511 . S
C247 C36 1.510 . S
C249 C203 1.485 . S
C258 C217 1.482 . S
C260 C50 1.509 . S
C269 C120 1.510 . S
C271 C63 1.480 . S
C280 C77 1.485 . S
C282 C134 1.509 . S
C291 C148 1.513 . S
C293 C91 1.480 . S
C302 C105 1.483 . S
C304 C162 1.509 . S
C313 C3 1.570 . S
C315 C31 1.567 . S
C324 C17 1.566 . S
C326 C45 1.570 . S
C335 C59 1.552 . S
C337 C87 1.555 . S
C346 C73 1.555 . S
C348 C101 1.552 . S
C357 C143 1.566 . S
C359 C115 1.568 . S
C368 C129 1.566 . S
C370 C157 1.569 . S
C379 C199 1.551 . S
C381 C171 1.554 . S
C390 C185 1.552 . S
C392 C213 1.554 . S
C401 C93 1.535 . S
C403 C9 1.552 . S
C412 C107 1.536 . S
C414 C23 1.552 . S
C423 C37 1.554 . S
C425 C65 1.540 . S
C434 C51 1.553 . S
C436 C79 1.538 . S
C445 C205 1.540 . S
C447 C121 1.553 . S
C456 C135 1.552 . S
C458 C219 1.538 . S
C467 C177 1.535 . S
C469 C149 1.551 . S
C478 C163 1.554 . S
C480 C191 1.539 . S
C489 C7 1.330 . S
C491 C49 1.330 . S
C500 C35 1.336 . S
C502 C21 1.337 . S
C511 C64 1.581 . S
C513 C106 1.583 . S
C522 C78 1.583 . S
C524 C92 1.582 . S
C533 C161 1.332 . S
C535 C119 1.330 . S
C544 C133 1.333 . S
C546 C147 1.330 . S
C555 C218 1.582 . S
C557 C176 1.583 . S
C566 C190 1.582 . S
C568 C204 1.583 . S
