# Generated by pormake.
# Topology ecv, (8)-cn, num edge types: 1
# Building blocks:
#     Node 0, Type 0, BuildingBlock: VETTIZ_charged_sbu_0, # of connection points: 8
#     Node 1, Type 0, BuildingBlock: VETTIZ_charged_sbu_0, # of connection points: 8
#     Node 2, Type 0, BuildingBlock: VETTIZ_charged_sbu_0, # of connection points: 8
#     Node 3, Type 0, BuildingBlock: VETTIZ_charged_sbu_0, # of connection points: 8
#     Node 4, Type 0, BuildingBlock: VETTIZ_charged_sbu_0, # of connection points: 8
#     Node 5, Type 0, BuildingBlock: VETTIZ_charged_sbu_0, # of connection points: 8
#     Node 6, Type 0, BuildingBlock: VETTIZ_charged_sbu_0, # of connection points: 8
#     Node 7, Type 0, BuildingBlock: VETTIZ_charged_sbu_0, # of connection points: 8
#     Node 8, Type 0, BuildingBlock: VETTIZ_charged_sbu_0, # of connection points: 8
#     Node 9, Type 0, BuildingBlock: VETTIZ_charged_sbu_0, # of connection points: 8
#     Node 10, Type 0, BuildingBlock: VETTIZ_charged_sbu_0, # of connection points: 8
#     Node 11, Type 0, BuildingBlock: VETTIZ_charged_sbu_0, # of connection points: 8
#     Node 12, Type 0, BuildingBlock: VETTIZ_charged_sbu_0, # of connection points: 8
#     Node 13, Type 0, BuildingBlock: VETTIZ_charged_sbu_0, # of connection points: 8
#     Node 14, Type 0, BuildingBlock: VETTIZ_charged_sbu_0, # of connection points: 8
#     Node 15, Type 0, BuildingBlock: VETTIZ_charged_sbu_0, # of connection points: 8
#     Edge 16, Type (0, 0), BuildingBlock: AJUNOK_clean_linker_0, # of connection points: 2
#     Edge 17, Type (0, 0), BuildingBlock: AJUNOK_clean_linker_0, # of connection points: 2
#     Edge 18, Type (0, 0), BuildingBlock: AJUNOK_clean_linker_0, # of connection points: 2
#     Edge 19, Type (0, 0), BuildingBlock: AJUNOK_clean_linker_0, # of connection points: 2
#     Edge 20, Type (0, 0), BuildingBlock: AJUNOK_clean_linker_0, # of connection points: 2
#     Edge 21, Type (0, 0), BuildingBlock: AJUNOK_clean_linker_0, # of connection points: 2
#     Edge 22, Type (0, 0), BuildingBlock: AJUNOK_clean_linker_0, # of connection points: 2
#     Edge 23, Type (0, 0), BuildingBlock: AJUNOK_clean_linker_0, # of connection points: 2
#     Edge 24, Type (0, 0), BuildingBlock: AJUNOK_clean_linker_0, # of connection points: 2
#     Edge 25, Type (0, 0), BuildingBlock: AJUNOK_clean_linker_0, # of connection points: 2
#     Edge 26, Type (0, 0), BuildingBlock: AJUNOK_clean_linker_0, # of connection points: 2
#     Edge 27, Type (0, 0), BuildingBlock: AJUNOK_clean_linker_0, # of connection points: 2
#     Edge 28, Type (0, 0), BuildingBlock: AJUNOK_clean_linker_0, # of connection points: 2
#     Edge 29, Type (0, 0), BuildingBlock: AJUNOK_clean_linker_0, # of connection points: 2
#     Edge 30, Type (0, 0), BuildingBlock: AJUNOK_clean_linker_0, # of connection points: 2
#     Edge 31, Type (0, 0), BuildingBlock: AJUNOK_clean_linker_0, # of connection points: 2
#     Edge 32, Type (0, 0), BuildingBlock: AJUNOK_clean_linker_0, # of connection points: 2
#     Edge 33, Type (0, 0), BuildingBlock: AJUNOK_clean_linker_0, # of connection points: 2
#     Edge 34, Type (0, 0), BuildingBlock: AJUNOK_clean_linker_0, # of connection points: 2
#     Edge 35, Type (0, 0), BuildingBlock: AJUNOK_clean_linker_0, # of connection points: 2
#     Edge 36, Type (0, 0), BuildingBlock: AJUNOK_clean_linker_0, # of connection points: 2
#     Edge 37, Type (0, 0), BuildingBlock: AJUNOK_clean_linker_0, # of connection points: 2
#     Edge 38, Type (0, 0), BuildingBlock: AJUNOK_clean_linker_0, # of connection points: 2
#     Edge 39, Type (0, 0), BuildingBlock: AJUNOK_clean_linker_0, # of connection points: 2
#     Edge 40, Type (0, 0), BuildingBlock: AJUNOK_clean_linker_0, # of connection points: 2
#     Edge 41, Type (0, 0), BuildingBlock: AJUNOK_clean_linker_0, # of connection points: 2
#     Edge 42, Type (0, 0), BuildingBlock: AJUNOK_clean_linker_0, # of connection points: 2
#     Edge 43, Type (0, 0), BuildingBlock: AJUNOK_clean_linker_0, # of connection points: 2
#     Edge 44, Type (0, 0), BuildingBlock: AJUNOK_clean_linker_0, # of connection points: 2
#     Edge 45, Type (0, 0), BuildingBlock: AJUNOK_clean_linker_0, # of connection points: 2
#     Edge 46, Type (0, 0), BuildingBlock: AJUNOK_clean_linker_0, # of connection points: 2
#     Edge 47, Type (0, 0), BuildingBlock: AJUNOK_clean_linker_0, # of connection points: 2
#     Edge 48, Type (0, 0), BuildingBlock: AJUNOK_clean_linker_0, # of connection points: 2
#     Edge 49, Type (0, 0), BuildingBlock: AJUNOK_clean_linker_0, # of connection points: 2
#     Edge 50, Type (0, 0), BuildingBlock: AJUNOK_clean_linker_0, # of connection points: 2
#     Edge 51, Type (0, 0), BuildingBlock: AJUNOK_clean_linker_0, # of connection points: 2
#     Edge 52, Type (0, 0), BuildingBlock: AJUNOK_clean_linker_0, # of connection points: 2
#     Edge 53, Type (0, 0), BuildingBlock: AJUNOK_clean_linker_0, # of connection points: 2
#     Edge 54, Type (0, 0), BuildingBlock: AJUNOK_clean_linker_0, # of connection points: 2
#     Edge 55, Type (0, 0), BuildingBlock: AJUNOK_clean_linker_0, # of connection points: 2
#     Edge 56, Type (0, 0), BuildingBlock: AJUNOK_clean_linker_0, # of connection points: 2
#     Edge 57, Type (0, 0), BuildingBlock: AJUNOK_clean_linker_0, # of connection points: 2
#     Edge 58, Type (0, 0), BuildingBlock: AJUNOK_clean_linker_0, # of connection points: 2
#     Edge 59, Type (0, 0), BuildingBlock: AJUNOK_clean_linker_0, # of connection points: 2
#     Edge 60, Type (0, 0), BuildingBlock: AJUNOK_clean_linker_0, # of connection points: 2
#     Edge 61, Type (0, 0), BuildingBlock: AJUNOK_clean_linker_0, # of connection points: 2
#     Edge 62, Type (0, 0), BuildingBlock: AJUNOK_clean_linker_0, # of connection points: 2
#     Edge 63, Type (0, 0), BuildingBlock: AJUNOK_clean_linker_0, # of connection points: 2
#     Edge 64, Type (0, 0), BuildingBlock: AJUNOK_clean_linker_0, # of connection points: 2
#     Edge 65, Type (0, 0), BuildingBlock: AJUNOK_clean_linker_0, # of connection points: 2
#     Edge 66, Type (0, 0), BuildingBlock: AJUNOK_clean_linker_0, # of connection points: 2
#     Edge 67, Type (0, 0), BuildingBlock: AJUNOK_clean_linker_0, # of connection points: 2
#     Edge 68, Type (0, 0), BuildingBlock: AJUNOK_clean_linker_0, # of connection points: 2
#     Edge 69, Type (0, 0), BuildingBlock: AJUNOK_clean_linker_0, # of connection points: 2
#     Edge 70, Type (0, 0), BuildingBlock: AJUNOK_clean_linker_0, # of connection points: 2
#     Edge 71, Type (0, 0), BuildingBlock: AJUNOK_clean_linker_0, # of connection points: 2
#     Edge 72, Type (0, 0), BuildingBlock: AJUNOK_clean_linker_0, # of connection points: 2
#     Edge 73, Type (0, 0), BuildingBlock: AJUNOK_clean_linker_0, # of connection points: 2
#     Edge 74, Type (0, 0), BuildingBlock: AJUNOK_clean_linker_0, # of connection points: 2
#     Edge 75, Type (0, 0), BuildingBlock: AJUNOK_clean_linker_0, # of connection points: 2
#     Edge 76, Type (0, 0), BuildingBlock: AJUNOK_clean_linker_0, # of connection points: 2
#     Edge 77, Type (0, 0), BuildingBlock: AJUNOK_clean_linker_0, # of connection points: 2
#     Edge 78, Type (0, 0), BuildingBlock: AJUNOK_clean_linker_0, # of connection points: 2
#     Edge 79, Type (0, 0), BuildingBlock: AJUNOK_clean_linker_0, # of connection points: 2
# Relax obj value: 0.130
# Max RMSD: 0.230
# Mean RMSD: 0.230
data_MOF--net-ecv--node1-VETTIZ_charged_sbu_0--edge1-AJUNOK_clean_linker_0
_symmetry_space_group_name_H-M    P1
_symmetry_Int_Tables_number       1
_symmetry_cell_setting            triclinic
loop_
_symmetry_equiv_pos_as_xyz
'x, y, z'
_cell_length_a     16.30081
_cell_length_b     19.093806
_cell_length_c     83.323157
_cell_angle_alpha  90.989634
_cell_angle_beta   89.382672
_cell_angle_gamma 89.67756
loop_
_atom_site_label
_atom_site_type_symbol
_atom_site_fract_x
_atom_site_fract_y
_atom_site_fract_z
_atom_type_partial_charge
Fe0 Fe 0.14118 0.19022 0.45749 0.0
O1 O 0.1721 0.17098 0.47993 0.0
Fe2 Fe 0.10951 1.02318 0.4417 0.0
Fe3 Fe 0.15137 0.2304 0.49898 0.0
O4 O 0.08943 0.09527 0.45886 0.0
O5 O 0.09182 0.08722 0.46029 0.0
O6 O 0.17177 0.16607 0.4809 0.0
Fe7 Fe 0.13748 0.06646 0.48219 0.0
C8 C 0.24198 0.31287 0.47246 0.0
O9 O 0.03591 0.24112 0.46474 0.0
O10 O 0.05072 0.27836 0.49035 0.0
O11 O 0.08134 0.96625 0.47929 0.0
O12 O 0.02322 0.96853 0.45405 0.0
O13 O 0.03345 0.08859 0.42961 0.0
O14 O 0.09329 0.19691 0.43381 0.0
O15 O 0.07829 0.15701 0.51208 0.0
O16 O 0.02907 0.09268 0.49279 0.0
C17 C 0.04255 0.15427 0.42645 0.0
O18 O 0.24563 0.03222 0.47231 0.0
O19 O 0.19274 0.96299 0.45337 0.0
O20 O 0.20895 0.28458 0.45966 0.0
O21 O 0.22137 0.30018 0.48701 0.0
C22 C 0.01514 0.27892 0.47689 0.0
C23 C 0.03276 0.1059 0.50763 0.0
C24 C 0.24625 0.12143 0.51158 0.0
O25 O 0.25191 0.17876 0.50439 0.0
O26 O 0.199 0.07029 0.5061 0.0
C27 C 0.02697 0.94653 0.46866 0.0
O28 O 0.20481 0.07498 0.43054 0.0
O29 O 0.24964 0.14582 0.44972 0.0
C30 C 0.24937 0.97877 0.46307 0.0
C31 C 0.26105 0.11237 0.43663 0.0
Fe32 Fe 0.12208 0.23872 0.86359 0.0
O33 O 0.15561 0.23467 0.84072 0.0
Fe34 Fe 0.11843 0.05821 0.87104 0.0
Fe35 Fe 0.12621 0.30738 0.82554 0.0
O36 O 0.08863 0.14029 0.85861 0.0
O37 O 0.09876 0.13555 0.85705 0.0
O38 O 0.14367 0.23086 0.83886 0.0
Fe39 Fe 0.07968 0.14423 0.83336 0.0
C40 C 0.99623 0.33828 0.85167 0.0
O41 O 0.17075 0.34078 0.86411 0.0
O42 O 0.22009 0.35427 0.83789 0.0
O43 O 0.19173 0.07948 0.83142 0.0
O44 O 0.20287 1.01863 0.85473 0.0
O45 O 0.21109 0.10875 0.88345 0.0
O46 O 0.23775 0.2068 0.87028 0.0
O47 O 0.19196 0.23258 0.80785 0.0
O48 O 0.18778 0.12758 0.821 0.0
C49 C 0.25529 0.16255 0.88093 0.0
O50 O 0.02278 0.04875 0.83207 0.0
O51 O 0.02942 1.00731 0.85794 0.0
O52 O 1.00687 0.27789 0.85775 0.0
O53 O 0.05095 0.36366 0.84221 0.0
C54 C 0.21497 0.37214 0.85314 0.0
C55 C 0.20673 0.16342 0.80841 0.0
C56 C 0.01884 0.23549 0.80745 0.0
O57 O 0.01748 0.26516 0.82059 0.0
O58 O 0.04582 0.17232 0.80844 0.0
C59 C 0.22716 0.03262 0.8405 0.0
O60 O 0.03957 0.10738 0.88723 0.0
O61 O 0.07384 0.22509 0.88725 0.0
C62 C 1.00627 1.00426 0.84313 0.0
C63 C 0.03493 0.1709 0.8931 0.0
Fe64 Fe 0.87652 0.93093 0.61688 0.0
O65 O 0.90896 0.83098 0.61307 0.0
Fe66 Fe 0.87206 0.99154 0.57781 0.0
Fe67 Fe 0.88313 0.75138 0.62656 0.0
O68 O 0.84326 0.92247 0.59421 0.0
O69 O 0.85703 0.91886 0.59235 0.0
O70 O 0.89938 0.82666 0.6118 0.0
Fe71 Fe 0.92129 0.83082 0.58812 0.0
C72 C 0.96916 0.87174 0.64572 0.0
O73 O 0.76177 0.9019 0.62567 0.0
O74 O 0.7879 0.80306 0.63883 0.0
O75 O 0.81268 0.8129 0.57653 0.0
O76 O 0.80366 0.91429 0.56203 0.0
O77 O 0.77956 0.04053 0.59027 0.0
O78 O 0.82994 0.03362 0.61635 0.0
O79 O 0.80063 0.7064 0.61057 0.0
O80 O 0.81382 0.76514 0.58695 0.0
C81 C 0.78689 0.06305 0.60509 0.0
O82 O 0.95288 0.84735 0.56301 0.0
O83 O 0.98007 0.94846 0.5717 0.0
O84 O 0.92504 0.92273 0.63996 0.0
O85 O 0.96258 0.80586 0.64159 0.0
C86 C 0.74441 0.85801 0.63664 0.0
C87 C 0.77939 0.71825 0.59605 0.0
C88 C 0.99655 0.69426 0.59879 0.0
O89 O 0.9748 0.69909 0.61375 0.0
O90 O 0.97723 0.73625 0.58756 0.0
C91 C 0.78936 0.84602 0.56389 0.0
O92 O 0.95023 0.05039 0.59301 0.0
O93 O 0.99154 0.96694 0.60958 0.0
C94 C 0.97884 0.90869 0.55992 0.0
C95 C 1.00352 1.02576 0.60279 0.0
Fe96 Fe 0.86612 0.04093 0.24086 0.0
O97 O 0.84999 0.9601 0.22666 0.0
Fe98 Fe 0.89455 0.95825 0.2028 0.0
Fe99 Fe 0.88481 0.86699 0.23447 0.0
O100 O 0.85025 0.96427 0.22517 0.0
O101 O 0.93736 0.86623 0.21039 0.0
O102 O 0.93278 0.86046 0.21204 0.0
Fe103 Fe 0.92363 0.77751 0.19816 0.0
C104 C 0.98802 0.92873 0.25596 0.0
O105 O 0.76421 0.99616 0.24929 0.0
O106 O 0.82402 0.89953 0.25806 0.0
O107 O 0.83259 0.8146 0.18309 0.0
O108 O 0.78588 0.91211 0.195 0.0
O109 O 0.83598 0.05441 0.19849 0.0
O110 O 0.80007 0.09446 0.224 0.0
O111 O 0.77831 0.82243 0.22709 0.0
O112 O 0.83524 0.73466 0.21255 0.0
C113 C 0.79406 0.09422 0.20852 0.0
O114 O 1.0059 0.82592 0.18307 0.0
O115 O 0.95248 0.93744 0.18036 0.0
O116 O 0.94068 0.98264 0.25806 0.0
O117 O 0.99281 0.90514 0.24189 0.0
C118 C 0.77863 0.95636 0.26081 0.0
C119 C 0.7761 0.76191 0.22056 0.0
C120 C 0.9987 0.73823 0.23005 0.0
O121 O 0.94039 0.7682 0.23865 0.0
O122 O 1.00575 0.74082 0.21453 0.0
C123 C 0.77784 0.86223 0.18474 0.0
O124 O 1.00238 1.01043 0.20909 0.0
O125 O 0.96945 0.07745 0.23068 0.0
C126 C 1.0023 0.88623 0.17613 0.0
C127 C 0.01712 0.0599 0.2192 0.0
Fe128 Fe 0.11445 0.72772 0.95815 0.0
O129 O 0.14908 0.70627 0.98012 0.0
Fe130 Fe 0.09275 0.5627 0.94117 0.0
Fe131 Fe 0.13255 0.76416 0.99938 0.0
O132 O 0.07166 0.62959 0.95913 0.0
O133 O 0.07239 0.62163 0.96086 0.0
O134 O 0.14899 0.70079 0.98116 0.0
Fe135 Fe 0.12327 0.59892 0.98242 0.0
C136 C 0.20896 0.85391 0.97235 0.0
O137 O 1.00565 0.76884 0.96692 0.0
O138 O 0.02547 0.80881 0.99221 0.0
O139 O 0.0705 0.49786 0.97786 0.0
O140 O 0.01026 0.50492 0.95278 0.0
O141 O 0.01229 0.62698 0.92996 0.0
O142 O 0.06514 0.73686 0.93477 0.0
O143 O 0.06721 0.68712 1.01332 0.0
O144 O 0.0165 0.61673 0.99521 0.0
C145 C 0.01886 0.69283 0.92688 0.0
O146 O 0.23121 0.57089 0.97106 0.0
O147 O 0.17891 0.50241 0.952 0.0
O148 O 0.17108 0.82611 0.96014 0.0
O149 O 0.19571 0.8376 0.987 0.0
C150 C 0.984 0.80526 0.97933 0.0
C151 C 0.02471 0.63233 1.01 0.0
C152 C 0.23714 0.65967 1.00989 0.0
O153 O 0.23749 0.71126 1.00091 0.0
O154 O 0.19062 0.60486 1.00603 0.0
C155 C 0.01329 0.48244 0.96726 0.0
O156 O 0.18343 0.61961 0.93038 0.0
O157 O 0.22692 0.6925 0.94933 0.0
C158 C 0.23531 0.51708 0.96184 0.0
C159 C 0.2384 0.65861 0.93626 0.0
Fe160 Fe 0.14447 0.77545 0.37706 0.0
O161 O 0.15508 0.71288 0.35895 0.0
Fe162 Fe 0.13111 0.60761 0.35981 0.0
Fe163 Fe 0.17051 0.72645 0.33524 0.0
O164 O 0.16579 0.70697 0.36009 0.0
O165 O 0.09371 0.6319 0.33806 0.0
O166 O 0.10616 0.63695 0.33627 0.0
Fe167 Fe 0.12481 0.57217 0.31936 0.0
C168 C 0.02816 0.82523 0.34997 0.0
O169 O 0.2353 0.83231 0.36628 0.0
O170 O 0.22715 0.8215 0.33869 0.0
O171 O 0.19988 0.50323 0.332 0.0
O172 O 0.24468 0.57736 0.35058 0.0
O173 O 0.18231 0.59702 0.38268 0.0
O174 O 0.22232 0.70993 0.38937 0.0
O175 O 0.20565 0.71974 0.30965 0.0
O176 O 0.23301 0.61793 0.31674 0.0
C177 C 0.22442 0.64236 0.3911 0.0
O178 O 0.0305 0.51857 0.3291 0.0
O179 O 0.08282 0.50851 0.35498 0.0
O180 O 0.06154 0.82921 0.36382 0.0
O181 O 0.058 0.78786 0.33779 0.0
C182 C 0.25169 0.85149 0.3518 0.0
C183 C 0.23379 0.65891 0.30567 0.0
C184 C 0.04587 0.72432 0.30905 0.0
O185 O 0.06734 0.75542 0.32245 0.0
O186 O 0.05873 0.65635 0.30622 0.0
C187 C 0.25685 0.5243 0.34136 0.0
O188 O 0.01782 0.63265 0.37034 0.0
O189 O 0.04925 0.72018 0.38734 0.0
C190 C 0.03291 0.49156 0.34337 0.0
C191 C 1.00282 0.66991 0.38298 0.0
Fe192 Fe 0.90982 0.51085 0.12585 0.0
O193 O 0.9137 0.42275 0.11083 0.0
Fe194 Fe 0.88694 0.45221 0.08598 0.0
Fe195 Fe 0.87333 0.3194 0.11701 0.0
O196 O 0.9262 0.44031 0.10913 0.0
O197 O 0.8705 0.34997 0.09008 0.0
O198 O 0.87861 0.34847 0.09302 0.0
Fe199 Fe 0.88348 0.28598 0.07271 0.0
C200 C 0.01451 0.3991 0.13857 0.0
O201 O 0.83374 0.4617 0.14155 0.0
O202 O 0.77614 0.37576 0.12763 0.0
O203 O 0.77785 0.33545 0.06918 0.0
O204 O 0.82875 0.4362 0.0617 0.0
O205 O 0.77434 0.47971 0.09495 0.0
O206 O 0.81213 0.55456 0.11449 0.0
O207 O 0.77093 0.27542 0.10553 0.0
O208 O 0.81881 0.21247 0.08481 0.0
C209 C 0.76179 0.53327 0.10394 0.0
O210 O 0.95325 0.3589 0.05839 0.0
O211 O 0.99969 0.43238 0.07614 0.0
O212 O 1.00295 0.46495 0.1371 0.0
O213 O 0.97038 0.35071 0.13212 0.0
C214 C 0.77496 0.42031 0.13916 0.0
C215 C 0.76059 0.23025 0.09424 0.0
C216 C 1.00243 0.22681 0.0951 0.0
O217 O 0.96397 0.25151 0.10754 0.0
O218 O 0.98673 0.24271 0.08067 0.0
C219 C 0.78137 0.38129 0.05884 0.0
O220 O 0.93065 0.55708 0.08619 0.0
O221 O 0.98545 0.56284 0.11128 0.0
C222 C 0.99682 0.41324 0.06157 0.0
C223 C 0.98375 0.58082 0.09664 0.0
Fe224 Fe 0.85452 0.54251 0.73982 0.0
O225 O 0.83921 0.46252 0.72509 0.0
Fe226 Fe 0.87804 0.46949 0.70101 0.0
Fe227 Fe 0.87978 0.36758 0.7309 0.0
O228 O 0.84178 0.46786 0.72384 0.0
O229 O 0.92877 0.37733 0.70663 0.0
O230 O 0.92468 0.37063 0.70824 0.0
Fe231 Fe 0.91381 0.29171 0.69312 0.0
C232 C 0.98425 0.4338 0.75311 0.0
O233 O 0.75935 0.49132 0.74878 0.0
O234 O 0.82125 0.38878 0.75491 0.0
O235 O 0.81317 0.32896 0.68053 0.0
O236 O 0.7707 0.42126 0.69501 0.0
O237 O 0.81187 0.56371 0.69835 0.0
O238 O 0.77954 0.5961 0.72446 0.0
O239 O 0.77336 0.31919 0.72339 0.0
O240 O 0.83752 0.24002 0.70796 0.0
C241 C 0.77008 0.59963 0.70912 0.0
O242 O 0.98599 0.34721 0.67775 0.0
O243 O 0.92695 0.45725 0.6775 0.0
O244 O 0.93454 0.48557 0.75581 0.0
O245 O 0.9868 0.40894 0.73899 0.0
C246 C 0.7712 0.44219 0.75852 0.0
C247 C 0.77569 0.25974 0.71614 0.0
C248 C 0.99959 0.24515 0.72291 0.0
O249 O 0.94029 0.26873 0.73242 0.0
O250 O 1.00365 0.25392 0.7075 0.0
C251 C 0.75831 0.37412 0.68444 0.0
O252 O 0.98413 0.52429 0.70636 0.0
O253 O 0.95169 0.58731 0.72862 0.0
C254 C 0.97654 0.40877 0.67176 0.0
C255 C 0.99619 0.5748 0.71629 0.0
Fe256 Fe 0.61442 0.22812 0.95573 0.0
O257 O 0.64895 0.2137 0.97841 0.0
Fe258 Fe 0.61644 0.05849 0.9404 0.0
Fe259 Fe 0.61586 0.27314 0.99702 0.0
O260 O 0.58458 0.127 0.95735 0.0
O261 O 0.58517 0.12006 0.95913 0.0
O262 O 0.64987 0.20787 0.97964 0.0
Fe263 Fe 0.62896 0.10532 0.98163 0.0
C264 C 0.69242 0.36197 0.96978 0.0
O265 O 0.49851 0.25918 0.9629 0.0
O266 O 0.50891 0.30664 0.98751 0.0
O267 O 0.5793 1.00087 0.97806 0.0
O268 O 0.53509 0.99906 0.95173 0.0
O269 O 0.53327 0.11373 0.9277 0.0
O270 O 0.56648 0.22932 0.93205 0.0
O271 O 0.55517 0.19365 1.01108 0.0
O272 O 0.51751 0.12083 0.99243 0.0
C273 C 0.5258 0.17949 0.92478 0.0
O274 O 0.74187 0.07922 0.97217 0.0
O275 O 0.70204 1.00571 0.953 0.0
O276 O 0.65888 0.33086 0.95748 0.0
O277 O 0.67632 0.34883 0.98455 0.0
C278 C 0.47118 0.29784 0.97439 0.0
C279 C 0.51977 0.13591 1.00727 0.0
C280 C 0.72725 0.17929 1.01107 0.0
O281 O 0.72204 0.23699 1.00397 0.0
O282 O 0.68928 0.12163 1.0058 0.0
C283 C 0.53151 0.97821 0.96635 0.0
O284 O 0.70687 0.11784 0.93001 0.0
O285 O 0.73108 0.20378 0.94747 0.0
C286 C 0.75136 1.02292 0.964 0.0
C287 C 0.7522 0.16631 0.93541 0.0
Fe288 Fe 0.61794 0.2894 0.37849 0.0
O289 O 0.60057 0.22241 0.36054 0.0
Fe290 Fe 0.64136 0.11807 0.36536 0.0
Fe291 Fe 0.6596 0.23234 0.33935 0.0
O292 O 0.60086 0.21588 0.36219 0.0
O293 O 0.68172 0.12698 0.34288 0.0
O294 O 0.68023 0.13115 0.34188 0.0
Fe295 Fe 0.649 0.06871 0.32414 0.0
C296 C 0.55618 0.36477 0.3493 0.0
O297 O 0.71082 0.33864 0.36707 0.0
O298 O 0.76459 0.25575 0.35111 0.0
O299 O 0.69263 0.98763 0.33772 0.0
O300 O 0.69294 1.01602 0.36465 0.0
O301 O 0.75262 0.15356 0.37401 0.0
O302 O 0.70322 0.23329 0.39121 0.0
O303 O 0.73619 0.21158 0.31718 0.0
O304 O 0.76176 0.09484 0.31921 0.0
C305 C 0.7619 0.19462 0.38607 0.0
O306 O 0.53291 0.05066 0.33188 0.0
O307 O 0.53233 0.08045 0.35805 0.0
O308 O 0.54338 0.34703 0.36411 0.0
O309 O 0.61418 0.33835 0.33973 0.0
C310 C 0.77039 0.31235 0.35911 0.0
C311 C 0.77438 0.15254 0.3124 0.0
C312 C 0.56556 0.20702 0.31264 0.0
O313 O 0.55328 0.2164 0.32741 0.0
O314 O 0.60637 0.15185 0.30875 0.0
C315 C 0.71396 0.97636 0.35229 0.0
O316 O 0.58721 0.12068 0.38848 0.0
O317 O 0.53156 0.23211 0.39037 0.0
C318 C 0.49806 0.05703 0.34552 0.0
C319 C 0.53673 0.16731 0.39472 0.0
Fe320 Fe 0.41531 1.00498 0.12282 0.0
O321 O 0.43796 0.92996 0.10663 0.0
Fe322 Fe 0.37764 0.94651 0.08331 0.0
Fe323 Fe 0.39853 0.83249 0.11051 0.0
O324 O 0.43374 0.93772 0.10489 0.0
O325 O 0.36045 0.84506 0.08695 0.0
O326 O 0.35848 0.84096 0.08821 0.0
Fe327 Fe 0.38251 0.77799 0.06972 0.0
C328 C 0.50679 0.88729 0.13917 0.0
O329 O 0.33647 0.94798 0.13679 0.0
O330 O 0.28778 0.8701 0.11959 0.0
O331 O 0.27353 0.81813 0.06524 0.0
O332 O 0.31149 0.92802 0.0599 0.0
O333 O 0.26884 0.97055 0.09449 0.0
O334 O 0.31674 0.04957 0.11198 0.0
O335 O 0.33965 0.73328 0.11054 0.0
O336 O 0.3259 0.70548 0.08365 0.0
C337 C 0.25934 1.02471 0.10344 0.0
O338 O 0.44184 0.85421 0.05449 0.0
O339 O 0.48652 0.93045 0.07178 0.0
O340 O 0.5072 0.952 0.13454 0.0
O341 O 0.45731 0.83868 0.1335 0.0
C342 C 0.27878 0.90911 0.13199 0.0
C343 C 0.30704 0.69825 0.09853 0.0
C344 C 0.53095 0.75062 0.09063 0.0
O345 O 0.50683 0.78863 0.10252 0.0
O346 O 0.49184 0.74319 0.07763 0.0
C347 C 0.27089 0.86973 0.05615 0.0
O348 O 0.41445 0.05286 0.08344 0.0
O349 O 0.48309 0.06432 0.10768 0.0
C350 C 0.48127 0.91115 0.05731 0.0
C351 C 0.46697 0.083 0.09313 0.0
Fe352 Fe 0.39078 0.97617 0.73769 0.0
O353 O 0.4187 0.87638 0.73237 0.0
Fe354 Fe 0.37003 0.04415 0.6987 0.0
Fe355 Fe 0.38572 0.80357 0.74761 0.0
O356 O 0.35078 0.97343 0.71487 0.0
O357 O 0.34627 0.96816 0.71356 0.0
O358 O 0.41772 0.87082 0.73079 0.0
Fe359 Fe 0.37125 0.86785 0.70853 0.0
C360 C 0.471 0.8964 0.76781 0.0
O361 O 0.27665 0.9511 0.74466 0.0
O362 O 0.30899 0.87555 0.7624 0.0
O363 O 0.31222 0.87954 0.68635 0.0
O364 O 0.27655 0.99651 0.68633 0.0
O365 O 0.29639 0.10155 0.7141 0.0
O366 O 0.3466 0.08008 0.73942 0.0
O367 O 0.28867 0.76373 0.73575 0.0
O368 O 0.25666 0.83779 0.71666 0.0
C369 C 0.29887 0.11243 0.72948 0.0
O370 O 0.48369 0.89252 0.69825 0.0
O371 O 0.4504 0.98576 0.68402 0.0
O372 O 0.43722 0.95439 0.76232 0.0
O373 O 0.48297 0.84297 0.75882 0.0
C374 C 0.27238 0.93349 0.75903 0.0
C375 C 0.24324 0.78227 0.7244 0.0
C376 C 0.45888 0.73071 0.71684 0.0
O377 O 0.45681 0.7395 0.73238 0.0
O378 O 0.41137 0.76306 0.70681 0.0
C379 C 0.26678 0.93192 0.68171 0.0
O380 O 0.467 0.08404 0.71114 0.0
O381 O 0.50397 1.01 0.73067 0.0
C382 C 0.49455 0.93132 0.68609 0.0
C383 C 0.51611 0.06294 0.72185 0.0
Fe384 Fe 0.62678 0.68068 0.45226 0.0
O385 O 0.63632 0.65805 0.47664 0.0
Fe386 Fe 0.63488 0.48888 0.44352 0.0
Fe387 Fe 0.6163 0.72091 0.49675 0.0
O388 O 0.60795 0.57458 0.45861 0.0
O389 O 0.60309 0.55832 0.46033 0.0
O390 O 0.64279 0.65777 0.47939 0.0
Fe391 Fe 0.64502 0.55527 0.48359 0.0
C392 C 0.72546 0.79164 0.47326 0.0
O393 O 0.52545 0.73485 0.46115 0.0
O394 O 0.50638 0.75063 0.48785 0.0
O395 O 0.62185 0.44694 0.48325 0.0
O396 O 0.57408 0.42487 0.45819 0.0
O397 O 0.53068 0.51391 0.43209 0.0
O398 O 0.53569 0.62995 0.43787 0.0
O399 O 0.5589 0.63959 0.5115 0.0
O400 O 0.53131 0.55815 0.49388 0.0
C401 C 0.50189 0.57598 0.43109 0.0
O402 O 0.76151 0.5446 0.47465 0.0
O403 O 0.74124 0.46551 0.45489 0.0
O404 O 0.71554 0.74666 0.46192 0.0
O405 O 0.67317 0.80055 0.48464 0.0
C406 C 0.48486 0.75876 0.4733 0.0
C407 C 0.52945 0.57833 0.50842 0.0
C408 C 0.72771 0.64063 0.51251 0.0
O409 O 0.72822 0.6894 0.50277 0.0
O410 O 0.6973 0.5795 0.50797 0.0
C411 C 0.57125 0.41676 0.47332 0.0
O412 O 0.69668 0.54982 0.42733 0.0
O413 O 0.73453 0.63912 0.44237 0.0
C414 C 0.78616 0.49526 0.46534 0.0
C415 C 0.74217 0.60223 0.42963 0.0
Fe416 Fe 0.60389 0.82115 0.8748 0.0
O417 O 0.57834 0.73969 0.86116 0.0
Fe418 Fe 0.61729 0.64042 0.86954 0.0
Fe419 Fe 0.62187 0.72914 0.83864 0.0
O420 O 0.57658 0.73461 0.86285 0.0
O421 O 0.64563 0.62822 0.84615 0.0
O422 O 0.64569 0.63193 0.84499 0.0
Fe423 Fe 0.59705 0.55817 0.8312 0.0
C424 C 0.52242 0.8704 0.84445 0.0
O425 O 0.6907 0.85712 0.85882 0.0
O426 O 0.73386 0.76095 0.84563 0.0
O427 O 0.65009 0.48774 0.84719 0.0
O428 O 0.66839 0.5394 0.87217 0.0
O429 O 0.73306 0.68045 0.87387 0.0
O430 O 0.69656 0.77597 0.88788 0.0
O431 O 0.68326 0.68488 0.81587 0.0
O432 O 0.70273 0.56843 0.82036 0.0
C433 C 0.74957 0.72935 0.88396 0.0
O434 O 0.48789 0.55351 0.84276 0.0
O435 O 0.50175 0.5991 0.86742 0.0
O436 O 0.5192 0.86663 0.85999 0.0
O437 O 0.57482 0.83462 0.83527 0.0
C438 C 0.7438 0.8235 0.85035 0.0
C439 C 0.71668 0.62273 0.81223 0.0
C440 C 0.51 0.69054 0.81732 0.0
O441 O 0.50814 0.70503 0.8319 0.0
O442 O 0.54545 0.63193 0.81388 0.0
C443 C 0.68364 0.49085 0.86125 0.0
O444 O 0.57835 0.66526 0.89315 0.0
O445 O 0.52334 0.77638 0.89092 0.0
C446 C 0.45991 0.56955 0.85655 0.0
C447 C 0.52722 0.71509 0.89746 0.0
Fe448 Fe 0.40498 0.51311 0.61957 0.0
O449 O 0.43032 0.42511 0.60797 0.0
Fe450 Fe 0.3893 0.41963 0.58328 0.0
Fe451 Fe 0.38481 0.33406 0.61547 0.0
O452 O 0.43106 0.4299 0.60595 0.0
O453 O 0.36071 0.32486 0.59085 0.0
O454 O 0.35903 0.32135 0.59223 0.0
Fe455 Fe 0.39802 0.24391 0.57803 0.0
C456 C 0.4761 0.40845 0.64311 0.0
O457 O 0.30929 0.47333 0.63294 0.0
O458 O 0.27081 0.37819 0.61952 0.0
O459 O 0.29338 0.26896 0.5684 0.0
O460 O 0.32984 0.37868 0.56052 0.0
O461 O 0.2781 0.45545 0.59045 0.0
O462 O 0.3225 0.55066 0.60344 0.0
O463 O 0.32806 0.23612 0.61942 0.0
O464 O 0.3351 0.18244 0.59451 0.0
C465 C 0.26832 0.51743 0.59559 0.0
O466 O 0.45963 0.30643 0.55984 0.0
O467 O 0.50102 0.38908 0.57535 0.0
O468 O 0.48154 0.46838 0.63603 0.0
O469 O 0.42517 0.35897 0.63891 0.0
C470 C 0.25491 0.42876 0.62921 0.0
C471 C 0.30748 0.18721 0.6091 0.0
C472 C 0.5356 0.25197 0.60265 0.0
O473 O 0.49726 0.28919 0.61295 0.0
O474 O 0.50574 0.22994 0.58951 0.0
C475 C 0.2903 0.31812 0.55838 0.0
O476 O 0.44128 0.52289 0.57979 0.0
O477 O 0.492 0.55338 0.60486 0.0
C478 C 0.49819 0.36458 0.5613 0.0
C479 C 0.49235 0.55671 0.58935 0.0
Fe480 Fe 0.40676 0.47245 0.23471 0.0
O481 O 0.44088 0.37398 0.23013 0.0
Fe482 Fe 0.36043 0.53573 0.19705 0.0
Fe483 Fe 0.41765 0.30355 0.24667 0.0
O484 O 0.35457 0.46367 0.21317 0.0
O485 O 0.35036 0.4577 0.21203 0.0
O486 O 0.43867 0.36866 0.22901 0.0
Fe487 Fe 0.39065 0.3608 0.20698 0.0
C488 C 0.51357 0.40242 0.26329 0.0
O489 O 0.29975 0.44227 0.24417 0.0
O490 O 0.34816 0.37794 0.26264 0.0
O491 O 0.33379 0.36515 0.18475 0.0
O492 O 0.2764 0.4761 0.18503 0.0
O493 O 0.28041 0.58411 0.21295 0.0
O494 O 0.35215 0.57352 0.23651 0.0
O495 O 0.31438 0.26219 0.23716 0.0
O496 O 0.28159 0.31713 0.21481 0.0
C497 C 0.29114 0.59717 0.22812 0.0
O498 O 0.49779 0.39863 0.19699 0.0
O499 O 0.44893 0.4873 0.18269 0.0
O500 O 0.47172 0.45597 0.25782 0.0
O501 O 0.51941 0.34468 0.25556 0.0
C502 C 0.30552 0.43246 0.25885 0.0
C503 C 0.26824 0.27039 0.22521 0.0
C504 C 0.48691 0.228 0.21518 0.0
O505 O 0.48387 0.23711 0.23074 0.0
O506 O 0.44303 0.26162 0.20488 0.0
C507 C 0.28043 0.41122 0.18021 0.0
O508 O 0.45075 0.58829 0.20892 0.0
O509 O 0.51168 0.51138 0.22487 0.0
C510 C 0.50336 0.44081 0.18533 0.0
C511 C 0.51138 0.56862 0.21725 0.0
C512 C 0.39029 0.29924 0.47759 0.0
C513 C 0.32581 0.34178 0.47187 0.0
C514 C 0.46934 0.32585 0.48035 0.0
C515 C 0.48673 0.39671 0.47796 0.0
H516 H 0.37944 0.24427 0.47981 0.0
H517 H 0.51814 0.2899 0.48342 0.0
S518 S 0.33798 0.53103 0.46394 0.0
N519 N 0.28328 0.45863 0.46488 0.0
N520 N 0.43126 0.50927 0.46966 0.0
C521 C 0.42123 0.44036 0.47293 0.0
C522 C 0.34115 0.41289 0.46997 0.0
C523 C 0.94528 0.84067 0.46309 0.0
C524 C 0.96022 0.89875 0.47315 0.0
C525 C 0.86983 0.8062 0.46345 0.0
C526 C 0.8055 0.82873 0.47381 0.0
H527 H 0.99091 0.82397 0.45424 0.0
H528 H 0.8616 0.76242 0.45519 0.0
S529 S 0.81516 0.97729 0.50302 0.0
N530 N 0.9058 0.9767 0.49398 0.0
N531 N 0.76427 0.91094 0.49509 0.0
C532 C 0.82114 0.88485 0.48451 0.0
C533 C 0.89837 0.92008 0.48407 0.0
C534 C 0.30655 0.92318 0.83284 0.0
C535 C 0.30564 0.99645 0.8354 0.0
C536 C 0.3799 0.88331 0.83371 0.0
C537 C 0.45589 0.9146 0.83733 0.0
H538 H 0.24907 0.89567 0.83141 0.0
H539 H 0.37566 0.82674 0.83301 0.0
S540 S 0.48801 0.10463 0.84459 0.0
N541 N 0.38874 0.09868 0.84101 0.0
N542 N 0.52529 1.02412 0.84292 0.0
C543 C 0.45644 0.98814 0.83907 0.0
C544 C 0.38192 1.02883 0.83801 0.0
C545 C 0.85159 0.34876 0.86386 0.0
C546 C 0.91853 0.3795 0.85557 0.0
C547 C 0.77638 0.38523 0.86665 0.0
C548 C 0.76544 0.45455 0.86154 0.0
H549 H 0.85631 0.29521 0.86784 0.0
H550 H 0.72596 0.35834 0.87239 0.0
S551 S 0.91898 0.55998 0.83945 0.0
N552 N 0.96679 0.4852 0.8427 0.0
N553 N 0.82702 0.55187 0.84763 0.0
C554 C 0.83192 0.48606 0.85355 0.0
C555 C 0.90785 0.44931 0.85069 0.0
C556 C 0.6416 0.56452 0.58523 0.0
C557 C 0.56404 0.59622 0.58319 0.0
C558 C 0.71206 0.60447 0.58855 0.0
C559 C 0.70852 0.67799 0.58951 0.0
H560 H 0.6461 0.50805 0.58611 0.0
H561 H 0.76875 0.57744 0.59125 0.0
S562 S 0.52404 0.78744 0.58273 0.0
N563 N 0.4904 0.7062 0.58091 0.0
N564 N 0.62342 0.78133 0.58621 0.0
C565 C 0.6336 0.71068 0.58583 0.0
C566 C 0.56133 0.66984 0.58284 0.0
C567 C 0.08312 0.13976 0.60423 0.0
C568 C 0.08075 0.06669 0.60642 0.0
C569 C 0.1553 0.17888 0.60683 0.0
C570 C 0.22944 0.14718 0.61161 0.0
H571 H 0.02897 0.1671 0.60016 0.0
H572 H 0.15426 0.23425 0.60418 0.0
S573 S 0.25721 0.95827 0.61966 0.0
N574 N 0.15986 0.9649 0.61453 0.0
N575 N 0.29529 0.03815 0.61869 0.0
C576 C 0.22787 0.0746 0.61418 0.0
C577 C 0.15382 0.03467 0.61183 0.0
C578 C 0.64501 0.08724 0.20532 0.0
C579 C 0.71715 0.12688 0.20325 0.0
C580 C 0.56836 0.11957 0.20815 0.0
C581 C 0.56137 0.1927 0.20873 0.0
H582 H 0.64935 1.031 0.20658 0.0
H583 H 0.5157 0.08742 0.21092 0.0
S584 S 0.72953 0.32012 0.2027 0.0
N585 N 0.77517 0.2428 0.20104 0.0
N586 N 0.63125 0.30394 0.20584 0.0
C587 C 0.63168 0.23279 0.20543 0.0
C588 C 0.70965 0.19983 0.20278 0.0
C589 C 0.14363 0.74231 0.23775 0.0
C590 C 0.06897 0.70541 0.23797 0.0
C591 C 0.21929 0.70672 0.23682 0.0
C592 C 0.22214 0.63331 0.23634 0.0
H593 H 0.14322 0.79859 0.23624 0.0
H594 H 0.27462 0.73649 0.2347 0.0
S595 S 0.04513 0.51339 0.23991 0.0
N596 N 1.00338 0.59247 0.24011 0.0
N597 N 0.14528 0.52535 0.23869 0.0
C598 C 0.14866 0.59643 0.23871 0.0
C599 C 0.07184 0.63262 0.2395 0.0
C600 C 0.40747 0.94789 0.98288 0.0
C601 C 0.45684 0.93542 0.96923 0.0
C602 C 0.32506 0.92616 0.98329 0.0
C603 C 0.28786 0.89185 0.97 0.0
H604 H 0.43126 0.97733 0.99302 0.0
H605 H 0.29027 0.93585 0.99427 0.0
S606 S 0.39041 0.8489 0.93113 0.0
N607 N 0.46287 0.88461 0.94216 0.0
N608 N 0.30771 0.84857 0.94268 0.0
C609 C 0.33665 0.87955 0.95628 0.0
C610 C 0.42103 0.89924 0.95605 0.0
C611 C 0.78668 0.46422 0.97264 0.0
C612 C 0.77411 0.39421 0.96792 0.0
C613 C 0.86648 0.49091 0.97431 0.0
C614 C 0.93643 0.44807 0.97176 0.0
H615 H 0.73461 0.49843 0.97508 0.0
H616 H 0.87371 0.54635 0.97689 0.0
S617 S 0.93714 0.25884 0.96197 0.0
N618 N 0.83907 0.28063 0.96311 0.0
N619 N 0.98806 0.332 0.96534 0.0
C620 C 0.92471 0.37768 0.96776 0.0
C621 C 0.84387 0.35044 0.96613 0.0
C622 C 0.42301 0.38304 0.33572 0.0
C623 C 0.49225 0.41256 0.3431 0.0
C624 C 0.34862 0.42049 0.33447 0.0
C625 C 0.33919 0.48845 0.34115 0.0
H626 H 0.42419 0.32841 0.33209 0.0
H627 H 0.29673 0.39421 0.3291 0.0
S628 S 0.50287 0.58969 0.36177 0.0
N629 N 0.54721 0.51414 0.35695 0.0
N630 N 0.40837 0.58474 0.35491 0.0
C631 C 0.40909 0.51938 0.34818 0.0
C632 C 0.48501 0.48135 0.34918 0.0
C633 C 0.85068 0.94499 0.36352 0.0
C634 C 0.78573 0.92714 0.35335 0.0
C635 C 0.92873 0.91423 0.36158 0.0
C636 C 0.94661 0.86279 0.34952 0.0
H637 H 0.84282 0.98616 0.37253 0.0
H638 H 0.97598 0.93166 0.36975 0.0
S639 S 0.79663 0.79422 0.32011 0.0
N640 N 0.7439 0.85287 0.33083 0.0
N641 N 0.88991 0.7937 0.32764 0.0
C642 C 0.88172 0.84309 0.33946 0.0
C643 C 0.80183 0.87507 0.34134 0.0
C644 C 0.59134 0.11316 0.07836 0.0
C645 C 0.5227 0.13664 0.08725 0.0
C646 C 0.66755 0.14585 0.08013 0.0
C647 C 0.67734 0.2031 0.09086 0.0
H648 H 0.58854 0.0646 0.07145 0.0
H649 H 0.71999 0.12309 0.07384 0.0
S650 S 0.51031 0.29391 0.11381 0.0
N651 N 0.46497 0.22701 0.10483 0.0
N652 N 0.6075 0.28972 0.10805 0.0
C653 C 0.60653 0.2321 0.09824 0.0
C654 C 0.52917 0.19883 0.09635 0.0
C655 C 0.13169 0.57381 0.0902 0.0
C656 C 0.06127 0.61661 0.09236 0.0
C657 C 0.21119 0.59825 0.09372 0.0
C658 C 0.22427 0.66618 0.10002 0.0
H659 H 0.12483 0.51937 0.08662 0.0
H660 H 0.26315 0.56389 0.0913 0.0
S661 S 0.06239 0.8022 0.10605 0.0
N662 N 0.01126 0.73183 0.10029 0.0
N663 N 0.16007 0.77871 0.10617 0.0
C664 C 0.15479 0.71033 0.10159 0.0
C665 C 0.07396 0.68545 0.09797 0.0
C666 C 0.54365 0.629 0.70598 0.0
C667 C 0.53651 0.70005 0.71041 0.0
C668 C 0.62147 0.59812 0.70317 0.0
C669 C 0.69444 0.63726 0.70463 0.0
H670 H 0.48964 0.59623 0.70577 0.0
H671 H 0.62486 0.54184 0.70144 0.0
S672 S 0.70746 0.82645 0.7146 0.0
N673 N 0.6082 0.80962 0.71509 0.0
N674 N 0.75327 0.75157 0.70971 0.0
C675 C 0.68716 0.70915 0.70801 0.0
C676 C 0.60852 0.74044 0.71096 0.0
C677 C 0.08082 0.15264 0.73699 0.0
C678 C 0.07607 0.21863 0.72992 0.0
C679 C 0.15777 0.12179 0.73989 0.0
C680 C 0.23114 0.15616 0.73568 0.0
H681 H 0.02564 0.12251 0.73897 0.0
H682 H 0.15959 0.06761 0.74354 0.0
S683 S 0.24953 0.33605 0.72039 0.0
N684 N 0.14971 0.32248 0.72166 0.0
N685 N 0.29358 0.26373 0.7268 0.0
C686 C 0.2263 0.22543 0.73059 0.0
C687 C 0.14868 0.25674 0.72767 0.0
C688 C 0.32727 0.90171 0.48099 0.0
C689 C 0.31229 0.92582 0.46551 0.0
C690 C 0.37931 0.84452 0.48332 0.0
C691 C 0.41913 0.81035 0.47024 0.0
H692 H 0.29704 0.92611 0.49132 0.0
H693 H 0.38962 0.82814 0.49552 0.0
S694 S 0.39916 0.85668 0.42718 0.0
N695 N 0.3386 0.91266 0.43695 0.0
N696 N 0.43969 0.80713 0.44109 0.0
C697 C 0.40388 0.83468 0.45462 0.0
C698 C 0.34982 0.89209 0.45232 0.0
C699 C 0.90053 0.35611 0.48597 0.0
C700 C 0.95955 0.3375 0.47428 0.0
C701 C 0.84957 0.4141 0.48382 0.0
C702 C 0.85693 0.45475 0.47 0.0
H703 H 0.89223 0.32456 0.49654 0.0
H704 H 0.8005 0.42428 0.49244 0.0
S705 S 0.01298 0.43662 0.4377 0.0
N706 N 0.03229 0.37137 0.4499 0.0
N707 N 0.93263 0.47842 0.44553 0.0
C708 C 0.9193 0.43981 0.45885 0.0
C709 C 0.97181 0.38147 0.46109 0.0
C710 C 0.31696 0.43324 0.87027 0.0
C711 C 0.25946 0.43538 0.85787 0.0
C712 C 0.37683 0.48541 0.87161 0.0
C713 C 0.37996 0.54015 0.86054 0.0
H714 H 0.32093 0.38784 0.87786 0.0
H715 H 0.42634 0.47811 0.88001 0.0
S716 S 0.22903 0.57826 0.82899 0.0
N717 N 0.19813 0.50367 0.83672 0.0
N718 N 0.31147 0.60114 0.83914 0.0
C719 C 0.3158 0.54769 0.84967 0.0
C720 C 0.25522 0.49501 0.84831 0.0
C721 C 0.80235 0.92673 0.83757 0.0
C722 C 0.81428 0.861 0.84445 0.0
C723 C 0.86873 0.97066 0.8349 0.0
C724 C 0.94751 0.95 0.83949 0.0
H725 H 0.74101 0.94582 0.83517 0.0
H726 H 0.85712 1.02347 0.8309 0.0
S727 S 0.01104 0.77809 0.85526 0.0
N728 N 0.91046 0.77261 0.85339 0.0
N729 N 0.0361 0.85683 0.84896 0.0
C730 C 0.96107 0.88164 0.8448 0.0
C731 C 0.89373 0.83643 0.84719 0.0
C732 C 0.61739 0.17632 0.61967 0.0
C733 C 0.61452 0.2241 0.60709 0.0
C734 C 0.6822 0.12862 0.62058 0.0
C735 C 0.74406 0.12812 0.60881 0.0
H736 H 0.56492 0.17015 0.6276 0.0
H737 H 0.67836 0.08704 0.62921 0.0
S738 S 0.77335 0.25479 0.57611 0.0
N739 N 0.68498 0.27744 0.58466 0.0
N740 N 0.80815 0.18789 0.58641 0.0
C741 C 0.74754 0.1823 0.59765 0.0
C742 C 0.68165 0.23037 0.5967 0.0
C743 C 0.19835 0.62172 0.58648 0.0
C744 C 0.19314 0.55353 0.59225 0.0
C745 C 0.13074 0.66582 0.58743 0.0
C746 C 0.0578 0.64271 0.59456 0.0
H747 H 0.25631 0.64234 0.58221 0.0
H748 H 0.13762 0.71978 0.58382 0.0
S749 S 0.00979 0.46471 0.60845 0.0
N750 N 0.10704 0.46067 0.60266 0.0
N751 N 0.97938 0.54593 0.60525 0.0
C752 C 0.04957 0.5729 0.59902 0.0
C753 C 0.11788 0.52727 0.5976 0.0
C754 C 0.58355 0.67501 0.20843 0.0
C755 C 0.5788 0.61856 0.21909 0.0
C756 C 0.64482 0.72494 0.20982 0.0
C757 C 0.70302 0.72012 0.22191 0.0
H758 H 0.54063 0.68016 0.19867 0.0
H759 H 0.64877 0.76581 0.20098 0.0
S760 S 0.71748 0.58572 0.25322 0.0
N761 N 0.63656 0.56295 0.2426 0.0
N762 N 0.75372 0.65722 0.24486 0.0
C763 C 0.69896 0.66541 0.23284 0.0
C764 C 0.63624 0.61434 0.23151 0.0
C765 C 0.19843 0.16024 0.23349 0.0
C766 C 0.20398 0.216 0.22259 0.0
C767 C 0.1433 0.10527 0.23125 0.0
C768 C 0.09125 0.10292 0.21799 0.0
H769 H 0.23633 0.15899 0.24408 0.0
H770 H 0.1384 0.06592 0.24044 0.0
S771 S 0.07936 0.23372 0.1858 0.0
N772 N 0.15244 0.26347 0.19766 0.0
N773 N 0.0468 0.16033 0.19384 0.0
C774 C 0.09654 0.1568 0.20678 0.0
C775 C 0.1532 0.21324 0.20899 0.0
C776 C 0.32551 0.45114 0.98025 0.0
C777 C 0.29652 0.4619 0.9647 0.0
C778 C 0.37685 0.39435 0.98351 0.0
C779 C 0.40211 0.34649 0.9713 0.0
H780 H 0.30751 0.4862 0.99005 0.0
H781 H 0.39883 0.3894 0.99566 0.0
S782 S 0.34029 0.35137 0.92849 0.0
N783 N 0.29423 0.41986 0.93699 0.0
N784 N 0.391 0.31319 0.94301 0.0
C785 C 0.37148 0.35592 0.95572 0.0
C786 C 0.31907 0.41376 0.95244 0.0
C787 C 0.87341 0.85487 0.96275 0.0
C788 C 0.91601 0.8559 0.9773 0.0
C789 C 0.82308 0.91035 0.95849 0.0
C790 C 0.81102 0.96893 0.96875 0.0
H791 H 0.88109 0.81188 0.95422 0.0
H792 H 0.79356 0.90698 0.94691 0.0
S793 S 0.89901 0.99378 1.00931 0.0
N794 N 0.93746 0.91826 1.00274 0.0
N795 N 0.83986 1.02209 0.99481 0.0
C796 C 0.84961 0.96946 0.98375 0.0
C797 C 0.90211 0.91284 0.98807 0.0
C798 C 0.37462 0.91123 0.36108 0.0
C799 C 0.30844 0.90924 0.35051 0.0
C800 C 0.43263 0.96345 0.36001 0.0
C801 C 0.42647 1.01478 0.34825 0.0
H802 H 0.38331 0.87075 0.36988 0.0
H803 H 0.48527 0.96111 0.36785 0.0
S804 S 0.25593 0.04157 0.32025 0.0
N805 N 0.23208 0.9691 0.32981 0.0
N806 N 0.34539 0.06701 0.32734 0.0
C807 C 0.35854 1.01612 0.33822 0.0
C808 C 0.29823 0.96316 0.33946 0.0
C809 C 0.98322 0.37783 0.35271 0.0
C810 C 0.96705 0.4456 0.34737 0.0
C811 C 0.9184 0.3336 0.35646 0.0
C812 C 0.83743 0.3578 0.35533 0.0
H813 H 0.04574 0.35898 0.35376 0.0
H814 H 0.93133 0.28094 0.36043 0.0
S815 S 0.76569 0.53264 0.34262 0.0
N816 N 0.86672 0.53587 0.34144 0.0
N817 N 0.7442 0.45312 0.34881 0.0
C818 C 0.82107 0.42595 0.35023 0.0
C819 C 0.88653 0.47008 0.34616 0.0
C820 C 0.59698 0.66828 0.10897 0.0
C821 C 0.59477 0.69852 0.09369 0.0
C822 C 0.64838 0.61173 0.112 0.0
C823 C 0.69744 0.58235 0.09975 0.0
H824 H 0.55716 0.68723 0.11861 0.0
H825 H 0.65027 0.59116 0.12402 0.0
S826 S 0.71314 0.64028 0.05761 0.0
N827 N 0.64511 0.69407 0.0661 0.0
N828 N 0.74163 0.58623 0.07181 0.0
C829 C 0.69476 0.61056 0.08432 0.0
C830 C 0.64324 0.66904 0.08127 0.0
C831 C 0.16934 0.1203 0.11379 0.0
C832 C 0.18557 0.06821 0.10199 0.0
C833 C 0.10871 0.17074 0.11164 0.0
C834 C 0.06362 0.17174 0.09744 0.0
H835 H 0.2056 0.12377 0.12458 0.0
H836 H 0.09888 0.21036 0.12092 0.0
S837 S 0.07512 0.04211 0.06369 0.0
N838 N 0.14632 1.01671 0.07628 0.0
N839 N 0.03242 0.11243 0.07209 0.0
C840 C 0.07614 0.11799 0.08586 0.0
C841 C 0.13707 0.06584 0.08819 0.0
C842 C 0.59231 0.16298 0.73301 0.0
C843 C 0.59126 0.10241 0.72321 0.0
C844 C 0.6523 0.2143 0.7308 0.0
C845 C 0.7117 0.20654 0.71854 0.0
H846 H 0.54406 0.1723 0.74185 0.0
H847 H 0.65109 0.26065 0.73848 0.0
S848 S 0.73173 0.05579 0.68962 0.0
N849 N 0.65273 0.03618 0.70118 0.0
N850 N 0.76448 0.13214 0.69642 0.0
C851 C 0.71115 0.14483 0.70884 0.0
C852 C 0.65114 0.09274 0.71134 0.0
C853 C 0.14253 0.60637 0.71808 0.0
C854 C 0.06296 0.62448 0.71362 0.0
C855 C 0.20125 0.65833 0.72069 0.0
C856 C 0.18236 0.73017 0.71895 0.0
H857 H 0.15776 0.55246 0.7207 0.0
H858 H 0.26121 0.64213 0.72478 0.0
S859 S 0.98489 0.80285 0.70518 0.0
N860 N 0.96953 0.71745 0.70593 0.0
N861 N 0.081 0.81541 0.71062 0.0
C862 C 0.10494 0.74829 0.71314 0.0
C863 C 0.04479 0.69524 0.7106 0.0
C864 C 0.36349 0.0728 0.41555 0.0
C865 C 0.3391 0.12177 0.42758 0.0
C866 C 0.43222 0.08472 0.40566 0.0
C867 C 0.47805 0.14647 0.40734 0.0
H868 H 0.32777 1.02595 0.41342 0.0
H869 H 0.44638 0.04759 0.39603 0.0
S870 S 0.44411 0.28911 0.43744 0.0
N871 N 0.37013 0.23263 0.44104 0.0
N872 N 0.4985 0.25454 0.42248 0.0
C873 C 0.457 0.19393 0.41979 0.0
C874 C 0.38773 0.18176 0.4299 0.0
C875 C 0.90502 0.14864 0.39046 0.0
C876 C 0.84067 0.19443 0.3951 0.0
C877 C 0.9753 0.14151 0.39993 0.0
C878 C 0.98484 0.18044 0.4143 0.0
H879 H 0.89959 0.11548 0.37985 0.0
H880 H 0.02039 0.10196 0.39648 0.0
S881 S 0.83815 0.31143 0.43128 0.0
N882 N 0.79493 0.28374 0.41454 0.0
N883 N 0.92599 0.26836 0.43233 0.0
C884 C 0.92378 0.22948 0.41855 0.0
C885 C 0.85205 0.23696 0.40896 0.0
C886 C 0.37972 0.16464 0.919 0.0
C887 C 0.45483 0.19494 0.91447 0.0
C888 C 0.31603 0.15571 0.90809 0.0
C889 C 0.32375 0.17754 0.89214 0.0
H890 H 0.37191 0.14362 0.93092 0.0
H891 H 0.26066 0.13005 0.91218 0.0
S892 S 0.50398 0.26809 0.87466 0.0
N893 N 0.53149 0.25171 0.89328 0.0
N894 N 0.40962 0.23789 0.87275 0.0
C895 C 0.39614 0.21297 0.8877 0.0
C896 C 0.46223 0.22094 0.89886 0.0
C897 C 0.88551 0.11741 0.92569 0.0
C898 C 0.83348 0.17574 0.92754 0.0
C899 C 0.95534 0.11944 0.91577 0.0
C900 C 0.97546 0.17939 0.90685 0.0
H901 H 0.87025 0.06864 0.93146 0.0
H902 H 0.99119 0.07174 0.91435 0.0
S903 S 0.86336 0.34912 0.90905 0.0
N904 N 0.81072 0.29786 0.92114 0.0
N905 N 0.94085 0.30125 0.90194 0.0
C906 C 0.92708 0.23999 0.90953 0.0
C907 C 0.85618 0.23815 0.91995 0.0
C908 C 0.59481 0.96269 0.6639 0.0
C909 C 0.55749 0.91119 0.67344 0.0
C910 C 0.65302 0.94499 0.65179 0.0
C911 C 0.67605 0.87484 0.64843 0.0
H912 H 0.58005 1.0175 0.66599 0.0
H913 H 0.68194 0.98694 0.64532 0.0
S914 S 0.58682 0.71906 0.66799 0.0
N915 N 0.54143 0.78614 0.67726 0.0
N916 N 0.65065 0.75317 0.65479 0.0
C917 C 0.63693 0.82268 0.65746 0.0
C918 C 0.57783 0.8407 0.66982 0.0
C919 C 0.08348 0.83678 0.66397 0.0
C920 C 0.04058 0.89008 0.65597 0.0
C921 C 0.15793 0.85 0.67173 0.0
C922 C 0.19303 0.91713 0.67184 0.0
H923 H 0.05985 0.78388 0.66414 0.0
H924 H 0.18725 0.80737 0.67793 0.0
S925 S 0.10669 0.07536 0.65257 0.0
N926 N 0.03967 1.01309 0.6487 0.0
N927 N 0.17943 0.03772 0.66306 0.0
C928 C 0.15087 0.97106 0.66391 0.0
C929 C 0.07475 0.95771 0.65611 0.0
C930 C 0.63622 0.90546 0.17694 0.0
C931 C 0.70445 0.8613 0.17379 0.0
C932 C 0.57026 0.91021 0.16615 0.0
C933 C 0.56832 0.87016 0.15178 0.0
H934 H 0.63441 0.93803 0.18768 0.0
H935 H 0.52122 0.94722 0.16887 0.0
S936 S 0.73182 0.7484 0.13726 0.0
N937 N 0.76522 0.77705 0.1548 0.0
N938 N 0.64176 0.7865 0.13477 0.0
C939 C 0.63486 0.82472 0.1486 0.0
C940 C 0.70245 0.82004 0.15952 0.0
C941 C 0.09318 0.838 0.15417 0.0
C942 C 0.06357 0.89669 0.16304 0.0
C943 C 0.16092 0.84285 0.14373 0.0
C944 C 0.2021 0.90652 0.14173 0.0
H945 H 0.06546 0.78707 0.15571 0.0
H946 H 0.18359 0.79556 0.13781 0.0
S947 S 0.1473 0.07665 0.16138 0.0
N948 N 0.07891 1.02137 0.16849 0.0
N949 N 0.20653 1.03033 0.14894 0.0
C950 C 0.17161 0.96616 0.15008 0.0
C951 C 0.10205 0.9614 0.16063 0.0
C952 C 0.4624 0.68414 0.92402 0.0
C953 C 0.45604 0.69593 0.90746 0.0
C954 C 0.39159 0.67233 0.93346 0.0
C955 C 0.31318 0.67049 0.92649 0.0
H956 H 0.5217 0.68638 0.92974 0.0
H957 H 0.39809 0.66487 0.94625 0.0
S958 S 0.26613 0.69293 0.88339 0.0
N959 N 0.36661 0.70193 0.88443 0.0
N960 N 0.23467 0.67811 0.90192 0.0
C961 C 0.30717 0.67954 0.90984 0.0
C962 C 0.37842 0.69268 0.90039 0.0
C963 C 0.91013 0.77085 0.91574 0.0
C964 C 0.96715 0.71622 0.9135 0.0
C965 C 0.84232 0.77709 0.90554 0.0
C966 C 0.82904 0.72874 0.89276 0.0
H967 H 0.91435 0.80559 0.9261 0.0
H968 H 0.79766 0.81785 0.9083 0.0
S969 S 0.97145 0.58494 0.88025 0.0
N970 N 0.01406 0.62014 0.89629 0.0
N971 N 0.88688 0.63073 0.87729 0.0
C972 C 0.89046 0.67813 0.88959 0.0
C973 C 0.95947 0.67234 0.89988 0.0
C974 C 0.30714 0.66004 0.41581 0.0
C975 C 0.28538 0.61661 0.40272 0.0
C976 C 0.37536 0.64492 0.42522 0.0
C977 C 0.42547 0.58633 0.42185 0.0
H978 H 0.27252 0.70745 0.41855 0.0
H979 H 0.38955 0.67997 0.43512 0.0
S980 S 0.39113 0.45217 0.3898 0.0
N981 N 0.31585 0.50933 0.3876 0.0
N982 N 0.44485 0.48122 0.4052 0.0
C983 C 0.40183 0.54009 0.40936 0.0
C984 C 0.33167 0.55521 0.39982 0.0
C985 C 0.84227 0.68557 0.4168 0.0
C986 C 0.80789 0.61817 0.41748 0.0
C987 C 0.90283 0.70213 0.40531 0.0
C988 C 0.93222 0.65216 0.3939 0.0
H989 H 0.82195 0.72624 0.42518 0.0
H990 H 0.92729 0.75477 0.40547 0.0
S991 S 0.86695 0.46623 0.39123 0.0
N992 N 0.81064 0.5 0.40605 0.0
N993 N 0.92401 0.53101 0.3846 0.0
C994 C 0.89852 0.5844 0.39447 0.0
C995 C 0.83679 0.56749 0.4062 0.0
C996 C 0.59803 0.37026 0.16715 0.0
C997 C 0.57408 0.4353 0.17401 0.0
C998 C 0.661 0.36562 0.15542 0.0
C999 C 0.70352 0.42568 0.15045 0.0
H1000 H 0.56684 0.32286 0.17065 0.0
H1001 H 0.67769 0.31459 0.15048 0.0
S1002 S 0.66444 0.6081 0.16506 0.0
N1003 N 0.59709 0.56063 0.17495 0.0
N1004 N 0.71666 0.55223 0.1535 0.0
C1005 C 0.68019 0.49084 0.15739 0.0
C1006 C 0.61523 0.49556 0.169 0.0
C1007 C 0.13306 0.40462 0.17596 0.0
C1008 C 0.21242 0.38782 0.17041 0.0
C1009 C 0.06658 0.40018 0.16574 0.0
C1010 C 0.07794 0.3794 0.14968 0.0
H1011 H 0.12311 0.42536 0.18802 0.0
H1012 H 0.00706 0.41835 0.17006 0.0
S1013 S 0.27183 0.32218 0.12989 0.0
N1014 N 0.29807 0.34243 0.14852 0.0
N1015 N 0.17176 0.33588 0.12892 0.0
C1016 C 0.15558 0.35685 0.14429 0.0
C1017 C 0.22361 0.36061 0.15482 0.0
C1018 C 0.57876 0.45362 0.66266 0.0
C1019 C 0.53816 0.39557 0.6558 0.0
C1020 C 0.64839 0.44542 0.6721 0.0
C1021 C 0.68101 0.37882 0.67524 0.0
H1022 H 0.55853 0.50652 0.66025 0.0
H1023 H 0.679 0.49218 0.67642 0.0
S1024 S 0.5925 0.2089 0.66233 0.0
N1025 N 0.53182 0.26809 0.65426 0.0
N1026 N 0.66326 0.2532 0.6722 0.0
C1027 C 0.63914 0.31992 0.66926 0.0
C1028 C 0.56737 0.32814 0.65961 0.0
C1029 C 0.12451 0.37125 0.63776 0.0
C1030 C 0.17446 0.43104 0.63782 0.0
C1031 C 0.05502 0.36761 0.64769 0.0
C1032 C 0.0323 0.42351 0.65811 0.0
H1033 H 0.14134 0.32528 0.63064 0.0
H1034 H 0.02156 0.31873 0.64794 0.0
S1035 S 0.13334 0.59656 0.6608 0.0
N1036 N 0.1893 0.55155 0.64752 0.0
N1037 N 0.05901 0.54361 0.66643 0.0
C1038 C 0.07701 0.48592 0.65725 0.0
C1039 C 0.1482 0.48982 0.6471 0.0
C1040 C 0.33982 0.2492 0.53515 0.0
C1041 C 0.27128 0.28064 0.543 0.0
C1042 C 0.33983 0.17828 0.52976 0.0
C1043 C 0.2661 0.13896 0.52861 0.0
H1044 H 0.39671 0.27773 0.53427 0.0
H1045 H 0.39399 0.15947 0.52333 0.0
S1046 S 0.07817 0.1853 0.55198 0.0
N1047 N 0.13251 0.25801 0.55243 0.0
N1048 N 0.13358 0.12757 0.54153 0.0
C1049 C 0.20028 0.16649 0.5378 0.0
C1050 C 0.19994 0.23805 0.5437 0.0
C1051 C 0.93362 1.0112 0.54338 0.0
C1052 C 0.97468 0.94533 0.54406 0.0
C1053 C 0.95105 0.06117 0.53149 0.0
C1054 C 0.01068 0.04859 0.51949 0.0
H1055 H 0.89067 1.02663 0.55278 0.0
H1056 H 0.91924 0.11113 0.53203 0.0
S1057 S 0.13467 0.88317 0.51551 0.0
N1058 N 0.07545 0.86988 0.5313 0.0
N1059 N 0.10945 0.96162 0.50916 0.0
C1060 C 0.04962 0.98133 0.51966 0.0
C1061 C 0.03119 0.93043 0.53179 0.0
C1062 C 0.3074 0.05336 0.77334 0.0
C1063 C 0.25676 0.9925 0.77173 0.0
C1064 C 0.28943 0.11107 0.78403 0.0
C1065 C 0.21876 0.11265 0.79385 0.0
H1066 H 0.36366 0.05731 0.76667 0.0
H1067 H 0.33323 0.15329 0.78503 0.0
S1068 S 0.06407 0.96751 0.79465 0.0
N1069 N 0.13205 0.93976 0.78117 0.0
N1070 N 0.09739 0.0444 0.80099 0.0
C1071 C 0.16727 0.05202 0.79222 0.0
C1072 C 0.18615 0.99365 0.78139 0.0
C1073 C 0.02597 0.26341 0.77706 0.0
C1074 C 0.02381 0.28559 0.79317 0.0
C1075 C 0.02125 0.31257 0.76446 0.0
C1076 C 0.0099 0.38568 0.76682 0.0
H1077 H 0.03034 0.20804 0.77411 0.0
H1078 H 0.02707 0.29307 0.75268 0.0
S1079 S 0.03265 0.47512 0.80607 0.0
N1080 N 0.03198 0.39116 0.81039 0.0
N1081 N 0.02262 0.47852 0.78647 0.0
C1082 C 0.01848 0.40918 0.78263 0.0
C1083 C 0.02434 0.36046 0.79568 0.0
C1084 C 0.67439 0.73275 0.53223 0.0
C1085 C 0.72717 0.67334 0.52922 0.0
C1086 C 0.69504 0.79016 0.54253 0.0
C1087 C 0.77016 0.79236 0.55056 0.0
H1088 H 0.61896 0.73872 0.52541 0.0
H1089 H 0.6518 0.83302 0.54415 0.0
S1090 S 0.92643 0.64697 0.54895 0.0
N1091 N 0.85498 0.61986 0.5365 0.0
N1092 N 0.8936 0.72329 0.55608 0.0
C1093 C 0.82092 0.73099 0.5485 0.0
C1094 C 0.79961 0.67315 0.53796 0.0
C1095 C 0.72239 0.06015 0.27594 0.0
C1096 C 0.77817 1.00256 0.27595 0.0
C1097 C 0.7347 0.12266 0.28475 0.0
C1098 C 0.79948 0.13057 0.29566 0.0
H1099 H 0.66953 0.05847 0.26815 0.0
H1100 H 0.68686 0.16147 0.2841 0.0
S1101 S 0.9572 0.99425 0.30302 0.0
N1102 N 0.89614 0.95672 0.28977 0.0
N1103 N 0.92333 0.07534 0.30535 0.0
C1104 C 0.85926 0.07564 0.29503 0.0
C1105 C 0.84481 1.01032 0.28642 0.0
C1106 C 0.96742 0.76639 0.28424 0.0
C1107 C 0.03123 0.77481 0.29524 0.0
C1108 C 0.95339 0.81567 0.27195 0.0
C1109 C 1.00307 0.8762 0.26951 0.0
H1110 H 0.92656 0.72215 0.28532 0.0
H1111 H 0.90177 0.80467 0.26452 0.0
S1112 S 0.18662 0.91751 0.29338 0.0
N1113 N 0.14871 0.84767 0.3021 0.0
N1114 N 0.12475 0.93534 0.27847 0.0
C1115 C 0.06938 0.88298 0.27996 0.0
C1116 C 0.08249 0.83421 0.29285 0.0
C1117 C 0.1849 0.79 0.04054 0.0
C1118 C 0.25236 0.83734 0.03994 0.0
C1119 C 0.19103 0.71896 0.03523 0.0
C1120 C 0.25756 0.69294 1.02599 0.0
H1121 H 0.13187 0.80417 0.04789 0.0
H1122 H 0.14083 0.68476 0.03773 0.0
S1123 S 0.43973 0.80011 1.01549 0.0
N1124 N 0.38039 0.85542 1.02577 0.0
N1125 N 0.3934 0.72359 1.0162 0.0
C1126 C 0.32575 0.73981 1.02525 0.0
C1127 C 0.31925 0.81242 1.0306 0.0
C1128 C 0.01483 0.59284 0.03964 0.0
C1129 C 0.01222 0.5758 1.02306 0.0
C1130 C 0.01571 0.54086 0.05175 0.0
C1131 C 0.01159 0.46786 0.04837 0.0
H1132 H 0.01557 0.64726 0.04344 0.0
H1133 H 0.01991 0.5589 0.06389 0.0
S1134 S 0.00915 0.39163 1.00729 0.0
N1135 N 1.00312 0.47684 1.00455 0.0
N1136 N 0.01619 0.38221 1.02681 0.0
C1137 C 0.01194 0.44994 1.03197 0.0
C1138 C 0.00818 0.50262 1.01963 0.0
C1139 C 0.18479 0.56124 0.28717 0.0
C1140 C 0.2352 0.62146 0.28951 0.0
C1141 C 0.2094 0.50147 0.27784 0.0
C1142 C 0.28682 0.49629 0.27025 0.0
H1143 H 0.1272 0.55711 0.29351 0.0
H1144 H 0.16721 0.45804 0.27679 0.0
S1145 S 0.43899 0.64523 0.27094 0.0
N1146 N 0.36227 0.67463 0.28214 0.0
N1147 N 0.41055 0.56663 0.26493 0.0
C1148 C 0.33558 0.55911 0.27171 0.0
C1149 C 0.30921 0.62001 0.28108 0.0
C1150 C 0.82472 0.23975 1.02824 0.0
C1151 C 0.75084 0.20043 1.02779 0.0
C1152 C 0.8288 0.30857 0.03501 0.0
C1153 C 0.76308 0.34112 0.04343 0.0
H1154 H 0.87669 0.2217 1.02104 0.0
H1155 H 0.88536 0.33569 1.03401 0.0
S1156 S 0.56355 0.25237 0.05095 0.0
N1157 N 0.61671 0.19367 0.04036 0.0
N1158 N 0.62282 0.32192 0.05243 0.0
C1159 C 0.69022 0.30014 0.04392 0.0
C1160 C 0.68674 0.22943 0.03735 0.0
C1161 C 0.81105 0.55062 0.7954 0.0
C1162 C 0.74229 0.59682 0.79595 0.0
C1163 C 0.81444 0.49014 0.78527 0.0
C1164 C 0.7505 0.4724 0.77485 0.0
H1165 H 0.86003 0.55824 0.80392 0.0
H1166 H 0.86834 0.45774 0.78524 0.0
S1167 S 0.55752 0.57583 0.77077 0.0
N1168 N 0.61093 0.62139 0.78397 0.0
N1169 N 0.6138 0.50593 0.76628 0.0
C1170 C 0.68021 0.51687 0.77574 0.0
C1171 C 0.67871 0.58032 0.7853 0.0
C1172 C 0.45515 0.08419 1.03305 0.0
C1173 C 0.51001 0.07722 1.01985 0.0
C1174 C 0.44569 1.03078 0.04476 0.0
C1175 C 0.49106 0.96686 0.04425 0.0
H1176 H 0.41825 0.13133 1.03431 0.0
H1177 H 0.4009 0.03971 0.05419 0.0
S1178 S 0.64963 0.92258 1.01353 0.0
N1179 N 0.61509 0.99998 1.00814 0.0
N1180 N 0.59637 0.90231 1.02972 0.0
C1181 C 0.5468 0.95947 1.03136 0.0
C1182 C 0.55652 1.01353 1.01941 0.0
C1183 C 0.47948 0.30339 0.30014 0.0
C1184 C 0.55661 0.27015 0.30152 0.0
C1185 C 0.46728 0.36232 0.29023 0.0
C1186 C 0.53103 0.39011 0.28059 0.0
H1187 H 0.42672 0.28169 0.30623 0.0
H1188 H 0.40547 0.38203 0.28911 0.0
S1189 S 0.74892 0.33746 0.28207 0.0
N1190 N 0.70148 0.2822 0.29389 0.0
N1191 N 0.67647 0.39017 0.27575 0.0
C1192 C 0.60969 0.36429 0.28354 0.0
C1193 C 0.6227 0.3041 0.29342 0.0
C1194 C 0.42228 0.77141 0.80054 0.0
C1195 C 0.50129 0.75208 0.80557 0.0
C1196 C 0.40799 0.83078 0.79088 0.0
C1197 C 0.47211 0.87424 0.78506 0.0
H1198 H 0.3702 0.74005 0.80411 0.0
H1199 H 0.34555 0.83972 0.78745 0.0
S1200 S 0.68681 0.86507 0.79834 0.0
N1201 N 0.64205 0.79807 0.8069 0.0
N1202 N 0.61421 0.9025 0.78791 0.0
C1203 C 0.54915 0.86091 0.79142 0.0
C1204 C 0.56425 0.80165 0.80156 0.0
C1205 C 0.45016 0.47507 0.54572 0.0
C1206 C 0.50381 0.41623 0.54722 0.0
C1207 C 0.45896 0.52634 0.53353 0.0
C1208 C 0.52191 0.52275 0.5218 0.0
H1209 H 0.39963 0.48267 0.55396 0.0
H1210 H 0.4152 0.56918 0.53327 0.0
S1211 S 0.68392 0.38246 0.52079 0.0
N1212 N 0.62436 0.36017 0.53595 0.0
N1213 N 0.64296 0.45451 0.51364 0.0
C1214 C 0.57659 0.46429 0.5233 0.0
C1215 C 0.56707 0.41209 0.53571 0.0
loop_
_geom_bond_atom_site_label_1
_geom_bond_atom_site_label_2
_geom_bond_distance
_geom_bond_site_symmetry_2
_ccdc_geom_bond_type
Fe0 O1 1.886 . S
Fe0 O4 1.715 . S
Fe0 O9 2.077 . S
Fe0 O14 1.935 . S
Fe0 O20 2.077 . S
Fe0 O29 1.935 . S
O1 Fe0 1.886 . S
O1 Fe3 1.715 . S
Fe2 O4 1.886 . S
Fe2 O5 1.715 . S
Fe2 O12 1.935 1_545 S
Fe2 O13 2.077 . S
Fe2 O19 1.935 1_545 S
Fe2 O28 2.077 . S
Fe3 O1 1.715 . S
Fe3 O6 1.886 . S
Fe3 O10 1.935 . S
Fe3 O15 2.077 . S
Fe3 O21 1.935 . S
Fe3 O25 2.077 . S
O4 Fe0 1.715 . S
O4 Fe2 1.886 . S
O5 Fe2 1.715 . S
O5 Fe7 1.886 . S
O6 Fe3 1.886 . S
O6 Fe7 1.715 . S
Fe7 O5 1.886 . S
Fe7 O6 1.715 . S
Fe7 O11 2.077 1_545 S
Fe7 O16 1.935 . S
Fe7 O18 2.077 1_545 S
Fe7 O26 1.935 . S
C8 O20 1.381 . S
C8 O21 1.421 . S
O9 Fe0 2.077 . S
O9 C22 1.381 1_455 S
O10 Fe3 1.935 . S
O10 C22 1.421 1_455 S
O11 Fe7 2.077 1_565 S
O11 C27 1.381 . S
O12 Fe2 1.935 1_565 S
O12 C27 1.421 . S
O13 Fe2 2.077 . S
O13 C17 1.381 . S
O14 Fe0 1.935 . S
O14 C17 1.421 . S
O15 Fe3 2.077 . S
O15 C23 1.381 . S
O16 Fe7 1.935 . S
O16 C23 1.421 . S
C17 O13 1.381 . S
C17 O14 1.421 . S
O18 Fe7 2.077 1_565 S
O18 C30 1.381 . S
O19 Fe2 1.935 1_565 S
O19 C30 1.421 . S
O20 Fe0 2.077 . S
O20 C8 1.381 . S
O21 Fe3 1.935 . S
O21 C8 1.421 . S
C22 O9 1.381 1_655 S
C22 O10 1.421 1_655 S
C23 O15 1.381 . S
C23 O16 1.421 . S
C24 O25 1.381 . S
C24 O26 1.421 . S
O25 Fe3 2.077 . S
O25 C24 1.381 . S
O26 Fe7 1.935 . S
O26 C24 1.421 . S
C27 O11 1.381 . S
C27 O12 1.421 . S
O28 Fe2 2.077 . S
O28 C31 1.381 . S
O29 Fe0 1.935 . S
O29 C31 1.421 . S
C30 O18 1.381 . S
C30 O19 1.421 . S
C31 O28 1.381 . S
C31 O29 1.421 . S
Fe32 O33 1.886 . S
Fe32 O36 1.715 . S
Fe32 O41 2.077 . S
Fe32 O46 1.935 . S
Fe32 O52 2.077 . S
Fe32 O61 1.935 . S
O33 Fe32 1.886 . S
O33 Fe35 1.715 . S
Fe34 O36 1.886 . S
Fe34 O37 1.715 . S
Fe34 O44 1.935 1_545 S
Fe34 O45 2.077 . S
Fe34 O51 1.935 1_545 S
Fe34 O60 2.077 . S
Fe35 O33 1.715 . S
Fe35 O38 1.886 . S
Fe35 O42 1.935 . S
Fe35 O47 2.077 . S
Fe35 O53 1.935 . S
Fe35 O57 2.077 . S
O36 Fe32 1.715 . S
O36 Fe34 1.886 . S
O37 Fe34 1.715 . S
O37 Fe39 1.886 . S
O38 Fe35 1.886 . S
O38 Fe39 1.715 . S
Fe39 O37 1.886 . S
Fe39 O38 1.715 . S
Fe39 O43 2.077 1_545 S
Fe39 O48 1.935 . S
Fe39 O50 2.077 1_545 S
Fe39 O58 1.935 . S
C40 O52 1.381 . S
C40 O53 1.421 . S
O41 Fe32 2.077 . S
O41 C54 1.381 . S
O42 Fe35 1.935 . S
O42 C54 1.421 . S
O43 Fe39 2.077 1_565 S
O43 C59 1.381 . S
O44 Fe34 1.935 1_565 S
O44 C59 1.421 . S
O45 Fe34 2.077 . S
O45 C49 1.381 . S
O46 Fe32 1.935 . S
O46 C49 1.421 . S
O47 Fe35 2.077 . S
O47 C55 1.381 . S
O48 Fe39 1.935 . S
O48 C55 1.421 . S
C49 O45 1.381 . S
C49 O46 1.421 . S
O50 Fe39 2.077 1_565 S
O50 C62 1.381 1_455 S
O51 Fe34 1.935 1_565 S
O51 C62 1.421 1_455 S
O52 Fe32 2.077 . S
O52 C40 1.381 . S
O53 Fe35 1.935 . S
O53 C40 1.421 . S
C54 O41 1.381 . S
C54 O42 1.421 . S
C55 O47 1.381 . S
C55 O48 1.421 . S
C56 O57 1.381 . S
C56 O58 1.421 . S
O57 Fe35 2.077 . S
O57 C56 1.381 . S
O58 Fe39 1.935 . S
O58 C56 1.421 . S
C59 O43 1.381 . S
C59 O44 1.421 . S
O60 Fe34 2.077 . S
O60 C63 1.381 . S
O61 Fe32 1.935 . S
O61 C63 1.421 . S
C62 O50 1.381 1_655 S
C62 O51 1.421 1_655 S
C63 O60 1.381 . S
C63 O61 1.421 . S
Fe64 O65 1.886 . S
Fe64 O68 1.715 . S
Fe64 O73 2.077 . S
Fe64 O78 1.935 1_565 S
Fe64 O84 2.077 . S
Fe64 O93 1.935 1_565 S
O65 Fe64 1.886 . S
O65 Fe67 1.715 . S
Fe66 O68 1.886 . S
Fe66 O69 1.715 . S
Fe66 O76 1.935 . S
Fe66 O77 2.077 1_565 S
Fe66 O83 1.935 . S
Fe66 O92 2.077 1_565 S
Fe67 O65 1.715 . S
Fe67 O70 1.886 . S
Fe67 O74 1.935 . S
Fe67 O79 2.077 . S
Fe67 O85 1.935 . S
Fe67 O89 2.077 . S
O68 Fe64 1.715 . S
O68 Fe66 1.886 . S
O69 Fe66 1.715 . S
O69 Fe71 1.886 . S
O70 Fe67 1.886 . S
O70 Fe71 1.715 . S
Fe71 O69 1.886 . S
Fe71 O70 1.715 . S
Fe71 O75 2.077 . S
Fe71 O80 1.935 . S
Fe71 O82 2.077 . S
Fe71 O90 1.935 . S
C72 O84 1.381 . S
C72 O85 1.421 . S
O73 Fe64 2.077 . S
O73 C86 1.381 . S
O74 Fe67 1.935 . S
O74 C86 1.421 . S
O75 Fe71 2.077 . S
O75 C91 1.381 . S
O76 Fe66 1.935 . S
O76 C91 1.421 . S
O77 Fe66 2.077 1_545 S
O77 C81 1.381 . S
O78 Fe64 1.935 1_545 S
O78 C81 1.421 . S
O79 Fe67 2.077 . S
O79 C87 1.381 . S
O80 Fe71 1.935 . S
O80 C87 1.421 . S
C81 O77 1.381 . S
C81 O78 1.421 . S
O82 Fe71 2.077 . S
O82 C94 1.381 . S
O83 Fe66 1.935 . S
O83 C94 1.421 . S
O84 Fe64 2.077 . S
O84 C72 1.381 . S
O85 Fe67 1.935 . S
O85 C72 1.421 . S
C86 O73 1.381 . S
C86 O74 1.421 . S
C87 O79 1.381 . S
C87 O80 1.421 . S
C88 O89 1.381 1_455 S
C88 O90 1.421 1_455 S
O89 Fe67 2.077 . S
O89 C88 1.381 1_655 S
O90 Fe71 1.935 . S
O90 C88 1.421 1_655 S
C91 O75 1.381 . S
C91 O76 1.421 . S
O92 Fe66 2.077 1_545 S
O92 C95 1.381 . S
O93 Fe64 1.935 1_545 S
O93 C95 1.421 . S
C94 O82 1.381 . S
C94 O83 1.421 . S
C95 O92 1.381 . S
C95 O93 1.421 . S
Fe96 O97 1.886 . S
Fe96 O100 1.715 . S
Fe96 O105 2.077 . S
Fe96 O110 1.935 1_565 S
Fe96 O116 2.077 . S
Fe96 O125 1.935 1_565 S
O97 Fe96 1.886 . S
O97 Fe99 1.715 . S
Fe98 O100 1.886 . S
Fe98 O101 1.715 . S
Fe98 O108 1.935 . S
Fe98 O109 2.077 1_565 S
Fe98 O115 1.935 . S
Fe98 O124 2.077 1_565 S
Fe99 O97 1.715 . S
Fe99 O102 1.886 . S
Fe99 O106 1.935 . S
Fe99 O111 2.077 . S
Fe99 O117 1.935 . S
Fe99 O121 2.077 . S
O100 Fe96 1.715 . S
O100 Fe98 1.886 . S
O101 Fe98 1.715 . S
O101 Fe103 1.886 . S
O102 Fe99 1.886 . S
O102 Fe103 1.715 . S
Fe103 O101 1.886 . S
Fe103 O102 1.715 . S
Fe103 O107 2.077 . S
Fe103 O112 1.935 . S
Fe103 O114 2.077 . S
Fe103 O122 1.935 . S
C104 O116 1.381 . S
C104 O117 1.421 . S
O105 Fe96 2.077 . S
O105 C118 1.381 . S
O106 Fe99 1.935 . S
O106 C118 1.421 . S
O107 Fe103 2.077 . S
O107 C123 1.381 . S
O108 Fe98 1.935 . S
O108 C123 1.421 . S
O109 Fe98 2.077 1_545 S
O109 C113 1.381 . S
O110 Fe96 1.935 1_545 S
O110 C113 1.421 . S
O111 Fe99 2.077 . S
O111 C119 1.381 . S
O112 Fe103 1.935 . S
O112 C119 1.421 . S
C113 O109 1.381 . S
C113 O110 1.421 . S
O114 Fe103 2.077 . S
O114 C126 1.381 . S
O115 Fe98 1.935 . S
O115 C126 1.421 . S
O116 Fe96 2.077 . S
O116 C104 1.381 . S
O117 Fe99 1.935 . S
O117 C104 1.421 . S
C118 O105 1.381 . S
C118 O106 1.421 . S
C119 O111 1.381 . S
C119 O112 1.421 . S
C120 O121 1.381 . S
C120 O122 1.421 . S
O121 Fe99 2.077 . S
O121 C120 1.381 . S
O122 Fe103 1.935 . S
O122 C120 1.421 . S
C123 O107 1.381 . S
C123 O108 1.421 . S
O124 Fe98 2.077 1_545 S
O124 C127 1.381 1_655 S
O125 Fe96 1.935 1_545 S
O125 C127 1.421 1_655 S
C126 O114 1.381 . S
C126 O115 1.421 . S
C127 O124 1.381 1_455 S
C127 O125 1.421 1_455 S
Fe128 O129 1.886 . S
Fe128 O132 1.715 . S
Fe128 O137 2.077 . S
Fe128 O142 1.935 . S
Fe128 O148 2.077 . S
Fe128 O157 1.935 . S
O129 Fe128 1.886 . S
O129 Fe131 1.715 . S
Fe130 O132 1.886 . S
Fe130 O133 1.715 . S
Fe130 O140 1.935 . S
Fe130 O141 2.077 . S
Fe130 O147 1.935 . S
Fe130 O156 2.077 . S
Fe131 O129 1.715 . S
Fe131 O134 1.886 . S
Fe131 O138 1.935 . S
Fe131 O143 2.077 . S
Fe131 O149 1.935 . S
Fe131 O153 2.077 . S
O132 Fe128 1.715 . S
O132 Fe130 1.886 . S
O133 Fe130 1.715 . S
O133 Fe135 1.886 . S
O134 Fe131 1.886 . S
O134 Fe135 1.715 . S
Fe135 O133 1.886 . S
Fe135 O134 1.715 . S
Fe135 O139 2.077 . S
Fe135 O144 1.935 . S
Fe135 O146 2.077 . S
Fe135 O154 1.935 . S
C136 O148 1.381 . S
C136 O149 1.421 . S
O137 Fe128 2.077 . S
O137 C150 1.381 1_455 S
O138 Fe131 1.935 . S
O138 C150 1.421 1_455 S
O139 Fe135 2.077 . S
O139 C155 1.381 . S
O140 Fe130 1.935 . S
O140 C155 1.421 . S
O141 Fe130 2.077 . S
O141 C145 1.381 . S
O142 Fe128 1.935 . S
O142 C145 1.421 . S
O143 Fe131 2.077 . S
O143 C151 1.381 . S
O144 Fe135 1.935 . S
O144 C151 1.421 . S
C145 O141 1.381 . S
C145 O142 1.421 . S
O146 Fe135 2.077 . S
O146 C158 1.381 . S
O147 Fe130 1.935 . S
O147 C158 1.421 . S
O148 Fe128 2.077 . S
O148 C136 1.381 . S
O149 Fe131 1.935 . S
O149 C136 1.421 . S
C150 O137 1.381 1_655 S
C150 O138 1.421 1_655 S
C151 O143 1.381 . S
C151 O144 1.421 . S
C152 O153 1.381 . S
C152 O154 1.421 . S
O153 Fe131 2.077 . S
O153 C152 1.381 . S
O154 Fe135 1.935 . S
O154 C152 1.421 . S
C155 O139 1.381 . S
C155 O140 1.421 . S
O156 Fe130 2.077 . S
O156 C159 1.381 . S
O157 Fe128 1.935 . S
O157 C159 1.421 . S
C158 O146 1.381 . S
C158 O147 1.421 . S
C159 O156 1.381 . S
C159 O157 1.421 . S
Fe160 O161 1.886 . S
Fe160 O164 1.715 . S
Fe160 O169 2.077 . S
Fe160 O174 1.935 . S
Fe160 O180 2.077 . S
Fe160 O189 1.935 . S
O161 Fe160 1.886 . S
O161 Fe163 1.715 . S
Fe162 O164 1.886 . S
Fe162 O165 1.715 . S
Fe162 O172 1.935 . S
Fe162 O173 2.077 . S
Fe162 O179 1.935 . S
Fe162 O188 2.077 . S
Fe163 O161 1.715 . S
Fe163 O166 1.886 . S
Fe163 O170 1.935 . S
Fe163 O175 2.077 . S
Fe163 O181 1.935 . S
Fe163 O185 2.077 . S
O164 Fe160 1.715 . S
O164 Fe162 1.886 . S
O165 Fe162 1.715 . S
O165 Fe167 1.886 . S
O166 Fe163 1.886 . S
O166 Fe167 1.715 . S
Fe167 O165 1.886 . S
Fe167 O166 1.715 . S
Fe167 O171 2.077 . S
Fe167 O176 1.935 . S
Fe167 O178 2.077 . S
Fe167 O186 1.935 . S
C168 O180 1.381 . S
C168 O181 1.421 . S
O169 Fe160 2.077 . S
O169 C182 1.381 . S
O170 Fe163 1.935 . S
O170 C182 1.421 . S
O171 Fe167 2.077 . S
O171 C187 1.381 . S
O172 Fe162 1.935 . S
O172 C187 1.421 . S
O173 Fe162 2.077 . S
O173 C177 1.381 . S
O174 Fe160 1.935 . S
O174 C177 1.421 . S
O175 Fe163 2.077 . S
O175 C183 1.381 . S
O176 Fe167 1.935 . S
O176 C183 1.421 . S
C177 O173 1.381 . S
C177 O174 1.421 . S
O178 Fe167 2.077 . S
O178 C190 1.381 1_455 S
O179 Fe162 1.935 . S
O179 C190 1.421 1_455 S
O180 Fe160 2.077 . S
O180 C168 1.381 . S
O181 Fe163 1.935 . S
O181 C168 1.421 . S
C182 O169 1.381 . S
C182 O170 1.421 . S
C183 O175 1.381 . S
C183 O176 1.421 . S
C184 O185 1.381 . S
C184 O186 1.421 . S
O185 Fe163 2.077 . S
O185 C184 1.381 . S
O186 Fe167 1.935 . S
O186 C184 1.421 . S
C187 O171 1.381 . S
C187 O172 1.421 . S
O188 Fe162 2.077 . S
O188 C191 1.381 . S
O189 Fe160 1.935 . S
O189 C191 1.421 . S
C190 O178 1.381 1_655 S
C190 O179 1.421 1_655 S
C191 O188 1.381 . S
C191 O189 1.421 . S
Fe192 O193 1.886 . S
Fe192 O196 1.715 . S
Fe192 O201 2.077 . S
Fe192 O206 1.935 . S
Fe192 O212 2.077 . S
Fe192 O221 1.935 . S
O193 Fe192 1.886 . S
O193 Fe195 1.715 . S
Fe194 O196 1.886 . S
Fe194 O197 1.715 . S
Fe194 O204 1.935 . S
Fe194 O205 2.077 . S
Fe194 O211 1.935 . S
Fe194 O220 2.077 . S
Fe195 O193 1.715 . S
Fe195 O198 1.886 . S
Fe195 O202 1.935 . S
Fe195 O207 2.077 . S
Fe195 O213 1.935 . S
Fe195 O217 2.077 . S
O196 Fe192 1.715 . S
O196 Fe194 1.886 . S
O197 Fe194 1.715 . S
O197 Fe199 1.886 . S
O198 Fe195 1.886 . S
O198 Fe199 1.715 . S
Fe199 O197 1.886 . S
Fe199 O198 1.715 . S
Fe199 O203 2.077 . S
Fe199 O208 1.935 . S
Fe199 O210 2.077 . S
Fe199 O218 1.935 . S
C200 O212 1.381 . S
C200 O213 1.421 . S
O201 Fe192 2.077 . S
O201 C214 1.381 . S
O202 Fe195 1.935 . S
O202 C214 1.421 . S
O203 Fe199 2.077 . S
O203 C219 1.381 . S
O204 Fe194 1.935 . S
O204 C219 1.421 . S
O205 Fe194 2.077 . S
O205 C209 1.381 . S
O206 Fe192 1.935 . S
O206 C209 1.421 . S
O207 Fe195 2.077 . S
O207 C215 1.381 . S
O208 Fe199 1.935 . S
O208 C215 1.421 . S
C209 O205 1.381 . S
C209 O206 1.421 . S
O210 Fe199 2.077 . S
O210 C222 1.381 . S
O211 Fe194 1.935 . S
O211 C222 1.421 . S
O212 Fe192 2.077 . S
O212 C200 1.381 . S
O213 Fe195 1.935 . S
O213 C200 1.421 . S
C214 O201 1.381 . S
C214 O202 1.421 . S
C215 O207 1.381 . S
C215 O208 1.421 . S
C216 O217 1.381 1_455 S
C216 O218 1.421 1_455 S
O217 Fe195 2.077 . S
O217 C216 1.381 1_655 S
O218 Fe199 1.935 . S
O218 C216 1.421 1_655 S
C219 O203 1.381 . S
C219 O204 1.421 . S
O220 Fe194 2.077 . S
O220 C223 1.381 . S
O221 Fe192 1.935 . S
O221 C223 1.421 . S
C222 O210 1.381 . S
C222 O211 1.421 . S
C223 O220 1.381 . S
C223 O221 1.421 . S
Fe224 O225 1.886 . S
Fe224 O228 1.715 . S
Fe224 O233 2.077 . S
Fe224 O238 1.935 . S
Fe224 O244 2.077 . S
Fe224 O253 1.935 . S
O225 Fe224 1.886 . S
O225 Fe227 1.715 . S
Fe226 O228 1.886 . S
Fe226 O229 1.715 . S
Fe226 O236 1.935 . S
Fe226 O237 2.077 . S
Fe226 O243 1.935 . S
Fe226 O252 2.077 . S
Fe227 O225 1.715 . S
Fe227 O230 1.886 . S
Fe227 O234 1.935 . S
Fe227 O239 2.077 . S
Fe227 O245 1.935 . S
Fe227 O249 2.077 . S
O228 Fe224 1.715 . S
O228 Fe226 1.886 . S
O229 Fe226 1.715 . S
O229 Fe231 1.886 . S
O230 Fe227 1.886 . S
O230 Fe231 1.715 . S
Fe231 O229 1.886 . S
Fe231 O230 1.715 . S
Fe231 O235 2.077 . S
Fe231 O240 1.935 . S
Fe231 O242 2.077 . S
Fe231 O250 1.935 . S
C232 O244 1.381 . S
C232 O245 1.421 . S
O233 Fe224 2.077 . S
O233 C246 1.381 . S
O234 Fe227 1.935 . S
O234 C246 1.421 . S
O235 Fe231 2.077 . S
O235 C251 1.381 . S
O236 Fe226 1.935 . S
O236 C251 1.421 . S
O237 Fe226 2.077 . S
O237 C241 1.381 . S
O238 Fe224 1.935 . S
O238 C241 1.421 . S
O239 Fe227 2.077 . S
O239 C247 1.381 . S
O240 Fe231 1.935 . S
O240 C247 1.421 . S
C241 O237 1.381 . S
C241 O238 1.421 . S
O242 Fe231 2.077 . S
O242 C254 1.381 . S
O243 Fe226 1.935 . S
O243 C254 1.421 . S
O244 Fe224 2.077 . S
O244 C232 1.381 . S
O245 Fe227 1.935 . S
O245 C232 1.421 . S
C246 O233 1.381 . S
C246 O234 1.421 . S
C247 O239 1.381 . S
C247 O240 1.421 . S
C248 O249 1.381 . S
C248 O250 1.421 . S
O249 Fe227 2.077 . S
O249 C248 1.381 . S
O250 Fe231 1.935 . S
O250 C248 1.421 . S
C251 O235 1.381 . S
C251 O236 1.421 . S
O252 Fe226 2.077 . S
O252 C255 1.381 1_655 S
O253 Fe224 1.935 . S
O253 C255 1.421 1_655 S
C254 O242 1.381 . S
C254 O243 1.421 . S
C255 O252 1.381 1_455 S
C255 O253 1.421 1_455 S
Fe256 O257 1.886 . S
Fe256 O260 1.715 . S
Fe256 O265 2.077 . S
Fe256 O270 1.935 . S
Fe256 O276 2.077 . S
Fe256 O285 1.935 . S
O257 Fe256 1.886 . S
O257 Fe259 1.715 . S
Fe258 O260 1.886 . S
Fe258 O261 1.715 . S
Fe258 O268 1.935 1_545 S
Fe258 O269 2.077 . S
Fe258 O275 1.935 1_545 S
Fe258 O284 2.077 . S
Fe259 O257 1.715 . S
Fe259 O262 1.886 . S
Fe259 O266 1.935 . S
Fe259 O271 2.077 . S
Fe259 O277 1.935 . S
Fe259 O281 2.077 . S
O260 Fe256 1.715 . S
O260 Fe258 1.886 . S
O261 Fe258 1.715 . S
O261 Fe263 1.886 . S
O262 Fe259 1.886 . S
O262 Fe263 1.715 . S
Fe263 O261 1.886 . S
Fe263 O262 1.715 . S
Fe263 O267 2.077 1_545 S
Fe263 O272 1.935 . S
Fe263 O274 2.077 1_545 S
Fe263 O282 1.935 . S
C264 O276 1.381 . S
C264 O277 1.421 . S
O265 Fe256 2.077 . S
O265 C278 1.381 . S
O266 Fe259 1.935 . S
O266 C278 1.421 . S
O267 Fe263 2.077 1_565 S
O267 C283 1.381 . S
O268 Fe258 1.935 1_565 S
O268 C283 1.421 . S
O269 Fe258 2.077 . S
O269 C273 1.381 . S
O270 Fe256 1.935 . S
O270 C273 1.421 . S
O271 Fe259 2.077 . S
O271 C279 1.381 . S
O272 Fe263 1.935 . S
O272 C279 1.421 . S
C273 O269 1.381 . S
C273 O270 1.421 . S
O274 Fe263 2.077 1_565 S
O274 C286 1.381 . S
O275 Fe258 1.935 1_565 S
O275 C286 1.421 . S
O276 Fe256 2.077 . S
O276 C264 1.381 . S
O277 Fe259 1.935 . S
O277 C264 1.421 . S
C278 O265 1.381 . S
C278 O266 1.421 . S
C279 O271 1.381 . S
C279 O272 1.421 . S
C280 O281 1.381 . S
C280 O282 1.421 . S
O281 Fe259 2.077 . S
O281 C280 1.381 . S
O282 Fe263 1.935 . S
O282 C280 1.421 . S
C283 O267 1.381 . S
C283 O268 1.421 . S
O284 Fe258 2.077 . S
O284 C287 1.381 . S
O285 Fe256 1.935 . S
O285 C287 1.421 . S
C286 O274 1.381 . S
C286 O275 1.421 . S
C287 O284 1.381 . S
C287 O285 1.421 . S
Fe288 O289 1.886 . S
Fe288 O292 1.715 . S
Fe288 O297 2.077 . S
Fe288 O302 1.935 . S
Fe288 O308 2.077 . S
Fe288 O317 1.935 . S
O289 Fe288 1.886 . S
O289 Fe291 1.715 . S
Fe290 O292 1.886 . S
Fe290 O293 1.715 . S
Fe290 O300 1.935 1_545 S
Fe290 O301 2.077 . S
Fe290 O307 1.935 1_545 S
Fe290 O316 2.077 . S
Fe291 O289 1.715 . S
Fe291 O294 1.886 . S
Fe291 O298 1.935 . S
Fe291 O303 2.077 . S
Fe291 O309 1.935 . S
Fe291 O313 2.077 . S
O292 Fe288 1.715 . S
O292 Fe290 1.886 . S
O293 Fe290 1.715 . S
O293 Fe295 1.886 . S
O294 Fe291 1.886 . S
O294 Fe295 1.715 . S
Fe295 O293 1.886 . S
Fe295 O294 1.715 . S
Fe295 O299 2.077 1_545 S
Fe295 O304 1.935 . S
Fe295 O306 2.077 1_545 S
Fe295 O314 1.935 . S
C296 O308 1.381 . S
C296 O309 1.421 . S
O297 Fe288 2.077 . S
O297 C310 1.381 . S
O298 Fe291 1.935 . S
O298 C310 1.421 . S
O299 Fe295 2.077 1_565 S
O299 C315 1.381 . S
O300 Fe290 1.935 1_565 S
O300 C315 1.421 . S
O301 Fe290 2.077 . S
O301 C305 1.381 . S
O302 Fe288 1.935 . S
O302 C305 1.421 . S
O303 Fe291 2.077 . S
O303 C311 1.381 . S
O304 Fe295 1.935 . S
O304 C311 1.421 . S
C305 O301 1.381 . S
C305 O302 1.421 . S
O306 Fe295 2.077 1_565 S
O306 C318 1.381 . S
O307 Fe290 1.935 1_565 S
O307 C318 1.421 . S
O308 Fe288 2.077 . S
O308 C296 1.381 . S
O309 Fe291 1.935 . S
O309 C296 1.421 . S
C310 O297 1.381 . S
C310 O298 1.421 . S
C311 O303 1.381 . S
C311 O304 1.421 . S
C312 O313 1.381 . S
C312 O314 1.421 . S
O313 Fe291 2.077 . S
O313 C312 1.381 . S
O314 Fe295 1.935 . S
O314 C312 1.421 . S
C315 O299 1.381 . S
C315 O300 1.421 . S
O316 Fe290 2.077 . S
O316 C319 1.381 . S
O317 Fe288 1.935 . S
O317 C319 1.421 . S
C318 O306 1.381 . S
C318 O307 1.421 . S
C319 O316 1.381 . S
C319 O317 1.421 . S
Fe320 O321 1.886 . S
Fe320 O324 1.715 . S
Fe320 O329 2.077 . S
Fe320 O334 1.935 1_565 S
Fe320 O340 2.077 . S
Fe320 O349 1.935 1_565 S
O321 Fe320 1.886 . S
O321 Fe323 1.715 . S
Fe322 O324 1.886 . S
Fe322 O325 1.715 . S
Fe322 O332 1.935 . S
Fe322 O333 2.077 1_565 S
Fe322 O339 1.935 . S
Fe322 O348 2.077 1_565 S
Fe323 O321 1.715 . S
Fe323 O326 1.886 . S
Fe323 O330 1.935 . S
Fe323 O335 2.077 . S
Fe323 O341 1.935 . S
Fe323 O345 2.077 . S
O324 Fe320 1.715 . S
O324 Fe322 1.886 . S
O325 Fe322 1.715 . S
O325 Fe327 1.886 . S
O326 Fe323 1.886 . S
O326 Fe327 1.715 . S
Fe327 O325 1.886 . S
Fe327 O326 1.715 . S
Fe327 O331 2.077 . S
Fe327 O336 1.935 . S
Fe327 O338 2.077 . S
Fe327 O346 1.935 . S
C328 O340 1.381 . S
C328 O341 1.421 . S
O329 Fe320 2.077 . S
O329 C342 1.381 . S
O330 Fe323 1.935 . S
O330 C342 1.421 . S
O331 Fe327 2.077 . S
O331 C347 1.381 . S
O332 Fe322 1.935 . S
O332 C347 1.421 . S
O333 Fe322 2.077 1_545 S
O333 C337 1.381 . S
O334 Fe320 1.935 1_545 S
O334 C337 1.421 . S
O335 Fe323 2.077 . S
O335 C343 1.381 . S
O336 Fe327 1.935 . S
O336 C343 1.421 . S
C337 O333 1.381 . S
C337 O334 1.421 . S
O338 Fe327 2.077 . S
O338 C350 1.381 . S
O339 Fe322 1.935 . S
O339 C350 1.421 . S
O340 Fe320 2.077 . S
O340 C328 1.381 . S
O341 Fe323 1.935 . S
O341 C328 1.421 . S
C342 O329 1.381 . S
C342 O330 1.421 . S
C343 O335 1.381 . S
C343 O336 1.421 . S
C344 O345 1.381 . S
C344 O346 1.421 . S
O345 Fe323 2.077 . S
O345 C344 1.381 . S
O346 Fe327 1.935 . S
O346 C344 1.421 . S
C347 O331 1.381 . S
C347 O332 1.421 . S
O348 Fe322 2.077 1_545 S
O348 C351 1.381 . S
O349 Fe320 1.935 1_545 S
O349 C351 1.421 . S
C350 O338 1.381 . S
C350 O339 1.421 . S
C351 O348 1.381 . S
C351 O349 1.421 . S
Fe352 O353 1.886 . S
Fe352 O356 1.715 . S
Fe352 O361 2.077 . S
Fe352 O366 1.935 1_565 S
Fe352 O372 2.077 . S
Fe352 O381 1.935 1_565 S
O353 Fe352 1.886 . S
O353 Fe355 1.715 . S
Fe354 O356 1.886 . S
Fe354 O357 1.715 . S
Fe354 O364 1.935 . S
Fe354 O365 2.077 1_565 S
Fe354 O371 1.935 . S
Fe354 O380 2.077 1_565 S
Fe355 O353 1.715 . S
Fe355 O358 1.886 . S
Fe355 O362 1.935 . S
Fe355 O367 2.077 . S
Fe355 O373 1.935 . S
Fe355 O377 2.077 . S
O356 Fe352 1.715 . S
O356 Fe354 1.886 . S
O357 Fe354 1.715 . S
O357 Fe359 1.886 . S
O358 Fe355 1.886 . S
O358 Fe359 1.715 . S
Fe359 O357 1.886 . S
Fe359 O358 1.715 . S
Fe359 O363 2.077 . S
Fe359 O368 1.935 . S
Fe359 O370 2.077 . S
Fe359 O378 1.935 . S
C360 O372 1.381 . S
C360 O373 1.421 . S
O361 Fe352 2.077 . S
O361 C374 1.381 . S
O362 Fe355 1.935 . S
O362 C374 1.421 . S
O363 Fe359 2.077 . S
O363 C379 1.381 . S
O364 Fe354 1.935 . S
O364 C379 1.421 . S
O365 Fe354 2.077 1_545 S
O365 C369 1.381 . S
O366 Fe352 1.935 1_545 S
O366 C369 1.421 . S
O367 Fe355 2.077 . S
O367 C375 1.381 . S
O368 Fe359 1.935 . S
O368 C375 1.421 . S
C369 O365 1.381 . S
C369 O366 1.421 . S
O370 Fe359 2.077 . S
O370 C382 1.381 . S
O371 Fe354 1.935 . S
O371 C382 1.421 . S
O372 Fe352 2.077 . S
O372 C360 1.381 . S
O373 Fe355 1.935 . S
O373 C360 1.421 . S
C374 O361 1.381 . S
C374 O362 1.421 . S
C375 O367 1.381 . S
C375 O368 1.421 . S
C376 O377 1.381 . S
C376 O378 1.421 . S
O377 Fe355 2.077 . S
O377 C376 1.381 . S
O378 Fe359 1.935 . S
O378 C376 1.421 . S
C379 O363 1.381 . S
C379 O364 1.421 . S
O380 Fe354 2.077 1_545 S
O380 C383 1.381 . S
O381 Fe352 1.935 1_545 S
O381 C383 1.421 . S
C382 O370 1.381 . S
C382 O371 1.421 . S
C383 O380 1.381 . S
C383 O381 1.421 . S
Fe384 O385 1.886 . S
Fe384 O388 1.715 . S
Fe384 O393 2.077 . S
Fe384 O398 1.935 . S
Fe384 O404 2.077 . S
Fe384 O413 1.935 . S
O385 Fe384 1.886 . S
O385 Fe387 1.715 . S
Fe386 O388 1.886 . S
Fe386 O389 1.715 . S
Fe386 O396 1.935 . S
Fe386 O397 2.077 . S
Fe386 O403 1.935 . S
Fe386 O412 2.077 . S
Fe387 O385 1.715 . S
Fe387 O390 1.886 . S
Fe387 O394 1.935 . S
Fe387 O399 2.077 . S
Fe387 O405 1.935 . S
Fe387 O409 2.077 . S
O388 Fe384 1.715 . S
O388 Fe386 1.886 . S
O389 Fe386 1.715 . S
O389 Fe391 1.886 . S
O390 Fe387 1.886 . S
O390 Fe391 1.715 . S
Fe391 O389 1.886 . S
Fe391 O390 1.715 . S
Fe391 O395 2.077 . S
Fe391 O400 1.935 . S
Fe391 O402 2.077 . S
Fe391 O410 1.935 . S
C392 O404 1.381 . S
C392 O405 1.421 . S
O393 Fe384 2.077 . S
O393 C406 1.381 . S
O394 Fe387 1.935 . S
O394 C406 1.421 . S
O395 Fe391 2.077 . S
O395 C411 1.381 . S
O396 Fe386 1.935 . S
O396 C411 1.421 . S
O397 Fe386 2.077 . S
O397 C401 1.381 . S
O398 Fe384 1.935 . S
O398 C401 1.421 . S
O399 Fe387 2.077 . S
O399 C407 1.381 . S
O400 Fe391 1.935 . S
O400 C407 1.421 . S
C401 O397 1.381 . S
C401 O398 1.421 . S
O402 Fe391 2.077 . S
O402 C414 1.381 . S
O403 Fe386 1.935 . S
O403 C414 1.421 . S
O404 Fe384 2.077 . S
O404 C392 1.381 . S
O405 Fe387 1.935 . S
O405 C392 1.421 . S
C406 O393 1.381 . S
C406 O394 1.421 . S
C407 O399 1.381 . S
C407 O400 1.421 . S
C408 O409 1.381 . S
C408 O410 1.421 . S
O409 Fe387 2.077 . S
O409 C408 1.381 . S
O410 Fe391 1.935 . S
O410 C408 1.421 . S
C411 O395 1.381 . S
C411 O396 1.421 . S
O412 Fe386 2.077 . S
O412 C415 1.381 . S
O413 Fe384 1.935 . S
O413 C415 1.421 . S
C414 O402 1.381 . S
C414 O403 1.421 . S
C415 O412 1.381 . S
C415 O413 1.421 . S
Fe416 O417 1.886 . S
Fe416 O420 1.715 . S
Fe416 O425 2.077 . S
Fe416 O430 1.935 . S
Fe416 O436 2.077 . S
Fe416 O445 1.935 . S
O417 Fe416 1.886 . S
O417 Fe419 1.715 . S
Fe418 O420 1.886 . S
Fe418 O421 1.715 . S
Fe418 O428 1.935 . S
Fe418 O429 2.077 . S
Fe418 O435 1.935 . S
Fe418 O444 2.077 . S
Fe419 O417 1.715 . S
Fe419 O422 1.886 . S
Fe419 O426 1.935 . S
Fe419 O431 2.077 . S
Fe419 O437 1.935 . S
Fe419 O441 2.077 . S
O420 Fe416 1.715 . S
O420 Fe418 1.886 . S
O421 Fe418 1.715 . S
O421 Fe423 1.886 . S
O422 Fe419 1.886 . S
O422 Fe423 1.715 . S
Fe423 O421 1.886 . S
Fe423 O422 1.715 . S
Fe423 O427 2.077 . S
Fe423 O432 1.935 . S
Fe423 O434 2.077 . S
Fe423 O442 1.935 . S
C424 O436 1.381 . S
C424 O437 1.421 . S
O425 Fe416 2.077 . S
O425 C438 1.381 . S
O426 Fe419 1.935 . S
O426 C438 1.421 . S
O427 Fe423 2.077 . S
O427 C443 1.381 . S
O428 Fe418 1.935 . S
O428 C443 1.421 . S
O429 Fe418 2.077 . S
O429 C433 1.381 . S
O430 Fe416 1.935 . S
O430 C433 1.421 . S
O431 Fe419 2.077 . S
O431 C439 1.381 . S
O432 Fe423 1.935 . S
O432 C439 1.421 . S
C433 O429 1.381 . S
C433 O430 1.421 . S
O434 Fe423 2.077 . S
O434 C446 1.381 . S
O435 Fe418 1.935 . S
O435 C446 1.421 . S
O436 Fe416 2.077 . S
O436 C424 1.381 . S
O437 Fe419 1.935 . S
O437 C424 1.421 . S
C438 O425 1.381 . S
C438 O426 1.421 . S
C439 O431 1.381 . S
C439 O432 1.421 . S
C440 O441 1.381 . S
C440 O442 1.421 . S
O441 Fe419 2.077 . S
O441 C440 1.381 . S
O442 Fe423 1.935 . S
O442 C440 1.421 . S
C443 O427 1.381 . S
C443 O428 1.421 . S
O444 Fe418 2.077 . S
O444 C447 1.381 . S
O445 Fe416 1.935 . S
O445 C447 1.421 . S
C446 O434 1.381 . S
C446 O435 1.421 . S
C447 O444 1.381 . S
C447 O445 1.421 . S
Fe448 O449 1.886 . S
Fe448 O452 1.715 . S
Fe448 O457 2.077 . S
Fe448 O462 1.935 . S
Fe448 O468 2.077 . S
Fe448 O477 1.935 . S
O449 Fe448 1.886 . S
O449 Fe451 1.715 . S
Fe450 O452 1.886 . S
Fe450 O453 1.715 . S
Fe450 O460 1.935 . S
Fe450 O461 2.077 . S
Fe450 O467 1.935 . S
Fe450 O476 2.077 . S
Fe451 O449 1.715 . S
Fe451 O454 1.886 . S
Fe451 O458 1.935 . S
Fe451 O463 2.077 . S
Fe451 O469 1.935 . S
Fe451 O473 2.077 . S
O452 Fe448 1.715 . S
O452 Fe450 1.886 . S
O453 Fe450 1.715 . S
O453 Fe455 1.886 . S
O454 Fe451 1.886 . S
O454 Fe455 1.715 . S
Fe455 O453 1.886 . S
Fe455 O454 1.715 . S
Fe455 O459 2.077 . S
Fe455 O464 1.935 . S
Fe455 O466 2.077 . S
Fe455 O474 1.935 . S
C456 O468 1.381 . S
C456 O469 1.421 . S
O457 Fe448 2.077 . S
O457 C470 1.381 . S
O458 Fe451 1.935 . S
O458 C470 1.421 . S
O459 Fe455 2.077 . S
O459 C475 1.381 . S
O460 Fe450 1.935 . S
O460 C475 1.421 . S
O461 Fe450 2.077 . S
O461 C465 1.381 . S
O462 Fe448 1.935 . S
O462 C465 1.421 . S
O463 Fe451 2.077 . S
O463 C471 1.381 . S
O464 Fe455 1.935 . S
O464 C471 1.421 . S
C465 O461 1.381 . S
C465 O462 1.421 . S
O466 Fe455 2.077 . S
O466 C478 1.381 . S
O467 Fe450 1.935 . S
O467 C478 1.421 . S
O468 Fe448 2.077 . S
O468 C456 1.381 . S
O469 Fe451 1.935 . S
O469 C456 1.421 . S
C470 O457 1.381 . S
C470 O458 1.421 . S
C471 O463 1.381 . S
C471 O464 1.421 . S
C472 O473 1.381 . S
C472 O474 1.421 . S
O473 Fe451 2.077 . S
O473 C472 1.381 . S
O474 Fe455 1.935 . S
O474 C472 1.421 . S
C475 O459 1.381 . S
C475 O460 1.421 . S
O476 Fe450 2.077 . S
O476 C479 1.381 . S
O477 Fe448 1.935 . S
O477 C479 1.421 . S
C478 O466 1.381 . S
C478 O467 1.421 . S
C479 O476 1.381 . S
C479 O477 1.421 . S
Fe480 O481 1.886 . S
Fe480 O484 1.715 . S
Fe480 O489 2.077 . S
Fe480 O494 1.935 . S
Fe480 O500 2.077 . S
Fe480 O509 1.935 . S
O481 Fe480 1.886 . S
O481 Fe483 1.715 . S
Fe482 O484 1.886 . S
Fe482 O485 1.715 . S
Fe482 O492 1.935 . S
Fe482 O493 2.077 . S
Fe482 O499 1.935 . S
Fe482 O508 2.077 . S
Fe483 O481 1.715 . S
Fe483 O486 1.886 . S
Fe483 O490 1.935 . S
Fe483 O495 2.077 . S
Fe483 O501 1.935 . S
Fe483 O505 2.077 . S
O484 Fe480 1.715 . S
O484 Fe482 1.886 . S
O485 Fe482 1.715 . S
O485 Fe487 1.886 . S
O486 Fe483 1.886 . S
O486 Fe487 1.715 . S
Fe487 O485 1.886 . S
Fe487 O486 1.715 . S
Fe487 O491 2.077 . S
Fe487 O496 1.935 . S
Fe487 O498 2.077 . S
Fe487 O506 1.935 . S
C488 O500 1.381 . S
C488 O501 1.421 . S
O489 Fe480 2.077 . S
O489 C502 1.381 . S
O490 Fe483 1.935 . S
O490 C502 1.421 . S
O491 Fe487 2.077 . S
O491 C507 1.381 . S
O492 Fe482 1.935 . S
O492 C507 1.421 . S
O493 Fe482 2.077 . S
O493 C497 1.381 . S
O494 Fe480 1.935 . S
O494 C497 1.421 . S
O495 Fe483 2.077 . S
O495 C503 1.381 . S
O496 Fe487 1.935 . S
O496 C503 1.421 . S
C497 O493 1.381 . S
C497 O494 1.421 . S
O498 Fe487 2.077 . S
O498 C510 1.381 . S
O499 Fe482 1.935 . S
O499 C510 1.421 . S
O500 Fe480 2.077 . S
O500 C488 1.381 . S
O501 Fe483 1.935 . S
O501 C488 1.421 . S
C502 O489 1.381 . S
C502 O490 1.421 . S
C503 O495 1.381 . S
C503 O496 1.421 . S
C504 O505 1.381 . S
C504 O506 1.421 . S
O505 Fe483 2.077 . S
O505 C504 1.381 . S
O506 Fe487 1.935 . S
O506 C504 1.421 . S
C507 O491 1.381 . S
C507 O492 1.421 . S
O508 Fe482 2.077 . S
O508 C511 1.381 . S
O509 Fe480 1.935 . S
O509 C511 1.421 . S
C510 O498 1.381 . S
C510 O499 1.421 . S
C511 O508 1.381 . S
C511 O509 1.421 . S
C512 C513 1.369 . S
C512 C514 1.419 . S
C512 H516 0.930 . S
C513 C512 1.369 . S
C513 C522 1.429 . S
C514 C512 1.419 . S
C514 C515 1.363 . S
C514 H517 0.929 . S
C515 C514 1.363 . S
C515 C521 1.428 . S
H516 C512 0.930 . S
H517 C514 0.929 . S
S518 N519 1.613 . S
S518 N520 1.610 . S
N519 S518 1.613 . S
N519 C522 1.350 . S
N520 S518 1.610 . S
N520 C521 1.351 . S
C521 C515 1.428 . S
C521 N520 1.351 . S
C521 C522 1.434 . S
C522 C513 1.429 . S
C522 N519 1.350 . S
C522 C521 1.434 . S
C523 C524 1.369 . S
C523 C525 1.419 . S
C523 H527 0.930 . S
C524 C523 1.369 . S
C524 C533 1.429 . S
C525 C523 1.419 . S
C525 C526 1.363 . S
C525 H528 0.929 . S
C526 C525 1.363 . S
C526 C532 1.428 . S
H527 C523 0.930 . S
H528 C525 0.929 . S
S529 N530 1.613 . S
S529 N531 1.610 . S
N530 S529 1.613 . S
N530 C533 1.350 . S
N531 S529 1.610 . S
N531 C532 1.351 . S
C532 C526 1.428 . S
C532 N531 1.351 . S
C532 C533 1.434 . S
C533 C524 1.429 . S
C533 N530 1.350 . S
C533 C532 1.434 . S
C534 C535 1.369 . S
C534 C536 1.419 . S
C534 H538 0.930 . S
C535 C534 1.369 . S
C535 C544 1.429 . S
C536 C534 1.419 . S
C536 C537 1.363 . S
C536 H539 0.929 . S
C537 C536 1.363 . S
C537 C543 1.428 . S
H538 C534 0.930 . S
H539 C536 0.929 . S
S540 N541 1.612 1_545 S
S540 N542 1.610 1_545 S
N541 S540 1.612 1_565 S
N541 C544 1.360 . S
N542 S540 1.610 1_565 S
N542 C543 1.351 . S
C543 C537 1.428 . S
C543 N542 1.351 . S
C543 C544 1.434 . S
C544 C535 1.429 . S
C544 N541 1.360 . S
C544 C543 1.434 . S
C545 C546 1.369 . S
C545 C547 1.419 . S
C545 H549 0.930 . S
C546 C545 1.369 . S
C546 C555 1.429 . S
C547 C545 1.419 . S
C547 C548 1.363 . S
C547 H550 0.929 . S
C548 C547 1.363 . S
C548 C554 1.428 . S
H549 C545 0.930 . S
H550 C547 0.929 . S
S551 N552 1.613 1_655 S
S551 N553 1.610 . S
N552 S551 1.613 1_455 S
N552 C555 1.350 1_455 S
N553 S551 1.610 . S
N553 C554 1.351 . S
C554 C548 1.428 . S
C554 N553 1.351 . S
C554 C555 1.434 . S
C555 C546 1.429 . S
C555 N552 1.350 1_655 S
C555 C554 1.434 . S
C556 C557 1.369 . S
C556 C558 1.419 . S
C556 H560 0.930 . S
C557 C556 1.369 . S
C557 C566 1.429 . S
C558 C556 1.419 . S
C558 C559 1.363 . S
C558 H561 0.929 . S
C559 C558 1.363 . S
C559 C565 1.428 . S
H560 C556 0.930 . S
H561 C558 0.929 . S
S562 N563 1.613 . S
S562 N564 1.610 . S
N563 S562 1.613 . S
N563 C566 1.350 . S
N564 S562 1.610 . S
N564 C565 1.351 . S
C565 C559 1.428 . S
C565 N564 1.351 . S
C565 C566 1.434 . S
C566 C557 1.429 . S
C566 N563 1.350 . S
C566 C565 1.434 . S
C567 C568 1.369 . S
C567 C569 1.419 . S
C567 H571 0.930 . S
C568 C567 1.369 . S
C568 C577 1.429 . S
C569 C567 1.419 . S
C569 C570 1.363 . S
C569 H572 0.929 . S
C570 C569 1.363 . S
C570 C576 1.428 . S
H571 C567 0.930 . S
H572 C569 0.929 . S
S573 N574 1.613 . S
S573 N575 1.610 1_565 S
N574 S573 1.613 . S
N574 C577 1.350 1_565 S
N575 S573 1.610 1_545 S
N575 C576 1.351 . S
C576 C570 1.428 . S
C576 N575 1.351 . S
C576 C577 1.434 . S
C577 C568 1.429 . S
C577 N574 1.350 1_545 S
C577 C576 1.434 . S
C578 C579 1.369 . S
C578 C580 1.419 . S
C578 H582 0.930 . S
C579 C578 1.369 . S
C579 C588 1.429 . S
C580 C578 1.419 . S
C580 C581 1.363 . S
C580 H583 0.929 . S
C581 C580 1.363 . S
C581 C587 1.428 . S
H582 C578 0.930 . S
H583 C580 0.929 . S
S584 N585 1.613 . S
S584 N586 1.610 . S
N585 S584 1.613 . S
N585 C588 1.350 . S
N586 S584 1.610 . S
N586 C587 1.351 . S
C587 C581 1.428 . S
C587 N586 1.351 . S
C587 C588 1.434 . S
C588 C579 1.429 . S
C588 N585 1.350 . S
C588 C587 1.434 . S
C589 C590 1.369 . S
C589 C591 1.419 . S
C589 H593 0.930 . S
C590 C589 1.369 . S
C590 C599 1.429 . S
C591 C589 1.419 . S
C591 C592 1.363 . S
C591 H594 0.929 . S
C592 C591 1.363 . S
C592 C598 1.428 . S
H593 C589 0.930 . S
H594 C591 0.929 . S
S595 N596 1.613 1_455 S
S595 N597 1.610 . S
N596 S595 1.613 1_655 S
N596 C599 1.350 1_655 S
N597 S595 1.610 . S
N597 C598 1.351 . S
C598 C592 1.428 . S
C598 N597 1.351 . S
C598 C599 1.434 . S
C599 C590 1.429 . S
C599 N596 1.350 1_455 S
C599 C598 1.434 . S
C600 C601 1.369 . S
C600 C602 1.419 . S
C600 H604 0.930 . S
C601 C600 1.369 . S
C601 C610 1.429 . S
C602 C600 1.419 . S
C602 C603 1.363 . S
C602 H605 0.929 . S
C603 C602 1.363 . S
C603 C609 1.428 . S
H604 C600 0.930 . S
H605 C602 0.929 . S
S606 N607 1.613 . S
S606 N608 1.610 . S
N607 S606 1.613 . S
N607 C610 1.350 . S
N608 S606 1.610 . S
N608 C609 1.351 . S
C609 C603 1.428 . S
C609 N608 1.351 . S
C609 C610 1.434 . S
C610 C601 1.429 . S
C610 N607 1.350 . S
C610 C609 1.434 . S
C611 C612 1.369 . S
C611 C613 1.419 . S
C611 H615 0.930 . S
C612 C611 1.369 . S
C612 C621 1.429 . S
C613 C611 1.419 . S
C613 C614 1.363 . S
C613 H616 0.929 . S
C614 C613 1.363 . S
C614 C620 1.428 . S
H615 C611 0.930 . S
H616 C613 0.929 . S
S617 N618 1.613 . S
S617 N619 1.610 . S
N618 S617 1.613 . S
N618 C621 1.350 . S
N619 S617 1.610 . S
N619 C620 1.351 . S
C620 C614 1.428 . S
C620 N619 1.351 . S
C620 C621 1.434 . S
C621 C612 1.429 . S
C621 N618 1.350 . S
C621 C620 1.434 . S
C622 C623 1.369 . S
C622 C624 1.419 . S
C622 H626 0.930 . S
C623 C622 1.369 . S
C623 C632 1.429 . S
C624 C622 1.419 . S
C624 C625 1.363 . S
C624 H627 0.929 . S
C625 C624 1.363 . S
C625 C631 1.428 . S
H626 C622 0.930 . S
H627 C624 0.929 . S
S628 N629 1.613 . S
S628 N630 1.610 . S
N629 S628 1.613 . S
N629 C632 1.350 . S
N630 S628 1.610 . S
N630 C631 1.351 . S
C631 C625 1.428 . S
C631 N630 1.351 . S
C631 C632 1.434 . S
C632 C623 1.429 . S
C632 N629 1.350 . S
C632 C631 1.434 . S
C633 C634 1.369 . S
C633 C635 1.419 . S
C633 H637 0.930 . S
C634 C633 1.369 . S
C634 C643 1.429 . S
C635 C633 1.419 . S
C635 C636 1.363 . S
C635 H638 0.929 . S
C636 C635 1.363 . S
C636 C642 1.428 . S
H637 C633 0.930 . S
H638 C635 0.929 . S
S639 N640 1.613 . S
S639 N641 1.610 . S
N640 S639 1.613 . S
N640 C643 1.350 . S
N641 S639 1.610 . S
N641 C642 1.351 . S
C642 C636 1.428 . S
C642 N641 1.351 . S
C642 C643 1.434 . S
C643 C634 1.429 . S
C643 N640 1.350 . S
C643 C642 1.434 . S
C644 C645 1.369 . S
C644 C646 1.419 . S
C644 H648 0.930 . S
C645 C644 1.369 . S
C645 C654 1.429 . S
C646 C644 1.419 . S
C646 C647 1.363 . S
C646 H649 0.929 . S
C647 C646 1.363 . S
C647 C653 1.428 . S
H648 C644 0.930 . S
H649 C646 0.929 . S
S650 N651 1.613 . S
S650 N652 1.610 . S
N651 S650 1.613 . S
N651 C654 1.350 . S
N652 S650 1.610 . S
N652 C653 1.351 . S
C653 C647 1.428 . S
C653 N652 1.351 . S
C653 C654 1.434 . S
C654 C645 1.429 . S
C654 N651 1.350 . S
C654 C653 1.434 . S
C655 C656 1.369 . S
C655 C657 1.419 . S
C655 H659 0.930 . S
C656 C655 1.369 . S
C656 C665 1.429 . S
C657 C655 1.419 . S
C657 C658 1.363 . S
C657 H660 0.929 . S
C658 C657 1.363 . S
C658 C664 1.428 . S
H659 C655 0.930 . S
H660 C657 0.929 . S
S661 N662 1.611 1_455 S
S661 N663 1.610 . S
N662 S661 1.611 1_655 S
N662 C665 1.345 1_655 S
N663 S661 1.610 . S
N663 C664 1.351 . S
C664 C658 1.428 . S
C664 N663 1.351 . S
C664 C665 1.434 . S
C665 C656 1.429 . S
C665 N662 1.345 1_455 S
C665 C664 1.434 . S
C666 C667 1.369 . S
C666 C668 1.419 . S
C666 H670 0.930 . S
C667 C666 1.369 . S
C667 C676 1.429 . S
C668 C666 1.419 . S
C668 C669 1.363 . S
C668 H671 0.929 . S
C669 C668 1.363 . S
C669 C675 1.428 . S
H670 C666 0.930 . S
H671 C668 0.929 . S
S672 N673 1.613 . S
S672 N674 1.610 . S
N673 S672 1.613 . S
N673 C676 1.350 . S
N674 S672 1.610 . S
N674 C675 1.351 . S
C675 C669 1.428 . S
C675 N674 1.351 . S
C675 C676 1.434 . S
C676 C667 1.429 . S
C676 N673 1.350 . S
C676 C675 1.434 . S
C677 C678 1.369 . S
C677 C679 1.419 . S
C677 H681 0.930 . S
C678 C677 1.369 . S
C678 C687 1.429 . S
C679 C677 1.419 . S
C679 C680 1.363 . S
C679 H682 0.929 . S
C680 C679 1.363 . S
C680 C686 1.428 . S
H681 C677 0.930 . S
H682 C679 0.929 . S
S683 N684 1.613 . S
S683 N685 1.610 . S
N684 S683 1.613 . S
N684 C687 1.350 . S
N685 S683 1.610 . S
N685 C686 1.351 . S
C686 C680 1.428 . S
C686 N685 1.351 . S
C686 C687 1.434 . S
C687 C678 1.429 . S
C687 N684 1.350 . S
C687 C686 1.434 . S
C688 C689 1.369 . S
C688 C690 1.419 . S
C688 H692 0.930 . S
C689 C688 1.369 . S
C689 C698 1.429 . S
C690 C688 1.419 . S
C690 C691 1.363 . S
C690 H693 0.929 . S
C691 C690 1.363 . S
C691 C697 1.428 . S
H692 C688 0.930 . S
H693 C690 0.929 . S
S694 N695 1.613 . S
S694 N696 1.610 . S
N695 S694 1.613 . S
N695 C698 1.350 . S
N696 S694 1.610 . S
N696 C697 1.351 . S
C697 C691 1.428 . S
C697 N696 1.351 . S
C697 C698 1.434 . S
C698 C689 1.429 . S
C698 N695 1.350 . S
C698 C697 1.434 . S
C699 C700 1.369 . S
C699 C701 1.419 . S
C699 H703 0.930 . S
C700 C699 1.369 . S
C700 C709 1.429 . S
C701 C699 1.419 . S
C701 C702 1.363 . S
C701 H704 0.929 . S
C702 C701 1.363 . S
C702 C708 1.428 . S
H703 C699 0.930 . S
H704 C701 0.929 . S
S705 N706 1.613 . S
S705 N707 1.610 1_455 S
N706 S705 1.613 . S
N706 C709 1.350 1_455 S
N707 S705 1.610 1_655 S
N707 C708 1.351 . S
C708 C702 1.428 . S
C708 N707 1.351 . S
C708 C709 1.434 . S
C709 C700 1.429 . S
C709 N706 1.350 1_655 S
C709 C708 1.434 . S
C710 C711 1.369 . S
C710 C712 1.419 . S
C710 H714 0.930 . S
C711 C710 1.369 . S
C711 C720 1.429 . S
C712 C710 1.419 . S
C712 C713 1.363 . S
C712 H715 0.929 . S
C713 C712 1.363 . S
C713 C719 1.428 . S
H714 C710 0.930 . S
H715 C712 0.929 . S
S716 N717 1.613 . S
S716 N718 1.610 . S
N717 S716 1.613 . S
N717 C720 1.350 . S
N718 S716 1.610 . S
N718 C719 1.351 . S
C719 C713 1.428 . S
C719 N718 1.351 . S
C719 C720 1.434 . S
C720 C711 1.429 . S
C720 N717 1.350 . S
C720 C719 1.434 . S
C721 C722 1.369 . S
C721 C723 1.419 . S
C721 H725 0.930 . S
C722 C721 1.369 . S
C722 C731 1.429 . S
C723 C721 1.419 . S
C723 C724 1.363 . S
C723 H726 0.929 . S
C724 C723 1.363 . S
C724 C730 1.428 . S
H725 C721 0.930 . S
H726 C723 0.929 . S
S727 N728 1.613 1_455 S
S727 N729 1.610 . S
N728 S727 1.613 1_655 S
N728 C731 1.350 . S
N729 S727 1.610 . S
N729 C730 1.351 1_455 S
C730 C724 1.428 . S
C730 N729 1.351 1_655 S
C730 C731 1.434 . S
C731 C722 1.429 . S
C731 N728 1.350 . S
C731 C730 1.434 . S
C732 C733 1.369 . S
C732 C734 1.419 . S
C732 H736 0.930 . S
C733 C732 1.369 . S
C733 C742 1.429 . S
C734 C732 1.419 . S
C734 C735 1.363 . S
C734 H737 0.929 . S
C735 C734 1.363 . S
C735 C741 1.428 . S
H736 C732 0.930 . S
H737 C734 0.929 . S
S738 N739 1.613 . S
S738 N740 1.610 . S
N739 S738 1.613 . S
N739 C742 1.350 . S
N740 S738 1.610 . S
N740 C741 1.351 . S
C741 C735 1.428 . S
C741 N740 1.351 . S
C741 C742 1.434 . S
C742 C733 1.429 . S
C742 N739 1.350 . S
C742 C741 1.434 . S
C743 C744 1.369 . S
C743 C745 1.419 . S
C743 H747 0.930 . S
C744 C743 1.369 . S
C744 C753 1.429 . S
C745 C743 1.419 . S
C745 C746 1.363 . S
C745 H748 0.929 . S
C746 C745 1.363 . S
C746 C752 1.428 . S
H747 C743 0.930 . S
H748 C745 0.929 . S
S749 N750 1.613 1_655 S
S749 N751 1.610 . S
N750 S749 1.613 1_455 S
N750 C753 1.350 . S
N751 S749 1.610 . S
N751 C752 1.351 1_655 S
C752 C746 1.428 . S
C752 N751 1.351 1_455 S
C752 C753 1.434 . S
C753 C744 1.429 . S
C753 N750 1.350 . S
C753 C752 1.434 . S
C754 C755 1.369 . S
C754 C756 1.419 . S
C754 H758 0.930 . S
C755 C754 1.369 . S
C755 C764 1.429 . S
C756 C754 1.419 . S
C756 C757 1.363 . S
C756 H759 0.929 . S
C757 C756 1.363 . S
C757 C763 1.428 . S
H758 C754 0.930 . S
H759 C756 0.929 . S
S760 N761 1.613 . S
S760 N762 1.610 . S
N761 S760 1.613 . S
N761 C764 1.350 . S
N762 S760 1.610 . S
N762 C763 1.351 . S
C763 C757 1.428 . S
C763 N762 1.351 . S
C763 C764 1.434 . S
C764 C755 1.429 . S
C764 N761 1.350 . S
C764 C763 1.434 . S
C765 C766 1.369 . S
C765 C767 1.419 . S
C765 H769 0.930 . S
C766 C765 1.369 . S
C766 C775 1.429 . S
C767 C765 1.419 . S
C767 C768 1.363 . S
C767 H770 0.929 . S
C768 C767 1.363 . S
C768 C774 1.428 . S
H769 C765 0.930 . S
H770 C767 0.929 . S
S771 N772 1.613 1_655 S
S771 N773 1.610 . S
N772 S771 1.613 1_455 S
N772 C775 1.350 . S
N773 S771 1.610 . S
N773 C774 1.351 1_655 S
C774 C768 1.428 . S
C774 N773 1.351 1_455 S
C774 C775 1.434 . S
C775 C766 1.429 . S
C775 N772 1.350 . S
C775 C774 1.434 . S
C776 C777 1.369 . S
C776 C778 1.419 . S
C776 H780 0.930 . S
C777 C776 1.369 . S
C777 C786 1.429 . S
C778 C776 1.419 . S
C778 C779 1.363 . S
C778 H781 0.929 . S
C779 C778 1.363 . S
C779 C785 1.428 . S
H780 C776 0.930 . S
H781 C778 0.929 . S
S782 N783 1.613 . S
S782 N784 1.610 . S
N783 S782 1.613 . S
N783 C786 1.350 . S
N784 S782 1.610 . S
N784 C785 1.351 . S
C785 C779 1.428 . S
C785 N784 1.351 . S
C785 C786 1.434 . S
C786 C777 1.429 . S
C786 N783 1.350 . S
C786 C785 1.434 . S
C787 C788 1.369 . S
C787 C789 1.419 . S
C787 H791 0.930 . S
C788 C787 1.369 . S
C788 C797 1.429 . S
C789 C787 1.419 . S
C789 C790 1.363 . S
C789 H792 0.929 . S
C790 C789 1.363 . S
C790 C796 1.428 . S
H791 C787 0.930 . S
H792 C789 0.929 . S
S793 N794 1.613 . S
S793 N795 1.610 1_455 S
N794 S793 1.613 . S
N794 C797 1.350 1_455 S
N795 S793 1.610 1_655 S
N795 C796 1.351 . S
C796 C790 1.428 . S
C796 N795 1.351 . S
C796 C797 1.434 . S
C797 C788 1.429 . S
C797 N794 1.350 1_655 S
C797 C796 1.434 . S
C798 C799 1.369 . S
C798 C800 1.419 . S
C798 H802 0.930 . S
C799 C798 1.369 . S
C799 C808 1.429 . S
C800 C798 1.419 . S
C800 C801 1.363 . S
C800 H803 0.929 . S
C801 C800 1.363 . S
C801 C807 1.428 . S
H802 C798 0.930 . S
H803 C800 0.929 . S
S804 N805 1.613 . S
S804 N806 1.610 . S
N805 S804 1.613 . S
N805 C808 1.350 . S
N806 S804 1.610 . S
N806 C807 1.351 . S
C807 C801 1.428 . S
C807 N806 1.351 . S
C807 C808 1.434 . S
C808 C799 1.429 . S
C808 N805 1.350 . S
C808 C807 1.434 . S
C809 C810 1.369 . S
C809 C811 1.419 . S
C809 H813 0.930 1_655 S
C810 C809 1.369 . S
C810 C819 1.429 . S
C811 C809 1.419 . S
C811 C812 1.363 . S
C811 H814 0.929 . S
C812 C811 1.363 . S
C812 C818 1.428 . S
H813 C809 0.930 1_455 S
H814 C811 0.929 . S
S815 N816 1.613 . S
S815 N817 1.610 . S
N816 S815 1.613 . S
N816 C819 1.350 . S
N817 S815 1.610 . S
N817 C818 1.351 . S
C818 C812 1.428 . S
C818 N817 1.351 . S
C818 C819 1.434 . S
C819 C810 1.429 . S
C819 N816 1.350 . S
C819 C818 1.434 . S
C820 C821 1.369 . S
C820 C822 1.419 . S
C820 H824 0.930 . S
C821 C820 1.369 . S
C821 C830 1.429 . S
C822 C820 1.419 . S
C822 C823 1.363 . S
C822 H825 0.929 . S
C823 C822 1.363 . S
C823 C829 1.428 . S
H824 C820 0.930 . S
H825 C822 0.929 . S
S826 N827 1.613 . S
S826 N828 1.610 . S
N827 S826 1.613 . S
N827 C830 1.350 . S
N828 S826 1.610 . S
N828 C829 1.351 . S
C829 C823 1.428 . S
C829 N828 1.351 . S
C829 C830 1.434 . S
C830 C821 1.429 . S
C830 N827 1.350 . S
C830 C829 1.434 . S
C831 C832 1.369 . S
C831 C833 1.419 . S
C831 H835 0.930 . S
C832 C831 1.369 . S
C832 C841 1.429 . S
C833 C831 1.419 . S
C833 C834 1.363 . S
C833 H836 0.929 . S
C834 C833 1.363 . S
C834 C840 1.428 . S
H835 C831 0.930 . S
H836 C833 0.929 . S
S837 N838 1.613 . S
S837 N839 1.610 . S
N838 S837 1.613 . S
N838 C841 1.350 . S
N839 S837 1.610 . S
N839 C840 1.351 . S
C840 C834 1.428 . S
C840 N839 1.351 . S
C840 C841 1.434 . S
C841 C832 1.429 . S
C841 N838 1.350 . S
C841 C840 1.434 . S
C842 C843 1.369 . S
C842 C844 1.419 . S
C842 H846 0.930 . S
C843 C842 1.369 . S
C843 C852 1.429 . S
C844 C842 1.419 . S
C844 C845 1.363 . S
C844 H847 0.929 . S
C845 C844 1.363 . S
C845 C851 1.428 . S
H846 C842 0.930 . S
H847 C844 0.929 . S
S848 N849 1.613 . S
S848 N850 1.610 . S
N849 S848 1.613 . S
N849 C852 1.350 . S
N850 S848 1.610 . S
N850 C851 1.351 . S
C851 C845 1.428 . S
C851 N850 1.351 . S
C851 C852 1.434 . S
C852 C843 1.429 . S
C852 N849 1.350 . S
C852 C851 1.434 . S
C853 C854 1.369 . S
C853 C855 1.419 . S
C853 H857 0.930 . S
C854 C853 1.369 . S
C854 C863 1.429 . S
C855 C853 1.419 . S
C855 C856 1.363 . S
C855 H858 0.929 . S
C856 C855 1.363 . S
C856 C862 1.428 . S
H857 C853 0.930 . S
H858 C855 0.929 . S
S859 N860 1.613 1_455 S
S859 N861 1.610 . S
N860 S859 1.613 1_655 S
N860 C863 1.350 1_655 S
N861 S859 1.610 . S
N861 C862 1.351 . S
C862 C856 1.428 . S
C862 N861 1.351 . S
C862 C863 1.434 . S
C863 C854 1.429 . S
C863 N860 1.350 1_455 S
C863 C862 1.434 . S
C864 C865 1.369 . S
C864 C866 1.419 . S
C864 H868 0.930 . S
C865 C864 1.369 . S
C865 C874 1.429 . S
C866 C864 1.419 . S
C866 C867 1.363 . S
C866 H869 0.929 . S
C867 C866 1.363 . S
C867 C873 1.428 . S
H868 C864 0.930 . S
H869 C866 0.929 . S
S870 N871 1.613 . S
S870 N872 1.610 . S
N871 S870 1.613 . S
N871 C874 1.350 . S
N872 S870 1.610 . S
N872 C873 1.351 . S
C873 C867 1.428 . S
C873 N872 1.351 . S
C873 C874 1.434 . S
C874 C865 1.429 . S
C874 N871 1.350 . S
C874 C873 1.434 . S
C875 C876 1.369 . S
C875 C877 1.419 . S
C875 H879 0.930 . S
C876 C875 1.369 . S
C876 C885 1.429 . S
C877 C875 1.419 . S
C877 C878 1.363 . S
C877 H880 0.929 . S
C878 C877 1.363 . S
C878 C884 1.428 . S
H879 C875 0.930 . S
H880 C877 0.929 . S
S881 N882 1.613 . S
S881 N883 1.610 . S
N882 S881 1.613 . S
N882 C885 1.350 . S
N883 S881 1.610 . S
N883 C884 1.351 . S
C884 C878 1.428 . S
C884 N883 1.351 . S
C884 C885 1.434 . S
C885 C876 1.429 . S
C885 N882 1.350 . S
C885 C884 1.434 . S
C886 C887 1.369 . S
C886 C888 1.419 . S
C886 H890 0.930 . S
C887 C886 1.369 . S
C887 C896 1.429 . S
C888 C886 1.419 . S
C888 C889 1.363 . S
C888 H891 0.929 . S
C889 C888 1.363 . S
C889 C895 1.428 . S
H890 C886 0.930 . S
H891 C888 0.929 . S
S892 N893 1.613 . S
S892 N894 1.610 . S
N893 S892 1.613 . S
N893 C896 1.350 . S
N894 S892 1.610 . S
N894 C895 1.351 . S
C895 C889 1.428 . S
C895 N894 1.351 . S
C895 C896 1.434 . S
C896 C887 1.429 . S
C896 N893 1.350 . S
C896 C895 1.434 . S
C897 C898 1.369 . S
C897 C899 1.419 . S
C897 H901 0.930 . S
C898 C897 1.369 . S
C898 C907 1.429 . S
C899 C897 1.419 . S
C899 C900 1.363 . S
C899 H902 0.929 . S
C900 C899 1.363 . S
C900 C906 1.428 . S
H901 C897 0.930 . S
H902 C899 0.929 . S
S903 N904 1.613 1_455 S
S903 N905 1.610 . S
N904 S903 1.613 1_655 S
N904 C907 1.350 . S
N905 S903 1.610 . S
N905 C906 1.351 1_455 S
C906 C900 1.428 . S
C906 N905 1.351 1_655 S
C906 C907 1.434 . S
C907 C898 1.429 . S
C907 N904 1.350 . S
C907 C906 1.434 . S
C908 C909 1.369 . S
C908 C910 1.419 . S
C908 H912 0.930 . S
C909 C908 1.369 . S
C909 C918 1.429 . S
C910 C908 1.419 . S
C910 C911 1.363 . S
C910 H913 0.929 . S
C911 C910 1.363 . S
C911 C917 1.428 . S
H912 C908 0.930 . S
H913 C910 0.929 . S
S914 N915 1.613 . S
S914 N916 1.610 . S
N915 S914 1.613 . S
N915 C918 1.350 . S
N916 S914 1.610 . S
N916 C917 1.351 . S
C917 C911 1.428 . S
C917 N916 1.351 . S
C917 C918 1.434 . S
C918 C909 1.429 . S
C918 N915 1.350 . S
C918 C917 1.434 . S
C919 C920 1.369 . S
C919 C921 1.419 . S
C919 H923 0.930 . S
C920 C919 1.369 . S
C920 C929 1.429 . S
C921 C919 1.419 . S
C921 C922 1.363 . S
C921 H924 0.929 . S
C922 C921 1.363 . S
C922 C928 1.428 . S
H923 C919 0.930 . S
H924 C921 0.929 . S
S925 N926 1.613 1_545 S
S925 N927 1.610 1_545 S
N926 S925 1.613 1_565 S
N926 C929 1.350 . S
N927 S925 1.610 1_565 S
N927 C928 1.351 . S
C928 C922 1.428 . S
C928 N927 1.351 . S
C928 C929 1.434 . S
C929 C920 1.429 . S
C929 N926 1.350 . S
C929 C928 1.434 . S
C930 C931 1.369 . S
C930 C932 1.419 . S
C930 H934 0.930 . S
C931 C930 1.369 . S
C931 C940 1.429 . S
C932 C930 1.419 . S
C932 C933 1.363 . S
C932 H935 0.929 . S
C933 C932 1.363 . S
C933 C939 1.428 . S
H934 C930 0.930 . S
H935 C932 0.929 . S
S936 N937 1.613 . S
S936 N938 1.610 . S
N937 S936 1.613 . S
N937 C940 1.350 . S
N938 S936 1.610 . S
N938 C939 1.351 . S
C939 C933 1.428 . S
C939 N938 1.351 . S
C939 C940 1.434 . S
C940 C931 1.429 . S
C940 N937 1.350 . S
C940 C939 1.434 . S
C941 C942 1.369 . S
C941 C943 1.419 . S
C941 H945 0.930 . S
C942 C941 1.369 . S
C942 C951 1.429 . S
C943 C941 1.419 . S
C943 C944 1.363 . S
C943 H946 0.929 . S
C944 C943 1.363 . S
C944 C950 1.428 . S
H945 C941 0.930 . S
H946 C943 0.929 . S
S947 N948 1.613 . S
S947 N949 1.610 1_655 S
N948 S947 1.613 . S
N948 C951 1.350 1_655 S
N949 S947 1.610 1_455 S
N949 C950 1.351 . S
C950 C944 1.428 . S
C950 N949 1.351 . S
C950 C951 1.434 . S
C951 C942 1.429 . S
C951 N948 1.350 1_455 S
C951 C950 1.434 . S
C952 C953 1.369 . S
C952 C954 1.419 . S
C952 H956 0.930 . S
C953 C952 1.369 . S
C953 C962 1.429 . S
C954 C952 1.419 . S
C954 C955 1.363 . S
C954 H957 0.929 . S
C955 C954 1.363 . S
C955 C961 1.428 . S
H956 C952 0.930 . S
H957 C954 0.929 . S
S958 N959 1.613 . S
S958 N960 1.610 . S
N959 S958 1.613 . S
N959 C962 1.350 . S
N960 S958 1.610 . S
N960 C961 1.351 . S
C961 C955 1.428 . S
C961 N960 1.351 . S
C961 C962 1.434 . S
C962 C953 1.429 . S
C962 N959 1.350 . S
C962 C961 1.434 . S
C963 C964 1.369 . S
C963 C965 1.419 . S
C963 H967 0.930 . S
C964 C963 1.369 . S
C964 C973 1.429 . S
C965 C963 1.419 . S
C965 C966 1.363 . S
C965 H968 0.929 . S
C966 C965 1.363 . S
C966 C972 1.428 . S
H967 C963 0.930 . S
H968 C965 0.929 . S
S969 N970 1.613 . S
S969 N971 1.610 . S
N970 S969 1.613 . S
N970 C973 1.350 . S
N971 S969 1.610 . S
N971 C972 1.351 . S
C972 C966 1.428 . S
C972 N971 1.351 . S
C972 C973 1.434 . S
C973 C964 1.429 . S
C973 N970 1.350 . S
C973 C972 1.434 . S
C974 C975 1.369 . S
C974 C976 1.419 . S
C974 H978 0.930 . S
C975 C974 1.369 . S
C975 C984 1.429 . S
C976 C974 1.419 . S
C976 C977 1.363 . S
C976 H979 0.929 . S
C977 C976 1.363 . S
C977 C983 1.428 . S
H978 C974 0.930 . S
H979 C976 0.929 . S
S980 N981 1.613 . S
S980 N982 1.610 . S
N981 S980 1.613 . S
N981 C984 1.350 . S
N982 S980 1.610 . S
N982 C983 1.351 . S
C983 C977 1.428 . S
C983 N982 1.351 . S
C983 C984 1.434 . S
C984 C975 1.429 . S
C984 N981 1.350 . S
C984 C983 1.434 . S
C985 C986 1.369 . S
C985 C987 1.419 . S
C985 H989 0.930 . S
C986 C985 1.369 . S
C986 C995 1.429 . S
C987 C985 1.419 . S
C987 C988 1.363 . S
C987 H990 0.929 1_655 S
C988 C987 1.363 . S
C988 C994 1.428 . S
H989 C985 0.930 . S
H990 C987 0.929 1_455 S
S991 N992 1.613 . S
S991 N993 1.610 . S
N992 S991 1.613 . S
N992 C995 1.350 . S
N993 S991 1.610 . S
N993 C994 1.351 . S
C994 C988 1.428 . S
C994 N993 1.351 . S
C994 C995 1.434 . S
C995 C986 1.429 . S
C995 N992 1.350 . S
C995 C994 1.434 . S
C996 C997 1.369 . S
C996 C998 1.419 . S
C996 H1000 0.930 . S
C997 C996 1.369 . S
C997 C1006 1.429 . S
C998 C996 1.419 . S
C998 C999 1.363 . S
C998 H1001 0.929 . S
C999 C998 1.363 . S
C999 C1005 1.428 . S
H1000 C996 0.930 . S
H1001 C998 0.929 . S
S1002 N1003 1.613 . S
S1002 N1004 1.610 . S
N1003 S1002 1.613 . S
N1003 C1006 1.350 . S
N1004 S1002 1.610 . S
N1004 C1005 1.351 . S
C1005 C999 1.428 . S
C1005 N1004 1.351 . S
C1005 C1006 1.434 . S
C1006 C997 1.429 . S
C1006 N1003 1.350 . S
C1006 C1005 1.434 . S
C1007 C1008 1.369 . S
C1007 C1009 1.419 . S
C1007 H1011 0.930 . S
C1008 C1007 1.369 . S
C1008 C1017 1.429 . S
C1009 C1007 1.419 . S
C1009 C1010 1.363 . S
C1009 H1012 0.929 1_455 S
C1010 C1009 1.363 . S
C1010 C1016 1.428 . S
H1011 C1007 0.930 . S
H1012 C1009 0.929 1_655 S
S1013 N1014 1.613 . S
S1013 N1015 1.610 . S
N1014 S1013 1.613 . S
N1014 C1017 1.350 . S
N1015 S1013 1.610 . S
N1015 C1016 1.351 . S
C1016 C1010 1.428 . S
C1016 N1015 1.351 . S
C1016 C1017 1.434 . S
C1017 C1008 1.429 . S
C1017 N1014 1.350 . S
C1017 C1016 1.434 . S
C1018 C1019 1.369 . S
C1018 C1020 1.419 . S
C1018 H1022 0.930 . S
C1019 C1018 1.369 . S
C1019 C1028 1.429 . S
C1020 C1018 1.419 . S
C1020 C1021 1.363 . S
C1020 H1023 0.929 . S
C1021 C1020 1.363 . S
C1021 C1027 1.428 . S
H1022 C1018 0.930 . S
H1023 C1020 0.929 . S
S1024 N1025 1.613 . S
S1024 N1026 1.610 . S
N1025 S1024 1.613 . S
N1025 C1028 1.350 . S
N1026 S1024 1.610 . S
N1026 C1027 1.351 . S
C1027 C1021 1.428 . S
C1027 N1026 1.351 . S
C1027 C1028 1.434 . S
C1028 C1019 1.429 . S
C1028 N1025 1.350 . S
C1028 C1027 1.434 . S
C1029 C1030 1.369 . S
C1029 C1031 1.419 . S
C1029 H1033 0.930 . S
C1030 C1029 1.369 . S
C1030 C1039 1.429 . S
C1031 C1029 1.419 . S
C1031 C1032 1.363 . S
C1031 H1034 0.929 . S
C1032 C1031 1.363 . S
C1032 C1038 1.428 . S
H1033 C1029 0.930 . S
H1034 C1031 0.929 . S
S1035 N1036 1.613 . S
S1035 N1037 1.610 . S
N1036 S1035 1.613 . S
N1036 C1039 1.350 . S
N1037 S1035 1.610 . S
N1037 C1038 1.351 . S
C1038 C1032 1.428 . S
C1038 N1037 1.351 . S
C1038 C1039 1.434 . S
C1039 C1030 1.429 . S
C1039 N1036 1.350 . S
C1039 C1038 1.434 . S
C1040 C1041 1.369 . S
C1040 C1042 1.419 . S
C1040 H1044 0.930 . S
C1041 C1040 1.369 . S
C1041 C1050 1.429 . S
C1042 C1040 1.419 . S
C1042 C1043 1.363 . S
C1042 H1045 0.929 . S
C1043 C1042 1.363 . S
C1043 C1049 1.428 . S
H1044 C1040 0.930 . S
H1045 C1042 0.929 . S
S1046 N1047 1.613 . S
S1046 N1048 1.610 . S
N1047 S1046 1.613 . S
N1047 C1050 1.350 . S
N1048 S1046 1.610 . S
N1048 C1049 1.351 . S
C1049 C1043 1.428 . S
C1049 N1048 1.351 . S
C1049 C1050 1.434 . S
C1050 C1041 1.429 . S
C1050 N1047 1.350 . S
C1050 C1049 1.434 . S
C1051 C1052 1.369 1_655 S
C1051 C1053 1.419 1_565 S
C1051 H1055 0.930 . S
C1052 C1051 1.369 1_455 S
C1052 C1061 1.429 . S
C1053 C1051 1.419 1_545 S
C1053 C1054 1.363 . S
C1053 H1056 0.929 . S
C1054 C1053 1.363 . S
C1054 C1060 1.428 1_655 S
H1055 C1051 0.930 . S
H1056 C1053 0.929 . S
S1057 N1058 1.613 . S
S1057 N1059 1.610 1_565 S
N1058 S1057 1.613 . S
N1058 C1061 1.350 . S
N1059 S1057 1.610 1_545 S
N1059 C1060 1.351 . S
C1060 C1054 1.428 1_455 S
C1060 N1059 1.351 . S
C1060 C1061 1.434 1_545 S
C1061 C1052 1.429 . S
C1061 N1058 1.350 . S
C1061 C1060 1.434 1_565 S
C1062 C1063 1.369 1_545 S
C1062 C1064 1.419 . S
C1062 H1066 0.930 . S
C1063 C1062 1.369 1_565 S
C1063 C1072 1.429 . S
C1064 C1062 1.419 . S
C1064 C1065 1.363 . S
C1064 H1067 0.929 . S
C1065 C1064 1.363 . S
C1065 C1071 1.428 1_545 S
H1066 C1062 0.930 . S
H1067 C1064 0.929 . S
S1068 N1069 1.613 . S
S1068 N1070 1.610 . S
N1069 S1068 1.613 . S
N1069 C1072 1.350 . S
N1070 S1068 1.610 . S
N1070 C1071 1.351 . S
C1071 C1065 1.428 1_565 S
C1071 N1070 1.351 . S
C1071 C1072 1.434 . S
C1072 C1063 1.429 . S
C1072 N1069 1.350 . S
C1072 C1071 1.434 . S
C1073 C1074 1.369 . S
C1073 C1075 1.419 . S
C1073 H1077 0.930 . S
C1074 C1073 1.369 . S
C1074 C1083 1.429 1_655 S
C1075 C1073 1.419 . S
C1075 C1076 1.363 1_655 S
C1075 H1078 0.929 . S
C1076 C1075 1.363 1_455 S
C1076 C1082 1.428 . S
H1077 C1073 0.930 . S
H1078 C1075 0.929 . S
S1079 N1080 1.613 . S
S1079 N1081 1.610 . S
N1080 S1079 1.613 . S
N1080 C1083 1.350 . S
N1081 S1079 1.610 . S
N1081 C1082 1.351 . S
C1082 C1076 1.428 . S
C1082 N1081 1.351 . S
C1082 C1083 1.434 . S
C1083 C1074 1.429 1_455 S
C1083 N1080 1.350 . S
C1083 C1082 1.434 . S
C1084 C1085 1.369 . S
C1084 C1086 1.419 . S
C1084 H1088 0.930 . S
C1085 C1084 1.369 . S
C1085 C1094 1.429 . S
C1086 C1084 1.419 . S
C1086 C1087 1.363 . S
C1086 H1089 0.929 . S
C1087 C1086 1.363 . S
C1087 C1093 1.428 . S
H1088 C1084 0.930 . S
H1089 C1086 0.929 . S
S1090 N1091 1.613 . S
S1090 N1092 1.610 . S
N1091 S1090 1.613 . S
N1091 C1094 1.350 . S
N1092 S1090 1.610 . S
N1092 C1093 1.351 . S
C1093 C1087 1.428 . S
C1093 N1092 1.351 . S
C1093 C1094 1.434 . S
C1094 C1085 1.429 . S
C1094 N1091 1.350 . S
C1094 C1093 1.434 . S
C1095 C1096 1.369 1_545 S
C1095 C1097 1.419 . S
C1095 H1099 0.930 . S
C1096 C1095 1.369 1_565 S
C1096 C1105 1.429 . S
C1097 C1095 1.419 . S
C1097 C1098 1.363 . S
C1097 H1100 0.929 . S
C1098 C1097 1.363 . S
C1098 C1104 1.428 1_545 S
H1099 C1095 0.930 . S
H1100 C1097 0.929 . S
S1101 N1102 1.613 . S
S1101 N1103 1.610 . S
N1102 S1101 1.613 . S
N1102 C1105 1.350 . S
N1103 S1101 1.610 . S
N1103 C1104 1.351 . S
C1104 C1098 1.428 1_565 S
C1104 N1103 1.351 . S
C1104 C1105 1.434 . S
C1105 C1096 1.429 . S
C1105 N1102 1.350 . S
C1105 C1104 1.434 . S
C1106 C1107 1.369 . S
C1106 C1108 1.419 . S
C1106 H1110 0.930 . S
C1107 C1106 1.369 . S
C1107 C1116 1.429 1_655 S
C1108 C1106 1.419 . S
C1108 C1109 1.363 1_655 S
C1108 H1111 0.929 . S
C1109 C1108 1.363 1_455 S
C1109 C1115 1.428 . S
H1110 C1106 0.930 . S
H1111 C1108 0.929 . S
S1112 N1113 1.613 . S
S1112 N1114 1.610 . S
N1113 S1112 1.613 . S
N1113 C1116 1.350 . S
N1114 S1112 1.610 . S
N1114 C1115 1.351 . S
C1115 C1109 1.428 . S
C1115 N1114 1.351 . S
C1115 C1116 1.434 . S
C1116 C1107 1.429 1_455 S
C1116 N1113 1.350 . S
C1116 C1115 1.434 . S
C1117 C1118 1.369 . S
C1117 C1119 1.386 1_554 S
C1117 H1121 0.930 . S
C1118 C1117 1.369 . S
C1118 C1127 1.433 1_554 S
C1119 C1117 1.386 1_556 S
C1119 C1120 1.396 . S
C1119 H1122 0.929 . S
C1120 C1119 1.396 . S
C1120 C1126 1.428 . S
H1121 C1117 0.930 . S
H1122 C1119 0.929 . S
S1123 N1124 1.613 . S
S1123 N1125 1.610 . S
N1124 S1123 1.613 . S
N1124 C1127 1.349 . S
N1125 S1123 1.610 . S
N1125 C1126 1.351 . S
C1126 C1120 1.428 . S
C1126 N1125 1.351 . S
C1126 C1127 1.430 . S
C1127 C1118 1.433 1_556 S
C1127 N1124 1.349 . S
C1127 C1126 1.430 . S
C1128 C1129 1.369 1_554 S
C1128 C1130 1.419 . S
C1128 H1132 0.930 . S
C1129 C1128 1.369 1_556 S
C1129 C1138 1.429 1_655 S
C1130 C1128 1.419 . S
C1130 C1131 1.363 1_655 S
C1130 H1133 0.929 . S
C1131 C1130 1.363 1_455 S
C1131 C1137 1.428 1_554 S
H1132 C1128 0.930 . S
H1133 C1130 0.929 . S
S1134 N1135 1.613 . S
S1134 N1136 1.610 . S
N1135 S1134 1.613 . S
N1135 C1138 1.350 . S
N1136 S1134 1.610 . S
N1136 C1137 1.351 . S
C1137 C1131 1.428 1_556 S
C1137 N1136 1.351 . S
C1137 C1138 1.434 . S
C1138 C1129 1.429 1_455 S
C1138 N1135 1.350 . S
C1138 C1137 1.434 . S
C1139 C1140 1.369 . S
C1139 C1141 1.419 . S
C1139 H1143 0.930 . S
C1140 C1139 1.369 . S
C1140 C1149 1.429 . S
C1141 C1139 1.419 . S
C1141 C1142 1.363 . S
C1141 H1144 0.929 . S
C1142 C1141 1.363 . S
C1142 C1148 1.428 . S
H1143 C1139 0.930 . S
H1144 C1141 0.929 . S
S1145 N1146 1.613 . S
S1145 N1147 1.610 . S
N1146 S1145 1.613 . S
N1146 C1149 1.350 . S
N1147 S1145 1.610 . S
N1147 C1148 1.351 . S
C1148 C1142 1.428 . S
C1148 N1147 1.351 . S
C1148 C1149 1.434 . S
C1149 C1140 1.429 . S
C1149 N1146 1.350 . S
C1149 C1148 1.434 . S
C1150 C1151 1.369 . S
C1150 C1152 1.419 . S
C1150 H1154 0.930 . S
C1151 C1150 1.369 . S
C1151 C1160 1.429 1_556 S
C1152 C1150 1.419 . S
C1152 C1153 1.363 1_556 S
C1152 H1155 0.929 . S
C1153 C1152 1.363 1_554 S
C1153 C1159 1.428 . S
H1154 C1150 0.930 . S
H1155 C1152 0.929 . S
S1156 N1157 1.613 . S
S1156 N1158 1.610 . S
N1157 S1156 1.613 . S
N1157 C1160 1.350 . S
N1158 S1156 1.610 . S
N1158 C1159 1.351 . S
C1159 C1153 1.428 . S
C1159 N1158 1.351 . S
C1159 C1160 1.434 . S
C1160 C1151 1.429 1_554 S
C1160 N1157 1.350 . S
C1160 C1159 1.434 . S
C1161 C1162 1.369 . S
C1161 C1163 1.419 . S
C1161 H1165 0.930 . S
C1162 C1161 1.369 . S
C1162 C1171 1.429 . S
C1163 C1161 1.419 . S
C1163 C1164 1.363 . S
C1163 H1166 0.929 . S
C1164 C1163 1.363 . S
C1164 C1170 1.428 . S
H1165 C1161 0.930 . S
H1166 C1163 0.929 . S
S1167 N1168 1.613 . S
S1167 N1169 1.610 . S
N1168 S1167 1.613 . S
N1168 C1171 1.350 . S
N1169 S1167 1.610 . S
N1169 C1170 1.351 . S
C1170 C1164 1.428 . S
C1170 N1169 1.351 . S
C1170 C1171 1.434 . S
C1171 C1162 1.429 . S
C1171 N1168 1.350 . S
C1171 C1170 1.434 . S
C1172 C1173 1.369 1_554 S
C1172 C1174 1.419 . S
C1172 H1176 0.930 . S
C1173 C1172 1.369 1_556 S
C1173 C1182 1.429 1_545 S
C1174 C1172 1.419 . S
C1174 C1175 1.363 1_545 S
C1174 H1177 0.929 . S
C1175 C1174 1.363 1_565 S
C1175 C1181 1.428 1_554 S
H1176 C1172 0.930 . S
H1177 C1174 0.929 . S
S1178 N1179 1.613 . S
S1178 N1180 1.610 . S
N1179 S1178 1.613 . S
N1179 C1182 1.350 . S
N1180 S1178 1.610 . S
N1180 C1181 1.351 . S
C1181 C1175 1.428 1_556 S
C1181 N1180 1.351 . S
C1181 C1182 1.434 . S
C1182 C1173 1.429 1_565 S
C1182 N1179 1.350 . S
C1182 C1181 1.434 . S
C1183 C1184 1.369 . S
C1183 C1185 1.419 . S
C1183 H1187 0.930 . S
C1184 C1183 1.369 . S
C1184 C1193 1.429 . S
C1185 C1183 1.419 . S
C1185 C1186 1.363 . S
C1185 H1188 0.929 . S
C1186 C1185 1.363 . S
C1186 C1192 1.428 . S
H1187 C1183 0.930 . S
H1188 C1185 0.929 . S
S1189 N1190 1.613 . S
S1189 N1191 1.610 . S
N1190 S1189 1.613 . S
N1190 C1193 1.350 . S
N1191 S1189 1.610 . S
N1191 C1192 1.351 . S
C1192 C1186 1.428 . S
C1192 N1191 1.351 . S
C1192 C1193 1.434 . S
C1193 C1184 1.429 . S
C1193 N1190 1.350 . S
C1193 C1192 1.434 . S
C1194 C1195 1.369 . S
C1194 C1196 1.419 . S
C1194 H1198 0.930 . S
C1195 C1194 1.369 . S
C1195 C1204 1.429 . S
C1196 C1194 1.419 . S
C1196 C1197 1.363 . S
C1196 H1199 0.929 . S
C1197 C1196 1.363 . S
C1197 C1203 1.428 . S
H1198 C1194 0.930 . S
H1199 C1196 0.929 . S
S1200 N1201 1.613 . S
S1200 N1202 1.610 . S
N1201 S1200 1.613 . S
N1201 C1204 1.350 . S
N1202 S1200 1.610 . S
N1202 C1203 1.351 . S
C1203 C1197 1.428 . S
C1203 N1202 1.351 . S
C1203 C1204 1.434 . S
C1204 C1195 1.429 . S
C1204 N1201 1.350 . S
C1204 C1203 1.434 . S
C1205 C1206 1.369 . S
C1205 C1207 1.419 . S
C1205 H1209 0.930 . S
C1206 C1205 1.369 . S
C1206 C1215 1.429 . S
C1207 C1205 1.419 . S
C1207 C1208 1.363 . S
C1207 H1210 0.929 . S
C1208 C1207 1.363 . S
C1208 C1214 1.428 . S
H1209 C1205 0.930 . S
H1210 C1207 0.929 . S
S1211 N1212 1.613 . S
S1211 N1213 1.610 . S
N1212 S1211 1.613 . S
N1212 C1215 1.350 . S
N1213 S1211 1.610 . S
N1213 C1214 1.351 . S
C1214 C1208 1.428 . S
C1214 N1213 1.351 . S
C1214 C1215 1.434 . S
C1215 C1206 1.429 . S
C1215 N1212 1.350 . S
C1215 C1214 1.434 . S
C513 C8 1.486 . S
C515 C411 1.487 . S
C524 C27 1.487 1_655 S
C526 C392 1.486 . S
C535 C59 1.487 . S
C537 C424 1.486 . S
C546 C40 1.487 1_655 S
C548 C443 1.486 . S
C557 C479 1.487 . S
C559 C87 1.486 . S
C568 C95 1.486 1_455 S
C570 C471 1.487 . S
C579 C113 1.487 . S
C581 C504 1.486 . S
C590 C120 1.487 1_455 S
C592 C497 1.487 . S
C601 C283 1.486 . S
C603 C136 1.487 . S
C612 C264 1.486 . S
C614 C155 1.487 1_655 S
C623 C296 1.487 . S
C625 C187 1.486 . S
C634 C315 1.486 . S
C636 C168 1.487 1_655 S
C645 C351 1.486 . S
C647 C215 1.487 . S
C656 C223 1.487 1_455 S
C658 C343 1.486 . S
C667 C376 1.486 . S
C669 C241 1.487 . S
C678 C248 1.486 1_455 S
C680 C369 1.487 . S
C689 C30 1.237 . S
C691 C406 1.241 . S
C700 C22 1.235 . S
C702 C414 1.243 . S
C711 C54 1.235 . S
C713 C446 1.243 . S
C722 C438 1.245 . S
C724 C62 1.236 . S
C733 C472 1.243 . S
C735 C81 1.237 . S
C744 C465 1.245 . S
C746 C88 1.236 . S
C755 C511 1.240 . S
C757 C119 1.239 . S
C766 C503 1.245 . S
C768 C127 1.236 . S
C777 C158 1.235 . S
C779 C278 1.243 . S
C788 C150 1.235 . S
C790 C286 1.243 . S
C799 C182 1.235 . S
C801 C318 1.243 . S
C810 C190 1.244 . S
C812 C310 1.236 . S
C821 C344 1.237 . S
C823 C209 1.241 . S
C832 C337 1.235 . S
C834 C216 1.243 . S
C843 C383 1.242 . S
C845 C247 1.238 . S
C854 C255 1.239 . S
C856 C375 1.241 . S
C865 C31 1.599 . S
C867 C319 1.604 . S
C876 C305 1.596 . S
C878 C17 1.597 1_655 S
C887 C273 1.595 . S
C889 C49 1.598 . S
C898 C287 1.604 . S
C900 C63 1.600 1_655 S
C909 C382 1.600 . S
C911 C86 1.600 . S
C920 C72 1.601 1_455 S
C922 C379 1.600 . S
C931 C123 1.600 . S
C933 C328 1.600 . S
C942 C126 1.594 1_455 S
C944 C342 1.604 . S
C953 C447 1.605 . S
C955 C159 1.600 . S
C964 C145 1.596 1_655 S
C966 C433 1.600 . S
C975 C177 1.595 . S
C977 C401 1.600 . S
C986 C415 1.600 . S
C988 C191 1.604 1_655 S
C997 C510 1.597 . S
C999 C214 1.602 . S
C1008 C507 1.599 . S
C1010 C200 1.600 1_455 S
C1019 C456 1.596 . S
C1021 C251 1.602 . S
C1030 C470 1.602 . S
C1032 C254 1.596 1_455 S
C1041 C475 1.928 . S
C1043 C24 1.921 . S
C1052 C94 1.840 1_455 S
C1054 C23 1.827 1_655 S
C1063 C374 1.930 . S
C1065 C55 1.828 . S
C1074 C56 1.923 1_655 S
C1076 C232 1.835 1_455 S
C1085 C408 1.930 . S
C1087 C91 1.919 . S
C1096 C118 1.923 . S
C1098 C311 1.833 . S
C1107 C184 1.918 1_655 S
C1109 C104 1.838 1_455 S
C1118 C347 1.922 . S
C1120 C152 1.926 . S
C1129 C151 1.827 1_655 S
C1131 C222 1.837 1_455 S
C1140 C183 1.837 . S
C1142 C502 1.921 . S
C1151 C280 1.919 . S
C1153 C219 1.928 . S
C1162 C439 1.828 . S
C1164 C246 1.927 . S
C1173 C279 1.831 . S
C1175 C350 1.835 . S
C1184 C312 1.918 . S
C1186 C488 1.838 . S
C1195 C440 1.920 . S
C1197 C360 1.837 . S
C1206 C478 1.840 . S
C1208 C407 1.827 . S
