# Generated by pormake.
# Topology uli, (4)-cn, num edge types: 1
# Building blocks:
#     Node 0, Type 0, BuildingBlock: GALJAG_clean_sbu_0, # of connection points: 4
#     Node 1, Type 0, BuildingBlock: GALJAG_clean_sbu_0, # of connection points: 4
#     Node 2, Type 0, BuildingBlock: GALJAG_clean_sbu_0, # of connection points: 4
#     Node 3, Type 0, BuildingBlock: GALJAG_clean_sbu_0, # of connection points: 4
#     Node 4, Type 0, BuildingBlock: GALJAG_clean_sbu_0, # of connection points: 4
#     Node 5, Type 0, BuildingBlock: GALJAG_clean_sbu_0, # of connection points: 4
#     Node 6, Type 0, BuildingBlock: GALJAG_clean_sbu_0, # of connection points: 4
#     Node 7, Type 0, BuildingBlock: GALJAG_clean_sbu_0, # of connection points: 4
#     Node 8, Type 0, BuildingBlock: GALJAG_clean_sbu_0, # of connection points: 4
#     Node 9, Type 0, BuildingBlock: GALJAG_clean_sbu_0, # of connection points: 4
#     Node 10, Type 0, BuildingBlock: GALJAG_clean_sbu_0, # of connection points: 4
#     Node 11, Type 0, BuildingBlock: GALJAG_clean_sbu_0, # of connection points: 4
#     Node 12, Type 0, BuildingBlock: GALJAG_clean_sbu_0, # of connection points: 4
#     Node 13, Type 0, BuildingBlock: GALJAG_clean_sbu_0, # of connection points: 4
#     Node 14, Type 0, BuildingBlock: GALJAG_clean_sbu_0, # of connection points: 4
#     Node 15, Type 0, BuildingBlock: GALJAG_clean_sbu_0, # of connection points: 4
#     Node 16, Type 0, BuildingBlock: GALJAG_clean_sbu_0, # of connection points: 4
#     Node 17, Type 0, BuildingBlock: GALJAG_clean_sbu_0, # of connection points: 4
#     Node 18, Type 0, BuildingBlock: GALJAG_clean_sbu_0, # of connection points: 4
#     Node 19, Type 0, BuildingBlock: GALJAG_clean_sbu_0, # of connection points: 4
#     Node 20, Type 0, BuildingBlock: GALJAG_clean_sbu_0, # of connection points: 4
#     Node 21, Type 0, BuildingBlock: GALJAG_clean_sbu_0, # of connection points: 4
#     Node 22, Type 0, BuildingBlock: GALJAG_clean_sbu_0, # of connection points: 4
#     Node 23, Type 0, BuildingBlock: GALJAG_clean_sbu_0, # of connection points: 4
#     Node 24, Type 0, BuildingBlock: GALJAG_clean_sbu_0, # of connection points: 4
#     Node 25, Type 0, BuildingBlock: GALJAG_clean_sbu_0, # of connection points: 4
#     Node 26, Type 0, BuildingBlock: GALJAG_clean_sbu_0, # of connection points: 4
#     Node 27, Type 0, BuildingBlock: GALJAG_clean_sbu_0, # of connection points: 4
#     Node 28, Type 0, BuildingBlock: GALJAG_clean_sbu_0, # of connection points: 4
#     Node 29, Type 0, BuildingBlock: GALJAG_clean_sbu_0, # of connection points: 4
#     Node 30, Type 0, BuildingBlock: GALJAG_clean_sbu_0, # of connection points: 4
#     Node 31, Type 0, BuildingBlock: GALJAG_clean_sbu_0, # of connection points: 4
#     Node 32, Type 0, BuildingBlock: GALJAG_clean_sbu_0, # of connection points: 4
#     Node 33, Type 0, BuildingBlock: GALJAG_clean_sbu_0, # of connection points: 4
#     Node 34, Type 0, BuildingBlock: GALJAG_clean_sbu_0, # of connection points: 4
#     Node 35, Type 0, BuildingBlock: GALJAG_clean_sbu_0, # of connection points: 4
#     Node 36, Type 0, BuildingBlock: GALJAG_clean_sbu_0, # of connection points: 4
#     Node 37, Type 0, BuildingBlock: GALJAG_clean_sbu_0, # of connection points: 4
#     Node 38, Type 0, BuildingBlock: GALJAG_clean_sbu_0, # of connection points: 4
#     Node 39, Type 0, BuildingBlock: GALJAG_clean_sbu_0, # of connection points: 4
#     Node 40, Type 0, BuildingBlock: GALJAG_clean_sbu_0, # of connection points: 4
#     Node 41, Type 0, BuildingBlock: GALJAG_clean_sbu_0, # of connection points: 4
#     Node 42, Type 0, BuildingBlock: GALJAG_clean_sbu_0, # of connection points: 4
#     Node 43, Type 0, BuildingBlock: GALJAG_clean_sbu_0, # of connection points: 4
#     Node 44, Type 0, BuildingBlock: GALJAG_clean_sbu_0, # of connection points: 4
#     Node 45, Type 0, BuildingBlock: GALJAG_clean_sbu_0, # of connection points: 4
#     Node 46, Type 0, BuildingBlock: GALJAG_clean_sbu_0, # of connection points: 4
#     Node 47, Type 0, BuildingBlock: GALJAG_clean_sbu_0, # of connection points: 4
#     Edge 48, Type (0, 0), BuildingBlock: OJICUG_clean_linker_0, # of connection points: 2
#     Edge 49, Type (0, 0), BuildingBlock: OJICUG_clean_linker_0, # of connection points: 2
#     Edge 50, Type (0, 0), BuildingBlock: OJICUG_clean_linker_0, # of connection points: 2
#     Edge 51, Type (0, 0), BuildingBlock: OJICUG_clean_linker_0, # of connection points: 2
#     Edge 52, Type (0, 0), BuildingBlock: OJICUG_clean_linker_0, # of connection points: 2
#     Edge 53, Type (0, 0), BuildingBlock: OJICUG_clean_linker_0, # of connection points: 2
#     Edge 54, Type (0, 0), BuildingBlock: OJICUG_clean_linker_0, # of connection points: 2
#     Edge 55, Type (0, 0), BuildingBlock: OJICUG_clean_linker_0, # of connection points: 2
#     Edge 56, Type (0, 0), BuildingBlock: OJICUG_clean_linker_0, # of connection points: 2
#     Edge 57, Type (0, 0), BuildingBlock: OJICUG_clean_linker_0, # of connection points: 2
#     Edge 58, Type (0, 0), BuildingBlock: OJICUG_clean_linker_0, # of connection points: 2
#     Edge 59, Type (0, 0), BuildingBlock: OJICUG_clean_linker_0, # of connection points: 2
#     Edge 60, Type (0, 0), BuildingBlock: OJICUG_clean_linker_0, # of connection points: 2
#     Edge 61, Type (0, 0), BuildingBlock: OJICUG_clean_linker_0, # of connection points: 2
#     Edge 62, Type (0, 0), BuildingBlock: OJICUG_clean_linker_0, # of connection points: 2
#     Edge 63, Type (0, 0), BuildingBlock: OJICUG_clean_linker_0, # of connection points: 2
#     Edge 64, Type (0, 0), BuildingBlock: OJICUG_clean_linker_0, # of connection points: 2
#     Edge 65, Type (0, 0), BuildingBlock: OJICUG_clean_linker_0, # of connection points: 2
#     Edge 66, Type (0, 0), BuildingBlock: OJICUG_clean_linker_0, # of connection points: 2
#     Edge 67, Type (0, 0), BuildingBlock: OJICUG_clean_linker_0, # of connection points: 2
#     Edge 68, Type (0, 0), BuildingBlock: OJICUG_clean_linker_0, # of connection points: 2
#     Edge 69, Type (0, 0), BuildingBlock: OJICUG_clean_linker_0, # of connection points: 2
#     Edge 70, Type (0, 0), BuildingBlock: OJICUG_clean_linker_0, # of connection points: 2
#     Edge 71, Type (0, 0), BuildingBlock: OJICUG_clean_linker_0, # of connection points: 2
#     Edge 72, Type (0, 0), BuildingBlock: OJICUG_clean_linker_0, # of connection points: 2
#     Edge 73, Type (0, 0), BuildingBlock: OJICUG_clean_linker_0, # of connection points: 2
#     Edge 74, Type (0, 0), BuildingBlock: OJICUG_clean_linker_0, # of connection points: 2
#     Edge 75, Type (0, 0), BuildingBlock: OJICUG_clean_linker_0, # of connection points: 2
#     Edge 76, Type (0, 0), BuildingBlock: OJICUG_clean_linker_0, # of connection points: 2
#     Edge 77, Type (0, 0), BuildingBlock: OJICUG_clean_linker_0, # of connection points: 2
#     Edge 78, Type (0, 0), BuildingBlock: OJICUG_clean_linker_0, # of connection points: 2
#     Edge 79, Type (0, 0), BuildingBlock: OJICUG_clean_linker_0, # of connection points: 2
#     Edge 80, Type (0, 0), BuildingBlock: OJICUG_clean_linker_0, # of connection points: 2
#     Edge 81, Type (0, 0), BuildingBlock: OJICUG_clean_linker_0, # of connection points: 2
#     Edge 82, Type (0, 0), BuildingBlock: OJICUG_clean_linker_0, # of connection points: 2
#     Edge 83, Type (0, 0), BuildingBlock: OJICUG_clean_linker_0, # of connection points: 2
#     Edge 84, Type (0, 0), BuildingBlock: OJICUG_clean_linker_0, # of connection points: 2
#     Edge 85, Type (0, 0), BuildingBlock: OJICUG_clean_linker_0, # of connection points: 2
#     Edge 86, Type (0, 0), BuildingBlock: OJICUG_clean_linker_0, # of connection points: 2
#     Edge 87, Type (0, 0), BuildingBlock: OJICUG_clean_linker_0, # of connection points: 2
#     Edge 88, Type (0, 0), BuildingBlock: OJICUG_clean_linker_0, # of connection points: 2
#     Edge 89, Type (0, 0), BuildingBlock: OJICUG_clean_linker_0, # of connection points: 2
#     Edge 90, Type (0, 0), BuildingBlock: OJICUG_clean_linker_0, # of connection points: 2
#     Edge 91, Type (0, 0), BuildingBlock: OJICUG_clean_linker_0, # of connection points: 2
#     Edge 92, Type (0, 0), BuildingBlock: OJICUG_clean_linker_0, # of connection points: 2
#     Edge 93, Type (0, 0), BuildingBlock: OJICUG_clean_linker_0, # of connection points: 2
#     Edge 94, Type (0, 0), BuildingBlock: OJICUG_clean_linker_0, # of connection points: 2
#     Edge 95, Type (0, 0), BuildingBlock: OJICUG_clean_linker_0, # of connection points: 2
#     Edge 96, Type (0, 0), BuildingBlock: OJICUG_clean_linker_0, # of connection points: 2
#     Edge 97, Type (0, 0), BuildingBlock: OJICUG_clean_linker_0, # of connection points: 2
#     Edge 98, Type (0, 0), BuildingBlock: OJICUG_clean_linker_0, # of connection points: 2
#     Edge 99, Type (0, 0), BuildingBlock: OJICUG_clean_linker_0, # of connection points: 2
#     Edge 100, Type (0, 0), BuildingBlock: OJICUG_clean_linker_0, # of connection points: 2
#     Edge 101, Type (0, 0), BuildingBlock: OJICUG_clean_linker_0, # of connection points: 2
#     Edge 102, Type (0, 0), BuildingBlock: OJICUG_clean_linker_0, # of connection points: 2
#     Edge 103, Type (0, 0), BuildingBlock: OJICUG_clean_linker_0, # of connection points: 2
#     Edge 104, Type (0, 0), BuildingBlock: OJICUG_clean_linker_0, # of connection points: 2
#     Edge 105, Type (0, 0), BuildingBlock: OJICUG_clean_linker_0, # of connection points: 2
#     Edge 106, Type (0, 0), BuildingBlock: OJICUG_clean_linker_0, # of connection points: 2
#     Edge 107, Type (0, 0), BuildingBlock: OJICUG_clean_linker_0, # of connection points: 2
#     Edge 108, Type (0, 0), BuildingBlock: OJICUG_clean_linker_0, # of connection points: 2
#     Edge 109, Type (0, 0), BuildingBlock: OJICUG_clean_linker_0, # of connection points: 2
#     Edge 110, Type (0, 0), BuildingBlock: OJICUG_clean_linker_0, # of connection points: 2
#     Edge 111, Type (0, 0), BuildingBlock: OJICUG_clean_linker_0, # of connection points: 2
#     Edge 112, Type (0, 0), BuildingBlock: OJICUG_clean_linker_0, # of connection points: 2
#     Edge 113, Type (0, 0), BuildingBlock: OJICUG_clean_linker_0, # of connection points: 2
#     Edge 114, Type (0, 0), BuildingBlock: OJICUG_clean_linker_0, # of connection points: 2
#     Edge 115, Type (0, 0), BuildingBlock: OJICUG_clean_linker_0, # of connection points: 2
#     Edge 116, Type (0, 0), BuildingBlock: OJICUG_clean_linker_0, # of connection points: 2
#     Edge 117, Type (0, 0), BuildingBlock: OJICUG_clean_linker_0, # of connection points: 2
#     Edge 118, Type (0, 0), BuildingBlock: OJICUG_clean_linker_0, # of connection points: 2
#     Edge 119, Type (0, 0), BuildingBlock: OJICUG_clean_linker_0, # of connection points: 2
#     Edge 120, Type (0, 0), BuildingBlock: OJICUG_clean_linker_0, # of connection points: 2
#     Edge 121, Type (0, 0), BuildingBlock: OJICUG_clean_linker_0, # of connection points: 2
#     Edge 122, Type (0, 0), BuildingBlock: OJICUG_clean_linker_0, # of connection points: 2
#     Edge 123, Type (0, 0), BuildingBlock: OJICUG_clean_linker_0, # of connection points: 2
#     Edge 124, Type (0, 0), BuildingBlock: OJICUG_clean_linker_0, # of connection points: 2
#     Edge 125, Type (0, 0), BuildingBlock: OJICUG_clean_linker_0, # of connection points: 2
#     Edge 126, Type (0, 0), BuildingBlock: OJICUG_clean_linker_0, # of connection points: 2
#     Edge 127, Type (0, 0), BuildingBlock: OJICUG_clean_linker_0, # of connection points: 2
#     Edge 128, Type (0, 0), BuildingBlock: OJICUG_clean_linker_0, # of connection points: 2
#     Edge 129, Type (0, 0), BuildingBlock: OJICUG_clean_linker_0, # of connection points: 2
#     Edge 130, Type (0, 0), BuildingBlock: OJICUG_clean_linker_0, # of connection points: 2
#     Edge 131, Type (0, 0), BuildingBlock: OJICUG_clean_linker_0, # of connection points: 2
#     Edge 132, Type (0, 0), BuildingBlock: OJICUG_clean_linker_0, # of connection points: 2
#     Edge 133, Type (0, 0), BuildingBlock: OJICUG_clean_linker_0, # of connection points: 2
#     Edge 134, Type (0, 0), BuildingBlock: OJICUG_clean_linker_0, # of connection points: 2
#     Edge 135, Type (0, 0), BuildingBlock: OJICUG_clean_linker_0, # of connection points: 2
#     Edge 136, Type (0, 0), BuildingBlock: OJICUG_clean_linker_0, # of connection points: 2
#     Edge 137, Type (0, 0), BuildingBlock: OJICUG_clean_linker_0, # of connection points: 2
#     Edge 138, Type (0, 0), BuildingBlock: OJICUG_clean_linker_0, # of connection points: 2
#     Edge 139, Type (0, 0), BuildingBlock: OJICUG_clean_linker_0, # of connection points: 2
#     Edge 140, Type (0, 0), BuildingBlock: OJICUG_clean_linker_0, # of connection points: 2
#     Edge 141, Type (0, 0), BuildingBlock: OJICUG_clean_linker_0, # of connection points: 2
#     Edge 142, Type (0, 0), BuildingBlock: OJICUG_clean_linker_0, # of connection points: 2
#     Edge 143, Type (0, 0), BuildingBlock: OJICUG_clean_linker_0, # of connection points: 2
# Relax obj value: 0.561
# Max RMSD: 0.176
# Mean RMSD: 0.176
data_MOF--net-uli--node1-GALJAG_clean_sbu_0--edge1-OJICUG_clean_linker_0
_symmetry_space_group_name_H-M    P1
_symmetry_Int_Tables_number       1
_symmetry_cell_setting            triclinic
loop_
_symmetry_equiv_pos_as_xyz
'x, y, z'
_cell_length_a     48.54803
_cell_length_b     48.463054
_cell_length_c     48.505206
_cell_angle_alpha  89.964469
_cell_angle_beta   90.027683
_cell_angle_gamma 89.942149
loop_
_atom_site_label
_atom_site_type_symbol
_atom_site_fract_x
_atom_site_fract_y
_atom_site_fract_z
_atom_type_partial_charge
In0 In 0.08357 0.22164 0.27742 0.0
O1 O 0.08769 0.26603 0.29268 0.0
O2 O 0.06657 0.25915 0.25483 0.0
C3 C 0.12263 0.19408 0.30599 0.0
C4 C 0.03546 0.20268 0.29711 0.0
C5 C 0.10694 0.215 0.2278 0.0
O6 O 0.11964 0.21992 0.30777 0.0
O7 O 0.1052 0.18224 0.29086 0.0
O8 O 0.0854 0.20191 0.23446 0.0
O9 O 0.11632 0.2309 0.24606 0.0
C10 C 0.07604 0.27649 0.27178 0.0
O11 O 0.04455 0.19597 0.27367 0.0
O12 O 0.05033 0.21945 0.31031 0.0
In13 In 0.67674 0.09151 0.2578 0.0
O14 O 0.64061 0.1171 0.27348 0.0
O15 O 0.63639 0.09706 0.23465 0.0
C16 C 0.72012 0.10612 0.28917 0.0
C17 C 0.67279 0.03911 0.27485 0.0
C18 C 0.69787 0.11252 0.21118 0.0
O19 O 0.69713 0.11833 0.29101 0.0
O20 O 0.72071 0.08652 0.27221 0.0
O21 O 0.69382 0.08687 0.214 0.0
O22 O 0.69111 0.1271 0.23159 0.0
C23 C 0.62627 0.1137 0.25195 0.0
O24 O 0.68168 0.04571 0.25129 0.0
O25 O 0.66333 0.05883 0.28901 0.0
In26 In 0.90024 0.77193 0.25388 0.0
O27 O 0.9383 0.79804 0.24494 0.0
O28 O 0.93625 0.77612 0.28302 0.0
C29 C 0.86809 0.77803 0.20944 0.0
C30 C 0.90901 0.71756 0.24669 0.0
C31 C 0.86563 0.79888 0.28785 0.0
O32 O 0.89034 0.79146 0.21191 0.0
O33 O 0.86257 0.76199 0.22911 0.0
O34 O 0.86835 0.77294 0.28858 0.0
O35 O 0.88111 0.81099 0.27091 0.0
C36 C 0.94947 0.79265 0.26788 0.0
O37 O 0.90013 0.72744 0.26916 0.0
O38 O 0.91541 0.73534 0.22875 0.0
In39 In 0.31699 0.9085 0.27243 0.0
O40 O 0.32843 0.95383 0.26655 0.0
O41 O 0.32165 0.93911 0.30737 0.0
C42 C 0.30498 0.88829 0.22225 0.0
C43 C 0.36309 0.87837 0.27857 0.0
C44 C 0.26608 0.89973 0.29239 0.0
O45 O 0.3073 0.91403 0.22627 0.0
O46 O 0.30855 0.87347 0.24329 0.0
O47 O 0.28705 0.8873 0.30173 0.0
O48 O 0.27098 0.91681 0.27339 0.0
C49 C 0.32661 0.95946 0.29195 0.0
O50 O 0.3432 0.87695 0.29534 0.0
O51 O 0.36076 0.89704 0.26052 0.0
In52 In 0.13069 0.68291 0.80359 0.0
O53 O 0.08791 0.68883 0.8215 0.0
O54 O 0.09211 0.66366 0.7857 0.0
C55 C 0.16577 0.70942 0.8369 0.0
C56 C 0.15528 0.63372 0.80918 0.0
C57 C 0.13245 0.72152 0.76378 0.0
O58 O 0.14075 0.70604 0.8436 0.0
O59 O 0.17256 0.69946 0.81388 0.0
O60 O 0.14411 0.6983 0.76097 0.0
O61 O 0.11986 0.72476 0.78622 0.0
C62 C 0.07609 0.67552 0.80244 0.0
O63 O 0.15138 0.64487 0.78588 0.0
O64 O 0.14453 0.64629 0.82933 0.0
In65 In 0.19898 0.08161 0.70748 0.0
O66 O 0.23841 0.08961 0.6832 0.0
O67 O 0.24123 0.06589 0.72007 0.0
C68 C 0.16481 0.12071 0.6871 0.0
C69 C 0.18015 0.03191 0.69107 0.0
C70 C 0.20428 0.1032 0.75833 0.0
O71 O 0.18937 0.11796 0.67903 0.0
O72 O 0.15706 0.10274 0.70418 0.0
O73 O 0.18997 0.08178 0.75413 0.0
O74 O 0.21513 0.11347 0.73712 0.0
C75 C 0.25384 0.07764 0.70055 0.0
O76 O 0.17698 0.04078 0.71534 0.0
O77 O 0.19271 0.04814 0.6751 0.0
In78 In 0.87981 0.3181 0.76198 0.0
O79 O 0.8559 0.35475 0.74476 0.0
O80 O 0.86798 0.35594 0.78695 0.0
C81 C 0.87402 0.27726 0.72484 0.0
C82 C 0.93402 0.32552 0.75525 0.0
C83 C 0.85226 0.2908 0.80143 0.0
O84 O 0.86015 0.29934 0.72322 0.0
O85 O 0.89086 0.27638 0.74454 0.0
O86 O 0.87764 0.29625 0.80377 0.0
O87 O 0.84107 0.29947 0.77962 0.0
C88 C 0.85451 0.36715 0.76767 0.0
O89 O 0.92377 0.31556 0.77704 0.0
O90 O 0.91668 0.3345 0.73799 0.0
In91 In 0.81087 0.90899 0.70623 0.0
O92 O 0.83068 0.9512 0.71302 0.0
O93 O 0.82103 0.9394 0.67192 0.0
C94 C 0.79637 0.89229 0.75717 0.0
C95 C 0.75826 0.91157 0.6891 0.0
C96 C 0.84848 0.86896 0.69625 0.0
O97 O 0.8118 0.91306 0.75364 0.0
O98 O 0.78901 0.8803 0.73537 0.0
O99 O 0.82553 0.87005 0.68405 0.0
O100 O 0.8531 0.88897 0.71216 0.0
C101 C 0.83057 0.95765 0.68778 0.0
O102 O 0.77651 0.89822 0.67604 0.0
O103 O 0.76705 0.92492 0.70966 0.0
In104 In 0.27698 0.1207 0.31595 0.0
O105 O 0.30698 0.15321 0.3317 0.0
O106 O 0.28142 0.13261 0.36091 0.0
C107 C 0.2754 0.12587 0.26072 0.0
C108 C 0.30126 0.07108 0.31961 0.0
C109 C 0.22597 0.1408 0.32289 0.0
O110 O 0.29146 0.14016 0.27556 0.0
O111 O 0.26055 0.10899 0.2738 0.0
O112 O 0.23081 0.11513 0.32482 0.0
O113 O 0.2466 0.15559 0.31743 0.0
C114 C 0.29881 0.15145 0.35643 0.0
O115 O 0.2777 0.0757 0.32983 0.0
O116 O 0.31289 0.09178 0.309 0.0
In117 In 0.86983 0.18465 0.31102 0.0
O118 O 0.90919 0.15926 0.31752 0.0
O119 O 0.91063 0.20306 0.32202 0.0
C120 C 0.82341 0.15524 0.3136 0.0
C121 C 0.85238 0.21655 0.3521 0.0
C122 C 0.87122 0.19133 0.25591 0.0
O123 O 0.84648 0.14422 0.31938 0.0
O124 O 0.82439 0.18015 0.30618 0.0
O125 O 0.86617 0.21109 0.2722 0.0
O126 O 0.87612 0.16857 0.26752 0.0
C127 C 0.92364 0.18057 0.32196 0.0
O128 O 0.85822 0.22618 0.32849 0.0
O129 O 0.85701 0.19103 0.35535 0.0
In130 In 0.71892 0.88167 0.32006 0.0
O131 O 0.68935 0.85395 0.34357 0.0
O132 O 0.72209 0.87294 0.36586 0.0
C133 C 0.70792 0.87416 0.26619 0.0
C134 C 0.70389 0.93479 0.32169 0.0
C135 C 0.76818 0.8565 0.31931 0.0
O136 O 0.72667 0.88983 0.27491 0.0
O137 O 0.69426 0.86199 0.28481 0.0
O138 O 0.76595 0.8821 0.32408 0.0
O139 O 0.74579 0.84409 0.31486 0.0
C140 C 0.70246 0.85582 0.36607 0.0
O141 O 0.72877 0.92713 0.32257 0.0
O142 O 0.68642 0.91552 0.32279 0.0
In143 In 0.11464 0.8238 0.29116 0.0
O144 O 0.07291 0.84661 0.29116 0.0
O145 O 0.07412 0.80253 0.29296 0.0
C146 C 0.15853 0.8552 0.30174 0.0
C147 C 0.12241 0.7927 0.33581 0.0
C148 C 0.12535 0.81525 0.2374 0.0
O149 O 0.13465 0.86591 0.30033 0.0
O150 O 0.15963 0.82953 0.29773 0.0
O151 O 0.12867 0.79677 0.25552 0.0
O152 O 0.11595 0.83779 0.24636 0.0
C153 C 0.05968 0.82407 0.29213 0.0
O154 O 0.12175 0.78276 0.31167 0.0
O155 O 0.11859 0.8185 0.33758 0.0
In156 In 0.18372 0.8647 0.68389 0.0
O157 O 0.1531 0.90047 0.68511 0.0
O158 O 0.19087 0.90586 0.66333 0.0
C159 C 0.16073 0.81865 0.70367 0.0
C160 C 0.19477 0.83941 0.63628 0.0
C161 C 0.21469 0.87467 0.7288 0.0
O162 O 0.14623 0.83999 0.69901 0.0
O163 O 0.18611 0.82119 0.69892 0.0
O164 O 0.22512 0.86646 0.70634 0.0
O165 O 0.18902 0.87851 0.72814 0.0
C166 C 0.16886 0.91666 0.67204 0.0
O167 O 0.21338 0.85063 0.65077 0.0
O168 O 0.17038 0.84357 0.64448 0.0
In169 In 0.09246 0.27446 0.70835 0.0
O170 O 0.04663 0.26743 0.71441 0.0
O171 O 0.0604 0.30897 0.71159 0.0
C172 C 0.11063 0.2248 0.69127 0.0
C173 C 0.11475 0.30387 0.66719 0.0
C174 C 0.11137 0.27267 0.76074 0.0
O175 O 0.08517 0.23048 0.69187 0.0
O176 O 0.12631 0.24394 0.69914 0.0
O177 O 0.12189 0.28811 0.74264 0.0
O178 O 0.09111 0.25877 0.75254 0.0
C179 C 0.0406 0.29271 0.7158 0.0
O180 O 0.11639 0.31113 0.69218 0.0
O181 O 0.10015 0.28274 0.66277 0.0
In182 In 0.8181 0.12337 0.67457 0.0
O183 O 0.85136 0.08993 0.67312 0.0
O184 O 0.81153 0.08059 0.65726 0.0
C185 C 0.84108 0.17287 0.68279 0.0
C186 C 0.79211 0.1426 0.62997 0.0
C187 C 0.79975 0.11515 0.72636 0.0
O188 O 0.85569 0.15222 0.67597 0.0
O189 O 0.81579 0.16801 0.68599 0.0
O190 O 0.78347 0.11907 0.70634 0.0
O191 O 0.8249 0.11489 0.71999 0.0
C192 C 0.83532 0.07194 0.6632 0.0
O193 O 0.77931 0.13177 0.65001 0.0
O194 O 0.81811 0.14123 0.63141 0.0
In195 In 0.91989 0.71904 0.7409 0.0
O196 O 0.90044 0.68122 0.72138 0.0
O197 O 0.92401 0.70782 0.69552 0.0
C198 C 0.89063 0.72303 0.78804 0.0
C199 C 0.96967 0.70276 0.75925 0.0
C200 C 0.9036 0.76708 0.71788 0.0
O201 O 0.88416 0.70651 0.76901 0.0
O202 O 0.91219 0.7367 0.78359 0.0
O203 O 0.92839 0.76307 0.72496 0.0
O204 O 0.88766 0.74707 0.72232 0.0
C205 C 0.90857 0.68688 0.69726 0.0
O206 O 0.96401 0.72767 0.75412 0.0
O207 O 0.95073 0.68584 0.75382 0.0
In208 In 0.22348 0.18191 0.10755 0.0
O209 O 0.2241 0.15467 0.0688 0.0
O210 O 0.19654 0.18883 0.07055 0.0
C211 C 0.24813 0.15594 0.14995 0.0
C212 C 0.26479 0.21623 0.09506 0.0
C213 C 0.1786 0.19503 0.13671 0.0
O214 O 0.23379 0.1426 0.1326 0.0
O215 O 0.25014 0.18138 0.14523 0.0
O216 O 0.19587 0.21288 0.12878 0.0
O217 O 0.18355 0.1706 0.12906 0.0
C218 C 0.20612 0.16916 0.05659 0.0
O219 O 0.24115 0.22488 0.1019 0.0
O220 O 0.2669 0.19033 0.09294 0.0
In221 In 0.27626 0.83134 0.88235 0.0
O222 O 0.25581 0.85628 0.91702 0.0
O223 O 0.28832 0.82865 0.92719 0.0
C224 C 0.26197 0.85489 0.83431 0.0
C225 C 0.33041 0.83225 0.87164 0.0
C226 C 0.24264 0.78718 0.87959 0.0
O227 O 0.25794 0.8672 0.85702 0.0
O228 O 0.27269 0.8313 0.83627 0.0
O229 O 0.26837 0.78525 0.87629 0.0
O230 O 0.23413 0.81115 0.88481 0.0
C231 C 0.26999 0.84496 0.93575 0.0
O232 O 0.31793 0.81061 0.87916 0.0
O233 O 0.31592 0.85398 0.87169 0.0
In234 In 0.20351 0.21098 0.89131 0.0
O235 O 0.24553 0.23199 0.89272 0.0
O236 O 0.21073 0.25401 0.9081 0.0
C237 C 0.20986 0.16815 0.85673 0.0
C238 C 0.19807 0.18802 0.94138 0.0
C239 C 0.1698 0.2382 0.85692 0.0
O240 O 0.22899 0.18525 0.86136 0.0
O241 O 0.18814 0.17207 0.87045 0.0
O242 O 0.16039 0.22463 0.87719 0.0
O243 O 0.19563 0.23797 0.85456 0.0
C244 C 0.23615 0.25431 0.90256 0.0
O245 O 0.21925 0.18486 0.92665 0.0
O246 O 0.17938 0.20286 0.93078 0.0
In247 In 0.76394 0.16774 0.88407 0.0
O248 O 0.72372 0.19124 0.89038 0.0
O249 O 0.72182 0.14751 0.88727 0.0
C250 C 0.79206 0.2112 0.86448 0.0
C251 C 0.78374 0.15924 0.93539 0.0
C252 C 0.77092 0.13738 0.838 0.0
O253 O 0.76639 0.21217 0.86884 0.0
O254 O 0.8034 0.18846 0.87023 0.0
O255 O 0.78606 0.13389 0.85897 0.0
O256 O 0.75236 0.15525 0.84088 0.0
C257 C 0.70873 0.16997 0.88897 0.0
O258 O 0.77287 0.13991 0.92172 0.0
O259 O 0.78405 0.18224 0.92342 0.0
In260 In 0.77367 0.7919 0.89322 0.0
O261 O 0.73219 0.77054 0.88724 0.0
O262 O 0.76358 0.74937 0.9096 0.0
C263 C 0.77316 0.83404 0.85704 0.0
C264 C 0.7707 0.81396 0.94384 0.0
C265 C 0.81329 0.76356 0.86694 0.0
O266 O 0.75357 0.81694 0.85885 0.0
O267 O 0.79218 0.83063 0.87442 0.0
O268 O 0.81863 0.77812 0.88796 0.0
O269 O 0.78838 0.76351 0.85963 0.0
C270 C 0.73963 0.74865 0.89948 0.0
O271 O 0.7517 0.81673 0.92629 0.0
O272 O 0.79146 0.80054 0.93557 0.0
In273 In 0.73216 0.81161 0.10986 0.0
O274 O 0.71252 0.76936 0.10642 0.0
O275 O 0.68697 0.80467 0.10041 0.0
C276 C 0.78 0.7984 0.13389 0.0
C277 C 0.74767 0.82363 0.05825 0.0
C278 C 0.71377 0.83906 0.15424 0.0
O279 O 0.76164 0.78062 0.12872 0.0
O280 O 0.7743 0.82276 0.12655 0.0
O281 O 0.72458 0.85179 0.13409 0.0
O282 O 0.712 0.81332 0.15134 0.0
C283 C 0.68848 0.77873 0.10262 0.0
O284 O 0.73055 0.83879 0.07087 0.0
O285 O 0.75622 0.80306 0.07157 0.0
In286 In 0.22236 0.80559 0.09692 0.0
O287 O 0.23637 0.7608 0.0958 0.0
O288 O 0.19564 0.77018 0.08195 0.0
C289 C 0.2574 0.83407 0.12884 0.0
C290 C 0.23627 0.82475 0.04695 0.0
C291 C 0.18279 0.80766 0.13509 0.0
O292 O 0.26033 0.80848 0.12433 0.0
O293 O 0.23737 0.84525 0.1165 0.0
O294 O 0.1816 0.8231 0.1139 0.0
O295 O 0.20355 0.79206 0.13645 0.0
C296 C 0.21334 0.7518 0.0874 0.0
O297 O 0.21249 0.82917 0.05689 0.0
O298 O 0.25201 0.81041 0.06194 0.0
In299 In 0.80169 0.19335 0.10038 0.0
O300 O 0.78254 0.17273 0.06331 0.0
O301 O 0.82576 0.17966 0.06186 0.0
C302 C 0.83641 0.19519 0.14367 0.0
C303 C 0.79808 0.24756 0.08935 0.0
C304 C 0.76302 0.16524 0.12807 0.0
O305 O 0.83856 0.17648 0.12553 0.0
O306 O 0.81761 0.21251 0.13929 0.0
O307 O 0.75974 0.19011 0.12085 0.0
O308 O 0.78554 0.15443 0.12074 0.0
C309 C 0.80453 0.17056 0.04979 0.0
O310 O 0.77703 0.23273 0.0934 0.0
O311 O 0.82064 0.23458 0.08899 0.0
In312 In 0.62964 0.81105 0.68996 0.0
O313 O 0.64957 0.84873 0.70922 0.0
O314 O 0.64448 0.84817 0.66554 0.0
C315 C 0.63036 0.77231 0.72975 0.0
C316 C 0.57492 0.81793 0.6888 0.0
C317 C 0.66537 0.78481 0.65704 0.0
O318 O 0.642 0.79546 0.73286 0.0
O319 O 0.6183 0.76917 0.707 0.0
O320 O 0.64063 0.78886 0.64968 0.0
O321 O 0.6716 0.794 0.68053 0.0
C322 C 0.65444 0.86032 0.68634 0.0
O323 O 0.58769 0.80475 0.67029 0.0
O324 O 0.59009 0.82998 0.70617 0.0
In325 In 0.31099 0.58308 0.7926 0.0
O326 O 0.33155 0.54107 0.78716 0.0
O327 O 0.32139 0.55385 0.82787 0.0
C328 C 0.29467 0.59825 0.74177 0.0
C329 C 0.25859 0.58127 0.81025 0.0
C330 C 0.34932 0.62286 0.79991 0.0
O331 O 0.30935 0.57692 0.74545 0.0
O332 O 0.28913 0.61162 0.76331 0.0
O333 O 0.32703 0.62226 0.81333 0.0
O334 O 0.35293 0.60253 0.78413 0.0
C335 C 0.33141 0.53534 0.81258 0.0
O336 O 0.27684 0.59543 0.82242 0.0
O337 O 0.26736 0.56666 0.79055 0.0
In338 In 0.3797 0.18118 0.72357 0.0
O339 O 0.35605 0.14392 0.73941 0.0
O340 O 0.36831 0.14408 0.69724 0.0
C341 C 0.37266 0.22051 0.7621 0.0
C342 C 0.43358 0.17305 0.73237 0.0
C343 C 0.35341 0.20976 0.68402 0.0
O344 O 0.35841 0.19865 0.76205 0.0
O345 O 0.39038 0.22198 0.74326 0.0
O346 O 0.37892 0.20453 0.68249 0.0
O347 O 0.34148 0.20018 0.70502 0.0
C348 C 0.35499 0.13213 0.71617 0.0
O349 O 0.42439 0.18431 0.71071 0.0
O350 O 0.41543 0.16328 0.74824 0.0
In351 In 0.6968 0.41285 0.77897 0.0
O352 O 0.67446 0.45368 0.77157 0.0
O353 O 0.68975 0.44552 0.81187 0.0
C354 C 0.70065 0.39014 0.72854 0.0
C355 C 0.75172 0.41861 0.78391 0.0
C356 C 0.66421 0.37329 0.80073 0.0
O357 O 0.68557 0.41105 0.73282 0.0
O358 O 0.71302 0.38102 0.74946 0.0
O359 O 0.68907 0.37634 0.80775 0.0
O360 O 0.65546 0.39113 0.78395 0.0
C361 C 0.67716 0.46199 0.79611 0.0
O362 O 0.73729 0.40653 0.802 0.0
O363 O 0.73808 0.42955 0.76459 0.0
In364 In 0.57492 0.26587 0.21661 0.0
O365 O 0.53619 0.29165 0.22233 0.0
O366 O 0.5398 0.26772 0.18567 0.0
C367 C 0.60102 0.27183 0.26496 0.0
C368 C 0.56997 0.21076 0.22166 0.0
C369 C 0.61116 0.29551 0.18669 0.0
O370 O 0.57785 0.28303 0.26062 0.0
O371 O 0.61065 0.25825 0.24505 0.0
O372 O 0.60932 0.26959 0.18457 0.0
O373 O 0.59401 0.30631 0.20288 0.0
C374 C 0.52586 0.2849 0.19941 0.0
O375 O 0.58021 0.22198 0.20044 0.0
O376 O 0.56012 0.22745 0.23906 0.0
In377 In 0.80891 0.59227 0.22556 0.0
O378 O 0.84071 0.61908 0.20386 0.0
O379 O 0.85245 0.59895 0.24112 0.0
C380 C 0.76021 0.60466 0.20204 0.0
C381 C 0.81166 0.53955 0.20945 0.0
C382 C 0.79636 0.61494 0.27438 0.0
O383 O 0.78224 0.61677 0.19508 0.0
O384 O 0.76314 0.58622 0.22007 0.0
O385 O 0.8009 0.58932 0.27201 0.0
O386 O 0.79814 0.62861 0.25235 0.0
C387 C 0.85866 0.61621 0.2226 0.0
O388 O 0.8057 0.5466 0.23378 0.0
O389 O 0.81859 0.55904 0.19362 0.0
In390 In 0.39251 0.71823 0.24741 0.0
O391 O 0.4316 0.69297 0.25482 0.0
O392 O 0.42681 0.71397 0.21646 0.0
C393 C 0.36143 0.71058 0.29232 0.0
C394 C 0.40326 0.77201 0.25567 0.0
C395 C 0.35582 0.69405 0.21361 0.0
O396 O 0.38205 0.69527 0.2875 0.0
O397 O 0.35718 0.72937 0.27489 0.0
O398 O 0.35898 0.71992 0.21438 0.0
O399 O 0.372 0.68059 0.22886 0.0
C400 C 0.44142 0.69832 0.23126 0.0
O401 O 0.39375 0.76296 0.23312 0.0
O402 O 0.40886 0.75369 0.27336 0.0
In403 In 0.16827 0.40694 0.23689 0.0
O404 O 0.17044 0.45292 0.24391 0.0
O405 O 0.15315 0.4394 0.20592 0.0
C406 C 0.18881 0.38718 0.28442 0.0
C407 C 0.12006 0.38001 0.24163 0.0
C408 C 0.21292 0.39468 0.20613 0.0
O409 O 0.18322 0.41252 0.2814 0.0
O410 O 0.18416 0.3723 0.26363 0.0
O411 O 0.19 0.38283 0.2025 0.0
O412 O 0.21295 0.41273 0.22476 0.0
C413 C 0.16137 0.45942 0.22039 0.0
O414 O 0.13512 0.37803 0.22044 0.0
O415 O 0.12793 0.39784 0.25891 0.0
In416 In 0.68003 0.62814 0.80874 0.0
O417 O 0.6489 0.59292 0.80602 0.0
O418 O 0.68586 0.58655 0.82888 0.0
C419 C 0.65729 0.67477 0.78978 0.0
C420 C 0.69271 0.65181 0.85681 0.0
C421 C 0.71121 0.61825 0.76396 0.0
O422 O 0.6426 0.65362 0.79452 0.0
O423 O 0.6827 0.67182 0.79415 0.0
O424 O 0.72153 0.62632 0.78651 0.0
O425 O 0.68553 0.61463 0.7644 0.0
C426 C 0.66405 0.57623 0.81921 0.0
O427 O 0.71059 0.64006 0.84184 0.0
O428 O 0.66805 0.64916 0.84873 0.0
In429 In 0.4191 0.77101 0.74818 0.0
O430 O 0.39925 0.80864 0.7677 0.0
O431 O 0.42437 0.78303 0.7932 0.0
C432 C 0.38871 0.76523 0.70192 0.0
C433 C 0.46816 0.7883 0.72895 0.0
C434 C 0.40392 0.72355 0.77296 0.0
O435 O 0.38281 0.78261 0.72038 0.0
O436 O 0.41034 0.75164 0.7064 0.0
O437 O 0.42834 0.72726 0.76458 0.0
O438 O 0.38781 0.74352 0.76884 0.0
C439 C 0.40835 0.80357 0.79163 0.0
O440 O 0.46331 0.76332 0.73449 0.0
O441 O 0.44872 0.80475 0.73417 0.0
In442 In 0.31901 0.37144 0.82403 0.0
O443 O 0.28071 0.36117 0.84868 0.0
O444 O 0.31992 0.35068 0.86587 0.0
C445 C 0.30069 0.38431 0.77319 0.0
C446 C 0.33698 0.42174 0.83832 0.0
C447 C 0.3408 0.32243 0.81121 0.0
O448 O 0.28436 0.37893 0.79282 0.0
O449 O 0.32585 0.38356 0.77949 0.0
O450 O 0.35592 0.34205 0.81968 0.0
O451 O 0.31558 0.32811 0.80869 0.0
C452 C 0.29396 0.34899 0.86765 0.0
O453 O 0.35289 0.40383 0.82798 0.0
O454 O 0.31294 0.41333 0.84351 0.0
In455 In 0.59057 0.21898 0.78728 0.0
O456 O 0.61411 0.18323 0.80628 0.0
O457 O 0.59616 0.21271 0.83349 0.0
C458 C 0.60934 0.2187 0.73491 0.0
C459 C 0.53861 0.20188 0.77864 0.0
C460 C 0.60997 0.26901 0.80149 0.0
O461 O 0.61993 0.20381 0.7535 0.0
O462 O 0.58924 0.23308 0.7427 0.0
O463 O 0.5844 0.26389 0.80135 0.0
O464 O 0.6252 0.2491 0.79459 0.0
C465 C 0.61132 0.19166 0.8308 0.0
O466 O 0.54487 0.22695 0.78182 0.0
O467 O 0.5582 0.1851 0.78195 0.0
In468 In 0.75898 0.3805 0.17637 0.0
O469 O 0.75116 0.42632 0.17081 0.0
O470 O 0.79279 0.41291 0.17463 0.0
C471 C 0.71013 0.35569 0.16928 0.0
C472 C 0.7829 0.3527 0.1351 0.0
C473 C 0.76152 0.37382 0.23157 0.0
O474 O 0.71301 0.38138 0.1653 0.0
O475 O 0.73159 0.34313 0.17688 0.0
O476 O 0.77763 0.36128 0.21533 0.0
O477 O 0.74468 0.3898 0.21993 0.0
C478 C 0.77626 0.43292 0.17281 0.0
O479 O 0.79259 0.3528 0.15934 0.0
O480 O 0.76242 0.36838 0.13133 0.0
In481 In 0.60804 0.68119 0.20686 0.0
O482 O 0.56849 0.65512 0.20775 0.0
O483 O 0.56576 0.69882 0.2026 0.0
C484 C 0.65348 0.652 0.19595 0.0
C485 C 0.61622 0.71283 0.16264 0.0
C486 C 0.61695 0.68976 0.26103 0.0
O487 O 0.62991 0.64062 0.19548 0.0
O488 O 0.6536 0.6772 0.20237 0.0
O489 O 0.61895 0.70883 0.24332 0.0
O490 O 0.60979 0.66669 0.25142 0.0
C491 C 0.55328 0.67619 0.20498 0.0
O492 O 0.61456 0.72272 0.18679 0.0
O493 O 0.61248 0.68704 0.16075 0.0
In494 In 0.20569 0.61796 0.1781 0.0
O495 O 0.21497 0.57262 0.17373 0.0
O496 O 0.17269 0.58448 0.17429 0.0
C497 C 0.25569 0.6412 0.18173 0.0
C498 C 0.19312 0.64663 0.13244 0.0
C499 C 0.19334 0.62373 0.23187 0.0
O500 O 0.25274 0.61598 0.1756 0.0
O501 O 0.23362 0.65416 0.18631 0.0
O502 O 0.18016 0.63668 0.21336 0.0
O503 O 0.21223 0.60827 0.22305 0.0
C504 C 0.19009 0.56506 0.17469 0.0
O505 O 0.17906 0.64863 0.15434 0.0
O506 O 0.2111 0.62776 0.13278 0.0
In507 In 0.3611 0.31535 0.18343 0.0
O508 O 0.34942 0.27417 0.16563 0.0
O509 O 0.34983 0.30922 0.13852 0.0
C510 C 0.35998 0.30987 0.23857 0.0
C511 C 0.41537 0.31477 0.17471 0.0
C512 C 0.31584 0.34635 0.17939 0.0
O513 O 0.3538 0.29028 0.22247 0.0
O514 O 0.36728 0.33187 0.22677 0.0
O515 O 0.33948 0.35682 0.17509 0.0
O516 O 0.31569 0.32113 0.18579 0.0
C517 C 0.34504 0.28371 0.14168 0.0
O518 O 0.40071 0.29338 0.17563 0.0
O519 O 0.4025 0.33743 0.17721 0.0
In520 In 0.77352 0.66094 0.61087 0.0
O521 O 0.7505 0.63723 0.57708 0.0
O522 O 0.78459 0.66226 0.56571 0.0
C523 C 0.75945 0.63737 0.65891 0.0
C524 C 0.82799 0.65912 0.61977 0.0
C525 C 0.74132 0.7062 0.61415 0.0
O526 O 0.75533 0.62512 0.6362 0.0
O527 O 0.77024 0.6609 0.65697 0.0
O528 O 0.76704 0.70719 0.61787 0.0
O529 O 0.73214 0.68265 0.6083 0.0
C530 C 0.76483 0.64735 0.55785 0.0
O531 O 0.81562 0.68088 0.61234 0.0
O532 O 0.81312 0.63769 0.62059 0.0
In533 In 0.71948 0.30738 0.3832 0.0
O534 O 0.74187 0.26654 0.38804 0.0
O535 O 0.76385 0.3036 0.39702 0.0
C536 C 0.67524 0.29198 0.35416 0.0
C537 C 0.70092 0.31632 0.43446 0.0
C538 C 0.74083 0.33678 0.34142 0.0
O539 O 0.69439 0.27535 0.36036 0.0
O540 O 0.67809 0.31619 0.36341 0.0
O541 O 0.72648 0.34838 0.35999 0.0
O542 O 0.74442 0.31126 0.34462 0.0
C543 C 0.7645 0.27764 0.39474 0.0
O544 O 0.71655 0.33351 0.42254 0.0
O545 O 0.69438 0.29564 0.4202 0.0
In546 In 0.71413 0.69714 0.40095 0.0
O547 O 0.70349 0.67294 0.44047 0.0
O548 O 0.74442 0.68776 0.4344 0.0
C549 C 0.67306 0.69711 0.36403 0.0
C550 C 0.71001 0.75099 0.41301 0.0
C551 C 0.74806 0.66973 0.36704 0.0
O552 O 0.67281 0.68051 0.38433 0.0
O553 O 0.69347 0.71309 0.36304 0.0
O554 O 0.75084 0.69523 0.37188 0.0
O555 O 0.72859 0.65811 0.37978 0.0
C556 C 0.728 0.67439 0.44945 0.0
O557 O 0.73204 0.74021 0.4041 0.0
O558 O 0.69065 0.73418 0.41764 0.0
In559 In 0.22277 0.67956 0.38919 0.0
O560 O 0.21598 0.6526 0.42789 0.0
O561 O 0.24967 0.68061 0.42663 0.0
C562 C 0.20094 0.65466 0.34468 0.0
C563 C 0.18461 0.7187 0.39754 0.0
C564 C 0.27129 0.68998 0.36514 0.0
O565 O 0.21187 0.64076 0.36397 0.0
O566 O 0.20063 0.68032 0.34851 0.0
O567 O 0.25492 0.70892 0.37248 0.0
O568 O 0.26317 0.66571 0.37009 0.0
C569 C 0.23672 0.66266 0.44008 0.0
O570 O 0.20974 0.72429 0.39367 0.0
O571 O 0.17927 0.69326 0.39943 0.0
In572 In 0.293 0.31025 0.39635 0.0
O573 O 0.27525 0.26736 0.40347 0.0
O574 O 0.31871 0.27264 0.40698 0.0
C575 C 0.25243 0.33742 0.37039 0.0
C576 C 0.294 0.33363 0.44658 0.0
C577 C 0.32421 0.30906 0.3508 0.0
O578 O 0.25011 0.31242 0.37762 0.0
O579 O 0.2748 0.34885 0.37719 0.0
O580 O 0.32893 0.32655 0.36972 0.0
O581 O 0.30435 0.29301 0.35529 0.0
C582 C 0.29861 0.25611 0.4066 0.0
O583 O 0.31575 0.33118 0.43235 0.0
O584 O 0.27252 0.32406 0.43557 0.0
In585 In 0.26667 0.34025 0.61324 0.0
O586 O 0.22809 0.31438 0.60668 0.0
O587 O 0.22339 0.35731 0.61548 0.0
C588 C 0.2948 0.29413 0.62618 0.0
C589 C 0.28212 0.35486 0.56137 0.0
C590 C 0.27286 0.36881 0.66069 0.0
O591 O 0.26948 0.2936 0.62006 0.0
O592 O 0.30576 0.31768 0.62529 0.0
O593 O 0.28561 0.37585 0.63905 0.0
O594 O 0.25742 0.34827 0.65788 0.0
C595 C 0.21183 0.33427 0.6116 0.0
O596 O 0.29724 0.34123 0.57738 0.0
O597 O 0.25976 0.36263 0.57199 0.0
In598 In 0.69805 0.27649 0.60047 0.0
O599 O 0.6737 0.28212 0.56061 0.0
O600 O 0.71245 0.30241 0.56457 0.0
C601 C 0.66568 0.24987 0.63649 0.0
C602 C 0.73179 0.23368 0.59047 0.0
C603 C 0.70385 0.32081 0.63315 0.0
O604 O 0.65557 0.2624 0.61585 0.0
O605 O 0.69154 0.25081 0.6384 0.0
O606 O 0.72345 0.3042 0.62855 0.0
O607 O 0.6818 0.31555 0.62043 0.0
C608 C 0.69162 0.29768 0.54977 0.0
O609 O 0.7406 0.25653 0.59956 0.0
O610 O 0.70636 0.23315 0.58502 0.0
In611 In 0.26741 0.69368 0.60349 0.0
O612 O 0.22739 0.7176 0.60987 0.0
O613 O 0.25911 0.73596 0.58559 0.0
C614 C 0.26714 0.65265 0.64088 0.0
C615 C 0.26121 0.66999 0.55396 0.0
C616 C 0.30844 0.72181 0.62759 0.0
O617 O 0.24799 0.67032 0.63938 0.0
O618 O 0.28544 0.65488 0.62258 0.0
O619 O 0.31274 0.70689 0.60657 0.0
O620 O 0.2839 0.72219 0.63603 0.0
C621 C 0.23561 0.73849 0.59646 0.0
O622 O 0.24233 0.67003 0.57185 0.0
O623 O 0.28343 0.6814 0.56138 0.0
C624 C 0.96804 0.20172 0.33532 0.0
C625 C 0.95385 0.18073 0.32136 0.0
H626 H 0.00536 0.22486 0.33879 0.0
C627 C 0.96791 0.16443 0.30206 0.0
H628 H 0.95748 0.21465 0.35017 0.0
C629 C 0.99508 0.17078 0.29494 0.0
C630 C 0.0086 0.19313 0.30747 0.0
H631 H 0.95723 0.14838 0.29078 0.0
H632 H 0.00503 0.15905 0.27876 0.0
C633 C 0.99533 0.20768 0.32865 0.0
C634 C 0.67012 0.97397 0.31812 0.0
C635 C 0.69623 0.96271 0.31253 0.0
H636 H 0.64215 0.00774 0.31081 0.0
C637 C 0.71407 0.9767 0.29459 0.0
H638 H 0.65591 0.96331 0.33164 0.0
C639 C 0.70573 0.00099 0.28177 0.0
C640 C 0.67972 0.01232 0.28725 0.0
H641 H 0.73412 0.96828 0.28952 0.0
H642 H 0.7199 0.01118 0.26783 0.0
C643 C 0.66214 -0.00095 0.30602 0.0
C644 C 0.01553 0.83425 0.26808 0.0
C645 C 0.02971 0.82166 0.28992 0.0
H646 H 0.97876 0.83442 0.24347 0.0
C647 C 0.01642 0.8016 0.30593 0.0
H648 H 0.02569 0.84938 0.25517 0.0
C649 C 0.98983 0.79312 0.29939 0.0
C650 C 0.97626 0.80414 0.27633 0.0
H651 H 0.02719 0.79143 0.32268 0.0
H652 H 0.98048 0.77692 0.3116 0.0
C653 C 0.98895 0.82538 0.26118 0.0
C654 C 0.3358 0.00988 0.28655 0.0
C655 C 0.32511 0.98804 0.3022 0.0
H656 H 0.33725 0.05359 0.28049 0.0
C657 C 0.30952 0.99396 0.32591 0.0
H658 H 0.34785 0.00584 0.2682 0.0
C659 C 0.30282 0.02121 0.33255 0.0
C660 C 0.31227 0.04297 0.31603 0.0
H661 H 0.30089 0.97748 0.33827 0.0
H662 H 0.28936 0.02517 0.34991 0.0
C663 C 0.32975 0.03716 0.29365 0.0
C664 C 0.00925 0.71249 0.79027 0.0
C665 C 0.99577 0.69436 0.77223 0.0
H666 H 0.04482 0.71997 0.81516 0.0
C667 C 0.00731 0.66832 0.76698 0.0
H668 H 0.0005 0.73252 0.79496 0.0
C669 C 0.03294 0.66127 0.77821 0.0
C670 C 0.04684 0.6798 0.79559 0.0
H671 H -0.00289 0.65394 0.75328 0.0
H672 H 0.04231 0.64177 0.77259 0.0
C673 C 0.03437 0.70511 0.80218 0.0
C674 C 0.15513 0.98764 0.69979 0.0
C675 C 0.17232 0.00365 0.68286 0.0
H676 H 0.13965 0.94728 0.70891 0.0
C677 C 0.18417 0.99155 0.65939 0.0
H678 H 0.14553 0.99655 0.71788 0.0
C679 C 0.18102 0.96334 0.65441 0.0
C680 C 0.16555 0.94689 0.67252 0.0
H681 H 0.19738 0.00344 0.64588 0.0
H682 H 0.19205 0.95409 0.63733 0.0
C683 C 0.15154 0.95951 0.6945 0.0
C684 C 0.00166 0.32678 0.71645 0.0
C685 C 0.01375 0.30226 0.72606 0.0
H686 H 0.96627 0.35347 0.71806 0.0
C687 C 0.00067 0.28718 0.74695 0.0
H688 H 0.01164 0.33886 0.70053 0.0
C689 C 0.97567 0.29615 0.75781 0.0
C690 C 0.96279 0.31992 0.74739 0.0
H691 H 0.00988 0.26848 0.75504 0.0
H692 H 0.96579 0.28365 0.77347 0.0
C693 C 0.97599 0.33526 0.72664 0.0
C694 C 0.85519 0.03153 0.68778 0.0
C695 C 0.84089 0.04212 0.66491 0.0
H696 H 0.86271 0.99617 0.71333 0.0
C697 C 0.82687 0.02389 0.64737 0.0
H698 H 0.86586 0.04523 0.70182 0.0
C699 C 0.8255 0.9958 0.65367 0.0
C700 C 0.83745 0.98566 0.67805 0.0
H701 H 0.81556 0.03164 0.62972 0.0
H702 H 0.81329 0.98246 0.64058 0.0
C703 C 0.85317 0.00353 0.69451 0.0
C704 C 0.21982 0.15588 0.00885 0.0
C705 C 0.20028 0.16724 0.02686 0.0
H706 H 0.23445 0.15371 0.96728 0.0
C707 C 0.17758 0.18157 0.01592 0.0
H708 H 0.23755 0.14482 0.01677 0.0
C709 C 0.17577 0.18665 0.98766 0.0
C710 C 0.19676 0.17767 0.96994 0.0
H711 H 0.16213 0.19041 0.02939 0.0
H712 H 0.1589 0.19915 0.98001 0.0
C713 C 0.21814 0.16118 0.98057 0.0
C714 C 0.23567 0.85242 0.97368 0.0
C715 C 0.26265 0.84597 0.96524 0.0
H716 H 0.20586 0.85052 0.0064 0.0
C717 C 0.28137 0.83566 0.98471 0.0
H718 H 0.22075 0.8602 0.95899 0.0
C719 C 0.27288 0.83004 0.01155 0.0
C720 C 0.24542 0.83449 0.01955 0.0
H721 H 0.3023 0.83058 0.97883 0.0
H722 H 0.28768 0.8211 0.02571 0.0
C723 C 0.22708 0.84666 0.0007 0.0
C724 C 0.77835 0.14091 0.98309 0.0
C725 C 0.79337 0.15654 0.96401 0.0
H726 H 0.77017 0.13336 0.02587 0.0
C727 C 0.81524 0.1731 0.97329 0.0
H728 H 0.76131 0.12814 0.97638 0.0
C729 C 0.82081 0.1755 0.00144 0.0
C730 C 0.80402 0.16202 0.02069 0.0
H731 H 0.82712 0.1853 0.95883 0.0
H732 H 0.83669 0.18968 0.00816 0.0
C733 C 0.78339 0.14395 0.01132 0.0
C734 C 0.74308 0.8356 0.98172 0.0
C735 C 0.7673 0.82229 0.97285 0.0
H736 H 0.71794 0.84703 0.01633 0.0
C737 C 0.78679 0.81388 0.99248 0.0
H738 H 0.72779 0.84245 0.96696 0.0
C739 C 0.78104 0.81631 0.02048 0.0
C740 C 0.7559 0.82753 0.02937 0.0
H741 H 0.80572 0.80379 0.98627 0.0
H742 H 0.7957 0.80804 0.0352 0.0
C743 C 0.73748 0.83835 0.0099 0.0
C744 C 0.53062 0.83137 0.71135 0.0
C745 C 0.54553 0.81311 0.69453 0.0
H746 H 0.49392 0.8379 0.73517 0.0
C747 C 0.53388 0.78751 0.68759 0.0
H748 H 0.53933 0.85108 0.71722 0.0
C749 C 0.50861 0.77957 0.69874 0.0
C750 C 0.49416 0.7974 0.71632 0.0
H751 H 0.5451 0.77285 0.67502 0.0
H752 H 0.50054 0.7593 0.69392 0.0
C753 C 0.50486 0.82375 0.72179 0.0
C754 C 0.35758 0.46207 0.81445 0.0
C755 C 0.34278 0.45152 0.837 0.0
H756 H 0.36514 0.4972 0.78865 0.0
C757 C 0.32816 0.46978 0.85403 0.0
H758 H 0.36874 0.44836 0.8008 0.0
C759 C 0.3265 0.49778 0.84735 0.0
C760 C 0.3388 0.50775 0.8231 0.0
H761 H 0.31644 0.46208 0.87141 0.0
H762 H 0.31372 0.51111 0.85992 0.0
C763 C 0.35529 0.48994 0.80733 0.0
C764 C 0.47423 0.16093 0.76203 0.0
C765 C 0.46196 0.1779 0.74196 0.0
H766 H 0.50876 0.15502 0.78927 0.0
C767 C 0.47528 0.20235 0.73404 0.0
H768 H 0.46413 0.14215 0.76872 0.0
C769 C 0.4998 0.21027 0.74666 0.0
C770 C 0.512 0.1935 0.76683 0.0
H771 H 0.46608 0.21609 0.71899 0.0
H772 H 0.50939 0.22946 0.74041 0.0
C773 C 0.49946 0.1684 0.77398 0.0
C774 C 0.65207 0.50643 0.78802 0.0
C775 C 0.66867 0.48985 0.80504 0.0
H776 H 0.63662 0.54705 0.77988 0.0
C777 C 0.67924 0.50102 0.82957 0.0
H778 H 0.64343 0.49825 0.76913 0.0
C779 C 0.67552 0.52895 0.83561 0.0
C780 C 0.66075 0.54605 0.81749 0.0
H781 H 0.69193 0.48867 0.8432 0.0
H782 H 0.68565 0.53753 0.85357 0.0
C783 C 0.64792 0.53429 0.79434 0.0
C784 C 0.45799 0.28988 0.16209 0.0
C785 C 0.44545 0.31213 0.17571 0.0
H786 H 0.49354 0.26399 0.15875 0.0
C787 C 0.46062 0.32737 0.19501 0.0
H788 H 0.4465 0.27769 0.14732 0.0
C789 C 0.48726 0.31901 0.20221 0.0
C790 C 0.49916 0.29567 0.18977 0.0
H791 H 0.45115 0.3443 0.20611 0.0
H792 H 0.49813 0.33018 0.2182 0.0
C793 C 0.48476 0.2819 0.16882 0.0
C794 C 0.76688 0.47885 0.19294 0.0
C795 C 0.78499 0.46136 0.17875 0.0
H796 H 0.76181 0.51693 0.21458 0.0
C797 C 0.81221 0.47006 0.17387 0.0
H798 H 0.74593 0.47251 0.19731 0.0
C799 C 0.82115 0.49589 0.18332 0.0
C800 C 0.80327 0.51259 0.19871 0.0
H801 H 0.82658 0.45676 0.16314 0.0
H802 H 0.84212 0.50241 0.1794 0.0
C803 C 0.77606 0.50403 0.20318 0.0
C804 C 0.50779 0.69428 0.19155 0.0
C805 C 0.52325 0.67595 0.2077 0.0
H806 H 0.46957 0.71535 0.18618 0.0
C807 C 0.51071 0.6624 0.22996 0.0
H808 H 0.51721 0.70509 0.17442 0.0
C809 C 0.48355 0.66885 0.23725 0.0
C810 C 0.46864 0.68854 0.22203 0.0
H811 H 0.52251 0.64853 0.24293 0.0
H812 H 0.47464 0.65932 0.25537 0.0
C813 C 0.48062 0.70029 0.19845 0.0
C814 C 0.15681 0.52527 0.17804 0.0
C815 C 0.18268 0.537 0.18375 0.0
H816 H 0.12971 0.49069 0.18483 0.0
C817 C 0.2008 0.52316 0.20156 0.0
H818 H 0.14236 0.53579 0.16463 0.0
C819 C 0.19309 0.49853 0.21403 0.0
C820 C 0.16741 0.48661 0.20833 0.0
H821 H 0.22067 0.53191 0.20677 0.0
H822 H 0.20753 0.48849 0.22783 0.0
C823 C 0.14947 0.49979 0.18977 0.0
C824 C 0.77482 0.65574 0.50849 0.0
C825 C 0.75606 0.64732 0.52875 0.0
H826 H 0.78056 0.67065 0.46756 0.0
C827 C 0.72809 0.64432 0.5217 0.0
H828 H 0.79647 0.65815 0.51333 0.0
C829 C 0.71879 0.65188 0.49536 0.0
C830 C 0.73739 0.6624 0.47585 0.0
H831 H 0.71316 0.63807 0.53706 0.0
H832 H 0.69697 0.65086 0.49081 0.0
C833 C 0.76561 0.66313 0.48232 0.0
C834 C 0.71154 0.33124 0.48249 0.0
C835 C 0.69424 0.31729 0.46404 0.0
H836 H 0.72428 0.3358 0.5245 0.0
C837 C 0.67327 0.30022 0.47444 0.0
H838 H 0.7279 0.34444 0.47499 0.0
C839 C 0.67108 0.29537 0.50271 0.0
C840 C 0.69005 0.30725 0.52097 0.0
H841 H 0.65954 0.28934 0.46059 0.0
H842 H 0.65571 0.28092 0.51001 0.0
C843 C 0.70957 0.32612 0.51078 0.0
C844 C 0.2239 0.65064 0.4885 0.0
C845 C 0.24415 0.65692 0.46888 0.0
H846 H 0.21354 0.64985 0.53145 0.0
C847 C 0.27112 0.66259 0.47766 0.0
H848 H 0.20296 0.64627 0.48218 0.0
C849 C 0.27722 0.66456 0.50563 0.0
C850 C 0.25637 0.66113 0.52531 0.0
H851 H 0.28717 0.66722 0.46284 0.0
H852 H 0.29782 0.67063 0.5117 0.0
C853 C 0.22997 0.65283 0.51664 0.0
C854 C 0.31302 0.34745 0.52072 0.0
C855 C 0.2875 0.35614 0.53143 0.0
H856 H 0.33534 0.33394 0.48495 0.0
C857 C 0.26569 0.36145 0.51318 0.0
H858 H 0.3302 0.34324 0.53436 0.0
C859 C 0.2685 0.35562 0.48516 0.0
C860 C 0.29332 0.34493 0.47477 0.0
H861 H 0.2458 0.36814 0.52079 0.0
H862 H 0.25079 0.35823 0.4718 0.0
C863 C 0.31599 0.34212 0.4925 0.0
C864 C 0.19547 0.18151 0.32918 0.0
C865 C 0.19822 0.15304 0.32443 0.0
H866 H 0.16902 0.21681 0.32776 0.0
C867 C 0.17478 0.13748 0.31789 0.0
H868 H 0.21322 0.19394 0.33454 0.0
C869 C 0.14944 0.15066 0.31376 0.0
C870 C 0.14719 0.17949 0.31648 0.0
H871 H 0.17638 0.1155 0.31415 0.0
H872 H 0.13201 0.13849 0.30697 0.0
C873 C 0.17013 0.1946 0.32543 0.0
C874 C 0.77247 0.15573 0.31709 0.0
C875 C 0.79693 0.14053 0.31378 0.0
H876 H 0.72863 0.15642 0.31256 0.0
C877 C 0.79543 0.1125 0.30695 0.0
H878 H 0.77315 0.17738 0.32266 0.0
C879 C 0.76991 0.10058 0.30088 0.0
C880 C 0.74562 0.11646 0.30199 0.0
H881 H 0.81402 0.10041 0.3043 0.0
H882 H 0.76937 0.0794 0.29378 0.0
C883 C 0.74698 0.14373 0.31146 0.0
C884 C 0.84268 0.8426 0.3024 0.0
C885 C 0.84303 0.81359 0.30183 0.0
H886 H 0.81858 0.87912 0.30895 0.0
C887 C 0.81976 0.79902 0.31086 0.0
H888 H 0.86041 0.85432 0.29561 0.0
C889 C 0.79576 0.81319 0.31802 0.0
C890 C 0.79481 0.84215 0.31672 0.0
H891 H 0.81945 0.77667 0.3106 0.0
H892 H 0.77758 0.80142 0.32341 0.0
C893 C 0.81879 0.8568 0.31003 0.0
C894 C 0.21502 0.90659 0.28918 0.0
C895 C 0.23771 0.89224 0.30028 0.0
H896 H 0.1714 0.90628 0.28158 0.0
C897 C 0.23303 0.86851 0.31614 0.0
H898 H 0.21806 0.92507 0.277 0.0
C899 C 0.20651 0.85779 0.31854 0.0
C900 C 0.18417 0.87083 0.30552 0.0
H901 H 0.25004 0.85713 0.32509 0.0
H902 H 0.20371 0.83834 0.32923 0.0
C903 C 0.18832 0.89601 0.29195 0.0
C904 C 0.12007 0.76868 0.74708 0.0
C905 C 0.13609 0.74459 0.74434 0.0
H906 H 0.11504 0.81124 0.73578 0.0
C907 C 0.15775 0.74418 0.72527 0.0
H908 H 0.10311 0.76945 0.76157 0.0
C909 C 0.16471 0.7681 0.71088 0.0
C910 C 0.14987 0.79269 0.715 0.0
H911 H 0.17038 0.72591 0.72271 0.0
H912 H 0.18245 0.76765 0.69734 0.0
C913 C 0.12679 0.79254 0.73232 0.0
C914 C 0.16186 0.16981 0.67228 0.0
C915 C 0.14853 0.14591 0.68169 0.0
H916 H 0.1601 0.21375 0.66816 0.0
C917 C 0.12086 0.14769 0.69015 0.0
H918 H 0.18316 0.16913 0.66567 0.0
C919 C 0.10746 0.17329 0.6911 0.0
C920 C 0.12178 0.19744 0.68417 0.0
H921 H 0.11008 0.12955 0.69749 0.0
H922 H 0.0867 0.17439 0.6992 0.0
C923 C 0.14871 0.19538 0.67382 0.0
C924 C 0.84253 0.24936 0.69548 0.0
C925 C 0.86824 0.2525 0.70824 0.0
H926 H 0.81382 0.22125 0.67738 0.0
C927 C 0.88669 0.23006 0.70869 0.0
H928 H 0.82794 0.26628 0.69486 0.0
C929 C 0.87873 0.20432 0.6984 0.0
C930 C 0.85207 0.20065 0.68801 0.0
H931 H 0.90672 0.23203 0.71833 0.0
H932 H 0.89267 0.18696 0.70036 0.0
C933 C 0.83443 0.22356 0.68566 0.0
C934 C 0.90509 0.81869 0.71512 0.0
C935 C 0.89296 0.79359 0.70734 0.0
H936 H 0.90034 0.86264 0.71764 0.0
C937 C 0.86834 0.794 0.69212 0.0
H938 H 0.92404 0.8189 0.72691 0.0
C939 C 0.85507 0.81892 0.68638 0.0
C940 C 0.86588 0.84389 0.69624 0.0
H941 H 0.85867 0.77491 0.68569 0.0
H942 H 0.83538 0.81838 0.67586 0.0
C943 C 0.8915 0.84367 0.70983 0.0
C944 C 0.25355 0.11411 0.21539 0.0
C945 C 0.27213 0.13029 0.23075 0.0
H946 H 0.23164 0.10923 0.17721 0.0
C947 C 0.28562 0.15228 0.21773 0.0
H948 H 0.24297 0.09687 0.22486 0.0
C949 C 0.27912 0.15928 0.19059 0.0
C950 C 0.25914 0.14432 0.17584 0.0
H951 H 0.30016 0.16499 0.22893 0.0
H952 H 0.2888 0.17729 0.18157 0.0
C953 C 0.24717 0.12102 0.18807 0.0
C954 C 0.86283 0.17117 0.18104 0.0
C955 C 0.85155 0.19545 0.17004 0.0
H956 H 0.87808 0.15083 0.21721 0.0
C957 C 0.85082 0.21938 0.18641 0.0
H958 H 0.86356 0.15244 0.16888 0.0
C959 C 0.85905 0.21852 0.21396 0.0
C960 C 0.86807 0.19366 0.2257 0.0
H961 H 0.84242 0.23848 0.17837 0.0
H962 H 0.85682 0.23693 0.22641 0.0
C963 C 0.87098 0.17026 0.20873 0.0
C964 C 0.71919 0.88435 0.21698 0.0
C965 C 0.70463 0.86854 0.23648 0.0
H966 H 0.73305 0.88771 0.17512 0.0
C967 C 0.68948 0.84563 0.22753 0.0
H968 H 0.73087 0.9023 0.22331 0.0
C969 C 0.69083 0.8373 0.20002 0.0
C970 C 0.70712 0.85188 0.18096 0.0
H971 H 0.67797 0.83317 0.24205 0.0
H972 H 0.68029 0.81854 0.19399 0.0
C973 C 0.72031 0.87616 0.18937 0.0
C974 C 0.13474 0.83426 0.19019 0.0
C975 C 0.13507 0.8119 0.20877 0.0
H976 H 0.1495 0.8504 0.15163 0.0
C977 C 0.14761 0.78711 0.20078 0.0
H978 H 0.12509 0.85362 0.19581 0.0
C979 C 0.16148 0.78536 0.17572 0.0
C980 C 0.16298 0.80831 0.15806 0.0
H981 H 0.14799 0.76946 0.2145 0.0
H982 H 0.17219 0.76637 0.17077 0.0
C983 C 0.14857 0.83244 0.16489 0.0
C984 C 0.25507 0.86098 0.7574 0.0
C985 C 0.2301 0.87535 0.755 0.0
H986 H 0.28476 0.84328 0.7848 0.0
C987 C 0.21805 0.88682 0.77877 0.0
H988 H 0.26482 0.85195 0.73946 0.0
C989 C 0.22969 0.88218 0.80477 0.0
C990 C 0.25324 0.8656 0.80728 0.0
H991 H 0.19883 0.89812 0.77744 0.0
H992 H 0.21919 0.88981 0.82293 0.0
C993 C 0.2664 0.85594 0.78335 0.0
C994 C 0.15012 0.27886 0.79385 0.0
C995 C 0.1239 0.26822 0.78809 0.0
H996 H 0.18515 0.27769 0.82052 0.0
C997 C 0.11122 0.25064 0.80738 0.0
H998 H 0.16033 0.29252 0.77944 0.0
C999 C 0.12537 0.2423 0.8311 0.0
C1000 C 0.15247 0.25121 0.83564 0.0
H1001 H 0.09091 0.24227 0.8035 0.0
H1002 H 0.11579 0.22758 0.8449 0.0
C1003 C 0.16433 0.27031 0.81735 0.0
C1004 C 0.80993 0.11019 0.77665 0.0
C1005 C 0.79069 0.11474 0.75541 0.0
H1006 H 0.81856 0.11331 0.81991 0.0
C1007 C 0.76366 0.12224 0.7623 0.0
H1008 H 0.8309 0.10418 0.77192 0.0
C1009 C 0.75668 0.12754 0.78971 0.0
C1010 C 0.77654 0.12519 0.81072 0.0
H1011 H 0.74837 0.12575 0.74641 0.0
H1012 H 0.73613 0.13498 0.79426 0.0
C1013 C 0.80287 0.11527 0.80414 0.0
C1014 C 0.86212 0.75742 0.85174 0.0
C1015 C 0.83441 0.74939 0.85037 0.0
H1016 H 0.90193 0.75515 0.83284 0.0
C1017 C 0.82634 0.72962 0.83079 0.0
H1018 H 0.86886 0.7726 0.86667 0.0
C1019 C 0.84523 0.71943 0.81167 0.0
C1020 C 0.87244 0.7291 0.8116 0.0
H1021 H 0.80511 0.72286 0.82949 0.0
H1022 H 0.83808 0.70524 0.79597 0.0
C1023 C 0.88099 0.74746 0.83236 0.0
C1024 C 0.11984 0.18633 0.18697 0.0
C1025 C 0.12141 0.21131 0.20147 0.0
H1026 H 0.13707 0.16144 0.15476 0.0
C1027 C 0.1393 0.23206 0.1922 0.0
H1028 H 0.10618 0.17004 0.1938 0.0
C1029 C 0.15658 0.22736 0.16978 0.0
C1030 C 0.1566 0.20164 0.15653 0.0
H1031 H 0.14066 0.25162 0.20292 0.0
H1032 H 0.17098 0.24336 0.16386 0.0
C1033 C 0.13752 0.18143 0.16473 0.0
C1034 C 0.19529 0.76698 0.87979 0.0
C1035 C 0.22353 0.76428 0.87386 0.0
H1036 H 0.15459 0.75108 0.87311 0.0
C1037 C 0.23276 0.74108 0.85926 0.0
H1038 H 0.18768 0.78464 0.89116 0.0
C1039 C 0.21385 0.72219 0.8487 0.0
C1040 C 0.18547 0.72593 0.85297 0.0
H1041 H 0.25439 0.73844 0.85445 0.0
H1042 H 0.22136 0.70533 0.8361 0.0
C1043 C 0.17638 0.74777 0.86959 0.0
C1044 C 0.23162 0.14996 0.81394 0.0
C1045 C 0.21104 0.14784 0.83411 0.0
H1046 H 0.24541 0.13742 0.77402 0.0
C1047 C 0.18974 0.12848 0.83056 0.0
H1048 H 0.24826 0.16468 0.81609 0.0
C1049 C 0.18824 0.11262 0.8065 0.0
C1050 C 0.20777 0.11626 0.78552 0.0
H1051 H 0.17362 0.1264 0.84585 0.0
H1052 H 0.17106 0.09866 0.8037 0.0
C1053 C 0.22988 0.13447 0.78978 0.0
C1054 C 0.79343 0.25442 0.83663 0.0
C1055 C 0.80743 0.23402 0.85165 0.0
H1056 H 0.79688 0.2885 0.80876 0.0
C1057 C 0.83637 0.23436 0.85246 0.0
H1058 H 0.77114 0.25462 0.83568 0.0
C1059 C 0.8511 0.25406 0.83747 0.0
C1060 C 0.83709 0.27332 0.82103 0.0
H1061 H 0.84764 0.21891 0.86404 0.0
H1062 H 0.8734 0.25326 0.83758 0.0
C1063 C 0.80815 0.27375 0.82122 0.0
C1064 C 0.80421 0.88599 0.80787 0.0
C1065 C 0.78798 0.88164 0.78435 0.0
H1066 H 0.81213 0.87417 0.84974 0.0
C1067 C 0.76466 0.86459 0.78624 0.0
H1068 H 0.82226 0.89907 0.80692 0.0
C1069 C 0.75861 0.85073 0.81069 0.0
C1070 C 0.77602 0.85332 0.83363 0.0
H1071 H 0.7516 0.86115 0.76844 0.0
H1072 H 0.74123 0.83673 0.81106 0.0
C1073 C 0.79838 0.87175 0.83232 0.0
C1074 C 0.82575 0.81165 0.15357 0.0
C1075 C 0.80504 0.79175 0.1497 0.0
H1076 H 0.8626 0.82267 0.17539 0.0
C1077 C 0.80725 0.76619 0.16309 0.0
H1078 H 0.82458 0.83149 0.14333 0.0
C1079 C 0.82873 0.76133 0.18151 0.0
C1080 C 0.84858 0.78177 0.18658 0.0
H1081 H 0.79167 0.75043 0.16041 0.0
H1082 H 0.82925 0.74188 0.19255 0.0
C1083 C 0.84753 0.8066 0.17177 0.0
C1084 C 0.29026 0.83437 0.16835 0.0
C1085 C 0.27366 0.84905 0.14976 0.0
H1086 H 0.31325 0.8355 0.20594 0.0
C1087 C 0.27027 0.87767 0.15335 0.0
H1088 H 0.2933 0.81233 0.1661 0.0
C1089 C 0.28196 0.89105 0.17609 0.0
C1090 C 0.29685 0.87588 0.19573 0.0
H1091 H 0.25763 0.88952 0.13924 0.0
H1092 H 0.27803 0.91284 0.17911 0.0
C1093 C 0.30159 0.84763 0.19122 0.0
C1094 C 0.70815 0.15308 0.18156 0.0
C1095 C 0.71139 0.12479 0.18696 0.0
H1096 H 0.72159 0.18796 0.15814 0.0
C1097 C 0.72964 0.10924 0.17079 0.0
H1098 H 0.69407 0.16548 0.19368 0.0
C1099 C 0.74576 0.12222 0.15072 0.0
C1100 C 0.74342 0.15079 0.14622 0.0
H1101 H 0.73254 0.08741 0.17464 0.0
H1102 H 0.76067 0.11007 0.13936 0.0
C1103 C 0.72384 0.16592 0.16118 0.0
C1104 C 0.62369 0.70133 0.76107 0.0
C1105 C 0.64661 0.7009 0.77862 0.0
H1106 H 0.60053 0.72471 0.73156 0.0
C1107 C 0.6616 0.72533 0.78297 0.0
H1108 H 0.61186 0.68275 0.75741 0.0
C1109 C 0.65496 0.74936 0.76857 0.0
C1110 C 0.63352 0.74919 0.74924 0.0
H1111 H 0.67924 0.72554 0.79668 0.0
H1112 H 0.66773 0.76748 0.7713 0.0
C1113 C 0.61733 0.72529 0.74627 0.0
C1114 C 0.39177 0.64732 0.78354 0.0
C1115 C 0.36693 0.6477 0.7985 0.0
H1116 H 0.42349 0.67131 0.7641 0.0
C1117 C 0.35689 0.67301 0.80837 0.0
H1118 H 0.39999 0.62808 0.7757 0.0
C1119 C 0.37003 0.69763 0.80132 0.0
C1120 C 0.39375 0.69741 0.78475 0.0
H1121 H 0.33783 0.67401 0.81992 0.0
H1122 H 0.36089 0.71697 0.80782 0.0
C1123 C 0.40524 0.67201 0.77692 0.0
C1124 C 0.38561 0.26638 0.78144 0.0
C1125 C 0.36674 0.2444 0.77987 0.0
H1126 H 0.39232 0.30854 0.79321 0.0
C1127 C 0.34078 0.24722 0.79218 0.0
H1128 H 0.40585 0.26464 0.7722 0.0
C1129 C 0.33298 0.27238 0.80374 0.0
C1130 C 0.35117 0.29495 0.8036 0.0
H1131 H 0.32587 0.23063 0.79126 0.0
H1132 H 0.31227 0.27453 0.81178 0.0
C1133 C 0.37795 0.29145 0.79347 0.0
C1134 C 0.64912 0.29873 0.81583 0.0
C1135 C 0.62166 0.29651 0.807 0.0
H1136 H 0.68391 0.32512 0.82167 0.0
C1137 C 0.60697 0.32054 0.8003 0.0
H1138 H 0.66082 0.28047 0.82131 0.0
C1139 C 0.62035 0.34614 0.80008 0.0
C1140 C 0.6484 0.34806 0.80709 0.0
H1141 H 0.58579 0.31933 0.79339 0.0
H1142 H 0.60914 0.36415 0.79303 0.0
C1143 C 0.66229 0.32431 0.81617 0.0
C1144 C 0.68314 0.31246 0.16411 0.0
C1145 C 0.68353 0.34124 0.16756 0.0
H1146 H 0.65946 0.27535 0.16664 0.0
C1147 C 0.65878 0.35525 0.17272 0.0
H1148 H 0.70197 0.30123 0.15983 0.0
C1149 C 0.63447 0.34038 0.17696 0.0
C1150 C 0.63455 0.31138 0.1756 0.0
H1151 H 0.65858 0.37744 0.17543 0.0
H1152 H 0.61599 0.35146 0.18282 0.0
C1153 C 0.65879 0.29766 0.16784 0.0
C1154 C 0.70924 0.59822 0.20028 0.0
C1155 C 0.73258 0.61416 0.19375 0.0
H1156 H 0.66532 0.59768 0.20556 0.0
C1157 C 0.72898 0.64095 0.18346 0.0
H1158 H 0.71149 0.57741 0.20812 0.0
C1159 C 0.7027 0.65255 0.18238 0.0
C1160 C 0.6796 0.63741 0.19112 0.0
H1161 H 0.74657 0.65366 0.17825 0.0
H1162 H 0.70062 0.67392 0.1761 0.0
C1163 C 0.68284 0.60973 0.19876 0.0
C1164 C 0.28452 0.68348 0.18527 0.0
C1165 C 0.28271 0.65455 0.18508 0.0
H1166 H 0.30955 0.71879 0.19375 0.0
C1167 C 0.30636 0.6388 0.19044 0.0
H1168 H 0.2666 0.6961 0.18088 0.0
C1169 C 0.3309 0.6518 0.19806 0.0
C1170 C 0.33221 0.68073 0.19995 0.0
H1171 H 0.3055 0.61646 0.19033 0.0
H1172 H 0.34845 0.63918 0.2037 0.0
C1173 C 0.30914 0.69648 0.19243 0.0
C1174 C 0.26524 0.34805 0.17323 0.0
C1175 C 0.28988 0.36199 0.17935 0.0
H1176 H 0.22129 0.34786 0.17636 0.0
C1177 C 0.28871 0.38885 0.18992 0.0
H1178 H 0.26569 0.32732 0.16488 0.0
C1179 C 0.26324 0.40048 0.19688 0.0
C1180 C 0.2387 0.3855 0.19294 0.0
H1181 H 0.30745 0.39991 0.19491 0.0
H1182 H 0.2629 0.42047 0.20684 0.0
C1183 C 0.23984 0.3598 0.17976 0.0
C1184 C 0.71495 0.60591 0.71409 0.0
C1185 C 0.72684 0.6174 0.73793 0.0
H1186 H 0.71648 0.60273 0.66997 0.0
C1187 C 0.75191 0.63156 0.73574 0.0
H1188 H 0.69566 0.59475 0.71527 0.0
C1189 C 0.76351 0.63642 0.70989 0.0
C1190 C 0.75051 0.62675 0.68588 0.0
H1191 H 0.76154 0.6406 0.75375 0.0
H1192 H 0.78193 0.64895 0.70858 0.0
C1193 C 0.72687 0.61035 0.68821 0.0
C1194 C 0.37743 0.73862 0.65923 0.0
C1195 C 0.36975 0.75818 0.67924 0.0
H1196 H 0.36392 0.71189 0.62666 0.0
C1197 C 0.34265 0.76821 0.67948 0.0
H1198 H 0.39826 0.73061 0.65853 0.0
C1199 C 0.32305 0.75729 0.66153 0.0
C1200 C 0.33028 0.73641 0.64277 0.0
H1201 H 0.33615 0.78331 0.69461 0.0
H1202 H 0.30195 0.76442 0.66311 0.0
C1203 C 0.35784 0.72792 0.64098 0.0
C1204 C 0.31085 0.39359 0.72347 0.0
C1205 C 0.29163 0.38722 0.74426 0.0
H1206 H 0.3197 0.39337 0.6801 0.0
C1207 C 0.26472 0.38 0.73672 0.0
H1208 H 0.33173 0.39945 0.72873 0.0
C1209 C 0.25796 0.37643 0.70899 0.0
C1210 C 0.27788 0.38035 0.68832 0.0
H1211 H 0.24944 0.37515 0.75225 0.0
H1212 H 0.2376 0.36887 0.70382 0.0
C1213 C 0.30397 0.39032 0.69563 0.0
C1214 C 0.62171 0.2457 0.66296 0.0
C1215 C 0.64904 0.23742 0.65861 0.0
H1216 H 0.58754 0.2461 0.69086 0.0
C1217 C 0.66172 0.21967 0.67775 0.0
H1218 H 0.61149 0.25937 0.64853 0.0
C1219 C 0.64802 0.21191 0.7018 0.0
C1220 C 0.62152 0.22203 0.70727 0.0
H1221 H 0.68275 0.21279 0.67474 0.0
H1222 H 0.65882 0.19936 0.71682 0.0
C1223 C 0.60809 0.23817 0.68722 0.0
C1224 C 0.74127 0.38226 0.27831 0.0
C1225 C 0.76012 0.368 0.26144 0.0
H1226 H 0.72063 0.38382 0.31743 0.0
C1227 C 0.77547 0.34626 0.27276 0.0
H1228 H 0.72926 0.39925 0.27014 0.0
C1229 C 0.77047 0.33748 0.2997 0.0
C1230 C 0.7502 0.3504 0.3159 0.0
H1231 H 0.79024 0.33501 0.26035 0.0
H1232 H 0.78155 0.31963 0.30737 0.0
C1233 C 0.73642 0.37358 0.30541 0.0
C1234 C 0.62593 0.67055 0.30821 0.0
C1235 C 0.62592 0.69315 0.28994 0.0
H1236 H 0.64066 0.65416 0.34667 0.0
C1237 C 0.63759 0.71816 0.29851 0.0
H1238 H 0.61691 0.65103 0.30218 0.0
C1239 C 0.65113 0.71987 0.32381 0.0
C1240 C 0.6531 0.69667 0.34112 0.0
H1241 H 0.63771 0.73599 0.28502 0.0
H1242 H 0.66135 0.739 0.32916 0.0
C1243 C 0.63937 0.67233 0.33372 0.0
C1244 C 0.20441 0.61811 0.30861 0.0
C1245 C 0.19308 0.6431 0.3177 0.0
H1246 H 0.21325 0.59233 0.27392 0.0
C1247 C 0.17787 0.65938 0.29907 0.0
H1248 H 0.21623 0.6052 0.32251 0.0
C1249 C 0.17604 0.652 0.27129 0.0
C1250 C 0.18964 0.62837 0.26169 0.0
H1251 H 0.16875 0.67871 0.30562 0.0
H1252 H 0.16563 0.66577 0.25708 0.0
C1253 C 0.20282 0.61087 0.28076 0.0
C1254 C 0.35157 0.33148 0.3131 0.0
C1255 C 0.33869 0.30807 0.32413 0.0
H1256 H 0.36857 0.35041 0.27695 0.0
C1257 C 0.33636 0.28418 0.30785 0.0
H1258 H 0.35355 0.35014 0.32521 0.0
C1259 C 0.34489 0.28427 0.28044 0.0
C1260 C 0.35583 0.30829 0.26868 0.0
H1261 H 0.32674 0.26571 0.31596 0.0
H1262 H 0.34161 0.26593 0.26811 0.0
C1263 C 0.36003 0.33162 0.28548 0.0
C1264 C 0.69475 0.7281 0.61294 0.0
C1265 C 0.7228 0.72955 0.62006 0.0
H1266 H 0.65436 0.74511 0.61871 0.0
C1267 C 0.73219 0.75178 0.63598 0.0
H1268 H 0.68703 0.7112 0.60053 0.0
C1269 C 0.71349 0.77086 0.64663 0.0
C1270 C 0.68519 0.76829 0.64112 0.0
H1271 H 0.7537 0.75342 0.64173 0.0
H1272 H 0.72103 0.78689 0.66023 0.0
C1273 C 0.67608 0.7475 0.62322 0.0
C1274 C 0.63154 0.30326 0.3292 0.0
C1275 C 0.65319 0.28472 0.33463 0.0
H1276 H 0.59745 0.31343 0.30286 0.0
C1277 C 0.65533 0.26046 0.31901 0.0
H1278 H 0.62939 0.32208 0.34104 0.0
C1279 C 0.63742 0.25579 0.29708 0.0
C1280 C 0.61677 0.27505 0.29064 0.0
H1281 H 0.67176 0.24578 0.32276 0.0
H1282 H 0.64033 0.23751 0.28455 0.0
C1283 C 0.61327 0.29832 0.30745 0.0
C1284 C 0.79031 0.65685 0.30327 0.0
C1285 C 0.78778 0.62813 0.3003 0.0
H1286 H 0.78018 0.69252 0.32718 0.0
C1287 C 0.77477 0.61281 0.32108 0.0
H1288 H 0.80045 0.66911 0.28758 0.0
C1289 C 0.76283 0.62628 0.34359 0.0
C1290 C 0.76418 0.65517 0.34583 0.0
H1291 H 0.77256 0.59065 0.31922 0.0
H1292 H 0.75174 0.61417 0.35872 0.0
C1293 C 0.77881 0.67024 0.32597 0.0
C1294 C 0.31522 0.6743 0.34309 0.0
C1295 C 0.29696 0.69574 0.35005 0.0
H1296 H 0.35071 0.66234 0.31954 0.0
C1297 C 0.30235 0.72258 0.3407 0.0
H1298 H 0.3116 0.65343 0.35021 0.0
C1299 C 0.32448 0.72757 0.32314 0.0
C1300 C 0.34182 0.70589 0.31489 0.0
H1301 H 0.28875 0.73954 0.34587 0.0
H1302 H 0.32739 0.74825 0.31515 0.0
C1303 C 0.33766 0.67939 0.32574 0.0
C1304 C 0.21416 0.33516 0.33627 0.0
C1305 C 0.23246 0.3511 0.35199 0.0
H1306 H 0.18607 0.33428 0.30227 0.0
C1307 C 0.2338 0.37973 0.34744 0.0
H1308 H 0.21274 0.31306 0.33929 0.0
C1309 C 0.21816 0.39196 0.32649 0.0
C1310 C 0.20147 0.37561 0.30947 0.0
H1311 H 0.24772 0.39249 0.35935 0.0
H1312 H 0.22038 0.41386 0.3226 0.0
C1313 C 0.19902 0.34727 0.315 0.0
C1314 C 0.35329 0.24909 0.65082 0.0
C1315 C 0.3389 0.22824 0.66476 0.0
H1316 H 0.35036 0.28667 0.6277 0.0
C1317 C 0.31003 0.22735 0.66294 0.0
H1318 H 0.37554 0.25027 0.65203 0.0
C1319 C 0.29566 0.24784 0.64864 0.0
C1320 C 0.30994 0.26986 0.63649 0.0
H1321 H 0.29849 0.2114 0.67348 0.0
H1322 H 0.27335 0.24733 0.64855 0.0
C1323 C 0.33889 0.26993 0.63704 0.0
C1324 C 0.72716 0.34236 0.67348 0.0
C1325 C 0.70522 0.34227 0.65467 0.0
H1326 H 0.74275 0.35773 0.7117 0.0
C1327 C 0.68311 0.36066 0.65864 0.0
H1328 H 0.74447 0.32847 0.67095 0.0
C1329 C 0.68225 0.37769 0.68193 0.0
C1330 C 0.70327 0.3762 0.70171 0.0
H1331 H 0.66594 0.36106 0.64438 0.0
H1332 H 0.66447 0.39081 0.68521 0.0
C1333 C 0.72609 0.35902 0.69687 0.0
C1334 C 0.29947 0.60182 0.69043 0.0
C1335 C 0.28491 0.60787 0.71465 0.0
H1336 H 0.3051 0.6114 0.64764 0.0
C1337 C 0.26199 0.62555 0.71333 0.0
H1338 H 0.31717 0.5882 0.69094 0.0
C1339 C 0.2548 0.63843 0.68863 0.0
C1340 C 0.27068 0.6342 0.66486 0.0
H1341 H 0.25017 0.63026 0.73169 0.0
H1342 H 0.23786 0.65299 0.68863 0.0
C1343 C 0.29253 0.61508 0.66571 0.0
C1344 C 0.09692 0.35113 0.27725 0.0
C1345 C 0.10056 0.35785 0.24925 0.0
H1346 H 0.08635 0.31966 0.30648 0.0
C1347 C 0.09066 0.3396 0.2291 0.0
H1348 H 0.10448 0.36471 0.29328 0.0
C1349 C 0.07972 0.31401 0.23674 0.0
C1350 C 0.07916 0.30599 0.26462 0.0
H1351 H 0.09325 0.34422 0.2074 0.0
H1352 H 0.07413 0.29957 0.22065 0.0
C1353 C 0.08664 0.32526 0.28486 0.0
C1354 C 0.5991 0.13902 0.21638 0.0
C1355 C 0.60403 0.13316 0.24437 0.0
H1356 H 0.58423 0.16862 0.18705 0.0
C1357 C 0.59204 0.15013 0.26451 0.0
H1358 H 0.60811 0.12634 0.20036 0.0
C1359 C 0.57782 0.17405 0.25683 0.0
C1360 C 0.57596 0.18171 0.2289 0.0
H1361 H 0.59546 0.14607 0.28621 0.0
H1362 H 0.57071 0.18783 0.2729 0.0
C1363 C 0.58546 0.16328 0.20871 0.0
C1364 C 0.88732 0.65558 0.20585 0.0
C1365 C 0.88026 0.63721 0.22709 0.0
H1366 H 0.9031 0.69545 0.19547 0.0
C1367 C 0.88885 0.64311 0.25416 0.0
H1368 H 0.881 0.65154 0.18481 0.0
C1369 C 0.90087 0.66856 0.26041 0.0
C1370 C 0.90517 0.68817 0.23956 0.0
H1371 H 0.88369 0.62938 0.27101 0.0
H1372 H 0.90479 0.67371 0.28178 0.0
C1373 C 0.9 0.68074 0.21201 0.0
C1374 C 0.39597 0.80924 0.29028 0.0
C1375 C 0.40169 0.80154 0.26293 0.0
H1376 H 0.37906 0.84024 0.31689 0.0
C1377 C 0.40053 0.82162 0.24213 0.0
H1378 H 0.39664 0.79412 0.30673 0.0
C1379 C 0.39124 0.84826 0.24813 0.0
C1380 C 0.38218 0.85493 0.27486 0.0
H1381 H 0.40491 0.81621 0.22091 0.0
H1382 H 0.38849 0.86264 0.23123 0.0
C1383 C 0.38593 0.83566 0.29615 0.0
C1384 C 0.18534 0.59628 0.79085 0.0
C1385 C 0.17698 0.61275 0.81309 0.0
H1386 H 0.21774 0.57232 0.77304 0.0
C1387 C 0.19345 0.61365 0.83694 0.0
H1388 H 0.17303 0.59529 0.77224 0.0
C1389 C 0.21942 0.60113 0.83716 0.0
C1390 C 0.22892 0.58693 0.81382 0.0
H1391 H 0.18757 0.62634 0.85436 0.0
H1392 H 0.23282 0.60429 0.85474 0.0
C1393 C 0.21097 0.58313 0.79137 0.0
C1394 C 0.32261 0.10899 0.68372 0.0
C1395 C 0.33428 0.11064 0.71021 0.0
H1396 H 0.28749 0.09702 0.65974 0.0
C1397 C 0.32204 0.09591 0.73189 0.0
H1398 H 0.33158 0.12019 0.6666 0.0
C1399 C 0.29709 0.08213 0.72779 0.0
C1400 C 0.28367 0.08346 0.70211 0.0
H1401 H 0.33064 0.09677 0.75248 0.0
H1402 H 0.28709 0.07279 0.74544 0.0
C1403 C 0.29732 0.09576 0.67976 0.0
C1404 C 0.79419 0.41425 0.75541 0.0
C1405 C 0.78169 0.41378 0.78157 0.0
H1406 H 0.82752 0.39965 0.73037 0.0
C1407 C 0.79657 0.40321 0.80403 0.0
H1408 H 0.78321 0.42224 0.73767 0.0
C1409 C 0.82226 0.3908 0.79991 0.0
C1410 C 0.83314 0.38819 0.77316 0.0
H1411 H 0.78747 0.40266 0.82442 0.0
H1412 H 0.83224 0.38092 0.8173 0.0
C1413 C 0.81957 0.40127 0.75118 0.0
C1414 C 0.7104 0.90927 0.70736 0.0
C1415 C 0.72858 0.90637 0.68497 0.0
H1416 H 0.67209 0.89673 0.72534 0.0
C1417 C 0.7192 0.89352 0.66082 0.0
H1418 H 0.71706 0.91908 0.72628 0.0
C1419 C 0.69311 0.88133 0.66007 0.0
C1420 C 0.67636 0.88123 0.68373 0.0
H1421 H 0.73276 0.8911 0.64325 0.0
H1422 H 0.68732 0.86963 0.64195 0.0
C1423 C 0.68461 0.89649 0.70686 0.0
C1424 C 0.32573 0.21759 0.38647 0.0
C1425 C 0.3026 0.22636 0.4016 0.0
H1426 H 0.34259 0.18659 0.35979 0.0
C1427 C 0.28102 0.20775 0.40628 0.0
H1428 H 0.34258 0.23163 0.38233 0.0
C1429 C 0.28147 0.18164 0.39404 0.0
C1430 C 0.30307 0.17417 0.3762 0.0
H1431 H 0.26295 0.21407 0.41776 0.0
H1432 H 0.26359 0.16848 0.39636 0.0
C1433 C 0.32575 0.19184 0.37348 0.0
C1434 C 0.81327 0.21857 0.3848 0.0
C1435 C 0.83498 0.23217 0.37132 0.0
H1436 H 0.77321 0.22268 0.40288 0.0
C1437 C 0.83589 0.26107 0.37142 0.0
H1438 H 0.81204 0.19624 0.3848 0.0
C1439 C 0.81404 0.27617 0.38247 0.0
C1440 C 0.79066 0.26248 0.39269 0.0
H1441 H 0.85243 0.27193 0.3611 0.0
H1442 H 0.81424 0.29842 0.38033 0.0
C1443 C 0.79101 0.23364 0.39507 0.0
C1444 C 0.67776 0.8165 0.38823 0.0
C1445 C 0.70092 0.83377 0.38701 0.0
H1446 H 0.66231 0.77651 0.39877 0.0
C1447 C 0.72516 0.82572 0.40075 0.0
H1448 H 0.65886 0.82221 0.37778 0.0
C1449 C 0.72741 0.79927 0.41202 0.0
C1450 C 0.70517 0.7809 0.41055 0.0
H1451 H 0.7434 0.83855 0.40008 0.0
H1452 H 0.74719 0.79244 0.41983 0.0
C1453 C 0.67976 0.79036 0.4003 0.0
C1454 C 0.13917 0.73 0.37733 0.0
C1455 C 0.16307 0.73905 0.39095 0.0
H1456 H 0.10748 0.74037 0.34835 0.0
C1457 C 0.16923 0.76736 0.39135 0.0
H1458 H 0.13398 0.70827 0.37658 0.0
C1459 C 0.1535 0.78584 0.37576 0.0
C1460 C 0.13201 0.77599 0.35911 0.0
H1461 H 0.18758 0.7748 0.40165 0.0
H1462 H 0.16005 0.80717 0.37438 0.0
C1463 C 0.12405 0.74829 0.36106 0.0
C1464 C 0.23768 0.78979 0.59563 0.0
C1465 C 0.22194 0.76561 0.59856 0.0
H1466 H 0.2412 0.83276 0.60544 0.0
C1467 C 0.19478 0.76765 0.60819 0.0
H1468 H 0.25871 0.78884 0.58822 0.0
C1469 C 0.18448 0.79302 0.61724 0.0
C1470 C 0.20151 0.8165 0.6175 0.0
H1471 H 0.18219 0.74935 0.61054 0.0
H1472 H 0.16427 0.79354 0.62669 0.0
C1473 C 0.22768 0.81498 0.6054 0.0
C1474 C 0.16913 0.34889 0.63592 0.0
C1475 C 0.18263 0.32978 0.61878 0.0
H1476 H 0.13658 0.35548 0.665 0.0
C1477 C 0.16989 0.30439 0.61322 0.0
H1478 H 0.17842 0.36866 0.64058 0.0
C1479 C 0.14548 0.29716 0.62673 0.0
C1480 C 0.13391 0.31498 0.64644 0.0
H1481 H 0.17981 0.28933 0.60003 0.0
H1482 H 0.13729 0.27659 0.62376 0.0
C1483 C 0.14516 0.34139 0.64994 0.0
C1484 C 0.74977 0.16013 0.60672 0.0
C1485 C 0.77821 0.16223 0.61136 0.0
H1486 H 0.71276 0.18121 0.59533 0.0
C1487 C 0.79198 0.18654 0.60359 0.0
H1488 H 0.7387 0.14165 0.61264 0.0
C1489 C 0.77707 0.20949 0.59447 0.0
C1490 C 0.74829 0.20817 0.59225 0.0
H1491 H 0.81389 0.18881 0.60718 0.0
H1492 H 0.78782 0.22876 0.59099 0.0
C1493 C 0.73497 0.18282 0.59684 0.0
C1494 C 0.87209 0.68353 0.62937 0.0
C1495 C 0.85501 0.66056 0.63361 0.0
H1496 H 0.90357 0.70943 0.64613 0.0
C1497 C 0.86063 0.64269 0.65575 0.0
H1498 H 0.86823 0.69758 0.61242 0.0
C1499 C 0.88044 0.6498 0.67542 0.0
C1500 C 0.89533 0.67449 0.67284 0.0
H1501 H 0.84775 0.62485 0.65955 0.0
H1502 H 0.88245 0.63719 0.69377 0.0
C1503 C 0.89236 0.69028 0.6487 0.0
C1504 C 0.3139 0.2223 0.10737 0.0
C1505 C 0.28924 0.23393 0.09757 0.0
H1506 H 0.35131 0.22944 0.1297 0.0
C1507 C 0.28649 0.26275 0.09666 0.0
H1508 H 0.31652 0.20012 0.10839 0.0
C1509 C 0.30686 0.27954 0.10813 0.0
C1510 C 0.32971 0.26757 0.12128 0.0
H1511 H 0.26764 0.27215 0.08921 0.0
H1512 H 0.30323 0.30157 0.10938 0.0
C1513 C 0.3338 0.23901 0.11963 0.0
C1514 C 0.38069 0.84076 0.81395 0.0
C1515 C 0.39572 0.81611 0.81629 0.0
H1516 H 0.3486 0.86594 0.83073 0.0
C1517 C 0.39358 0.80053 0.84064 0.0
H1518 H 0.38204 0.85318 0.79541 0.0
C1519 C 0.37401 0.80749 0.8606 0.0
C1520 C 0.35685 0.8305 0.85678 0.0
H1521 H 0.40491 0.7814 0.843 0.0
H1522 H 0.37076 0.79362 0.87781 0.0
C1523 C 0.36162 0.84811 0.83425 0.0
C1524 C 0.28077 0.27977 0.89933 0.0
C1525 C 0.25198 0.28028 0.90177 0.0
H1526 H 0.31698 0.30198 0.88764 0.0
C1527 C 0.23799 0.30551 0.89856 0.0
H1528 H 0.29203 0.26061 0.90176 0.0
C1529 C 0.25215 0.32906 0.88988 0.0
C1530 C 0.28061 0.32791 0.88504 0.0
H1531 H 0.21576 0.3065 0.90028 0.0
H1532 H 0.24056 0.34756 0.88505 0.0
C1533 C 0.29503 0.30353 0.8914 0.0
C1534 C 0.64302 0.15652 0.85088 0.0
C1535 C 0.63022 0.18241 0.85276 0.0
H1536 H 0.67776 0.1318 0.8621 0.0
C1537 C 0.64023 0.20174 0.8719 0.0
H1538 H 0.63567 0.14128 0.8363 0.0
C1539 C 0.66477 0.19663 0.88616 0.0
C1540 C 0.67917 0.17185 0.88201 0.0
H1541 H 0.63082 0.22194 0.87369 0.0
H1542 H 0.67357 0.21291 0.89867 0.0
C1543 C 0.66712 0.15112 0.86571 0.0
C1544 C 0.72712 0.67312 0.88827 0.0
C1545 C 0.70082 0.67361 0.87633 0.0
H1546 H 0.75978 0.69672 0.906 0.0
C1547 C 0.68518 0.69803 0.87755 0.0
H1548 H 0.73957 0.65457 0.88752 0.0
C1549 C 0.69702 0.72241 0.88737 0.0
C1550 C 0.72435 0.72249 0.89676 0.0
H1551 H 0.6649 0.69904 0.86827 0.0
H1552 H 0.6855 0.7415 0.88574 0.0
C1553 C 0.73867 0.69732 0.89877 0.0
C1554 C 0.6423 0.7741 0.12371 0.0
C1555 C 0.66416 0.7619 0.10913 0.0
H1556 H 0.60973 0.76768 0.15281 0.0
C1557 C 0.66565 0.73304 0.10733 0.0
H1558 H 0.64077 0.79632 0.12556 0.0
C1559 C 0.64736 0.71667 0.12235 0.0
C1560 C 0.62797 0.72904 0.13993 0.0
H1561 H 0.68237 0.72321 0.09626 0.0
H1562 H 0.65041 0.69452 0.12251 0.0
C1563 C 0.62459 0.75776 0.13942 0.0
C1564 C 0.22052 0.67563 0.10026 0.0
C1565 C 0.19497 0.66981 0.11269 0.0
H1566 H 0.2466 0.7067 0.08267 0.0
C1567 C 0.17391 0.68962 0.11126 0.0
H1568 H 0.23726 0.66086 0.10118 0.0
C1569 C 0.17912 0.71567 0.09991 0.0
C1570 C 0.20569 0.7225 0.09058 0.0
H1571 H 0.15411 0.68575 0.12079 0.0
H1572 H 0.16313 0.73124 0.10098 0.0
C1573 C 0.22598 0.70193 0.08973 0.0
C1574 C 0.81557 0.31738 0.11713 0.0
C1575 C 0.78988 0.33052 0.11557 0.0
H1576 H 0.83867 0.28077 0.10871 0.0
C1577 C 0.76878 0.31846 0.09979 0.0
H1578 H 0.8321 0.32627 0.12922 0.0
C1579 C 0.77222 0.29205 0.08874 0.0
C1580 C 0.79707 0.27777 0.09262 0.0
H1581 H 0.74868 0.32809 0.09842 0.0
H1582 H 0.75481 0.28201 0.07902 0.0
C1583 C 0.81929 0.29135 0.10533 0.0
loop_
_geom_bond_atom_site_label_1
_geom_bond_atom_site_label_2
_geom_bond_distance
_geom_bond_site_symmetry_2
_ccdc_geom_bond_type
In0 O1 2.294 . S
In0 O2 2.326 . S
In0 O6 2.266 . S
In0 O7 2.326 . S
In0 O8 2.266 . S
In0 O9 2.326 . S
In0 O11 2.294 . S
In0 O12 2.326 . S
O1 In0 2.294 . S
O1 C10 1.240 . S
O2 In0 2.326 . S
O2 C10 1.252 . S
C3 O6 1.252 . S
C3 O7 1.260 . S
C4 O11 1.240 . S
C4 O12 1.252 . S
C5 O8 1.252 . S
C5 O9 1.260 . S
O6 In0 2.266 . S
O6 C3 1.252 . S
O7 In0 2.326 . S
O7 C3 1.260 . S
O8 In0 2.266 . S
O8 C5 1.252 . S
O9 In0 2.326 . S
O9 C5 1.260 . S
C10 O1 1.240 . S
C10 O2 1.252 . S
O11 In0 2.294 . S
O11 C4 1.240 . S
O12 In0 2.326 . S
O12 C4 1.252 . S
In13 O14 2.294 . S
In13 O15 2.326 . S
In13 O19 2.266 . S
In13 O20 2.326 . S
In13 O21 2.266 . S
In13 O22 2.326 . S
In13 O24 2.294 . S
In13 O25 2.326 . S
O14 In13 2.294 . S
O14 C23 1.240 . S
O15 In13 2.326 . S
O15 C23 1.252 . S
C16 O19 1.252 . S
C16 O20 1.260 . S
C17 O24 1.240 . S
C17 O25 1.252 . S
C18 O21 1.252 . S
C18 O22 1.260 . S
O19 In13 2.266 . S
O19 C16 1.252 . S
O20 In13 2.326 . S
O20 C16 1.260 . S
O21 In13 2.266 . S
O21 C18 1.252 . S
O22 In13 2.326 . S
O22 C18 1.260 . S
C23 O14 1.240 . S
C23 O15 1.252 . S
O24 In13 2.294 . S
O24 C17 1.240 . S
O25 In13 2.326 . S
O25 C17 1.252 . S
In26 O27 2.294 . S
In26 O28 2.326 . S
In26 O32 2.266 . S
In26 O33 2.326 . S
In26 O34 2.266 . S
In26 O35 2.326 . S
In26 O37 2.294 . S
In26 O38 2.326 . S
O27 In26 2.294 . S
O27 C36 1.240 . S
O28 In26 2.326 . S
O28 C36 1.252 . S
C29 O32 1.252 . S
C29 O33 1.260 . S
C30 O37 1.240 . S
C30 O38 1.252 . S
C31 O34 1.252 . S
C31 O35 1.260 . S
O32 In26 2.266 . S
O32 C29 1.252 . S
O33 In26 2.326 . S
O33 C29 1.260 . S
O34 In26 2.266 . S
O34 C31 1.252 . S
O35 In26 2.326 . S
O35 C31 1.260 . S
C36 O27 1.240 . S
C36 O28 1.252 . S
O37 In26 2.294 . S
O37 C30 1.240 . S
O38 In26 2.326 . S
O38 C30 1.252 . S
In39 O40 2.294 . S
In39 O41 2.326 . S
In39 O45 2.266 . S
In39 O46 2.326 . S
In39 O47 2.266 . S
In39 O48 2.326 . S
In39 O50 2.294 . S
In39 O51 2.326 . S
O40 In39 2.294 . S
O40 C49 1.240 . S
O41 In39 2.326 . S
O41 C49 1.252 . S
C42 O45 1.252 . S
C42 O46 1.260 . S
C43 O50 1.240 . S
C43 O51 1.252 . S
C44 O47 1.252 . S
C44 O48 1.260 . S
O45 In39 2.266 . S
O45 C42 1.252 . S
O46 In39 2.326 . S
O46 C42 1.260 . S
O47 In39 2.266 . S
O47 C44 1.252 . S
O48 In39 2.326 . S
O48 C44 1.260 . S
C49 O40 1.240 . S
C49 O41 1.252 . S
O50 In39 2.294 . S
O50 C43 1.240 . S
O51 In39 2.326 . S
O51 C43 1.252 . S
In52 O53 2.294 . S
In52 O54 2.326 . S
In52 O58 2.266 . S
In52 O59 2.326 . S
In52 O60 2.266 . S
In52 O61 2.326 . S
In52 O63 2.294 . S
In52 O64 2.326 . S
O53 In52 2.294 . S
O53 C62 1.240 . S
O54 In52 2.326 . S
O54 C62 1.252 . S
C55 O58 1.252 . S
C55 O59 1.260 . S
C56 O63 1.240 . S
C56 O64 1.252 . S
C57 O60 1.252 . S
C57 O61 1.260 . S
O58 In52 2.266 . S
O58 C55 1.252 . S
O59 In52 2.326 . S
O59 C55 1.260 . S
O60 In52 2.266 . S
O60 C57 1.252 . S
O61 In52 2.326 . S
O61 C57 1.260 . S
C62 O53 1.240 . S
C62 O54 1.252 . S
O63 In52 2.294 . S
O63 C56 1.240 . S
O64 In52 2.326 . S
O64 C56 1.252 . S
In65 O66 2.294 . S
In65 O67 2.326 . S
In65 O71 2.266 . S
In65 O72 2.326 . S
In65 O73 2.266 . S
In65 O74 2.326 . S
In65 O76 2.294 . S
In65 O77 2.326 . S
O66 In65 2.294 . S
O66 C75 1.240 . S
O67 In65 2.326 . S
O67 C75 1.252 . S
C68 O71 1.252 . S
C68 O72 1.260 . S
C69 O76 1.240 . S
C69 O77 1.252 . S
C70 O73 1.252 . S
C70 O74 1.260 . S
O71 In65 2.266 . S
O71 C68 1.252 . S
O72 In65 2.326 . S
O72 C68 1.260 . S
O73 In65 2.266 . S
O73 C70 1.252 . S
O74 In65 2.326 . S
O74 C70 1.260 . S
C75 O66 1.240 . S
C75 O67 1.252 . S
O76 In65 2.294 . S
O76 C69 1.240 . S
O77 In65 2.326 . S
O77 C69 1.252 . S
In78 O79 2.294 . S
In78 O80 2.326 . S
In78 O84 2.266 . S
In78 O85 2.326 . S
In78 O86 2.266 . S
In78 O87 2.326 . S
In78 O89 2.294 . S
In78 O90 2.326 . S
O79 In78 2.294 . S
O79 C88 1.240 . S
O80 In78 2.326 . S
O80 C88 1.252 . S
C81 O84 1.252 . S
C81 O85 1.260 . S
C82 O89 1.240 . S
C82 O90 1.252 . S
C83 O86 1.252 . S
C83 O87 1.260 . S
O84 In78 2.266 . S
O84 C81 1.252 . S
O85 In78 2.326 . S
O85 C81 1.260 . S
O86 In78 2.266 . S
O86 C83 1.252 . S
O87 In78 2.326 . S
O87 C83 1.260 . S
C88 O79 1.240 . S
C88 O80 1.252 . S
O89 In78 2.294 . S
O89 C82 1.240 . S
O90 In78 2.326 . S
O90 C82 1.252 . S
In91 O92 2.294 . S
In91 O93 2.326 . S
In91 O97 2.266 . S
In91 O98 2.326 . S
In91 O99 2.266 . S
In91 O100 2.326 . S
In91 O102 2.294 . S
In91 O103 2.326 . S
O92 In91 2.294 . S
O92 C101 1.240 . S
O93 In91 2.326 . S
O93 C101 1.252 . S
C94 O97 1.252 . S
C94 O98 1.260 . S
C95 O102 1.240 . S
C95 O103 1.252 . S
C96 O99 1.252 . S
C96 O100 1.260 . S
O97 In91 2.266 . S
O97 C94 1.252 . S
O98 In91 2.326 . S
O98 C94 1.260 . S
O99 In91 2.266 . S
O99 C96 1.252 . S
O100 In91 2.326 . S
O100 C96 1.260 . S
C101 O92 1.240 . S
C101 O93 1.252 . S
O102 In91 2.294 . S
O102 C95 1.240 . S
O103 In91 2.326 . S
O103 C95 1.252 . S
In104 O105 2.294 . S
In104 O106 2.326 . S
In104 O110 2.266 . S
In104 O111 2.326 . S
In104 O112 2.266 . S
In104 O113 2.326 . S
In104 O115 2.294 . S
In104 O116 2.326 . S
O105 In104 2.294 . S
O105 C114 1.240 . S
O106 In104 2.326 . S
O106 C114 1.252 . S
C107 O110 1.252 . S
C107 O111 1.260 . S
C108 O115 1.240 . S
C108 O116 1.252 . S
C109 O112 1.252 . S
C109 O113 1.260 . S
O110 In104 2.266 . S
O110 C107 1.252 . S
O111 In104 2.326 . S
O111 C107 1.260 . S
O112 In104 2.266 . S
O112 C109 1.252 . S
O113 In104 2.326 . S
O113 C109 1.260 . S
C114 O105 1.240 . S
C114 O106 1.252 . S
O115 In104 2.294 . S
O115 C108 1.240 . S
O116 In104 2.326 . S
O116 C108 1.252 . S
In117 O118 2.294 . S
In117 O119 2.326 . S
In117 O123 2.266 . S
In117 O124 2.326 . S
In117 O125 2.266 . S
In117 O126 2.326 . S
In117 O128 2.294 . S
In117 O129 2.326 . S
O118 In117 2.294 . S
O118 C127 1.240 . S
O119 In117 2.326 . S
O119 C127 1.252 . S
C120 O123 1.252 . S
C120 O124 1.260 . S
C121 O128 1.240 . S
C121 O129 1.252 . S
C122 O125 1.252 . S
C122 O126 1.260 . S
O123 In117 2.266 . S
O123 C120 1.252 . S
O124 In117 2.326 . S
O124 C120 1.260 . S
O125 In117 2.266 . S
O125 C122 1.252 . S
O126 In117 2.326 . S
O126 C122 1.260 . S
C127 O118 1.240 . S
C127 O119 1.252 . S
O128 In117 2.294 . S
O128 C121 1.240 . S
O129 In117 2.326 . S
O129 C121 1.252 . S
In130 O131 2.294 . S
In130 O132 2.326 . S
In130 O136 2.266 . S
In130 O137 2.326 . S
In130 O138 2.266 . S
In130 O139 2.326 . S
In130 O141 2.294 . S
In130 O142 2.326 . S
O131 In130 2.294 . S
O131 C140 1.240 . S
O132 In130 2.326 . S
O132 C140 1.252 . S
C133 O136 1.252 . S
C133 O137 1.260 . S
C134 O141 1.240 . S
C134 O142 1.252 . S
C135 O138 1.252 . S
C135 O139 1.260 . S
O136 In130 2.266 . S
O136 C133 1.252 . S
O137 In130 2.326 . S
O137 C133 1.260 . S
O138 In130 2.266 . S
O138 C135 1.252 . S
O139 In130 2.326 . S
O139 C135 1.260 . S
C140 O131 1.240 . S
C140 O132 1.252 . S
O141 In130 2.294 . S
O141 C134 1.240 . S
O142 In130 2.326 . S
O142 C134 1.252 . S
In143 O144 2.294 . S
In143 O145 2.326 . S
In143 O149 2.266 . S
In143 O150 2.326 . S
In143 O151 2.266 . S
In143 O152 2.326 . S
In143 O154 2.294 . S
In143 O155 2.326 . S
O144 In143 2.294 . S
O144 C153 1.240 . S
O145 In143 2.326 . S
O145 C153 1.252 . S
C146 O149 1.252 . S
C146 O150 1.260 . S
C147 O154 1.240 . S
C147 O155 1.252 . S
C148 O151 1.252 . S
C148 O152 1.260 . S
O149 In143 2.266 . S
O149 C146 1.252 . S
O150 In143 2.326 . S
O150 C146 1.260 . S
O151 In143 2.266 . S
O151 C148 1.252 . S
O152 In143 2.326 . S
O152 C148 1.260 . S
C153 O144 1.240 . S
C153 O145 1.252 . S
O154 In143 2.294 . S
O154 C147 1.240 . S
O155 In143 2.326 . S
O155 C147 1.252 . S
In156 O157 2.294 . S
In156 O158 2.326 . S
In156 O162 2.266 . S
In156 O163 2.326 . S
In156 O164 2.266 . S
In156 O165 2.326 . S
In156 O167 2.294 . S
In156 O168 2.326 . S
O157 In156 2.294 . S
O157 C166 1.240 . S
O158 In156 2.326 . S
O158 C166 1.252 . S
C159 O162 1.252 . S
C159 O163 1.260 . S
C160 O167 1.240 . S
C160 O168 1.252 . S
C161 O164 1.252 . S
C161 O165 1.260 . S
O162 In156 2.266 . S
O162 C159 1.252 . S
O163 In156 2.326 . S
O163 C159 1.260 . S
O164 In156 2.266 . S
O164 C161 1.252 . S
O165 In156 2.326 . S
O165 C161 1.260 . S
C166 O157 1.240 . S
C166 O158 1.252 . S
O167 In156 2.294 . S
O167 C160 1.240 . S
O168 In156 2.326 . S
O168 C160 1.252 . S
In169 O170 2.294 . S
In169 O171 2.326 . S
In169 O175 2.266 . S
In169 O176 2.326 . S
In169 O177 2.266 . S
In169 O178 2.326 . S
In169 O180 2.294 . S
In169 O181 2.326 . S
O170 In169 2.294 . S
O170 C179 1.240 . S
O171 In169 2.326 . S
O171 C179 1.252 . S
C172 O175 1.252 . S
C172 O176 1.260 . S
C173 O180 1.240 . S
C173 O181 1.252 . S
C174 O177 1.252 . S
C174 O178 1.260 . S
O175 In169 2.266 . S
O175 C172 1.252 . S
O176 In169 2.326 . S
O176 C172 1.260 . S
O177 In169 2.266 . S
O177 C174 1.252 . S
O178 In169 2.326 . S
O178 C174 1.260 . S
C179 O170 1.240 . S
C179 O171 1.252 . S
O180 In169 2.294 . S
O180 C173 1.240 . S
O181 In169 2.326 . S
O181 C173 1.252 . S
In182 O183 2.294 . S
In182 O184 2.326 . S
In182 O188 2.266 . S
In182 O189 2.326 . S
In182 O190 2.266 . S
In182 O191 2.326 . S
In182 O193 2.294 . S
In182 O194 2.326 . S
O183 In182 2.294 . S
O183 C192 1.240 . S
O184 In182 2.326 . S
O184 C192 1.252 . S
C185 O188 1.252 . S
C185 O189 1.260 . S
C186 O193 1.240 . S
C186 O194 1.252 . S
C187 O190 1.252 . S
C187 O191 1.260 . S
O188 In182 2.266 . S
O188 C185 1.252 . S
O189 In182 2.326 . S
O189 C185 1.260 . S
O190 In182 2.266 . S
O190 C187 1.252 . S
O191 In182 2.326 . S
O191 C187 1.260 . S
C192 O183 1.240 . S
C192 O184 1.252 . S
O193 In182 2.294 . S
O193 C186 1.240 . S
O194 In182 2.326 . S
O194 C186 1.252 . S
In195 O196 2.294 . S
In195 O197 2.326 . S
In195 O201 2.266 . S
In195 O202 2.326 . S
In195 O203 2.266 . S
In195 O204 2.326 . S
In195 O206 2.294 . S
In195 O207 2.326 . S
O196 In195 2.294 . S
O196 C205 1.240 . S
O197 In195 2.326 . S
O197 C205 1.252 . S
C198 O201 1.252 . S
C198 O202 1.260 . S
C199 O206 1.240 . S
C199 O207 1.252 . S
C200 O203 1.252 . S
C200 O204 1.260 . S
O201 In195 2.266 . S
O201 C198 1.252 . S
O202 In195 2.326 . S
O202 C198 1.260 . S
O203 In195 2.266 . S
O203 C200 1.252 . S
O204 In195 2.326 . S
O204 C200 1.260 . S
C205 O196 1.240 . S
C205 O197 1.252 . S
O206 In195 2.294 . S
O206 C199 1.240 . S
O207 In195 2.326 . S
O207 C199 1.252 . S
In208 O209 2.294 . S
In208 O210 2.326 . S
In208 O214 2.266 . S
In208 O215 2.326 . S
In208 O216 2.266 . S
In208 O217 2.326 . S
In208 O219 2.294 . S
In208 O220 2.326 . S
O209 In208 2.294 . S
O209 C218 1.240 . S
O210 In208 2.326 . S
O210 C218 1.252 . S
C211 O214 1.252 . S
C211 O215 1.260 . S
C212 O219 1.240 . S
C212 O220 1.252 . S
C213 O216 1.252 . S
C213 O217 1.260 . S
O214 In208 2.266 . S
O214 C211 1.252 . S
O215 In208 2.326 . S
O215 C211 1.260 . S
O216 In208 2.266 . S
O216 C213 1.252 . S
O217 In208 2.326 . S
O217 C213 1.260 . S
C218 O209 1.240 . S
C218 O210 1.252 . S
O219 In208 2.294 . S
O219 C212 1.240 . S
O220 In208 2.326 . S
O220 C212 1.252 . S
In221 O222 2.294 . S
In221 O223 2.326 . S
In221 O227 2.266 . S
In221 O228 2.326 . S
In221 O229 2.266 . S
In221 O230 2.326 . S
In221 O232 2.294 . S
In221 O233 2.326 . S
O222 In221 2.294 . S
O222 C231 1.240 . S
O223 In221 2.326 . S
O223 C231 1.252 . S
C224 O227 1.252 . S
C224 O228 1.260 . S
C225 O232 1.240 . S
C225 O233 1.252 . S
C226 O229 1.252 . S
C226 O230 1.260 . S
O227 In221 2.266 . S
O227 C224 1.252 . S
O228 In221 2.326 . S
O228 C224 1.260 . S
O229 In221 2.266 . S
O229 C226 1.252 . S
O230 In221 2.326 . S
O230 C226 1.260 . S
C231 O222 1.240 . S
C231 O223 1.252 . S
O232 In221 2.294 . S
O232 C225 1.240 . S
O233 In221 2.326 . S
O233 C225 1.252 . S
In234 O235 2.294 . S
In234 O236 2.326 . S
In234 O240 2.266 . S
In234 O241 2.326 . S
In234 O242 2.266 . S
In234 O243 2.326 . S
In234 O245 2.294 . S
In234 O246 2.326 . S
O235 In234 2.294 . S
O235 C244 1.240 . S
O236 In234 2.326 . S
O236 C244 1.252 . S
C237 O240 1.252 . S
C237 O241 1.260 . S
C238 O245 1.240 . S
C238 O246 1.252 . S
C239 O242 1.252 . S
C239 O243 1.260 . S
O240 In234 2.266 . S
O240 C237 1.252 . S
O241 In234 2.326 . S
O241 C237 1.260 . S
O242 In234 2.266 . S
O242 C239 1.252 . S
O243 In234 2.326 . S
O243 C239 1.260 . S
C244 O235 1.240 . S
C244 O236 1.252 . S
O245 In234 2.294 . S
O245 C238 1.240 . S
O246 In234 2.326 . S
O246 C238 1.252 . S
In247 O248 2.294 . S
In247 O249 2.326 . S
In247 O253 2.266 . S
In247 O254 2.326 . S
In247 O255 2.266 . S
In247 O256 2.326 . S
In247 O258 2.294 . S
In247 O259 2.326 . S
O248 In247 2.294 . S
O248 C257 1.240 . S
O249 In247 2.326 . S
O249 C257 1.252 . S
C250 O253 1.252 . S
C250 O254 1.260 . S
C251 O258 1.240 . S
C251 O259 1.252 . S
C252 O255 1.252 . S
C252 O256 1.260 . S
O253 In247 2.266 . S
O253 C250 1.252 . S
O254 In247 2.326 . S
O254 C250 1.260 . S
O255 In247 2.266 . S
O255 C252 1.252 . S
O256 In247 2.326 . S
O256 C252 1.260 . S
C257 O248 1.240 . S
C257 O249 1.252 . S
O258 In247 2.294 . S
O258 C251 1.240 . S
O259 In247 2.326 . S
O259 C251 1.252 . S
In260 O261 2.294 . S
In260 O262 2.326 . S
In260 O266 2.266 . S
In260 O267 2.326 . S
In260 O268 2.266 . S
In260 O269 2.326 . S
In260 O271 2.294 . S
In260 O272 2.326 . S
O261 In260 2.294 . S
O261 C270 1.240 . S
O262 In260 2.326 . S
O262 C270 1.252 . S
C263 O266 1.252 . S
C263 O267 1.260 . S
C264 O271 1.240 . S
C264 O272 1.252 . S
C265 O268 1.252 . S
C265 O269 1.260 . S
O266 In260 2.266 . S
O266 C263 1.252 . S
O267 In260 2.326 . S
O267 C263 1.260 . S
O268 In260 2.266 . S
O268 C265 1.252 . S
O269 In260 2.326 . S
O269 C265 1.260 . S
C270 O261 1.240 . S
C270 O262 1.252 . S
O271 In260 2.294 . S
O271 C264 1.240 . S
O272 In260 2.326 . S
O272 C264 1.252 . S
In273 O274 2.294 . S
In273 O275 2.326 . S
In273 O279 2.266 . S
In273 O280 2.326 . S
In273 O281 2.266 . S
In273 O282 2.326 . S
In273 O284 2.294 . S
In273 O285 2.326 . S
O274 In273 2.294 . S
O274 C283 1.240 . S
O275 In273 2.326 . S
O275 C283 1.252 . S
C276 O279 1.252 . S
C276 O280 1.260 . S
C277 O284 1.240 . S
C277 O285 1.252 . S
C278 O281 1.252 . S
C278 O282 1.260 . S
O279 In273 2.266 . S
O279 C276 1.252 . S
O280 In273 2.326 . S
O280 C276 1.260 . S
O281 In273 2.266 . S
O281 C278 1.252 . S
O282 In273 2.326 . S
O282 C278 1.260 . S
C283 O274 1.240 . S
C283 O275 1.252 . S
O284 In273 2.294 . S
O284 C277 1.240 . S
O285 In273 2.326 . S
O285 C277 1.252 . S
In286 O287 2.294 . S
In286 O288 2.326 . S
In286 O292 2.266 . S
In286 O293 2.326 . S
In286 O294 2.266 . S
In286 O295 2.326 . S
In286 O297 2.294 . S
In286 O298 2.326 . S
O287 In286 2.294 . S
O287 C296 1.240 . S
O288 In286 2.326 . S
O288 C296 1.252 . S
C289 O292 1.252 . S
C289 O293 1.260 . S
C290 O297 1.240 . S
C290 O298 1.252 . S
C291 O294 1.252 . S
C291 O295 1.260 . S
O292 In286 2.266 . S
O292 C289 1.252 . S
O293 In286 2.326 . S
O293 C289 1.260 . S
O294 In286 2.266 . S
O294 C291 1.252 . S
O295 In286 2.326 . S
O295 C291 1.260 . S
C296 O287 1.240 . S
C296 O288 1.252 . S
O297 In286 2.294 . S
O297 C290 1.240 . S
O298 In286 2.326 . S
O298 C290 1.252 . S
In299 O300 2.294 . S
In299 O301 2.326 . S
In299 O305 2.266 . S
In299 O306 2.326 . S
In299 O307 2.266 . S
In299 O308 2.326 . S
In299 O310 2.294 . S
In299 O311 2.326 . S
O300 In299 2.294 . S
O300 C309 1.240 . S
O301 In299 2.326 . S
O301 C309 1.252 . S
C302 O305 1.252 . S
C302 O306 1.260 . S
C303 O310 1.240 . S
C303 O311 1.252 . S
C304 O307 1.252 . S
C304 O308 1.260 . S
O305 In299 2.266 . S
O305 C302 1.252 . S
O306 In299 2.326 . S
O306 C302 1.260 . S
O307 In299 2.266 . S
O307 C304 1.252 . S
O308 In299 2.326 . S
O308 C304 1.260 . S
C309 O300 1.240 . S
C309 O301 1.252 . S
O310 In299 2.294 . S
O310 C303 1.240 . S
O311 In299 2.326 . S
O311 C303 1.252 . S
In312 O313 2.294 . S
In312 O314 2.326 . S
In312 O318 2.266 . S
In312 O319 2.326 . S
In312 O320 2.266 . S
In312 O321 2.326 . S
In312 O323 2.294 . S
In312 O324 2.326 . S
O313 In312 2.294 . S
O313 C322 1.240 . S
O314 In312 2.326 . S
O314 C322 1.252 . S
C315 O318 1.252 . S
C315 O319 1.260 . S
C316 O323 1.240 . S
C316 O324 1.252 . S
C317 O320 1.252 . S
C317 O321 1.260 . S
O318 In312 2.266 . S
O318 C315 1.252 . S
O319 In312 2.326 . S
O319 C315 1.260 . S
O320 In312 2.266 . S
O320 C317 1.252 . S
O321 In312 2.326 . S
O321 C317 1.260 . S
C322 O313 1.240 . S
C322 O314 1.252 . S
O323 In312 2.294 . S
O323 C316 1.240 . S
O324 In312 2.326 . S
O324 C316 1.252 . S
In325 O326 2.294 . S
In325 O327 2.326 . S
In325 O331 2.266 . S
In325 O332 2.326 . S
In325 O333 2.266 . S
In325 O334 2.326 . S
In325 O336 2.294 . S
In325 O337 2.326 . S
O326 In325 2.294 . S
O326 C335 1.240 . S
O327 In325 2.326 . S
O327 C335 1.252 . S
C328 O331 1.252 . S
C328 O332 1.260 . S
C329 O336 1.240 . S
C329 O337 1.252 . S
C330 O333 1.252 . S
C330 O334 1.260 . S
O331 In325 2.266 . S
O331 C328 1.252 . S
O332 In325 2.326 . S
O332 C328 1.260 . S
O333 In325 2.266 . S
O333 C330 1.252 . S
O334 In325 2.326 . S
O334 C330 1.260 . S
C335 O326 1.240 . S
C335 O327 1.252 . S
O336 In325 2.294 . S
O336 C329 1.240 . S
O337 In325 2.326 . S
O337 C329 1.252 . S
In338 O339 2.294 . S
In338 O340 2.326 . S
In338 O344 2.266 . S
In338 O345 2.326 . S
In338 O346 2.266 . S
In338 O347 2.326 . S
In338 O349 2.294 . S
In338 O350 2.326 . S
O339 In338 2.294 . S
O339 C348 1.240 . S
O340 In338 2.326 . S
O340 C348 1.252 . S
C341 O344 1.252 . S
C341 O345 1.260 . S
C342 O349 1.240 . S
C342 O350 1.252 . S
C343 O346 1.252 . S
C343 O347 1.260 . S
O344 In338 2.266 . S
O344 C341 1.252 . S
O345 In338 2.326 . S
O345 C341 1.260 . S
O346 In338 2.266 . S
O346 C343 1.252 . S
O347 In338 2.326 . S
O347 C343 1.260 . S
C348 O339 1.240 . S
C348 O340 1.252 . S
O349 In338 2.294 . S
O349 C342 1.240 . S
O350 In338 2.326 . S
O350 C342 1.252 . S
In351 O352 2.294 . S
In351 O353 2.326 . S
In351 O357 2.266 . S
In351 O358 2.326 . S
In351 O359 2.266 . S
In351 O360 2.326 . S
In351 O362 2.294 . S
In351 O363 2.326 . S
O352 In351 2.294 . S
O352 C361 1.240 . S
O353 In351 2.326 . S
O353 C361 1.252 . S
C354 O357 1.252 . S
C354 O358 1.260 . S
C355 O362 1.240 . S
C355 O363 1.252 . S
C356 O359 1.252 . S
C356 O360 1.260 . S
O357 In351 2.266 . S
O357 C354 1.252 . S
O358 In351 2.326 . S
O358 C354 1.260 . S
O359 In351 2.266 . S
O359 C356 1.252 . S
O360 In351 2.326 . S
O360 C356 1.260 . S
C361 O352 1.240 . S
C361 O353 1.252 . S
O362 In351 2.294 . S
O362 C355 1.240 . S
O363 In351 2.326 . S
O363 C355 1.252 . S
In364 O365 2.294 . S
In364 O366 2.326 . S
In364 O370 2.266 . S
In364 O371 2.326 . S
In364 O372 2.266 . S
In364 O373 2.326 . S
In364 O375 2.294 . S
In364 O376 2.326 . S
O365 In364 2.294 . S
O365 C374 1.240 . S
O366 In364 2.326 . S
O366 C374 1.252 . S
C367 O370 1.252 . S
C367 O371 1.260 . S
C368 O375 1.240 . S
C368 O376 1.252 . S
C369 O372 1.252 . S
C369 O373 1.260 . S
O370 In364 2.266 . S
O370 C367 1.252 . S
O371 In364 2.326 . S
O371 C367 1.260 . S
O372 In364 2.266 . S
O372 C369 1.252 . S
O373 In364 2.326 . S
O373 C369 1.260 . S
C374 O365 1.240 . S
C374 O366 1.252 . S
O375 In364 2.294 . S
O375 C368 1.240 . S
O376 In364 2.326 . S
O376 C368 1.252 . S
In377 O378 2.294 . S
In377 O379 2.326 . S
In377 O383 2.266 . S
In377 O384 2.326 . S
In377 O385 2.266 . S
In377 O386 2.326 . S
In377 O388 2.294 . S
In377 O389 2.326 . S
O378 In377 2.294 . S
O378 C387 1.240 . S
O379 In377 2.326 . S
O379 C387 1.252 . S
C380 O383 1.252 . S
C380 O384 1.260 . S
C381 O388 1.240 . S
C381 O389 1.252 . S
C382 O385 1.252 . S
C382 O386 1.260 . S
O383 In377 2.266 . S
O383 C380 1.252 . S
O384 In377 2.326 . S
O384 C380 1.260 . S
O385 In377 2.266 . S
O385 C382 1.252 . S
O386 In377 2.326 . S
O386 C382 1.260 . S
C387 O378 1.240 . S
C387 O379 1.252 . S
O388 In377 2.294 . S
O388 C381 1.240 . S
O389 In377 2.326 . S
O389 C381 1.252 . S
In390 O391 2.294 . S
In390 O392 2.326 . S
In390 O396 2.266 . S
In390 O397 2.326 . S
In390 O398 2.266 . S
In390 O399 2.326 . S
In390 O401 2.294 . S
In390 O402 2.326 . S
O391 In390 2.294 . S
O391 C400 1.240 . S
O392 In390 2.326 . S
O392 C400 1.252 . S
C393 O396 1.252 . S
C393 O397 1.260 . S
C394 O401 1.240 . S
C394 O402 1.252 . S
C395 O398 1.252 . S
C395 O399 1.260 . S
O396 In390 2.266 . S
O396 C393 1.252 . S
O397 In390 2.326 . S
O397 C393 1.260 . S
O398 In390 2.266 . S
O398 C395 1.252 . S
O399 In390 2.326 . S
O399 C395 1.260 . S
C400 O391 1.240 . S
C400 O392 1.252 . S
O401 In390 2.294 . S
O401 C394 1.240 . S
O402 In390 2.326 . S
O402 C394 1.252 . S
In403 O404 2.294 . S
In403 O405 2.326 . S
In403 O409 2.266 . S
In403 O410 2.326 . S
In403 O411 2.266 . S
In403 O412 2.326 . S
In403 O414 2.294 . S
In403 O415 2.326 . S
O404 In403 2.294 . S
O404 C413 1.240 . S
O405 In403 2.326 . S
O405 C413 1.252 . S
C406 O409 1.252 . S
C406 O410 1.260 . S
C407 O414 1.240 . S
C407 O415 1.252 . S
C408 O411 1.252 . S
C408 O412 1.260 . S
O409 In403 2.266 . S
O409 C406 1.252 . S
O410 In403 2.326 . S
O410 C406 1.260 . S
O411 In403 2.266 . S
O411 C408 1.252 . S
O412 In403 2.326 . S
O412 C408 1.260 . S
C413 O404 1.240 . S
C413 O405 1.252 . S
O414 In403 2.294 . S
O414 C407 1.240 . S
O415 In403 2.326 . S
O415 C407 1.252 . S
In416 O417 2.294 . S
In416 O418 2.326 . S
In416 O422 2.266 . S
In416 O423 2.326 . S
In416 O424 2.266 . S
In416 O425 2.326 . S
In416 O427 2.294 . S
In416 O428 2.326 . S
O417 In416 2.294 . S
O417 C426 1.240 . S
O418 In416 2.326 . S
O418 C426 1.252 . S
C419 O422 1.252 . S
C419 O423 1.260 . S
C420 O427 1.240 . S
C420 O428 1.252 . S
C421 O424 1.252 . S
C421 O425 1.260 . S
O422 In416 2.266 . S
O422 C419 1.252 . S
O423 In416 2.326 . S
O423 C419 1.260 . S
O424 In416 2.266 . S
O424 C421 1.252 . S
O425 In416 2.326 . S
O425 C421 1.260 . S
C426 O417 1.240 . S
C426 O418 1.252 . S
O427 In416 2.294 . S
O427 C420 1.240 . S
O428 In416 2.326 . S
O428 C420 1.252 . S
In429 O430 2.294 . S
In429 O431 2.326 . S
In429 O435 2.266 . S
In429 O436 2.326 . S
In429 O437 2.266 . S
In429 O438 2.326 . S
In429 O440 2.294 . S
In429 O441 2.326 . S
O430 In429 2.294 . S
O430 C439 1.240 . S
O431 In429 2.326 . S
O431 C439 1.252 . S
C432 O435 1.252 . S
C432 O436 1.260 . S
C433 O440 1.240 . S
C433 O441 1.252 . S
C434 O437 1.252 . S
C434 O438 1.260 . S
O435 In429 2.266 . S
O435 C432 1.252 . S
O436 In429 2.326 . S
O436 C432 1.260 . S
O437 In429 2.266 . S
O437 C434 1.252 . S
O438 In429 2.326 . S
O438 C434 1.260 . S
C439 O430 1.240 . S
C439 O431 1.252 . S
O440 In429 2.294 . S
O440 C433 1.240 . S
O441 In429 2.326 . S
O441 C433 1.252 . S
In442 O443 2.294 . S
In442 O444 2.326 . S
In442 O448 2.266 . S
In442 O449 2.326 . S
In442 O450 2.266 . S
In442 O451 2.326 . S
In442 O453 2.294 . S
In442 O454 2.326 . S
O443 In442 2.294 . S
O443 C452 1.240 . S
O444 In442 2.326 . S
O444 C452 1.252 . S
C445 O448 1.252 . S
C445 O449 1.260 . S
C446 O453 1.240 . S
C446 O454 1.252 . S
C447 O450 1.252 . S
C447 O451 1.260 . S
O448 In442 2.266 . S
O448 C445 1.252 . S
O449 In442 2.326 . S
O449 C445 1.260 . S
O450 In442 2.266 . S
O450 C447 1.252 . S
O451 In442 2.326 . S
O451 C447 1.260 . S
C452 O443 1.240 . S
C452 O444 1.252 . S
O453 In442 2.294 . S
O453 C446 1.240 . S
O454 In442 2.326 . S
O454 C446 1.252 . S
In455 O456 2.294 . S
In455 O457 2.326 . S
In455 O461 2.266 . S
In455 O462 2.326 . S
In455 O463 2.266 . S
In455 O464 2.326 . S
In455 O466 2.294 . S
In455 O467 2.326 . S
O456 In455 2.294 . S
O456 C465 1.240 . S
O457 In455 2.326 . S
O457 C465 1.252 . S
C458 O461 1.252 . S
C458 O462 1.260 . S
C459 O466 1.240 . S
C459 O467 1.252 . S
C460 O463 1.252 . S
C460 O464 1.260 . S
O461 In455 2.266 . S
O461 C458 1.252 . S
O462 In455 2.326 . S
O462 C458 1.260 . S
O463 In455 2.266 . S
O463 C460 1.252 . S
O464 In455 2.326 . S
O464 C460 1.260 . S
C465 O456 1.240 . S
C465 O457 1.252 . S
O466 In455 2.294 . S
O466 C459 1.240 . S
O467 In455 2.326 . S
O467 C459 1.252 . S
In468 O469 2.294 . S
In468 O470 2.326 . S
In468 O474 2.266 . S
In468 O475 2.326 . S
In468 O476 2.266 . S
In468 O477 2.326 . S
In468 O479 2.294 . S
In468 O480 2.326 . S
O469 In468 2.294 . S
O469 C478 1.240 . S
O470 In468 2.326 . S
O470 C478 1.252 . S
C471 O474 1.252 . S
C471 O475 1.260 . S
C472 O479 1.240 . S
C472 O480 1.252 . S
C473 O476 1.252 . S
C473 O477 1.260 . S
O474 In468 2.266 . S
O474 C471 1.252 . S
O475 In468 2.326 . S
O475 C471 1.260 . S
O476 In468 2.266 . S
O476 C473 1.252 . S
O477 In468 2.326 . S
O477 C473 1.260 . S
C478 O469 1.240 . S
C478 O470 1.252 . S
O479 In468 2.294 . S
O479 C472 1.240 . S
O480 In468 2.326 . S
O480 C472 1.252 . S
In481 O482 2.294 . S
In481 O483 2.326 . S
In481 O487 2.266 . S
In481 O488 2.326 . S
In481 O489 2.266 . S
In481 O490 2.326 . S
In481 O492 2.294 . S
In481 O493 2.326 . S
O482 In481 2.294 . S
O482 C491 1.240 . S
O483 In481 2.326 . S
O483 C491 1.252 . S
C484 O487 1.252 . S
C484 O488 1.260 . S
C485 O492 1.240 . S
C485 O493 1.252 . S
C486 O489 1.252 . S
C486 O490 1.260 . S
O487 In481 2.266 . S
O487 C484 1.252 . S
O488 In481 2.326 . S
O488 C484 1.260 . S
O489 In481 2.266 . S
O489 C486 1.252 . S
O490 In481 2.326 . S
O490 C486 1.260 . S
C491 O482 1.240 . S
C491 O483 1.252 . S
O492 In481 2.294 . S
O492 C485 1.240 . S
O493 In481 2.326 . S
O493 C485 1.252 . S
In494 O495 2.294 . S
In494 O496 2.326 . S
In494 O500 2.266 . S
In494 O501 2.326 . S
In494 O502 2.266 . S
In494 O503 2.326 . S
In494 O505 2.294 . S
In494 O506 2.326 . S
O495 In494 2.294 . S
O495 C504 1.240 . S
O496 In494 2.326 . S
O496 C504 1.252 . S
C497 O500 1.252 . S
C497 O501 1.260 . S
C498 O505 1.240 . S
C498 O506 1.252 . S
C499 O502 1.252 . S
C499 O503 1.260 . S
O500 In494 2.266 . S
O500 C497 1.252 . S
O501 In494 2.326 . S
O501 C497 1.260 . S
O502 In494 2.266 . S
O502 C499 1.252 . S
O503 In494 2.326 . S
O503 C499 1.260 . S
C504 O495 1.240 . S
C504 O496 1.252 . S
O505 In494 2.294 . S
O505 C498 1.240 . S
O506 In494 2.326 . S
O506 C498 1.252 . S
In507 O508 2.294 . S
In507 O509 2.326 . S
In507 O513 2.266 . S
In507 O514 2.326 . S
In507 O515 2.266 . S
In507 O516 2.326 . S
In507 O518 2.294 . S
In507 O519 2.326 . S
O508 In507 2.294 . S
O508 C517 1.240 . S
O509 In507 2.326 . S
O509 C517 1.252 . S
C510 O513 1.252 . S
C510 O514 1.260 . S
C511 O518 1.240 . S
C511 O519 1.252 . S
C512 O515 1.252 . S
C512 O516 1.260 . S
O513 In507 2.266 . S
O513 C510 1.252 . S
O514 In507 2.326 . S
O514 C510 1.260 . S
O515 In507 2.266 . S
O515 C512 1.252 . S
O516 In507 2.326 . S
O516 C512 1.260 . S
C517 O508 1.240 . S
C517 O509 1.252 . S
O518 In507 2.294 . S
O518 C511 1.240 . S
O519 In507 2.326 . S
O519 C511 1.252 . S
In520 O521 2.294 . S
In520 O522 2.326 . S
In520 O526 2.266 . S
In520 O527 2.326 . S
In520 O528 2.266 . S
In520 O529 2.326 . S
In520 O531 2.294 . S
In520 O532 2.326 . S
O521 In520 2.294 . S
O521 C530 1.240 . S
O522 In520 2.326 . S
O522 C530 1.252 . S
C523 O526 1.252 . S
C523 O527 1.260 . S
C524 O531 1.240 . S
C524 O532 1.252 . S
C525 O528 1.252 . S
C525 O529 1.260 . S
O526 In520 2.266 . S
O526 C523 1.252 . S
O527 In520 2.326 . S
O527 C523 1.260 . S
O528 In520 2.266 . S
O528 C525 1.252 . S
O529 In520 2.326 . S
O529 C525 1.260 . S
C530 O521 1.240 . S
C530 O522 1.252 . S
O531 In520 2.294 . S
O531 C524 1.240 . S
O532 In520 2.326 . S
O532 C524 1.252 . S
In533 O534 2.294 . S
In533 O535 2.326 . S
In533 O539 2.266 . S
In533 O540 2.326 . S
In533 O541 2.266 . S
In533 O542 2.326 . S
In533 O544 2.294 . S
In533 O545 2.326 . S
O534 In533 2.294 . S
O534 C543 1.240 . S
O535 In533 2.326 . S
O535 C543 1.252 . S
C536 O539 1.252 . S
C536 O540 1.260 . S
C537 O544 1.240 . S
C537 O545 1.252 . S
C538 O541 1.252 . S
C538 O542 1.260 . S
O539 In533 2.266 . S
O539 C536 1.252 . S
O540 In533 2.326 . S
O540 C536 1.260 . S
O541 In533 2.266 . S
O541 C538 1.252 . S
O542 In533 2.326 . S
O542 C538 1.260 . S
C543 O534 1.240 . S
C543 O535 1.252 . S
O544 In533 2.294 . S
O544 C537 1.240 . S
O545 In533 2.326 . S
O545 C537 1.252 . S
In546 O547 2.294 . S
In546 O548 2.326 . S
In546 O552 2.266 . S
In546 O553 2.326 . S
In546 O554 2.266 . S
In546 O555 2.326 . S
In546 O557 2.294 . S
In546 O558 2.326 . S
O547 In546 2.294 . S
O547 C556 1.240 . S
O548 In546 2.326 . S
O548 C556 1.252 . S
C549 O552 1.252 . S
C549 O553 1.260 . S
C550 O557 1.240 . S
C550 O558 1.252 . S
C551 O554 1.252 . S
C551 O555 1.260 . S
O552 In546 2.266 . S
O552 C549 1.252 . S
O553 In546 2.326 . S
O553 C549 1.260 . S
O554 In546 2.266 . S
O554 C551 1.252 . S
O555 In546 2.326 . S
O555 C551 1.260 . S
C556 O547 1.240 . S
C556 O548 1.252 . S
O557 In546 2.294 . S
O557 C550 1.240 . S
O558 In546 2.326 . S
O558 C550 1.252 . S
In559 O560 2.294 . S
In559 O561 2.326 . S
In559 O565 2.266 . S
In559 O566 2.326 . S
In559 O567 2.266 . S
In559 O568 2.326 . S
In559 O570 2.294 . S
In559 O571 2.326 . S
O560 In559 2.294 . S
O560 C569 1.240 . S
O561 In559 2.326 . S
O561 C569 1.252 . S
C562 O565 1.252 . S
C562 O566 1.260 . S
C563 O570 1.240 . S
C563 O571 1.252 . S
C564 O567 1.252 . S
C564 O568 1.260 . S
O565 In559 2.266 . S
O565 C562 1.252 . S
O566 In559 2.326 . S
O566 C562 1.260 . S
O567 In559 2.266 . S
O567 C564 1.252 . S
O568 In559 2.326 . S
O568 C564 1.260 . S
C569 O560 1.240 . S
C569 O561 1.252 . S
O570 In559 2.294 . S
O570 C563 1.240 . S
O571 In559 2.326 . S
O571 C563 1.252 . S
In572 O573 2.294 . S
In572 O574 2.326 . S
In572 O578 2.266 . S
In572 O579 2.326 . S
In572 O580 2.266 . S
In572 O581 2.326 . S
In572 O583 2.294 . S
In572 O584 2.326 . S
O573 In572 2.294 . S
O573 C582 1.240 . S
O574 In572 2.326 . S
O574 C582 1.252 . S
C575 O578 1.252 . S
C575 O579 1.260 . S
C576 O583 1.240 . S
C576 O584 1.252 . S
C577 O580 1.252 . S
C577 O581 1.260 . S
O578 In572 2.266 . S
O578 C575 1.252 . S
O579 In572 2.326 . S
O579 C575 1.260 . S
O580 In572 2.266 . S
O580 C577 1.252 . S
O581 In572 2.326 . S
O581 C577 1.260 . S
C582 O573 1.240 . S
C582 O574 1.252 . S
O583 In572 2.294 . S
O583 C576 1.240 . S
O584 In572 2.326 . S
O584 C576 1.252 . S
In585 O586 2.294 . S
In585 O587 2.326 . S
In585 O591 2.266 . S
In585 O592 2.326 . S
In585 O593 2.266 . S
In585 O594 2.326 . S
In585 O596 2.294 . S
In585 O597 2.326 . S
O586 In585 2.294 . S
O586 C595 1.240 . S
O587 In585 2.326 . S
O587 C595 1.252 . S
C588 O591 1.252 . S
C588 O592 1.260 . S
C589 O596 1.240 . S
C589 O597 1.252 . S
C590 O593 1.252 . S
C590 O594 1.260 . S
O591 In585 2.266 . S
O591 C588 1.252 . S
O592 In585 2.326 . S
O592 C588 1.260 . S
O593 In585 2.266 . S
O593 C590 1.252 . S
O594 In585 2.326 . S
O594 C590 1.260 . S
C595 O586 1.240 . S
C595 O587 1.252 . S
O596 In585 2.294 . S
O596 C589 1.240 . S
O597 In585 2.326 . S
O597 C589 1.252 . S
In598 O599 2.294 . S
In598 O600 2.326 . S
In598 O604 2.266 . S
In598 O605 2.326 . S
In598 O606 2.266 . S
In598 O607 2.326 . S
In598 O609 2.294 . S
In598 O610 2.326 . S
O599 In598 2.294 . S
O599 C608 1.240 . S
O600 In598 2.326 . S
O600 C608 1.252 . S
C601 O604 1.252 . S
C601 O605 1.260 . S
C602 O609 1.240 . S
C602 O610 1.252 . S
C603 O606 1.252 . S
C603 O607 1.260 . S
O604 In598 2.266 . S
O604 C601 1.252 . S
O605 In598 2.326 . S
O605 C601 1.260 . S
O606 In598 2.266 . S
O606 C603 1.252 . S
O607 In598 2.326 . S
O607 C603 1.260 . S
C608 O599 1.240 . S
C608 O600 1.252 . S
O609 In598 2.294 . S
O609 C602 1.240 . S
O610 In598 2.326 . S
O610 C602 1.252 . S
In611 O612 2.294 . S
In611 O613 2.326 . S
In611 O617 2.266 . S
In611 O618 2.326 . S
In611 O619 2.266 . S
In611 O620 2.326 . S
In611 O622 2.294 . S
In611 O623 2.326 . S
O612 In611 2.294 . S
O612 C621 1.240 . S
O613 In611 2.326 . S
O613 C621 1.252 . S
C614 O617 1.252 . S
C614 O618 1.260 . S
C615 O622 1.240 . S
C615 O623 1.252 . S
C616 O619 1.252 . S
C616 O620 1.260 . S
O617 In611 2.266 . S
O617 C614 1.252 . S
O618 In611 2.326 . S
O618 C614 1.260 . S
O619 In611 2.266 . S
O619 C616 1.252 . S
O620 In611 2.326 . S
O620 C616 1.260 . S
C621 O612 1.240 . S
C621 O613 1.252 . S
O622 In611 2.294 . S
O622 C615 1.240 . S
O623 In611 2.326 . S
O623 C615 1.252 . S
C624 C625 1.387 1_455 S
C624 H628 0.950 . S
C624 C633 1.390 . S
C625 C624 1.387 1_655 S
C625 C627 1.387 . S
H626 C633 0.950 . S
C627 C625 1.387 . S
C627 C629 1.390 . S
C627 H631 0.950 . S
H628 C624 0.950 . S
C629 C627 1.390 . S
C629 C630 1.387 1_655 S
C629 H632 0.950 . S
C630 C629 1.387 1_455 S
C630 C633 1.387 . S
H631 C627 0.950 . S
H632 C629 0.950 . S
C633 C624 1.390 . S
C633 H626 0.950 . S
C633 C630 1.387 . S
C634 C635 1.387 1_545 S
C634 H638 0.950 . S
C634 C643 1.390 . S
C635 C634 1.387 1_565 S
C635 C637 1.387 . S
H636 C643 0.950 . S
C637 C635 1.387 . S
C637 C639 1.390 . S
C637 H641 0.950 . S
H638 C634 0.950 . S
C639 C637 1.390 . S
C639 C640 1.387 1_565 S
C639 H642 0.950 . S
C640 C639 1.387 1_545 S
C640 C643 1.387 . S
H641 C637 0.950 . S
H642 C639 0.950 . S
C643 C634 1.390 . S
C643 H636 0.950 . S
C643 C640 1.387 . S
C644 C645 1.387 1_655 S
C644 H648 0.950 . S
C644 C653 1.390 . S
C645 C644 1.387 1_455 S
C645 C647 1.387 . S
H646 C653 0.950 . S
C647 C645 1.387 . S
C647 C649 1.390 . S
C647 H651 0.950 . S
H648 C644 0.950 . S
C649 C647 1.390 . S
C649 C650 1.387 1_455 S
C649 H652 0.950 . S
C650 C649 1.387 1_655 S
C650 C653 1.387 . S
H651 C647 0.950 . S
H652 C649 0.950 . S
C653 C644 1.390 . S
C653 H646 0.950 . S
C653 C650 1.387 . S
C654 C655 1.387 1_545 S
C654 H658 0.950 . S
C654 C663 1.390 . S
C655 C654 1.387 1_565 S
C655 C657 1.387 . S
H656 C663 0.950 . S
C657 C655 1.387 . S
C657 C659 1.390 . S
C657 H661 0.950 . S
H658 C654 0.950 . S
C659 C657 1.390 . S
C659 C660 1.387 1_565 S
C659 H662 0.950 . S
C660 C659 1.387 1_545 S
C660 C663 1.387 . S
H661 C657 0.950 . S
H662 C659 0.950 . S
C663 C654 1.390 . S
C663 H656 0.950 . S
C663 C660 1.387 . S
C664 C665 1.387 . S
C664 H668 0.950 . S
C664 C673 1.390 . S
C665 C664 1.387 . S
C665 C667 1.387 1_655 S
H666 C673 0.950 . S
C667 C665 1.387 1_455 S
C667 C669 1.390 . S
C667 H671 0.950 . S
H668 C664 0.950 . S
C669 C667 1.390 . S
C669 C670 1.387 . S
C669 H672 0.950 . S
C670 C669 1.387 . S
C670 C673 1.387 1_455 S
H671 C667 0.950 . S
H672 C669 0.950 . S
C673 C664 1.390 . S
C673 H666 0.950 . S
C673 C670 1.387 1_655 S
C674 C675 1.387 1_565 S
C674 H678 0.950 . S
C674 C683 1.390 . S
C675 C674 1.387 1_545 S
C675 C677 1.387 . S
H676 C683 0.950 . S
C677 C675 1.387 . S
C677 C679 1.390 . S
C677 H681 0.950 . S
H678 C674 0.950 . S
C679 C677 1.390 . S
C679 C680 1.387 1_545 S
C679 H682 0.950 . S
C680 C679 1.387 1_565 S
C680 C683 1.387 . S
H681 C677 0.950 . S
H682 C679 0.950 . S
C683 C674 1.390 . S
C683 H676 0.950 . S
C683 C680 1.387 . S
C684 C685 1.387 . S
C684 H688 0.950 . S
C684 C693 1.390 1_455 S
C685 C684 1.387 . S
C685 C687 1.387 . S
H686 C693 0.950 . S
C687 C685 1.387 . S
C687 C689 1.390 1_455 S
C687 H691 0.950 . S
H688 C684 0.950 . S
C689 C687 1.390 1_655 S
C689 C690 1.387 . S
C689 H692 0.950 . S
C690 C689 1.387 . S
C690 C693 1.387 . S
H691 C687 0.950 . S
H692 C689 0.950 . S
C693 C684 1.390 1_655 S
C693 H686 0.950 . S
C693 C690 1.387 . S
C694 C695 1.387 . S
C694 H698 0.950 . S
C694 C703 1.390 . S
C695 C694 1.387 . S
C695 C697 1.387 1_545 S
H696 C703 0.950 . S
C697 C695 1.387 1_565 S
C697 C699 1.390 . S
C697 H701 0.950 . S
H698 C694 0.950 . S
C699 C697 1.390 . S
C699 C700 1.387 . S
C699 H702 0.950 . S
C700 C699 1.387 . S
C700 C703 1.387 1_565 S
H701 C697 0.950 . S
H702 C699 0.950 . S
C703 C694 1.390 . S
C703 H696 0.950 . S
C703 C700 1.387 1_545 S
C704 C705 1.387 1_556 S
C704 H708 0.950 . S
C704 C713 1.390 . S
C705 C704 1.387 1_554 S
C705 C707 1.387 . S
H706 C713 0.950 . S
C707 C705 1.387 . S
C707 C709 1.390 . S
C707 H711 0.950 . S
H708 C704 0.950 . S
C709 C707 1.390 . S
C709 C710 1.387 1_554 S
C709 H712 0.950 . S
C710 C709 1.387 1_556 S
C710 C713 1.387 . S
H711 C707 0.950 . S
H712 C709 0.950 . S
C713 C704 1.390 . S
C713 H706 0.950 . S
C713 C710 1.387 . S
C714 C715 1.387 . S
C714 H718 0.950 . S
C714 C723 1.390 1_556 S
C715 C714 1.387 . S
C715 C717 1.387 . S
H716 C723 0.950 . S
C717 C715 1.387 . S
C717 C719 1.390 1_556 S
C717 H721 0.950 . S
H718 C714 0.950 . S
C719 C717 1.390 1_554 S
C719 C720 1.387 . S
C719 H722 0.950 . S
C720 C719 1.387 . S
C720 C723 1.387 . S
H721 C717 0.950 . S
H722 C719 0.950 . S
C723 C714 1.390 1_554 S
C723 H716 0.950 . S
C723 C720 1.387 . S
C724 C725 1.387 1_554 S
C724 H728 0.950 . S
C724 C733 1.390 . S
C725 C724 1.387 1_556 S
C725 C727 1.387 . S
H726 C733 0.950 . S
C727 C725 1.387 . S
C727 C729 1.390 . S
C727 H731 0.950 . S
H728 C724 0.950 . S
C729 C727 1.390 . S
C729 C730 1.387 1_556 S
C729 H732 0.950 . S
C730 C729 1.387 1_554 S
C730 C733 1.387 . S
H731 C727 0.950 . S
H732 C729 0.950 . S
C733 C724 1.390 . S
C733 H726 0.950 . S
C733 C730 1.387 . S
C734 C735 1.387 . S
C734 H738 0.950 . S
C734 C743 1.390 . S
C735 C734 1.387 . S
C735 C737 1.387 1_556 S
H736 C743 0.950 . S
C737 C735 1.387 1_554 S
C737 C739 1.390 . S
C737 H741 0.950 . S
H738 C734 0.950 . S
C739 C737 1.390 . S
C739 C740 1.387 . S
C739 H742 0.950 . S
C740 C739 1.387 . S
C740 C743 1.387 1_554 S
H741 C737 0.950 . S
H742 C739 0.950 . S
C743 C734 1.390 . S
C743 H736 0.950 . S
C743 C740 1.387 1_556 S
C744 C745 1.387 . S
C744 H748 0.950 . S
C744 C753 1.390 . S
C745 C744 1.387 . S
C745 C747 1.387 . S
H746 C753 0.950 . S
C747 C745 1.387 . S
C747 C749 1.390 . S
C747 H751 0.950 . S
H748 C744 0.950 . S
C749 C747 1.390 . S
C749 C750 1.387 . S
C749 H752 0.950 . S
C750 C749 1.387 . S
C750 C753 1.387 . S
H751 C747 0.950 . S
H752 C749 0.950 . S
C753 C744 1.390 . S
C753 H746 0.950 . S
C753 C750 1.387 . S
C754 C755 1.387 . S
C754 H758 0.950 . S
C754 C763 1.390 . S
C755 C754 1.387 . S
C755 C757 1.387 . S
H756 C763 0.950 . S
C757 C755 1.387 . S
C757 C759 1.390 . S
C757 H761 0.950 . S
H758 C754 0.950 . S
C759 C757 1.390 . S
C759 C760 1.387 . S
C759 H762 0.950 . S
C760 C759 1.387 . S
C760 C763 1.387 . S
H761 C757 0.950 . S
H762 C759 0.950 . S
C763 C754 1.390 . S
C763 H756 0.950 . S
C763 C760 1.387 . S
C764 C765 1.387 . S
C764 H768 0.950 . S
C764 C773 1.390 . S
C765 C764 1.387 . S
C765 C767 1.387 . S
H766 C773 0.950 . S
C767 C765 1.387 . S
C767 C769 1.390 . S
C767 H771 0.950 . S
H768 C764 0.950 . S
C769 C767 1.390 . S
C769 C770 1.387 . S
C769 H772 0.950 . S
C770 C769 1.387 . S
C770 C773 1.387 . S
H771 C767 0.950 . S
H772 C769 0.950 . S
C773 C764 1.390 . S
C773 H766 0.950 . S
C773 C770 1.387 . S
C774 C775 1.387 . S
C774 H778 0.950 . S
C774 C783 1.390 . S
C775 C774 1.387 . S
C775 C777 1.387 . S
H776 C783 0.950 . S
C777 C775 1.387 . S
C777 C779 1.390 . S
C777 H781 0.950 . S
H778 C774 0.950 . S
C779 C777 1.390 . S
C779 C780 1.387 . S
C779 H782 0.950 . S
C780 C779 1.387 . S
C780 C783 1.387 . S
H781 C777 0.950 . S
H782 C779 0.950 . S
C783 C774 1.390 . S
C783 H776 0.950 . S
C783 C780 1.387 . S
C784 C785 1.387 . S
C784 H788 0.950 . S
C784 C793 1.390 . S
C785 C784 1.387 . S
C785 C787 1.387 . S
H786 C793 0.950 . S
C787 C785 1.387 . S
C787 C789 1.390 . S
C787 H791 0.950 . S
H788 C784 0.950 . S
C789 C787 1.390 . S
C789 C790 1.387 . S
C789 H792 0.950 . S
C790 C789 1.387 . S
C790 C793 1.387 . S
H791 C787 0.950 . S
H792 C789 0.950 . S
C793 C784 1.390 . S
C793 H786 0.950 . S
C793 C790 1.387 . S
C794 C795 1.387 . S
C794 H798 0.950 . S
C794 C803 1.390 . S
C795 C794 1.387 . S
C795 C797 1.387 . S
H796 C803 0.950 . S
C797 C795 1.387 . S
C797 C799 1.390 . S
C797 H801 0.950 . S
H798 C794 0.950 . S
C799 C797 1.390 . S
C799 C800 1.387 . S
C799 H802 0.950 . S
C800 C799 1.387 . S
C800 C803 1.387 . S
H801 C797 0.950 . S
H802 C799 0.950 . S
C803 C794 1.390 . S
C803 H796 0.950 . S
C803 C800 1.387 . S
C804 C805 1.387 . S
C804 H808 0.950 . S
C804 C813 1.390 . S
C805 C804 1.387 . S
C805 C807 1.387 . S
H806 C813 0.950 . S
C807 C805 1.387 . S
C807 C809 1.390 . S
C807 H811 0.950 . S
H808 C804 0.950 . S
C809 C807 1.390 . S
C809 C810 1.387 . S
C809 H812 0.950 . S
C810 C809 1.387 . S
C810 C813 1.387 . S
H811 C807 0.950 . S
H812 C809 0.950 . S
C813 C804 1.390 . S
C813 H806 0.950 . S
C813 C810 1.387 . S
C814 C815 1.387 . S
C814 H818 0.950 . S
C814 C823 1.390 . S
C815 C814 1.387 . S
C815 C817 1.387 . S
H816 C823 0.950 . S
C817 C815 1.387 . S
C817 C819 1.390 . S
C817 H821 0.950 . S
H818 C814 0.950 . S
C819 C817 1.390 . S
C819 C820 1.387 . S
C819 H822 0.950 . S
C820 C819 1.387 . S
C820 C823 1.387 . S
H821 C817 0.950 . S
H822 C819 0.950 . S
C823 C814 1.390 . S
C823 H816 0.950 . S
C823 C820 1.387 . S
C824 C825 1.387 . S
C824 H828 0.950 . S
C824 C833 1.390 . S
C825 C824 1.387 . S
C825 C827 1.387 . S
H826 C833 0.950 . S
C827 C825 1.387 . S
C827 C829 1.390 . S
C827 H831 0.950 . S
H828 C824 0.950 . S
C829 C827 1.390 . S
C829 C830 1.387 . S
C829 H832 0.950 . S
C830 C829 1.387 . S
C830 C833 1.387 . S
H831 C827 0.950 . S
H832 C829 0.950 . S
C833 C824 1.390 . S
C833 H826 0.950 . S
C833 C830 1.387 . S
C834 C835 1.387 . S
C834 H838 0.950 . S
C834 C843 1.390 . S
C835 C834 1.387 . S
C835 C837 1.387 . S
H836 C843 0.950 . S
C837 C835 1.387 . S
C837 C839 1.390 . S
C837 H841 0.950 . S
H838 C834 0.950 . S
C839 C837 1.390 . S
C839 C840 1.387 . S
C839 H842 0.950 . S
C840 C839 1.387 . S
C840 C843 1.387 . S
H841 C837 0.950 . S
H842 C839 0.950 . S
C843 C834 1.390 . S
C843 H836 0.950 . S
C843 C840 1.387 . S
C844 C845 1.387 . S
C844 H848 0.950 . S
C844 C853 1.390 . S
C845 C844 1.387 . S
C845 C847 1.387 . S
H846 C853 0.950 . S
C847 C845 1.387 . S
C847 C849 1.390 . S
C847 H851 0.950 . S
H848 C844 0.950 . S
C849 C847 1.390 . S
C849 C850 1.387 . S
C849 H852 0.950 . S
C850 C849 1.387 . S
C850 C853 1.387 . S
H851 C847 0.950 . S
H852 C849 0.950 . S
C853 C844 1.390 . S
C853 H846 0.950 . S
C853 C850 1.387 . S
C854 C855 1.387 . S
C854 H858 0.950 . S
C854 C863 1.390 . S
C855 C854 1.387 . S
C855 C857 1.387 . S
H856 C863 0.950 . S
C857 C855 1.387 . S
C857 C859 1.390 . S
C857 H861 0.950 . S
H858 C854 0.950 . S
C859 C857 1.390 . S
C859 C860 1.387 . S
C859 H862 0.950 . S
C860 C859 1.387 . S
C860 C863 1.387 . S
H861 C857 0.950 . S
H862 C859 0.950 . S
C863 C854 1.390 . S
C863 H856 0.950 . S
C863 C860 1.387 . S
C864 C865 1.387 . S
C864 H868 0.950 . S
C864 C873 1.390 . S
C865 C864 1.387 . S
C865 C867 1.387 . S
H866 C873 0.950 . S
C867 C865 1.387 . S
C867 C869 1.390 . S
C867 H871 0.950 . S
H868 C864 0.950 . S
C869 C867 1.390 . S
C869 C870 1.387 . S
C869 H872 0.950 . S
C870 C869 1.387 . S
C870 C873 1.387 . S
H871 C867 0.950 . S
H872 C869 0.950 . S
C873 C864 1.390 . S
C873 H866 0.950 . S
C873 C870 1.387 . S
C874 C875 1.387 . S
C874 H878 0.950 . S
C874 C883 1.390 . S
C875 C874 1.387 . S
C875 C877 1.387 . S
H876 C883 0.950 . S
C877 C875 1.387 . S
C877 C879 1.390 . S
C877 H881 0.950 . S
H878 C874 0.950 . S
C879 C877 1.390 . S
C879 C880 1.387 . S
C879 H882 0.950 . S
C880 C879 1.387 . S
C880 C883 1.387 . S
H881 C877 0.950 . S
H882 C879 0.950 . S
C883 C874 1.390 . S
C883 H876 0.950 . S
C883 C880 1.387 . S
C884 C885 1.387 . S
C884 H888 0.950 . S
C884 C893 1.390 . S
C885 C884 1.387 . S
C885 C887 1.387 . S
H886 C893 0.950 . S
C887 C885 1.387 . S
C887 C889 1.390 . S
C887 H891 0.950 . S
H888 C884 0.950 . S
C889 C887 1.390 . S
C889 C890 1.387 . S
C889 H892 0.950 . S
C890 C889 1.387 . S
C890 C893 1.387 . S
H891 C887 0.950 . S
H892 C889 0.950 . S
C893 C884 1.390 . S
C893 H886 0.950 . S
C893 C890 1.387 . S
C894 C895 1.387 . S
C894 H898 0.950 . S
C894 C903 1.390 . S
C895 C894 1.387 . S
C895 C897 1.387 . S
H896 C903 0.950 . S
C897 C895 1.387 . S
C897 C899 1.390 . S
C897 H901 0.950 . S
H898 C894 0.950 . S
C899 C897 1.390 . S
C899 C900 1.387 . S
C899 H902 0.950 . S
C900 C899 1.387 . S
C900 C903 1.387 . S
H901 C897 0.950 . S
H902 C899 0.950 . S
C903 C894 1.390 . S
C903 H896 0.950 . S
C903 C900 1.387 . S
C904 C905 1.387 . S
C904 H908 0.950 . S
C904 C913 1.390 . S
C905 C904 1.387 . S
C905 C907 1.387 . S
H906 C913 0.950 . S
C907 C905 1.387 . S
C907 C909 1.390 . S
C907 H911 0.950 . S
H908 C904 0.950 . S
C909 C907 1.390 . S
C909 C910 1.387 . S
C909 H912 0.950 . S
C910 C909 1.387 . S
C910 C913 1.387 . S
H911 C907 0.950 . S
H912 C909 0.950 . S
C913 C904 1.390 . S
C913 H906 0.950 . S
C913 C910 1.387 . S
C914 C915 1.387 . S
C914 H918 0.950 . S
C914 C923 1.390 . S
C915 C914 1.387 . S
C915 C917 1.387 . S
H916 C923 0.950 . S
C917 C915 1.387 . S
C917 C919 1.390 . S
C917 H921 0.950 . S
H918 C914 0.950 . S
C919 C917 1.390 . S
C919 C920 1.387 . S
C919 H922 0.950 . S
C920 C919 1.387 . S
C920 C923 1.387 . S
H921 C917 0.950 . S
H922 C919 0.950 . S
C923 C914 1.390 . S
C923 H916 0.950 . S
C923 C920 1.387 . S
C924 C925 1.387 . S
C924 H928 0.950 . S
C924 C933 1.390 . S
C925 C924 1.387 . S
C925 C927 1.387 . S
H926 C933 0.950 . S
C927 C925 1.387 . S
C927 C929 1.390 . S
C927 H931 0.950 . S
H928 C924 0.950 . S
C929 C927 1.390 . S
C929 C930 1.387 . S
C929 H932 0.950 . S
C930 C929 1.387 . S
C930 C933 1.387 . S
H931 C927 0.950 . S
H932 C929 0.950 . S
C933 C924 1.390 . S
C933 H926 0.950 . S
C933 C930 1.387 . S
C934 C935 1.387 . S
C934 H938 0.950 . S
C934 C943 1.390 . S
C935 C934 1.387 . S
C935 C937 1.387 . S
H936 C943 0.950 . S
C937 C935 1.387 . S
C937 C939 1.390 . S
C937 H941 0.950 . S
H938 C934 0.950 . S
C939 C937 1.390 . S
C939 C940 1.387 . S
C939 H942 0.950 . S
C940 C939 1.387 . S
C940 C943 1.387 . S
H941 C937 0.950 . S
H942 C939 0.950 . S
C943 C934 1.390 . S
C943 H936 0.950 . S
C943 C940 1.387 . S
C944 C945 1.387 . S
C944 H948 0.950 . S
C944 C953 1.390 . S
C945 C944 1.387 . S
C945 C947 1.387 . S
H946 C953 0.950 . S
C947 C945 1.387 . S
C947 C949 1.390 . S
C947 H951 0.950 . S
H948 C944 0.950 . S
C949 C947 1.390 . S
C949 C950 1.387 . S
C949 H952 0.950 . S
C950 C949 1.387 . S
C950 C953 1.387 . S
H951 C947 0.950 . S
H952 C949 0.950 . S
C953 C944 1.390 . S
C953 H946 0.950 . S
C953 C950 1.387 . S
C954 C955 1.387 . S
C954 H958 0.950 . S
C954 C963 1.390 . S
C955 C954 1.387 . S
C955 C957 1.387 . S
H956 C963 0.950 . S
C957 C955 1.387 . S
C957 C959 1.390 . S
C957 H961 0.950 . S
H958 C954 0.950 . S
C959 C957 1.390 . S
C959 C960 1.387 . S
C959 H962 0.950 . S
C960 C959 1.387 . S
C960 C963 1.387 . S
H961 C957 0.950 . S
H962 C959 0.950 . S
C963 C954 1.390 . S
C963 H956 0.950 . S
C963 C960 1.387 . S
C964 C965 1.387 . S
C964 H968 0.950 . S
C964 C973 1.390 . S
C965 C964 1.387 . S
C965 C967 1.387 . S
H966 C973 0.950 . S
C967 C965 1.387 . S
C967 C969 1.390 . S
C967 H971 0.950 . S
H968 C964 0.950 . S
C969 C967 1.390 . S
C969 C970 1.387 . S
C969 H972 0.950 . S
C970 C969 1.387 . S
C970 C973 1.387 . S
H971 C967 0.950 . S
H972 C969 0.950 . S
C973 C964 1.390 . S
C973 H966 0.950 . S
C973 C970 1.387 . S
C974 C975 1.387 . S
C974 H978 0.950 . S
C974 C983 1.390 . S
C975 C974 1.387 . S
C975 C977 1.387 . S
H976 C983 0.950 . S
C977 C975 1.387 . S
C977 C979 1.390 . S
C977 H981 0.950 . S
H978 C974 0.950 . S
C979 C977 1.390 . S
C979 C980 1.387 . S
C979 H982 0.950 . S
C980 C979 1.387 . S
C980 C983 1.387 . S
H981 C977 0.950 . S
H982 C979 0.950 . S
C983 C974 1.390 . S
C983 H976 0.950 . S
C983 C980 1.387 . S
C984 C985 1.387 . S
C984 H988 0.950 . S
C984 C993 1.390 . S
C985 C984 1.387 . S
C985 C987 1.387 . S
H986 C993 0.950 . S
C987 C985 1.387 . S
C987 C989 1.390 . S
C987 H991 0.950 . S
H988 C984 0.950 . S
C989 C987 1.390 . S
C989 C990 1.387 . S
C989 H992 0.950 . S
C990 C989 1.387 . S
C990 C993 1.387 . S
H991 C987 0.950 . S
H992 C989 0.950 . S
C993 C984 1.390 . S
C993 H986 0.950 . S
C993 C990 1.387 . S
C994 C995 1.387 . S
C994 H998 0.950 . S
C994 C1003 1.390 . S
C995 C994 1.387 . S
C995 C997 1.387 . S
H996 C1003 0.950 . S
C997 C995 1.387 . S
C997 C999 1.390 . S
C997 H1001 0.950 . S
H998 C994 0.950 . S
C999 C997 1.390 . S
C999 C1000 1.387 . S
C999 H1002 0.950 . S
C1000 C999 1.387 . S
C1000 C1003 1.387 . S
H1001 C997 0.950 . S
H1002 C999 0.950 . S
C1003 C994 1.390 . S
C1003 H996 0.950 . S
C1003 C1000 1.387 . S
C1004 C1005 1.387 . S
C1004 H1008 0.950 . S
C1004 C1013 1.390 . S
C1005 C1004 1.387 . S
C1005 C1007 1.387 . S
H1006 C1013 0.950 . S
C1007 C1005 1.387 . S
C1007 C1009 1.390 . S
C1007 H1011 0.950 . S
H1008 C1004 0.950 . S
C1009 C1007 1.390 . S
C1009 C1010 1.387 . S
C1009 H1012 0.950 . S
C1010 C1009 1.387 . S
C1010 C1013 1.387 . S
H1011 C1007 0.950 . S
H1012 C1009 0.950 . S
C1013 C1004 1.390 . S
C1013 H1006 0.950 . S
C1013 C1010 1.387 . S
C1014 C1015 1.387 . S
C1014 H1018 0.950 . S
C1014 C1023 1.390 . S
C1015 C1014 1.387 . S
C1015 C1017 1.387 . S
H1016 C1023 0.950 . S
C1017 C1015 1.387 . S
C1017 C1019 1.390 . S
C1017 H1021 0.950 . S
H1018 C1014 0.950 . S
C1019 C1017 1.390 . S
C1019 C1020 1.387 . S
C1019 H1022 0.950 . S
C1020 C1019 1.387 . S
C1020 C1023 1.387 . S
H1021 C1017 0.950 . S
H1022 C1019 0.950 . S
C1023 C1014 1.390 . S
C1023 H1016 0.950 . S
C1023 C1020 1.387 . S
C1024 C1025 1.387 . S
C1024 H1028 0.950 . S
C1024 C1033 1.390 . S
C1025 C1024 1.387 . S
C1025 C1027 1.387 . S
H1026 C1033 0.950 . S
C1027 C1025 1.387 . S
C1027 C1029 1.390 . S
C1027 H1031 0.950 . S
H1028 C1024 0.950 . S
C1029 C1027 1.390 . S
C1029 C1030 1.387 . S
C1029 H1032 0.950 . S
C1030 C1029 1.387 . S
C1030 C1033 1.387 . S
H1031 C1027 0.950 . S
H1032 C1029 0.950 . S
C1033 C1024 1.390 . S
C1033 H1026 0.950 . S
C1033 C1030 1.387 . S
C1034 C1035 1.387 . S
C1034 H1038 0.950 . S
C1034 C1043 1.390 . S
C1035 C1034 1.387 . S
C1035 C1037 1.387 . S
H1036 C1043 0.950 . S
C1037 C1035 1.387 . S
C1037 C1039 1.390 . S
C1037 H1041 0.950 . S
H1038 C1034 0.950 . S
C1039 C1037 1.390 . S
C1039 C1040 1.387 . S
C1039 H1042 0.950 . S
C1040 C1039 1.387 . S
C1040 C1043 1.387 . S
H1041 C1037 0.950 . S
H1042 C1039 0.950 . S
C1043 C1034 1.390 . S
C1043 H1036 0.950 . S
C1043 C1040 1.387 . S
C1044 C1045 1.387 . S
C1044 H1048 0.950 . S
C1044 C1053 1.390 . S
C1045 C1044 1.387 . S
C1045 C1047 1.387 . S
H1046 C1053 0.950 . S
C1047 C1045 1.387 . S
C1047 C1049 1.390 . S
C1047 H1051 0.950 . S
H1048 C1044 0.950 . S
C1049 C1047 1.390 . S
C1049 C1050 1.387 . S
C1049 H1052 0.950 . S
C1050 C1049 1.387 . S
C1050 C1053 1.387 . S
H1051 C1047 0.950 . S
H1052 C1049 0.950 . S
C1053 C1044 1.390 . S
C1053 H1046 0.950 . S
C1053 C1050 1.387 . S
C1054 C1055 1.387 . S
C1054 H1058 0.950 . S
C1054 C1063 1.390 . S
C1055 C1054 1.387 . S
C1055 C1057 1.387 . S
H1056 C1063 0.950 . S
C1057 C1055 1.387 . S
C1057 C1059 1.390 . S
C1057 H1061 0.950 . S
H1058 C1054 0.950 . S
C1059 C1057 1.390 . S
C1059 C1060 1.387 . S
C1059 H1062 0.950 . S
C1060 C1059 1.387 . S
C1060 C1063 1.387 . S
H1061 C1057 0.950 . S
H1062 C1059 0.950 . S
C1063 C1054 1.390 . S
C1063 H1056 0.950 . S
C1063 C1060 1.387 . S
C1064 C1065 1.387 . S
C1064 H1068 0.950 . S
C1064 C1073 1.390 . S
C1065 C1064 1.387 . S
C1065 C1067 1.387 . S
H1066 C1073 0.950 . S
C1067 C1065 1.387 . S
C1067 C1069 1.390 . S
C1067 H1071 0.950 . S
H1068 C1064 0.950 . S
C1069 C1067 1.390 . S
C1069 C1070 1.387 . S
C1069 H1072 0.950 . S
C1070 C1069 1.387 . S
C1070 C1073 1.387 . S
H1071 C1067 0.950 . S
H1072 C1069 0.950 . S
C1073 C1064 1.390 . S
C1073 H1066 0.950 . S
C1073 C1070 1.387 . S
C1074 C1075 1.387 . S
C1074 H1078 0.950 . S
C1074 C1083 1.390 . S
C1075 C1074 1.387 . S
C1075 C1077 1.387 . S
H1076 C1083 0.950 . S
C1077 C1075 1.387 . S
C1077 C1079 1.390 . S
C1077 H1081 0.950 . S
H1078 C1074 0.950 . S
C1079 C1077 1.390 . S
C1079 C1080 1.387 . S
C1079 H1082 0.950 . S
C1080 C1079 1.387 . S
C1080 C1083 1.387 . S
H1081 C1077 0.950 . S
H1082 C1079 0.950 . S
C1083 C1074 1.390 . S
C1083 H1076 0.950 . S
C1083 C1080 1.387 . S
C1084 C1085 1.387 . S
C1084 H1088 0.950 . S
C1084 C1093 1.390 . S
C1085 C1084 1.387 . S
C1085 C1087 1.387 . S
H1086 C1093 0.950 . S
C1087 C1085 1.387 . S
C1087 C1089 1.390 . S
C1087 H1091 0.950 . S
H1088 C1084 0.950 . S
C1089 C1087 1.390 . S
C1089 C1090 1.387 . S
C1089 H1092 0.950 . S
C1090 C1089 1.387 . S
C1090 C1093 1.387 . S
H1091 C1087 0.950 . S
H1092 C1089 0.950 . S
C1093 C1084 1.390 . S
C1093 H1086 0.950 . S
C1093 C1090 1.387 . S
C1094 C1095 1.387 . S
C1094 H1098 0.950 . S
C1094 C1103 1.390 . S
C1095 C1094 1.387 . S
C1095 C1097 1.387 . S
H1096 C1103 0.950 . S
C1097 C1095 1.387 . S
C1097 C1099 1.390 . S
C1097 H1101 0.950 . S
H1098 C1094 0.950 . S
C1099 C1097 1.390 . S
C1099 C1100 1.387 . S
C1099 H1102 0.950 . S
C1100 C1099 1.387 . S
C1100 C1103 1.387 . S
H1101 C1097 0.950 . S
H1102 C1099 0.950 . S
C1103 C1094 1.390 . S
C1103 H1096 0.950 . S
C1103 C1100 1.387 . S
C1104 C1105 1.387 . S
C1104 H1108 0.950 . S
C1104 C1113 1.390 . S
C1105 C1104 1.387 . S
C1105 C1107 1.387 . S
H1106 C1113 0.950 . S
C1107 C1105 1.387 . S
C1107 C1109 1.390 . S
C1107 H1111 0.950 . S
H1108 C1104 0.950 . S
C1109 C1107 1.390 . S
C1109 C1110 1.387 . S
C1109 H1112 0.950 . S
C1110 C1109 1.387 . S
C1110 C1113 1.387 . S
H1111 C1107 0.950 . S
H1112 C1109 0.950 . S
C1113 C1104 1.390 . S
C1113 H1106 0.950 . S
C1113 C1110 1.387 . S
C1114 C1115 1.387 . S
C1114 H1118 0.950 . S
C1114 C1123 1.390 . S
C1115 C1114 1.387 . S
C1115 C1117 1.387 . S
H1116 C1123 0.950 . S
C1117 C1115 1.387 . S
C1117 C1119 1.390 . S
C1117 H1121 0.950 . S
H1118 C1114 0.950 . S
C1119 C1117 1.390 . S
C1119 C1120 1.387 . S
C1119 H1122 0.950 . S
C1120 C1119 1.387 . S
C1120 C1123 1.387 . S
H1121 C1117 0.950 . S
H1122 C1119 0.950 . S
C1123 C1114 1.390 . S
C1123 H1116 0.950 . S
C1123 C1120 1.387 . S
C1124 C1125 1.387 . S
C1124 H1128 0.950 . S
C1124 C1133 1.390 . S
C1125 C1124 1.387 . S
C1125 C1127 1.387 . S
H1126 C1133 0.950 . S
C1127 C1125 1.387 . S
C1127 C1129 1.390 . S
C1127 H1131 0.950 . S
H1128 C1124 0.950 . S
C1129 C1127 1.390 . S
C1129 C1130 1.387 . S
C1129 H1132 0.950 . S
C1130 C1129 1.387 . S
C1130 C1133 1.387 . S
H1131 C1127 0.950 . S
H1132 C1129 0.950 . S
C1133 C1124 1.390 . S
C1133 H1126 0.950 . S
C1133 C1130 1.387 . S
C1134 C1135 1.387 . S
C1134 H1138 0.950 . S
C1134 C1143 1.390 . S
C1135 C1134 1.387 . S
C1135 C1137 1.387 . S
H1136 C1143 0.950 . S
C1137 C1135 1.387 . S
C1137 C1139 1.390 . S
C1137 H1141 0.950 . S
H1138 C1134 0.950 . S
C1139 C1137 1.390 . S
C1139 C1140 1.387 . S
C1139 H1142 0.950 . S
C1140 C1139 1.387 . S
C1140 C1143 1.387 . S
H1141 C1137 0.950 . S
H1142 C1139 0.950 . S
C1143 C1134 1.390 . S
C1143 H1136 0.950 . S
C1143 C1140 1.387 . S
C1144 C1145 1.387 . S
C1144 H1148 0.950 . S
C1144 C1153 1.390 . S
C1145 C1144 1.387 . S
C1145 C1147 1.387 . S
H1146 C1153 0.950 . S
C1147 C1145 1.387 . S
C1147 C1149 1.390 . S
C1147 H1151 0.950 . S
H1148 C1144 0.950 . S
C1149 C1147 1.390 . S
C1149 C1150 1.387 . S
C1149 H1152 0.950 . S
C1150 C1149 1.387 . S
C1150 C1153 1.387 . S
H1151 C1147 0.950 . S
H1152 C1149 0.950 . S
C1153 C1144 1.390 . S
C1153 H1146 0.950 . S
C1153 C1150 1.387 . S
C1154 C1155 1.387 . S
C1154 H1158 0.950 . S
C1154 C1163 1.390 . S
C1155 C1154 1.387 . S
C1155 C1157 1.387 . S
H1156 C1163 0.950 . S
C1157 C1155 1.387 . S
C1157 C1159 1.390 . S
C1157 H1161 0.950 . S
H1158 C1154 0.950 . S
C1159 C1157 1.390 . S
C1159 C1160 1.387 . S
C1159 H1162 0.950 . S
C1160 C1159 1.387 . S
C1160 C1163 1.387 . S
H1161 C1157 0.950 . S
H1162 C1159 0.950 . S
C1163 C1154 1.390 . S
C1163 H1156 0.950 . S
C1163 C1160 1.387 . S
C1164 C1165 1.387 . S
C1164 H1168 0.950 . S
C1164 C1173 1.390 . S
C1165 C1164 1.387 . S
C1165 C1167 1.387 . S
H1166 C1173 0.950 . S
C1167 C1165 1.387 . S
C1167 C1169 1.390 . S
C1167 H1171 0.950 . S
H1168 C1164 0.950 . S
C1169 C1167 1.390 . S
C1169 C1170 1.387 . S
C1169 H1172 0.950 . S
C1170 C1169 1.387 . S
C1170 C1173 1.387 . S
H1171 C1167 0.950 . S
H1172 C1169 0.950 . S
C1173 C1164 1.390 . S
C1173 H1166 0.950 . S
C1173 C1170 1.387 . S
C1174 C1175 1.387 . S
C1174 H1178 0.950 . S
C1174 C1183 1.390 . S
C1175 C1174 1.387 . S
C1175 C1177 1.387 . S
H1176 C1183 0.950 . S
C1177 C1175 1.387 . S
C1177 C1179 1.390 . S
C1177 H1181 0.950 . S
H1178 C1174 0.950 . S
C1179 C1177 1.390 . S
C1179 C1180 1.387 . S
C1179 H1182 0.950 . S
C1180 C1179 1.387 . S
C1180 C1183 1.387 . S
H1181 C1177 0.950 . S
H1182 C1179 0.950 . S
C1183 C1174 1.390 . S
C1183 H1176 0.950 . S
C1183 C1180 1.387 . S
C1184 C1185 1.387 . S
C1184 H1188 0.950 . S
C1184 C1193 1.390 . S
C1185 C1184 1.387 . S
C1185 C1187 1.387 . S
H1186 C1193 0.950 . S
C1187 C1185 1.387 . S
C1187 C1189 1.390 . S
C1187 H1191 0.950 . S
H1188 C1184 0.950 . S
C1189 C1187 1.390 . S
C1189 C1190 1.387 . S
C1189 H1192 0.950 . S
C1190 C1189 1.387 . S
C1190 C1193 1.387 . S
H1191 C1187 0.950 . S
H1192 C1189 0.950 . S
C1193 C1184 1.390 . S
C1193 H1186 0.950 . S
C1193 C1190 1.387 . S
C1194 C1195 1.387 . S
C1194 H1198 0.950 . S
C1194 C1203 1.390 . S
C1195 C1194 1.387 . S
C1195 C1197 1.387 . S
H1196 C1203 0.950 . S
C1197 C1195 1.387 . S
C1197 C1199 1.390 . S
C1197 H1201 0.950 . S
H1198 C1194 0.950 . S
C1199 C1197 1.390 . S
C1199 C1200 1.387 . S
C1199 H1202 0.950 . S
C1200 C1199 1.387 . S
C1200 C1203 1.387 . S
H1201 C1197 0.950 . S
H1202 C1199 0.950 . S
C1203 C1194 1.390 . S
C1203 H1196 0.950 . S
C1203 C1200 1.387 . S
C1204 C1205 1.387 . S
C1204 H1208 0.950 . S
C1204 C1213 1.390 . S
C1205 C1204 1.387 . S
C1205 C1207 1.387 . S
H1206 C1213 0.950 . S
C1207 C1205 1.387 . S
C1207 C1209 1.390 . S
C1207 H1211 0.950 . S
H1208 C1204 0.950 . S
C1209 C1207 1.390 . S
C1209 C1210 1.387 . S
C1209 H1212 0.950 . S
C1210 C1209 1.387 . S
C1210 C1213 1.387 . S
H1211 C1207 0.950 . S
H1212 C1209 0.950 . S
C1213 C1204 1.390 . S
C1213 H1206 0.950 . S
C1213 C1210 1.387 . S
C1214 C1215 1.387 . S
C1214 H1218 0.950 . S
C1214 C1223 1.390 . S
C1215 C1214 1.387 . S
C1215 C1217 1.387 . S
H1216 C1223 0.950 . S
C1217 C1215 1.387 . S
C1217 C1219 1.390 . S
C1217 H1221 0.950 . S
H1218 C1214 0.950 . S
C1219 C1217 1.390 . S
C1219 C1220 1.387 . S
C1219 H1222 0.950 . S
C1220 C1219 1.387 . S
C1220 C1223 1.387 . S
H1221 C1217 0.950 . S
H1222 C1219 0.950 . S
C1223 C1214 1.390 . S
C1223 H1216 0.950 . S
C1223 C1220 1.387 . S
C1224 C1225 1.387 . S
C1224 H1228 0.950 . S
C1224 C1233 1.390 . S
C1225 C1224 1.387 . S
C1225 C1227 1.387 . S
H1226 C1233 0.950 . S
C1227 C1225 1.387 . S
C1227 C1229 1.390 . S
C1227 H1231 0.950 . S
H1228 C1224 0.950 . S
C1229 C1227 1.390 . S
C1229 C1230 1.387 . S
C1229 H1232 0.950 . S
C1230 C1229 1.387 . S
C1230 C1233 1.387 . S
H1231 C1227 0.950 . S
H1232 C1229 0.950 . S
C1233 C1224 1.390 . S
C1233 H1226 0.950 . S
C1233 C1230 1.387 . S
C1234 C1235 1.387 . S
C1234 H1238 0.950 . S
C1234 C1243 1.390 . S
C1235 C1234 1.387 . S
C1235 C1237 1.387 . S
H1236 C1243 0.950 . S
C1237 C1235 1.387 . S
C1237 C1239 1.390 . S
C1237 H1241 0.950 . S
H1238 C1234 0.950 . S
C1239 C1237 1.390 . S
C1239 C1240 1.387 . S
C1239 H1242 0.950 . S
C1240 C1239 1.387 . S
C1240 C1243 1.387 . S
H1241 C1237 0.950 . S
H1242 C1239 0.950 . S
C1243 C1234 1.390 . S
C1243 H1236 0.950 . S
C1243 C1240 1.387 . S
C1244 C1245 1.387 . S
C1244 H1248 0.950 . S
C1244 C1253 1.390 . S
C1245 C1244 1.387 . S
C1245 C1247 1.387 . S
H1246 C1253 0.950 . S
C1247 C1245 1.387 . S
C1247 C1249 1.390 . S
C1247 H1251 0.950 . S
H1248 C1244 0.950 . S
C1249 C1247 1.390 . S
C1249 C1250 1.387 . S
C1249 H1252 0.950 . S
C1250 C1249 1.387 . S
C1250 C1253 1.387 . S
H1251 C1247 0.950 . S
H1252 C1249 0.950 . S
C1253 C1244 1.390 . S
C1253 H1246 0.950 . S
C1253 C1250 1.387 . S
C1254 C1255 1.387 . S
C1254 H1258 0.950 . S
C1254 C1263 1.390 . S
C1255 C1254 1.387 . S
C1255 C1257 1.387 . S
H1256 C1263 0.950 . S
C1257 C1255 1.387 . S
C1257 C1259 1.390 . S
C1257 H1261 0.950 . S
H1258 C1254 0.950 . S
C1259 C1257 1.390 . S
C1259 C1260 1.387 . S
C1259 H1262 0.950 . S
C1260 C1259 1.387 . S
C1260 C1263 1.387 . S
H1261 C1257 0.950 . S
H1262 C1259 0.950 . S
C1263 C1254 1.390 . S
C1263 H1256 0.950 . S
C1263 C1260 1.387 . S
C1264 C1265 1.387 . S
C1264 H1268 0.950 . S
C1264 C1273 1.390 . S
C1265 C1264 1.387 . S
C1265 C1267 1.387 . S
H1266 C1273 0.950 . S
C1267 C1265 1.387 . S
C1267 C1269 1.390 . S
C1267 H1271 0.950 . S
H1268 C1264 0.950 . S
C1269 C1267 1.390 . S
C1269 C1270 1.387 . S
C1269 H1272 0.950 . S
C1270 C1269 1.387 . S
C1270 C1273 1.387 . S
H1271 C1267 0.950 . S
H1272 C1269 0.950 . S
C1273 C1264 1.390 . S
C1273 H1266 0.950 . S
C1273 C1270 1.387 . S
C1274 C1275 1.387 . S
C1274 H1278 0.950 . S
C1274 C1283 1.390 . S
C1275 C1274 1.387 . S
C1275 C1277 1.387 . S
H1276 C1283 0.950 . S
C1277 C1275 1.387 . S
C1277 C1279 1.390 . S
C1277 H1281 0.950 . S
H1278 C1274 0.950 . S
C1279 C1277 1.390 . S
C1279 C1280 1.387 . S
C1279 H1282 0.950 . S
C1280 C1279 1.387 . S
C1280 C1283 1.387 . S
H1281 C1277 0.950 . S
H1282 C1279 0.950 . S
C1283 C1274 1.390 . S
C1283 H1276 0.950 . S
C1283 C1280 1.387 . S
C1284 C1285 1.387 . S
C1284 H1288 0.950 . S
C1284 C1293 1.390 . S
C1285 C1284 1.387 . S
C1285 C1287 1.387 . S
H1286 C1293 0.950 . S
C1287 C1285 1.387 . S
C1287 C1289 1.390 . S
C1287 H1291 0.950 . S
H1288 C1284 0.950 . S
C1289 C1287 1.390 . S
C1289 C1290 1.387 . S
C1289 H1292 0.950 . S
C1290 C1289 1.387 . S
C1290 C1293 1.387 . S
H1291 C1287 0.950 . S
H1292 C1289 0.950 . S
C1293 C1284 1.390 . S
C1293 H1286 0.950 . S
C1293 C1290 1.387 . S
C1294 C1295 1.387 . S
C1294 H1298 0.950 . S
C1294 C1303 1.390 . S
C1295 C1294 1.387 . S
C1295 C1297 1.387 . S
H1296 C1303 0.950 . S
C1297 C1295 1.387 . S
C1297 C1299 1.390 . S
C1297 H1301 0.950 . S
H1298 C1294 0.950 . S
C1299 C1297 1.390 . S
C1299 C1300 1.387 . S
C1299 H1302 0.950 . S
C1300 C1299 1.387 . S
C1300 C1303 1.387 . S
H1301 C1297 0.950 . S
H1302 C1299 0.950 . S
C1303 C1294 1.390 . S
C1303 H1296 0.950 . S
C1303 C1300 1.387 . S
C1304 C1305 1.387 . S
C1304 H1308 0.950 . S
C1304 C1313 1.390 . S
C1305 C1304 1.387 . S
C1305 C1307 1.387 . S
H1306 C1313 0.950 . S
C1307 C1305 1.387 . S
C1307 C1309 1.390 . S
C1307 H1311 0.950 . S
H1308 C1304 0.950 . S
C1309 C1307 1.390 . S
C1309 C1310 1.387 . S
C1309 H1312 0.950 . S
C1310 C1309 1.387 . S
C1310 C1313 1.387 . S
H1311 C1307 0.950 . S
H1312 C1309 0.950 . S
C1313 C1304 1.390 . S
C1313 H1306 0.950 . S
C1313 C1310 1.387 . S
C1314 C1315 1.387 . S
C1314 H1318 0.950 . S
C1314 C1323 1.390 . S
C1315 C1314 1.387 . S
C1315 C1317 1.387 . S
H1316 C1323 0.950 . S
C1317 C1315 1.387 . S
C1317 C1319 1.390 . S
C1317 H1321 0.950 . S
H1318 C1314 0.950 . S
C1319 C1317 1.390 . S
C1319 C1320 1.387 . S
C1319 H1322 0.950 . S
C1320 C1319 1.387 . S
C1320 C1323 1.387 . S
H1321 C1317 0.950 . S
H1322 C1319 0.950 . S
C1323 C1314 1.390 . S
C1323 H1316 0.950 . S
C1323 C1320 1.387 . S
C1324 C1325 1.387 . S
C1324 H1328 0.950 . S
C1324 C1333 1.390 . S
C1325 C1324 1.387 . S
C1325 C1327 1.387 . S
H1326 C1333 0.950 . S
C1327 C1325 1.387 . S
C1327 C1329 1.390 . S
C1327 H1331 0.950 . S
H1328 C1324 0.950 . S
C1329 C1327 1.390 . S
C1329 C1330 1.387 . S
C1329 H1332 0.950 . S
C1330 C1329 1.387 . S
C1330 C1333 1.387 . S
H1331 C1327 0.950 . S
H1332 C1329 0.950 . S
C1333 C1324 1.390 . S
C1333 H1326 0.950 . S
C1333 C1330 1.387 . S
C1334 C1335 1.387 . S
C1334 H1338 0.950 . S
C1334 C1343 1.390 . S
C1335 C1334 1.387 . S
C1335 C1337 1.387 . S
H1336 C1343 0.950 . S
C1337 C1335 1.387 . S
C1337 C1339 1.390 . S
C1337 H1341 0.950 . S
H1338 C1334 0.950 . S
C1339 C1337 1.390 . S
C1339 C1340 1.387 . S
C1339 H1342 0.950 . S
C1340 C1339 1.387 . S
C1340 C1343 1.387 . S
H1341 C1337 0.950 . S
H1342 C1339 0.950 . S
C1343 C1334 1.390 . S
C1343 H1336 0.950 . S
C1343 C1340 1.387 . S
C1344 C1345 1.387 . S
C1344 H1348 0.950 . S
C1344 C1353 1.390 . S
C1345 C1344 1.387 . S
C1345 C1347 1.387 . S
H1346 C1353 0.950 . S
C1347 C1345 1.387 . S
C1347 C1349 1.390 . S
C1347 H1351 0.950 . S
H1348 C1344 0.950 . S
C1349 C1347 1.390 . S
C1349 C1350 1.387 . S
C1349 H1352 0.950 . S
C1350 C1349 1.387 . S
C1350 C1353 1.387 . S
H1351 C1347 0.950 . S
H1352 C1349 0.950 . S
C1353 C1344 1.390 . S
C1353 H1346 0.950 . S
C1353 C1350 1.387 . S
C1354 C1355 1.387 . S
C1354 H1358 0.950 . S
C1354 C1363 1.390 . S
C1355 C1354 1.387 . S
C1355 C1357 1.387 . S
H1356 C1363 0.950 . S
C1357 C1355 1.387 . S
C1357 C1359 1.390 . S
C1357 H1361 0.950 . S
H1358 C1354 0.950 . S
C1359 C1357 1.390 . S
C1359 C1360 1.387 . S
C1359 H1362 0.950 . S
C1360 C1359 1.387 . S
C1360 C1363 1.387 . S
H1361 C1357 0.950 . S
H1362 C1359 0.950 . S
C1363 C1354 1.390 . S
C1363 H1356 0.950 . S
C1363 C1360 1.387 . S
C1364 C1365 1.387 . S
C1364 H1368 0.950 . S
C1364 C1373 1.390 . S
C1365 C1364 1.387 . S
C1365 C1367 1.387 . S
H1366 C1373 0.950 . S
C1367 C1365 1.387 . S
C1367 C1369 1.390 . S
C1367 H1371 0.950 . S
H1368 C1364 0.950 . S
C1369 C1367 1.390 . S
C1369 C1370 1.387 . S
C1369 H1372 0.950 . S
C1370 C1369 1.387 . S
C1370 C1373 1.387 . S
H1371 C1367 0.950 . S
H1372 C1369 0.950 . S
C1373 C1364 1.390 . S
C1373 H1366 0.950 . S
C1373 C1370 1.387 . S
C1374 C1375 1.387 . S
C1374 H1378 0.950 . S
C1374 C1383 1.390 . S
C1375 C1374 1.387 . S
C1375 C1377 1.387 . S
H1376 C1383 0.950 . S
C1377 C1375 1.387 . S
C1377 C1379 1.390 . S
C1377 H1381 0.950 . S
H1378 C1374 0.950 . S
C1379 C1377 1.390 . S
C1379 C1380 1.387 . S
C1379 H1382 0.950 . S
C1380 C1379 1.387 . S
C1380 C1383 1.387 . S
H1381 C1377 0.950 . S
H1382 C1379 0.950 . S
C1383 C1374 1.390 . S
C1383 H1376 0.950 . S
C1383 C1380 1.387 . S
C1384 C1385 1.387 . S
C1384 H1388 0.950 . S
C1384 C1393 1.390 . S
C1385 C1384 1.387 . S
C1385 C1387 1.387 . S
H1386 C1393 0.950 . S
C1387 C1385 1.387 . S
C1387 C1389 1.390 . S
C1387 H1391 0.950 . S
H1388 C1384 0.950 . S
C1389 C1387 1.390 . S
C1389 C1390 1.387 . S
C1389 H1392 0.950 . S
C1390 C1389 1.387 . S
C1390 C1393 1.387 . S
H1391 C1387 0.950 . S
H1392 C1389 0.950 . S
C1393 C1384 1.390 . S
C1393 H1386 0.950 . S
C1393 C1390 1.387 . S
C1394 C1395 1.387 . S
C1394 H1398 0.950 . S
C1394 C1403 1.390 . S
C1395 C1394 1.387 . S
C1395 C1397 1.387 . S
H1396 C1403 0.950 . S
C1397 C1395 1.387 . S
C1397 C1399 1.390 . S
C1397 H1401 0.950 . S
H1398 C1394 0.950 . S
C1399 C1397 1.390 . S
C1399 C1400 1.387 . S
C1399 H1402 0.950 . S
C1400 C1399 1.387 . S
C1400 C1403 1.387 . S
H1401 C1397 0.950 . S
H1402 C1399 0.950 . S
C1403 C1394 1.390 . S
C1403 H1396 0.950 . S
C1403 C1400 1.387 . S
C1404 C1405 1.387 . S
C1404 H1408 0.950 . S
C1404 C1413 1.390 . S
C1405 C1404 1.387 . S
C1405 C1407 1.387 . S
H1406 C1413 0.950 . S
C1407 C1405 1.387 . S
C1407 C1409 1.390 . S
C1407 H1411 0.950 . S
H1408 C1404 0.950 . S
C1409 C1407 1.390 . S
C1409 C1410 1.387 . S
C1409 H1412 0.950 . S
C1410 C1409 1.387 . S
C1410 C1413 1.387 . S
H1411 C1407 0.950 . S
H1412 C1409 0.950 . S
C1413 C1404 1.390 . S
C1413 H1406 0.950 . S
C1413 C1410 1.387 . S
C1414 C1415 1.387 . S
C1414 H1418 0.950 . S
C1414 C1423 1.390 . S
C1415 C1414 1.387 . S
C1415 C1417 1.387 . S
H1416 C1423 0.950 . S
C1417 C1415 1.387 . S
C1417 C1419 1.390 . S
C1417 H1421 0.950 . S
H1418 C1414 0.950 . S
C1419 C1417 1.390 . S
C1419 C1420 1.387 . S
C1419 H1422 0.950 . S
C1420 C1419 1.387 . S
C1420 C1423 1.387 . S
H1421 C1417 0.950 . S
H1422 C1419 0.950 . S
C1423 C1414 1.390 . S
C1423 H1416 0.950 . S
C1423 C1420 1.387 . S
C1424 C1425 1.387 . S
C1424 H1428 0.950 . S
C1424 C1433 1.390 . S
C1425 C1424 1.387 . S
C1425 C1427 1.387 . S
H1426 C1433 0.950 . S
C1427 C1425 1.387 . S
C1427 C1429 1.390 . S
C1427 H1431 0.950 . S
H1428 C1424 0.950 . S
C1429 C1427 1.390 . S
C1429 C1430 1.387 . S
C1429 H1432 0.950 . S
C1430 C1429 1.387 . S
C1430 C1433 1.387 . S
H1431 C1427 0.950 . S
H1432 C1429 0.950 . S
C1433 C1424 1.390 . S
C1433 H1426 0.950 . S
C1433 C1430 1.387 . S
C1434 C1435 1.387 . S
C1434 H1438 0.950 . S
C1434 C1443 1.390 . S
C1435 C1434 1.387 . S
C1435 C1437 1.387 . S
H1436 C1443 0.950 . S
C1437 C1435 1.387 . S
C1437 C1439 1.390 . S
C1437 H1441 0.950 . S
H1438 C1434 0.950 . S
C1439 C1437 1.390 . S
C1439 C1440 1.387 . S
C1439 H1442 0.950 . S
C1440 C1439 1.387 . S
C1440 C1443 1.387 . S
H1441 C1437 0.950 . S
H1442 C1439 0.950 . S
C1443 C1434 1.390 . S
C1443 H1436 0.950 . S
C1443 C1440 1.387 . S
C1444 C1445 1.387 . S
C1444 H1448 0.950 . S
C1444 C1453 1.390 . S
C1445 C1444 1.387 . S
C1445 C1447 1.387 . S
H1446 C1453 0.950 . S
C1447 C1445 1.387 . S
C1447 C1449 1.390 . S
C1447 H1451 0.950 . S
H1448 C1444 0.950 . S
C1449 C1447 1.390 . S
C1449 C1450 1.387 . S
C1449 H1452 0.950 . S
C1450 C1449 1.387 . S
C1450 C1453 1.387 . S
H1451 C1447 0.950 . S
H1452 C1449 0.950 . S
C1453 C1444 1.390 . S
C1453 H1446 0.950 . S
C1453 C1450 1.387 . S
C1454 C1455 1.387 . S
C1454 H1458 0.950 . S
C1454 C1463 1.390 . S
C1455 C1454 1.387 . S
C1455 C1457 1.387 . S
H1456 C1463 0.950 . S
C1457 C1455 1.387 . S
C1457 C1459 1.390 . S
C1457 H1461 0.950 . S
H1458 C1454 0.950 . S
C1459 C1457 1.390 . S
C1459 C1460 1.387 . S
C1459 H1462 0.950 . S
C1460 C1459 1.387 . S
C1460 C1463 1.387 . S
H1461 C1457 0.950 . S
H1462 C1459 0.950 . S
C1463 C1454 1.390 . S
C1463 H1456 0.950 . S
C1463 C1460 1.387 . S
C1464 C1465 1.387 . S
C1464 H1468 0.950 . S
C1464 C1473 1.390 . S
C1465 C1464 1.387 . S
C1465 C1467 1.387 . S
H1466 C1473 0.950 . S
C1467 C1465 1.387 . S
C1467 C1469 1.390 . S
C1467 H1471 0.950 . S
H1468 C1464 0.950 . S
C1469 C1467 1.390 . S
C1469 C1470 1.387 . S
C1469 H1472 0.950 . S
C1470 C1469 1.387 . S
C1470 C1473 1.387 . S
H1471 C1467 0.950 . S
H1472 C1469 0.950 . S
C1473 C1464 1.390 . S
C1473 H1466 0.950 . S
C1473 C1470 1.387 . S
C1474 C1475 1.387 . S
C1474 H1478 0.950 . S
C1474 C1483 1.390 . S
C1475 C1474 1.387 . S
C1475 C1477 1.387 . S
H1476 C1483 0.950 . S
C1477 C1475 1.387 . S
C1477 C1479 1.390 . S
C1477 H1481 0.950 . S
H1478 C1474 0.950 . S
C1479 C1477 1.390 . S
C1479 C1480 1.387 . S
C1479 H1482 0.950 . S
C1480 C1479 1.387 . S
C1480 C1483 1.387 . S
H1481 C1477 0.950 . S
H1482 C1479 0.950 . S
C1483 C1474 1.390 . S
C1483 H1476 0.950 . S
C1483 C1480 1.387 . S
C1484 C1485 1.387 . S
C1484 H1488 0.950 . S
C1484 C1493 1.390 . S
C1485 C1484 1.387 . S
C1485 C1487 1.387 . S
H1486 C1493 0.950 . S
C1487 C1485 1.387 . S
C1487 C1489 1.390 . S
C1487 H1491 0.950 . S
H1488 C1484 0.950 . S
C1489 C1487 1.390 . S
C1489 C1490 1.387 . S
C1489 H1492 0.950 . S
C1490 C1489 1.387 . S
C1490 C1493 1.387 . S
H1491 C1487 0.950 . S
H1492 C1489 0.950 . S
C1493 C1484 1.390 . S
C1493 H1486 0.950 . S
C1493 C1490 1.387 . S
C1494 C1495 1.387 . S
C1494 H1498 0.950 . S
C1494 C1503 1.390 . S
C1495 C1494 1.387 . S
C1495 C1497 1.387 . S
H1496 C1503 0.950 . S
C1497 C1495 1.387 . S
C1497 C1499 1.390 . S
C1497 H1501 0.950 . S
H1498 C1494 0.950 . S
C1499 C1497 1.390 . S
C1499 C1500 1.387 . S
C1499 H1502 0.950 . S
C1500 C1499 1.387 . S
C1500 C1503 1.387 . S
H1501 C1497 0.950 . S
H1502 C1499 0.950 . S
C1503 C1494 1.390 . S
C1503 H1496 0.950 . S
C1503 C1500 1.387 . S
C1504 C1505 1.387 . S
C1504 H1508 0.950 . S
C1504 C1513 1.390 . S
C1505 C1504 1.387 . S
C1505 C1507 1.387 . S
H1506 C1513 0.950 . S
C1507 C1505 1.387 . S
C1507 C1509 1.390 . S
C1507 H1511 0.950 . S
H1508 C1504 0.950 . S
C1509 C1507 1.390 . S
C1509 C1510 1.387 . S
C1509 H1512 0.950 . S
C1510 C1509 1.387 . S
C1510 C1513 1.387 . S
H1511 C1507 0.950 . S
H1512 C1509 0.950 . S
C1513 C1504 1.390 . S
C1513 H1506 0.950 . S
C1513 C1510 1.387 . S
C1514 C1515 1.387 . S
C1514 H1518 0.950 . S
C1514 C1523 1.390 . S
C1515 C1514 1.387 . S
C1515 C1517 1.387 . S
H1516 C1523 0.950 . S
C1517 C1515 1.387 . S
C1517 C1519 1.390 . S
C1517 H1521 0.950 . S
H1518 C1514 0.950 . S
C1519 C1517 1.390 . S
C1519 C1520 1.387 . S
C1519 H1522 0.950 . S
C1520 C1519 1.387 . S
C1520 C1523 1.387 . S
H1521 C1517 0.950 . S
H1522 C1519 0.950 . S
C1523 C1514 1.390 . S
C1523 H1516 0.950 . S
C1523 C1520 1.387 . S
C1524 C1525 1.387 . S
C1524 H1528 0.950 . S
C1524 C1533 1.390 . S
C1525 C1524 1.387 . S
C1525 C1527 1.387 . S
H1526 C1533 0.950 . S
C1527 C1525 1.387 . S
C1527 C1529 1.390 . S
C1527 H1531 0.950 . S
H1528 C1524 0.950 . S
C1529 C1527 1.390 . S
C1529 C1530 1.387 . S
C1529 H1532 0.950 . S
C1530 C1529 1.387 . S
C1530 C1533 1.387 . S
H1531 C1527 0.950 . S
H1532 C1529 0.950 . S
C1533 C1524 1.390 . S
C1533 H1526 0.950 . S
C1533 C1530 1.387 . S
C1534 C1535 1.387 . S
C1534 H1538 0.950 . S
C1534 C1543 1.390 . S
C1535 C1534 1.387 . S
C1535 C1537 1.387 . S
H1536 C1543 0.950 . S
C1537 C1535 1.387 . S
C1537 C1539 1.390 . S
C1537 H1541 0.950 . S
H1538 C1534 0.950 . S
C1539 C1537 1.390 . S
C1539 C1540 1.387 . S
C1539 H1542 0.950 . S
C1540 C1539 1.387 . S
C1540 C1543 1.387 . S
H1541 C1537 0.950 . S
H1542 C1539 0.950 . S
C1543 C1534 1.390 . S
C1543 H1536 0.950 . S
C1543 C1540 1.387 . S
C1544 C1545 1.387 . S
C1544 H1548 0.950 . S
C1544 C1553 1.390 . S
C1545 C1544 1.387 . S
C1545 C1547 1.387 . S
H1546 C1553 0.950 . S
C1547 C1545 1.387 . S
C1547 C1549 1.390 . S
C1547 H1551 0.950 . S
H1548 C1544 0.950 . S
C1549 C1547 1.390 . S
C1549 C1550 1.387 . S
C1549 H1552 0.950 . S
C1550 C1549 1.387 . S
C1550 C1553 1.387 . S
H1551 C1547 0.950 . S
H1552 C1549 0.950 . S
C1553 C1544 1.390 . S
C1553 H1546 0.950 . S
C1553 C1550 1.387 . S
C1554 C1555 1.387 . S
C1554 H1558 0.950 . S
C1554 C1563 1.390 . S
C1555 C1554 1.387 . S
C1555 C1557 1.387 . S
H1556 C1563 0.950 . S
C1557 C1555 1.387 . S
C1557 C1559 1.390 . S
C1557 H1561 0.950 . S
H1558 C1554 0.950 . S
C1559 C1557 1.390 . S
C1559 C1560 1.387 . S
C1559 H1562 0.950 . S
C1560 C1559 1.387 . S
C1560 C1563 1.387 . S
H1561 C1557 0.950 . S
H1562 C1559 0.950 . S
C1563 C1554 1.390 . S
C1563 H1556 0.950 . S
C1563 C1560 1.387 . S
C1564 C1565 1.387 . S
C1564 H1568 0.950 . S
C1564 C1573 1.390 . S
C1565 C1564 1.387 . S
C1565 C1567 1.387 . S
H1566 C1573 0.950 . S
C1567 C1565 1.387 . S
C1567 C1569 1.390 . S
C1567 H1571 0.950 . S
H1568 C1564 0.950 . S
C1569 C1567 1.390 . S
C1569 C1570 1.387 . S
C1569 H1572 0.950 . S
C1570 C1569 1.387 . S
C1570 C1573 1.387 . S
H1571 C1567 0.950 . S
H1572 C1569 0.950 . S
C1573 C1564 1.390 . S
C1573 H1566 0.950 . S
C1573 C1570 1.387 . S
C1574 C1575 1.387 . S
C1574 H1578 0.950 . S
C1574 C1583 1.390 . S
C1575 C1574 1.387 . S
C1575 C1577 1.387 . S
H1576 C1583 0.950 . S
C1577 C1575 1.387 . S
C1577 C1579 1.390 . S
C1577 H1581 0.950 . S
H1578 C1574 0.950 . S
C1579 C1577 1.390 . S
C1579 C1580 1.387 . S
C1579 H1582 0.950 . S
C1580 C1579 1.387 . S
C1580 C1583 1.387 . S
H1581 C1577 0.950 . S
H1582 C1579 0.950 . S
C1583 C1574 1.390 . S
C1583 H1576 0.950 . S
C1583 C1580 1.387 . S
C625 C127 1.810 . S
C630 C4 1.809 . S
C635 C134 1.808 . S
C640 C17 1.808 . S
C645 C153 1.812 . S
C650 C36 1.811 . S
C655 C49 1.811 . S
C660 C108 1.810 . S
C665 C199 1.810 . S
C670 C62 1.811 . S
C675 C69 1.811 . S
C680 C166 1.811 . S
C685 C179 1.808 . S
C690 C82 1.808 . S
C695 C192 1.812 . S
C700 C101 1.812 . S
C705 C218 1.811 . S
C710 C238 1.811 . S
C715 C231 1.812 . S
C720 C290 1.812 . S
C725 C251 1.812 . S
C730 C309 1.811 . S
C735 C264 1.810 . S
C740 C277 1.811 . S
C745 C316 1.809 . S
C750 C433 1.808 . S
C755 C446 1.812 . S
C760 C335 1.812 . S
C765 C342 1.808 . S
C770 C459 1.808 . S
C775 C361 1.812 . S
C780 C426 1.811 . S
C785 C511 1.809 . S
C790 C374 1.809 . S
C795 C478 1.810 . S
C800 C381 1.810 . S
C805 C491 1.810 . S
C810 C400 1.809 . S
C815 C504 1.809 . S
C820 C413 1.810 . S
C825 C530 1.809 . S
C830 C556 1.809 . S
C835 C537 1.811 . S
C840 C608 1.812 . S
C845 C569 1.811 . S
C850 C615 1.811 . S
C855 C589 1.810 . S
C860 C576 1.811 . S
C865 C109 1.361 . S
C870 C3 1.452 . S
C875 C120 1.361 . S
C880 C16 1.452 . S
C885 C31 1.451 . S
C890 C135 1.359 . S
C895 C44 1.451 . S
C900 C146 1.358 . S
C905 C57 1.451 . S
C910 C159 1.358 . S
C915 C68 1.453 . S
C920 C172 1.359 . S
C925 C81 1.451 . S
C930 C185 1.360 . S
C935 C200 1.359 . S
C940 C96 1.453 . S
C945 C107 1.452 . S
C950 C211 1.357 . S
C955 C302 1.357 . S
C960 C122 1.452 . S
C965 C133 1.453 . S
C970 C278 1.359 . S
C975 C148 1.452 . S
C980 C291 1.357 . S
C985 C161 1.453 . S
C990 C224 1.361 . S
C995 C174 1.453 . S
C1000 C239 1.360 . S
C1005 C187 1.451 . S
C1010 C252 1.359 . S
C1015 C265 1.357 . S
C1020 C198 1.452 . S
C1025 C5 1.357 . S
C1030 C213 1.452 . S
C1035 C226 1.452 . S
C1040 C55 1.358 . S
C1045 C237 1.453 . S
C1050 C70 1.359 . S
C1055 C250 1.453 . S
C1060 C83 1.360 . S
C1065 C94 1.357 . S
C1070 C263 1.451 . S
C1075 C276 1.451 . S
C1080 C29 1.357 . S
C1085 C289 1.451 . S
C1090 C42 1.360 . S
C1095 C18 1.361 . S
C1100 C304 1.452 . S
C1105 C419 1.357 . S
C1110 C315 1.451 . S
C1115 C330 1.453 . S
C1120 C434 1.359 . S
C1125 C341 1.451 . S
C1130 C447 1.360 . S
C1135 C460 1.360 . S
C1140 C356 1.451 . S
C1145 C471 1.361 . S
C1150 C369 1.452 . S
C1155 C380 1.451 . S
C1160 C484 1.359 . S
C1165 C497 1.361 . S
C1170 C395 1.452 . S
C1175 C512 1.361 . S
C1180 C408 1.452 . S
C1185 C421 1.451 . S
C1190 C523 1.357 . S
C1195 C432 1.453 . S
C1200 C616 1.358 . S
C1205 C445 1.451 . S
C1210 C590 1.358 . S
C1215 C601 1.357 . S
C1220 C458 1.452 . S
C1225 C473 1.451 . S
C1230 C538 1.358 . S
C1235 C486 1.452 . S
C1240 C549 1.358 . S
C1245 C562 1.357 . S
C1250 C499 1.451 . S
C1255 C577 1.359 . S
C1260 C510 1.451 . S
C1265 C525 1.451 . S
C1270 C317 1.359 . S
C1275 C536 1.453 . S
C1280 C367 1.359 . S
C1285 C382 1.360 . S
C1290 C551 1.453 . S
C1295 C564 1.452 . S
C1300 C393 1.358 . S
C1305 C575 1.453 . S
C1310 C406 1.361 . S
C1315 C343 1.358 . S
C1320 C588 1.452 . S
C1325 C603 1.452 . S
C1330 C354 1.361 . S
C1335 C328 1.358 . S
C1340 C614 1.452 . S
C1345 C407 1.631 . S
C1350 C10 1.633 . S
C1355 C23 1.631 . S
C1360 C368 1.633 . S
C1365 C387 1.634 . S
C1370 C30 1.631 . S
C1375 C394 1.631 . S
C1380 C43 1.634 . S
C1385 C56 1.633 . S
C1390 C329 1.631 . S
C1395 C348 1.631 . S
C1400 C75 1.634 . S
C1405 C355 1.631 . S
C1410 C88 1.634 . S
C1415 C95 1.631 . S
C1420 C322 1.634 . S
C1425 C582 1.631 . S
C1430 C114 1.634 . S
C1435 C121 1.631 . S
C1440 C543 1.634 . S
C1445 C140 1.632 . S
C1450 C550 1.632 . S
C1455 C563 1.631 . S
C1460 C147 1.633 . S
C1465 C621 1.632 . S
C1470 C160 1.633 . S
C1475 C595 1.631 . S
C1480 C173 1.633 . S
C1485 C186 1.633 . S
C1490 C602 1.632 . S
C1495 C524 1.632 . S
C1500 C205 1.632 . S
C1505 C212 1.631 . S
C1510 C517 1.633 . S
C1515 C439 1.633 . S
C1520 C225 1.631 . S
C1525 C244 1.632 . S
C1530 C452 1.632 . S
C1535 C465 1.633 . S
C1540 C257 1.632 . S
C1545 C420 1.633 . S
C1550 C270 1.632 . S
C1555 C283 1.631 . S
C1560 C485 1.634 . S
C1565 C498 1.632 . S
C1570 C296 1.633 . S
C1575 C472 1.633 . S
C1580 C303 1.633 . S
