# Generated by pormake.
# Topology ukb, (4)-cn, num edge types: 1
# Building blocks:
#     Node 0, Type 0, BuildingBlock: QUQFOY_clean_sbu_3, # of connection points: 4
#     Node 1, Type 0, BuildingBlock: QUQFOY_clean_sbu_3, # of connection points: 4
#     Node 2, Type 0, BuildingBlock: QUQFOY_clean_sbu_3, # of connection points: 4
#     Node 3, Type 0, BuildingBlock: QUQFOY_clean_sbu_3, # of connection points: 4
#     Node 4, Type 0, BuildingBlock: QUQFOY_clean_sbu_3, # of connection points: 4
#     Node 5, Type 0, BuildingBlock: QUQFOY_clean_sbu_3, # of connection points: 4
#     Node 6, Type 0, BuildingBlock: QUQFOY_clean_sbu_3, # of connection points: 4
#     Node 7, Type 0, BuildingBlock: QUQFOY_clean_sbu_3, # of connection points: 4
#     Node 8, Type 0, BuildingBlock: QUQFOY_clean_sbu_3, # of connection points: 4
#     Node 9, Type 0, BuildingBlock: QUQFOY_clean_sbu_3, # of connection points: 4
#     Node 10, Type 0, BuildingBlock: QUQFOY_clean_sbu_3, # of connection points: 4
#     Node 11, Type 0, BuildingBlock: QUQFOY_clean_sbu_3, # of connection points: 4
#     Node 12, Type 0, BuildingBlock: QUQFOY_clean_sbu_3, # of connection points: 4
#     Node 13, Type 0, BuildingBlock: QUQFOY_clean_sbu_3, # of connection points: 4
#     Node 14, Type 0, BuildingBlock: QUQFOY_clean_sbu_3, # of connection points: 4
#     Node 15, Type 0, BuildingBlock: QUQFOY_clean_sbu_3, # of connection points: 4
#     Edge 16, Type (0, 0), BuildingBlock: EZIPEK_clean_linker_0, # of connection points: 2
#     Edge 17, Type (0, 0), BuildingBlock: EZIPEK_clean_linker_0, # of connection points: 2
#     Edge 18, Type (0, 0), BuildingBlock: EZIPEK_clean_linker_0, # of connection points: 2
#     Edge 19, Type (0, 0), BuildingBlock: EZIPEK_clean_linker_0, # of connection points: 2
#     Edge 20, Type (0, 0), BuildingBlock: EZIPEK_clean_linker_0, # of connection points: 2
#     Edge 21, Type (0, 0), BuildingBlock: EZIPEK_clean_linker_0, # of connection points: 2
#     Edge 22, Type (0, 0), BuildingBlock: EZIPEK_clean_linker_0, # of connection points: 2
#     Edge 23, Type (0, 0), BuildingBlock: EZIPEK_clean_linker_0, # of connection points: 2
#     Edge 24, Type (0, 0), BuildingBlock: EZIPEK_clean_linker_0, # of connection points: 2
#     Edge 25, Type (0, 0), BuildingBlock: EZIPEK_clean_linker_0, # of connection points: 2
#     Edge 26, Type (0, 0), BuildingBlock: EZIPEK_clean_linker_0, # of connection points: 2
#     Edge 27, Type (0, 0), BuildingBlock: EZIPEK_clean_linker_0, # of connection points: 2
#     Edge 28, Type (0, 0), BuildingBlock: EZIPEK_clean_linker_0, # of connection points: 2
#     Edge 29, Type (0, 0), BuildingBlock: EZIPEK_clean_linker_0, # of connection points: 2
#     Edge 30, Type (0, 0), BuildingBlock: EZIPEK_clean_linker_0, # of connection points: 2
#     Edge 31, Type (0, 0), BuildingBlock: EZIPEK_clean_linker_0, # of connection points: 2
#     Edge 32, Type (0, 0), BuildingBlock: EZIPEK_clean_linker_0, # of connection points: 2
#     Edge 33, Type (0, 0), BuildingBlock: EZIPEK_clean_linker_0, # of connection points: 2
#     Edge 34, Type (0, 0), BuildingBlock: EZIPEK_clean_linker_0, # of connection points: 2
#     Edge 35, Type (0, 0), BuildingBlock: EZIPEK_clean_linker_0, # of connection points: 2
#     Edge 36, Type (0, 0), BuildingBlock: EZIPEK_clean_linker_0, # of connection points: 2
#     Edge 37, Type (0, 0), BuildingBlock: EZIPEK_clean_linker_0, # of connection points: 2
#     Edge 38, Type (0, 0), BuildingBlock: EZIPEK_clean_linker_0, # of connection points: 2
#     Edge 39, Type (0, 0), BuildingBlock: EZIPEK_clean_linker_0, # of connection points: 2
#     Edge 40, Type (0, 0), BuildingBlock: EZIPEK_clean_linker_0, # of connection points: 2
#     Edge 41, Type (0, 0), BuildingBlock: EZIPEK_clean_linker_0, # of connection points: 2
#     Edge 42, Type (0, 0), BuildingBlock: EZIPEK_clean_linker_0, # of connection points: 2
#     Edge 43, Type (0, 0), BuildingBlock: EZIPEK_clean_linker_0, # of connection points: 2
#     Edge 44, Type (0, 0), BuildingBlock: EZIPEK_clean_linker_0, # of connection points: 2
#     Edge 45, Type (0, 0), BuildingBlock: EZIPEK_clean_linker_0, # of connection points: 2
#     Edge 46, Type (0, 0), BuildingBlock: EZIPEK_clean_linker_0, # of connection points: 2
#     Edge 47, Type (0, 0), BuildingBlock: EZIPEK_clean_linker_0, # of connection points: 2
# Relax obj value: 0.083
# Max RMSD: 0.049
# Mean RMSD: 0.049
data_MOF--net-ukb--node1-QUQFOY_clean_sbu_3--edge1-EZIPEK_clean_linker_0
_symmetry_space_group_name_H-M    P1
_symmetry_Int_Tables_number       1
_symmetry_cell_setting            triclinic
loop_
_symmetry_equiv_pos_as_xyz
'x, y, z'
_cell_length_a     33.812484
_cell_length_b     33.656335
_cell_length_c     28.968198
_cell_angle_alpha  89.974903
_cell_angle_beta   89.828092
_cell_angle_gamma 89.673833
loop_
_atom_site_label
_atom_site_type_symbol
_atom_site_fract_x
_atom_site_fract_y
_atom_site_fract_z
_atom_type_partial_charge
C0 C 0.52611 0.21133 0.06506 0.0
O1 O 0.56242 0.20215 0.06866 0.0
Cd2 Cd 0.59545 0.19309 0.14012 0.0
O3 O 0.50325 0.21207 0.10003 0.0
Cd4 Cd 0.50645 0.19832 0.1835 0.0
C5 C 0.56044 0.28188 0.18682 0.0
O6 O 0.55703 0.14754 0.18272 0.0
O7 O 0.54544 0.17328 0.2495 0.0
O8 O 0.4519 0.15499 0.17043 0.0
C9 C 0.56359 0.1473 0.22568 0.0
O10 O 0.58841 0.25988 0.17171 0.0
C11 C 0.4314 0.1667 0.20457 0.0
O12 O 0.52566 0.26821 0.19263 0.0
O13 O 0.44462 0.19558 0.22818 0.0
C14 C 0.28449 0.5233 0.58465 0.0
O15 O 0.29492 0.55871 0.5936 0.0
Cd16 Cd 0.31307 0.58551 0.66658 0.0
O17 O 0.28462 0.49599 0.61515 0.0
Cd18 Cd 0.29982 0.48584 0.69755 0.0
C19 C 0.22528 0.55353 0.7166 0.0
O20 O 0.35099 0.53269 0.69404 0.0
O21 O 0.34662 0.50626 0.76078 0.0
O22 O 0.32275 0.42112 0.67268 0.0
C23 C 0.36202 0.53277 0.73552 0.0
O24 O 0.24831 0.58124 0.70343 0.0
C25 C 0.30552 0.40169 0.70451 0.0
O26 O 0.23624 0.51719 0.71675 0.0
O27 O 0.28624 0.4221 0.73397 0.0
C28 C 0.96428 0.26844 0.0822 0.0
O29 O 0.92715 0.27451 0.08178 0.0
Cd30 Cd 0.883 0.29224 0.14269 0.0
O31 O 0.98496 0.27273 0.11856 0.0
Cd32 Cd 0.97297 0.29263 0.19956 0.0
C33 C 0.91109 0.21373 0.2136 0.0
O34 O 0.92123 0.33877 0.18146 0.0
O35 O 0.93582 0.33706 0.25318 0.0
O36 O 0.033 0.3304 0.19813 0.0
C37 C 0.91299 0.34996 0.22194 0.0
O38 O 0.88584 0.2322 0.18891 0.0
C39 C 0.0468 0.31564 0.23512 0.0
O40 O 0.94507 0.22816 0.22231 0.0
O41 O 0.0277 0.28746 0.25388 0.0
C42 C 0.19367 0.96599 0.5674 0.0
O43 O 0.18427 0.93022 0.55944 0.0
Cd44 Cd 0.17095 0.8814 0.61612 0.0
O45 O 0.19346 0.98014 0.60808 0.0
Cd46 Cd 0.17607 0.95863 0.68706 0.0
C47 C 0.2548 0.89507 0.68316 0.0
O48 O 0.12486 0.91165 0.66769 0.0
O49 O 0.14044 0.91317 0.7397 0.0
O50 O 0.13786 0.01893 0.6921 0.0
C51 C 0.11948 0.89809 0.70803 0.0
O52 O 0.23512 0.87458 0.65439 0.0
C53 C 0.15693 0.03382 0.72548 0.0
O54 O 0.24112 0.92737 0.70003 0.0
O55 O 0.18559 0.01357 0.74167 0.0
C56 C 0.51757 0.2737 0.88552 0.0
O57 O 0.55118 0.28997 0.8813 0.0
Cd58 Cd 0.57961 0.3138 0.81146 0.0
O59 O 0.49386 0.27054 0.85168 0.0
Cd60 Cd 0.49184 0.28919 0.76938 0.0
C61 C 0.56744 0.22378 0.75607 0.0
O62 O 0.527 0.35018 0.77886 0.0
O63 O 0.52029 0.33275 0.70878 0.0
O64 O 0.42391 0.30768 0.7839 0.0
C65 C 0.5328 0.35863 0.73696 0.0
O66 O 0.59026 0.25087 0.77109 0.0
C67 C 0.40978 0.29159 0.74792 0.0
O68 O 0.53015 0.22907 0.75381 0.0
O69 O 0.43437 0.27382 0.72173 0.0
C70 C 0.21652 0.53761 0.40857 0.0
O71 O 0.2087 0.57451 0.40613 0.0
Cd72 Cd 0.18834 0.60913 0.33876 0.0
O73 O 0.21087 0.51408 0.37485 0.0
Cd74 Cd 0.18408 0.513 0.29573 0.0
C75 C 0.26388 0.56775 0.26946 0.0
O76 O 0.13952 0.56722 0.31031 0.0
O77 O 0.13703 0.54457 0.24133 0.0
O78 O 0.15636 0.45267 0.3267 0.0
C79 C 0.12634 0.57111 0.26979 0.0
O80 O 0.24659 0.59522 0.29228 0.0
C81 C 0.15421 0.4351 0.28805 0.0
O82 O 0.24822 0.53366 0.26396 0.0
O83 O 0.16956 0.45239 0.25336 0.0
C84 C 0.96474 0.20627 0.90769 0.0
O85 O 0.92861 0.19622 0.90803 0.0
Cd86 Cd 0.89104 0.17858 0.84209 0.0
O87 O -0.01423 0.20422 0.87127 0.0
Cd88 Cd 0.98085 0.18163 0.79047 0.0
C89 C 0.91799 0.25972 0.77429 0.0
O90 O 0.93185 0.13169 0.80374 0.0
O91 O 0.94677 0.13991 0.73231 0.0
O92 O 0.04086 0.14784 0.81119 0.0
C93 C 0.92567 0.12226 0.76211 0.0
O94 O 0.89311 0.24076 0.79881 0.0
C95 C 0.06122 0.1586 0.77655 0.0
O96 O 0.95261 0.24606 0.766 0.0
O97 O 0.04346 0.18041 0.74718 0.0
C98 C 0.25005 0.9741 0.39622 0.0
O99 O 0.25458 0.93671 0.3977 0.0
Cd100 Cd 0.26607 0.89562 0.33282 0.0
O101 O 0.25496 -0.00647 0.35901 0.0
Cd102 Cd 0.27685 0.97878 0.27916 0.0
C103 C 0.1901 0.93237 0.26503 0.0
O104 O 0.32134 0.92314 0.29409 0.0
O105 O 0.3068 0.93335 0.22248 0.0
O106 O 0.32039 0.03249 0.29606 0.0
C107 C 0.32658 0.91399 0.25209 0.0
O108 O 0.20549 0.90432 0.28852 0.0
C109 C 0.31666 0.0499 0.25749 0.0
O110 O 0.20852 0.96469 0.25751 0.0
O111 O 0.29209 0.03549 0.22891 0.0
C112 C 0.45375 0.76212 0.89556 0.0
O113 O 0.41671 0.76835 0.89525 0.0
Cd114 Cd 0.37882 0.77348 0.82644 0.0
O115 O 0.47411 0.76261 0.85866 0.0
Cd116 Cd 0.46521 0.77616 0.77622 0.0
C117 C 0.41884 0.68801 0.77682 0.0
O118 O 0.41061 0.82244 0.78149 0.0
O119 O 0.42195 0.79981 0.71307 0.0
O120 O 0.51585 0.82241 0.79344 0.0
C121 C 0.40234 0.82315 0.73894 0.0
O122 O 0.38998 0.70748 0.79419 0.0
C123 C 0.5372 0.8151 0.7584 0.0
O124 O 0.45183 0.70476 0.76826 0.0
O125 O 0.52615 0.78748 0.73136 0.0
C126 C 0.69653 0.46118 0.38234 0.0
O127 O 0.68556 0.42525 0.37855 0.0
Cd128 Cd 0.66955 0.39116 0.30862 0.0
O129 O 0.69769 0.48463 0.34789 0.0
Cd130 Cd 0.68322 0.48687 0.26477 0.0
C131 C 0.75832 0.41869 0.25584 0.0
O132 O 0.63229 0.43954 0.27122 0.0
O133 O 0.63976 0.46045 0.20203 0.0
O134 O 0.65516 0.54886 0.28905 0.0
C135 C 0.62344 0.43591 0.22917 0.0
O136 O 0.73452 0.39301 0.27234 0.0
C137 C 0.66846 0.56974 0.25599 0.0
O138 O 0.74814 0.45506 0.25064 0.0
O139 O 0.68928 0.55145 0.226 0.0
C140 C 0.03008 0.6968 0.89611 0.0
O141 O 0.0671 0.69128 0.89181 0.0
Cd142 Cd 0.10179 0.67244 0.82421 0.0
O143 O 0.00589 0.68993 0.8634 0.0
Cd144 Cd 0.00592 0.66343 0.78337 0.0
C145 C 0.05734 0.746 0.75518 0.0
O146 O 0.06135 0.62145 0.79856 0.0
O147 O 0.04126 0.61835 0.72868 0.0
O148 O 0.9473 0.62987 0.81115 0.0
C149 C 0.06692 0.60834 0.7583 0.0
O150 O 0.08609 0.72992 0.77675 0.0
C151 C 0.9301 0.62929 0.77224 0.0
O152 O 0.02379 0.72904 0.75174 0.0
O153 O 0.94667 0.64778 0.73921 0.0
C154 C 0.76679 -0.00047 0.40647 0.0
O155 O 0.77689 0.03533 0.41268 0.0
Cd156 Cd 0.78972 0.08269 0.3549 0.0
O157 O 0.76572 0.98421 0.36636 0.0
Cd158 Cd 0.78309 0.0058 0.28716 0.0
C159 C 0.70546 0.06916 0.28869 0.0
O160 O 0.83619 0.05222 0.30439 0.0
O161 O 0.81559 0.05275 0.23413 0.0
O162 O 0.82172 0.94606 0.28106 0.0
C163 C 0.83949 0.06603 0.2639 0.0
O164 O 0.72596 0.08996 0.31633 0.0
C165 C 0.80563 0.9336 0.24439 0.0
O166 O 0.71805 0.03595 0.27324 0.0
O167 O 0.77719 0.95396 0.22794 0.0
C168 C 0.46083 0.71042 0.07331 0.0
O169 O 0.42498 0.69965 0.0717 0.0
Cd170 Cd 0.38446 0.68416 0.13529 0.0
O171 O 0.48027 0.71063 0.11088 0.0
Cd172 Cd 0.47045 0.6916 0.19275 0.0
C173 C 0.40533 0.7689 0.19992 0.0
O174 O 0.42395 0.63942 0.17853 0.0
O175 O 0.43251 0.65202 0.25041 0.0
O176 O 0.53162 0.65505 0.18788 0.0
C177 C 0.41493 0.63165 0.21996 0.0
O178 O 0.38244 0.7486 0.17439 0.0
C179 C 0.54909 0.67365 0.21992 0.0
O180 O 0.43929 0.75593 0.21199 0.0
O181 O 0.53016 0.70188 0.23924 0.0
C182 C 0.75039 0.45308 0.56064 0.0
O183 O 0.75216 0.4155 0.55969 0.0
Cd184 Cd 0.76248 0.3756 0.62519 0.0
O185 O 0.75645 0.47238 0.59769 0.0
Cd186 Cd 0.77397 0.45315 0.67797 0.0
C187 C 0.68461 0.41006 0.6876 0.0
O188 O 0.82136 0.39928 0.66149 0.0
O189 O 0.79997 0.40225 0.73152 0.0
O190 O 0.82022 0.50768 0.67813 0.0
C191 C 0.82435 0.38746 0.70282 0.0
O192 O 0.7003 0.38066 0.66682 0.0
C193 C 0.80896 0.52209 0.71644 0.0
O194 O 0.70394 0.44181 0.69452 0.0
O195 O 0.77978 0.5057 0.73637 0.0
C196 C 0.02866 0.76805 0.07032 0.0
O197 O 0.06405 0.77986 0.07437 0.0
Cd198 Cd 0.09052 0.80467 0.14454 0.0
O199 O 0.0039 0.77102 0.10328 0.0
Cd200 Cd 0.00132 0.7972 0.18248 0.0
C201 C 0.06335 0.72309 0.21054 0.0
O202 O 0.04358 0.85344 0.16648 0.0
O203 O 0.03327 0.84233 0.23795 0.0
O204 O 0.93851 0.81885 0.1518 0.0
C205 C 0.04729 0.86546 0.20752 0.0
O206 O 0.0897 0.74527 0.19265 0.0
C207 C 0.9218 0.82272 0.19076 0.0
O208 O 0.02699 0.73334 0.21055 0.0
O209 O 0.94043 0.80984 0.22583 0.0
C210 C 0.71548 0.00727 0.57883 0.0
O211 O 0.71017 0.04447 0.57432 0.0
Cd212 Cd 0.69788 0.0917 0.63402 0.0
O213 O 0.71161 -0.01014 0.61752 0.0
Cd214 Cd 0.69102 0.00569 0.69687 0.0
C215 C 0.77419 0.06068 0.7074 0.0
O216 O 0.64868 0.0603 0.67718 0.0
O217 O 0.65184 0.04789 0.74979 0.0
O218 O 0.64827 0.95177 0.68065 0.0
C219 C 0.63947 0.07048 0.71785 0.0
O220 O 0.75751 0.08483 0.67957 0.0
C221 C 0.65424 0.93311 0.71802 0.0
O222 O 0.75744 0.02847 0.71998 0.0
O223 O 0.67945 0.94728 0.74606 0.0
C224 C 0.35987 0.14786 0.21453 0.0
C225 C 0.40049 0.14036 0.2228 0.0
C226 C 0.38582 0.07314 0.24865 0.0
C227 C 0.34479 0.08133 0.24426 0.0
N228 N 0.29202 0.12818 0.22968 0.0
N229 N 0.45115 0.10018 0.2586 0.0
C230 C 0.33147 0.11922 0.22898 0.0
C231 C 0.41307 0.1044 0.24349 0.0
N232 N 0.34867 0.18175 0.19205 0.0
N233 N 0.39907 0.03502 0.25489 0.0
H234 H 0.47212 0.12268 0.25573 0.0
H235 H 0.46071 0.07602 0.27822 0.0
H236 H 0.38037 0.01052 0.25614 0.0
H237 H 0.42889 0.0271 0.25348 0.0
H238 H 0.31998 0.18705 0.1805 0.0
H239 H 0.36884 0.2037 0.18265 0.0
H240 H 0.28078 0.15648 0.22317 0.0
H241 H 0.27059 0.10793 0.24032 0.0
C242 C 0.33246 0.33662 0.67493 0.0
C243 C 0.31355 0.35834 0.71075 0.0
C244 C 0.3409 0.31324 0.76817 0.0
C245 C 0.3681 0.29983 0.7342 0.0
N246 N 0.37388 0.27979 0.65471 0.0
N247 N 0.28081 0.35089 0.78414 0.0
C248 C 0.35861 0.30509 0.68702 0.0
C249 C 0.31131 0.34118 0.7553 0.0
N250 N 0.32566 0.34672 0.63002 0.0
N251 N 0.34444 0.30002 0.8125 0.0
H252 H 0.25687 0.368 0.77294 0.0
H253 H 0.27668 0.33821 0.81656 0.0
H254 H 0.36389 0.27697 0.82111 0.0
H255 H 0.32865 0.31183 0.84023 0.0
H256 H 0.34164 0.33533 0.60222 0.0
H257 H 0.3033 0.36677 0.62097 0.0
H258 H 0.36724 0.28127 0.6197 0.0
H259 H 0.38952 0.25424 0.66402 0.0
C260 C 0.06851 0.36276 0.295 0.0
C261 C 0.07908 0.33624 0.25914 0.0
C262 C 0.14432 0.36708 0.25434 0.0
C263 C 0.1302 0.39877 0.28237 0.0
N264 N 0.07461 0.42989 0.32204 0.0
N265 N 0.12699 0.3119 0.20445 0.0
C266 C 0.09146 0.39722 0.30164 0.0
C267 C 0.11721 0.33777 0.23899 0.0
N268 N 0.03558 0.35617 0.32131 0.0
N269 N 0.18351 0.36476 0.24303 0.0
H270 H 0.10834 0.28883 0.19452 0.0
H271 H 0.15259 0.3144 0.18458 0.0
H272 H 0.20418 0.38514 0.25507 0.0
H273 H 0.19605 0.34065 0.22571 0.0
H274 H 0.02884 0.3729 0.3506 0.0
H275 H 0.01748 0.33152 0.3171 0.0
H276 H 0.04499 0.43104 0.33202 0.0
H277 H 0.08806 0.45756 0.32395 0.0
C278 C 0.13589 0.07963 0.79009 0.0
C279 C 0.14607 0.07374 0.74301 0.0
C280 C 0.11767 0.13883 0.72318 0.0
C281 C 0.101 0.14029 0.76808 0.0
N282 N 0.11412 0.12701 0.84801 0.0
N283 N 0.15966 0.10279 0.66871 0.0
C284 C 0.11703 0.11565 0.80292 0.0
C285 C 0.14128 0.10525 0.71073 0.0
N286 N 0.14109 0.05004 0.82182 0.0
N287 N 0.11113 0.16943 0.69319 0.0
H288 H 0.17851 0.07924 0.66012 0.0
H289 H 0.15856 0.12475 0.6435 0.0
H290 H 0.09989 0.19672 0.7043 0.0
H291 H 0.11846 0.16884 0.65832 0.0
H292 H 0.12966 0.05151 0.85523 0.0
H293 H 0.15453 0.02293 0.81424 0.0
H294 H 0.12774 0.11171 0.87493 0.0
H295 H 0.10204 0.15453 0.85731 0.0
C296 C 0.55687 0.88361 0.7388 0.0
C297 C 0.56836 0.84349 0.74558 0.0
C298 C 0.63786 0.86144 0.73402 0.0
C299 C 0.62623 0.90194 0.73173 0.0
N300 N 0.57607 0.95244 0.74278 0.0
N301 N 0.61946 0.79397 0.75472 0.0
C302 C 0.58613 0.91326 0.73741 0.0
C303 C 0.60883 0.83218 0.74449 0.0
N304 N 0.51796 0.89323 0.73185 0.0
N305 N 0.67621 0.85101 0.72498 0.0
H306 H 0.59875 0.77189 0.76168 0.0
H307 H 0.64865 0.78475 0.75914 0.0
H308 H 0.69813 0.87197 0.71837 0.0
H309 H 0.68578 0.82172 0.72133 0.0
H310 H 0.50847 0.9215 0.72204 0.0
H311 H 0.49556 0.87208 0.73092 0.0
H312 H 0.5477 0.96192 0.75183 0.0
H313 H 0.59683 0.97527 0.74298 0.0
C314 C 0.59886 0.651 0.27942 0.0
C315 C 0.58978 0.66186 0.23323 0.0
C316 C 0.65035 0.62884 0.20582 0.0
C317 C 0.65412 0.6115 0.25016 0.0
N318 N 0.64837 0.62389 0.33137 0.0
N319 N 0.61358 0.67444 0.1563 0.0
C320 C 0.63396 0.62903 0.28781 0.0
C321 C 0.61803 0.65525 0.19757 0.0
N322 N 0.57283 0.65837 0.31458 0.0
N323 N 0.67727 0.61988 0.17218 0.0
H324 H 0.59091 0.69507 0.15074 0.0
H325 H 0.63337 0.67232 0.12886 0.0
H326 H 0.70422 0.6062 0.17973 0.0
H327 H 0.67408 0.62747 0.13758 0.0
H328 H 0.5761 0.64641 0.34754 0.0
H329 H 0.5468 0.67458 0.31063 0.0
H330 H 0.63674 0.63829 0.36023 0.0
H331 H 0.67488 0.60861 0.33725 0.0
C332 C 0.86222 0.61913 0.73893 0.0
C333 C 0.89496 0.60408 0.76425 0.0
C334 C 0.86155 0.54006 0.77181 0.0
C335 C 0.83302 0.5527 0.73933 0.0
N336 N 0.80583 0.60377 0.69048 0.0
N337 N 0.92906 0.54678 0.79648 0.0
C338 C 0.83308 0.59224 0.72259 0.0
C339 C 0.89535 0.56379 0.77921 0.0
N340 N 0.85853 0.65907 0.7315 0.0
N341 N 0.85704 0.50485 0.79467 0.0
H342 H 0.95598 0.56148 0.79901 0.0
H343 H 0.9317 0.51647 0.80317 0.0
H344 H 0.83277 0.48638 0.78981 0.0
H345 H 0.87524 0.4961 0.82187 0.0
H346 H 0.83361 0.67212 0.71667 0.0
H347 H 0.87871 0.67959 0.74432 0.0
H348 H 0.80712 0.63074 0.67291 0.0
H349 H 0.78292 0.58528 0.67985 0.0
C350 C 0.82549 0.86212 0.24037 0.0
C351 C 0.82395 0.90008 0.21936 0.0
C352 C 0.88355 0.88551 0.17524 0.0
C353 C 0.88549 0.84714 0.19599 0.0
N354 N 0.85258 0.79516 0.23829 0.0
N355 N 0.84234 0.94183 0.15532 0.0
C356 C 0.85444 0.83412 0.22529 0.0
C357 C 0.84946 0.90929 0.18229 0.0
N358 N 0.80011 0.85351 0.27568 0.0
N359 N 0.91559 0.90137 0.15306 0.0
H360 H 0.81775 0.96022 0.15993 0.0
H361 H 0.85835 0.94782 0.12532 0.0
H362 H 0.94304 0.88739 0.15053 0.0
H363 H 0.91654 0.93078 0.1419 0.0
H364 H 0.80262 0.82821 0.2962 0.0
H365 H 0.77731 0.87284 0.28541 0.0
H366 H 0.82895 0.78324 0.25669 0.0
H367 H 0.87296 0.77395 0.22678 0.0
C368 C 0.59256 0.34433 0.16034 0.0
C369 C 0.56906 0.3247 0.19384 0.0
C370 C 0.57044 0.38503 0.24084 0.0
C371 C 0.60164 0.40021 0.213 0.0
N372 N 0.64777 0.38794 0.14977 0.0
N373 N 0.53887 0.32573 0.26973 0.0
C374 C 0.61396 0.37855 0.17324 0.0
C375 C 0.55835 0.34496 0.235 0.0
N376 N 0.59456 0.33029 0.11614 0.0
N377 N 0.552 0.40894 0.27243 0.0
H378 H 0.53052 0.29605 0.26787 0.0
H379 H 0.53428 0.33837 0.30216 0.0
H380 H 0.55877 0.43898 0.27608 0.0
H381 H 0.52703 0.40014 0.29089 0.0
H382 H 0.60887 0.3456 0.08969 0.0
H383 H 0.57801 0.30606 0.10496 0.0
H384 H 0.65908 0.37022 0.12326 0.0
H385 H 0.66733 0.40998 0.15984 0.0
C386 C 0.16286 0.58782 0.69328 0.0
C387 C 0.18333 0.56384 0.72575 0.0
C388 C 0.12338 0.56136 0.77327 0.0
C389 C 0.1058 0.59112 0.74503 0.0
N390 N 0.11457 0.63985 0.68407 0.0
N391 N 0.18453 0.53181 0.80038 0.0
C392 C 0.1269 0.60625 0.70642 0.0
C393 C 0.16396 0.5514 0.76674 0.0
N394 N 0.17717 0.59239 0.64942 0.0
N395 N 0.10117 0.54198 0.80559 0.0
H396 H 0.2145 0.52483 0.79747 0.0
H397 H 0.17272 0.52577 0.83289 0.0
H398 H 0.07105 0.5476 0.81038 0.0
H399 H 0.1116 0.51757 0.82413 0.0
H400 H 0.1612 0.60676 0.6235 0.0
H401 H 0.20258 0.57796 0.63749 0.0
H402 H 0.13144 0.65368 0.65858 0.0
H403 H 0.09033 0.65681 0.69449 0.0
C404 C 0.89875 0.10264 0.2337 0.0
C405 C 0.86102 0.10342 0.25518 0.0
C406 C 0.86449 0.17566 0.26197 0.0
C407 C 0.8988 0.17555 0.23405 0.0
N408 N 0.94811 0.1394 0.19043 0.0
N409 N 0.80467 0.1413 0.2819 0.0
C410 C 0.91626 0.13913 0.21957 0.0
C411 C 0.84311 0.14009 0.26759 0.0
N412 N 0.91768 0.06715 0.22683 0.0
N413 N 0.85238 0.20992 0.28314 0.0
H414 H 0.78739 0.11596 0.28349 0.0
H415 H 0.78882 0.16758 0.28694 0.0
H416 H 0.86801 0.23643 0.28017 0.0
H417 H 0.82954 0.21096 0.30736 0.0
H418 H 0.94683 0.0648 0.21541 0.0
H419 H 0.90511 0.03998 0.23593 0.0
H420 H 0.95926 0.11403 0.17432 0.0
H421 H 0.96208 0.16547 0.18014 0.0
C422 C 0.29299 0.84097 0.72155 0.0
C423 C 0.29289 0.87869 0.69973 0.0
C424 C 0.36515 0.88134 0.70598 0.0
C425 C 0.3652 0.84182 0.72304 0.0
N426 N 0.32999 0.78111 0.73857 0.0
N427 N 0.32879 0.9331 0.66563 0.0
C428 C 0.32934 0.82074 0.72826 0.0
C429 C 0.32896 0.89862 0.69058 0.0
N430 N 0.25844 0.82522 0.73772 0.0
N431 N 0.39954 0.90246 0.70509 0.0
H432 H 0.30285 0.94667 0.65405 0.0
H433 H 0.35437 0.94672 0.65349 0.0
H434 H 0.42668 0.89018 0.71468 0.0
H435 H 0.40077 0.93273 0.69784 0.0
H436 H 0.25721 0.79959 0.75782 0.0
H437 H 0.23143 0.84018 0.73553 0.0
H438 H 0.30485 0.76337 0.7382 0.0
H439 H 0.35617 0.76507 0.74296 0.0
C440 C 0.57456 0.16292 0.70552 0.0
C441 C 0.58451 0.18396 0.74627 0.0
C442 C 0.6336 0.13303 0.7651 0.0
C443 C 0.62015 0.10932 0.72782 0.0
N444 N 0.5704 0.09836 0.66934 0.0
N445 N 0.61443 0.18153 0.82211 0.0
C446 C 0.58845 0.12326 0.69987 0.0
C447 C 0.61128 0.1668 0.77831 0.0
N448 N 0.55322 0.18103 0.67144 0.0
N449 N 0.66869 0.12498 0.78652 0.0
H450 H 0.59668 0.20458 0.83463 0.0
H451 H 0.6312 0.16753 0.84759 0.0
H452 H 0.68803 0.10261 0.77585 0.0
H453 H 0.68088 0.14386 0.81115 0.0
H454 H 0.54855 0.16804 0.63928 0.0
H455 H 0.54372 0.21051 0.67343 0.0
H456 H 0.5449 0.10626 0.65132 0.0
H457 H 0.57804 0.06846 0.66589 0.0
C458 C 0.37513 0.57294 0.24752 0.0
C459 C 0.37673 0.61246 0.23071 0.0
C460 C 0.3049 0.61408 0.22459 0.0
C461 C 0.30259 0.57765 0.24861 0.0
N462 N 0.33595 0.5235 0.2876 0.0
N463 N 0.34232 0.67396 0.21593 0.0
C464 C 0.33782 0.5569 0.26092 0.0
C465 C 0.34137 0.63391 0.22242 0.0
N466 N 0.40906 0.55095 0.25084 0.0
N467 N 0.27201 0.63002 0.20432 0.0
H468 H 0.36852 0.68975 0.21879 0.0
H469 H 0.31698 0.69163 0.2137 0.0
H470 H 0.24485 0.61545 0.20436 0.0
H471 H 0.27295 0.65521 0.18338 0.0
H472 H 0.4093 0.52072 0.25856 0.0
H473 H 0.4368 0.56243 0.24251 0.0
H474 H 0.3608 0.50992 0.30195 0.0
H475 H 0.30939 0.51078 0.29807 0.0
C476 C 0.85788 0.3205 0.6923 0.0
C477 C 0.85401 0.35695 0.71694 0.0
C478 C 0.89961 0.33185 0.77605 0.0
C479 C 0.90362 0.29597 0.75098 0.0
N480 N 0.89603 0.26027 0.67965 0.0
N481 N 0.8806 0.40134 0.77431 0.0
C482 C 0.8862 0.29195 0.70697 0.0
C483 C 0.8778 0.36389 0.75647 0.0
N484 N 0.8325 0.31148 0.65731 0.0
N485 N 0.91582 0.3349 0.81902 0.0
H486 H 0.86657 0.42581 0.75937 0.0
H487 H 0.90006 0.40889 0.80064 0.0
H488 H 0.93366 0.31265 0.83313 0.0
H489 H 0.90992 0.35846 0.84139 0.0
H490 H 0.83114 0.28358 0.64191 0.0
H491 H 0.80993 0.3303 0.64666 0.0
H492 H 0.88731 0.25781 0.6453 0.0
H493 H 0.91618 0.23842 0.68983 0.0
C494 C 0.10284 0.91219 0.18659 0.0
C495 C 0.07604 0.89729 0.21999 0.0
C496 C 0.11841 0.92197 0.2818 0.0
C497 C 0.14908 0.92738 0.24874 0.0
N498 N 0.17077 0.9289 0.16922 0.0
N499 N 0.04901 0.90734 0.29582 0.0
C500 C 0.14117 0.92382 0.20087 0.0
C501 C 0.08091 0.9082 0.2668 0.0
N502 N 0.09091 0.91732 0.142 0.0
N503 N 0.12577 0.92872 0.32752 0.0
H504 H 0.02062 0.90112 0.28386 0.0
H505 H 0.04946 0.91697 0.32993 0.0
H506 H 0.1521 0.94119 0.33911 0.0
H507 H 0.10652 0.92105 0.35411 0.0
H508 H 0.10839 0.93064 0.11677 0.0
H509 H 0.06151 0.91377 0.1321 0.0
H510 H 0.16779 0.92173 0.13443 0.0
H511 H 0.19922 0.93777 0.17815 0.0
C512 C 0.41355 0.5844 0.72336 0.0
C513 C 0.38509 0.56709 0.75339 0.0
C514 C 0.39456 0.62293 0.80619 0.0
C515 C 0.4137 0.64452 0.77058 0.0
N516 N 0.43928 0.64573 0.69245 0.0
N517 N 0.3453 0.57392 0.82338 0.0
C518 C 0.42333 0.62513 0.72855 0.0
C519 C 0.37512 0.58693 0.79534 0.0
N520 N 0.43118 0.56186 0.68985 0.0
N521 N 0.39497 0.63683 0.8505 0.0
H522 H 0.32858 0.5487 0.81751 0.0
H523 H 0.33458 0.59066 0.85105 0.0
H524 H 0.41006 0.66254 0.85989 0.0
H525 H 0.3844 0.6204 0.8784 0.0
H526 H 0.45433 0.57222 0.66936 0.0
H527 H 0.42577 0.53149 0.68642 0.0
H528 H 0.44269 0.63351 0.65961 0.0
H529 H 0.44586 0.67587 0.69388 0.0
C530 C 0.8523 0.3599 0.27188 0.0
C531 C 0.8751 0.37082 0.23261 0.0
C532 C 0.82071 0.41423 0.20708 0.0
C533 C 0.80001 0.40601 0.24863 0.0
N534 N 0.80389 0.38232 0.32736 0.0
N535 N 0.8848 0.41735 0.16991 0.0
C536 C 0.81838 0.38258 0.28326 0.0
C537 C 0.8605 0.40078 0.20229 0.0
N538 N 0.86079 0.32637 0.29665 0.0
N539 N 0.80216 0.43311 0.17139 0.0
H540 H 0.91471 0.40999 0.16696 0.0
H541 H 0.87641 0.44158 0.14973 0.0
H542 H 0.77278 0.44251 0.17293 0.0
H543 H 0.81492 0.43605 0.13877 0.0
H544 H 0.84244 0.31598 0.32297 0.0
H545 H 0.8827 0.30605 0.28743 0.0
H546 H 0.81852 0.36815 0.35447 0.0
H547 H 0.78014 0.40008 0.33786 0.0
C548 C 0.04631 0.82021 0.75032 0.0
C549 C 0.06495 0.78507 0.73357 0.0
C550 C 0.11852 0.8241 0.70087 0.0
C551 C 0.09948 0.85956 0.71545 0.0
N552 N 0.04175 0.8923 0.7465 0.0
N553 N 0.11108 0.75496 0.68064 0.0
C554 C 0.06205 0.85793 0.7376 0.0
C555 C 0.09831 0.78768 0.70435 0.0
N556 N 0.01521 0.8176 0.78032 0.0
N557 N 0.15715 0.82463 0.68736 0.0
H558 H 0.09608 0.72798 0.68209 0.0
H559 H 0.13357 0.75594 0.65597 0.0
H560 H 0.17394 0.85033 0.68913 0.0
H561 H 0.17359 0.79906 0.68032 0.0
H562 H 0.00361 0.8419 0.79816 0.0
H563 H 0.00221 0.79068 0.78928 0.0
H564 H 0.01272 0.89293 0.75858 0.0
H565 H 0.05301 0.92027 0.73837 0.0
C566 C 0.63599 0.1463 0.24027 0.0
C567 C 0.59904 0.127 0.24381 0.0
C568 C 0.63141 0.06877 0.27822 0.0
C569 C 0.66863 0.08686 0.27038 0.0
N570 N 0.70653 0.13775 0.23202 0.0
N571 N 0.56138 0.06798 0.2599 0.0
C572 C 0.67098 0.12421 0.24797 0.0
C573 C 0.59665 0.08756 0.26086 0.0
N574 N 0.63773 0.18597 0.23048 0.0
N575 N 0.62913 0.03464 0.30364 0.0
H576 H 0.53529 0.08133 0.24841 0.0
H577 H 0.55854 0.03786 0.26739 0.0
H578 H 0.65401 0.02012 0.31675 0.0
H579 H 0.60252 0.02236 0.31463 0.0
H580 H 0.66382 0.20225 0.2319 0.0
H581 H 0.61255 0.20344 0.2257 0.0
H582 H 0.70937 0.16317 0.21178 0.0
H583 H 0.73248 0.121 0.23421 0.0
C584 C 0.35485 0.80544 0.24549 0.0
C585 C 0.38977 0.80677 0.21854 0.0
C586 C 0.386 0.87956 0.21773 0.0
C587 C 0.34826 0.87741 0.23918 0.0
N588 N 0.29258 0.83756 0.26235 0.0
N589 N 0.43747 0.84459 0.17513 0.0
C590 C 0.33152 0.84014 0.25018 0.0
C591 C 0.40535 0.84375 0.20382 0.0
N592 N 0.34435 0.77108 0.26732 0.0
N593 N 0.40342 0.91566 0.21117 0.0
H594 H 0.45283 0.81902 0.16528 0.0
H595 H 0.44743 0.8703 0.15891 0.0
H596 H 0.38951 0.94239 0.21987 0.0
H597 H 0.43254 0.91898 0.2001 0.0
H598 H 0.32078 0.76937 0.29047 0.0
H599 H 0.36214 0.74568 0.26651 0.0
H600 H 0.27809 0.81057 0.26699 0.0
H601 H 0.27364 0.86205 0.26189 0.0
C602 C 0.62966 0.41066 0.74632 0.0
C603 C 0.6421 0.40813 0.6996 0.0
C604 C 0.57436 0.39196 0.67602 0.0
C605 C 0.56443 0.3872 0.72315 0.0
N606 N 0.57392 0.41503 0.79883 0.0
N607 N 0.62571 0.4034 0.61871 0.0
C608 C 0.58933 0.40391 0.75717 0.0
C609 C 0.61403 0.40149 0.6639 0.0
N610 N 0.6566 0.41682 0.78062 0.0
N611 N 0.54525 0.38932 0.64359 0.0
H612 H 0.65373 0.41302 0.60873 0.0
H613 H 0.60824 0.3949 0.59098 0.0
H614 H 0.51555 0.38631 0.65286 0.0
H615 H 0.54941 0.39409 0.60846 0.0
H616 H 0.64974 0.41411 0.81556 0.0
H617 H 0.68653 0.4218 0.77428 0.0
H618 H 0.59009 0.42997 0.82391 0.0
H619 H 0.54358 0.41442 0.80543 0.0
C620 C 0.07765 0.62757 0.28067 0.0
C621 C 0.10799 0.60898 0.25412 0.0
C622 C 0.10041 0.66025 0.19516 0.0
C623 C 0.07546 0.6825 0.22506 0.0
N624 N 0.04443 0.68944 0.29987 0.0
N625 N 0.15587 0.61542 0.192 0.0
C626 C 0.06493 0.66671 0.26883 0.0
C627 C 0.12147 0.62732 0.21287 0.0
N628 N 0.06016 0.60757 0.31627 0.0
N629 N 0.10346 0.66987 0.14944 0.0
H630 H 0.17483 0.5941 0.20592 0.0
H631 H 0.16816 0.63057 0.16407 0.0
H632 H 0.08691 0.69258 0.13424 0.0
H633 H 0.1188 0.65219 0.12577 0.0
H634 H 0.03545 0.61837 0.33389 0.0
H635 H 0.06776 0.57846 0.32507 0.0
H636 H 0.03964 0.68072 0.33396 0.0
H637 H 0.03531 0.71845 0.29292 0.0
C638 C 0.88408 0.06368 0.73883 0.0
C639 C 0.88742 0.10479 0.74858 0.0
C640 C 0.81589 0.11243 0.74342 0.0
C641 C 0.81269 0.07291 0.72705 0.0
N642 N 0.845 0.0121 0.70277 0.0
N643 N 0.85758 0.17 0.7474 0.0
C644 C 0.84708 0.04853 0.72336 0.0
C645 C 0.85362 0.12968 0.74731 0.0
N646 N 0.91613 0.03926 0.7442 0.0
N647 N 0.78285 0.13339 0.75605 0.0
H648 H 0.88512 0.1836 0.7467 0.0
H649 H 0.83391 0.18951 0.7424 0.0
H650 H 0.75463 0.1211 0.75553 0.0
H651 H 0.78409 0.16115 0.77191 0.0
H652 H 0.91451 0.00842 0.74213 0.0
H653 H 0.94383 0.04982 0.75401 0.0
H654 H 0.86986 -0.005 0.69476 0.0
H655 H 0.81875 0.00022 0.69026 0.0
C656 C 0.51264 0.19874 0.9822 0.0
C657 C 0.51175 0.22533 0.01999 0.0
C658 C 0.49865 0.28094 0.96777 0.0
C659 C 0.50754 0.25568 0.93018 0.0
N660 N 0.52209 0.19048 0.89977 0.0
N661 N 0.50405 0.29202 0.05 0.0
C662 C 0.51343 0.21432 0.9367 0.0
C663 C 0.5038 0.26644 0.01332 0.0
N664 N 0.51281 0.15871 -0.00986 0.0
N665 N 0.48559 0.31879 0.95962 0.0
H666 H 0.50714 0.28274 0.08412 0.0
H667 H 0.50357 0.3228 0.04654 0.0
H668 H 0.48168 0.32989 0.92627 0.0
H669 H 0.47515 0.33772 0.98539 0.0
H670 H 0.51012 0.13753 0.96418 0.0
H671 H 0.51197 0.1468 0.02342 0.0
H672 H 0.53155 0.16111 0.90283 0.0
H673 H 0.52171 0.20069 0.86577 0.0
C674 C 0.21042 0.51174 0.48837 0.0
C675 C 0.23491 0.52254 0.45089 0.0
C676 C 0.29347 0.51829 0.49983 0.0
C677 C 0.26822 0.51518 0.53868 0.0
N678 N 0.20269 0.50868 0.57138 0.0
N679 N 0.2995 0.53417 0.41838 0.0
C680 C 0.22671 0.51084 0.53339 0.0
C681 C 0.27655 0.52455 0.45567 0.0
N682 N 0.17162 0.50273 0.48071 0.0
N683 N 0.33349 0.51519 0.50554 0.0
H684 H 0.28803 0.53725 0.38516 0.0
H685 H 0.3295 0.54065 0.42045 0.0
H686 H 0.34633 0.51025 0.53779 0.0
H687 H 0.35364 0.51404 0.47835 0.0
H688 H 0.15292 0.49113 0.50588 0.0
H689 H 0.15908 0.5035 0.44783 0.0
H690 H 0.17199 0.51068 0.5699 0.0
H691 H 0.21339 0.50714 0.60503 0.0
C692 C -0.01351 0.27932 0.00195 0.0
C693 C 0.98245 0.25308 0.03969 0.0
C694 C -0.01297 0.19595 -0.0119 0.0
C695 C 0.98161 0.22217 0.9505 0.0
N696 N 0.98125 0.28845 0.91907 0.0
N697 N 0.98386 0.1869 0.07117 0.0
C698 C 0.98403 0.26388 0.9565 0.0
C699 C 0.98541 0.21141 0.03359 0.0
N700 N -0.00829 0.31891 0.01014 0.0
N701 N -0.00704 0.15639 0.97982 0.0
H702 H 0.98424 0.19772 0.10489 0.0
H703 H 0.98117 0.15616 0.06918 0.0
H704 H -0.00561 0.14493 0.94635 0.0
H705 H -0.00029 0.1357 0.00532 0.0
H706 H -0.00264 0.33978 0.98449 0.0
H707 H -0.00637 0.33024 0.04362 0.0
H708 H 0.97819 0.31917 0.92125 0.0
H709 H 0.98098 0.27777 0.88529 0.0
C710 C 0.26395 -0.00353 0.47546 0.0
C711 C 0.23687 -0.00584 0.43861 0.0
C712 C 0.18142 -0.00178 0.49232 0.0
C713 C 0.20819 -0.01026 0.52837 0.0
N714 N 0.2747 -0.01164 0.5578 0.0
N715 N 0.17081 0.00141 0.40941 0.0
C716 C 0.24956 -0.0074 0.52128 0.0
C717 C 0.1958 -0.00097 0.44627 0.0
N718 N 0.30325 0.00081 0.46589 0.0
N719 N 0.14237 0.00389 0.50262 0.0
H720 H 0.1813 0.00357 0.37559 0.0
H721 H 0.14013 0.00097 0.41197 0.0
H722 H 0.13209 0.0034 0.53667 0.0
H723 H 0.12097 0.01184 0.47855 0.0
H724 H 0.32494 0.00467 0.49085 0.0
H725 H 0.31356 0.00364 0.43201 0.0
H726 H 0.30526 0.98581 0.55471 0.0
H727 H 0.26461 0.98694 0.5918 0.0
C728 C 0.48118 0.71057 0.94852 0.0
C729 C 0.47252 0.75113 0.93942 0.0
C730 C 0.4753 0.76698 0.02141 0.0
C731 C 0.47837 0.72578 0.03061 0.0
N732 N 0.49773 0.66057 0.00613 0.0
N733 N 0.4743 0.81933 0.96352 0.0
C734 C 0.48638 0.69837 -0.00505 0.0
C735 C 0.47431 0.77993 0.97484 0.0
N736 N 0.48143 0.68355 0.91329 0.0
N737 N 0.4705 0.79305 0.05716 0.0
H738 H 0.47379 0.82897 0.92925 0.0
H739 H 0.47806 0.84214 -0.01268 0.0
H740 H 0.47276 0.78417 0.09157 0.0
H741 H 0.46348 0.82298 0.05305 0.0
H742 H 0.48285 0.65295 0.91819 0.0
H743 H 0.47884 0.6917 0.87872 0.0
H744 H 0.50663 0.63936 0.98205 0.0
H745 H 0.50149 0.65172 0.04041 0.0
C746 C 0.76597 0.47636 0.482 0.0
C747 C 0.73812 0.47344 0.51817 0.0
C748 C 0.68369 0.48091 0.46361 0.0
C749 C 0.71114 0.47474 0.42735 0.0
N750 N 0.77843 0.47122 0.39968 0.0
N751 N 0.67138 0.47889 0.54629 0.0
C752 C 0.75247 0.47498 0.43571 0.0
C753 C 0.69717 0.47864 0.50989 0.0
N754 N 0.80519 0.47948 0.49249 0.0
N755 N 0.64492 0.48836 0.45336 0.0
H756 H 0.68105 0.47923 0.58047 0.0
H757 H 0.64077 0.47802 0.54299 0.0
H758 H 0.63485 0.49034 0.41938 0.0
H759 H 0.62347 0.49556 0.47782 0.0
H760 H 0.82735 0.48426 0.46816 0.0
H761 H 0.81503 0.4806 0.52661 0.0
H762 H 0.80868 0.46659 0.40359 0.0
H763 H 0.76945 0.47149 0.36528 0.0
C764 C 0.01595 0.70746 0.02328 0.0
C765 C 0.01667 0.74948 0.02675 0.0
C766 C 0.01325 0.75631 0.94302 0.0
C767 C 0.0159 0.71439 0.93945 0.0
N768 N 0.00862 0.64981 0.97353 0.0
N769 N 0.0045 0.81365 -0.007 0.0
C770 C 0.01327 0.68985 0.97892 0.0
C771 C 0.0113 0.77386 -0.01254 0.0
N772 N 0.02007 0.68466 0.06207 0.0
N773 N 0.01496 0.77916 0.90404 0.0
H774 H 0.00285 0.82697 0.0255 0.0
H775 H -0.00283 0.83278 0.96609 0.0
H776 H 0.01491 0.76699 0.87093 0.0
H777 H 0.01796 0.80992 0.90428 0.0
H778 H 0.02454 0.65404 0.06155 0.0
H779 H 0.02054 0.69669 0.09523 0.0
H780 H 0.00353 0.63023 0.00069 0.0
H781 H 0.0065 0.63661 0.94102 0.0
C782 C 0.69858 0.97935 0.50263 0.0
C783 C 0.72701 0.98443 0.53775 0.0
C784 C 0.78024 0.97146 0.48294 0.0
C785 C 0.75276 0.97759 0.44706 0.0
N786 N 0.6856 0.979 0.42016 0.0
N787 N 0.79398 0.97823 0.56482 0.0
C788 C 0.71162 0.97745 0.4561 0.0
C789 C 0.76761 0.97696 0.52922 0.0
N790 N 0.65944 0.9778 0.51418 0.0
N791 N 0.81851 0.96244 0.47189 0.0
H792 H 0.78499 0.98124 0.59914 0.0
H793 H 0.82452 0.97703 0.56057 0.0
H794 H 0.82741 0.95873 0.43757 0.0
H795 H 0.84026 0.9557 0.49603 0.0
H796 H 0.6369 0.97215 0.49075 0.0
H797 H 0.64996 0.97914 0.5485 0.0
H798 H 0.65529 0.98346 0.42393 0.0
H799 H 0.69482 0.97618 0.38593 0.0
loop_
_geom_bond_atom_site_label_1
_geom_bond_atom_site_label_2
_geom_bond_distance
_geom_bond_site_symmetry_2
_ccdc_geom_bond_type
C0 O1 1.306 . S
C0 O3 1.160 . S
O1 C0 1.306 . S
O1 Cd2 2.228 . S
Cd2 O1 2.228 . S
Cd2 O6 2.273 . S
Cd2 O10 2.277 . S
O3 C0 1.160 . S
O3 Cd4 2.203 . S
Cd4 O3 2.203 . S
Cd4 O6 2.411 . S
Cd4 O7 2.333 . S
Cd4 O8 2.352 . S
Cd4 O12 2.277 . S
Cd4 O13 2.356 . S
C5 O10 1.209 . S
C5 O12 1.226 . S
O6 Cd2 2.273 . S
O6 Cd4 2.411 . S
O6 C9 1.320 . S
O7 Cd4 2.333 . S
O7 C9 1.214 . S
O8 Cd4 2.352 . S
O8 C11 1.258 . S
C9 O6 1.320 . S
C9 O7 1.214 . S
O10 Cd2 2.277 . S
O10 C5 1.209 . S
C11 O8 1.258 . S
C11 O13 1.282 . S
O12 Cd4 2.277 . S
O12 C5 1.226 . S
O13 Cd4 2.356 . S
O13 C11 1.282 . S
C14 O15 1.306 . S
C14 O17 1.160 . S
O15 C14 1.306 . S
O15 Cd16 2.228 . S
Cd16 O15 2.228 . S
Cd16 O20 2.273 . S
Cd16 O24 2.277 . S
O17 C14 1.160 . S
O17 Cd18 2.203 . S
Cd18 O17 2.203 . S
Cd18 O20 2.411 . S
Cd18 O21 2.333 . S
Cd18 O22 2.352 . S
Cd18 O26 2.277 . S
Cd18 O27 2.356 . S
C19 O24 1.209 . S
C19 O26 1.226 . S
O20 Cd16 2.273 . S
O20 Cd18 2.411 . S
O20 C23 1.320 . S
O21 Cd18 2.333 . S
O21 C23 1.214 . S
O22 Cd18 2.352 . S
O22 C25 1.258 . S
C23 O20 1.320 . S
C23 O21 1.214 . S
O24 Cd16 2.277 . S
O24 C19 1.209 . S
C25 O22 1.258 . S
C25 O27 1.282 . S
O26 Cd18 2.277 . S
O26 C19 1.226 . S
O27 Cd18 2.356 . S
O27 C25 1.282 . S
C28 O29 1.306 . S
C28 O31 1.160 1_655 S
O29 C28 1.306 . S
O29 Cd30 2.228 . S
Cd30 O29 2.228 . S
Cd30 O34 2.273 . S
Cd30 O38 2.277 . S
O31 C28 1.160 1_455 S
O31 Cd32 2.203 1_455 S
Cd32 O31 2.203 1_655 S
Cd32 O34 2.411 . S
Cd32 O35 2.333 . S
Cd32 O36 2.352 1_655 S
Cd32 O40 2.277 . S
Cd32 O41 2.356 1_655 S
C33 O38 1.209 . S
C33 O40 1.226 . S
O34 Cd30 2.273 . S
O34 Cd32 2.411 . S
O34 C37 1.320 . S
O35 Cd32 2.333 . S
O35 C37 1.214 . S
O36 Cd32 2.352 1_455 S
O36 C39 1.258 . S
C37 O34 1.320 . S
C37 O35 1.214 . S
O38 Cd30 2.277 . S
O38 C33 1.209 . S
C39 O36 1.258 . S
C39 O41 1.282 . S
O40 Cd32 2.277 . S
O40 C33 1.226 . S
O41 Cd32 2.356 1_455 S
O41 C39 1.282 . S
C42 O43 1.306 . S
C42 O45 1.160 1_565 S
O43 C42 1.306 . S
O43 Cd44 2.228 . S
Cd44 O43 2.228 . S
Cd44 O48 2.273 . S
Cd44 O52 2.277 . S
O45 C42 1.160 1_545 S
O45 Cd46 2.203 1_545 S
Cd46 O45 2.203 1_565 S
Cd46 O48 2.411 . S
Cd46 O49 2.333 . S
Cd46 O50 2.352 1_565 S
Cd46 O54 2.277 . S
Cd46 O55 2.356 1_565 S
C47 O52 1.209 . S
C47 O54 1.226 . S
O48 Cd44 2.273 . S
O48 Cd46 2.411 . S
O48 C51 1.320 . S
O49 Cd46 2.333 . S
O49 C51 1.214 . S
O50 Cd46 2.352 1_545 S
O50 C53 1.258 . S
C51 O48 1.320 . S
C51 O49 1.214 . S
O52 Cd44 2.277 . S
O52 C47 1.209 . S
C53 O50 1.258 . S
C53 O55 1.282 . S
O54 Cd46 2.277 . S
O54 C47 1.226 . S
O55 Cd46 2.356 1_545 S
O55 C53 1.282 . S
C56 O57 1.306 . S
C56 O59 1.160 . S
O57 C56 1.306 . S
O57 Cd58 2.228 . S
Cd58 O57 2.228 . S
Cd58 O62 2.273 . S
Cd58 O66 2.277 . S
O59 C56 1.160 . S
O59 Cd60 2.203 . S
Cd60 O59 2.203 . S
Cd60 O62 2.411 . S
Cd60 O63 2.333 . S
Cd60 O64 2.352 . S
Cd60 O68 2.277 . S
Cd60 O69 2.356 . S
C61 O66 1.209 . S
C61 O68 1.226 . S
O62 Cd58 2.273 . S
O62 Cd60 2.411 . S
O62 C65 1.320 . S
O63 Cd60 2.333 . S
O63 C65 1.214 . S
O64 Cd60 2.352 . S
O64 C67 1.258 . S
C65 O62 1.320 . S
C65 O63 1.214 . S
O66 Cd58 2.277 . S
O66 C61 1.209 . S
C67 O64 1.258 . S
C67 O69 1.282 . S
O68 Cd60 2.277 . S
O68 C61 1.226 . S
O69 Cd60 2.356 . S
O69 C67 1.282 . S
C70 O71 1.306 . S
C70 O73 1.160 . S
O71 C70 1.306 . S
O71 Cd72 2.228 . S
Cd72 O71 2.228 . S
Cd72 O76 2.273 . S
Cd72 O80 2.277 . S
O73 C70 1.160 . S
O73 Cd74 2.203 . S
Cd74 O73 2.203 . S
Cd74 O76 2.411 . S
Cd74 O77 2.333 . S
Cd74 O78 2.352 . S
Cd74 O82 2.277 . S
Cd74 O83 2.356 . S
C75 O80 1.209 . S
C75 O82 1.226 . S
O76 Cd72 2.273 . S
O76 Cd74 2.411 . S
O76 C79 1.320 . S
O77 Cd74 2.333 . S
O77 C79 1.214 . S
O78 Cd74 2.352 . S
O78 C81 1.258 . S
C79 O76 1.320 . S
C79 O77 1.214 . S
O80 Cd72 2.277 . S
O80 C75 1.209 . S
C81 O78 1.258 . S
C81 O83 1.282 . S
O82 Cd74 2.277 . S
O82 C75 1.226 . S
O83 Cd74 2.356 . S
O83 C81 1.282 . S
C84 O85 1.306 . S
C84 O87 1.160 1_655 S
O85 C84 1.306 . S
O85 Cd86 2.228 . S
Cd86 O85 2.228 . S
Cd86 O90 2.273 . S
Cd86 O94 2.277 . S
O87 C84 1.160 1_455 S
O87 Cd88 2.203 1_455 S
Cd88 O87 2.203 1_655 S
Cd88 O90 2.411 . S
Cd88 O91 2.333 . S
Cd88 O92 2.352 1_655 S
Cd88 O96 2.277 . S
Cd88 O97 2.356 1_655 S
C89 O94 1.209 . S
C89 O96 1.226 . S
O90 Cd86 2.273 . S
O90 Cd88 2.411 . S
O90 C93 1.320 . S
O91 Cd88 2.333 . S
O91 C93 1.214 . S
O92 Cd88 2.352 1_455 S
O92 C95 1.258 . S
C93 O90 1.320 . S
C93 O91 1.214 . S
O94 Cd86 2.277 . S
O94 C89 1.209 . S
C95 O92 1.258 . S
C95 O97 1.282 . S
O96 Cd88 2.277 . S
O96 C89 1.226 . S
O97 Cd88 2.356 1_455 S
O97 C95 1.282 . S
C98 O99 1.306 . S
C98 O101 1.160 1_565 S
O99 C98 1.306 . S
O99 Cd100 2.228 . S
Cd100 O99 2.228 . S
Cd100 O104 2.273 . S
Cd100 O108 2.277 . S
O101 C98 1.160 1_545 S
O101 Cd102 2.203 1_545 S
Cd102 O101 2.203 1_565 S
Cd102 O104 2.411 . S
Cd102 O105 2.333 . S
Cd102 O106 2.352 1_565 S
Cd102 O110 2.277 . S
Cd102 O111 2.356 1_565 S
C103 O108 1.209 . S
C103 O110 1.226 . S
O104 Cd100 2.273 . S
O104 Cd102 2.411 . S
O104 C107 1.320 . S
O105 Cd102 2.333 . S
O105 C107 1.214 . S
O106 Cd102 2.352 1_545 S
O106 C109 1.258 . S
C107 O104 1.320 . S
C107 O105 1.214 . S
O108 Cd100 2.277 . S
O108 C103 1.209 . S
C109 O106 1.258 . S
C109 O111 1.282 . S
O110 Cd102 2.277 . S
O110 C103 1.226 . S
O111 Cd102 2.356 1_545 S
O111 C109 1.282 . S
C112 O113 1.306 . S
C112 O115 1.160 . S
O113 C112 1.306 . S
O113 Cd114 2.228 . S
Cd114 O113 2.228 . S
Cd114 O118 2.273 . S
Cd114 O122 2.277 . S
O115 C112 1.160 . S
O115 Cd116 2.203 . S
Cd116 O115 2.203 . S
Cd116 O118 2.411 . S
Cd116 O119 2.333 . S
Cd116 O120 2.352 . S
Cd116 O124 2.277 . S
Cd116 O125 2.356 . S
C117 O122 1.209 . S
C117 O124 1.226 . S
O118 Cd114 2.273 . S
O118 Cd116 2.411 . S
O118 C121 1.320 . S
O119 Cd116 2.333 . S
O119 C121 1.214 . S
O120 Cd116 2.352 . S
O120 C123 1.258 . S
C121 O118 1.320 . S
C121 O119 1.214 . S
O122 Cd114 2.277 . S
O122 C117 1.209 . S
C123 O120 1.258 . S
C123 O125 1.282 . S
O124 Cd116 2.277 . S
O124 C117 1.226 . S
O125 Cd116 2.356 . S
O125 C123 1.282 . S
C126 O127 1.306 . S
C126 O129 1.160 . S
O127 C126 1.306 . S
O127 Cd128 2.228 . S
Cd128 O127 2.228 . S
Cd128 O132 2.273 . S
Cd128 O136 2.277 . S
O129 C126 1.160 . S
O129 Cd130 2.203 . S
Cd130 O129 2.203 . S
Cd130 O132 2.411 . S
Cd130 O133 2.333 . S
Cd130 O134 2.352 . S
Cd130 O138 2.277 . S
Cd130 O139 2.356 . S
C131 O136 1.209 . S
C131 O138 1.226 . S
O132 Cd128 2.273 . S
O132 Cd130 2.411 . S
O132 C135 1.320 . S
O133 Cd130 2.333 . S
O133 C135 1.214 . S
O134 Cd130 2.352 . S
O134 C137 1.258 . S
C135 O132 1.320 . S
C135 O133 1.214 . S
O136 Cd128 2.277 . S
O136 C131 1.209 . S
C137 O134 1.258 . S
C137 O139 1.282 . S
O138 Cd130 2.277 . S
O138 C131 1.226 . S
O139 Cd130 2.356 . S
O139 C137 1.282 . S
C140 O141 1.306 . S
C140 O143 1.160 1_455 S
O141 C140 1.306 . S
O141 Cd142 2.228 . S
Cd142 O141 2.228 . S
Cd142 O146 2.273 . S
Cd142 O150 2.277 . S
O143 C140 1.160 1_655 S
O143 Cd144 2.203 1_655 S
Cd144 O143 2.203 1_455 S
Cd144 O146 2.411 . S
Cd144 O147 2.333 . S
Cd144 O148 2.352 1_455 S
Cd144 O152 2.277 . S
Cd144 O153 2.356 1_455 S
C145 O150 1.209 . S
C145 O152 1.226 . S
O146 Cd142 2.273 . S
O146 Cd144 2.411 . S
O146 C149 1.320 . S
O147 Cd144 2.333 . S
O147 C149 1.214 . S
O148 Cd144 2.352 1_655 S
O148 C151 1.258 . S
C149 O146 1.320 . S
C149 O147 1.214 . S
O150 Cd142 2.277 . S
O150 C145 1.209 . S
C151 O148 1.258 . S
C151 O153 1.282 . S
O152 Cd144 2.277 . S
O152 C145 1.226 . S
O153 Cd144 2.356 1_655 S
O153 C151 1.282 . S
C154 O155 1.306 . S
C154 O157 1.160 1_545 S
O155 C154 1.306 . S
O155 Cd156 2.228 . S
Cd156 O155 2.228 . S
Cd156 O160 2.273 . S
Cd156 O164 2.277 . S
O157 C154 1.160 1_565 S
O157 Cd158 2.203 1_565 S
Cd158 O157 2.203 1_545 S
Cd158 O160 2.411 . S
Cd158 O161 2.333 . S
Cd158 O162 2.352 1_545 S
Cd158 O166 2.277 . S
Cd158 O167 2.356 1_545 S
C159 O164 1.209 . S
C159 O166 1.226 . S
O160 Cd156 2.273 . S
O160 Cd158 2.411 . S
O160 C163 1.320 . S
O161 Cd158 2.333 . S
O161 C163 1.214 . S
O162 Cd158 2.352 1_565 S
O162 C165 1.258 . S
C163 O160 1.320 . S
C163 O161 1.214 . S
O164 Cd156 2.277 . S
O164 C159 1.209 . S
C165 O162 1.258 . S
C165 O167 1.282 . S
O166 Cd158 2.277 . S
O166 C159 1.226 . S
O167 Cd158 2.356 1_565 S
O167 C165 1.282 . S
C168 O169 1.306 . S
C168 O171 1.160 . S
O169 C168 1.306 . S
O169 Cd170 2.228 . S
Cd170 O169 2.228 . S
Cd170 O174 2.273 . S
Cd170 O178 2.277 . S
O171 C168 1.160 . S
O171 Cd172 2.203 . S
Cd172 O171 2.203 . S
Cd172 O174 2.411 . S
Cd172 O175 2.333 . S
Cd172 O176 2.352 . S
Cd172 O180 2.277 . S
Cd172 O181 2.356 . S
C173 O178 1.209 . S
C173 O180 1.226 . S
O174 Cd170 2.273 . S
O174 Cd172 2.411 . S
O174 C177 1.320 . S
O175 Cd172 2.333 . S
O175 C177 1.214 . S
O176 Cd172 2.352 . S
O176 C179 1.258 . S
C177 O174 1.320 . S
C177 O175 1.214 . S
O178 Cd170 2.277 . S
O178 C173 1.209 . S
C179 O176 1.258 . S
C179 O181 1.282 . S
O180 Cd172 2.277 . S
O180 C173 1.226 . S
O181 Cd172 2.356 . S
O181 C179 1.282 . S
C182 O183 1.306 . S
C182 O185 1.160 . S
O183 C182 1.306 . S
O183 Cd184 2.228 . S
Cd184 O183 2.228 . S
Cd184 O188 2.273 . S
Cd184 O192 2.277 . S
O185 C182 1.160 . S
O185 Cd186 2.203 . S
Cd186 O185 2.203 . S
Cd186 O188 2.411 . S
Cd186 O189 2.333 . S
Cd186 O190 2.352 . S
Cd186 O194 2.277 . S
Cd186 O195 2.356 . S
C187 O192 1.209 . S
C187 O194 1.226 . S
O188 Cd184 2.273 . S
O188 Cd186 2.411 . S
O188 C191 1.320 . S
O189 Cd186 2.333 . S
O189 C191 1.214 . S
O190 Cd186 2.352 . S
O190 C193 1.258 . S
C191 O188 1.320 . S
C191 O189 1.214 . S
O192 Cd184 2.277 . S
O192 C187 1.209 . S
C193 O190 1.258 . S
C193 O195 1.282 . S
O194 Cd186 2.277 . S
O194 C187 1.226 . S
O195 Cd186 2.356 . S
O195 C193 1.282 . S
C196 O197 1.306 . S
C196 O199 1.160 1_455 S
O197 C196 1.306 . S
O197 Cd198 2.228 . S
Cd198 O197 2.228 . S
Cd198 O202 2.273 . S
Cd198 O206 2.277 . S
O199 C196 1.160 1_655 S
O199 Cd200 2.203 1_655 S
Cd200 O199 2.203 1_455 S
Cd200 O202 2.411 . S
Cd200 O203 2.333 . S
Cd200 O204 2.352 1_455 S
Cd200 O208 2.277 . S
Cd200 O209 2.356 1_455 S
C201 O206 1.209 . S
C201 O208 1.226 . S
O202 Cd198 2.273 . S
O202 Cd200 2.411 . S
O202 C205 1.320 . S
O203 Cd200 2.333 . S
O203 C205 1.214 . S
O204 Cd200 2.352 1_655 S
O204 C207 1.258 . S
C205 O202 1.320 . S
C205 O203 1.214 . S
O206 Cd198 2.277 . S
O206 C201 1.209 . S
C207 O204 1.258 . S
C207 O209 1.282 . S
O208 Cd200 2.277 . S
O208 C201 1.226 . S
O209 Cd200 2.356 1_655 S
O209 C207 1.282 . S
C210 O211 1.306 . S
C210 O213 1.160 1_545 S
O211 C210 1.306 . S
O211 Cd212 2.228 . S
Cd212 O211 2.228 . S
Cd212 O216 2.273 . S
Cd212 O220 2.277 . S
O213 C210 1.160 1_565 S
O213 Cd214 2.203 1_565 S
Cd214 O213 2.203 1_545 S
Cd214 O216 2.411 . S
Cd214 O217 2.333 . S
Cd214 O218 2.352 1_545 S
Cd214 O222 2.277 . S
Cd214 O223 2.356 1_545 S
C215 O220 1.209 . S
C215 O222 1.226 . S
O216 Cd212 2.273 . S
O216 Cd214 2.411 . S
O216 C219 1.320 . S
O217 Cd214 2.333 . S
O217 C219 1.214 . S
O218 Cd214 2.352 1_565 S
O218 C221 1.258 . S
C219 O216 1.320 . S
C219 O217 1.214 . S
O220 Cd212 2.277 . S
O220 C215 1.209 . S
C221 O218 1.258 . S
C221 O223 1.282 . S
O222 Cd214 2.277 . S
O222 C215 1.226 . S
O223 Cd214 2.356 1_565 S
O223 C221 1.282 . S
C224 C225 1.363 . S
C224 C230 1.379 . S
C224 N232 1.356 . S
C225 C224 1.363 . S
C225 C231 1.363 . S
C226 C227 1.363 . S
C226 C231 1.379 . S
C226 N233 1.356 . S
C227 C226 1.363 . S
C227 C230 1.363 . S
N228 C230 1.356 . S
N228 H240 0.984 . S
N228 H241 0.985 . S
N229 C231 1.356 . S
N229 H234 0.984 . S
N229 H235 0.985 . S
C230 C224 1.379 . S
C230 C227 1.363 . S
C230 N228 1.356 . S
C231 C225 1.363 . S
C231 C226 1.379 . S
C231 N229 1.356 . S
N232 C224 1.356 . S
N232 H238 0.984 . S
N232 H239 0.984 . S
N233 C226 1.356 . S
N233 H236 0.984 . S
N233 H237 0.985 . S
H234 N229 0.984 . S
H235 N229 0.985 . S
H236 N233 0.984 . S
H237 N233 0.985 . S
H238 N232 0.984 . S
H239 N232 0.984 . S
H240 N228 0.984 . S
H241 N228 0.985 . S
C242 C243 1.363 . S
C242 C248 1.379 . S
C242 N250 1.356 . S
C243 C242 1.363 . S
C243 C249 1.363 . S
C244 C245 1.363 . S
C244 C249 1.379 . S
C244 N251 1.356 . S
C245 C244 1.363 . S
C245 C248 1.363 . S
N246 C248 1.356 . S
N246 H258 0.984 . S
N246 H259 0.985 . S
N247 C249 1.356 . S
N247 H252 0.984 . S
N247 H253 0.985 . S
C248 C242 1.379 . S
C248 C245 1.363 . S
C248 N246 1.356 . S
C249 C243 1.363 . S
C249 C244 1.379 . S
C249 N247 1.356 . S
N250 C242 1.356 . S
N250 H256 0.984 . S
N250 H257 0.984 . S
N251 C244 1.356 . S
N251 H254 0.984 . S
N251 H255 0.985 . S
H252 N247 0.984 . S
H253 N247 0.985 . S
H254 N251 0.984 . S
H255 N251 0.985 . S
H256 N250 0.984 . S
H257 N250 0.984 . S
H258 N246 0.984 . S
H259 N246 0.985 . S
C260 C261 1.363 . S
C260 C266 1.379 . S
C260 N268 1.356 . S
C261 C260 1.363 . S
C261 C267 1.363 . S
C262 C263 1.363 . S
C262 C267 1.379 . S
C262 N269 1.356 . S
C263 C262 1.363 . S
C263 C266 1.363 . S
N264 C266 1.356 . S
N264 H276 0.984 . S
N264 H277 0.985 . S
N265 C267 1.356 . S
N265 H270 0.984 . S
N265 H271 0.985 . S
C266 C260 1.379 . S
C266 C263 1.363 . S
C266 N264 1.356 . S
C267 C261 1.363 . S
C267 C262 1.379 . S
C267 N265 1.356 . S
N268 C260 1.356 . S
N268 H274 0.984 . S
N268 H275 0.984 . S
N269 C262 1.356 . S
N269 H272 0.984 . S
N269 H273 0.985 . S
H270 N265 0.984 . S
H271 N265 0.985 . S
H272 N269 0.984 . S
H273 N269 0.985 . S
H274 N268 0.984 . S
H275 N268 0.984 . S
H276 N264 0.984 . S
H277 N264 0.985 . S
C278 C279 1.363 . S
C278 C284 1.379 . S
C278 N286 1.356 . S
C279 C278 1.363 . S
C279 C285 1.363 . S
C280 C281 1.363 . S
C280 C285 1.379 . S
C280 N287 1.356 . S
C281 C280 1.363 . S
C281 C284 1.363 . S
N282 C284 1.356 . S
N282 H294 0.984 . S
N282 H295 0.985 . S
N283 C285 1.356 . S
N283 H288 0.984 . S
N283 H289 0.985 . S
C284 C278 1.379 . S
C284 C281 1.363 . S
C284 N282 1.356 . S
C285 C279 1.363 . S
C285 C280 1.379 . S
C285 N283 1.356 . S
N286 C278 1.356 . S
N286 H292 0.984 . S
N286 H293 0.984 . S
N287 C280 1.356 . S
N287 H290 0.984 . S
N287 H291 0.985 . S
H288 N283 0.984 . S
H289 N283 0.985 . S
H290 N287 0.984 . S
H291 N287 0.985 . S
H292 N286 0.984 . S
H293 N286 0.984 . S
H294 N282 0.984 . S
H295 N282 0.985 . S
C296 C297 1.363 . S
C296 C302 1.379 . S
C296 N304 1.356 . S
C297 C296 1.363 . S
C297 C303 1.363 . S
C298 C299 1.363 . S
C298 C303 1.379 . S
C298 N305 1.356 . S
C299 C298 1.363 . S
C299 C302 1.363 . S
N300 C302 1.356 . S
N300 H312 0.984 . S
N300 H313 0.985 . S
N301 C303 1.356 . S
N301 H306 0.984 . S
N301 H307 0.985 . S
C302 C296 1.379 . S
C302 C299 1.363 . S
C302 N300 1.356 . S
C303 C297 1.363 . S
C303 C298 1.379 . S
C303 N301 1.356 . S
N304 C296 1.356 . S
N304 H310 0.984 . S
N304 H311 0.984 . S
N305 C298 1.356 . S
N305 H308 0.984 . S
N305 H309 0.985 . S
H306 N301 0.984 . S
H307 N301 0.985 . S
H308 N305 0.984 . S
H309 N305 0.985 . S
H310 N304 0.984 . S
H311 N304 0.984 . S
H312 N300 0.984 . S
H313 N300 0.985 . S
C314 C315 1.363 . S
C314 C320 1.379 . S
C314 N322 1.356 . S
C315 C314 1.363 . S
C315 C321 1.363 . S
C316 C317 1.363 . S
C316 C321 1.379 . S
C316 N323 1.356 . S
C317 C316 1.363 . S
C317 C320 1.363 . S
N318 C320 1.356 . S
N318 H330 0.984 . S
N318 H331 0.985 . S
N319 C321 1.356 . S
N319 H324 0.984 . S
N319 H325 0.985 . S
C320 C314 1.379 . S
C320 C317 1.363 . S
C320 N318 1.356 . S
C321 C315 1.363 . S
C321 C316 1.379 . S
C321 N319 1.356 . S
N322 C314 1.356 . S
N322 H328 0.984 . S
N322 H329 0.984 . S
N323 C316 1.356 . S
N323 H326 0.984 . S
N323 H327 0.985 . S
H324 N319 0.984 . S
H325 N319 0.985 . S
H326 N323 0.984 . S
H327 N323 0.985 . S
H328 N322 0.984 . S
H329 N322 0.984 . S
H330 N318 0.984 . S
H331 N318 0.985 . S
C332 C333 1.363 . S
C332 C338 1.379 . S
C332 N340 1.356 . S
C333 C332 1.363 . S
C333 C339 1.363 . S
C334 C335 1.363 . S
C334 C339 1.379 . S
C334 N341 1.356 . S
C335 C334 1.363 . S
C335 C338 1.363 . S
N336 C338 1.356 . S
N336 H348 0.984 . S
N336 H349 0.985 . S
N337 C339 1.356 . S
N337 H342 0.984 . S
N337 H343 0.985 . S
C338 C332 1.379 . S
C338 C335 1.363 . S
C338 N336 1.356 . S
C339 C333 1.363 . S
C339 C334 1.379 . S
C339 N337 1.356 . S
N340 C332 1.356 . S
N340 H346 0.984 . S
N340 H347 0.984 . S
N341 C334 1.356 . S
N341 H344 0.984 . S
N341 H345 0.985 . S
H342 N337 0.984 . S
H343 N337 0.985 . S
H344 N341 0.984 . S
H345 N341 0.985 . S
H346 N340 0.984 . S
H347 N340 0.984 . S
H348 N336 0.984 . S
H349 N336 0.985 . S
C350 C351 1.363 . S
C350 C356 1.379 . S
C350 N358 1.356 . S
C351 C350 1.363 . S
C351 C357 1.363 . S
C352 C353 1.363 . S
C352 C357 1.379 . S
C352 N359 1.356 . S
C353 C352 1.363 . S
C353 C356 1.363 . S
N354 C356 1.356 . S
N354 H366 0.984 . S
N354 H367 0.985 . S
N355 C357 1.356 . S
N355 H360 0.984 . S
N355 H361 0.985 . S
C356 C350 1.379 . S
C356 C353 1.363 . S
C356 N354 1.356 . S
C357 C351 1.363 . S
C357 C352 1.379 . S
C357 N355 1.356 . S
N358 C350 1.356 . S
N358 H364 0.984 . S
N358 H365 0.984 . S
N359 C352 1.356 . S
N359 H362 0.984 . S
N359 H363 0.985 . S
H360 N355 0.984 . S
H361 N355 0.985 . S
H362 N359 0.984 . S
H363 N359 0.985 . S
H364 N358 0.984 . S
H365 N358 0.984 . S
H366 N354 0.984 . S
H367 N354 0.985 . S
C368 C369 1.363 . S
C368 C374 1.379 . S
C368 N376 1.356 . S
C369 C368 1.363 . S
C369 C375 1.363 . S
C370 C371 1.363 . S
C370 C375 1.379 . S
C370 N377 1.356 . S
C371 C370 1.363 . S
C371 C374 1.363 . S
N372 C374 1.356 . S
N372 H384 0.984 . S
N372 H385 0.985 . S
N373 C375 1.356 . S
N373 H378 0.984 . S
N373 H379 0.985 . S
C374 C368 1.379 . S
C374 C371 1.363 . S
C374 N372 1.356 . S
C375 C369 1.363 . S
C375 C370 1.379 . S
C375 N373 1.356 . S
N376 C368 1.356 . S
N376 H382 0.984 . S
N376 H383 0.984 . S
N377 C370 1.356 . S
N377 H380 0.984 . S
N377 H381 0.985 . S
H378 N373 0.984 . S
H379 N373 0.985 . S
H380 N377 0.984 . S
H381 N377 0.985 . S
H382 N376 0.984 . S
H383 N376 0.984 . S
H384 N372 0.984 . S
H385 N372 0.985 . S
C386 C387 1.363 . S
C386 C392 1.379 . S
C386 N394 1.356 . S
C387 C386 1.363 . S
C387 C393 1.363 . S
C388 C389 1.363 . S
C388 C393 1.379 . S
C388 N395 1.356 . S
C389 C388 1.363 . S
C389 C392 1.363 . S
N390 C392 1.356 . S
N390 H402 0.984 . S
N390 H403 0.985 . S
N391 C393 1.356 . S
N391 H396 0.984 . S
N391 H397 0.985 . S
C392 C386 1.379 . S
C392 C389 1.363 . S
C392 N390 1.356 . S
C393 C387 1.363 . S
C393 C388 1.379 . S
C393 N391 1.356 . S
N394 C386 1.356 . S
N394 H400 0.984 . S
N394 H401 0.984 . S
N395 C388 1.356 . S
N395 H398 0.984 . S
N395 H399 0.985 . S
H396 N391 0.984 . S
H397 N391 0.985 . S
H398 N395 0.984 . S
H399 N395 0.985 . S
H400 N394 0.984 . S
H401 N394 0.984 . S
H402 N390 0.984 . S
H403 N390 0.985 . S
C404 C405 1.363 . S
C404 C410 1.379 . S
C404 N412 1.356 . S
C405 C404 1.363 . S
C405 C411 1.363 . S
C406 C407 1.363 . S
C406 C411 1.379 . S
C406 N413 1.356 . S
C407 C406 1.363 . S
C407 C410 1.363 . S
N408 C410 1.356 . S
N408 H420 0.984 . S
N408 H421 0.985 . S
N409 C411 1.356 . S
N409 H414 0.984 . S
N409 H415 0.985 . S
C410 C404 1.379 . S
C410 C407 1.363 . S
C410 N408 1.356 . S
C411 C405 1.363 . S
C411 C406 1.379 . S
C411 N409 1.356 . S
N412 C404 1.356 . S
N412 H418 0.984 . S
N412 H419 0.984 . S
N413 C406 1.356 . S
N413 H416 0.984 . S
N413 H417 0.985 . S
H414 N409 0.984 . S
H415 N409 0.985 . S
H416 N413 0.984 . S
H417 N413 0.985 . S
H418 N412 0.984 . S
H419 N412 0.984 . S
H420 N408 0.984 . S
H421 N408 0.985 . S
C422 C423 1.363 . S
C422 C428 1.379 . S
C422 N430 1.356 . S
C423 C422 1.363 . S
C423 C429 1.363 . S
C424 C425 1.363 . S
C424 C429 1.379 . S
C424 N431 1.356 . S
C425 C424 1.363 . S
C425 C428 1.363 . S
N426 C428 1.356 . S
N426 H438 0.984 . S
N426 H439 0.985 . S
N427 C429 1.356 . S
N427 H432 0.984 . S
N427 H433 0.985 . S
C428 C422 1.379 . S
C428 C425 1.363 . S
C428 N426 1.356 . S
C429 C423 1.363 . S
C429 C424 1.379 . S
C429 N427 1.356 . S
N430 C422 1.356 . S
N430 H436 0.984 . S
N430 H437 0.984 . S
N431 C424 1.356 . S
N431 H434 0.984 . S
N431 H435 0.985 . S
H432 N427 0.984 . S
H433 N427 0.985 . S
H434 N431 0.984 . S
H435 N431 0.985 . S
H436 N430 0.984 . S
H437 N430 0.984 . S
H438 N426 0.984 . S
H439 N426 0.985 . S
C440 C441 1.363 . S
C440 C446 1.379 . S
C440 N448 1.356 . S
C441 C440 1.363 . S
C441 C447 1.363 . S
C442 C443 1.363 . S
C442 C447 1.379 . S
C442 N449 1.356 . S
C443 C442 1.363 . S
C443 C446 1.363 . S
N444 C446 1.356 . S
N444 H456 0.984 . S
N444 H457 0.985 . S
N445 C447 1.356 . S
N445 H450 0.984 . S
N445 H451 0.985 . S
C446 C440 1.379 . S
C446 C443 1.363 . S
C446 N444 1.356 . S
C447 C441 1.363 . S
C447 C442 1.379 . S
C447 N445 1.356 . S
N448 C440 1.356 . S
N448 H454 0.984 . S
N448 H455 0.984 . S
N449 C442 1.356 . S
N449 H452 0.984 . S
N449 H453 0.985 . S
H450 N445 0.984 . S
H451 N445 0.985 . S
H452 N449 0.984 . S
H453 N449 0.985 . S
H454 N448 0.984 . S
H455 N448 0.984 . S
H456 N444 0.984 . S
H457 N444 0.985 . S
C458 C459 1.363 . S
C458 C464 1.379 . S
C458 N466 1.356 . S
C459 C458 1.363 . S
C459 C465 1.363 . S
C460 C461 1.363 . S
C460 C465 1.379 . S
C460 N467 1.356 . S
C461 C460 1.363 . S
C461 C464 1.363 . S
N462 C464 1.356 . S
N462 H474 0.984 . S
N462 H475 0.985 . S
N463 C465 1.356 . S
N463 H468 0.984 . S
N463 H469 0.985 . S
C464 C458 1.379 . S
C464 C461 1.363 . S
C464 N462 1.356 . S
C465 C459 1.363 . S
C465 C460 1.379 . S
C465 N463 1.356 . S
N466 C458 1.356 . S
N466 H472 0.984 . S
N466 H473 0.984 . S
N467 C460 1.356 . S
N467 H470 0.984 . S
N467 H471 0.985 . S
H468 N463 0.984 . S
H469 N463 0.985 . S
H470 N467 0.984 . S
H471 N467 0.985 . S
H472 N466 0.984 . S
H473 N466 0.984 . S
H474 N462 0.984 . S
H475 N462 0.985 . S
C476 C477 1.363 . S
C476 C482 1.379 . S
C476 N484 1.356 . S
C477 C476 1.363 . S
C477 C483 1.363 . S
C478 C479 1.363 . S
C478 C483 1.379 . S
C478 N485 1.356 . S
C479 C478 1.363 . S
C479 C482 1.363 . S
N480 C482 1.356 . S
N480 H492 0.984 . S
N480 H493 0.985 . S
N481 C483 1.356 . S
N481 H486 0.984 . S
N481 H487 0.985 . S
C482 C476 1.379 . S
C482 C479 1.363 . S
C482 N480 1.356 . S
C483 C477 1.363 . S
C483 C478 1.379 . S
C483 N481 1.356 . S
N484 C476 1.356 . S
N484 H490 0.984 . S
N484 H491 0.984 . S
N485 C478 1.356 . S
N485 H488 0.984 . S
N485 H489 0.985 . S
H486 N481 0.984 . S
H487 N481 0.985 . S
H488 N485 0.984 . S
H489 N485 0.985 . S
H490 N484 0.984 . S
H491 N484 0.984 . S
H492 N480 0.984 . S
H493 N480 0.985 . S
C494 C495 1.363 . S
C494 C500 1.379 . S
C494 N502 1.356 . S
C495 C494 1.363 . S
C495 C501 1.363 . S
C496 C497 1.363 . S
C496 C501 1.379 . S
C496 N503 1.356 . S
C497 C496 1.363 . S
C497 C500 1.363 . S
N498 C500 1.356 . S
N498 H510 0.984 . S
N498 H511 0.985 . S
N499 C501 1.356 . S
N499 H504 0.984 . S
N499 H505 0.985 . S
C500 C494 1.379 . S
C500 C497 1.363 . S
C500 N498 1.356 . S
C501 C495 1.363 . S
C501 C496 1.379 . S
C501 N499 1.356 . S
N502 C494 1.356 . S
N502 H508 0.984 . S
N502 H509 0.984 . S
N503 C496 1.356 . S
N503 H506 0.984 . S
N503 H507 0.985 . S
H504 N499 0.984 . S
H505 N499 0.985 . S
H506 N503 0.984 . S
H507 N503 0.985 . S
H508 N502 0.984 . S
H509 N502 0.984 . S
H510 N498 0.984 . S
H511 N498 0.985 . S
C512 C513 1.363 . S
C512 C518 1.379 . S
C512 N520 1.356 . S
C513 C512 1.363 . S
C513 C519 1.363 . S
C514 C515 1.363 . S
C514 C519 1.379 . S
C514 N521 1.356 . S
C515 C514 1.363 . S
C515 C518 1.363 . S
N516 C518 1.356 . S
N516 H528 0.984 . S
N516 H529 0.985 . S
N517 C519 1.356 . S
N517 H522 0.984 . S
N517 H523 0.985 . S
C518 C512 1.379 . S
C518 C515 1.363 . S
C518 N516 1.356 . S
C519 C513 1.363 . S
C519 C514 1.379 . S
C519 N517 1.356 . S
N520 C512 1.356 . S
N520 H526 0.984 . S
N520 H527 0.984 . S
N521 C514 1.356 . S
N521 H524 0.984 . S
N521 H525 0.985 . S
H522 N517 0.984 . S
H523 N517 0.985 . S
H524 N521 0.984 . S
H525 N521 0.985 . S
H526 N520 0.984 . S
H527 N520 0.984 . S
H528 N516 0.984 . S
H529 N516 0.985 . S
C530 C531 1.363 . S
C530 C536 1.379 . S
C530 N538 1.356 . S
C531 C530 1.363 . S
C531 C537 1.363 . S
C532 C533 1.363 . S
C532 C537 1.379 . S
C532 N539 1.356 . S
C533 C532 1.363 . S
C533 C536 1.363 . S
N534 C536 1.356 . S
N534 H546 0.984 . S
N534 H547 0.985 . S
N535 C537 1.356 . S
N535 H540 0.984 . S
N535 H541 0.985 . S
C536 C530 1.379 . S
C536 C533 1.363 . S
C536 N534 1.356 . S
C537 C531 1.363 . S
C537 C532 1.379 . S
C537 N535 1.356 . S
N538 C530 1.356 . S
N538 H544 0.984 . S
N538 H545 0.984 . S
N539 C532 1.356 . S
N539 H542 0.984 . S
N539 H543 0.985 . S
H540 N535 0.984 . S
H541 N535 0.985 . S
H542 N539 0.984 . S
H543 N539 0.985 . S
H544 N538 0.984 . S
H545 N538 0.984 . S
H546 N534 0.984 . S
H547 N534 0.985 . S
C548 C549 1.363 . S
C548 C554 1.379 . S
C548 N556 1.356 . S
C549 C548 1.363 . S
C549 C555 1.363 . S
C550 C551 1.363 . S
C550 C555 1.379 . S
C550 N557 1.356 . S
C551 C550 1.363 . S
C551 C554 1.363 . S
N552 C554 1.356 . S
N552 H564 0.984 . S
N552 H565 0.985 . S
N553 C555 1.356 . S
N553 H558 0.984 . S
N553 H559 0.985 . S
C554 C548 1.379 . S
C554 C551 1.363 . S
C554 N552 1.356 . S
C555 C549 1.363 . S
C555 C550 1.379 . S
C555 N553 1.356 . S
N556 C548 1.356 . S
N556 H562 0.984 . S
N556 H563 0.984 . S
N557 C550 1.356 . S
N557 H560 0.984 . S
N557 H561 0.985 . S
H558 N553 0.984 . S
H559 N553 0.985 . S
H560 N557 0.984 . S
H561 N557 0.985 . S
H562 N556 0.984 . S
H563 N556 0.984 . S
H564 N552 0.984 . S
H565 N552 0.985 . S
C566 C567 1.363 . S
C566 C572 1.379 . S
C566 N574 1.356 . S
C567 C566 1.363 . S
C567 C573 1.363 . S
C568 C569 1.363 . S
C568 C573 1.379 . S
C568 N575 1.356 . S
C569 C568 1.363 . S
C569 C572 1.363 . S
N570 C572 1.356 . S
N570 H582 0.984 . S
N570 H583 0.985 . S
N571 C573 1.356 . S
N571 H576 0.984 . S
N571 H577 0.985 . S
C572 C566 1.379 . S
C572 C569 1.363 . S
C572 N570 1.356 . S
C573 C567 1.363 . S
C573 C568 1.379 . S
C573 N571 1.356 . S
N574 C566 1.356 . S
N574 H580 0.984 . S
N574 H581 0.984 . S
N575 C568 1.356 . S
N575 H578 0.984 . S
N575 H579 0.985 . S
H576 N571 0.984 . S
H577 N571 0.985 . S
H578 N575 0.984 . S
H579 N575 0.985 . S
H580 N574 0.984 . S
H581 N574 0.984 . S
H582 N570 0.984 . S
H583 N570 0.985 . S
C584 C585 1.363 . S
C584 C590 1.379 . S
C584 N592 1.356 . S
C585 C584 1.363 . S
C585 C591 1.363 . S
C586 C587 1.363 . S
C586 C591 1.379 . S
C586 N593 1.356 . S
C587 C586 1.363 . S
C587 C590 1.363 . S
N588 C590 1.356 . S
N588 H600 0.984 . S
N588 H601 0.985 . S
N589 C591 1.356 . S
N589 H594 0.984 . S
N589 H595 0.985 . S
C590 C584 1.379 . S
C590 C587 1.363 . S
C590 N588 1.356 . S
C591 C585 1.363 . S
C591 C586 1.379 . S
C591 N589 1.356 . S
N592 C584 1.356 . S
N592 H598 0.984 . S
N592 H599 0.984 . S
N593 C586 1.356 . S
N593 H596 0.984 . S
N593 H597 0.985 . S
H594 N589 0.984 . S
H595 N589 0.985 . S
H596 N593 0.984 . S
H597 N593 0.985 . S
H598 N592 0.984 . S
H599 N592 0.984 . S
H600 N588 0.984 . S
H601 N588 0.985 . S
C602 C603 1.363 . S
C602 C608 1.379 . S
C602 N610 1.356 . S
C603 C602 1.363 . S
C603 C609 1.363 . S
C604 C605 1.363 . S
C604 C609 1.379 . S
C604 N611 1.356 . S
C605 C604 1.363 . S
C605 C608 1.363 . S
N606 C608 1.356 . S
N606 H618 0.984 . S
N606 H619 0.985 . S
N607 C609 1.356 . S
N607 H612 0.984 . S
N607 H613 0.985 . S
C608 C602 1.379 . S
C608 C605 1.363 . S
C608 N606 1.356 . S
C609 C603 1.363 . S
C609 C604 1.379 . S
C609 N607 1.356 . S
N610 C602 1.356 . S
N610 H616 0.984 . S
N610 H617 0.984 . S
N611 C604 1.356 . S
N611 H614 0.984 . S
N611 H615 0.985 . S
H612 N607 0.984 . S
H613 N607 0.985 . S
H614 N611 0.984 . S
H615 N611 0.985 . S
H616 N610 0.984 . S
H617 N610 0.984 . S
H618 N606 0.984 . S
H619 N606 0.985 . S
C620 C621 1.363 . S
C620 C626 1.379 . S
C620 N628 1.356 . S
C621 C620 1.363 . S
C621 C627 1.363 . S
C622 C623 1.363 . S
C622 C627 1.379 . S
C622 N629 1.356 . S
C623 C622 1.363 . S
C623 C626 1.363 . S
N624 C626 1.356 . S
N624 H636 0.984 . S
N624 H637 0.985 . S
N625 C627 1.356 . S
N625 H630 0.984 . S
N625 H631 0.985 . S
C626 C620 1.379 . S
C626 C623 1.363 . S
C626 N624 1.356 . S
C627 C621 1.363 . S
C627 C622 1.379 . S
C627 N625 1.356 . S
N628 C620 1.356 . S
N628 H634 0.984 . S
N628 H635 0.984 . S
N629 C622 1.356 . S
N629 H632 0.984 . S
N629 H633 0.985 . S
H630 N625 0.984 . S
H631 N625 0.985 . S
H632 N629 0.984 . S
H633 N629 0.985 . S
H634 N628 0.984 . S
H635 N628 0.984 . S
H636 N624 0.984 . S
H637 N624 0.985 . S
C638 C639 1.363 . S
C638 C644 1.379 . S
C638 N646 1.356 . S
C639 C638 1.363 . S
C639 C645 1.363 . S
C640 C641 1.363 . S
C640 C645 1.379 . S
C640 N647 1.356 . S
C641 C640 1.363 . S
C641 C644 1.363 . S
N642 C644 1.356 . S
N642 H654 0.984 . S
N642 H655 0.985 . S
N643 C645 1.356 . S
N643 H648 0.984 . S
N643 H649 0.985 . S
C644 C638 1.379 . S
C644 C641 1.363 . S
C644 N642 1.356 . S
C645 C639 1.363 . S
C645 C640 1.379 . S
C645 N643 1.356 . S
N646 C638 1.356 . S
N646 H652 0.984 . S
N646 H653 0.984 . S
N647 C640 1.356 . S
N647 H650 0.984 . S
N647 H651 0.985 . S
H648 N643 0.984 . S
H649 N643 0.985 . S
H650 N647 0.984 . S
H651 N647 0.985 . S
H652 N646 0.984 . S
H653 N646 0.984 . S
H654 N642 0.984 . S
H655 N642 0.985 . S
C656 C657 1.363 . S
C656 C662 1.379 1_554 S
C656 N664 1.356 . S
C657 C656 1.363 . S
C657 C663 1.363 . S
C658 C659 1.363 . S
C658 C663 1.379 1_556 S
C658 N665 1.356 . S
C659 C658 1.363 . S
C659 C662 1.363 . S
N660 C662 1.356 . S
N660 H672 0.984 . S
N660 H673 0.985 . S
N661 C663 1.356 . S
N661 H666 0.984 . S
N661 H667 0.985 . S
C662 C656 1.379 1_556 S
C662 C659 1.363 . S
C662 N660 1.356 . S
C663 C657 1.363 . S
C663 C658 1.379 1_554 S
C663 N661 1.356 . S
N664 C656 1.356 . S
N664 H670 0.984 . S
N664 H671 0.984 . S
N665 C658 1.356 . S
N665 H668 0.984 . S
N665 H669 0.985 . S
H666 N661 0.984 . S
H667 N661 0.985 . S
H668 N665 0.984 . S
H669 N665 0.985 . S
H670 N664 0.984 . S
H671 N664 0.984 . S
H672 N660 0.984 . S
H673 N660 0.985 . S
C674 C675 1.363 . S
C674 C680 1.379 . S
C674 N682 1.356 . S
C675 C674 1.363 . S
C675 C681 1.363 . S
C676 C677 1.363 . S
C676 C681 1.379 . S
C676 N683 1.356 . S
C677 C676 1.363 . S
C677 C680 1.363 . S
N678 C680 1.356 . S
N678 H690 0.984 . S
N678 H691 0.985 . S
N679 C681 1.356 . S
N679 H684 0.984 . S
N679 H685 0.985 . S
C680 C674 1.379 . S
C680 C677 1.363 . S
C680 N678 1.356 . S
C681 C675 1.363 . S
C681 C676 1.379 . S
C681 N679 1.356 . S
N682 C674 1.356 . S
N682 H688 0.984 . S
N682 H689 0.984 . S
N683 C676 1.356 . S
N683 H686 0.984 . S
N683 H687 0.985 . S
H684 N679 0.984 . S
H685 N679 0.985 . S
H686 N683 0.984 . S
H687 N683 0.985 . S
H688 N682 0.984 . S
H689 N682 0.984 . S
H690 N678 0.984 . S
H691 N678 0.985 . S
C692 C693 1.363 . S
C692 C698 1.379 1_554 S
C692 N700 1.356 . S
C693 C692 1.363 . S
C693 C699 1.363 1_655 S
C694 C695 1.363 1_455 S
C694 C699 1.379 1_556 S
C694 N701 1.356 . S
C695 C694 1.363 1_655 S
C695 C698 1.363 . S
N696 C698 1.356 . S
N696 H708 0.984 . S
N696 H709 0.985 . S
N697 C699 1.356 . S
N697 H702 0.984 . S
N697 H703 0.985 . S
C698 C692 1.379 1_556 S
C698 C695 1.363 . S
C698 N696 1.356 . S
C699 C693 1.363 1_455 S
C699 C694 1.379 1_554 S
C699 N697 1.356 . S
N700 C692 1.356 . S
N700 H706 0.984 . S
N700 H707 0.984 . S
N701 C694 1.356 . S
N701 H704 0.984 . S
N701 H705 0.985 . S
H702 N697 0.984 . S
H703 N697 0.985 . S
H704 N701 0.984 . S
H705 N701 0.985 . S
H706 N700 0.984 . S
H707 N700 0.984 . S
H708 N696 0.984 . S
H709 N696 0.985 . S
C710 C711 1.363 1_545 S
C710 C716 1.379 . S
C710 N718 1.356 . S
C711 C710 1.363 1_565 S
C711 C717 1.363 . S
C712 C713 1.363 . S
C712 C717 1.379 . S
C712 N719 1.356 . S
C713 C712 1.363 . S
C713 C716 1.363 1_565 S
N714 C716 1.356 . S
N714 H726 0.984 . S
N714 H727 0.985 . S
N715 C717 1.356 . S
N715 H720 0.984 . S
N715 H721 0.985 . S
C716 C710 1.379 . S
C716 C713 1.363 1_545 S
C716 N714 1.356 . S
C717 C711 1.363 . S
C717 C712 1.379 . S
C717 N715 1.356 . S
N718 C710 1.356 . S
N718 H724 0.984 . S
N718 H725 0.984 . S
N719 C712 1.356 . S
N719 H722 0.984 . S
N719 H723 0.985 . S
H720 N715 0.984 . S
H721 N715 0.985 . S
H722 N719 0.984 . S
H723 N719 0.985 . S
H724 N718 0.984 . S
H725 N718 0.984 . S
H726 N714 0.984 . S
H727 N714 0.985 . S
C728 C729 1.363 . S
C728 C734 1.379 1_556 S
C728 N736 1.356 . S
C729 C728 1.363 . S
C729 C735 1.363 . S
C730 C731 1.363 . S
C730 C735 1.379 1_554 S
C730 N737 1.356 . S
C731 C730 1.363 . S
C731 C734 1.363 . S
N732 C734 1.356 . S
N732 H744 0.984 . S
N732 H745 0.985 . S
N733 C735 1.356 . S
N733 H738 0.984 . S
N733 H739 0.985 . S
C734 C728 1.379 1_554 S
C734 C731 1.363 . S
C734 N732 1.356 . S
C735 C729 1.363 . S
C735 C730 1.379 1_556 S
C735 N733 1.356 . S
N736 C728 1.356 . S
N736 H742 0.984 . S
N736 H743 0.984 . S
N737 C730 1.356 . S
N737 H740 0.984 . S
N737 H741 0.985 . S
H738 N733 0.984 . S
H739 N733 0.985 . S
H740 N737 0.984 . S
H741 N737 0.985 . S
H742 N736 0.984 . S
H743 N736 0.984 . S
H744 N732 0.984 . S
H745 N732 0.985 . S
C746 C747 1.363 . S
C746 C752 1.379 . S
C746 N754 1.356 . S
C747 C746 1.363 . S
C747 C753 1.363 . S
C748 C749 1.363 . S
C748 C753 1.379 . S
C748 N755 1.356 . S
C749 C748 1.363 . S
C749 C752 1.363 . S
N750 C752 1.356 . S
N750 H762 0.984 . S
N750 H763 0.985 . S
N751 C753 1.356 . S
N751 H756 0.984 . S
N751 H757 0.985 . S
C752 C746 1.379 . S
C752 C749 1.363 . S
C752 N750 1.356 . S
C753 C747 1.363 . S
C753 C748 1.379 . S
C753 N751 1.356 . S
N754 C746 1.356 . S
N754 H760 0.984 . S
N754 H761 0.984 . S
N755 C748 1.356 . S
N755 H758 0.984 . S
N755 H759 0.985 . S
H756 N751 0.984 . S
H757 N751 0.985 . S
H758 N755 0.984 . S
H759 N755 0.985 . S
H760 N754 0.984 . S
H761 N754 0.984 . S
H762 N750 0.984 . S
H763 N750 0.985 . S
C764 C765 1.363 . S
C764 C770 1.379 1_554 S
C764 N772 1.356 . S
C765 C764 1.363 . S
C765 C771 1.363 1_455 S
C766 C767 1.363 1_655 S
C766 C771 1.379 1_556 S
C766 N773 1.356 . S
C767 C766 1.363 1_455 S
C767 C770 1.363 . S
N768 C770 1.356 . S
N768 H780 0.984 . S
N768 H781 0.985 . S
N769 C771 1.356 . S
N769 H774 0.984 . S
N769 H775 0.985 . S
C770 C764 1.379 1_556 S
C770 C767 1.363 . S
C770 N768 1.356 . S
C771 C765 1.363 1_655 S
C771 C766 1.379 1_554 S
C771 N769 1.356 . S
N772 C764 1.356 . S
N772 H778 0.984 . S
N772 H779 0.984 . S
N773 C766 1.356 . S
N773 H776 0.984 . S
N773 H777 0.985 . S
H774 N769 0.984 . S
H775 N769 0.985 . S
H776 N773 0.984 . S
H777 N773 0.985 . S
H778 N772 0.984 . S
H779 N772 0.984 . S
H780 N768 0.984 . S
H781 N768 0.985 . S
C782 C783 1.363 . S
C782 C788 1.379 . S
C782 N790 1.356 . S
C783 C782 1.363 . S
C783 C789 1.363 1_545 S
C784 C785 1.363 1_565 S
C784 C789 1.379 . S
C784 N791 1.356 . S
C785 C784 1.363 1_545 S
C785 C788 1.363 . S
N786 C788 1.356 . S
N786 H798 0.984 . S
N786 H799 0.985 . S
N787 C789 1.356 . S
N787 H792 0.984 . S
N787 H793 0.985 . S
C788 C782 1.379 . S
C788 C785 1.363 . S
C788 N786 1.356 . S
C789 C783 1.363 1_565 S
C789 C784 1.379 . S
C789 N787 1.356 . S
N790 C782 1.356 . S
N790 H796 0.984 . S
N790 H797 0.984 . S
N791 C784 1.356 . S
N791 H794 0.984 . S
N791 H795 0.985 . S
H792 N787 0.984 . S
H793 N787 0.985 . S
H794 N791 0.984 . S
H795 N791 0.985 . S
H796 N790 0.984 . S
H797 N790 0.984 . S
H798 N786 0.984 . S
H799 N786 0.985 . S
C225 C11 1.379 . S
C227 C109 1.379 . S
C243 C25 1.379 . S
C245 C67 1.379 . S
C261 C39 1.379 . S
C263 C81 1.379 . S
C279 C53 1.379 . S
C281 C95 1.379 . S
C297 C123 1.379 . S
C299 C221 1.379 . S
C315 C179 1.379 . S
C317 C137 1.379 . S
C333 C151 1.379 . S
C335 C193 1.379 . S
C351 C165 1.379 . S
C353 C207 1.379 . S
C369 C5 1.471 . S
C371 C135 1.498 . S
C387 C19 1.471 . S
C389 C149 1.498 . S
C405 C163 1.498 . S
C407 C33 1.471 . S
C423 C47 1.471 . S
C425 C121 1.498 . S
C441 C61 1.471 . S
C443 C219 1.498 . S
C459 C177 1.498 . S
C461 C75 1.471 . S
C477 C191 1.498 . S
C479 C89 1.471 . S
C495 C205 1.498 . S
C497 C103 1.471 . S
C513 C23 1.498 . S
C515 C117 1.471 . S
C531 C37 1.498 . S
C533 C131 1.471 . S
C549 C145 1.471 . S
C551 C51 1.498 . S
C567 C9 1.498 . S
C569 C159 1.471 . S
C585 C173 1.471 . S
C587 C107 1.498 . S
C603 C187 1.471 . S
C605 C65 1.498 . S
C621 C79 1.498 . S
C623 C201 1.471 . S
C639 C93 1.498 . S
C641 C215 1.471 . S
C657 C0 1.564 . S
C659 C56 1.564 . S
C675 C70 1.564 . S
C677 C14 1.564 . S
C693 C28 1.564 . S
C695 C84 1.564 . S
C711 C98 1.564 . S
C713 C42 1.564 . S
C729 C112 1.564 . S
C731 C168 1.564 . S
C747 C182 1.564 . S
C749 C126 1.564 . S
C765 C196 1.564 . S
C767 C140 1.564 . S
C783 C210 1.564 . S
C785 C154 1.564 . S
