# Generated by pormake.
# Topology ukt, (4)-cn, num edge types: 1
# Building blocks:
#     Node 0, Type 0, BuildingBlock: AZAVOO_clean_sbu_0, # of connection points: 4
#     Node 1, Type 0, BuildingBlock: AZAVOO_clean_sbu_0, # of connection points: 4
#     Node 2, Type 0, BuildingBlock: AZAVOO_clean_sbu_0, # of connection points: 4
#     Node 3, Type 0, BuildingBlock: AZAVOO_clean_sbu_0, # of connection points: 4
#     Node 4, Type 0, BuildingBlock: AZAVOO_clean_sbu_0, # of connection points: 4
#     Node 5, Type 0, BuildingBlock: AZAVOO_clean_sbu_0, # of connection points: 4
#     Node 6, Type 0, BuildingBlock: AZAVOO_clean_sbu_0, # of connection points: 4
#     Node 7, Type 0, BuildingBlock: AZAVOO_clean_sbu_0, # of connection points: 4
#     Node 8, Type 0, BuildingBlock: AZAVOO_clean_sbu_0, # of connection points: 4
#     Node 9, Type 0, BuildingBlock: AZAVOO_clean_sbu_0, # of connection points: 4
#     Node 10, Type 0, BuildingBlock: AZAVOO_clean_sbu_0, # of connection points: 4
#     Node 11, Type 0, BuildingBlock: AZAVOO_clean_sbu_0, # of connection points: 4
#     Node 12, Type 0, BuildingBlock: AZAVOO_clean_sbu_0, # of connection points: 4
#     Node 13, Type 0, BuildingBlock: AZAVOO_clean_sbu_0, # of connection points: 4
#     Node 14, Type 0, BuildingBlock: AZAVOO_clean_sbu_0, # of connection points: 4
#     Node 15, Type 0, BuildingBlock: AZAVOO_clean_sbu_0, # of connection points: 4
#     Edge 16, Type (0, 0), BuildingBlock: ZUJKAS_clean_linker_0, # of connection points: 2
#     Edge 17, Type (0, 0), BuildingBlock: ZUJKAS_clean_linker_0, # of connection points: 2
#     Edge 18, Type (0, 0), BuildingBlock: ZUJKAS_clean_linker_0, # of connection points: 2
#     Edge 19, Type (0, 0), BuildingBlock: ZUJKAS_clean_linker_0, # of connection points: 2
#     Edge 20, Type (0, 0), BuildingBlock: ZUJKAS_clean_linker_0, # of connection points: 2
#     Edge 21, Type (0, 0), BuildingBlock: ZUJKAS_clean_linker_0, # of connection points: 2
#     Edge 22, Type (0, 0), BuildingBlock: ZUJKAS_clean_linker_0, # of connection points: 2
#     Edge 23, Type (0, 0), BuildingBlock: ZUJKAS_clean_linker_0, # of connection points: 2
#     Edge 24, Type (0, 0), BuildingBlock: ZUJKAS_clean_linker_0, # of connection points: 2
#     Edge 25, Type (0, 0), BuildingBlock: ZUJKAS_clean_linker_0, # of connection points: 2
#     Edge 26, Type (0, 0), BuildingBlock: ZUJKAS_clean_linker_0, # of connection points: 2
#     Edge 27, Type (0, 0), BuildingBlock: ZUJKAS_clean_linker_0, # of connection points: 2
#     Edge 28, Type (0, 0), BuildingBlock: ZUJKAS_clean_linker_0, # of connection points: 2
#     Edge 29, Type (0, 0), BuildingBlock: ZUJKAS_clean_linker_0, # of connection points: 2
#     Edge 30, Type (0, 0), BuildingBlock: ZUJKAS_clean_linker_0, # of connection points: 2
#     Edge 31, Type (0, 0), BuildingBlock: ZUJKAS_clean_linker_0, # of connection points: 2
#     Edge 32, Type (0, 0), BuildingBlock: ZUJKAS_clean_linker_0, # of connection points: 2
#     Edge 33, Type (0, 0), BuildingBlock: ZUJKAS_clean_linker_0, # of connection points: 2
#     Edge 34, Type (0, 0), BuildingBlock: ZUJKAS_clean_linker_0, # of connection points: 2
#     Edge 35, Type (0, 0), BuildingBlock: ZUJKAS_clean_linker_0, # of connection points: 2
#     Edge 36, Type (0, 0), BuildingBlock: ZUJKAS_clean_linker_0, # of connection points: 2
#     Edge 37, Type (0, 0), BuildingBlock: ZUJKAS_clean_linker_0, # of connection points: 2
#     Edge 38, Type (0, 0), BuildingBlock: ZUJKAS_clean_linker_0, # of connection points: 2
#     Edge 39, Type (0, 0), BuildingBlock: ZUJKAS_clean_linker_0, # of connection points: 2
#     Edge 40, Type (0, 0), BuildingBlock: ZUJKAS_clean_linker_0, # of connection points: 2
#     Edge 41, Type (0, 0), BuildingBlock: ZUJKAS_clean_linker_0, # of connection points: 2
#     Edge 42, Type (0, 0), BuildingBlock: ZUJKAS_clean_linker_0, # of connection points: 2
#     Edge 43, Type (0, 0), BuildingBlock: ZUJKAS_clean_linker_0, # of connection points: 2
#     Edge 44, Type (0, 0), BuildingBlock: ZUJKAS_clean_linker_0, # of connection points: 2
#     Edge 45, Type (0, 0), BuildingBlock: ZUJKAS_clean_linker_0, # of connection points: 2
#     Edge 46, Type (0, 0), BuildingBlock: ZUJKAS_clean_linker_0, # of connection points: 2
#     Edge 47, Type (0, 0), BuildingBlock: ZUJKAS_clean_linker_0, # of connection points: 2
# Relax obj value: 0.306
# Max RMSD: 0.206
# Mean RMSD: 0.197
data_MOF--net-ukt--node1-AZAVOO_clean_sbu_0--edge1-ZUJKAS_clean_linker_0
_symmetry_space_group_name_H-M    P1
_symmetry_Int_Tables_number       1
_symmetry_cell_setting            triclinic
loop_
_symmetry_equiv_pos_as_xyz
'x, y, z'
_cell_length_a     53.175228
_cell_length_b     53.142512
_cell_length_c     49.150865
_cell_angle_alpha  90.066655
_cell_angle_beta   89.992851
_cell_angle_gamma 89.923117
loop_
_atom_site_label
_atom_site_type_symbol
_atom_site_fract_x
_atom_site_fract_y
_atom_site_fract_z
_atom_type_partial_charge
Mg0 Mg 0.58717 0.14794 0.07709 0.0
O1 O 0.62862 0.14572 0.06444 0.0
O2 O 0.64393 0.18462 0.0605 0.0
Mg3 Mg 0.61269 0.21186 0.07268 0.0
C4 C 0.64654 0.16079 0.05881 0.0
C5 C 0.56666 0.09436 0.08021 0.0
O6 O 0.54618 0.10819 0.0789 0.0
O7 O 0.59776 0.15695 0.1213 0.0
O8 O 0.61268 0.19607 0.11611 0.0
O9 O 0.57683 0.1516 0.03332 0.0
O10 O 0.58434 0.18395 0.06041 0.0
C11 C 0.60727 0.17715 0.13102 0.0
C12 C 0.5797 0.17562 0.03632 0.0
O13 O 0.58768 0.10541 0.08282 0.0
Mg14 Mg 0.33096 0.57665 0.0524 0.0
O15 O 0.33599 0.61822 0.04088 0.0
O16 O 0.29811 0.63591 0.03644 0.0
Mg17 Mg 0.26866 0.60648 0.0476 0.0
C18 C 0.32206 0.63712 0.03535 0.0
C19 C 0.38161 0.55215 0.0472 0.0
O20 O 0.36484 0.53485 0.04119 0.0
O21 O 0.32234 0.58743 0.09736 0.0
O22 O 0.28437 0.60471 0.0908 0.0
O23 O 0.32638 0.56754 0.00815 0.0
O24 O 0.2948 0.57665 0.03557 0.0
C25 C 0.3024 0.59817 0.10645 0.0
C26 C 0.30266 0.57196 0.01135 0.0
O27 O 0.37379 0.57306 0.05663 0.0
Mg28 Mg 0.91418 0.34007 0.07271 0.0
O29 O 0.87311 0.34375 0.05876 0.0
O30 O 0.85621 0.30534 0.0568 0.0
Mg31 Mg 0.88546 0.27738 0.07215 0.0
C32 C 0.85474 0.3291 0.05348 0.0
C33 C 0.93713 0.39216 0.06862 0.0
O34 O 0.95593 0.3767 0.06378 0.0
O35 O 0.9021 0.33444 0.1171 0.0
O36 O 0.88538 0.29586 0.11442 0.0
O37 O 0.92576 0.3331 0.02972 0.0
O38 O 0.91545 0.30293 0.05849 0.0
C39 C 0.89146 0.31541 0.12806 0.0
C40 C 0.92157 0.30947 0.03414 0.0
O41 O 0.91614 0.38287 0.07576 0.0
Mg42 Mg 0.1779 0.9158 0.05943 0.0
O43 O 0.17124 0.87424 0.04885 0.0
O44 O 0.20842 0.85552 0.04277 0.0
Mg45 Mg 0.23906 0.88451 0.05139 0.0
C46 C 0.18443 0.8549 0.04294 0.0
C47 C 0.12725 0.94082 0.05791 0.0
O48 O 0.14355 0.95784 0.04985 0.0
O49 O 0.18877 0.90578 0.10374 0.0
O50 O 0.22614 0.88781 0.09568 0.0
O51 O 0.17983 0.92418 0.01492 0.0
O52 O 0.21292 0.91467 0.04001 0.0
C53 C 0.20899 0.89513 0.11209 0.0
C54 C 0.20359 0.91915 0.01634 0.0
O55 O 0.13567 0.92011 0.06715 0.0
Mg56 Mg 0.56318 0.3417 0.42664 0.0
O57 O 0.60357 0.34272 0.44222 0.0
O58 O 0.61242 0.30732 0.46464 0.0
Mg59 Mg 0.57788 0.28189 0.46028 0.0
C60 C 0.61853 0.32921 0.45628 0.0
C61 C 0.57402 0.39908 0.39968 0.0
O62 O 0.57872 0.41101 0.37683 0.0
O63 O 0.5743 0.31505 0.3921 0.0
O64 O 0.5837 0.27936 0.41396 0.0
O65 O 0.55083 0.35555 0.46804 0.0
O66 O 0.55374 0.31553 0.45622 0.0
C67 C 0.58162 0.29213 0.39207 0.0
C68 C 0.54982 0.33204 0.47478 0.0
O69 O 0.57208 0.37521 0.39882 0.0
Mg70 Mg 0.17496 0.60157 0.43139 0.0
O71 O 0.16028 0.64192 0.43886 0.0
O72 O 0.19394 0.66685 0.4418 0.0
Mg73 Mg 0.22956 0.64348 0.43542 0.0
C74 C 0.17017 0.66356 0.44264 0.0
C75 C 0.1321 0.56625 0.43593 0.0
O76 O 0.1521 0.55548 0.44649 0.0
O77 O 0.18427 0.60935 0.38619 0.0
O78 O 0.21849 0.63329 0.39167 0.0
O79 O 0.17855 0.59658 0.47637 0.0
O80 O 0.20918 0.61037 0.45006 0.0
C81 C 0.20289 0.62168 0.37639 0.0
C82 C 0.20114 0.6053 0.47413 0.0
O83 O 0.13483 0.58741 0.4242 0.0
Mg84 Mg 0.92821 0.17742 0.44011 0.0
O85 O 0.88705 0.17663 0.45324 0.0
O86 O 0.87671 0.21387 0.47117 0.0
Mg87 Mg 0.91115 0.23944 0.46727 0.0
C88 C 0.87122 0.19124 0.46473 0.0
C89 C 0.92039 0.11843 0.41335 0.0
O90 O 0.91546 0.10756 0.38992 0.0
O91 O 0.91864 0.20131 0.40274 0.0
O92 O 0.90784 0.23847 0.42065 0.0
O93 O 0.93827 0.16698 0.48352 0.0
O94 O 0.93555 0.20582 0.46801 0.0
C95 C 0.91115 0.22404 0.40016 0.0
C96 C 0.93847 0.19095 0.48829 0.0
O97 O 0.92107 0.14236 0.41399 0.0
Mg98 Mg 0.33031 0.90355 0.44062 0.0
O99 O 0.34252 0.86258 0.44886 0.0
O100 O 0.30748 0.83944 0.45131 0.0
Mg101 Mg 0.27341 0.86437 0.443 0.0
C102 C 0.33136 0.84159 0.45272 0.0
C103 C 0.37565 0.93619 0.4461 0.0
O104 O 0.35633 0.94907 0.45534 0.0
O105 O 0.32234 0.89514 0.39524 0.0
O106 O 0.28701 0.8727 0.39979 0.0
O107 O 0.32558 0.90996 0.48537 0.0
O108 O 0.2954 0.89609 0.45841 0.0
C109 C 0.30372 0.88315 0.38497 0.0
C110 C 0.30303 0.90132 0.4826 0.0
O111 O 0.37144 0.91505 0.43483 0.0
Mg112 Mg 0.45141 0.88612 0.86205 0.0
O113 O 0.43526 0.86042 0.89512 0.0
O114 O 0.40989 0.88303 0.92191 0.0
Mg115 Mg 0.41052 0.92369 0.90661 0.0
C116 C 0.4202 0.86219 0.91527 0.0
C117 C 0.48669 0.85557 0.82498 0.0
O118 O 0.48271 0.87601 0.81059 0.0
O119 O 0.47935 0.90289 0.89311 0.0
O120 O 0.45226 0.9267 0.91672 0.0
O121 O 0.41687 0.87851 0.83717 0.0
O122 O 0.42048 0.9102 0.86593 0.0
C123 C 0.47455 0.91903 0.91176 0.0
C124 C 0.40647 0.89703 0.85007 0.0
O125 O 0.47778 0.85445 0.84896 0.0
Mg126 Mg 0.60762 0.42537 0.8527 0.0
O127 O 0.63491 0.41767 0.88808 0.0
O128 O 0.61276 0.40197 0.92283 0.0
Mg129 Mg 0.57165 0.3991 0.91006 0.0
C130 C 0.6335 0.40909 0.91231 0.0
C131 C 0.64055 0.43807 0.80464 0.0
O132 O 0.62293 0.42297 0.79544 0.0
O133 O 0.59231 0.461 0.87479 0.0
O134 O 0.56996 0.44183 0.90747 0.0
O135 O 0.61324 0.3856 0.83896 0.0
O136 O 0.5834 0.39741 0.8674 0.0
C137 C 0.57755 0.46165 0.89543 0.0
C138 C 0.59535 0.37947 0.85546 0.0
O139 O 0.63917 0.44544 0.82928 0.0
Mg140 Mg 0.04568 0.61497 0.86234 0.0
O141 O 0.06175 0.63987 0.89644 0.0
O142 O 0.08485 0.61557 0.92387 0.0
Mg143 Mg 0.08282 0.57511 0.90827 0.0
C144 C 0.076 0.63703 0.91716 0.0
C145 C 0.01754 0.64845 0.82249 0.0
O146 O 0.02647 0.63004 0.80744 0.0
O147 O 0.01583 0.59914 0.89174 0.0
O148 O 0.04061 0.57394 0.91662 0.0
O149 O 0.08139 0.62123 0.83911 0.0
O150 O 0.07535 0.58957 0.86737 0.0
C151 C 0.01904 0.58286 0.91057 0.0
C152 C 0.09051 0.60224 0.8523 0.0
O153 O 0.02088 0.64751 0.84809 0.0
Mg154 Mg 0.89451 0.05333 0.8654 0.0
O155 O 0.86849 0.06468 0.90073 0.0
O156 O 0.89128 0.08565 0.93148 0.0
Mg157 Mg 0.9322 0.08573 0.91746 0.0
C158 C 0.87033 0.07686 0.92308 0.0
C159 C 0.86051 0.03596 0.8207 0.0
O160 O 0.87784 0.05033 0.8097 0.0
O161 O 0.91048 0.02036 0.89089 0.0
O162 O 0.93311 0.04288 0.92074 0.0
O163 O 0.88793 0.09159 0.84778 0.0
O164 O 0.91942 0.08245 0.87536 0.0
C165 C 0.92527 0.02191 0.91139 0.0
C166 C 0.90676 0.09911 0.86227 0.0
O167 O 0.86243 0.03072 0.84589 0.0
Mg168 Mg 0.4552 0.59839 0.63715 0.0
O169 O 0.4473 0.62658 0.60239 0.0
O170 O 0.42452 0.60684 0.57058 0.0
Mg171 Mg 0.41772 0.56665 0.58464 0.0
C172 C 0.43574 0.62635 0.57958 0.0
C173 C 0.48277 0.62753 0.6814 0.0
O174 O 0.46908 0.61121 0.69493 0.0
O175 O 0.48511 0.57781 0.61139 0.0
O176 O 0.45985 0.55947 0.5808 0.0
O177 O 0.41912 0.61041 0.65623 0.0
O178 O 0.42233 0.5789 0.62708 0.0
C179 C 0.48167 0.56387 0.59048 0.0
C180 C 0.40819 0.59382 0.64101 0.0
O181 O 0.4831 0.6262 0.65557 0.0
Mg182 Mg 0.88808 0.43736 0.61205 0.0
O183 O 0.85699 0.42761 0.58102 0.0
O184 O 0.87181 0.39666 0.55459 0.0
Mg185 Mg 0.91149 0.38651 0.56802 0.0
C186 C 0.85436 0.41193 0.56145 0.0
C187 C 0.85341 0.48996 0.63292 0.0
O188 O 0.85506 0.51407 0.6273 0.0
O189 O 0.91135 0.45718 0.5789 0.0
O190 O 0.92473 0.42517 0.55306 0.0
O191 O 0.87297 0.40708 0.64012 0.0
O192 O 0.90201 0.401 0.60868 0.0
C193 C 0.92351 0.44865 0.55843 0.0
C194 C 0.8873 0.39172 0.62675 0.0
O195 O 0.86917 0.47524 0.62156 0.0
Mg196 Mg 0.03889 0.9006 0.63314 0.0
O197 O 0.04873 0.8742 0.59705 0.0
O198 O 0.0742 0.89525 0.569 0.0
Mg199 Mg 0.079 0.93509 0.58532 0.0
C200 C 0.06237 0.87529 0.57562 0.0
C201 C 0.00485 0.87377 0.67375 0.0
O202 O 0.01243 0.8938 0.68713 0.0
O203 O 0.0102 0.9227 0.60726 0.0
O204 O 0.037 0.94252 0.57945 0.0
O205 O 0.07418 0.88772 0.65328 0.0
O206 O 0.07183 0.92101 0.6265 0.0
C207 C 0.01469 0.93779 0.58757 0.0
C208 C 0.08549 0.90541 0.64002 0.0
O209 O 0.01056 0.8718 0.64871 0.0
Mg210 Mg 0.60373 0.08215 0.62381 0.0
O211 O 0.63389 0.09316 0.59234 0.0
O212 O 0.61512 0.11435 0.55874 0.0
Mg213 Mg 0.57299 0.11489 0.56681 0.0
C214 C 0.63481 0.10533 0.56994 0.0
C215 C 0.63828 0.06565 0.67024 0.0
O216 O 0.62585 0.08505 0.67995 0.0
O217 O 0.58996 0.04961 0.59638 0.0
O218 O 0.5721 0.07199 0.5629 0.0
O219 O 0.60806 0.12039 0.64286 0.0
O220 O 0.58067 0.11182 0.61052 0.0
C221 C 0.57827 0.05102 0.57365 0.0
C222 C 0.59123 0.12829 0.62593 0.0
O223 O 0.63301 0.05788 0.64639 0.0
H224 H 0.57893 0.22676 0.03716 0.0
H225 H 0.58171 0.25541 0.9986 0.0
H226 H 0.58456 0.19226 0.94347 0.0
H227 H 0.58152 0.16327 0.98216 0.0
H228 H 0.62106 0.2577 0.96115 0.0
H229 H 0.52949 0.23775 0.91065 0.0
H230 H 0.53602 0.22839 0.94524 0.0
H231 H 0.54953 0.21119 0.9174 0.0
C232 C 0.58009 0.2189 0.01686 0.0
C233 C 0.58014 0.19276 0.01271 0.0
C234 C 0.58163 0.23531 0.99484 0.0
C235 C 0.58321 0.22595 0.96821 0.0
C236 C 0.58299 0.19985 0.96386 0.0
H237 H 0.62632 0.33908 0.84627 0.0
H238 H 0.62382 0.29768 0.86802 0.0
C239 C 0.58134 0.18334 0.98597 0.0
C240 C 0.58596 0.24386 0.94538 0.0
H241 H 0.55494 0.26907 0.89105 0.0
C242 C 0.6068 0.26001 0.94557 0.0
C243 C 0.56724 0.24677 0.92521 0.0
C244 C 0.54418 0.23027 0.92455 0.0
C245 C 0.6089 0.27979 0.92688 0.0
C246 C 0.58991 0.28309 0.90703 0.0
C247 C 0.56956 0.26629 0.90613 0.0
C248 C 0.58926 0.30577 0.88961 0.0
C249 C 0.63066 0.29787 0.92966 0.0
C250 C 0.56987 0.32336 0.89324 0.0
C251 C 0.5711 0.34683 0.88066 0.0
C252 C 0.59182 0.35317 0.86433 0.0
C253 C 0.61025 0.33482 0.85898 0.0
C254 C 0.60893 0.31123 0.87151 0.0
H255 H 0.64099 0.29528 0.9491 0.0
H256 H 0.6441 0.29474 0.91272 0.0
H257 H 0.62399 0.31766 0.92857 0.0
H258 H 0.55441 0.31944 0.90696 0.0
H259 H 0.5563 0.36035 0.88466 0.0
H260 H 0.11435 0.56072 0.87161 0.0
H261 H 0.15778 0.55802 0.88701 0.0
H262 H 0.1726 0.63165 0.85386 0.0
H263 H 0.12859 0.63493 0.8393 0.0
H264 H 0.20568 0.56162 0.86659 0.0
H265 H 0.18312 0.6424 0.93487 0.0
H266 H 0.15931 0.62662 0.91519 0.0
H267 H 0.18057 0.64819 0.899 0.0
C268 C 0.1269 0.57623 0.86726 0.0
C269 C 0.1179 0.59834 0.855 0.0
C270 C 0.15181 0.57457 0.87588 0.0
C271 C 0.16824 0.59491 0.87222 0.0
C272 C 0.16003 0.61599 0.85745 0.0
H273 H 0.31467 0.57768 0.95735 0.0
H274 H 0.28538 0.58493 0.91948 0.0
C275 C 0.13495 0.61775 0.84896 0.0
C276 C 0.19248 0.59494 0.88709 0.0
H277 H 0.22092 0.62132 0.94241 0.0
C278 C 0.20935 0.57494 0.88285 0.0
C279 C 0.197 0.61223 0.90847 0.0
C280 C 0.17903 0.63348 0.91491 0.0
C281 C 0.22985 0.57094 0.90037 0.0
C282 C 0.23373 0.58769 0.92234 0.0
C283 C 0.21781 0.60855 0.92551 0.0
C284 C 0.25192 0.5823 0.94439 0.0
C285 C 0.24617 0.54799 0.89637 0.0
C286 C 0.24281 0.57852 0.97085 0.0
C287 C 0.25937 0.57465 0.99239 0.0
C288 C 0.28545 0.57443 0.98794 0.0
C289 C 0.29464 0.57764 0.96132 0.0
C290 C 0.27796 0.58171 0.93969 0.0
H291 H 0.23829 0.53491 0.88093 0.0
H292 H 0.26511 0.55394 0.88946 0.0
H293 H 0.24844 0.53767 0.91584 0.0
H294 H 0.22278 0.57878 0.97489 0.0
H295 H 0.2517 0.57199 0.01259 0.0
H296 H 0.8708 0.13408 0.87285 0.0
H297 H 0.87723 0.1752 0.89393 0.0
H298 H 0.95765 0.16551 0.88703 0.0
H299 H 0.9511 0.12356 0.86776 0.0
H300 H 0.94795 0.17655 0.93517 0.0
H301 H 0.89436 0.24463 0.87388 0.0
H302 H 0.87403 0.21935 0.8835 0.0
H303 H 0.90076 0.21318 0.86183 0.0
C304 C 0.88979 0.14114 0.87506 0.0
C305 C 0.91048 0.12585 0.86864 0.0
C306 C 0.8935 0.16475 0.88697 0.0
C307 C 0.91796 0.17377 0.8918 0.0
C308 C 0.9386 0.15906 0.88355 0.0
H309 H 0.9329 0.31753 0.98043 0.0
H310 H 0.93489 0.28615 0.94387 0.0
C311 C 0.93489 0.13516 0.87244 0.0
C312 C 0.92201 0.19641 0.90907 0.0
H313 H 0.90033 0.25583 0.92169 0.0
C314 C 0.93791 0.19404 0.93176 0.0
C315 C 0.90934 0.21952 0.90464 0.0
C316 C 0.89392 0.22437 0.87943 0.0
C317 C 0.94045 0.21348 0.9508 0.0
C318 C 0.92584 0.23556 0.9478 0.0
C319 C 0.91109 0.23864 0.92433 0.0
C320 C 0.92452 0.25482 0.96961 0.0
C321 C 0.95867 0.20998 0.97405 0.0
C322 C 0.91764 0.24771 0.99606 0.0
C323 C 0.91689 0.26543 0.01697 0.0
C324 C 0.92233 0.29083 0.01177 0.0
C325 C 0.92863 0.29809 0.98511 0.0
C326 C 0.92972 0.28021 0.96419 0.0
H327 H 0.9744 0.1973 0.96816 0.0
H328 H 0.96668 0.2282 0.9809 0.0
H329 H 0.94875 0.20112 0.99143 0.0
H330 H 0.91286 0.22836 0.0006 0.0
H331 H 0.91215 0.25907 0.03721 0.0
H332 H 0.3703 0.86237 0.83678 0.0
H333 H 0.32593 0.86384 0.85019 0.0
H334 H 0.33671 0.93878 0.88204 0.0
H335 H 0.38039 0.93778 0.86774 0.0
H336 H 0.31361 0.8651 0.90102 0.0
H337 H 0.26732 0.94655 0.85404 0.0
H338 H 0.29647 0.93394 0.84092 0.0
H339 H 0.2966 0.95687 0.86807 0.0
C340 C 0.36289 0.87951 0.84564 0.0
C341 C 0.37887 0.89981 0.85163 0.0
C342 C 0.33755 0.88032 0.85337 0.0
C343 C 0.32784 0.90148 0.86702 0.0
C344 C 0.34342 0.92246 0.871 0.0
H345 H 0.25445 0.91484 0.01356 0.0
H346 H 0.28023 0.90771 0.97334 0.0
C347 C 0.36859 0.92172 0.86316 0.0
C348 C 0.30349 0.90015 0.88173 0.0
H349 H 0.25409 0.93704 0.90137 0.0
C350 C 0.30018 0.88047 0.90044 0.0
C351 C 0.28558 0.91987 0.88084 0.0
C352 C 0.28659 0.9403 0.85961 0.0
C353 C 0.28099 0.88128 0.91994 0.0
C354 C 0.2651 0.90259 0.92118 0.0
C355 C 0.26672 0.92101 0.90083 0.0
C356 C 0.24894 0.90737 0.94517 0.0
C357 C 0.27867 0.8598 0.93984 0.0
C358 C 0.22285 0.91057 0.94254 0.0
C359 C 0.20798 0.91481 0.96563 0.0
C360 C 0.21907 0.91599 0.99161 0.0
C361 C 0.24527 0.91353 0.99395 0.0
C362 C 0.26004 0.90936 0.97096 0.0
H363 H 0.28553 0.84191 0.93076 0.0
H364 H 0.29039 0.86383 0.958 0.0
H365 H 0.25889 0.8572 0.94654 0.0
H366 H 0.21399 0.90941 0.92273 0.0
H367 H 0.18783 0.91675 0.9632 0.0
H368 H 0.52002 0.29587 0.49487 0.0
H369 H 0.52671 0.27241 0.53679 0.0
H370 H 0.58594 0.3237 0.55957 0.0
H371 H 0.57894 0.34755 0.51732 0.0
H372 H 0.60142 0.27436 0.55456 0.0
H373 H 0.5164 0.27715 0.61854 0.0
H374 H 0.5082 0.27218 0.58357 0.0
H375 H 0.52327 0.30112 0.59354 0.0
C376 C 0.53361 0.30283 0.50947 0.0
C377 C 0.54875 0.3236 0.50318 0.0
C378 C 0.5374 0.28947 0.53349 0.0
C379 C 0.55662 0.29645 0.55153 0.0
C380 C 0.57075 0.31823 0.54612 0.0
H381 H 0.61792 0.16847 0.646 0.0
H382 H 0.6114 0.21319 0.6355 0.0
C383 C 0.56665 0.33192 0.52214 0.0
C384 C 0.56468 0.27811 0.57252 0.0
H385 H 0.53991 0.23734 0.61887 0.0
C386 C 0.58836 0.26676 0.56938 0.0
C387 C 0.54763 0.26825 0.59181 0.0
C388 C 0.52256 0.28053 0.59725 0.0
C389 C 0.59439 0.24426 0.58285 0.0
C390 C 0.57637 0.23315 0.60028 0.0
C391 C 0.55362 0.24577 0.60533 0.0
C392 C 0.57905 0.20679 0.6097 0.0
C393 C 0.61903 0.23141 0.57644 0.0
C394 C 0.56251 0.18855 0.59949 0.0
C395 C 0.5661 0.16316 0.6055 0.0
C396 C 0.58633 0.15544 0.62188 0.0
C397 C 0.60226 0.17383 0.63315 0.0
C398 C 0.59864 0.19935 0.6271 0.0
H399 H 0.62949 0.24101 0.55986 0.0
H400 H 0.63107 0.23134 0.59487 0.0
H401 H 0.61576 0.21155 0.57035 0.0
H402 H 0.54724 0.19388 0.58607 0.0
H403 H 0.55323 0.14955 0.59687 0.0
H404 H 0.37492 0.63041 0.65691 0.0
H405 H 0.33147 0.63565 0.64146 0.0
H406 H 0.33695 0.56601 0.59656 0.0
H407 H 0.37961 0.56005 0.61302 0.0
H408 H 0.31874 0.64332 0.59145 0.0
H409 H 0.2675 0.55907 0.62452 0.0
H410 H 0.29762 0.56745 0.63885 0.0
H411 H 0.29579 0.54921 0.6079 0.0
C412 C 0.36658 0.61585 0.6444 0.0
C413 C 0.38084 0.59501 0.63577 0.0
C414 C 0.34176 0.6189 0.63554 0.0
C415 C 0.33079 0.60114 0.61801 0.0
C416 C 0.34466 0.5797 0.61059 0.0
H417 H 0.25099 0.61659 0.47474 0.0
H418 H 0.27857 0.6197 0.51404 0.0
C419 C 0.3693 0.57652 0.61965 0.0
C420 C 0.30652 0.60648 0.60426 0.0
H421 H 0.25377 0.57719 0.58081 0.0
C422 C 0.3042 0.62911 0.58974 0.0
C423 C 0.28712 0.58835 0.60244 0.0
C424 C 0.28705 0.56482 0.61958 0.0
C425 C 0.28425 0.63306 0.57159 0.0
C426 C 0.26664 0.61355 0.56723 0.0
C427 C 0.26761 0.59195 0.58363 0.0
C428 C 0.24909 0.61384 0.54379 0.0
C429 C 0.28276 0.65782 0.55668 0.0
C430 C 0.22336 0.6089 0.5473 0.0
C431 C 0.20752 0.60671 0.52468 0.0
C432 C 0.21721 0.60941 0.49822 0.0
C433 C 0.24286 0.61477 0.49484 0.0
C434 C 0.25866 0.61674 0.51736 0.0
H435 H 0.29034 0.67336 0.5694 0.0
H436 H 0.29442 0.65675 0.53799 0.0
H437 H 0.26313 0.6625 0.55084 0.0
H438 H 0.21563 0.60633 0.5675 0.0
H439 H 0.18782 0.60251 0.52791 0.0
H440 H 0.86446 0.36153 0.59051 0.0
H441 H 0.8708 0.31653 0.58524 0.0
H442 H 0.91146 0.31456 0.66126 0.0
H443 H 0.90595 0.36035 0.66576 0.0
H444 H 0.9387 0.29446 0.62464 0.0
H445 H 0.84637 0.25103 0.61126 0.0
H446 H 0.84718 0.27772 0.58918 0.0
H447 H 0.84958 0.28219 0.62555 0.0
C448 C 0.87402 0.35136 0.60651 0.0
C449 C 0.88462 0.36426 0.62855 0.0
C450 C 0.87742 0.32547 0.6037 0.0
C451 C 0.89129 0.31182 0.62307 0.0
C452 C 0.90049 0.32454 0.64615 0.0
H453 H 0.91812 0.17075 0.53495 0.0
H454 H 0.90945 0.19372 0.57753 0.0
C455 C 0.89721 0.35063 0.64885 0.0
C456 C 0.89979 0.28582 0.61627 0.0
H457 H 0.88022 0.23434 0.58061 0.0
C458 C 0.92577 0.28092 0.61591 0.0
C459 C 0.88317 0.26747 0.60563 0.0
C460 C 0.85502 0.26984 0.60828 0.0
C461 C 0.93559 0.25997 0.60209 0.0
C462 C 0.91909 0.24397 0.58759 0.0
C463 C 0.89303 0.24696 0.59103 0.0
C464 C 0.92818 0.22791 0.56481 0.0
C465 C 0.96368 0.25609 0.60182 0.0
C466 C 0.94192 0.23926 0.54378 0.0
C467 C 0.9468 0.2263 0.51974 0.0
C468 C 0.93797 0.20167 0.51599 0.0
C469 C 0.92543 0.18962 0.53751 0.0
C470 C 0.92036 0.20277 0.56173 0.0
H471 H 0.97198 0.26154 0.62171 0.0
H472 H 0.96876 0.23623 0.59737 0.0
H473 H 0.9722 0.26838 0.58608 0.0
H474 H 0.94753 0.25881 0.54516 0.0
H475 H 0.95639 0.23609 0.50343 0.0
H476 H 0.11517 0.9435 0.6221 0.0
H477 H 0.15788 0.93973 0.60418 0.0
H478 H 0.16031 0.86196 0.62881 0.0
H479 H 0.11745 0.86551 0.64687 0.0
H480 H 0.20988 0.89836 0.6326 0.0
H481 H 0.15883 0.88778 0.53428 0.0
H482 H 0.14882 0.91291 0.55638 0.0
H483 H 0.14433 0.88085 0.56663 0.0
C484 C 0.12502 0.92577 0.62435 0.0
C485 C 0.11288 0.90468 0.63544 0.0
C486 C 0.14943 0.92371 0.61426 0.0
C487 C 0.16202 0.90056 0.6151 0.0
C488 C 0.15082 0.88 0.62818 0.0
H489 H 0.27108 0.8622 0.49153 0.0
H490 H 0.23954 0.85873 0.52736 0.0
C491 C 0.12637 0.88207 0.63843 0.0
C492 C 0.18472 0.89695 0.59836 0.0
H493 H 0.20284 0.89182 0.53216 0.0
C494 C 0.20849 0.8967 0.61066 0.0
C495 C 0.18261 0.89445 0.56986 0.0
C496 C 0.15731 0.89382 0.55587 0.0
C497 C 0.23047 0.89468 0.59488 0.0
C498 C 0.22839 0.8933 0.56619 0.0
C499 C 0.20446 0.89288 0.55414 0.0
C500 C 0.25048 0.89311 0.54783 0.0
C501 C 0.25561 0.89391 0.60904 0.0
C502 C 0.26761 0.91322 0.54784 0.0
C503 C 0.28579 0.91512 0.52737 0.0
C504 C 0.28664 0.89728 0.5063 0.0
C505 C 0.27034 0.87657 0.50707 0.0
C506 C 0.25248 0.87445 0.5277 0.0
H507 H 0.25377 0.88704 0.63029 0.0
H508 H 0.26911 0.88162 0.59801 0.0
H509 H 0.26352 0.91321 0.60984 0.0
H510 H 0.2661 0.92814 0.56277 0.0
H511 H 0.29818 0.93129 0.52713 0.0
H512 H 0.38912 0.85803 0.95957 0.0
H513 H 0.37583 0.81952 0.98253 0.0
H514 H 0.42248 0.77555 0.92869 0.0
H515 H 0.43582 0.81388 0.90543 0.0
H516 H 0.37235 0.75897 0.93227 0.0
H517 H 0.41458 0.77236 0.03458 0.0
H518 H 0.39648 0.79865 0.02249 0.0
H519 H 0.42484 0.78978 0.00505 0.0
C520 C 0.39682 0.84022 0.95277 0.0
C521 C 0.41355 0.8391 0.93059 0.0
C522 C 0.38929 0.81824 0.96605 0.0
C523 C 0.3984 0.79474 0.9575 0.0
C524 C 0.41536 0.79354 0.93568 0.0
H525 H 0.37241 0.648 0.03171 0.0
H526 H 0.39168 0.68625 0.01343 0.0
C527 C 0.42296 0.8155 0.92243 0.0
C528 C 0.38884 0.77129 0.97 0.0
H529 H 0.38468 0.73923 0.03004 0.0
C530 C 0.37517 0.75457 0.9536 0.0
C531 C 0.39274 0.76555 0.99778 0.0
C532 C 0.40814 0.78239 0.01601 0.0
C533 C 0.36477 0.7325 0.96439 0.0
C534 C 0.36792 0.72718 0.99236 0.0
C535 C 0.38213 0.74355 0.00865 0.0
C536 C 0.35632 0.70477 0.00495 0.0
C537 C 0.35052 0.71498 0.94579 0.0
C538 C 0.33009 0.70284 0.00675 0.0
C539 C 0.31898 0.68111 0.01721 0.0
C540 C 0.33395 0.66085 0.02609 0.0
C541 C 0.3603 0.66318 0.02496 0.0
C542 C 0.37138 0.68501 0.01457 0.0
H543 H 0.35453 0.71883 0.924 0.0
H544 H 0.3553 0.69505 0.95021 0.0
H545 H 0.33003 0.71748 0.94917 0.0
H546 H 0.31817 0.71807 0.99972 0.0
H547 H 0.29867 0.68006 0.01785 0.0
H548 H 0.638 0.40929 0.96753 0.0
H549 H 0.67582 0.40131 0.99441 0.0
H550 H 0.71883 0.39243 0.92052 0.0
H551 H 0.6813 0.40169 0.89361 0.0
H552 H 0.70151 0.36079 0.99755 0.0
H553 H 0.76642 0.43482 0.96214 0.0
H554 H 0.73336 0.43523 0.95396 0.0
H555 H 0.755 0.41672 0.93398 0.0
C556 C 0.65564 0.40606 0.95705 0.0
C557 C 0.65674 0.40619 0.92849 0.0
C558 C 0.67725 0.40149 0.97242 0.0
C559 C 0.70034 0.39661 0.95957 0.0
C560 C 0.70149 0.39693 0.931 0.0
H561 H 0.81834 0.30436 0.02507 0.0
H562 H 0.78079 0.32204 0.00405 0.0
C563 C 0.67997 0.40204 0.9156 0.0
C564 C 0.7226 0.38909 0.97598 0.0
H565 H 0.78558 0.39905 0.98408 0.0
C566 C 0.71981 0.36944 0.99483 0.0
C567 C 0.74644 0.40059 0.97292 0.0
C568 C 0.75041 0.42319 0.95487 0.0
C569 C 0.74025 0.36043 0.00998 0.0
C570 C 0.76445 0.37064 0.00538 0.0
C571 C 0.76712 0.39091 0.9873 0.0
C572 C 0.78731 0.36002 0.01842 0.0
C573 C 0.73555 0.34022 0.03092 0.0
C574 C 0.80408 0.37562 0.03267 0.0
C575 C 0.82596 0.36562 0.04424 0.0
C576 C 0.83135 0.33979 0.04194 0.0
C577 C 0.81453 0.32425 0.02763 0.0
C578 C 0.79294 0.33432 0.01572 0.0
H579 H 0.71594 0.34106 0.03869 0.0
H580 H 0.73824 0.32148 0.02137 0.0
H581 H 0.74861 0.34191 0.04845 0.0
H582 H 0.80023 0.39555 0.03486 0.0
H583 H 0.83858 0.3781 0.05507 0.0
H584 H 0.0644 0.68651 0.90726 0.0
H585 H 0.08022 0.7236 0.93128 0.0
H586 H 0.12116 0.67581 0.98658 0.0
H587 H 0.10545 0.63858 0.96287 0.0
H588 H 0.09428 0.71795 0.01156 0.0
H589 H 0.15549 0.74545 0.92475 0.0
H590 H 0.12292 0.74019 0.91675 0.0
H591 H 0.14213 0.71437 0.92788 0.0
C592 C 0.07659 0.68382 0.92467 0.0
C593 C 0.08377 0.65951 0.93299 0.0
C594 C 0.08566 0.70506 0.93831 0.0
C595 C 0.10206 0.70239 0.96047 0.0
C596 C 0.10855 0.67822 0.96946 0.0
H597 H 0.20599 0.81041 0.0272 0.0
H598 H 0.18503 0.77316 0.0091 0.0
C599 C 0.09957 0.65697 0.95582 0.0
C600 C 0.11332 0.72476 0.97363 0.0
H601 H 0.15436 0.77296 0.96244 0.0
C602 C 0.10737 0.73006 0.00086 0.0
C603 C 0.13062 0.74024 0.95965 0.0
C604 C 0.13841 0.73478 0.93071 0.0
C605 C 0.11817 0.75065 0.01446 0.0
C606 C 0.13519 0.76635 0.00034 0.0
C607 C 0.14121 0.76093 0.97315 0.0
C608 C 0.14745 0.78826 0.01341 0.0
C609 C 0.11173 0.75517 0.04396 0.0
C610 C 0.13322 0.80905 0.02202 0.0
C611 C 0.14515 0.83045 0.03241 0.0
C612 C 0.17155 0.83148 0.03424 0.0
C613 C 0.18566 0.81033 0.02612 0.0
C614 C 0.17372 0.78901 0.01572 0.0
H615 H 0.10293 0.73839 0.05346 0.0
H616 H 0.12879 0.7603 0.05575 0.0
H617 H 0.09823 0.77105 0.04541 0.0
H618 H 0.11294 0.809 0.01999 0.0
H619 H 0.13368 0.8464 0.03837 0.0
H620 H 0.6588 0.11131 0.04984 0.0
H621 H 0.69718 0.09473 0.02908 0.0
H622 H 0.72703 0.16993 0.02319 0.0
H623 H 0.6887 0.18677 0.04365 0.0
H624 H 0.72915 0.14263 0.97449 0.0
H625 H 0.76856 0.08777 0.06074 0.0
H626 H 0.73634 0.08095 0.05255 0.0
H627 H 0.74461 0.11154 0.06526 0.0
C628 C 0.67363 0.12433 0.04445 0.0
C629 C 0.6706 0.15041 0.04842 0.0
C630 C 0.69561 0.11478 0.03269 0.0
C631 C 0.71501 0.13109 0.02484 0.0
C632 C 0.71227 0.15703 0.02919 0.0
H633 H 0.86675 0.10164 0.9718 0.0
H634 H 0.82856 0.11323 0.99642 0.0
C635 C 0.69034 0.16661 0.04094 0.0
C636 C 0.73758 0.12136 0.01062 0.0
H637 H 0.78882 0.08317 0.018 0.0
C638 C 0.74221 0.12963 0.98398 0.0
C639 C 0.75461 0.10453 0.02316 0.0
C640 C 0.75099 0.09579 0.05208 0.0
C641 C 0.76342 0.12148 0.96948 0.0
C642 C 0.78025 0.10432 0.98183 0.0
C643 C 0.77571 0.09612 0.00852 0.0
C644 C 0.80327 0.09562 0.96772 0.0
C645 C 0.76798 0.13175 0.94129 0.0
C646 C 0.80168 0.08138 0.94373 0.0
C647 C 0.82349 0.07471 0.92953 0.0
C648 C 0.84729 0.08214 0.93913 0.0
C649 C 0.84877 0.09569 0.96371 0.0
C650 C 0.82697 0.1023 0.97788 0.0
H651 H 0.7564 0.14873 0.93715 0.0
H652 H 0.78811 0.13664 0.93845 0.0
H653 H 0.76301 0.11718 0.92602 0.0
H654 H 0.78355 0.07571 0.9358 0.0
H655 H 0.82163 0.06417 0.91077 0.0
H656 H 0.43665 0.63125 0.52456 0.0
H657 H 0.42755 0.66905 0.49799 0.0
H658 H 0.41814 0.71135 0.57238 0.0
H659 H 0.42895 0.67395 0.59882 0.0
H660 H 0.3865 0.69157 0.49506 0.0
H661 H 0.45403 0.76287 0.5305 0.0
H662 H 0.45756 0.73001 0.53885 0.0
H663 H 0.43765 0.75017 0.55917 0.0
C664 C 0.43332 0.64884 0.53514 0.0
C665 C 0.4336 0.64978 0.56369 0.0
C666 C 0.42805 0.67043 0.51998 0.0
C667 C 0.42238 0.69329 0.53305 0.0
C668 C 0.42325 0.69431 0.56165 0.0
H669 H 0.31421 0.79961 0.47827 0.0
H670 H 0.33842 0.76399 0.49484 0.0
C671 C 0.42924 0.67285 0.57681 0.0
C672 C 0.41269 0.71502 0.51702 0.0
H673 H 0.41497 0.77906 0.51153 0.0
C674 C 0.39315 0.71062 0.49836 0.0
C675 C 0.42152 0.73995 0.52067 0.0
C676 C 0.44405 0.74594 0.53816 0.0
C677 C 0.38146 0.7304 0.48436 0.0
C678 C 0.38863 0.75549 0.49005 0.0
C679 C 0.40906 0.75988 0.50755 0.0
C680 C 0.37415 0.77734 0.47945 0.0
C681 C 0.36151 0.72404 0.46361 0.0
C682 C 0.38624 0.79736 0.46616 0.0
C683 C 0.37242 0.81822 0.45713 0.0
C684 C 0.34623 0.81929 0.46107 0.0
C685 C 0.33426 0.79921 0.47439 0.0
C686 C 0.34809 0.77868 0.48377 0.0
H687 H 0.3651 0.70533 0.45425 0.0
H688 H 0.34293 0.7231 0.47385 0.0
H689 H 0.36058 0.73831 0.44717 0.0
H690 H 0.40637 0.79688 0.46281 0.0
H691 H 0.38221 0.83346 0.44708 0.0
H692 H 0.8428 0.38245 0.51772 0.0
H693 H 0.80153 0.37461 0.49824 0.0
H694 H 0.76852 0.42814 0.5538 0.0
H695 H 0.80994 0.43584 0.57399 0.0
H696 H 0.74396 0.38336 0.55396 0.0
H697 H 0.757 0.41476 0.44775 0.0
H698 H 0.7812 0.39321 0.45793 0.0
H699 H 0.77851 0.42327 0.47465 0.0
C700 C 0.8269 0.39291 0.52561 0.0
C701 C 0.82974 0.40976 0.54751 0.0
C702 C 0.80328 0.38853 0.51425 0.0
C703 C 0.78199 0.40105 0.52428 0.0
C704 C 0.78477 0.41841 0.54563 0.0
H705 H 0.63529 0.3773 0.44807 0.0
H706 H 0.67391 0.39635 0.46519 0.0
C707 C 0.80846 0.42283 0.55709 0.0
C708 C 0.75672 0.39413 0.51403 0.0
H709 H 0.72308 0.38556 0.45562 0.0
C710 C 0.73924 0.38419 0.53251 0.0
C711 C 0.75043 0.3955 0.4861 0.0
C712 C 0.7677 0.40752 0.46553 0.0
C713 C 0.7161 0.37452 0.52364 0.0
C714 C 0.71059 0.37428 0.49547 0.0
C715 C 0.72754 0.38532 0.47715 0.0
C716 C 0.68745 0.36243 0.48462 0.0
C717 C 0.69782 0.36465 0.54454 0.0
C718 C 0.68253 0.33685 0.4893 0.0
C719 C 0.6604 0.32586 0.47964 0.0
C720 C 0.6429 0.3402 0.46481 0.0
C721 C 0.64832 0.36564 0.45942 0.0
C722 C 0.67038 0.37663 0.46922 0.0
H723 H 0.70135 0.37298 0.56493 0.0
H724 H 0.67808 0.36871 0.5386 0.0
H725 H 0.7001 0.34396 0.5463 0.0
H726 H 0.69579 0.32538 0.50054 0.0
H727 H 0.65692 0.30621 0.48403 0.0
H728 H 0.18483 0.71179 0.45379 0.0
H729 H 0.15976 0.74547 0.47389 0.0
H730 H 0.09399 0.69827 0.47152 0.0
H731 H 0.11898 0.6641 0.45143 0.0
H732 H 0.09032 0.75541 0.45378 0.0
H733 H 0.131 0.73519 0.55571 0.0
H734 H 0.15286 0.73665 0.52778 0.0
H735 H 0.12989 0.71196 0.52884 0.0
C736 C 0.16498 0.70854 0.45714 0.0
C737 C 0.15402 0.68506 0.45115 0.0
C738 C 0.15069 0.72786 0.46869 0.0
C739 C 0.12514 0.72422 0.47441 0.0
C740 C 0.11373 0.70136 0.46728 0.0
H741 H 0.04797 0.82673 0.58697 0.0
H742 H 0.05877 0.78857 0.56143 0.0
C743 C 0.12807 0.68189 0.45579 0.0
C744 C 0.11099 0.74393 0.4893 0.0
H745 H 0.10799 0.77317 0.55108 0.0
C746 C 0.0939 0.75916 0.47513 0.0
C747 C 0.11551 0.74852 0.5172 0.0
C748 C 0.13316 0.73216 0.53346 0.0
C749 C 0.082 0.77966 0.48795 0.0
C750 C 0.08757 0.78508 0.51551 0.0
C751 C 0.10379 0.76907 0.52994 0.0
C752 C 0.07838 0.80823 0.52929 0.0
C753 C 0.06379 0.7955 0.47182 0.0
C754 C 0.0857 0.83194 0.51964 0.0
C755 C 0.07967 0.85373 0.5342 0.0
C756 C 0.06622 0.85232 0.55883 0.0
C757 C 0.05824 0.82856 0.56805 0.0
C758 C 0.06442 0.80671 0.5535 0.0
H759 H 0.05587 0.78485 0.45435 0.0
H760 H 0.04809 0.80228 0.48481 0.0
H761 H 0.07382 0.81214 0.4636 0.0
H762 H 0.09694 0.83356 0.50135 0.0
H763 H 0.0862 0.87164 0.52646 0.0
H764 H 0.6814 0.08876 0.58626 0.0
H765 H 0.72223 0.09995 0.56674 0.0
H766 H 0.68515 0.14497 0.50579 0.0
H767 H 0.64436 0.13358 0.52466 0.0
H768 H 0.72411 0.11685 0.48471 0.0
H769 H 0.75415 0.16903 0.5772 0.0
H770 H 0.7459 0.13671 0.58296 0.0
H771 H 0.7222 0.15867 0.57211 0.0
C772 C 0.6819 0.10091 0.56859 0.0
C773 C 0.65956 0.11044 0.5572 0.0
C774 C 0.70527 0.10738 0.55756 0.0
C775 C 0.70671 0.12366 0.53514 0.0
C776 C 0.68446 0.13247 0.52317 0.0
H777 H 0.83058 0.21701 0.48473 0.0
H778 H 0.79062 0.1996 0.50037 0.0
C779 C 0.66113 0.12594 0.53406 0.0
C780 C 0.7313 0.13226 0.52448 0.0
H781 H 0.78363 0.16592 0.54145 0.0
C782 C 0.73719 0.12751 0.4971 0.0
C783 C 0.74813 0.14647 0.54063 0.0
C784 C 0.74226 0.15326 0.56978 0.0
C785 C 0.75945 0.13667 0.48539 0.0
C786 C 0.77644 0.15056 0.50166 0.0
C787 C 0.7706 0.15519 0.52906 0.0
C788 C 0.80015 0.16102 0.49063 0.0
C789 C 0.76419 0.13202 0.45553 0.0
C790 C 0.81873 0.14511 0.47986 0.0
C791 C 0.84153 0.15503 0.47069 0.0
C792 C 0.84631 0.18104 0.47245 0.0
C793 C 0.82754 0.19693 0.48306 0.0
C794 C 0.8047 0.187 0.49205 0.0
H795 H 0.74661 0.12709 0.44454 0.0
H796 H 0.77267 0.1488 0.44571 0.0
H797 H 0.77749 0.11605 0.45325 0.0
H798 H 0.81585 0.12496 0.47913 0.0
H799 H 0.85566 0.14218 0.46291 0.0
H800 H 0.51722 0.8967 0.93299 0.0
H801 H 0.54691 0.91608 0.96558 0.0
H802 H 0.50667 0.98634 0.95932 0.0
H803 H 0.47727 0.96733 0.92749 0.0
H804 H 0.56402 0.98735 0.95744 0.0
H805 H 0.52 0.93837 0.0456 0.0
H806 H 0.52915 0.92125 0.01543 0.0
H807 H 0.50266 0.9421 0.01429 0.0
C808 C 0.51514 0.91638 0.93828 0.0
C809 C 0.49491 0.93052 0.92793 0.0
C810 C 0.53195 0.92735 0.95692 0.0
C811 C 0.52881 0.95257 0.96489 0.0
C812 C 0.50939 0.96686 0.95343 0.0
H813 H 0.52489 0.06576 0.07179 0.0
H814 H 0.52275 0.02551 0.04816 0.0
C815 C 0.49257 0.95595 0.9353 0.0
C816 C 0.54422 0.96449 0.98637 0.0
H817 H 0.54143 0.97624 0.05458 0.0
C818 C 0.55998 0.98442 0.97884 0.0
C819 C 0.53862 0.96063 0.01416 0.0
C820 C 0.52171 0.93944 0.02311 0.0
C821 C 0.56835 0.00208 0.99808 0.0
C822 C 0.56095 0.99944 0.02562 0.0
C823 C 0.5471 0.97818 0.03349 0.0
C824 C 0.56308 0.02079 0.04498 0.0
C825 C 0.58293 0.02469 0.98828 0.0
C826 C 0.58649 0.03091 0.05232 0.0
C827 C 0.58778 0.05414 0.06577 0.0
C828 C 0.56565 0.0675 0.07213 0.0
C829 C 0.54229 0.05613 0.06694 0.0
C830 C 0.54104 0.03303 0.05349 0.0
H831 H 0.58454 0.02526 0.96575 0.0
H832 H 0.57375 0.04234 0.99524 0.0
H833 H 0.6022 0.02417 0.99691 0.0
H834 H 0.60374 0.02153 0.0464 0.0
H835 H 0.6061 0.06227 0.06968 0.0
H836 H 0.41941 0.58755 0.0434 0.0
H837 H 0.46045 0.58228 0.02108 0.0
H838 H 0.44379 0.50399 0.00668 0.0
H839 H 0.40341 0.5089 0.02934 0.0
H840 H 0.49218 0.51064 0.02191 0.0
H841 H 0.46754 0.57729 0.9388 0.0
H842 H 0.46701 0.58978 0.97279 0.0
H843 H 0.44459 0.56621 0.96298 0.0
C844 C 0.42474 0.56912 0.03593 0.0
C845 C 0.40801 0.54869 0.03798 0.0
C846 C 0.44809 0.56621 0.02289 0.0
C847 C 0.455 0.54287 0.0116 0.0
C848 C 0.43887 0.52223 0.01502 0.0
H849 H 0.5335 0.48238 0.88059 0.0
H850 H 0.50742 0.50885 0.9099 0.0
C851 C 0.4157 0.52509 0.02802 0.0
C852 C 0.47839 0.53957 0.99525 0.0
H853 H 0.50518 0.55467 0.93413 0.0
C854 C 0.49531 0.52056 0.00293 0.0
C855 C 0.48232 0.55242 0.97037 0.0
C856 C 0.46438 0.57245 0.96051 0.0
C857 C 0.51514 0.51305 0.98585 0.0
C858 C 0.51874 0.52545 0.9606 0.0
C859 C 0.50259 0.54535 0.95355 0.0
C860 C 0.53659 0.51551 0.93977 0.0
C861 C 0.53086 0.49066 0.99423 0.0
C862 C 0.56224 0.51194 0.94566 0.0
C863 C 0.57716 0.49667 0.92885 0.0
C864 C 0.56682 0.4854 0.90556 0.0
C865 C 0.54206 0.49136 0.89809 0.0
C866 C 0.52708 0.50632 0.91502 0.0
H867 H 0.52238 0.48026 0.01155 0.0
H868 H 0.53325 0.47735 0.97699 0.0
H869 H 0.54975 0.49721 0.00066 0.0
H870 H 0.5702 0.51934 0.9643 0.0
H871 H 0.59604 0.49188 0.93534 0.0
H872 H 0.98904 0.60481 0.94919 0.0
H873 H 0.96224 0.582 0.98181 0.0
H874 H 0.97629 0.51288 0.93816 0.0
H875 H 0.00246 0.53558 0.90571 0.0
H876 H 0.92807 0.51503 0.95898 0.0
H877 H -0.00022 0.53919 0.03752 0.0
H878 H 0.98336 0.56473 0.02143 0.0
H879 H 0.00475 0.54573 0.00195 0.0
C880 C 0.98544 0.58496 0.94608 0.0
C881 C 0.99751 0.57186 0.92495 0.0
C882 C 0.97046 0.57189 0.96485 0.0
C883 C 0.96766 0.54564 0.96271 0.0
C884 C 0.97813 0.5331 0.94026 0.0
H885 H 0.97911 0.41668 0.05145 0.0
H886 H 0.98159 0.45823 0.03091 0.0
C887 C 0.99302 0.54606 0.92166 0.0
C888 C 0.95678 0.53025 0.985 0.0
H889 H 0.97204 0.50658 0.04746 0.0
C890 C 0.93718 0.51356 0.97866 0.0
C891 C 0.96886 0.52832 0.0106 0.0
C892 C 0.99044 0.54529 0.0184 0.0
C893 C 0.93072 0.49374 0.9962 0.0
C894 C 0.94386 0.4909 0.02107 0.0
C895 C 0.96201 0.50883 0.0284 0.0
C896 C 0.94232 0.46733 0.03722 0.0
C897 C 0.91138 0.47482 0.98689 0.0
C898 C 0.91961 0.45892 0.0486 0.0
C899 C 0.91808 0.4349 0.06028 0.0
C900 C 0.9393 0.41903 0.06088 0.0
C901 C 0.96235 0.42828 0.05115 0.0
C902 C 0.96382 0.45212 0.03943 0.0
H903 H 0.90574 0.47775 0.96536 0.0
H904 H 0.91875 0.45536 0.98904 0.0
H905 H 0.8943 0.47653 0.99973 0.0
H906 H 0.9029 0.47055 0.04767 0.0
H907 H 0.90007 0.4284 0.06777 0.0
H908 H 0.08896 0.90595 0.06104 0.0
H909 H 0.04639 0.91009 0.04219 0.0
H910 H 0.06262 0.98663 0.01902 0.0
H911 H 0.10453 0.98293 0.03836 0.0
H912 H 0.01552 0.9822 0.03827 0.0
H913 H 0.03376 0.90781 0.9609 0.0
H914 H 0.03615 0.8984 0.9959 0.0
H915 H 0.05837 0.92041 0.98213 0.0
C916 C 0.08325 0.9238 0.0524 0.0
C917 C 0.10027 0.94404 0.05097 0.0
C918 C 0.059 0.92605 0.04136 0.0
C919 C 0.05148 0.94847 0.02855 0.0
C920 C 0.06798 0.96907 0.0286 0.0
H921 H 0.96812 0.9985 0.89709 0.0
H922 H 0.99467 0.97407 0.92785 0.0
C923 C 0.09203 0.9669 0.03969 0.0
C924 C 0.02712 0.95071 0.01381 0.0
H925 H 0.99648 0.93092 0.9565 0.0
C926 C 0.01107 0.97072 0.02066 0.0
C927 C 0.02144 0.93577 0.99072 0.0
C928 C 0.03836 0.91449 0.98174 0.0
C929 C 0.9905 0.97727 0.0042 0.0
C930 C 0.98523 0.96282 0.98059 0.0
C931 C 0.00039 0.94185 0.97466 0.0
C932 C 0.96676 0.97153 0.95983 0.0
C933 C 0.97586 0.00079 0.01121 0.0
C934 C 0.9416 0.97672 0.96668 0.0
C935 C 0.92646 0.9909 0.94907 0.0
C936 C 0.93603 0.99933 0.92408 0.0
C937 C 0.96016 0.9917 0.916 0.0
C938 C 0.9754 0.9779 0.93371 0.0
H939 H 0.9855 0.01236 0.02689 0.0
H940 H 0.97294 0.01262 0.99288 0.0
H941 H 0.95716 0.99545 0.01936 0.0
H942 H 0.93429 0.97146 0.98642 0.0
H943 H 0.90807 0.99701 0.95593 0.0
H944 H 0.49003 0.56119 0.53657 0.0
H945 H 0.51804 0.53205 0.51294 0.0
H946 H 0.54806 0.50717 0.58986 0.0
H947 H 0.52 0.53686 0.61379 0.0
H948 H 0.5739 0.52194 0.51577 0.0
H949 H 0.51172 0.44449 0.55233 0.0
H950 H 0.50122 0.4768 0.55286 0.0
H951 H 0.52485 0.4665 0.57636 0.0
C952 C 0.50317 0.55009 0.54841 0.0
C953 C 0.50293 0.55122 0.57693 0.0
C954 C 0.51913 0.53343 0.53491 0.0
C955 C 0.53488 0.5173 0.54968 0.0
C956 C 0.53593 0.51946 0.57816 0.0
H957 H 0.58562 0.38621 0.4525 0.0
H958 H 0.58121 0.41275 0.49328 0.0
C959 C 0.52011 0.53651 0.59175 0.0
C960 C 0.5477 0.49668 0.53486 0.0
H961 H 0.53771 0.43591 0.51495 0.0
C962 C 0.56654 0.50292 0.5161 0.0
C963 C 0.53812 0.47185 0.53542 0.0
C964 C 0.51782 0.4643 0.55523 0.0
C965 C 0.57481 0.48544 0.49662 0.0
C966 C 0.56347 0.46137 0.4955 0.0
C967 C 0.54622 0.45444 0.51573 0.0
C968 C 0.56641 0.44483 0.47137 0.0
C969 C 0.59483 0.49329 0.47663 0.0
C970 C 0.5589 0.45376 0.4458 0.0
C971 C 0.56102 0.43856 0.4228 0.0
C972 C 0.57038 0.41392 0.42484 0.0
C973 C 0.57762 0.40478 0.45049 0.0
C974 C 0.57546 0.42007 0.47368 0.0
H975 H 0.60748 0.50769 0.48563 0.0
H976 H 0.60631 0.47696 0.4699 0.0
H977 H 0.58574 0.50176 0.45849 0.0
H978 H 0.55123 0.47255 0.44362 0.0
H979 H 0.55525 0.44615 0.40332 0.0
H980 H 0.12164 0.52431 0.46526 0.0
H981 H 0.08087 0.50797 0.47834 0.0
H982 H 0.04421 0.56626 0.43192 0.0
H983 H 0.08551 0.58355 0.41939 0.0
H984 H 0.02249 0.56153 0.48037 0.0
H985 H 0.03191 0.46657 0.43687 0.0
H986 H 0.05829 0.47276 0.45848 0.0
H987 H 0.05343 0.49157 0.42838 0.0
C988 C 0.105 0.53358 0.45744 0.0
C989 C 0.10692 0.55521 0.44111 0.0
C990 C 0.08159 0.52403 0.46483 0.0
C991 C 0.05937 0.53547 0.45565 0.0
C992 C 0.06109 0.55696 0.43906 0.0
H993 H 0.92872 0.44647 0.50352 0.0
H994 H 0.95699 0.4713 0.47501 0.0
C995 C 0.08469 0.56675 0.43182 0.0
C996 C 0.03466 0.52554 0.46495 0.0
H997 H 0.00363 0.47031 0.47546 0.0
C998 C 0.01806 0.54166 0.47883 0.0
C999 C 0.0284 0.49977 0.46239 0.0
C1000 C 0.04385 0.4818 0.44542 0.0
C1001 C 0.99631 0.5324 0.49169 0.0
C1002 C 0.99152 0.50616 0.49154 0.0
C1003 C 0.00732 0.49037 0.47617 0.0
C1004 C 0.97118 0.49427 0.50807 0.0
C1005 C 0.97881 0.55093 0.50523 0.0
C1006 C 0.96898 0.49927 0.53611 0.0
C1007 C 0.95217 0.48557 0.55228 0.0
C1008 C 0.9379 0.46602 0.54089 0.0
C1009 C 0.93957 0.46143 0.5128 0.0
C1010 C 0.95579 0.47559 0.49653 0.0
H1011 H 0.97924 0.5694 0.49467 0.0
H1012 H 0.95912 0.54402 0.5055 0.0
H1013 H 0.98508 0.55414 0.52649 0.0
H1014 H 0.98112 0.5129 0.54586 0.0
H1015 H 0.95151 0.48921 0.57396 0.0
H1016 H 0.00973 0.94791 0.53407 0.0
H1017 H 0.98277 0.97983 0.51336 0.0
H1018 H 0.94783 0.99395 0.59105 0.0
H1019 H 0.97472 0.96145 0.61198 0.0
H1020 H 0.92324 0.98848 0.51822 0.0
H1021 H 0.98786 0.0612 0.56068 0.0
H1022 H 0.99902 0.02952 0.555 0.0
H1023 H 0.97664 0.03557 0.58147 0.0
C1024 C 0.99577 0.95726 0.54658 0.0
C1025 C 0.99424 0.95221 0.57458 0.0
C1026 C 0.98044 0.97551 0.53476 0.0
C1027 C 0.96353 0.98934 0.55075 0.0
C1028 C 0.96082 0.98341 0.57844 0.0
H1029 H 0.91172 0.12854 0.46767 0.0
H1030 H 0.91766 0.09933 0.50618 0.0
C1031 C 0.976 0.96476 0.59028 0.0
C1032 C 0.95088 0.01136 0.5384 0.0
H1033 H 0.96194 0.07326 0.5241 0.0
C1034 C 0.93116 0.0072 0.52006 0.0
C1035 C 0.96119 0.03578 0.54097 0.0
C1036 C 0.98235 0.04104 0.56057 0.0
C1037 C 0.92261 0.02648 0.50287 0.0
C1038 C 0.93459 0.05026 0.50357 0.0
C1039 C 0.95288 0.055 0.52349 0.0
C1040 C 0.93132 0.06866 0.48115 0.0
C1041 C 0.90159 0.02085 0.48318 0.0
C1042 C 0.93786 0.06141 0.45466 0.0
C1043 C 0.93485 0.078 0.43301 0.0
C1044 C 0.92549 0.10241 0.43731 0.0
C1045 C 0.91955 0.11006 0.46394 0.0
C1046 C 0.92261 0.0933 0.48581 0.0
H1047 H 0.8889 0.00606 0.49131 0.0
H1048 H 0.89033 0.03796 0.4787 0.0
H1049 H 0.90971 0.01373 0.46384 0.0
H1050 H 0.94528 0.04277 0.45067 0.0
H1051 H 0.93974 0.07158 0.41276 0.0
H1052 H 0.58806 0.03502 0.52236 0.0
H1053 H 0.56158 0.0067 0.49542 0.0
H1054 H 0.51738 0.99036 0.56684 0.0
H1055 H 0.54485 0.01749 0.59407 0.0
H1056 H 0.51753 0.95065 0.53263 0.0
H1057 H 0.49581 0.03788 0.4749 0.0
H1058 H 0.52802 0.02811 0.47264 0.0
H1059 H 0.51527 0.03805 0.50486 0.0
C1060 C 0.5734 0.02443 0.53247 0.0
C1061 C 0.56848 0.02829 0.56024 0.0
C1062 C 0.55804 0.00855 0.51702 0.0
C1063 C 0.53689 0.99715 0.52886 0.0
C1064 C 0.53345 0.99911 0.55716 0.0
H1065 H 0.38913 0.97974 0.47109 0.0
H1066 H 0.43037 0.99178 0.48783 0.0
C1067 C 0.54923 0.01449 0.57278 0.0
C1068 C 0.51666 0.98613 0.51162 0.0
H1069 H 0.4736 0.00166 0.46279 0.0
C1070 C 0.50806 0.96167 0.51715 0.0
C1071 C 0.50407 0.00068 0.49161 0.0
C1072 C 0.51105 0.0277 0.48576 0.0
C1073 C 0.48681 0.95169 0.5039 0.0
C1074 C 0.47417 0.96636 0.4841 0.0
C1075 C 0.48341 0.99037 0.47781 0.0
C1076 C 0.44953 0.9588 0.47229 0.0
C1077 C 0.47727 0.92613 0.51233 0.0
C1078 C 0.44652 0.93645 0.45728 0.0
C1079 C 0.42267 0.92935 0.44772 0.0
C1080 C 0.40152 0.94461 0.45283 0.0
C1081 C 0.40491 0.96745 0.46682 0.0
C1082 C 0.42856 0.9744 0.47645 0.0
H1083 H 0.48616 0.91951 0.5315 0.0
H1084 H 0.45656 0.92648 0.5152 0.0
H1085 H 0.48166 0.91226 0.49612 0.0
H1086 H 0.46251 0.92439 0.45323 0.0
H1087 H 0.4207 0.91167 0.43695 0.0
H1088 H 0.56181 0.30307 0.34217 0.0
H1089 H 0.56767 0.27973 0.29973 0.0
H1090 H 0.6197 0.22977 0.34006 0.0
H1091 H 0.61284 0.25222 0.38285 0.0
H1092 H 0.60559 0.27225 0.26863 0.0
H1093 H 0.57543 0.17887 0.30592 0.0
H1094 H 0.57161 0.2071 0.32587 0.0
H1095 H 0.60141 0.1909 0.32514 0.0
C1096 C 0.5745 0.28711 0.34197 0.0
C1097 C 0.58671 0.27935 0.36588 0.0
C1098 C 0.5778 0.27372 0.31771 0.0
C1099 C 0.59365 0.25253 0.31676 0.0
C1100 C 0.60665 0.24542 0.34042 0.0
H1101 H 0.64557 0.19891 0.15889 0.0
H1102 H 0.6443 0.21426 0.20582 0.0
C1103 C 0.60293 0.25845 0.36482 0.0
C1104 C 0.59703 0.23842 0.29083 0.0
H1105 H 0.59536 0.17966 0.26244 0.0
C1106 C 0.60323 0.25201 0.26731 0.0
C1107 C 0.59356 0.21202 0.28889 0.0
C1108 C 0.58487 0.19643 0.31274 0.0
C1109 C 0.6061 0.24008 0.24203 0.0
C1110 C 0.60392 0.21354 0.24035 0.0
C1111 C 0.59754 0.19991 0.2638 0.0
C1112 C 0.607 0.19987 0.21411 0.0
C1113 C 0.61053 0.2563 0.21727 0.0
C1114 C 0.58753 0.1846 0.20404 0.0
C1115 C 0.58869 0.17494 0.17755 0.0
C1116 C 0.60919 0.18074 0.16068 0.0
C1117 C 0.6295 0.19432 0.17149 0.0
C1118 C 0.62862 0.20339 0.19816 0.0
H1119 H 0.60405 0.27595 0.22065 0.0
H1120 H 0.63097 0.25697 0.21282 0.0
H1121 H 0.60062 0.2487 0.19916 0.0
H1122 H 0.57076 0.18137 0.21606 0.0
H1123 H 0.57271 0.16468 0.16958 0.0
H1124 H 0.18976 0.58496 0.33945 0.0
H1125 H 0.20782 0.57865 0.29393 0.0
H1126 H 0.24857 0.64838 0.30158 0.0
H1127 H 0.23105 0.65459 0.34695 0.0
H1128 H 0.20814 0.6057 0.24631 0.0
H1129 H 0.30497 0.59858 0.28676 0.0
H1130 H 0.27757 0.59773 0.30841 0.0
H1131 H 0.2898 0.62735 0.29663 0.0
C1132 C 0.20218 0.59918 0.3312 0.0
C1133 C 0.20915 0.62016 0.34697 0.0
C1134 C 0.21266 0.59545 0.30527 0.0
C1135 C 0.23023 0.61262 0.29471 0.0
C1136 C 0.23575 0.63443 0.30965 0.0
H1137 H 0.27741 0.63655 0.13052 0.0
H1138 H 0.26152 0.63835 0.17702 0.0
C1139 C 0.22548 0.63808 0.33551 0.0
C1140 C 0.24308 0.60786 0.26826 0.0
H1141 H 0.30123 0.60457 0.23856 0.0
C1142 C 0.22847 0.60521 0.24467 0.0
C1143 C 0.26966 0.60663 0.26611 0.0
C1144 C 0.28641 0.60745 0.29087 0.0
C1145 C 0.2397 0.60262 0.21892 0.0
C1146 C 0.26627 0.60318 0.21659 0.0
C1147 C 0.28089 0.60457 0.24029 0.0
C1148 C 0.27896 0.60347 0.1896 0.0
C1149 C 0.22294 0.59934 0.1944 0.0
C1150 C 0.2956 0.58417 0.18171 0.0
C1151 C 0.30517 0.58332 0.15505 0.0
C1152 C 0.29814 0.60175 0.136 0.0
C1153 C 0.28298 0.62194 0.14466 0.0
C1154 C 0.27366 0.62288 0.17118 0.0
H1155 H 0.20425 0.59169 0.20018 0.0
H1156 H 0.21986 0.61793 0.18467 0.0
H1157 H 0.23164 0.58656 0.17918 0.0
H1158 H 0.3002 0.56915 0.19574 0.0
H1159 H 0.31665 0.56745 0.1489 0.0
H1160 H 0.8528 0.29492 0.15645 0.0
H1161 H 0.8523 0.28422 0.2048 0.0
H1162 H 0.92498 0.31918 0.21463 0.0
H1163 H 0.92473 0.3312 0.16661 0.0
H1164 H 0.88183 0.25279 0.22703 0.0
H1165 H 0.89365 0.34206 0.28314 0.0
H1166 H 0.886 0.34131 0.24741 0.0
H1167 H 0.91816 0.33806 0.25851 0.0
C1168 C 0.86822 0.3011 0.16921 0.0
C1169 C 0.88871 0.31403 0.1579 0.0
C1170 C 0.86802 0.29484 0.1968 0.0
C1171 C 0.88855 0.30092 0.21356 0.0
C1172 C 0.90858 0.31482 0.20247 0.0
H1173 H 0.93179 0.20856 0.35194 0.0
H1174 H 0.92601 0.22739 0.30699 0.0
C1175 C 0.90848 0.32166 0.17495 0.0
C1176 C 0.89021 0.29018 0.2415 0.0
H1177 H 0.90394 0.30427 0.30766 0.0
C1178 C 0.88634 0.26418 0.24469 0.0
C1179 C 0.89587 0.30492 0.26472 0.0
C1180 C 0.89838 0.33316 0.26332 0.0
C1181 C 0.88829 0.25248 0.27019 0.0
C1182 C 0.89542 0.26696 0.29311 0.0
C1183 C 0.89885 0.29304 0.29007 0.0
C1184 C 0.89918 0.2555 0.32045 0.0
C1185 C 0.88214 0.22482 0.27223 0.0
C1186 C 0.88678 0.26552 0.34325 0.0
C1187 C 0.89058 0.25519 0.36907 0.0
C1188 C 0.90665 0.23441 0.37262 0.0
C1189 C 0.91899 0.22431 0.3498 0.0
C1190 C 0.91558 0.23499 0.32405 0.0
H1191 H 0.86921 0.21883 0.25569 0.0
H1192 H 0.8997 0.21369 0.27016 0.0
H1193 H 0.87327 0.22022 0.29206 0.0
H1194 H 0.87409 0.28136 0.34109 0.0
H1195 H 0.88079 0.2634 0.38625 0.0
H1196 H 0.317 0.91936 0.34772 0.0
H1197 H 0.30054 0.92372 0.30122 0.0
H1198 H 0.2629 0.85226 0.30891 0.0
H1199 H 0.27873 0.84807 0.35526 0.0
H1200 H 0.30294 0.89603 0.2542 0.0
H1201 H 0.20475 0.89889 0.29124 0.0
H1202 H 0.23141 0.90139 0.3138 0.0
H1203 H 0.2209 0.87103 0.30216 0.0
C1204 C 0.30567 0.90436 0.33924 0.0
C1205 C 0.29897 0.88349 0.35524 0.0
C1206 C 0.29609 0.90696 0.31277 0.0
C1207 C 0.27976 0.88871 0.30193 0.0
C1208 C 0.27472 0.867 0.31716 0.0
H1209 H 0.23843 0.86005 0.13645 0.0
H1210 H 0.25431 0.86023 0.18296 0.0
C1211 C 0.28403 0.8645 0.34357 0.0
C1212 C 0.26752 0.89235 0.27499 0.0
H1213 H 0.21021 0.89196 0.24337 0.0
C1214 C 0.28266 0.89538 0.25187 0.0
C1215 C 0.241 0.89214 0.27195 0.0
C1216 C 0.22356 0.89097 0.29615 0.0
C1217 C 0.27208 0.89696 0.22572 0.0
C1218 C 0.24566 0.89486 0.22252 0.0
C1219 C 0.23045 0.8931 0.24575 0.0
C1220 C 0.23371 0.89351 0.19519 0.0
C1221 C 0.28937 0.9009 0.20175 0.0
C1222 C 0.21544 0.91114 0.18706 0.0
C1223 C 0.20588 0.91081 0.16042 0.0
C1224 C 0.21454 0.89286 0.14156 0.0
C1225 C 0.23161 0.87434 0.15038 0.0
C1226 C 0.24092 0.87455 0.17691 0.0
H1227 H 0.30725 0.91002 0.20804 0.0
H1228 H 0.29413 0.88238 0.19265 0.0
H1229 H 0.28032 0.91269 0.18588 0.0
H1230 H 0.20934 0.92575 0.20097 0.0
H1231 H 0.19284 0.92537 0.1542 0.0
H1232 H 0.48868 0.80754 0.84515 0.0
H1233 H 0.49843 0.76913 0.81992 0.0
H1234 H 0.51758 0.81332 0.74937 0.0
H1235 H 0.50746 0.85182 0.7743 0.0
H1236 H 0.48218 0.77822 0.73853 0.0
H1237 H 0.56113 0.73318 0.79341 0.0
H1238 H 0.53559 0.74155 0.8155 0.0
H1239 H 0.55283 0.76586 0.79819 0.0
C1240 C 0.49558 0.80915 0.82449 0.0
C1241 C 0.4971 0.83276 0.81168 0.0
C1242 C 0.50131 0.78713 0.81012 0.0
C1243 C 0.50895 0.78832 0.78279 0.0
C1244 C 0.5118 0.81195 0.77046 0.0
H1245 H 0.50669 0.66851 0.65933 0.0
H1246 H 0.51781 0.70769 0.68269 0.0
C1247 C 0.50599 0.83396 0.78476 0.0
C1248 C 0.51069 0.76502 0.76617 0.0
H1249 H 0.53708 0.7064 0.76368 0.0
C1250 C 0.49453 0.76269 0.74372 0.0
C1251 C 0.52668 0.74471 0.77308 0.0
C1252 C 0.54522 0.7465 0.79621 0.0
C1253 C 0.49308 0.74026 0.72873 0.0
C1254 C 0.5086 0.7197 0.73605 0.0
C1255 C 0.52527 0.72222 0.75805 0.0
C1256 C 0.50608 0.69487 0.72249 0.0
C1257 C 0.47401 0.73838 0.70606 0.0
C1258 C 0.49713 0.67424 0.73736 0.0
C1259 C 0.49095 0.6518 0.72414 0.0
C1260 C 0.49361 0.64955 0.69576 0.0
C1261 C 0.50422 0.66967 0.68117 0.0
C1262 C 0.51047 0.69213 0.69446 0.0
H1263 H 0.46008 0.75397 0.70674 0.0
H1264 H 0.48385 0.73926 0.68618 0.0
H1265 H 0.46372 0.72023 0.70708 0.0
H1266 H 0.49372 0.6759 0.75902 0.0
H1267 H 0.48301 0.63663 0.73606 0.0
H1268 H 0.8354 0.44175 0.64169 0.0
H1269 H 0.79998 0.42964 0.67136 0.0
H1270 H 0.79143 0.50691 0.69647 0.0
H1271 H 0.82638 0.51902 0.66745 0.0
H1272 H 0.79138 0.44016 0.73171 0.0
H1273 H 0.72195 0.48512 0.66277 0.0
H1274 H 0.75313 0.4762 0.65175 0.0
H1275 H 0.74854 0.50445 0.67126 0.0
C1276 C 0.82618 0.45601 0.65388 0.0
C1277 C 0.83366 0.48133 0.6521 0.0
C1278 C 0.80594 0.44911 0.67072 0.0
C1279 C 0.79292 0.46748 0.68582 0.0
C1280 C 0.80098 0.49251 0.68473 0.0
H1281 H 0.68423 0.46298 0.81837 0.0
H1282 H 0.72157 0.46912 0.78974 0.0
C1283 C 0.82103 0.49937 0.66806 0.0
C1284 C 0.77027 0.46119 0.7021 0.0
H1285 H 0.70754 0.4743 0.70698 0.0
C1286 C 0.77297 0.44736 0.72622 0.0
C1287 C 0.74628 0.47052 0.69481 0.0
C1288 C 0.74213 0.48473 0.66862 0.0
C1289 C 0.75236 0.44322 0.74366 0.0
C1290 C 0.72857 0.45351 0.73692 0.0
C1291 C 0.72581 0.46669 0.71236 0.0
C1292 C 0.70602 0.45021 0.75451 0.0
C1293 C 0.75619 0.42769 0.76899 0.0
C1294 C 0.68456 0.43839 0.74399 0.0
C1295 C 0.6632 0.43513 0.76013 0.0
C1296 C 0.66268 0.44372 0.78723 0.0
C1297 C 0.68399 0.45613 0.79761 0.0
C1298 C 0.70545 0.45939 0.78136 0.0
H1299 H 0.77346 0.41596 0.76766 0.0
H1300 H 0.75819 0.44044 0.78675 0.0
H1301 H 0.73983 0.41519 0.7727 0.0
H1302 H 0.68445 0.43134 0.72329 0.0
H1303 H 0.64716 0.42552 0.75139 0.0
H1304 H 0.99777 0.82556 0.65529 0.0
H1305 H 0.99014 0.78815 0.68291 0.0
H1306 H 0.98243 0.83465 0.75439 0.0
H1307 H 0.99041 0.87213 0.72702 0.0
H1308 H 0.01833 0.79848 0.75998 0.0
H1309 H 0.93079 0.75522 0.72098 0.0
H1310 H 0.95301 0.76232 0.6946 0.0
H1311 H 0.93919 0.78751 0.71402 0.0
C1312 C 0.99375 0.82792 0.67674 0.0
C1313 C 0.99492 0.85184 0.68898 0.0
C1314 C 0.98926 0.80648 0.69252 0.0
C1315 C 0.98556 0.80858 0.72073 0.0
C1316 C 0.98518 0.83258 0.73266 0.0
H1317 H 0.00129 0.69217 0.84675 0.0
H1318 H 0.98953 0.73152 0.82407 0.0
C1319 C 0.98974 0.854 0.71695 0.0
C1320 C 0.9856 0.78578 0.73819 0.0
H1321 H 0.95781 0.7285 0.74746 0.0
C1322 C 0.00483 0.78336 0.75758 0.0
C1323 C 0.96809 0.766 0.73489 0.0
C1324 C 0.94646 0.76794 0.71517 0.0
C1325 C 0.00771 0.76132 0.77295 0.0
C1326 C 0.99053 0.74128 0.76926 0.0
C1327 C 0.97089 0.74391 0.75035 0.0
C1328 C 0.994 0.71679 0.78327 0.0
C1329 C 0.02988 0.75923 0.79202 0.0
C1330 C 0.99916 0.69515 0.7679 0.0
C1331 C 0.00566 0.67263 0.78076 0.0
C1332 C 0.00713 0.67129 0.80931 0.0
C1333 C 0.00054 0.69262 0.82473 0.0
C1334 C 0.99394 0.71516 0.8118 0.0
H1335 H 0.04421 0.77399 0.78808 0.0
H1336 H 0.02327 0.76144 0.8133 0.0
H1337 H 0.03904 0.74051 0.79014 0.0
H1338 H 0.99921 0.69594 0.74587 0.0
H1339 H 0.01044 0.65655 0.76823 0.0
H1340 H 0.66265 0.02024 0.66299 0.0
H1341 H 0.69778 0.00342 0.68999 0.0
H1342 H 0.69711 0.07058 0.7394 0.0
H1343 H 0.66166 0.0867 0.71368 0.0
H1344 H 0.74322 0.01815 0.69646 0.0
H1345 H 0.7012 0.02072 0.79837 0.0
H1346 H 0.68247 0.02496 0.76812 0.0
H1347 H 0.69814 0.0514 0.7838 0.0
C1348 C 0.66982 0.03117 0.6799 0.0
C1349 C 0.65917 0.05467 0.68637 0.0
C1350 C 0.68989 0.02156 0.69533 0.0
C1351 C 0.69974 0.03536 0.71735 0.0
C1352 C 0.68929 0.05899 0.72338 0.0
H1353 H 0.8475 0.05386 0.77096 0.0
H1354 H 0.80865 0.04743 0.74624 0.0
C1355 C 0.66909 0.06835 0.70837 0.0
C1356 C 0.72212 0.02636 0.73287 0.0
H1357 H 0.747 0.02605 0.79692 0.0
C1358 C 0.74385 0.01933 0.71848 0.0
C1359 C 0.72299 0.02688 0.7617 0.0
C1360 C 0.6998 0.0311 0.77881 0.0
C1361 C 0.76678 0.01502 0.73191 0.0
C1362 C 0.76836 0.0189 0.76041 0.0
C1363 C 0.74616 0.02371 0.77501 0.0
C1364 C 0.79295 0.0208 0.77491 0.0
C1365 C 0.7891 0.00667 0.71522 0.0
C1366 C 0.79707 0.00867 0.79999 0.0
C1367 C 0.81929 0.01292 0.81476 0.0
C1368 C 0.83783 0.02927 0.80463 0.0
C1369 C 0.83384 0.04089 0.7793 0.0
C1370 C 0.8116 0.03699 0.76487 0.0
H1371 H 0.78301 0.99445 0.69809 0.0
H1372 H 0.79837 0.02341 0.70623 0.0
H1373 H 0.80304 0.99618 0.72765 0.0
H1374 H 0.78291 0.99628 0.80839 0.0
H1375 H 0.82174 0.00377 0.83426 0.0
loop_
_geom_bond_atom_site_label_1
_geom_bond_atom_site_label_2
_geom_bond_distance
_geom_bond_site_symmetry_2
_ccdc_geom_bond_type
Mg0 O1 2.028 . S
Mg0 O7 1.986 . S
Mg0 O9 2.114 . S
Mg0 O10 2.251 . S
Mg0 O13 2.010 . S
O1 Mg0 2.028 . S
O1 C4 1.250 . S
O2 Mg3 2.028 . S
O2 C4 1.248 . S
Mg3 O2 2.028 . S
Mg3 O8 2.032 . S
Mg3 O10 2.079 . S
C4 O1 1.250 . S
C4 O2 1.248 . S
C5 O6 1.264 . S
C5 O13 1.249 . S
O6 C5 1.264 . S
O7 Mg0 1.986 . S
O7 C11 1.246 . S
O8 Mg3 2.032 . S
O8 C11 1.259 . S
O9 Mg0 2.114 . S
O9 C12 1.252 . S
O10 Mg0 2.251 . S
O10 Mg3 2.079 . S
O10 C12 1.273 . S
C11 O7 1.246 . S
C11 O8 1.259 . S
C12 O9 1.252 . S
C12 O10 1.273 . S
O13 Mg0 2.010 . S
O13 C5 1.249 . S
Mg14 O15 2.028 . S
Mg14 O21 1.986 . S
Mg14 O23 2.114 . S
Mg14 O24 2.251 . S
Mg14 O27 2.010 . S
O15 Mg14 2.028 . S
O15 C18 1.250 . S
O16 Mg17 2.028 . S
O16 C18 1.248 . S
Mg17 O16 2.028 . S
Mg17 O22 2.032 . S
Mg17 O24 2.079 . S
C18 O15 1.250 . S
C18 O16 1.248 . S
C19 O20 1.264 . S
C19 O27 1.249 . S
O20 C19 1.264 . S
O21 Mg14 1.986 . S
O21 C25 1.246 . S
O22 Mg17 2.032 . S
O22 C25 1.259 . S
O23 Mg14 2.114 . S
O23 C26 1.252 . S
O24 Mg14 2.251 . S
O24 Mg17 2.079 . S
O24 C26 1.273 . S
C25 O21 1.246 . S
C25 O22 1.259 . S
C26 O23 1.252 . S
C26 O24 1.273 . S
O27 Mg14 2.010 . S
O27 C19 1.249 . S
Mg28 O29 2.028 . S
Mg28 O35 1.986 . S
Mg28 O37 2.114 . S
Mg28 O38 2.251 . S
Mg28 O41 2.010 . S
O29 Mg28 2.028 . S
O29 C32 1.250 . S
O30 Mg31 2.028 . S
O30 C32 1.248 . S
Mg31 O30 2.028 . S
Mg31 O36 2.032 . S
Mg31 O38 2.079 . S
C32 O29 1.250 . S
C32 O30 1.248 . S
C33 O34 1.264 . S
C33 O41 1.249 . S
O34 C33 1.264 . S
O35 Mg28 1.986 . S
O35 C39 1.246 . S
O36 Mg31 2.032 . S
O36 C39 1.259 . S
O37 Mg28 2.114 . S
O37 C40 1.252 . S
O38 Mg28 2.251 . S
O38 Mg31 2.079 . S
O38 C40 1.273 . S
C39 O35 1.246 . S
C39 O36 1.259 . S
C40 O37 1.252 . S
C40 O38 1.273 . S
O41 Mg28 2.010 . S
O41 C33 1.249 . S
Mg42 O43 2.028 . S
Mg42 O49 1.986 . S
Mg42 O51 2.114 . S
Mg42 O52 2.251 . S
Mg42 O55 2.010 . S
O43 Mg42 2.028 . S
O43 C46 1.250 . S
O44 Mg45 2.028 . S
O44 C46 1.248 . S
Mg45 O44 2.028 . S
Mg45 O50 2.032 . S
Mg45 O52 2.079 . S
C46 O43 1.250 . S
C46 O44 1.248 . S
C47 O48 1.264 . S
C47 O55 1.249 . S
O48 C47 1.264 . S
O49 Mg42 1.986 . S
O49 C53 1.246 . S
O50 Mg45 2.032 . S
O50 C53 1.259 . S
O51 Mg42 2.114 . S
O51 C54 1.252 . S
O52 Mg42 2.251 . S
O52 Mg45 2.079 . S
O52 C54 1.273 . S
C53 O49 1.246 . S
C53 O50 1.259 . S
C54 O51 1.252 . S
C54 O52 1.273 . S
O55 Mg42 2.010 . S
O55 C47 1.249 . S
Mg56 O57 2.028 . S
Mg56 O63 1.986 . S
Mg56 O65 2.114 . S
Mg56 O66 2.251 . S
Mg56 O69 2.010 . S
O57 Mg56 2.028 . S
O57 C60 1.250 . S
O58 Mg59 2.028 . S
O58 C60 1.248 . S
Mg59 O58 2.028 . S
Mg59 O64 2.032 . S
Mg59 O66 2.079 . S
C60 O57 1.250 . S
C60 O58 1.248 . S
C61 O62 1.264 . S
C61 O69 1.249 . S
O62 C61 1.264 . S
O63 Mg56 1.986 . S
O63 C67 1.246 . S
O64 Mg59 2.032 . S
O64 C67 1.259 . S
O65 Mg56 2.114 . S
O65 C68 1.252 . S
O66 Mg56 2.251 . S
O66 Mg59 2.079 . S
O66 C68 1.273 . S
C67 O63 1.246 . S
C67 O64 1.259 . S
C68 O65 1.252 . S
C68 O66 1.273 . S
O69 Mg56 2.010 . S
O69 C61 1.249 . S
Mg70 O71 2.028 . S
Mg70 O77 1.986 . S
Mg70 O79 2.114 . S
Mg70 O80 2.251 . S
Mg70 O83 2.010 . S
O71 Mg70 2.028 . S
O71 C74 1.250 . S
O72 Mg73 2.028 . S
O72 C74 1.248 . S
Mg73 O72 2.028 . S
Mg73 O78 2.032 . S
Mg73 O80 2.079 . S
C74 O71 1.250 . S
C74 O72 1.248 . S
C75 O76 1.264 . S
C75 O83 1.249 . S
O76 C75 1.264 . S
O77 Mg70 1.986 . S
O77 C81 1.246 . S
O78 Mg73 2.032 . S
O78 C81 1.259 . S
O79 Mg70 2.114 . S
O79 C82 1.252 . S
O80 Mg70 2.251 . S
O80 Mg73 2.079 . S
O80 C82 1.273 . S
C81 O77 1.246 . S
C81 O78 1.259 . S
C82 O79 1.252 . S
C82 O80 1.273 . S
O83 Mg70 2.010 . S
O83 C75 1.249 . S
Mg84 O85 2.028 . S
Mg84 O91 1.986 . S
Mg84 O93 2.114 . S
Mg84 O94 2.251 . S
Mg84 O97 2.010 . S
O85 Mg84 2.028 . S
O85 C88 1.250 . S
O86 Mg87 2.028 . S
O86 C88 1.248 . S
Mg87 O86 2.028 . S
Mg87 O92 2.032 . S
Mg87 O94 2.079 . S
C88 O85 1.250 . S
C88 O86 1.248 . S
C89 O90 1.264 . S
C89 O97 1.249 . S
O90 C89 1.264 . S
O91 Mg84 1.986 . S
O91 C95 1.246 . S
O92 Mg87 2.032 . S
O92 C95 1.259 . S
O93 Mg84 2.114 . S
O93 C96 1.252 . S
O94 Mg84 2.251 . S
O94 Mg87 2.079 . S
O94 C96 1.273 . S
C95 O91 1.246 . S
C95 O92 1.259 . S
C96 O93 1.252 . S
C96 O94 1.273 . S
O97 Mg84 2.010 . S
O97 C89 1.249 . S
Mg98 O99 2.028 . S
Mg98 O105 1.986 . S
Mg98 O107 2.114 . S
Mg98 O108 2.251 . S
Mg98 O111 2.010 . S
O99 Mg98 2.028 . S
O99 C102 1.250 . S
O100 Mg101 2.028 . S
O100 C102 1.248 . S
Mg101 O100 2.028 . S
Mg101 O106 2.032 . S
Mg101 O108 2.079 . S
C102 O99 1.250 . S
C102 O100 1.248 . S
C103 O104 1.264 . S
C103 O111 1.249 . S
O104 C103 1.264 . S
O105 Mg98 1.986 . S
O105 C109 1.246 . S
O106 Mg101 2.032 . S
O106 C109 1.259 . S
O107 Mg98 2.114 . S
O107 C110 1.252 . S
O108 Mg98 2.251 . S
O108 Mg101 2.079 . S
O108 C110 1.273 . S
C109 O105 1.246 . S
C109 O106 1.259 . S
C110 O107 1.252 . S
C110 O108 1.273 . S
O111 Mg98 2.010 . S
O111 C103 1.249 . S
Mg112 O113 2.028 . S
Mg112 O119 1.986 . S
Mg112 O121 2.114 . S
Mg112 O122 2.251 . S
Mg112 O125 2.010 . S
O113 Mg112 2.028 . S
O113 C116 1.250 . S
O114 Mg115 2.028 . S
O114 C116 1.248 . S
Mg115 O114 2.028 . S
Mg115 O120 2.032 . S
Mg115 O122 2.079 . S
C116 O113 1.250 . S
C116 O114 1.248 . S
C117 O118 1.264 . S
C117 O125 1.249 . S
O118 C117 1.264 . S
O119 Mg112 1.986 . S
O119 C123 1.246 . S
O120 Mg115 2.032 . S
O120 C123 1.259 . S
O121 Mg112 2.114 . S
O121 C124 1.252 . S
O122 Mg112 2.251 . S
O122 Mg115 2.079 . S
O122 C124 1.273 . S
C123 O119 1.246 . S
C123 O120 1.259 . S
C124 O121 1.252 . S
C124 O122 1.273 . S
O125 Mg112 2.010 . S
O125 C117 1.249 . S
Mg126 O127 2.028 . S
Mg126 O133 1.986 . S
Mg126 O135 2.114 . S
Mg126 O136 2.251 . S
Mg126 O139 2.010 . S
O127 Mg126 2.028 . S
O127 C130 1.250 . S
O128 Mg129 2.028 . S
O128 C130 1.248 . S
Mg129 O128 2.028 . S
Mg129 O134 2.032 . S
Mg129 O136 2.079 . S
C130 O127 1.250 . S
C130 O128 1.248 . S
C131 O132 1.264 . S
C131 O139 1.249 . S
O132 C131 1.264 . S
O133 Mg126 1.986 . S
O133 C137 1.246 . S
O134 Mg129 2.032 . S
O134 C137 1.259 . S
O135 Mg126 2.114 . S
O135 C138 1.252 . S
O136 Mg126 2.251 . S
O136 Mg129 2.079 . S
O136 C138 1.273 . S
C137 O133 1.246 . S
C137 O134 1.259 . S
C138 O135 1.252 . S
C138 O136 1.273 . S
O139 Mg126 2.010 . S
O139 C131 1.249 . S
Mg140 O141 2.028 . S
Mg140 O147 1.986 . S
Mg140 O149 2.114 . S
Mg140 O150 2.251 . S
Mg140 O153 2.010 . S
O141 Mg140 2.028 . S
O141 C144 1.250 . S
O142 Mg143 2.028 . S
O142 C144 1.248 . S
Mg143 O142 2.028 . S
Mg143 O148 2.032 . S
Mg143 O150 2.079 . S
C144 O141 1.250 . S
C144 O142 1.248 . S
C145 O146 1.264 . S
C145 O153 1.249 . S
O146 C145 1.264 . S
O147 Mg140 1.986 . S
O147 C151 1.246 . S
O148 Mg143 2.032 . S
O148 C151 1.259 . S
O149 Mg140 2.114 . S
O149 C152 1.252 . S
O150 Mg140 2.251 . S
O150 Mg143 2.079 . S
O150 C152 1.273 . S
C151 O147 1.246 . S
C151 O148 1.259 . S
C152 O149 1.252 . S
C152 O150 1.273 . S
O153 Mg140 2.010 . S
O153 C145 1.249 . S
Mg154 O155 2.028 . S
Mg154 O161 1.986 . S
Mg154 O163 2.114 . S
Mg154 O164 2.251 . S
Mg154 O167 2.010 . S
O155 Mg154 2.028 . S
O155 C158 1.250 . S
O156 Mg157 2.028 . S
O156 C158 1.248 . S
Mg157 O156 2.028 . S
Mg157 O162 2.032 . S
Mg157 O164 2.079 . S
C158 O155 1.250 . S
C158 O156 1.248 . S
C159 O160 1.264 . S
C159 O167 1.249 . S
O160 C159 1.264 . S
O161 Mg154 1.986 . S
O161 C165 1.246 . S
O162 Mg157 2.032 . S
O162 C165 1.259 . S
O163 Mg154 2.114 . S
O163 C166 1.252 . S
O164 Mg154 2.251 . S
O164 Mg157 2.079 . S
O164 C166 1.273 . S
C165 O161 1.246 . S
C165 O162 1.259 . S
C166 O163 1.252 . S
C166 O164 1.273 . S
O167 Mg154 2.010 . S
O167 C159 1.249 . S
Mg168 O169 2.028 . S
Mg168 O175 1.986 . S
Mg168 O177 2.114 . S
Mg168 O178 2.251 . S
Mg168 O181 2.010 . S
O169 Mg168 2.028 . S
O169 C172 1.250 . S
O170 Mg171 2.028 . S
O170 C172 1.248 . S
Mg171 O170 2.028 . S
Mg171 O176 2.032 . S
Mg171 O178 2.079 . S
C172 O169 1.250 . S
C172 O170 1.248 . S
C173 O174 1.264 . S
C173 O181 1.249 . S
O174 C173 1.264 . S
O175 Mg168 1.986 . S
O175 C179 1.246 . S
O176 Mg171 2.032 . S
O176 C179 1.259 . S
O177 Mg168 2.114 . S
O177 C180 1.252 . S
O178 Mg168 2.251 . S
O178 Mg171 2.079 . S
O178 C180 1.273 . S
C179 O175 1.246 . S
C179 O176 1.259 . S
C180 O177 1.252 . S
C180 O178 1.273 . S
O181 Mg168 2.010 . S
O181 C173 1.249 . S
Mg182 O183 2.028 . S
Mg182 O189 1.986 . S
Mg182 O191 2.114 . S
Mg182 O192 2.251 . S
Mg182 O195 2.010 . S
O183 Mg182 2.028 . S
O183 C186 1.250 . S
O184 Mg185 2.028 . S
O184 C186 1.248 . S
Mg185 O184 2.028 . S
Mg185 O190 2.032 . S
Mg185 O192 2.079 . S
C186 O183 1.250 . S
C186 O184 1.248 . S
C187 O188 1.264 . S
C187 O195 1.249 . S
O188 C187 1.264 . S
O189 Mg182 1.986 . S
O189 C193 1.246 . S
O190 Mg185 2.032 . S
O190 C193 1.259 . S
O191 Mg182 2.114 . S
O191 C194 1.252 . S
O192 Mg182 2.251 . S
O192 Mg185 2.079 . S
O192 C194 1.273 . S
C193 O189 1.246 . S
C193 O190 1.259 . S
C194 O191 1.252 . S
C194 O192 1.273 . S
O195 Mg182 2.010 . S
O195 C187 1.249 . S
Mg196 O197 2.028 . S
Mg196 O203 1.986 . S
Mg196 O205 2.114 . S
Mg196 O206 2.251 . S
Mg196 O209 2.010 . S
O197 Mg196 2.028 . S
O197 C200 1.250 . S
O198 Mg199 2.028 . S
O198 C200 1.248 . S
Mg199 O198 2.028 . S
Mg199 O204 2.032 . S
Mg199 O206 2.079 . S
C200 O197 1.250 . S
C200 O198 1.248 . S
C201 O202 1.264 . S
C201 O209 1.249 . S
O202 C201 1.264 . S
O203 Mg196 1.986 . S
O203 C207 1.246 . S
O204 Mg199 2.032 . S
O204 C207 1.259 . S
O205 Mg196 2.114 . S
O205 C208 1.252 . S
O206 Mg196 2.251 . S
O206 Mg199 2.079 . S
O206 C208 1.273 . S
C207 O203 1.246 . S
C207 O204 1.259 . S
C208 O205 1.252 . S
C208 O206 1.273 . S
O209 Mg196 2.010 . S
O209 C201 1.249 . S
Mg210 O211 2.028 . S
Mg210 O217 1.986 . S
Mg210 O219 2.114 . S
Mg210 O220 2.251 . S
Mg210 O223 2.010 . S
O211 Mg210 2.028 . S
O211 C214 1.250 . S
O212 Mg213 2.028 . S
O212 C214 1.248 . S
Mg213 O212 2.028 . S
Mg213 O218 2.032 . S
Mg213 O220 2.079 . S
C214 O211 1.250 . S
C214 O212 1.248 . S
C215 O216 1.264 . S
C215 O223 1.249 . S
O216 C215 1.264 . S
O217 Mg210 1.986 . S
O217 C221 1.246 . S
O218 Mg213 2.032 . S
O218 C221 1.259 . S
O219 Mg210 2.114 . S
O219 C222 1.252 . S
O220 Mg210 2.251 . S
O220 Mg213 2.079 . S
O220 C222 1.273 . S
C221 O217 1.246 . S
C221 O218 1.259 . S
C222 O219 1.252 . S
C222 O220 1.273 . S
O223 Mg210 2.010 . S
O223 C215 1.249 . S
H224 C232 0.929 . S
H225 C234 0.930 . S
H226 C236 0.930 . S
H227 C239 0.929 . S
H228 C242 0.930 . S
H229 C244 0.960 . S
H230 C244 0.960 . S
H231 C244 0.960 . S
C232 H224 0.929 . S
C232 C233 1.377 . S
C232 C234 1.384 . S
C233 C232 1.377 . S
C233 C239 1.390 . S
C234 H225 0.930 . S
C234 C232 1.384 . S
C234 C235 1.372 . S
C235 C234 1.372 . S
C235 C236 1.400 . S
C235 C240 1.490 . S
C236 H226 0.930 . S
C236 C235 1.400 . S
C236 C239 1.386 . S
H237 C253 0.930 . S
H238 C254 0.931 . S
C239 H227 0.929 . S
C239 C233 1.390 . S
C239 C236 1.386 . S
C240 C235 1.490 . S
C240 C242 1.395 . S
C240 C243 1.403 1_554 S
H241 C247 0.930 . S
C242 H228 0.930 . S
C242 C240 1.395 . S
C242 C245 1.403 . S
C243 C240 1.403 1_556 S
C243 C244 1.524 . S
C243 C247 1.400 . S
C244 H229 0.960 . S
C244 H230 0.960 . S
C244 H231 0.960 . S
C244 C243 1.524 . S
C245 C242 1.403 . S
C245 C246 1.392 1_554 S
C245 C249 1.495 . S
C246 C245 1.392 1_556 S
C246 C247 1.385 . S
C246 C248 1.478 . S
C247 H241 0.930 . S
C247 C243 1.400 . S
C247 C246 1.385 . S
C248 C246 1.478 . S
C248 C250 1.381 . S
C248 C254 1.383 . S
C249 C245 1.495 . S
C249 H255 0.959 . S
C249 H256 0.961 . S
C249 H257 0.960 . S
C250 C248 1.381 . S
C250 C251 1.394 . S
C250 H258 0.930 . S
C251 C250 1.394 . S
C251 C252 1.383 . S
C251 H259 0.929 . S
C252 C251 1.383 . S
C252 C253 1.377 . S
C253 H237 0.930 . S
C253 C252 1.377 . S
C253 C254 1.379 . S
C254 H238 0.931 . S
C254 C248 1.383 . S
C254 C253 1.379 . S
H255 C249 0.959 . S
H256 C249 0.961 . S
H257 C249 0.960 . S
H258 C250 0.930 . S
H259 C251 0.929 . S
H260 C268 0.929 . S
H261 C270 0.930 . S
H262 C272 0.930 . S
H263 C275 0.929 . S
H264 C278 0.937 . S
H265 C280 0.960 . S
H266 C280 0.960 . S
H267 C280 0.960 . S
C268 H260 0.929 . S
C268 C269 1.377 . S
C268 C270 1.384 . S
C269 C268 1.377 . S
C269 C275 1.390 . S
C270 H261 0.930 . S
C270 C268 1.384 . S
C270 C271 1.372 . S
C271 C270 1.372 . S
C271 C272 1.400 . S
C271 C276 1.490 . S
C272 H262 0.930 . S
C272 C271 1.400 . S
C272 C275 1.386 . S
H273 C289 0.930 . S
H274 C290 0.931 1_556 S
C275 H263 0.929 . S
C275 C269 1.390 . S
C275 C272 1.386 . S
C276 C271 1.490 . S
C276 C278 1.371 1_556 S
C276 C279 1.403 . S
H277 C283 0.930 . S
C278 H264 0.937 . S
C278 C276 1.371 1_554 S
C278 C281 1.422 . S
C279 C276 1.403 . S
C279 C280 1.524 . S
C279 C283 1.400 . S
C280 H265 0.960 . S
C280 H266 0.960 . S
C280 H267 0.960 . S
C280 C279 1.524 . S
C281 C278 1.422 . S
C281 C282 1.392 . S
C281 C285 1.495 . S
C282 C281 1.392 . S
C282 C283 1.385 1_554 S
C282 C284 1.478 . S
C283 H277 0.930 . S
C283 C279 1.400 . S
C283 C282 1.385 1_556 S
C284 C282 1.478 . S
C284 C286 1.381 . S
C284 C290 1.383 . S
C285 C281 1.495 . S
C285 H291 0.959 . S
C285 H292 0.961 . S
C285 H293 0.960 . S
C286 C284 1.381 . S
C286 C287 1.394 . S
C286 H294 0.930 . S
C287 C286 1.394 . S
C287 C288 1.383 . S
C287 H295 0.929 . S
C288 C287 1.383 . S
C288 C289 1.377 . S
C289 H273 0.930 . S
C289 C288 1.377 . S
C289 C290 1.379 . S
C290 H274 0.931 1_554 S
C290 C284 1.383 . S
C290 C289 1.379 . S
H291 C285 0.959 . S
H292 C285 0.961 . S
H293 C285 0.960 . S
H294 C286 0.930 . S
H295 C287 0.929 . S
H296 C304 0.929 . S
H297 C306 0.930 . S
H298 C308 0.930 . S
H299 C311 0.929 . S
H300 C314 0.930 . S
H301 C316 0.960 . S
H302 C316 0.960 . S
H303 C316 0.960 . S
C304 H296 0.929 . S
C304 C305 1.377 . S
C304 C306 1.384 . S
C305 C304 1.377 . S
C305 C311 1.390 . S
C306 H297 0.930 . S
C306 C304 1.384 . S
C306 C307 1.372 . S
C307 C306 1.372 . S
C307 C308 1.400 . S
C307 C312 1.490 . S
C308 H298 0.930 . S
C308 C307 1.400 . S
C308 C311 1.386 . S
H309 C325 0.930 . S
H310 C326 0.931 . S
C311 H299 0.929 . S
C311 C305 1.390 . S
C311 C308 1.386 . S
C312 C307 1.490 . S
C312 C314 1.395 1_556 S
C312 C315 1.403 . S
H313 C319 0.930 . S
C314 H300 0.930 . S
C314 C312 1.395 1_554 S
C314 C317 1.403 . S
C315 C312 1.403 . S
C315 C316 1.524 . S
C315 C319 1.400 . S
C316 H301 0.960 . S
C316 H302 0.960 . S
C316 H303 0.960 . S
C316 C315 1.524 . S
C317 C314 1.403 . S
C317 C318 1.392 . S
C317 C321 1.495 . S
C318 C317 1.392 . S
C318 C319 1.385 1_554 S
C318 C320 1.478 . S
C319 H313 0.930 . S
C319 C315 1.400 . S
C319 C318 1.385 1_556 S
C320 C318 1.478 . S
C320 C322 1.381 . S
C320 C326 1.383 . S
C321 C317 1.495 . S
C321 H327 0.959 . S
C321 H328 0.961 . S
C321 H329 0.960 . S
C322 C320 1.381 . S
C322 C323 1.394 . S
C322 H330 0.930 . S
C323 C322 1.394 . S
C323 C324 1.383 . S
C323 H331 0.929 . S
C324 C323 1.383 . S
C324 C325 1.377 . S
C325 H309 0.930 . S
C325 C324 1.377 . S
C325 C326 1.379 . S
C326 H310 0.931 . S
C326 C320 1.383 . S
C326 C325 1.379 . S
H327 C321 0.959 . S
H328 C321 0.961 . S
H329 C321 0.960 . S
H330 C322 0.930 . S
H331 C323 0.929 . S
H332 C340 0.929 . S
H333 C342 0.930 . S
H334 C344 0.930 . S
H335 C347 0.929 . S
H336 C350 0.930 . S
H337 C352 0.960 1_554 S
H338 C352 0.960 . S
H339 C352 0.960 1_554 S
C340 H332 0.929 . S
C340 C341 1.377 . S
C340 C342 1.384 . S
C341 C340 1.377 . S
C341 C347 1.390 . S
C342 H333 0.930 . S
C342 C340 1.384 . S
C342 C343 1.372 . S
C343 C342 1.372 . S
C343 C344 1.400 . S
C343 C348 1.490 . S
C344 H334 0.930 . S
C344 C343 1.400 . S
C344 C347 1.386 . S
H345 C361 0.930 . S
H346 C362 0.931 . S
C347 H335 0.929 . S
C347 C341 1.390 . S
C347 C344 1.386 . S
C348 C343 1.490 . S
C348 C350 1.395 . S
C348 C351 1.403 . S
H349 C355 0.930 . S
C350 H336 0.930 . S
C350 C348 1.395 . S
C350 C353 1.403 . S
C351 C348 1.403 . S
C351 C352 1.524 . S
C351 C355 1.400 1_556 S
C352 H337 0.960 1_556 S
C352 H338 0.960 . S
C352 H339 0.960 1_556 S
C352 C351 1.524 . S
C353 C350 1.403 . S
C353 C354 1.392 1_556 S
C353 C357 1.495 . S
C354 C353 1.392 1_554 S
C354 C355 1.385 . S
C354 C356 1.478 . S
C355 H349 0.930 . S
C355 C351 1.400 1_554 S
C355 C354 1.385 . S
C356 C354 1.478 . S
C356 C358 1.381 . S
C356 C362 1.383 . S
C357 C353 1.495 . S
C357 H363 0.959 . S
C357 H364 0.961 1_556 S
C357 H365 0.960 . S
C358 C356 1.381 . S
C358 C359 1.394 . S
C358 H366 0.930 1_554 S
C359 C358 1.394 . S
C359 C360 1.383 . S
C359 H367 0.929 . S
C360 C359 1.383 . S
C360 C361 1.377 . S
C361 H345 0.930 . S
C361 C360 1.377 . S
C361 C362 1.379 . S
C362 H346 0.931 . S
C362 C356 1.383 . S
C362 C361 1.379 . S
H363 C357 0.959 . S
H364 C357 0.961 1_554 S
H365 C357 0.960 . S
H366 C358 0.930 1_556 S
H367 C359 0.929 . S
H368 C376 0.929 . S
H369 C378 0.930 . S
H370 C380 0.930 . S
H371 C383 0.929 . S
H372 C386 0.930 . S
H373 C388 0.960 . S
H374 C388 0.960 . S
H375 C388 0.960 . S
C376 H368 0.929 . S
C376 C377 1.377 . S
C376 C378 1.384 . S
C377 C376 1.377 . S
C377 C383 1.390 . S
C378 H369 0.930 . S
C378 C376 1.384 . S
C378 C379 1.372 . S
C379 C378 1.372 . S
C379 C380 1.400 . S
C379 C384 1.490 . S
C380 H370 0.930 . S
C380 C379 1.400 . S
C380 C383 1.386 . S
H381 C397 0.930 . S
H382 C398 0.931 . S
C383 H371 0.929 . S
C383 C377 1.390 . S
C383 C380 1.386 . S
C384 C379 1.490 . S
C384 C386 1.395 . S
C384 C387 1.403 . S
H385 C391 0.930 . S
C386 H372 0.930 . S
C386 C384 1.395 . S
C386 C389 1.403 . S
C387 C384 1.403 . S
C387 C388 1.524 . S
C387 C391 1.400 . S
C388 H373 0.960 . S
C388 H374 0.960 . S
C388 H375 0.960 . S
C388 C387 1.524 . S
C389 C386 1.403 . S
C389 C390 1.392 . S
C389 C393 1.495 . S
C390 C389 1.392 . S
C390 C391 1.385 . S
C390 C392 1.478 . S
C391 H385 0.930 . S
C391 C387 1.400 . S
C391 C390 1.385 . S
C392 C390 1.478 . S
C392 C394 1.381 . S
C392 C398 1.383 . S
C393 C389 1.495 . S
C393 H399 0.959 . S
C393 H400 0.961 . S
C393 H401 0.960 . S
C394 C392 1.381 . S
C394 C395 1.394 . S
C394 H402 0.930 . S
C395 C394 1.394 . S
C395 C396 1.383 . S
C395 H403 0.929 . S
C396 C395 1.383 . S
C396 C397 1.377 . S
C397 H381 0.930 . S
C397 C396 1.377 . S
C397 C398 1.379 . S
C398 H382 0.931 . S
C398 C392 1.383 . S
C398 C397 1.379 . S
H399 C393 0.959 . S
H400 C393 0.961 . S
H401 C393 0.960 . S
H402 C394 0.930 . S
H403 C395 0.929 . S
H404 C412 0.929 . S
H405 C414 0.930 . S
H406 C416 0.930 . S
H407 C419 0.929 . S
H408 C422 0.930 . S
H409 C424 0.960 . S
H410 C424 0.960 . S
H411 C424 0.960 . S
C412 H404 0.929 . S
C412 C413 1.377 . S
C412 C414 1.384 . S
C413 C412 1.377 . S
C413 C419 1.390 . S
C414 H405 0.930 . S
C414 C412 1.384 . S
C414 C415 1.372 . S
C415 C414 1.372 . S
C415 C416 1.400 . S
C415 C420 1.490 . S
C416 H406 0.930 . S
C416 C415 1.400 . S
C416 C419 1.386 . S
H417 C433 0.930 . S
H418 C434 0.931 . S
C419 H407 0.929 . S
C419 C413 1.390 . S
C419 C416 1.386 . S
C420 C415 1.490 . S
C420 C422 1.395 . S
C420 C423 1.403 . S
H421 C427 0.930 . S
C422 H408 0.930 . S
C422 C420 1.395 . S
C422 C425 1.403 . S
C423 C420 1.403 . S
C423 C424 1.524 . S
C423 C427 1.400 . S
C424 H409 0.960 . S
C424 H410 0.960 . S
C424 H411 0.960 . S
C424 C423 1.524 . S
C425 C422 1.403 . S
C425 C426 1.392 . S
C425 C429 1.495 . S
C426 C425 1.392 . S
C426 C427 1.385 . S
C426 C428 1.478 . S
C427 H421 0.930 . S
C427 C423 1.400 . S
C427 C426 1.385 . S
C428 C426 1.478 . S
C428 C430 1.381 . S
C428 C434 1.383 . S
C429 C425 1.495 . S
C429 H435 0.959 . S
C429 H436 0.961 . S
C429 H437 0.960 . S
C430 C428 1.381 . S
C430 C431 1.394 . S
C430 H438 0.930 . S
C431 C430 1.394 . S
C431 C432 1.383 . S
C431 H439 0.929 . S
C432 C431 1.383 . S
C432 C433 1.377 . S
C433 H417 0.930 . S
C433 C432 1.377 . S
C433 C434 1.379 . S
C434 H418 0.931 . S
C434 C428 1.383 . S
C434 C433 1.379 . S
H435 C429 0.959 . S
H436 C429 0.961 . S
H437 C429 0.960 . S
H438 C430 0.930 . S
H439 C431 0.929 . S
H440 C448 0.929 . S
H441 C450 0.930 . S
H442 C452 0.930 . S
H443 C455 0.929 . S
H444 C458 0.930 . S
H445 C460 0.960 . S
H446 C460 0.960 . S
H447 C460 0.960 . S
C448 H440 0.929 . S
C448 C449 1.377 . S
C448 C450 1.384 . S
C449 C448 1.377 . S
C449 C455 1.390 . S
C450 H441 0.930 . S
C450 C448 1.384 . S
C450 C451 1.372 . S
C451 C450 1.372 . S
C451 C452 1.400 . S
C451 C456 1.490 . S
C452 H442 0.930 . S
C452 C451 1.400 . S
C452 C455 1.386 . S
H453 C469 0.930 . S
H454 C470 0.931 . S
C455 H443 0.929 . S
C455 C449 1.390 . S
C455 C452 1.386 . S
C456 C451 1.490 . S
C456 C458 1.395 . S
C456 C459 1.403 . S
H457 C463 0.930 . S
C458 H444 0.930 . S
C458 C456 1.395 . S
C458 C461 1.403 . S
C459 C456 1.403 . S
C459 C460 1.524 . S
C459 C463 1.400 . S
C460 H445 0.960 . S
C460 H446 0.960 . S
C460 H447 0.960 . S
C460 C459 1.524 . S
C461 C458 1.403 . S
C461 C462 1.392 . S
C461 C465 1.495 . S
C462 C461 1.392 . S
C462 C463 1.385 . S
C462 C464 1.478 . S
C463 H457 0.930 . S
C463 C459 1.400 . S
C463 C462 1.385 . S
C464 C462 1.478 . S
C464 C466 1.381 . S
C464 C470 1.383 . S
C465 C461 1.495 . S
C465 H471 0.959 . S
C465 H472 0.961 . S
C465 H473 0.960 . S
C466 C464 1.381 . S
C466 C467 1.394 . S
C466 H474 0.930 . S
C467 C466 1.394 . S
C467 C468 1.383 . S
C467 H475 0.929 . S
C468 C467 1.383 . S
C468 C469 1.377 . S
C469 H453 0.930 . S
C469 C468 1.377 . S
C469 C470 1.379 . S
C470 H454 0.931 . S
C470 C464 1.383 . S
C470 C469 1.379 . S
H471 C465 0.959 . S
H472 C465 0.961 . S
H473 C465 0.960 . S
H474 C466 0.930 . S
H475 C467 0.929 . S
H476 C484 0.929 . S
H477 C486 0.930 . S
H478 C488 0.930 . S
H479 C491 0.929 . S
H480 C494 0.930 . S
H481 C496 0.960 . S
H482 C496 0.960 . S
H483 C496 0.960 . S
C484 H476 0.929 . S
C484 C485 1.377 . S
C484 C486 1.384 . S
C485 C484 1.377 . S
C485 C491 1.390 . S
C486 H477 0.930 . S
C486 C484 1.384 . S
C486 C487 1.372 . S
C487 C486 1.372 . S
C487 C488 1.400 . S
C487 C492 1.490 . S
C488 H478 0.930 . S
C488 C487 1.400 . S
C488 C491 1.386 . S
H489 C505 0.930 . S
H490 C506 0.931 . S
C491 H479 0.929 . S
C491 C485 1.390 . S
C491 C488 1.386 . S
C492 C487 1.490 . S
C492 C494 1.395 . S
C492 C495 1.403 . S
H493 C499 0.930 . S
C494 H480 0.930 . S
C494 C492 1.395 . S
C494 C497 1.403 . S
C495 C492 1.403 . S
C495 C496 1.524 . S
C495 C499 1.400 . S
C496 H481 0.960 . S
C496 H482 0.960 . S
C496 H483 0.960 . S
C496 C495 1.524 . S
C497 C494 1.403 . S
C497 C498 1.392 . S
C497 C501 1.495 . S
C498 C497 1.392 . S
C498 C499 1.385 . S
C498 C500 1.478 . S
C499 H493 0.930 . S
C499 C495 1.400 . S
C499 C498 1.385 . S
C500 C498 1.478 . S
C500 C502 1.381 . S
C500 C506 1.383 . S
C501 C497 1.495 . S
C501 H507 0.959 . S
C501 H508 0.961 . S
C501 H509 0.960 . S
C502 C500 1.381 . S
C502 C503 1.394 . S
C502 H510 0.930 . S
C503 C502 1.394 . S
C503 C504 1.383 . S
C503 H511 0.929 . S
C504 C503 1.383 . S
C504 C505 1.377 . S
C505 H489 0.930 . S
C505 C504 1.377 . S
C505 C506 1.379 . S
C506 H490 0.931 . S
C506 C500 1.383 . S
C506 C505 1.379 . S
H507 C501 0.959 . S
H508 C501 0.961 . S
H509 C501 0.960 . S
H510 C502 0.930 . S
H511 C503 0.929 . S
H512 C520 0.929 . S
H513 C522 0.930 1_554 S
H514 C524 0.930 . S
H515 C527 0.929 . S
H516 C530 0.930 . S
H517 C532 0.960 . S
H518 C532 0.960 . S
H519 C532 0.960 . S
C520 H512 0.929 . S
C520 C521 1.377 . S
C520 C522 1.384 . S
C521 C520 1.377 . S
C521 C527 1.390 . S
C522 H513 0.930 1_556 S
C522 C520 1.384 . S
C522 C523 1.372 . S
C523 C522 1.372 . S
C523 C524 1.400 . S
C523 C528 1.489 . S
C524 H514 0.930 . S
C524 C523 1.400 . S
C524 C527 1.386 . S
H525 C541 0.930 . S
H526 C542 0.931 . S
C527 H515 0.929 . S
C527 C521 1.390 . S
C527 C524 1.386 . S
C528 C523 1.489 . S
C528 C530 1.396 1_556 S
C528 C531 1.403 1_556 S
H529 C535 0.930 . S
C530 H516 0.930 . S
C530 C528 1.396 1_554 S
C530 C533 1.403 . S
C531 C528 1.403 1_554 S
C531 C532 1.519 1_554 S
C531 C535 1.405 . S
C532 H517 0.960 . S
C532 H518 0.960 . S
C532 H519 0.960 . S
C532 C531 1.519 1_556 S
C533 C530 1.403 . S
C533 C534 1.392 . S
C533 C537 1.495 . S
C534 C533 1.392 . S
C534 C535 1.385 . S
C534 C536 1.478 . S
C535 H529 0.930 . S
C535 C531 1.405 . S
C535 C534 1.385 . S
C536 C534 1.478 . S
C536 C538 1.381 . S
C536 C542 1.383 . S
C537 C533 1.495 . S
C537 H543 0.959 . S
C537 H544 0.961 . S
C537 H545 0.960 . S
C538 C536 1.381 . S
C538 C539 1.394 . S
C538 H546 0.930 . S
C539 C538 1.394 . S
C539 C540 1.383 . S
C539 H547 0.929 . S
C540 C539 1.383 . S
C540 C541 1.377 . S
C541 H525 0.930 . S
C541 C540 1.377 . S
C541 C542 1.379 . S
C542 H526 0.931 . S
C542 C536 1.383 . S
C542 C541 1.379 . S
H543 C537 0.959 . S
H544 C537 0.961 . S
H545 C537 0.960 . S
H546 C538 0.930 . S
H547 C539 0.929 . S
H548 C556 0.929 . S
H549 C558 0.930 1_554 S
H550 C560 0.930 . S
H551 C563 0.929 . S
H552 C566 0.930 . S
H553 C568 0.960 . S
H554 C568 0.960 . S
H555 C568 0.960 . S
C556 H548 0.929 . S
C556 C557 1.377 . S
C556 C558 1.384 . S
C557 C556 1.377 . S
C557 C563 1.390 . S
C558 H549 0.930 1_556 S
C558 C556 1.384 . S
C558 C559 1.372 . S
C559 C558 1.372 . S
C559 C560 1.400 . S
C559 C564 1.491 1_556 S
C560 H550 0.930 . S
C560 C559 1.400 . S
C560 C563 1.386 . S
H561 C577 0.930 . S
H562 C578 0.931 . S
C563 H551 0.929 . S
C563 C557 1.390 . S
C563 C560 1.386 . S
C564 C559 1.491 1_554 S
C564 C566 1.393 . S
C564 C567 1.403 1_554 S
H565 C571 0.930 . S
C566 H552 0.930 . S
C566 C564 1.393 . S
C566 C569 1.403 . S
C567 C564 1.403 1_556 S
C567 C568 1.524 . S
C567 C571 1.400 1_556 S
C568 H553 0.960 . S
C568 H554 0.960 . S
C568 H555 0.960 . S
C568 C567 1.524 . S
C569 C566 1.403 . S
C569 C570 1.392 . S
C569 C573 1.495 . S
C570 C569 1.392 . S
C570 C571 1.385 . S
C570 C572 1.478 . S
C571 H565 0.930 . S
C571 C567 1.400 1_554 S
C571 C570 1.385 . S
C572 C570 1.478 . S
C572 C574 1.381 . S
C572 C578 1.383 . S
C573 C569 1.495 . S
C573 H579 0.959 . S
C573 H580 0.961 . S
C573 H581 0.960 . S
C574 C572 1.381 . S
C574 C575 1.394 . S
C574 H582 0.930 . S
C575 C574 1.394 . S
C575 C576 1.383 . S
C575 H583 0.929 . S
C576 C575 1.383 . S
C576 C577 1.377 . S
C577 H561 0.930 . S
C577 C576 1.377 . S
C577 C578 1.379 . S
C578 H562 0.931 . S
C578 C572 1.383 . S
C578 C577 1.379 . S
H579 C573 0.959 . S
H580 C573 0.961 . S
H581 C573 0.960 . S
H582 C574 0.930 . S
H583 C575 0.929 . S
H584 C592 0.929 . S
H585 C594 0.930 . S
H586 C596 0.930 . S
H587 C599 0.929 . S
H588 C602 0.930 . S
H589 C604 0.960 . S
H590 C604 0.960 . S
H591 C604 0.960 . S
C592 H584 0.929 . S
C592 C593 1.377 . S
C592 C594 1.384 . S
C593 C592 1.377 . S
C593 C599 1.390 . S
C594 H585 0.930 . S
C594 C592 1.384 . S
C594 C595 1.372 . S
C595 C594 1.372 . S
C595 C596 1.400 . S
C595 C600 1.490 . S
C596 H586 0.930 . S
C596 C595 1.400 . S
C596 C599 1.386 . S
H597 C613 0.930 . S
H598 C614 0.931 . S
C599 H587 0.929 . S
C599 C593 1.390 . S
C599 C596 1.386 . S
C600 C595 1.490 . S
C600 C602 1.395 1_556 S
C600 C603 1.403 . S
H601 C607 0.930 . S
C602 H588 0.930 . S
C602 C600 1.395 1_554 S
C602 C605 1.403 . S
C603 C600 1.403 . S
C603 C604 1.524 . S
C603 C607 1.400 1_556 S
C604 H589 0.960 . S
C604 H590 0.960 . S
C604 H591 0.960 . S
C604 C603 1.524 . S
C605 C602 1.403 . S
C605 C606 1.392 . S
C605 C609 1.495 . S
C606 C605 1.392 . S
C606 C607 1.385 . S
C606 C608 1.478 . S
C607 H601 0.930 . S
C607 C603 1.400 1_554 S
C607 C606 1.385 . S
C608 C606 1.478 . S
C608 C610 1.381 . S
C608 C614 1.383 . S
C609 C605 1.495 . S
C609 H615 0.959 . S
C609 H616 0.961 . S
C609 H617 0.960 . S
C610 C608 1.381 . S
C610 C611 1.394 . S
C610 H618 0.930 . S
C611 C610 1.394 . S
C611 C612 1.383 . S
C611 H619 0.929 . S
C612 C611 1.383 . S
C612 C613 1.377 . S
C613 H597 0.930 . S
C613 C612 1.377 . S
C613 C614 1.379 . S
C614 H598 0.931 . S
C614 C608 1.383 . S
C614 C613 1.379 . S
H615 C609 0.959 . S
H616 C609 0.961 . S
H617 C609 0.960 . S
H618 C610 0.930 . S
H619 C611 0.929 . S
H620 C628 0.929 . S
H621 C630 0.930 . S
H622 C632 0.930 . S
H623 C635 0.929 . S
H624 C638 0.930 . S
H625 C640 0.960 . S
H626 C640 0.960 . S
H627 C640 0.960 . S
C628 H620 0.929 . S
C628 C629 1.377 . S
C628 C630 1.384 . S
C629 C628 1.377 . S
C629 C635 1.390 . S
C630 H621 0.930 . S
C630 C628 1.384 . S
C630 C631 1.372 . S
C631 C630 1.372 . S
C631 C632 1.400 . S
C631 C636 1.490 . S
C632 H622 0.930 . S
C632 C631 1.400 . S
C632 C635 1.386 . S
H633 C649 0.930 . S
H634 C650 0.931 . S
C635 H623 0.929 . S
C635 C629 1.390 . S
C635 C632 1.386 . S
C636 C631 1.490 . S
C636 C638 1.395 1_554 S
C636 C639 1.403 . S
H637 C643 0.930 . S
C638 H624 0.930 . S
C638 C636 1.395 1_556 S
C638 C641 1.403 . S
C639 C636 1.403 . S
C639 C640 1.524 . S
C639 C643 1.400 . S
C640 H625 0.960 . S
C640 H626 0.960 . S
C640 H627 0.960 . S
C640 C639 1.524 . S
C641 C638 1.403 . S
C641 C642 1.392 . S
C641 C645 1.495 . S
C642 C641 1.392 . S
C642 C643 1.385 1_556 S
C642 C644 1.478 . S
C643 H637 0.930 . S
C643 C639 1.400 . S
C643 C642 1.385 1_554 S
C644 C642 1.478 . S
C644 C646 1.381 . S
C644 C650 1.383 . S
C645 C641 1.495 . S
C645 H651 0.959 . S
C645 H652 0.961 . S
C645 H653 0.960 . S
C646 C644 1.381 . S
C646 C647 1.394 . S
C646 H654 0.930 . S
C647 C646 1.394 . S
C647 C648 1.383 . S
C647 H655 0.929 . S
C648 C647 1.383 . S
C648 C649 1.377 . S
C649 H633 0.930 . S
C649 C648 1.377 . S
C649 C650 1.379 . S
C650 H634 0.931 . S
C650 C644 1.383 . S
C650 C649 1.379 . S
H651 C645 0.959 . S
H652 C645 0.961 . S
H653 C645 0.960 . S
H654 C646 0.930 . S
H655 C647 0.929 . S
H656 C664 0.929 . S
H657 C666 0.930 . S
H658 C668 0.930 . S
H659 C671 0.929 . S
H660 C674 0.930 . S
H661 C676 0.960 . S
H662 C676 0.960 . S
H663 C676 0.960 . S
C664 H656 0.929 . S
C664 C665 1.377 . S
C664 C666 1.384 . S
C665 C664 1.377 . S
C665 C671 1.390 . S
C666 H657 0.930 . S
C666 C664 1.384 . S
C666 C667 1.372 . S
C667 C666 1.372 . S
C667 C668 1.400 . S
C667 C672 1.490 . S
C668 H658 0.930 . S
C668 C667 1.400 . S
C668 C671 1.386 . S
H669 C685 0.930 . S
H670 C686 0.931 . S
C671 H659 0.929 . S
C671 C665 1.390 . S
C671 C668 1.386 . S
C672 C667 1.490 . S
C672 C674 1.395 . S
C672 C675 1.403 . S
H673 C679 0.930 . S
C674 H660 0.930 . S
C674 C672 1.395 . S
C674 C677 1.403 . S
C675 C672 1.403 . S
C675 C676 1.524 . S
C675 C679 1.400 . S
C676 H661 0.960 . S
C676 H662 0.960 . S
C676 H663 0.960 . S
C676 C675 1.524 . S
C677 C674 1.403 . S
C677 C678 1.392 . S
C677 C681 1.495 . S
C678 C677 1.392 . S
C678 C679 1.385 . S
C678 C680 1.478 . S
C679 H673 0.930 . S
C679 C675 1.400 . S
C679 C678 1.385 . S
C680 C678 1.478 . S
C680 C682 1.381 . S
C680 C686 1.383 . S
C681 C677 1.495 . S
C681 H687 0.959 . S
C681 H688 0.961 . S
C681 H689 0.960 . S
C682 C680 1.381 . S
C682 C683 1.394 . S
C682 H690 0.930 . S
C683 C682 1.394 . S
C683 C684 1.383 . S
C683 H691 0.929 . S
C684 C683 1.383 . S
C684 C685 1.377 . S
C685 H669 0.930 . S
C685 C684 1.377 . S
C685 C686 1.379 . S
C686 H670 0.931 . S
C686 C680 1.383 . S
C686 C685 1.379 . S
H687 C681 0.959 . S
H688 C681 0.961 . S
H689 C681 0.960 . S
H690 C682 0.930 . S
H691 C683 0.929 . S
H692 C700 0.929 . S
H693 C702 0.930 . S
H694 C704 0.930 . S
H695 C707 0.929 . S
H696 C710 0.930 . S
H697 C712 0.960 . S
H698 C712 0.960 . S
H699 C712 0.960 . S
C700 H692 0.929 . S
C700 C701 1.377 . S
C700 C702 1.384 . S
C701 C700 1.377 . S
C701 C707 1.390 . S
C702 H693 0.930 . S
C702 C700 1.384 . S
C702 C703 1.372 . S
C703 C702 1.372 . S
C703 C704 1.400 . S
C703 C708 1.490 . S
C704 H694 0.930 . S
C704 C703 1.400 . S
C704 C707 1.386 . S
H705 C721 0.930 . S
H706 C722 0.931 . S
C707 H695 0.929 . S
C707 C701 1.390 . S
C707 C704 1.386 . S
C708 C703 1.490 . S
C708 C710 1.395 . S
C708 C711 1.403 . S
H709 C715 0.930 . S
C710 H696 0.930 . S
C710 C708 1.395 . S
C710 C713 1.403 . S
C711 C708 1.403 . S
C711 C712 1.524 . S
C711 C715 1.400 . S
C712 H697 0.960 . S
C712 H698 0.960 . S
C712 H699 0.960 . S
C712 C711 1.524 . S
C713 C710 1.403 . S
C713 C714 1.392 . S
C713 C717 1.495 . S
C714 C713 1.392 . S
C714 C715 1.385 . S
C714 C716 1.478 . S
C715 H709 0.930 . S
C715 C711 1.400 . S
C715 C714 1.385 . S
C716 C714 1.478 . S
C716 C718 1.381 . S
C716 C722 1.383 . S
C717 C713 1.495 . S
C717 H723 0.959 . S
C717 H724 0.961 . S
C717 H725 0.960 . S
C718 C716 1.381 . S
C718 C719 1.394 . S
C718 H726 0.930 . S
C719 C718 1.394 . S
C719 C720 1.383 . S
C719 H727 0.929 . S
C720 C719 1.383 . S
C720 C721 1.377 . S
C721 H705 0.930 . S
C721 C720 1.377 . S
C721 C722 1.379 . S
C722 H706 0.931 . S
C722 C716 1.383 . S
C722 C721 1.379 . S
H723 C717 0.959 . S
H724 C717 0.961 . S
H725 C717 0.960 . S
H726 C718 0.930 . S
H727 C719 0.929 . S
H728 C736 0.929 . S
H729 C738 0.930 . S
H730 C740 0.930 . S
H731 C743 0.929 . S
H732 C746 0.930 . S
H733 C748 0.960 . S
H734 C748 0.960 . S
H735 C748 0.960 . S
C736 H728 0.929 . S
C736 C737 1.377 . S
C736 C738 1.384 . S
C737 C736 1.377 . S
C737 C743 1.390 . S
C738 H729 0.930 . S
C738 C736 1.384 . S
C738 C739 1.372 . S
C739 C738 1.372 . S
C739 C740 1.400 . S
C739 C744 1.490 . S
C740 H730 0.930 . S
C740 C739 1.400 . S
C740 C743 1.386 . S
H741 C757 0.930 . S
H742 C758 0.931 . S
C743 H731 0.929 . S
C743 C737 1.390 . S
C743 C740 1.386 . S
C744 C739 1.490 . S
C744 C746 1.395 . S
C744 C747 1.403 . S
H745 C751 0.930 . S
C746 H732 0.930 . S
C746 C744 1.395 . S
C746 C749 1.403 . S
C747 C744 1.403 . S
C747 C748 1.524 . S
C747 C751 1.400 . S
C748 H733 0.960 . S
C748 H734 0.960 . S
C748 H735 0.960 . S
C748 C747 1.524 . S
C749 C746 1.403 . S
C749 C750 1.392 . S
C749 C753 1.495 . S
C750 C749 1.392 . S
C750 C751 1.385 . S
C750 C752 1.478 . S
C751 H745 0.930 . S
C751 C747 1.400 . S
C751 C750 1.385 . S
C752 C750 1.478 . S
C752 C754 1.381 . S
C752 C758 1.383 . S
C753 C749 1.495 . S
C753 H759 0.959 . S
C753 H760 0.961 . S
C753 H761 0.960 . S
C754 C752 1.381 . S
C754 C755 1.394 . S
C754 H762 0.930 . S
C755 C754 1.394 . S
C755 C756 1.383 . S
C755 H763 0.929 . S
C756 C755 1.383 . S
C756 C757 1.377 . S
C757 H741 0.930 . S
C757 C756 1.377 . S
C757 C758 1.379 . S
C758 H742 0.931 . S
C758 C752 1.383 . S
C758 C757 1.379 . S
H759 C753 0.959 . S
H760 C753 0.961 . S
H761 C753 0.960 . S
H762 C754 0.930 . S
H763 C755 0.929 . S
H764 C772 0.929 . S
H765 C774 0.930 . S
H766 C776 0.930 . S
H767 C779 0.929 . S
H768 C782 0.930 . S
H769 C784 0.960 . S
H770 C784 0.960 . S
H771 C784 0.960 . S
C772 H764 0.929 . S
C772 C773 1.377 . S
C772 C774 1.384 . S
C773 C772 1.377 . S
C773 C779 1.390 . S
C774 H765 0.930 . S
C774 C772 1.384 . S
C774 C775 1.372 . S
C775 C774 1.372 . S
C775 C776 1.400 . S
C775 C780 1.490 . S
C776 H766 0.930 . S
C776 C775 1.400 . S
C776 C779 1.386 . S
H777 C793 0.930 . S
H778 C794 0.931 . S
C779 H767 0.929 . S
C779 C773 1.390 . S
C779 C776 1.386 . S
C780 C775 1.490 . S
C780 C782 1.395 . S
C780 C783 1.403 . S
H781 C787 0.930 . S
C782 H768 0.930 . S
C782 C780 1.395 . S
C782 C785 1.403 . S
C783 C780 1.403 . S
C783 C784 1.524 . S
C783 C787 1.400 . S
C784 H769 0.960 . S
C784 H770 0.960 . S
C784 H771 0.960 . S
C784 C783 1.524 . S
C785 C782 1.403 . S
C785 C786 1.392 . S
C785 C789 1.495 . S
C786 C785 1.392 . S
C786 C787 1.385 . S
C786 C788 1.478 . S
C787 H781 0.930 . S
C787 C783 1.400 . S
C787 C786 1.385 . S
C788 C786 1.478 . S
C788 C790 1.381 . S
C788 C794 1.383 . S
C789 C785 1.495 . S
C789 H795 0.959 . S
C789 H796 0.961 . S
C789 H797 0.960 . S
C790 C788 1.381 . S
C790 C791 1.394 . S
C790 H798 0.930 . S
C791 C790 1.394 . S
C791 C792 1.383 . S
C791 H799 0.929 . S
C792 C791 1.383 . S
C792 C793 1.377 . S
C793 H777 0.930 . S
C793 C792 1.377 . S
C793 C794 1.379 . S
C794 H778 0.931 . S
C794 C788 1.383 . S
C794 C793 1.379 . S
H795 C789 0.959 . S
H796 C789 0.961 . S
H797 C789 0.960 . S
H798 C790 0.930 . S
H799 C791 0.929 . S
H800 C808 0.929 . S
H801 C810 0.930 1_554 S
H802 C812 0.930 . S
H803 C815 0.929 . S
H804 C818 0.930 . S
H805 C820 0.948 1_544 S
H806 C820 0.945 1_554 S
H807 C820 0.990 . S
C808 H800 0.929 . S
C808 C809 1.377 . S
C808 C810 1.384 . S
C809 C808 1.377 . S
C809 C815 1.390 . S
C810 H801 0.930 1_556 S
C810 C808 1.384 . S
C810 C811 1.372 . S
C811 C810 1.372 . S
C811 C812 1.400 . S
C811 C816 1.490 . S
C812 H802 0.930 . S
C812 C811 1.400 . S
C812 C815 1.386 . S
H813 C829 0.930 . S
H814 C830 0.931 . S
C815 H803 0.929 . S
C815 C809 1.390 . S
C815 C812 1.386 . S
C816 C811 1.490 . S
C816 C818 1.395 . S
C816 C819 1.403 1_556 S
H817 C823 0.930 . S
C818 H804 0.930 . S
C818 C816 1.395 . S
C818 C821 1.403 1_556 S
C819 C816 1.403 1_554 S
C819 C820 1.522 1_554 S
C819 C823 1.400 1_565 S
C820 H805 0.948 1_566 S
C820 H806 0.945 1_556 S
C820 H807 0.990 . S
C820 C819 1.522 1_556 S
C821 C818 1.403 1_554 S
C821 C822 1.392 1_565 S
C821 C825 1.495 . S
C822 C821 1.392 1_545 S
C822 C823 1.385 . S
C822 C824 1.478 . S
C823 H817 0.930 . S
C823 C819 1.400 1_545 S
C823 C822 1.385 . S
C824 C822 1.478 . S
C824 C826 1.381 . S
C824 C830 1.383 . S
C825 C821 1.495 . S
C825 H831 0.959 . S
C825 H832 0.961 1_565 S
C825 H833 0.960 . S
C826 C824 1.381 . S
C826 C827 1.394 . S
C826 H834 0.930 . S
C827 C826 1.394 . S
C827 C828 1.383 . S
C827 H835 0.929 . S
C828 C827 1.383 . S
C828 C829 1.377 . S
C829 H813 0.930 . S
C829 C828 1.377 . S
C829 C830 1.379 . S
C830 H814 0.931 . S
C830 C824 1.383 . S
C830 C829 1.379 . S
H831 C825 0.959 . S
H832 C825 0.961 1_545 S
H833 C825 0.960 . S
H834 C826 0.930 . S
H835 C827 0.929 . S
H836 C844 0.929 . S
H837 C846 0.930 . S
H838 C848 0.930 . S
H839 C851 0.929 . S
H840 C854 0.930 . S
H841 C856 0.960 . S
H842 C856 0.960 . S
H843 C856 0.985 . S
C844 H836 0.929 . S
C844 C845 1.377 . S
C844 C846 1.384 . S
C845 C844 1.377 . S
C845 C851 1.390 . S
C846 H837 0.930 . S
C846 C844 1.384 . S
C846 C847 1.372 . S
C847 C846 1.372 . S
C847 C848 1.400 . S
C847 C852 1.490 . S
C848 H838 0.930 . S
C848 C847 1.400 . S
C848 C851 1.386 . S
H849 C865 0.930 . S
H850 C866 0.931 . S
C851 H839 0.929 . S
C851 C845 1.390 . S
C851 C848 1.386 . S
C852 C847 1.490 . S
C852 C854 1.395 . S
C852 C855 1.403 1_554 S
H853 C859 0.930 . S
C854 H840 0.930 . S
C854 C852 1.395 . S
C854 C857 1.403 . S
C855 C852 1.403 1_556 S
C855 C856 1.524 . S
C855 C859 1.400 . S
C856 H841 0.960 . S
C856 H842 0.960 . S
C856 H843 0.985 . S
C856 C855 1.524 . S
C857 C854 1.403 . S
C857 C858 1.392 1_554 S
C857 C861 1.495 . S
C858 C857 1.392 1_556 S
C858 C859 1.385 . S
C858 C860 1.478 . S
C859 H853 0.930 . S
C859 C855 1.400 . S
C859 C858 1.385 . S
C860 C858 1.478 . S
C860 C862 1.381 . S
C860 C866 1.383 . S
C861 C857 1.495 . S
C861 H867 0.959 . S
C861 H868 0.961 . S
C861 H869 0.960 . S
C862 C860 1.381 . S
C862 C863 1.394 . S
C862 H870 0.930 . S
C863 C862 1.394 . S
C863 C864 1.383 . S
C863 H871 0.929 . S
C864 C863 1.383 . S
C864 C865 1.377 . S
C865 H849 0.930 . S
C865 C864 1.377 . S
C865 C866 1.379 . S
C866 H850 0.931 . S
C866 C860 1.383 . S
C866 C865 1.379 . S
H867 C861 0.959 . S
H868 C861 0.961 . S
H869 C861 0.960 . S
H870 C862 0.930 . S
H871 C863 0.929 . S
H872 C880 0.929 1_655 S
H873 C882 0.930 . S
H874 C884 0.930 . S
H875 C887 0.929 . S
H876 C890 0.930 . S
H877 C892 0.960 . S
H878 C892 0.960 . S
H879 C892 0.960 . S
C880 H872 0.929 1_455 S
C880 C881 1.377 . S
C880 C882 1.384 1_455 S
C881 C880 1.377 . S
C881 C887 1.390 . S
C882 H873 0.930 . S
C882 C880 1.384 1_655 S
C882 C883 1.372 1_655 S
C883 C882 1.372 1_455 S
C883 C884 1.400 . S
C883 C888 1.490 . S
C884 H874 0.930 . S
C884 C883 1.400 . S
C884 C887 1.386 . S
H885 C901 0.930 . S
H886 C902 0.931 1_455 S
C887 H875 0.929 . S
C887 C881 1.390 . S
C887 C884 1.386 . S
C888 C883 1.490 . S
C888 C890 1.395 1_455 S
C888 C891 1.403 1_556 S
H889 C895 0.930 . S
C890 H876 0.930 . S
C890 C888 1.395 1_655 S
C890 C893 1.403 . S
C891 C888 1.403 1_554 S
C891 C892 1.524 . S
C891 C895 1.400 1_455 S
C892 H877 0.960 . S
C892 H878 0.960 . S
C892 H879 0.960 . S
C892 C891 1.524 . S
C893 C890 1.403 . S
C893 C894 1.392 1_556 S
C893 C897 1.495 . S
C894 C893 1.392 1_554 S
C894 C895 1.385 . S
C894 C896 1.478 . S
C895 H889 0.930 . S
C895 C891 1.400 1_655 S
C895 C894 1.385 . S
C896 C894 1.478 . S
C896 C898 1.381 . S
C896 C902 1.383 . S
C897 C893 1.495 . S
C897 H903 0.959 . S
C897 H904 0.961 . S
C897 H905 0.960 . S
C898 C896 1.381 . S
C898 C899 1.394 . S
C898 H906 0.930 . S
C899 C898 1.394 . S
C899 C900 1.383 . S
C899 H907 0.929 . S
C900 C899 1.383 . S
C900 C901 1.377 . S
C901 H885 0.930 . S
C901 C900 1.377 . S
C901 C902 1.379 . S
C902 H886 0.931 1_655 S
C902 C896 1.383 . S
C902 C901 1.379 . S
H903 C897 0.959 . S
H904 C897 0.961 . S
H905 C897 0.960 . S
H906 C898 0.930 . S
H907 C899 0.929 . S
H908 C916 0.929 . S
H909 C918 0.930 . S
H910 C920 0.930 . S
H911 C923 0.929 . S
H912 C926 0.930 . S
H913 C928 0.955 1_556 S
H914 C928 0.960 . S
H915 C928 0.960 1_455 S
C916 H908 0.929 . S
C916 C917 1.377 . S
C916 C918 1.384 . S
C917 C916 1.377 . S
C917 C923 1.390 . S
C918 H909 0.930 . S
C918 C916 1.384 . S
C918 C919 1.372 . S
C919 C918 1.372 . S
C919 C920 1.400 . S
C919 C924 1.490 . S
C920 H910 0.930 . S
C920 C919 1.400 . S
C920 C923 1.386 . S
H921 C937 0.930 . S
H922 C938 0.931 . S
C923 H911 0.929 . S
C923 C917 1.390 . S
C923 C920 1.386 . S
C924 C919 1.490 . S
C924 C926 1.395 1_565 S
C924 C927 1.403 1_455 S
H925 C931 0.930 . S
C926 H912 0.930 . S
C926 C924 1.395 1_545 S
C926 C929 1.403 1_455 S
C927 C924 1.403 1_655 S
C927 C928 1.524 . S
C927 C931 1.400 1_554 S
C928 H913 0.955 1_554 S
C928 H914 0.960 . S
C928 H915 0.960 1_655 S
C928 C927 1.524 . S
C929 C926 1.403 1_655 S
C929 C930 1.392 1_554 S
C929 C933 1.495 . S
C930 C929 1.392 1_556 S
C930 C931 1.385 1_545 S
C930 C932 1.478 . S
C931 H925 0.930 . S
C931 C927 1.400 1_556 S
C931 C930 1.385 1_565 S
C932 C930 1.478 . S
C932 C934 1.381 . S
C932 C938 1.383 . S
C933 C929 1.495 . S
C933 H939 0.959 1_655 S
C933 H940 0.961 1_554 S
C933 H941 0.960 . S
C934 C932 1.381 . S
C934 C935 1.394 . S
C934 H942 0.930 1_556 S
C935 C934 1.394 . S
C935 C936 1.383 . S
C935 H943 0.929 . S
C936 C935 1.383 . S
C936 C937 1.377 . S
C937 H921 0.930 . S
C937 C936 1.377 . S
C937 C938 1.379 . S
C938 H922 0.931 . S
C938 C932 1.383 . S
C938 C937 1.379 . S
H939 C933 0.959 1_455 S
H940 C933 0.961 1_556 S
H941 C933 0.960 . S
H942 C934 0.930 1_554 S
H943 C935 0.929 . S
H944 C952 0.929 . S
H945 C954 0.930 . S
H946 C956 0.930 . S
H947 C959 0.929 . S
H948 C962 0.930 . S
H949 C964 0.960 . S
H950 C964 0.960 . S
H951 C964 0.960 . S
C952 H944 0.929 . S
C952 C953 1.377 . S
C952 C954 1.384 . S
C953 C952 1.377 . S
C953 C959 1.390 . S
C954 H945 0.930 . S
C954 C952 1.384 . S
C954 C955 1.372 . S
C955 C954 1.372 . S
C955 C956 1.400 . S
C955 C960 1.490 . S
C956 H946 0.930 . S
C956 C955 1.400 . S
C956 C959 1.386 . S
H957 C973 0.930 . S
H958 C974 0.931 . S
C959 H947 0.929 . S
C959 C953 1.390 . S
C959 C956 1.386 . S
C960 C955 1.490 . S
C960 C962 1.395 . S
C960 C963 1.403 . S
H961 C967 0.930 . S
C962 H948 0.930 . S
C962 C960 1.395 . S
C962 C965 1.403 . S
C963 C960 1.403 . S
C963 C964 1.524 . S
C963 C967 1.400 . S
C964 H949 0.960 . S
C964 H950 0.960 . S
C964 H951 0.960 . S
C964 C963 1.524 . S
C965 C962 1.403 . S
C965 C966 1.392 . S
C965 C969 1.495 . S
C966 C965 1.392 . S
C966 C967 1.385 . S
C966 C968 1.478 . S
C967 H961 0.930 . S
C967 C963 1.400 . S
C967 C966 1.385 . S
C968 C966 1.478 . S
C968 C970 1.381 . S
C968 C974 1.383 . S
C969 C965 1.495 . S
C969 H975 0.959 . S
C969 H976 0.961 . S
C969 H977 0.960 . S
C970 C968 1.381 . S
C970 C971 1.394 . S
C970 H978 0.930 . S
C971 C970 1.394 . S
C971 C972 1.383 . S
C971 H979 0.929 . S
C972 C971 1.383 . S
C972 C973 1.377 . S
C973 H957 0.930 . S
C973 C972 1.377 . S
C973 C974 1.379 . S
C974 H958 0.931 . S
C974 C968 1.383 . S
C974 C973 1.379 . S
H975 C969 0.959 . S
H976 C969 0.961 . S
H977 C969 0.960 . S
H978 C970 0.930 . S
H979 C971 0.929 . S
H980 C988 0.929 . S
H981 C990 0.930 . S
H982 C992 0.930 . S
H983 C995 0.929 . S
H984 C998 0.922 1_455 S
H985 C1000 0.960 . S
H986 C1000 0.960 . S
H987 C1000 0.960 . S
C988 H980 0.929 . S
C988 C989 1.377 . S
C988 C990 1.384 . S
C989 C988 1.377 . S
C989 C995 1.390 . S
C990 H981 0.930 . S
C990 C988 1.384 . S
C990 C991 1.372 . S
C991 C990 1.372 . S
C991 C992 1.400 . S
C991 C996 1.490 . S
C992 H982 0.930 . S
C992 C991 1.400 . S
C992 C995 1.386 . S
H993 C1009 0.930 . S
H994 C1010 0.931 . S
C995 H983 0.929 . S
C995 C989 1.390 . S
C995 C992 1.386 . S
C996 C991 1.490 . S
C996 C998 1.375 1_455 S
C996 C999 1.403 . S
H997 C1003 0.930 . S
C998 H984 0.922 1_655 S
C998 C996 1.375 1_655 S
C998 C1001 1.431 . S
C999 C996 1.403 . S
C999 C1000 1.524 . S
C999 C1003 1.400 1_455 S
C1000 H985 0.960 . S
C1000 H986 0.960 . S
C1000 H987 0.960 . S
C1000 C999 1.524 . S
C1001 C998 1.431 . S
C1001 C1002 1.392 . S
C1001 C1005 1.495 . S
C1002 C1001 1.392 . S
C1002 C1003 1.385 . S
C1002 C1004 1.478 . S
C1003 H997 0.930 . S
C1003 C999 1.400 1_655 S
C1003 C1002 1.385 . S
C1004 C1002 1.478 . S
C1004 C1006 1.381 . S
C1004 C1010 1.383 . S
C1005 C1001 1.495 . S
C1005 H1011 0.959 . S
C1005 H1012 0.961 . S
C1005 H1013 0.960 . S
C1006 C1004 1.381 . S
C1006 C1007 1.394 . S
C1006 H1014 0.930 . S
C1007 C1006 1.394 . S
C1007 C1008 1.383 . S
C1007 H1015 0.929 . S
C1008 C1007 1.383 . S
C1008 C1009 1.377 . S
C1009 H993 0.930 . S
C1009 C1008 1.377 . S
C1009 C1010 1.379 . S
C1010 H994 0.931 . S
C1010 C1004 1.383 . S
C1010 C1009 1.379 . S
H1011 C1005 0.959 . S
H1012 C1005 0.961 . S
H1013 C1005 0.960 . S
H1014 C1006 0.930 . S
H1015 C1007 0.929 . S
H1016 C1024 0.929 . S
H1017 C1026 0.930 1_655 S
H1018 C1028 0.930 . S
H1019 C1031 0.929 . S
H1020 C1034 0.930 . S
H1021 C1036 0.960 . S
H1022 C1036 0.960 . S
H1023 C1036 0.960 . S
C1024 H1016 0.929 . S
C1024 C1025 1.377 . S
C1024 C1026 1.384 . S
C1025 C1024 1.377 . S
C1025 C1031 1.390 . S
C1026 H1017 0.930 1_455 S
C1026 C1024 1.384 . S
C1026 C1027 1.372 . S
C1027 C1026 1.372 . S
C1027 C1028 1.400 . S
C1027 C1032 1.490 . S
C1028 H1018 0.930 . S
C1028 C1027 1.400 . S
C1028 C1031 1.386 . S
H1029 C1045 0.930 . S
H1030 C1046 0.931 . S
C1031 H1019 0.929 . S
C1031 C1025 1.390 . S
C1031 C1028 1.386 . S
C1032 C1027 1.490 . S
C1032 C1034 1.395 1_455 S
C1032 C1035 1.403 . S
H1033 C1039 0.930 . S
C1034 H1020 0.930 . S
C1034 C1032 1.395 1_655 S
C1034 C1037 1.403 . S
C1035 C1032 1.403 . S
C1035 C1036 1.524 . S
C1035 C1039 1.400 1_565 S
C1036 H1021 0.960 . S
C1036 H1022 0.960 . S
C1036 H1023 0.960 . S
C1036 C1035 1.524 . S
C1037 C1034 1.403 . S
C1037 C1038 1.392 1_565 S
C1037 C1041 1.497 . S
C1038 C1037 1.392 1_545 S
C1038 C1039 1.385 1_655 S
C1038 C1040 1.478 . S
C1039 H1033 0.930 . S
C1039 C1035 1.400 1_545 S
C1039 C1038 1.385 1_455 S
C1040 C1038 1.478 . S
C1040 C1042 1.381 . S
C1040 C1046 1.383 . S
C1041 C1037 1.497 . S
C1041 H1047 0.973 . S
C1041 H1048 0.946 1_565 S
C1041 H1049 0.960 . S
C1042 C1040 1.381 . S
C1042 C1043 1.394 . S
C1042 H1050 0.930 . S
C1043 C1042 1.394 . S
C1043 C1044 1.383 . S
C1043 H1051 0.929 . S
C1044 C1043 1.383 . S
C1044 C1045 1.377 . S
C1045 H1029 0.930 . S
C1045 C1044 1.377 . S
C1045 C1046 1.379 . S
C1046 H1030 0.931 . S
C1046 C1040 1.383 . S
C1046 C1045 1.379 . S
H1047 C1041 0.973 . S
H1048 C1041 0.946 1_545 S
H1049 C1041 0.960 . S
H1050 C1042 0.930 . S
H1051 C1043 0.929 . S
H1052 C1060 0.929 1_565 S
H1053 C1062 0.930 . S
H1054 C1064 0.930 . S
H1055 C1067 0.929 . S
H1056 C1070 0.930 . S
H1057 C1072 0.960 . S
H1058 C1072 0.960 . S
H1059 C1072 0.960 . S
C1060 H1052 0.929 1_545 S
C1060 C1061 1.377 . S
C1060 C1062 1.384 1_545 S
C1061 C1060 1.377 . S
C1061 C1067 1.390 . S
C1062 H1053 0.930 . S
C1062 C1060 1.384 1_565 S
C1062 C1063 1.372 1_565 S
C1063 C1062 1.372 1_545 S
C1063 C1064 1.400 . S
C1063 C1068 1.490 . S
C1064 H1054 0.930 . S
C1064 C1063 1.400 . S
C1064 C1067 1.386 . S
H1065 C1081 0.930 . S
H1066 C1082 0.931 1_545 S
C1067 H1055 0.929 . S
C1067 C1061 1.390 . S
C1067 C1064 1.386 . S
C1068 C1063 1.490 . S
C1068 C1070 1.395 1_545 S
C1068 C1071 1.403 . S
H1069 C1075 0.930 . S
C1070 H1056 0.930 . S
C1070 C1068 1.395 1_565 S
C1070 C1073 1.403 . S
C1071 C1068 1.403 . S
C1071 C1072 1.524 . S
C1071 C1075 1.400 1_545 S
C1072 H1057 0.960 . S
C1072 H1058 0.960 . S
C1072 H1059 0.960 . S
C1072 C1071 1.524 . S
C1073 C1070 1.403 . S
C1073 C1074 1.392 . S
C1073 C1077 1.495 . S
C1074 C1073 1.392 . S
C1074 C1075 1.385 . S
C1074 C1076 1.478 . S
C1075 H1069 0.930 . S
C1075 C1071 1.400 1_565 S
C1075 C1074 1.385 . S
C1076 C1074 1.478 . S
C1076 C1078 1.381 . S
C1076 C1082 1.383 . S
C1077 C1073 1.495 . S
C1077 H1083 0.959 . S
C1077 H1084 0.961 . S
C1077 H1085 0.960 . S
C1078 C1076 1.381 . S
C1078 C1079 1.394 . S
C1078 H1086 0.930 . S
C1079 C1078 1.394 . S
C1079 C1080 1.383 . S
C1079 H1087 0.929 . S
C1080 C1079 1.383 . S
C1080 C1081 1.377 . S
C1081 H1065 0.930 . S
C1081 C1080 1.377 . S
C1081 C1082 1.379 . S
C1082 H1066 0.931 1_565 S
C1082 C1076 1.383 . S
C1082 C1081 1.379 . S
H1083 C1077 0.959 . S
H1084 C1077 0.961 . S
H1085 C1077 0.960 . S
H1086 C1078 0.930 . S
H1087 C1079 0.929 . S
H1088 C1096 0.929 . S
H1089 C1098 0.930 . S
H1090 C1100 0.930 . S
H1091 C1103 0.929 . S
H1092 C1106 0.930 . S
H1093 C1108 0.960 . S
H1094 C1108 0.960 . S
H1095 C1108 0.960 . S
C1096 H1088 0.929 . S
C1096 C1097 1.377 . S
C1096 C1098 1.384 . S
C1097 C1096 1.377 . S
C1097 C1103 1.390 . S
C1098 H1089 0.930 . S
C1098 C1096 1.384 . S
C1098 C1099 1.372 . S
C1099 C1098 1.372 . S
C1099 C1100 1.400 . S
C1099 C1104 1.490 . S
C1100 H1090 0.930 . S
C1100 C1099 1.400 . S
C1100 C1103 1.386 . S
H1101 C1117 0.930 . S
H1102 C1118 0.931 . S
C1103 H1091 0.929 . S
C1103 C1097 1.390 . S
C1103 C1100 1.386 . S
C1104 C1099 1.490 . S
C1104 C1106 1.395 . S
C1104 C1107 1.403 . S
H1105 C1111 0.930 . S
C1106 H1092 0.930 . S
C1106 C1104 1.395 . S
C1106 C1109 1.403 . S
C1107 C1104 1.403 . S
C1107 C1108 1.524 . S
C1107 C1111 1.400 . S
C1108 H1093 0.960 . S
C1108 H1094 0.960 . S
C1108 H1095 0.960 . S
C1108 C1107 1.524 . S
C1109 C1106 1.403 . S
C1109 C1110 1.392 . S
C1109 C1113 1.495 . S
C1110 C1109 1.392 . S
C1110 C1111 1.385 . S
C1110 C1112 1.478 . S
C1111 H1105 0.930 . S
C1111 C1107 1.400 . S
C1111 C1110 1.385 . S
C1112 C1110 1.478 . S
C1112 C1114 1.381 . S
C1112 C1118 1.383 . S
C1113 C1109 1.495 . S
C1113 H1119 0.959 . S
C1113 H1120 0.961 . S
C1113 H1121 0.960 . S
C1114 C1112 1.381 . S
C1114 C1115 1.394 . S
C1114 H1122 0.930 . S
C1115 C1114 1.394 . S
C1115 C1116 1.383 . S
C1115 H1123 0.929 . S
C1116 C1115 1.383 . S
C1116 C1117 1.377 . S
C1117 H1101 0.930 . S
C1117 C1116 1.377 . S
C1117 C1118 1.379 . S
C1118 H1102 0.931 . S
C1118 C1112 1.383 . S
C1118 C1117 1.379 . S
H1119 C1113 0.959 . S
H1120 C1113 0.961 . S
H1121 C1113 0.960 . S
H1122 C1114 0.930 . S
H1123 C1115 0.929 . S
H1124 C1132 0.929 . S
H1125 C1134 0.930 . S
H1126 C1136 0.930 . S
H1127 C1139 0.929 . S
H1128 C1142 0.930 . S
H1129 C1144 0.960 . S
H1130 C1144 0.960 . S
H1131 C1144 0.960 . S
C1132 H1124 0.929 . S
C1132 C1133 1.377 . S
C1132 C1134 1.384 . S
C1133 C1132 1.377 . S
C1133 C1139 1.390 . S
C1134 H1125 0.930 . S
C1134 C1132 1.384 . S
C1134 C1135 1.372 . S
C1135 C1134 1.372 . S
C1135 C1136 1.400 . S
C1135 C1140 1.490 . S
C1136 H1126 0.930 . S
C1136 C1135 1.400 . S
C1136 C1139 1.386 . S
H1137 C1153 0.930 . S
H1138 C1154 0.931 . S
C1139 H1127 0.929 . S
C1139 C1133 1.390 . S
C1139 C1136 1.386 . S
C1140 C1135 1.490 . S
C1140 C1142 1.395 . S
C1140 C1143 1.403 . S
H1141 C1147 0.930 . S
C1142 H1128 0.930 . S
C1142 C1140 1.395 . S
C1142 C1145 1.403 . S
C1143 C1140 1.403 . S
C1143 C1144 1.524 . S
C1143 C1147 1.400 . S
C1144 H1129 0.960 . S
C1144 H1130 0.960 . S
C1144 H1131 0.960 . S
C1144 C1143 1.524 . S
C1145 C1142 1.403 . S
C1145 C1146 1.392 . S
C1145 C1149 1.495 . S
C1146 C1145 1.392 . S
C1146 C1147 1.385 . S
C1146 C1148 1.478 . S
C1147 H1141 0.930 . S
C1147 C1143 1.400 . S
C1147 C1146 1.385 . S
C1148 C1146 1.478 . S
C1148 C1150 1.381 . S
C1148 C1154 1.383 . S
C1149 C1145 1.495 . S
C1149 H1155 0.959 . S
C1149 H1156 0.961 . S
C1149 H1157 0.960 . S
C1150 C1148 1.381 . S
C1150 C1151 1.394 . S
C1150 H1158 0.930 . S
C1151 C1150 1.394 . S
C1151 C1152 1.383 . S
C1151 H1159 0.929 . S
C1152 C1151 1.383 . S
C1152 C1153 1.377 . S
C1153 H1137 0.930 . S
C1153 C1152 1.377 . S
C1153 C1154 1.379 . S
C1154 H1138 0.931 . S
C1154 C1148 1.383 . S
C1154 C1153 1.379 . S
H1155 C1149 0.959 . S
H1156 C1149 0.961 . S
H1157 C1149 0.960 . S
H1158 C1150 0.930 . S
H1159 C1151 0.929 . S
H1160 C1168 0.929 . S
H1161 C1170 0.930 . S
H1162 C1172 0.930 . S
H1163 C1175 0.929 . S
H1164 C1178 0.930 . S
H1165 C1180 0.960 . S
H1166 C1180 0.960 . S
H1167 C1180 0.960 . S
C1168 H1160 0.929 . S
C1168 C1169 1.377 . S
C1168 C1170 1.384 . S
C1169 C1168 1.377 . S
C1169 C1175 1.390 . S
C1170 H1161 0.930 . S
C1170 C1168 1.384 . S
C1170 C1171 1.372 . S
C1171 C1170 1.372 . S
C1171 C1172 1.400 . S
C1171 C1176 1.490 . S
C1172 H1162 0.930 . S
C1172 C1171 1.400 . S
C1172 C1175 1.386 . S
H1173 C1189 0.930 . S
H1174 C1190 0.931 . S
C1175 H1163 0.929 . S
C1175 C1169 1.390 . S
C1175 C1172 1.386 . S
C1176 C1171 1.490 . S
C1176 C1178 1.395 . S
C1176 C1179 1.403 . S
H1177 C1183 0.930 . S
C1178 H1164 0.930 . S
C1178 C1176 1.395 . S
C1178 C1181 1.403 . S
C1179 C1176 1.403 . S
C1179 C1180 1.524 . S
C1179 C1183 1.400 . S
C1180 H1165 0.960 . S
C1180 H1166 0.960 . S
C1180 H1167 0.960 . S
C1180 C1179 1.524 . S
C1181 C1178 1.403 . S
C1181 C1182 1.392 . S
C1181 C1185 1.495 . S
C1182 C1181 1.392 . S
C1182 C1183 1.385 . S
C1182 C1184 1.478 . S
C1183 H1177 0.930 . S
C1183 C1179 1.400 . S
C1183 C1182 1.385 . S
C1184 C1182 1.478 . S
C1184 C1186 1.381 . S
C1184 C1190 1.383 . S
C1185 C1181 1.495 . S
C1185 H1191 0.959 . S
C1185 H1192 0.961 . S
C1185 H1193 0.960 . S
C1186 C1184 1.381 . S
C1186 C1187 1.394 . S
C1186 H1194 0.930 . S
C1187 C1186 1.394 . S
C1187 C1188 1.383 . S
C1187 H1195 0.929 . S
C1188 C1187 1.383 . S
C1188 C1189 1.377 . S
C1189 H1173 0.930 . S
C1189 C1188 1.377 . S
C1189 C1190 1.379 . S
C1190 H1174 0.931 . S
C1190 C1184 1.383 . S
C1190 C1189 1.379 . S
H1191 C1185 0.959 . S
H1192 C1185 0.961 . S
H1193 C1185 0.960 . S
H1194 C1186 0.930 . S
H1195 C1187 0.929 . S
H1196 C1204 0.929 . S
H1197 C1206 0.930 . S
H1198 C1208 0.930 . S
H1199 C1211 0.929 . S
H1200 C1214 0.930 . S
H1201 C1216 0.960 . S
H1202 C1216 0.960 . S
H1203 C1216 0.960 . S
C1204 H1196 0.929 . S
C1204 C1205 1.377 . S
C1204 C1206 1.384 . S
C1205 C1204 1.377 . S
C1205 C1211 1.390 . S
C1206 H1197 0.930 . S
C1206 C1204 1.384 . S
C1206 C1207 1.372 . S
C1207 C1206 1.372 . S
C1207 C1208 1.400 . S
C1207 C1212 1.490 . S
C1208 H1198 0.930 . S
C1208 C1207 1.400 . S
C1208 C1211 1.386 . S
H1209 C1225 0.930 . S
H1210 C1226 0.931 . S
C1211 H1199 0.929 . S
C1211 C1205 1.390 . S
C1211 C1208 1.386 . S
C1212 C1207 1.490 . S
C1212 C1214 1.395 . S
C1212 C1215 1.403 . S
H1213 C1219 0.930 . S
C1214 H1200 0.930 . S
C1214 C1212 1.395 . S
C1214 C1217 1.403 . S
C1215 C1212 1.403 . S
C1215 C1216 1.524 . S
C1215 C1219 1.400 . S
C1216 H1201 0.960 . S
C1216 H1202 0.960 . S
C1216 H1203 0.960 . S
C1216 C1215 1.524 . S
C1217 C1214 1.403 . S
C1217 C1218 1.392 . S
C1217 C1221 1.495 . S
C1218 C1217 1.392 . S
C1218 C1219 1.385 . S
C1218 C1220 1.478 . S
C1219 H1213 0.930 . S
C1219 C1215 1.400 . S
C1219 C1218 1.385 . S
C1220 C1218 1.478 . S
C1220 C1222 1.381 . S
C1220 C1226 1.383 . S
C1221 C1217 1.495 . S
C1221 H1227 0.959 . S
C1221 H1228 0.961 . S
C1221 H1229 0.960 . S
C1222 C1220 1.381 . S
C1222 C1223 1.394 . S
C1222 H1230 0.930 . S
C1223 C1222 1.394 . S
C1223 C1224 1.383 . S
C1223 H1231 0.929 . S
C1224 C1223 1.383 . S
C1224 C1225 1.377 . S
C1225 H1209 0.930 . S
C1225 C1224 1.377 . S
C1225 C1226 1.379 . S
C1226 H1210 0.931 . S
C1226 C1220 1.383 . S
C1226 C1225 1.379 . S
H1227 C1221 0.959 . S
H1228 C1221 0.961 . S
H1229 C1221 0.960 . S
H1230 C1222 0.930 . S
H1231 C1223 0.929 . S
H1232 C1240 0.929 . S
H1233 C1242 0.930 . S
H1234 C1244 0.930 . S
H1235 C1247 0.929 . S
H1236 C1250 0.930 . S
H1237 C1252 0.960 . S
H1238 C1252 0.960 . S
H1239 C1252 0.960 . S
C1240 H1232 0.929 . S
C1240 C1241 1.377 . S
C1240 C1242 1.384 . S
C1241 C1240 1.377 . S
C1241 C1247 1.390 . S
C1242 H1233 0.930 . S
C1242 C1240 1.384 . S
C1242 C1243 1.372 . S
C1243 C1242 1.372 . S
C1243 C1244 1.400 . S
C1243 C1248 1.490 . S
C1244 H1234 0.930 . S
C1244 C1243 1.400 . S
C1244 C1247 1.386 . S
H1245 C1261 0.930 . S
H1246 C1262 0.931 . S
C1247 H1235 0.929 . S
C1247 C1241 1.390 . S
C1247 C1244 1.386 . S
C1248 C1243 1.490 . S
C1248 C1250 1.395 . S
C1248 C1251 1.403 . S
H1249 C1255 0.930 . S
C1250 H1236 0.930 . S
C1250 C1248 1.395 . S
C1250 C1253 1.403 . S
C1251 C1248 1.403 . S
C1251 C1252 1.524 . S
C1251 C1255 1.400 . S
C1252 H1237 0.960 . S
C1252 H1238 0.960 . S
C1252 H1239 0.960 . S
C1252 C1251 1.524 . S
C1253 C1250 1.403 . S
C1253 C1254 1.392 . S
C1253 C1257 1.495 . S
C1254 C1253 1.392 . S
C1254 C1255 1.385 . S
C1254 C1256 1.478 . S
C1255 H1249 0.930 . S
C1255 C1251 1.400 . S
C1255 C1254 1.385 . S
C1256 C1254 1.478 . S
C1256 C1258 1.381 . S
C1256 C1262 1.383 . S
C1257 C1253 1.495 . S
C1257 H1263 0.959 . S
C1257 H1264 0.961 . S
C1257 H1265 0.960 . S
C1258 C1256 1.381 . S
C1258 C1259 1.394 . S
C1258 H1266 0.930 . S
C1259 C1258 1.394 . S
C1259 C1260 1.383 . S
C1259 H1267 0.929 . S
C1260 C1259 1.383 . S
C1260 C1261 1.377 . S
C1261 H1245 0.930 . S
C1261 C1260 1.377 . S
C1261 C1262 1.379 . S
C1262 H1246 0.931 . S
C1262 C1256 1.383 . S
C1262 C1261 1.379 . S
H1263 C1257 0.959 . S
H1264 C1257 0.961 . S
H1265 C1257 0.960 . S
H1266 C1258 0.930 . S
H1267 C1259 0.929 . S
H1268 C1276 0.929 . S
H1269 C1278 0.930 . S
H1270 C1280 0.930 . S
H1271 C1283 0.929 . S
H1272 C1286 0.930 . S
H1273 C1288 0.960 . S
H1274 C1288 0.960 . S
H1275 C1288 0.960 . S
C1276 H1268 0.929 . S
C1276 C1277 1.377 . S
C1276 C1278 1.384 . S
C1277 C1276 1.377 . S
C1277 C1283 1.390 . S
C1278 H1269 0.930 . S
C1278 C1276 1.384 . S
C1278 C1279 1.372 . S
C1279 C1278 1.372 . S
C1279 C1280 1.400 . S
C1279 C1284 1.490 . S
C1280 H1270 0.930 . S
C1280 C1279 1.400 . S
C1280 C1283 1.386 . S
H1281 C1297 0.930 . S
H1282 C1298 0.931 . S
C1283 H1271 0.929 . S
C1283 C1277 1.390 . S
C1283 C1280 1.386 . S
C1284 C1279 1.490 . S
C1284 C1286 1.395 . S
C1284 C1287 1.403 . S
H1285 C1291 0.930 . S
C1286 H1272 0.930 . S
C1286 C1284 1.395 . S
C1286 C1289 1.403 . S
C1287 C1284 1.403 . S
C1287 C1288 1.524 . S
C1287 C1291 1.400 . S
C1288 H1273 0.960 . S
C1288 H1274 0.960 . S
C1288 H1275 0.960 . S
C1288 C1287 1.524 . S
C1289 C1286 1.403 . S
C1289 C1290 1.392 . S
C1289 C1293 1.495 . S
C1290 C1289 1.392 . S
C1290 C1291 1.385 . S
C1290 C1292 1.478 . S
C1291 H1285 0.930 . S
C1291 C1287 1.400 . S
C1291 C1290 1.385 . S
C1292 C1290 1.478 . S
C1292 C1294 1.381 . S
C1292 C1298 1.383 . S
C1293 C1289 1.495 . S
C1293 H1299 0.959 . S
C1293 H1300 0.961 . S
C1293 H1301 0.960 . S
C1294 C1292 1.381 . S
C1294 C1295 1.394 . S
C1294 H1302 0.930 . S
C1295 C1294 1.394 . S
C1295 C1296 1.383 . S
C1295 H1303 0.929 . S
C1296 C1295 1.383 . S
C1296 C1297 1.377 . S
C1297 H1281 0.930 . S
C1297 C1296 1.377 . S
C1297 C1298 1.379 . S
C1298 H1282 0.931 . S
C1298 C1292 1.383 . S
C1298 C1297 1.379 . S
H1299 C1293 0.959 . S
H1300 C1293 0.961 . S
H1301 C1293 0.960 . S
H1302 C1294 0.930 . S
H1303 C1295 0.929 . S
H1304 C1312 0.929 . S
H1305 C1314 0.930 . S
H1306 C1316 0.930 . S
H1307 C1319 0.929 . S
H1308 C1322 0.930 . S
H1309 C1324 0.960 . S
H1310 C1324 0.960 . S
H1311 C1324 0.960 . S
C1312 H1304 0.929 . S
C1312 C1313 1.377 . S
C1312 C1314 1.384 . S
C1313 C1312 1.377 . S
C1313 C1319 1.390 . S
C1314 H1305 0.930 . S
C1314 C1312 1.384 . S
C1314 C1315 1.372 . S
C1315 C1314 1.372 . S
C1315 C1316 1.400 . S
C1315 C1320 1.490 . S
C1316 H1306 0.930 . S
C1316 C1315 1.400 . S
C1316 C1319 1.386 . S
H1317 C1333 0.930 . S
H1318 C1334 0.931 . S
C1319 H1307 0.929 . S
C1319 C1313 1.390 . S
C1319 C1316 1.386 . S
C1320 C1315 1.490 . S
C1320 C1322 1.395 . S
C1320 C1323 1.403 . S
H1321 C1327 0.930 . S
C1322 H1308 0.930 . S
C1322 C1320 1.395 . S
C1322 C1325 1.403 . S
C1323 C1320 1.403 . S
C1323 C1324 1.524 . S
C1323 C1327 1.400 . S
C1324 H1309 0.960 . S
C1324 H1310 0.960 . S
C1324 H1311 0.960 . S
C1324 C1323 1.524 . S
C1325 C1322 1.403 . S
C1325 C1326 1.392 . S
C1325 C1329 1.495 . S
C1326 C1325 1.392 . S
C1326 C1327 1.385 . S
C1326 C1328 1.478 . S
C1327 H1321 0.930 . S
C1327 C1323 1.400 . S
C1327 C1326 1.385 . S
C1328 C1326 1.478 . S
C1328 C1330 1.381 . S
C1328 C1334 1.383 . S
C1329 C1325 1.495 . S
C1329 H1335 0.959 . S
C1329 H1336 0.961 . S
C1329 H1337 0.960 . S
C1330 C1328 1.381 . S
C1330 C1331 1.394 . S
C1330 H1338 0.930 . S
C1331 C1330 1.394 . S
C1331 C1332 1.383 . S
C1331 H1339 0.929 . S
C1332 C1331 1.383 . S
C1332 C1333 1.377 . S
C1333 H1317 0.930 . S
C1333 C1332 1.377 . S
C1333 C1334 1.379 . S
C1334 H1318 0.931 . S
C1334 C1328 1.383 . S
C1334 C1333 1.379 . S
H1335 C1329 0.959 . S
H1336 C1329 0.961 . S
H1337 C1329 0.960 . S
H1338 C1330 0.930 . S
H1339 C1331 0.929 . S
H1340 C1348 0.929 . S
H1341 C1350 0.930 . S
H1342 C1352 0.930 . S
H1343 C1355 0.929 . S
H1344 C1358 0.930 . S
H1345 C1360 0.960 . S
H1346 C1360 0.960 . S
H1347 C1360 0.960 . S
C1348 H1340 0.929 . S
C1348 C1349 1.377 . S
C1348 C1350 1.384 . S
C1349 C1348 1.377 . S
C1349 C1355 1.390 . S
C1350 H1341 0.930 . S
C1350 C1348 1.384 . S
C1350 C1351 1.372 . S
C1351 C1350 1.372 . S
C1351 C1352 1.400 . S
C1351 C1356 1.490 . S
C1352 H1342 0.930 . S
C1352 C1351 1.400 . S
C1352 C1355 1.386 . S
H1353 C1369 0.930 . S
H1354 C1370 0.931 . S
C1355 H1343 0.929 . S
C1355 C1349 1.390 . S
C1355 C1352 1.386 . S
C1356 C1351 1.490 . S
C1356 C1358 1.395 . S
C1356 C1359 1.403 . S
H1357 C1363 0.930 . S
C1358 H1344 0.930 . S
C1358 C1356 1.395 . S
C1358 C1361 1.403 . S
C1359 C1356 1.403 . S
C1359 C1360 1.524 . S
C1359 C1363 1.400 . S
C1360 H1345 0.960 . S
C1360 H1346 0.960 . S
C1360 H1347 0.960 . S
C1360 C1359 1.524 . S
C1361 C1358 1.403 . S
C1361 C1362 1.392 . S
C1361 C1365 1.495 . S
C1362 C1361 1.392 . S
C1362 C1363 1.385 . S
C1362 C1364 1.478 . S
C1363 H1357 0.930 . S
C1363 C1359 1.400 . S
C1363 C1362 1.385 . S
C1364 C1362 1.478 . S
C1364 C1366 1.381 . S
C1364 C1370 1.383 . S
C1365 C1361 1.495 . S
C1365 H1371 0.959 . S
C1365 H1372 0.961 . S
C1365 H1373 0.960 . S
C1366 C1364 1.381 . S
C1366 C1367 1.394 . S
C1366 H1374 0.930 . S
C1367 C1366 1.394 . S
C1367 C1368 1.383 . S
C1367 H1375 0.929 . S
C1368 C1367 1.383 . S
C1368 C1369 1.377 . S
C1369 H1353 0.930 . S
C1369 C1368 1.377 . S
C1369 C1370 1.379 . S
C1370 H1354 0.931 . S
C1370 C1364 1.383 . S
C1370 C1369 1.379 . S
H1371 C1365 0.959 . S
H1372 C1365 0.961 . S
H1373 C1365 0.960 . S
H1374 C1366 0.930 . S
H1375 C1367 0.929 . S
C233 C12 0.292 . S
C252 C138 0.220 . S
C269 C152 0.270 . S
C288 C26 0.328 . S
C305 C166 0.279 . S
C324 C40 0.287 . S
C341 C124 0.295 . S
C360 C54 0.230 . S
C377 C68 0.285 . S
C396 C222 0.240 . S
C413 C180 0.296 . S
C432 C82 0.215 . S
C449 C194 0.267 . S
C468 C96 0.349 . S
C485 C208 0.276 . S
C504 C110 0.330 . S
C521 C116 0.505 . S
C540 C18 0.426 . S
C557 C130 0.513 . S
C576 C32 0.459 . S
C593 C144 0.518 . S
C612 C46 0.566 . S
C629 C4 0.509 . S
C648 C158 0.553 . S
C665 C172 0.513 . S
C684 C102 0.460 . S
C701 C186 0.501 . S
C720 C60 0.415 . S
C737 C74 0.474 . S
C756 C200 0.479 . S
C773 C214 0.520 . S
C792 C88 0.550 . S
C809 C123 1.277 . S
C828 C5 1.293 . S
C845 C19 1.254 . S
C864 C137 1.279 . S
C881 C151 1.287 . S
C900 C33 1.248 . S
C917 C47 1.257 . S
C936 C165 1.253 . S
C953 C179 1.278 . S
C972 C61 1.291 . S
C989 C75 1.245 . S
C1008 C193 1.313 . S
C1025 C207 1.278 . S
C1044 C89 1.290 . S
C1061 C221 1.286 . S
C1080 C103 1.251 . S
C1097 C67 1.657 . S
C1116 C11 1.626 . S
C1133 C81 1.661 . S
C1152 C25 1.621 . S
C1169 C39 1.659 . S
C1188 C95 1.687 . S
C1205 C109 1.654 . S
C1224 C53 1.637 . S
C1241 C117 1.562 . S
C1260 C173 1.548 . S
C1277 C187 1.557 . S
C1296 C131 1.583 . S
C1313 C201 1.562 . S
C1332 C145 1.547 . S
C1349 C215 1.550 . S
C1368 C159 1.533 . S
