# Generated by pormake.
# Topology crs, (6)-cn, num edge types: 1
# Building blocks:
#     Node 0, Type 0, BuildingBlock: JUFBIX_clean_sbu_0, # of connection points: 6
#     Node 1, Type 0, BuildingBlock: JUFBIX_clean_sbu_0, # of connection points: 6
#     Node 2, Type 0, BuildingBlock: JUFBIX_clean_sbu_0, # of connection points: 6
#     Node 3, Type 0, BuildingBlock: JUFBIX_clean_sbu_0, # of connection points: 6
#     Node 4, Type 0, BuildingBlock: JUFBIX_clean_sbu_0, # of connection points: 6
#     Node 5, Type 0, BuildingBlock: JUFBIX_clean_sbu_0, # of connection points: 6
#     Node 6, Type 0, BuildingBlock: JUFBIX_clean_sbu_0, # of connection points: 6
#     Node 7, Type 0, BuildingBlock: JUFBIX_clean_sbu_0, # of connection points: 6
#     Node 8, Type 0, BuildingBlock: JUFBIX_clean_sbu_0, # of connection points: 6
#     Node 9, Type 0, BuildingBlock: JUFBIX_clean_sbu_0, # of connection points: 6
#     Node 10, Type 0, BuildingBlock: JUFBIX_clean_sbu_0, # of connection points: 6
#     Node 11, Type 0, BuildingBlock: JUFBIX_clean_sbu_0, # of connection points: 6
#     Node 12, Type 0, BuildingBlock: JUFBIX_clean_sbu_0, # of connection points: 6
#     Node 13, Type 0, BuildingBlock: JUFBIX_clean_sbu_0, # of connection points: 6
#     Node 14, Type 0, BuildingBlock: JUFBIX_clean_sbu_0, # of connection points: 6
#     Node 15, Type 0, BuildingBlock: JUFBIX_clean_sbu_0, # of connection points: 6
#     Edge 16, Type (0, 0), BuildingBlock: AJUNOK_clean_linker_0, # of connection points: 2
#     Edge 17, Type (0, 0), BuildingBlock: AJUNOK_clean_linker_0, # of connection points: 2
#     Edge 18, Type (0, 0), BuildingBlock: AJUNOK_clean_linker_0, # of connection points: 2
#     Edge 19, Type (0, 0), BuildingBlock: AJUNOK_clean_linker_0, # of connection points: 2
#     Edge 20, Type (0, 0), BuildingBlock: AJUNOK_clean_linker_0, # of connection points: 2
#     Edge 21, Type (0, 0), BuildingBlock: AJUNOK_clean_linker_0, # of connection points: 2
#     Edge 22, Type (0, 0), BuildingBlock: AJUNOK_clean_linker_0, # of connection points: 2
#     Edge 23, Type (0, 0), BuildingBlock: AJUNOK_clean_linker_0, # of connection points: 2
#     Edge 24, Type (0, 0), BuildingBlock: AJUNOK_clean_linker_0, # of connection points: 2
#     Edge 25, Type (0, 0), BuildingBlock: AJUNOK_clean_linker_0, # of connection points: 2
#     Edge 26, Type (0, 0), BuildingBlock: AJUNOK_clean_linker_0, # of connection points: 2
#     Edge 27, Type (0, 0), BuildingBlock: AJUNOK_clean_linker_0, # of connection points: 2
#     Edge 28, Type (0, 0), BuildingBlock: AJUNOK_clean_linker_0, # of connection points: 2
#     Edge 29, Type (0, 0), BuildingBlock: AJUNOK_clean_linker_0, # of connection points: 2
#     Edge 30, Type (0, 0), BuildingBlock: AJUNOK_clean_linker_0, # of connection points: 2
#     Edge 31, Type (0, 0), BuildingBlock: AJUNOK_clean_linker_0, # of connection points: 2
#     Edge 32, Type (0, 0), BuildingBlock: AJUNOK_clean_linker_0, # of connection points: 2
#     Edge 33, Type (0, 0), BuildingBlock: AJUNOK_clean_linker_0, # of connection points: 2
#     Edge 34, Type (0, 0), BuildingBlock: AJUNOK_clean_linker_0, # of connection points: 2
#     Edge 35, Type (0, 0), BuildingBlock: AJUNOK_clean_linker_0, # of connection points: 2
#     Edge 36, Type (0, 0), BuildingBlock: AJUNOK_clean_linker_0, # of connection points: 2
#     Edge 37, Type (0, 0), BuildingBlock: AJUNOK_clean_linker_0, # of connection points: 2
#     Edge 38, Type (0, 0), BuildingBlock: AJUNOK_clean_linker_0, # of connection points: 2
#     Edge 39, Type (0, 0), BuildingBlock: AJUNOK_clean_linker_0, # of connection points: 2
#     Edge 40, Type (0, 0), BuildingBlock: AJUNOK_clean_linker_0, # of connection points: 2
#     Edge 41, Type (0, 0), BuildingBlock: AJUNOK_clean_linker_0, # of connection points: 2
#     Edge 42, Type (0, 0), BuildingBlock: AJUNOK_clean_linker_0, # of connection points: 2
#     Edge 43, Type (0, 0), BuildingBlock: AJUNOK_clean_linker_0, # of connection points: 2
#     Edge 44, Type (0, 0), BuildingBlock: AJUNOK_clean_linker_0, # of connection points: 2
#     Edge 45, Type (0, 0), BuildingBlock: AJUNOK_clean_linker_0, # of connection points: 2
#     Edge 46, Type (0, 0), BuildingBlock: AJUNOK_clean_linker_0, # of connection points: 2
#     Edge 47, Type (0, 0), BuildingBlock: AJUNOK_clean_linker_0, # of connection points: 2
#     Edge 48, Type (0, 0), BuildingBlock: AJUNOK_clean_linker_0, # of connection points: 2
#     Edge 49, Type (0, 0), BuildingBlock: AJUNOK_clean_linker_0, # of connection points: 2
#     Edge 50, Type (0, 0), BuildingBlock: AJUNOK_clean_linker_0, # of connection points: 2
#     Edge 51, Type (0, 0), BuildingBlock: AJUNOK_clean_linker_0, # of connection points: 2
#     Edge 52, Type (0, 0), BuildingBlock: AJUNOK_clean_linker_0, # of connection points: 2
#     Edge 53, Type (0, 0), BuildingBlock: AJUNOK_clean_linker_0, # of connection points: 2
#     Edge 54, Type (0, 0), BuildingBlock: AJUNOK_clean_linker_0, # of connection points: 2
#     Edge 55, Type (0, 0), BuildingBlock: AJUNOK_clean_linker_0, # of connection points: 2
#     Edge 56, Type (0, 0), BuildingBlock: AJUNOK_clean_linker_0, # of connection points: 2
#     Edge 57, Type (0, 0), BuildingBlock: AJUNOK_clean_linker_0, # of connection points: 2
#     Edge 58, Type (0, 0), BuildingBlock: AJUNOK_clean_linker_0, # of connection points: 2
#     Edge 59, Type (0, 0), BuildingBlock: AJUNOK_clean_linker_0, # of connection points: 2
#     Edge 60, Type (0, 0), BuildingBlock: AJUNOK_clean_linker_0, # of connection points: 2
#     Edge 61, Type (0, 0), BuildingBlock: AJUNOK_clean_linker_0, # of connection points: 2
#     Edge 62, Type (0, 0), BuildingBlock: AJUNOK_clean_linker_0, # of connection points: 2
#     Edge 63, Type (0, 0), BuildingBlock: AJUNOK_clean_linker_0, # of connection points: 2
# Relax obj value: 0.761
# Max RMSD: 0.365
# Mean RMSD: 0.298
data_MOF--net-crs--node1-JUFBIX_clean_sbu_0--edge1-AJUNOK_clean_linker_0
_symmetry_space_group_name_H-M    P1
_symmetry_Int_Tables_number       1
_symmetry_cell_setting            triclinic
loop_
_symmetry_equiv_pos_as_xyz
'x, y, z'
_cell_length_a     29.839801
_cell_length_b     30.95192
_cell_length_c     39.828565
_cell_angle_alpha  105.69064
_cell_angle_beta   90.131491
_cell_angle_gamma 90.158686
loop_
_atom_site_label
_atom_site_type_symbol
_atom_site_fract_x
_atom_site_fract_y
_atom_site_fract_z
_atom_type_partial_charge
Co0 Co 0.96925 0.0116 0.97384 0.0
C1 C 0.98636 0.04695 0.0439 0.0
Co2 Co 0.01637 0.97079 -0.0052 0.0
C3 C 0.89937 0.03398 0.9324 0.0
C4 C 0.93791 0.0918 0.95844 0.0
N5 N 0.93307 0.04751 0.95537 0.0
N6 N 0.88337 0.06784 0.92069 0.0
C7 C 0.90767 0.10428 0.93666 0.0
H8 H 0.88887 -0.00068 0.92254 0.0
H9 H 0.96335 0.11306 0.97408 0.0
C10 C -0.00127 0.9353 0.92481 0.0
N11 N 0.05245 0.9347 0.0132 0.0
C12 C 0.08587 0.94784 0.03652 0.0
C13 C 0.04781 0.89021 0.00935 0.0
N14 N 0.10189 0.91349 0.04766 0.0
C15 C 0.07792 0.87716 0.03093 0.0
C16 C 0.92544 0.9474 -0.00383 0.0
O17 O 0.974 0.96968 0.92926 0.0
O18 O 0.02151 0.92949 0.95015 0.0
O19 O 0.96514 0.9389 0.00399 0.0
O20 O 0.9189 0.97992 0.98306 0.0
O21 O 0.01138 0.01275 0.03954 0.0
H22 H 0.02273 0.8691 -0.00684 0.0
H23 H 0.09633 0.98245 0.0468 0.0
O24 O 0.9641 0.05289 0.01836 0.0
O25 O 0.02018 0.04304 0.9644 0.0
O26 O 0.06706 0.00273 -0.0145 0.0
C27 C 0.06009 0.03454 0.97162 0.0
H28 H 0.905 0.13691 0.93173 0.0
H29 H 0.08091 0.84411 0.03503 0.0
Co30 Co 0.02182 0.25986 0.22409 0.0
C31 C 0.93224 0.28671 0.22335 0.0
Co32 Co 0.97342 0.22025 0.24506 0.0
C33 C 0.09161 0.27875 0.18119 0.0
C34 C 0.05837 0.33876 0.20934 0.0
N35 N 0.0598 0.29406 0.20533 0.0
N36 N 0.10973 0.31192 0.16962 0.0
C37 C 0.08881 0.34979 0.18703 0.0
H38 H 0.09925 0.2435 0.17059 0.0
H39 H 0.03515 0.36145 0.22611 0.0
C40 C 0.06275 0.19314 0.2459 0.0
N41 N 0.93556 0.18577 0.2636 0.0
C42 C 0.90579 0.20043 0.28946 0.0
C43 C 0.93489 0.14062 0.25689 0.0
N44 N 0.88722 0.16639 0.29965 0.0
C45 C 0.90518 0.12857 0.27919 0.0
C46 C 0.98819 0.18505 0.17484 0.0
O47 O 0.07075 0.22559 0.23293 0.0
O48 O 0.02263 0.18589 0.25353 0.0
O49 O 0.96568 0.1797 0.20037 0.0
O50 O 0.01466 0.21832 0.17933 0.0
O51 O 0.92467 0.25448 0.23663 0.0
H52 H 0.95596 0.11808 0.23797 0.0
H53 H 0.89964 0.23558 0.30192 0.0
O54 O 0.97222 0.29401 0.21531 0.0
O55 O 0.02925 0.30082 0.26871 0.0
O56 O 0.98094 0.26163 0.28989 0.0
C57 C 0.00699 0.29525 0.29432 0.0
H58 H 0.09402 0.38261 0.18293 0.0
H59 H 0.89821 0.09488 0.28086 0.0
Co60 Co 0.77433 0.21993 0.49746 0.0
C61 C 0.78741 0.20684 0.42715 0.0
Co62 Co 0.7265 0.25749 0.47398 0.0
C63 C 0.80457 0.16538 0.54063 0.0
C64 C 0.85967 0.1897 0.51656 0.0
N65 N 0.81449 0.18975 0.51823 0.0
N66 N 0.84164 0.1503 0.55313 0.0
C67 C 0.8765 0.16573 0.53831 0.0
H68 H 0.77077 0.1603 0.5487 0.0
H69 H 0.8791 0.20689 0.50118 0.0
C70 C 0.7133 0.27083 0.54428 0.0
N71 N 0.68637 0.28767 0.4532 0.0
C72 C 0.69562 0.30924 0.4288 0.0
C73 C 0.64151 0.29067 0.45729 0.0
N74 N 0.65835 0.32505 0.41712 0.0
C75 C 0.62415 0.31365 0.43506 0.0
C76 C 0.69742 0.17202 0.47324 0.0
O77 O 0.74598 0.24381 0.54112 0.0
O78 O 0.6992 0.2817 0.51761 0.0
O79 O 0.68704 0.2077 0.46517 0.0
O80 O 0.73493 0.16995 0.48783 0.0
O81 O 0.75413 0.23308 0.43045 0.0
H82 H 0.62263 0.27642 0.47488 0.0
H83 H 0.72899 0.31213 0.41898 0.0
O84 O 0.8023 0.19635 0.45378 0.0
O85 O 0.81338 0.27007 0.50682 0.0
O86 O 0.76627 0.30708 0.48289 0.0
C87 C 0.8035 0.30532 0.49798 0.0
H88 H 0.91149 0.1604 0.54314 0.0
H89 H 0.5892 0.3214 0.43234 0.0
Co90 Co 0.71641 0.97263 0.7485 0.0
C91 C 0.69311 0.05812 0.74555 0.0
Co92 Co 0.76792 0.00553 0.72439 0.0
C93 C 0.68282 0.92432 0.79468 0.0
C94 C 0.62927 0.94595 0.76741 0.0
N95 N 0.6743 0.94628 0.77047 0.0
N96 N 0.64505 0.91027 0.80703 0.0
C97 C 0.61113 0.92387 0.78998 0.0
H98 H 0.71629 0.91904 0.8033 0.0
H99 H 0.61085 0.96158 0.75043 0.0
C100 C 0.79128 0.91983 0.72687 0.0
N101 N 0.80995 0.03193 0.70224 0.0
C102 C 0.80123 0.05108 0.67635 0.0
C103 C 0.85491 0.03405 0.70602 0.0
N104 N 0.83882 0.06421 0.66319 0.0
C105 C 0.8728 0.05418 0.68206 0.0
C106 C 0.77999 0.02235 0.79476 0.0
O107 O 0.75337 0.92107 0.74152 0.0
O108 O 0.804 0.95347 0.71678 0.0
O109 O 0.79658 0.02988 0.76756 0.0
O110 O 0.74494 -0.00174 0.79199 0.0
O111 O 0.73163 0.05724 0.73194 0.0
H112 H 0.87348 0.02088 0.7244 0.0
H113 H 0.76776 0.0551 0.66719 0.0
O114 O 0.67986 0.02433 0.75522 0.0
O115 O 0.68797 0.94741 0.70507 0.0
O116 O 0.7386 0.9814 0.68139 0.0
C117 C 0.70368 0.95723 0.67851 0.0
H118 H 0.5758 0.91964 0.79434 0.0
H119 H 0.908 0.05972 0.67808 0.0
Co120 Co 0.51957 0.75989 0.22339 0.0
C121 C 0.42985 0.78297 0.22157 0.0
Co122 Co 0.47424 0.71984 0.24648 0.0
C123 C 0.58614 0.77962 0.17801 0.0
C124 C 0.55452 0.83909 0.20888 0.0
N125 N 0.55565 0.79409 0.20334 0.0
N126 N 0.60358 0.81365 0.16715 0.0
C127 C 0.58399 0.85123 0.1865 0.0
H128 H 0.59382 0.74455 0.16655 0.0
H129 H 0.53259 0.86142 0.2272 0.0
C130 C 0.56424 0.69672 0.2479 0.0
N131 N 0.43774 0.68714 0.26762 0.0
C132 C 0.4054 0.70515 0.29052 0.0
C133 C 0.44216 0.64463 0.26979 0.0
N134 N 0.39073 0.67655 0.30825 0.0
C135 C 0.41317 0.63801 0.29486 0.0
C136 C 0.48837 0.68132 0.17696 0.0
O137 O 0.57032 0.72768 0.2329 0.0
O138 O 0.52477 0.68876 0.25652 0.0
O139 O 0.46784 0.67617 0.20348 0.0
O140 O 0.51204 0.71631 0.17955 0.0
O141 O 0.42348 0.75168 0.23615 0.0
H142 H 0.46694 0.6211 0.25588 0.0
H143 H 0.3945 0.73955 0.29518 0.0
O144 O 0.46945 0.79142 0.21379 0.0
O145 O 0.52649 0.8032 0.26709 0.0
O146 O 0.48111 0.76334 0.28988 0.0
C147 C 0.50551 0.7978 0.2933 0.0
H148 H 0.58984 0.8848 0.18411 0.0
H149 H 0.41108 0.60831 0.30419 0.0
Co150 Co 0.2677 0.72897 0.50036 0.0
C151 C 0.2813 0.71619 0.43082 0.0
Co152 Co 0.21867 0.76559 0.47707 0.0
C153 C 0.29998 0.67871 0.54605 0.0
C154 C 0.35388 0.70132 0.51968 0.0
N155 N 0.30878 0.70082 0.52193 0.0
N156 N 0.33769 0.66604 0.55938 0.0
C157 C 0.3718 0.67995 0.54278 0.0
H158 H 0.26649 0.67347 0.55465 0.0
H159 H 0.37251 0.71718 0.50296 0.0
C160 C 0.20531 0.77821 0.54709 0.0
N161 N 0.17771 0.79396 0.45556 0.0
C162 C 0.18671 0.81423 0.43036 0.0
C163 C 0.1327 0.79514 0.4586 0.0
N164 N 0.14921 0.82766 0.41718 0.0
C165 C 0.11503 0.81578 0.43493 0.0
C166 C 0.19206 0.67897 0.47627 0.0
O167 O 0.23926 0.75286 0.54349 0.0
O168 O 0.18986 0.78876 0.52062 0.0
O169 O 0.18113 0.71419 0.46772 0.0
O170 O 0.22946 0.67804 0.4914 0.0
O171 O 0.24802 0.74234 0.43384 0.0
H172 H 0.11389 0.78028 0.47587 0.0
H173 H 0.22024 0.81802 0.42118 0.0
O174 O 0.29605 0.70521 0.4572 0.0
O175 O 0.30554 0.78013 0.50901 0.0
O176 O 0.2566 0.81677 0.48633 0.0
C177 C 0.29447 0.81542 0.50063 0.0
H178 H 0.40705 0.67518 0.5471 0.0
H179 H 0.07979 0.81959 0.43 0.0
Co180 Co 0.22151 0.47602 0.74918 0.0
C181 C 0.19401 0.5614 0.74865 0.0
Co182 Co 0.27119 0.51293 0.72681 0.0
C183 C 0.18968 0.42294 0.79272 0.0
C184 C 0.13546 0.44442 0.76601 0.0
N185 N 0.18045 0.44599 0.76931 0.0
N186 N 0.15235 0.40725 0.80452 0.0
C187 C 0.11803 0.42076 0.78778 0.0
H188 H 0.22333 0.41846 0.80139 0.0
H189 H 0.11651 0.46063 0.7497 0.0
C190 C 0.29887 0.42765 0.72697 0.0
N191 N 0.31189 0.54292 0.70643 0.0
C192 C 0.30214 0.56444 0.68212 0.0
C193 C 0.35684 0.54574 0.70999 0.0
N194 N 0.33905 0.58038 0.67006 0.0
C195 C 0.37369 0.56873 0.68754 0.0
C196 C 0.2823 0.52664 0.7973 0.0
O197 O 0.26095 0.42603 0.74103 0.0
O198 O 0.30992 0.46299 0.71859 0.0
O199 O 0.29812 0.53698 0.77091 0.0
O200 O 0.24857 0.50062 0.79337 0.0
O201 O 0.23223 0.56274 0.73509 0.0
H202 H 0.37615 0.53081 0.72694 0.0
H203 H 0.26844 0.56767 0.67296 0.0
O204 O 0.18248 0.5262 0.7571 0.0
O205 O 0.1948 0.45166 0.70499 0.0
O206 O 0.24401 0.48859 0.6828 0.0
C207 C 0.21058 0.46225 0.67872 0.0
H208 H 0.08282 0.41583 0.79207 0.0
H209 H 0.40875 0.5746 0.68335 0.0
Co210 Co 0.97432 0.50867 0.47473 0.0
C211 C 0.99289 0.54494 0.54482 0.0
Co212 Co 0.02459 0.47054 0.49518 0.0
C213 C 0.9228 0.54097 0.425 0.0
C214 C 0.89837 0.56585 0.47708 0.0
N215 N 0.93162 0.54124 0.45827 0.0
N216 N 0.88516 0.56385 0.42231 0.0
C217 C 0.86972 0.57961 0.45503 0.0
H218 H 0.94151 0.52144 0.40285 0.0
H219 H 0.89351 0.57111 0.50479 0.0
C220 C 0.00621 0.43413 0.42515 0.0
N221 N 0.06571 0.4377 0.51243 0.0
C222 C 0.09501 0.45339 0.53867 0.0
C223 C 0.06849 0.39258 0.50514 0.0
N224 N 0.11518 0.41998 0.5486 0.0
C225 C 0.09886 0.38156 0.52753 0.0
C226 C 0.93751 0.44144 0.49933 0.0
O227 O 0.97759 0.46553 0.43039 0.0
O228 O 0.03174 0.43103 0.44989 0.0
O229 O 0.97831 0.43359 0.50436 0.0
O230 O 0.9279 0.47433 0.48734 0.0
O231 O 0.0173 0.51041 0.54065 0.0
H232 H 0.04799 0.36928 0.48608 0.0
H233 H 0.09925 0.48866 0.55189 0.0
O234 O 0.97163 0.55094 0.51892 0.0
O235 O 0.02099 0.54297 0.46224 0.0
O236 O 0.07056 0.50792 0.48599 0.0
C237 C 0.06137 0.53818 0.4709 0.0
H238 H 0.8385 0.59744 0.46219 0.0
H239 H 0.10702 0.34811 0.52911 0.0
Co240 Co 0.27162 0.2191 -0.00512 0.0
C241 C 0.28393 0.2055 0.9248 0.0
Co242 Co 0.22178 0.25508 0.97189 0.0
C243 C 0.30407 0.1696 0.0407 0.0
C244 C 0.35816 0.19028 0.01342 0.0
N245 N 0.31311 0.1911 0.01626 0.0
N246 N 0.34153 0.15593 0.0537 0.0
C247 C 0.37578 0.1686 0.03648 0.0
H248 H 0.27054 0.16524 0.04959 0.0
H249 H 0.37695 0.20518 -0.00383 0.0
C250 C 0.20988 0.26861 0.04216 0.0
N251 N 0.18021 0.283 0.95058 0.0
C252 C 0.18899 0.30452 0.92611 0.0
C253 C 0.13518 0.28388 0.9537 0.0
N254 N 0.15137 0.31841 0.91348 0.0
C255 C 0.1173 0.3057 0.93084 0.0
C256 C 0.19571 0.1688 0.97206 0.0
O257 O 0.24382 0.24321 0.03828 0.0
O258 O 0.19384 0.27887 0.01575 0.0
O259 O 0.18437 0.20387 0.96349 0.0
O260 O 0.23352 0.16792 -0.01343 0.0
O261 O 0.25009 0.2311 0.92825 0.0
H262 H 0.11659 0.26897 0.97104 0.0
H263 H 0.22242 0.30878 0.91695 0.0
O264 O 0.29933 0.1952 0.95134 0.0
O265 O 0.30918 0.27036 0.0031 0.0
O266 O 0.25956 0.3063 0.98038 0.0
C267 C 0.29747 0.30552 -0.00524 0.0
H268 H 0.41092 0.16254 0.04015 0.0
H269 H 0.08213 0.31189 0.92742 0.0
Co270 Co 0.21863 0.96707 0.24311 0.0
C271 C 0.19326 0.05312 0.24236 0.0
Co272 Co 0.26921 0.00271 0.22043 0.0
C273 C 0.18541 0.91728 0.28848 0.0
C274 C 0.13179 0.93811 0.26075 0.0
N275 N 0.17683 0.93867 0.26388 0.0
N276 N 0.14765 0.90412 0.30138 0.0
C277 C 0.11369 0.91688 0.28391 0.0
H278 H 0.21877 0.91301 0.29779 0.0
H279 H 0.11333 0.95323 0.24347 0.0
C280 C 0.29485 0.91687 0.22108 0.0
N281 N 0.31093 0.03148 0.19977 0.0
C282 C 0.30197 0.05465 0.17639 0.0
C283 C 0.356 0.03168 0.20236 0.0
N284 N 0.33948 0.06913 0.16395 0.0
C285 C 0.37369 0.05468 0.18022 0.0
C286 C 0.28024 0.01663 0.29094 0.0
O287 O 0.25693 0.91617 0.23538 0.0
O288 O 0.30656 0.95175 0.21231 0.0
O289 O 0.29672 0.02649 0.26455 0.0
O290 O 0.24588 -0.00846 0.28698 0.0
O291 O 0.23157 0.05354 0.22871 0.0
H292 H 0.37477 0.0149 0.21838 0.0
H293 H 0.26833 0.06002 0.16813 0.0
O294 O 0.18077 0.01815 0.25073 0.0
O295 O 0.19159 0.94279 0.19914 0.0
O296 O 0.24131 0.97862 0.1764 0.0
C297 C 0.2074 0.95286 0.17264 0.0
H298 H 0.07842 0.9116 0.28777 0.0
H299 H 0.40893 0.05849 0.17533 0.0
Co300 Co 0.52041 0.26286 0.72338 0.0
C301 C 0.43174 0.28983 0.72263 0.0
Co302 Co 0.47281 0.22258 0.74443 0.0
C303 C 0.58939 0.28162 0.67996 0.0
C304 C 0.56073 0.34219 0.71174 0.0
N305 N 0.55896 0.29711 0.70519 0.0
N306 N 0.60962 0.31504 0.67002 0.0
C307 C 0.5919 0.35336 0.68998 0.0
H308 H 0.59506 0.24629 0.66784 0.0
H309 H 0.53971 0.3653 0.7303 0.0
C310 C 0.56172 0.19572 0.74483 0.0
N311 N 0.43454 0.18792 0.76259 0.0
C312 C 0.40439 0.20233 0.78824 0.0
C313 C 0.43395 0.14275 0.75571 0.0
N314 N 0.38567 0.16811 0.79814 0.0
C315 C 0.40391 0.13045 0.77765 0.0
C316 C 0.48752 0.18804 0.67405 0.0
O317 O 0.5688 0.22742 0.7309 0.0
O318 O 0.5221 0.18895 0.75394 0.0
O319 O 0.46699 0.18149 0.70006 0.0
O320 O 0.51177 0.22282 0.67793 0.0
O321 O 0.42366 0.25668 0.73487 0.0
H322 H 0.4553 0.12034 0.73694 0.0
H323 H 0.39807 0.23742 0.8008 0.0
O324 O 0.47192 0.29799 0.71586 0.0
O325 O 0.5288 0.30259 0.76874 0.0
O326 O 0.47884 0.26394 0.78888 0.0
C327 C 0.50546 0.29709 0.79388 0.0
H328 H 0.60018 0.38685 0.68847 0.0
H329 H 0.3969 0.09665 0.77907 0.0
Co330 Co 0.01426 0.75955 0.72494 0.0
C331 C 0.92401 0.78218 0.72345 0.0
Co332 Co 0.96862 0.71812 0.74642 0.0
C333 C 0.0835 0.7817 0.68294 0.0
C334 C 0.04752 0.84004 0.71087 0.0
N335 N 0.05076 0.79537 0.70657 0.0
N336 N 0.10052 0.81588 0.67204 0.0
C337 C 0.07786 0.85269 0.68928 0.0
H338 H 0.09278 0.74688 0.67234 0.0
H339 H 0.02331 0.8616 0.72746 0.0
C340 C 0.05854 0.69553 0.7485 0.0
N341 N 0.93212 0.6823 0.7646 0.0
C342 C 0.90038 0.69608 0.78901 0.0
C343 C 0.9337 0.63729 0.75881 0.0
N344 N 0.88261 0.6617 0.79919 0.0
C345 C 0.90325 0.62449 0.78023 0.0
C346 C 0.98557 0.68235 0.67642 0.0
O347 O 0.06468 0.72662 0.73367 0.0
O348 O 0.01909 0.68771 0.75722 0.0
O349 O 0.96517 0.67563 0.70242 0.0
O350 O 0.00779 0.71834 0.67992 0.0
O351 O 0.91795 0.74884 0.73578 0.0
H352 H 0.95667 0.61544 0.74113 0.0
H353 H 0.89215 0.731 0.80053 0.0
O354 O 0.9636 0.79203 0.71641 0.0
O355 O 0.02076 0.80042 0.76974 0.0
O356 O 0.97238 0.76102 0.79066 0.0
C357 C -0.00233 0.79514 0.79505 0.0
H358 H 0.08197 0.88588 0.68562 0.0
H359 H 0.89762 0.59079 0.78239 0.0
Co360 Co 0.72514 0.47641 0.24769 0.0
C361 C 0.6992 0.56164 0.24593 0.0
Co362 Co 0.77469 0.5102 0.22262 0.0
C363 C 0.69431 0.42751 0.2946 0.0
C364 C 0.63938 0.44849 0.26825 0.0
N365 N 0.68449 0.44908 0.27031 0.0
N366 N 0.65725 0.41349 0.30794 0.0
C367 C 0.6225 0.42672 0.29147 0.0
H368 H 0.72818 0.42263 0.30264 0.0
H369 H 0.62004 0.46397 0.25165 0.0
C370 C 0.80027 0.42487 0.2249 0.0
N371 N 0.8157 0.53746 0.20039 0.0
C372 C 0.80641 0.55974 0.17651 0.0
C373 C 0.86081 0.53759 0.20266 0.0
N374 N 0.8438 0.57364 0.16352 0.0
C375 C 0.87823 0.55973 0.17988 0.0
C376 C 0.78916 0.52657 0.29281 0.0
O377 O 0.76267 0.42556 0.23981 0.0
O378 O 0.81217 0.45878 0.21482 0.0
O379 O 0.80397 0.5352 0.26551 0.0
O380 O 0.75462 0.50191 0.29068 0.0
O381 O 0.73659 0.56164 0.23066 0.0
H382 H 0.87978 0.52154 0.21907 0.0
H383 H 0.77267 0.56508 0.16846 0.0
O384 O 0.68791 0.52728 0.25553 0.0
O385 O 0.69596 0.45115 0.20447 0.0
O386 O 0.74533 0.48483 0.17961 0.0
C387 C 0.71107 0.45974 0.17715 0.0
H388 H 0.58741 0.42259 0.29671 0.0
H389 H 0.91341 0.56351 0.17475 0.0
Co390 Co 0.76938 0.72297 -0.00397 0.0
C391 C 0.78065 0.70539 0.92519 0.0
Co392 Co 0.7187 0.75543 0.97099 0.0
C393 C 0.80412 0.67578 0.04259 0.0
C394 C 0.85682 0.69576 0.01362 0.0
N395 N 0.81193 0.69686 0.01773 0.0
N396 N 0.84222 0.66182 0.05445 0.0
C397 C 0.87562 0.67415 0.03627 0.0
H398 H 0.77102 0.67149 0.05233 0.0
H399 H 0.87467 0.70994 -0.00452 0.0
C400 C 0.70714 0.77278 0.04176 0.0
N401 N 0.67608 0.78153 0.94928 0.0
C402 C 0.68388 0.80363 0.92505 0.0
C403 C 0.63112 0.7818 0.95293 0.0
N404 N 0.64572 0.81751 0.91322 0.0
C405 C 0.61228 0.80397 0.93068 0.0
C406 C 0.6946 0.67012 0.97415 0.0
O407 O 0.74171 0.74837 0.03946 0.0
O408 O 0.69118 0.78044 0.01439 0.0
O409 O 0.68236 0.70389 0.96418 0.0
O410 O 0.73228 0.67118 -0.01073 0.0
O411 O 0.74639 0.73021 0.9276 0.0
H412 H 0.61326 0.76672 0.97053 0.0
H413 H 0.71702 0.80877 0.91576 0.0
O414 O 0.79667 0.69769 0.95254 0.0
O415 O 0.80614 0.77473 0.00267 0.0
O416 O 0.75553 0.807 0.97787 0.0
C417 C 0.79355 0.80827 -0.00754 0.0
H418 H 0.91089 0.66756 0.03883 0.0
H419 H 0.57697 0.81019 0.92794 0.0
Co420 Co 0.47247 0.01258 0.47227 0.0
C421 C 0.48949 0.05021 0.5424 0.0
Co422 Co 0.51945 0.9729 0.49444 0.0
C423 C 0.40122 0.02938 0.42965 0.0
C424 C 0.43344 0.09037 0.45767 0.0
N425 N 0.43325 0.04564 0.4536 0.0
N426 N 0.38172 0.06199 0.41827 0.0
C427 C 0.40198 0.10049 0.43562 0.0
H428 H 0.39438 -0.0061 0.41907 0.0
H429 H 0.45643 0.11376 0.47433 0.0
C430 C 0.50227 0.93536 0.42459 0.0
N431 N 0.55978 0.93969 0.51249 0.0
C432 C 0.56605 0.94113 0.54625 0.0
C433 C 0.59411 0.91478 0.49556 0.0
N434 N 0.60339 0.91938 0.55122 0.0
C435 C 0.62112 0.90244 0.51942 0.0
C436 C 0.43135 0.94763 0.49808 0.0
O437 O 0.4787 0.97028 0.42761 0.0
O438 O 0.52304 0.93005 0.45091 0.0
O439 O 0.47128 0.94045 0.50628 0.0
O440 O 0.42408 0.97814 0.48281 0.0
O441 O 0.51504 0.01646 0.53831 0.0
H442 H 0.60127 0.90917 0.46811 0.0
H443 H 0.54605 0.96108 0.56732 0.0
O444 O 0.46669 0.05482 0.51665 0.0
O445 O 0.52067 0.04628 0.46201 0.0
O446 O 0.56786 0.00577 0.48257 0.0
C447 C 0.56065 0.03776 0.46894 0.0
H448 H 0.39563 0.13317 0.43164 0.0
H449 H 0.65356 0.88645 0.51429 0.0
Co450 Co 0.47312 0.50805 0.97552 0.0
C451 C 0.48927 0.54347 0.04563 0.0
Co452 Co 0.52046 0.46769 -0.00335 0.0
C453 C 0.4036 0.53066 0.93351 0.0
C454 C 0.4415 0.58833 0.96079 0.0
N455 N 0.43688 0.54383 0.95693 0.0
N456 N 0.38766 0.565 0.92232 0.0
C457 C 0.41153 0.60136 0.93913 0.0
H458 H 0.39317 0.49604 0.92321 0.0
H459 H 0.46652 0.60948 0.97705 0.0
C460 C 0.50383 0.43236 0.92646 0.0
N461 N 0.55683 0.43237 0.01564 0.0
C462 C 0.58955 0.44688 0.03935 0.0
C463 C 0.55252 0.38813 0.01302 0.0
N464 N 0.60543 0.41371 0.05196 0.0
C465 C 0.58211 0.37666 0.03578 0.0
C466 C 0.43002 0.44351 -0.00181 0.0
O467 O 0.47787 0.46591 0.93128 0.0
O468 O 0.5273 0.42698 0.95166 0.0
O469 O 0.47009 0.43481 0.00475 0.0
O470 O 0.42252 0.47619 -0.01464 0.0
O471 O 0.51335 0.50868 0.04159 0.0
H472 H 0.52783 0.36621 -0.00297 0.0
H473 H 0.59945 0.48175 0.04897 0.0
O474 O 0.46846 0.54992 0.01963 0.0
O475 O 0.52367 0.53928 0.96562 0.0
O476 O 0.57076 0.5011 -0.01151 0.0
C477 C 0.56352 0.53204 0.97378 0.0
H478 H 0.40856 0.63442 0.93504 0.0
H479 H 0.58516 0.34424 0.041 0.0
C480 C 0.02637 0.09835 0.09378 0.0
C481 C 0.98573 0.08133 0.07757 0.0
C482 C 0.02681 0.13306 0.12483 0.0
C483 C 0.9866 0.15074 0.14113 0.0
H484 H 0.05801 0.08539 0.082 0.0
H485 H 0.05878 0.14549 0.13656 0.0
S486 S 0.87154 0.11695 0.10946 0.0
N487 N 0.90445 0.08485 0.07968 0.0
N488 N 0.90526 0.14853 0.13918 0.0
C489 C 0.9458 0.13353 0.12548 0.0
C490 C 0.94537 0.09921 0.09331 0.0
C491 C 0.79995 0.21245 0.36667 0.0
C492 C 0.81021 0.19164 0.39312 0.0
C493 C 0.82419 0.20262 0.33557 0.0
C494 C 0.85905 0.17119 0.32952 0.0
H495 H 0.7741 0.23781 0.37043 0.0
H496 H 0.81639 0.22048 0.31637 0.0
S497 S 0.89771 0.10539 0.38916 0.0
N498 N 0.85643 0.13645 0.41034 0.0
N499 N 0.90191 0.11809 0.3516 0.0
C500 C 0.86852 0.14868 0.35494 0.0
C501 C 0.84412 0.15893 0.38684 0.0
C502 C 0.87196 0.11848 0.63483 0.0
C503 C 0.84163 0.0834 0.63417 0.0
C504 C 0.87277 0.1395 0.60771 0.0
C505 C 0.84319 0.12613 0.57922 0.0
H506 H 0.89416 0.13059 0.65694 0.0
H507 H 0.89555 0.16734 0.60957 0.0
S508 S 0.76255 0.03149 0.56257 0.0
N509 N 0.78514 0.03288 0.60071 0.0
N510 N 0.78617 0.07297 0.55019 0.0
C511 C 0.81413 0.08993 0.57757 0.0
C512 C 0.81349 0.06839 0.60495 0.0
C513 C 0.86891 0.07424 0.86163 0.0
C514 C 0.85404 0.06272 0.89145 0.0
C515 C 0.84384 0.06248 0.83074 0.0
C516 C 0.80293 0.03906 0.8288 0.0
H517 H 0.90118 0.09038 0.86175 0.0
H518 H 0.85749 0.07047 0.80795 0.0
S519 S 0.74696 0.00773 0.90213 0.0
N520 N 0.79477 0.03101 0.91878 0.0
N521 N 0.7466 0.00944 0.86105 0.0
C522 C 0.78653 0.02994 0.85935 0.0
C523 C 0.81242 0.04157 0.8906 0.0
C524 C 0.11869 0.90239 0.1051 0.0
C525 C 0.13185 0.91751 0.07644 0.0
C526 C 0.1444 0.91241 0.13569 0.0
C527 C 0.18431 0.93764 0.1385 0.0
H528 H 0.0872 0.8847 0.10444 0.0
H529 H 0.13195 0.90167 0.15767 0.0
S530 S 0.23596 0.97849 0.06788 0.0
N531 N 0.18866 0.95447 0.05084 0.0
N532 N 0.23802 0.97292 0.10795 0.0
C533 C 0.19913 0.95035 0.10893 0.0
C534 C 0.17257 0.94044 0.078 0.0
C535 C 0.96729 0.38015 0.37595 0.0
C536 C 0.0075 0.39951 0.39152 0.0
C537 C 0.96761 0.34534 0.34497 0.0
C538 C 0.00807 0.32977 0.32802 0.0
H539 H 0.93542 0.39137 0.38819 0.0
H540 H 0.93592 0.33116 0.33379 0.0
S541 S 0.12223 0.37006 0.3578 0.0
N542 N 0.08875 0.40045 0.38804 0.0
N543 N 0.0892 0.33651 0.32871 0.0
C544 C 0.04842 0.3493 0.34302 0.0
C545 C 0.04818 0.38379 0.37513 0.0
C546 C 0.69772 0.26528 0.60448 0.0
C547 C 0.69007 0.28686 0.57809 0.0
C548 C 0.6725 0.27609 0.63516 0.0
C549 C 0.63922 0.30925 0.64081 0.0
H550 H 0.72213 0.23858 0.60092 0.0
H551 H 0.67822 0.25762 0.65431 0.0
S552 S 0.6079 0.37773 0.58116 0.0
N553 N 0.6483 0.34476 0.56059 0.0
N554 N 0.60092 0.36481 0.6184 0.0
C555 C 0.63254 0.33251 0.61547 0.0
C556 C 0.65795 0.32133 0.58405 0.0
C557 C 0.67436 0.8982 0.86152 0.0
C558 C 0.64253 0.88809 0.83442 0.0
C559 C 0.6744 0.87573 0.88755 0.0
C560 C 0.6426 0.84224 0.88756 0.0
H561 H 0.69961 0.92364 0.86257 0.0
H562 H 0.69964 0.88448 0.90784 0.0
S563 S 0.55311 0.80166 0.82183 0.0
N564 N 0.57886 0.8415 0.80872 0.0
N565 N 0.5789 0.79922 0.85801 0.0
C566 C 0.61016 0.83201 0.86094 0.0
C567 C 0.61015 0.85494 0.83426 0.0
C568 C 0.15133 0.3133 0.08138 0.0
C569 C 0.18788 0.2836 0.07661 0.0
C570 C 0.12725 0.32444 0.11268 0.0
C571 C 0.13863 0.30587 0.14005 0.0
H572 H 0.14042 0.32714 0.06049 0.0
H573 H 0.09826 0.34598 0.1149 0.0
S574 S 0.23368 0.23023 0.14253 0.0
N575 N 0.23631 0.23882 0.10346 0.0
N576 N 0.19024 0.25947 0.16185 0.0
C577 C 0.17604 0.2778 0.13632 0.0
C578 C 0.20092 0.26678 0.10472 0.0
C579 C 0.68845 0.40201 0.3623 0.0
C580 C 0.65587 0.3917 0.33566 0.0
C581 C 0.68872 0.38044 0.38898 0.0
C582 C 0.65621 0.34802 0.39025 0.0
H583 H 0.71386 0.42717 0.36265 0.0
H584 H 0.71441 0.38931 0.40894 0.0
S585 S 0.56544 0.30664 0.32579 0.0
N586 N 0.59148 0.34528 0.31145 0.0
N587 N 0.59169 0.30521 0.36202 0.0
C588 C 0.6234 0.33736 0.36392 0.0
C589 C 0.62328 0.35911 0.33654 0.0
C590 C 0.63849 0.89408 0.59856 0.0
C591 C 0.62792 0.92862 0.58322 0.0
C592 C 0.66282 0.90333 0.62994 0.0
C593 C 0.6781 0.94707 0.64592 0.0
H594 H 0.62754 0.86006 0.58634 0.0
H595 H 0.67029 0.87621 0.64146 0.0
S596 S 0.65765 0.04896 0.61622 0.0
N597 N 0.63332 0.0079 0.5864 0.0
N598 N 0.67965 0.02526 0.6449 0.0
C599 C 0.66761 0.98171 0.63069 0.0
C600 C 0.64234 0.97247 0.59935 0.0
C601 C 0.03839 0.88216 0.87567 0.0
C602 C -0.00191 0.90043 0.8914 0.0
C603 C 0.03813 0.84811 0.84417 0.0
C604 C -0.00245 0.8302 0.82836 0.0
H605 H 0.07025 0.89467 0.88755 0.0
H606 H 0.06979 0.83526 0.83238 0.0
S607 S 0.88306 0.86587 0.85975 0.0
N608 N 0.91668 0.89839 0.88897 0.0
N609 N 0.91617 0.83302 0.83059 0.0
C610 C 0.95707 0.84775 0.84413 0.0
C611 C 0.95734 0.88329 0.87551 0.0
C612 C 0.13751 0.06566 -0.01445 0.0
C613 C 0.09706 0.06443 0.96707 0.0
C614 C 0.17024 0.09835 -0.0142 0.0
C615 C 0.1637 0.13099 0.96758 0.0
H616 H 0.14317 0.04252 0.00124 0.0
H617 H 0.19999 0.09912 0.00161 0.0
S618 S 0.06645 0.13816 0.91096 0.0
N619 N 0.05446 0.09564 0.92701 0.0
N620 N 0.11578 0.15695 0.92749 0.0
C621 C 0.1246 0.12838 0.94728 0.0
C622 C 0.09135 0.09513 0.94701 0.0
C623 C 0.67318 0.63138 0.23123 0.0
C624 C 0.66764 0.59975 0.25052 0.0
C625 C 0.64067 0.66433 0.23192 0.0
C626 C 0.60145 0.66685 0.25194 0.0
H627 H 0.70189 0.6296 0.21432 0.0
H628 H 0.64544 0.68661 0.21541 0.0
S629 S 0.57403 0.59612 0.31107 0.0
N630 N 0.62211 0.57617 0.2931 0.0
N631 N 0.56131 0.6379 0.29442 0.0
C632 C 0.59686 0.63716 0.27297 0.0
C633 C 0.62985 0.60366 0.27225 0.0
C634 C 0.32063 0.88482 0.48576 0.0
C635 C 0.32705 0.85264 0.50441 0.0
C636 C 0.35372 0.91681 0.48515 0.0
C637 C 0.39451 0.91787 0.50319 0.0
H638 H 0.29063 0.88421 0.47027 0.0
H639 H 0.34793 0.93964 0.46923 0.0
S640 S 0.4254 0.84478 0.55974 0.0
N641 N 0.3755 0.8266 0.54411 0.0
N642 N 0.4376 0.88667 0.54302 0.0
C643 C 0.40031 0.88748 0.52352 0.0
C644 C 0.36663 0.85489 0.52411 0.0
C645 C 0.08562 0.62711 0.7639 0.0
C646 C 0.09549 0.66531 0.75243 0.0
C647 C 0.11813 0.59463 0.76378 0.0
C648 C 0.16199 0.59892 0.75223 0.0
H649 H 0.05202 0.62126 0.77199 0.0
H650 H 0.10825 0.56524 0.77183 0.0
S651 S 0.20663 0.69504 0.72321 0.0
N652 N 0.15336 0.70735 0.7318 0.0
N653 N 0.21467 0.64633 0.7317 0.0
C654 C 0.17303 0.63804 0.74232 0.0
C655 C 0.13977 0.67119 0.74238 0.0
C656 C 0.82709 0.37874 0.48877 0.0
C657 C 0.83624 0.34257 0.50282 0.0
C658 C 0.85935 0.41181 0.48932 0.0
C659 C 0.90209 0.40997 0.50384 0.0
H660 H 0.7953 0.38084 0.47613 0.0
H661 H 0.8512 0.43798 0.47695 0.0
S662 S 0.9411 0.32544 0.54801 0.0
N663 N 0.88981 0.30926 0.53469 0.0
N664 N 0.95045 0.37137 0.53558 0.0
C665 C 0.91089 0.37538 0.5197 0.0
C666 C 0.87797 0.34171 0.51922 0.0
C667 C 0.32032 0.84722 0.23605 0.0
C668 C 0.3265 0.87899 0.21695 0.0
C669 C 0.35286 0.81456 0.236 0.0
C670 C 0.39273 0.81247 0.21683 0.0
H671 H 0.29105 0.84872 0.25237 0.0
H672 H 0.34759 0.79218 0.25237 0.0
S673 S 0.42203 0.88362 0.15838 0.0
N674 N 0.37333 0.90312 0.17538 0.0
N675 N 0.43425 0.84188 0.17522 0.0
C676 C 0.39799 0.84226 0.19592 0.0
C677 C 0.36496 0.87548 0.19601 0.0
C678 C 0.32339 0.3559 0.73894 0.0
C679 C 0.33085 0.38993 0.72218 0.0
C680 C 0.35528 0.3223 0.73763 0.0
C681 C 0.39583 0.32145 0.7195 0.0
H682 H 0.29339 0.35601 0.75423 0.0
H683 H 0.34883 0.29793 0.75212 0.0
S684 S 0.42932 0.39969 0.66776 0.0
N685 N 0.38019 0.41834 0.68437 0.0
N686 N 0.43994 0.3553 0.68186 0.0
C687 C 0.4027 0.35396 0.70119 0.0
C688 C 0.3703 0.38816 0.70256 0.0
C689 C 0.14445 0.82041 0.58519 0.0
C690 C 0.18227 0.79236 0.58115 0.0
C691 C 0.1191 0.83005 0.61586 0.0
C692 C 0.13047 0.81161 0.64329 0.0
H693 H 0.13347 0.83392 0.56415 0.0
H694 H 0.08917 0.85021 0.61748 0.0
S695 S 0.22866 0.7406 0.64781 0.0
N696 N 0.23194 0.74972 0.60894 0.0
N697 N 0.18346 0.7675 0.66613 0.0
C698 C 0.16916 0.7854 0.64039 0.0
C699 C 0.19532 0.77592 0.60944 0.0
C700 C 0.17695 0.85083 0.3318 0.0
C701 C 0.14528 0.88344 0.3296 0.0
C702 C 0.1776 0.83243 0.36024 0.0
C703 C 0.14675 0.84615 0.38771 0.0
H704 H 0.20149 0.83954 0.31134 0.0
H705 H 0.20242 0.80713 0.36064 0.0
S706 S 0.05867 0.93253 0.39534 0.0
N707 N 0.08315 0.9298 0.35768 0.0
N708 N 0.08452 0.89538 0.41141 0.0
C709 C 0.11476 0.87866 0.38579 0.0
C710 C 0.11399 0.89729 0.35667 0.0
C711 C 0.97983 0.65751 0.61161 0.0
C712 C 0.98656 0.64691 0.64332 0.0
C713 C 0.98112 0.62401 0.5799 0.0
C714 C 0.99056 0.57906 0.57883 0.0
H715 H 0.97305 0.69179 0.61135 0.0
H716 H 0.9755 0.63358 0.556 0.0
S717 S 0.01319 0.53489 0.65497 0.0
N718 N 0.0039 0.58897 0.67204 0.0
N719 N 0.00787 0.52614 0.61236 0.0
C720 C -0.00183 0.56829 0.61044 0.0
C721 C -0.00426 0.60221 0.64274 0.0
C722 C 0.30771 0.66336 0.37565 0.0
C723 C 0.30784 0.70629 0.39902 0.0
C724 C 0.33459 0.65397 0.34573 0.0
C725 C 0.36262 0.68714 0.33868 0.0
H726 H 0.28671 0.63708 0.38051 0.0
H727 H 0.3334 0.62065 0.32793 0.0
S728 S 0.37727 0.80385 0.39482 0.0
N729 N 0.33871 0.78158 0.41472 0.0
N730 N 0.39096 0.76389 0.35967 0.0
C731 C 0.36347 0.73006 0.36267 0.0
C732 C 0.33559 0.73962 0.39262 0.0
C733 C 0.30914 0.08123 0.10966 0.0
C734 C 0.34174 0.09089 0.13622 0.0
C735 C 0.30993 0.10192 0.08254 0.0
C736 C 0.34329 0.13334 0.08087 0.0
H737 H 0.28282 0.05731 0.10974 0.0
H738 H 0.28416 0.09318 0.06262 0.0
S739 S 0.43444 0.17339 0.14534 0.0
N740 N 0.40722 0.13574 0.16006 0.0
N741 N 0.40861 0.17495 0.10896 0.0
C742 C 0.37608 0.14367 0.10729 0.0
C743 C 0.3753 0.12242 0.135 0.0
C744 C 0.79273 0.70738 0.86382 0.0
C745 C 0.80338 0.68863 0.89133 0.0
C746 C 0.81747 0.69658 0.83297 0.0
C747 C 0.85324 0.66624 0.82832 0.0
H748 H 0.76636 0.73209 0.86662 0.0
H749 H 0.80957 0.71313 0.81296 0.0
S750 S 0.89266 0.60523 0.89102 0.0
N751 N 0.85045 0.63599 0.91095 0.0
N752 N 0.897 0.61592 0.85273 0.0
C753 C 0.86286 0.64546 0.85474 0.0
C754 C 0.83791 0.65667 0.88635 0.0
C755 C 0.30996 0.58844 0.61412 0.0
C756 C 0.34053 0.60156 0.64203 0.0
C757 C 0.30967 0.60932 0.58705 0.0
C758 C 0.34012 0.64385 0.58671 0.0
H759 H 0.28619 0.56162 0.61306 0.0
H760 H 0.28556 0.59826 0.5661 0.0
S761 S 0.42492 0.69275 0.65461 0.0
N762 N 0.40071 0.65266 0.6684 0.0
N763 N 0.40039 0.69166 0.61717 0.0
C764 C 0.3709 0.65736 0.61435 0.0
C765 C 0.37106 0.63623 0.64208 0.0
C766 C 0.33725 0.06363 0.33073 0.0
C767 C 0.30232 0.03181 0.32545 0.0
C768 C 0.36162 0.07526 0.36199 0.0
C769 C 0.35221 0.05511 0.38883 0.0
H770 H 0.34667 0.07886 0.31026 0.0
H771 H 0.3894 0.09853 0.36455 0.0
S772 S 0.26196 0.97311 0.38977 0.0
N773 N 0.25759 0.98287 0.35115 0.0
N774 N 0.30408 0.00463 0.40956 0.0
C775 C 0.31635 0.02478 0.3846 0.0
C776 C 0.29117 0.01321 0.35301 0.0
C777 C 0.86356 0.85021 0.01585 0.0
C778 C 0.824 0.84715 -0.00397 0.0
C779 C 0.89516 0.8841 0.01708 0.0
C780 C 0.88849 0.91637 -0.00142 0.0
H781 H 0.87081 0.8256 0.02994 0.0
H782 H 0.92566 0.88418 0.03191 0.0
S783 S 0.78984 0.92416 0.94356 0.0
N784 N 0.77923 0.88026 0.95829 0.0
N785 N 0.83862 0.94396 0.96061 0.0
C786 C 0.84832 0.91476 0.97967 0.0
C787 C 0.81611 0.88015 0.97837 0.0
C788 C 0.6197 0.14247 0.46058 0.0
C789 C 0.66464 0.13483 0.46795 0.0
C790 C 0.58673 0.1099 0.45921 0.0
C791 C 0.59733 0.0683 0.46515 0.0
H792 H 0.60941 0.17454 0.45711 0.0
H793 H 0.55236 0.11828 0.45487 0.0
S794 S 0.71114 0.02871 0.47963 0.0
N795 N 0.71896 0.0806 0.47719 0.0
N796 N 0.65677 0.0192 0.47461 0.0
C797 C 0.64255 0.05909 0.4704 0.0
C798 C 0.67624 0.09239 0.47183 0.0
C799 C 0.87364 0.38726 0.20625 0.0
C800 C 0.83119 0.38644 0.22139 0.0
C801 C 0.90535 0.35383 0.20573 0.0
C802 C 0.89597 0.31812 0.22029 0.0
H803 H 0.88308 0.41461 0.19553 0.0
H804 H 0.93797 0.35683 0.19466 0.0
S805 S 0.78856 0.2985 0.26097 0.0
N806 N 0.78049 0.34534 0.24958 0.0
N807 N 0.84007 0.28262 0.24862 0.0
C808 C 0.85297 0.3158 0.23422 0.0
C809 C 0.82062 0.34991 0.23478 0.0
C810 C 0.13806 0.57111 0.4841 0.0
C811 C 0.09638 0.57074 0.46737 0.0
C812 C 0.16942 0.60534 0.48572 0.0
C813 C 0.16045 0.64062 0.47066 0.0
H814 H 0.14599 0.54574 0.49732 0.0
H815 H 0.20029 0.60485 0.49999 0.0
S816 S 0.0587 0.65225 0.41986 0.0
N817 N 0.04956 0.60647 0.43255 0.0
N818 N 0.10849 0.67077 0.43554 0.0
C819 C 0.11994 0.63936 0.45216 0.0
C820 C 0.08795 0.60444 0.45051 0.0
C821 C 0.62236 0.09935 0.76663 0.0
C822 C 0.66263 0.09649 0.74788 0.0
C823 C 0.59074 0.13261 0.76655 0.0
C824 C 0.59808 0.16443 0.74771 0.0
H825 H 0.61463 0.07509 0.78095 0.0
H826 H 0.55982 0.13268 0.78076 0.0
S827 S 0.69857 0.17219 0.69469 0.0
N828 N 0.70861 0.12904 0.71045 0.0
N829 N 0.64921 0.19156 0.7103 0.0
C830 C 0.63882 0.16284 0.72963 0.0
C831 C 0.67106 0.12888 0.7297 0.0
C832 C 0.81292 0.58499 0.10924 0.0
C833 C 0.84566 0.5951 0.13567 0.0
C834 C 0.81273 0.60616 0.08243 0.0
C835 C 0.8453 0.6384 0.08096 0.0
H836 H 0.78712 0.56048 0.10928 0.0
H837 H 0.78677 0.59734 0.06268 0.0
S838 S 0.93711 0.67892 0.14464 0.0
N839 N 0.91085 0.64064 0.15928 0.0
N840 N 0.91052 0.68058 0.1086 0.0
C841 C 0.87852 0.64879 0.10699 0.0
C842 C 0.87869 0.62714 0.13444 0.0
C843 C 0.8148 0.54993 0.38897 0.0
C844 C 0.86061 0.56094 0.39077 0.0
C845 C 0.79158 0.54048 0.35731 0.0
C846 C 0.81323 0.54217 0.32635 0.0
H847 H 0.79732 0.54642 0.41188 0.0
H848 H 0.75669 0.53058 0.35697 0.0
S849 S 0.93214 0.57352 0.31815 0.0
N850 N 0.92618 0.57606 0.35986 0.0
N851 N 0.88263 0.55866 0.30001 0.0
C852 C 0.85858 0.55539 0.32817 0.0
C853 C 0.88228 0.56457 0.36046 0.0
C854 C 0.19967 0.46808 0.61805 0.0
C855 C 0.18873 0.44696 0.64418 0.0
C856 C 0.17651 0.45782 0.58632 0.0
C857 C 0.14218 0.42557 0.57929 0.0
H858 H 0.22524 0.49395 0.62252 0.0
H859 H 0.18477 0.47588 0.56734 0.0
S860 S 0.10163 0.35922 0.63794 0.0
N861 N 0.14206 0.39102 0.6602 0.0
N862 N 0.09873 0.37178 0.60025 0.0
C863 C 0.13189 0.40297 0.60448 0.0
C864 C 0.15512 0.41369 0.63702 0.0
C865 C 0.66894 0.77936 0.13332 0.0
C866 C 0.63258 0.80896 0.13781 0.0
C867 C 0.69432 0.7696 0.10278 0.0
C868 C 0.68368 0.78861 0.0754 0.0
H869 H 0.67704 0.76284 0.1533 0.0
H870 H 0.72127 0.74553 0.10011 0.0
S871 S 0.59244 0.8699 0.0753 0.0
N872 N 0.58795 0.85859 0.11336 0.0
N873 N 0.63554 0.84038 0.05566 0.0
C874 C 0.6483 0.81965 0.08018 0.0
C875 C 0.62275 0.82983 0.11149 0.0
C876 C 0.64725 0.41852 0.14146 0.0
C877 C 0.68738 0.44323 0.14333 0.0
C878 C 0.62161 0.40673 0.11079 0.0
C879 C 0.63508 0.41955 0.08114 0.0
H880 H 0.63471 0.40942 0.16414 0.0
H881 H 0.59002 0.38941 0.11072 0.0
S882 S 0.73933 0.47906 0.07038 0.0
N883 N 0.74122 0.47603 0.11113 0.0
N884 N 0.69205 0.45433 0.05397 0.0
C885 C 0.67583 0.44221 0.08196 0.0
C886 C 0.70228 0.45388 0.11293 0.0
C887 C 0.35358 0.41057 0.98291 0.0
C888 C 0.39361 0.41267 0.00201 0.0
C889 C 0.32173 0.37681 0.9818 0.0
C890 C 0.32881 0.34392 -0.00027 0.0
H891 H 0.34765 0.43385 0.96739 0.0
H892 H 0.29225 0.37548 0.96562 0.0
S893 S 0.42526 0.33852 0.05754 0.0
N894 N 0.43637 0.38188 0.04224 0.0
N895 N 0.37674 0.31847 0.04006 0.0
C896 C 0.3675 0.34726 0.02054 0.0
C897 C 0.39983 0.38163 0.02172 0.0
C898 C 0.08711 0.12253 0.25937 0.0
C899 C 0.09845 0.16109 0.24885 0.0
C900 C 0.1184 0.0886 0.25826 0.0
C901 C 0.16243 0.09173 0.2466 0.0
H902 H 0.0533 0.11764 0.26753 0.0
H903 H 0.10743 0.05908 0.26569 0.0
S904 S 0.21075 0.18796 0.21973 0.0
N905 N 0.15798 0.20202 0.22894 0.0
N906 N 0.21689 0.13827 0.22695 0.0
C907 C 0.17494 0.13107 0.23758 0.0
C908 C 0.14297 0.16572 0.23869 0.0
C909 C 0.18201 0.37377 0.88562 0.0
C910 C 0.14926 0.34155 0.8867 0.0
C911 C 0.18249 0.39502 0.85883 0.0
C912 C 0.15026 0.38506 0.832 0.0
H913 H 0.20752 0.38266 0.90572 0.0
H914 H 0.20833 0.41958 0.8592 0.0
S915 S 0.0591 0.30064 0.82155 0.0
N916 N 0.08478 0.29905 0.85797 0.0
N917 N 0.08571 0.33912 0.80737 0.0
C918 C 0.11726 0.35274 0.83268 0.0
C919 C 0.11674 0.33101 0.86011 0.0
C920 C 0.29745 0.2129 0.86486 0.0
C921 C 0.30708 0.19114 0.89085 0.0
C922 C 0.32231 0.20396 0.83405 0.0
C923 C 0.35716 0.17248 0.82781 0.0
H924 H 0.27164 0.23832 0.86882 0.0
H925 H 0.31494 0.22247 0.81519 0.0
S926 S 0.39447 0.10464 0.88638 0.0
N927 N 0.35284 0.13519 0.90749 0.0
N928 N 0.39945 0.11851 0.84935 0.0
C929 C 0.36607 0.14915 0.8528 0.0
C930 C 0.34105 0.15849 0.8844 0.0
C931 C 0.37067 0.57693 0.86516 0.0
C932 C 0.35775 0.56106 0.89352 0.0
C933 C 0.34495 0.56723 0.83457 0.0
C934 C 0.30528 0.54161 0.83149 0.0
H935 H 0.40198 0.59497 0.86603 0.0
H936 H 0.35722 0.57855 0.8128 0.0
S937 S 0.25429 0.49869 0.90132 0.0
N938 N 0.3014 0.52293 0.91857 0.0
N939 N 0.25205 0.50505 0.86148 0.0
C940 C 0.2907 0.52812 0.86079 0.0
C941 C 0.31726 0.53769 0.89169 0.0
C942 C 0.67095 0.60017 -0.01049 0.0
C943 C 0.66399 0.63133 0.97 0.0
C944 C 0.6394 0.56639 -0.01083 0.0
C945 C 0.59981 0.56262 0.96931 0.0
H946 H 0.70003 0.60296 0.00631 0.0
H947 H 0.64514 0.54448 0.00584 0.0
S948 S 0.56901 0.63153 0.90959 0.0
N949 N 0.61693 0.65305 0.92729 0.0
N950 N 0.55784 0.58971 0.92663 0.0
C951 C 0.59387 0.59178 0.948 0.0
C952 C 0.62589 0.62611 0.94836 0.0
C953 C 0.89272 0.84463 0.70217 0.0
C954 C 0.88661 0.81251 0.72091 0.0
C955 C 0.86091 0.87811 0.70329 0.0
C956 C 0.82163 0.88098 0.72325 0.0
H957 H 0.923 0.84477 0.68724 0.0
H958 H 0.86784 0.90263 0.68904 0.0
S959 S 0.78871 0.80401 0.77624 0.0
N960 N 0.83746 0.78471 0.75917 0.0
N961 N 0.77759 0.84763 0.76128 0.0
C962 C 0.81419 0.84803 0.7411 0.0
C963 C 0.84666 0.81381 0.73991 0.0
C964 C 0.47834 0.16334 0.60926 0.0
C965 C 0.48718 0.15289 0.64079 0.0
C966 C 0.47801 0.12962 0.57754 0.0
C967 C 0.48779 0.0847 0.57632 0.0
H968 H 0.47121 0.19762 0.60919 0.0
H969 H 0.47099 0.13898 0.55374 0.0
S970 S 0.51548 0.0411 0.65199 0.0
N971 N 0.5069 0.09525 0.66913 0.0
N972 N 0.50736 0.03211 0.60964 0.0
C973 C 0.49731 0.0742 0.6078 0.0
C974 C 0.49672 0.10827 0.64003 0.0
C975 C 0.54521 0.34607 0.84568 0.0
C976 C 0.50515 0.33148 0.82752 0.0
C977 C 0.54468 0.37855 0.87807 0.0
C978 C 0.50423 0.39842 0.89246 0.0
H979 H 0.57694 0.33175 0.83508 0.0
H980 H 0.57607 0.38863 0.8917 0.0
S981 S 0.39059 0.37246 0.85425 0.0
N982 N 0.42424 0.33917 0.82588 0.0
N983 N 0.42332 0.40137 0.88596 0.0
C984 C 0.46412 0.38456 0.87412 0.0
C985 C 0.46456 0.35073 0.84179 0.0
C986 C 0.50774 0.87804 0.3278 0.0
C987 C 0.5071 0.83231 0.32694 0.0
C988 C 0.5056 0.91146 0.35955 0.0
C989 C 0.50411 0.9001 0.39137 0.0
H990 H 0.50862 0.88803 0.30374 0.0
H991 H 0.50554 0.94636 0.35923 0.0
S992 S 0.50264 0.7852 0.40311 0.0
N993 N 0.50479 0.77737 0.36045 0.0
N994 N 0.50233 0.84012 0.42019 0.0
C995 C 0.50424 0.8545 0.39084 0.0
C996 C 0.50531 0.82058 0.35857 0.0
C997 C 0.4819 0.62309 0.08053 0.0
C998 C 0.48752 0.57761 0.07957 0.0
C999 C 0.48232 0.65664 0.11222 0.0
C1000 C 0.48699 0.64566 0.14399 0.0
H1001 H 0.47823 0.63297 0.05657 0.0
H1002 H 0.47867 0.69135 0.11188 0.0
S1003 S 0.50276 0.53189 0.15581 0.0
N1004 N 0.49852 0.52352 0.11316 0.0
N1005 N 0.49767 0.58656 0.17286 0.0
C1006 C 0.492 0.60037 0.1435 0.0
C1007 C 0.49273 0.56631 0.11122 0.0
loop_
_geom_bond_atom_site_label_1
_geom_bond_atom_site_label_2
_geom_bond_distance
_geom_bond_site_symmetry_2
_ccdc_geom_bond_type
Co0 N5 2.057 . S
Co0 O17 2.021 1_545 S
Co0 O20 2.062 1_545 S
Co0 O24 2.117 1_556 S
Co0 O25 2.020 1_655 S
C1 O21 1.259 1_655 S
C1 O24 1.258 . S
Co2 N11 2.057 . S
Co2 O18 2.117 1_554 S
Co2 O19 2.020 1_455 S
Co2 O21 2.021 1_565 S
Co2 O26 2.062 1_565 S
C3 N5 1.316 . S
C3 N6 1.347 . S
C3 H8 0.931 . S
C4 N5 1.375 . S
C4 C7 1.350 . S
C4 H9 0.930 . S
N5 Co0 2.057 . S
N5 C3 1.316 . S
N5 C4 1.375 . S
N6 C3 1.347 . S
N6 C7 1.373 . S
C7 C4 1.350 . S
C7 N6 1.373 . S
C7 H28 0.931 . S
H8 C3 0.931 . S
H9 C4 0.930 . S
C10 O17 1.259 1_455 S
C10 O18 1.258 . S
N11 Co2 2.057 . S
N11 C12 1.316 . S
N11 C13 1.375 . S
C12 N11 1.316 . S
C12 N14 1.347 . S
C12 H23 0.931 . S
C13 N11 1.375 . S
C13 C15 1.350 . S
C13 H22 0.930 . S
N14 C12 1.347 . S
N14 C15 1.373 . S
C15 C13 1.350 . S
C15 N14 1.373 . S
C15 H29 0.931 . S
C16 O19 1.256 . S
C16 O20 1.255 1_554 S
O17 Co0 2.021 1_565 S
O17 C10 1.259 1_655 S
O18 Co2 2.117 1_556 S
O18 C10 1.258 . S
O19 Co2 2.020 1_655 S
O19 C16 1.256 . S
O20 Co0 2.062 1_565 S
O20 C16 1.255 1_556 S
O21 C1 1.259 1_455 S
O21 Co2 2.021 1_545 S
H22 C13 0.930 . S
H23 C12 0.931 . S
O24 Co0 2.117 1_554 S
O24 C1 1.258 . S
O25 Co0 2.020 1_455 S
O25 C27 1.256 . S
O26 Co2 2.062 1_545 S
O26 C27 1.255 1_554 S
C27 O25 1.256 . S
C27 O26 1.255 1_556 S
H28 C7 0.931 . S
H29 C15 0.931 . S
Co30 N35 2.057 . S
Co30 O47 2.021 . S
Co30 O50 2.062 . S
Co30 O54 2.117 1_455 S
Co30 O55 2.020 . S
C31 O51 1.259 . S
C31 O54 1.258 . S
Co32 N41 2.057 . S
Co32 O48 2.117 1_655 S
Co32 O49 2.020 . S
Co32 O51 2.021 . S
Co32 O56 2.062 . S
C33 N35 1.316 . S
C33 N36 1.347 . S
C33 H38 0.931 . S
C34 N35 1.375 . S
C34 C37 1.350 . S
C34 H39 0.930 . S
N35 Co30 2.057 . S
N35 C33 1.316 . S
N35 C34 1.375 . S
N36 C33 1.347 . S
N36 C37 1.373 . S
C37 C34 1.350 . S
C37 N36 1.373 . S
C37 H58 0.931 . S
H38 C33 0.931 . S
H39 C34 0.930 . S
C40 O47 1.259 . S
C40 O48 1.258 . S
N41 Co32 2.057 . S
N41 C42 1.316 . S
N41 C43 1.375 . S
C42 N41 1.316 . S
C42 N44 1.347 . S
C42 H53 0.931 . S
C43 N41 1.375 . S
C43 C45 1.350 . S
C43 H52 0.930 . S
N44 C42 1.347 . S
N44 C45 1.373 . S
C45 C43 1.350 . S
C45 N44 1.373 . S
C45 H59 0.931 . S
C46 O49 1.256 . S
C46 O50 1.255 1_655 S
O47 Co30 2.021 . S
O47 C40 1.259 . S
O48 Co32 2.117 1_455 S
O48 C40 1.258 . S
O49 Co32 2.020 . S
O49 C46 1.256 . S
O50 Co30 2.062 . S
O50 C46 1.255 1_455 S
O51 C31 1.259 . S
O51 Co32 2.021 . S
H52 C43 0.930 . S
H53 C42 0.931 . S
O54 Co30 2.117 1_655 S
O54 C31 1.258 . S
O55 Co30 2.020 . S
O55 C57 1.256 . S
O56 Co32 2.062 . S
O56 C57 1.255 1_655 S
C57 O55 1.256 . S
C57 O56 1.255 1_455 S
H58 C37 0.931 . S
H59 C45 0.931 . S
Co60 N65 2.057 . S
Co60 O77 2.021 . S
Co60 O80 2.062 . S
Co60 O84 2.117 . S
Co60 O85 2.020 . S
C61 O81 1.259 . S
C61 O84 1.258 . S
Co62 N71 2.057 . S
Co62 O78 2.117 . S
Co62 O79 2.020 . S
Co62 O81 2.021 . S
Co62 O86 2.062 . S
C63 N65 1.316 . S
C63 N66 1.347 . S
C63 H68 0.931 . S
C64 N65 1.375 . S
C64 C67 1.350 . S
C64 H69 0.930 . S
N65 Co60 2.057 . S
N65 C63 1.316 . S
N65 C64 1.375 . S
N66 C63 1.347 . S
N66 C67 1.373 . S
C67 C64 1.350 . S
C67 N66 1.373 . S
C67 H88 0.931 . S
H68 C63 0.931 . S
H69 C64 0.930 . S
C70 O77 1.259 . S
C70 O78 1.258 . S
N71 Co62 2.057 . S
N71 C72 1.316 . S
N71 C73 1.375 . S
C72 N71 1.316 . S
C72 N74 1.347 . S
C72 H83 0.931 . S
C73 N71 1.375 . S
C73 C75 1.350 . S
C73 H82 0.930 . S
N74 C72 1.347 . S
N74 C75 1.373 . S
C75 C73 1.350 . S
C75 N74 1.373 . S
C75 H89 0.931 . S
C76 O79 1.256 . S
C76 O80 1.255 . S
O77 Co60 2.021 . S
O77 C70 1.259 . S
O78 Co62 2.117 . S
O78 C70 1.258 . S
O79 Co62 2.020 . S
O79 C76 1.256 . S
O80 Co60 2.062 . S
O80 C76 1.255 . S
O81 C61 1.259 . S
O81 Co62 2.021 . S
H82 C73 0.930 . S
H83 C72 0.931 . S
O84 Co60 2.117 . S
O84 C61 1.258 . S
O85 Co60 2.020 . S
O85 C87 1.256 . S
O86 Co62 2.062 . S
O86 C87 1.255 . S
C87 O85 1.256 . S
C87 O86 1.255 . S
H88 C67 0.931 . S
H89 C75 0.931 . S
Co90 N95 2.057 . S
Co90 O107 2.021 . S
Co90 O110 2.061 . S
Co90 O114 2.117 1_565 S
Co90 O115 2.020 . S
C91 O111 1.259 . S
C91 O114 1.258 . S
Co92 N101 2.057 . S
Co92 O108 2.117 1_545 S
Co92 O109 2.020 . S
Co92 O111 2.021 . S
Co92 O116 2.063 . S
C93 N95 1.316 . S
C93 N96 1.347 . S
C93 H98 0.931 . S
C94 N95 1.375 . S
C94 C97 1.350 . S
C94 H99 0.930 . S
N95 Co90 2.057 . S
N95 C93 1.316 . S
N95 C94 1.375 . S
N96 C93 1.347 . S
N96 C97 1.373 . S
C97 C94 1.350 . S
C97 N96 1.373 . S
C97 H118 0.931 . S
H98 C93 0.931 . S
H99 C94 0.930 . S
C100 O107 1.259 . S
C100 O108 1.258 . S
N101 Co92 2.057 . S
N101 C102 1.316 . S
N101 C103 1.375 . S
C102 N101 1.316 . S
C102 N104 1.347 . S
C102 H113 0.931 . S
C103 N101 1.375 . S
C103 C105 1.350 . S
C103 H112 0.930 . S
N104 C102 1.347 . S
N104 C105 1.373 . S
C105 C103 1.350 . S
C105 N104 1.373 . S
C105 H119 0.931 . S
C106 O109 1.256 . S
C106 O110 1.255 1_545 S
O107 Co90 2.021 . S
O107 C100 1.259 . S
O108 Co92 2.117 1_565 S
O108 C100 1.258 . S
O109 Co92 2.020 . S
O109 C106 1.256 . S
O110 Co90 2.061 . S
O110 C106 1.255 1_565 S
O111 C91 1.259 . S
O111 Co92 2.021 . S
H112 C103 0.930 . S
H113 C102 0.931 . S
O114 Co90 2.117 1_545 S
O114 C91 1.258 . S
O115 Co90 2.020 . S
O115 C117 1.256 . S
O116 Co92 2.063 . S
O116 C117 1.250 1_545 S
C117 O115 1.256 . S
C117 O116 1.250 1_565 S
H118 C97 0.931 . S
H119 C105 0.931 . S
Co120 N125 2.057 . S
Co120 O137 2.021 . S
Co120 O140 2.062 . S
Co120 O144 2.117 . S
Co120 O145 2.020 . S
C121 O141 1.259 . S
C121 O144 1.258 . S
Co122 N131 2.057 . S
Co122 O138 2.117 . S
Co122 O139 2.020 . S
Co122 O141 2.021 . S
Co122 O146 2.062 . S
C123 N125 1.316 . S
C123 N126 1.347 . S
C123 H128 0.931 . S
C124 N125 1.375 . S
C124 C127 1.350 . S
C124 H129 0.930 . S
N125 Co120 2.057 . S
N125 C123 1.316 . S
N125 C124 1.375 . S
N126 C123 1.347 . S
N126 C127 1.373 . S
C127 C124 1.350 . S
C127 N126 1.373 . S
C127 H148 0.931 . S
H128 C123 0.931 . S
H129 C124 0.930 . S
C130 O137 1.259 . S
C130 O138 1.258 . S
N131 Co122 2.057 . S
N131 C132 1.316 . S
N131 C133 1.375 . S
C132 N131 1.316 . S
C132 N134 1.347 . S
C132 H143 0.931 . S
C133 N131 1.375 . S
C133 C135 1.350 . S
C133 H142 0.930 . S
N134 C132 1.347 . S
N134 C135 1.373 . S
C135 C133 1.350 . S
C135 N134 1.373 . S
C135 H149 0.931 . S
C136 O139 1.256 . S
C136 O140 1.255 . S
O137 Co120 2.021 . S
O137 C130 1.259 . S
O138 Co122 2.117 . S
O138 C130 1.258 . S
O139 Co122 2.020 . S
O139 C136 1.256 . S
O140 Co120 2.062 . S
O140 C136 1.255 . S
O141 C121 1.259 . S
O141 Co122 2.021 . S
H142 C133 0.930 . S
H143 C132 0.931 . S
O144 Co120 2.117 . S
O144 C121 1.258 . S
O145 Co120 2.020 . S
O145 C147 1.256 . S
O146 Co122 2.062 . S
O146 C147 1.255 . S
C147 O145 1.256 . S
C147 O146 1.255 . S
H148 C127 0.931 . S
H149 C135 0.931 . S
Co150 N155 2.057 . S
Co150 O167 2.021 . S
Co150 O170 2.062 . S
Co150 O174 2.117 . S
Co150 O175 2.020 . S
C151 O171 1.259 . S
C151 O174 1.258 . S
Co152 N161 2.057 . S
Co152 O168 2.117 . S
Co152 O169 2.020 . S
Co152 O171 2.021 . S
Co152 O176 2.062 . S
C153 N155 1.316 . S
C153 N156 1.347 . S
C153 H158 0.931 . S
C154 N155 1.375 . S
C154 C157 1.350 . S
C154 H159 0.930 . S
N155 Co150 2.057 . S
N155 C153 1.316 . S
N155 C154 1.375 . S
N156 C153 1.347 . S
N156 C157 1.373 . S
C157 C154 1.350 . S
C157 N156 1.373 . S
C157 H178 0.931 . S
H158 C153 0.931 . S
H159 C154 0.930 . S
C160 O167 1.259 . S
C160 O168 1.258 . S
N161 Co152 2.057 . S
N161 C162 1.316 . S
N161 C163 1.375 . S
C162 N161 1.316 . S
C162 N164 1.347 . S
C162 H173 0.931 . S
C163 N161 1.375 . S
C163 C165 1.350 . S
C163 H172 0.930 . S
N164 C162 1.347 . S
N164 C165 1.373 . S
C165 C163 1.350 . S
C165 N164 1.373 . S
C165 H179 0.931 . S
C166 O169 1.256 . S
C166 O170 1.255 . S
O167 Co150 2.021 . S
O167 C160 1.259 . S
O168 Co152 2.117 . S
O168 C160 1.258 . S
O169 Co152 2.020 . S
O169 C166 1.256 . S
O170 Co150 2.062 . S
O170 C166 1.255 . S
O171 C151 1.259 . S
O171 Co152 2.021 . S
H172 C163 0.930 . S
H173 C162 0.931 . S
O174 Co150 2.117 . S
O174 C151 1.258 . S
O175 Co150 2.020 . S
O175 C177 1.256 . S
O176 Co152 2.062 . S
O176 C177 1.255 . S
C177 O175 1.256 . S
C177 O176 1.255 . S
H178 C157 0.931 . S
H179 C165 0.931 . S
Co180 N185 2.057 . S
Co180 O197 2.021 . S
Co180 O200 2.062 . S
Co180 O204 2.117 . S
Co180 O205 2.020 . S
C181 O201 1.259 . S
C181 O204 1.258 . S
Co182 N191 2.057 . S
Co182 O198 2.117 . S
Co182 O199 2.020 . S
Co182 O201 2.021 . S
Co182 O206 2.062 . S
C183 N185 1.316 . S
C183 N186 1.347 . S
C183 H188 0.931 . S
C184 N185 1.375 . S
C184 C187 1.350 . S
C184 H189 0.930 . S
N185 Co180 2.057 . S
N185 C183 1.316 . S
N185 C184 1.375 . S
N186 C183 1.347 . S
N186 C187 1.373 . S
C187 C184 1.350 . S
C187 N186 1.373 . S
C187 H208 0.931 . S
H188 C183 0.931 . S
H189 C184 0.930 . S
C190 O197 1.259 . S
C190 O198 1.258 . S
N191 Co182 2.057 . S
N191 C192 1.316 . S
N191 C193 1.375 . S
C192 N191 1.316 . S
C192 N194 1.347 . S
C192 H203 0.931 . S
C193 N191 1.375 . S
C193 C195 1.350 . S
C193 H202 0.930 . S
N194 C192 1.347 . S
N194 C195 1.373 . S
C195 C193 1.350 . S
C195 N194 1.373 . S
C195 H209 0.931 . S
C196 O199 1.256 . S
C196 O200 1.255 . S
O197 Co180 2.021 . S
O197 C190 1.259 . S
O198 Co182 2.117 . S
O198 C190 1.258 . S
O199 Co182 2.020 . S
O199 C196 1.256 . S
O200 Co180 2.062 . S
O200 C196 1.255 . S
O201 C181 1.259 . S
O201 Co182 2.021 . S
H202 C193 0.930 . S
H203 C192 0.931 . S
O204 Co180 2.117 . S
O204 C181 1.258 . S
O205 Co180 2.020 . S
O205 C207 1.256 . S
O206 Co182 2.062 . S
O206 C207 1.255 . S
C207 O205 1.256 . S
C207 O206 1.255 . S
H208 C187 0.931 . S
H209 C195 0.931 . S
Co210 N215 2.057 . S
Co210 O227 2.021 . S
Co210 O230 2.062 . S
Co210 O234 2.117 . S
Co210 O235 2.020 1_655 S
C211 O231 1.259 1_655 S
C211 O234 1.258 . S
Co212 N221 2.057 . S
Co212 O228 2.117 . S
Co212 O229 2.020 1_455 S
Co212 O231 2.021 . S
Co212 O236 2.062 . S
C213 N215 1.316 . S
C213 N216 1.347 . S
C213 H218 0.931 . S
C214 N215 1.375 . S
C214 C217 1.350 . S
C214 H219 0.930 . S
N215 Co210 2.057 . S
N215 C213 1.316 . S
N215 C214 1.375 . S
N216 C213 1.347 . S
N216 C217 1.373 . S
C217 C214 1.350 . S
C217 N216 1.373 . S
C217 H238 0.931 . S
H218 C213 0.931 . S
H219 C214 0.930 . S
C220 O227 1.259 1_455 S
C220 O228 1.258 . S
N221 Co212 2.057 . S
N221 C222 1.316 . S
N221 C223 1.375 . S
C222 N221 1.316 . S
C222 N224 1.347 . S
C222 H233 0.931 . S
C223 N221 1.375 . S
C223 C225 1.350 . S
C223 H232 0.930 . S
N224 C222 1.347 . S
N224 C225 1.373 . S
C225 C223 1.350 . S
C225 N224 1.373 . S
C225 H239 0.931 . S
C226 O229 1.256 . S
C226 O230 1.255 . S
O227 Co210 2.021 . S
O227 C220 1.259 1_655 S
O228 Co212 2.117 . S
O228 C220 1.258 . S
O229 Co212 2.020 1_655 S
O229 C226 1.256 . S
O230 Co210 2.062 . S
O230 C226 1.255 . S
O231 C211 1.259 1_455 S
O231 Co212 2.021 . S
H232 C223 0.930 . S
H233 C222 0.931 . S
O234 Co210 2.117 . S
O234 C211 1.258 . S
O235 Co210 2.020 1_455 S
O235 C237 1.256 . S
O236 Co212 2.062 . S
O236 C237 1.255 . S
C237 O235 1.256 . S
C237 O236 1.255 . S
H238 C217 0.931 . S
H239 C225 0.931 . S
Co240 N245 2.057 . S
Co240 O257 2.021 . S
Co240 O260 2.062 . S
Co240 O264 2.117 1_554 S
Co240 O265 2.020 . S
C241 O261 1.259 . S
C241 O264 1.258 . S
Co242 N251 2.057 . S
Co242 O258 2.117 1_556 S
Co242 O259 2.020 . S
Co242 O261 2.021 . S
Co242 O266 2.062 . S
C243 N245 1.316 . S
C243 N246 1.347 . S
C243 H248 0.931 . S
C244 N245 1.375 . S
C244 C247 1.350 . S
C244 H249 0.930 . S
N245 Co240 2.057 . S
N245 C243 1.316 . S
N245 C244 1.375 . S
N246 C243 1.347 . S
N246 C247 1.373 . S
C247 C244 1.350 . S
C247 N246 1.373 . S
C247 H268 0.931 . S
H248 C243 0.931 . S
H249 C244 0.930 . S
C250 O257 1.259 . S
C250 O258 1.258 . S
N251 Co242 2.057 . S
N251 C252 1.316 . S
N251 C253 1.375 . S
C252 N251 1.316 . S
C252 N254 1.347 . S
C252 H263 0.931 . S
C253 N251 1.375 . S
C253 C255 1.350 . S
C253 H262 0.930 . S
N254 C252 1.347 . S
N254 C255 1.373 . S
C255 C253 1.350 . S
C255 N254 1.373 . S
C255 H269 0.931 . S
C256 O259 1.256 . S
C256 O260 1.255 1_556 S
O257 Co240 2.021 . S
O257 C250 1.259 . S
O258 Co242 2.117 1_554 S
O258 C250 1.258 . S
O259 Co242 2.020 . S
O259 C256 1.256 . S
O260 Co240 2.062 . S
O260 C256 1.255 1_554 S
O261 C241 1.259 . S
O261 Co242 2.021 . S
H262 C253 0.930 . S
H263 C252 0.931 . S
O264 Co240 2.117 1_556 S
O264 C241 1.258 . S
O265 Co240 2.020 . S
O265 C267 1.256 . S
O266 Co242 2.062 . S
O266 C267 1.255 1_556 S
C267 O265 1.256 . S
C267 O266 1.255 1_554 S
H268 C247 0.931 . S
H269 C255 0.931 . S
Co270 N275 2.057 . S
Co270 O287 2.021 . S
Co270 O290 2.061 . S
Co270 O294 2.117 1_565 S
Co270 O295 2.020 . S
C271 O291 1.259 . S
C271 O294 1.258 . S
Co272 N281 2.057 . S
Co272 O288 2.117 1_545 S
Co272 O289 2.020 . S
Co272 O291 2.021 . S
Co272 O296 2.063 . S
C273 N275 1.316 . S
C273 N276 1.347 . S
C273 H278 0.931 . S
C274 N275 1.375 . S
C274 C277 1.350 . S
C274 H279 0.930 . S
N275 Co270 2.057 . S
N275 C273 1.316 . S
N275 C274 1.375 . S
N276 C273 1.347 . S
N276 C277 1.373 . S
C277 C274 1.350 . S
C277 N276 1.373 . S
C277 H298 0.931 . S
H278 C273 0.931 . S
H279 C274 0.930 . S
C280 O287 1.259 . S
C280 O288 1.258 . S
N281 Co272 2.057 . S
N281 C282 1.316 . S
N281 C283 1.375 . S
C282 N281 1.316 . S
C282 N284 1.347 . S
C282 H293 0.931 . S
C283 N281 1.375 . S
C283 C285 1.350 . S
C283 H292 0.930 . S
N284 C282 1.347 . S
N284 C285 1.373 . S
C285 C283 1.350 . S
C285 N284 1.373 . S
C285 H299 0.931 . S
C286 O289 1.256 . S
C286 O290 1.255 1_545 S
O287 Co270 2.021 . S
O287 C280 1.259 . S
O288 Co272 2.117 1_565 S
O288 C280 1.258 . S
O289 Co272 2.020 . S
O289 C286 1.256 . S
O290 Co270 2.061 . S
O290 C286 1.255 1_565 S
O291 C271 1.259 . S
O291 Co272 2.021 . S
H292 C283 0.930 . S
H293 C282 0.931 . S
O294 Co270 2.117 1_545 S
O294 C271 1.258 . S
O295 Co270 2.020 . S
O295 C297 1.256 . S
O296 Co272 2.063 . S
O296 C297 1.250 1_545 S
C297 O295 1.256 . S
C297 O296 1.250 1_565 S
H298 C277 0.931 . S
H299 C285 0.931 . S
Co300 N305 2.057 . S
Co300 O317 2.021 . S
Co300 O320 2.062 . S
Co300 O324 2.117 . S
Co300 O325 2.020 . S
C301 O321 1.259 . S
C301 O324 1.258 . S
Co302 N311 2.057 . S
Co302 O318 2.117 . S
Co302 O319 2.020 . S
Co302 O321 2.021 . S
Co302 O326 2.062 . S
C303 N305 1.316 . S
C303 N306 1.347 . S
C303 H308 0.931 . S
C304 N305 1.375 . S
C304 C307 1.350 . S
C304 H309 0.930 . S
N305 Co300 2.057 . S
N305 C303 1.316 . S
N305 C304 1.375 . S
N306 C303 1.347 . S
N306 C307 1.373 . S
C307 C304 1.350 . S
C307 N306 1.373 . S
C307 H328 0.931 . S
H308 C303 0.931 . S
H309 C304 0.930 . S
C310 O317 1.259 . S
C310 O318 1.258 . S
N311 Co302 2.057 . S
N311 C312 1.316 . S
N311 C313 1.375 . S
C312 N311 1.316 . S
C312 N314 1.347 . S
C312 H323 0.931 . S
C313 N311 1.375 . S
C313 C315 1.350 . S
C313 H322 0.930 . S
N314 C312 1.347 . S
N314 C315 1.373 . S
C315 C313 1.350 . S
C315 N314 1.373 . S
C315 H329 0.931 . S
C316 O319 1.256 . S
C316 O320 1.255 . S
O317 Co300 2.021 . S
O317 C310 1.259 . S
O318 Co302 2.117 . S
O318 C310 1.258 . S
O319 Co302 2.020 . S
O319 C316 1.256 . S
O320 Co300 2.062 . S
O320 C316 1.255 . S
O321 C301 1.259 . S
O321 Co302 2.021 . S
H322 C313 0.930 . S
H323 C312 0.931 . S
O324 Co300 2.117 . S
O324 C301 1.258 . S
O325 Co300 2.020 . S
O325 C327 1.256 . S
O326 Co302 2.062 . S
O326 C327 1.255 . S
C327 O325 1.256 . S
C327 O326 1.255 . S
H328 C307 0.931 . S
H329 C315 0.931 . S
Co330 N335 2.057 . S
Co330 O347 2.021 . S
Co330 O350 2.062 . S
Co330 O354 2.117 1_455 S
Co330 O355 2.020 . S
C331 O351 1.259 . S
C331 O354 1.258 . S
Co332 N341 2.057 . S
Co332 O348 2.117 1_655 S
Co332 O349 2.020 . S
Co332 O351 2.021 . S
Co332 O356 2.062 . S
C333 N335 1.316 . S
C333 N336 1.347 . S
C333 H338 0.931 . S
C334 N335 1.375 . S
C334 C337 1.350 . S
C334 H339 0.930 . S
N335 Co330 2.057 . S
N335 C333 1.316 . S
N335 C334 1.375 . S
N336 C333 1.347 . S
N336 C337 1.373 . S
C337 C334 1.350 . S
C337 N336 1.373 . S
C337 H358 0.931 . S
H338 C333 0.931 . S
H339 C334 0.930 . S
C340 O347 1.259 . S
C340 O348 1.258 . S
N341 Co332 2.057 . S
N341 C342 1.316 . S
N341 C343 1.375 . S
C342 N341 1.316 . S
C342 N344 1.347 . S
C342 H353 0.931 . S
C343 N341 1.375 . S
C343 C345 1.350 . S
C343 H352 0.930 . S
N344 C342 1.347 . S
N344 C345 1.373 . S
C345 C343 1.350 . S
C345 N344 1.373 . S
C345 H359 0.931 . S
C346 O349 1.256 . S
C346 O350 1.255 1_655 S
O347 Co330 2.021 . S
O347 C340 1.259 . S
O348 Co332 2.117 1_455 S
O348 C340 1.258 . S
O349 Co332 2.020 . S
O349 C346 1.256 . S
O350 Co330 2.062 . S
O350 C346 1.255 1_455 S
O351 C331 1.259 . S
O351 Co332 2.021 . S
H352 C343 0.930 . S
H353 C342 0.931 . S
O354 Co330 2.117 1_655 S
O354 C331 1.258 . S
O355 Co330 2.020 . S
O355 C357 1.256 . S
O356 Co332 2.062 . S
O356 C357 1.255 1_655 S
C357 O355 1.256 . S
C357 O356 1.255 1_455 S
H358 C337 0.931 . S
H359 C345 0.931 . S
Co360 N365 2.057 . S
Co360 O377 2.021 . S
Co360 O380 2.062 . S
Co360 O384 2.117 . S
Co360 O385 2.020 . S
C361 O381 1.259 . S
C361 O384 1.258 . S
Co362 N371 2.057 . S
Co362 O378 2.117 . S
Co362 O379 2.020 . S
Co362 O381 2.021 . S
Co362 O386 2.062 . S
C363 N365 1.316 . S
C363 N366 1.347 . S
C363 H368 0.931 . S
C364 N365 1.375 . S
C364 C367 1.350 . S
C364 H369 0.930 . S
N365 Co360 2.057 . S
N365 C363 1.316 . S
N365 C364 1.375 . S
N366 C363 1.347 . S
N366 C367 1.373 . S
C367 C364 1.350 . S
C367 N366 1.373 . S
C367 H388 0.931 . S
H368 C363 0.931 . S
H369 C364 0.930 . S
C370 O377 1.259 . S
C370 O378 1.258 . S
N371 Co362 2.057 . S
N371 C372 1.316 . S
N371 C373 1.375 . S
C372 N371 1.316 . S
C372 N374 1.347 . S
C372 H383 0.931 . S
C373 N371 1.375 . S
C373 C375 1.350 . S
C373 H382 0.930 . S
N374 C372 1.347 . S
N374 C375 1.373 . S
C375 C373 1.350 . S
C375 N374 1.373 . S
C375 H389 0.931 . S
C376 O379 1.256 . S
C376 O380 1.255 . S
O377 Co360 2.021 . S
O377 C370 1.259 . S
O378 Co362 2.117 . S
O378 C370 1.258 . S
O379 Co362 2.020 . S
O379 C376 1.256 . S
O380 Co360 2.062 . S
O380 C376 1.255 . S
O381 C361 1.259 . S
O381 Co362 2.021 . S
H382 C373 0.930 . S
H383 C372 0.931 . S
O384 Co360 2.117 . S
O384 C361 1.258 . S
O385 Co360 2.020 . S
O385 C387 1.256 . S
O386 Co362 2.062 . S
O386 C387 1.255 . S
C387 O385 1.256 . S
C387 O386 1.255 . S
H388 C367 0.931 . S
H389 C375 0.931 . S
Co390 N395 2.057 . S
Co390 O407 2.021 . S
Co390 O410 2.062 . S
Co390 O414 2.117 1_554 S
Co390 O415 2.020 . S
C391 O411 1.259 . S
C391 O414 1.258 . S
Co392 N401 2.057 . S
Co392 O408 2.117 1_556 S
Co392 O409 2.020 . S
Co392 O411 2.021 . S
Co392 O416 2.062 . S
C393 N395 1.316 . S
C393 N396 1.347 . S
C393 H398 0.931 . S
C394 N395 1.375 . S
C394 C397 1.350 . S
C394 H399 0.930 . S
N395 Co390 2.057 . S
N395 C393 1.316 . S
N395 C394 1.375 . S
N396 C393 1.347 . S
N396 C397 1.373 . S
C397 C394 1.350 . S
C397 N396 1.373 . S
C397 H418 0.931 . S
H398 C393 0.931 . S
H399 C394 0.930 . S
C400 O407 1.259 . S
C400 O408 1.258 . S
N401 Co392 2.057 . S
N401 C402 1.316 . S
N401 C403 1.375 . S
C402 N401 1.316 . S
C402 N404 1.347 . S
C402 H413 0.931 . S
C403 N401 1.375 . S
C403 C405 1.350 . S
C403 H412 0.930 . S
N404 C402 1.347 . S
N404 C405 1.373 . S
C405 C403 1.350 . S
C405 N404 1.373 . S
C405 H419 0.931 . S
C406 O409 1.256 . S
C406 O410 1.255 1_556 S
O407 Co390 2.021 . S
O407 C400 1.259 . S
O408 Co392 2.117 1_554 S
O408 C400 1.258 . S
O409 Co392 2.020 . S
O409 C406 1.256 . S
O410 Co390 2.062 . S
O410 C406 1.255 1_554 S
O411 C391 1.259 . S
O411 Co392 2.021 . S
H412 C403 0.930 . S
H413 C402 0.931 . S
O414 Co390 2.117 1_556 S
O414 C391 1.258 . S
O415 Co390 2.020 . S
O415 C417 1.256 . S
O416 Co392 2.062 . S
O416 C417 1.255 1_556 S
C417 O415 1.256 . S
C417 O416 1.255 1_554 S
H418 C397 0.931 . S
H419 C405 0.931 . S
Co420 N425 2.057 . S
Co420 O437 2.021 1_545 S
Co420 O440 2.062 1_545 S
Co420 O444 2.117 . S
Co420 O445 2.020 . S
C421 O441 1.259 . S
C421 O444 1.258 . S
Co422 N431 2.057 . S
Co422 O438 2.117 . S
Co422 O439 2.020 . S
Co422 O441 2.021 1_565 S
Co422 O446 2.062 1_565 S
C423 N425 1.316 . S
C423 N426 1.347 . S
C423 H428 0.931 . S
C424 N425 1.375 . S
C424 C427 1.350 . S
C424 H429 0.930 . S
N425 Co420 2.057 . S
N425 C423 1.316 . S
N425 C424 1.375 . S
N426 C423 1.347 . S
N426 C427 1.373 . S
C427 C424 1.350 . S
C427 N426 1.373 . S
C427 H448 0.931 . S
H428 C423 0.931 . S
H429 C424 0.930 . S
C430 O437 1.259 . S
C430 O438 1.258 . S
N431 Co422 2.057 . S
N431 C432 1.316 . S
N431 C433 1.375 . S
C432 N431 1.316 . S
C432 N434 1.347 . S
C432 H443 0.931 . S
C433 N431 1.375 . S
C433 C435 1.350 . S
C433 H442 0.930 . S
N434 C432 1.347 . S
N434 C435 1.373 . S
C435 C433 1.350 . S
C435 N434 1.373 . S
C435 H449 0.931 . S
C436 O439 1.256 . S
C436 O440 1.255 . S
O437 Co420 2.021 1_565 S
O437 C430 1.259 . S
O438 Co422 2.117 . S
O438 C430 1.258 . S
O439 Co422 2.020 . S
O439 C436 1.256 . S
O440 Co420 2.062 1_565 S
O440 C436 1.255 . S
O441 C421 1.259 . S
O441 Co422 2.021 1_545 S
H442 C433 0.930 . S
H443 C432 0.931 . S
O444 Co420 2.117 . S
O444 C421 1.258 . S
O445 Co420 2.020 . S
O445 C447 1.256 . S
O446 Co422 2.062 1_545 S
O446 C447 1.255 . S
C447 O445 1.256 . S
C447 O446 1.255 . S
H448 C427 0.931 . S
H449 C435 0.931 . S
Co450 N455 2.057 . S
Co450 O467 2.021 . S
Co450 O470 2.062 . S
Co450 O474 2.117 1_556 S
Co450 O475 2.020 . S
C451 O471 1.259 . S
C451 O474 1.258 . S
Co452 N461 2.057 . S
Co452 O468 2.117 1_554 S
Co452 O469 2.020 . S
Co452 O471 2.021 . S
Co452 O476 2.062 . S
C453 N455 1.316 . S
C453 N456 1.347 . S
C453 H458 0.931 . S
C454 N455 1.375 . S
C454 C457 1.350 . S
C454 H459 0.930 . S
N455 Co450 2.057 . S
N455 C453 1.316 . S
N455 C454 1.375 . S
N456 C453 1.347 . S
N456 C457 1.373 . S
C457 C454 1.350 . S
C457 N456 1.373 . S
C457 H478 0.931 . S
H458 C453 0.931 . S
H459 C454 0.930 . S
C460 O467 1.259 . S
C460 O468 1.258 . S
N461 Co452 2.057 . S
N461 C462 1.316 . S
N461 C463 1.375 . S
C462 N461 1.316 . S
C462 N464 1.347 . S
C462 H473 0.931 . S
C463 N461 1.375 . S
C463 C465 1.350 . S
C463 H472 0.930 . S
N464 C462 1.347 . S
N464 C465 1.373 . S
C465 C463 1.350 . S
C465 N464 1.373 . S
C465 H479 0.931 . S
C466 O469 1.256 . S
C466 O470 1.255 1_554 S
O467 Co450 2.021 . S
O467 C460 1.259 . S
O468 Co452 2.117 1_556 S
O468 C460 1.258 . S
O469 Co452 2.020 . S
O469 C466 1.256 . S
O470 Co450 2.062 . S
O470 C466 1.255 1_556 S
O471 C451 1.259 . S
O471 Co452 2.021 . S
H472 C463 0.930 . S
H473 C462 0.931 . S
O474 Co450 2.117 1_554 S
O474 C451 1.258 . S
O475 Co450 2.020 . S
O475 C477 1.256 . S
O476 Co452 2.062 . S
O476 C477 1.255 1_554 S
C477 O475 1.256 . S
C477 O476 1.255 1_556 S
H478 C457 0.931 . S
H479 C465 0.931 . S
C480 C481 1.369 1_455 S
C480 C482 1.419 . S
C480 H484 0.930 . S
C481 C480 1.369 1_655 S
C481 C490 1.429 . S
C482 C480 1.419 . S
C482 C483 1.363 1_455 S
C482 H485 0.929 . S
C483 C482 1.363 1_655 S
C483 C489 1.428 . S
H484 C480 0.930 . S
H485 C482 0.929 . S
S486 N487 1.613 . S
S486 N488 1.610 . S
N487 S486 1.613 . S
N487 C490 1.350 . S
N488 S486 1.610 . S
N488 C489 1.351 . S
C489 C483 1.428 . S
C489 N488 1.351 . S
C489 C490 1.434 . S
C490 C481 1.429 . S
C490 N487 1.350 . S
C490 C489 1.434 . S
C491 C492 1.369 . S
C491 C493 1.419 . S
C491 H495 0.930 . S
C492 C491 1.369 . S
C492 C501 1.429 . S
C493 C491 1.419 . S
C493 C494 1.363 . S
C493 H496 0.929 . S
C494 C493 1.363 . S
C494 C500 1.428 . S
H495 C491 0.930 . S
H496 C493 0.929 . S
S497 N498 1.613 . S
S497 N499 1.610 . S
N498 S497 1.613 . S
N498 C501 1.350 . S
N499 S497 1.610 . S
N499 C500 1.351 . S
C500 C494 1.428 . S
C500 N499 1.351 . S
C500 C501 1.434 . S
C501 C492 1.429 . S
C501 N498 1.350 . S
C501 C500 1.434 . S
C502 C503 1.369 . S
C502 C504 1.419 . S
C502 H506 0.930 . S
C503 C502 1.369 . S
C503 C512 1.429 . S
C504 C502 1.419 . S
C504 C505 1.363 . S
C504 H507 0.929 . S
C505 C504 1.363 . S
C505 C511 1.428 . S
H506 C502 0.930 . S
H507 C504 0.929 . S
S508 N509 1.613 . S
S508 N510 1.610 . S
N509 S508 1.613 . S
N509 C512 1.350 . S
N510 S508 1.610 . S
N510 C511 1.351 . S
C511 C505 1.428 . S
C511 N510 1.351 . S
C511 C512 1.434 . S
C512 C503 1.429 . S
C512 N509 1.350 . S
C512 C511 1.434 . S
C513 C514 1.369 . S
C513 C515 1.419 . S
C513 H517 0.930 . S
C514 C513 1.369 . S
C514 C523 1.429 . S
C515 C513 1.419 . S
C515 C516 1.363 . S
C515 H518 0.929 . S
C516 C515 1.363 . S
C516 C522 1.428 . S
H517 C513 0.930 . S
H518 C515 0.929 . S
S519 N520 1.613 . S
S519 N521 1.610 . S
N520 S519 1.613 . S
N520 C523 1.350 1_565 S
N521 S519 1.610 . S
N521 C522 1.351 1_565 S
C522 C516 1.428 . S
C522 N521 1.351 1_545 S
C522 C523 1.434 . S
C523 C514 1.429 . S
C523 N520 1.350 1_545 S
C523 C522 1.434 . S
C524 C525 1.369 . S
C524 C526 1.419 . S
C524 H528 0.930 . S
C525 C524 1.369 . S
C525 C534 1.429 . S
C526 C524 1.419 . S
C526 C527 1.363 . S
C526 H529 0.929 . S
C527 C526 1.363 . S
C527 C533 1.428 . S
H528 C524 0.930 . S
H529 C526 0.929 . S
S530 N531 1.613 1_545 S
S530 N532 1.612 . S
N531 S530 1.613 1_565 S
N531 C534 1.350 . S
N532 S530 1.612 . S
N532 C533 1.349 1_545 S
C533 C527 1.428 . S
C533 N532 1.349 1_565 S
C533 C534 1.434 . S
C534 C525 1.429 . S
C534 N531 1.350 . S
C534 C533 1.434 . S
C535 C536 1.369 1_655 S
C535 C537 1.419 . S
C535 H539 0.930 . S
C536 C535 1.369 1_455 S
C536 C545 1.429 . S
C537 C535 1.419 . S
C537 C538 1.363 1_655 S
C537 H540 0.929 . S
C538 C537 1.363 1_455 S
C538 C544 1.428 . S
H539 C535 0.930 . S
H540 C537 0.929 . S
S541 N542 1.613 . S
S541 N543 1.610 . S
N542 S541 1.613 . S
N542 C545 1.350 . S
N543 S541 1.610 . S
N543 C544 1.351 . S
C544 C538 1.428 . S
C544 N543 1.351 . S
C544 C545 1.434 . S
C545 C536 1.429 . S
C545 N542 1.350 . S
C545 C544 1.434 . S
C546 C547 1.369 . S
C546 C548 1.419 . S
C546 H550 0.930 . S
C547 C546 1.369 . S
C547 C556 1.429 . S
C548 C546 1.419 . S
C548 C549 1.363 . S
C548 H551 0.929 . S
C549 C548 1.363 . S
C549 C555 1.428 . S
H550 C546 0.930 . S
H551 C548 0.929 . S
S552 N553 1.613 . S
S552 N554 1.610 . S
N553 S552 1.613 . S
N553 C556 1.350 . S
N554 S552 1.610 . S
N554 C555 1.351 . S
C555 C549 1.428 . S
C555 N554 1.351 . S
C555 C556 1.434 . S
C556 C547 1.429 . S
C556 N553 1.350 . S
C556 C555 1.434 . S
C557 C558 1.369 . S
C557 C559 1.419 . S
C557 H561 0.930 . S
C558 C557 1.369 . S
C558 C567 1.429 . S
C559 C557 1.419 . S
C559 C560 1.363 . S
C559 H562 0.929 . S
C560 C559 1.363 . S
C560 C566 1.428 . S
H561 C557 0.930 . S
H562 C559 0.929 . S
S563 N564 1.613 . S
S563 N565 1.610 . S
N564 S563 1.613 . S
N564 C567 1.350 . S
N565 S563 1.610 . S
N565 C566 1.351 . S
C566 C560 1.428 . S
C566 N565 1.351 . S
C566 C567 1.434 . S
C567 C558 1.429 . S
C567 N564 1.350 . S
C567 C566 1.434 . S
C568 C569 1.369 . S
C568 C570 1.419 . S
C568 H572 0.930 . S
C569 C568 1.369 . S
C569 C578 1.429 . S
C570 C568 1.419 . S
C570 C571 1.363 . S
C570 H573 0.929 . S
C571 C570 1.363 . S
C571 C577 1.428 . S
H572 C568 0.930 . S
H573 C570 0.929 . S
S574 N575 1.613 . S
S574 N576 1.610 . S
N575 S574 1.613 . S
N575 C578 1.350 . S
N576 S574 1.610 . S
N576 C577 1.351 . S
C577 C571 1.428 . S
C577 N576 1.351 . S
C577 C578 1.434 . S
C578 C569 1.429 . S
C578 N575 1.350 . S
C578 C577 1.434 . S
C579 C580 1.369 . S
C579 C581 1.419 . S
C579 H583 0.930 . S
C580 C579 1.369 . S
C580 C589 1.429 . S
C581 C579 1.419 . S
C581 C582 1.363 . S
C581 H584 0.929 . S
C582 C581 1.363 . S
C582 C588 1.428 . S
H583 C579 0.930 . S
H584 C581 0.929 . S
S585 N586 1.613 . S
S585 N587 1.610 . S
N586 S585 1.613 . S
N586 C589 1.350 . S
N587 S585 1.610 . S
N587 C588 1.351 . S
C588 C582 1.428 . S
C588 N587 1.351 . S
C588 C589 1.434 . S
C589 C580 1.429 . S
C589 N586 1.350 . S
C589 C588 1.434 . S
C590 C591 1.369 . S
C590 C592 1.419 . S
C590 H594 0.930 . S
C591 C590 1.369 . S
C591 C600 1.429 . S
C592 C590 1.419 . S
C592 C593 1.363 . S
C592 H595 0.929 . S
C593 C592 1.363 . S
C593 C599 1.428 . S
H594 C590 0.930 . S
H595 C592 0.929 . S
S596 N597 1.613 . S
S596 N598 1.610 . S
N597 S596 1.613 . S
N597 C600 1.350 1_545 S
N598 S596 1.610 . S
N598 C599 1.351 1_545 S
C599 C593 1.428 . S
C599 N598 1.351 1_565 S
C599 C600 1.434 . S
C600 C591 1.429 . S
C600 N597 1.350 1_565 S
C600 C599 1.434 . S
C601 C602 1.369 . S
C601 C603 1.419 . S
C601 H605 0.930 . S
C602 C601 1.369 . S
C602 C611 1.412 1_455 S
C603 C601 1.419 . S
C603 C604 1.363 . S
C603 H606 0.929 . S
C604 C603 1.363 . S
C604 C610 1.428 1_455 S
H605 C601 0.930 . S
H606 C603 0.929 . S
S607 N608 1.613 . S
S607 N609 1.610 . S
N608 S607 1.613 . S
N608 C611 1.367 . S
N609 S607 1.610 . S
N609 C610 1.351 . S
C610 C604 1.428 1_655 S
C610 N609 1.351 . S
C610 C611 1.435 . S
C611 C602 1.412 1_655 S
C611 N608 1.367 . S
C611 C610 1.435 . S
C612 C613 1.369 1_554 S
C612 C614 1.419 . S
C612 H616 0.930 . S
C613 C612 1.369 1_556 S
C613 C622 1.429 . S
C614 C612 1.419 . S
C614 C615 1.363 1_554 S
C614 H617 0.929 . S
C615 C614 1.363 1_556 S
C615 C621 1.428 . S
H616 C612 0.930 . S
H617 C614 0.929 . S
S618 N619 1.613 . S
S618 N620 1.610 . S
N619 S618 1.613 . S
N619 C622 1.350 . S
N620 S618 1.610 . S
N620 C621 1.351 . S
C621 C615 1.428 . S
C621 N620 1.351 . S
C621 C622 1.434 . S
C622 C613 1.429 . S
C622 N619 1.350 . S
C622 C621 1.434 . S
C623 C624 1.369 . S
C623 C625 1.419 . S
C623 H627 0.930 . S
C624 C623 1.369 . S
C624 C633 1.429 . S
C625 C623 1.419 . S
C625 C626 1.363 . S
C625 H628 0.929 . S
C626 C625 1.363 . S
C626 C632 1.428 . S
H627 C623 0.930 . S
H628 C625 0.929 . S
S629 N630 1.613 . S
S629 N631 1.610 . S
N630 S629 1.613 . S
N630 C633 1.350 . S
N631 S629 1.610 . S
N631 C632 1.351 . S
C632 C626 1.428 . S
C632 N631 1.351 . S
C632 C633 1.434 . S
C633 C624 1.429 . S
C633 N630 1.350 . S
C633 C632 1.434 . S
C634 C635 1.369 . S
C634 C636 1.419 . S
C634 H638 0.930 . S
C635 C634 1.369 . S
C635 C644 1.429 . S
C636 C634 1.419 . S
C636 C637 1.363 . S
C636 H639 0.929 . S
C637 C636 1.363 . S
C637 C643 1.428 . S
H638 C634 0.930 . S
H639 C636 0.929 . S
S640 N641 1.613 . S
S640 N642 1.610 . S
N641 S640 1.613 . S
N641 C644 1.350 . S
N642 S640 1.610 . S
N642 C643 1.351 . S
C643 C637 1.428 . S
C643 N642 1.351 . S
C643 C644 1.434 . S
C644 C635 1.429 . S
C644 N641 1.350 . S
C644 C643 1.434 . S
C645 C646 1.369 . S
C645 C647 1.419 . S
C645 H649 0.930 . S
C646 C645 1.369 . S
C646 C655 1.429 . S
C647 C645 1.419 . S
C647 C648 1.363 . S
C647 H650 0.929 . S
C648 C647 1.363 . S
C648 C654 1.428 . S
H649 C645 0.930 . S
H650 C647 0.929 . S
S651 N652 1.613 . S
S651 N653 1.610 . S
N652 S651 1.613 . S
N652 C655 1.350 . S
N653 S651 1.610 . S
N653 C654 1.351 . S
C654 C648 1.428 . S
C654 N653 1.351 . S
C654 C655 1.434 . S
C655 C646 1.429 . S
C655 N652 1.350 . S
C655 C654 1.434 . S
C656 C657 1.369 . S
C656 C658 1.419 . S
C656 H660 0.930 . S
C657 C656 1.369 . S
C657 C666 1.429 . S
C658 C656 1.419 . S
C658 C659 1.363 . S
C658 H661 0.929 . S
C659 C658 1.363 . S
C659 C665 1.428 . S
H660 C656 0.930 . S
H661 C658 0.929 . S
S662 N663 1.613 . S
S662 N664 1.610 . S
N663 S662 1.613 . S
N663 C666 1.350 . S
N664 S662 1.610 . S
N664 C665 1.351 . S
C665 C659 1.428 . S
C665 N664 1.351 . S
C665 C666 1.434 . S
C666 C657 1.429 . S
C666 N663 1.350 . S
C666 C665 1.434 . S
C667 C668 1.369 . S
C667 C669 1.419 . S
C667 H671 0.930 . S
C668 C667 1.369 . S
C668 C677 1.429 . S
C669 C667 1.419 . S
C669 C670 1.363 . S
C669 H672 0.929 . S
C670 C669 1.363 . S
C670 C676 1.428 . S
H671 C667 0.930 . S
H672 C669 0.929 . S
S673 N674 1.613 . S
S673 N675 1.610 . S
N674 S673 1.613 . S
N674 C677 1.350 . S
N675 S673 1.610 . S
N675 C676 1.351 . S
C676 C670 1.428 . S
C676 N675 1.351 . S
C676 C677 1.434 . S
C677 C668 1.429 . S
C677 N674 1.350 . S
C677 C676 1.434 . S
C678 C679 1.369 . S
C678 C680 1.419 . S
C678 H682 0.930 . S
C679 C678 1.369 . S
C679 C688 1.429 . S
C680 C678 1.419 . S
C680 C681 1.363 . S
C680 H683 0.929 . S
C681 C680 1.363 . S
C681 C687 1.428 . S
H682 C678 0.930 . S
H683 C680 0.929 . S
S684 N685 1.613 . S
S684 N686 1.610 . S
N685 S684 1.613 . S
N685 C688 1.350 . S
N686 S684 1.610 . S
N686 C687 1.351 . S
C687 C681 1.428 . S
C687 N686 1.351 . S
C687 C688 1.434 . S
C688 C679 1.429 . S
C688 N685 1.350 . S
C688 C687 1.434 . S
C689 C690 1.369 . S
C689 C691 1.419 . S
C689 H693 0.930 . S
C690 C689 1.369 . S
C690 C699 1.429 . S
C691 C689 1.419 . S
C691 C692 1.363 . S
C691 H694 0.929 . S
C692 C691 1.363 . S
C692 C698 1.428 . S
H693 C689 0.930 . S
H694 C691 0.929 . S
S695 N696 1.613 . S
S695 N697 1.610 . S
N696 S695 1.613 . S
N696 C699 1.350 . S
N697 S695 1.610 . S
N697 C698 1.351 . S
C698 C692 1.428 . S
C698 N697 1.351 . S
C698 C699 1.434 . S
C699 C690 1.429 . S
C699 N696 1.350 . S
C699 C698 1.434 . S
C700 C701 1.369 . S
C700 C702 1.419 . S
C700 H704 0.930 . S
C701 C700 1.369 . S
C701 C710 1.429 . S
C702 C700 1.419 . S
C702 C703 1.363 . S
C702 H705 0.929 . S
C703 C702 1.363 . S
C703 C709 1.428 . S
H704 C700 0.930 . S
H705 C702 0.929 . S
S706 N707 1.613 . S
S706 N708 1.610 . S
N707 S706 1.613 . S
N707 C710 1.350 . S
N708 S706 1.610 . S
N708 C709 1.351 . S
C709 C703 1.428 . S
C709 N708 1.351 . S
C709 C710 1.434 . S
C710 C701 1.429 . S
C710 N707 1.350 . S
C710 C709 1.434 . S
C711 C712 1.369 . S
C711 C713 1.419 . S
C711 H715 0.930 . S
C712 C711 1.369 . S
C712 C721 1.429 . S
C713 C711 1.419 . S
C713 C714 1.363 . S
C713 H716 0.929 . S
C714 C713 1.363 . S
C714 C720 1.428 . S
H715 C711 0.930 . S
H716 C713 0.929 . S
S717 N718 1.613 . S
S717 N719 1.610 . S
N718 S717 1.613 . S
N718 C721 1.350 . S
N719 S717 1.610 . S
N719 C720 1.351 . S
C720 C714 1.428 . S
C720 N719 1.351 . S
C720 C721 1.434 . S
C721 C712 1.429 . S
C721 N718 1.350 . S
C721 C720 1.434 . S
C722 C723 1.369 . S
C722 C724 1.419 . S
C722 H726 0.930 . S
C723 C722 1.369 . S
C723 C732 1.429 . S
C724 C722 1.419 . S
C724 C725 1.363 . S
C724 H727 0.929 . S
C725 C724 1.363 . S
C725 C731 1.428 . S
H726 C722 0.930 . S
H727 C724 0.929 . S
S728 N729 1.613 . S
S728 N730 1.610 . S
N729 S728 1.613 . S
N729 C732 1.350 . S
N730 S728 1.610 . S
N730 C731 1.351 . S
C731 C725 1.428 . S
C731 N730 1.351 . S
C731 C732 1.434 . S
C732 C723 1.429 . S
C732 N729 1.350 . S
C732 C731 1.434 . S
C733 C734 1.369 . S
C733 C735 1.419 . S
C733 H737 0.930 . S
C734 C733 1.369 . S
C734 C743 1.429 . S
C735 C733 1.419 . S
C735 C736 1.363 . S
C735 H738 0.929 . S
C736 C735 1.363 . S
C736 C742 1.428 . S
H737 C733 0.930 . S
H738 C735 0.929 . S
S739 N740 1.613 . S
S739 N741 1.610 . S
N740 S739 1.613 . S
N740 C743 1.350 . S
N741 S739 1.610 . S
N741 C742 1.351 . S
C742 C736 1.428 . S
C742 N741 1.351 . S
C742 C743 1.434 . S
C743 C734 1.429 . S
C743 N740 1.350 . S
C743 C742 1.434 . S
C744 C745 1.369 . S
C744 C746 1.419 . S
C744 H748 0.930 . S
C745 C744 1.369 . S
C745 C754 1.429 . S
C746 C744 1.419 . S
C746 C747 1.363 . S
C746 H749 0.929 . S
C747 C746 1.363 . S
C747 C753 1.428 . S
H748 C744 0.930 . S
H749 C746 0.929 . S
S750 N751 1.613 . S
S750 N752 1.610 . S
N751 S750 1.613 . S
N751 C754 1.350 . S
N752 S750 1.610 . S
N752 C753 1.351 . S
C753 C747 1.428 . S
C753 N752 1.351 . S
C753 C754 1.434 . S
C754 C745 1.429 . S
C754 N751 1.350 . S
C754 C753 1.434 . S
C755 C756 1.369 . S
C755 C757 1.419 . S
C755 H759 0.930 . S
C756 C755 1.369 . S
C756 C765 1.429 . S
C757 C755 1.419 . S
C757 C758 1.363 . S
C757 H760 0.929 . S
C758 C757 1.363 . S
C758 C764 1.428 . S
H759 C755 0.930 . S
H760 C757 0.929 . S
S761 N762 1.613 . S
S761 N763 1.610 . S
N762 S761 1.613 . S
N762 C765 1.350 . S
N763 S761 1.610 . S
N763 C764 1.351 . S
C764 C758 1.428 . S
C764 N763 1.351 . S
C764 C765 1.434 . S
C765 C756 1.429 . S
C765 N762 1.350 . S
C765 C764 1.434 . S
C766 C767 1.369 . S
C766 C768 1.419 . S
C766 H770 0.930 . S
C767 C766 1.369 . S
C767 C776 1.429 . S
C768 C766 1.419 . S
C768 C769 1.363 . S
C768 H771 0.929 . S
C769 C768 1.363 . S
C769 C775 1.428 . S
H770 C766 0.930 . S
H771 C768 0.929 . S
S772 N773 1.613 . S
S772 N774 1.610 . S
N773 S772 1.613 . S
N773 C776 1.350 . S
N774 S772 1.610 . S
N774 C775 1.351 . S
C775 C769 1.428 . S
C775 N774 1.351 . S
C775 C776 1.434 . S
C776 C767 1.429 . S
C776 N773 1.350 . S
C776 C775 1.434 . S
C777 C778 1.369 . S
C777 C779 1.419 . S
C777 H781 0.930 . S
C778 C777 1.369 . S
C778 C787 1.429 . S
C779 C777 1.419 . S
C779 C780 1.363 . S
C779 H782 0.929 . S
C780 C779 1.363 . S
C780 C786 1.428 . S
H781 C777 0.930 . S
H782 C779 0.929 . S
S783 N784 1.613 1_556 S
S783 N785 1.610 . S
N784 S783 1.613 1_554 S
N784 C787 1.350 . S
N785 S783 1.610 . S
N785 C786 1.351 1_556 S
C786 C780 1.428 . S
C786 N785 1.351 1_554 S
C786 C787 1.434 . S
C787 C778 1.429 . S
C787 N784 1.350 . S
C787 C786 1.434 . S
C788 C789 1.369 . S
C788 C790 1.419 . S
C788 H792 0.930 . S
C789 C788 1.369 . S
C789 C798 1.429 . S
C790 C788 1.419 . S
C790 C791 1.363 . S
C790 H793 0.929 . S
C791 C790 1.363 . S
C791 C797 1.428 . S
H792 C788 0.930 . S
H793 C790 0.929 . S
S794 N795 1.613 . S
S794 N796 1.610 . S
N795 S794 1.613 . S
N795 C798 1.350 . S
N796 S794 1.610 . S
N796 C797 1.351 . S
C797 C791 1.428 . S
C797 N796 1.351 . S
C797 C798 1.434 . S
C798 C789 1.429 . S
C798 N795 1.350 . S
C798 C797 1.434 . S
C799 C800 1.369 . S
C799 C801 1.419 . S
C799 H803 0.930 . S
C800 C799 1.369 . S
C800 C809 1.429 . S
C801 C799 1.419 . S
C801 C802 1.363 . S
C801 H804 0.929 . S
C802 C801 1.363 . S
C802 C808 1.428 . S
H803 C799 0.930 . S
H804 C801 0.929 . S
S805 N806 1.613 . S
S805 N807 1.610 . S
N806 S805 1.613 . S
N806 C809 1.350 . S
N807 S805 1.610 . S
N807 C808 1.351 . S
C808 C802 1.428 . S
C808 N807 1.351 . S
C808 C809 1.434 . S
C809 C800 1.429 . S
C809 N806 1.350 . S
C809 C808 1.434 . S
C810 C811 1.369 . S
C810 C812 1.419 . S
C810 H814 0.930 . S
C811 C810 1.369 . S
C811 C820 1.429 . S
C812 C810 1.419 . S
C812 C813 1.363 . S
C812 H815 0.929 . S
C813 C812 1.363 . S
C813 C819 1.428 . S
H814 C810 0.930 . S
H815 C812 0.929 . S
S816 N817 1.613 . S
S816 N818 1.610 . S
N817 S816 1.613 . S
N817 C820 1.350 . S
N818 S816 1.610 . S
N818 C819 1.351 . S
C819 C813 1.428 . S
C819 N818 1.351 . S
C819 C820 1.434 . S
C820 C811 1.429 . S
C820 N817 1.350 . S
C820 C819 1.434 . S
C821 C822 1.369 . S
C821 C823 1.419 . S
C821 H825 0.930 . S
C822 C821 1.369 . S
C822 C831 1.429 . S
C823 C821 1.419 . S
C823 C824 1.363 . S
C823 H826 0.929 . S
C824 C823 1.363 . S
C824 C830 1.428 . S
H825 C821 0.930 . S
H826 C823 0.929 . S
S827 N828 1.613 . S
S827 N829 1.610 . S
N828 S827 1.613 . S
N828 C831 1.350 . S
N829 S827 1.610 . S
N829 C830 1.351 . S
C830 C824 1.428 . S
C830 N829 1.351 . S
C830 C831 1.434 . S
C831 C822 1.429 . S
C831 N828 1.350 . S
C831 C830 1.434 . S
C832 C833 1.369 . S
C832 C834 1.419 . S
C832 H836 0.930 . S
C833 C832 1.369 . S
C833 C842 1.429 . S
C834 C832 1.419 . S
C834 C835 1.363 . S
C834 H837 0.929 . S
C835 C834 1.363 . S
C835 C841 1.428 . S
H836 C832 0.930 . S
H837 C834 0.929 . S
S838 N839 1.613 . S
S838 N840 1.610 . S
N839 S838 1.613 . S
N839 C842 1.350 . S
N840 S838 1.610 . S
N840 C841 1.351 . S
C841 C835 1.428 . S
C841 N840 1.351 . S
C841 C842 1.434 . S
C842 C833 1.429 . S
C842 N839 1.350 . S
C842 C841 1.434 . S
C843 C844 1.369 . S
C843 C845 1.419 . S
C843 H847 0.930 . S
C844 C843 1.369 . S
C844 C853 1.429 . S
C845 C843 1.419 . S
C845 C846 1.363 . S
C845 H848 0.929 . S
C846 C845 1.363 . S
C846 C852 1.428 . S
H847 C843 0.930 . S
H848 C845 0.929 . S
S849 N850 1.613 . S
S849 N851 1.610 . S
N850 S849 1.613 . S
N850 C853 1.350 . S
N851 S849 1.610 . S
N851 C852 1.351 . S
C852 C846 1.428 . S
C852 N851 1.351 . S
C852 C853 1.434 . S
C853 C844 1.429 . S
C853 N850 1.350 . S
C853 C852 1.434 . S
C854 C855 1.369 . S
C854 C856 1.419 . S
C854 H858 0.930 . S
C855 C854 1.369 . S
C855 C864 1.429 . S
C856 C854 1.419 . S
C856 C857 1.363 . S
C856 H859 0.929 . S
C857 C856 1.363 . S
C857 C863 1.428 . S
H858 C854 0.930 . S
H859 C856 0.929 . S
S860 N861 1.613 . S
S860 N862 1.610 . S
N861 S860 1.613 . S
N861 C864 1.350 . S
N862 S860 1.610 . S
N862 C863 1.351 . S
C863 C857 1.428 . S
C863 N862 1.351 . S
C863 C864 1.434 . S
C864 C855 1.429 . S
C864 N861 1.350 . S
C864 C863 1.434 . S
C865 C866 1.369 . S
C865 C867 1.419 . S
C865 H869 0.930 . S
C866 C865 1.369 . S
C866 C875 1.429 . S
C867 C865 1.419 . S
C867 C868 1.363 . S
C867 H870 0.929 . S
C868 C867 1.363 . S
C868 C874 1.428 . S
H869 C865 0.930 . S
H870 C867 0.929 . S
S871 N872 1.613 . S
S871 N873 1.610 . S
N872 S871 1.613 . S
N872 C875 1.350 . S
N873 S871 1.610 . S
N873 C874 1.351 . S
C874 C868 1.428 . S
C874 N873 1.351 . S
C874 C875 1.434 . S
C875 C866 1.429 . S
C875 N872 1.350 . S
C875 C874 1.434 . S
C876 C877 1.369 . S
C876 C878 1.419 . S
C876 H880 0.930 . S
C877 C876 1.369 . S
C877 C886 1.429 . S
C878 C876 1.419 . S
C878 C879 1.363 . S
C878 H881 0.929 . S
C879 C878 1.363 . S
C879 C885 1.428 . S
H880 C876 0.930 . S
H881 C878 0.929 . S
S882 N883 1.613 . S
S882 N884 1.610 . S
N883 S882 1.613 . S
N883 C886 1.350 . S
N884 S882 1.610 . S
N884 C885 1.351 . S
C885 C879 1.428 . S
C885 N884 1.351 . S
C885 C886 1.434 . S
C886 C877 1.429 . S
C886 N883 1.350 . S
C886 C885 1.434 . S
C887 C888 1.369 . S
C887 C889 1.419 . S
C887 H891 0.930 . S
C888 C887 1.369 . S
C888 C897 1.429 . S
C889 C887 1.419 . S
C889 C890 1.363 . S
C889 H892 0.929 . S
C890 C889 1.363 . S
C890 C896 1.428 . S
H891 C887 0.930 . S
H892 C889 0.929 . S
S893 N894 1.613 . S
S893 N895 1.610 . S
N894 S893 1.613 . S
N894 C897 1.350 1_556 S
N895 S893 1.610 . S
N895 C896 1.351 1_556 S
C896 C890 1.428 . S
C896 N895 1.351 1_554 S
C896 C897 1.434 . S
C897 C888 1.429 . S
C897 N894 1.350 1_554 S
C897 C896 1.434 . S
C898 C899 1.369 . S
C898 C900 1.419 . S
C898 H902 0.930 . S
C899 C898 1.369 . S
C899 C908 1.429 . S
C900 C898 1.419 . S
C900 C901 1.363 . S
C900 H903 0.929 . S
C901 C900 1.363 . S
C901 C907 1.428 . S
H902 C898 0.930 . S
H903 C900 0.929 . S
S904 N905 1.613 . S
S904 N906 1.610 . S
N905 S904 1.613 . S
N905 C908 1.350 . S
N906 S904 1.610 . S
N906 C907 1.351 . S
C907 C901 1.428 . S
C907 N906 1.351 . S
C907 C908 1.434 . S
C908 C899 1.429 . S
C908 N905 1.350 . S
C908 C907 1.434 . S
C909 C910 1.369 . S
C909 C911 1.419 . S
C909 H913 0.930 . S
C910 C909 1.369 . S
C910 C919 1.429 . S
C911 C909 1.419 . S
C911 C912 1.363 . S
C911 H914 0.929 . S
C912 C911 1.363 . S
C912 C918 1.428 . S
H913 C909 0.930 . S
H914 C911 0.929 . S
S915 N916 1.613 . S
S915 N917 1.610 . S
N916 S915 1.613 . S
N916 C919 1.350 . S
N917 S915 1.610 . S
N917 C918 1.351 . S
C918 C912 1.428 . S
C918 N917 1.351 . S
C918 C919 1.434 . S
C919 C910 1.429 . S
C919 N916 1.350 . S
C919 C918 1.434 . S
C920 C921 1.369 . S
C920 C922 1.419 . S
C920 H924 0.930 . S
C921 C920 1.369 . S
C921 C930 1.429 . S
C922 C920 1.419 . S
C922 C923 1.363 . S
C922 H925 0.929 . S
C923 C922 1.363 . S
C923 C929 1.428 . S
H924 C920 0.930 . S
H925 C922 0.929 . S
S926 N927 1.613 . S
S926 N928 1.610 . S
N927 S926 1.613 . S
N927 C930 1.350 . S
N928 S926 1.610 . S
N928 C929 1.351 . S
C929 C923 1.428 . S
C929 N928 1.351 . S
C929 C930 1.434 . S
C930 C921 1.429 . S
C930 N927 1.350 . S
C930 C929 1.434 . S
C931 C932 1.369 . S
C931 C933 1.419 . S
C931 H935 0.930 . S
C932 C931 1.369 . S
C932 C941 1.429 . S
C933 C931 1.419 . S
C933 C934 1.363 . S
C933 H936 0.929 . S
C934 C933 1.363 . S
C934 C940 1.428 . S
H935 C931 0.930 . S
H936 C933 0.929 . S
S937 N938 1.613 . S
S937 N939 1.610 . S
N938 S937 1.613 . S
N938 C941 1.350 . S
N939 S937 1.610 . S
N939 C940 1.351 . S
C940 C934 1.428 . S
C940 N939 1.351 . S
C940 C941 1.434 . S
C941 C932 1.429 . S
C941 N938 1.350 . S
C941 C940 1.434 . S
C942 C943 1.369 . S
C942 C944 1.419 . S
C942 H946 0.930 . S
C943 C942 1.369 . S
C943 C952 1.429 . S
C944 C942 1.419 . S
C944 C945 1.363 . S
C944 H947 0.929 . S
C945 C944 1.363 . S
C945 C951 1.428 1_556 S
H946 C942 0.930 . S
H947 C944 0.929 . S
S948 N949 1.613 . S
S948 N950 1.610 . S
N949 S948 1.613 . S
N949 C952 1.350 1_554 S
N950 S948 1.610 . S
N950 C951 1.351 . S
C951 C945 1.428 1_554 S
C951 N950 1.351 . S
C951 C952 1.434 1_554 S
C952 C943 1.429 . S
C952 N949 1.350 1_556 S
C952 C951 1.434 1_556 S
C953 C954 1.369 . S
C953 C955 1.419 . S
C953 H957 0.930 . S
C954 C953 1.369 . S
C954 C963 1.429 . S
C955 C953 1.419 . S
C955 C956 1.363 . S
C955 H958 0.929 . S
C956 C955 1.363 . S
C956 C962 1.428 . S
H957 C953 0.930 . S
H958 C955 0.929 . S
S959 N960 1.613 . S
S959 N961 1.610 . S
N960 S959 1.613 . S
N960 C963 1.350 . S
N961 S959 1.610 . S
N961 C962 1.351 . S
C962 C956 1.428 . S
C962 N961 1.351 . S
C962 C963 1.434 . S
C963 C954 1.429 . S
C963 N960 1.350 . S
C963 C962 1.434 . S
C964 C965 1.369 . S
C964 C966 1.419 . S
C964 H968 0.930 . S
C965 C964 1.369 . S
C965 C974 1.429 . S
C966 C964 1.419 . S
C966 C967 1.363 . S
C966 H969 0.929 . S
C967 C966 1.363 . S
C967 C973 1.428 . S
H968 C964 0.930 . S
H969 C966 0.929 . S
S970 N971 1.613 . S
S970 N972 1.610 . S
N971 S970 1.613 . S
N971 C974 1.350 . S
N972 S970 1.610 . S
N972 C973 1.351 . S
C973 C967 1.428 . S
C973 N972 1.351 . S
C973 C974 1.434 . S
C974 C965 1.429 . S
C974 N971 1.350 . S
C974 C973 1.434 . S
C975 C976 1.369 . S
C975 C977 1.419 . S
C975 H979 0.930 . S
C976 C975 1.369 . S
C976 C985 1.429 . S
C977 C975 1.419 . S
C977 C978 1.363 . S
C977 H980 0.929 . S
C978 C977 1.363 . S
C978 C984 1.428 . S
H979 C975 0.930 . S
H980 C977 0.929 . S
S981 N982 1.613 . S
S981 N983 1.610 . S
N982 S981 1.613 . S
N982 C985 1.350 . S
N983 S981 1.610 . S
N983 C984 1.351 . S
C984 C978 1.428 . S
C984 N983 1.351 . S
C984 C985 1.434 . S
C985 C976 1.429 . S
C985 N982 1.350 . S
C985 C984 1.434 . S
C986 C987 1.369 . S
C986 C988 1.419 . S
C986 H990 0.930 . S
C987 C986 1.369 . S
C987 C996 1.429 . S
C988 C986 1.419 . S
C988 C989 1.363 . S
C988 H991 0.929 . S
C989 C988 1.363 . S
C989 C995 1.428 . S
H990 C986 0.930 . S
H991 C988 0.929 . S
S992 N993 1.613 . S
S992 N994 1.610 . S
N993 S992 1.613 . S
N993 C996 1.350 . S
N994 S992 1.610 . S
N994 C995 1.351 . S
C995 C989 1.428 . S
C995 N994 1.351 . S
C995 C996 1.434 . S
C996 C987 1.429 . S
C996 N993 1.350 . S
C996 C995 1.434 . S
C997 C998 1.369 . S
C997 C999 1.419 . S
C997 H1001 0.930 . S
C998 C997 1.369 . S
C998 C1007 1.429 . S
C999 C997 1.419 . S
C999 C1000 1.363 . S
C999 H1002 0.929 . S
C1000 C999 1.363 . S
C1000 C1006 1.428 . S
H1001 C997 0.930 . S
H1002 C999 0.929 . S
S1003 N1004 1.613 . S
S1003 N1005 1.610 . S
N1004 S1003 1.613 . S
N1004 C1007 1.350 . S
N1005 S1003 1.610 . S
N1005 C1006 1.351 . S
C1006 C1000 1.428 . S
C1006 N1005 1.351 . S
C1006 C1007 1.434 . S
C1007 C998 1.429 . S
C1007 N1004 1.350 . S
C1007 C1006 1.434 . S
C481 C1 1.310 . S
C483 C46 1.335 . S
C492 C61 0.841 . S
C494 N44 0.860 . S
C503 N104 0.553 . S
C505 N66 0.549 . S
C514 N6 0.917 . S
C516 C106 0.913 . S
C525 N14 0.921 . S
C527 C297 0.903 . S
C536 C220 1.309 . S
C538 C57 1.340 . S
C547 C70 0.855 . S
C549 N306 0.853 . S
C558 N96 0.557 . S
C560 N404 0.552 . S
C569 C250 0.838 . S
C571 N36 0.857 . S
C580 N366 0.574 . S
C582 N74 0.538 . S
C591 N434 0.918 . S
C593 C117 0.908 . S
C602 C10 1.306 . S
C604 C357 1.340 . S
C613 C27 1.383 . S
C615 C256 1.347 . S
C624 C361 1.381 . S
C626 C130 1.432 . S
C635 C177 1.350 . S
C637 C436 1.384 . S
C646 C340 1.430 . S
C648 C181 1.374 . S
C657 C87 1.346 . S
C659 C226 1.384 . S
C668 C280 1.382 . S
C670 C121 1.434 . S
C679 C190 1.382 . S
C681 C301 1.432 . S
C690 C160 0.843 . S
C692 N336 0.858 . S
C701 N276 0.553 . S
C703 N164 0.554 . S
C712 C346 1.338 . S
C714 C211 1.301 . S
C723 C151 0.840 . S
C725 N134 0.859 . S
C734 N284 0.574 . S
C736 N246 0.533 . S
C745 C391 0.848 . S
C747 N344 0.858 . S
C756 N194 0.570 . S
C758 N156 0.541 . S
C767 C286 0.908 . S
C769 N426 0.920 . S
C778 C417 1.346 . S
C780 C16 1.387 . S
C789 C76 1.344 . S
C791 C447 1.381 . S
C800 C370 1.376 . S
C802 C31 1.433 . S
C811 C237 1.382 . S
C813 C166 1.349 . S
C822 C91 1.373 . S
C824 C310 1.429 . S
C833 N374 0.567 . S
C835 N396 0.540 . S
C844 N216 0.910 . S
C846 C376 0.918 . S
C855 C207 0.916 . S
C857 N224 0.912 . S
C866 N126 0.859 . S
C868 C400 0.841 . S
C877 C387 0.909 . S
C879 N464 0.916 . S
C888 C466 1.382 . S
C890 C267 1.346 . S
C899 C40 1.431 . S
C901 C271 1.370 . S
C910 N254 0.536 . S
C912 N186 0.576 . S
C921 C241 0.845 . S
C923 N314 0.858 . S
C932 N456 0.921 . S
C934 C196 0.910 . S
C943 C406 1.345 . S
C945 C477 1.382 . S
C954 C331 1.431 . S
C956 C100 1.381 . S
C965 C316 1.340 . S
C967 C421 1.302 . S
C976 C327 1.337 . S
C978 C460 1.304 . S
C987 C147 1.336 . S
C989 C430 1.309 . S
C998 C451 1.300 . S
C1000 C136 1.336 . S
