# Generated by pormake.
# Topology fcu, (12)-cn, num edge types: 1
# Building blocks:
#     Node 0, Type 0, BuildingBlock: ENOWUB_clean_sbu_0, # of connection points: 12
#     Node 1, Type 0, BuildingBlock: ENOWUB_clean_sbu_0, # of connection points: 12
#     Node 2, Type 0, BuildingBlock: ENOWUB_clean_sbu_0, # of connection points: 12
#     Node 3, Type 0, BuildingBlock: ENOWUB_clean_sbu_0, # of connection points: 12
#     Edge 4, Type (0, 0), BuildingBlock: ZUJKAS_clean_linker_0, # of connection points: 2
#     Edge 5, Type (0, 0), BuildingBlock: ZUJKAS_clean_linker_0, # of connection points: 2
#     Edge 6, Type (0, 0), BuildingBlock: ZUJKAS_clean_linker_0, # of connection points: 2
#     Edge 7, Type (0, 0), BuildingBlock: ZUJKAS_clean_linker_0, # of connection points: 2
#     Edge 8, Type (0, 0), BuildingBlock: ZUJKAS_clean_linker_0, # of connection points: 2
#     Edge 9, Type (0, 0), BuildingBlock: ZUJKAS_clean_linker_0, # of connection points: 2
#     Edge 10, Type (0, 0), BuildingBlock: ZUJKAS_clean_linker_0, # of connection points: 2
#     Edge 11, Type (0, 0), BuildingBlock: ZUJKAS_clean_linker_0, # of connection points: 2
#     Edge 12, Type (0, 0), BuildingBlock: ZUJKAS_clean_linker_0, # of connection points: 2
#     Edge 13, Type (0, 0), BuildingBlock: ZUJKAS_clean_linker_0, # of connection points: 2
#     Edge 14, Type (0, 0), BuildingBlock: ZUJKAS_clean_linker_0, # of connection points: 2
#     Edge 15, Type (0, 0), BuildingBlock: ZUJKAS_clean_linker_0, # of connection points: 2
#     Edge 16, Type (0, 0), BuildingBlock: ZUJKAS_clean_linker_0, # of connection points: 2
#     Edge 17, Type (0, 0), BuildingBlock: ZUJKAS_clean_linker_0, # of connection points: 2
#     Edge 18, Type (0, 0), BuildingBlock: ZUJKAS_clean_linker_0, # of connection points: 2
#     Edge 19, Type (0, 0), BuildingBlock: ZUJKAS_clean_linker_0, # of connection points: 2
#     Edge 20, Type (0, 0), BuildingBlock: ZUJKAS_clean_linker_0, # of connection points: 2
#     Edge 21, Type (0, 0), BuildingBlock: ZUJKAS_clean_linker_0, # of connection points: 2
#     Edge 22, Type (0, 0), BuildingBlock: ZUJKAS_clean_linker_0, # of connection points: 2
#     Edge 23, Type (0, 0), BuildingBlock: ZUJKAS_clean_linker_0, # of connection points: 2
#     Edge 24, Type (0, 0), BuildingBlock: ZUJKAS_clean_linker_0, # of connection points: 2
#     Edge 25, Type (0, 0), BuildingBlock: ZUJKAS_clean_linker_0, # of connection points: 2
#     Edge 26, Type (0, 0), BuildingBlock: ZUJKAS_clean_linker_0, # of connection points: 2
#     Edge 27, Type (0, 0), BuildingBlock: ZUJKAS_clean_linker_0, # of connection points: 2
# Relax obj value: 0.000
# Max RMSD: 0.000
# Mean RMSD: 0.000
data_MOF--net-fcu--node1-ENOWUB_clean_sbu_0--edge1-ZUJKAS_clean_linker_0
_symmetry_space_group_name_H-M    P1
_symmetry_Int_Tables_number       1
_symmetry_cell_setting            triclinic
loop_
_symmetry_equiv_pos_as_xyz
'x, y, z'
_cell_length_a     33.1624
_cell_length_b     33.201114
_cell_length_c     33.178077
_cell_angle_alpha  90.003656
_cell_angle_beta   89.96941
_cell_angle_gamma 89.933169
loop_
_atom_site_label
_atom_site_type_symbol
_atom_site_fract_x
_atom_site_fract_y
_atom_site_fract_z
_atom_type_partial_charge
O0 O 0.09418 0.90917 -0.00128 0.0
O1 O 0.01967 0.94053 0.03412 0.0
O2 O 0.0489 0.03261 0.96986 0.0
O3 O 0.03459 0.95389 0.95499 0.0
O4 O 0.0334 0.02003 0.0494 0.0
Zr5 Zr 0.07296 0.97866 0.00833 0.0
Zr6 Zr 0.97922 0.98228 0.07399 0.0
Zr7 Zr 0.98093 0.91637 0.98042 0.0
O8 O 0.95455 0.03597 0.03605 0.0
O9 O 0.95577 0.96958 0.94161 0.0
O10 O 0.94025 0.95703 0.02112 0.0
Zr11 Zr 0.00839 0.0733 0.01068 0.0
Zr12 Zr 0.00981 0.00751 0.91694 0.0
Zr13 Zr 0.91631 0.01103 0.98272 0.0
O14 O 0.96954 0.04924 0.95698 0.0
O15 O 0.8951 0.08051 0.99244 0.0
O16 O 0.87238 0.95423 0.96855 0.0
O17 O 0.11699 0.03545 0.0224 0.0
O18 O 0.02354 0.1163 0.95329 0.0
O19 O 0.9659 0.87336 0.03794 0.0
O20 O 0.9896 0.89453 0.91092 0.0
O21 O 0.00125 0.09496 0.08042 0.0
O22 O 0.90959 0.99068 0.09571 0.0
O23 O 0.07947 -0.00084 0.89525 0.0
O24 O 0.95257 0.02312 0.87377 0.0
O25 O 0.03639 0.96722 0.11719 0.0
O26 O 0.95042 0.11811 0.0096 0.0
O27 O 0.03885 0.8715 0.98178 0.0
O28 O 0.91173 0.89748 0.96577 0.0
O29 O 0.07766 0.09221 0.02497 0.0
O30 O 0.09271 0.96361 0.07728 0.0
O31 O 0.89644 0.02629 0.91394 0.0
O32 O 0.87203 0.00962 0.0409 0.0
O33 O 0.11711 0.98018 0.95 0.0
C34 C 0.07689 0.87577 0.98878 0.0
O35 O 0.9816 0.04054 0.11813 0.0
O36 O 0.96418 0.91361 0.09401 0.0
C37 C 0.91239 0.11387 0.00252 0.0
C38 C 0.87751 0.91598 0.96368 0.0
C39 C 0.11188 0.07372 0.02712 0.0
C40 C 0.02808 0.11058 0.91505 0.0
C41 C 0.96136 0.87916 0.07618 0.0
C42 C -0.00028 0.91144 0.87732 0.0
C43 C 0.99058 0.07812 0.11387 0.0
C44 C 0.87622 0.00132 0.07866 0.0
C45 C 0.11288 0.98854 0.91226 0.0
C46 C 0.91441 0.02851 0.87947 0.0
C47 C 0.07454 0.96174 0.11169 0.0
O48 O 0.00751 0.94925 0.87279 0.0
O49 O 0.02511 0.0762 0.8971 0.0
O50 O 0.09506 0.40962 0.48965 0.0
O51 O 0.03607 0.45425 0.53592 0.0
O52 O 0.03341 0.52065 0.44173 0.0
O53 O 0.02018 0.44125 0.45723 0.0
O54 O 0.04979 0.53308 0.52127 0.0
Zr55 Zr 0.07381 0.47948 0.48223 0.0
Zr56 Zr 0.01136 0.5075 0.57449 0.0
Zr57 Zr 0.98209 0.4167 0.51126 0.0
O58 O 0.9703 0.54901 0.53512 0.0
O59 O 0.94073 0.45707 0.47102 0.0
O60 O 0.95704 0.46952 0.55054 0.0
Zr61 Zr 0.00843 0.57348 0.48109 0.0
Zr62 Zr 0.97909 0.48262 0.41775 0.0
Zr63 Zr 0.91677 0.51074 0.50998 0.0
O64 O 0.9545 0.53594 0.45632 0.0
O65 O 0.89551 0.58053 0.50229 0.0
O66 O 0.87337 0.45345 0.52408 0.0
O67 O 0.11722 0.53675 0.46747 0.0
O68 O -0.00169 0.59573 0.41193 0.0
O69 O 0.99203 0.3945 0.58044 0.0
O70 O 0.96749 0.37374 0.45379 0.0
O71 O 0.02393 0.61639 0.53846 0.0
O72 O 0.95446 0.52179 0.6185 0.0
O73 O 0.03592 0.46817 0.37378 0.0
O74 O 0.90934 0.4917 0.39682 0.0
O75 O 0.08108 0.49824 0.59547 0.0
O76 O 0.95047 0.61801 0.48369 0.0
O77 O 0.04016 0.37227 0.50874 0.0
O78 O 0.91307 0.39693 0.52625 0.0
O79 O 0.07729 0.59309 0.46565 0.0
O80 O 0.11868 0.48088 0.54013 0.0
O81 O 0.87182 0.50931 0.45214 0.0
O82 O 0.89764 0.52495 0.57931 0.0
O83 O 0.09277 0.46497 0.41293 0.0
C84 C 0.07789 0.37629 0.50011 0.0
O85 O 0.0266 0.57617 0.59451 0.0
O86 O 0.01 0.44919 0.61854 0.0
C87 C 0.91269 0.61392 0.49202 0.0
C88 C 0.87872 0.41518 0.52862 0.0
C89 C 0.11169 0.57501 0.46291 0.0
C90 C 0.98782 0.57891 0.37842 0.0
C91 C 0.0025 0.41134 0.61393 0.0
C92 C 0.96234 0.37935 0.41563 0.0
C93 C 0.02904 0.61062 0.57661 0.0
C94 C 0.91617 0.52682 0.61349 0.0
C95 C 0.07419 0.46303 0.37877 0.0
C96 C 0.87592 0.50176 0.41418 0.0
C97 C 0.11452 0.48826 0.57812 0.0
O98 O 0.96424 0.4138 0.39762 0.0
O99 O 0.98039 0.54104 0.37378 0.0
O100 O 0.59259 0.02624 0.41317 0.0
O101 O 0.51967 0.04944 0.45713 0.0
O102 O 0.54975 0.95717 0.52076 0.0
O103 O 0.53356 0.97003 0.44145 0.0
O104 O 0.5353 0.03604 0.53598 0.0
Zr105 Zr 0.57335 0.01133 0.48228 0.0
Zr106 Zr 0.48118 0.07345 0.51114 0.0
Zr107 Zr 0.47914 0.00785 0.41741 0.0
O108 O 0.45655 0.02002 0.54987 0.0
O109 O 0.45475 0.95403 0.45532 0.0
O110 O 0.44036 0.0329 0.4706 0.0
Zr111 Zr 0.51099 0.98222 0.57401 0.0
Zr112 Zr 0.50884 0.91666 0.48019 0.0
Zr113 Zr 0.41673 0.97877 0.50901 0.0
O114 O 0.4704 0.94068 0.53423 0.0
O115 O 0.39745 0.96362 0.57805 0.0
O116 O 0.37208 0.98018 0.451 0.0
O117 O 0.61798 0.01026 0.54032 0.0
O118 O 0.52659 0.91343 0.59385 0.0
O119 O 0.46344 0.07651 0.39766 0.0
O120 O 0.48119 0.94972 0.37311 0.0
O121 O 0.50875 0.04035 0.61835 0.0
O122 O 0.41199 0.09238 0.52628 0.0
O123 O 0.57809 0.89776 0.46535 0.0
O124 O 0.45101 0.8717 0.48191 0.0
O125 O 0.53901 0.11834 0.50912 0.0
O126 O 0.45399 0.96727 0.6176 0.0
O127 O 0.53597 0.02301 0.37374 0.0
O128 O 0.40956 -0.00086 0.39616 0.0
O129 O 0.58045 0.99201 0.59539 0.0
O130 O 0.59408 0.08122 0.4898 0.0
O131 O 0.39576 0.90916 0.49991 0.0
O132 O 0.3728 0.03561 0.52361 0.0
O133 O 0.6173 0.95454 0.46765 0.0
C134 C 0.57417 0.02833 0.37895 0.0
O135 O 0.48936 0.09495 0.58074 0.0
O136 O 0.46549 0.11656 0.45386 0.0
C137 C 0.41582 0.96178 0.61233 0.0
C138 C 0.37622 0.98848 0.41322 0.0
C139 C 0.61379 0.00259 0.57823 0.0
C140 C 0.52882 0.87906 0.57572 0.0
C141 C 0.46059 0.11088 0.41565 0.0
C142 C 0.49011 0.9121 0.37719 0.0
C143 C 0.50009 0.07802 0.61413 0.0
C144 C 0.37784 0.07385 0.52855 0.0
C145 C 0.61224 0.91627 0.4629 0.0
C146 C 0.41306 0.87581 0.48963 0.0
C147 C 0.57676 0.11447 0.50038 0.0
O148 O 0.50104 0.89513 0.4105 0.0
O149 O 0.52373 0.87354 0.53753 0.0
O150 O 0.61662 0.45307 0.02514 0.0
O151 O 0.5329 0.46949 0.05081 0.0
O152 O 0.53591 0.53552 0.9561 0.0
O153 O 0.5493 0.45663 0.97132 0.0
O154 O 0.51986 0.54891 0.03503 0.0
Zr155 Zr 0.5733 0.51032 0.01007 0.0
Zr156 Zr 0.47873 0.50785 0.07477 0.0
Zr157 Zr 0.50782 0.4166 0.01174 0.0
O158 O 0.44054 0.53319 0.02123 0.0
O159 O 0.47003 0.44098 0.95746 0.0
O160 O 0.45397 0.45444 0.03642 0.0
Zr161 Zr 0.48193 0.57324 0.98081 0.0
Zr162 Zr 0.51121 0.48207 0.91777 0.0
Zr163 Zr 0.41658 0.4795 0.98242 0.0
O164 O 0.45698 0.52033 0.94171 0.0
O165 O 0.37315 0.53669 0.96743 0.0
O166 O 0.39512 0.40982 0.98987 0.0
O167 O 0.59468 0.58002 0.00261 0.0
O168 O 0.49034 0.59502 0.91129 0.0
O169 O 0.4979 0.39468 0.08103 0.0
O170 O 0.52298 0.37333 0.95459 0.0
O171 O 0.46678 0.6165 0.03795 0.0
O172 O 0.4087 0.5002 0.0954 0.0
O173 O 0.58123 0.48967 0.89709 0.0
O174 O 0.45432 0.46745 0.87376 0.0
O175 O 0.53569 0.5223 0.11876 0.0
O176 O 0.41298 0.593 0.96593 0.0
O177 O 0.57668 0.39684 0.02702 0.0
O178 O 0.44985 0.37219 0.00895 0.0
O179 O 0.53995 0.61758 0.98338 0.0
O180 O 0.59236 0.52473 0.07927 0.0
O181 O 0.39762 0.46502 0.91321 0.0
O182 O 0.37173 0.48114 0.04023 0.0
O183 O 0.61825 0.50863 0.95226 0.0
C184 C 0.61106 0.41485 0.02976 0.0
O185 O 0.46381 0.57682 0.09439 0.0
O186 O 0.47982 0.44952 0.11896 0.0
C187 C 0.37863 0.57495 0.96305 0.0
C188 C 0.41216 0.37637 0.00025 0.0
C189 C 0.57763 0.61343 0.99215 0.0
C190 C 0.50128 0.57817 0.87792 0.0
C191 C 0.48739 0.41163 0.11449 0.0
C192 C 0.5282 0.37877 0.91641 0.0
C193 C 0.46162 0.61111 0.07614 0.0
C194 C 0.37549 0.48967 0.07799 0.0
C195 C 0.61447 0.50012 0.91449 0.0
C196 C 0.416 0.46267 0.87896 0.0
C197 C 0.57401 0.52702 0.11355 0.0
O198 O 0.52608 0.4131 0.89821 0.0
O199 O 0.50994 0.54049 0.87365 0.0
H200 H 0.02061 0.15418 0.1241 0.0
H201 H 0.01212 0.19822 0.18247 0.0
H202 H 0.94409 0.10582 0.24327 0.0
H203 H 0.95231 0.06133 0.18508 0.0
H204 H 0.90772 0.18693 0.24017 0.0
H205 H 0.06531 0.18484 0.29685 0.0
H206 H 0.0602 0.19372 0.24363 0.0
H207 H 0.04524 0.14605 0.26436 0.0
C208 C 0.00403 0.14304 0.14992 0.0
C209 C 0.9872 0.10417 0.14989 0.0
C210 C -0.00061 0.16819 0.18329 0.0
C211 C 0.97781 0.155 0.21712 0.0
C212 C 0.96104 0.11631 0.2174 0.0
H213 H 0.97354 0.30027 0.43649 0.0
H214 H 0.97197 0.24173 0.39188 0.0
C215 C 0.96592 0.09095 0.18417 0.0
C216 C 0.97151 0.18245 0.25148 0.0
H217 H 0.02218 0.23611 0.32284 0.0
C218 C 0.93257 0.19736 0.25865 0.0
C219 C 0.00398 0.19547 0.27568 0.0
C220 C 0.04604 0.179 0.27011 0.0
C221 C 0.9256 0.22661 0.28836 0.0
C222 C 0.95849 0.24127 0.31106 0.0
C223 C -0.00293 0.2249 0.30516 0.0
C224 C 0.9543 0.27556 0.33906 0.0
C225 C 0.88329 0.24202 0.29485 0.0
C226 C 0.94445 0.3138 0.32408 0.0
C227 C 0.94546 0.34737 0.34935 0.0
C228 C 0.95647 0.34327 0.3901 0.0
C229 C 0.96481 0.30456 0.40533 0.0
C230 C 0.96401 0.27104 0.37992 0.0
H231 H 0.86042 0.22042 0.28344 0.0
H232 H 0.87746 0.24782 0.32731 0.0
H233 H 0.87943 0.27081 0.27829 0.0
H234 H 0.93752 0.31793 0.29244 0.0
H235 H 0.93875 0.37665 0.33661 0.0
H236 H 0.86553 0.97245 0.15515 0.0
H237 H 0.80677 0.98145 0.19867 0.0
H238 H 0.74684 0.04874 0.10506 0.0
H239 H 0.80543 0.04005 0.0611 0.0
H240 H 0.74841 0.08542 0.1859 0.0
H241 H 0.69302 0.9276 0.18403 0.0
H242 H 0.74608 0.93298 0.19374 0.0
H243 H 0.72605 0.94765 0.14563 0.0
C244 C 0.83984 0.98901 0.14366 0.0
C245 C 0.84016 0.00539 0.10457 0.0
C246 C 0.80625 0.99394 0.1685 0.0
C247 C 0.77252 0.01538 0.15478 0.0
C248 C 0.77262 0.03188 0.11594 0.0
H249 H 0.55284 0.01696 0.3 0.0
H250 H 0.59697 0.01956 0.24105 0.0
C251 C 0.80607 0.02672 0.09089 0.0
C252 C 0.73775 0.02157 0.18175 0.0
H253 H 0.66646 0.97055 0.2352 0.0
C254 C 0.73006 0.06048 0.19634 0.0
C255 C 0.71369 0.98899 0.19472 0.0
C256 C 0.71977 0.94696 0.17851 0.0
C257 C 0.70005 0.0673 0.22535 0.0
C258 C 0.6776 0.03429 0.24009 0.0
C259 C 0.68394 -0.00424 0.22392 0.0
C260 C 0.64968 0.03824 0.2745 0.0
C261 C 0.69304 0.10957 0.2405 0.0
C262 C 0.66475 0.04834 0.31264 0.0
C263 C 0.63977 0.04671 0.34642 0.0
C264 C 0.59924 0.03483 0.34264 0.0
C265 C 0.58385 0.02633 0.30403 0.0
C266 C 0.60898 0.02774 0.27029 0.0
H267 H 0.70405 0.1324 0.21863 0.0
H268 H 0.66052 0.11502 0.24643 0.0
H269 H 0.70971 0.11383 0.26917 0.0
H270 H 0.69629 0.05585 0.31654 0.0
H271 H 0.65259 0.05363 0.37563 0.0
H272 H 0.95155 0.87759 0.158 0.0
H273 H 0.94841 0.81883 0.20157 0.0
H274 H 0.95213 0.74081 0.09773 0.0
H275 H 0.95618 0.79961 0.05346 0.0
H276 H 0.89509 0.75439 0.20683 0.0
H277 H 0.04967 0.70421 0.16386 0.0
H278 H 0.03035 0.75328 0.15064 0.0
H279 H 0.01402 0.70948 0.12342 0.0
C280 C 0.95144 0.84804 0.14416 0.0
C281 C 0.95473 0.84344 0.10212 0.0
C282 C 0.94951 0.81444 0.16922 0.0
C283 C 0.95076 0.77555 0.15288 0.0
C284 C 0.95196 0.77065 0.11091 0.0
H285 H 0.97968 0.55672 0.2992 0.0
H286 H 0.96702 0.60074 0.24136 0.0
C287 C 0.95406 0.80433 0.08569 0.0
C288 C 0.95283 0.74061 0.1804 0.0
H289 H 0.01697 0.66793 0.21498 0.0
C290 C 0.92149 0.73513 0.20831 0.0
C291 C 0.98735 0.71556 0.18216 0.0
C292 C 0.02246 0.72092 0.15368 0.0
C293 C 0.92437 0.70613 0.23886 0.0
C294 C 0.95963 0.68239 0.24165 0.0
C295 C 0.99007 0.68639 0.21262 0.0
C296 C 0.96693 0.65564 0.27639 0.0
C297 C 0.89009 0.70165 0.26844 0.0
C298 C 0.97187 0.67223 0.31492 0.0
C299 C 0.9794 0.64736 0.34793 0.0
C300 C 0.98209 0.60536 0.34299 0.0
C301 C 0.97762 0.58891 0.30411 0.0
C302 C 0.97036 0.61392 0.27104 0.0
H303 H 0.86146 0.71398 0.25617 0.0
H304 H 0.88545 0.66953 0.27656 0.0
H305 H 0.89742 0.71844 0.29641 0.0
H306 H 0.97 0.7045 0.31941 0.0
H307 H 0.9825 0.66108 0.37738 0.0
H308 H 0.30279 0.95558 0.43255 0.0
H309 H 0.24473 0.94631 0.38804 0.0
H310 H 0.31016 0.00193 0.29055 0.0
H311 H 0.36824 0.01162 0.33451 0.0
H312 H 0.22762 0.03061 0.30467 0.0
H313 H 0.2416 0.86378 0.2914 0.0
H314 H 0.24183 0.88535 0.3412 0.0
H315 H 0.28305 0.8951 0.30762 0.0
C316 C 0.30484 0.96607 0.40171 0.0
C317 C 0.3403 0.98429 0.3871 0.0
C318 C 0.27169 0.9605 0.37633 0.0
C319 C 0.2735 0.9731 0.33608 0.0
C320 C 0.30841 0.99191 0.32159 0.0
H321 H 0.15372 0.9385 0.11458 0.0
H322 H 0.19769 0.9374 0.17355 0.0
C323 C 0.34157 -0.00265 0.34679 0.0
C324 C 0.23913 0.96695 0.30863 0.0
H325 H 0.19042 0.89518 0.25347 0.0
C326 C 0.21902 0.00101 0.29383 0.0
C327 C 0.22843 0.92823 0.29457 0.0
C328 C 0.24987 0.89089 0.30921 0.0
C329 C 0.189 -0.00252 0.26437 0.0
C330 C 0.17883 0.95884 0.2497 0.0
C331 C 0.19825 0.92465 0.26517 0.0
C332 C 0.15075 0.95406 0.21564 0.0
C333 C 0.16957 0.03516 0.24784 0.0
C334 C 0.10963 0.96259 0.22024 0.0
C335 C 0.08433 0.96326 0.18663 0.0
C336 C 0.09989 0.95559 0.14787 0.0
C337 C 0.14079 0.94497 0.14386 0.0
C338 C 0.16595 0.94413 0.17752 0.0
H339 H 0.1847 0.06297 0.25866 0.0
H340 H 0.17026 0.03488 0.21437 0.0
H341 H 0.13751 0.03626 0.25738 0.0
H342 H 0.09745 0.97007 0.24962 0.0
H343 H 0.05298 0.97143 0.19089 0.0
H344 H 0.01068 0.93409 0.79851 0.0
H345 H 0.02232 0.89017 0.74041 0.0
H346 H 0.01195 0.78577 0.81691 0.0
H347 H 0.00039 0.82906 0.87521 0.0
H348 H 0.0846 0.79223 0.76174 0.0
H349 H 0.93512 0.81245 0.68734 0.0
H350 H 0.96193 0.85641 0.70447 0.0
H351 H 0.94209 0.8215 0.74057 0.0
C352 C 0.01065 0.90178 0.80303 0.0
C353 C 0.00449 0.88513 0.84161 0.0
C354 C 0.01726 0.87682 0.76977 0.0
C355 C 0.01786 0.83492 0.77458 0.0
C356 C 0.01154 0.81815 0.8128 0.0
H357 H 0.04375 0.6123 0.65771 0.0
H358 H 0.04718 0.67102 0.70128 0.0
C359 C 0.00474 0.84298 0.84601 0.0
C360 C 0.02554 0.80814 0.74 0.0
H361 H 0.97984 0.76586 0.65838 0.0
C362 C 0.06197 0.78673 0.73879 0.0
C363 C -0.00392 0.80162 0.71002 0.0
C364 C 0.95645 0.82398 0.71042 0.0
C365 C 0.06919 0.75771 0.70897 0.0
C366 C 0.03873 0.74939 0.68036 0.0
C367 C 0.0031 0.77229 0.68042 0.0
C368 C 0.04122 0.71439 0.65294 0.0
C369 C 0.10912 0.73589 0.70873 0.0
C370 C 0.03639 0.71925 0.61123 0.0
C371 C 0.03399 0.68558 0.58607 0.0
C372 C 0.03601 0.64644 0.60231 0.0
C373 C 0.04207 0.64187 0.64404 0.0
C374 C 0.04442 0.67549 0.66906 0.0
H375 H 0.13328 0.75467 0.72229 0.0
H376 H 0.1065 0.70802 0.72701 0.0
H377 H 0.11825 0.72738 0.67767 0.0
H378 H 0.03354 0.74908 0.59829 0.0
H379 H 0.0293 0.69029 0.55411 0.0
H380 H 0.18404 0.95048 0.92986 0.0
H381 H 0.24266 0.94213 0.88587 0.0
H382 H 0.182 0.00846 0.79204 0.0
H383 H 0.12324 0.01714 0.8356 0.0
H384 H 0.24171 0.905 0.80565 0.0
H385 H 0.29493 0.06354 0.80569 0.0
H386 H 0.26198 0.04356 0.8442 0.0
H387 H 0.24199 0.05743 0.79584 0.0
C388 C 0.18324 0.96367 0.90001 0.0
C389 C 0.14894 0.98464 0.8863 0.0
C390 C 0.21672 0.95871 0.87494 0.0
C391 C 0.21664 0.97504 0.83603 0.0
C392 C 0.18268 -0.00389 0.82226 0.0
H393 H 0.33762 0.93578 0.61563 0.0
H394 H 0.29368 0.93386 0.67456 0.0
C395 C 0.14909 0.00086 0.84714 0.0
C396 C 0.25145 0.96904 0.80903 0.0
H397 H 0.32203 0.0204 0.75495 0.0
C398 C 0.2597 0.93007 0.79491 0.0
C399 C 0.27504 0.0018 0.79564 0.0
C400 C 0.26839 0.04394 0.81134 0.0
C401 C 0.28982 0.92332 0.76598 0.0
C402 C 0.31182 0.95645 0.75085 0.0
C403 C 0.3049 -0.00491 0.76653 0.0
C404 C 0.33992 0.95244 0.71659 0.0
C405 C 0.29745 0.88097 0.75136 0.0
C406 C 0.3805 0.96337 0.72084 0.0
C407 C 0.40578 0.96459 0.68719 0.0
C408 C 0.39065 0.95545 0.64862 0.0
C409 C 0.35024 0.94317 0.64481 0.0
C410 C 0.32512 0.94173 0.67851 0.0
H411 H 0.2866 0.85824 0.77342 0.0
H412 H 0.28102 0.87618 0.72263 0.0
H413 H 0.33006 0.87588 0.74568 0.0
H414 H 0.3923 0.97203 0.75003 0.0
H415 H 0.43668 0.97431 0.69123 0.0
H416 H 0.01024 0.43366 0.69314 0.0
H417 H 0.02284 0.38974 0.75107 0.0
H418 H 0.02044 0.28589 0.6731 0.0
H419 H 0.00799 0.32921 0.61504 0.0
H420 H 0.97286 0.32212 0.77711 0.0
H421 H 0.12897 0.27726 0.73688 0.0
H422 H 0.10485 0.32169 0.71659 0.0
H423 H 0.09333 0.27284 0.69634 0.0
C424 C 0.01241 0.40147 0.68826 0.0
C425 C 0.00813 0.38496 0.6494 0.0
C426 C 0.01964 0.37652 0.72139 0.0
C427 C 0.02322 0.33482 0.71607 0.0
C428 C 0.01845 0.31817 0.67755 0.0
H429 H 0.03793 0.11254 0.83323 0.0
H430 H 0.04136 0.17158 0.79001 0.0
C431 C 0.01095 0.34297 0.6445 0.0
C432 C 0.03049 0.30813 0.75082 0.0
H433 H 0.09521 0.23633 0.78571 0.0
C434 C -0.00013 0.30382 0.7796 0.0
C435 C 0.06589 0.28463 0.75376 0.0
C436 C 0.10036 0.2895 0.72447 0.0
C437 C 0.00254 0.27452 0.80992 0.0
C438 C 0.03718 0.24964 0.81175 0.0
C439 C 0.06871 0.25547 0.78415 0.0
C440 C 0.03918 0.21453 0.839 0.0
C441 C 0.96728 0.2688 0.83815 0.0
C442 C 0.03799 0.2192 0.88099 0.0
C443 C 0.03574 0.18538 0.90598 0.0
C444 C 0.03489 0.14638 0.8893 0.0
C445 C 0.03818 0.142 0.84724 0.0
C446 C 0.04028 0.17575 0.82239 0.0
H447 H 0.94012 0.28561 0.82804 0.0
H448 H 0.95942 0.2364 0.84074 0.0
H449 H 0.97557 0.27985 0.86859 0.0
H450 H 0.0379 0.24896 0.89435 0.0
H451 H 0.03363 0.18992 0.93824 0.0
H452 H 0.69247 0.01418 0.5552 0.0
H453 H 0.75074 0.02587 0.59891 0.0
H454 H 0.67459 0.01529 0.7037 0.0
H455 H 0.61617 0.00375 0.66063 0.0
H456 H 0.72945 0.08701 0.69848 0.0
H457 H 0.80457 0.93844 0.6749 0.0
H458 H 0.78786 0.96627 0.63139 0.0
H459 H 0.7514 0.94564 0.6655 0.0
C460 C 0.68807 0.01417 0.58755 0.0
C461 C 0.64958 0.00785 0.60437 0.0
C462 C 0.72143 0.02079 0.6124 0.0
C463 C 0.7168 0.02126 0.65437 0.0
C464 C 0.67861 0.01497 0.67128 0.0
H465 H 0.83314 0.04262 0.87765 0.0
H466 H 0.78981 0.04701 0.8188 0.0
C467 C 0.64532 0.00816 0.64657 0.0
C468 C 0.75153 0.02852 0.68111 0.0
H469 H 0.83344 0.98214 0.72234 0.0
C470 C 0.75254 0.06436 0.70342 0.0
C471 C 0.78171 -0.00094 0.68693 0.0
C472 C 0.78156 0.96002 0.66364 0.0
C473 C 0.78231 0.07095 0.73264 0.0
C474 C 0.81108 0.04042 0.74027 0.0
C475 C 0.81126 0.00546 0.71645 0.0
C476 C 0.83838 0.04207 0.77547 0.0
C477 C 0.78228 0.11027 0.75544 0.0
C478 C 0.88015 0.03739 0.77069 0.0
C479 C 0.9052 0.03442 0.80445 0.0
C480 C 0.88878 0.03572 0.84359 0.0
C481 C 0.84697 0.04152 0.84809 0.0
C482 C 0.82207 0.04442 0.81439 0.0
H483 H 0.76877 0.13485 0.73714 0.0
H484 H 0.7638 0.10694 0.78312 0.0
H485 H 0.81327 0.11922 0.76436 0.0
H486 H 0.89325 0.03518 0.74085 0.0
H487 H 0.93721 0.02995 0.79979 0.0
H488 H 0.33403 0.36772 0.97513 0.0
H489 H 0.29038 0.30923 0.98395 0.0
H490 H 0.3873 0.24485 0.04186 0.0
H491 H 0.43142 0.3032 0.03344 0.0
H492 H 0.30585 0.22584 0.95656 0.0
H493 H 0.28897 0.24294 0.12286 0.0
H494 H 0.30533 0.28389 0.09098 0.0
H495 H 0.33924 0.24335 0.10233 0.0
C496 C 0.34622 0.34117 0.98968 0.0
C497 C 0.38624 0.34029 0.0037 0.0
C498 C 0.32123 0.30777 0.9946 0.0
C499 C 0.33565 0.27307 0.01385 0.0
C500 C 0.37565 0.27164 0.02728 0.0
H501 H 0.19097 0.05197 0.01622 0.0
H502 H 0.24983 0.09631 0.01682 0.0
C503 C 0.4008 0.30496 0.02222 0.0
C504 C 0.30835 0.23864 0.02006 0.0
H505 H 0.25253 0.19063 0.09185 0.0
C506 C 0.29452 0.21768 0.98613 0.0
C507 C 0.2937 0.2285 0.05875 0.0
C508 C 0.30726 0.25086 0.09594 0.0
C509 C 0.26541 0.18734 0.98973 0.0
C510 C 0.25014 0.17771 0.02834 0.0
C511 C 0.2647 0.198 0.06241 0.0
C512 C 0.21608 0.14963 0.03318 0.0
C513 C 0.24987 0.16704 0.95211 0.0
C514 C 0.17808 0.16482 0.04366 0.0
C515 C 0.14441 0.13973 0.04336 0.0
C516 C 0.14825 0.09888 0.03272 0.0
C517 C 0.18688 0.08328 0.02444 0.0
C518 C 0.22055 0.10854 0.0246 0.0
H519 H 0.26067 0.18206 0.92421 0.0
H520 H 0.2603 0.13527 0.95157 0.0
H521 H 0.21638 0.16687 0.95193 0.0
H522 H 0.1742 0.19651 0.05049 0.0
H523 H 0.11523 0.15268 0.05031 0.0
H524 H 0.37609 0.65676 0.95351 0.0
H525 H 0.31669 0.69967 0.95033 0.0
H526 H 0.23987 0.59504 0.95393 0.0
H527 H 0.29927 0.55146 0.9579 0.0
H528 H 0.25181 0.70347 0.89643 0.0
H529 H 0.20253 0.66139 0.05143 0.0
H530 H 0.25193 0.64894 0.0323 0.0
H531 H 0.20866 0.62081 0.01609 0.0
C532 C 0.34667 0.64262 0.95335 0.0
C533 C 0.34258 0.60056 0.95653 0.0
C534 C 0.31271 0.66729 0.95142 0.0
C535 C 0.27397 0.65052 0.95259 0.0
C536 C 0.26958 0.60854 0.95378 0.0
H537 H 0.05409 0.79667 0.98095 0.0
H538 H 0.09781 0.73845 0.96848 0.0
C539 C 0.30361 0.58372 0.95585 0.0
C540 C 0.23862 0.67759 0.95448 0.0
H541 H 0.16576 0.71209 0.01856 0.0
C542 C 0.23262 0.70503 0.92288 0.0
C543 C 0.21364 0.6794 0.98904 0.0
C544 C 0.21949 0.65132 0.02435 0.0
C545 C 0.20322 0.73525 0.92556 0.0
C546 C 0.17964 0.73824 0.9609 0.0
C547 C 0.1841 0.70958 0.99159 0.0
C548 C 0.15298 0.77308 0.96816 0.0
C549 C 0.19822 0.76439 0.89102 0.0
C550 C 0.16981 0.81148 0.97291 0.0
C551 C 0.14514 0.84467 0.98034 0.0
C552 C 0.10306 0.84007 0.98313 0.0
C553 C 0.08634 0.80132 0.97884 0.0
C554 C 0.11119 0.76804 0.97168 0.0
H555 H 0.21042 0.75187 0.86245 0.0
H556 H 0.16596 0.77224 0.88655 0.0
H557 H 0.21488 0.79252 0.89792 0.0
H558 H 0.20214 0.81575 0.97094 0.0
H559 H 0.15909 0.874 0.98329 0.0
H560 H 0.69043 0.43827 0.0351 0.0
H561 H 0.74979 0.39462 0.03893 0.0
H562 H 0.67286 0.29006 0.04223 0.0
H563 H 0.61351 0.33303 0.0392 0.0
H564 H 0.73781 0.28588 0.09593 0.0
H565 H 0.78685 0.32872 0.94106 0.0
H566 H 0.78089 0.36911 0.97663 0.0
H567 H 0.73752 0.34117 0.96036 0.0
C568 C 0.68606 0.40601 0.03707 0.0
C569 C 0.64708 0.38921 0.03632 0.0
C570 C 0.72006 0.38115 0.03906 0.0
C571 C 0.71562 0.33916 0.0401 0.0
C572 C 0.67687 0.32243 0.04125 0.0
H573 H 0.83021 0.11559 0.00833 0.0
H574 H 0.7872 0.17382 0.02098 0.0
C575 C 0.64294 0.34714 0.03941 0.0
C576 C 0.75093 0.31206 0.038 0.0
H577 H 0.82357 0.27777 0.97357 0.0
C578 C 0.75694 0.28444 0.06944 0.0
C579 C 0.77584 0.31039 0.00338 0.0
C580 C 0.76997 0.33868 0.96823 0.0
C581 C 0.78626 0.25416 0.06652 0.0
C582 C 0.80975 0.25132 0.03111 0.0
C583 C 0.8053 0.28016 0.0006 0.0
C584 C 0.83636 0.21649 0.02362 0.0
C585 C 0.79126 0.22483 0.10089 0.0
C586 C 0.87814 0.22155 0.01989 0.0
C587 C 0.90295 0.18829 0.01254 0.0
C588 C 0.88623 0.14955 0.0083 0.0
C589 C 0.84417 0.14492 0.01126 0.0
C590 C 0.81952 0.1781 0.01887 0.0
H591 H 0.77922 0.23726 0.12958 0.0
H592 H 0.77444 0.1968 0.09392 0.0
H593 H 0.8235 0.2168 0.10521 0.0
H594 H 0.89152 0.25114 0.02307 0.0
H595 H 0.9352 0.19296 0.01028 0.0
H596 H 0.79848 0.93779 0.97477 0.0
H597 H 0.73963 0.89346 0.97448 0.0
H598 H 0.81509 0.79324 0.94049 0.0
H599 H 0.87407 0.83706 0.94039 0.0
H600 H 0.73608 0.79948 0.89959 0.0
H601 H 0.73009 0.80742 0.06737 0.0
H602 H 0.7304 0.85427 0.04009 0.0
H603 H 0.77414 0.82245 0.03916 0.0
C604 C 0.80254 0.90648 0.96652 0.0
C605 C 0.84114 0.89086 0.9581 0.0
C606 C 0.76888 0.88124 0.96653 0.0
C607 C 0.77332 0.84015 0.95797 0.0
C608 C 0.81125 0.82494 0.94729 0.0
H609 H 0.65621 0.62172 0.016 0.0
H610 H 0.69977 0.68024 0.00701 0.0
C611 C 0.84492 0.85002 0.94744 0.0
C612 C 0.73933 0.81209 0.96312 0.0
H613 H 0.6846 0.76366 0.03544 0.0
C614 C 0.7243 0.79198 0.92915 0.0
C615 C 0.72458 0.8023 0.00189 0.0
C616 C 0.74065 0.82245 0.03937 0.0
C617 C 0.69534 0.76149 0.93307 0.0
C618 C 0.68123 0.75118 0.97191 0.0
C619 C 0.69553 0.77196 0.00576 0.0
C620 C 0.654 0.71676 0.97832 0.0
C621 C 0.68124 0.73931 0.89598 0.0
C622 C 0.61377 0.71841 0.96565 0.0
C623 C 0.58867 0.68507 0.97081 0.0
C624 C 0.60352 0.64952 0.98867 0.0
C625 C 0.64378 0.64844 0.00197 0.0
C626 C 0.66872 0.68185 -0.00305 0.0
H627 H 0.69905 0.74744 0.8688 0.0
H628 H 0.68335 0.70626 0.90072 0.0
H629 H 0.64913 0.74675 0.89017 0.0
H630 H 0.60191 0.74536 0.95156 0.0
H631 H 0.55785 0.68702 0.9602 0.0
H632 H 0.62585 0.47025 0.83848 0.0
H633 H 0.68486 0.4787 0.79526 0.0
H634 H 0.74418 0.54681 0.88857 0.0
H635 H 0.6853 0.53861 0.93227 0.0
H636 H 0.74246 0.58292 0.80731 0.0
H637 H 0.79907 0.42546 0.81033 0.0
H638 H 0.74593 0.43045 0.80078 0.0
H639 H 0.76602 0.44568 0.84868 0.0
C640 C 0.65147 0.48686 0.85 0.0
C641 C 0.65084 0.50367 0.8889 0.0
C642 C 0.68521 0.49146 0.82532 0.0
C643 C 0.71884 0.51302 0.839 0.0
C644 C 0.7185 0.52985 0.87771 0.0
H645 H 0.93793 0.51504 0.69232 0.0
H646 H 0.89409 0.51713 0.75154 0.0
C647 C 0.68487 0.52499 0.90261 0.0
C648 C 0.75362 0.51918 0.81199 0.0
H649 H 0.82501 0.46806 0.75856 0.0
C650 C 0.76095 0.55799 0.79701 0.0
C651 C 0.77787 0.48662 0.79917 0.0
C652 C 0.77219 0.44471 0.81578 0.0
C653 C 0.79075 0.56471 0.76776 0.0
C654 C 0.81334 0.53169 0.75313 0.0
C655 C 0.80741 0.49328 0.76972 0.0
C656 C 0.841 0.53551 0.71846 0.0
C657 C 0.79734 0.60689 0.75224 0.0
C658 C 0.82563 0.54555 0.68041 0.0
C659 C 0.85045 0.54423 0.64647 0.0
C660 C 0.89114 0.53275 0.64998 0.0
C661 C 0.9068 0.52415 0.68848 0.0
C662 C 0.88183 0.52526 0.72238 0.0
H663 H 0.78645 0.62984 0.77408 0.0
H664 H 0.82975 0.61242 0.74589 0.0
H665 H 0.78029 0.61091 0.72375 0.0
H666 H 0.794 0.55285 0.67669 0.0
H667 H 0.8374 0.55116 0.61736 0.0
H668 H 0.11727 0.48629 0.66049 0.0
H669 H 0.17615 0.47567 0.70325 0.0
H670 H 0.25218 0.46806 0.59812 0.0
H671 H 0.19342 0.47872 0.5547 0.0
H672 H 0.23388 0.40437 0.69521 0.0
H673 H 0.30276 0.55652 0.6771 0.0
H674 H 0.24961 0.54807 0.66876 0.0
H675 H 0.28576 0.52984 0.63296 0.0
C676 C 0.14647 0.48269 0.64629 0.0
C677 C 0.15055 0.4835 0.60408 0.0
C678 C 0.18003 0.47643 0.67082 0.0
C679 C 0.2183 0.47122 0.65372 0.0
C680 C 0.22277 0.47225 0.61174 0.0
H681 H 0.4389 0.46525 0.79933 0.0
H682 H 0.39518 0.46094 0.74011 0.0
C683 C 0.18915 0.47829 0.58707 0.0
C684 C 0.25329 0.46439 0.68026 0.0
H685 H 0.33291 0.51259 0.72363 0.0
C686 C 0.25591 0.42776 0.70112 0.0
C687 C 0.28208 0.49485 0.68736 0.0
C688 C 0.28016 0.5347 0.66559 0.0
C689 C 0.28592 0.42131 0.73016 0.0
C690 C 0.31325 0.45273 0.73913 0.0
C691 C 0.31185 0.4886 0.71674 0.0
C692 C 0.34057 0.45079 0.77431 0.0
C693 C 0.28767 0.38115 0.75136 0.0
C694 C 0.32434 0.44633 0.81307 0.0
C695 C 0.3491 0.44872 0.84691 0.0
C696 C 0.39068 0.45605 0.84275 0.0
C697 C 0.40707 0.45949 0.80373 0.0
C698 C 0.38215 0.45709 0.76981 0.0
H699 H 0.27516 0.35678 0.73213 0.0
H700 H 0.31906 0.37314 0.75984 0.0
H701 H 0.26919 0.38262 0.77921 0.0
H702 H 0.29219 0.44241 0.8173 0.0
H703 H 0.33532 0.44591 0.87638 0.0
H704 H 0.05216 0.474 0.29993 0.0
H705 H 0.09584 0.47155 0.24063 0.0
H706 H 0.19625 0.4368 0.31551 0.0
H707 H 0.153 0.43884 0.37493 0.0
H708 H 0.1645 0.52096 0.23328 0.0
H709 H 0.20419 0.35939 0.21855 0.0
H710 H 0.16082 0.37665 0.24673 0.0
H711 H 0.2103 0.37858 0.26879 0.0
C712 C 0.08333 0.46502 0.30376 0.0
C713 C 0.09913 0.45683 0.34229 0.0
C714 C 0.1082 0.46369 0.26981 0.0
C715 C 0.14907 0.45363 0.27373 0.0
C716 C 0.16458 0.44395 0.31182 0.0
H717 H 0.36383 0.51976 0.15386 0.0
H718 H 0.30477 0.51109 0.197 0.0
C719 C 0.13985 0.44547 0.3458 0.0
C720 C 0.17664 0.45744 0.23902 0.0
H721 H 0.24797 0.40647 0.18521 0.0
C722 C 0.18229 0.49582 0.22226 0.0
C723 C 0.19949 0.42451 0.22459 0.0
C724 C 0.19318 0.38236 0.24031 0.0
C725 C 0.21182 0.50255 0.19283 0.0
C726 C 0.23634 0.47012 0.18023 0.0
C727 C 0.22927 0.43131 0.19535 0.0
C728 C 0.27111 0.47641 0.15329 0.0
C729 C 0.21722 0.54442 0.17602 0.0
C730 C 0.27162 0.45945 0.11465 0.0
C731 C 0.30525 0.46444 0.08981 0.0
C732 C 0.33912 0.48601 0.10352 0.0
C733 C 0.33833 0.50295 0.14236 0.0
C734 C 0.30457 0.49822 0.16698 0.0
H735 H 0.19019 0.5635 0.18134 0.0
H736 H 0.24336 0.55894 0.19099 0.0
H737 H 0.22345 0.54334 0.14314 0.0
H738 H 0.24606 0.4423 0.1038 0.0
H739 H 0.30497 0.45072 0.06019 0.0
H740 H 0.55126 0.52382 0.1932 0.0
H741 H 0.59506 0.52798 0.25238 0.0
H742 H 0.69786 0.54735 0.17515 0.0
H743 H 0.65465 0.54402 0.1161 0.0
H744 H 0.65762 0.47661 0.26863 0.0
H745 H 0.71452 0.63276 0.26061 0.0
H746 H 0.67069 0.61626 0.23289 0.0
H747 H 0.72059 0.6071 0.21344 0.0
C748 C 0.58307 0.52974 0.18879 0.0
C749 C 0.59938 0.53349 0.14976 0.0
C750 C 0.60803 0.53204 0.22268 0.0
C751 C 0.64958 0.53854 0.21816 0.0
C752 C 0.66573 0.54327 0.17939 0.0
H753 H 0.8731 0.50375 0.33182 0.0
H754 H 0.81414 0.51413 0.28911 0.0
C755 C 0.64093 0.54098 0.14558 0.0
C756 C 0.67695 0.53663 0.25331 0.0
H757 H 0.75606 0.58529 0.29738 0.0
C758 C 0.67855 0.50069 0.27559 0.0
C759 C 0.70411 0.56816 0.26238 0.0
C760 C 0.70213 0.60838 0.24131 0.0
C761 C 0.70835 0.49451 0.30495 0.0
C762 C 0.73698 0.52511 0.31214 0.0
C763 C 0.73415 0.56179 0.2914 0.0
C764 C 0.77201 0.5184 0.33866 0.0
C765 C 0.7105 0.45462 0.32661 0.0
C766 C 0.76757 0.51734 0.38064 0.0
C767 C 0.80125 0.51144 0.4053 0.0
C768 C 0.83985 0.5064 0.38826 0.0
C769 C 0.84389 0.50722 0.34604 0.0
C770 C 0.81029 0.51335 0.32153 0.0
H771 H 0.68795 0.43273 0.3151 0.0
H772 H 0.74109 0.44139 0.32332 0.0
H773 H 0.70497 0.45936 0.35927 0.0
H774 H 0.73816 0.5214 0.39429 0.0
H775 H 0.797 0.51097 0.43766 0.0
H776 H 0.33063 0.87322 0.48862 0.0
H777 H 0.28765 0.81472 0.47758 0.0
H778 H 0.3926 0.73865 0.46769 0.0
H779 H 0.43626 0.79706 0.47882 0.0
H780 H 0.29374 0.75914 0.40581 0.0
H781 H 0.31554 0.6857 0.55545 0.0
H782 H 0.32453 0.73885 0.54805 0.0
H783 H 0.35926 0.70262 0.52801 0.0
C784 C 0.34476 0.84408 0.48446 0.0
C785 C 0.387 0.83991 0.48477 0.0
C786 C 0.32009 0.81074 0.47796 0.0
C787 C 0.33706 0.77255 0.47198 0.0
C788 C 0.37906 0.76797 0.47252 0.0
H789 H 0.19148 0.5523 0.46303 0.0
H790 H 0.25049 0.59624 0.45869 0.0
C791 C 0.40389 0.8014 0.47882 0.0
C792 C 0.31033 0.7378 0.46479 0.0
H793 H 0.26826 0.65668 0.51162 0.0
C794 C 0.28846 0.73638 0.42867 0.0
C795 C 0.30404 0.70805 0.49453 0.0
C796 C 0.32685 0.70864 0.53386 0.0
C797 C 0.25925 0.70663 0.42205 0.0
C798 C 0.25113 0.67829 0.45283 0.0
C799 C 0.27449 0.67852 0.48812 0.0
C800 C 0.21594 0.65099 0.45094 0.0
C801 C 0.23698 0.7062 0.38241 0.0
C802 C 0.17701 0.66722 0.44785 0.0
C803 C 0.14328 0.64233 0.45023 0.0
C804 C 0.1477 0.6006 0.45621 0.0
C805 C 0.18686 0.58425 0.45833 0.0
C806 C 0.22067 0.60929 0.4559 0.0
H807 H 0.25559 0.71946 0.35792 0.0
H808 H 0.22825 0.67514 0.37364 0.0
H809 H 0.20919 0.72464 0.38521 0.0
H810 H 0.17262 0.69943 0.445 0.0
H811 H 0.11371 0.65611 0.44852 0.0
H812 H 0.1542 0.36525 0.47062 0.0
H813 H 0.19759 0.30638 0.47933 0.0
H814 H 0.10395 0.24679 0.54686 0.0
H815 H 0.06015 0.30549 0.53848 0.0
H816 H 0.18402 0.24796 0.58366 0.0
H817 H 0.18394 0.19295 0.42559 0.0
H818 H 0.19391 0.24588 0.4311 0.0
H819 H 0.14548 0.2262 0.44525 0.0
C820 C 0.14267 0.33959 0.48714 0.0
C821 C 0.10364 0.34007 0.50373 0.0
C822 C 0.16743 0.30593 0.49189 0.0
C823 C 0.15368 0.27226 0.51335 0.0
C824 C 0.11486 0.2725 0.52997 0.0
H825 H 0.299 0.05258 0.51618 0.0
H826 H 0.23999 0.09675 0.51799 0.0
C827 C 0.0899 0.30602 0.52499 0.0
C828 C 0.18067 0.23752 0.51967 0.0
H829 H 0.23477 0.16638 0.46899 0.0
C830 C 0.19478 0.2297 0.55875 0.0
C831 C 0.19406 0.21356 0.48713 0.0
C832 C 0.17835 0.21972 0.44491 0.0
C833 C 0.2237 0.19967 0.56581 0.0
C834 C 0.23886 0.17732 0.53287 0.0
C835 C 0.22318 0.18378 0.49414 0.0
C836 C 0.27322 0.14938 0.53716 0.0
C837 C 0.23829 0.19253 0.60826 0.0
C838 C 0.31124 0.16438 0.5478 0.0
C839 C 0.34505 0.13938 0.54663 0.0
C840 C 0.34141 0.09889 0.53469 0.0
C841 C 0.3029 0.08356 0.52564 0.0
C842 C 0.26914 0.10871 0.52658 0.0
H843 H 0.21614 0.20351 0.63088 0.0
H844 H 0.24411 0.16002 0.61366 0.0
H845 H 0.26695 0.20911 0.61294 0.0
H846 H 0.31507 0.19588 0.55539 0.0
H847 H 0.37418 0.15215 0.55394 0.0
H848 H 0.83461 0.62321 0.51716 0.0
H849 H 0.79097 0.68166 0.50734 0.0
H850 H 0.88791 0.74473 0.44816 0.0
H851 H 0.93199 0.68642 0.45755 0.0
H852 H 0.80641 0.76504 0.53346 0.0
H853 H 0.78981 0.74628 0.36733 0.0
H854 H 0.80629 0.70568 0.39962 0.0
H855 H 0.84007 0.74614 0.38784 0.0
C856 C 0.8468 0.64947 0.50212 0.0
C857 C 0.88681 0.65001 0.48806 0.0
C858 C 0.82182 0.68283 0.49661 0.0
C859 C 0.83625 0.71714 0.47672 0.0
C860 C 0.87624 0.71824 0.46322 0.0
H861 H 0.69133 0.93825 0.47277 0.0
H862 H 0.75034 0.894 0.47188 0.0
C863 C 0.90138 0.68495 0.46886 0.0
C864 C 0.80901 0.7516 0.47009 0.0
H865 H 0.75328 0.79899 0.3978 0.0
C866 C 0.79512 0.77292 0.50381 0.0
C867 C 0.79444 0.76139 0.43129 0.0
C868 C 0.80811 0.73866 0.39432 0.0
C869 C 0.76601 0.80326 0.49989 0.0
C870 C 0.75078 0.81252 0.46119 0.0
C871 C 0.76542 0.79189 0.42731 0.0
C872 C 0.71667 0.84055 0.45612 0.0
C873 C 0.75039 0.82394 0.53731 0.0
C874 C 0.67866 0.82524 0.44602 0.0
C875 C 0.64489 0.85028 0.4465 0.0
C876 C 0.64865 0.89117 0.45695 0.0
C877 C 0.68729 0.90689 0.46474 0.0
C878 C 0.72105 0.8817 0.46439 0.0
H879 H 0.76118 0.80917 0.56536 0.0
H880 H 0.76077 0.8557 0.53755 0.0
H881 H 0.7169 0.82414 0.53749 0.0
H882 H 0.67485 0.79349 0.43945 0.0
H883 H 0.61571 0.83724 0.43991 0.0
H884 H 0.55978 0.18493 0.53996 0.0
H885 H 0.60397 0.24334 0.54839 0.0
H886 H 0.69601 0.18435 0.47801 0.0
H887 H 0.65232 0.12583 0.46935 0.0
H888 H 0.68565 0.24045 0.58342 0.0
H889 H 0.6813 0.29926 0.42678 0.0
H890 H 0.64296 0.26624 0.44691 0.0
H891 H 0.69062 0.24605 0.43086 0.0
C892 C 0.58926 0.1845 0.52588 0.0
C893 C 0.60249 0.15069 0.5039 0.0
C894 C 0.61444 0.21785 0.53087 0.0
C895 C 0.65295 0.21814 0.5135 0.0
C896 C 0.66612 0.18475 0.49122 0.0
H897 H 0.87554 0.33597 0.55135 0.0
H898 H 0.81645 0.29232 0.55267 0.0
C899 C 0.64117 0.15129 0.48649 0.0
C900 C 0.68032 0.25256 0.51987 0.0
H901 H 0.73356 0.32432 0.46927 0.0
C902 C 0.69578 0.25922 0.55865 0.0
C903 C 0.69296 0.27715 0.48753 0.0
C904 C 0.67589 0.27218 0.44569 0.0
C905 C 0.72525 0.28871 0.56552 0.0
C906 C 0.73961 0.31173 0.53269 0.0
C907 C 0.72261 0.30641 0.49434 0.0
C908 C 0.77423 0.33939 0.53666 0.0
C909 C 0.74125 0.2946 0.60765 0.0
C910 C 0.76997 0.38034 0.52729 0.0
C911 C 0.80373 0.40547 0.52644 0.0
C912 C 0.84242 0.38987 0.53439 0.0
C913 C 0.84628 0.34901 0.54496 0.0
C914 C 0.81249 0.32402 0.54604 0.0
H915 H 0.71974 0.28326 0.63069 0.0
H916 H 0.7699 0.27762 0.61099 0.0
H917 H 0.74751 0.32689 0.61371 0.0
H918 H 0.74067 0.39262 0.51968 0.0
H919 H 0.79961 0.43672 0.51801 0.0
H920 H 0.55115 0.37601 0.83723 0.0
H921 H 0.55184 0.31726 0.79306 0.0
H922 H 0.51975 0.24099 0.89317 0.0
H923 H 0.51868 0.29956 0.93784 0.0
H924 H 0.5939 0.2386 0.79844 0.0
H925 H 0.42622 0.23094 0.80781 0.0
H926 H 0.45408 0.27515 0.82279 0.0
H927 H 0.45378 0.23141 0.85452 0.0
C928 C 0.5447 0.34674 0.85009 0.0
C929 C 0.53429 0.34264 0.89101 0.0
C930 C 0.54531 0.3132 0.82481 0.0
C931 C 0.53537 0.27508 0.8399 0.0
C932 C 0.52714 0.27037 0.88105 0.0
H933 H 0.53447 0.05927 0.68694 0.0
H934 H 0.54381 0.10381 0.7449 0.0
C935 C 0.52666 0.30388 0.90648 0.0
C936 C 0.53042 0.24116 0.81168 0.0
H937 H 0.45836 0.18546 0.76411 0.0
C938 C 0.56441 0.22648 0.79124 0.0
C939 C 0.49175 0.22597 0.80227 0.0
C940 C 0.45421 0.2417 0.8227 0.0
C941 C 0.5606 0.19735 0.76085 0.0
C942 C 0.52183 0.18272 0.75099 0.0
C943 C 0.48799 0.19675 0.77206 0.0
C944 C 0.51539 0.15523 0.71673 0.0
C945 C 0.59768 0.18361 0.73833 0.0
C946 C 0.4956 0.16938 0.68222 0.0
C947 C 0.49013 0.14415 0.64908 0.0
C948 C 0.50412 0.10415 0.65003 0.0
C949 C 0.52324 0.08986 0.68516 0.0
C950 C 0.52884 0.11526 0.71823 0.0
H951 H 0.62464 0.20193 0.74595 0.0
H952 H 0.60416 0.15172 0.74604 0.0
H953 H 0.59252 0.18526 0.7053 0.0
H954 H 0.4849 0.2002 0.68072 0.0
H955 H 0.47515 0.15615 0.62268 0.0
H956 H 0.55401 0.87624 0.65422 0.0
H957 H 0.55573 0.81756 0.69845 0.0
H958 H 0.51882 0.74155 0.59981 0.0
H959 H 0.51678 0.80006 0.55515 0.0
H960 H 0.46975 0.73683 0.66983 0.0
H961 H 0.63201 0.71897 0.70635 0.0
H962 H 0.61363 0.76964 0.71156 0.0
H963 H 0.6145 0.74637 0.66265 0.0
C964 C 0.54686 0.84699 0.64167 0.0
C965 C 0.53504 0.84295 0.60115 0.0
C966 C 0.54818 0.81344 0.66696 0.0
C967 C 0.53775 0.77527 0.65223 0.0
C968 C 0.52724 0.7708 0.61157 0.0
H969 H 0.53891 0.56086 0.80637 0.0
H970 H 0.54748 0.60538 0.74822 0.0
C971 C 0.52617 0.8043 0.58613 0.0
C972 C 0.5337 0.74108 0.68039 0.0
H973 H 0.58512 0.68611 0.75045 0.0
C974 C 0.49505 0.72528 0.68704 0.0
C975 C 0.56683 0.72599 0.70252 0.0
C976 C 0.60918 0.74082 0.69523 0.0
C977 C 0.48833 0.696 0.7167 0.0
C978 C 0.52108 0.68253 0.74032 0.0
C979 C 0.56006 0.69687 0.73241 0.0
C980 C 0.51503 0.65523 0.77485 0.0
C981 C 0.44618 0.68019 0.72309 0.0
C982 C 0.49411 0.6688 0.80897 0.0
C983 C 0.48926 0.64364 0.84229 0.0
C984 C 0.5052 0.60435 0.84201 0.0
C985 C 0.52597 0.59081 0.80752 0.0
C986 C 0.53105 0.61618 0.77432 0.0
H987 H 0.4265 0.68624 0.69668 0.0
H988 H 0.44664 0.64726 0.72895 0.0
H989 H 0.43268 0.69524 0.74976 0.0
H990 H 0.48196 0.69909 0.81 0.0
H991 H 0.47312 0.65508 0.86828 0.0
H992 H 0.43814 0.61404 0.15518 0.0
H993 H 0.43627 0.67297 0.199 0.0
H994 H 0.46923 0.74899 0.09894 0.0
H995 H 0.47151 0.6902 0.05468 0.0
H996 H 0.51977 0.75557 0.16704 0.0
H997 H 0.35845 0.76961 0.2089 0.0
H998 H 0.37805 0.71943 0.21422 0.0
H999 H 0.37523 0.74198 0.16503 0.0
C1000 C 0.44439 0.64332 0.14223 0.0
C1001 C 0.45525 0.64729 0.10142 0.0
C1002 C 0.44297 0.67702 0.16729 0.0
C1003 C 0.45225 0.71527 0.15204 0.0
C1004 C 0.46172 0.71966 0.11111 0.0
H1005 H 0.45052 0.92905 0.3068 0.0
H1006 H 0.44164 0.88479 0.24854 0.0
C1007 C 0.46294 0.686 0.0859 0.0
C1008 C 0.45634 0.74969 0.17987 0.0
H1009 H 0.40601 0.80321 0.25184 0.0
C1010 C 0.49479 0.76647 0.18515 0.0
C1011 C 0.42361 0.76393 0.20317 0.0
C1012 C 0.38141 0.7481 0.19735 0.0
C1013 C 0.50179 0.79585 0.21463 0.0
C1014 C 0.46955 0.80838 0.23946 0.0
C1015 C 0.43069 0.79312 0.23288 0.0
C1016 C 0.4761 0.83564 0.27388 0.0
C1017 C 0.54371 0.81273 0.21957 0.0
C1018 C 0.49829 0.82236 0.30729 0.0
C1019 C 0.50331 0.84737 0.34069 0.0
C1020 C 0.48627 0.88618 0.34116 0.0
C1021 C 0.46433 0.89947 0.30733 0.0
C1022 C 0.45907 0.87425 0.27407 0.0
H1023 H 0.56264 0.8072 0.19248 0.0
H1024 H 0.54258 0.84564 0.22548 0.0
H1025 H 0.55847 0.79804 0.24575 0.0
H1026 H 0.51124 0.79239 0.30773 0.0
H1027 H 0.52038 0.83619 0.36617 0.0
H1028 H 0.46007 0.19063 0.43803 0.0
H1029 H 0.45506 0.24935 0.39378 0.0
H1030 H 0.44119 0.17103 0.29103 0.0
H1031 H 0.44533 0.11242 0.33466 0.0
H1032 H 0.50798 0.26652 0.33332 0.0
H1033 H 0.35434 0.25396 0.27029 0.0
H1034 H 0.36993 0.22676 0.31479 0.0
H1035 H 0.38156 0.20754 0.26535 0.0
C1036 C 0.45517 0.18585 0.40612 0.0
C1037 C 0.45328 0.14667 0.38996 0.0
C1038 C 0.45233 0.21948 0.3809 0.0
C1039 C 0.44719 0.21453 0.33923 0.0
C1040 C 0.44416 0.17558 0.32322 0.0
H1041 H 0.48532 0.32927 0.11636 0.0
H1042 H 0.47375 0.28598 0.17463 0.0
C1043 C 0.44694 0.14202 0.34828 0.0
C1044 C 0.44916 0.24951 0.3117 0.0
H1045 H 0.40242 0.29178 0.23044 0.0
C1046 C 0.48454 0.27271 0.31139 0.0
C1047 C 0.41848 0.25751 0.28321 0.0
C1048 C 0.37878 0.23536 0.28368 0.0
C1049 C 0.49111 0.30202 0.28167 0.0
C1050 C 0.46142 0.30827 0.25183 0.0
C1051 C 0.42524 0.28652 0.25327 0.0
C1052 C 0.46864 0.33508 0.21715 0.0
C1053 C 0.53053 0.32465 0.28103 0.0
C1054 C 0.46958 0.37697 0.22201 0.0
C1055 C 0.47621 0.40194 0.18876 0.0
C1056 C 0.48207 0.38531 0.15013 0.0
C1057 C 0.48128 0.34317 0.14562 0.0
C1058 C 0.47444 0.31834 0.17882 0.0
H1059 H 0.55225 0.31299 0.30371 0.0
H1060 H 0.54455 0.32265 0.25068 0.0
H1061 H 0.52484 0.35696 0.28748 0.0
H1062 H 0.46488 0.39033 0.25144 0.0
H1063 H 0.47658 0.43423 0.19335 0.0
loop_
_geom_bond_atom_site_label_1
_geom_bond_atom_site_label_2
_geom_bond_distance
_geom_bond_site_symmetry_2
_ccdc_geom_bond_type
O0 Zr5 2.207 1_565 S
O0 C34 1.295 . S
O1 Zr5 2.133 1_565 S
O1 Zr6 2.133 1_565 S
O1 Zr7 2.133 . S
O2 Zr5 2.133 1_556 S
O2 Zr11 2.133 1_556 S
O2 Zr12 2.133 . S
O3 Zr5 2.133 1_566 S
O3 Zr7 2.133 1_556 S
O3 Zr12 2.133 1_565 S
O4 Zr5 2.133 . S
O4 Zr6 2.133 . S
O4 Zr11 2.133 . S
Zr5 O0 2.207 1_545 S
Zr5 O1 2.133 1_545 S
Zr5 O2 2.133 1_554 S
Zr5 O3 2.133 1_544 S
Zr5 O4 2.133 . S
Zr5 O17 2.207 . S
Zr5 O30 2.207 . S
Zr5 O33 2.207 1_554 S
Zr6 O1 2.133 1_545 S
Zr6 O4 2.133 . S
Zr6 O8 2.133 1_455 S
Zr6 O10 2.133 1_445 S
Zr6 O22 2.207 1_455 S
Zr6 O25 2.207 . S
Zr6 O35 2.207 . S
Zr6 O36 2.207 1_545 S
Zr7 O1 2.133 . S
Zr7 O3 2.133 1_554 S
Zr7 O9 2.133 1_454 S
Zr7 O10 2.133 1_455 S
Zr7 O19 2.207 . S
Zr7 O20 2.207 1_554 S
Zr7 O27 2.207 . S
Zr7 O28 2.207 1_455 S
O8 Zr6 2.133 1_655 S
O8 Zr11 2.133 1_655 S
O8 Zr13 2.133 . S
O9 Zr7 2.133 1_656 S
O9 Zr12 2.133 1_665 S
O9 Zr13 2.133 1_566 S
O10 Zr6 2.133 1_665 S
O10 Zr7 2.133 1_655 S
O10 Zr13 2.133 1_565 S
Zr11 O2 2.133 1_554 S
Zr11 O4 2.133 . S
Zr11 O8 2.133 1_455 S
Zr11 O14 2.133 1_454 S
Zr11 O18 2.207 1_554 S
Zr11 O21 2.207 . S
Zr11 O26 2.207 1_455 S
Zr11 O29 2.207 . S
Zr12 O2 2.133 . S
Zr12 O3 2.133 1_545 S
Zr12 O9 2.133 1_445 S
Zr12 O14 2.133 1_455 S
Zr12 O23 2.207 . S
Zr12 O24 2.207 1_455 S
Zr12 O48 2.207 1_545 S
Zr12 O49 2.207 . S
Zr13 O8 2.133 . S
Zr13 O9 2.133 1_544 S
Zr13 O10 2.133 1_545 S
Zr13 O14 2.133 1_554 S
Zr13 O15 2.207 . S
Zr13 O16 2.207 1_545 S
Zr13 O31 2.207 1_554 S
Zr13 O32 2.207 . S
O14 Zr11 2.133 1_656 S
O14 Zr12 2.133 1_655 S
O14 Zr13 2.133 1_556 S
O15 Zr13 2.207 . S
O15 C37 1.295 . S
O16 Zr13 2.207 1_565 S
O16 C38 1.295 . S
O17 Zr5 2.207 . S
O17 C39 1.295 . S
O18 Zr11 2.207 1_556 S
O18 C40 1.295 . S
O19 Zr7 2.207 . S
O19 C41 1.295 . S
O20 Zr7 2.207 1_556 S
O20 C42 1.295 . S
O21 Zr11 2.207 . S
O21 C43 1.295 . S
O22 Zr6 2.207 1_655 S
O22 C44 1.295 . S
O23 Zr12 2.207 . S
O23 C45 1.295 . S
O24 Zr12 2.207 1_655 S
O24 C46 1.295 . S
O25 Zr6 2.207 . S
O25 C47 1.295 . S
O26 Zr11 2.207 1_655 S
O26 C37 1.295 . S
O27 Zr7 2.207 . S
O27 C34 1.295 . S
O28 Zr7 2.207 1_655 S
O28 C38 1.295 . S
O29 Zr11 2.207 . S
O29 C39 1.295 . S
O30 Zr5 2.207 . S
O30 C47 1.295 . S
O31 Zr13 2.207 1_556 S
O31 C46 1.295 . S
O32 Zr13 2.207 . S
O32 C44 1.295 . S
O33 Zr5 2.207 1_556 S
O33 C45 1.295 . S
C34 O0 1.295 . S
C34 O27 1.295 . S
O35 Zr6 2.207 . S
O35 C43 1.295 . S
O36 Zr6 2.207 1_565 S
O36 C41 1.295 . S
C37 O15 1.295 . S
C37 O26 1.295 . S
C38 O16 1.295 . S
C38 O28 1.295 . S
C39 O17 1.295 . S
C39 O29 1.295 . S
C40 O18 1.295 . S
C40 O49 1.295 . S
C41 O19 1.295 . S
C41 O36 1.295 . S
C42 O20 1.295 . S
C42 O48 1.295 . S
C43 O21 1.295 . S
C43 O35 1.295 . S
C44 O22 1.295 . S
C44 O32 1.295 . S
C45 O23 1.295 . S
C45 O33 1.295 . S
C46 O24 1.295 . S
C46 O31 1.295 . S
C47 O25 1.295 . S
C47 O30 1.295 . S
O48 Zr12 2.207 1_565 S
O48 C42 1.295 . S
O49 Zr12 2.207 . S
O49 C40 1.295 . S
O50 Zr55 2.207 . S
O50 C84 1.295 . S
O51 Zr55 2.133 . S
O51 Zr56 2.133 . S
O51 Zr57 2.133 . S
O52 Zr55 2.133 . S
O52 Zr61 2.133 . S
O52 Zr62 2.133 . S
O53 Zr55 2.133 . S
O53 Zr57 2.133 . S
O53 Zr62 2.133 . S
O54 Zr55 2.133 . S
O54 Zr56 2.133 . S
O54 Zr61 2.133 . S
Zr55 O50 2.207 . S
Zr55 O51 2.133 . S
Zr55 O52 2.133 . S
Zr55 O53 2.133 . S
Zr55 O54 2.133 . S
Zr55 O67 2.207 . S
Zr55 O80 2.207 . S
Zr55 O83 2.207 . S
Zr56 O51 2.133 . S
Zr56 O54 2.133 . S
Zr56 O58 2.133 1_455 S
Zr56 O60 2.133 1_455 S
Zr56 O72 2.207 1_455 S
Zr56 O75 2.207 . S
Zr56 O85 2.207 . S
Zr56 O86 2.207 . S
Zr57 O51 2.133 . S
Zr57 O53 2.133 . S
Zr57 O59 2.133 1_455 S
Zr57 O60 2.133 1_455 S
Zr57 O69 2.207 . S
Zr57 O70 2.207 . S
Zr57 O77 2.207 . S
Zr57 O78 2.207 1_455 S
O58 Zr56 2.133 1_655 S
O58 Zr61 2.133 1_655 S
O58 Zr63 2.133 . S
O59 Zr57 2.133 1_655 S
O59 Zr62 2.133 1_655 S
O59 Zr63 2.133 . S
O60 Zr56 2.133 1_655 S
O60 Zr57 2.133 1_655 S
O60 Zr63 2.133 . S
Zr61 O52 2.133 . S
Zr61 O54 2.133 . S
Zr61 O58 2.133 1_455 S
Zr61 O64 2.133 1_455 S
Zr61 O68 2.207 . S
Zr61 O71 2.207 . S
Zr61 O76 2.207 1_455 S
Zr61 O79 2.207 . S
Zr62 O52 2.133 . S
Zr62 O53 2.133 . S
Zr62 O59 2.133 1_455 S
Zr62 O64 2.133 1_455 S
Zr62 O73 2.207 . S
Zr62 O74 2.207 1_455 S
Zr62 O98 2.207 . S
Zr62 O99 2.207 . S
Zr63 O58 2.133 . S
Zr63 O59 2.133 . S
Zr63 O60 2.133 . S
Zr63 O64 2.133 . S
Zr63 O65 2.207 . S
Zr63 O66 2.207 . S
Zr63 O81 2.207 . S
Zr63 O82 2.207 . S
O64 Zr61 2.133 1_655 S
O64 Zr62 2.133 1_655 S
O64 Zr63 2.133 . S
O65 Zr63 2.207 . S
O65 C87 1.295 . S
O66 Zr63 2.207 . S
O66 C88 1.295 . S
O67 Zr55 2.207 . S
O67 C89 1.295 . S
O68 Zr61 2.207 . S
O68 C90 1.295 . S
O69 Zr57 2.207 . S
O69 C91 1.295 . S
O70 Zr57 2.207 . S
O70 C92 1.295 . S
O71 Zr61 2.207 . S
O71 C93 1.295 . S
O72 Zr56 2.207 1_655 S
O72 C94 1.295 . S
O73 Zr62 2.207 . S
O73 C95 1.295 . S
O74 Zr62 2.207 1_655 S
O74 C96 1.295 . S
O75 Zr56 2.207 . S
O75 C97 1.295 . S
O76 Zr61 2.207 1_655 S
O76 C87 1.295 . S
O77 Zr57 2.207 . S
O77 C84 1.295 . S
O78 Zr57 2.207 1_655 S
O78 C88 1.295 . S
O79 Zr61 2.207 . S
O79 C89 1.295 . S
O80 Zr55 2.207 . S
O80 C97 1.295 . S
O81 Zr63 2.207 . S
O81 C96 1.295 . S
O82 Zr63 2.207 . S
O82 C94 1.295 . S
O83 Zr55 2.207 . S
O83 C95 1.295 . S
C84 O50 1.295 . S
C84 O77 1.295 . S
O85 Zr56 2.207 . S
O85 C93 1.295 . S
O86 Zr56 2.207 . S
O86 C91 1.295 . S
C87 O65 1.295 . S
C87 O76 1.295 . S
C88 O66 1.295 . S
C88 O78 1.295 . S
C89 O67 1.295 . S
C89 O79 1.295 . S
C90 O68 1.295 . S
C90 O99 1.295 . S
C91 O69 1.295 . S
C91 O86 1.295 . S
C92 O70 1.295 . S
C92 O98 1.295 . S
C93 O71 1.295 . S
C93 O85 1.295 . S
C94 O72 1.295 . S
C94 O82 1.295 . S
C95 O73 1.295 . S
C95 O83 1.295 . S
C96 O74 1.295 . S
C96 O81 1.295 . S
C97 O75 1.295 . S
C97 O80 1.295 . S
O98 Zr62 2.207 . S
O98 C92 1.295 . S
O99 Zr62 2.207 . S
O99 C90 1.295 . S
O100 Zr105 2.207 . S
O100 C134 1.295 . S
O101 Zr105 2.133 . S
O101 Zr106 2.133 . S
O101 Zr107 2.133 . S
O102 Zr105 2.133 1_565 S
O102 Zr111 2.133 1_565 S
O102 Zr112 2.133 . S
O103 Zr105 2.133 1_565 S
O103 Zr107 2.133 1_565 S
O103 Zr112 2.133 . S
O104 Zr105 2.133 . S
O104 Zr106 2.133 . S
O104 Zr111 2.133 . S
Zr105 O100 2.207 . S
Zr105 O101 2.133 . S
Zr105 O102 2.133 1_545 S
Zr105 O103 2.133 1_545 S
Zr105 O104 2.133 . S
Zr105 O117 2.207 . S
Zr105 O130 2.207 . S
Zr105 O133 2.207 1_545 S
Zr106 O101 2.133 . S
Zr106 O104 2.133 . S
Zr106 O108 2.133 . S
Zr106 O110 2.133 . S
Zr106 O122 2.207 . S
Zr106 O125 2.207 . S
Zr106 O135 2.207 . S
Zr106 O136 2.207 . S
Zr107 O101 2.133 . S
Zr107 O103 2.133 1_545 S
Zr107 O109 2.133 1_545 S
Zr107 O110 2.133 . S
Zr107 O119 2.207 . S
Zr107 O120 2.207 1_545 S
Zr107 O127 2.207 . S
Zr107 O128 2.207 . S
O108 Zr106 2.133 . S
O108 Zr111 2.133 . S
O108 Zr113 2.133 . S
O109 Zr107 2.133 1_565 S
O109 Zr112 2.133 . S
O109 Zr113 2.133 1_565 S
O110 Zr106 2.133 . S
O110 Zr107 2.133 . S
O110 Zr113 2.133 . S
Zr111 O102 2.133 1_545 S
Zr111 O104 2.133 . S
Zr111 O108 2.133 . S
Zr111 O114 2.133 1_545 S
Zr111 O118 2.207 1_545 S
Zr111 O121 2.207 . S
Zr111 O126 2.207 . S
Zr111 O129 2.207 . S
Zr112 O102 2.133 . S
Zr112 O103 2.133 . S
Zr112 O109 2.133 . S
Zr112 O114 2.133 . S
Zr112 O123 2.207 . S
Zr112 O124 2.207 . S
Zr112 O148 2.207 . S
Zr112 O149 2.207 . S
Zr113 O108 2.133 . S
Zr113 O109 2.133 1_545 S
Zr113 O110 2.133 . S
Zr113 O114 2.133 1_545 S
Zr113 O115 2.207 . S
Zr113 O116 2.207 . S
Zr113 O131 2.207 1_545 S
Zr113 O132 2.207 . S
O114 Zr111 2.133 1_565 S
O114 Zr112 2.133 . S
O114 Zr113 2.133 1_565 S
O115 Zr113 2.207 . S
O115 C137 1.295 . S
O116 Zr113 2.207 . S
O116 C138 1.295 . S
O117 Zr105 2.207 . S
O117 C139 1.295 . S
O118 Zr111 2.207 1_565 S
O118 C140 1.295 . S
O119 Zr107 2.207 . S
O119 C141 1.295 . S
O120 Zr107 2.207 1_565 S
O120 C142 1.295 . S
O121 Zr111 2.207 . S
O121 C143 1.295 . S
O122 Zr106 2.207 . S
O122 C144 1.295 . S
O123 Zr112 2.207 . S
O123 C145 1.295 . S
O124 Zr112 2.207 . S
O124 C146 1.295 . S
O125 Zr106 2.207 . S
O125 C147 1.295 . S
O126 Zr111 2.207 . S
O126 C137 1.295 . S
O127 Zr107 2.207 . S
O127 C134 1.295 . S
O128 Zr107 2.207 . S
O128 C138 1.295 . S
O129 Zr111 2.207 . S
O129 C139 1.295 . S
O130 Zr105 2.207 . S
O130 C147 1.295 . S
O131 Zr113 2.207 1_565 S
O131 C146 1.295 . S
O132 Zr113 2.207 . S
O132 C144 1.295 . S
O133 Zr105 2.207 1_565 S
O133 C145 1.295 . S
C134 O100 1.295 . S
C134 O127 1.295 . S
O135 Zr106 2.207 . S
O135 C143 1.295 . S
O136 Zr106 2.207 . S
O136 C141 1.295 . S
C137 O115 1.295 . S
C137 O126 1.295 . S
C138 O116 1.295 . S
C138 O128 1.295 . S
C139 O117 1.295 . S
C139 O129 1.295 . S
C140 O118 1.295 . S
C140 O149 1.295 . S
C141 O119 1.295 . S
C141 O136 1.295 . S
C142 O120 1.295 . S
C142 O148 1.295 . S
C143 O121 1.295 . S
C143 O135 1.295 . S
C144 O122 1.295 . S
C144 O132 1.295 . S
C145 O123 1.295 . S
C145 O133 1.295 . S
C146 O124 1.295 . S
C146 O131 1.295 . S
C147 O125 1.295 . S
C147 O130 1.295 . S
O148 Zr112 2.207 . S
O148 C142 1.295 . S
O149 Zr112 2.207 . S
O149 C140 1.295 . S
O150 Zr155 2.207 . S
O150 C184 1.295 . S
O151 Zr155 2.133 . S
O151 Zr156 2.133 . S
O151 Zr157 2.133 . S
O152 Zr155 2.133 1_556 S
O152 Zr161 2.133 1_556 S
O152 Zr162 2.133 . S
O153 Zr155 2.133 1_556 S
O153 Zr157 2.133 1_556 S
O153 Zr162 2.133 . S
O154 Zr155 2.133 . S
O154 Zr156 2.133 . S
O154 Zr161 2.133 . S
Zr155 O150 2.207 . S
Zr155 O151 2.133 . S
Zr155 O152 2.133 1_554 S
Zr155 O153 2.133 1_554 S
Zr155 O154 2.133 . S
Zr155 O167 2.207 . S
Zr155 O180 2.207 . S
Zr155 O183 2.207 1_554 S
Zr156 O151 2.133 . S
Zr156 O154 2.133 . S
Zr156 O158 2.133 . S
Zr156 O160 2.133 . S
Zr156 O172 2.207 . S
Zr156 O175 2.207 . S
Zr156 O185 2.207 . S
Zr156 O186 2.207 . S
Zr157 O151 2.133 . S
Zr157 O153 2.133 1_554 S
Zr157 O159 2.133 1_554 S
Zr157 O160 2.133 . S
Zr157 O169 2.207 . S
Zr157 O170 2.207 1_554 S
Zr157 O177 2.207 . S
Zr157 O178 2.207 . S
O158 Zr156 2.133 . S
O158 Zr161 2.133 . S
O158 Zr163 2.133 . S
O159 Zr157 2.133 1_556 S
O159 Zr162 2.133 . S
O159 Zr163 2.133 1_556 S
O160 Zr156 2.133 . S
O160 Zr157 2.133 . S
O160 Zr163 2.133 . S
Zr161 O152 2.133 1_554 S
Zr161 O154 2.133 . S
Zr161 O158 2.133 . S
Zr161 O164 2.133 1_554 S
Zr161 O168 2.207 1_554 S
Zr161 O171 2.207 . S
Zr161 O176 2.207 . S
Zr161 O179 2.207 . S
Zr162 O152 2.133 . S
Zr162 O153 2.133 . S
Zr162 O159 2.133 . S
Zr162 O164 2.133 . S
Zr162 O173 2.207 . S
Zr162 O174 2.207 . S
Zr162 O198 2.207 . S
Zr162 O199 2.207 . S
Zr163 O158 2.133 . S
Zr163 O159 2.133 1_554 S
Zr163 O160 2.133 . S
Zr163 O164 2.133 1_554 S
Zr163 O165 2.207 . S
Zr163 O166 2.207 . S
Zr163 O181 2.207 1_554 S
Zr163 O182 2.207 . S
O164 Zr161 2.133 1_556 S
O164 Zr162 2.133 . S
O164 Zr163 2.133 1_556 S
O165 Zr163 2.207 . S
O165 C187 1.295 . S
O166 Zr163 2.207 . S
O166 C188 1.295 . S
O167 Zr155 2.207 . S
O167 C189 1.295 . S
O168 Zr161 2.207 1_556 S
O168 C190 1.295 . S
O169 Zr157 2.207 . S
O169 C191 1.295 . S
O170 Zr157 2.207 1_556 S
O170 C192 1.295 . S
O171 Zr161 2.207 . S
O171 C193 1.295 . S
O172 Zr156 2.207 . S
O172 C194 1.295 . S
O173 Zr162 2.207 . S
O173 C195 1.295 . S
O174 Zr162 2.207 . S
O174 C196 1.295 . S
O175 Zr156 2.207 . S
O175 C197 1.295 . S
O176 Zr161 2.207 . S
O176 C187 1.295 . S
O177 Zr157 2.207 . S
O177 C184 1.295 . S
O178 Zr157 2.207 . S
O178 C188 1.295 . S
O179 Zr161 2.207 . S
O179 C189 1.295 . S
O180 Zr155 2.207 . S
O180 C197 1.295 . S
O181 Zr163 2.207 1_556 S
O181 C196 1.295 . S
O182 Zr163 2.207 . S
O182 C194 1.295 . S
O183 Zr155 2.207 1_556 S
O183 C195 1.295 . S
C184 O150 1.295 . S
C184 O177 1.295 . S
O185 Zr156 2.207 . S
O185 C193 1.295 . S
O186 Zr156 2.207 . S
O186 C191 1.295 . S
C187 O165 1.295 . S
C187 O176 1.295 . S
C188 O166 1.295 . S
C188 O178 1.295 . S
C189 O167 1.295 . S
C189 O179 1.295 . S
C190 O168 1.295 . S
C190 O199 1.295 . S
C191 O169 1.295 . S
C191 O186 1.295 . S
C192 O170 1.295 . S
C192 O198 1.295 . S
C193 O171 1.295 . S
C193 O185 1.295 . S
C194 O172 1.295 . S
C194 O182 1.295 . S
C195 O173 1.295 . S
C195 O183 1.295 . S
C196 O174 1.295 . S
C196 O181 1.295 . S
C197 O175 1.295 . S
C197 O180 1.295 . S
O198 Zr162 2.207 . S
O198 C192 1.295 . S
O199 Zr162 2.207 . S
O199 C190 1.295 . S
H200 C208 0.929 . S
H201 C210 0.930 . S
H202 C212 0.930 . S
H203 C215 0.929 . S
H204 C218 0.930 . S
H205 C220 0.960 . S
H206 C220 0.960 . S
H207 C220 0.960 . S
C208 H200 0.929 . S
C208 C209 1.374 1_655 S
C208 C210 1.384 . S
C209 C208 1.374 1_455 S
C209 C215 1.393 . S
C210 H201 0.930 . S
C210 C208 1.384 . S
C210 C211 1.378 . S
C211 C210 1.378 . S
C211 C212 1.394 1_655 S
C211 C216 1.490 . S
C212 H202 0.930 . S
C212 C211 1.394 1_455 S
C212 C215 1.386 . S
H213 C229 0.930 . S
H214 C230 0.931 . S
C215 H203 0.929 . S
C215 C209 1.393 . S
C215 C212 1.386 . S
C216 C211 1.490 . S
C216 C218 1.395 . S
C216 C219 1.403 1_655 S
H217 C223 0.930 . S
C218 H204 0.930 . S
C218 C216 1.395 . S
C218 C221 1.403 . S
C219 C216 1.403 1_455 S
C219 C220 1.524 . S
C219 C223 1.400 . S
C220 H205 0.960 . S
C220 H206 0.960 . S
C220 H207 0.960 . S
C220 C219 1.524 . S
C221 C218 1.403 . S
C221 C222 1.392 . S
C221 C225 1.495 . S
C222 C221 1.392 . S
C222 C223 1.385 1_655 S
C222 C224 1.478 . S
C223 H217 0.930 . S
C223 C219 1.400 . S
C223 C222 1.385 1_455 S
C224 C222 1.478 . S
C224 C226 1.381 . S
C224 C230 1.383 1_655 S
C225 C221 1.495 . S
C225 H231 0.959 . S
C225 H232 0.961 . S
C225 H233 0.960 . S
C226 C224 1.381 . S
C226 C227 1.394 . S
C226 H234 0.930 . S
C227 C226 1.394 . S
C227 C228 1.383 . S
C227 H235 0.929 . S
C228 C227 1.383 . S
C228 C229 1.377 1_655 S
C229 H213 0.930 . S
C229 C228 1.377 1_455 S
C229 C230 1.379 . S
C230 H214 0.931 . S
C230 C224 1.383 1_455 S
C230 C229 1.379 . S
H231 C225 0.959 . S
H232 C225 0.961 . S
H233 C225 0.960 . S
H234 C226 0.930 . S
H235 C227 0.929 . S
H236 C244 0.929 . S
H237 C246 0.930 . S
H238 C248 0.930 . S
H239 C251 0.929 . S
H240 C254 0.930 . S
H241 C256 0.960 . S
H242 C256 0.960 . S
H243 C256 0.960 . S
C244 H236 0.929 . S
C244 C245 1.389 . S
C244 C246 1.384 . S
C245 C244 1.389 . S
C245 C251 1.378 1_545 S
C246 H237 0.930 . S
C246 C244 1.384 . S
C246 C247 1.372 . S
C247 C246 1.372 . S
C247 C248 1.400 1_545 S
C247 C252 1.490 . S
C248 H238 0.930 . S
C248 C247 1.400 1_565 S
C248 C251 1.386 . S
H249 C265 0.930 . S
H250 C266 0.931 . S
C251 H239 0.929 . S
C251 C245 1.378 1_565 S
C251 C248 1.386 . S
C252 C247 1.490 . S
C252 C254 1.395 . S
C252 C255 1.403 1_545 S
H253 C259 0.930 . S
C254 H240 0.930 . S
C254 C252 1.395 . S
C254 C257 1.403 . S
C255 C252 1.403 1_565 S
C255 C256 1.524 . S
C255 C259 1.400 . S
C256 H241 0.960 . S
C256 H242 0.960 . S
C256 H243 0.960 . S
C256 C255 1.524 . S
C257 C254 1.403 . S
C257 C258 1.392 . S
C257 C261 1.495 . S
C258 C257 1.392 . S
C258 C259 1.385 1_545 S
C258 C260 1.478 . S
C259 H253 0.930 . S
C259 C255 1.400 . S
C259 C258 1.385 1_565 S
C260 C258 1.478 . S
C260 C262 1.381 . S
C260 C266 1.383 1_545 S
C261 C257 1.495 . S
C261 H267 0.959 . S
C261 H268 0.961 . S
C261 H269 0.960 . S
C262 C260 1.381 . S
C262 C263 1.394 . S
C262 H270 0.930 . S
C263 C262 1.394 . S
C263 C264 1.383 . S
C263 H271 0.929 . S
C264 C263 1.383 . S
C264 C265 1.377 1_545 S
C265 H249 0.930 . S
C265 C264 1.377 1_565 S
C265 C266 1.379 . S
C266 H250 0.931 . S
C266 C260 1.383 1_565 S
C266 C265 1.379 . S
H267 C261 0.959 . S
H268 C261 0.961 . S
H269 C261 0.960 . S
H270 C262 0.930 . S
H271 C263 0.929 . S
H272 C280 0.929 . S
H273 C282 0.930 . S
H274 C284 0.930 . S
H275 C287 0.929 . S
H276 C290 0.930 . S
H277 C292 0.960 . S
H278 C292 0.973 . S
H279 C292 0.960 . S
C280 H272 0.929 . S
C280 C281 1.390 . S
C280 C282 1.384 . S
C281 C280 1.390 . S
C281 C287 1.377 1_455 S
C282 H273 0.930 . S
C282 C280 1.384 . S
C282 C283 1.372 . S
C283 C282 1.372 . S
C283 C284 1.400 1_455 S
C283 C288 1.490 . S
C284 H274 0.930 . S
C284 C283 1.400 1_655 S
C284 C287 1.386 . S
H285 C301 0.930 . S
H286 C302 0.931 . S
C287 H275 0.929 . S
C287 C281 1.377 1_655 S
C287 C284 1.386 . S
C288 C283 1.490 . S
C288 C290 1.395 . S
C288 C291 1.403 1_455 S
H289 C295 0.930 . S
C290 H276 0.930 . S
C290 C288 1.395 . S
C290 C293 1.403 . S
C291 C288 1.403 1_655 S
C291 C292 1.524 . S
C291 C295 1.400 . S
C292 H277 0.960 . S
C292 H278 0.973 . S
C292 H279 0.960 . S
C292 C291 1.524 . S
C293 C290 1.403 . S
C293 C294 1.392 . S
C293 C297 1.495 . S
C294 C293 1.392 . S
C294 C295 1.385 1_455 S
C294 C296 1.478 . S
C295 H289 0.930 . S
C295 C291 1.400 . S
C295 C294 1.385 1_655 S
C296 C294 1.478 . S
C296 C298 1.381 . S
C296 C302 1.383 1_455 S
C297 C293 1.495 . S
C297 H303 0.959 . S
C297 H304 0.961 . S
C297 H305 0.960 . S
C298 C296 1.381 . S
C298 C299 1.394 . S
C298 H306 0.930 . S
C299 C298 1.394 . S
C299 C300 1.407 . S
C299 H307 0.929 . S
C300 C299 1.407 . S
C300 C301 1.354 1_455 S
C301 H285 0.930 . S
C301 C300 1.354 1_655 S
C301 C302 1.379 . S
C302 H286 0.931 . S
C302 C296 1.383 1_655 S
C302 C301 1.379 . S
H303 C297 0.959 . S
H304 C297 0.961 . S
H305 C297 0.960 . S
H306 C298 0.930 . S
H307 C299 0.929 . S
H308 C316 0.929 . S
H309 C318 0.930 . S
H310 C320 0.930 . S
H311 C323 0.929 . S
H312 C326 0.930 . S
H313 C328 0.960 . S
H314 C328 0.960 . S
H315 C328 0.960 . S
C316 H308 0.929 . S
C316 C317 1.388 . S
C316 C318 1.384 . S
C317 C316 1.388 . S
C317 C323 1.379 1_545 S
C318 H309 0.930 . S
C318 C316 1.384 . S
C318 C319 1.372 . S
C319 C318 1.372 . S
C319 C320 1.400 1_545 S
C319 C324 1.490 . S
C320 H310 0.930 . S
C320 C319 1.400 1_565 S
C320 C323 1.386 . S
H321 C337 0.930 . S
H322 C338 0.931 . S
C323 H311 0.929 . S
C323 C317 1.379 1_565 S
C323 C320 1.386 . S
C324 C319 1.490 . S
C324 C326 1.395 . S
C324 C327 1.403 1_545 S
H325 C331 0.930 . S
C326 H312 0.930 . S
C326 C324 1.395 . S
C326 C329 1.403 . S
C327 C324 1.403 1_565 S
C327 C328 1.524 . S
C327 C331 1.400 . S
C328 H313 0.960 . S
C328 H314 0.960 . S
C328 H315 0.960 . S
C328 C327 1.524 . S
C329 C326 1.403 . S
C329 C330 1.392 . S
C329 C333 1.495 . S
C330 C329 1.392 . S
C330 C331 1.385 1_545 S
C330 C332 1.478 . S
C331 H325 0.930 . S
C331 C327 1.400 . S
C331 C330 1.385 1_565 S
C332 C330 1.478 . S
C332 C334 1.381 . S
C332 C338 1.383 1_545 S
C333 C329 1.495 . S
C333 H339 0.959 . S
C333 H340 0.961 . S
C333 H341 0.960 . S
C334 C332 1.381 . S
C334 C335 1.394 . S
C334 H342 0.930 . S
C335 C334 1.394 . S
C335 C336 1.383 . S
C335 H343 0.929 . S
C336 C335 1.383 . S
C336 C337 1.377 1_545 S
C337 H321 0.930 . S
C337 C336 1.377 1_565 S
C337 C338 1.379 . S
C338 H322 0.931 . S
C338 C332 1.383 1_565 S
C338 C337 1.379 . S
H339 C333 0.959 . S
H340 C333 0.961 . S
H341 C333 0.960 . S
H342 C334 0.930 . S
H343 C335 0.929 . S
H344 C352 0.929 . S
H345 C354 0.930 . S
H346 C356 0.930 . S
H347 C359 0.929 . S
H348 C362 0.930 . S
H349 C364 0.960 . S
H350 C364 0.960 . S
H351 C364 0.960 . S
C352 H344 0.929 . S
C352 C353 1.387 . S
C352 C354 1.384 . S
C353 C352 1.387 . S
C353 C359 1.381 1_455 S
C354 H345 0.930 . S
C354 C352 1.384 . S
C354 C355 1.372 . S
C355 C354 1.372 . S
C355 C356 1.400 1_455 S
C355 C360 1.490 . S
C356 H346 0.930 . S
C356 C355 1.400 1_655 S
C356 C359 1.386 . S
H357 C373 0.930 . S
H358 C374 0.931 . S
C359 H347 0.929 . S
C359 C353 1.381 1_655 S
C359 C356 1.386 . S
C360 C355 1.490 . S
C360 C362 1.395 . S
C360 C363 1.403 1_455 S
H361 C367 0.930 . S
C362 H348 0.930 . S
C362 C360 1.395 . S
C362 C365 1.403 . S
C363 C360 1.403 1_655 S
C363 C364 1.524 . S
C363 C367 1.400 . S
C364 H349 0.960 . S
C364 H350 0.960 . S
C364 H351 0.960 . S
C364 C363 1.524 . S
C365 C362 1.403 . S
C365 C366 1.392 . S
C365 C369 1.495 . S
C366 C365 1.392 . S
C366 C367 1.385 1_455 S
C366 C368 1.478 . S
C367 H361 0.930 . S
C367 C363 1.400 . S
C367 C366 1.385 1_655 S
C368 C366 1.478 . S
C368 C370 1.381 . S
C368 C374 1.383 1_455 S
C369 C365 1.495 . S
C369 H375 0.959 . S
C369 H376 0.961 . S
C369 H377 0.960 . S
C370 C368 1.381 . S
C370 C371 1.394 . S
C370 H378 0.930 . S
C371 C370 1.394 . S
C371 C372 1.383 . S
C371 H379 0.929 . S
C372 C371 1.383 . S
C372 C373 1.377 1_455 S
C373 H357 0.930 . S
C373 C372 1.377 1_655 S
C373 C374 1.379 . S
C374 H358 0.931 . S
C374 C368 1.383 1_655 S
C374 C373 1.379 . S
H375 C369 0.959 . S
H376 C369 0.961 . S
H377 C369 0.960 . S
H378 C370 0.930 . S
H379 C371 0.929 . S
H380 C388 0.929 . S
H381 C390 0.930 . S
H382 C392 0.930 . S
H383 C395 0.929 . S
H384 C398 0.930 . S
H385 C400 0.960 . S
H386 C400 0.960 . S
H387 C400 0.960 1_565 S
C388 H380 0.929 . S
C388 C389 1.392 . S
C388 C390 1.384 . S
C389 C388 1.392 . S
C389 C395 1.376 1_545 S
C390 H381 0.930 . S
C390 C388 1.384 . S
C390 C391 1.372 . S
C391 C390 1.372 . S
C391 C392 1.400 1_545 S
C391 C396 1.490 . S
C392 H382 0.930 . S
C392 C391 1.400 1_565 S
C392 C395 1.386 . S
H393 C409 0.930 . S
H394 C410 0.931 . S
C395 H383 0.929 . S
C395 C389 1.376 1_565 S
C395 C392 1.386 . S
C396 C391 1.490 . S
C396 C398 1.396 . S
C396 C399 1.403 . S
H397 C403 0.930 . S
C398 H384 0.930 . S
C398 C396 1.396 . S
C398 C401 1.403 . S
C399 C396 1.403 . S
C399 C400 1.524 . S
C399 C403 1.400 . S
C400 H385 0.960 . S
C400 H386 0.960 . S
C400 H387 0.960 1_545 S
C400 C399 1.524 . S
C401 C398 1.403 . S
C401 C402 1.392 . S
C401 C405 1.495 1_545 S
C402 C401 1.392 . S
C402 C403 1.385 . S
C402 C404 1.478 1_545 S
C403 H397 0.930 . S
C403 C399 1.400 . S
C403 C402 1.385 . S
C404 C402 1.478 1_565 S
C404 C406 1.381 1_565 S
C404 C410 1.383 . S
C405 C401 1.495 1_565 S
C405 H411 0.959 . S
C405 H412 0.961 . S
C405 H413 0.960 1_565 S
C406 C404 1.381 1_545 S
C406 C407 1.394 . S
C406 H414 0.930 . S
C407 C406 1.394 . S
C407 C408 1.378 1_545 S
C407 H415 0.929 . S
C408 C407 1.378 1_565 S
C408 C409 1.382 . S
C409 H393 0.930 . S
C409 C408 1.382 . S
C409 C410 1.379 . S
C410 H394 0.931 . S
C410 C404 1.383 . S
C410 C409 1.379 . S
H411 C405 0.959 . S
H412 C405 0.961 . S
H413 C405 0.960 1_545 S
H414 C406 0.930 . S
H415 C407 0.929 . S
H416 C424 0.929 . S
H417 C426 0.930 . S
H418 C428 0.930 . S
H419 C431 0.929 . S
H420 C434 0.930 . S
H421 C436 0.960 . S
H422 C436 0.960 1_455 S
H423 C436 0.960 . S
C424 H416 0.929 . S
C424 C425 1.392 . S
C424 C426 1.384 . S
C425 C424 1.392 . S
C425 C431 1.375 1_455 S
C426 H417 0.930 . S
C426 C424 1.384 . S
C426 C427 1.372 . S
C427 C426 1.372 . S
C427 C428 1.400 1_455 S
C427 C432 1.490 . S
C428 H418 0.930 . S
C428 C427 1.400 1_655 S
C428 C431 1.386 . S
H429 C445 0.930 . S
H430 C446 0.931 . S
C431 H419 0.929 . S
C431 C425 1.375 1_655 S
C431 C428 1.386 . S
C432 C427 1.490 . S
C432 C434 1.395 . S
C432 C435 1.403 1_455 S
H433 C439 0.930 . S
C434 H420 0.930 . S
C434 C432 1.395 . S
C434 C437 1.403 . S
C435 C432 1.403 1_655 S
C435 C436 1.524 . S
C435 C439 1.400 . S
C436 H421 0.960 . S
C436 H422 0.960 1_655 S
C436 H423 0.960 . S
C436 C435 1.524 . S
C437 C434 1.403 . S
C437 C438 1.392 . S
C437 C441 1.495 . S
C438 C437 1.392 . S
C438 C439 1.385 1_455 S
C438 C440 1.478 . S
C439 H433 0.930 . S
C439 C435 1.400 . S
C439 C438 1.385 1_655 S
C440 C438 1.478 . S
C440 C442 1.381 . S
C440 C446 1.383 1_455 S
C441 C437 1.495 . S
C441 H447 0.959 . S
C441 H448 0.961 1_455 S
C441 H449 0.960 . S
C442 C440 1.381 . S
C442 C443 1.394 . S
C442 H450 0.930 . S
C443 C442 1.394 . S
C443 C444 1.384 . S
C443 H451 0.929 . S
C444 C443 1.384 . S
C444 C445 1.376 1_455 S
C445 H429 0.930 . S
C445 C444 1.376 1_655 S
C445 C446 1.379 . S
C446 H430 0.931 . S
C446 C440 1.383 1_655 S
C446 C445 1.379 . S
H447 C441 0.959 . S
H448 C441 0.961 1_655 S
H449 C441 0.960 . S
H450 C442 0.930 . S
H451 C443 0.929 . S
H452 C460 0.929 . S
H453 C462 0.930 . S
H454 C464 0.930 . S
H455 C467 0.929 . S
H456 C470 0.930 . S
H457 C472 0.960 . S
H458 C472 0.960 . S
H459 C472 0.960 . S
C460 H452 0.929 . S
C460 C461 1.376 1_545 S
C460 C462 1.384 . S
C461 C460 1.376 1_565 S
C461 C467 1.391 . S
C462 H453 0.930 . S
C462 C460 1.384 . S
C462 C463 1.376 . S
C463 C462 1.376 . S
C463 C464 1.396 1_545 S
C463 C468 1.490 . S
C464 H454 0.930 . S
C464 C463 1.396 1_565 S
C464 C467 1.386 . S
H465 C481 0.930 . S
H466 C482 0.931 . S
C467 H455 0.929 . S
C467 C461 1.391 . S
C467 C464 1.386 . S
C468 C463 1.490 . S
C468 C470 1.395 . S
C468 C471 1.403 1_545 S
H469 C475 0.930 . S
C470 H456 0.930 . S
C470 C468 1.395 . S
C470 C473 1.403 . S
C471 C468 1.403 1_565 S
C471 C472 1.524 . S
C471 C475 1.400 . S
C472 H457 0.960 . S
C472 H458 0.960 . S
C472 H459 0.960 . S
C472 C471 1.524 . S
C473 C470 1.403 . S
C473 C474 1.392 . S
C473 C477 1.495 . S
C474 C473 1.392 . S
C474 C475 1.385 1_545 S
C474 C476 1.478 . S
C475 H469 0.930 . S
C475 C471 1.400 . S
C475 C474 1.385 1_565 S
C476 C474 1.478 . S
C476 C478 1.381 . S
C476 C482 1.383 1_545 S
C477 C473 1.495 . S
C477 H483 0.959 . S
C477 H484 0.961 . S
C477 H485 0.960 . S
C478 C476 1.381 . S
C478 C479 1.394 . S
C478 H486 0.930 . S
C479 C478 1.394 . S
C479 C480 1.383 . S
C479 H487 0.929 . S
C480 C479 1.383 . S
C480 C481 1.377 1_545 S
C481 H465 0.930 . S
C481 C480 1.377 1_565 S
C481 C482 1.379 . S
C482 H466 0.931 . S
C482 C476 1.383 1_565 S
C482 C481 1.379 . S
H483 C477 0.959 . S
H484 C477 0.961 . S
H485 C477 0.960 . S
H486 C478 0.930 . S
H487 C479 0.929 . S
H488 C496 0.929 . S
H489 C498 0.930 . S
H490 C500 0.930 . S
H491 C503 0.929 . S
H492 C506 0.930 . S
H493 C508 0.960 . S
H494 C508 0.960 . S
H495 C508 0.960 . S
C496 H488 0.929 . S
C496 C497 1.378 1_556 S
C496 C498 1.384 . S
C497 C496 1.378 1_554 S
C497 C503 1.389 . S
C498 H489 0.930 . S
C498 C496 1.384 . S
C498 C499 1.372 . S
C499 C498 1.372 . S
C499 C500 1.400 1_556 S
C499 C504 1.490 . S
C500 H490 0.930 . S
C500 C499 1.400 1_554 S
C500 C503 1.386 . S
H501 C517 0.930 . S
H502 C518 0.931 . S
C503 H491 0.929 . S
C503 C497 1.389 . S
C503 C500 1.386 . S
C504 C499 1.490 . S
C504 C506 1.395 . S
C504 C507 1.403 1_556 S
H505 C511 0.930 . S
C506 H492 0.930 . S
C506 C504 1.395 . S
C506 C509 1.403 . S
C507 C504 1.403 1_554 S
C507 C508 1.524 . S
C507 C511 1.400 . S
C508 H493 0.960 . S
C508 H494 0.960 . S
C508 H495 0.960 . S
C508 C507 1.524 . S
C509 C506 1.403 . S
C509 C510 1.392 . S
C509 C513 1.495 . S
C510 C509 1.392 . S
C510 C511 1.385 1_556 S
C510 C512 1.478 . S
C511 H505 0.930 . S
C511 C507 1.400 . S
C511 C510 1.385 1_554 S
C512 C510 1.478 . S
C512 C514 1.381 . S
C512 C518 1.383 1_556 S
C513 C509 1.495 . S
C513 H519 0.959 . S
C513 H520 0.961 . S
C513 H521 0.960 . S
C514 C512 1.381 . S
C514 C515 1.394 . S
C514 H522 0.930 . S
C515 C514 1.394 . S
C515 C516 1.383 . S
C515 H523 0.929 . S
C516 C515 1.383 . S
C516 C517 1.377 1_556 S
C517 H501 0.930 . S
C517 C516 1.377 1_554 S
C517 C518 1.379 . S
C518 H502 0.931 . S
C518 C512 1.383 1_554 S
C518 C517 1.379 . S
H519 C513 0.959 . S
H520 C513 0.961 . S
H521 C513 0.960 . S
H522 C514 0.930 . S
H523 C515 0.929 . S
H524 C532 0.929 . S
H525 C534 0.930 . S
H526 C536 0.930 . S
H527 C539 0.929 . S
H528 C542 0.930 . S
H529 C544 0.960 . S
H530 C544 0.960 1_554 S
H531 C544 0.960 . S
C532 H524 0.929 . S
C532 C533 1.392 . S
C532 C534 1.384 . S
C533 C532 1.392 . S
C533 C539 1.375 1_554 S
C534 H525 0.930 . S
C534 C532 1.384 . S
C534 C535 1.372 . S
C535 C534 1.372 . S
C535 C536 1.400 1_554 S
C535 C540 1.490 . S
C536 H526 0.930 . S
C536 C535 1.400 1_556 S
C536 C539 1.386 . S
H537 C553 0.930 . S
H538 C554 0.931 . S
C539 H527 0.929 . S
C539 C533 1.375 1_556 S
C539 C536 1.386 . S
C540 C535 1.490 . S
C540 C542 1.395 . S
C540 C543 1.403 1_554 S
H541 C547 0.932 . S
C542 H528 0.930 . S
C542 C540 1.395 . S
C542 C545 1.403 . S
C543 C540 1.403 1_556 S
C543 C544 1.524 . S
C543 C547 1.400 . S
C544 H529 0.960 . S
C544 H530 0.960 1_556 S
C544 H531 0.960 . S
C544 C543 1.524 . S
C545 C542 1.403 . S
C545 C546 1.392 . S
C545 C549 1.495 . S
C546 C545 1.392 . S
C546 C547 1.384 1_554 S
C546 C548 1.478 . S
C547 H541 0.932 . S
C547 C543 1.400 . S
C547 C546 1.384 1_556 S
C548 C546 1.478 . S
C548 C550 1.401 . S
C548 C554 1.363 1_554 S
C549 C545 1.495 . S
C549 H555 0.959 . S
C549 H556 0.961 1_554 S
C549 H557 0.960 . S
C550 C548 1.401 . S
C550 C551 1.394 . S
C550 H558 0.930 . S
C551 C550 1.394 . S
C551 C552 1.382 . S
C551 H559 0.929 . S
C552 C551 1.382 . S
C552 C553 1.378 1_554 S
C553 H537 0.930 . S
C553 C552 1.378 1_556 S
C553 C554 1.379 . S
C554 H538 0.931 . S
C554 C548 1.363 1_556 S
C554 C553 1.379 . S
H555 C549 0.959 . S
H556 C549 0.961 1_556 S
H557 C549 0.960 . S
H558 C550 0.930 . S
H559 C551 0.929 . S
H560 C568 0.929 . S
H561 C570 0.930 . S
H562 C572 0.930 . S
H563 C575 0.929 . S
H564 C578 0.930 . S
H565 C580 0.960 . S
H566 C580 0.960 . S
H567 C580 0.960 . S
C568 H560 0.929 . S
C568 C569 1.386 . S
C568 C570 1.384 . S
C569 C568 1.386 . S
C569 C575 1.381 1_554 S
C570 H561 0.930 . S
C570 C568 1.384 . S
C570 C571 1.372 . S
C571 C570 1.372 . S
C571 C572 1.400 1_554 S
C571 C576 1.490 . S
C572 H562 0.930 . S
C572 C571 1.400 1_556 S
C572 C575 1.386 . S
H573 C589 0.930 . S
H574 C590 0.931 . S
C575 H563 0.929 . S
C575 C569 1.381 1_556 S
C575 C572 1.386 . S
C576 C571 1.490 . S
C576 C578 1.395 . S
C576 C579 1.403 1_554 S
H577 C583 0.930 . S
C578 H564 0.930 . S
C578 C576 1.395 . S
C578 C581 1.403 . S
C579 C576 1.403 1_556 S
C579 C580 1.524 . S
C579 C583 1.400 . S
C580 H565 0.960 . S
C580 H566 0.960 . S
C580 H567 0.960 . S
C580 C579 1.524 . S
C581 C578 1.403 . S
C581 C582 1.392 . S
C581 C585 1.495 . S
C582 C581 1.392 . S
C582 C583 1.385 1_554 S
C582 C584 1.478 . S
C583 H577 0.930 . S
C583 C579 1.400 . S
C583 C582 1.385 1_556 S
C584 C582 1.478 . S
C584 C586 1.381 . S
C584 C590 1.383 1_554 S
C585 C581 1.495 . S
C585 H591 0.959 . S
C585 H592 0.961 . S
C585 H593 0.960 . S
C586 C584 1.381 . S
C586 C587 1.394 . S
C586 H594 0.930 . S
C587 C586 1.394 . S
C587 C588 1.383 . S
C587 H595 0.929 . S
C588 C587 1.383 . S
C588 C589 1.377 1_554 S
C589 H573 0.930 . S
C589 C588 1.377 1_556 S
C589 C590 1.379 . S
C590 H574 0.931 . S
C590 C584 1.383 1_556 S
C590 C589 1.379 . S
H591 C585 0.959 . S
H592 C585 0.961 . S
H593 C585 0.960 . S
H594 C586 0.930 . S
H595 C587 0.929 . S
H596 C604 0.929 . S
H597 C606 0.930 . S
H598 C608 0.930 . S
H599 C611 0.929 . S
H600 C614 0.930 . S
H601 C616 0.960 . S
H602 C616 0.960 . S
H603 C616 0.960 . S
C604 H596 0.929 . S
C604 C605 1.388 . S
C604 C606 1.384 . S
C605 C604 1.388 . S
C605 C611 1.379 1_554 S
C606 H597 0.930 . S
C606 C604 1.384 . S
C606 C607 1.372 . S
C607 C606 1.372 . S
C607 C608 1.400 1_554 S
C607 C612 1.490 . S
C608 H598 0.930 . S
C608 C607 1.400 1_556 S
C608 C611 1.386 . S
H609 C625 0.930 . S
H610 C626 0.931 . S
C611 H599 0.929 . S
C611 C605 1.379 1_556 S
C611 C608 1.386 . S
C612 C607 1.490 . S
C612 C614 1.395 1_554 S
C612 C615 1.403 . S
H613 C619 0.930 . S
C614 H600 0.930 . S
C614 C612 1.395 1_556 S
C614 C617 1.403 . S
C615 C612 1.403 . S
C615 C616 1.524 . S
C615 C619 1.400 . S
C616 H601 0.960 . S
C616 H602 0.960 . S
C616 H603 0.960 . S
C616 C615 1.524 . S
C617 C614 1.403 . S
C617 C618 1.392 . S
C617 C621 1.495 . S
C618 C617 1.392 . S
C618 C619 1.385 1_556 S
C618 C620 1.478 . S
C619 H613 0.930 . S
C619 C615 1.400 . S
C619 C618 1.385 1_554 S
C620 C618 1.478 . S
C620 C622 1.381 1_556 S
C620 C626 1.383 . S
C621 C617 1.495 . S
C621 H627 0.959 . S
C621 H628 0.961 . S
C621 H629 0.960 . S
C622 C620 1.381 1_554 S
C622 C623 1.394 . S
C622 H630 0.930 . S
C623 C622 1.394 . S
C623 C624 1.383 1_554 S
C623 H631 0.929 . S
C624 C623 1.383 1_556 S
C624 C625 1.377 . S
C625 H609 0.930 . S
C625 C624 1.377 . S
C625 C626 1.379 . S
C626 H610 0.931 . S
C626 C620 1.383 . S
C626 C625 1.379 . S
H627 C621 0.959 . S
H628 C621 0.961 . S
H629 C621 0.960 . S
H630 C622 0.930 . S
H631 C623 0.929 . S
H632 C640 0.929 . S
H633 C642 0.930 . S
H634 C644 0.930 . S
H635 C647 0.929 . S
H636 C650 0.930 . S
H637 C652 0.960 . S
H638 C652 0.960 . S
H639 C652 0.960 . S
C640 H632 0.929 . S
C640 C641 1.377 . S
C640 C642 1.384 . S
C641 C640 1.377 . S
C641 C647 1.390 . S
C642 H633 0.930 . S
C642 C640 1.384 . S
C642 C643 1.372 . S
C643 C642 1.372 . S
C643 C644 1.400 . S
C643 C648 1.490 . S
C644 H634 0.930 . S
C644 C643 1.400 . S
C644 C647 1.386 . S
H645 C661 0.930 . S
H646 C662 0.931 . S
C647 H635 0.929 . S
C647 C641 1.390 . S
C647 C644 1.386 . S
C648 C643 1.490 . S
C648 C650 1.395 . S
C648 C651 1.403 . S
H649 C655 0.930 . S
C650 H636 0.930 . S
C650 C648 1.395 . S
C650 C653 1.403 . S
C651 C648 1.403 . S
C651 C652 1.524 . S
C651 C655 1.400 . S
C652 H637 0.960 . S
C652 H638 0.960 . S
C652 H639 0.960 . S
C652 C651 1.524 . S
C653 C650 1.403 . S
C653 C654 1.392 . S
C653 C657 1.495 . S
C654 C653 1.392 . S
C654 C655 1.385 . S
C654 C656 1.478 . S
C655 H649 0.930 . S
C655 C651 1.400 . S
C655 C654 1.385 . S
C656 C654 1.478 . S
C656 C658 1.381 . S
C656 C662 1.383 . S
C657 C653 1.495 . S
C657 H663 0.959 . S
C657 H664 0.961 . S
C657 H665 0.960 . S
C658 C656 1.381 . S
C658 C659 1.394 . S
C658 H666 0.930 . S
C659 C658 1.394 . S
C659 C660 1.383 . S
C659 H667 0.929 . S
C660 C659 1.383 . S
C660 C661 1.377 . S
C661 H645 0.930 . S
C661 C660 1.377 . S
C661 C662 1.379 . S
C662 H646 0.931 . S
C662 C656 1.383 . S
C662 C661 1.379 . S
H663 C657 0.959 . S
H664 C657 0.961 . S
H665 C657 0.960 . S
H666 C658 0.930 . S
H667 C659 0.929 . S
H668 C676 0.929 . S
H669 C678 0.930 . S
H670 C680 0.930 . S
H671 C683 0.929 . S
H672 C686 0.930 . S
H673 C688 0.960 . S
H674 C688 0.960 . S
H675 C688 0.960 . S
C676 H668 0.929 . S
C676 C677 1.377 . S
C676 C678 1.384 . S
C677 C676 1.377 . S
C677 C683 1.390 . S
C678 H669 0.930 . S
C678 C676 1.384 . S
C678 C679 1.372 . S
C679 C678 1.372 . S
C679 C680 1.400 . S
C679 C684 1.490 . S
C680 H670 0.930 . S
C680 C679 1.400 . S
C680 C683 1.386 . S
H681 C697 0.930 . S
H682 C698 0.931 . S
C683 H671 0.929 . S
C683 C677 1.390 . S
C683 C680 1.386 . S
C684 C679 1.490 . S
C684 C686 1.395 . S
C684 C687 1.403 . S
H685 C691 0.930 . S
C686 H672 0.930 . S
C686 C684 1.395 . S
C686 C689 1.403 . S
C687 C684 1.403 . S
C687 C688 1.524 . S
C687 C691 1.400 . S
C688 H673 0.960 . S
C688 H674 0.960 . S
C688 H675 0.960 . S
C688 C687 1.524 . S
C689 C686 1.403 . S
C689 C690 1.392 . S
C689 C693 1.495 . S
C690 C689 1.392 . S
C690 C691 1.385 . S
C690 C692 1.478 . S
C691 H685 0.930 . S
C691 C687 1.400 . S
C691 C690 1.385 . S
C692 C690 1.478 . S
C692 C694 1.381 . S
C692 C698 1.383 . S
C693 C689 1.495 . S
C693 H699 0.959 . S
C693 H700 0.961 . S
C693 H701 0.960 . S
C694 C692 1.381 . S
C694 C695 1.394 . S
C694 H702 0.930 . S
C695 C694 1.394 . S
C695 C696 1.383 . S
C695 H703 0.929 . S
C696 C695 1.383 . S
C696 C697 1.377 . S
C697 H681 0.930 . S
C697 C696 1.377 . S
C697 C698 1.379 . S
C698 H682 0.931 . S
C698 C692 1.383 . S
C698 C697 1.379 . S
H699 C693 0.959 . S
H700 C693 0.961 . S
H701 C693 0.960 . S
H702 C694 0.930 . S
H703 C695 0.929 . S
H704 C712 0.929 . S
H705 C714 0.930 . S
H706 C716 0.930 . S
H707 C719 0.929 . S
H708 C722 0.930 . S
H709 C724 0.960 . S
H710 C724 0.960 . S
H711 C724 0.960 . S
C712 H704 0.929 . S
C712 C713 1.377 . S
C712 C714 1.384 . S
C713 C712 1.377 . S
C713 C719 1.390 . S
C714 H705 0.930 . S
C714 C712 1.384 . S
C714 C715 1.372 . S
C715 C714 1.372 . S
C715 C716 1.400 . S
C715 C720 1.490 . S
C716 H706 0.930 . S
C716 C715 1.400 . S
C716 C719 1.386 . S
H717 C733 0.930 . S
H718 C734 0.931 . S
C719 H707 0.929 . S
C719 C713 1.390 . S
C719 C716 1.386 . S
C720 C715 1.490 . S
C720 C722 1.395 . S
C720 C723 1.403 . S
H721 C727 0.930 . S
C722 H708 0.930 . S
C722 C720 1.395 . S
C722 C725 1.403 . S
C723 C720 1.403 . S
C723 C724 1.524 . S
C723 C727 1.400 . S
C724 H709 0.960 . S
C724 H710 0.960 . S
C724 H711 0.960 . S
C724 C723 1.524 . S
C725 C722 1.403 . S
C725 C726 1.392 . S
C725 C729 1.495 . S
C726 C725 1.392 . S
C726 C727 1.385 . S
C726 C728 1.478 . S
C727 H721 0.930 . S
C727 C723 1.400 . S
C727 C726 1.385 . S
C728 C726 1.478 . S
C728 C730 1.381 . S
C728 C734 1.383 . S
C729 C725 1.495 . S
C729 H735 0.959 . S
C729 H736 0.961 . S
C729 H737 0.960 . S
C730 C728 1.381 . S
C730 C731 1.394 . S
C730 H738 0.930 . S
C731 C730 1.394 . S
C731 C732 1.383 . S
C731 H739 0.929 . S
C732 C731 1.383 . S
C732 C733 1.377 . S
C733 H717 0.930 . S
C733 C732 1.377 . S
C733 C734 1.379 . S
C734 H718 0.931 . S
C734 C728 1.383 . S
C734 C733 1.379 . S
H735 C729 0.959 . S
H736 C729 0.961 . S
H737 C729 0.960 . S
H738 C730 0.930 . S
H739 C731 0.929 . S
H740 C748 0.929 . S
H741 C750 0.930 . S
H742 C752 0.930 . S
H743 C755 0.929 . S
H744 C758 0.930 . S
H745 C760 0.960 . S
H746 C760 0.960 . S
H747 C760 0.960 . S
C748 H740 0.929 . S
C748 C749 1.377 . S
C748 C750 1.384 . S
C749 C748 1.377 . S
C749 C755 1.390 . S
C750 H741 0.930 . S
C750 C748 1.384 . S
C750 C751 1.372 . S
C751 C750 1.372 . S
C751 C752 1.400 . S
C751 C756 1.490 . S
C752 H742 0.930 . S
C752 C751 1.400 . S
C752 C755 1.386 . S
H753 C769 0.930 . S
H754 C770 0.931 . S
C755 H743 0.929 . S
C755 C749 1.390 . S
C755 C752 1.386 . S
C756 C751 1.490 . S
C756 C758 1.395 . S
C756 C759 1.403 . S
H757 C763 0.930 . S
C758 H744 0.930 . S
C758 C756 1.395 . S
C758 C761 1.403 . S
C759 C756 1.403 . S
C759 C760 1.524 . S
C759 C763 1.400 . S
C760 H745 0.960 . S
C760 H746 0.960 . S
C760 H747 0.960 . S
C760 C759 1.524 . S
C761 C758 1.403 . S
C761 C762 1.392 . S
C761 C765 1.495 . S
C762 C761 1.392 . S
C762 C763 1.385 . S
C762 C764 1.478 . S
C763 H757 0.930 . S
C763 C759 1.400 . S
C763 C762 1.385 . S
C764 C762 1.478 . S
C764 C766 1.381 . S
C764 C770 1.383 . S
C765 C761 1.495 . S
C765 H771 0.959 . S
C765 H772 0.961 . S
C765 H773 0.960 . S
C766 C764 1.381 . S
C766 C767 1.394 . S
C766 H774 0.930 . S
C767 C766 1.394 . S
C767 C768 1.383 . S
C767 H775 0.929 . S
C768 C767 1.383 . S
C768 C769 1.377 . S
C769 H753 0.930 . S
C769 C768 1.377 . S
C769 C770 1.379 . S
C770 H754 0.931 . S
C770 C764 1.383 . S
C770 C769 1.379 . S
H771 C765 0.959 . S
H772 C765 0.961 . S
H773 C765 0.960 . S
H774 C766 0.930 . S
H775 C767 0.929 . S
H776 C784 0.929 . S
H777 C786 0.930 . S
H778 C788 0.930 . S
H779 C791 0.929 . S
H780 C794 0.930 . S
H781 C796 0.960 . S
H782 C796 0.960 . S
H783 C796 0.960 . S
C784 H776 0.929 . S
C784 C785 1.377 . S
C784 C786 1.384 . S
C785 C784 1.377 . S
C785 C791 1.390 . S
C786 H777 0.930 . S
C786 C784 1.384 . S
C786 C787 1.372 . S
C787 C786 1.372 . S
C787 C788 1.400 . S
C787 C792 1.490 . S
C788 H778 0.930 . S
C788 C787 1.400 . S
C788 C791 1.386 . S
H789 C805 0.930 . S
H790 C806 0.931 . S
C791 H779 0.929 . S
C791 C785 1.390 . S
C791 C788 1.386 . S
C792 C787 1.490 . S
C792 C794 1.395 . S
C792 C795 1.403 . S
H793 C799 0.930 . S
C794 H780 0.930 . S
C794 C792 1.395 . S
C794 C797 1.403 . S
C795 C792 1.403 . S
C795 C796 1.524 . S
C795 C799 1.400 . S
C796 H781 0.960 . S
C796 H782 0.960 . S
C796 H783 0.960 . S
C796 C795 1.524 . S
C797 C794 1.403 . S
C797 C798 1.392 . S
C797 C801 1.495 . S
C798 C797 1.392 . S
C798 C799 1.385 . S
C798 C800 1.478 . S
C799 H793 0.930 . S
C799 C795 1.400 . S
C799 C798 1.385 . S
C800 C798 1.478 . S
C800 C802 1.381 . S
C800 C806 1.383 . S
C801 C797 1.495 . S
C801 H807 0.959 . S
C801 H808 0.961 . S
C801 H809 0.960 . S
C802 C800 1.381 . S
C802 C803 1.394 . S
C802 H810 0.930 . S
C803 C802 1.394 . S
C803 C804 1.383 . S
C803 H811 0.929 . S
C804 C803 1.383 . S
C804 C805 1.377 . S
C805 H789 0.930 . S
C805 C804 1.377 . S
C805 C806 1.379 . S
C806 H790 0.931 . S
C806 C800 1.383 . S
C806 C805 1.379 . S
H807 C801 0.959 . S
H808 C801 0.961 . S
H809 C801 0.960 . S
H810 C802 0.930 . S
H811 C803 0.929 . S
H812 C820 0.929 . S
H813 C822 0.930 . S
H814 C824 0.930 . S
H815 C827 0.929 . S
H816 C830 0.930 . S
H817 C832 0.960 . S
H818 C832 0.960 . S
H819 C832 0.960 . S
C820 H812 0.929 . S
C820 C821 1.377 . S
C820 C822 1.384 . S
C821 C820 1.377 . S
C821 C827 1.390 . S
C822 H813 0.930 . S
C822 C820 1.384 . S
C822 C823 1.372 . S
C823 C822 1.372 . S
C823 C824 1.400 . S
C823 C828 1.490 . S
C824 H814 0.930 . S
C824 C823 1.400 . S
C824 C827 1.386 . S
H825 C841 0.930 . S
H826 C842 0.931 . S
C827 H815 0.929 . S
C827 C821 1.390 . S
C827 C824 1.386 . S
C828 C823 1.490 . S
C828 C830 1.395 . S
C828 C831 1.403 . S
H829 C835 0.930 . S
C830 H816 0.930 . S
C830 C828 1.395 . S
C830 C833 1.403 . S
C831 C828 1.403 . S
C831 C832 1.524 . S
C831 C835 1.400 . S
C832 H817 0.960 . S
C832 H818 0.960 . S
C832 H819 0.960 . S
C832 C831 1.524 . S
C833 C830 1.403 . S
C833 C834 1.392 . S
C833 C837 1.495 . S
C834 C833 1.392 . S
C834 C835 1.385 . S
C834 C836 1.478 . S
C835 H829 0.930 . S
C835 C831 1.400 . S
C835 C834 1.385 . S
C836 C834 1.478 . S
C836 C838 1.381 . S
C836 C842 1.383 . S
C837 C833 1.495 . S
C837 H843 0.959 . S
C837 H844 0.961 . S
C837 H845 0.960 . S
C838 C836 1.381 . S
C838 C839 1.394 . S
C838 H846 0.930 . S
C839 C838 1.394 . S
C839 C840 1.383 . S
C839 H847 0.929 . S
C840 C839 1.383 . S
C840 C841 1.377 . S
C841 H825 0.930 . S
C841 C840 1.377 . S
C841 C842 1.379 . S
C842 H826 0.931 . S
C842 C836 1.383 . S
C842 C841 1.379 . S
H843 C837 0.959 . S
H844 C837 0.961 . S
H845 C837 0.960 . S
H846 C838 0.930 . S
H847 C839 0.929 . S
H848 C856 0.929 . S
H849 C858 0.930 . S
H850 C860 0.930 . S
H851 C863 0.929 . S
H852 C866 0.930 . S
H853 C868 0.960 . S
H854 C868 0.960 . S
H855 C868 0.960 . S
C856 H848 0.929 . S
C856 C857 1.377 . S
C856 C858 1.384 . S
C857 C856 1.377 . S
C857 C863 1.390 . S
C858 H849 0.930 . S
C858 C856 1.384 . S
C858 C859 1.372 . S
C859 C858 1.372 . S
C859 C860 1.400 . S
C859 C864 1.490 . S
C860 H850 0.930 . S
C860 C859 1.400 . S
C860 C863 1.386 . S
H861 C877 0.930 . S
H862 C878 0.931 . S
C863 H851 0.929 . S
C863 C857 1.390 . S
C863 C860 1.386 . S
C864 C859 1.490 . S
C864 C866 1.395 . S
C864 C867 1.403 . S
H865 C871 0.930 . S
C866 H852 0.930 . S
C866 C864 1.395 . S
C866 C869 1.403 . S
C867 C864 1.403 . S
C867 C868 1.524 . S
C867 C871 1.400 . S
C868 H853 0.960 . S
C868 H854 0.960 . S
C868 H855 0.960 . S
C868 C867 1.524 . S
C869 C866 1.403 . S
C869 C870 1.392 . S
C869 C873 1.495 . S
C870 C869 1.392 . S
C870 C871 1.385 . S
C870 C872 1.478 . S
C871 H865 0.930 . S
C871 C867 1.400 . S
C871 C870 1.385 . S
C872 C870 1.478 . S
C872 C874 1.381 . S
C872 C878 1.383 . S
C873 C869 1.495 . S
C873 H879 0.959 . S
C873 H880 0.961 . S
C873 H881 0.960 . S
C874 C872 1.381 . S
C874 C875 1.394 . S
C874 H882 0.930 . S
C875 C874 1.394 . S
C875 C876 1.383 . S
C875 H883 0.929 . S
C876 C875 1.383 . S
C876 C877 1.377 . S
C877 H861 0.930 . S
C877 C876 1.377 . S
C877 C878 1.379 . S
C878 H862 0.931 . S
C878 C872 1.383 . S
C878 C877 1.379 . S
H879 C873 0.959 . S
H880 C873 0.961 . S
H881 C873 0.960 . S
H882 C874 0.930 . S
H883 C875 0.929 . S
H884 C892 0.929 . S
H885 C894 0.930 . S
H886 C896 0.930 . S
H887 C899 0.929 . S
H888 C902 0.930 . S
H889 C904 0.960 . S
H890 C904 0.960 . S
H891 C904 0.960 . S
C892 H884 0.929 . S
C892 C893 1.377 . S
C892 C894 1.384 . S
C893 C892 1.377 . S
C893 C899 1.390 . S
C894 H885 0.930 . S
C894 C892 1.384 . S
C894 C895 1.372 . S
C895 C894 1.372 . S
C895 C896 1.400 . S
C895 C900 1.490 . S
C896 H886 0.930 . S
C896 C895 1.400 . S
C896 C899 1.386 . S
H897 C913 0.930 . S
H898 C914 0.931 . S
C899 H887 0.929 . S
C899 C893 1.390 . S
C899 C896 1.386 . S
C900 C895 1.490 . S
C900 C902 1.395 . S
C900 C903 1.403 . S
H901 C907 0.930 . S
C902 H888 0.930 . S
C902 C900 1.395 . S
C902 C905 1.403 . S
C903 C900 1.403 . S
C903 C904 1.524 . S
C903 C907 1.400 . S
C904 H889 0.960 . S
C904 H890 0.960 . S
C904 H891 0.960 . S
C904 C903 1.524 . S
C905 C902 1.403 . S
C905 C906 1.392 . S
C905 C909 1.495 . S
C906 C905 1.392 . S
C906 C907 1.385 . S
C906 C908 1.478 . S
C907 H901 0.930 . S
C907 C903 1.400 . S
C907 C906 1.385 . S
C908 C906 1.478 . S
C908 C910 1.381 . S
C908 C914 1.383 . S
C909 C905 1.495 . S
C909 H915 0.959 . S
C909 H916 0.961 . S
C909 H917 0.960 . S
C910 C908 1.381 . S
C910 C911 1.394 . S
C910 H918 0.930 . S
C911 C910 1.394 . S
C911 C912 1.383 . S
C911 H919 0.929 . S
C912 C911 1.383 . S
C912 C913 1.377 . S
C913 H897 0.930 . S
C913 C912 1.377 . S
C913 C914 1.379 . S
C914 H898 0.931 . S
C914 C908 1.383 . S
C914 C913 1.379 . S
H915 C909 0.959 . S
H916 C909 0.961 . S
H917 C909 0.960 . S
H918 C910 0.930 . S
H919 C911 0.929 . S
H920 C928 0.929 . S
H921 C930 0.930 . S
H922 C932 0.930 . S
H923 C935 0.929 . S
H924 C938 0.930 . S
H925 C940 0.960 . S
H926 C940 0.960 . S
H927 C940 0.960 . S
C928 H920 0.929 . S
C928 C929 1.377 . S
C928 C930 1.384 . S
C929 C928 1.377 . S
C929 C935 1.390 . S
C930 H921 0.930 . S
C930 C928 1.384 . S
C930 C931 1.372 . S
C931 C930 1.372 . S
C931 C932 1.400 . S
C931 C936 1.490 . S
C932 H922 0.930 . S
C932 C931 1.400 . S
C932 C935 1.386 . S
H933 C949 0.930 . S
H934 C950 0.931 . S
C935 H923 0.929 . S
C935 C929 1.390 . S
C935 C932 1.386 . S
C936 C931 1.490 . S
C936 C938 1.395 . S
C936 C939 1.403 . S
H937 C943 0.930 . S
C938 H924 0.930 . S
C938 C936 1.395 . S
C938 C941 1.403 . S
C939 C936 1.403 . S
C939 C940 1.524 . S
C939 C943 1.400 . S
C940 H925 0.960 . S
C940 H926 0.960 . S
C940 H927 0.960 . S
C940 C939 1.524 . S
C941 C938 1.403 . S
C941 C942 1.392 . S
C941 C945 1.495 . S
C942 C941 1.392 . S
C942 C943 1.385 . S
C942 C944 1.478 . S
C943 H937 0.930 . S
C943 C939 1.400 . S
C943 C942 1.385 . S
C944 C942 1.478 . S
C944 C946 1.381 . S
C944 C950 1.383 . S
C945 C941 1.495 . S
C945 H951 0.959 . S
C945 H952 0.961 . S
C945 H953 0.960 . S
C946 C944 1.381 . S
C946 C947 1.394 . S
C946 H954 0.930 . S
C947 C946 1.394 . S
C947 C948 1.383 . S
C947 H955 0.929 . S
C948 C947 1.383 . S
C948 C949 1.377 . S
C949 H933 0.930 . S
C949 C948 1.377 . S
C949 C950 1.379 . S
C950 H934 0.931 . S
C950 C944 1.383 . S
C950 C949 1.379 . S
H951 C945 0.959 . S
H952 C945 0.961 . S
H953 C945 0.960 . S
H954 C946 0.930 . S
H955 C947 0.929 . S
H956 C964 0.929 . S
H957 C966 0.930 . S
H958 C968 0.930 . S
H959 C971 0.929 . S
H960 C974 0.930 . S
H961 C976 0.960 . S
H962 C976 0.960 . S
H963 C976 0.960 . S
C964 H956 0.929 . S
C964 C965 1.377 . S
C964 C966 1.384 . S
C965 C964 1.377 . S
C965 C971 1.390 . S
C966 H957 0.930 . S
C966 C964 1.384 . S
C966 C967 1.372 . S
C967 C966 1.372 . S
C967 C968 1.400 . S
C967 C972 1.490 . S
C968 H958 0.930 . S
C968 C967 1.400 . S
C968 C971 1.386 . S
H969 C985 0.930 . S
H970 C986 0.931 . S
C971 H959 0.929 . S
C971 C965 1.390 . S
C971 C968 1.386 . S
C972 C967 1.490 . S
C972 C974 1.395 . S
C972 C975 1.403 . S
H973 C979 0.930 . S
C974 H960 0.930 . S
C974 C972 1.395 . S
C974 C977 1.403 . S
C975 C972 1.403 . S
C975 C976 1.524 . S
C975 C979 1.400 . S
C976 H961 0.960 . S
C976 H962 0.960 . S
C976 H963 0.960 . S
C976 C975 1.524 . S
C977 C974 1.403 . S
C977 C978 1.392 . S
C977 C981 1.495 . S
C978 C977 1.392 . S
C978 C979 1.385 . S
C978 C980 1.478 . S
C979 H973 0.930 . S
C979 C975 1.400 . S
C979 C978 1.385 . S
C980 C978 1.478 . S
C980 C982 1.381 . S
C980 C986 1.383 . S
C981 C977 1.495 . S
C981 H987 0.959 . S
C981 H988 0.961 . S
C981 H989 0.960 . S
C982 C980 1.381 . S
C982 C983 1.394 . S
C982 H990 0.930 . S
C983 C982 1.394 . S
C983 C984 1.383 . S
C983 H991 0.929 . S
C984 C983 1.383 . S
C984 C985 1.377 . S
C985 H969 0.930 . S
C985 C984 1.377 . S
C985 C986 1.379 . S
C986 H970 0.931 . S
C986 C980 1.383 . S
C986 C985 1.379 . S
H987 C981 0.959 . S
H988 C981 0.961 . S
H989 C981 0.960 . S
H990 C982 0.930 . S
H991 C983 0.929 . S
H992 C1000 0.929 . S
H993 C1002 0.930 . S
H994 C1004 0.930 . S
H995 C1007 0.929 . S
H996 C1010 0.930 . S
H997 C1012 0.960 . S
H998 C1012 0.960 . S
H999 C1012 0.960 . S
C1000 H992 0.929 . S
C1000 C1001 1.377 . S
C1000 C1002 1.384 . S
C1001 C1000 1.377 . S
C1001 C1007 1.390 . S
C1002 H993 0.930 . S
C1002 C1000 1.384 . S
C1002 C1003 1.372 . S
C1003 C1002 1.372 . S
C1003 C1004 1.400 . S
C1003 C1008 1.490 . S
C1004 H994 0.930 . S
C1004 C1003 1.400 . S
C1004 C1007 1.386 . S
H1005 C1021 0.930 . S
H1006 C1022 0.931 . S
C1007 H995 0.929 . S
C1007 C1001 1.390 . S
C1007 C1004 1.386 . S
C1008 C1003 1.490 . S
C1008 C1010 1.395 . S
C1008 C1011 1.403 . S
H1009 C1015 0.930 . S
C1010 H996 0.930 . S
C1010 C1008 1.395 . S
C1010 C1013 1.403 . S
C1011 C1008 1.403 . S
C1011 C1012 1.524 . S
C1011 C1015 1.400 . S
C1012 H997 0.960 . S
C1012 H998 0.960 . S
C1012 H999 0.960 . S
C1012 C1011 1.524 . S
C1013 C1010 1.403 . S
C1013 C1014 1.392 . S
C1013 C1017 1.495 . S
C1014 C1013 1.392 . S
C1014 C1015 1.385 . S
C1014 C1016 1.478 . S
C1015 H1009 0.930 . S
C1015 C1011 1.400 . S
C1015 C1014 1.385 . S
C1016 C1014 1.478 . S
C1016 C1018 1.381 . S
C1016 C1022 1.383 . S
C1017 C1013 1.495 . S
C1017 H1023 0.959 . S
C1017 H1024 0.961 . S
C1017 H1025 0.960 . S
C1018 C1016 1.381 . S
C1018 C1019 1.394 . S
C1018 H1026 0.930 . S
C1019 C1018 1.394 . S
C1019 C1020 1.383 . S
C1019 H1027 0.929 . S
C1020 C1019 1.383 . S
C1020 C1021 1.377 . S
C1021 H1005 0.930 . S
C1021 C1020 1.377 . S
C1021 C1022 1.379 . S
C1022 H1006 0.931 . S
C1022 C1016 1.383 . S
C1022 C1021 1.379 . S
H1023 C1017 0.959 . S
H1024 C1017 0.961 . S
H1025 C1017 0.960 . S
H1026 C1018 0.930 . S
H1027 C1019 0.929 . S
H1028 C1036 0.929 . S
H1029 C1038 0.930 . S
H1030 C1040 0.930 . S
H1031 C1043 0.929 . S
H1032 C1046 0.930 . S
H1033 C1048 0.960 . S
H1034 C1048 0.960 . S
H1035 C1048 0.960 . S
C1036 H1028 0.929 . S
C1036 C1037 1.377 . S
C1036 C1038 1.384 . S
C1037 C1036 1.377 . S
C1037 C1043 1.390 . S
C1038 H1029 0.930 . S
C1038 C1036 1.384 . S
C1038 C1039 1.372 . S
C1039 C1038 1.372 . S
C1039 C1040 1.400 . S
C1039 C1044 1.490 . S
C1040 H1030 0.930 . S
C1040 C1039 1.400 . S
C1040 C1043 1.386 . S
H1041 C1057 0.930 . S
H1042 C1058 0.931 . S
C1043 H1031 0.929 . S
C1043 C1037 1.390 . S
C1043 C1040 1.386 . S
C1044 C1039 1.490 . S
C1044 C1046 1.395 . S
C1044 C1047 1.403 . S
H1045 C1051 0.930 . S
C1046 H1032 0.930 . S
C1046 C1044 1.395 . S
C1046 C1049 1.403 . S
C1047 C1044 1.403 . S
C1047 C1048 1.524 . S
C1047 C1051 1.400 . S
C1048 H1033 0.960 . S
C1048 H1034 0.960 . S
C1048 H1035 0.960 . S
C1048 C1047 1.524 . S
C1049 C1046 1.403 . S
C1049 C1050 1.392 . S
C1049 C1053 1.495 . S
C1050 C1049 1.392 . S
C1050 C1051 1.385 . S
C1050 C1052 1.478 . S
C1051 H1045 0.930 . S
C1051 C1047 1.400 . S
C1051 C1050 1.385 . S
C1052 C1050 1.478 . S
C1052 C1054 1.381 . S
C1052 C1058 1.383 . S
C1053 C1049 1.495 . S
C1053 H1059 0.959 . S
C1053 H1060 0.961 . S
C1053 H1061 0.960 . S
C1054 C1052 1.381 . S
C1054 C1055 1.394 . S
C1054 H1062 0.930 . S
C1055 C1054 1.394 . S
C1055 C1056 1.383 . S
C1055 H1063 0.929 . S
C1056 C1055 1.383 . S
C1056 C1057 1.377 . S
C1057 H1041 0.930 . S
C1057 C1056 1.377 . S
C1057 C1058 1.379 . S
C1058 H1042 0.931 . S
C1058 C1052 1.383 . S
C1058 C1057 1.379 . S
H1059 C1053 0.959 . S
H1060 C1053 0.961 . S
H1061 C1053 0.960 . S
H1062 C1054 0.930 . S
H1063 C1055 0.929 . S
C209 C43 1.500 . S
C228 C92 1.492 1_655 S
C245 C44 1.500 . S
C264 C134 1.496 . S
C281 C41 1.500 . S
C300 C90 1.497 . S
C317 C138 1.500 . S
C336 C47 1.492 . S
C353 C42 1.500 . S
C372 C93 1.501 . S
C389 C45 1.500 . S
C408 C137 1.497 1_565 S
C425 C91 1.500 . S
C444 C40 1.496 . S
C461 C139 1.500 1_565 S
C480 C46 1.501 . S
C497 C188 1.500 . S
C516 C39 1.492 1_556 S
C533 C187 1.500 . S
C552 C34 1.496 . S
C569 C184 1.500 . S
C588 C37 1.497 . S
C605 C38 1.500 . S
C624 C189 1.501 1_556 S
C641 C195 1.500 . S
C660 C94 1.501 . S
C677 C97 1.500 . S
C696 C196 1.496 . S
C713 C95 1.500 . S
C732 C194 1.492 . S
C749 C197 1.500 . S
C768 C96 1.497 . S
C785 C146 1.500 . S
C804 C89 1.497 . S
C821 C84 1.500 . S
C840 C144 1.492 . S
C857 C87 1.500 . S
C876 C145 1.501 . S
C893 C147 1.500 . S
C912 C88 1.497 . S
C929 C192 1.500 . S
C948 C143 1.497 . S
C965 C140 1.500 . S
C984 C190 1.501 . S
C1001 C193 1.500 . S
C1020 C142 1.497 . S
C1037 C141 1.500 . S
C1056 C191 1.492 . S
