# Generated by pormake.
# Topology dft, (4)-cn, num edge types: 1
# Building blocks:
#     Node 0, Type 0, BuildingBlock: KUFVIS_clean_sbu_0, # of connection points: 4
#     Node 1, Type 0, BuildingBlock: KUFVIS_clean_sbu_0, # of connection points: 4
#     Node 2, Type 0, BuildingBlock: KUFVIS_clean_sbu_0, # of connection points: 4
#     Node 3, Type 0, BuildingBlock: KUFVIS_clean_sbu_0, # of connection points: 4
#     Node 4, Type 0, BuildingBlock: KUFVIS_clean_sbu_0, # of connection points: 4
#     Node 5, Type 0, BuildingBlock: KUFVIS_clean_sbu_0, # of connection points: 4
#     Node 6, Type 0, BuildingBlock: KUFVIS_clean_sbu_0, # of connection points: 4
#     Node 7, Type 0, BuildingBlock: KUFVIS_clean_sbu_0, # of connection points: 4
#     Edge 8, Type (0, 0), BuildingBlock: ZUJKAS_clean_linker_0, # of connection points: 2
#     Edge 9, Type (0, 0), BuildingBlock: ZUJKAS_clean_linker_0, # of connection points: 2
#     Edge 10, Type (0, 0), BuildingBlock: ZUJKAS_clean_linker_0, # of connection points: 2
#     Edge 11, Type (0, 0), BuildingBlock: ZUJKAS_clean_linker_0, # of connection points: 2
#     Edge 12, Type (0, 0), BuildingBlock: ZUJKAS_clean_linker_0, # of connection points: 2
#     Edge 13, Type (0, 0), BuildingBlock: ZUJKAS_clean_linker_0, # of connection points: 2
#     Edge 14, Type (0, 0), BuildingBlock: ZUJKAS_clean_linker_0, # of connection points: 2
#     Edge 15, Type (0, 0), BuildingBlock: ZUJKAS_clean_linker_0, # of connection points: 2
#     Edge 16, Type (0, 0), BuildingBlock: ZUJKAS_clean_linker_0, # of connection points: 2
#     Edge 17, Type (0, 0), BuildingBlock: ZUJKAS_clean_linker_0, # of connection points: 2
#     Edge 18, Type (0, 0), BuildingBlock: ZUJKAS_clean_linker_0, # of connection points: 2
#     Edge 19, Type (0, 0), BuildingBlock: ZUJKAS_clean_linker_0, # of connection points: 2
#     Edge 20, Type (0, 0), BuildingBlock: ZUJKAS_clean_linker_0, # of connection points: 2
#     Edge 21, Type (0, 0), BuildingBlock: ZUJKAS_clean_linker_0, # of connection points: 2
#     Edge 22, Type (0, 0), BuildingBlock: ZUJKAS_clean_linker_0, # of connection points: 2
#     Edge 23, Type (0, 0), BuildingBlock: ZUJKAS_clean_linker_0, # of connection points: 2
# Relax obj value: 0.171
# Max RMSD: 0.159
# Mean RMSD: 0.159
data_MOF--net-dft--node1-KUFVIS_clean_sbu_0--edge1-ZUJKAS_clean_linker_0
_symmetry_space_group_name_H-M    P1
_symmetry_Int_Tables_number       1
_symmetry_cell_setting            triclinic
loop_
_symmetry_equiv_pos_as_xyz
'x, y, z'
_cell_length_a     44.11581
_cell_length_b     44.158572
_cell_length_c     52.794004
_cell_angle_alpha  89.991793
_cell_angle_beta   90.021283
_cell_angle_gamma 89.989205
loop_
_atom_site_label
_atom_site_type_symbol
_atom_site_fract_x
_atom_site_fract_y
_atom_site_fract_z
_atom_type_partial_charge
Mn0 Mn 0.31808 0.04217 0.18041 0.0
Mn1 Mn 0.33095 0.11106 0.15503 0.0
C2 C 0.30635 0.0859 0.20268 0.0
C3 C 0.28624 0.00097 0.18803 0.0
C4 C 0.38093 0.06977 0.17461 0.0
O5 O 0.3229 0.033 0.14256 0.0
O6 O 0.32556 0.08103 0.12755 0.0
C7 C 0.27126 0.12185 0.13095 0.0
N8 N 0.29353 0.13078 0.14716 0.0
C9 C 0.26654 0.17655 0.15733 0.0
C10 C 0.24355 0.16807 0.14041 0.0
C11 C 0.24584 0.14048 0.1273 0.0
C12 C 0.29128 0.15699 0.16024 0.0
H13 H 0.27281 0.10056 0.12109 0.0
C14 C 0.32394 0.05229 0.12445 0.0
O15 O 0.31551 0.99845 0.18964 0.0
O16 O 0.27567 0.02689 0.18055 0.0
N17 N 0.33596 0.14204 0.18006 0.0
C18 C 0.35873 0.14563 0.19724 0.0
C19 C 0.35905 0.1714 0.21283 0.0
C20 C 0.33617 0.19335 0.21039 0.0
C21 C 0.31303 0.18919 0.19253 0.0
C22 C 0.31381 0.163 0.17762 0.0
H23 H 0.37652 0.12898 0.19904 0.0
O24 O 0.3107 0.06066 0.21474 0.0
O25 O 0.30953 0.08462 0.17838 0.0
O26 O 0.3636 0.04924 0.18341 0.0
O27 O 0.37106 0.09316 0.16295 0.0
C28 C 0.28907 0.20988 0.18907 0.0
C29 C 0.26565 0.20341 0.17171 0.0
H30 H 0.22389 0.18237 0.13758 0.0
H31 H 0.22803 0.13359 0.11443 0.0
H32 H 0.37696 0.17441 0.22661 0.0
H33 H 0.33649 0.21319 0.22246 0.0
H34 H 0.28821 0.23067 0.19994 0.0
H35 H 0.24695 0.21914 0.1697 0.0
Mn36 Mn 0.0366 0.32276 0.68883 0.0
Mn37 Mn 0.96469 0.33978 0.67206 0.0
C38 C 0.99612 0.30808 0.71374 0.0
C39 C 0.07875 0.29093 0.69037 0.0
C40 C 0.00783 0.38569 0.69437 0.0
O41 O 0.04099 0.33209 0.65107 0.0
O42 O 0.99209 0.34325 0.64255 0.0
C43 C 0.9538 0.28766 0.63795 0.0
N44 N 0.94586 0.30423 0.65867 0.0
C45 C 0.90273 0.27226 0.66657 0.0
C46 C 0.91037 0.25493 0.64526 0.0
C47 C 0.93608 0.26261 0.63095 0.0
C48 C 0.92131 0.2969 0.67269 0.0
H49 H 0.9735 0.2935 0.62685 0.0
C50 C 0.01982 0.34007 0.63586 0.0
O51 O 0.0812 0.31991 0.6939 0.0
O52 O 0.05211 0.28073 0.68432 0.0
N53 N 0.93573 0.33673 0.69892 0.0
C54 C 0.93229 0.35491 0.71957 0.0
C55 C 0.90798 0.34982 0.7362 0.0
C56 C 0.88728 0.32637 0.73127 0.0
C57 C 0.89115 0.30813 0.70977 0.0
C58 C 0.91583 0.31423 0.69392 0.0
H59 H 0.94803 0.3731 0.72333 0.0
O60 O 0.0228 0.3113 0.72373 0.0
O61 O 0.99391 0.31419 0.68982 0.0
O62 O 0.03021 0.36761 0.69632 0.0
O63 O 0.98192 0.37764 0.68592 0.0
C64 C 0.8716 0.28402 0.70352 0.0
C65 C 0.87753 0.26593 0.68208 0.0
H66 H 0.89675 0.2356 0.63978 0.0
H67 H 0.94219 0.24928 0.61452 0.0
H68 H 0.90515 0.36399 0.75276 0.0
H69 H 0.86858 0.3225 0.74416 0.0
H70 H 0.85203 0.27902 0.71517 0.0
H71 H 0.86262 0.24716 0.67772 0.0
Mn72 Mn 0.7662 0.04317 0.19041 0.0
Mn73 Mn 0.75213 0.97634 0.16183 0.0
C74 C 0.77536 0.99769 0.21122 0.0
C75 C 0.79948 0.08255 0.20034 0.0
C76 C 0.70272 0.0184 0.1812 0.0
O77 O 0.76354 0.05463 0.15286 0.0
O78 O 0.76001 0.00762 0.13586 0.0
C79 C 0.81263 0.9648 0.13953 0.0
N80 N 0.78943 0.95593 0.15482 0.0
C81 C 0.81487 0.90927 0.16496 0.0
C82 C 0.83896 0.91781 0.14919 0.0
C83 C 0.83789 0.94578 0.13652 0.0
C84 C 0.79045 0.9293 0.16742 0.0
H85 H 0.81187 0.98625 0.12977 0.0
C86 C 0.76276 0.03641 0.13401 0.0
O87 O 0.7703 0.08625 0.20135 0.0
O88 O 0.80918 0.05654 0.19232 0.0
N89 N 0.74463 0.94417 0.18532 0.0
C90 C 0.72022 0.93993 0.20073 0.0
C91 C 0.7181 0.9133 0.21517 0.0
C92 C 0.74093 0.89121 0.21346 0.0
C93 C 0.76571 0.89597 0.19732 0.0
C94 C 0.76658 0.92294 0.18337 0.0
H95 H 0.70247 0.95669 0.20196 0.0
O96 O 0.77151 0.02239 0.22413 0.0
O97 O 0.77304 0.00064 0.18698 0.0
O98 O 0.72028 0.03767 0.19159 0.0
O99 O 0.71234 0.99536 0.16891 0.0
C100 C 0.78974 0.87518 0.19475 0.0
C101 C 0.81426 0.8818 0.17853 0.0
H102 H 0.85846 0.90318 0.1468 0.0
H103 H 0.85647 0.95262 0.12442 0.0
H104 H 0.69889 0.90978 0.22756 0.0
H105 H 0.73927 0.87076 0.2247 0.0
H106 H 0.78973 0.85416 0.20532 0.0
H107 H 0.8327 0.86572 0.17683 0.0
Mn108 Mn 0.04807 0.76584 0.68635 0.0
Mn109 Mn 0.11413 0.74217 0.66077 0.0
C110 C 0.09411 0.77829 0.70469 0.0
C111 C 0.00914 0.80084 0.6926 0.0
C112 C 0.07254 0.70087 0.69004 0.0
O113 O 0.03568 0.75628 0.64992 0.0
O114 O 0.08104 0.73961 0.63554 0.0
C115 C 0.12237 0.79142 0.62331 0.0
N116 N 0.13287 0.77524 0.64345 0.0
C117 C 0.1794 0.80365 0.64412 0.0
C118 C 0.16913 0.82055 0.62333 0.0
C119 C 0.14045 0.81445 0.61293 0.0
C120 C 0.16036 0.78101 0.65367 0.0
H121 H 0.10036 0.78679 0.61523 0.0
C122 C 0.0528 0.74539 0.6326 0.0
O123 O 0.00543 0.77224 0.69727 0.0
O124 O 0.03497 0.80893 0.68295 0.0
N125 N 0.148 0.74403 0.68333 0.0
C126 C 0.15374 0.72688 0.70423 0.0
C127 C 0.1813 0.73052 0.71718 0.0
C128 C 0.20272 0.75157 0.70838 0.0
C129 C 0.19623 0.76908 0.68689 0.0
C130 C 0.16844 0.76436 0.67472 0.0
H131 H 0.13743 0.7105 0.71094 0.0
O132 O 0.06974 0.77711 0.71845 0.0
O133 O 0.0909 0.77097 0.6811 0.0
O134 O 0.05211 0.72065 0.6941 0.0
O135 O 0.09714 0.70665 0.67833 0.0
C136 C 0.21611 0.7912 0.67717 0.0
C137 C 0.20761 0.80862 0.65592 0.0
H138 H 0.18299 0.83837 0.61529 0.0
H139 H 0.13232 0.82746 0.59693 0.0
H140 H 0.18609 0.71703 0.73382 0.0
H141 H 0.224 0.7542 0.71838 0.0
H142 H 0.23785 0.79527 0.68608 0.0
H143 H 0.22288 0.8259 0.6489 0.0
Mn144 Mn 0.3239 0.04407 0.80492 0.0
Mn145 Mn 0.34154 0.97413 0.82626 0.0
C146 C 0.3081 0.00124 0.78354 0.0
C147 C 0.29206 0.08597 0.8009 0.0
C148 C 0.38645 0.01414 0.79936 0.0
O149 O 0.33431 0.05235 0.84196 0.0
O150 O 0.3475 0.00473 0.85321 0.0
C151 C 0.29167 0.9682 0.86348 0.0
N152 N 0.3067 0.9576 0.84276 0.0
C153 C 0.27343 0.91459 0.83974 0.0
C154 C 0.25768 0.92496 0.86111 0.0
C155 C 0.26679 0.95194 0.87297 0.0
C156 C 0.29799 0.93179 0.83109 0.0
H157 H 0.29859 0.98889 0.8727 0.0
C158 C 0.34411 0.03296 0.85802 0.0
O159 O 0.32095 0.08793 0.79658 0.0
O160 O 0.28202 0.06015 0.80914 0.0
N161 N 0.33631 0.94226 0.80209 0.0
C162 C 0.35313 0.93602 0.7811 0.0
C163 C 0.34658 0.91004 0.76676 0.0
C164 C 0.32305 0.8906 0.77432 0.0
C165 C 0.30622 0.89735 0.79613 0.0
C166 C 0.31381 0.92354 0.80966 0.0
H167 H 0.37135 0.95081 0.77531 0.0
O168 O 0.31127 0.02665 0.77147 0.0
O169 O 0.31511 0.00152 0.80736 0.0
O170 O 0.36868 0.03672 0.79704 0.0
O171 O 0.37844 0.98902 0.80926 0.0
C172 C 0.2821 0.87925 0.8049 0.0
C173 C 0.26556 0.88798 0.82656 0.0
H174 H 0.23847 0.91249 0.86849 0.0
H175 H 0.25469 0.96015 0.88943 0.0
H176 H 0.35965 0.90498 0.74995 0.0
H177 H 0.31804 0.87061 0.76319 0.0
H178 H 0.2759 0.85867 0.79502 0.0
H179 H 0.24678 0.87411 0.83288 0.0
Mn180 Mn 0.05362 0.32129 0.31464 0.0
Mn181 Mn 0.12223 0.34496 0.33516 0.0
C182 C 0.09762 0.30737 0.29363 0.0
C183 C 0.01325 0.28727 0.31218 0.0
C184 C 0.078 0.38581 0.30803 0.0
O185 O 0.04498 0.33282 0.35147 0.0
O186 O 0.09211 0.34772 0.36278 0.0
C187 C 0.13482 0.29626 0.37227 0.0
N188 N 0.14297 0.31221 0.35127 0.0
C189 C 0.18964 0.28437 0.34756 0.0
C190 C 0.1818 0.26768 0.36918 0.0
C191 C 0.15422 0.27359 0.38154 0.0
C192 C 0.16937 0.3066 0.33916 0.0
H193 H 0.11369 0.30079 0.38187 0.0
C194 C 0.06405 0.343 0.36768 0.0
O195 O 0.00997 0.31574 0.30691 0.0
O196 O 0.03976 0.27867 0.32019 0.0
N197 N 0.15344 0.34289 0.3101 0.0
C198 C 0.15674 0.35979 0.28869 0.0
C199 C 0.18295 0.35636 0.2739 0.0
C200 C 0.20554 0.3358 0.28138 0.0
C201 C 0.20151 0.31848 0.3034 0.0
C202 C 0.17499 0.32298 0.31743 0.0
H203 H 0.13957 0.37585 0.28302 0.0
O204 O 0.07196 0.30816 0.28157 0.0
O205 O 0.09679 0.31572 0.31713 0.0
O206 O 0.05755 0.36582 0.30516 0.0
O207 O 0.10335 0.38043 0.31873 0.0
C208 C 0.22266 0.2968 0.3119 0.0
C209 C 0.21662 0.27959 0.33384 0.0
H210 H 0.19669 0.25017 0.37638 0.0
H211 H 0.14796 0.26076 0.3982 0.0
H212 H 0.18583 0.36967 0.25685 0.0
H213 H 0.22579 0.33336 0.26997 0.0
H214 H 0.24348 0.29291 0.30153 0.0
H215 H 0.23281 0.26264 0.33993 0.0
Mn216 Mn 0.76612 0.04723 0.81561 0.0
Mn217 Mn 0.74059 0.11144 0.84311 0.0
C218 C 0.77844 0.09432 0.79931 0.0
C219 C 0.80142 0.00874 0.8087 0.0
C220 C 0.70092 0.07112 0.81121 0.0
O221 O 0.75574 0.03283 0.85134 0.0
O222 O 0.73767 0.07699 0.86693 0.0
C223 C 0.78821 0.11817 0.88228 0.0
N224 N 0.77277 0.12954 0.86205 0.0
C225 C 0.80042 0.17643 0.86413 0.0
C226 C 0.81658 0.16525 0.88501 0.0
C227 C 0.81049 0.13596 0.89408 0.0
C228 C 0.77851 0.15764 0.85312 0.0
H229 H 0.78356 0.09573 0.88939 0.0
C230 C 0.74399 0.04878 0.86902 0.0
O231 O 0.77295 0.0053 0.80332 0.0
O232 O 0.80927 0.03411 0.81931 0.0
N233 N 0.74278 0.14659 0.82203 0.0
C234 C 0.72626 0.15335 0.80097 0.0
C235 C 0.72996 0.18168 0.7893 0.0
C236 C 0.75038 0.2028 0.79952 0.0
C237 C 0.76722 0.19527 0.82117 0.0
C238 C 0.76252 0.16673 0.83201 0.0
H239 H 0.71036 0.13727 0.79318 0.0
O240 O 0.77804 0.07072 0.78464 0.0
O241 O 0.77054 0.08979 0.82262 0.0
O242 O 0.72117 0.05122 0.80702 0.0
O243 O 0.70586 0.09512 0.82398 0.0
C244 C 0.78862 0.21486 0.83233 0.0
C245 C 0.80536 0.20537 0.85368 0.0
H246 H 0.8338 0.1789 0.89416 0.0
H247 H 0.82288 0.12715 0.91017 0.0
H248 H 0.717 0.18729 0.77254 0.0
H249 H 0.75304 0.22467 0.79051 0.0
H250 H 0.79262 0.23718 0.8245 0.0
H251 H 0.82205 0.22047 0.86185 0.0
Mn252 Mn 0.03673 0.76339 0.31097 0.0
Mn253 Mn 0.96715 0.74467 0.3326 0.0
C254 C 0.99337 0.77677 0.28888 0.0
C255 C 0.07796 0.79599 0.30632 0.0
C256 C 0.00907 0.69968 0.30781 0.0
O257 O 0.04501 0.75499 0.34842 0.0
O258 O 0.99749 0.74177 0.3601 0.0
C259 C 0.95865 0.7968 0.36717 0.0
N260 N 0.9491 0.78003 0.34703 0.0
C261 C 0.90489 0.81133 0.34182 0.0
C262 C 0.91419 0.82886 0.36255 0.0
C263 C 0.94126 0.82164 0.3752 0.0
C264 C 0.92333 0.78707 0.33449 0.0
H265 H 0.97935 0.79124 0.37704 0.0
C266 C 0.02565 0.74601 0.36484 0.0
O267 O 0.08059 0.76702 0.3029 0.0
O268 O 0.05175 0.80585 0.31392 0.0
N269 N 0.93554 0.74692 0.30784 0.0
C270 C 0.92987 0.72786 0.2881 0.0
C271 C 0.90374 0.73217 0.27331 0.0
C272 C 0.88354 0.75575 0.27918 0.0
C273 C 0.88962 0.77476 0.29984 0.0
C274 C 0.91602 0.76939 0.31387 0.0
H275 H 0.9452 0.70956 0.28364 0.0
O276 O 0.01902 0.77407 0.27705 0.0
O277 O 0.99388 0.7708 0.31286 0.0
O278 O 0.03083 0.71821 0.3045 0.0
O279 O 0.98373 0.70719 0.31764 0.0
C280 C 0.87047 0.79877 0.3071 0.0
C281 C 0.87808 0.817 0.32811 0.0
H282 H 0.90076 0.84796 0.36888 0.0
H283 H 0.94863 0.83511 0.39118 0.0
H284 H 0.89916 0.71733 0.25746 0.0
H285 H 0.86345 0.75903 0.26771 0.0
H286 H 0.84993 0.80352 0.29659 0.0
H287 H 0.86327 0.83551 0.33342 0.0
H288 H 0.28447 0.06874 0.08799 0.0
H289 H 0.29147 0.06355 0.04241 0.0
H290 H 0.37141 0.0094 0.05525 0.0
H291 H 0.36421 0.01443 0.1013 0.0
H292 H 0.3456 0.08615 0.01977 0.0
H293 H 0.32526 0.96458 0.99752 0.0
H294 H 0.3109 0.98223 0.02596 0.0
H295 H 0.35032 0.97268 0.02355 0.0
C296 C 0.30302 0.055 0.08113 0.0
C297 C 0.32377 0.04191 0.09804 0.0
C298 C 0.30706 0.05215 0.0551 0.0
C299 C 0.332 0.03624 0.04551 0.0
C300 C 0.35182 0.0215 0.06233 0.0
H301 H 0.38724 0.01113 0.88953 0.0
H302 H 0.38832 0.01542 0.93562 0.0
C303 C 0.34763 0.02421 0.08856 0.0
C304 C 0.33857 0.0379 0.01809 0.0
H305 H 0.34085 0.99604 0.96393 0.0
C306 C 0.34469 0.06645 0.00751 0.0
C307 C 0.33752 0.01215 0.00232 0.0
C308 C 0.33046 0.98114 0.01275 0.0
C309 C 0.34956 0.06999 0.98143 0.0
C310 C 0.34774 0.04435 0.96552 0.0
C311 C 0.34224 0.01569 0.9762 0.0
C312 C 0.35055 0.04657 0.93763 0.0
C313 C 0.35683 0.10106 0.97121 0.0
C314 C 0.32974 0.06369 0.92341 0.0
C315 C 0.32935 0.06161 0.89694 0.0
C316 C 0.34945 0.04197 0.8845 0.0
C317 C 0.37146 0.02641 0.8987 0.0
C318 C 0.37203 0.02872 0.92501 0.0
H319 H 0.3662 0.11606 0.98619 0.0
H320 H 0.37336 0.09976 0.9554 0.0
H321 H 0.33573 0.11165 0.96396 0.0
H322 H 0.31261 0.07721 0.93279 0.0
H323 H 0.31189 0.07346 0.88645 0.0
H324 H 0.07183 0.32572 0.60941 0.0
H325 H 0.07975 0.33002 0.56347 0.0
H326 H 0.99032 0.36814 0.55507 0.0
H327 H 0.98242 0.36464 0.6004 0.0
H328 H 0.04516 0.30226 0.52583 0.0
H329 H 0.04201 0.42695 0.51483 0.0
H330 H 0.04719 0.40879 0.54517 0.0
H331 H 0.00986 0.41252 0.53176 0.0
C332 C 0.05411 0.3355 0.59781 0.0
C333 C 0.02653 0.34481 0.60865 0.0
C334 C 0.0586 0.33782 0.57159 0.0
C335 C 0.03573 0.34975 0.55596 0.0
C336 C 0.00849 0.35946 0.56682 0.0
H337 H 0.01513 0.31886 0.39307 0.0
H338 H 0.00564 0.32144 0.4389 0.0
C339 C 0.00399 0.3572 0.59282 0.0
C340 C 0.03926 0.35058 0.52811 0.0
H341 H 0.03554 0.39784 0.47706 0.0
C342 C 0.04331 0.32316 0.51513 0.0
C343 C 0.03687 0.37791 0.51427 0.0
C344 C 0.03404 0.40824 0.52723 0.0
C345 C 0.04465 0.32227 0.48859 0.0
C346 C 0.04119 0.34948 0.47472 0.0
C347 C 0.03755 0.37694 0.48774 0.0
C348 C 0.04417 0.35032 0.44681 0.0
C349 C 0.05045 0.29234 0.47567 0.0
C350 C 0.06788 0.36698 0.43605 0.0
C351 C 0.07309 0.36584 0.41009 0.0
C352 C 0.05468 0.34799 0.39424 0.0
C353 C 0.02973 0.33274 0.40479 0.0
C354 C 0.0245 0.33392 0.43096 0.0
H355 H 0.05916 0.27501 0.48909 0.0
H356 H 0.02893 0.28377 0.46748 0.0
H357 H 0.06705 0.29498 0.46001 0.0
H358 H 0.08315 0.37999 0.4479 0.0
H359 H 0.0923 0.3782 0.40256 0.0
H360 H 0.69796 0.05803 0.90191 0.0
H361 H 0.70125 0.05347 0.94796 0.0
H362 H 0.78801 0.00935 0.94071 0.0
H363 H 0.78476 0.01377 0.89441 0.0
H364 H 0.71451 0.00422 0.98466 0.0
H365 H 0.80297 0.09372 0.97692 0.0
H366 H 0.77753 0.08474 0.9512 0.0
H367 H 0.80862 0.05999 0.95838 0.0
C368 C 0.71714 0.04623 0.91011 0.0
C369 C 0.74115 0.0363 0.89472 0.0
C370 C 0.71906 0.04379 0.93638 0.0
C371 C 0.74513 0.03167 0.94761 0.0
C372 C 0.76785 0.01906 0.93226 0.0
H373 H 0.8091 0.02982 0.10127 0.0
H374 H 0.80509 0.03224 0.05509 0.0
C375 C 0.76581 0.02123 0.90586 0.0
C376 C 0.74988 0.0357 0.97509 0.0
H377 H 0.79043 0.07704 0.01802 0.0
C378 C 0.73113 0.02004 0.99202 0.0
C379 C 0.77137 0.05668 0.98446 0.0
C380 C 0.79119 0.07499 0.96688 0.0
C381 C 0.7337 0.0244 0.01826 0.0
C382 C 0.75508 0.04553 0.02765 0.0
C383 C 0.77388 0.06112 0.01069 0.0
C384 C 0.75945 0.05016 0.05515 0.0
C385 C 0.71397 0.00589 0.03574 0.0
C386 C 0.73581 0.06124 0.07039 0.0
C387 C 0.73821 0.06012 0.0968 0.0
C388 C 0.76433 0.04809 0.10811 0.0
C389 C 0.7889 0.0395 0.09286 0.0
C390 C 0.78656 0.04071 0.06653 0.0
H391 H 0.70353 0.98628 0.02585 0.0
H392 H 0.72728 0.99734 0.05211 0.0
H393 H 0.69543 0.02036 0.04319 0.0
H394 H 0.71487 0.06903 0.06187 0.0
H395 H 0.71879 0.06625 0.10827 0.0
H396 H 0.06357 0.78133 0.39333 0.0
H397 H 0.06814 0.78035 0.43972 0.0
H398 H 0.01178 0.70056 0.4424 0.0
H399 H 0.00658 0.70195 0.39641 0.0
H400 H 0.99065 0.74533 0.47291 0.0
H401 H 0.11361 0.72682 0.48956 0.0
H402 H 0.10495 0.7582 0.46916 0.0
H403 H 0.09605 0.72032 0.45916 0.0
C404 C 0.05303 0.76309 0.40384 0.0
C405 C 0.03477 0.7417 0.39141 0.0
C406 C 0.05554 0.76258 0.4303 0.0
C407 C 0.04025 0.74037 0.44449 0.0
C408 C 0.02359 0.71798 0.43184 0.0
H409 H 0.06332 0.69793 0.6017 0.0
H410 H 0.05635 0.69663 0.55583 0.0
C411 C 0.0208 0.7187 0.40559 0.0
C412 C 0.03937 0.74154 0.47252 0.0
H413 H 0.08348 0.738 0.52546 0.0
C414 C 0.01095 0.74368 0.48444 0.0
C415 C 0.06584 0.73929 0.48746 0.0
C416 C 0.09684 0.73576 0.47575 0.0
C417 C 0.00823 0.74327 0.51092 0.0
C418 C 0.03472 0.74129 0.52585 0.0
C419 C 0.06317 0.73953 0.51393 0.0
C420 C 0.03373 0.74006 0.55388 0.0
C421 C 0.97704 0.7441 0.52261 0.0
C422 C 0.02205 0.76429 0.56813 0.0
C423 C 0.02547 0.76476 0.59451 0.0
C424 C 0.04107 0.74124 0.60677 0.0
C425 C 0.05107 0.71624 0.59263 0.0
C426 C 0.04732 0.7156 0.56645 0.0
H427 H 0.95919 0.73773 0.50875 0.0
H428 H 0.9756 0.72859 0.53913 0.0
H429 H 0.9722 0.76742 0.5293 0.0
H430 H 0.01192 0.78363 0.55878 0.0
H431 H 0.01814 0.78453 0.60499 0.0
H432 H 0.41136 0.02245 0.19665 0.0
H433 H 0.46608 0.01531 0.1999 0.0
H434 H 0.48077 0.10109 0.16289 0.0
H435 H 0.42602 0.10843 0.15928 0.0
H436 H 0.51451 0.05395 0.14225 0.0
H437 H 0.52697 0.05737 0.2468 0.0
H438 H 0.49902 0.03088 0.23579 0.0
H439 H 0.49338 0.07075 0.23074 0.0
C440 C 0.42614 0.03998 0.18936 0.0
C441 C 0.41417 0.06604 0.17767 0.0
C442 C 0.45746 0.0359 0.19138 0.0
C443 C 0.47746 0.05785 0.18193 0.0
C444 C 0.46568 0.08395 0.17041 0.0
H445 H 0.67268 0.06593 0.20336 0.0
H446 H 0.61812 0.07544 0.20377 0.0
C447 C 0.43436 0.08808 0.16837 0.0
C448 C 0.51066 0.05283 0.18289 0.0
H449 H 0.56987 0.04051 0.22331 0.0
C450 C 0.52665 0.05116 0.15997 0.0
C451 C 0.52646 0.04948 0.20605 0.0
C452 C 0.51068 0.05248 0.23127 0.0
C453 C 0.55797 0.04565 0.15954 0.0
C454 C 0.57359 0.04125 0.18265 0.0
C455 C 0.55773 0.04354 0.20561 0.0
C456 C 0.6065 0.03464 0.18331 0.0
C457 C 0.57414 0.04496 0.13435 0.0
C458 C 0.61796 0.00818 0.17216 0.0
C459 C 0.64915 0.00264 0.17184 0.0
C460 C 0.6695 0.02341 0.1828 0.0
C461 C 0.65777 0.04947 0.19464 0.0
C462 C 0.62656 0.05498 0.19493 0.0
H463 H 0.56063 0.05609 0.11922 0.0
H464 H 0.59653 0.05633 0.13564 0.0
H465 H 0.57797 0.02106 0.12869 0.0
H466 H 0.60278 0.9919 0.16353 0.0
H467 H 0.65728 0.98219 0.16276 0.0
H468 H 0.96699 0.4326 0.69193 0.0
H469 H 0.9775 0.48664 0.69761 0.0
H470 H 0.07023 0.46615 0.71666 0.0
H471 H 0.06021 0.4122 0.71113 0.0
H472 H 0.01532 0.51962 0.74522 0.0
H473 H 0.06094 0.52247 0.64673 0.0
H474 H 0.03203 0.49578 0.65613 0.0
H475 H 0.07023 0.49085 0.66689 0.0
C476 C 0.98952 0.43948 0.6977 0.0
C477 C 0.01283 0.418 0.70078 0.0
C478 C 0.9954 0.47035 0.70102 0.0
C479 C 0.0246 0.48016 0.70747 0.0
C480 C 0.04754 0.45884 0.71171 0.0
H481 H 0.11275 0.65369 0.69133 0.0
H482 H 0.1016 0.60035 0.69915 0.0
C483 C 0.04172 0.42803 0.70845 0.0
C484 C 0.032 0.51271 0.70738 0.0
H485 H 0.06312 0.56754 0.67017 0.0
C486 C 0.02574 0.53025 0.72888 0.0
C487 C 0.04574 0.52618 0.68604 0.0
C488 C 0.05264 0.50805 0.66251 0.0
C489 C 0.03316 0.5612 0.72961 0.0
C490 C 0.04665 0.5748 0.7081 0.0
C491 C 0.0529 0.55706 0.68667 0.0
C492 C 0.05397 0.60751 0.70691 0.0
C493 C 0.02705 0.57887 0.75352 0.0
C494 C 0.03099 0.62931 0.7091 0.0
C495 C 0.03731 0.65989 0.70477 0.0
C496 C 0.06667 0.66916 0.6978 0.0
C497 C 0.08985 0.64735 0.69649 0.0
C498 C 0.08354 0.61684 0.70099 0.0
H499 H 0.02516 0.56372 0.77026 0.0
H500 H 0.04522 0.59572 0.75712 0.0
H501 H 0.00527 0.59119 0.75149 0.0
H502 H 0.00788 0.62257 0.7131 0.0
H503 H 0.01887 0.67604 0.70582 0.0
H504 H 0.65201 0.10941 0.8125 0.0
H505 H 0.59935 0.09721 0.80217 0.0
H506 H 0.6262 0.00746 0.77929 0.0
H507 H 0.67893 0.01926 0.78947 0.0
H508 H 0.5717 0.06783 0.75258 0.0
H509 H 0.56401 0.00204 0.84254 0.0
H510 H 0.59202 0.03135 0.83797 0.0
H511 H 0.59611 0.99567 0.82214 0.0
C512 C 0.64685 0.08719 0.80496 0.0
C513 C 0.6697 0.0652 0.80212 0.0
C514 C 0.61678 0.08034 0.79896 0.0
C515 C 0.60906 0.05143 0.79014 0.0
C516 C 0.63186 0.02989 0.78614 0.0
H517 H 0.42951 0.97003 0.79326 0.0
H518 H 0.48376 0.97715 0.78601 0.0
C519 C 0.66196 0.03672 0.792 0.0
C520 C 0.57689 0.04298 0.78738 0.0
H521 H 0.51999 0.00583 0.81797 0.0
C522 C 0.56032 0.05409 0.76671 0.0
C523 C 0.56239 0.02492 0.80581 0.0
C524 C 0.57935 0.01281 0.82849 0.0
C525 C 0.52926 0.04776 0.76412 0.0
C526 C 0.51445 0.03057 0.78308 0.0
C527 C 0.53135 0.01891 0.80341 0.0
C528 C 0.48116 0.026 0.7834 0.0
C529 C 0.51274 0.05941 0.74108 0.0
C530 C 0.4616 0.05105 0.78391 0.0
C531 C 0.43057 0.04706 0.78784 0.0
C532 C 0.41855 0.01793 0.79181 0.0
C533 C 0.43804 0.99278 0.79043 0.0
C534 C 0.46905 0.9968 0.78624 0.0
H535 H 0.52844 0.0624 0.72482 0.0
H536 H 0.4942 0.04386 0.73532 0.0
H537 H 0.50274 0.08186 0.74547 0.0
H538 H 0.47048 0.07385 0.78247 0.0
H539 H 0.41627 0.06695 0.78896 0.0
H540 H 0.02341 0.40853 0.29245 0.0
H541 H 0.01028 0.46149 0.2851 0.0
H542 H 0.10299 0.48754 0.29879 0.0
H543 H 0.11654 0.43455 0.30632 0.0
H544 H 0.0225 0.5064 0.32574 0.0
H545 H 0.07483 0.53542 0.23301 0.0
H546 H 0.06467 0.49709 0.24156 0.0
H547 H 0.0978 0.51431 0.25501 0.0
C548 C 0.04122 0.42537 0.29345 0.0
C549 C 0.07103 0.41727 0.3002 0.0
C550 C 0.03361 0.45562 0.28922 0.0
C551 C 0.0557 0.47826 0.29127 0.0
C552 C 0.08573 0.47025 0.29683 0.0
H553 H 0.06314 0.67165 0.29858 0.0
H554 H 0.07219 0.61769 0.29234 0.0
C555 C 0.09336 0.43998 0.30127 0.0
C556 C 0.04667 0.51043 0.29053 0.0
H557 H 0.05515 0.57611 0.25729 0.0
C558 C 0.02932 0.52166 0.31068 0.0
C559 C 0.05592 0.53009 0.27093 0.0
C560 C 0.07419 0.51873 0.24875 0.0
C561 C 0.02172 0.55241 0.31221 0.0
C562 C 0.03095 0.57225 0.2926 0.0
C563 C 0.04793 0.56083 0.2722 0.0
C564 C 0.0248 0.60519 0.29381 0.0
C565 C 0.00505 0.56352 0.33541 0.0
C566 C 0.99505 0.61621 0.29593 0.0
C567 C 0.98977 0.64706 0.29987 0.0
C568 C 0.01417 0.6675 0.30126 0.0
C569 C 0.04381 0.65656 0.29767 0.0
C570 C 0.04906 0.6257 0.29406 0.0
H571 H 0.00667 0.54718 0.35136 0.0
H572 H 0.0141 0.58568 0.34186 0.0
H573 H 0.9807 0.56643 0.33075 0.0
H574 H 0.97594 0.60085 0.29511 0.0
H575 H 0.96664 0.65481 0.30219 0.0
H576 H 0.12463 0.26295 0.31988 0.0
H577 H 0.16425 0.22851 0.30587 0.0
H578 H 0.16318 0.27016 0.2319 0.0
H579 H 0.12414 0.3061 0.24657 0.0
H580 H 0.15894 0.18744 0.26962 0.0
H581 H 0.2532 0.26589 0.24735 0.0
H582 H 0.21778 0.27888 0.2604 0.0
H583 H 0.22093 0.27148 0.22713 0.0
C584 C 0.13348 0.26537 0.30085 0.0
C585 C 0.12226 0.2878 0.28454 0.0
C586 C 0.15588 0.24547 0.29278 0.0
C587 C 0.16701 0.247 0.26796 0.0
C588 C 0.15541 0.26906 0.25133 0.0
H589 H 0.25245 0.10489 0.18588 0.0
H590 H 0.22004 0.14423 0.20373 0.0
C591 C 0.13305 0.28937 0.25959 0.0
C592 C 0.1891 0.22389 0.25943 0.0
H593 H 0.26043 0.21376 0.23601 0.0
C594 C 0.18112 0.19327 0.26221 0.0
C595 C 0.2181 0.23145 0.24988 0.0
C596 C 0.22814 0.26374 0.2462 0.0
C597 C 0.20112 0.17007 0.25534 0.0
C598 C 0.22983 0.17769 0.24545 0.0
C599 C 0.23823 0.20815 0.24331 0.0
C600 C 0.25012 0.15435 0.23496 0.0
C601 C 0.19141 0.13754 0.25865 0.0
C602 C 0.27797 0.14742 0.24651 0.0
C603 C 0.29663 0.12485 0.23626 0.0
C604 C 0.28782 0.1098 0.21407 0.0
C605 C 0.25991 0.11673 0.20274 0.0
C606 C 0.24131 0.13896 0.21299 0.0
H607 H 0.17223 0.13542 0.27217 0.0
H608 H 0.18392 0.12841 0.24009 0.0
H609 H 0.21056 0.12341 0.26549 0.0
H610 H 0.28505 0.15924 0.26349 0.0
H611 H 0.31799 0.11949 0.24534 0.0
H612 H 0.97108 0.31431 0.76095 0.0
H613 H 0.93279 0.28073 0.78038 0.0
H614 H 0.93402 0.22441 0.71362 0.0
H615 H 0.97184 0.25758 0.69439 0.0
H616 H 0.8725 0.26313 0.75531 0.0
H617 H 0.94971 0.16733 0.77713 0.0
H618 H 0.96288 0.20586 0.77353 0.0
H619 H 0.95404 0.18353 0.74608 0.0
C620 C 0.96306 0.29469 0.75062 0.0
C621 C 0.97362 0.2887 0.72608 0.0
C622 C 0.94133 0.27567 0.76162 0.0
C623 C 0.93086 0.25017 0.74837 0.0
C624 C 0.94204 0.24391 0.72413 0.0
H625 H 0.77831 0.12744 0.75534 0.0
H626 H 0.81383 0.16838 0.74404 0.0
C627 C 0.9634 0.26293 0.71314 0.0
C628 C 0.9078 0.22993 0.75927 0.0
H629 H 0.89688 0.15684 0.77766 0.0
C630 C 0.87769 0.2399 0.76021 0.0
C631 C 0.91495 0.19987 0.76605 0.0
C632 C 0.94718 0.18845 0.76588 0.0
C633 C 0.85413 0.21999 0.76657 0.0
C634 C 0.86115 0.18963 0.77273 0.0
C635 C 0.89152 0.18009 0.77278 0.0
C636 C 0.83771 0.16729 0.77989 0.0
C637 C 0.82203 0.23158 0.76622 0.0
C638 C 0.83967 0.15308 0.80355 0.0
C639 C 0.81987 0.12974 0.80976 0.0
C640 C 0.79732 0.12053 0.79267 0.0
C641 C 0.79519 0.13468 0.76896 0.0
C642 C 0.81524 0.15811 0.76263 0.0
H643 H 0.8115 0.22583 0.74774 0.0
H644 H 0.80844 0.22086 0.78133 0.0
H645 H 0.82112 0.25656 0.76857 0.0
H646 H 0.85701 0.1596 0.81703 0.0
H647 H 0.82265 0.1184 0.82781 0.0
H648 H 0.95629 0.76836 0.24771 0.0
H649 H 0.91454 0.80162 0.23444 0.0
H650 H 0.93955 0.86551 0.29289 0.0
H651 H 0.97854 0.83083 0.30764 0.0
H652 H 0.8847 0.86318 0.29352 0.0
H653 H 0.9143 0.87316 0.19201 0.0
H654 H 0.90603 0.83483 0.20057 0.0
H655 H 0.93844 0.85376 0.21417 0.0
C656 C 0.95259 0.78954 0.25757 0.0
C657 C 0.96999 0.79701 0.27885 0.0
C658 C 0.92906 0.80876 0.24983 0.0
C659 C 0.924 0.83649 0.26235 0.0
C660 C 0.94255 0.84423 0.28299 0.0
H661 H 0.83339 0.98958 0.19951 0.0
H662 H 0.86732 0.94965 0.21366 0.0
C663 C 0.965 0.82454 0.29133 0.0
C664 C 0.89912 0.85742 0.25483 0.0
H665 H 0.86859 0.89561 0.20493 0.0
C666 C 0.88104 0.87002 0.27409 0.0
C667 C 0.89462 0.86704 0.22954 0.0
C668 C 0.91459 0.85674 0.20796 0.0
C669 C 0.85948 0.89253 0.26907 0.0
C670 C 0.85454 0.90169 0.24372 0.0
C671 C 0.87189 0.88834 0.22434 0.0
C672 C 0.83372 0.92688 0.23686 0.0
C673 C 0.84379 0.90735 0.29127 0.0
C674 C 0.80359 0.92819 0.24569 0.0
C675 C 0.78455 0.95212 0.23853 0.0
C676 C 0.79496 0.97387 0.22132 0.0
C677 C 0.82491 0.9727 0.21263 0.0
C678 C 0.8442 0.94972 0.22056 0.0
H679 H 0.85687 0.90442 0.3091 0.0
H680 H 0.8405 0.93197 0.28805 0.0
H681 H 0.82133 0.89661 0.29412 0.0
H682 H 0.79452 0.91044 0.25759 0.0
H683 H 0.76145 0.95284 0.24542 0.0
H684 H 0.11828 0.82358 0.67762 0.0
H685 H 0.15832 0.85844 0.68994 0.0
H686 H 0.16465 0.81463 0.76284 0.0
H687 H 0.12502 0.77839 0.74987 0.0
H688 H 0.15425 0.89807 0.72849 0.0
H689 H 0.22244 0.81407 0.76245 0.0
H690 H 0.25336 0.82222 0.74137 0.0
H691 H 0.21765 0.80894 0.72903 0.0
C692 C 0.12885 0.82076 0.696 0.0
C693 C 0.11944 0.79773 0.71251 0.0
C694 C 0.1515 0.84089 0.70311 0.0
C695 C 0.16472 0.83892 0.72717 0.0
C696 C 0.15516 0.8161 0.74397 0.0
H697 H 0.25837 0.97938 0.80619 0.0
H698 H 0.22415 0.93998 0.7908 0.0
C699 C 0.1325 0.79562 0.73668 0.0
C700 C 0.18676 0.86241 0.73491 0.0
H701 H 0.26014 0.87413 0.75277 0.0
C702 C 0.1774 0.89279 0.73386 0.0
C703 C 0.21695 0.85549 0.74185 0.0
C704 C 0.22834 0.82341 0.74357 0.0
C705 C 0.19733 0.9164 0.73978 0.0
C706 C 0.22736 0.90942 0.74684 0.0
C707 C 0.23698 0.87921 0.74748 0.0
C708 C 0.24827 0.93315 0.75561 0.0
C709 C 0.18622 0.94869 0.73847 0.0
C710 C 0.27314 0.94215 0.74081 0.0
C711 C 0.29274 0.96478 0.74958 0.0
C712 C 0.28798 0.97778 0.77347 0.0
C713 C 0.2628 0.96905 0.78795 0.0
C714 C 0.24319 0.94677 0.77915 0.0
H715 H 0.1646 0.95061 0.72779 0.0
H716 H 0.18236 0.95723 0.75798 0.0
H717 H 0.20345 0.96345 0.72939 0.0
H718 H 0.27723 0.93178 0.72254 0.0
H719 H 0.31187 0.97161 0.73807 0.0
H720 H 0.79091 0.95089 0.79301 0.0
H721 H 0.82715 0.91565 0.77414 0.0
H722 H 0.89887 0.98074 0.78511 0.0
H723 H 0.86286 0.01572 0.80477 0.0
H724 H 0.85823 0.9239 0.73151 0.0
H725 H 0.9396 0.90521 0.81 0.0
H726 H 0.90326 0.92303 0.81482 0.0
H727 H 0.93463 0.9445 0.80247 0.0
C728 C 0.81453 0.95745 0.79189 0.0
C729 C 0.82406 0.98603 0.80048 0.0
C730 C 0.83521 0.93733 0.781 0.0
C731 C 0.86584 0.94537 0.77835 0.0
C732 C 0.87555 0.97367 0.78745 0.0
H733 H 0.01604 0.86222 0.69645 0.0
H734 H 0.98073 0.89836 0.71579 0.0
C735 C 0.8549 0.99371 0.79864 0.0
C736 C 0.88697 0.92497 0.76454 0.0
H737 H 0.95452 0.88743 0.76925 0.0
C738 C 0.8792 0.91582 0.73986 0.0
C739 C 0.9144 0.91444 0.77536 0.0
C740 C 0.92336 0.92204 0.8022 0.0
C741 C 0.89812 0.89665 0.72572 0.0
C742 C 0.92554 0.88638 0.73648 0.0
C743 C 0.93352 0.8956 0.76102 0.0
C744 C 0.94578 0.86512 0.72291 0.0
C745 C 0.88889 0.88758 0.69928 0.0
C746 C 0.93755 0.83462 0.72024 0.0
C747 C 0.95768 0.81391 0.70934 0.0
C748 C 0.98633 0.82341 0.7008 0.0
C749 C 0.99405 0.85424 0.70267 0.0
C750 C 0.97401 0.87488 0.71382 0.0
H751 H 0.86945 0.90116 0.6922 0.0
H752 H 0.90824 0.89026 0.68601 0.0
H753 H 0.88225 0.86334 0.69922 0.0
H754 H 0.91591 0.82666 0.72729 0.0
H755 H 0.9511 0.79032 0.70825 0.0
H756 H 0.22471 0.0034 0.19271 0.0
H757 H 0.1917 0.96676 0.21366 0.0
H758 H 0.26798 0.90726 0.22527 0.0
H759 H 0.3014 0.94424 0.20488 0.0
H760 H 0.17708 0.90835 0.20419 0.0
H761 H 0.23629 0.91666 0.29677 0.0
H762 H 0.24356 0.94256 0.27106 0.0
H763 H 0.26036 0.90544 0.27103 0.0
C764 C 0.23446 0.98239 0.19948 0.0
C765 C 0.26574 0.97684 0.1973 0.0
C766 C 0.21554 0.96148 0.21151 0.0
C767 C 0.22747 0.93459 0.2216 0.0
C768 C 0.25842 0.92824 0.21828 0.0
H769 H 0.13573 0.7817 0.29193 0.0
H770 H 0.17327 0.81552 0.2727 0.0
C771 C 0.27744 0.94926 0.20638 0.0
C772 C 0.20744 0.91357 0.23585 0.0
H773 H 0.19697 0.88021 0.2937 0.0
C774 C 0.18145 0.90224 0.22375 0.0
C775 C 0.21305 0.90573 0.26147 0.0
C776 C 0.23965 0.91843 0.27597 0.0
C777 C 0.16107 0.88318 0.23651 0.0
C778 C 0.16678 0.8753 0.262 0.0
C779 C 0.1928 0.88633 0.27411 0.0
C780 C 0.14563 0.85571 0.27627 0.0
C781 C 0.13352 0.87143 0.22272 0.0
C782 C 0.11814 0.86741 0.28532 0.0
C783 C 0.09674 0.84823 0.2965 0.0
C784 C 0.10245 0.817 0.29863 0.0
C785 C 0.13064 0.80564 0.29056 0.0
C786 C 0.1521 0.82488 0.27955 0.0
H787 H 0.13409 0.87687 0.20218 0.0
H788 H 0.13174 0.8465 0.22504 0.0
H789 H 0.11282 0.88168 0.23105 0.0
H790 H 0.11286 0.89121 0.28301 0.0
H791 H 0.07522 0.85768 0.30244 0.0
H792 H 0.13746 0.30567 0.70155 0.0
H793 H 0.17676 0.27211 0.71839 0.0
H794 H 0.11576 0.19617 0.71193 0.0
H795 H 0.07678 0.22934 0.69443 0.0
H796 H 0.17376 0.2413 0.76185 0.0
H797 H 0.19176 0.15983 0.68369 0.0
H798 H 0.17152 0.19495 0.67928 0.0
H799 H 0.15259 0.16241 0.69243 0.0
C800 C 0.13269 0.28169 0.70312 0.0
C801 C 0.10403 0.27015 0.69656 0.0
C802 C 0.15513 0.26255 0.71287 0.0
C803 C 0.14937 0.23153 0.71624 0.0
C804 C 0.12107 0.21984 0.70896 0.0
H805 H 0.23023 0.08395 0.79901 0.0
H806 H 0.19623 0.12119 0.77967 0.0
C807 C 0.09872 0.2389 0.69902 0.0
C808 C 0.17191 0.21192 0.72928 0.0
H809 H 0.2099 0.1447 0.72465 0.0
C810 C 0.18194 0.22038 0.75356 0.0
C811 C 0.18263 0.18458 0.71849 0.0
C812 C 0.17431 0.17506 0.69193 0.0
C813 C 0.20167 0.20184 0.76757 0.0
C814 C 0.21153 0.17417 0.75707 0.0
C815 C 0.20198 0.16587 0.7327 0.0
C816 C 0.23174 0.15333 0.77111 0.0
C817 C 0.21139 0.21147 0.79374 0.0
C818 C 0.26283 0.15945 0.77309 0.0
C819 C 0.28237 0.13818 0.78405 0.0
C820 C 0.27106 0.11049 0.79326 0.0
C821 C 0.23966 0.1051 0.79224 0.0
C822 C 0.2202 0.12627 0.78109 0.0
H823 H 0.19944 0.23223 0.80018 0.0
H824 H 0.20701 0.19296 0.80751 0.0
H825 H 0.23614 0.21596 0.79379 0.0
H826 H 0.27212 0.1802 0.76537 0.0
H827 H 0.30644 0.14297 0.78449 0.0
H828 H 0.95389 0.29959 0.30227 0.0
H829 H 0.91544 0.26476 0.28612 0.0
H830 H 0.97947 0.19111 0.29071 0.0
H831 H 0.01776 0.22571 0.30761 0.0
H832 H 0.91837 0.23502 0.24245 0.0
H833 H 0.90557 0.1514 0.31987 0.0
H834 H 0.92479 0.18708 0.3243 0.0
H835 H 0.94423 0.15558 0.30999 0.0
C836 C 0.95957 0.27583 0.3004 0.0
C837 C 0.98885 0.26537 0.30628 0.0
C838 C 0.93759 0.25596 0.29108 0.0
C839 C 0.94441 0.22522 0.28734 0.0
C840 C 0.97337 0.21454 0.29395 0.0
H841 H 0.86066 0.07717 0.20643 0.0
H842 H 0.8951 0.1129 0.22703 0.0
C843 C 0.99531 0.23438 0.30356 0.0
C844 C 0.92211 0.20509 0.27456 0.0
H845 H 0.88514 0.13733 0.27954 0.0
C846 C 0.91087 0.21382 0.25072 0.0
C847 C 0.91232 0.17737 0.28528 0.0
C848 C 0.92211 0.16743 0.31138 0.0
C849 C 0.8907 0.19535 0.23712 0.0
C850 C 0.88147 0.16745 0.24763 0.0
C851 C 0.89244 0.15873 0.2715 0.0
C852 C 0.86069 0.14674 0.23398 0.0
C853 C 0.8799 0.2054 0.21134 0.0
C854 C 0.82997 0.15413 0.23086 0.0
C855 C 0.81014 0.13371 0.21913 0.0
C856 C 0.82077 0.10561 0.21027 0.0
C857 C 0.85175 0.09867 0.2129 0.0
C858 C 0.87146 0.11898 0.22478 0.0
H859 H 0.89279 0.22524 0.20418 0.0
H860 H 0.88199 0.18659 0.19748 0.0
H861 H 0.85559 0.21173 0.21248 0.0
H862 H 0.82121 0.17539 0.23802 0.0
H863 H 0.7864 0.13966 0.21751 0.0
loop_
_geom_bond_atom_site_label_1
_geom_bond_atom_site_label_2
_geom_bond_distance
_geom_bond_site_symmetry_2
_ccdc_geom_bond_type
Mn0 O5 2.095 . S
Mn0 O15 2.162 . S
Mn0 O16 2.297 . S
Mn0 O24 2.385 . S
Mn0 O25 2.209 . S
Mn0 O26 2.094 . S
Mn1 O6 2.121 . S
Mn1 N8 2.257 . S
Mn1 N17 2.282 . S
Mn1 O25 2.215 . S
Mn1 O27 2.117 . S
C2 O24 1.234 . S
C2 O25 1.283 . S
C3 O15 1.281 . S
C3 O16 1.236 . S
C4 O26 1.240 . S
C4 O27 1.264 . S
O5 Mn0 2.095 . S
O5 C14 1.250 . S
O6 Mn1 2.121 . S
O6 C14 1.258 . S
C7 N8 1.326 . S
C7 C11 1.460 . S
C7 H13 0.929 . S
N8 Mn1 2.257 . S
N8 C7 1.326 . S
N8 C12 1.362 . S
C9 C10 1.258 . S
C9 C12 1.431 . S
C9 C29 1.449 . S
C10 C9 1.258 . S
C10 C11 1.477 . S
C10 H30 0.931 . S
C11 C7 1.460 . S
C11 C10 1.477 . S
C11 H31 0.930 . S
C12 N8 1.362 . S
C12 C9 1.431 . S
C12 C22 1.476 . S
H13 C7 0.929 . S
C14 O5 1.250 . S
C14 O6 1.258 . S
O15 Mn0 2.162 . S
O15 C3 1.281 . S
O16 Mn0 2.297 . S
O16 C3 1.236 . S
N17 Mn1 2.282 . S
N17 C18 1.328 . S
N17 C22 1.318 . S
C18 N17 1.328 . S
C18 C19 1.457 . S
C18 H23 0.929 . S
C19 C18 1.457 . S
C19 C20 1.291 . S
C19 H32 0.931 . S
C20 C19 1.291 . S
C20 C21 1.373 . S
C20 H33 0.929 . S
C21 C20 1.373 . S
C21 C22 1.396 . S
C21 C28 1.403 . S
C22 C12 1.476 . S
C22 N17 1.318 . S
C22 C21 1.396 . S
H23 C18 0.929 . S
O24 Mn0 2.385 . S
O24 C2 1.234 . S
O25 Mn0 2.209 . S
O25 Mn1 2.215 . S
O25 C2 1.283 . S
O26 Mn0 2.094 . S
O26 C4 1.240 . S
O27 Mn1 2.117 . S
O27 C4 1.264 . S
C28 C21 1.403 . S
C28 C29 1.399 . S
C28 H34 0.929 . S
C29 C9 1.449 . S
C29 C28 1.399 . S
C29 H35 0.930 . S
H30 C10 0.931 . S
H31 C11 0.930 . S
H32 C19 0.931 . S
H33 C20 0.929 . S
H34 C28 0.929 . S
H35 C29 0.930 . S
Mn36 O41 2.095 . S
Mn36 O51 2.162 . S
Mn36 O52 2.297 . S
Mn36 O60 2.385 . S
Mn36 O61 2.209 1_455 S
Mn36 O62 2.094 . S
Mn37 O42 2.121 1_655 S
Mn37 N44 2.257 . S
Mn37 N53 2.282 . S
Mn37 O61 2.215 . S
Mn37 O63 2.117 . S
C38 O60 1.234 1_655 S
C38 O61 1.283 . S
C39 O51 1.281 . S
C39 O52 1.236 . S
C40 O62 1.240 . S
C40 O63 1.264 1_455 S
O41 Mn36 2.095 . S
O41 C50 1.250 . S
O42 Mn37 2.121 1_455 S
O42 C50 1.258 . S
C43 N44 1.326 . S
C43 C47 1.460 . S
C43 H49 0.929 . S
N44 Mn37 2.257 . S
N44 C43 1.326 . S
N44 C48 1.362 . S
C45 C46 1.258 . S
C45 C48 1.431 . S
C45 C65 1.449 . S
C46 C45 1.258 . S
C46 C47 1.477 . S
C46 H66 0.931 . S
C47 C43 1.460 . S
C47 C46 1.477 . S
C47 H67 0.930 . S
C48 N44 1.362 . S
C48 C45 1.431 . S
C48 C58 1.476 . S
H49 C43 0.929 . S
C50 O41 1.250 . S
C50 O42 1.258 . S
O51 Mn36 2.162 . S
O51 C39 1.281 . S
O52 Mn36 2.297 . S
O52 C39 1.236 . S
N53 Mn37 2.282 . S
N53 C54 1.328 . S
N53 C58 1.318 . S
C54 N53 1.328 . S
C54 C55 1.457 . S
C54 H59 0.929 . S
C55 C54 1.457 . S
C55 C56 1.291 . S
C55 H68 0.931 . S
C56 C55 1.291 . S
C56 C57 1.373 . S
C56 H69 0.929 . S
C57 C56 1.373 . S
C57 C58 1.396 . S
C57 C64 1.403 . S
C58 C48 1.476 . S
C58 N53 1.318 . S
C58 C57 1.396 . S
H59 C54 0.929 . S
O60 Mn36 2.385 . S
O60 C38 1.234 1_455 S
O61 Mn36 2.209 1_655 S
O61 Mn37 2.215 . S
O61 C38 1.283 . S
O62 Mn36 2.094 . S
O62 C40 1.240 . S
O63 Mn37 2.117 . S
O63 C40 1.264 1_655 S
C64 C57 1.403 . S
C64 C65 1.399 . S
C64 H70 0.929 . S
C65 C45 1.449 . S
C65 C64 1.399 . S
C65 H71 0.930 . S
H66 C46 0.931 . S
H67 C47 0.930 . S
H68 C55 0.931 . S
H69 C56 0.929 . S
H70 C64 0.929 . S
H71 C65 0.930 . S
Mn72 O77 2.095 . S
Mn72 O87 2.162 . S
Mn72 O88 2.297 . S
Mn72 O96 2.385 . S
Mn72 O97 2.209 1_545 S
Mn72 O98 2.094 . S
Mn73 O78 2.121 1_565 S
Mn73 N80 2.257 . S
Mn73 N89 2.282 . S
Mn73 O97 2.215 . S
Mn73 O99 2.117 . S
C74 O96 1.234 1_565 S
C74 O97 1.283 . S
C75 O87 1.281 . S
C75 O88 1.236 . S
C76 O98 1.240 . S
C76 O99 1.264 1_545 S
O77 Mn72 2.095 . S
O77 C86 1.250 . S
O78 Mn73 2.121 1_545 S
O78 C86 1.258 . S
C79 N80 1.326 . S
C79 C83 1.460 . S
C79 H85 0.929 . S
N80 Mn73 2.257 . S
N80 C79 1.326 . S
N80 C84 1.362 . S
C81 C82 1.258 . S
C81 C84 1.431 . S
C81 C101 1.449 . S
C82 C81 1.258 . S
C82 C83 1.477 . S
C82 H102 0.931 . S
C83 C79 1.460 . S
C83 C82 1.477 . S
C83 H103 0.930 . S
C84 N80 1.362 . S
C84 C81 1.431 . S
C84 C94 1.476 . S
H85 C79 0.929 . S
C86 O77 1.250 . S
C86 O78 1.258 . S
O87 Mn72 2.162 . S
O87 C75 1.281 . S
O88 Mn72 2.297 . S
O88 C75 1.236 . S
N89 Mn73 2.282 . S
N89 C90 1.328 . S
N89 C94 1.318 . S
C90 N89 1.328 . S
C90 C91 1.457 . S
C90 H95 0.929 . S
C91 C90 1.457 . S
C91 C92 1.291 . S
C91 H104 0.931 . S
C92 C91 1.291 . S
C92 C93 1.373 . S
C92 H105 0.929 . S
C93 C92 1.373 . S
C93 C94 1.396 . S
C93 C100 1.403 . S
C94 C84 1.476 . S
C94 N89 1.318 . S
C94 C93 1.396 . S
H95 C90 0.929 . S
O96 Mn72 2.385 . S
O96 C74 1.234 1_545 S
O97 Mn72 2.209 1_565 S
O97 Mn73 2.215 . S
O97 C74 1.283 . S
O98 Mn72 2.094 . S
O98 C76 1.240 . S
O99 Mn73 2.117 . S
O99 C76 1.264 1_565 S
C100 C93 1.403 . S
C100 C101 1.399 . S
C100 H106 0.929 . S
C101 C81 1.449 . S
C101 C100 1.399 . S
C101 H107 0.930 . S
H102 C82 0.931 . S
H103 C83 0.930 . S
H104 C91 0.931 . S
H105 C92 0.929 . S
H106 C100 0.929 . S
H107 C101 0.930 . S
Mn108 O113 2.095 . S
Mn108 O123 2.162 . S
Mn108 O124 2.297 . S
Mn108 O132 2.385 . S
Mn108 O133 2.209 . S
Mn108 O134 2.094 . S
Mn109 O114 2.121 . S
Mn109 N116 2.257 . S
Mn109 N125 2.282 . S
Mn109 O133 2.215 . S
Mn109 O135 2.117 . S
C110 O132 1.234 . S
C110 O133 1.283 . S
C111 O123 1.281 . S
C111 O124 1.236 . S
C112 O134 1.240 . S
C112 O135 1.264 . S
O113 Mn108 2.095 . S
O113 C122 1.250 . S
O114 Mn109 2.121 . S
O114 C122 1.258 . S
C115 N116 1.326 . S
C115 C119 1.460 . S
C115 H121 0.929 . S
N116 Mn109 2.257 . S
N116 C115 1.326 . S
N116 C120 1.362 . S
C117 C118 1.258 . S
C117 C120 1.431 . S
C117 C137 1.449 . S
C118 C117 1.258 . S
C118 C119 1.477 . S
C118 H138 0.931 . S
C119 C115 1.460 . S
C119 C118 1.477 . S
C119 H139 0.930 . S
C120 N116 1.362 . S
C120 C117 1.431 . S
C120 C130 1.476 . S
H121 C115 0.929 . S
C122 O113 1.250 . S
C122 O114 1.258 . S
O123 Mn108 2.162 . S
O123 C111 1.281 . S
O124 Mn108 2.297 . S
O124 C111 1.236 . S
N125 Mn109 2.282 . S
N125 C126 1.328 . S
N125 C130 1.318 . S
C126 N125 1.328 . S
C126 C127 1.457 . S
C126 H131 0.929 . S
C127 C126 1.457 . S
C127 C128 1.291 . S
C127 H140 0.931 . S
C128 C127 1.291 . S
C128 C129 1.373 . S
C128 H141 0.929 . S
C129 C128 1.373 . S
C129 C130 1.396 . S
C129 C136 1.403 . S
C130 C120 1.476 . S
C130 N125 1.318 . S
C130 C129 1.396 . S
H131 C126 0.929 . S
O132 Mn108 2.385 . S
O132 C110 1.234 . S
O133 Mn108 2.209 . S
O133 Mn109 2.215 . S
O133 C110 1.283 . S
O134 Mn108 2.094 . S
O134 C112 1.240 . S
O135 Mn109 2.117 . S
O135 C112 1.264 . S
C136 C129 1.403 . S
C136 C137 1.399 . S
C136 H142 0.929 . S
C137 C117 1.449 . S
C137 C136 1.399 . S
C137 H143 0.930 . S
H138 C118 0.931 . S
H139 C119 0.930 . S
H140 C127 0.931 . S
H141 C128 0.929 . S
H142 C136 0.929 . S
H143 C137 0.930 . S
Mn144 O149 2.095 . S
Mn144 O159 2.162 . S
Mn144 O160 2.297 . S
Mn144 O168 2.385 . S
Mn144 O169 2.209 1_545 S
Mn144 O170 2.094 . S
Mn145 O150 2.121 1_565 S
Mn145 N152 2.257 . S
Mn145 N161 2.282 . S
Mn145 O169 2.215 . S
Mn145 O171 2.117 . S
C146 O168 1.234 1_565 S
C146 O169 1.283 . S
C147 O159 1.281 . S
C147 O160 1.236 . S
C148 O170 1.240 . S
C148 O171 1.264 1_545 S
O149 Mn144 2.095 . S
O149 C158 1.250 . S
O150 Mn145 2.121 1_545 S
O150 C158 1.258 . S
C151 N152 1.326 . S
C151 C155 1.460 . S
C151 H157 0.929 . S
N152 Mn145 2.257 . S
N152 C151 1.326 . S
N152 C156 1.362 . S
C153 C154 1.258 . S
C153 C156 1.431 . S
C153 C173 1.449 . S
C154 C153 1.258 . S
C154 C155 1.477 . S
C154 H174 0.931 . S
C155 C151 1.460 . S
C155 C154 1.477 . S
C155 H175 0.930 . S
C156 N152 1.362 . S
C156 C153 1.431 . S
C156 C166 1.476 . S
H157 C151 0.929 . S
C158 O149 1.250 . S
C158 O150 1.258 . S
O159 Mn144 2.162 . S
O159 C147 1.281 . S
O160 Mn144 2.297 . S
O160 C147 1.236 . S
N161 Mn145 2.282 . S
N161 C162 1.328 . S
N161 C166 1.318 . S
C162 N161 1.328 . S
C162 C163 1.457 . S
C162 H167 0.929 . S
C163 C162 1.457 . S
C163 C164 1.291 . S
C163 H176 0.931 . S
C164 C163 1.291 . S
C164 C165 1.373 . S
C164 H177 0.929 . S
C165 C164 1.373 . S
C165 C166 1.396 . S
C165 C172 1.403 . S
C166 C156 1.476 . S
C166 N161 1.318 . S
C166 C165 1.396 . S
H167 C162 0.929 . S
O168 Mn144 2.385 . S
O168 C146 1.234 1_545 S
O169 Mn144 2.209 1_565 S
O169 Mn145 2.215 . S
O169 C146 1.283 . S
O170 Mn144 2.094 . S
O170 C148 1.240 . S
O171 Mn145 2.117 . S
O171 C148 1.264 1_565 S
C172 C165 1.403 . S
C172 C173 1.399 . S
C172 H178 0.929 . S
C173 C153 1.449 . S
C173 C172 1.399 . S
C173 H179 0.930 . S
H174 C154 0.931 . S
H175 C155 0.930 . S
H176 C163 0.931 . S
H177 C164 0.929 . S
H178 C172 0.929 . S
H179 C173 0.930 . S
Mn180 O185 2.095 . S
Mn180 O195 2.162 . S
Mn180 O196 2.297 . S
Mn180 O204 2.385 . S
Mn180 O205 2.209 . S
Mn180 O206 2.094 . S
Mn181 O186 2.121 . S
Mn181 N188 2.257 . S
Mn181 N197 2.282 . S
Mn181 O205 2.215 . S
Mn181 O207 2.117 . S
C182 O204 1.234 . S
C182 O205 1.283 . S
C183 O195 1.281 . S
C183 O196 1.236 . S
C184 O206 1.240 . S
C184 O207 1.264 . S
O185 Mn180 2.095 . S
O185 C194 1.250 . S
O186 Mn181 2.121 . S
O186 C194 1.258 . S
C187 N188 1.326 . S
C187 C191 1.460 . S
C187 H193 0.929 . S
N188 Mn181 2.257 . S
N188 C187 1.326 . S
N188 C192 1.362 . S
C189 C190 1.258 . S
C189 C192 1.431 . S
C189 C209 1.449 . S
C190 C189 1.258 . S
C190 C191 1.477 . S
C190 H210 0.931 . S
C191 C187 1.460 . S
C191 C190 1.477 . S
C191 H211 0.930 . S
C192 N188 1.362 . S
C192 C189 1.431 . S
C192 C202 1.476 . S
H193 C187 0.929 . S
C194 O185 1.250 . S
C194 O186 1.258 . S
O195 Mn180 2.162 . S
O195 C183 1.281 . S
O196 Mn180 2.297 . S
O196 C183 1.236 . S
N197 Mn181 2.282 . S
N197 C198 1.328 . S
N197 C202 1.318 . S
C198 N197 1.328 . S
C198 C199 1.457 . S
C198 H203 0.929 . S
C199 C198 1.457 . S
C199 C200 1.291 . S
C199 H212 0.931 . S
C200 C199 1.291 . S
C200 C201 1.373 . S
C200 H213 0.929 . S
C201 C200 1.373 . S
C201 C202 1.396 . S
C201 C208 1.403 . S
C202 C192 1.476 . S
C202 N197 1.318 . S
C202 C201 1.396 . S
H203 C198 0.929 . S
O204 Mn180 2.385 . S
O204 C182 1.234 . S
O205 Mn180 2.209 . S
O205 Mn181 2.215 . S
O205 C182 1.283 . S
O206 Mn180 2.094 . S
O206 C184 1.240 . S
O207 Mn181 2.117 . S
O207 C184 1.264 . S
C208 C201 1.403 . S
C208 C209 1.399 . S
C208 H214 0.929 . S
C209 C189 1.449 . S
C209 C208 1.399 . S
C209 H215 0.930 . S
H210 C190 0.931 . S
H211 C191 0.930 . S
H212 C199 0.931 . S
H213 C200 0.929 . S
H214 C208 0.929 . S
H215 C209 0.930 . S
Mn216 O221 2.095 . S
Mn216 O231 2.162 . S
Mn216 O232 2.297 . S
Mn216 O240 2.385 . S
Mn216 O241 2.209 . S
Mn216 O242 2.094 . S
Mn217 O222 2.121 . S
Mn217 N224 2.257 . S
Mn217 N233 2.282 . S
Mn217 O241 2.215 . S
Mn217 O243 2.117 . S
C218 O240 1.234 . S
C218 O241 1.283 . S
C219 O231 1.281 . S
C219 O232 1.236 . S
C220 O242 1.240 . S
C220 O243 1.264 . S
O221 Mn216 2.095 . S
O221 C230 1.250 . S
O222 Mn217 2.121 . S
O222 C230 1.258 . S
C223 N224 1.326 . S
C223 C227 1.460 . S
C223 H229 0.929 . S
N224 Mn217 2.257 . S
N224 C223 1.326 . S
N224 C228 1.362 . S
C225 C226 1.258 . S
C225 C228 1.431 . S
C225 C245 1.449 . S
C226 C225 1.258 . S
C226 C227 1.477 . S
C226 H246 0.931 . S
C227 C223 1.460 . S
C227 C226 1.477 . S
C227 H247 0.930 . S
C228 N224 1.362 . S
C228 C225 1.431 . S
C228 C238 1.476 . S
H229 C223 0.929 . S
C230 O221 1.250 . S
C230 O222 1.258 . S
O231 Mn216 2.162 . S
O231 C219 1.281 . S
O232 Mn216 2.297 . S
O232 C219 1.236 . S
N233 Mn217 2.282 . S
N233 C234 1.328 . S
N233 C238 1.318 . S
C234 N233 1.328 . S
C234 C235 1.457 . S
C234 H239 0.929 . S
C235 C234 1.457 . S
C235 C236 1.291 . S
C235 H248 0.931 . S
C236 C235 1.291 . S
C236 C237 1.373 . S
C236 H249 0.929 . S
C237 C236 1.373 . S
C237 C238 1.396 . S
C237 C244 1.403 . S
C238 C228 1.476 . S
C238 N233 1.318 . S
C238 C237 1.396 . S
H239 C234 0.929 . S
O240 Mn216 2.385 . S
O240 C218 1.234 . S
O241 Mn216 2.209 . S
O241 Mn217 2.215 . S
O241 C218 1.283 . S
O242 Mn216 2.094 . S
O242 C220 1.240 . S
O243 Mn217 2.117 . S
O243 C220 1.264 . S
C244 C237 1.403 . S
C244 C245 1.399 . S
C244 H250 0.929 . S
C245 C225 1.449 . S
C245 C244 1.399 . S
C245 H251 0.930 . S
H246 C226 0.931 . S
H247 C227 0.930 . S
H248 C235 0.931 . S
H249 C236 0.929 . S
H250 C244 0.929 . S
H251 C245 0.930 . S
Mn252 O257 2.095 . S
Mn252 O267 2.162 . S
Mn252 O268 2.297 . S
Mn252 O276 2.385 . S
Mn252 O277 2.209 1_455 S
Mn252 O278 2.094 . S
Mn253 O258 2.121 1_655 S
Mn253 N260 2.257 . S
Mn253 N269 2.282 . S
Mn253 O277 2.215 . S
Mn253 O279 2.117 . S
C254 O276 1.234 1_655 S
C254 O277 1.283 . S
C255 O267 1.281 . S
C255 O268 1.236 . S
C256 O278 1.240 . S
C256 O279 1.264 1_455 S
O257 Mn252 2.095 . S
O257 C266 1.250 . S
O258 Mn253 2.121 1_455 S
O258 C266 1.258 . S
C259 N260 1.326 . S
C259 C263 1.460 . S
C259 H265 0.929 . S
N260 Mn253 2.257 . S
N260 C259 1.326 . S
N260 C264 1.362 . S
C261 C262 1.258 . S
C261 C264 1.431 . S
C261 C281 1.449 . S
C262 C261 1.258 . S
C262 C263 1.477 . S
C262 H282 0.931 . S
C263 C259 1.460 . S
C263 C262 1.477 . S
C263 H283 0.930 . S
C264 N260 1.362 . S
C264 C261 1.431 . S
C264 C274 1.476 . S
H265 C259 0.929 . S
C266 O257 1.250 . S
C266 O258 1.258 . S
O267 Mn252 2.162 . S
O267 C255 1.281 . S
O268 Mn252 2.297 . S
O268 C255 1.236 . S
N269 Mn253 2.282 . S
N269 C270 1.328 . S
N269 C274 1.318 . S
C270 N269 1.328 . S
C270 C271 1.457 . S
C270 H275 0.929 . S
C271 C270 1.457 . S
C271 C272 1.291 . S
C271 H284 0.931 . S
C272 C271 1.291 . S
C272 C273 1.373 . S
C272 H285 0.929 . S
C273 C272 1.373 . S
C273 C274 1.396 . S
C273 C280 1.403 . S
C274 C264 1.476 . S
C274 N269 1.318 . S
C274 C273 1.396 . S
H275 C270 0.929 . S
O276 Mn252 2.385 . S
O276 C254 1.234 1_455 S
O277 Mn252 2.209 1_655 S
O277 Mn253 2.215 . S
O277 C254 1.283 . S
O278 Mn252 2.094 . S
O278 C256 1.240 . S
O279 Mn253 2.117 . S
O279 C256 1.264 1_655 S
C280 C273 1.403 . S
C280 C281 1.399 . S
C280 H286 0.929 . S
C281 C261 1.449 . S
C281 C280 1.399 . S
C281 H287 0.930 . S
H282 C262 0.931 . S
H283 C263 0.930 . S
H284 C271 0.931 . S
H285 C272 0.929 . S
H286 C280 0.929 . S
H287 C281 0.930 . S
H288 C296 0.929 . S
H289 C298 0.930 . S
H290 C300 0.930 . S
H291 C303 0.929 . S
H292 C306 0.930 . S
H293 C308 0.960 . S
H294 C308 0.960 . S
H295 C308 0.960 . S
C296 H288 0.929 . S
C296 C297 1.377 . S
C296 C298 1.384 . S
C297 C296 1.377 . S
C297 C303 1.390 . S
C298 H289 0.930 . S
C298 C296 1.384 . S
C298 C299 1.372 . S
C299 C298 1.372 . S
C299 C300 1.400 . S
C299 C304 1.490 . S
C300 H290 0.930 . S
C300 C299 1.400 . S
C300 C303 1.386 . S
H301 C317 0.930 . S
H302 C318 0.931 . S
C303 H291 0.929 . S
C303 C297 1.390 . S
C303 C300 1.386 . S
C304 C299 1.490 . S
C304 C306 1.395 . S
C304 C307 1.403 . S
H305 C311 0.930 . S
C306 H292 0.930 . S
C306 C304 1.395 . S
C306 C309 1.403 1_554 S
C307 C304 1.403 . S
C307 C308 1.524 1_545 S
C307 C311 1.400 1_554 S
C308 H293 0.960 . S
C308 H294 0.960 . S
C308 H295 0.960 . S
C308 C307 1.524 1_565 S
C309 C306 1.403 1_556 S
C309 C310 1.392 . S
C309 C313 1.495 . S
C310 C309 1.392 . S
C310 C311 1.385 . S
C310 C312 1.478 . S
C311 H305 0.930 . S
C311 C307 1.400 1_556 S
C311 C310 1.385 . S
C312 C310 1.478 . S
C312 C314 1.381 . S
C312 C318 1.383 . S
C313 C309 1.495 . S
C313 H319 0.959 . S
C313 H320 0.961 . S
C313 H321 0.960 . S
C314 C312 1.381 . S
C314 C315 1.394 . S
C314 H322 0.930 . S
C315 C314 1.394 . S
C315 C316 1.383 . S
C315 H323 0.929 . S
C316 C315 1.383 . S
C316 C317 1.377 . S
C317 H301 0.930 . S
C317 C316 1.377 . S
C317 C318 1.379 . S
C318 H302 0.931 . S
C318 C312 1.383 . S
C318 C317 1.379 . S
H319 C313 0.959 . S
H320 C313 0.961 . S
H321 C313 0.960 . S
H322 C314 0.930 . S
H323 C315 0.929 . S
H324 C332 0.929 . S
H325 C334 0.930 . S
H326 C336 0.930 1_655 S
H327 C339 0.929 1_655 S
H328 C342 0.930 . S
H329 C344 0.960 . S
H330 C344 0.960 . S
H331 C344 0.960 . S
C332 H324 0.929 . S
C332 C333 1.377 . S
C332 C334 1.384 . S
C333 C332 1.377 . S
C333 C339 1.390 . S
C334 H325 0.930 . S
C334 C332 1.384 . S
C334 C335 1.372 . S
C335 C334 1.372 . S
C335 C336 1.400 . S
C335 C340 1.490 . S
C336 H326 0.930 1_455 S
C336 C335 1.400 . S
C336 C339 1.386 . S
H337 C353 0.930 . S
H338 C354 0.931 . S
C339 H327 0.929 1_455 S
C339 C333 1.390 . S
C339 C336 1.386 . S
C340 C335 1.490 . S
C340 C342 1.395 . S
C340 C343 1.403 . S
H341 C347 0.930 . S
C342 H328 0.930 . S
C342 C340 1.395 . S
C342 C345 1.403 . S
C343 C340 1.403 . S
C343 C344 1.524 . S
C343 C347 1.400 . S
C344 H329 0.960 . S
C344 H330 0.960 . S
C344 H331 0.960 . S
C344 C343 1.524 . S
C345 C342 1.403 . S
C345 C346 1.392 . S
C345 C349 1.495 . S
C346 C345 1.392 . S
C346 C347 1.385 . S
C346 C348 1.478 . S
C347 H341 0.930 . S
C347 C343 1.400 . S
C347 C346 1.385 . S
C348 C346 1.478 . S
C348 C350 1.381 . S
C348 C354 1.383 . S
C349 C345 1.495 . S
C349 H355 0.959 . S
C349 H356 0.961 . S
C349 H357 0.960 . S
C350 C348 1.381 . S
C350 C351 1.394 . S
C350 H358 0.930 . S
C351 C350 1.394 . S
C351 C352 1.383 . S
C351 H359 0.929 . S
C352 C351 1.383 . S
C352 C353 1.377 . S
C353 H337 0.930 . S
C353 C352 1.377 . S
C353 C354 1.379 . S
C354 H338 0.931 . S
C354 C348 1.383 . S
C354 C353 1.379 . S
H355 C349 0.959 . S
H356 C349 0.961 . S
H357 C349 0.960 . S
H358 C350 0.930 . S
H359 C351 0.929 . S
H360 C368 0.929 . S
H361 C370 0.930 . S
H362 C372 0.930 . S
H363 C375 0.929 . S
H364 C378 0.930 . S
H365 C380 0.960 . S
H366 C380 0.960 . S
H367 C380 0.960 . S
C368 H360 0.929 . S
C368 C369 1.377 . S
C368 C370 1.384 . S
C369 C368 1.377 . S
C369 C375 1.390 . S
C370 H361 0.930 . S
C370 C368 1.384 . S
C370 C371 1.372 . S
C371 C370 1.372 . S
C371 C372 1.400 . S
C371 C376 1.490 . S
C372 H362 0.930 . S
C372 C371 1.400 . S
C372 C375 1.386 . S
H373 C389 0.930 . S
H374 C390 0.931 . S
C375 H363 0.929 . S
C375 C369 1.390 . S
C375 C372 1.386 . S
C376 C371 1.490 . S
C376 C378 1.395 . S
C376 C379 1.403 . S
H377 C383 0.930 . S
C378 H364 0.930 . S
C378 C376 1.395 . S
C378 C381 1.403 1_556 S
C379 C376 1.403 . S
C379 C380 1.524 . S
C379 C383 1.400 1_556 S
C380 H365 0.960 . S
C380 H366 0.960 . S
C380 H367 0.960 . S
C380 C379 1.524 . S
C381 C378 1.403 1_554 S
C381 C382 1.392 . S
C381 C385 1.495 1_545 S
C382 C381 1.392 . S
C382 C383 1.385 . S
C382 C384 1.478 . S
C383 H377 0.930 . S
C383 C379 1.400 1_554 S
C383 C382 1.385 . S
C384 C382 1.478 . S
C384 C386 1.381 . S
C384 C390 1.383 . S
C385 C381 1.495 1_565 S
C385 H391 0.959 . S
C385 H392 0.961 . S
C385 H393 0.960 . S
C386 C384 1.381 . S
C386 C387 1.394 . S
C386 H394 0.930 . S
C387 C386 1.394 . S
C387 C388 1.383 . S
C387 H395 0.929 . S
C388 C387 1.383 . S
C388 C389 1.377 . S
C389 H373 0.930 . S
C389 C388 1.377 . S
C389 C390 1.379 . S
C390 H374 0.931 . S
C390 C384 1.383 . S
C390 C389 1.379 . S
H391 C385 0.959 . S
H392 C385 0.961 . S
H393 C385 0.960 . S
H394 C386 0.930 . S
H395 C387 0.929 . S
H396 C404 0.929 . S
H397 C406 0.930 . S
H398 C408 0.930 . S
H399 C411 0.929 . S
H400 C414 0.930 . S
H401 C416 0.960 . S
H402 C416 0.960 . S
H403 C416 0.960 . S
C404 H396 0.929 . S
C404 C405 1.377 . S
C404 C406 1.384 . S
C405 C404 1.377 . S
C405 C411 1.390 . S
C406 H397 0.930 . S
C406 C404 1.384 . S
C406 C407 1.372 . S
C407 C406 1.372 . S
C407 C408 1.400 . S
C407 C412 1.490 . S
C408 H398 0.930 . S
C408 C407 1.400 . S
C408 C411 1.386 . S
H409 C425 0.930 . S
H410 C426 0.931 . S
C411 H399 0.929 . S
C411 C405 1.390 . S
C411 C408 1.386 . S
C412 C407 1.490 . S
C412 C414 1.395 . S
C412 C415 1.403 . S
H413 C419 0.930 . S
C414 H400 0.930 . S
C414 C412 1.395 . S
C414 C417 1.403 . S
C415 C412 1.403 . S
C415 C416 1.524 . S
C415 C419 1.400 . S
C416 H401 0.960 . S
C416 H402 0.960 . S
C416 H403 0.960 . S
C416 C415 1.524 . S
C417 C414 1.403 . S
C417 C418 1.392 . S
C417 C421 1.495 . S
C418 C417 1.392 . S
C418 C419 1.385 . S
C418 C420 1.478 . S
C419 H413 0.930 . S
C419 C415 1.400 . S
C419 C418 1.385 . S
C420 C418 1.478 . S
C420 C422 1.381 . S
C420 C426 1.383 . S
C421 C417 1.495 . S
C421 H427 0.959 1_455 S
C421 H428 0.961 1_455 S
C421 H429 0.960 . S
C422 C420 1.381 . S
C422 C423 1.394 . S
C422 H430 0.930 . S
C423 C422 1.394 . S
C423 C424 1.383 . S
C423 H431 0.929 . S
C424 C423 1.383 . S
C424 C425 1.377 . S
C425 H409 0.930 . S
C425 C424 1.377 . S
C425 C426 1.379 . S
C426 H410 0.931 . S
C426 C420 1.383 . S
C426 C425 1.379 . S
H427 C421 0.959 1_655 S
H428 C421 0.961 1_655 S
H429 C421 0.960 . S
H430 C422 0.930 . S
H431 C423 0.929 . S
H432 C440 0.929 . S
H433 C442 0.930 . S
H434 C444 0.930 . S
H435 C447 0.929 . S
H436 C450 0.930 . S
H437 C452 0.960 . S
H438 C452 0.960 . S
H439 C452 0.960 . S
C440 H432 0.929 . S
C440 C441 1.377 . S
C440 C442 1.384 . S
C441 C440 1.377 . S
C441 C447 1.390 . S
C442 H433 0.930 . S
C442 C440 1.384 . S
C442 C443 1.372 . S
C443 C442 1.372 . S
C443 C444 1.400 . S
C443 C448 1.490 . S
C444 H434 0.930 . S
C444 C443 1.400 . S
C444 C447 1.386 . S
H445 C461 0.930 . S
H446 C462 0.931 . S
C447 H435 0.929 . S
C447 C441 1.390 . S
C447 C444 1.386 . S
C448 C443 1.490 . S
C448 C450 1.395 . S
C448 C451 1.403 . S
H449 C455 0.930 . S
C450 H436 0.930 . S
C450 C448 1.395 . S
C450 C453 1.403 . S
C451 C448 1.403 . S
C451 C452 1.524 . S
C451 C455 1.400 . S
C452 H437 0.960 . S
C452 H438 0.960 . S
C452 H439 0.960 . S
C452 C451 1.524 . S
C453 C450 1.403 . S
C453 C454 1.392 . S
C453 C457 1.495 . S
C454 C453 1.392 . S
C454 C455 1.385 . S
C454 C456 1.478 . S
C455 H449 0.930 . S
C455 C451 1.400 . S
C455 C454 1.385 . S
C456 C454 1.478 . S
C456 C458 1.381 . S
C456 C462 1.383 . S
C457 C453 1.495 . S
C457 H463 0.959 . S
C457 H464 0.961 . S
C457 H465 0.960 . S
C458 C456 1.381 . S
C458 C459 1.394 1_545 S
C458 H466 0.930 1_545 S
C459 C458 1.394 1_565 S
C459 C460 1.383 1_565 S
C459 H467 0.929 . S
C460 C459 1.383 1_545 S
C460 C461 1.377 . S
C461 H445 0.930 . S
C461 C460 1.377 . S
C461 C462 1.379 . S
C462 H446 0.931 . S
C462 C456 1.383 . S
C462 C461 1.379 . S
H463 C457 0.959 . S
H464 C457 0.961 . S
H465 C457 0.960 . S
H466 C458 0.930 1_565 S
H467 C459 0.929 . S
H468 C476 0.929 . S
H469 C478 0.930 1_655 S
H470 C480 0.930 . S
H471 C483 0.929 . S
H472 C486 0.930 . S
H473 C488 0.960 . S
H474 C488 0.960 . S
H475 C488 0.960 . S
C476 H468 0.929 . S
C476 C477 1.377 1_655 S
C476 C478 1.384 1_655 S
C477 C476 1.377 1_455 S
C477 C483 1.390 . S
C478 H469 0.930 1_455 S
C478 C476 1.384 1_455 S
C478 C479 1.372 . S
C479 C478 1.372 . S
C479 C480 1.400 . S
C479 C484 1.490 . S
C480 H470 0.930 . S
C480 C479 1.400 . S
C480 C483 1.386 . S
H481 C497 0.930 . S
H482 C498 0.931 . S
C483 H471 0.929 . S
C483 C477 1.390 . S
C483 C480 1.386 . S
C484 C479 1.490 . S
C484 C486 1.395 . S
C484 C487 1.403 . S
H485 C491 0.930 . S
C486 H472 0.930 . S
C486 C484 1.395 . S
C486 C489 1.403 . S
C487 C484 1.403 . S
C487 C488 1.524 . S
C487 C491 1.400 . S
C488 H473 0.960 . S
C488 H474 0.960 . S
C488 H475 0.960 . S
C488 C487 1.524 . S
C489 C486 1.403 . S
C489 C490 1.392 . S
C489 C493 1.495 . S
C490 C489 1.392 . S
C490 C491 1.385 . S
C490 C492 1.478 . S
C491 H485 0.930 . S
C491 C487 1.400 . S
C491 C490 1.385 . S
C492 C490 1.478 . S
C492 C494 1.381 . S
C492 C498 1.383 . S
C493 C489 1.495 . S
C493 H499 0.959 1_455 S
C493 H500 0.961 . S
C493 H501 0.960 1_455 S
C494 C492 1.381 . S
C494 C495 1.394 . S
C494 H502 0.930 . S
C495 C494 1.394 . S
C495 C496 1.383 . S
C495 H503 0.929 . S
C496 C495 1.383 . S
C496 C497 1.377 . S
C497 H481 0.930 . S
C497 C496 1.377 . S
C497 C498 1.379 . S
C498 H482 0.931 . S
C498 C492 1.383 . S
C498 C497 1.379 . S
H499 C493 0.959 1_655 S
H500 C493 0.961 . S
H501 C493 0.960 1_655 S
H502 C494 0.930 . S
H503 C495 0.929 . S
H504 C512 0.929 . S
H505 C514 0.930 . S
H506 C516 0.930 . S
H507 C519 0.929 . S
H508 C522 0.930 . S
H509 C524 0.960 . S
H510 C524 0.960 . S
H511 C524 0.960 . S
C512 H504 0.929 . S
C512 C513 1.377 . S
C512 C514 1.384 . S
C513 C512 1.377 . S
C513 C519 1.390 . S
C514 H505 0.930 . S
C514 C512 1.384 . S
C514 C515 1.372 . S
C515 C514 1.372 . S
C515 C516 1.400 . S
C515 C520 1.490 . S
C516 H506 0.930 . S
C516 C515 1.400 . S
C516 C519 1.386 . S
H517 C533 0.930 . S
H518 C534 0.931 . S
C519 H507 0.929 . S
C519 C513 1.390 . S
C519 C516 1.386 . S
C520 C515 1.490 . S
C520 C522 1.395 . S
C520 C523 1.403 . S
H521 C527 0.963 . S
C522 H508 0.930 . S
C522 C520 1.395 . S
C522 C525 1.403 . S
C523 C520 1.403 . S
C523 C524 1.524 1_545 S
C523 C527 1.400 . S
C524 H509 0.960 . S
C524 H510 0.960 . S
C524 H511 0.960 . S
C524 C523 1.524 1_565 S
C525 C522 1.403 . S
C525 C526 1.392 . S
C525 C529 1.495 . S
C526 C525 1.392 . S
C526 C527 1.385 . S
C526 C528 1.478 . S
C527 H521 0.963 . S
C527 C523 1.400 . S
C527 C526 1.385 . S
C528 C526 1.478 . S
C528 C530 1.381 . S
C528 C534 1.383 . S
C529 C525 1.495 . S
C529 H535 0.959 . S
C529 H536 0.961 . S
C529 H537 0.960 . S
C530 C528 1.381 . S
C530 C531 1.394 . S
C530 H538 0.930 . S
C531 C530 1.394 . S
C531 C532 1.383 . S
C531 H539 0.929 . S
C532 C531 1.383 . S
C532 C533 1.377 . S
C533 H517 0.930 . S
C533 C532 1.377 . S
C533 C534 1.379 . S
C534 H518 0.931 . S
C534 C528 1.383 . S
C534 C533 1.379 . S
H535 C529 0.959 . S
H536 C529 0.961 . S
H537 C529 0.960 . S
H538 C530 0.930 . S
H539 C531 0.929 . S
H540 C548 0.929 . S
H541 C550 0.930 . S
H542 C552 0.930 . S
H543 C555 0.929 . S
H544 C558 0.930 . S
H545 C560 0.960 . S
H546 C560 0.960 . S
H547 C560 0.960 . S
C548 H540 0.929 . S
C548 C549 1.377 . S
C548 C550 1.384 . S
C549 C548 1.377 . S
C549 C555 1.390 . S
C550 H541 0.930 . S
C550 C548 1.384 . S
C550 C551 1.372 . S
C551 C550 1.372 . S
C551 C552 1.400 . S
C551 C556 1.490 . S
C552 H542 0.930 . S
C552 C551 1.400 . S
C552 C555 1.386 . S
H553 C569 0.930 . S
H554 C570 0.931 . S
C555 H543 0.929 . S
C555 C549 1.390 . S
C555 C552 1.386 . S
C556 C551 1.490 . S
C556 C558 1.395 . S
C556 C559 1.403 . S
H557 C563 0.930 . S
C558 H544 0.930 . S
C558 C556 1.395 . S
C558 C561 1.403 . S
C559 C556 1.403 . S
C559 C560 1.524 . S
C559 C563 1.400 . S
C560 H545 0.960 . S
C560 H546 0.960 . S
C560 H547 0.960 . S
C560 C559 1.524 . S
C561 C558 1.403 . S
C561 C562 1.392 . S
C561 C565 1.495 1_455 S
C562 C561 1.392 . S
C562 C563 1.385 . S
C562 C564 1.478 . S
C563 H557 0.930 . S
C563 C559 1.400 . S
C563 C562 1.385 . S
C564 C562 1.478 . S
C564 C566 1.381 . S
C564 C570 1.383 . S
C565 C561 1.495 1_655 S
C565 H571 0.959 . S
C565 H572 0.961 . S
C565 H573 0.960 . S
C566 C564 1.381 . S
C566 C567 1.393 1_455 S
C566 H574 0.930 1_455 S
C567 C566 1.393 1_655 S
C567 C568 1.376 1_655 S
C567 H575 0.938 . S
C568 C567 1.376 1_455 S
C568 C569 1.377 . S
C569 H553 0.930 . S
C569 C568 1.377 . S
C569 C570 1.379 . S
C570 H554 0.931 . S
C570 C564 1.383 . S
C570 C569 1.379 . S
H571 C565 0.959 . S
H572 C565 0.961 . S
H573 C565 0.960 . S
H574 C566 0.930 1_655 S
H575 C567 0.938 . S
H576 C584 0.929 . S
H577 C586 0.930 . S
H578 C588 0.930 . S
H579 C591 0.929 . S
H580 C594 0.930 . S
H581 C596 0.960 . S
H582 C596 0.960 . S
H583 C596 0.960 . S
C584 H576 0.929 . S
C584 C585 1.377 . S
C584 C586 1.384 . S
C585 C584 1.377 . S
C585 C591 1.390 . S
C586 H577 0.930 . S
C586 C584 1.384 . S
C586 C587 1.372 . S
C587 C586 1.372 . S
C587 C588 1.400 . S
C587 C592 1.490 . S
C588 H578 0.930 . S
C588 C587 1.400 . S
C588 C591 1.386 . S
H589 C605 0.930 . S
H590 C606 0.931 . S
C591 H579 0.929 . S
C591 C585 1.390 . S
C591 C588 1.386 . S
C592 C587 1.490 . S
C592 C594 1.395 . S
C592 C595 1.403 . S
H593 C599 0.930 . S
C594 H580 0.930 . S
C594 C592 1.395 . S
C594 C597 1.403 . S
C595 C592 1.403 . S
C595 C596 1.524 . S
C595 C599 1.400 . S
C596 H581 0.960 . S
C596 H582 0.960 . S
C596 H583 0.960 . S
C596 C595 1.524 . S
C597 C594 1.403 . S
C597 C598 1.392 . S
C597 C601 1.495 . S
C598 C597 1.392 . S
C598 C599 1.385 . S
C598 C600 1.478 . S
C599 H593 0.930 . S
C599 C595 1.400 . S
C599 C598 1.385 . S
C600 C598 1.478 . S
C600 C602 1.381 . S
C600 C606 1.383 . S
C601 C597 1.495 . S
C601 H607 0.959 . S
C601 H608 0.961 . S
C601 H609 0.960 . S
C602 C600 1.381 . S
C602 C603 1.394 . S
C602 H610 0.930 . S
C603 C602 1.394 . S
C603 C604 1.383 . S
C603 H611 0.929 . S
C604 C603 1.383 . S
C604 C605 1.377 . S
C605 H589 0.930 . S
C605 C604 1.377 . S
C605 C606 1.379 . S
C606 H590 0.931 . S
C606 C600 1.383 . S
C606 C605 1.379 . S
H607 C601 0.959 . S
H608 C601 0.961 . S
H609 C601 0.960 . S
H610 C602 0.930 . S
H611 C603 0.929 . S
H612 C620 0.929 . S
H613 C622 0.930 . S
H614 C624 0.930 . S
H615 C627 0.929 . S
H616 C630 0.930 . S
H617 C632 0.960 . S
H618 C632 0.960 . S
H619 C632 0.960 . S
C620 H612 0.929 . S
C620 C621 1.377 . S
C620 C622 1.384 . S
C621 C620 1.377 . S
C621 C627 1.390 . S
C622 H613 0.930 . S
C622 C620 1.384 . S
C622 C623 1.372 . S
C623 C622 1.372 . S
C623 C624 1.400 . S
C623 C628 1.490 . S
C624 H614 0.930 . S
C624 C623 1.400 . S
C624 C627 1.386 . S
H625 C641 0.930 . S
H626 C642 0.931 . S
C627 H615 0.929 . S
C627 C621 1.390 . S
C627 C624 1.386 . S
C628 C623 1.490 . S
C628 C630 1.395 . S
C628 C631 1.403 . S
H629 C635 0.930 . S
C630 H616 0.930 . S
C630 C628 1.395 . S
C630 C633 1.403 . S
C631 C628 1.403 . S
C631 C632 1.524 . S
C631 C635 1.400 . S
C632 H617 0.960 . S
C632 H618 0.960 . S
C632 H619 0.960 . S
C632 C631 1.524 . S
C633 C630 1.403 . S
C633 C634 1.392 . S
C633 C637 1.495 . S
C634 C633 1.392 . S
C634 C635 1.385 . S
C634 C636 1.478 . S
C635 H629 0.930 . S
C635 C631 1.400 . S
C635 C634 1.385 . S
C636 C634 1.478 . S
C636 C638 1.381 . S
C636 C642 1.383 . S
C637 C633 1.495 . S
C637 H643 0.959 . S
C637 H644 0.961 . S
C637 H645 0.960 . S
C638 C636 1.381 . S
C638 C639 1.394 . S
C638 H646 0.930 . S
C639 C638 1.394 . S
C639 C640 1.383 . S
C639 H647 0.929 . S
C640 C639 1.383 . S
C640 C641 1.377 . S
C641 H625 0.930 . S
C641 C640 1.377 . S
C641 C642 1.379 . S
C642 H626 0.931 . S
C642 C636 1.383 . S
C642 C641 1.379 . S
H643 C637 0.959 . S
H644 C637 0.961 . S
H645 C637 0.960 . S
H646 C638 0.930 . S
H647 C639 0.929 . S
H648 C656 0.929 . S
H649 C658 0.930 . S
H650 C660 0.930 . S
H651 C663 0.929 . S
H652 C666 0.930 . S
H653 C668 0.960 . S
H654 C668 0.960 . S
H655 C668 0.960 . S
C656 H648 0.929 . S
C656 C657 1.377 . S
C656 C658 1.384 . S
C657 C656 1.377 . S
C657 C663 1.390 . S
C658 H649 0.930 . S
C658 C656 1.384 . S
C658 C659 1.372 . S
C659 C658 1.372 . S
C659 C660 1.400 . S
C659 C664 1.490 . S
C660 H650 0.930 . S
C660 C659 1.400 . S
C660 C663 1.386 . S
H661 C677 0.930 . S
H662 C678 0.931 . S
C663 H651 0.929 . S
C663 C657 1.390 . S
C663 C660 1.386 . S
C664 C659 1.490 . S
C664 C666 1.395 . S
C664 C667 1.403 . S
H665 C671 0.930 . S
C666 H652 0.930 . S
C666 C664 1.395 . S
C666 C669 1.403 . S
C667 C664 1.403 . S
C667 C668 1.524 . S
C667 C671 1.400 . S
C668 H653 0.960 . S
C668 H654 0.960 . S
C668 H655 0.960 . S
C668 C667 1.524 . S
C669 C666 1.403 . S
C669 C670 1.392 . S
C669 C673 1.495 . S
C670 C669 1.392 . S
C670 C671 1.385 . S
C670 C672 1.478 . S
C671 H665 0.930 . S
C671 C667 1.400 . S
C671 C670 1.385 . S
C672 C670 1.478 . S
C672 C674 1.381 . S
C672 C678 1.383 . S
C673 C669 1.495 . S
C673 H679 0.959 . S
C673 H680 0.961 . S
C673 H681 0.960 . S
C674 C672 1.381 . S
C674 C675 1.394 . S
C674 H682 0.930 . S
C675 C674 1.394 . S
C675 C676 1.383 . S
C675 H683 0.929 . S
C676 C675 1.383 . S
C676 C677 1.377 . S
C677 H661 0.930 . S
C677 C676 1.377 . S
C677 C678 1.379 . S
C678 H662 0.931 . S
C678 C672 1.383 . S
C678 C677 1.379 . S
H679 C673 0.959 . S
H680 C673 0.961 . S
H681 C673 0.960 . S
H682 C674 0.930 . S
H683 C675 0.929 . S
H684 C692 0.929 . S
H685 C694 0.930 . S
H686 C696 0.930 . S
H687 C699 0.929 . S
H688 C702 0.930 . S
H689 C704 0.960 . S
H690 C704 0.960 . S
H691 C704 0.960 . S
C692 H684 0.929 . S
C692 C693 1.377 . S
C692 C694 1.384 . S
C693 C692 1.377 . S
C693 C699 1.390 . S
C694 H685 0.930 . S
C694 C692 1.384 . S
C694 C695 1.372 . S
C695 C694 1.372 . S
C695 C696 1.400 . S
C695 C700 1.490 . S
C696 H686 0.930 . S
C696 C695 1.400 . S
C696 C699 1.386 . S
H697 C713 0.930 . S
H698 C714 0.931 . S
C699 H687 0.929 . S
C699 C693 1.390 . S
C699 C696 1.386 . S
C700 C695 1.490 . S
C700 C702 1.395 . S
C700 C703 1.403 . S
H701 C707 0.930 . S
C702 H688 0.930 . S
C702 C700 1.395 . S
C702 C705 1.403 . S
C703 C700 1.403 . S
C703 C704 1.524 . S
C703 C707 1.400 . S
C704 H689 0.960 . S
C704 H690 0.960 . S
C704 H691 0.960 . S
C704 C703 1.524 . S
C705 C702 1.403 . S
C705 C706 1.392 . S
C705 C709 1.495 . S
C706 C705 1.392 . S
C706 C707 1.385 . S
C706 C708 1.478 . S
C707 H701 0.930 . S
C707 C703 1.400 . S
C707 C706 1.385 . S
C708 C706 1.478 . S
C708 C710 1.381 . S
C708 C714 1.383 . S
C709 C705 1.495 . S
C709 H715 0.959 . S
C709 H716 0.961 . S
C709 H717 0.960 . S
C710 C708 1.381 . S
C710 C711 1.394 . S
C710 H718 0.930 . S
C711 C710 1.394 . S
C711 C712 1.383 . S
C711 H719 0.929 . S
C712 C711 1.383 . S
C712 C713 1.377 . S
C713 H697 0.930 . S
C713 C712 1.377 . S
C713 C714 1.379 . S
C714 H698 0.931 . S
C714 C708 1.383 . S
C714 C713 1.379 . S
H715 C709 0.959 . S
H716 C709 0.961 . S
H717 C709 0.960 . S
H718 C710 0.930 . S
H719 C711 0.929 . S
H720 C728 0.929 . S
H721 C730 0.930 . S
H722 C732 0.930 . S
H723 C735 0.929 1_545 S
H724 C738 0.930 . S
H725 C740 0.960 . S
H726 C740 0.960 . S
H727 C740 0.960 . S
C728 H720 0.929 . S
C728 C729 1.377 . S
C728 C730 1.384 . S
C729 C728 1.377 . S
C729 C735 1.390 . S
C730 H721 0.930 . S
C730 C728 1.384 . S
C730 C731 1.372 . S
C731 C730 1.372 . S
C731 C732 1.400 . S
C731 C736 1.490 . S
C732 H722 0.930 . S
C732 C731 1.400 . S
C732 C735 1.386 . S
H733 C749 0.930 . S
H734 C750 0.931 . S
C735 H723 0.929 1_565 S
C735 C729 1.390 . S
C735 C732 1.386 . S
C736 C731 1.490 . S
C736 C738 1.395 . S
C736 C739 1.403 . S
H737 C743 0.930 . S
C738 H724 0.930 . S
C738 C736 1.395 . S
C738 C741 1.403 . S
C739 C736 1.403 . S
C739 C740 1.524 . S
C739 C743 1.400 . S
C740 H725 0.960 . S
C740 H726 0.960 . S
C740 H727 0.960 . S
C740 C739 1.524 . S
C741 C738 1.403 . S
C741 C742 1.392 . S
C741 C745 1.495 . S
C742 C741 1.392 . S
C742 C743 1.385 . S
C742 C744 1.478 . S
C743 H737 0.930 . S
C743 C739 1.400 . S
C743 C742 1.385 . S
C744 C742 1.478 . S
C744 C746 1.381 . S
C744 C750 1.383 . S
C745 C741 1.495 . S
C745 H751 0.959 . S
C745 H752 0.961 . S
C745 H753 0.960 . S
C746 C744 1.381 . S
C746 C747 1.394 . S
C746 H754 0.930 . S
C747 C746 1.394 . S
C747 C748 1.383 . S
C747 H755 0.929 . S
C748 C747 1.383 . S
C748 C749 1.377 . S
C749 H733 0.930 . S
C749 C748 1.377 . S
C749 C750 1.379 . S
C750 H734 0.931 . S
C750 C744 1.383 . S
C750 C749 1.379 . S
H751 C745 0.959 . S
H752 C745 0.961 . S
H753 C745 0.960 . S
H754 C746 0.930 . S
H755 C747 0.929 . S
H756 C764 0.929 1_545 S
H757 C766 0.930 . S
H758 C768 0.930 . S
H759 C771 0.929 . S
H760 C774 0.930 . S
H761 C776 0.960 . S
H762 C776 0.960 . S
H763 C776 0.960 . S
C764 H756 0.929 1_565 S
C764 C765 1.377 . S
C764 C766 1.384 . S
C765 C764 1.377 . S
C765 C771 1.390 . S
C766 H757 0.930 . S
C766 C764 1.384 . S
C766 C767 1.372 . S
C767 C766 1.372 . S
C767 C768 1.400 . S
C767 C772 1.490 . S
C768 H758 0.930 . S
C768 C767 1.400 . S
C768 C771 1.386 . S
H769 C785 0.930 . S
H770 C786 0.931 . S
C771 H759 0.929 . S
C771 C765 1.390 . S
C771 C768 1.386 . S
C772 C767 1.490 . S
C772 C774 1.395 . S
C772 C775 1.403 . S
H773 C779 0.930 . S
C774 H760 0.930 . S
C774 C772 1.395 . S
C774 C777 1.403 . S
C775 C772 1.403 . S
C775 C776 1.524 . S
C775 C779 1.400 . S
C776 H761 0.960 . S
C776 H762 0.960 . S
C776 H763 0.960 . S
C776 C775 1.524 . S
C777 C774 1.403 . S
C777 C778 1.392 . S
C777 C781 1.495 . S
C778 C777 1.392 . S
C778 C779 1.385 . S
C778 C780 1.478 . S
C779 H773 0.930 . S
C779 C775 1.400 . S
C779 C778 1.385 . S
C780 C778 1.478 . S
C780 C782 1.381 . S
C780 C786 1.383 . S
C781 C777 1.495 . S
C781 H787 0.959 . S
C781 H788 0.961 . S
C781 H789 0.960 . S
C782 C780 1.381 . S
C782 C783 1.394 . S
C782 H790 0.930 . S
C783 C782 1.394 . S
C783 C784 1.383 . S
C783 H791 0.929 . S
C784 C783 1.383 . S
C784 C785 1.377 . S
C785 H769 0.930 . S
C785 C784 1.377 . S
C785 C786 1.379 . S
C786 H770 0.931 . S
C786 C780 1.383 . S
C786 C785 1.379 . S
H787 C781 0.959 . S
H788 C781 0.961 . S
H789 C781 0.960 . S
H790 C782 0.930 . S
H791 C783 0.929 . S
H792 C800 0.929 . S
H793 C802 0.930 . S
H794 C804 0.930 . S
H795 C807 0.929 . S
H796 C810 0.930 . S
H797 C812 0.960 . S
H798 C812 0.960 . S
H799 C812 0.960 . S
C800 H792 0.929 . S
C800 C801 1.377 . S
C800 C802 1.384 . S
C801 C800 1.377 . S
C801 C807 1.390 . S
C802 H793 0.930 . S
C802 C800 1.384 . S
C802 C803 1.372 . S
C803 C802 1.372 . S
C803 C804 1.400 . S
C803 C808 1.490 . S
C804 H794 0.930 . S
C804 C803 1.400 . S
C804 C807 1.386 . S
H805 C821 0.930 . S
H806 C822 0.931 . S
C807 H795 0.929 . S
C807 C801 1.390 . S
C807 C804 1.386 . S
C808 C803 1.490 . S
C808 C810 1.395 . S
C808 C811 1.403 . S
H809 C815 0.930 . S
C810 H796 0.930 . S
C810 C808 1.395 . S
C810 C813 1.403 . S
C811 C808 1.403 . S
C811 C812 1.524 . S
C811 C815 1.400 . S
C812 H797 0.960 . S
C812 H798 0.960 . S
C812 H799 0.960 . S
C812 C811 1.524 . S
C813 C810 1.403 . S
C813 C814 1.392 . S
C813 C817 1.495 . S
C814 C813 1.392 . S
C814 C815 1.385 . S
C814 C816 1.478 . S
C815 H809 0.930 . S
C815 C811 1.400 . S
C815 C814 1.385 . S
C816 C814 1.478 . S
C816 C818 1.381 . S
C816 C822 1.383 . S
C817 C813 1.495 . S
C817 H823 0.959 . S
C817 H824 0.961 . S
C817 H825 0.960 . S
C818 C816 1.381 . S
C818 C819 1.394 . S
C818 H826 0.930 . S
C819 C818 1.394 . S
C819 C820 1.383 . S
C819 H827 0.929 . S
C820 C819 1.383 . S
C820 C821 1.377 . S
C821 H805 0.930 . S
C821 C820 1.377 . S
C821 C822 1.379 . S
C822 H806 0.931 . S
C822 C816 1.383 . S
C822 C821 1.379 . S
H823 C817 0.959 . S
H824 C817 0.961 . S
H825 C817 0.960 . S
H826 C818 0.930 . S
H827 C819 0.929 . S
H828 C836 0.929 . S
H829 C838 0.930 . S
H830 C840 0.930 . S
H831 C843 0.929 1_455 S
H832 C846 0.930 . S
H833 C848 0.960 . S
H834 C848 0.960 . S
H835 C848 0.960 . S
C836 H828 0.929 . S
C836 C837 1.377 . S
C836 C838 1.384 . S
C837 C836 1.377 . S
C837 C843 1.390 . S
C838 H829 0.930 . S
C838 C836 1.384 . S
C838 C839 1.372 . S
C839 C838 1.372 . S
C839 C840 1.400 . S
C839 C844 1.490 . S
C840 H830 0.930 . S
C840 C839 1.400 . S
C840 C843 1.386 . S
H841 C857 0.930 . S
H842 C858 0.931 . S
C843 H831 0.929 1_655 S
C843 C837 1.390 . S
C843 C840 1.386 . S
C844 C839 1.490 . S
C844 C846 1.395 . S
C844 C847 1.403 . S
H845 C851 0.930 . S
C846 H832 0.930 . S
C846 C844 1.395 . S
C846 C849 1.403 . S
C847 C844 1.403 . S
C847 C848 1.524 . S
C847 C851 1.400 . S
C848 H833 0.960 . S
C848 H834 0.960 . S
C848 H835 0.960 . S
C848 C847 1.524 . S
C849 C846 1.403 . S
C849 C850 1.392 . S
C849 C853 1.495 . S
C850 C849 1.392 . S
C850 C851 1.385 . S
C850 C852 1.478 . S
C851 H845 0.930 . S
C851 C847 1.400 . S
C851 C850 1.385 . S
C852 C850 1.478 . S
C852 C854 1.381 . S
C852 C858 1.383 . S
C853 C849 1.495 . S
C853 H859 0.959 . S
C853 H860 0.961 . S
C853 H861 0.960 . S
C854 C852 1.381 . S
C854 C855 1.394 . S
C854 H862 0.930 . S
C855 C854 1.394 . S
C855 C856 1.383 . S
C855 H863 0.929 . S
C856 C855 1.383 . S
C856 C857 1.377 . S
C857 H841 0.930 . S
C857 C856 1.377 . S
C857 C858 1.379 . S
C858 H842 0.931 . S
C858 C852 1.383 . S
C858 C857 1.379 . S
H859 C853 0.959 . S
H860 C853 0.961 . S
H861 C853 0.960 . S
H862 C854 0.930 . S
H863 C855 0.929 . S
C297 C14 1.525 . S
C316 C158 1.535 . S
C333 C50 1.523 . S
C352 C194 1.528 . S
C369 C230 1.516 . S
C388 C86 1.492 . S
C405 C266 1.527 . S
C424 C122 1.544 . S
C441 C4 1.118 . S
C460 C76 1.101 . S
C477 C40 1.116 . S
C496 C112 1.124 . S
C513 C220 1.115 . S
C532 C148 1.113 . S
C549 C184 1.120 . S
C568 C256 1.111 . S
C585 C182 1.146 . S
C604 C2 1.127 . S
C621 C38 1.139 . S
C640 C218 1.144 . S
C657 C254 1.143 . S
C676 C74 1.151 . S
C693 C110 1.143 . S
C712 C146 1.123 . S
C729 C219 1.302 1_565 S
C748 C111 1.300 1_655 S
C765 C3 1.302 1_565 S
C784 C255 1.299 . S
C801 C39 1.302 . S
C820 C147 1.299 . S
C837 C183 1.302 1_655 S
C856 C75 1.299 . S
