# Generated by pormake.
# Topology uot, (4)-cn, num edge types: 1
# Building blocks:
#     Node 0, Type 0, BuildingBlock: UXUYUI_clean_sbu_0, # of connection points: 4
#     Node 1, Type 0, BuildingBlock: UXUYUI_clean_sbu_0, # of connection points: 4
#     Node 2, Type 0, BuildingBlock: UXUYUI_clean_sbu_0, # of connection points: 4
#     Node 3, Type 0, BuildingBlock: UXUYUI_clean_sbu_0, # of connection points: 4
#     Node 4, Type 0, BuildingBlock: UXUYUI_clean_sbu_0, # of connection points: 4
#     Node 5, Type 0, BuildingBlock: UXUYUI_clean_sbu_0, # of connection points: 4
#     Node 6, Type 0, BuildingBlock: UXUYUI_clean_sbu_0, # of connection points: 4
#     Node 7, Type 0, BuildingBlock: UXUYUI_clean_sbu_0, # of connection points: 4
#     Node 8, Type 0, BuildingBlock: UXUYUI_clean_sbu_0, # of connection points: 4
#     Node 9, Type 0, BuildingBlock: UXUYUI_clean_sbu_0, # of connection points: 4
#     Node 10, Type 0, BuildingBlock: UXUYUI_clean_sbu_0, # of connection points: 4
#     Node 11, Type 0, BuildingBlock: UXUYUI_clean_sbu_0, # of connection points: 4
#     Node 12, Type 0, BuildingBlock: UXUYUI_clean_sbu_0, # of connection points: 4
#     Node 13, Type 0, BuildingBlock: UXUYUI_clean_sbu_0, # of connection points: 4
#     Node 14, Type 0, BuildingBlock: UXUYUI_clean_sbu_0, # of connection points: 4
#     Node 15, Type 0, BuildingBlock: UXUYUI_clean_sbu_0, # of connection points: 4
#     Edge 16, Type (0, 0), BuildingBlock: KIFKEQ_clean_linker_1, # of connection points: 2
#     Edge 17, Type (0, 0), BuildingBlock: KIFKEQ_clean_linker_1, # of connection points: 2
#     Edge 18, Type (0, 0), BuildingBlock: KIFKEQ_clean_linker_1, # of connection points: 2
#     Edge 19, Type (0, 0), BuildingBlock: KIFKEQ_clean_linker_1, # of connection points: 2
#     Edge 20, Type (0, 0), BuildingBlock: KIFKEQ_clean_linker_1, # of connection points: 2
#     Edge 21, Type (0, 0), BuildingBlock: KIFKEQ_clean_linker_1, # of connection points: 2
#     Edge 22, Type (0, 0), BuildingBlock: KIFKEQ_clean_linker_1, # of connection points: 2
#     Edge 23, Type (0, 0), BuildingBlock: KIFKEQ_clean_linker_1, # of connection points: 2
#     Edge 24, Type (0, 0), BuildingBlock: KIFKEQ_clean_linker_1, # of connection points: 2
#     Edge 25, Type (0, 0), BuildingBlock: KIFKEQ_clean_linker_1, # of connection points: 2
#     Edge 26, Type (0, 0), BuildingBlock: KIFKEQ_clean_linker_1, # of connection points: 2
#     Edge 27, Type (0, 0), BuildingBlock: KIFKEQ_clean_linker_1, # of connection points: 2
#     Edge 28, Type (0, 0), BuildingBlock: KIFKEQ_clean_linker_1, # of connection points: 2
#     Edge 29, Type (0, 0), BuildingBlock: KIFKEQ_clean_linker_1, # of connection points: 2
#     Edge 30, Type (0, 0), BuildingBlock: KIFKEQ_clean_linker_1, # of connection points: 2
#     Edge 31, Type (0, 0), BuildingBlock: KIFKEQ_clean_linker_1, # of connection points: 2
#     Edge 32, Type (0, 0), BuildingBlock: KIFKEQ_clean_linker_1, # of connection points: 2
#     Edge 33, Type (0, 0), BuildingBlock: KIFKEQ_clean_linker_1, # of connection points: 2
#     Edge 34, Type (0, 0), BuildingBlock: KIFKEQ_clean_linker_1, # of connection points: 2
#     Edge 35, Type (0, 0), BuildingBlock: KIFKEQ_clean_linker_1, # of connection points: 2
#     Edge 36, Type (0, 0), BuildingBlock: KIFKEQ_clean_linker_1, # of connection points: 2
#     Edge 37, Type (0, 0), BuildingBlock: KIFKEQ_clean_linker_1, # of connection points: 2
#     Edge 38, Type (0, 0), BuildingBlock: KIFKEQ_clean_linker_1, # of connection points: 2
#     Edge 39, Type (0, 0), BuildingBlock: KIFKEQ_clean_linker_1, # of connection points: 2
#     Edge 40, Type (0, 0), BuildingBlock: KIFKEQ_clean_linker_1, # of connection points: 2
#     Edge 41, Type (0, 0), BuildingBlock: KIFKEQ_clean_linker_1, # of connection points: 2
#     Edge 42, Type (0, 0), BuildingBlock: KIFKEQ_clean_linker_1, # of connection points: 2
#     Edge 43, Type (0, 0), BuildingBlock: KIFKEQ_clean_linker_1, # of connection points: 2
#     Edge 44, Type (0, 0), BuildingBlock: KIFKEQ_clean_linker_1, # of connection points: 2
#     Edge 45, Type (0, 0), BuildingBlock: KIFKEQ_clean_linker_1, # of connection points: 2
#     Edge 46, Type (0, 0), BuildingBlock: KIFKEQ_clean_linker_1, # of connection points: 2
#     Edge 47, Type (0, 0), BuildingBlock: KIFKEQ_clean_linker_1, # of connection points: 2
# Relax obj value: 0.272
# Max RMSD: 0.247
# Mean RMSD: 0.247
data_MOF--net-uot--node1-UXUYUI_clean_sbu_0--edge1-KIFKEQ_clean_linker_1
_symmetry_space_group_name_H-M    P1
_symmetry_Int_Tables_number       1
_symmetry_cell_setting            triclinic
loop_
_symmetry_equiv_pos_as_xyz
'x, y, z'
_cell_length_a     64.257174
_cell_length_b     64.04471
_cell_length_c     59.829
_cell_angle_alpha  90.001482
_cell_angle_beta   89.988049
_cell_angle_gamma 89.989113
loop_
_atom_site_label
_atom_site_type_symbol
_atom_site_fract_x
_atom_site_fract_y
_atom_site_fract_z
_atom_type_partial_charge
Li0 Li 0.21295 0.4728 0.30372 0.0
Li1 Li 0.21706 0.46037 0.34225 0.0
Li2 Li 0.23825 0.44655 0.31192 0.0
Li3 Li 0.20119 0.43802 0.31462 0.0
C4 C 0.25792 0.48013 0.32517 0.0
N5 N 0.30022 0.4871 0.32856 0.0
C6 C 0.26775 0.47896 0.34596 0.0
C7 C 0.26954 0.48502 0.30613 0.0
C8 C 0.28917 0.48251 0.34732 0.0
C9 C 0.29093 0.48843 0.30818 0.0
C10 C 0.17888 0.47546 0.34037 0.0
C11 C 0.15819 0.47581 0.37402 0.0
N12 N 0.15569 0.4968 0.37186 0.0
C13 C 0.17606 0.49703 0.33845 0.0
C14 C 0.16981 0.46473 0.35824 0.0
C15 C 0.16428 0.50754 0.35455 0.0
C16 C 0.1855 0.49511 0.27732 0.0
N17 N 0.20508 0.4959 0.2858 0.0
C18 C 0.21046 0.5297 0.26991 0.0
C19 C 0.21766 0.51266 0.28233 0.0
C20 C 0.19021 0.52932 0.26101 0.0
C21 C 0.17775 0.51165 0.26473 0.0
H22 H 0.17575 0.48172 0.28075 0.0
H23 H 0.2331 0.51293 0.28949 0.0
C24 C 0.22051 0.45331 0.38865 0.0
N25 N 0.21727 0.46823 0.37287 0.0
C26 C 0.22073 0.45864 0.41127 0.0
C27 C 0.21426 0.49457 0.40096 0.0
C28 C 0.21454 0.48861 0.37853 0.0
C29 C 0.21741 0.47946 0.41761 0.0
H30 H 0.22301 0.43729 0.38366 0.0
H31 H 0.21254 0.50022 0.36559 0.0
C32 C 0.21292 0.45128 0.26641 0.0
N33 N 0.20274 0.46389 0.22363 0.0
C34 C 0.19369 0.44582 0.25718 0.0
C35 C 0.22703 0.46302 0.25383 0.0
C36 C 0.18883 0.45237 0.23553 0.0
C37 C 0.22157 0.46929 0.23225 0.0
C38 C 0.21953 0.41054 0.34004 0.0
C39 C 0.23074 0.39496 0.32895 0.0
C40 C 0.20347 0.40499 0.35463 0.0
C41 C 0.22561 0.37404 0.3326 0.0
C42 C 0.19879 0.3839 0.35779 0.0
N43 N 0.20986 0.36899 0.3468 0.0
C44 C 0.27696 0.43031 0.3235 0.0
C45 C 0.27108 0.43099 0.28439 0.0
C46 C 0.29606 0.4204 0.32042 0.0
N47 N 0.26491 0.43527 0.30563 0.0
C48 C 0.29006 0.42097 0.28052 0.0
C49 C 0.3027 0.41532 0.29872 0.0
H50 H 0.27142 0.43352 0.34022 0.0
H51 H 0.26103 0.43485 0.27051 0.0
C52 C 0.16037 0.42255 0.31461 0.0
N53 N 0.18025 0.41776 0.30883 0.0
C54 C 0.14407 0.40931 0.30869 0.0
C55 C 0.16901 0.38613 0.29135 0.0
C56 C 0.18486 0.39994 0.2975 0.0
C57 C 0.14826 0.39099 0.29661 0.0
H58 H 0.15706 0.43699 0.32319 0.0
H59 H 0.20076 0.39679 0.29262 0.0
O60 O 0.23706 0.47629 0.32342 0.0
O61 O 0.19058 0.46492 0.32495 0.0
O62 O 0.2178 0.44539 0.28775 0.0
O63 O 0.22407 0.43113 0.33643 0.0
H64 H 0.259 0.47514 0.36086 0.0
H65 H 0.26216 0.48593 0.28991 0.0
H66 H 0.29702 0.48154 0.36328 0.0
H67 H 0.30015 0.49208 0.29357 0.0
H68 H 0.15121 0.46773 0.38801 0.0
H69 H 0.18306 0.50563 0.32484 0.0
H70 H 0.17194 0.44807 0.36006 0.0
H71 H 0.16204 0.52424 0.35332 0.0
H72 H 0.22054 0.54304 0.26739 0.0
H73 H 0.16192 0.51087 0.25859 0.0
H74 H 0.22321 0.44658 0.42368 0.0
H75 H 0.21194 0.51084 0.40525 0.0
H76 H 0.18254 0.43683 0.2667 0.0
H77 H 0.24192 0.46748 0.26077 0.0
H78 H 0.17397 0.44835 0.22821 0.0
H79 H 0.23228 0.47851 0.22239 0.0
H80 H 0.24312 0.39896 0.31748 0.0
H81 H 0.19458 0.41686 0.36326 0.0
H82 H 0.2341 0.36182 0.32407 0.0
H83 H 0.18632 0.37938 0.36894 0.0
H84 H 0.30508 0.41597 0.33495 0.0
H85 H 0.29465 0.41738 0.26353 0.0
H86 H 0.1283 0.41354 0.3132 0.0
H87 H 0.17285 0.3723 0.28178 0.0
Li88 Li 0.43901 0.7966 0.68349 0.0
Li89 Li 0.47282 0.78546 0.69417 0.0
Li90 Li 0.46027 0.78095 0.65511 0.0
Li91 Li 0.4449 0.76009 0.68658 0.0
C92 C 0.47088 0.82636 0.67985 0.0
N93 N 0.48173 0.86501 0.69673 0.0
C94 C 0.46552 0.83179 0.70175 0.0
C95 C 0.48175 0.84058 0.66655 0.0
C96 C 0.47115 0.8514 0.70997 0.0
C97 C 0.4871 0.86005 0.67539 0.0
C98 C 0.4505 0.77135 0.73086 0.0
C99 C 0.46821 0.74455 0.75186 0.0
N100 N 0.45902 0.7516 0.7709 0.0
C101 C 0.44122 0.77831 0.75063 0.0
C102 C 0.4641 0.75431 0.73146 0.0
C103 C 0.44574 0.76813 0.7707 0.0
C104 C 0.40575 0.81584 0.70613 0.0
N105 N 0.41879 0.8178 0.68837 0.0
C106 C 0.40454 0.85121 0.67947 0.0
C107 C 0.41825 0.83486 0.67488 0.0
C108 C 0.39128 0.84994 0.69811 0.0
C109 C 0.39176 0.83179 0.7113 0.0
H110 H 0.40657 0.80206 0.71653 0.0
H111 H 0.42876 0.83593 0.6608 0.0
C112 C 0.51564 0.79207 0.69947 0.0
N113 N 0.49723 0.79216 0.71066 0.0
C114 C 0.53372 0.79934 0.70983 0.0
C115 C 0.51363 0.8061 0.74322 0.0
C116 C 0.49595 0.79887 0.73217 0.0
C117 C 0.5328 0.80682 0.73192 0.0
H118 H 0.51609 0.78702 0.68222 0.0
H119 H 0.48109 0.79938 0.74055 0.0
C120 C 0.41161 0.78175 0.65612 0.0
N121 N 0.37282 0.79774 0.64605 0.0
C122 C 0.39427 0.77582 0.6687 0.0
C123 C 0.40924 0.79571 0.63834 0.0
C124 C 0.37478 0.78411 0.66337 0.0
C125 C 0.38949 0.80363 0.63353 0.0
C126 C 0.48564 0.74367 0.66875 0.0
C127 C 0.48102 0.73334 0.64879 0.0
C128 C 0.50241 0.73696 0.68178 0.0
C129 C 0.49314 0.71627 0.6423 0.0
C130 C 0.51416 0.71984 0.67471 0.0
N131 N 0.50932 0.70993 0.65529 0.0
C132 C 0.48716 0.78902 0.61912 0.0
C133 C 0.45581 0.77177 0.60929 0.0
C134 C 0.49367 0.78897 0.59685 0.0
N135 N 0.46854 0.78052 0.62482 0.0
C136 C 0.46172 0.77133 0.58684 0.0
C137 C 0.48087 0.78003 0.58036 0.0
H138 H 0.49695 0.7958 0.63192 0.0
H139 H 0.44109 0.76511 0.61438 0.0
C140 C 0.41791 0.73446 0.71092 0.0
N141 N 0.4323 0.73414 0.69426 0.0
C142 C 0.40638 0.71663 0.71591 0.0
C143 C 0.42474 0.69829 0.68662 0.0
C144 C 0.43602 0.7165 0.68228 0.0
C145 C 0.40939 0.69833 0.70336 0.0
H146 H 0.41484 0.7488 0.71986 0.0
H147 H 0.44711 0.71673 0.66877 0.0
O148 O 0.46569 0.8072 0.6714 0.0
O149 O 0.44617 0.7813 0.71115 0.0
O150 O 0.43089 0.77424 0.66145 0.0
O151 O 0.47423 0.76066 0.67523 0.0
H152 H 0.45711 0.82101 0.71232 0.0
H153 H 0.48604 0.83659 0.64958 0.0
H154 H 0.46711 0.85579 0.72688 0.0
H155 H 0.49553 0.87121 0.66528 0.0
H156 H 0.47869 0.73134 0.75254 0.0
H157 H 0.43068 0.7915 0.75046 0.0
H158 H 0.47134 0.74861 0.71638 0.0
H159 H 0.43868 0.77338 0.78613 0.0
H160 H 0.4045 0.86482 0.66872 0.0
H161 H 0.382 0.83025 0.72597 0.0
H162 H 0.54804 0.79991 0.70032 0.0
H163 H 0.51219 0.81146 0.76031 0.0
H164 H 0.39589 0.76511 0.68257 0.0
H165 H 0.42256 0.80057 0.62857 0.0
H166 H 0.36123 0.77976 0.67303 0.0
H167 H 0.38742 0.81455 0.61991 0.0
H168 H 0.46806 0.73828 0.63855 0.0
H169 H 0.50632 0.74492 0.69718 0.0
H170 H 0.48967 0.70807 0.62694 0.0
H171 H 0.52715 0.71444 0.68465 0.0
H172 H 0.50866 0.79562 0.59262 0.0
H173 H 0.45127 0.76451 0.57467 0.0
H174 H 0.39486 0.71733 0.7291 0.0
H175 H 0.42734 0.68467 0.67626 0.0
Li176 Li 0.75891 0.55207 0.31109 0.0
Li177 Li 0.79575 0.56117 0.31368 0.0
Li178 Li 0.78468 0.52599 0.30358 0.0
Li179 Li 0.78024 0.53911 0.34165 0.0
C180 C 0.78503 0.54634 0.26599 0.0
N181 N 0.79683 0.53216 0.22424 0.0
C182 C 0.80469 0.55127 0.25747 0.0
C183 C 0.77136 0.53424 0.25324 0.0
C184 C 0.81035 0.54397 0.23632 0.0
C185 C 0.77763 0.5272 0.23219 0.0
C186 C 0.77744 0.58886 0.33828 0.0
C187 C 0.79868 0.61591 0.35465 0.0
N188 N 0.78747 0.63056 0.34342 0.0
C189 C 0.76617 0.60419 0.32687 0.0
C190 C 0.79384 0.59476 0.35229 0.0
C191 C 0.77146 0.62518 0.32972 0.0
C192 C 0.7212 0.57073 0.32217 0.0
N193 N 0.73205 0.56298 0.30455 0.0
C194 C 0.70557 0.57413 0.27919 0.0
C195 C 0.72458 0.56425 0.28335 0.0
C196 C 0.69434 0.58306 0.297 0.0
C197 C 0.70231 0.58094 0.31878 0.0
H198 H 0.72765 0.56964 0.33883 0.0
H199 H 0.73358 0.55806 0.26963 0.0
C200 C 0.83564 0.5803 0.31454 0.0
N201 N 0.81573 0.58223 0.3072 0.0
C202 C 0.85065 0.59497 0.30834 0.0
C203 C 0.82428 0.61343 0.28735 0.0
C204 C 0.80981 0.59841 0.29395 0.0
C205 C 0.8451 0.61165 0.2943 0.0
H206 H 0.84003 0.56705 0.32467 0.0
H207 H 0.79391 0.59936 0.2881 0.0
C208 C 0.73948 0.51919 0.32494 0.0
N209 N 0.69699 0.51345 0.32829 0.0
C210 C 0.72946 0.52197 0.34546 0.0
C211 C 0.72792 0.51343 0.30614 0.0
C212 C 0.70796 0.51899 0.34681 0.0
C213 C 0.70645 0.51063 0.30817 0.0
C214 C 0.81794 0.52434 0.3408 0.0
C215 C 0.81926 0.50255 0.34035 0.0
C216 C 0.82747 0.53542 0.35813 0.0
C217 C 0.83012 0.49221 0.35729 0.0
C218 C 0.83813 0.5245 0.37478 0.0
N219 N 0.83923 0.50331 0.37402 0.0
C220 C 0.81339 0.50282 0.2797 0.0
C221 C 0.78019 0.48671 0.28047 0.0
C222 C 0.82153 0.4864 0.26721 0.0
N223 N 0.79311 0.50268 0.28608 0.0
C224 C 0.78769 0.4699 0.26787 0.0
C225 C 0.80868 0.46958 0.26113 0.0
H226 H 0.82332 0.51567 0.2846 0.0
H227 H 0.76414 0.48695 0.28586 0.0
C228 C 0.78082 0.54602 0.38855 0.0
N229 N 0.78015 0.53122 0.37231 0.0
C230 C 0.78114 0.54021 0.41103 0.0
C231 C 0.7796 0.50402 0.39965 0.0
C232 C 0.77934 0.51055 0.37739 0.0
C233 C 0.78059 0.51895 0.41683 0.0
H234 H 0.78103 0.56235 0.38407 0.0
H235 H 0.77861 0.49913 0.36409 0.0
O236 O 0.77938 0.5529 0.28689 0.0
O237 O 0.77278 0.56819 0.33539 0.0
O238 O 0.76043 0.52257 0.32315 0.0
O239 O 0.80697 0.53473 0.32465 0.0
H240 H 0.81557 0.56042 0.26716 0.0
H241 H 0.75623 0.52997 0.2597 0.0
H242 H 0.82555 0.54759 0.22957 0.0
H243 H 0.76727 0.51769 0.22222 0.0
H244 H 0.8114 0.62067 0.36533 0.0
H245 H 0.75366 0.59997 0.31567 0.0
H246 H 0.80299 0.58312 0.36094 0.0
H247 H 0.76291 0.6372 0.32093 0.0
H248 H 0.69995 0.57509 0.26216 0.0
H249 H 0.69456 0.58787 0.33302 0.0
H250 H 0.86658 0.59278 0.31376 0.0
H251 H 0.8193 0.62611 0.27665 0.0
H252 H 0.73813 0.52662 0.36013 0.0
H253 H 0.7354 0.51147 0.29008 0.0
H254 H 0.69997 0.52117 0.36256 0.0
H255 H 0.69728 0.5063 0.29373 0.0
H256 H 0.81177 0.49367 0.32726 0.0
H257 H 0.82637 0.55225 0.35892 0.0
H258 H 0.8312 0.47536 0.3572 0.0
H259 H 0.84546 0.53288 0.38837 0.0
H260 H 0.83789 0.48667 0.26288 0.0
H261 H 0.7772 0.45735 0.26344 0.0
H262 H 0.78152 0.55224 0.42374 0.0
H263 H 0.7793 0.48747 0.40335 0.0
Li264 Li 0.55925 0.2007 0.68708 0.0
Li265 Li 0.5241 0.21211 0.69732 0.0
Li266 Li 0.53578 0.21306 0.65827 0.0
Li267 Li 0.54905 0.2377 0.68579 0.0
C268 C 0.52252 0.17472 0.66449 0.0
N269 N 0.50188 0.14811 0.63572 0.0
C270 C 0.5009 0.17272 0.66572 0.0
C271 C 0.53367 0.1631 0.64876 0.0
C272 C 0.49074 0.15919 0.651 0.0
C273 C 0.52294 0.14977 0.63432 0.0
C274 C 0.5467 0.2171 0.73413 0.0
C275 C 0.5291 0.22866 0.76752 0.0
N276 N 0.53672 0.21181 0.77868 0.0
C277 C 0.55448 0.19998 0.74596 0.0
C278 C 0.53403 0.23165 0.745 0.0
C279 C 0.54921 0.19756 0.76847 0.0
C280 C 0.5997 0.18739 0.70087 0.0
N281 N 0.5803 0.18108 0.69475 0.0
C282 C 0.5889 0.14553 0.70245 0.0
C283 C 0.57471 0.16063 0.69541 0.0
C284 C 0.60907 0.15157 0.7086 0.0
C285 C 0.61457 0.17273 0.70753 0.0
H286 H 0.60352 0.20381 0.70099 0.0
H287 H 0.55905 0.15609 0.69096 0.0
C288 C 0.48298 0.2147 0.71588 0.0
N289 N 0.50157 0.20456 0.71614 0.0
C290 C 0.46611 0.20677 0.72801 0.0
C291 C 0.4882 0.17872 0.741 0.0
C292 C 0.50444 0.18696 0.72839 0.0
C293 C 0.46851 0.18828 0.74049 0.0
H294 H 0.48104 0.22845 0.70559 0.0
H295 H 0.51925 0.17897 0.72784 0.0
C296 C 0.58513 0.21787 0.65785 0.0
N297 N 0.62644 0.20993 0.64819 0.0
C298 C 0.60059 0.23176 0.66487 0.0
C299 C 0.59069 0.19998 0.64587 0.0
C300 C 0.62138 0.22747 0.65981 0.0
C301 C 0.61165 0.19622 0.64119 0.0
C302 C 0.51437 0.25463 0.67165 0.0
C303 C 0.51546 0.26307 0.65014 0.0
C304 C 0.50829 0.26724 0.68956 0.0
C305 C 0.51063 0.28414 0.64694 0.0
C306 C 0.50361 0.28824 0.68567 0.0
N307 N 0.50488 0.29618 0.66463 0.0
C308 C 0.50686 0.20864 0.62287 0.0
C309 C 0.54217 0.21091 0.61168 0.0
C310 C 0.50043 0.20754 0.6006 0.0
N311 N 0.52742 0.21022 0.62793 0.0
C312 C 0.53645 0.20996 0.58921 0.0
C313 C 0.51532 0.20838 0.58342 0.0
H314 H 0.49544 0.20859 0.63615 0.0
H315 H 0.55836 0.21258 0.61611 0.0
C316 C 0.56487 0.273 0.70923 0.0
N317 N 0.55965 0.26517 0.68888 0.0
C318 C 0.57616 0.2916 0.71075 0.0
C319 C 0.57564 0.29403 0.67041 0.0
C320 C 0.56434 0.27547 0.66969 0.0
C321 C 0.58226 0.30196 0.6911 0.0
H322 H 0.56126 0.26427 0.7242 0.0
H323 H 0.56032 0.26863 0.65373 0.0
O324 O 0.53272 0.18818 0.67844 0.0
O325 O 0.55145 0.2196 0.71202 0.0
O326 O 0.56467 0.22173 0.66271 0.0
O327 O 0.51935 0.23415 0.67518 0.0
H328 H 0.49201 0.18166 0.67773 0.0
H329 H 0.55042 0.16447 0.64763 0.0
H330 H 0.474 0.15755 0.65168 0.0
H331 H 0.53136 0.14076 0.62197 0.0
H332 H 0.5192 0.23971 0.77611 0.0
H333 H 0.56434 0.18859 0.73782 0.0
H334 H 0.52791 0.24499 0.73608 0.0
H335 H 0.55503 0.18432 0.77781 0.0
H336 H 0.58416 0.12931 0.70321 0.0
H337 H 0.62994 0.1779 0.7125 0.0
H338 H 0.45118 0.21453 0.72685 0.0
H339 H 0.49098 0.1647 0.75067 0.0
H340 H 0.59665 0.24558 0.67433 0.0
H341 H 0.57895 0.189 0.64043 0.0
H342 H 0.63351 0.23805 0.6652 0.0
H343 H 0.61618 0.18238 0.63203 0.0
H344 H 0.52018 0.25353 0.63611 0.0
H345 H 0.50731 0.26091 0.70628 0.0
H346 H 0.51152 0.29092 0.63041 0.0
H347 H 0.49899 0.29822 0.69939 0.0
H348 H 0.48396 0.20664 0.59686 0.0
H349 H 0.54845 0.2105 0.57651 0.0
H350 H 0.58118 0.29708 0.727 0.0
H351 H 0.57992 0.30162 0.6549 0.0
Li352 Li 0.20289 0.56221 0.68344 0.0
Li353 Li 0.23965 0.55217 0.68607 0.0
Li354 Li 0.21791 0.53894 0.65572 0.0
Li355 Li 0.2136 0.52691 0.69444 0.0
C356 C 0.22236 0.58816 0.6556 0.0
N357 N 0.21483 0.62919 0.64384 0.0
C358 C 0.23447 0.60419 0.66466 0.0
C359 C 0.2065 0.59298 0.64046 0.0
C360 C 0.23041 0.62484 0.65851 0.0
C361 C 0.20291 0.61382 0.63477 0.0
C362 C 0.21374 0.54876 0.7316 0.0
C363 C 0.22066 0.5302 0.76588 0.0
N364 N 0.20227 0.53714 0.77433 0.0
C365 C 0.19495 0.55579 0.74066 0.0
C366 C 0.22677 0.53595 0.74434 0.0
C367 C 0.18942 0.54973 0.76229 0.0
C368 C 0.16244 0.57846 0.68629 0.0
N369 N 0.18283 0.58347 0.68881 0.0
C370 C 0.17381 0.61765 0.70161 0.0
C371 C 0.18875 0.60255 0.69647 0.0
C372 C 0.15253 0.61288 0.69945 0.0
C373 C 0.14698 0.59294 0.69157 0.0
H374 H 0.15812 0.56298 0.68083 0.0
H375 H 0.20505 0.60592 0.699 0.0
C376 C 0.27845 0.56915 0.67521 0.0
N377 N 0.26647 0.56283 0.69265 0.0
C378 C 0.29714 0.5796 0.67906 0.0
C379 C 0.29126 0.57602 0.7188 0.0
C380 C 0.27261 0.56572 0.71416 0.0
C381 C 0.30354 0.58361 0.70112 0.0
H382 H 0.27298 0.56688 0.65828 0.0
H383 H 0.26269 0.56069 0.7277 0.0
C384 C 0.17825 0.52596 0.65872 0.0
N385 N 0.15177 0.50648 0.62892 0.0
C386 C 0.17426 0.50458 0.66065 0.0
C387 C 0.16864 0.53746 0.64176 0.0
C388 C 0.16084 0.49501 0.64539 0.0
C389 C 0.15535 0.52731 0.62682 0.0
C390 C 0.25839 0.51857 0.67274 0.0
C391 C 0.26825 0.52021 0.65199 0.0
C392 C 0.26997 0.51325 0.69167 0.0
C393 C 0.28966 0.51662 0.65057 0.0
C394 C 0.29135 0.50982 0.68955 0.0
N395 N 0.30067 0.51157 0.66922 0.0
C396 C 0.22338 0.54535 0.60948 0.0
C397 C 0.21221 0.51126 0.61923 0.0
C398 C 0.22352 0.54005 0.58685 0.0
N399 N 0.21759 0.53105 0.62508 0.0
C400 C 0.21174 0.5054 0.59677 0.0
C401 C 0.21748 0.5199 0.5803 0.0
H402 H 0.22806 0.56082 0.61462 0.0
H403 H 0.20838 0.49999 0.63202 0.0
C404 C 0.18608 0.50513 0.72172 0.0
N405 N 0.2053 0.50394 0.71234 0.0
C406 C 0.17844 0.48864 0.73448 0.0
C407 C 0.21044 0.46982 0.72751 0.0
C408 C 0.21755 0.48682 0.71498 0.0
C409 C 0.1906 0.47061 0.73738 0.0
H410 H 0.17657 0.51881 0.71895 0.0
H411 H 0.23269 0.48624 0.70712 0.0
O412 O 0.22599 0.56785 0.66152 0.0
O413 O 0.21926 0.55422 0.71031 0.0
O414 O 0.19146 0.53559 0.67338 0.0
O415 O 0.23755 0.5225 0.67457 0.0
H416 H 0.2467 0.60078 0.67652 0.0
H417 H 0.19703 0.58076 0.63326 0.0
H418 H 0.23959 0.63741 0.66547 0.0
H419 H 0.19063 0.61778 0.62315 0.0
H420 H 0.23051 0.52016 0.77585 0.0
H421 H 0.18467 0.5657 0.73105 0.0
H422 H 0.24129 0.53023 0.73752 0.0
H423 H 0.17489 0.55498 0.76948 0.0
H424 H 0.17892 0.63281 0.70745 0.0
H425 H 0.13086 0.58822 0.69021 0.0
H426 H 0.30586 0.58544 0.6649 0.0
H427 H 0.2957 0.57856 0.73605 0.0
H428 H 0.18161 0.49541 0.67361 0.0
H429 H 0.17148 0.55403 0.64011 0.0
H430 H 0.15769 0.47846 0.64661 0.0
H431 H 0.14789 0.536 0.61355 0.0
H432 H 0.25952 0.52438 0.6372 0.0
H433 H 0.26257 0.51204 0.70786 0.0
H434 H 0.29753 0.51792 0.63465 0.0
H435 H 0.30055 0.50583 0.70408 0.0
H436 H 0.22808 0.55162 0.57459 0.0
H437 H 0.20734 0.48961 0.59232 0.0
H438 H 0.16291 0.48973 0.74142 0.0
H439 H 0.22028 0.45621 0.72938 0.0
Li440 Li 0.54114 0.77984 0.34201 0.0
Li441 Li 0.55322 0.75792 0.30963 0.0
Li442 Li 0.56316 0.79416 0.31256 0.0
Li443 Li 0.52855 0.78519 0.30237 0.0
C444 C 0.59 0.77455 0.33803 0.0
N445 N 0.63167 0.78277 0.34507 0.0
C446 C 0.60499 0.76622 0.32364 0.0
C447 C 0.59617 0.78699 0.35604 0.0
C448 C 0.62599 0.77058 0.32747 0.0
C449 C 0.61733 0.79098 0.3593 0.0
C450 C 0.5185 0.74031 0.32468 0.0
C451 C 0.50748 0.70759 0.30862 0.0
N452 N 0.50726 0.6989 0.32936 0.0
C453 C 0.51803 0.7311 0.34585 0.0
C454 C 0.51304 0.72852 0.30591 0.0
C455 C 0.51235 0.71013 0.34786 0.0
C456 C 0.51517 0.78799 0.37878 0.0
N457 N 0.53379 0.77975 0.37262 0.0
C458 C 0.54168 0.77098 0.41048 0.0
C459 C 0.54697 0.77121 0.38784 0.0
C460 C 0.52263 0.77958 0.41744 0.0
C461 C 0.50927 0.78814 0.40124 0.0
H462 H 0.50495 0.79449 0.36621 0.0
H463 H 0.56157 0.76453 0.38238 0.0
C464 C 0.5716 0.72765 0.28159 0.0
N465 N 0.56369 0.73102 0.30235 0.0
C466 C 0.58225 0.70917 0.27685 0.0
C467 C 0.57582 0.6977 0.31473 0.0
C468 C 0.56553 0.71651 0.31882 0.0
C469 C 0.58474 0.69408 0.29366 0.0
H470 H 0.5705 0.7397 0.26901 0.0
H471 H 0.5598 0.71992 0.33541 0.0
C472 C 0.54161 0.82661 0.33005 0.0
N473 N 0.55045 0.86782 0.34009 0.0
C474 C 0.5449 0.84108 0.3129 0.0
C475 C 0.54286 0.83314 0.35232 0.0
C476 C 0.54936 0.86182 0.31831 0.0
C477 C 0.54732 0.85403 0.35704 0.0
C478 C 0.54728 0.78208 0.2644 0.0
C479 C 0.5505 0.80131 0.25389 0.0
C480 C 0.53626 0.7664 0.25328 0.0
C481 C 0.54252 0.80456 0.23245 0.0
C482 C 0.5285 0.77027 0.23187 0.0
N483 N 0.53175 0.78911 0.22199 0.0
C484 C 0.59644 0.80958 0.28727 0.0
C485 C 0.59222 0.82775 0.32141 0.0
C486 C 0.61224 0.8232 0.28073 0.0
N487 N 0.58624 0.81254 0.30691 0.0
C488 C 0.60775 0.84195 0.31542 0.0
C489 C 0.61763 0.84011 0.29454 0.0
H490 H 0.59206 0.79681 0.27644 0.0
H491 H 0.58459 0.82928 0.3374 0.0
C492 C 0.48746 0.78065 0.28479 0.0
N493 N 0.50445 0.79328 0.28571 0.0
C494 C 0.46943 0.78726 0.27375 0.0
C495 C 0.48689 0.81955 0.26455 0.0
C496 C 0.50444 0.81237 0.27583 0.0
C497 C 0.46897 0.80704 0.26357 0.0
H498 H 0.48775 0.76562 0.29298 0.0
H499 H 0.51799 0.8222 0.2769 0.0
O500 O 0.56936 0.77091 0.33421 0.0
O501 O 0.52423 0.76077 0.32234 0.0
O502 O 0.53696 0.80625 0.32516 0.0
O503 O 0.55466 0.7787 0.28556 0.0
H504 H 0.60044 0.75668 0.30954 0.0
H505 H 0.58472 0.79376 0.36716 0.0
H506 H 0.63777 0.76433 0.31642 0.0
H507 H 0.62234 0.80068 0.37309 0.0
H508 H 0.50333 0.69825 0.29422 0.0
H509 H 0.52214 0.73998 0.36057 0.0
H510 H 0.51321 0.73542 0.28943 0.0
H511 H 0.51202 0.70277 0.36413 0.0
H512 H 0.5525 0.76437 0.42241 0.0
H513 H 0.49432 0.79465 0.40584 0.0
H514 H 0.58898 0.70696 0.26042 0.0
H515 H 0.57779 0.68664 0.32826 0.0
H516 H 0.54466 0.83628 0.29561 0.0
H517 H 0.54051 0.82221 0.36584 0.0
H518 H 0.55211 0.87312 0.3052 0.0
H519 H 0.54835 0.85927 0.3742 0.0
H520 H 0.55877 0.81373 0.26231 0.0
H521 H 0.53364 0.75143 0.26113 0.0
H522 H 0.54478 0.81941 0.22418 0.0
H523 H 0.51986 0.7583 0.22312 0.0
H524 H 0.61989 0.82067 0.26484 0.0
H525 H 0.61135 0.85465 0.32671 0.0
H526 H 0.45598 0.77709 0.27332 0.0
H527 H 0.48715 0.83505 0.25734 0.0
Li528 Li 0.78106 0.47645 0.6947 0.0
Li529 Li 0.77992 0.46099 0.65581 0.0
Li530 Li 0.75764 0.44662 0.68798 0.0
Li531 Li 0.79445 0.44285 0.68731 0.0
C532 C 0.74436 0.49123 0.66917 0.0
N533 N 0.71856 0.52467 0.65985 0.0
C534 C 0.7499 0.50573 0.65276 0.0
C535 C 0.7255 0.49356 0.68058 0.0
C536 C 0.73671 0.52259 0.64837 0.0
C537 C 0.71273 0.51062 0.6757 0.0
C538 C 0.82498 0.46829 0.67572 0.0
C539 C 0.85871 0.46244 0.65919 0.0
N540 N 0.86767 0.46477 0.67963 0.0
C541 C 0.83452 0.47074 0.69654 0.0
C542 C 0.83714 0.46418 0.65685 0.0
C543 C 0.85612 0.46884 0.69819 0.0
C544 C 0.79477 0.50175 0.73067 0.0
N545 N 0.78651 0.5022 0.70974 0.0
C546 C 0.79197 0.53905 0.70743 0.0
C547 C 0.78482 0.52038 0.69818 0.0
C548 C 0.80137 0.53896 0.72864 0.0
C549 C 0.80226 0.52004 0.74051 0.0
H550 H 0.79655 0.48702 0.73927 0.0
H551 H 0.77888 0.52028 0.68134 0.0
C552 C 0.76785 0.45674 0.61069 0.0
N553 N 0.78068 0.4671 0.62492 0.0
C554 C 0.76786 0.46158 0.58792 0.0
C555 C 0.79432 0.48761 0.59499 0.0
C556 C 0.79383 0.48223 0.61758 0.0
C557 C 0.78115 0.4773 0.57983 0.0
H558 H 0.75748 0.44485 0.61709 0.0
H559 H 0.80375 0.49029 0.62936 0.0
C560 C 0.76548 0.45563 0.73203 0.0
N561 N 0.74144 0.46482 0.7691 0.0
C562 C 0.76703 0.44344 0.75136 0.0
C563 C 0.75163 0.47244 0.7316 0.0
C564 C 0.75476 0.44834 0.76991 0.0
C565 C 0.73965 0.47687 0.75049 0.0
C566 C 0.78172 0.41237 0.66051 0.0
C567 C 0.77896 0.39639 0.67614 0.0
C568 C 0.7922 0.40829 0.64052 0.0
C569 C 0.78703 0.37658 0.67161 0.0
C570 C 0.8 0.38826 0.63659 0.0
N571 N 0.7973 0.37296 0.6521 0.0
C572 C 0.71511 0.4372 0.681 0.0
C573 C 0.73163 0.41831 0.71011 0.0
C574 C 0.69702 0.42533 0.68351 0.0
N575 N 0.73197 0.43332 0.69407 0.0
C576 C 0.71396 0.40599 0.71308 0.0
C577 C 0.69651 0.40915 0.69935 0.0
H578 H 0.71602 0.44892 0.66803 0.0
H579 H 0.74541 0.41532 0.71998 0.0
C580 C 0.81777 0.41861 0.71724 0.0
N581 N 0.81644 0.42397 0.69533 0.0
C582 C 0.83337 0.40515 0.72461 0.0
C583 C 0.84615 0.40294 0.6867 0.0
C584 C 0.83021 0.41642 0.68005 0.0
C585 C 0.84793 0.39719 0.70929 0.0
H586 H 0.80672 0.42486 0.72904 0.0
H587 H 0.82895 0.42097 0.66272 0.0
O588 O 0.75691 0.47438 0.67338 0.0
O589 O 0.80383 0.46977 0.67384 0.0
O590 O 0.77716 0.45071 0.71357 0.0
O591 O 0.77416 0.43192 0.66474 0.0
H592 H 0.76435 0.50416 0.64369 0.0
H593 H 0.72068 0.48229 0.69301 0.0
H594 H 0.74091 0.53401 0.63584 0.0
H595 H 0.69814 0.51265 0.68447 0.0
H596 H 0.86831 0.45915 0.64476 0.0
H597 H 0.82531 0.47375 0.71132 0.0
H598 H 0.82999 0.46207 0.64064 0.0
H599 H 0.86371 0.47056 0.71422 0.0
H600 H 0.7908 0.55327 0.69773 0.0
H601 H 0.80972 0.5191 0.75671 0.0
H602 H 0.7573 0.45341 0.57686 0.0
H603 H 0.80497 0.49965 0.58945 0.0
H604 H 0.77744 0.43019 0.752 0.0
H605 H 0.7503 0.48213 0.71697 0.0
H606 H 0.75579 0.439 0.78494 0.0
H607 H 0.72893 0.4899 0.75036 0.0
H608 H 0.77092 0.39933 0.69171 0.0
H609 H 0.79446 0.42052 0.62827 0.0
H610 H 0.78517 0.36409 0.68362 0.0
H611 H 0.80825 0.38489 0.62125 0.0
H612 H 0.684 0.42803 0.67238 0.0
H613 H 0.71414 0.39372 0.72554 0.0
H614 H 0.83393 0.40094 0.74212 0.0
H615 H 0.85717 0.3974 0.67435 0.0
Li616 Li 0.44298 0.24046 0.31486 0.0
Li617 Li 0.45492 0.21627 0.34537 0.0
Li618 Li 0.46951 0.21386 0.30691 0.0
Li619 Li 0.43443 0.20438 0.31432 0.0
C620 C 0.48367 0.25261 0.3362 0.0
N621 N 0.50905 0.28372 0.35293 0.0
C622 C 0.47911 0.2619 0.35677 0.0
C623 C 0.50122 0.25902 0.32423 0.0
C624 C 0.49211 0.27764 0.36492 0.0
C625 C 0.51383 0.27481 0.33294 0.0
C626 C 0.40697 0.21821 0.34224 0.0
C627 C 0.3841 0.19485 0.36211 0.0
N628 N 0.36765 0.2026 0.35045 0.0
C629 C 0.38985 0.22602 0.33052 0.0
C630 C 0.40411 0.20256 0.35822 0.0
C631 C 0.37009 0.21789 0.33489 0.0
C632 C 0.41738 0.26872 0.29275 0.0
N633 N 0.43266 0.26764 0.30842 0.0
C634 C 0.42916 0.30407 0.31622 0.0
C635 C 0.43887 0.28486 0.3199 0.0
C636 C 0.41286 0.30551 0.30063 0.0
C637 C 0.40728 0.28758 0.28851 0.0
H638 H 0.41255 0.25471 0.28409 0.0
H639 H 0.4509 0.28363 0.33238 0.0
C640 C 0.47898 0.20299 0.3817 0.0
N641 N 0.46161 0.21382 0.37599 0.0
C642 C 0.48476 0.20118 0.40411 0.0
C643 C 0.45459 0.22168 0.41427 0.0
C644 C 0.44936 0.22302 0.39167 0.0
C645 C 0.47256 0.21071 0.42076 0.0
H646 H 0.48837 0.19582 0.36879 0.0
H647 H 0.43568 0.23164 0.38656 0.0
C648 C 0.45036 0.23194 0.27009 0.0
N649 N 0.46237 0.2535 0.23222 0.0
C650 C 0.44207 0.22662 0.24926 0.0
C651 C 0.46472 0.24825 0.27167 0.0
C652 C 0.44835 0.2377 0.23031 0.0
C653 C 0.4706 0.25896 0.25233 0.0
C654 C 0.46406 0.17225 0.31725 0.0
C655 C 0.45979 0.16892 0.29462 0.0
C656 C 0.47318 0.15635 0.32988 0.0
C657 C 0.46473 0.14968 0.28499 0.0
C658 C 0.47789 0.13732 0.31963 0.0
N659 N 0.4736 0.13441 0.29759 0.0
C660 C 0.51179 0.20482 0.30488 0.0
C661 C 0.49485 0.2015 0.26986 0.0
C662 C 0.5302 0.19685 0.29593 0.0
N663 N 0.49456 0.20674 0.29189 0.0
C664 C 0.51296 0.19356 0.26017 0.0
C665 C 0.53082 0.19075 0.27338 0.0
H666 H 0.51097 0.20881 0.32243 0.0
H667 H 0.4808 0.20256 0.26002 0.0
C668 C 0.40072 0.1906 0.28847 0.0
N669 N 0.41307 0.18535 0.30601 0.0
C670 C 0.38587 0.17656 0.28054 0.0
C671 C 0.39642 0.15215 0.30922 0.0
C672 C 0.41098 0.16674 0.3167 0.0
C673 C 0.38385 0.15684 0.29064 0.0
H674 H 0.40267 0.2056 0.28044 0.0
H675 H 0.421 0.16303 0.33066 0.0
O676 O 0.47135 0.23693 0.32807 0.0
O677 O 0.4265 0.22556 0.33779 0.0
O678 O 0.44432 0.2211 0.2887 0.0
O679 O 0.45957 0.19101 0.32709 0.0
H680 H 0.46554 0.25721 0.36619 0.0
H681 H 0.50508 0.25186 0.30837 0.0
H682 H 0.48871 0.28504 0.38075 0.0
H683 H 0.52743 0.27996 0.32382 0.0
H684 H 0.38165 0.18265 0.37434 0.0
H685 H 0.39183 0.23808 0.31804 0.0
H686 H 0.41725 0.19625 0.3673 0.0
H687 H 0.3567 0.2237 0.32586 0.0
H688 H 0.43406 0.31754 0.32581 0.0
H689 H 0.39458 0.28786 0.27662 0.0
H690 H 0.49856 0.19233 0.40833 0.0
H691 H 0.44489 0.22952 0.42647 0.0
H692 H 0.43093 0.21401 0.24777 0.0
H693 H 0.47121 0.25269 0.2876 0.0
H694 H 0.44208 0.23372 0.21408 0.0
H695 H 0.4817 0.27163 0.25332 0.0
H696 H 0.45277 0.18103 0.28454 0.0
H697 H 0.47662 0.15871 0.34741 0.0
H698 H 0.46152 0.14689 0.26749 0.0
H699 H 0.48496 0.12487 0.32921 0.0
H700 H 0.54366 0.19503 0.30664 0.0
H701 H 0.51268 0.18871 0.24284 0.0
H702 H 0.37628 0.18099 0.26643 0.0
H703 H 0.3956 0.13709 0.31739 0.0
Li704 Li 0.71605 0.97301 0.80332 0.0
Li705 Li 0.71847 0.95956 0.84167 0.0
Li706 Li 0.74128 0.94661 0.81205 0.0
Li707 Li 0.70428 0.93766 0.81264 0.0
C708 C 0.75988 0.98018 0.82725 0.0
N709 N 0.8018 0.9881 0.83288 0.0
C710 C 0.76901 0.97808 0.84833 0.0
C711 C 0.77201 0.98649 0.80908 0.0
C712 C 0.79025 0.98212 0.85083 0.0
C713 C 0.7932 0.99036 0.81225 0.0
C714 C 0.68009 0.97428 0.8379 0.0
C715 C 0.6581 0.97379 0.87057 0.0
N716 N 0.65491 0.99468 0.86832 0.0
C717 C 0.67653 0.99573 0.83584 0.0
C718 C 0.67073 0.96319 0.85533 0.0
C719 C 0.66376 0.00576 0.85141 0.0
C720 C 0.69221 0.99641 0.77306 0.0
N721 N 0.70932 0.99714 0.78639 0.0
C722 C 0.71345 0.03362 0.77929 0.0
C723 C 0.7201 0.01516 0.78953 0.0
C724 C 0.69575 0.03329 0.76554 0.0
C725 C 0.68531 0.01434 0.76213 0.0
H726 H 0.68347 0.98206 0.77157 0.0
H727 H 0.73337 0.01537 0.80064 0.0
C728 C 0.72006 0.95215 0.88825 0.0
N729 N 0.71721 0.96704 0.87239 0.0
C730 C 0.71928 0.9574 0.91088 0.0
C731 C 0.71265 0.99324 0.90039 0.0
C732 C 0.71389 0.98733 0.87797 0.0
C733 C 0.71539 0.97819 0.91727 0.0
H734 H 0.72314 0.93621 0.88333 0.0
H735 H 0.71209 0.99892 0.86498 0.0
C736 C 0.71853 0.95181 0.76517 0.0
N737 N 0.71162 0.96372 0.72142 0.0
C738 C 0.70068 0.94506 0.75394 0.0
C739 C 0.73294 0.96447 0.75411 0.0
C740 C 0.69746 0.95128 0.73183 0.0
C741 C 0.72914 0.97037 0.73201 0.0
C742 C 0.72179 0.90991 0.83859 0.0
C743 C 0.7335 0.89461 0.82767 0.0
C744 C 0.70532 0.904 0.85248 0.0
C745 C 0.72843 0.87359 0.83073 0.0
C746 C 0.70072 0.88282 0.85506 0.0
N747 N 0.71227 0.86818 0.84423 0.0
C748 C 0.78001 0.93027 0.82433 0.0
C749 C 0.77435 0.93117 0.78518 0.0
C750 C 0.79886 0.91985 0.82133 0.0
N751 N 0.76815 0.93553 0.80639 0.0
C752 C 0.79306 0.92063 0.7814 0.0
C753 C 0.80541 0.91454 0.79966 0.0
H754 H 0.7744 0.93347 0.84103 0.0
H755 H 0.76444 0.9352 0.77125 0.0
C756 C 0.66414 0.92002 0.81162 0.0
N757 N 0.68425 0.91684 0.80554 0.0
C758 C 0.64884 0.90559 0.80577 0.0
C759 C 0.67525 0.88478 0.78753 0.0
C760 C 0.69005 0.89968 0.7937 0.0
C761 C 0.65428 0.88771 0.79345 0.0
H762 H 0.65988 0.93401 0.82059 0.0
H763 H 0.70613 0.89773 0.78878 0.0
O764 O 0.73922 0.97592 0.82438 0.0
O765 O 0.69275 0.96422 0.82299 0.0
O766 O 0.72187 0.94604 0.78688 0.0
O767 O 0.72625 0.93059 0.83549 0.0
H768 H 0.75984 0.97317 0.86257 0.0
H769 H 0.76514 0.98825 0.79267 0.0
H770 H 0.79755 0.98044 0.86701 0.0
H771 H 0.8028 0.99514 0.79831 0.0
H772 H 0.65088 0.96543 0.88424 0.0
H773 H 0.68364 0.00459 0.8225 0.0
H774 H 0.6734 0.94661 0.85723 0.0
H775 H 0.66093 0.02236 0.85007 0.0
H776 H 0.72176 0.04804 0.78241 0.0
H777 H 0.67134 0.01361 0.75202 0.0
H778 H 0.72201 0.94533 0.92319 0.0
H779 H 0.70937 0.00939 0.90436 0.0
H780 H 0.68934 0.9353 0.76226 0.0
H781 H 0.74682 0.96983 0.76258 0.0
H782 H 0.68367 0.94627 0.72296 0.0
H783 H 0.7401 0.98027 0.72329 0.0
H784 H 0.74621 0.89889 0.81674 0.0
H785 H 0.69605 0.91566 0.86098 0.0
H786 H 0.7373 0.86158 0.8223 0.0
H787 H 0.68793 0.87803 0.86565 0.0
H788 H 0.80769 0.91511 0.83589 0.0
H789 H 0.79759 0.91689 0.76443 0.0
H790 H 0.63283 0.90876 0.81027 0.0
H791 H 0.68017 0.87118 0.77816 0.0
Li792 Li 0.93534 0.29322 0.18508 0.0
Li793 Li 0.97015 0.28361 0.19541 0.0
Li794 Li 0.95687 0.27962 0.15551 0.0
Li795 Li 0.94387 0.25726 0.18571 0.0
C796 C 0.95698 0.32563 0.17162 0.0
N797 N 0.94543 0.36708 0.16897 0.0
C798 C 0.96174 0.33932 0.18908 0.0
C799 C 0.94657 0.33302 0.15272 0.0
C800 C 0.95571 0.36022 0.18744 0.0
C801 C 0.94081 0.35404 0.15172 0.0
C802 C 0.94869 0.26694 0.23116 0.0
C803 C 0.96793 0.24068 0.25134 0.0
N804 N 0.95835 0.24667 0.27057 0.0
C805 C 0.939 0.2728 0.2511 0.0
C806 C 0.96325 0.25074 0.23125 0.0
C807 C 0.9441 0.26237 0.27086 0.0
C808 C 0.90002 0.31978 0.17704 0.0
N809 N 0.91508 0.31401 0.19178 0.0
C810 C 0.90436 0.34029 0.21758 0.0
C811 C 0.91728 0.32367 0.21185 0.0
C812 C 0.88885 0.34682 0.20263 0.0
C813 C 0.88649 0.33618 0.18227 0.0
H814 H 0.89881 0.31195 0.16108 0.0
H815 H 0.92949 0.31878 0.22314 0.0
C816 C 0.01282 0.29055 0.20245 0.0
N817 N 0.99382 0.29123 0.21236 0.0
C818 C 0.03025 0.29856 0.21346 0.0
C819 C 0.00827 0.30709 0.24497 0.0
C820 C 0.99126 0.29915 0.23325 0.0
C821 C 0.02804 0.30734 0.23489 0.0
H822 H 0.01428 0.2845 0.18564 0.0
H823 H 0.9759 0.29997 0.24055 0.0
C824 C 0.90727 0.2661 0.16384 0.0
N825 N 0.86641 0.25303 0.16727 0.0
C826 C 0.89692 0.26708 0.18438 0.0
C827 C 0.89685 0.25841 0.14507 0.0
C828 C 0.87627 0.26042 0.18576 0.0
C829 C 0.87618 0.2519 0.14714 0.0
C830 C 0.9844 0.24305 0.16765 0.0
C831 C 0.98073 0.23395 0.14678 0.0
C832 C 0.00055 0.2355 0.18106 0.0
C833 C 0.99302 0.21716 0.13986 0.0
C834 C 0.01249 0.21867 0.17355 0.0
N835 N 0.0085 0.20991 0.15328 0.0
C836 C 0.98547 0.28216 0.12017 0.0
C837 C 0.95013 0.28025 0.10894 0.0
C838 C 0.99199 0.28238 0.09792 0.0
N839 N 0.96488 0.28098 0.12517 0.0
C840 C 0.95595 0.28044 0.08645 0.0
C841 C 0.97714 0.2814 0.08069 0.0
H842 H 0.99682 0.28262 0.13352 0.0
H843 H 0.93387 0.27944 0.11348 0.0
C844 C 0.92041 0.22681 0.20942 0.0
N845 N 0.93299 0.22992 0.19143 0.0
C846 C 0.90991 0.20791 0.21215 0.0
C847 C 0.92578 0.19549 0.17806 0.0
C848 C 0.93584 0.21469 0.17591 0.0
C849 C 0.91224 0.19204 0.19613 0.0
H850 H 0.91765 0.23935 0.22111 0.0
H851 H 0.94516 0.21771 0.16131 0.0
O852 O 0.96212 0.30499 0.17323 0.0
O853 O 0.94384 0.27714 0.21175 0.0
O854 O 0.92764 0.27215 0.16208 0.0
O855 O 0.97292 0.25988 0.1745 0.0
H856 H 0.96976 0.33377 0.20385 0.0
H857 H 0.94273 0.32256 0.13911 0.0
H858 H 0.95912 0.37097 0.2009 0.0
H859 H 0.93259 0.35997 0.13727 0.0
H860 H 0.97916 0.2281 0.25163 0.0
H861 H 0.92766 0.28531 0.2513 0.0
H862 H 0.97073 0.24587 0.21598 0.0
H863 H 0.93674 0.26677 0.28643 0.0
H864 H 0.90652 0.34805 0.2335 0.0
H865 H 0.87477 0.34091 0.17028 0.0
H866 H 0.04507 0.2987 0.20484 0.0
H867 H 0.00582 0.3134 0.26154 0.0
H868 H 0.90474 0.27279 0.19915 0.0
H869 H 0.90467 0.25738 0.12909 0.0
H870 H 0.8681 0.26107 0.20155 0.0
H871 H 0.86793 0.2459 0.13275 0.0
H872 H 0.96839 0.23966 0.13611 0.0
H873 H 0.00392 0.24262 0.19706 0.0
H874 H 0.99025 0.20988 0.12382 0.0
H875 H 0.02499 0.21263 0.18379 0.0
H876 H 0.00849 0.28289 0.09425 0.0
H877 H 0.94398 0.27996 0.07372 0.0
H878 H 0.89926 0.20621 0.22606 0.0
H879 H 0.92815 0.1837 0.16534 0.0
Li880 Li 0.25639 0.05112 0.81164 0.0
Li881 Li 0.29343 0.06102 0.81558 0.0
Li882 Li 0.28221 0.0261 0.80324 0.0
Li883 Li 0.27571 0.03699 0.84248 0.0
C884 C 0.28269 0.04893 0.76644 0.0
N885 N 0.29328 0.03864 0.72305 0.0
C886 C 0.30054 0.05741 0.75666 0.0
C887 C 0.27007 0.03544 0.75404 0.0
C888 C 0.30567 0.05197 0.73473 0.0
C889 C 0.27574 0.03035 0.73217 0.0
C890 C 0.27648 0.08034 0.85284 0.0
C891 C 0.30131 0.08987 0.88127 0.0
N892 N 0.2903 0.1076 0.8854 0.0
C893 C 0.26541 0.09865 0.85733 0.0
C894 C 0.29458 0.07591 0.86486 0.0
C895 C 0.27265 0.11223 0.87387 0.0
C896 C 0.21909 0.07102 0.82174 0.0
N897 N 0.22993 0.06251 0.80451 0.0
C898 C 0.20407 0.07367 0.77843 0.0
C899 C 0.22275 0.0634 0.78317 0.0
C900 C 0.19282 0.08319 0.79583 0.0
C901 C 0.20041 0.08144 0.81778 0.0
H902 H 0.22529 0.07017 0.83853 0.0
H903 H 0.23175 0.0566 0.76977 0.0
C904 C 0.33359 0.07355 0.80577 0.0
N905 N 0.31471 0.08119 0.81183 0.0
C906 C 0.35014 0.08705 0.80169 0.0
C907 C 0.32755 0.1162 0.81015 0.0
C908 C 0.31136 0.10205 0.81409 0.0
C909 C 0.34727 0.10871 0.80381 0.0
H910 H 0.33564 0.05691 0.80361 0.0
H911 H 0.29609 0.10771 0.81867 0.0
C912 C 0.23633 0.0177 0.82159 0.0
N913 N 0.19374 0.01192 0.82073 0.0
C914 C 0.2245 0.02114 0.84084 0.0
C915 C 0.22654 0.01115 0.80195 0.0
C916 C 0.20298 0.01817 0.84006 0.0
C917 C 0.20498 0.00836 0.80184 0.0
C918 C 0.31852 0.02239 0.83548 0.0
C919 C 0.31842 0.00062 0.8337 0.0
C920 C 0.33519 0.03233 0.84609 0.0
C921 C 0.33489 0.98915 0.84273 0.0
C922 C 0.35136 0.02031 0.85492 0.0
N923 N 0.35088 -0.00085 0.85307 0.0
C924 C 0.31154 0.00658 0.77652 0.0
C925 C 0.28165 0.98562 0.78256 0.0
C926 C 0.32117 0.99054 0.76472 0.0
N927 N 0.29222 0.00383 0.78524 0.0
C928 C 0.2908 0.96902 0.77096 0.0
C929 C 0.31099 0.97127 0.76217 0.0
H930 H 0.31967 0.02115 0.77923 0.0
H931 H 0.26644 0.98377 0.79003 0.0
C932 C 0.26406 0.04005 0.88823 0.0
N933 N 0.27437 0.02811 0.87302 0.0
C934 C 0.26312 0.03397 0.91062 0.0
C935 C 0.2827 0.003 0.9012 0.0
C936 C 0.28321 0.00966 0.879 0.0
C937 C 0.27269 0.01528 0.91742 0.0
H938 H 0.25643 0.05426 0.88298 0.0
H939 H 0.29056 1e-05 0.86656 0.0
O940 O 0.27759 0.05383 0.78803 0.0
O941 O 0.26971 0.06708 0.83647 0.0
O942 O 0.25733 0.0211 0.82188 0.0
O943 O 0.30274 0.03396 0.82634 0.0
H944 H 0.31035 0.06806 0.76589 0.0
H945 H 0.25625 0.02869 0.76136 0.0
H946 H 0.31949 0.05834 0.72699 0.0
H947 H 0.26623 0.01977 0.72247 0.0
H948 H 0.31528 0.0866 0.89074 0.0
H949 H 0.25141 0.10235 0.84808 0.0
H950 H 0.30324 0.06178 0.86167 0.0
H951 H 0.26425 0.12647 0.87752 0.0
H952 H 0.19871 0.07447 0.76129 0.0
H953 H 0.1925 0.08882 0.83168 0.0
H954 H 0.36489 0.08057 0.79632 0.0
H955 H 0.32468 0.13277 0.81202 0.0
H956 H 0.23183 0.02629 0.85615 0.0
H957 H 0.23546 0.00839 0.78691 0.0
H958 H 0.19361 0.02091 0.85479 0.0
H959 H 0.19717 0.00341 0.78672 0.0
H960 H 0.3056 0.9926 0.82577 0.0
H961 H 0.33571 0.04916 0.84746 0.0
H962 H 0.33493 0.9723 0.84157 0.0
H963 H 0.36432 0.02781 0.8632 0.0
H964 H 0.33659 0.99312 0.75795 0.0
H965 H 0.28249 0.95437 0.76963 0.0
H966 H 0.25478 0.04369 0.92242 0.0
H967 H 0.29033 0.9885 0.90563 0.0
Li968 Li 0.02519 0.71738 0.19501 0.0
Li969 Li 0.06019 0.70412 0.18543 0.0
Li970 Li 0.05321 0.74078 0.18962 0.0
Li971 Li 0.03852 0.72217 0.157 0.0
C972 C 0.06138 0.72825 0.22972 0.0
N973 N 0.08317 0.74906 0.2627 0.0
C974 C 0.08262 0.72444 0.23271 0.0
C975 C 0.05118 0.74252 0.2436 0.0
C976 C 0.09336 0.73514 0.24946 0.0
C977 C 0.06249 0.75292 0.26014 0.0
C978 C 0.02874 0.67498 0.1732 0.0
C979 C 0.02627 0.64149 0.1549 0.0
N980 N 0.02028 0.63266 0.17455 0.0
C981 C 0.02243 0.66558 0.19317 0.0
C982 C 0.03055 0.66285 0.15386 0.0
C983 C 0.01828 0.64417 0.19353 0.0
C984 C 0.98397 0.70452 0.19674 0.0
N985 N 0.00012 0.71028 0.21001 0.0
C986 C 0.98104 0.70088 0.24279 0.0
C987 C -0.00104 0.70889 0.23265 0.0
C988 C 0.9643 0.69421 0.22942 0.0
C989 C 0.96577 0.69662 0.20613 0.0
H990 H 0.98552 0.70545 0.17877 0.0
H991 H 0.01223 0.71319 0.24275 0.0
C992 C 0.09913 0.68162 0.18203 0.0
N993 N 0.07981 0.68225 0.19136 0.0
C994 C 0.11284 0.66539 0.18721 0.0
C995 C 0.08695 0.65126 0.21226 0.0
C996 C 0.07383 0.66779 0.20668 0.0
C997 C 0.1067 0.64981 0.20234 0.0
H998 H 0.10414 0.69378 0.1708 0.0
H999 H 0.05897 0.66929 0.21493 0.0
C1000 C 0.00515 0.75006 0.17967 0.0
N1001 N 0.96442 0.76232 0.18648 0.0
C1002 C 0.99058 0.74823 0.16244 0.0
C1003 C -0.00093 0.75834 0.20028 0.0
C1004 C 0.97004 0.75447 0.16624 0.0
C1005 C 0.97839 0.76437 0.20342 0.0
C1006 C 0.08071 0.72091 0.14713 0.0
C1007 C 0.09675 0.73391 0.13969 0.0
C1008 C 0.07687 0.70207 0.1361 0.0
C1009 C 0.10881 0.72773 0.12142 0.0
C1010 C 0.08925 0.69644 0.11789 0.0
N1011 N 0.10484 0.70928 0.11099 0.0
C1012 C 0.08778 0.76533 0.19717 0.0
C1013 C 0.05634 0.78333 0.20484 0.0
C1014 C 0.09942 0.78292 0.20266 0.0
N1015 N 0.06669 0.76585 0.19831 0.0
C1016 C 0.06742 0.80138 0.21054 0.0
C1017 C 0.08928 0.80131 0.20942 0.0
H1018 H 0.09555 0.7512 0.19183 0.0
H1019 H 0.03954 0.78331 0.20553 0.0
C1020 C 0.01601 0.70949 0.11943 0.0
N1021 N 0.03103 0.72289 0.12645 0.0
C1022 C 0.01009 0.70906 0.09702 0.0
C1023 C 0.03503 0.73647 0.08953 0.0
C1024 C 0.04048 0.73635 0.11213 0.0
C1025 C 0.01966 0.72265 0.0817 0.0
H1026 H 0.00864 0.69912 0.13129 0.0
H1027 H 0.05226 0.74696 0.11827 0.0
O1028 O 0.05073 0.71837 0.21301 0.0
O1029 O 0.0326 0.69601 0.17239 0.0
O1030 O 0.02525 0.74373 0.17638 0.0
O1031 O 0.06847 0.72699 0.16466 0.0
H1032 H 0.09077 0.71353 0.22204 0.0
H1033 H 0.03477 0.74569 0.24146 0.0
H1034 H 0.10983 0.73245 0.25188 0.0
H1035 H 0.05483 0.76411 0.27091 0.0
H1036 H 0.02765 0.63193 0.14006 0.0
H1037 H 0.02102 0.67461 0.20835 0.0
H1038 H 0.03514 0.66983 0.13815 0.0
H1039 H 0.01351 0.6367 0.20891 0.0
H1040 H 0.98069 0.69907 0.26077 0.0
H1041 H 0.95317 0.692 0.19519 0.0
H1042 H 0.12802 0.66497 0.17935 0.0
H1043 H 0.08185 0.63996 0.22456 0.0
H1044 H 0.99504 0.74195 0.14636 0.0
H1045 H 0.01014 0.75979 0.2138 0.0
H1046 H 0.95857 0.75305 0.1531 0.0
H1047 H 0.97343 0.77064 0.21935 0.0
H1048 H 0.09979 0.74865 0.14792 0.0
H1049 H 0.06453 0.69189 0.14164 0.0
H1050 H 0.12129 0.73762 0.11549 0.0
H1051 H 0.08647 0.68187 0.10925 0.0
H1052 H 0.1162 0.78223 0.2011 0.0
H1053 H 0.05898 0.81518 0.21577 0.0
H1054 H 0.99835 0.698 0.09171 0.0
H1055 H 0.0426 0.74742 0.07839 0.0
Li1056 Li 0.69929 0.05838 0.18562 0.0
Li1057 Li 0.73658 0.05075 0.18563 0.0
Li1058 Li 0.71396 0.03697 0.15639 0.0
Li1059 Li 0.71253 0.02361 0.19479 0.0
C1060 C 0.71547 0.08669 0.15917 0.0
N1061 N 0.70454 0.12802 0.15304 0.0
C1062 C 0.72684 0.10252 0.16964 0.0
C1063 C 0.6986 0.09188 0.1455 0.0
C1064 C 0.72106 0.12332 0.16633 0.0
C1065 C 0.69329 0.11286 0.14265 0.0
C1066 C 0.71383 0.04439 0.23262 0.0
C1067 C 0.72432 0.02568 0.26574 0.0
N1068 N 0.70603 0.03096 0.2757 0.0
C1069 C 0.69517 0.0497 0.24321 0.0
C1070 C 0.72859 0.03237 0.244 0.0
C1071 C 0.69152 0.04274 0.26499 0.0
C1072 C 0.65827 0.07355 0.1888 0.0
N1073 N 0.67848 0.07828 0.19317 0.0
C1074 C 0.66844 0.10994 0.21139 0.0
C1075 C 0.68382 0.09605 0.20421 0.0
C1076 C 0.64741 0.10523 0.20752 0.0
C1077 C 0.64241 0.08688 0.19584 0.0
H1078 H 0.65442 0.05915 0.18039 0.0
H1079 H 0.69998 0.09913 0.20798 0.0
C1080 C 0.77389 0.06902 0.17223 0.0
N1081 N 0.76328 0.06249 0.19058 0.0
C1082 C 0.79297 0.07911 0.17454 0.0
C1083 C 0.79002 0.07535 0.21464 0.0
C1084 C 0.77094 0.06529 0.21153 0.0
C1085 C 0.80118 0.08264 0.19599 0.0
H1086 H 0.76721 0.06684 0.1558 0.0
H1087 H 0.76206 0.06012 0.22583 0.0
C1088 C 0.67619 0.02101 0.16066 0.0
N1089 N 0.65133 -2e-05 0.13045 0.0
C1090 C 0.67374 -0.00062 0.16231 0.0
C1091 C 0.6659 0.03196 0.14374 0.0
C1092 C 0.6611 0.98903 0.14686 0.0
C1093 C 0.65344 0.02104 0.12859 0.0
C1094 C 0.75633 0.01825 0.17016 0.0
C1095 C 0.76497 0.02062 0.14887 0.0
C1096 C 0.76914 0.01305 0.1882 0.0
C1097 C 0.78638 0.01789 0.14602 0.0
C1098 C 0.79047 0.01049 0.18467 0.0
N1099 N 0.79858 0.01295 0.16383 0.0
C1100 C 0.71523 0.0445 0.10985 0.0
C1101 C 0.71017 0.00911 0.12002 0.0
C1102 C 0.71498 0.03924 0.08721 0.0
N1103 N 0.71273 0.0295 0.12567 0.0
C1104 C 0.70947 0.00319 0.09758 0.0
C1105 C 0.712 0.01832 0.08075 0.0
H1106 H 0.71775 0.06052 0.11482 0.0
H1107 H 0.7087 0.99744 0.13297 0.0
C1108 C 0.68843 -0.00088 0.22341 0.0
N1109 N 0.70684 -0.00045 0.21224 0.0
C1110 C 0.68256 0.9814 0.23535 0.0
C1111 C 0.71463 0.96475 0.22392 0.0
C1112 C 0.71999 0.98293 0.21236 0.0
C1113 C 0.6956 0.96381 0.23546 0.0
H1114 H 0.67808 0.01241 0.22255 0.0
H1115 H 0.73439 0.98361 0.20304 0.0
O1116 O 0.72068 0.06622 0.16245 0.0
O1117 O 0.71757 0.05077 0.21118 0.0
O1118 O 0.68869 0.03141 0.17545 0.0
O1119 O 0.73549 0.02133 0.1734 0.0
H1120 H 0.73984 0.09879 0.1804 0.0
H1121 H 0.68961 0.07982 0.13733 0.0
H1122 H 0.72966 0.13573 0.1744 0.0
H1123 H 0.68022 0.1171 0.13221 0.0
H1124 H 0.73553 0.01624 0.27468 0.0
H1125 H 0.68355 0.05892 0.23465 0.0
H1126 H 0.74304 0.028 0.23599 0.0
H1127 H 0.67711 0.04665 0.27335 0.0
H1128 H 0.67291 0.12377 0.22064 0.0
H1129 H 0.62638 0.08275 0.19245 0.0
H1130 H 0.80079 0.08481 0.15972 0.0
H1131 H 0.79583 0.07763 0.23145 0.0
H1132 H 0.68164 0.99063 0.17522 0.0
H1133 H 0.66769 0.04869 0.14218 0.0
H1134 H 0.65913 0.97229 0.14788 0.0
H1135 H 0.6455 0.0293 0.11533 0.0
H1136 H 0.7553 0.02472 0.13474 0.0
H1137 H 0.7627 0.01126 0.2048 0.0
H1138 H 0.79331 0.01977 0.12967 0.0
H1139 H 0.8006 0.0066 0.1985 0.0
H1140 H 0.71751 0.05141 0.07495 0.0
H1141 H 0.70689 0.98692 0.09355 0.0
H1142 H 0.66757 0.98117 0.24364 0.0
H1143 H 0.72509 0.95149 0.22361 0.0
Li1144 Li 0.04009 0.27927 0.84276 0.0
Li1145 Li 0.05268 0.25876 0.81089 0.0
Li1146 Li 0.06076 0.29711 0.81418 0.0
Li1147 Li 0.02582 0.28528 0.80382 0.0
C1148 C 0.08118 0.27067 0.85267 0.0
N1149 N 0.10453 0.26442 0.8909 0.0
C1150 C 0.08792 0.25061 0.85839 0.0
C1151 C 0.08661 0.28758 0.86623 0.0
C1152 C 0.09963 0.24776 0.87782 0.0
C1153 C 0.09833 0.2841 0.88553 0.0
C1154 C 0.01449 0.24093 0.8231 0.0
C1155 C 0.99515 0.214 0.80407 0.0
N1156 N 0.99541 0.20226 0.82302 0.0
C1157 C 0.01428 0.22875 0.84248 0.0
C1158 C 0.0046 0.23364 0.80382 0.0
C1159 C 0.00467 0.20918 0.84206 0.0
C1160 C 0.01955 0.29366 0.88118 0.0
N1161 N 0.03283 0.2787 0.87367 0.0
C1162 C 0.03483 0.2636 0.91015 0.0
C1163 C 0.04029 0.26366 0.88756 0.0
C1164 C 0.0214 0.27908 0.91848 0.0
C1165 C 0.01368 0.2942 0.90363 0.0
H1166 H 0.01342 0.30513 0.86969 0.0
H1167 H 0.05035 0.25158 0.88111 0.0
C1168 C 0.07619 0.23198 0.78346 0.0
N1169 N 0.06414 0.23254 0.80213 0.0
C1170 C 0.08702 0.21385 0.77779 0.0
C1171 C 0.07268 0.19706 0.81051 0.0
C1172 C 0.06206 0.2155 0.81549 0.0
C1173 C 0.08572 0.1962 0.79167 0.0
H1174 H 0.07803 0.24586 0.77339 0.0
H1175 H 0.05309 0.21652 0.83069 0.0
C1176 C 0.03509 0.32672 0.83194 0.0
N1177 N 0.03832 0.36885 0.84137 0.0
C1178 C 0.02605 0.34145 0.8177 0.0
C1179 C 0.04544 0.33342 0.85119 0.0
C1180 C 0.02795 0.36268 0.82269 0.0
C1181 C 0.04699 0.35478 0.85561 0.0
C1182 C 0.04846 0.27898 0.76502 0.0
C1183 C 0.05492 0.29458 0.75022 0.0
C1184 C 0.03817 0.26138 0.75679 0.0
C1185 C 0.05058 0.29248 0.72745 0.0
C1186 C 0.03414 0.25984 0.7339 0.0
N1187 N 0.04034 0.27531 0.71983 0.0
C1188 C 0.10003 0.31807 0.81658 0.0
C1189 C 0.07394 0.3343 0.79462 0.0
C1190 C 0.11398 0.33422 0.81181 0.0
N1191 N 0.08038 0.31856 0.80816 0.0
C1192 C 0.08728 0.35076 0.7895 0.0
C1193 C 0.10758 0.35093 0.79821 0.0
H1194 H 0.10492 0.30513 0.82691 0.0
H1195 H 0.05843 0.33398 0.78765 0.0
C1196 C 0.98284 0.28589 0.79339 0.0
N1197 N 0.00187 0.29317 0.78725 0.0
C1198 C 0.96489 0.29359 0.7831 0.0
C1199 C 0.98652 0.31575 0.76009 0.0
C1200 C 0.00401 0.30768 0.77084 0.0
C1201 C 0.96659 0.309 0.76647 0.0
H1202 H 0.98157 0.27462 0.80678 0.0
H1203 H 0.01924 0.31375 0.76684 0.0
O1204 O 0.06961 0.27373 0.83374 0.0
O1205 O 0.02375 0.26017 0.82325 0.0
O1206 O 0.03357 0.30586 0.82721 0.0
O1207 O 0.05239 0.28087 0.78741 0.0
H1208 H 0.0841 0.23737 0.848 0.0
H1209 H 0.08197 0.30325 0.86182 0.0
H1210 H 0.10484 0.23231 0.8825 0.0
H1211 H 0.10256 0.29705 0.89621 0.0
H1212 H 0.98751 0.20813 0.78924 0.0
H1213 H 0.02164 0.23424 0.85762 0.0
H1214 H 0.004 0.24311 0.78889 0.0
H1215 H 0.00458 0.19951 0.85688 0.0
H1216 H 0.0412 0.25168 0.921 0.0
H1217 H 0.00294 0.30616 0.9092 0.0
H1218 H 0.09678 0.21386 0.76303 0.0
H1219 H 0.07156 0.18402 0.82197 0.0
H1220 H 0.01779 0.33659 0.80287 0.0
H1221 H 0.05203 0.32226 0.86271 0.0
H1222 H 0.02117 0.37425 0.8117 0.0
H1223 H 0.05502 0.36016 0.87042 0.0
H1224 H 0.06311 0.30821 0.75626 0.0
H1225 H 0.03355 0.24894 0.76792 0.0
H1226 H 0.05537 0.3045 0.71584 0.0
H1227 H 0.02614 0.24631 0.72732 0.0
H1228 H 0.1295 0.33375 0.81884 0.0
H1229 H 0.08186 0.36305 0.77852 0.0
H1230 H 0.94982 0.28789 0.78845 0.0
H1231 H 0.98856 0.32793 0.74771 0.0
Li1232 Li 0.27879 0.95593 0.15617 0.0
Li1233 Li 0.2829 0.97311 0.19221 0.0
Li1234 Li 0.29537 0.93738 0.18618 0.0
Li1235 Li 0.25826 0.94513 0.18861 0.0
C1236 C 0.32584 0.96109 0.17295 0.0
N1237 N 0.36817 0.95484 0.17768 0.0
C1238 C 0.33691 0.97176 0.1895 0.0
C1239 C 0.33632 0.94726 0.15878 0.0
C1240 C 0.35831 0.96841 0.1916 0.0
C1241 C 0.35771 0.94429 0.16146 0.0
C1242 C 0.25138 0.99238 0.17357 0.0
C1243 C 0.23464 0.02106 0.19251 0.0
N1244 N 0.24024 0.034 0.17552 0.0
C1245 C 0.25689 0.00593 0.15624 0.0
C1246 C 0.24008 -5e-05 0.19181 0.0
C1247 C 0.25113 0.02693 0.15755 0.0
C1248 C 0.25919 0.96217 0.11447 0.0
N1249 N 0.27797 0.96095 0.12484 0.0
C1250 C 0.29561 0.96911 0.09082 0.0
C1251 C 0.29601 0.96426 0.11355 0.0
C1252 C 0.27644 0.97077 0.07964 0.0
C1253 C 0.25806 0.96703 0.09175 0.0
H1254 H 0.24508 0.95977 0.12399 0.0
H1255 H 0.3107 0.96348 0.12225 0.0
C1256 C 0.28853 0.00209 0.22806 0.0
N1257 N 0.28967 -0.00089 0.2056 0.0
C1258 C 0.29594 0.0206 0.23754 0.0
C1259 C 0.30506 0.03269 0.20053 0.0
C1260 C 0.29754 0.01399 0.1918 0.0
C1261 C 0.30473 0.03602 0.22374 0.0
H1262 H 0.28258 0.98982 0.23868 0.0
H1263 H 0.29858 0.01101 0.17405 0.0
C1264 C 0.26717 0.9181 0.14711 0.0
N1265 N 0.25525 0.90176 0.10634 0.0
C1266 C 0.24607 0.91554 0.14211 0.0
C1267 C 0.2822 0.91227 0.13141 0.0
C1268 C 0.24037 0.90725 0.1214 0.0
C1269 C 0.27586 0.90408 0.11087 0.0
C1270 C 0.27048 0.94148 0.23078 0.0
C1271 C 0.27594 0.92191 0.2393 0.0
C1272 C 0.25481 0.95309 0.24119 0.0
C1273 C 0.26547 0.91419 0.25802 0.0
C1274 C 0.24468 0.9448 0.25985 0.0
N1275 N 0.25018 0.92568 0.2678 0.0
C1276 C 0.32854 0.92259 0.21215 0.0
C1277 C 0.31834 0.89946 0.18323 0.0
C1278 C 0.34402 0.90876 0.21908 0.0
N1279 N 0.31619 0.91777 0.19447 0.0
C1280 C 0.33364 0.88514 0.1896 0.0
C1281 C 0.34671 0.88971 0.20778 0.0
H1282 H 0.32634 0.93722 0.22087 0.0
H1283 H 0.3081 0.89591 0.16943 0.0
C1284 C 0.21416 0.94375 0.19548 0.0
N1285 N 0.23254 0.93349 0.19793 0.0
C1286 C 0.19545 0.9338 0.20096 0.0
C1287 C 0.21515 0.90328 0.21191 0.0
C1288 C 0.23334 0.91361 0.20581 0.0
C1289 C 0.19589 0.91329 0.20926 0.0
H1290 H 0.21398 0.95941 0.18873 0.0
H1291 H 0.24813 0.90563 0.20687 0.0
O1292 O 0.3048 0.96382 0.17091 0.0
O1293 O 0.2572 0.97185 0.1728 0.0
O1294 O 0.27307 0.92665 0.16707 0.0
O1295 O 0.28034 0.94919 0.21227 0.0
H1296 H 0.32908 0.98234 0.20078 0.0
H1297 H 0.32796 0.93861 0.14611 0.0
H1298 H 0.36705 0.97651 0.20438 0.0
H1299 H 0.36598 0.93353 0.15072 0.0
H1300 H 0.22598 0.02715 0.20658 0.0
H1301 H 0.26574 0.00036 0.14206 0.0
H1302 H 0.23567 0.98966 0.20534 0.0
H1303 H 0.25539 0.03762 0.14432 0.0
H1304 H 0.31018 0.97161 0.08212 0.0
H1305 H 0.24293 0.96844 0.08393 0.0
H1306 H 0.29563 0.02241 0.25554 0.0
H1307 H 0.31148 0.04424 0.18925 0.0
H1308 H 0.23422 0.92008 0.15399 0.0
H1309 H 0.29859 0.91436 0.1349 0.0
H1310 H 0.2241 0.90525 0.11728 0.0
H1311 H 0.28732 0.89964 0.09851 0.0
H1312 H 0.28796 0.91267 0.2314 0.0
H1313 H 0.25036 0.96823 0.23478 0.0
H1314 H 0.26946 0.89902 0.26472 0.0
H1315 H 0.23243 0.95355 0.26798 0.0
H1316 H 0.35391 0.91307 0.23298 0.0
H1317 H 0.335 0.87053 0.1806 0.0
H1318 H 0.18083 0.94191 0.19853 0.0
H1319 H 0.21607 0.8873 0.21775 0.0
Li1320 Li 0.94892 0.74036 0.81268 0.0
Li1321 Li 0.96099 0.71891 0.84288 0.0
Li1322 Li 0.97625 0.71544 0.80628 0.0
Li1323 Li 0.94147 0.7033 0.81283 0.0
C1324 C 0.98961 0.75515 0.81679 0.0
N1325 N 0.01473 0.78537 0.79783 0.0
C1326 C 0.00537 0.76451 0.82938 0.0
C1327 C 0.9866 0.76119 0.79457 0.0
C1328 C 0.01791 0.77975 0.81949 0.0
C1329 C -0.00053 0.77648 0.78529 0.0
C1330 C 0.92216 0.7382 0.84874 0.0
C1331 C 0.89131 0.75101 0.86715 0.0
N1332 N 0.9029 0.76599 0.87737 0.0
C1333 C 0.93377 0.75372 0.85944 0.0
C1334 C 0.90077 0.73682 0.8526 0.0
C1335 C 0.92375 0.76762 0.87385 0.0
C1336 C 0.92086 0.76689 0.79108 0.0
N1337 N 0.93714 0.76674 0.80555 0.0
C1338 C 0.93276 0.80313 0.81295 0.0
C1339 C 0.94346 0.78441 0.81618 0.0
C1340 C 0.91542 0.80363 0.79866 0.0
C1341 C 0.90976 0.78529 0.78729 0.0
H1342 H 0.91604 0.75251 0.78313 0.0
H1343 H 0.95635 0.78382 0.82778 0.0
C1344 C 0.98761 0.72134 0.87943 0.0
N1345 N 0.96739 0.71805 0.87387 0.0
C1346 C 0.99368 0.72151 0.90181 0.0
C1347 C 0.958 0.71465 0.91233 0.0
C1348 C 0.95263 0.71455 0.88972 0.0
C1349 C 0.97876 0.71828 0.91864 0.0
H1350 H -0.00099 0.72389 0.86641 0.0
H1351 H 0.93664 0.71191 0.88484 0.0
C1352 C 0.95175 0.70885 0.76829 0.0
N1353 N 0.95238 0.68515 0.7297 0.0
C1354 C 0.96108 0.68913 0.76827 0.0
C1355 C 0.94276 0.71652 0.74868 0.0
C1356 C 0.96124 0.67739 0.7486 0.0
C1357 C 0.94322 0.7043 0.72934 0.0
C1358 C 0.96299 0.67611 0.84049 0.0
C1359 C 0.9771 0.6596 0.84257 0.0
C1360 C 0.94426 0.67552 0.8524 0.0
C1361 C 0.97229 0.64285 0.85661 0.0
C1362 C 0.94004 0.65851 0.86627 0.0
N1363 N 0.95402 0.64266 0.86808 0.0
C1364 C 0.01388 0.69486 0.80096 0.0
C1365 C 0.00581 0.71683 0.77023 0.0
C1366 C 0.0312 0.68697 0.78978 0.0
N1367 N 0.00137 0.70914 0.7909 0.0
C1368 C 0.02326 0.70963 0.75858 0.0
C1369 C 0.03583 0.69419 0.76825 0.0
H1370 H 0.00999 0.68911 0.81742 0.0
H1371 H 0.99541 0.72792 0.76245 0.0
C1372 C 0.90131 0.68853 0.80167 0.0
N1373 N 0.92151 0.68277 0.80441 0.0
C1374 C 0.88661 0.67401 0.7942 0.0
C1375 C 0.91379 0.64794 0.79284 0.0
C1376 C 0.9279 0.6629 0.80032 0.0
C1377 C 0.89288 0.65346 0.78943 0.0
H1378 H 0.89672 0.7045 0.80489 0.0
H1379 H 0.94406 0.6587 0.80252 0.0
O1380 O 0.97725 0.74023 0.82636 0.0
O1381 O 0.93152 0.7245 0.83435 0.0
O1382 O 0.95135 0.72072 0.7873 0.0
O1383 O 0.96756 0.69258 0.82673 0.0
H1384 H 0.00786 0.76005 0.84662 0.0
H1385 H 0.97445 0.75421 0.78456 0.0
H1386 H 0.03017 0.78712 0.82904 0.0
H1387 H 0.99731 0.78128 0.76811 0.0
H1388 H 0.87476 0.75013 0.87029 0.0
H1389 H 0.95034 0.75506 0.85665 0.0
H1390 H 0.89156 0.7249 0.84442 0.0
H1391 H 0.93254 0.77971 0.88222 0.0
H1392 H 0.93772 0.81695 0.82191 0.0
H1393 H 0.89632 0.78491 0.77638 0.0
H1394 H 0.00991 0.72401 0.90587 0.0
H1395 H 0.94594 0.71229 0.92472 0.0
H1396 H 0.96816 0.68293 0.78325 0.0
H1397 H 0.93549 0.73177 0.74843 0.0
H1398 H 0.9684 0.66211 0.74836 0.0
H1399 H 0.93631 0.71004 0.71404 0.0
H1400 H 0.9916 0.65968 0.83338 0.0
H1401 H 0.93302 0.68797 0.85092 0.0
H1402 H 0.98309 0.62999 0.85837 0.0
H1403 H 0.92561 0.65788 0.87558 0.0
H1404 H 0.04067 0.67505 0.79765 0.0
H1405 H 0.02639 0.71535 0.74187 0.0
H1406 H 0.87068 0.67897 0.79159 0.0
H1407 H 0.91924 0.63221 0.78968 0.0
H1408 H 0.34037 0.41976 0.31961 0.0
H1409 H 0.30814 0.38209 0.27076 0.0
H1410 H 0.37007 0.39603 0.31794 0.0
H1411 H 0.33767 0.35836 0.26917 0.0
H1412 H 0.39785 0.32346 0.26226 0.0
H1413 H 0.37391 0.35297 0.25925 0.0
H1414 H 0.37571 0.36067 0.33097 0.0
H1415 H 0.39957 0.33138 0.33394 0.0
C1416 C 0.33971 0.40651 0.30838 0.0
C1417 C 0.32184 0.40271 0.29545 0.0
C1418 C 0.3567 0.39292 0.30743 0.0
C1419 C 0.35618 0.3752 0.29357 0.0
C1420 C 0.33872 0.372 0.27982 0.0
C1421 C 0.32176 0.38561 0.28073 0.0
C1422 C 0.39325 0.3316 0.27734 0.0
C1423 C 0.40052 0.325 0.29835 0.0
C1424 C 0.37954 0.34849 0.27562 0.0
C1425 C 0.3728 0.35911 0.29487 0.0
C1426 C 0.38082 0.35307 0.31576 0.0
C1427 C 0.39452 0.33623 0.31748 0.0
H1428 H 0.36754 0.69871 0.71073 0.0
H1429 H 0.41955 0.65661 0.70249 0.0
H1430 H 0.34407 0.66919 0.71348 0.0
H1431 H 0.39582 0.62683 0.70514 0.0
H1432 H 0.34095 0.58486 0.67892 0.0
H1433 H 0.36801 0.61139 0.68224 0.0
H1434 H 0.33445 0.63985 0.73689 0.0
H1435 H 0.30699 0.61403 0.73293 0.0
C1436 C 0.37405 0.68313 0.70998 0.0
C1437 C 0.39546 0.68005 0.70649 0.0
C1438 C 0.36056 0.66616 0.71156 0.0
C1439 C 0.36809 0.64564 0.70965 0.0
C1440 C 0.38954 0.64247 0.7065 0.0
C1441 C 0.4031 0.65951 0.70496 0.0
C1442 C 0.33942 0.59671 0.69173 0.0
C1443 C 0.32166 0.59744 0.70547 0.0
C1444 C 0.35505 0.61178 0.6938 0.0
C1445 C 0.35325 0.62787 0.70966 0.0
C1446 C 0.33612 0.62785 0.72426 0.0
C1447 C 0.32049 0.61285 0.72216 0.0
H1448 H 0.62337 0.69369 0.27521 0.0
H1449 H 0.57711 0.65325 0.30454 0.0
H1450 H 0.64766 0.66473 0.27323 0.0
H1451 H 0.60118 0.6238 0.30182 0.0
H1452 H 0.6594 0.58655 0.32325 0.0
H1453 H 0.63142 0.61179 0.31971 0.0
H1454 H 0.65734 0.63299 0.257 0.0
H1455 H 0.68624 0.60899 0.26149 0.0
C1456 C 0.61822 0.67841 0.28068 0.0
C1457 C 0.59838 0.67572 0.29006 0.0
C1458 C 0.63213 0.66172 0.27948 0.0
C1459 C 0.62647 0.64182 0.28739 0.0
C1460 C 0.60625 0.63896 0.29594 0.0
C1461 C 0.59241 0.65577 0.29741 0.0
C1462 C 0.6592 0.59664 0.30873 0.0
C1463 C 0.67538 0.59593 0.2929 0.0
C1464 C 0.64291 0.61094 0.3065 0.0
C1465 C 0.64218 0.6247 0.28819 0.0
C1466 C 0.65761 0.62301 0.2716 0.0
C1467 C 0.67407 0.60893 0.274 0.0
H1468 H 0.61685 0.30675 0.66558 0.0
H1469 H 0.58227 0.33609 0.71896 0.0
H1470 H 0.64349 0.33364 0.66843 0.0
H1471 H 0.60925 0.36312 0.7219 0.0
H1472 H 0.65471 0.41802 0.69908 0.0
H1473 H 0.62579 0.39299 0.69744 0.0
H1474 H 0.66972 0.34201 0.69916 0.0
H1475 H 0.69843 0.3668 0.70066 0.0
C1476 C 0.61478 0.31915 0.6777 0.0
C1477 C 0.59743 0.31938 0.69199 0.0
C1478 C 0.63014 0.3344 0.67948 0.0
C1479 C 0.62847 0.35033 0.6955 0.0
C1480 C 0.61085 0.35101 0.70939 0.0
C1481 C 0.59552 0.33553 0.70778 0.0
C1482 C 0.6581 0.40146 0.69923 0.0
C1483 C 0.67879 0.39435 0.70004 0.0
C1484 C 0.6416 0.38719 0.69842 0.0
C1485 C 0.64558 0.36562 0.69803 0.0
C1486 C 0.66624 0.35857 0.69924 0.0
C1487 C 0.68265 0.37276 0.70032 0.0
H1488 H 0.80942 0.88089 0.77205 0.0
H1489 H 0.84333 0.91777 0.82027 0.0
H1490 H 0.83825 0.85635 0.77005 0.0
H1491 H 0.87242 0.89331 0.81807 0.0
H1492 H 0.90284 0.82918 0.83252 0.0
H1493 H 0.87851 0.85819 0.83061 0.0
H1494 H 0.87374 0.85009 0.75907 0.0
H1495 H 0.898 0.82078 0.76108 0.0
C1496 C 0.82327 0.88404 0.78181 0.0
C1497 C 0.82406 0.90121 0.79641 0.0
C1498 C 0.83984 0.86996 0.78065 0.0
C1499 C 0.85763 0.87277 0.79401 0.0
C1500 C 0.85879 0.89048 0.80786 0.0
C1501 C 0.84216 0.90451 0.8091 0.0
C1502 C 0.89694 0.83385 0.81631 0.0
C1503 C 0.9023 0.82265 0.79696 0.0
C1504 C 0.88299 0.85053 0.8152 0.0
C1505 C 0.8741 0.85646 0.79468 0.0
C1506 C 0.88005 0.84572 0.77519 0.0
C1507 C 0.89395 0.82896 0.77632 0.0
H1508 H 0.80906 0.1129 0.22712 0.0
H1509 H 0.83681 0.08097 0.17088 0.0
H1510 H 0.83869 0.13655 0.22859 0.0
H1511 H 0.8664 0.10483 0.17226 0.0
H1512 H 0.89345 0.1716 0.16149 0.0
H1513 H 0.86951 0.14234 0.16333 0.0
H1514 H 0.87671 0.14008 0.23505 0.0
H1515 H 0.90111 0.16931 0.23324 0.0
C1516 C 0.8217 0.1106 0.2154 0.0
C1517 C 0.82046 0.09516 0.19874 0.0
C1518 C 0.8387 0.12418 0.21625 0.0
C1519 C 0.85478 0.12266 0.20041 0.0
C1520 C 0.85406 0.10658 0.18445 0.0
C1521 C 0.8371 0.09296 0.18365 0.0
C1522 C 0.89042 0.16457 0.17763 0.0
C1523 C 0.89923 0.17287 0.19722 0.0
C1524 C 0.87663 0.14778 0.17867 0.0
C1525 C 0.87121 0.13892 0.19934 0.0
C1526 C 0.88044 0.14675 0.21891 0.0
C1527 C 0.89437 0.16351 0.21786 0.0
H1528 H 0.07613 0.15463 0.79654 0.0
H1529 H 0.12639 0.1962 0.77862 0.0
H1530 H 0.09988 0.12489 0.79396 0.0
H1531 H 0.14995 0.1667 0.77606 0.0
H1532 H 0.18708 0.11026 0.76099 0.0
H1533 H 0.15897 0.13531 0.75601 0.0
H1534 H 0.12914 0.11201 0.81573 0.0
H1535 H 0.15675 0.08626 0.82012 0.0
C1536 C 0.09218 0.15741 0.7919 0.0
C1537 C 0.09935 0.1778 0.78781 0.0
C1538 C 0.10578 0.14039 0.79042 0.0
C1539 C 0.12682 0.14341 0.78481 0.0
C1540 C 0.13377 0.16373 0.78 0.0
C1541 C 0.12022 0.18069 0.78147 0.0
C1542 C 0.17424 0.11005 0.77271 0.0
C1543 C 0.17429 0.09638 0.7911 0.0
C1544 C 0.15824 0.1246 0.77 0.0
C1545 C 0.14196 0.12588 0.78565 0.0
C1546 C 0.14138 0.11141 0.80331 0.0
C1547 C 0.15735 0.09681 0.80598 0.0
H1548 H 0.16279 0.90874 0.18132 0.0
H1549 H 0.18562 0.89085 0.24636 0.0
H1550 H 0.13416 0.88406 0.18503 0.0
H1551 H 0.15653 0.86668 0.25063 0.0
H1552 H 0.12619 0.80391 0.23187 0.0
H1553 H 0.14908 0.83386 0.23484 0.0
H1554 H 0.10291 0.87232 0.20214 0.0
H1555 H 0.08044 0.84186 0.19797 0.0
C1556 C 0.16126 0.89998 0.19673 0.0
C1557 C 0.17648 0.9015 0.21346 0.0
C1558 C 0.14481 0.88585 0.19892 0.0
C1559 C 0.14315 0.87311 0.21802 0.0
C1560 C 0.1576 0.87584 0.23546 0.0
C1561 C 0.17418 0.88976 0.23311 0.0
C1562 C 0.12089 0.81876 0.22533 0.0
C1563 C 0.10164 0.82038 0.21432 0.0
C1564 C 0.1339 0.83608 0.22735 0.0
C1565 C 0.12794 0.85557 0.21861 0.0
C1566 C 0.10815 0.85748 0.20874 0.0
C1567 C 0.09515 0.84007 0.20659 0.0
H1568 H 0.16678 0.52931 0.22291 0.0
H1569 H 0.19359 0.57059 0.27219 0.0
H1570 H 0.14846 0.55875 0.20613 0.0
H1571 H 0.17523 0.60004 0.25545 0.0
H1572 H 0.14853 0.65136 0.21118 0.0
H1573 H 0.17123 0.62253 0.22236 0.0
H1574 H 0.11912 0.58006 0.21836 0.0
H1575 H 0.09669 0.60865 0.2066 0.0
C1576 C 0.16886 0.54471 0.23006 0.0
C1577 C 0.18145 0.5476 0.24902 0.0
C1578 C 0.15836 0.56156 0.22047 0.0
C1579 C 0.1602 0.58168 0.22962 0.0
C1580 C 0.17363 0.58476 0.24788 0.0
C1581 C 0.18416 0.56789 0.25748 0.0
C1582 C 0.14204 0.63579 0.21237 0.0
C1583 C 0.12081 0.63227 0.20811 0.0
C1584 C 0.15498 0.61934 0.21895 0.0
C1585 C 0.14698 0.59902 0.22124 0.0
C1586 C 0.12585 0.59547 0.21649 0.0
C1587 C 0.11292 0.6119 0.21002 0.0
H1588 H 0.53383 0.8413 0.75883 0.0
H1589 H 0.57378 0.79472 0.72889 0.0
H1590 H 0.56403 0.85827 0.77514 0.0
H1591 H 0.60417 0.81212 0.74496 0.0
H1592 H 0.65101 0.86803 0.75293 0.0
H1593 H 0.62248 0.84629 0.73951 0.0
H1594 H 0.59176 0.85238 0.80337 0.0
H1595 H 0.62041 0.87387 0.81696 0.0
C1596 C 0.54901 0.83444 0.75602 0.0
C1597 C 0.55132 0.81655 0.7426 0.0
C1598 C 0.56634 0.84422 0.76535 0.0
C1599 C 0.58646 0.83649 0.76139 0.0
C1600 C 0.58885 0.81853 0.74814 0.0
C1601 C 0.57145 0.80861 0.7389 0.0
C1602 C 0.63841 0.86437 0.76429 0.0
C1603 C 0.63793 0.87285 0.78597 0.0
C1604 C 0.62204 0.85193 0.75657 0.0
C1605 C 0.60481 0.84778 0.77033 0.0
C1606 C 0.60468 0.85561 0.79227 0.0
C1607 C 0.62107 0.86795 0.80002 0.0
H1608 H 0.84639 0.34977 0.20107 0.0
H1609 H 0.9018 0.38495 0.21666 0.0
H1610 H 0.82484 0.37966 0.21234 0.0
H1611 H 0.88043 0.41468 0.22782 0.0
H1612 H 0.83727 0.47028 0.22718 0.0
H1613 H 0.85534 0.44066 0.21047 0.0
H1614 H 0.81812 0.39829 0.24982 0.0
H1615 H 0.80036 0.4279 0.26708 0.0
C1616 C 0.85391 0.36397 0.20669 0.0
C1617 C 0.8757 0.36508 0.20815 0.0
C1618 C 0.84163 0.38097 0.21323 0.0
C1619 C 0.85099 0.39947 0.2209 0.0
C1620 C 0.8728 0.4007 0.22176 0.0
C1621 C 0.88502 0.38365 0.21557 0.0
C1622 C 0.8329 0.45467 0.2323 0.0
C1623 C 0.81758 0.45151 0.24875 0.0
C1624 C 0.8432 0.43772 0.22264 0.0
C1625 C 0.83825 0.41722 0.22901 0.0
C1626 C 0.82214 0.41395 0.2445 0.0
C1627 C 0.81195 0.43093 0.25434 0.0
H1628 H 0.43555 0.20694 0.76235 0.0
H1629 H 0.46018 0.14657 0.74364 0.0
H1630 H 0.40582 0.18969 0.78018 0.0
H1631 H 0.43109 0.12961 0.76196 0.0
H1632 H 0.38834 0.10446 0.81467 0.0
H1633 H 0.4175 0.12534 0.80133 0.0
H1634 H 0.37485 0.16679 0.76761 0.0
H1635 H 0.34555 0.14566 0.78062 0.0
C1636 C 0.43469 0.19006 0.76203 0.0
C1637 C 0.45045 0.17817 0.75175 0.0
C1638 C 0.41771 0.18022 0.7723 0.0
C1639 C 0.41633 0.15832 0.7727 0.0
C1640 C 0.432 0.1465 0.76238 0.0
C1641 C 0.44875 0.15627 0.75194 0.0
C1642 C 0.38514 0.11806 0.80447 0.0
C1643 C 0.36463 0.12318 0.7984 0.0
C1644 C 0.40184 0.13004 0.79691 0.0
C1645 C 0.39843 0.14752 0.78321 0.0
C1646 C 0.3779 0.15344 0.77823 0.0
C1647 C 0.36114 0.14135 0.78571 0.0
H1648 H 0.16922 0.47072 0.77685 0.0
H1649 H 0.19227 0.42949 0.72537 0.0
H1650 H 0.15139 0.44144 0.79456 0.0
H1651 H 0.1743 0.40024 0.74292 0.0
H1652 H 0.14884 0.34863 0.7868 0.0
H1653 H 0.17163 0.37722 0.77526 0.0
H1654 H 0.12115 0.42091 0.78484 0.0
H1655 H 0.09872 0.39255 0.79709 0.0
C1656 C 0.17056 0.45536 0.76941 0.0
C1657 C 0.18197 0.45243 0.74962 0.0
C1658 C 0.16034 0.4386 0.77952 0.0
C1659 C 0.16123 0.41854 0.77002 0.0
C1660 C 0.17346 0.41543 0.75081 0.0
C1661 C 0.18375 0.4322 0.74073 0.0
C1662 C 0.14276 0.36441 0.78682 0.0
C1663 C 0.12194 0.36833 0.7927 0.0
C1664 C 0.15575 0.38075 0.78001 0.0
C1665 C 0.1482 0.40134 0.77905 0.0
C1666 C 0.12756 0.40529 0.78561 0.0
C1667 C 0.1146 0.38899 0.79237 0.0
H1668 H 0.35772 0.87919 0.25045 0.0
H1669 H 0.37279 0.86648 0.1814 0.0
H1670 H 0.38611 0.85665 0.26238 0.0
H1671 H 0.40071 0.84318 0.19337 0.0
H1672 H 0.46541 0.82932 0.22475 0.0
H1673 H 0.43465 0.84707 0.21046 0.0
H1674 H 0.39798 0.82082 0.26409 0.0
H1675 H 0.42898 0.80374 0.27892 0.0
C1676 C 0.36703 0.87149 0.23781 0.0
C1677 C 0.36311 0.8748 0.21497 0.0
C1678 C 0.38313 0.85832 0.24465 0.0
C1679 C 0.3957 0.84809 0.22883 0.0
C1680 C 0.39145 0.85098 0.20598 0.0
C1681 C 0.37532 0.86417 0.19912 0.0
C1682 C 0.45076 0.82727 0.23344 0.0
C1683 C 0.44969 0.81532 0.25312 0.0
C1684 C 0.43307 0.83727 0.22511 0.0
C1685 C 0.41388 0.83551 0.23623 0.0
C1686 C 0.4126 0.82274 0.25531 0.0
C1687 C 0.43032 0.81275 0.26366 0.0
H1688 H 0.80288 0.5534 0.7719 0.0
H1689 H 0.82442 0.56724 0.70508 0.0
H1690 H 0.82383 0.5822 0.78641 0.0
H1691 H 0.84448 0.59644 0.71941 0.0
H1692 H 0.89964 0.62557 0.7558 0.0
H1693 H 0.87593 0.59929 0.74133 0.0
H1694 H 0.8283 0.62039 0.78704 0.0
H1695 H 0.85243 0.64636 0.80216 0.0
C1696 C 0.81187 0.56271 0.76028 0.0
C1697 C 0.81203 0.55791 0.73734 0.0
C1698 C 0.82371 0.57934 0.76857 0.0
C1699 C 0.83596 0.59149 0.75408 0.0
C1700 C 0.83546 0.58719 0.73106 0.0
C1701 C 0.8237 0.57059 0.7228 0.0
C1702 C 0.88417 0.62452 0.76291 0.0
C1703 C 0.87797 0.63796 0.78025 0.0
C1704 C 0.87047 0.60963 0.7544 0.0
C1705 C 0.85018 0.60781 0.76296 0.0
C1706 C 0.84388 0.62132 0.7802 0.0
C1707 C 0.85762 0.63631 0.78872 0.0
H1708 H 0.64455 0.14792 0.20625 0.0
H1709 H 0.61268 0.09281 0.22989 0.0
H1710 H 0.61717 0.16985 0.2225 0.0
H1711 H 0.58535 0.1146 0.24581 0.0
H1712 H 0.55357 0.15993 0.29305 0.0
H1713 H 0.58251 0.14031 0.27715 0.0
H1714 H 0.57852 0.1769 0.21668 0.0
H1715 H 0.54965 0.19686 0.23277 0.0
C1716 C 0.63171 0.14053 0.2149 0.0
C1717 C 0.6307 0.11867 0.21676 0.0
C1718 C 0.61601 0.15304 0.22405 0.0
C1719 C 0.5992 0.14392 0.23549 0.0
C1720 C 0.59823 0.12208 0.23729 0.0
C1721 C 0.61376 0.10959 0.22798 0.0
C1722 C 0.55908 0.16405 0.27651 0.0
C1723 C 0.54936 0.17995 0.26416 0.0
C1724 C 0.5755 0.15266 0.26733 0.0
C1725 C 0.58266 0.15699 0.24563 0.0
C1726 C 0.57337 0.1733 0.23348 0.0
C1727 C 0.55678 0.1846 0.24262 0.0
H1728 H 0.68496 0.0416 0.72234 0.0
H1729 H 0.68606 0.06861 0.78843 0.0
H1730 H 0.66616 0.07229 0.70836 0.0
H1731 H 0.66694 0.09906 0.77455 0.0
H1732 H 0.60394 0.126 0.74422 0.0
H1733 H 0.6279 0.09918 0.75795 0.0
H1734 H 0.6713 0.11461 0.7054 0.0
H1735 H 0.64743 0.14193 0.69198 0.0
C1736 C 0.68144 0.05426 0.73374 0.0
C1737 C 0.68693 0.05283 0.75641 0.0
C1738 C 0.67079 0.07178 0.72576 0.0
C1739 C 0.66511 0.08791 0.74044 0.0
C1740 C 0.67116 0.08676 0.76296 0.0
C1741 C 0.68216 0.06945 0.77084 0.0
C1742 C 0.61867 0.12372 0.73574 0.0
C1743 C 0.62392 0.13589 0.71708 0.0
C1744 C 0.63238 0.10852 0.74363 0.0
C1745 C 0.6514 0.10496 0.73273 0.0
C1746 C 0.6567 0.11714 0.71405 0.0
C1747 C 0.64314 0.13271 0.70644 0.0
H1748 H 0.14501 0.34828 0.29744 0.0
H1749 H 0.11249 0.40404 0.2768 0.0
H1750 H 0.11601 0.32695 0.28395 0.0
H1751 H 0.08386 0.38292 0.26299 0.0
H1752 H 0.02705 0.34315 0.25977 0.0
H1753 H 0.056 0.3619 0.2762 0.0
H1754 H 0.09868 0.31578 0.25013 0.0
H1755 H 0.06943 0.29618 0.23479 0.0
C1756 C 0.13171 0.35594 0.28992 0.0
C1757 C 0.1309 0.37782 0.28839 0.0
C1758 C 0.11513 0.34375 0.28215 0.0
C1759 C 0.0975 0.35322 0.27257 0.0
C1760 C 0.09692 0.3751 0.27079 0.0
C1761 C 0.11337 0.38724 0.27867 0.0
C1762 C 0.04252 0.33667 0.25794 0.0
C1763 C 0.04583 0.31809 0.24592 0.0
C1764 C 0.05921 0.34765 0.26708 0.0
C1765 C 0.07973 0.34052 0.26425 0.0
C1766 C 0.08307 0.32167 0.25273 0.0
C1767 C 0.06631 0.31057 0.24369 0.0
H1768 H 0.35177 0.96022 0.76679 0.0
H1769 H 0.29495 0.94168 0.73363 0.0
H1770 H 0.37007 0.93136 0.74928 0.0
H1771 H 0.31338 0.9124 0.71627 0.0
H1772 H 0.35101 0.84946 0.71336 0.0
H1773 H 0.33078 0.87896 0.7276 0.0
H1774 H 0.38152 0.92059 0.71165 0.0
H1775 H 0.4019 0.89116 0.69806 0.0
C1776 C 0.34322 0.95015 0.75552 0.0
C1777 C 0.32192 0.95343 0.75143 0.0
C1778 C 0.35373 0.93356 0.74551 0.0
C1779 C 0.34321 0.91973 0.73124 0.0
C1780 C 0.32185 0.92277 0.7273 0.0
C1781 C 0.31131 0.9395 0.73726 0.0
C1782 C 0.35779 0.86494 0.71286 0.0
C1783 C 0.37809 0.86796 0.70469 0.0
C1784 C 0.34614 0.88184 0.72081 0.0
C1785 C 0.35463 0.90205 0.72089 0.0
C1786 C 0.37466 0.90515 0.71206 0.0
C1787 C 0.38625 0.88831 0.70404 0.0
H1788 H 0.87765 0.62934 0.31717 0.0
H1789 H 0.84915 0.62663 0.25182 0.0
H1790 H 0.90584 0.65065 0.30188 0.0
H1791 H 0.87687 0.64839 0.2368 0.0
H1792 H 0.94365 0.66023 0.21323 0.0
H1793 H 0.91397 0.64228 0.22937 0.0
H1794 H 0.914 0.68537 0.28489 0.0
H1795 H 0.94375 0.70368 0.26851 0.0
C1796 C 0.87731 0.63344 0.29961 0.0
C1797 C 0.86121 0.62621 0.28569 0.0
C1798 C 0.89333 0.64581 0.29092 0.0
C1799 C 0.89363 0.65107 0.26811 0.0
C1800 C 0.8772 0.64437 0.25438 0.0
C1801 C 0.86118 0.6321 0.26306 0.0
C1802 C 0.93715 0.66617 0.22867 0.0
C1803 C 0.94598 0.68356 0.23944 0.0
C1804 C 0.92014 0.65582 0.23795 0.0
C1805 C 0.91153 0.66251 0.25831 0.0
C1806 C 0.92039 0.67979 0.26924 0.0
C1807 C 0.93743 0.69025 0.25987 0.0
H1808 H 0.67735 0.95902 0.27644 0.0
H1809 H 0.69745 0.92436 0.21839 0.0
H1810 H 0.66138 0.92744 0.29166 0.0
H1811 H 0.68177 0.89274 0.23377 0.0
H1812 H 0.62191 0.85531 0.25208 0.0
H1813 H 0.64424 0.88338 0.23922 0.0
H1814 H 0.66858 0.89093 0.30597 0.0
H1815 H 0.64661 0.86221 0.31893 0.0
C1816 C 0.6786 0.94458 0.26711 0.0
C1817 C 0.68851 0.94418 0.24616 0.0
C1818 C 0.66963 0.92648 0.2759 0.0
C1819 C 0.67023 0.90768 0.26382 0.0
C1820 C 0.68092 0.90707 0.24334 0.0
C1821 C 0.69004 0.92512 0.23464 0.0
C1822 C 0.63238 0.86249 0.26399 0.0
C1823 C 0.63243 0.85638 0.28658 0.0
C1824 C 0.64516 0.87867 0.25658 0.0
C1825 C 0.65818 0.88931 0.27158 0.0
C1826 C 0.65857 0.88307 0.29409 0.0
C1827 C 0.64591 0.86669 0.30149 0.0
H1828 H 0.8708 0.40048 0.74763 0.0
H1829 H 0.86382 0.36248 0.68841 0.0
H1830 H 0.89829 0.37748 0.76083 0.0
H1831 H 0.89165 0.33954 0.70159 0.0
H1832 H 0.95905 0.32017 0.72297 0.0
H1833 H 0.92984 0.34064 0.70865 0.0
H1834 H 0.90245 0.34144 0.77457 0.0
H1835 H 0.93184 0.32155 0.78899 0.0
C1836 C 0.87498 0.3871 0.73752 0.0
C1837 C 0.86499 0.38326 0.71702 0.0
C1838 C 0.89076 0.37391 0.74509 0.0
C1839 C 0.89702 0.3566 0.73233 0.0
C1840 C 0.88724 0.35284 0.71171 0.0
C1841 C 0.87135 0.36601 0.70415 0.0
C1842 C 0.94673 0.32465 0.73436 0.0
C1843 C 0.9478 0.31931 0.75713 0.0
C1844 C 0.92993 0.33622 0.72613 0.0
C1845 C 0.91394 0.34279 0.74053 0.0
C1846 C 0.91468 0.33684 0.76313 0.0
C1847 C 0.9314 0.32522 0.77133 0.0
H1848 H 0.35943 0.12833 0.31282 0.0
H1849 H 0.37661 0.14876 0.24648 0.0
H1850 H 0.33912 0.09989 0.29663 0.0
H1851 H 0.35557 0.12107 0.23039 0.0
H1852 H 0.34161 0.05354 0.21148 0.0
H1853 H 0.35887 0.08369 0.22763 0.0
H1854 H 0.30826 0.09111 0.27453 0.0
H1855 H 0.29091 0.06066 0.2583 0.0
C1856 C 0.35873 0.12688 0.2948 0.0
C1857 C 0.36978 0.14077 0.28098 0.0
C1858 C 0.34689 0.11072 0.28552 0.0
C1859 C 0.34586 0.10811 0.26222 0.0
C1860 C 0.3563 0.12245 0.24842 0.0
C1861 C 0.36815 0.13852 0.25766 0.0
C1862 C 0.33397 0.06177 0.22501 0.0
C1863 C 0.31479 0.0548 0.23347 0.0
C1864 C 0.34388 0.07908 0.23428 0.0
C1865 C 0.33488 0.08993 0.25227 0.0
C1866 C 0.31569 0.08298 0.26081 0.0
C1867 C 0.30575 0.06557 0.25151 0.0
H1868 H 0.15384 0.64083 0.73431 0.0
H1869 H 0.11392 0.61921 0.68086 0.0
H1870 H 0.1258 0.66302 0.74805 0.0
H1871 H 0.08566 0.64067 0.69548 0.0
H1872 H 0.03764 0.65426 0.75404 0.0
H1873 H 0.06631 0.63695 0.73448 0.0
H1874 H 0.10115 0.6946 0.73485 0.0
H1875 H 0.07205 0.71208 0.75405 0.0
C1876 C 0.13929 0.64104 0.7252 0.0
C1877 C 0.13617 0.62799 0.70654 0.0
C1878 C 0.12321 0.65372 0.73317 0.0
C1879 C 0.10361 0.6534 0.72287 0.0
C1880 C 0.10062 0.64101 0.70381 0.0
C1881 C 0.11678 0.6286 0.69559 0.0
C1882 C 0.05136 0.66323 0.74969 0.0
C1883 C 0.05281 0.6844 0.75545 0.0
C1884 C 0.06766 0.65341 0.73844 0.0
C1885 C 0.08585 0.6645 0.73315 0.0
C1886 C 0.08725 0.68576 0.73879 0.0
C1887 C 0.07069 0.69573 0.74965 0.0
H1888 H 0.24868 0.52508 0.54998 0.0
H1889 H 0.18611 0.50141 0.55691 0.0
H1890 H 0.24862 0.51519 0.51043 0.0
H1891 H 0.18597 0.4917 0.51728 0.0
H1892 H 0.18823 0.50239 0.43978 0.0
H1893 H 0.18812 0.51214 0.4794 0.0
H1894 H 0.24646 0.47985 0.48868 0.0
H1895 H 0.24648 0.46993 0.44914 0.0
C1896 C 0.23491 0.51785 0.54298 0.0
C1897 C 0.2174 0.51398 0.55641 0.0
C1898 C 0.23492 0.51209 0.52046 0.0
C1899 C 0.21729 0.50271 0.51089 0.0
C1900 C 0.19971 0.49902 0.52427 0.0
C1901 C 0.19983 0.50444 0.5469 0.0
C1902 C 0.20102 0.49744 0.45033 0.0
C1903 C 0.21736 0.48542 0.44149 0.0
C1904 C 0.20089 0.50289 0.47294 0.0
C1905 C 0.21728 0.49673 0.48701 0.0
C1906 C 0.23371 0.48487 0.47813 0.0
C1907 C 0.23365 0.47911 0.4556 0.0
H1908 H 0.52767 0.74818 0.44799 0.0
H1909 H 0.50421 0.81108 0.44117 0.0
H1910 H 0.5182 0.74837 0.48748 0.0
H1911 H 0.49411 0.81101 0.48046 0.0
H1912 H 0.49949 0.81147 0.55672 0.0
H1913 H 0.5101 0.81121 0.51757 0.0
H1914 H 0.48694 0.74821 0.5108 0.0
H1915 H 0.47697 0.74821 0.55014 0.0
C1916 C 0.52053 0.76206 0.45493 0.0
C1917 C 0.51671 0.77962 0.44144 0.0
C1918 C 0.51491 0.76209 0.4775 0.0
C1919 C 0.50538 0.7797 0.4871 0.0
C1920 C 0.50161 0.79728 0.47363 0.0
C1921 C 0.50718 0.79723 0.45105 0.0
C1922 C 0.49686 0.79749 0.54693 0.0
C1923 C 0.48739 0.77986 0.55654 0.0
C1924 C 0.50273 0.79743 0.52444 0.0
C1925 C 0.49932 0.77971 0.51106 0.0
C1926 C 0.48996 0.76204 0.52071 0.0
C1927 C 0.48403 0.76212 0.54318 0.0
H1928 H 0.8045 0.53483 0.45058 0.0
H1929 H 0.75751 0.48832 0.43692 0.0
H1930 H 0.80479 0.5245 0.48978 0.0
H1931 H 0.75773 0.47803 0.47617 0.0
H1932 H 0.77949 0.45137 0.54347 0.0
H1933 H 0.77959 0.46111 0.50403 0.0
H1934 H 0.78261 0.52626 0.52254 0.0
H1935 H 0.78259 0.51651 0.56189 0.0
C1936 C 0.79411 0.52251 0.45599 0.0
C1937 C 0.78094 0.51244 0.44064 0.0
C1938 C 0.79427 0.51659 0.47846 0.0
C1939 C 0.78124 0.50048 0.48613 0.0
C1940 C 0.76817 0.4903 0.47075 0.0
C1941 C 0.76803 0.4962 0.44826 0.0
C1942 C 0.78002 0.46777 0.5391 0.0
C1943 C 0.7811 0.48316 0.55581 0.0
C1944 C 0.78007 0.47336 0.51651 0.0
C1945 C 0.78116 0.49446 0.51013 0.0
C1946 C 0.78214 0.50984 0.52686 0.0
C1947 C 0.78212 0.50426 0.54942 0.0
H1948 H 0.5118 0.21336 0.43833 0.0
H1949 H 0.44739 0.20553 0.45738 0.0
H1950 H 0.52202 0.21177 0.47744 0.0
H1951 H 0.45755 0.20496 0.49663 0.0
H1952 H 0.48581 0.18386 0.56336 0.0
H1953 H 0.47546 0.18376 0.52408 0.0
H1954 H 0.51978 0.23291 0.51057 0.0
H1955 H 0.53021 0.23284 0.54967 0.0
C1956 C 0.49981 0.21121 0.45084 0.0
C1957 C 0.47877 0.20956 0.44468 0.0
C1958 C 0.50566 0.21057 0.47331 0.0
C1959 C 0.4906 0.20834 0.4902 0.0
C1960 C 0.46957 0.2065 0.48405 0.0
C1961 C 0.46372 0.20709 0.46155 0.0
C1962 C 0.49324 0.1947 0.55199 0.0
C1963 C 0.5089 0.20827 0.55959 0.0
C1964 C 0.4873 0.19467 0.5295 0.0
C1965 C 0.49684 0.20828 0.51414 0.0
C1966 C 0.5124 0.22194 0.52183 0.0
C1967 C 0.51837 0.22191 0.54426 0.0
H1968 H 0.72721 0.98238 0.06166 0.0
H1969 H 0.69667 0.04057 0.04506 0.0
H1970 H 0.72708 0.97261 0.0223 0.0
H1971 H 0.6975 0.03103 0.0056 0.0
H1972 H 0.72863 0.01466 0.9369 0.0
H1973 H 0.72682 0.0244 0.97623 0.0
H1974 H 0.69907 0.96483 0.99186 0.0
H1975 H 0.69991 0.9553 0.95241 0.0
C1976 C 0.7203 0.99304 0.04974 0.0
C1977 C 0.71191 0.01229 0.05668 0.0
C1978 C 0.72035 0.98744 0.02716 0.0
C1979 C 0.71232 0.00109 0.01097 0.0
C1980 C 0.70399 0.02033 0.01777 0.0
C1981 C 0.70363 0.02581 0.04038 0.0
C1982 C 0.72178 0.00373 0.94857 0.0
C1983 C 0.7144 0.98416 0.94133 0.0
C1984 C 0.72086 0.00931 0.97113 0.0
C1985 C 0.71284 0.99534 0.98702 0.0
C1986 C 0.70553 0.97579 0.97993 0.0
C1987 C 0.70614 0.97031 0.95733 0.0
H1988 H 0.01747 0.313 0.94598 0.0
H1989 H 0.01145 0.24581 0.94519 0.0
H1990 H 0.00656 0.31359 0.98499 0.0
H1991 H 0.00134 0.24634 0.98446 0.0
H1992 H 0.96144 0.25756 0.0467 0.0
H1993 H 0.97212 0.25721 0.00761 0.0
H1994 H 0.01902 0.30367 0.02191 0.0
H1995 H 0.00781 0.30459 0.06084 0.0
C1996 C 0.01381 0.29836 0.95413 0.0
C1997 C 0.01528 0.27937 0.94244 0.0
C1998 C 0.0078 0.29867 0.97657 0.0
C1999 C 0.00308 0.28001 0.98785 0.0
C2000 C 0.00464 0.26101 0.97619 0.0
C2001 C 0.01068 0.26069 0.95376 0.0
C2002 C 0.97388 0.26786 0.04146 0.0
C2003 C 0.98373 0.28114 0.05689 0.0
C2004 C 0.98017 0.26748 0.01911 0.0
C2005 C 0.99645 0.28038 0.01164 0.0
C2006 C 0.00629 0.29368 0.02707 0.0
C2007 C 2e-05 0.29404 0.04943 0.0
H2008 H 0.27719 0.03987 0.95453 0.0
H2009 H 0.26752 0.97581 0.93432 0.0
H2010 H 0.27718 0.02912 0.99355 0.0
H2011 H 0.26852 0.96493 0.97333 0.0
H2012 H 0.25074 0.95573 0.04675 0.0
H2013 H 0.24893 0.96678 0.00778 0.0
H2014 H 0.29906 0.01043 0.0193 0.0
H2015 H 0.3002 0.00012 0.05841 0.0
C2016 C 0.27498 0.0235 0.9584 0.0
C2017 C 0.27237 0.00871 0.94126 0.0
C2018 C 0.27525 0.01729 0.98078 0.0
C2019 C 0.27297 0.99614 0.98659 0.0
C2020 C 0.27014 0.98137 0.96947 0.0
C2021 C 0.26983 0.98759 0.94708 0.0
C2022 C 0.26124 0.96783 0.04101 0.0
C2023 C 0.27563 0.97702 0.05572 0.0
C2024 C 0.26036 0.974 0.0186 0.0
C2025 C 0.27384 0.9895 0.0104 0.0
C2026 C 0.28826 0.99863 0.02511 0.0
C2027 C 0.28912 0.9925 0.04749 0.0
H2028 H 0.00601 0.74507 0.93897 0.0
H2029 H 0.96518 0.69297 0.95258 0.0
H2030 H 0.01597 0.74615 0.97826 0.0
H2031 H 0.97501 0.69423 0.99193 0.0
H2032 H 0.9806 0.71859 0.06396 0.0
H2033 H 0.97081 0.71739 0.02463 0.0
H2034 H 0.03526 0.72496 0.0058 0.0
H2035 H 0.04512 0.72595 0.04515 0.0
C2036 C -0.00071 0.73372 0.95029 0.0
C2037 C 0.98481 0.71891 0.9426 0.0
C2038 C 0.00499 0.73437 0.97281 0.0
C2039 C 0.99627 0.72028 0.98818 0.0
C2040 C 0.98177 0.70549 0.98053 0.0
C2041 C 0.97613 0.70479 0.95799 0.0
C2042 C 0.99272 0.7198 0.05145 0.0
C2043 C 0.01366 0.72233 0.05772 0.0
C2044 C 0.98709 0.71913 0.02891 0.0
C2045 C 0.00226 0.72105 0.01212 0.0
C2046 C 0.02318 0.72371 0.01836 0.0
C2047 C 0.02882 0.72431 0.04091 0.0
loop_
_geom_bond_atom_site_label_1
_geom_bond_atom_site_label_2
_geom_bond_distance
_geom_bond_site_symmetry_2
_ccdc_geom_bond_type
Li0 N17 1.990 . S
Li0 O60 1.956 . S
Li0 O61 1.970 . S
Li0 O62 1.961 . S
Li1 N25 1.990 . S
Li1 O60 1.970 . S
Li1 O61 1.956 . S
Li1 O63 1.961 . S
Li2 N47 1.990 . S
Li2 O60 1.961 . S
Li2 O62 1.956 . S
Li2 O63 1.970 . S
Li3 N53 1.990 . S
Li3 O61 1.961 . S
Li3 O62 1.970 . S
Li3 O63 1.956 . S
C4 C6 1.348 . S
C4 C7 1.356 . S
C4 O60 1.325 . S
N5 C8 1.314 . S
N5 C9 1.279 . S
C6 C4 1.348 . S
C6 C8 1.353 . S
C6 H64 0.929 . S
C7 C4 1.356 . S
C7 C9 1.358 . S
C7 H65 0.930 . S
C8 N5 1.314 . S
C8 C6 1.353 . S
C8 H66 0.930 . S
C9 N5 1.279 . S
C9 C7 1.358 . S
C9 H67 0.930 . S
C10 C13 1.348 . S
C10 C14 1.356 . S
C10 O61 1.325 . S
C11 N12 1.279 . S
C11 C14 1.358 . S
C11 H68 0.930 . S
N12 C11 1.279 . S
N12 C15 1.314 . S
C13 C10 1.348 . S
C13 C15 1.353 . S
C13 H69 0.929 . S
C14 C10 1.356 . S
C14 C11 1.358 . S
C14 H70 0.930 . S
C15 N12 1.314 . S
C15 C13 1.353 . S
C15 H71 0.930 . S
C16 N17 1.314 . S
C16 C21 1.353 . S
C16 H22 0.930 . S
N17 Li0 1.990 . S
N17 C16 1.314 . S
N17 C19 1.279 . S
C18 C19 1.358 . S
C18 C20 1.356 . S
C18 H72 0.930 . S
C19 N17 1.279 . S
C19 C18 1.358 . S
C19 H23 0.930 . S
C20 C18 1.356 . S
C20 C21 1.348 . S
C21 C16 1.353 . S
C21 C20 1.348 . S
C21 H73 0.929 . S
H22 C16 0.930 . S
H23 C19 0.930 . S
C24 N25 1.314 . S
C24 C26 1.353 . S
C24 H30 0.930 . S
N25 Li1 1.990 . S
N25 C24 1.314 . S
N25 C28 1.279 . S
C26 C24 1.353 . S
C26 C29 1.348 . S
C26 H74 0.929 . S
C27 C28 1.358 . S
C27 C29 1.356 . S
C27 H75 0.930 . S
C28 N25 1.279 . S
C28 C27 1.358 . S
C28 H31 0.930 . S
C29 C26 1.348 . S
C29 C27 1.356 . S
H30 C24 0.930 . S
H31 C28 0.930 . S
C32 C34 1.348 . S
C32 C35 1.356 . S
C32 O62 1.325 . S
N33 C36 1.314 . S
N33 C37 1.279 . S
C34 C32 1.348 . S
C34 C36 1.353 . S
C34 H76 0.929 . S
C35 C32 1.356 . S
C35 C37 1.358 . S
C35 H77 0.930 . S
C36 N33 1.314 . S
C36 C34 1.353 . S
C36 H78 0.930 . S
C37 N33 1.279 . S
C37 C35 1.358 . S
C37 H79 0.930 . S
C38 C39 1.348 . S
C38 C40 1.356 . S
C38 O63 1.325 . S
C39 C38 1.348 . S
C39 C41 1.353 . S
C39 H80 0.929 . S
C40 C38 1.356 . S
C40 C42 1.358 . S
C40 H81 0.930 . S
C41 C39 1.353 . S
C41 N43 1.314 . S
C41 H82 0.930 . S
C42 C40 1.358 . S
C42 N43 1.279 . S
C42 H83 0.930 . S
N43 C41 1.314 . S
N43 C42 1.279 . S
C44 C46 1.353 . S
C44 N47 1.314 . S
C44 H50 0.930 . S
C45 N47 1.279 . S
C45 C48 1.358 . S
C45 H51 0.930 . S
C46 C44 1.353 . S
C46 C49 1.348 . S
C46 H84 0.929 . S
N47 Li2 1.990 . S
N47 C44 1.314 . S
N47 C45 1.279 . S
C48 C45 1.358 . S
C48 C49 1.356 . S
C48 H85 0.930 . S
C49 C46 1.348 . S
C49 C48 1.356 . S
H50 C44 0.930 . S
H51 C45 0.930 . S
C52 N53 1.314 . S
C52 C54 1.353 . S
C52 H58 0.930 . S
N53 Li3 1.990 . S
N53 C52 1.314 . S
N53 C56 1.279 . S
C54 C52 1.353 . S
C54 C57 1.348 . S
C54 H86 0.929 . S
C55 C56 1.358 . S
C55 C57 1.356 . S
C55 H87 0.930 . S
C56 N53 1.279 . S
C56 C55 1.358 . S
C56 H59 0.930 . S
C57 C54 1.348 . S
C57 C55 1.356 . S
H58 C52 0.930 . S
H59 C56 0.930 . S
O60 Li0 1.956 . S
O60 Li1 1.970 . S
O60 Li2 1.961 . S
O60 C4 1.325 . S
O61 Li0 1.970 . S
O61 Li1 1.956 . S
O61 Li3 1.961 . S
O61 C10 1.325 . S
O62 Li0 1.961 . S
O62 Li2 1.956 . S
O62 Li3 1.970 . S
O62 C32 1.325 . S
O63 Li1 1.961 . S
O63 Li2 1.970 . S
O63 Li3 1.956 . S
O63 C38 1.325 . S
H64 C6 0.929 . S
H65 C7 0.930 . S
H66 C8 0.930 . S
H67 C9 0.930 . S
H68 C11 0.930 . S
H69 C13 0.929 . S
H70 C14 0.930 . S
H71 C15 0.930 . S
H72 C18 0.930 . S
H73 C21 0.929 . S
H74 C26 0.929 . S
H75 C27 0.930 . S
H76 C34 0.929 . S
H77 C35 0.930 . S
H78 C36 0.930 . S
H79 C37 0.930 . S
H80 C39 0.929 . S
H81 C40 0.930 . S
H82 C41 0.930 . S
H83 C42 0.930 . S
H84 C46 0.929 . S
H85 C48 0.930 . S
H86 C54 0.929 . S
H87 C55 0.930 . S
Li88 N105 1.990 . S
Li88 O148 1.956 . S
Li88 O149 1.970 . S
Li88 O150 1.961 . S
Li89 N113 1.990 . S
Li89 O148 1.970 . S
Li89 O149 1.956 . S
Li89 O151 1.961 . S
Li90 N135 1.990 . S
Li90 O148 1.961 . S
Li90 O150 1.956 . S
Li90 O151 1.970 . S
Li91 N141 1.990 . S
Li91 O149 1.961 . S
Li91 O150 1.970 . S
Li91 O151 1.956 . S
C92 C94 1.348 . S
C92 C95 1.356 . S
C92 O148 1.325 . S
N93 C96 1.314 . S
N93 C97 1.279 . S
C94 C92 1.348 . S
C94 C96 1.353 . S
C94 H152 0.929 . S
C95 C92 1.356 . S
C95 C97 1.358 . S
C95 H153 0.930 . S
C96 N93 1.314 . S
C96 C94 1.353 . S
C96 H154 0.930 . S
C97 N93 1.279 . S
C97 C95 1.358 . S
C97 H155 0.930 . S
C98 C101 1.348 . S
C98 C102 1.356 . S
C98 O149 1.325 . S
C99 N100 1.279 . S
C99 C102 1.358 . S
C99 H156 0.930 . S
N100 C99 1.279 . S
N100 C103 1.314 . S
C101 C98 1.348 . S
C101 C103 1.353 . S
C101 H157 0.929 . S
C102 C98 1.356 . S
C102 C99 1.358 . S
C102 H158 0.930 . S
C103 N100 1.314 . S
C103 C101 1.353 . S
C103 H159 0.930 . S
C104 N105 1.314 . S
C104 C109 1.353 . S
C104 H110 0.930 . S
N105 Li88 1.990 . S
N105 C104 1.314 . S
N105 C107 1.279 . S
C106 C107 1.358 . S
C106 C108 1.356 . S
C106 H160 0.930 . S
C107 N105 1.279 . S
C107 C106 1.358 . S
C107 H111 0.930 . S
C108 C106 1.356 . S
C108 C109 1.348 . S
C109 C104 1.353 . S
C109 C108 1.348 . S
C109 H161 0.929 . S
H110 C104 0.930 . S
H111 C107 0.930 . S
C112 N113 1.314 . S
C112 C114 1.353 . S
C112 H118 0.930 . S
N113 Li89 1.990 . S
N113 C112 1.314 . S
N113 C116 1.279 . S
C114 C112 1.353 . S
C114 C117 1.348 . S
C114 H162 0.929 . S
C115 C116 1.358 . S
C115 C117 1.356 . S
C115 H163 0.930 . S
C116 N113 1.279 . S
C116 C115 1.358 . S
C116 H119 0.930 . S
C117 C114 1.348 . S
C117 C115 1.356 . S
H118 C112 0.930 . S
H119 C116 0.930 . S
C120 C122 1.348 . S
C120 C123 1.356 . S
C120 O150 1.325 . S
N121 C124 1.314 . S
N121 C125 1.279 . S
C122 C120 1.348 . S
C122 C124 1.353 . S
C122 H164 0.929 . S
C123 C120 1.356 . S
C123 C125 1.358 . S
C123 H165 0.930 . S
C124 N121 1.314 . S
C124 C122 1.353 . S
C124 H166 0.930 . S
C125 N121 1.279 . S
C125 C123 1.358 . S
C125 H167 0.930 . S
C126 C127 1.348 . S
C126 C128 1.356 . S
C126 O151 1.325 . S
C127 C126 1.348 . S
C127 C129 1.353 . S
C127 H168 0.929 . S
C128 C126 1.356 . S
C128 C130 1.358 . S
C128 H169 0.930 . S
C129 C127 1.353 . S
C129 N131 1.314 . S
C129 H170 0.930 . S
C130 C128 1.358 . S
C130 N131 1.279 . S
C130 H171 0.930 . S
N131 C129 1.314 . S
N131 C130 1.279 . S
C132 C134 1.353 . S
C132 N135 1.314 . S
C132 H138 0.930 . S
C133 N135 1.279 . S
C133 C136 1.358 . S
C133 H139 0.930 . S
C134 C132 1.353 . S
C134 C137 1.348 . S
C134 H172 0.929 . S
N135 Li90 1.990 . S
N135 C132 1.314 . S
N135 C133 1.279 . S
C136 C133 1.358 . S
C136 C137 1.356 . S
C136 H173 0.930 . S
C137 C134 1.348 . S
C137 C136 1.356 . S
H138 C132 0.930 . S
H139 C133 0.930 . S
C140 N141 1.314 . S
C140 C142 1.353 . S
C140 H146 0.930 . S
N141 Li91 1.990 . S
N141 C140 1.314 . S
N141 C144 1.279 . S
C142 C140 1.353 . S
C142 C145 1.348 . S
C142 H174 0.929 . S
C143 C144 1.358 . S
C143 C145 1.356 . S
C143 H175 0.930 . S
C144 N141 1.279 . S
C144 C143 1.358 . S
C144 H147 0.930 . S
C145 C142 1.348 . S
C145 C143 1.356 . S
H146 C140 0.930 . S
H147 C144 0.930 . S
O148 Li88 1.956 . S
O148 Li89 1.970 . S
O148 Li90 1.961 . S
O148 C92 1.325 . S
O149 Li88 1.970 . S
O149 Li89 1.956 . S
O149 Li91 1.961 . S
O149 C98 1.325 . S
O150 Li88 1.961 . S
O150 Li90 1.956 . S
O150 Li91 1.970 . S
O150 C120 1.325 . S
O151 Li89 1.961 . S
O151 Li90 1.970 . S
O151 Li91 1.956 . S
O151 C126 1.325 . S
H152 C94 0.929 . S
H153 C95 0.930 . S
H154 C96 0.930 . S
H155 C97 0.930 . S
H156 C99 0.930 . S
H157 C101 0.929 . S
H158 C102 0.930 . S
H159 C103 0.930 . S
H160 C106 0.930 . S
H161 C109 0.929 . S
H162 C114 0.929 . S
H163 C115 0.930 . S
H164 C122 0.929 . S
H165 C123 0.930 . S
H166 C124 0.930 . S
H167 C125 0.930 . S
H168 C127 0.929 . S
H169 C128 0.930 . S
H170 C129 0.930 . S
H171 C130 0.930 . S
H172 C134 0.929 . S
H173 C136 0.930 . S
H174 C142 0.929 . S
H175 C143 0.930 . S
Li176 N193 1.990 . S
Li176 O236 1.956 . S
Li176 O237 1.970 . S
Li176 O238 1.961 . S
Li177 N201 1.990 . S
Li177 O236 1.970 . S
Li177 O237 1.956 . S
Li177 O239 1.961 . S
Li178 N223 1.990 . S
Li178 O236 1.961 . S
Li178 O238 1.956 . S
Li178 O239 1.970 . S
Li179 N229 1.990 . S
Li179 O237 1.961 . S
Li179 O238 1.970 . S
Li179 O239 1.956 . S
C180 C182 1.348 . S
C180 C183 1.356 . S
C180 O236 1.325 . S
N181 C184 1.314 . S
N181 C185 1.279 . S
C182 C180 1.348 . S
C182 C184 1.353 . S
C182 H240 0.929 . S
C183 C180 1.356 . S
C183 C185 1.358 . S
C183 H241 0.930 . S
C184 N181 1.314 . S
C184 C182 1.353 . S
C184 H242 0.930 . S
C185 N181 1.279 . S
C185 C183 1.358 . S
C185 H243 0.930 . S
C186 C189 1.348 . S
C186 C190 1.356 . S
C186 O237 1.325 . S
C187 N188 1.279 . S
C187 C190 1.358 . S
C187 H244 0.930 . S
N188 C187 1.279 . S
N188 C191 1.314 . S
C189 C186 1.348 . S
C189 C191 1.353 . S
C189 H245 0.929 . S
C190 C186 1.356 . S
C190 C187 1.358 . S
C190 H246 0.930 . S
C191 N188 1.314 . S
C191 C189 1.353 . S
C191 H247 0.930 . S
C192 N193 1.314 . S
C192 C197 1.353 . S
C192 H198 0.930 . S
N193 Li176 1.990 . S
N193 C192 1.314 . S
N193 C195 1.279 . S
C194 C195 1.358 . S
C194 C196 1.356 . S
C194 H248 0.930 . S
C195 N193 1.279 . S
C195 C194 1.358 . S
C195 H199 0.930 . S
C196 C194 1.356 . S
C196 C197 1.348 . S
C197 C192 1.353 . S
C197 C196 1.348 . S
C197 H249 0.929 . S
H198 C192 0.930 . S
H199 C195 0.930 . S
C200 N201 1.314 . S
C200 C202 1.353 . S
C200 H206 0.930 . S
N201 Li177 1.990 . S
N201 C200 1.314 . S
N201 C204 1.279 . S
C202 C200 1.353 . S
C202 C205 1.348 . S
C202 H250 0.929 . S
C203 C204 1.358 . S
C203 C205 1.356 . S
C203 H251 0.930 . S
C204 N201 1.279 . S
C204 C203 1.358 . S
C204 H207 0.930 . S
C205 C202 1.348 . S
C205 C203 1.356 . S
H206 C200 0.930 . S
H207 C204 0.930 . S
C208 C210 1.348 . S
C208 C211 1.356 . S
C208 O238 1.325 . S
N209 C212 1.314 . S
N209 C213 1.279 . S
C210 C208 1.348 . S
C210 C212 1.353 . S
C210 H252 0.929 . S
C211 C208 1.356 . S
C211 C213 1.358 . S
C211 H253 0.930 . S
C212 N209 1.314 . S
C212 C210 1.353 . S
C212 H254 0.930 . S
C213 N209 1.279 . S
C213 C211 1.358 . S
C213 H255 0.930 . S
C214 C215 1.348 . S
C214 C216 1.356 . S
C214 O239 1.325 . S
C215 C214 1.348 . S
C215 C217 1.353 . S
C215 H256 0.929 . S
C216 C214 1.356 . S
C216 C218 1.358 . S
C216 H257 0.930 . S
C217 C215 1.353 . S
C217 N219 1.314 . S
C217 H258 0.930 . S
C218 C216 1.358 . S
C218 N219 1.279 . S
C218 H259 0.930 . S
N219 C217 1.314 . S
N219 C218 1.279 . S
C220 C222 1.353 . S
C220 N223 1.314 . S
C220 H226 0.930 . S
C221 N223 1.279 . S
C221 C224 1.358 . S
C221 H227 0.930 . S
C222 C220 1.353 . S
C222 C225 1.348 . S
C222 H260 0.929 . S
N223 Li178 1.990 . S
N223 C220 1.314 . S
N223 C221 1.279 . S
C224 C221 1.358 . S
C224 C225 1.356 . S
C224 H261 0.930 . S
C225 C222 1.348 . S
C225 C224 1.356 . S
H226 C220 0.930 . S
H227 C221 0.930 . S
C228 N229 1.314 . S
C228 C230 1.353 . S
C228 H234 0.930 . S
N229 Li179 1.990 . S
N229 C228 1.314 . S
N229 C232 1.279 . S
C230 C228 1.353 . S
C230 C233 1.348 . S
C230 H262 0.929 . S
C231 C232 1.358 . S
C231 C233 1.356 . S
C231 H263 0.930 . S
C232 N229 1.279 . S
C232 C231 1.358 . S
C232 H235 0.930 . S
C233 C230 1.348 . S
C233 C231 1.356 . S
H234 C228 0.930 . S
H235 C232 0.930 . S
O236 Li176 1.956 . S
O236 Li177 1.970 . S
O236 Li178 1.961 . S
O236 C180 1.325 . S
O237 Li176 1.970 . S
O237 Li177 1.956 . S
O237 Li179 1.961 . S
O237 C186 1.325 . S
O238 Li176 1.961 . S
O238 Li178 1.956 . S
O238 Li179 1.970 . S
O238 C208 1.325 . S
O239 Li177 1.961 . S
O239 Li178 1.970 . S
O239 Li179 1.956 . S
O239 C214 1.325 . S
H240 C182 0.929 . S
H241 C183 0.930 . S
H242 C184 0.930 . S
H243 C185 0.930 . S
H244 C187 0.930 . S
H245 C189 0.929 . S
H246 C190 0.930 . S
H247 C191 0.930 . S
H248 C194 0.930 . S
H249 C197 0.929 . S
H250 C202 0.929 . S
H251 C203 0.930 . S
H252 C210 0.929 . S
H253 C211 0.930 . S
H254 C212 0.930 . S
H255 C213 0.930 . S
H256 C215 0.929 . S
H257 C216 0.930 . S
H258 C217 0.930 . S
H259 C218 0.930 . S
H260 C222 0.929 . S
H261 C224 0.930 . S
H262 C230 0.929 . S
H263 C231 0.930 . S
Li264 N281 1.990 . S
Li264 O324 1.956 . S
Li264 O325 1.970 . S
Li264 O326 1.961 . S
Li265 N289 1.990 . S
Li265 O324 1.970 . S
Li265 O325 1.956 . S
Li265 O327 1.961 . S
Li266 N311 1.990 . S
Li266 O324 1.961 . S
Li266 O326 1.956 . S
Li266 O327 1.970 . S
Li267 N317 1.990 . S
Li267 O325 1.961 . S
Li267 O326 1.970 . S
Li267 O327 1.956 . S
C268 C270 1.348 . S
C268 C271 1.356 . S
C268 O324 1.325 . S
N269 C272 1.314 . S
N269 C273 1.279 . S
C270 C268 1.348 . S
C270 C272 1.353 . S
C270 H328 0.929 . S
C271 C268 1.356 . S
C271 C273 1.358 . S
C271 H329 0.930 . S
C272 N269 1.314 . S
C272 C270 1.353 . S
C272 H330 0.930 . S
C273 N269 1.279 . S
C273 C271 1.358 . S
C273 H331 0.930 . S
C274 C277 1.348 . S
C274 C278 1.356 . S
C274 O325 1.325 . S
C275 N276 1.279 . S
C275 C278 1.358 . S
C275 H332 0.930 . S
N276 C275 1.279 . S
N276 C279 1.314 . S
C277 C274 1.348 . S
C277 C279 1.353 . S
C277 H333 0.929 . S
C278 C274 1.356 . S
C278 C275 1.358 . S
C278 H334 0.930 . S
C279 N276 1.314 . S
C279 C277 1.353 . S
C279 H335 0.930 . S
C280 N281 1.314 . S
C280 C285 1.353 . S
C280 H286 0.930 . S
N281 Li264 1.990 . S
N281 C280 1.314 . S
N281 C283 1.279 . S
C282 C283 1.358 . S
C282 C284 1.356 . S
C282 H336 0.930 . S
C283 N281 1.279 . S
C283 C282 1.358 . S
C283 H287 0.930 . S
C284 C282 1.356 . S
C284 C285 1.348 . S
C285 C280 1.353 . S
C285 C284 1.348 . S
C285 H337 0.929 . S
H286 C280 0.930 . S
H287 C283 0.930 . S
C288 N289 1.314 . S
C288 C290 1.353 . S
C288 H294 0.930 . S
N289 Li265 1.990 . S
N289 C288 1.314 . S
N289 C292 1.279 . S
C290 C288 1.353 . S
C290 C293 1.348 . S
C290 H338 0.929 . S
C291 C292 1.358 . S
C291 C293 1.356 . S
C291 H339 0.930 . S
C292 N289 1.279 . S
C292 C291 1.358 . S
C292 H295 0.930 . S
C293 C290 1.348 . S
C293 C291 1.356 . S
H294 C288 0.930 . S
H295 C292 0.930 . S
C296 C298 1.348 . S
C296 C299 1.356 . S
C296 O326 1.325 . S
N297 C300 1.314 . S
N297 C301 1.279 . S
C298 C296 1.348 . S
C298 C300 1.353 . S
C298 H340 0.929 . S
C299 C296 1.356 . S
C299 C301 1.358 . S
C299 H341 0.930 . S
C300 N297 1.314 . S
C300 C298 1.353 . S
C300 H342 0.930 . S
C301 N297 1.279 . S
C301 C299 1.358 . S
C301 H343 0.930 . S
C302 C303 1.348 . S
C302 C304 1.356 . S
C302 O327 1.325 . S
C303 C302 1.348 . S
C303 C305 1.353 . S
C303 H344 0.929 . S
C304 C302 1.356 . S
C304 C306 1.358 . S
C304 H345 0.930 . S
C305 C303 1.353 . S
C305 N307 1.314 . S
C305 H346 0.930 . S
C306 C304 1.358 . S
C306 N307 1.279 . S
C306 H347 0.930 . S
N307 C305 1.314 . S
N307 C306 1.279 . S
C308 C310 1.353 . S
C308 N311 1.314 . S
C308 H314 0.930 . S
C309 N311 1.279 . S
C309 C312 1.358 . S
C309 H315 0.930 . S
C310 C308 1.353 . S
C310 C313 1.348 . S
C310 H348 0.929 . S
N311 Li266 1.990 . S
N311 C308 1.314 . S
N311 C309 1.279 . S
C312 C309 1.358 . S
C312 C313 1.356 . S
C312 H349 0.930 . S
C313 C310 1.348 . S
C313 C312 1.356 . S
H314 C308 0.930 . S
H315 C309 0.930 . S
C316 N317 1.314 . S
C316 C318 1.353 . S
C316 H322 0.930 . S
N317 Li267 1.990 . S
N317 C316 1.314 . S
N317 C320 1.279 . S
C318 C316 1.353 . S
C318 C321 1.348 . S
C318 H350 0.929 . S
C319 C320 1.358 . S
C319 C321 1.356 . S
C319 H351 0.930 . S
C320 N317 1.279 . S
C320 C319 1.358 . S
C320 H323 0.930 . S
C321 C318 1.348 . S
C321 C319 1.356 . S
H322 C316 0.930 . S
H323 C320 0.930 . S
O324 Li264 1.956 . S
O324 Li265 1.970 . S
O324 Li266 1.961 . S
O324 C268 1.325 . S
O325 Li264 1.970 . S
O325 Li265 1.956 . S
O325 Li267 1.961 . S
O325 C274 1.325 . S
O326 Li264 1.961 . S
O326 Li266 1.956 . S
O326 Li267 1.970 . S
O326 C296 1.325 . S
O327 Li265 1.961 . S
O327 Li266 1.970 . S
O327 Li267 1.956 . S
O327 C302 1.325 . S
H328 C270 0.929 . S
H329 C271 0.930 . S
H330 C272 0.930 . S
H331 C273 0.930 . S
H332 C275 0.930 . S
H333 C277 0.929 . S
H334 C278 0.930 . S
H335 C279 0.930 . S
H336 C282 0.930 . S
H337 C285 0.929 . S
H338 C290 0.929 . S
H339 C291 0.930 . S
H340 C298 0.929 . S
H341 C299 0.930 . S
H342 C300 0.930 . S
H343 C301 0.930 . S
H344 C303 0.929 . S
H345 C304 0.930 . S
H346 C305 0.930 . S
H347 C306 0.930 . S
H348 C310 0.929 . S
H349 C312 0.930 . S
H350 C318 0.929 . S
H351 C319 0.930 . S
Li352 N369 1.990 . S
Li352 O412 1.956 . S
Li352 O413 1.970 . S
Li352 O414 1.961 . S
Li353 N377 1.990 . S
Li353 O412 1.970 . S
Li353 O413 1.956 . S
Li353 O415 1.961 . S
Li354 N399 1.990 . S
Li354 O412 1.961 . S
Li354 O414 1.956 . S
Li354 O415 1.970 . S
Li355 N405 1.990 . S
Li355 O413 1.961 . S
Li355 O414 1.970 . S
Li355 O415 1.956 . S
C356 C358 1.348 . S
C356 C359 1.356 . S
C356 O412 1.325 . S
N357 C360 1.314 . S
N357 C361 1.279 . S
C358 C356 1.348 . S
C358 C360 1.353 . S
C358 H416 0.929 . S
C359 C356 1.356 . S
C359 C361 1.358 . S
C359 H417 0.930 . S
C360 N357 1.314 . S
C360 C358 1.353 . S
C360 H418 0.930 . S
C361 N357 1.279 . S
C361 C359 1.358 . S
C361 H419 0.930 . S
C362 C365 1.348 . S
C362 C366 1.356 . S
C362 O413 1.325 . S
C363 N364 1.279 . S
C363 C366 1.358 . S
C363 H420 0.930 . S
N364 C363 1.279 . S
N364 C367 1.314 . S
C365 C362 1.348 . S
C365 C367 1.353 . S
C365 H421 0.929 . S
C366 C362 1.356 . S
C366 C363 1.358 . S
C366 H422 0.930 . S
C367 N364 1.314 . S
C367 C365 1.353 . S
C367 H423 0.930 . S
C368 N369 1.314 . S
C368 C373 1.353 . S
C368 H374 0.930 . S
N369 Li352 1.990 . S
N369 C368 1.314 . S
N369 C371 1.279 . S
C370 C371 1.358 . S
C370 C372 1.356 . S
C370 H424 0.930 . S
C371 N369 1.279 . S
C371 C370 1.358 . S
C371 H375 0.930 . S
C372 C370 1.356 . S
C372 C373 1.348 . S
C373 C368 1.353 . S
C373 C372 1.348 . S
C373 H425 0.929 . S
H374 C368 0.930 . S
H375 C371 0.930 . S
C376 N377 1.314 . S
C376 C378 1.353 . S
C376 H382 0.930 . S
N377 Li353 1.990 . S
N377 C376 1.314 . S
N377 C380 1.279 . S
C378 C376 1.353 . S
C378 C381 1.348 . S
C378 H426 0.929 . S
C379 C380 1.358 . S
C379 C381 1.356 . S
C379 H427 0.930 . S
C380 N377 1.279 . S
C380 C379 1.358 . S
C380 H383 0.930 . S
C381 C378 1.348 . S
C381 C379 1.356 . S
H382 C376 0.930 . S
H383 C380 0.930 . S
C384 C386 1.348 . S
C384 C387 1.356 . S
C384 O414 1.325 . S
N385 C388 1.314 . S
N385 C389 1.279 . S
C386 C384 1.348 . S
C386 C388 1.353 . S
C386 H428 0.929 . S
C387 C384 1.356 . S
C387 C389 1.358 . S
C387 H429 0.930 . S
C388 N385 1.314 . S
C388 C386 1.353 . S
C388 H430 0.930 . S
C389 N385 1.279 . S
C389 C387 1.358 . S
C389 H431 0.930 . S
C390 C391 1.348 . S
C390 C392 1.356 . S
C390 O415 1.325 . S
C391 C390 1.348 . S
C391 C393 1.353 . S
C391 H432 0.929 . S
C392 C390 1.356 . S
C392 C394 1.358 . S
C392 H433 0.930 . S
C393 C391 1.353 . S
C393 N395 1.314 . S
C393 H434 0.930 . S
C394 C392 1.358 . S
C394 N395 1.279 . S
C394 H435 0.930 . S
N395 C393 1.314 . S
N395 C394 1.279 . S
C396 C398 1.353 . S
C396 N399 1.314 . S
C396 H402 0.930 . S
C397 N399 1.279 . S
C397 C400 1.358 . S
C397 H403 0.930 . S
C398 C396 1.353 . S
C398 C401 1.348 . S
C398 H436 0.929 . S
N399 Li354 1.990 . S
N399 C396 1.314 . S
N399 C397 1.279 . S
C400 C397 1.358 . S
C400 C401 1.356 . S
C400 H437 0.930 . S
C401 C398 1.348 . S
C401 C400 1.356 . S
H402 C396 0.930 . S
H403 C397 0.930 . S
C404 N405 1.314 . S
C404 C406 1.353 . S
C404 H410 0.930 . S
N405 Li355 1.990 . S
N405 C404 1.314 . S
N405 C408 1.279 . S
C406 C404 1.353 . S
C406 C409 1.348 . S
C406 H438 0.929 . S
C407 C408 1.358 . S
C407 C409 1.356 . S
C407 H439 0.930 . S
C408 N405 1.279 . S
C408 C407 1.358 . S
C408 H411 0.930 . S
C409 C406 1.348 . S
C409 C407 1.356 . S
H410 C404 0.930 . S
H411 C408 0.930 . S
O412 Li352 1.956 . S
O412 Li353 1.970 . S
O412 Li354 1.961 . S
O412 C356 1.325 . S
O413 Li352 1.970 . S
O413 Li353 1.956 . S
O413 Li355 1.961 . S
O413 C362 1.325 . S
O414 Li352 1.961 . S
O414 Li354 1.956 . S
O414 Li355 1.970 . S
O414 C384 1.325 . S
O415 Li353 1.961 . S
O415 Li354 1.970 . S
O415 Li355 1.956 . S
O415 C390 1.325 . S
H416 C358 0.929 . S
H417 C359 0.930 . S
H418 C360 0.930 . S
H419 C361 0.930 . S
H420 C363 0.930 . S
H421 C365 0.929 . S
H422 C366 0.930 . S
H423 C367 0.930 . S
H424 C370 0.930 . S
H425 C373 0.929 . S
H426 C378 0.929 . S
H427 C379 0.930 . S
H428 C386 0.929 . S
H429 C387 0.930 . S
H430 C388 0.930 . S
H431 C389 0.930 . S
H432 C391 0.929 . S
H433 C392 0.930 . S
H434 C393 0.930 . S
H435 C394 0.930 . S
H436 C398 0.929 . S
H437 C400 0.930 . S
H438 C406 0.929 . S
H439 C407 0.930 . S
Li440 N457 1.990 . S
Li440 O500 1.956 . S
Li440 O501 1.970 . S
Li440 O502 1.961 . S
Li441 N465 1.990 . S
Li441 O500 1.970 . S
Li441 O501 1.956 . S
Li441 O503 1.961 . S
Li442 N487 1.990 . S
Li442 O500 1.961 . S
Li442 O502 1.956 . S
Li442 O503 1.970 . S
Li443 N493 1.990 . S
Li443 O501 1.961 . S
Li443 O502 1.970 . S
Li443 O503 1.956 . S
C444 C446 1.348 . S
C444 C447 1.356 . S
C444 O500 1.325 . S
N445 C448 1.314 . S
N445 C449 1.279 . S
C446 C444 1.348 . S
C446 C448 1.353 . S
C446 H504 0.929 . S
C447 C444 1.356 . S
C447 C449 1.358 . S
C447 H505 0.930 . S
C448 N445 1.314 . S
C448 C446 1.353 . S
C448 H506 0.930 . S
C449 N445 1.279 . S
C449 C447 1.358 . S
C449 H507 0.930 . S
C450 C453 1.348 . S
C450 C454 1.356 . S
C450 O501 1.325 . S
C451 N452 1.279 . S
C451 C454 1.358 . S
C451 H508 0.930 . S
N452 C451 1.279 . S
N452 C455 1.314 . S
C453 C450 1.348 . S
C453 C455 1.353 . S
C453 H509 0.929 . S
C454 C450 1.356 . S
C454 C451 1.358 . S
C454 H510 0.930 . S
C455 N452 1.314 . S
C455 C453 1.353 . S
C455 H511 0.930 . S
C456 N457 1.314 . S
C456 C461 1.353 . S
C456 H462 0.930 . S
N457 Li440 1.990 . S
N457 C456 1.314 . S
N457 C459 1.279 . S
C458 C459 1.358 . S
C458 C460 1.356 . S
C458 H512 0.930 . S
C459 N457 1.279 . S
C459 C458 1.358 . S
C459 H463 0.930 . S
C460 C458 1.356 . S
C460 C461 1.348 . S
C461 C456 1.353 . S
C461 C460 1.348 . S
C461 H513 0.929 . S
H462 C456 0.930 . S
H463 C459 0.930 . S
C464 N465 1.314 . S
C464 C466 1.353 . S
C464 H470 0.930 . S
N465 Li441 1.990 . S
N465 C464 1.314 . S
N465 C468 1.279 . S
C466 C464 1.353 . S
C466 C469 1.348 . S
C466 H514 0.929 . S
C467 C468 1.358 . S
C467 C469 1.356 . S
C467 H515 0.930 . S
C468 N465 1.279 . S
C468 C467 1.358 . S
C468 H471 0.930 . S
C469 C466 1.348 . S
C469 C467 1.356 . S
H470 C464 0.930 . S
H471 C468 0.930 . S
C472 C474 1.348 . S
C472 C475 1.356 . S
C472 O502 1.325 . S
N473 C476 1.314 . S
N473 C477 1.279 . S
C474 C472 1.348 . S
C474 C476 1.353 . S
C474 H516 0.929 . S
C475 C472 1.356 . S
C475 C477 1.358 . S
C475 H517 0.930 . S
C476 N473 1.314 . S
C476 C474 1.353 . S
C476 H518 0.930 . S
C477 N473 1.279 . S
C477 C475 1.358 . S
C477 H519 0.930 . S
C478 C479 1.348 . S
C478 C480 1.356 . S
C478 O503 1.325 . S
C479 C478 1.348 . S
C479 C481 1.353 . S
C479 H520 0.929 . S
C480 C478 1.356 . S
C480 C482 1.358 . S
C480 H521 0.930 . S
C481 C479 1.353 . S
C481 N483 1.314 . S
C481 H522 0.930 . S
C482 C480 1.358 . S
C482 N483 1.279 . S
C482 H523 0.930 . S
N483 C481 1.314 . S
N483 C482 1.279 . S
C484 C486 1.353 . S
C484 N487 1.314 . S
C484 H490 0.930 . S
C485 N487 1.279 . S
C485 C488 1.358 . S
C485 H491 0.930 . S
C486 C484 1.353 . S
C486 C489 1.348 . S
C486 H524 0.929 . S
N487 Li442 1.990 . S
N487 C484 1.314 . S
N487 C485 1.279 . S
C488 C485 1.358 . S
C488 C489 1.356 . S
C488 H525 0.930 . S
C489 C486 1.348 . S
C489 C488 1.356 . S
H490 C484 0.930 . S
H491 C485 0.930 . S
C492 N493 1.314 . S
C492 C494 1.353 . S
C492 H498 0.930 . S
N493 Li443 1.990 . S
N493 C492 1.314 . S
N493 C496 1.279 . S
C494 C492 1.353 . S
C494 C497 1.348 . S
C494 H526 0.929 . S
C495 C496 1.358 . S
C495 C497 1.356 . S
C495 H527 0.930 . S
C496 N493 1.279 . S
C496 C495 1.358 . S
C496 H499 0.930 . S
C497 C494 1.348 . S
C497 C495 1.356 . S
H498 C492 0.930 . S
H499 C496 0.930 . S
O500 Li440 1.956 . S
O500 Li441 1.970 . S
O500 Li442 1.961 . S
O500 C444 1.325 . S
O501 Li440 1.970 . S
O501 Li441 1.956 . S
O501 Li443 1.961 . S
O501 C450 1.325 . S
O502 Li440 1.961 . S
O502 Li442 1.956 . S
O502 Li443 1.970 . S
O502 C472 1.325 . S
O503 Li441 1.961 . S
O503 Li442 1.970 . S
O503 Li443 1.956 . S
O503 C478 1.325 . S
H504 C446 0.929 . S
H505 C447 0.930 . S
H506 C448 0.930 . S
H507 C449 0.930 . S
H508 C451 0.930 . S
H509 C453 0.929 . S
H510 C454 0.930 . S
H511 C455 0.930 . S
H512 C458 0.930 . S
H513 C461 0.929 . S
H514 C466 0.929 . S
H515 C467 0.930 . S
H516 C474 0.929 . S
H517 C475 0.930 . S
H518 C476 0.930 . S
H519 C477 0.930 . S
H520 C479 0.929 . S
H521 C480 0.930 . S
H522 C481 0.930 . S
H523 C482 0.930 . S
H524 C486 0.929 . S
H525 C488 0.930 . S
H526 C494 0.929 . S
H527 C495 0.930 . S
Li528 N545 1.990 . S
Li528 O588 1.956 . S
Li528 O589 1.970 . S
Li528 O590 1.961 . S
Li529 N553 1.990 . S
Li529 O588 1.970 . S
Li529 O589 1.956 . S
Li529 O591 1.961 . S
Li530 N575 1.990 . S
Li530 O588 1.961 . S
Li530 O590 1.956 . S
Li530 O591 1.970 . S
Li531 N581 1.990 . S
Li531 O589 1.961 . S
Li531 O590 1.970 . S
Li531 O591 1.956 . S
C532 C534 1.348 . S
C532 C535 1.356 . S
C532 O588 1.325 . S
N533 C536 1.314 . S
N533 C537 1.279 . S
C534 C532 1.348 . S
C534 C536 1.353 . S
C534 H592 0.929 . S
C535 C532 1.356 . S
C535 C537 1.358 . S
C535 H593 0.930 . S
C536 N533 1.314 . S
C536 C534 1.353 . S
C536 H594 0.930 . S
C537 N533 1.279 . S
C537 C535 1.358 . S
C537 H595 0.930 . S
C538 C541 1.348 . S
C538 C542 1.356 . S
C538 O589 1.325 . S
C539 N540 1.279 . S
C539 C542 1.358 . S
C539 H596 0.930 . S
N540 C539 1.279 . S
N540 C543 1.314 . S
C541 C538 1.348 . S
C541 C543 1.353 . S
C541 H597 0.929 . S
C542 C538 1.356 . S
C542 C539 1.358 . S
C542 H598 0.930 . S
C543 N540 1.314 . S
C543 C541 1.353 . S
C543 H599 0.930 . S
C544 N545 1.314 . S
C544 C549 1.353 . S
C544 H550 0.930 . S
N545 Li528 1.990 . S
N545 C544 1.314 . S
N545 C547 1.279 . S
C546 C547 1.358 . S
C546 C548 1.356 . S
C546 H600 0.930 . S
C547 N545 1.279 . S
C547 C546 1.358 . S
C547 H551 0.930 . S
C548 C546 1.356 . S
C548 C549 1.348 . S
C549 C544 1.353 . S
C549 C548 1.348 . S
C549 H601 0.929 . S
H550 C544 0.930 . S
H551 C547 0.930 . S
C552 N553 1.314 . S
C552 C554 1.353 . S
C552 H558 0.930 . S
N553 Li529 1.990 . S
N553 C552 1.314 . S
N553 C556 1.279 . S
C554 C552 1.353 . S
C554 C557 1.348 . S
C554 H602 0.929 . S
C555 C556 1.358 . S
C555 C557 1.356 . S
C555 H603 0.930 . S
C556 N553 1.279 . S
C556 C555 1.358 . S
C556 H559 0.930 . S
C557 C554 1.348 . S
C557 C555 1.356 . S
H558 C552 0.930 . S
H559 C556 0.930 . S
C560 C562 1.348 . S
C560 C563 1.356 . S
C560 O590 1.325 . S
N561 C564 1.314 . S
N561 C565 1.279 . S
C562 C560 1.348 . S
C562 C564 1.353 . S
C562 H604 0.929 . S
C563 C560 1.356 . S
C563 C565 1.358 . S
C563 H605 0.930 . S
C564 N561 1.314 . S
C564 C562 1.353 . S
C564 H606 0.930 . S
C565 N561 1.279 . S
C565 C563 1.358 . S
C565 H607 0.930 . S
C566 C567 1.348 . S
C566 C568 1.356 . S
C566 O591 1.325 . S
C567 C566 1.348 . S
C567 C569 1.353 . S
C567 H608 0.929 . S
C568 C566 1.356 . S
C568 C570 1.358 . S
C568 H609 0.930 . S
C569 C567 1.353 . S
C569 N571 1.314 . S
C569 H610 0.930 . S
C570 C568 1.358 . S
C570 N571 1.279 . S
C570 H611 0.930 . S
N571 C569 1.314 . S
N571 C570 1.279 . S
C572 C574 1.353 . S
C572 N575 1.314 . S
C572 H578 0.930 . S
C573 N575 1.279 . S
C573 C576 1.358 . S
C573 H579 0.930 . S
C574 C572 1.353 . S
C574 C577 1.348 . S
C574 H612 0.929 . S
N575 Li530 1.990 . S
N575 C572 1.314 . S
N575 C573 1.279 . S
C576 C573 1.358 . S
C576 C577 1.356 . S
C576 H613 0.930 . S
C577 C574 1.348 . S
C577 C576 1.356 . S
H578 C572 0.930 . S
H579 C573 0.930 . S
C580 N581 1.314 . S
C580 C582 1.353 . S
C580 H586 0.930 . S
N581 Li531 1.990 . S
N581 C580 1.314 . S
N581 C584 1.279 . S
C582 C580 1.353 . S
C582 C585 1.348 . S
C582 H614 0.929 . S
C583 C584 1.358 . S
C583 C585 1.356 . S
C583 H615 0.930 . S
C584 N581 1.279 . S
C584 C583 1.358 . S
C584 H587 0.930 . S
C585 C582 1.348 . S
C585 C583 1.356 . S
H586 C580 0.930 . S
H587 C584 0.930 . S
O588 Li528 1.956 . S
O588 Li529 1.970 . S
O588 Li530 1.961 . S
O588 C532 1.325 . S
O589 Li528 1.970 . S
O589 Li529 1.956 . S
O589 Li531 1.961 . S
O589 C538 1.325 . S
O590 Li528 1.961 . S
O590 Li530 1.956 . S
O590 Li531 1.970 . S
O590 C560 1.325 . S
O591 Li529 1.961 . S
O591 Li530 1.970 . S
O591 Li531 1.956 . S
O591 C566 1.325 . S
H592 C534 0.929 . S
H593 C535 0.930 . S
H594 C536 0.930 . S
H595 C537 0.930 . S
H596 C539 0.930 . S
H597 C541 0.929 . S
H598 C542 0.930 . S
H599 C543 0.930 . S
H600 C546 0.930 . S
H601 C549 0.929 . S
H602 C554 0.929 . S
H603 C555 0.930 . S
H604 C562 0.929 . S
H605 C563 0.930 . S
H606 C564 0.930 . S
H607 C565 0.930 . S
H608 C567 0.929 . S
H609 C568 0.930 . S
H610 C569 0.930 . S
H611 C570 0.930 . S
H612 C574 0.929 . S
H613 C576 0.930 . S
H614 C582 0.929 . S
H615 C583 0.930 . S
Li616 N633 1.990 . S
Li616 O676 1.956 . S
Li616 O677 1.970 . S
Li616 O678 1.961 . S
Li617 N641 1.990 . S
Li617 O676 1.970 . S
Li617 O677 1.956 . S
Li617 O679 1.961 . S
Li618 N663 1.990 . S
Li618 O676 1.961 . S
Li618 O678 1.956 . S
Li618 O679 1.970 . S
Li619 N669 1.990 . S
Li619 O677 1.961 . S
Li619 O678 1.970 . S
Li619 O679 1.956 . S
C620 C622 1.348 . S
C620 C623 1.356 . S
C620 O676 1.325 . S
N621 C624 1.314 . S
N621 C625 1.279 . S
C622 C620 1.348 . S
C622 C624 1.353 . S
C622 H680 0.929 . S
C623 C620 1.356 . S
C623 C625 1.358 . S
C623 H681 0.930 . S
C624 N621 1.314 . S
C624 C622 1.353 . S
C624 H682 0.930 . S
C625 N621 1.279 . S
C625 C623 1.358 . S
C625 H683 0.930 . S
C626 C629 1.348 . S
C626 C630 1.356 . S
C626 O677 1.325 . S
C627 N628 1.279 . S
C627 C630 1.358 . S
C627 H684 0.930 . S
N628 C627 1.279 . S
N628 C631 1.314 . S
C629 C626 1.348 . S
C629 C631 1.353 . S
C629 H685 0.929 . S
C630 C626 1.356 . S
C630 C627 1.358 . S
C630 H686 0.930 . S
C631 N628 1.314 . S
C631 C629 1.353 . S
C631 H687 0.930 . S
C632 N633 1.314 . S
C632 C637 1.353 . S
C632 H638 0.930 . S
N633 Li616 1.990 . S
N633 C632 1.314 . S
N633 C635 1.279 . S
C634 C635 1.358 . S
C634 C636 1.356 . S
C634 H688 0.930 . S
C635 N633 1.279 . S
C635 C634 1.358 . S
C635 H639 0.930 . S
C636 C634 1.356 . S
C636 C637 1.348 . S
C637 C632 1.353 . S
C637 C636 1.348 . S
C637 H689 0.929 . S
H638 C632 0.930 . S
H639 C635 0.930 . S
C640 N641 1.314 . S
C640 C642 1.353 . S
C640 H646 0.930 . S
N641 Li617 1.990 . S
N641 C640 1.314 . S
N641 C644 1.279 . S
C642 C640 1.353 . S
C642 C645 1.348 . S
C642 H690 0.929 . S
C643 C644 1.358 . S
C643 C645 1.356 . S
C643 H691 0.930 . S
C644 N641 1.279 . S
C644 C643 1.358 . S
C644 H647 0.930 . S
C645 C642 1.348 . S
C645 C643 1.356 . S
H646 C640 0.930 . S
H647 C644 0.930 . S
C648 C650 1.348 . S
C648 C651 1.356 . S
C648 O678 1.325 . S
N649 C652 1.314 . S
N649 C653 1.279 . S
C650 C648 1.348 . S
C650 C652 1.353 . S
C650 H692 0.929 . S
C651 C648 1.356 . S
C651 C653 1.358 . S
C651 H693 0.930 . S
C652 N649 1.314 . S
C652 C650 1.353 . S
C652 H694 0.930 . S
C653 N649 1.279 . S
C653 C651 1.358 . S
C653 H695 0.930 . S
C654 C655 1.348 . S
C654 C656 1.356 . S
C654 O679 1.325 . S
C655 C654 1.348 . S
C655 C657 1.353 . S
C655 H696 0.929 . S
C656 C654 1.356 . S
C656 C658 1.358 . S
C656 H697 0.930 . S
C657 C655 1.353 . S
C657 N659 1.314 . S
C657 H698 0.930 . S
C658 C656 1.358 . S
C658 N659 1.279 . S
C658 H699 0.930 . S
N659 C657 1.314 . S
N659 C658 1.279 . S
C660 C662 1.353 . S
C660 N663 1.314 . S
C660 H666 0.930 . S
C661 N663 1.279 . S
C661 C664 1.358 . S
C661 H667 0.930 . S
C662 C660 1.353 . S
C662 C665 1.348 . S
C662 H700 0.929 . S
N663 Li618 1.990 . S
N663 C660 1.314 . S
N663 C661 1.279 . S
C664 C661 1.358 . S
C664 C665 1.356 . S
C664 H701 0.930 . S
C665 C662 1.348 . S
C665 C664 1.356 . S
H666 C660 0.930 . S
H667 C661 0.930 . S
C668 N669 1.314 . S
C668 C670 1.353 . S
C668 H674 0.930 . S
N669 Li619 1.990 . S
N669 C668 1.314 . S
N669 C672 1.279 . S
C670 C668 1.353 . S
C670 C673 1.348 . S
C670 H702 0.929 . S
C671 C672 1.358 . S
C671 C673 1.356 . S
C671 H703 0.930 . S
C672 N669 1.279 . S
C672 C671 1.358 . S
C672 H675 0.930 . S
C673 C670 1.348 . S
C673 C671 1.356 . S
H674 C668 0.930 . S
H675 C672 0.930 . S
O676 Li616 1.956 . S
O676 Li617 1.970 . S
O676 Li618 1.961 . S
O676 C620 1.325 . S
O677 Li616 1.970 . S
O677 Li617 1.956 . S
O677 Li619 1.961 . S
O677 C626 1.325 . S
O678 Li616 1.961 . S
O678 Li618 1.956 . S
O678 Li619 1.970 . S
O678 C648 1.325 . S
O679 Li617 1.961 . S
O679 Li618 1.970 . S
O679 Li619 1.956 . S
O679 C654 1.325 . S
H680 C622 0.929 . S
H681 C623 0.930 . S
H682 C624 0.930 . S
H683 C625 0.930 . S
H684 C627 0.930 . S
H685 C629 0.929 . S
H686 C630 0.930 . S
H687 C631 0.930 . S
H688 C634 0.930 . S
H689 C637 0.929 . S
H690 C642 0.929 . S
H691 C643 0.930 . S
H692 C650 0.929 . S
H693 C651 0.930 . S
H694 C652 0.930 . S
H695 C653 0.930 . S
H696 C655 0.929 . S
H697 C656 0.930 . S
H698 C657 0.930 . S
H699 C658 0.930 . S
H700 C662 0.929 . S
H701 C664 0.930 . S
H702 C670 0.929 . S
H703 C671 0.930 . S
Li704 N721 1.990 . S
Li704 O764 1.956 . S
Li704 O765 1.970 . S
Li704 O766 1.961 . S
Li705 N729 1.990 . S
Li705 O764 1.970 . S
Li705 O765 1.956 . S
Li705 O767 1.961 . S
Li706 N751 1.990 . S
Li706 O764 1.961 . S
Li706 O766 1.956 . S
Li706 O767 1.970 . S
Li707 N757 1.990 . S
Li707 O765 1.961 . S
Li707 O766 1.970 . S
Li707 O767 1.956 . S
C708 C710 1.348 . S
C708 C711 1.356 . S
C708 O764 1.325 . S
N709 C712 1.311 1_545 S
N709 C713 1.263 1_545 S
C710 C708 1.348 . S
C710 C712 1.353 . S
C710 H768 0.929 . S
C711 C708 1.356 . S
C711 C713 1.358 . S
C711 H769 0.930 . S
C712 N709 1.311 1_565 S
C712 C710 1.353 . S
C712 H770 0.930 1_565 S
C713 N709 1.263 1_565 S
C713 C711 1.358 . S
C713 H771 0.930 . S
C714 C717 1.348 . S
C714 C718 1.356 . S
C714 O765 1.325 . S
C715 N716 1.279 . S
C715 C718 1.358 . S
C715 H772 0.930 . S
N716 C715 1.279 . S
N716 C719 1.314 . S
C717 C714 1.348 . S
C717 C719 1.353 . S
C717 H773 0.929 . S
C718 C714 1.356 . S
C718 C715 1.358 . S
C718 H774 0.930 . S
C719 N716 1.314 . S
C719 C717 1.353 . S
C719 H775 0.930 1_565 S
C720 N721 1.314 . S
C720 C725 1.353 1_565 S
C720 H726 0.930 . S
N721 Li704 1.990 . S
N721 C720 1.314 . S
N721 C723 1.279 1_565 S
C722 C723 1.358 . S
C722 C724 1.356 . S
C722 H776 0.930 . S
C723 N721 1.279 1_545 S
C723 C722 1.358 . S
C723 H727 0.930 . S
C724 C722 1.356 . S
C724 C725 1.348 . S
C725 C720 1.353 1_545 S
C725 C724 1.348 . S
C725 H777 0.929 . S
H726 C720 0.930 . S
H727 C723 0.930 . S
C728 N729 1.314 . S
C728 C730 1.353 . S
C728 H734 0.930 . S
N729 Li705 1.990 . S
N729 C728 1.314 . S
N729 C732 1.279 . S
C730 C728 1.353 . S
C730 C733 1.348 . S
C730 H778 0.929 . S
C731 C732 1.358 . S
C731 C733 1.356 . S
C731 H779 0.930 . S
C732 N729 1.279 . S
C732 C731 1.358 . S
C732 H735 0.930 . S
C733 C730 1.348 . S
C733 C731 1.356 . S
H734 C728 0.930 . S
H735 C732 0.930 . S
C736 C738 1.348 . S
C736 C739 1.356 . S
C736 O766 1.325 . S
N737 C740 1.314 . S
N737 C741 1.279 . S
C738 C736 1.348 . S
C738 C740 1.353 . S
C738 H780 0.929 . S
C739 C736 1.356 . S
C739 C741 1.358 . S
C739 H781 0.930 . S
C740 N737 1.314 . S
C740 C738 1.353 . S
C740 H782 0.930 . S
C741 N737 1.279 . S
C741 C739 1.358 . S
C741 H783 0.930 . S
C742 C743 1.348 . S
C742 C744 1.356 . S
C742 O767 1.325 . S
C743 C742 1.348 . S
C743 C745 1.353 . S
C743 H784 0.929 . S
C744 C742 1.356 . S
C744 C746 1.358 . S
C744 H785 0.930 . S
C745 C743 1.353 . S
C745 N747 1.314 . S
C745 H786 0.930 . S
C746 C744 1.358 . S
C746 N747 1.279 . S
C746 H787 0.930 . S
N747 C745 1.314 . S
N747 C746 1.279 . S
C748 C750 1.353 . S
C748 N751 1.314 . S
C748 H754 0.930 . S
C749 N751 1.279 . S
C749 C752 1.358 . S
C749 H755 0.930 . S
C750 C748 1.353 . S
C750 C753 1.348 . S
C750 H788 0.929 . S
N751 Li706 1.990 . S
N751 C748 1.314 . S
N751 C749 1.279 . S
C752 C749 1.358 . S
C752 C753 1.356 . S
C752 H789 0.930 . S
C753 C750 1.348 . S
C753 C752 1.356 . S
H754 C748 0.930 . S
H755 C749 0.930 . S
C756 N757 1.314 . S
C756 C758 1.353 . S
C756 H762 0.930 . S
N757 Li707 1.990 . S
N757 C756 1.314 . S
N757 C760 1.279 . S
C758 C756 1.353 . S
C758 C761 1.348 . S
C758 H790 0.929 . S
C759 C760 1.358 . S
C759 C761 1.356 . S
C759 H791 0.930 . S
C760 N757 1.279 . S
C760 C759 1.358 . S
C760 H763 0.930 . S
C761 C758 1.348 . S
C761 C759 1.356 . S
H762 C756 0.930 . S
H763 C760 0.930 . S
O764 Li704 1.956 . S
O764 Li705 1.970 . S
O764 Li706 1.961 . S
O764 C708 1.325 . S
O765 Li704 1.970 . S
O765 Li705 1.956 . S
O765 Li707 1.961 . S
O765 C714 1.325 . S
O766 Li704 1.961 . S
O766 Li706 1.956 . S
O766 Li707 1.970 . S
O766 C736 1.325 . S
O767 Li705 1.961 . S
O767 Li706 1.970 . S
O767 Li707 1.956 . S
O767 C742 1.325 . S
H768 C710 0.929 . S
H769 C711 0.930 . S
H770 C712 0.930 1_545 S
H771 C713 0.930 . S
H772 C715 0.930 . S
H773 C717 0.929 . S
H774 C718 0.930 . S
H775 C719 0.930 1_545 S
H776 C722 0.930 . S
H777 C725 0.929 . S
H778 C730 0.929 . S
H779 C731 0.930 . S
H780 C738 0.929 . S
H781 C739 0.930 . S
H782 C740 0.930 . S
H783 C741 0.930 . S
H784 C743 0.929 . S
H785 C744 0.930 . S
H786 C745 0.930 . S
H787 C746 0.930 . S
H788 C750 0.929 . S
H789 C752 0.930 . S
H790 C758 0.929 . S
H791 C759 0.930 . S
Li792 N809 1.990 . S
Li792 O852 1.956 . S
Li792 O853 1.970 . S
Li792 O854 1.961 . S
Li793 N817 1.990 . S
Li793 O852 1.970 . S
Li793 O853 1.956 . S
Li793 O855 1.961 . S
Li794 N839 1.990 . S
Li794 O852 1.961 . S
Li794 O854 1.956 . S
Li794 O855 1.970 . S
Li795 N845 1.990 . S
Li795 O853 1.961 . S
Li795 O854 1.970 . S
Li795 O855 1.956 . S
C796 C798 1.348 . S
C796 C799 1.356 . S
C796 O852 1.325 . S
N797 C800 1.314 . S
N797 C801 1.279 . S
C798 C796 1.348 . S
C798 C800 1.353 . S
C798 H856 0.929 . S
C799 C796 1.356 . S
C799 C801 1.358 . S
C799 H857 0.930 . S
C800 N797 1.314 . S
C800 C798 1.353 . S
C800 H858 0.930 1_655 S
C801 N797 1.279 . S
C801 C799 1.358 . S
C801 H859 0.930 . S
C802 C805 1.348 . S
C802 C806 1.356 . S
C802 O853 1.325 . S
C803 N804 1.279 . S
C803 C806 1.358 . S
C803 H860 0.930 . S
N804 C803 1.279 . S
N804 C807 1.314 . S
C805 C802 1.348 . S
C805 C807 1.353 . S
C805 H861 0.929 . S
C806 C802 1.356 . S
C806 C803 1.358 . S
C806 H862 0.930 . S
C807 N804 1.314 . S
C807 C805 1.353 . S
C807 H863 0.930 . S
C808 N809 1.314 . S
C808 C813 1.353 . S
C808 H814 0.930 . S
N809 Li792 1.990 . S
N809 C808 1.314 . S
N809 C811 1.279 . S
C810 C811 1.358 . S
C810 C812 1.356 . S
C810 H864 0.930 . S
C811 N809 1.279 . S
C811 C810 1.358 . S
C811 H815 0.930 . S
C812 C810 1.356 . S
C812 C813 1.348 . S
C813 C808 1.353 . S
C813 C812 1.348 . S
C813 H865 0.929 . S
H814 C808 0.930 . S
H815 C811 0.930 . S
C816 N817 1.314 1_455 S
C816 C818 1.353 . S
C816 H822 0.930 . S
N817 Li793 1.990 . S
N817 C816 1.314 1_655 S
N817 C820 1.279 . S
C818 C816 1.353 . S
C818 C821 1.348 . S
C818 H866 0.929 . S
C819 C820 1.358 1_455 S
C819 C821 1.356 . S
C819 H867 0.930 . S
C820 N817 1.279 . S
C820 C819 1.358 1_655 S
C820 H823 0.930 . S
C821 C818 1.348 . S
C821 C819 1.356 . S
H822 C816 0.930 . S
H823 C820 0.930 . S
C824 C826 1.348 . S
C824 C827 1.356 . S
C824 O854 1.325 . S
N825 C828 1.314 . S
N825 C829 1.279 . S
C826 C824 1.348 . S
C826 C828 1.353 . S
C826 H868 0.929 . S
C827 C824 1.356 . S
C827 C829 1.358 . S
C827 H869 0.930 . S
C828 N825 1.314 . S
C828 C826 1.353 . S
C828 H870 0.930 . S
C829 N825 1.279 . S
C829 C827 1.358 . S
C829 H871 0.930 . S
C830 C831 1.348 . S
C830 C832 1.356 . S
C830 O855 1.325 . S
C831 C830 1.348 . S
C831 C833 1.353 . S
C831 H872 0.929 . S
C832 C830 1.356 . S
C832 C834 1.358 . S
C832 H873 0.930 . S
C833 C831 1.353 . S
C833 N835 1.314 . S
C833 H874 0.930 . S
C834 C832 1.358 . S
C834 N835 1.279 . S
C834 H875 0.906 1_655 S
N835 C833 1.314 . S
N835 C834 1.279 . S
C836 C838 1.353 . S
C836 N839 1.314 . S
C836 H842 0.930 . S
C837 N839 1.279 . S
C837 C840 1.358 . S
C837 H843 0.930 . S
C838 C836 1.353 . S
C838 C841 1.348 . S
C838 H876 0.929 . S
N839 Li794 1.990 . S
N839 C836 1.314 . S
N839 C837 1.279 . S
C840 C837 1.358 . S
C840 C841 1.356 . S
C840 H877 0.930 . S
C841 C838 1.348 . S
C841 C840 1.356 . S
H842 C836 0.930 . S
H843 C837 0.930 . S
C844 N845 1.314 . S
C844 C846 1.353 . S
C844 H850 0.930 . S
N845 Li795 1.990 . S
N845 C844 1.314 . S
N845 C848 1.279 . S
C846 C844 1.353 . S
C846 C849 1.348 . S
C846 H878 0.929 . S
C847 C848 1.358 . S
C847 C849 1.356 . S
C847 H879 0.930 . S
C848 N845 1.279 . S
C848 C847 1.358 . S
C848 H851 0.930 . S
C849 C846 1.348 . S
C849 C847 1.356 . S
H850 C844 0.930 . S
H851 C848 0.930 . S
O852 Li792 1.956 . S
O852 Li793 1.970 . S
O852 Li794 1.961 . S
O852 C796 1.325 . S
O853 Li792 1.970 . S
O853 Li793 1.956 . S
O853 Li795 1.961 . S
O853 C802 1.325 . S
O854 Li792 1.961 . S
O854 Li794 1.956 . S
O854 Li795 1.970 . S
O854 C824 1.325 . S
O855 Li793 1.961 . S
O855 Li794 1.970 . S
O855 Li795 1.956 . S
O855 C830 1.325 . S
H856 C798 0.929 . S
H857 C799 0.930 . S
H858 C800 0.930 1_455 S
H859 C801 0.930 . S
H860 C803 0.930 . S
H861 C805 0.929 . S
H862 C806 0.930 . S
H863 C807 0.930 . S
H864 C810 0.930 . S
H865 C813 0.929 . S
H866 C818 0.929 . S
H867 C819 0.930 . S
H868 C826 0.929 . S
H869 C827 0.930 . S
H870 C828 0.930 . S
H871 C829 0.930 . S
H872 C831 0.929 . S
H873 C832 0.930 . S
H874 C833 0.930 . S
H875 C834 0.906 1_455 S
H876 C838 0.929 . S
H877 C840 0.930 . S
H878 C846 0.929 . S
H879 C847 0.930 . S
Li880 N897 1.990 . S
Li880 O940 1.956 . S
Li880 O941 1.970 . S
Li880 O942 1.961 . S
Li881 N905 1.990 . S
Li881 O940 1.970 . S
Li881 O941 1.956 . S
Li881 O943 1.961 . S
Li882 N927 1.990 . S
Li882 O940 1.961 . S
Li882 O942 1.956 . S
Li882 O943 1.970 . S
Li883 N933 1.990 . S
Li883 O941 1.961 . S
Li883 O942 1.970 . S
Li883 O943 1.956 . S
C884 C886 1.348 . S
C884 C887 1.356 . S
C884 O940 1.325 . S
N885 C888 1.314 . S
N885 C889 1.279 . S
C886 C884 1.348 . S
C886 C888 1.353 . S
C886 H944 0.929 . S
C887 C884 1.356 . S
C887 C889 1.358 . S
C887 H945 0.930 . S
C888 N885 1.314 . S
C888 C886 1.353 . S
C888 H946 0.930 . S
C889 N885 1.279 . S
C889 C887 1.358 . S
C889 H947 0.930 . S
C890 C893 1.348 . S
C890 C894 1.356 . S
C890 O941 1.325 . S
C891 N892 1.279 . S
C891 C894 1.358 . S
C891 H948 0.930 . S
N892 C891 1.279 . S
N892 C895 1.314 . S
C893 C890 1.348 . S
C893 C895 1.353 . S
C893 H949 0.929 . S
C894 C890 1.356 . S
C894 C891 1.358 . S
C894 H950 0.930 . S
C895 N892 1.314 . S
C895 C893 1.353 . S
C895 H951 0.930 . S
C896 N897 1.314 . S
C896 C901 1.353 . S
C896 H902 0.930 . S
N897 Li880 1.990 . S
N897 C896 1.314 . S
N897 C899 1.279 . S
C898 C899 1.358 . S
C898 C900 1.356 . S
C898 H952 0.930 . S
C899 N897 1.279 . S
C899 C898 1.358 . S
C899 H903 0.930 . S
C900 C898 1.356 . S
C900 C901 1.348 . S
C901 C896 1.353 . S
C901 C900 1.348 . S
C901 H953 0.929 . S
H902 C896 0.930 . S
H903 C899 0.930 . S
C904 N905 1.314 . S
C904 C906 1.353 . S
C904 H910 0.930 . S
N905 Li881 1.990 . S
N905 C904 1.314 . S
N905 C908 1.279 . S
C906 C904 1.353 . S
C906 C909 1.348 . S
C906 H954 0.929 . S
C907 C908 1.358 . S
C907 C909 1.356 . S
C907 H955 0.930 . S
C908 N905 1.279 . S
C908 C907 1.358 . S
C908 H911 0.930 . S
C909 C906 1.348 . S
C909 C907 1.356 . S
H910 C904 0.930 . S
H911 C908 0.930 . S
C912 C914 1.348 . S
C912 C915 1.356 . S
C912 O942 1.325 . S
N913 C916 1.311 1_565 S
N913 C917 1.262 1_565 S
C914 C912 1.348 . S
C914 C916 1.353 . S
C914 H956 0.929 . S
C915 C912 1.356 . S
C915 C917 1.358 . S
C915 H957 0.930 . S
C916 N913 1.311 1_545 S
C916 C914 1.353 . S
C916 H958 0.930 1_545 S
C917 N913 1.262 1_545 S
C917 C915 1.358 . S
C917 H959 0.930 . S
C918 C919 1.348 . S
C918 C920 1.356 . S
C918 O943 1.325 . S
C919 C918 1.348 . S
C919 C921 1.353 . S
C919 H960 0.929 . S
C920 C918 1.356 . S
C920 C922 1.358 . S
C920 H961 0.930 . S
C921 C919 1.353 . S
C921 N923 1.314 . S
C921 H962 0.930 1_545 S
C922 C920 1.358 . S
C922 N923 1.279 . S
C922 H963 0.930 . S
N923 C921 1.314 . S
N923 C922 1.279 . S
C924 C926 1.353 1_545 S
C924 N927 1.314 . S
C924 H930 0.930 . S
C925 N927 1.279 1_565 S
C925 C928 1.358 . S
C925 H931 0.930 . S
C926 C924 1.353 1_565 S
C926 C929 1.348 . S
C926 H964 0.929 . S
N927 Li882 1.990 . S
N927 C924 1.314 . S
N927 C925 1.279 1_545 S
C928 C925 1.358 . S
C928 C929 1.356 . S
C928 H965 0.930 . S
C929 C926 1.348 . S
C929 C928 1.356 . S
H930 C924 0.930 . S
H931 C925 0.930 . S
C932 N933 1.314 . S
C932 C934 1.353 . S
C932 H938 0.930 . S
N933 Li883 1.990 . S
N933 C932 1.314 . S
N933 C936 1.279 . S
C934 C932 1.353 . S
C934 C937 1.348 . S
C934 H966 0.929 . S
C935 C936 1.358 . S
C935 C937 1.356 . S
C935 H967 0.930 . S
C936 N933 1.279 . S
C936 C935 1.358 . S
C936 H939 0.930 . S
C937 C934 1.348 . S
C937 C935 1.356 . S
H938 C932 0.930 . S
H939 C936 0.930 . S
O940 Li880 1.956 . S
O940 Li881 1.970 . S
O940 Li882 1.961 . S
O940 C884 1.325 . S
O941 Li880 1.970 . S
O941 Li881 1.956 . S
O941 Li883 1.961 . S
O941 C890 1.325 . S
O942 Li880 1.961 . S
O942 Li882 1.956 . S
O942 Li883 1.970 . S
O942 C912 1.325 . S
O943 Li881 1.961 . S
O943 Li882 1.970 . S
O943 Li883 1.956 . S
O943 C918 1.325 . S
H944 C886 0.929 . S
H945 C887 0.930 . S
H946 C888 0.930 . S
H947 C889 0.930 . S
H948 C891 0.930 . S
H949 C893 0.929 . S
H950 C894 0.930 . S
H951 C895 0.930 . S
H952 C898 0.930 . S
H953 C901 0.929 . S
H954 C906 0.929 . S
H955 C907 0.930 . S
H956 C914 0.929 . S
H957 C915 0.930 . S
H958 C916 0.930 1_565 S
H959 C917 0.930 . S
H960 C919 0.929 . S
H961 C920 0.930 . S
H962 C921 0.930 1_565 S
H963 C922 0.930 . S
H964 C926 0.929 . S
H965 C928 0.930 . S
H966 C934 0.929 . S
H967 C935 0.930 . S
Li968 N985 1.990 . S
Li968 O1028 1.956 . S
Li968 O1029 1.970 . S
Li968 O1030 1.961 . S
Li969 N993 1.990 . S
Li969 O1028 1.970 . S
Li969 O1029 1.956 . S
Li969 O1031 1.961 . S
Li970 N1015 1.990 . S
Li970 O1028 1.961 . S
Li970 O1030 1.956 . S
Li970 O1031 1.970 . S
Li971 N1021 1.990 . S
Li971 O1029 1.961 . S
Li971 O1030 1.970 . S
Li971 O1031 1.956 . S
C972 C974 1.348 . S
C972 C975 1.356 . S
C972 O1028 1.325 . S
N973 C976 1.314 . S
N973 C977 1.279 . S
C974 C972 1.348 . S
C974 C976 1.353 . S
C974 H1032 0.929 . S
C975 C972 1.356 . S
C975 C977 1.358 . S
C975 H1033 0.930 . S
C976 N973 1.314 . S
C976 C974 1.353 . S
C976 H1034 0.930 . S
C977 N973 1.279 . S
C977 C975 1.358 . S
C977 H1035 0.930 . S
C978 C981 1.348 . S
C978 C982 1.356 . S
C978 O1029 1.325 . S
C979 N980 1.279 . S
C979 C982 1.358 . S
C979 H1036 0.930 . S
N980 C979 1.279 . S
N980 C983 1.314 . S
C981 C978 1.348 . S
C981 C983 1.353 . S
C981 H1037 0.929 . S
C982 C978 1.356 . S
C982 C979 1.358 . S
C982 H1038 0.930 . S
C983 N980 1.314 . S
C983 C981 1.353 . S
C983 H1039 0.930 1_455 S
C984 N985 1.314 1_655 S
C984 C989 1.353 . S
C984 H990 0.930 . S
N985 Li968 1.990 . S
N985 C984 1.314 1_455 S
N985 C987 1.279 . S
C986 C987 1.358 1_655 S
C986 C988 1.356 . S
C986 H1040 0.930 . S
C987 N985 1.279 . S
C987 C986 1.358 1_455 S
C987 H991 0.930 . S
C988 C986 1.356 . S
C988 C989 1.348 . S
C989 C984 1.353 . S
C989 C988 1.348 . S
C989 H1041 0.929 . S
H990 C984 0.930 . S
H991 C987 0.930 . S
C992 N993 1.314 . S
C992 C994 1.353 . S
C992 H998 0.930 . S
N993 Li969 1.990 . S
N993 C992 1.314 . S
N993 C996 1.279 . S
C994 C992 1.353 . S
C994 C997 1.348 . S
C994 H1042 0.929 . S
C995 C996 1.358 . S
C995 C997 1.356 . S
C995 H1043 0.930 . S
C996 N993 1.279 . S
C996 C995 1.358 . S
C996 H999 0.930 . S
C997 C994 1.348 . S
C997 C995 1.356 . S
H998 C992 0.930 . S
H999 C996 0.930 . S
C1000 C1002 1.348 . S
C1000 C1003 1.356 . S
C1000 O1030 1.325 . S
N1001 C1004 1.314 . S
N1001 C1005 1.279 . S
C1002 C1000 1.348 . S
C1002 C1004 1.353 . S
C1002 H1044 0.929 . S
C1003 C1000 1.356 . S
C1003 C1005 1.358 . S
C1003 H1045 0.930 . S
C1004 N1001 1.314 . S
C1004 C1002 1.353 . S
C1004 H1046 0.930 . S
C1005 N1001 1.279 . S
C1005 C1003 1.358 . S
C1005 H1047 0.906 1_455 S
C1006 C1007 1.348 . S
C1006 C1008 1.356 . S
C1006 O1031 1.325 . S
C1007 C1006 1.348 . S
C1007 C1009 1.353 . S
C1007 H1048 0.929 . S
C1008 C1006 1.356 . S
C1008 C1010 1.358 . S
C1008 H1049 0.930 . S
C1009 C1007 1.353 . S
C1009 N1011 1.314 . S
C1009 H1050 0.930 . S
C1010 C1008 1.358 . S
C1010 N1011 1.279 . S
C1010 H1051 0.930 . S
N1011 C1009 1.314 . S
N1011 C1010 1.279 . S
C1012 C1014 1.353 . S
C1012 N1015 1.314 . S
C1012 H1018 0.930 . S
C1013 N1015 1.279 . S
C1013 C1016 1.358 . S
C1013 H1019 0.930 . S
C1014 C1012 1.353 . S
C1014 C1017 1.348 . S
C1014 H1052 0.929 . S
N1015 Li970 1.990 . S
N1015 C1012 1.314 . S
N1015 C1013 1.279 . S
C1016 C1013 1.358 . S
C1016 C1017 1.356 . S
C1016 H1053 0.930 . S
C1017 C1014 1.348 . S
C1017 C1016 1.356 . S
H1018 C1012 0.930 . S
H1019 C1013 0.930 . S
C1020 N1021 1.314 . S
C1020 C1022 1.353 . S
C1020 H1026 0.930 . S
N1021 Li971 1.990 . S
N1021 C1020 1.314 . S
N1021 C1024 1.279 . S
C1022 C1020 1.353 . S
C1022 C1025 1.348 . S
C1022 H1054 0.929 . S
C1023 C1024 1.358 . S
C1023 C1025 1.356 . S
C1023 H1055 0.930 . S
C1024 N1021 1.279 . S
C1024 C1023 1.358 . S
C1024 H1027 0.930 . S
C1025 C1022 1.348 . S
C1025 C1023 1.356 . S
H1026 C1020 0.930 . S
H1027 C1024 0.930 . S
O1028 Li968 1.956 . S
O1028 Li969 1.970 . S
O1028 Li970 1.961 . S
O1028 C972 1.325 . S
O1029 Li968 1.970 . S
O1029 Li969 1.956 . S
O1029 Li971 1.961 . S
O1029 C978 1.325 . S
O1030 Li968 1.961 . S
O1030 Li970 1.956 . S
O1030 Li971 1.970 . S
O1030 C1000 1.325 . S
O1031 Li969 1.961 . S
O1031 Li970 1.970 . S
O1031 Li971 1.956 . S
O1031 C1006 1.325 . S
H1032 C974 0.929 . S
H1033 C975 0.930 . S
H1034 C976 0.930 . S
H1035 C977 0.930 . S
H1036 C979 0.930 . S
H1037 C981 0.929 . S
H1038 C982 0.930 . S
H1039 C983 0.930 1_655 S
H1040 C986 0.930 . S
H1041 C989 0.929 . S
H1042 C994 0.929 . S
H1043 C995 0.930 . S
H1044 C1002 0.929 . S
H1045 C1003 0.930 . S
H1046 C1004 0.930 . S
H1047 C1005 0.906 1_655 S
H1048 C1007 0.929 . S
H1049 C1008 0.930 . S
H1050 C1009 0.930 . S
H1051 C1010 0.930 . S
H1052 C1014 0.929 . S
H1053 C1016 0.930 . S
H1054 C1022 0.929 . S
H1055 C1023 0.930 . S
Li1056 N1073 1.990 . S
Li1056 O1116 1.956 . S
Li1056 O1117 1.970 . S
Li1056 O1118 1.961 . S
Li1057 N1081 1.990 . S
Li1057 O1116 1.970 . S
Li1057 O1117 1.956 . S
Li1057 O1119 1.961 . S
Li1058 N1103 1.990 . S
Li1058 O1116 1.961 . S
Li1058 O1118 1.956 . S
Li1058 O1119 1.970 . S
Li1059 N1109 1.990 . S
Li1059 O1117 1.961 . S
Li1059 O1118 1.970 . S
Li1059 O1119 1.956 . S
C1060 C1062 1.348 . S
C1060 C1063 1.356 . S
C1060 O1116 1.325 . S
N1061 C1064 1.314 . S
N1061 C1065 1.279 . S
C1062 C1060 1.348 . S
C1062 C1064 1.353 . S
C1062 H1120 0.929 . S
C1063 C1060 1.356 . S
C1063 C1065 1.358 . S
C1063 H1121 0.930 . S
C1064 N1061 1.314 . S
C1064 C1062 1.353 . S
C1064 H1122 0.930 . S
C1065 N1061 1.279 . S
C1065 C1063 1.358 . S
C1065 H1123 0.930 . S
C1066 C1069 1.348 . S
C1066 C1070 1.356 . S
C1066 O1117 1.325 . S
C1067 N1068 1.279 . S
C1067 C1070 1.358 . S
C1067 H1124 0.930 . S
N1068 C1067 1.279 . S
N1068 C1071 1.314 . S
C1069 C1066 1.348 . S
C1069 C1071 1.353 . S
C1069 H1125 0.929 . S
C1070 C1066 1.356 . S
C1070 C1067 1.358 . S
C1070 H1126 0.930 . S
C1071 N1068 1.314 . S
C1071 C1069 1.353 . S
C1071 H1127 0.930 . S
C1072 N1073 1.314 . S
C1072 C1077 1.353 . S
C1072 H1078 0.930 . S
N1073 Li1056 1.990 . S
N1073 C1072 1.314 . S
N1073 C1075 1.279 . S
C1074 C1075 1.358 . S
C1074 C1076 1.356 . S
C1074 H1128 0.930 . S
C1075 N1073 1.279 . S
C1075 C1074 1.358 . S
C1075 H1079 0.930 . S
C1076 C1074 1.356 . S
C1076 C1077 1.348 . S
C1077 C1072 1.353 . S
C1077 C1076 1.348 . S
C1077 H1129 0.929 . S
H1078 C1072 0.930 . S
H1079 C1075 0.930 . S
C1080 N1081 1.314 . S
C1080 C1082 1.353 . S
C1080 H1086 0.930 . S
N1081 Li1057 1.990 . S
N1081 C1080 1.314 . S
N1081 C1084 1.279 . S
C1082 C1080 1.353 . S
C1082 C1085 1.348 . S
C1082 H1130 0.929 . S
C1083 C1084 1.358 . S
C1083 C1085 1.356 . S
C1083 H1131 0.930 . S
C1084 N1081 1.279 . S
C1084 C1083 1.358 . S
C1084 H1087 0.930 . S
C1085 C1082 1.348 . S
C1085 C1083 1.356 . S
H1086 C1080 0.930 . S
H1087 C1084 0.930 . S
C1088 C1090 1.348 . S
C1088 C1091 1.356 . S
C1088 O1118 1.325 . S
N1089 C1092 1.314 . S
N1089 C1093 1.279 . S
C1090 C1088 1.348 . S
C1090 C1092 1.353 . S
C1090 H1132 0.929 . S
C1091 C1088 1.356 . S
C1091 C1093 1.358 . S
C1091 H1133 0.930 . S
C1092 N1089 1.314 . S
C1092 C1090 1.353 . S
C1092 H1134 0.930 1_545 S
C1093 N1089 1.279 . S
C1093 C1091 1.358 . S
C1093 H1135 0.930 . S
C1094 C1095 1.348 . S
C1094 C1096 1.356 . S
C1094 O1119 1.325 . S
C1095 C1094 1.348 . S
C1095 C1097 1.353 . S
C1095 H1136 0.929 . S
C1096 C1094 1.356 . S
C1096 C1098 1.358 . S
C1096 H1137 0.930 . S
C1097 C1095 1.353 . S
C1097 N1099 1.311 1_545 S
C1097 H1138 0.930 1_545 S
C1098 C1096 1.358 . S
C1098 N1099 1.263 1_545 S
C1098 H1139 0.930 . S
N1099 C1097 1.311 1_565 S
N1099 C1098 1.263 1_565 S
C1100 C1102 1.353 . S
C1100 N1103 1.314 . S
C1100 H1106 0.930 . S
C1101 N1103 1.279 . S
C1101 C1104 1.358 . S
C1101 H1107 0.930 . S
C1102 C1100 1.353 . S
C1102 C1105 1.348 . S
C1102 H1140 0.929 . S
N1103 Li1058 1.990 . S
N1103 C1100 1.314 . S
N1103 C1101 1.279 . S
C1104 C1101 1.358 . S
C1104 C1105 1.356 . S
C1104 H1141 0.930 . S
C1105 C1102 1.348 . S
C1105 C1104 1.356 . S
H1106 C1100 0.930 . S
H1107 C1101 0.930 . S
C1108 N1109 1.314 . S
C1108 C1110 1.353 1_545 S
C1108 H1114 0.930 . S
N1109 Li1059 1.990 . S
N1109 C1108 1.314 . S
N1109 C1112 1.279 1_545 S
C1110 C1108 1.353 1_565 S
C1110 C1113 1.348 . S
C1110 H1142 0.929 . S
C1111 C1112 1.358 . S
C1111 C1113 1.356 . S
C1111 H1143 0.930 . S
C1112 N1109 1.279 1_565 S
C1112 C1111 1.358 . S
C1112 H1115 0.930 . S
C1113 C1110 1.348 . S
C1113 C1111 1.356 . S
H1114 C1108 0.930 . S
H1115 C1112 0.930 . S
O1116 Li1056 1.956 . S
O1116 Li1057 1.970 . S
O1116 Li1058 1.961 . S
O1116 C1060 1.325 . S
O1117 Li1056 1.970 . S
O1117 Li1057 1.956 . S
O1117 Li1059 1.961 . S
O1117 C1066 1.325 . S
O1118 Li1056 1.961 . S
O1118 Li1058 1.956 . S
O1118 Li1059 1.970 . S
O1118 C1088 1.325 . S
O1119 Li1057 1.961 . S
O1119 Li1058 1.970 . S
O1119 Li1059 1.956 . S
O1119 C1094 1.325 . S
H1120 C1062 0.929 . S
H1121 C1063 0.930 . S
H1122 C1064 0.930 . S
H1123 C1065 0.930 . S
H1124 C1067 0.930 . S
H1125 C1069 0.929 . S
H1126 C1070 0.930 . S
H1127 C1071 0.930 . S
H1128 C1074 0.930 . S
H1129 C1077 0.929 . S
H1130 C1082 0.929 . S
H1131 C1083 0.930 . S
H1132 C1090 0.929 . S
H1133 C1091 0.930 . S
H1134 C1092 0.930 1_565 S
H1135 C1093 0.930 . S
H1136 C1095 0.929 . S
H1137 C1096 0.930 . S
H1138 C1097 0.930 1_565 S
H1139 C1098 0.930 . S
H1140 C1102 0.929 . S
H1141 C1104 0.930 . S
H1142 C1110 0.929 . S
H1143 C1111 0.930 . S
Li1144 N1161 1.990 . S
Li1144 O1204 1.956 . S
Li1144 O1205 1.970 . S
Li1144 O1206 1.961 . S
Li1145 N1169 1.990 . S
Li1145 O1204 1.970 . S
Li1145 O1205 1.956 . S
Li1145 O1207 1.961 . S
Li1146 N1191 1.990 . S
Li1146 O1204 1.961 . S
Li1146 O1206 1.956 . S
Li1146 O1207 1.970 . S
Li1147 N1197 1.990 . S
Li1147 O1205 1.961 . S
Li1147 O1206 1.970 . S
Li1147 O1207 1.956 . S
C1148 C1150 1.348 . S
C1148 C1151 1.356 . S
C1148 O1204 1.325 . S
N1149 C1152 1.314 . S
N1149 C1153 1.279 . S
C1150 C1148 1.348 . S
C1150 C1152 1.353 . S
C1150 H1208 0.929 . S
C1151 C1148 1.356 . S
C1151 C1153 1.358 . S
C1151 H1209 0.930 . S
C1152 N1149 1.314 . S
C1152 C1150 1.353 . S
C1152 H1210 0.930 . S
C1153 N1149 1.279 . S
C1153 C1151 1.358 . S
C1153 H1211 0.930 . S
C1154 C1157 1.348 . S
C1154 C1158 1.356 . S
C1154 O1205 1.325 . S
C1155 N1156 1.279 . S
C1155 C1158 1.358 . S
C1155 H1212 0.906 1_455 S
N1156 C1155 1.279 . S
N1156 C1159 1.314 . S
C1157 C1154 1.348 . S
C1157 C1159 1.353 . S
C1157 H1213 0.929 . S
C1158 C1154 1.356 . S
C1158 C1155 1.358 . S
C1158 H1214 0.930 . S
C1159 N1156 1.314 . S
C1159 C1157 1.353 . S
C1159 H1215 0.930 . S
C1160 N1161 1.314 . S
C1160 C1165 1.353 . S
C1160 H1166 0.930 . S
N1161 Li1144 1.990 . S
N1161 C1160 1.314 . S
N1161 C1163 1.279 . S
C1162 C1163 1.358 . S
C1162 C1164 1.356 . S
C1162 H1216 0.930 . S
C1163 N1161 1.279 . S
C1163 C1162 1.358 . S
C1163 H1167 0.930 . S
C1164 C1162 1.356 . S
C1164 C1165 1.348 . S
C1165 C1160 1.353 . S
C1165 C1164 1.348 . S
C1165 H1217 0.929 . S
H1166 C1160 0.930 . S
H1167 C1163 0.930 . S
C1168 N1169 1.314 . S
C1168 C1170 1.353 . S
C1168 H1174 0.930 . S
N1169 Li1145 1.990 . S
N1169 C1168 1.314 . S
N1169 C1172 1.279 . S
C1170 C1168 1.353 . S
C1170 C1173 1.348 . S
C1170 H1218 0.929 . S
C1171 C1172 1.358 . S
C1171 C1173 1.356 . S
C1171 H1219 0.930 . S
C1172 N1169 1.279 . S
C1172 C1171 1.358 . S
C1172 H1175 0.930 . S
C1173 C1170 1.348 . S
C1173 C1171 1.356 . S
H1174 C1168 0.930 . S
H1175 C1172 0.930 . S
C1176 C1178 1.348 . S
C1176 C1179 1.356 . S
C1176 O1206 1.325 . S
N1177 C1180 1.314 . S
N1177 C1181 1.279 . S
C1178 C1176 1.348 . S
C1178 C1180 1.353 . S
C1178 H1220 0.929 . S
C1179 C1176 1.356 . S
C1179 C1181 1.358 . S
C1179 H1221 0.930 . S
C1180 N1177 1.314 . S
C1180 C1178 1.353 . S
C1180 H1222 0.930 1_455 S
C1181 N1177 1.279 . S
C1181 C1179 1.358 . S
C1181 H1223 0.930 . S
C1182 C1183 1.348 . S
C1182 C1184 1.356 . S
C1182 O1207 1.325 . S
C1183 C1182 1.348 . S
C1183 C1185 1.353 . S
C1183 H1224 0.929 . S
C1184 C1182 1.356 . S
C1184 C1186 1.358 . S
C1184 H1225 0.930 . S
C1185 C1183 1.353 . S
C1185 N1187 1.314 . S
C1185 H1226 0.930 . S
C1186 C1184 1.358 . S
C1186 N1187 1.279 . S
C1186 H1227 0.930 . S
N1187 C1185 1.314 . S
N1187 C1186 1.279 . S
C1188 C1190 1.353 . S
C1188 N1191 1.314 . S
C1188 H1194 0.930 . S
C1189 N1191 1.279 . S
C1189 C1192 1.358 . S
C1189 H1195 0.930 . S
C1190 C1188 1.353 . S
C1190 C1193 1.348 . S
C1190 H1228 0.929 . S
N1191 Li1146 1.990 . S
N1191 C1188 1.314 . S
N1191 C1189 1.279 . S
C1192 C1189 1.358 . S
C1192 C1193 1.356 . S
C1192 H1229 0.930 . S
C1193 C1190 1.348 . S
C1193 C1192 1.356 . S
H1194 C1188 0.930 . S
H1195 C1189 0.930 . S
C1196 N1197 1.314 1_655 S
C1196 C1198 1.353 . S
C1196 H1202 0.930 . S
N1197 Li1147 1.990 . S
N1197 C1196 1.314 1_455 S
N1197 C1200 1.279 . S
C1198 C1196 1.353 . S
C1198 C1201 1.348 . S
C1198 H1230 0.929 . S
C1199 C1200 1.358 1_655 S
C1199 C1201 1.356 . S
C1199 H1231 0.930 . S
C1200 N1197 1.279 . S
C1200 C1199 1.358 1_455 S
C1200 H1203 0.930 . S
C1201 C1198 1.348 . S
C1201 C1199 1.356 . S
H1202 C1196 0.930 . S
H1203 C1200 0.930 . S
O1204 Li1144 1.956 . S
O1204 Li1145 1.970 . S
O1204 Li1146 1.961 . S
O1204 C1148 1.325 . S
O1205 Li1144 1.970 . S
O1205 Li1145 1.956 . S
O1205 Li1147 1.961 . S
O1205 C1154 1.325 . S
O1206 Li1144 1.961 . S
O1206 Li1146 1.956 . S
O1206 Li1147 1.970 . S
O1206 C1176 1.325 . S
O1207 Li1145 1.961 . S
O1207 Li1146 1.970 . S
O1207 Li1147 1.956 . S
O1207 C1182 1.325 . S
H1208 C1150 0.929 . S
H1209 C1151 0.930 . S
H1210 C1152 0.930 . S
H1211 C1153 0.930 . S
H1212 C1155 0.906 1_655 S
H1213 C1157 0.929 . S
H1214 C1158 0.930 . S
H1215 C1159 0.930 . S
H1216 C1162 0.930 . S
H1217 C1165 0.929 . S
H1218 C1170 0.929 . S
H1219 C1171 0.930 . S
H1220 C1178 0.929 . S
H1221 C1179 0.930 . S
H1222 C1180 0.930 1_655 S
H1223 C1181 0.930 . S
H1224 C1183 0.929 . S
H1225 C1184 0.930 . S
H1226 C1185 0.930 . S
H1227 C1186 0.930 . S
H1228 C1190 0.929 . S
H1229 C1192 0.930 . S
H1230 C1198 0.929 . S
H1231 C1199 0.930 . S
Li1232 N1249 1.990 . S
Li1232 O1292 1.956 . S
Li1232 O1293 1.970 . S
Li1232 O1294 1.961 . S
Li1233 N1257 1.990 . S
Li1233 O1292 1.970 . S
Li1233 O1293 1.956 . S
Li1233 O1295 1.961 . S
Li1234 N1279 1.990 . S
Li1234 O1292 1.961 . S
Li1234 O1294 1.956 . S
Li1234 O1295 1.970 . S
Li1235 N1285 1.990 . S
Li1235 O1293 1.961 . S
Li1235 O1294 1.970 . S
Li1235 O1295 1.956 . S
C1236 C1238 1.348 . S
C1236 C1239 1.356 . S
C1236 O1292 1.325 . S
N1237 C1240 1.314 . S
N1237 C1241 1.279 . S
C1238 C1236 1.348 . S
C1238 C1240 1.353 . S
C1238 H1296 0.929 . S
C1239 C1236 1.356 . S
C1239 C1241 1.358 . S
C1239 H1297 0.930 . S
C1240 N1237 1.314 . S
C1240 C1238 1.353 . S
C1240 H1298 0.930 1_565 S
C1241 N1237 1.279 . S
C1241 C1239 1.358 . S
C1241 H1299 0.930 . S
C1242 C1245 1.348 . S
C1242 C1246 1.356 . S
C1242 O1293 1.325 . S
C1243 N1244 1.262 1_565 S
C1243 C1246 1.358 . S
C1243 H1300 0.930 . S
N1244 C1243 1.262 1_545 S
N1244 C1247 1.311 1_545 S
C1245 C1242 1.348 . S
C1245 C1247 1.353 . S
C1245 H1301 0.929 . S
C1246 C1242 1.356 . S
C1246 C1243 1.358 . S
C1246 H1302 0.930 . S
C1247 N1244 1.311 1_565 S
C1247 C1245 1.353 . S
C1247 H1303 0.930 1_565 S
C1248 N1249 1.314 . S
C1248 C1253 1.353 . S
C1248 H1254 0.930 . S
N1249 Li1232 1.990 . S
N1249 C1248 1.314 . S
N1249 C1251 1.279 . S
C1250 C1251 1.358 . S
C1250 C1252 1.356 . S
C1250 H1304 0.930 . S
C1251 N1249 1.279 . S
C1251 C1250 1.358 . S
C1251 H1255 0.930 . S
C1252 C1250 1.356 . S
C1252 C1253 1.348 . S
C1253 C1248 1.353 . S
C1253 C1252 1.348 . S
C1253 H1305 0.929 . S
H1254 C1248 0.930 . S
H1255 C1251 0.930 . S
C1256 N1257 1.314 . S
C1256 C1258 1.353 1_565 S
C1256 H1262 0.930 . S
N1257 Li1233 1.990 . S
N1257 C1256 1.314 . S
N1257 C1260 1.279 1_565 S
C1258 C1256 1.353 1_545 S
C1258 C1261 1.348 . S
C1258 H1306 0.929 . S
C1259 C1260 1.358 . S
C1259 C1261 1.356 . S
C1259 H1307 0.930 . S
C1260 N1257 1.279 1_545 S
C1260 C1259 1.358 . S
C1260 H1263 0.930 . S
C1261 C1258 1.348 . S
C1261 C1259 1.356 . S
H1262 C1256 0.930 . S
H1263 C1260 0.930 . S
C1264 C1266 1.348 . S
C1264 C1267 1.356 . S
C1264 O1294 1.325 . S
N1265 C1268 1.314 . S
N1265 C1269 1.279 . S
C1266 C1264 1.348 . S
C1266 C1268 1.353 . S
C1266 H1308 0.929 . S
C1267 C1264 1.356 . S
C1267 C1269 1.358 . S
C1267 H1309 0.930 . S
C1268 N1265 1.314 . S
C1268 C1266 1.353 . S
C1268 H1310 0.930 . S
C1269 N1265 1.279 . S
C1269 C1267 1.358 . S
C1269 H1311 0.930 . S
C1270 C1271 1.348 . S
C1270 C1272 1.356 . S
C1270 O1295 1.325 . S
C1271 C1270 1.348 . S
C1271 C1273 1.353 . S
C1271 H1312 0.929 . S
C1272 C1270 1.356 . S
C1272 C1274 1.358 . S
C1272 H1313 0.930 . S
C1273 C1271 1.353 . S
C1273 N1275 1.314 . S
C1273 H1314 0.930 . S
C1274 C1272 1.358 . S
C1274 N1275 1.279 . S
C1274 H1315 0.930 . S
N1275 C1273 1.314 . S
N1275 C1274 1.279 . S
C1276 C1278 1.353 . S
C1276 N1279 1.314 . S
C1276 H1282 0.930 . S
C1277 N1279 1.279 . S
C1277 C1280 1.358 . S
C1277 H1283 0.930 . S
C1278 C1276 1.353 . S
C1278 C1281 1.348 . S
C1278 H1316 0.929 . S
N1279 Li1234 1.990 . S
N1279 C1276 1.314 . S
N1279 C1277 1.279 . S
C1280 C1277 1.358 . S
C1280 C1281 1.356 . S
C1280 H1317 0.930 . S
C1281 C1278 1.348 . S
C1281 C1280 1.356 . S
H1282 C1276 0.930 . S
H1283 C1277 0.930 . S
C1284 N1285 1.314 . S
C1284 C1286 1.353 . S
C1284 H1290 0.930 . S
N1285 Li1235 1.990 . S
N1285 C1284 1.314 . S
N1285 C1288 1.279 . S
C1286 C1284 1.353 . S
C1286 C1289 1.348 . S
C1286 H1318 0.929 . S
C1287 C1288 1.358 . S
C1287 C1289 1.356 . S
C1287 H1319 0.930 . S
C1288 N1285 1.279 . S
C1288 C1287 1.358 . S
C1288 H1291 0.930 . S
C1289 C1286 1.348 . S
C1289 C1287 1.356 . S
H1290 C1284 0.930 . S
H1291 C1288 0.930 . S
O1292 Li1232 1.956 . S
O1292 Li1233 1.970 . S
O1292 Li1234 1.961 . S
O1292 C1236 1.325 . S
O1293 Li1232 1.970 . S
O1293 Li1233 1.956 . S
O1293 Li1235 1.961 . S
O1293 C1242 1.325 . S
O1294 Li1232 1.961 . S
O1294 Li1234 1.956 . S
O1294 Li1235 1.970 . S
O1294 C1264 1.325 . S
O1295 Li1233 1.961 . S
O1295 Li1234 1.970 . S
O1295 Li1235 1.956 . S
O1295 C1270 1.325 . S
H1296 C1238 0.929 . S
H1297 C1239 0.930 . S
H1298 C1240 0.930 1_545 S
H1299 C1241 0.930 . S
H1300 C1243 0.930 . S
H1301 C1245 0.929 . S
H1302 C1246 0.930 . S
H1303 C1247 0.930 1_545 S
H1304 C1250 0.930 . S
H1305 C1253 0.929 . S
H1306 C1258 0.929 . S
H1307 C1259 0.930 . S
H1308 C1266 0.929 . S
H1309 C1267 0.930 . S
H1310 C1268 0.930 . S
H1311 C1269 0.930 . S
H1312 C1271 0.929 . S
H1313 C1272 0.930 . S
H1314 C1273 0.930 . S
H1315 C1274 0.930 . S
H1316 C1278 0.929 . S
H1317 C1280 0.930 . S
H1318 C1286 0.929 . S
H1319 C1287 0.930 . S
Li1320 N1337 1.990 . S
Li1320 O1380 1.956 . S
Li1320 O1381 1.970 . S
Li1320 O1382 1.961 . S
Li1321 N1345 1.990 . S
Li1321 O1380 1.970 . S
Li1321 O1381 1.956 . S
Li1321 O1383 1.961 . S
Li1322 N1367 1.990 . S
Li1322 O1380 1.961 . S
Li1322 O1382 1.956 . S
Li1322 O1383 1.970 . S
Li1323 N1373 1.990 . S
Li1323 O1381 1.961 . S
Li1323 O1382 1.970 . S
Li1323 O1383 1.956 . S
C1324 C1326 1.348 . S
C1324 C1327 1.356 . S
C1324 O1380 1.325 . S
N1325 C1328 1.314 . S
N1325 C1329 1.279 . S
C1326 C1324 1.348 . S
C1326 C1328 1.353 . S
C1326 H1384 0.929 . S
C1327 C1324 1.356 . S
C1327 C1329 1.358 . S
C1327 H1385 0.930 . S
C1328 N1325 1.314 . S
C1328 C1326 1.353 . S
C1328 H1386 0.930 . S
C1329 N1325 1.279 . S
C1329 C1327 1.358 . S
C1329 H1387 0.906 1_655 S
C1330 C1333 1.348 . S
C1330 C1334 1.356 . S
C1330 O1381 1.325 . S
C1331 N1332 1.279 . S
C1331 C1334 1.358 . S
C1331 H1388 0.930 . S
N1332 C1331 1.279 . S
N1332 C1335 1.314 . S
C1333 C1330 1.348 . S
C1333 C1335 1.353 . S
C1333 H1389 0.929 . S
C1334 C1330 1.356 . S
C1334 C1331 1.358 . S
C1334 H1390 0.930 . S
C1335 N1332 1.314 . S
C1335 C1333 1.353 . S
C1335 H1391 0.930 . S
C1336 N1337 1.314 . S
C1336 C1341 1.353 . S
C1336 H1342 0.930 . S
N1337 Li1320 1.990 . S
N1337 C1336 1.314 . S
N1337 C1339 1.279 . S
C1338 C1339 1.358 . S
C1338 C1340 1.356 . S
C1338 H1392 0.930 . S
C1339 N1337 1.279 . S
C1339 C1338 1.358 . S
C1339 H1343 0.930 . S
C1340 C1338 1.356 . S
C1340 C1341 1.348 . S
C1341 C1336 1.353 . S
C1341 C1340 1.348 . S
C1341 H1393 0.929 . S
H1342 C1336 0.930 . S
H1343 C1339 0.930 . S
C1344 N1345 1.314 . S
C1344 C1346 1.353 . S
C1344 H1350 0.930 . S
N1345 Li1321 1.990 . S
N1345 C1344 1.314 . S
N1345 C1348 1.279 . S
C1346 C1344 1.353 . S
C1346 C1349 1.348 . S
C1346 H1394 0.929 . S
C1347 C1348 1.358 . S
C1347 C1349 1.356 . S
C1347 H1395 0.930 . S
C1348 N1345 1.279 . S
C1348 C1347 1.358 . S
C1348 H1351 0.930 . S
C1349 C1346 1.348 . S
C1349 C1347 1.356 . S
H1350 C1344 0.930 . S
H1351 C1348 0.930 . S
C1352 C1354 1.348 . S
C1352 C1355 1.356 . S
C1352 O1382 1.325 . S
N1353 C1356 1.314 . S
N1353 C1357 1.279 . S
C1354 C1352 1.348 . S
C1354 C1356 1.353 . S
C1354 H1396 0.929 . S
C1355 C1352 1.356 . S
C1355 C1357 1.358 . S
C1355 H1397 0.930 . S
C1356 N1353 1.314 . S
C1356 C1354 1.353 . S
C1356 H1398 0.930 . S
C1357 N1353 1.279 . S
C1357 C1355 1.358 . S
C1357 H1399 0.930 . S
C1358 C1359 1.348 . S
C1358 C1360 1.356 . S
C1358 O1383 1.325 . S
C1359 C1358 1.348 . S
C1359 C1361 1.353 . S
C1359 H1400 0.929 . S
C1360 C1358 1.356 . S
C1360 C1362 1.358 . S
C1360 H1401 0.930 . S
C1361 C1359 1.353 . S
C1361 N1363 1.314 . S
C1361 H1402 0.930 1_655 S
C1362 C1360 1.358 . S
C1362 N1363 1.279 . S
C1362 H1403 0.930 . S
N1363 C1361 1.314 . S
N1363 C1362 1.279 . S
C1364 C1366 1.353 . S
C1364 N1367 1.314 1_455 S
C1364 H1370 0.930 . S
C1365 N1367 1.279 . S
C1365 C1368 1.358 1_655 S
C1365 H1371 0.930 . S
C1366 C1364 1.353 . S
C1366 C1369 1.348 . S
C1366 H1404 0.929 . S
N1367 Li1322 1.990 . S
N1367 C1364 1.314 1_655 S
N1367 C1365 1.279 . S
C1368 C1365 1.358 1_455 S
C1368 C1369 1.356 . S
C1368 H1405 0.930 . S
C1369 C1366 1.348 . S
C1369 C1368 1.356 . S
H1370 C1364 0.930 . S
H1371 C1365 0.930 . S
C1372 N1373 1.314 . S
C1372 C1374 1.353 . S
C1372 H1378 0.930 . S
N1373 Li1323 1.990 . S
N1373 C1372 1.314 . S
N1373 C1376 1.279 . S
C1374 C1372 1.353 . S
C1374 C1377 1.348 . S
C1374 H1406 0.929 . S
C1375 C1376 1.358 . S
C1375 C1377 1.356 . S
C1375 H1407 0.930 . S
C1376 N1373 1.279 . S
C1376 C1375 1.358 . S
C1376 H1379 0.930 . S
C1377 C1374 1.348 . S
C1377 C1375 1.356 . S
H1378 C1372 0.930 . S
H1379 C1376 0.930 . S
O1380 Li1320 1.956 . S
O1380 Li1321 1.970 . S
O1380 Li1322 1.961 . S
O1380 C1324 1.325 . S
O1381 Li1320 1.970 . S
O1381 Li1321 1.956 . S
O1381 Li1323 1.961 . S
O1381 C1330 1.325 . S
O1382 Li1320 1.961 . S
O1382 Li1322 1.956 . S
O1382 Li1323 1.970 . S
O1382 C1352 1.325 . S
O1383 Li1321 1.961 . S
O1383 Li1322 1.970 . S
O1383 Li1323 1.956 . S
O1383 C1358 1.325 . S
H1384 C1326 0.929 . S
H1385 C1327 0.930 . S
H1386 C1328 0.930 . S
H1387 C1329 0.906 1_455 S
H1388 C1331 0.930 . S
H1389 C1333 0.929 . S
H1390 C1334 0.930 . S
H1391 C1335 0.930 . S
H1392 C1338 0.930 . S
H1393 C1341 0.929 . S
H1394 C1346 0.929 . S
H1395 C1347 0.930 . S
H1396 C1354 0.929 . S
H1397 C1355 0.930 . S
H1398 C1356 0.930 . S
H1399 C1357 0.930 . S
H1400 C1359 0.929 . S
H1401 C1360 0.930 . S
H1402 C1361 0.930 1_455 S
H1403 C1362 0.930 . S
H1404 C1366 0.929 . S
H1405 C1368 0.930 . S
H1406 C1374 0.929 . S
H1407 C1375 0.930 . S
H1408 C1416 0.950 . S
H1409 C1421 0.950 . S
H1410 C1418 0.950 . S
H1411 C1420 0.950 . S
H1412 C1422 0.950 . S
H1413 C1424 0.950 . S
H1414 C1426 0.950 . S
H1415 C1427 0.950 . S
C1416 H1408 0.950 . S
C1416 C1417 1.386 . S
C1416 C1418 1.391 . S
C1417 C1416 1.386 . S
C1417 C1421 1.393 . S
C1418 H1410 0.950 . S
C1418 C1416 1.391 . S
C1418 C1419 1.400 . S
C1419 C1418 1.400 . S
C1419 C1420 1.398 . S
C1419 C1425 1.491 . S
C1420 H1411 0.950 . S
C1420 C1419 1.398 . S
C1420 C1421 1.391 . S
C1421 H1409 0.950 . S
C1421 C1417 1.393 . S
C1421 C1420 1.391 . S
C1422 H1412 0.950 . S
C1422 C1423 1.386 . S
C1422 C1424 1.391 . S
C1423 C1422 1.386 . S
C1423 C1427 1.393 . S
C1424 H1413 0.950 . S
C1424 C1422 1.391 . S
C1424 C1425 1.400 . S
C1425 C1419 1.491 . S
C1425 C1424 1.400 . S
C1425 C1426 1.398 . S
C1426 H1414 0.950 . S
C1426 C1425 1.398 . S
C1426 C1427 1.391 . S
C1427 H1415 0.950 . S
C1427 C1423 1.393 . S
C1427 C1426 1.391 . S
H1428 C1436 0.950 . S
H1429 C1441 0.950 . S
H1430 C1438 0.950 . S
H1431 C1440 0.950 . S
H1432 C1442 0.950 . S
H1433 C1444 0.950 . S
H1434 C1446 0.950 . S
H1435 C1447 0.950 . S
C1436 H1428 0.950 . S
C1436 C1437 1.386 . S
C1436 C1438 1.391 . S
C1437 C1436 1.386 . S
C1437 C1441 1.393 . S
C1438 H1430 0.950 . S
C1438 C1436 1.391 . S
C1438 C1439 1.400 . S
C1439 C1438 1.400 . S
C1439 C1440 1.398 . S
C1439 C1445 1.491 . S
C1440 H1431 0.950 . S
C1440 C1439 1.398 . S
C1440 C1441 1.391 . S
C1441 H1429 0.950 . S
C1441 C1437 1.393 . S
C1441 C1440 1.391 . S
C1442 H1432 0.950 . S
C1442 C1443 1.386 . S
C1442 C1444 1.391 . S
C1443 C1442 1.386 . S
C1443 C1447 1.393 . S
C1444 H1433 0.950 . S
C1444 C1442 1.391 . S
C1444 C1445 1.400 . S
C1445 C1439 1.491 . S
C1445 C1444 1.400 . S
C1445 C1446 1.398 . S
C1446 H1434 0.950 . S
C1446 C1445 1.398 . S
C1446 C1447 1.391 . S
C1447 H1435 0.950 . S
C1447 C1443 1.393 . S
C1447 C1446 1.391 . S
H1448 C1456 0.950 . S
H1449 C1461 0.950 . S
H1450 C1458 0.950 . S
H1451 C1460 0.950 . S
H1452 C1462 0.950 . S
H1453 C1464 0.950 . S
H1454 C1466 0.950 . S
H1455 C1467 0.950 . S
C1456 H1448 0.950 . S
C1456 C1457 1.386 . S
C1456 C1458 1.391 . S
C1457 C1456 1.386 . S
C1457 C1461 1.393 . S
C1458 H1450 0.950 . S
C1458 C1456 1.391 . S
C1458 C1459 1.400 . S
C1459 C1458 1.400 . S
C1459 C1460 1.398 . S
C1459 C1465 1.491 . S
C1460 H1451 0.950 . S
C1460 C1459 1.398 . S
C1460 C1461 1.391 . S
C1461 H1449 0.950 . S
C1461 C1457 1.393 . S
C1461 C1460 1.391 . S
C1462 H1452 0.950 . S
C1462 C1463 1.386 . S
C1462 C1464 1.391 . S
C1463 C1462 1.386 . S
C1463 C1467 1.393 . S
C1464 H1453 0.950 . S
C1464 C1462 1.391 . S
C1464 C1465 1.400 . S
C1465 C1459 1.491 . S
C1465 C1464 1.400 . S
C1465 C1466 1.398 . S
C1466 H1454 0.950 . S
C1466 C1465 1.398 . S
C1466 C1467 1.391 . S
C1467 H1455 0.950 . S
C1467 C1463 1.393 . S
C1467 C1466 1.391 . S
H1468 C1476 0.950 . S
H1469 C1481 0.950 . S
H1470 C1478 0.950 . S
H1471 C1480 0.950 . S
H1472 C1482 0.950 . S
H1473 C1484 0.950 . S
H1474 C1486 0.950 . S
H1475 C1487 0.950 . S
C1476 H1468 0.950 . S
C1476 C1477 1.386 . S
C1476 C1478 1.391 . S
C1477 C1476 1.386 . S
C1477 C1481 1.393 . S
C1478 H1470 0.950 . S
C1478 C1476 1.391 . S
C1478 C1479 1.400 . S
C1479 C1478 1.400 . S
C1479 C1480 1.398 . S
C1479 C1485 1.491 . S
C1480 H1471 0.950 . S
C1480 C1479 1.398 . S
C1480 C1481 1.391 . S
C1481 H1469 0.950 . S
C1481 C1477 1.393 . S
C1481 C1480 1.391 . S
C1482 H1472 0.950 . S
C1482 C1483 1.386 . S
C1482 C1484 1.391 . S
C1483 C1482 1.386 . S
C1483 C1487 1.393 . S
C1484 H1473 0.950 . S
C1484 C1482 1.391 . S
C1484 C1485 1.400 . S
C1485 C1479 1.491 . S
C1485 C1484 1.400 . S
C1485 C1486 1.398 . S
C1486 H1474 0.950 . S
C1486 C1485 1.398 . S
C1486 C1487 1.391 . S
C1487 H1475 0.950 . S
C1487 C1483 1.393 . S
C1487 C1486 1.391 . S
H1488 C1496 0.950 . S
H1489 C1501 0.950 . S
H1490 C1498 0.950 . S
H1491 C1500 0.950 . S
H1492 C1502 0.950 . S
H1493 C1504 0.950 . S
H1494 C1506 0.950 . S
H1495 C1507 0.950 . S
C1496 H1488 0.950 . S
C1496 C1497 1.386 . S
C1496 C1498 1.391 . S
C1497 C1496 1.386 . S
C1497 C1501 1.393 . S
C1498 H1490 0.950 . S
C1498 C1496 1.391 . S
C1498 C1499 1.400 . S
C1499 C1498 1.400 . S
C1499 C1500 1.398 . S
C1499 C1505 1.491 . S
C1500 H1491 0.950 . S
C1500 C1499 1.398 . S
C1500 C1501 1.391 . S
C1501 H1489 0.950 . S
C1501 C1497 1.393 . S
C1501 C1500 1.391 . S
C1502 H1492 0.950 . S
C1502 C1503 1.386 . S
C1502 C1504 1.391 . S
C1503 C1502 1.386 . S
C1503 C1507 1.393 . S
C1504 H1493 0.950 . S
C1504 C1502 1.391 . S
C1504 C1505 1.400 . S
C1505 C1499 1.491 . S
C1505 C1504 1.400 . S
C1505 C1506 1.398 . S
C1506 H1494 0.950 . S
C1506 C1505 1.398 . S
C1506 C1507 1.391 . S
C1507 H1495 0.950 . S
C1507 C1503 1.393 . S
C1507 C1506 1.391 . S
H1508 C1516 0.950 . S
H1509 C1521 0.950 . S
H1510 C1518 0.950 . S
H1511 C1520 0.950 . S
H1512 C1522 0.950 . S
H1513 C1524 0.950 . S
H1514 C1526 0.950 . S
H1515 C1527 0.950 . S
C1516 H1508 0.950 . S
C1516 C1517 1.386 . S
C1516 C1518 1.391 . S
C1517 C1516 1.386 . S
C1517 C1521 1.393 . S
C1518 H1510 0.950 . S
C1518 C1516 1.391 . S
C1518 C1519 1.400 . S
C1519 C1518 1.400 . S
C1519 C1520 1.398 . S
C1519 C1525 1.491 . S
C1520 H1511 0.950 . S
C1520 C1519 1.398 . S
C1520 C1521 1.391 . S
C1521 H1509 0.950 . S
C1521 C1517 1.393 . S
C1521 C1520 1.391 . S
C1522 H1512 0.950 . S
C1522 C1523 1.386 . S
C1522 C1524 1.391 . S
C1523 C1522 1.386 . S
C1523 C1527 1.393 . S
C1524 H1513 0.950 . S
C1524 C1522 1.391 . S
C1524 C1525 1.400 . S
C1525 C1519 1.491 . S
C1525 C1524 1.400 . S
C1525 C1526 1.398 . S
C1526 H1514 0.950 . S
C1526 C1525 1.398 . S
C1526 C1527 1.391 . S
C1527 H1515 0.950 . S
C1527 C1523 1.393 . S
C1527 C1526 1.391 . S
H1528 C1536 0.950 . S
H1529 C1541 0.950 . S
H1530 C1538 0.950 . S
H1531 C1540 0.950 . S
H1532 C1542 0.950 . S
H1533 C1544 0.950 . S
H1534 C1546 0.950 . S
H1535 C1547 0.950 . S
C1536 H1528 0.950 . S
C1536 C1537 1.386 . S
C1536 C1538 1.391 . S
C1537 C1536 1.386 . S
C1537 C1541 1.393 . S
C1538 H1530 0.950 . S
C1538 C1536 1.391 . S
C1538 C1539 1.400 . S
C1539 C1538 1.400 . S
C1539 C1540 1.398 . S
C1539 C1545 1.491 . S
C1540 H1531 0.950 . S
C1540 C1539 1.398 . S
C1540 C1541 1.391 . S
C1541 H1529 0.950 . S
C1541 C1537 1.393 . S
C1541 C1540 1.391 . S
C1542 H1532 0.950 . S
C1542 C1543 1.386 . S
C1542 C1544 1.391 . S
C1543 C1542 1.386 . S
C1543 C1547 1.393 . S
C1544 H1533 0.950 . S
C1544 C1542 1.391 . S
C1544 C1545 1.400 . S
C1545 C1539 1.491 . S
C1545 C1544 1.400 . S
C1545 C1546 1.398 . S
C1546 H1534 0.950 . S
C1546 C1545 1.398 . S
C1546 C1547 1.391 . S
C1547 H1535 0.950 . S
C1547 C1543 1.393 . S
C1547 C1546 1.391 . S
H1548 C1556 0.950 . S
H1549 C1561 0.950 . S
H1550 C1558 0.950 . S
H1551 C1560 0.950 . S
H1552 C1562 0.950 . S
H1553 C1564 0.950 . S
H1554 C1566 0.950 . S
H1555 C1567 0.950 . S
C1556 H1548 0.950 . S
C1556 C1557 1.386 . S
C1556 C1558 1.391 . S
C1557 C1556 1.386 . S
C1557 C1561 1.393 . S
C1558 H1550 0.950 . S
C1558 C1556 1.391 . S
C1558 C1559 1.400 . S
C1559 C1558 1.400 . S
C1559 C1560 1.398 . S
C1559 C1565 1.491 . S
C1560 H1551 0.950 . S
C1560 C1559 1.398 . S
C1560 C1561 1.391 . S
C1561 H1549 0.950 . S
C1561 C1557 1.393 . S
C1561 C1560 1.391 . S
C1562 H1552 0.950 . S
C1562 C1563 1.386 . S
C1562 C1564 1.391 . S
C1563 C1562 1.386 . S
C1563 C1567 1.393 . S
C1564 H1553 0.950 . S
C1564 C1562 1.391 . S
C1564 C1565 1.400 . S
C1565 C1559 1.491 . S
C1565 C1564 1.400 . S
C1565 C1566 1.398 . S
C1566 H1554 0.950 . S
C1566 C1565 1.398 . S
C1566 C1567 1.391 . S
C1567 H1555 0.950 . S
C1567 C1563 1.393 . S
C1567 C1566 1.391 . S
H1568 C1576 0.950 . S
H1569 C1581 0.950 . S
H1570 C1578 0.950 . S
H1571 C1580 0.950 . S
H1572 C1582 0.950 . S
H1573 C1584 0.950 . S
H1574 C1586 0.950 . S
H1575 C1587 0.950 . S
C1576 H1568 0.950 . S
C1576 C1577 1.386 . S
C1576 C1578 1.391 . S
C1577 C1576 1.386 . S
C1577 C1581 1.393 . S
C1578 H1570 0.950 . S
C1578 C1576 1.391 . S
C1578 C1579 1.400 . S
C1579 C1578 1.400 . S
C1579 C1580 1.398 . S
C1579 C1585 1.491 . S
C1580 H1571 0.950 . S
C1580 C1579 1.398 . S
C1580 C1581 1.391 . S
C1581 H1569 0.950 . S
C1581 C1577 1.393 . S
C1581 C1580 1.391 . S
C1582 H1572 0.950 . S
C1582 C1583 1.386 . S
C1582 C1584 1.391 . S
C1583 C1582 1.386 . S
C1583 C1587 1.393 . S
C1584 H1573 0.950 . S
C1584 C1582 1.391 . S
C1584 C1585 1.400 . S
C1585 C1579 1.491 . S
C1585 C1584 1.400 . S
C1585 C1586 1.398 . S
C1586 H1574 0.950 . S
C1586 C1585 1.398 . S
C1586 C1587 1.391 . S
C1587 H1575 0.950 . S
C1587 C1583 1.393 . S
C1587 C1586 1.391 . S
H1588 C1596 0.950 . S
H1589 C1601 0.950 . S
H1590 C1598 0.950 . S
H1591 C1600 0.950 . S
H1592 C1602 0.950 . S
H1593 C1604 0.950 . S
H1594 C1606 0.950 . S
H1595 C1607 0.950 . S
C1596 H1588 0.950 . S
C1596 C1597 1.386 . S
C1596 C1598 1.391 . S
C1597 C1596 1.386 . S
C1597 C1601 1.393 . S
C1598 H1590 0.950 . S
C1598 C1596 1.391 . S
C1598 C1599 1.400 . S
C1599 C1598 1.400 . S
C1599 C1600 1.398 . S
C1599 C1605 1.491 . S
C1600 H1591 0.950 . S
C1600 C1599 1.398 . S
C1600 C1601 1.391 . S
C1601 H1589 0.950 . S
C1601 C1597 1.393 . S
C1601 C1600 1.391 . S
C1602 H1592 0.950 . S
C1602 C1603 1.386 . S
C1602 C1604 1.391 . S
C1603 C1602 1.386 . S
C1603 C1607 1.393 . S
C1604 H1593 0.950 . S
C1604 C1602 1.391 . S
C1604 C1605 1.400 . S
C1605 C1599 1.491 . S
C1605 C1604 1.400 . S
C1605 C1606 1.398 . S
C1606 H1594 0.950 . S
C1606 C1605 1.398 . S
C1606 C1607 1.391 . S
C1607 H1595 0.950 . S
C1607 C1603 1.393 . S
C1607 C1606 1.391 . S
H1608 C1616 0.950 . S
H1609 C1621 0.950 . S
H1610 C1618 0.950 . S
H1611 C1620 0.950 . S
H1612 C1622 0.950 . S
H1613 C1624 0.950 . S
H1614 C1626 0.950 . S
H1615 C1627 0.950 . S
C1616 H1608 0.950 . S
C1616 C1617 1.386 . S
C1616 C1618 1.391 . S
C1617 C1616 1.386 . S
C1617 C1621 1.393 . S
C1618 H1610 0.950 . S
C1618 C1616 1.391 . S
C1618 C1619 1.400 . S
C1619 C1618 1.400 . S
C1619 C1620 1.398 . S
C1619 C1625 1.491 . S
C1620 H1611 0.950 . S
C1620 C1619 1.398 . S
C1620 C1621 1.391 . S
C1621 H1609 0.950 . S
C1621 C1617 1.393 . S
C1621 C1620 1.391 . S
C1622 H1612 0.950 . S
C1622 C1623 1.386 . S
C1622 C1624 1.391 . S
C1623 C1622 1.386 . S
C1623 C1627 1.393 . S
C1624 H1613 0.950 . S
C1624 C1622 1.391 . S
C1624 C1625 1.400 . S
C1625 C1619 1.491 . S
C1625 C1624 1.400 . S
C1625 C1626 1.398 . S
C1626 H1614 0.950 . S
C1626 C1625 1.398 . S
C1626 C1627 1.391 . S
C1627 H1615 0.950 . S
C1627 C1623 1.393 . S
C1627 C1626 1.391 . S
H1628 C1636 0.950 . S
H1629 C1641 0.950 . S
H1630 C1638 0.950 . S
H1631 C1640 0.950 . S
H1632 C1642 0.950 . S
H1633 C1644 0.950 . S
H1634 C1646 0.950 . S
H1635 C1647 0.950 . S
C1636 H1628 0.950 . S
C1636 C1637 1.386 . S
C1636 C1638 1.391 . S
C1637 C1636 1.386 . S
C1637 C1641 1.393 . S
C1638 H1630 0.950 . S
C1638 C1636 1.391 . S
C1638 C1639 1.400 . S
C1639 C1638 1.400 . S
C1639 C1640 1.398 . S
C1639 C1645 1.491 . S
C1640 H1631 0.950 . S
C1640 C1639 1.398 . S
C1640 C1641 1.391 . S
C1641 H1629 0.950 . S
C1641 C1637 1.393 . S
C1641 C1640 1.391 . S
C1642 H1632 0.950 . S
C1642 C1643 1.386 . S
C1642 C1644 1.391 . S
C1643 C1642 1.386 . S
C1643 C1647 1.393 . S
C1644 H1633 0.950 . S
C1644 C1642 1.391 . S
C1644 C1645 1.400 . S
C1645 C1639 1.491 . S
C1645 C1644 1.400 . S
C1645 C1646 1.398 . S
C1646 H1634 0.950 . S
C1646 C1645 1.398 . S
C1646 C1647 1.391 . S
C1647 H1635 0.950 . S
C1647 C1643 1.393 . S
C1647 C1646 1.391 . S
H1648 C1656 0.950 . S
H1649 C1661 0.950 . S
H1650 C1658 0.950 . S
H1651 C1660 0.950 . S
H1652 C1662 0.950 . S
H1653 C1664 0.950 . S
H1654 C1666 0.950 . S
H1655 C1667 0.950 . S
C1656 H1648 0.950 . S
C1656 C1657 1.386 . S
C1656 C1658 1.391 . S
C1657 C1656 1.386 . S
C1657 C1661 1.393 . S
C1658 H1650 0.950 . S
C1658 C1656 1.391 . S
C1658 C1659 1.400 . S
C1659 C1658 1.400 . S
C1659 C1660 1.398 . S
C1659 C1665 1.491 . S
C1660 H1651 0.950 . S
C1660 C1659 1.398 . S
C1660 C1661 1.391 . S
C1661 H1649 0.950 . S
C1661 C1657 1.393 . S
C1661 C1660 1.391 . S
C1662 H1652 0.950 . S
C1662 C1663 1.386 . S
C1662 C1664 1.391 . S
C1663 C1662 1.386 . S
C1663 C1667 1.393 . S
C1664 H1653 0.950 . S
C1664 C1662 1.391 . S
C1664 C1665 1.400 . S
C1665 C1659 1.491 . S
C1665 C1664 1.400 . S
C1665 C1666 1.398 . S
C1666 H1654 0.950 . S
C1666 C1665 1.398 . S
C1666 C1667 1.391 . S
C1667 H1655 0.950 . S
C1667 C1663 1.393 . S
C1667 C1666 1.391 . S
H1668 C1676 0.950 . S
H1669 C1681 0.950 . S
H1670 C1678 0.950 . S
H1671 C1680 0.950 . S
H1672 C1682 0.950 . S
H1673 C1684 0.950 . S
H1674 C1686 0.950 . S
H1675 C1687 0.950 . S
C1676 H1668 0.950 . S
C1676 C1677 1.386 . S
C1676 C1678 1.391 . S
C1677 C1676 1.386 . S
C1677 C1681 1.393 . S
C1678 H1670 0.950 . S
C1678 C1676 1.391 . S
C1678 C1679 1.400 . S
C1679 C1678 1.400 . S
C1679 C1680 1.398 . S
C1679 C1685 1.491 . S
C1680 H1671 0.950 . S
C1680 C1679 1.398 . S
C1680 C1681 1.391 . S
C1681 H1669 0.950 . S
C1681 C1677 1.393 . S
C1681 C1680 1.391 . S
C1682 H1672 0.950 . S
C1682 C1683 1.386 . S
C1682 C1684 1.391 . S
C1683 C1682 1.386 . S
C1683 C1687 1.393 . S
C1684 H1673 0.950 . S
C1684 C1682 1.391 . S
C1684 C1685 1.400 . S
C1685 C1679 1.491 . S
C1685 C1684 1.400 . S
C1685 C1686 1.398 . S
C1686 H1674 0.950 . S
C1686 C1685 1.398 . S
C1686 C1687 1.391 . S
C1687 H1675 0.950 . S
C1687 C1683 1.393 . S
C1687 C1686 1.391 . S
H1688 C1696 0.950 . S
H1689 C1701 0.950 . S
H1690 C1698 0.950 . S
H1691 C1700 0.950 . S
H1692 C1702 0.950 . S
H1693 C1704 0.950 . S
H1694 C1706 0.950 . S
H1695 C1707 0.950 . S
C1696 H1688 0.950 . S
C1696 C1697 1.386 . S
C1696 C1698 1.391 . S
C1697 C1696 1.386 . S
C1697 C1701 1.393 . S
C1698 H1690 0.950 . S
C1698 C1696 1.391 . S
C1698 C1699 1.400 . S
C1699 C1698 1.400 . S
C1699 C1700 1.398 . S
C1699 C1705 1.491 . S
C1700 H1691 0.950 . S
C1700 C1699 1.398 . S
C1700 C1701 1.391 . S
C1701 H1689 0.950 . S
C1701 C1697 1.393 . S
C1701 C1700 1.391 . S
C1702 H1692 0.950 . S
C1702 C1703 1.386 . S
C1702 C1704 1.391 . S
C1703 C1702 1.386 . S
C1703 C1707 1.393 . S
C1704 H1693 0.950 . S
C1704 C1702 1.391 . S
C1704 C1705 1.400 . S
C1705 C1699 1.491 . S
C1705 C1704 1.400 . S
C1705 C1706 1.398 . S
C1706 H1694 0.950 . S
C1706 C1705 1.398 . S
C1706 C1707 1.391 . S
C1707 H1695 0.950 . S
C1707 C1703 1.393 . S
C1707 C1706 1.391 . S
H1708 C1716 0.950 . S
H1709 C1721 0.950 . S
H1710 C1718 0.950 . S
H1711 C1720 0.950 . S
H1712 C1722 0.950 . S
H1713 C1724 0.950 . S
H1714 C1726 0.950 . S
H1715 C1727 0.950 . S
C1716 H1708 0.950 . S
C1716 C1717 1.386 . S
C1716 C1718 1.391 . S
C1717 C1716 1.386 . S
C1717 C1721 1.393 . S
C1718 H1710 0.950 . S
C1718 C1716 1.391 . S
C1718 C1719 1.400 . S
C1719 C1718 1.400 . S
C1719 C1720 1.398 . S
C1719 C1725 1.491 . S
C1720 H1711 0.950 . S
C1720 C1719 1.398 . S
C1720 C1721 1.391 . S
C1721 H1709 0.950 . S
C1721 C1717 1.393 . S
C1721 C1720 1.391 . S
C1722 H1712 0.950 . S
C1722 C1723 1.386 . S
C1722 C1724 1.391 . S
C1723 C1722 1.386 . S
C1723 C1727 1.393 . S
C1724 H1713 0.950 . S
C1724 C1722 1.391 . S
C1724 C1725 1.400 . S
C1725 C1719 1.491 . S
C1725 C1724 1.400 . S
C1725 C1726 1.398 . S
C1726 H1714 0.950 . S
C1726 C1725 1.398 . S
C1726 C1727 1.391 . S
C1727 H1715 0.950 . S
C1727 C1723 1.393 . S
C1727 C1726 1.391 . S
H1728 C1736 0.950 . S
H1729 C1741 0.950 . S
H1730 C1738 0.950 . S
H1731 C1740 0.950 . S
H1732 C1742 0.950 . S
H1733 C1744 0.950 . S
H1734 C1746 0.950 . S
H1735 C1747 0.950 . S
C1736 H1728 0.950 . S
C1736 C1737 1.386 . S
C1736 C1738 1.391 . S
C1737 C1736 1.386 . S
C1737 C1741 1.393 . S
C1738 H1730 0.950 . S
C1738 C1736 1.391 . S
C1738 C1739 1.400 . S
C1739 C1738 1.400 . S
C1739 C1740 1.398 . S
C1739 C1745 1.491 . S
C1740 H1731 0.950 . S
C1740 C1739 1.398 . S
C1740 C1741 1.391 . S
C1741 H1729 0.950 . S
C1741 C1737 1.393 . S
C1741 C1740 1.391 . S
C1742 H1732 0.950 . S
C1742 C1743 1.386 . S
C1742 C1744 1.391 . S
C1743 C1742 1.386 . S
C1743 C1747 1.393 . S
C1744 H1733 0.950 . S
C1744 C1742 1.391 . S
C1744 C1745 1.400 . S
C1745 C1739 1.491 . S
C1745 C1744 1.400 . S
C1745 C1746 1.398 . S
C1746 H1734 0.950 . S
C1746 C1745 1.398 . S
C1746 C1747 1.391 . S
C1747 H1735 0.950 . S
C1747 C1743 1.393 . S
C1747 C1746 1.391 . S
H1748 C1756 0.950 . S
H1749 C1761 0.950 . S
H1750 C1758 0.950 . S
H1751 C1760 0.950 . S
H1752 C1762 0.950 . S
H1753 C1764 0.950 . S
H1754 C1766 0.950 . S
H1755 C1767 0.950 . S
C1756 H1748 0.950 . S
C1756 C1757 1.386 . S
C1756 C1758 1.391 . S
C1757 C1756 1.386 . S
C1757 C1761 1.393 . S
C1758 H1750 0.950 . S
C1758 C1756 1.391 . S
C1758 C1759 1.400 . S
C1759 C1758 1.400 . S
C1759 C1760 1.398 . S
C1759 C1765 1.491 . S
C1760 H1751 0.950 . S
C1760 C1759 1.398 . S
C1760 C1761 1.391 . S
C1761 H1749 0.950 . S
C1761 C1757 1.393 . S
C1761 C1760 1.391 . S
C1762 H1752 0.950 . S
C1762 C1763 1.386 . S
C1762 C1764 1.391 . S
C1763 C1762 1.386 . S
C1763 C1767 1.393 . S
C1764 H1753 0.950 . S
C1764 C1762 1.391 . S
C1764 C1765 1.400 . S
C1765 C1759 1.491 . S
C1765 C1764 1.400 . S
C1765 C1766 1.398 . S
C1766 H1754 0.950 . S
C1766 C1765 1.398 . S
C1766 C1767 1.391 . S
C1767 H1755 0.950 . S
C1767 C1763 1.393 . S
C1767 C1766 1.391 . S
H1768 C1776 0.950 . S
H1769 C1781 0.950 . S
H1770 C1778 0.950 . S
H1771 C1780 0.950 . S
H1772 C1782 0.950 . S
H1773 C1784 0.950 . S
H1774 C1786 0.950 . S
H1775 C1787 0.950 . S
C1776 H1768 0.950 . S
C1776 C1777 1.386 . S
C1776 C1778 1.391 . S
C1777 C1776 1.386 . S
C1777 C1781 1.393 . S
C1778 H1770 0.950 . S
C1778 C1776 1.391 . S
C1778 C1779 1.400 . S
C1779 C1778 1.400 . S
C1779 C1780 1.398 . S
C1779 C1785 1.491 . S
C1780 H1771 0.950 . S
C1780 C1779 1.398 . S
C1780 C1781 1.391 . S
C1781 H1769 0.950 . S
C1781 C1777 1.393 . S
C1781 C1780 1.391 . S
C1782 H1772 0.950 . S
C1782 C1783 1.386 . S
C1782 C1784 1.391 . S
C1783 C1782 1.386 . S
C1783 C1787 1.393 . S
C1784 H1773 0.950 . S
C1784 C1782 1.391 . S
C1784 C1785 1.400 . S
C1785 C1779 1.491 . S
C1785 C1784 1.400 . S
C1785 C1786 1.398 . S
C1786 H1774 0.950 . S
C1786 C1785 1.398 . S
C1786 C1787 1.391 . S
C1787 H1775 0.950 . S
C1787 C1783 1.393 . S
C1787 C1786 1.391 . S
H1788 C1796 0.950 . S
H1789 C1801 0.950 . S
H1790 C1798 0.950 . S
H1791 C1800 0.950 . S
H1792 C1802 0.950 . S
H1793 C1804 0.950 . S
H1794 C1806 0.950 . S
H1795 C1807 0.950 . S
C1796 H1788 0.950 . S
C1796 C1797 1.386 . S
C1796 C1798 1.391 . S
C1797 C1796 1.386 . S
C1797 C1801 1.393 . S
C1798 H1790 0.950 . S
C1798 C1796 1.391 . S
C1798 C1799 1.400 . S
C1799 C1798 1.400 . S
C1799 C1800 1.398 . S
C1799 C1805 1.491 . S
C1800 H1791 0.950 . S
C1800 C1799 1.398 . S
C1800 C1801 1.391 . S
C1801 H1789 0.950 . S
C1801 C1797 1.393 . S
C1801 C1800 1.391 . S
C1802 H1792 0.950 . S
C1802 C1803 1.386 . S
C1802 C1804 1.391 . S
C1803 C1802 1.386 . S
C1803 C1807 1.393 . S
C1804 H1793 0.950 . S
C1804 C1802 1.391 . S
C1804 C1805 1.400 . S
C1805 C1799 1.491 . S
C1805 C1804 1.400 . S
C1805 C1806 1.398 . S
C1806 H1794 0.950 . S
C1806 C1805 1.398 . S
C1806 C1807 1.391 . S
C1807 H1795 0.950 . S
C1807 C1803 1.393 . S
C1807 C1806 1.391 . S
H1808 C1816 0.950 . S
H1809 C1821 0.950 . S
H1810 C1818 0.950 . S
H1811 C1820 0.950 . S
H1812 C1822 0.950 . S
H1813 C1824 0.950 . S
H1814 C1826 0.950 . S
H1815 C1827 0.950 . S
C1816 H1808 0.950 . S
C1816 C1817 1.386 . S
C1816 C1818 1.391 . S
C1817 C1816 1.386 . S
C1817 C1821 1.393 . S
C1818 H1810 0.950 . S
C1818 C1816 1.391 . S
C1818 C1819 1.400 . S
C1819 C1818 1.400 . S
C1819 C1820 1.398 . S
C1819 C1825 1.491 . S
C1820 H1811 0.950 . S
C1820 C1819 1.398 . S
C1820 C1821 1.391 . S
C1821 H1809 0.950 . S
C1821 C1817 1.393 . S
C1821 C1820 1.391 . S
C1822 H1812 0.950 . S
C1822 C1823 1.386 . S
C1822 C1824 1.391 . S
C1823 C1822 1.386 . S
C1823 C1827 1.393 . S
C1824 H1813 0.950 . S
C1824 C1822 1.391 . S
C1824 C1825 1.400 . S
C1825 C1819 1.491 . S
C1825 C1824 1.400 . S
C1825 C1826 1.398 . S
C1826 H1814 0.950 . S
C1826 C1825 1.398 . S
C1826 C1827 1.391 . S
C1827 H1815 0.950 . S
C1827 C1823 1.393 . S
C1827 C1826 1.391 . S
H1828 C1836 0.950 . S
H1829 C1841 0.950 . S
H1830 C1838 0.950 . S
H1831 C1840 0.950 . S
H1832 C1842 0.950 . S
H1833 C1844 0.950 . S
H1834 C1846 0.950 . S
H1835 C1847 0.950 . S
C1836 H1828 0.950 . S
C1836 C1837 1.386 . S
C1836 C1838 1.391 . S
C1837 C1836 1.386 . S
C1837 C1841 1.393 . S
C1838 H1830 0.950 . S
C1838 C1836 1.391 . S
C1838 C1839 1.400 . S
C1839 C1838 1.400 . S
C1839 C1840 1.398 . S
C1839 C1845 1.491 . S
C1840 H1831 0.950 . S
C1840 C1839 1.398 . S
C1840 C1841 1.391 . S
C1841 H1829 0.950 . S
C1841 C1837 1.393 . S
C1841 C1840 1.391 . S
C1842 H1832 0.950 . S
C1842 C1843 1.386 . S
C1842 C1844 1.391 . S
C1843 C1842 1.386 . S
C1843 C1847 1.393 . S
C1844 H1833 0.950 . S
C1844 C1842 1.391 . S
C1844 C1845 1.400 . S
C1845 C1839 1.491 . S
C1845 C1844 1.400 . S
C1845 C1846 1.398 . S
C1846 H1834 0.950 . S
C1846 C1845 1.398 . S
C1846 C1847 1.391 . S
C1847 H1835 0.950 . S
C1847 C1843 1.393 . S
C1847 C1846 1.391 . S
H1848 C1856 0.950 . S
H1849 C1861 0.950 . S
H1850 C1858 0.950 . S
H1851 C1860 0.950 . S
H1852 C1862 0.950 . S
H1853 C1864 0.950 . S
H1854 C1866 0.950 . S
H1855 C1867 0.950 . S
C1856 H1848 0.950 . S
C1856 C1857 1.386 . S
C1856 C1858 1.391 . S
C1857 C1856 1.386 . S
C1857 C1861 1.393 . S
C1858 H1850 0.950 . S
C1858 C1856 1.391 . S
C1858 C1859 1.400 . S
C1859 C1858 1.400 . S
C1859 C1860 1.398 . S
C1859 C1865 1.491 . S
C1860 H1851 0.950 . S
C1860 C1859 1.398 . S
C1860 C1861 1.391 . S
C1861 H1849 0.950 . S
C1861 C1857 1.393 . S
C1861 C1860 1.391 . S
C1862 H1852 0.950 . S
C1862 C1863 1.386 . S
C1862 C1864 1.391 . S
C1863 C1862 1.386 . S
C1863 C1867 1.393 . S
C1864 H1853 0.950 . S
C1864 C1862 1.391 . S
C1864 C1865 1.400 . S
C1865 C1859 1.491 . S
C1865 C1864 1.400 . S
C1865 C1866 1.398 . S
C1866 H1854 0.950 . S
C1866 C1865 1.398 . S
C1866 C1867 1.391 . S
C1867 H1855 0.950 . S
C1867 C1863 1.393 . S
C1867 C1866 1.391 . S
H1868 C1876 0.950 . S
H1869 C1881 0.950 . S
H1870 C1878 0.950 . S
H1871 C1880 0.950 . S
H1872 C1882 0.950 . S
H1873 C1884 0.950 . S
H1874 C1886 0.950 . S
H1875 C1887 0.950 . S
C1876 H1868 0.950 . S
C1876 C1877 1.386 . S
C1876 C1878 1.391 . S
C1877 C1876 1.386 . S
C1877 C1881 1.393 . S
C1878 H1870 0.950 . S
C1878 C1876 1.391 . S
C1878 C1879 1.400 . S
C1879 C1878 1.400 . S
C1879 C1880 1.398 . S
C1879 C1885 1.491 . S
C1880 H1871 0.950 . S
C1880 C1879 1.398 . S
C1880 C1881 1.391 . S
C1881 H1869 0.950 . S
C1881 C1877 1.393 . S
C1881 C1880 1.391 . S
C1882 H1872 0.950 . S
C1882 C1883 1.386 . S
C1882 C1884 1.391 . S
C1883 C1882 1.386 . S
C1883 C1887 1.393 . S
C1884 H1873 0.950 . S
C1884 C1882 1.391 . S
C1884 C1885 1.400 . S
C1885 C1879 1.491 . S
C1885 C1884 1.400 . S
C1885 C1886 1.398 . S
C1886 H1874 0.950 . S
C1886 C1885 1.398 . S
C1886 C1887 1.391 . S
C1887 H1875 0.950 . S
C1887 C1883 1.393 . S
C1887 C1886 1.391 . S
H1888 C1896 0.950 . S
H1889 C1901 0.950 . S
H1890 C1898 0.950 . S
H1891 C1900 0.950 . S
H1892 C1902 0.950 . S
H1893 C1904 0.950 . S
H1894 C1906 0.950 . S
H1895 C1907 0.950 . S
C1896 H1888 0.950 . S
C1896 C1897 1.386 . S
C1896 C1898 1.391 . S
C1897 C1896 1.386 . S
C1897 C1901 1.393 . S
C1898 H1890 0.950 . S
C1898 C1896 1.391 . S
C1898 C1899 1.400 . S
C1899 C1898 1.400 . S
C1899 C1900 1.398 . S
C1899 C1905 1.491 . S
C1900 H1891 0.950 . S
C1900 C1899 1.398 . S
C1900 C1901 1.391 . S
C1901 H1889 0.950 . S
C1901 C1897 1.393 . S
C1901 C1900 1.391 . S
C1902 H1892 0.950 . S
C1902 C1903 1.386 . S
C1902 C1904 1.391 . S
C1903 C1902 1.386 . S
C1903 C1907 1.393 . S
C1904 H1893 0.950 . S
C1904 C1902 1.391 . S
C1904 C1905 1.400 . S
C1905 C1899 1.491 . S
C1905 C1904 1.400 . S
C1905 C1906 1.398 . S
C1906 H1894 0.950 . S
C1906 C1905 1.398 . S
C1906 C1907 1.391 . S
C1907 H1895 0.950 . S
C1907 C1903 1.393 . S
C1907 C1906 1.391 . S
H1908 C1916 0.950 . S
H1909 C1921 0.950 . S
H1910 C1918 0.950 . S
H1911 C1920 0.950 . S
H1912 C1922 0.950 . S
H1913 C1924 0.950 . S
H1914 C1926 0.950 . S
H1915 C1927 0.950 . S
C1916 H1908 0.950 . S
C1916 C1917 1.386 . S
C1916 C1918 1.391 . S
C1917 C1916 1.386 . S
C1917 C1921 1.393 . S
C1918 H1910 0.950 . S
C1918 C1916 1.391 . S
C1918 C1919 1.400 . S
C1919 C1918 1.400 . S
C1919 C1920 1.398 . S
C1919 C1925 1.491 . S
C1920 H1911 0.950 . S
C1920 C1919 1.398 . S
C1920 C1921 1.391 . S
C1921 H1909 0.950 . S
C1921 C1917 1.393 . S
C1921 C1920 1.391 . S
C1922 H1912 0.950 . S
C1922 C1923 1.386 . S
C1922 C1924 1.391 . S
C1923 C1922 1.386 . S
C1923 C1927 1.393 . S
C1924 H1913 0.950 . S
C1924 C1922 1.391 . S
C1924 C1925 1.400 . S
C1925 C1919 1.491 . S
C1925 C1924 1.400 . S
C1925 C1926 1.398 . S
C1926 H1914 0.950 . S
C1926 C1925 1.398 . S
C1926 C1927 1.391 . S
C1927 H1915 0.950 . S
C1927 C1923 1.393 . S
C1927 C1926 1.391 . S
H1928 C1936 0.950 . S
H1929 C1941 0.950 . S
H1930 C1938 0.950 . S
H1931 C1940 0.950 . S
H1932 C1942 0.950 . S
H1933 C1944 0.950 . S
H1934 C1946 0.950 . S
H1935 C1947 0.950 . S
C1936 H1928 0.950 . S
C1936 C1937 1.386 . S
C1936 C1938 1.391 . S
C1937 C1936 1.386 . S
C1937 C1941 1.393 . S
C1938 H1930 0.950 . S
C1938 C1936 1.391 . S
C1938 C1939 1.400 . S
C1939 C1938 1.400 . S
C1939 C1940 1.398 . S
C1939 C1945 1.491 . S
C1940 H1931 0.950 . S
C1940 C1939 1.398 . S
C1940 C1941 1.391 . S
C1941 H1929 0.950 . S
C1941 C1937 1.393 . S
C1941 C1940 1.391 . S
C1942 H1932 0.950 . S
C1942 C1943 1.386 . S
C1942 C1944 1.391 . S
C1943 C1942 1.386 . S
C1943 C1947 1.393 . S
C1944 H1933 0.950 . S
C1944 C1942 1.391 . S
C1944 C1945 1.400 . S
C1945 C1939 1.491 . S
C1945 C1944 1.400 . S
C1945 C1946 1.398 . S
C1946 H1934 0.950 . S
C1946 C1945 1.398 . S
C1946 C1947 1.391 . S
C1947 H1935 0.950 . S
C1947 C1943 1.393 . S
C1947 C1946 1.391 . S
H1948 C1956 0.950 . S
H1949 C1961 0.950 . S
H1950 C1958 0.950 . S
H1951 C1960 0.950 . S
H1952 C1962 0.950 . S
H1953 C1964 0.950 . S
H1954 C1966 0.950 . S
H1955 C1967 0.950 . S
C1956 H1948 0.950 . S
C1956 C1957 1.386 . S
C1956 C1958 1.391 . S
C1957 C1956 1.386 . S
C1957 C1961 1.393 . S
C1958 H1950 0.950 . S
C1958 C1956 1.391 . S
C1958 C1959 1.400 . S
C1959 C1958 1.400 . S
C1959 C1960 1.398 . S
C1959 C1965 1.491 . S
C1960 H1951 0.950 . S
C1960 C1959 1.398 . S
C1960 C1961 1.391 . S
C1961 H1949 0.950 . S
C1961 C1957 1.393 . S
C1961 C1960 1.391 . S
C1962 H1952 0.950 . S
C1962 C1963 1.386 . S
C1962 C1964 1.391 . S
C1963 C1962 1.386 . S
C1963 C1967 1.393 . S
C1964 H1953 0.950 . S
C1964 C1962 1.391 . S
C1964 C1965 1.400 . S
C1965 C1959 1.491 . S
C1965 C1964 1.400 . S
C1965 C1966 1.398 . S
C1966 H1954 0.950 . S
C1966 C1965 1.398 . S
C1966 C1967 1.391 . S
C1967 H1955 0.950 . S
C1967 C1963 1.393 . S
C1967 C1966 1.391 . S
H1968 C1976 0.961 . S
H1969 C1981 0.950 . S
H1970 C1978 0.950 . S
H1971 C1980 0.950 . S
H1972 C1982 0.961 . S
H1973 C1984 0.950 . S
H1974 C1986 0.950 . S
H1975 C1987 0.950 . S
C1976 H1968 0.961 . S
C1976 C1977 1.386 . S
C1976 C1978 1.391 1_545 S
C1977 C1976 1.386 . S
C1977 C1981 1.393 . S
C1978 H1970 0.950 . S
C1978 C1976 1.391 1_565 S
C1978 C1979 1.400 1_565 S
C1979 C1978 1.400 1_545 S
C1979 C1980 1.398 . S
C1979 C1985 1.491 1_544 S
C1980 H1971 0.950 . S
C1980 C1979 1.398 . S
C1980 C1981 1.391 . S
C1981 H1969 0.950 . S
C1981 C1977 1.393 . S
C1981 C1980 1.391 . S
C1982 H1972 0.961 . S
C1982 C1983 1.386 . S
C1982 C1984 1.391 1_565 S
C1983 C1982 1.386 . S
C1983 C1987 1.393 . S
C1984 H1973 0.950 . S
C1984 C1982 1.391 1_545 S
C1984 C1985 1.400 1_545 S
C1985 C1979 1.491 1_566 S
C1985 C1984 1.400 1_565 S
C1985 C1986 1.398 . S
C1986 H1974 0.950 . S
C1986 C1985 1.398 . S
C1986 C1987 1.391 . S
C1987 H1975 0.950 . S
C1987 C1983 1.393 . S
C1987 C1986 1.391 . S
H1988 C1996 0.950 . S
H1989 C2001 0.950 . S
H1990 C1998 0.950 . S
H1991 C2000 0.950 1_655 S
H1992 C2002 0.950 . S
H1993 C2004 0.950 . S
H1994 C2006 0.950 1_455 S
H1995 C2007 0.950 . S
C1996 H1988 0.950 . S
C1996 C1997 1.386 . S
C1996 C1998 1.391 . S
C1997 C1996 1.386 . S
C1997 C2001 1.393 . S
C1998 H1990 0.950 . S
C1998 C1996 1.391 . S
C1998 C1999 1.400 . S
C1999 C1998 1.400 . S
C1999 C2000 1.398 . S
C1999 C2005 1.491 1_456 S
C2000 H1991 0.950 1_455 S
C2000 C1999 1.398 . S
C2000 C2001 1.391 . S
C2001 H1989 0.950 . S
C2001 C1997 1.393 . S
C2001 C2000 1.391 . S
C2002 H1992 0.950 . S
C2002 C2003 1.386 . S
C2002 C2004 1.391 . S
C2003 C2002 1.386 . S
C2003 C2007 1.393 . S
C2004 H1993 0.950 . S
C2004 C2002 1.391 . S
C2004 C2005 1.400 . S
C2005 C1999 1.491 1_654 S
C2005 C2004 1.400 . S
C2005 C2006 1.398 . S
C2006 H1994 0.950 1_655 S
C2006 C2005 1.398 . S
C2006 C2007 1.391 . S
C2007 H1995 0.950 . S
C2007 C2003 1.393 . S
C2007 C2006 1.391 . S
H2008 C2016 0.950 . S
H2009 C2021 0.950 1_565 S
H2010 C2018 0.950 . S
H2011 C2020 0.950 . S
H2012 C2022 0.950 . S
H2013 C2024 0.950 . S
H2014 C2026 0.950 . S
H2015 C2027 0.950 1_545 S
C2016 H2008 0.950 . S
C2016 C2017 1.386 . S
C2016 C2018 1.391 . S
C2017 C2016 1.386 . S
C2017 C2021 1.393 . S
C2018 H2010 0.950 . S
C2018 C2016 1.391 . S
C2018 C2019 1.400 . S
C2019 C2018 1.400 . S
C2019 C2020 1.398 1_545 S
C2019 C2025 1.491 1_546 S
C2020 H2011 0.950 . S
C2020 C2019 1.398 1_565 S
C2020 C2021 1.391 1_565 S
C2021 H2009 0.950 1_545 S
C2021 C2017 1.393 . S
C2021 C2020 1.391 1_545 S
C2022 H2012 0.950 . S
C2022 C2023 1.386 . S
C2022 C2024 1.391 . S
C2023 C2022 1.386 . S
C2023 C2027 1.393 . S
C2024 H2013 0.950 . S
C2024 C2022 1.391 . S
C2024 C2025 1.400 . S
C2025 C2019 1.491 1_564 S
C2025 C2024 1.400 . S
C2025 C2026 1.398 1_565 S
C2026 H2014 0.950 . S
C2026 C2025 1.398 1_545 S
C2026 C2027 1.391 1_545 S
C2027 H2015 0.950 1_565 S
C2027 C2023 1.393 . S
C2027 C2026 1.391 1_565 S
H2028 C2036 0.950 1_455 S
H2029 C2041 0.950 . S
H2030 C2038 0.950 . S
H2031 C2040 0.980 . S
H2032 C2042 0.950 1_655 S
H2033 C2044 0.950 . S
H2034 C2046 0.980 . S
H2035 C2047 0.950 . S
C2036 H2028 0.950 1_655 S
C2036 C2037 1.386 . S
C2036 C2038 1.391 1_655 S
C2037 C2036 1.386 . S
C2037 C2041 1.393 . S
C2038 H2030 0.950 . S
C2038 C2036 1.391 1_455 S
C2038 C2039 1.400 1_455 S
C2039 C2038 1.400 1_655 S
C2039 C2040 1.398 . S
C2039 C2045 1.491 1_656 S
C2040 H2031 0.980 . S
C2040 C2039 1.398 . S
C2040 C2041 1.391 . S
C2041 H2029 0.950 . S
C2041 C2037 1.393 . S
C2041 C2040 1.391 . S
C2042 H2032 0.950 1_455 S
C2042 C2043 1.386 . S
C2042 C2044 1.391 1_455 S
C2043 C2042 1.386 . S
C2043 C2047 1.393 . S
C2044 H2033 0.950 . S
C2044 C2042 1.391 1_655 S
C2044 C2045 1.400 1_655 S
C2045 C2039 1.491 1_454 S
C2045 C2044 1.400 1_455 S
C2045 C2046 1.398 . S
C2046 H2034 0.980 . S
C2046 C2045 1.398 . S
C2046 C2047 1.391 . S
C2047 H2035 0.950 . S
C2047 C2043 1.393 . S
C2047 C2046 1.391 . S
C1417 C49 0.928 . S
C1423 C636 0.952 . S
C1437 C145 0.935 . S
C1443 C381 0.944 . S
C1457 C469 0.937 . S
C1463 C196 0.942 . S
C1477 C321 0.942 . S
C1483 C577 0.937 . S
C1497 C753 0.952 . S
C1503 C1340 0.928 . S
C1517 C1085 0.952 . S
C1523 C849 0.928 . S
C1537 C1173 0.948 . S
C1543 C900 0.932 . S
C1557 C1289 0.930 . S
C1563 C1017 0.950 . S
C1577 C20 1.131 . S
C1583 C997 1.209 . S
C1597 C117 1.170 . S
C1603 C761 1.221 . S
C1617 C812 1.214 . S
C1623 C225 1.171 . S
C1637 C293 1.147 . S
C1643 C909 1.221 . S
C1657 C409 1.131 . S
C1663 C1193 1.210 . S
C1677 C1281 1.217 . S
C1683 C497 1.142 . S
C1697 C548 1.137 . S
C1703 C1377 1.209 . S
C1717 C1076 1.225 . S
C1723 C665 1.170 . S
C1737 C724 1.146 . S
C1743 C284 1.209 . S
C1757 C57 1.224 . S
C1763 C821 1.165 . S
C1777 C929 1.146 . S
C1783 C108 1.213 . S
C1797 C205 1.224 . S
C1803 C988 1.168 . S
C1817 C1113 1.132 . S
C1823 C489 1.209 . S
C1837 C585 1.218 . S
C1843 C1201 1.157 . S
C1857 C673 1.209 . S
C1863 C1261 1.133 . S
C1877 C372 1.223 . S
C1883 C1369 1.160 . S
C1897 C401 1.677 . S
C1903 C29 1.678 . S
C1917 C460 1.681 . S
C1923 C137 1.681 . S
C1937 C233 1.684 . S
C1943 C557 1.684 . S
C1957 C645 1.681 . S
C1963 C313 1.681 . S
C1977 C1105 1.685 . S
C1983 C733 1.686 . S
C1997 C1164 1.672 . S
C2003 C841 1.672 . S
C2017 C937 1.680 . S
C2023 C1252 1.680 . S
C2037 C1349 1.677 . S
C2043 C1025 1.677 . S
