# Generated by pormake.
# Topology wip, (6)-cn, num edge types: 1
# Building blocks:
#     Node 0, Type 0, BuildingBlock: INOVEN_clean_sbu_0, # of connection points: 6
#     Node 1, Type 0, BuildingBlock: INOVEN_clean_sbu_0, # of connection points: 6
#     Node 2, Type 0, BuildingBlock: INOVEN_clean_sbu_0, # of connection points: 6
#     Node 3, Type 0, BuildingBlock: INOVEN_clean_sbu_0, # of connection points: 6
#     Node 4, Type 0, BuildingBlock: INOVEN_clean_sbu_0, # of connection points: 6
#     Node 5, Type 0, BuildingBlock: INOVEN_clean_sbu_0, # of connection points: 6
#     Node 6, Type 0, BuildingBlock: INOVEN_clean_sbu_0, # of connection points: 6
#     Node 7, Type 0, BuildingBlock: INOVEN_clean_sbu_0, # of connection points: 6
#     Node 8, Type 0, BuildingBlock: INOVEN_clean_sbu_0, # of connection points: 6
#     Node 9, Type 0, BuildingBlock: INOVEN_clean_sbu_0, # of connection points: 6
#     Node 10, Type 0, BuildingBlock: INOVEN_clean_sbu_0, # of connection points: 6
#     Node 11, Type 0, BuildingBlock: INOVEN_clean_sbu_0, # of connection points: 6
#     Node 12, Type 0, BuildingBlock: INOVEN_clean_sbu_0, # of connection points: 6
#     Node 13, Type 0, BuildingBlock: INOVEN_clean_sbu_0, # of connection points: 6
#     Node 14, Type 0, BuildingBlock: INOVEN_clean_sbu_0, # of connection points: 6
#     Node 15, Type 0, BuildingBlock: INOVEN_clean_sbu_0, # of connection points: 6
#     Node 16, Type 0, BuildingBlock: INOVEN_clean_sbu_0, # of connection points: 6
#     Node 17, Type 0, BuildingBlock: INOVEN_clean_sbu_0, # of connection points: 6
#     Node 18, Type 0, BuildingBlock: INOVEN_clean_sbu_0, # of connection points: 6
#     Node 19, Type 0, BuildingBlock: INOVEN_clean_sbu_0, # of connection points: 6
#     Node 20, Type 0, BuildingBlock: INOVEN_clean_sbu_0, # of connection points: 6
#     Node 21, Type 0, BuildingBlock: INOVEN_clean_sbu_0, # of connection points: 6
#     Node 22, Type 0, BuildingBlock: INOVEN_clean_sbu_0, # of connection points: 6
#     Node 23, Type 0, BuildingBlock: INOVEN_clean_sbu_0, # of connection points: 6
#     Node 24, Type 0, BuildingBlock: INOVEN_clean_sbu_0, # of connection points: 6
#     Node 25, Type 0, BuildingBlock: INOVEN_clean_sbu_0, # of connection points: 6
#     Node 26, Type 0, BuildingBlock: INOVEN_clean_sbu_0, # of connection points: 6
#     Node 27, Type 0, BuildingBlock: INOVEN_clean_sbu_0, # of connection points: 6
#     Node 28, Type 0, BuildingBlock: INOVEN_clean_sbu_0, # of connection points: 6
#     Node 29, Type 0, BuildingBlock: INOVEN_clean_sbu_0, # of connection points: 6
#     Node 30, Type 0, BuildingBlock: INOVEN_clean_sbu_0, # of connection points: 6
#     Node 31, Type 0, BuildingBlock: INOVEN_clean_sbu_0, # of connection points: 6
#     Edge 32, Type (0, 0), BuildingBlock: CIFDUS_clean_linker_0, # of connection points: 2
#     Edge 33, Type (0, 0), BuildingBlock: CIFDUS_clean_linker_0, # of connection points: 2
#     Edge 34, Type (0, 0), BuildingBlock: CIFDUS_clean_linker_0, # of connection points: 2
#     Edge 35, Type (0, 0), BuildingBlock: CIFDUS_clean_linker_0, # of connection points: 2
#     Edge 36, Type (0, 0), BuildingBlock: CIFDUS_clean_linker_0, # of connection points: 2
#     Edge 37, Type (0, 0), BuildingBlock: CIFDUS_clean_linker_0, # of connection points: 2
#     Edge 38, Type (0, 0), BuildingBlock: CIFDUS_clean_linker_0, # of connection points: 2
#     Edge 39, Type (0, 0), BuildingBlock: CIFDUS_clean_linker_0, # of connection points: 2
#     Edge 40, Type (0, 0), BuildingBlock: CIFDUS_clean_linker_0, # of connection points: 2
#     Edge 41, Type (0, 0), BuildingBlock: CIFDUS_clean_linker_0, # of connection points: 2
#     Edge 42, Type (0, 0), BuildingBlock: CIFDUS_clean_linker_0, # of connection points: 2
#     Edge 43, Type (0, 0), BuildingBlock: CIFDUS_clean_linker_0, # of connection points: 2
#     Edge 44, Type (0, 0), BuildingBlock: CIFDUS_clean_linker_0, # of connection points: 2
#     Edge 45, Type (0, 0), BuildingBlock: CIFDUS_clean_linker_0, # of connection points: 2
#     Edge 46, Type (0, 0), BuildingBlock: CIFDUS_clean_linker_0, # of connection points: 2
#     Edge 47, Type (0, 0), BuildingBlock: CIFDUS_clean_linker_0, # of connection points: 2
#     Edge 48, Type (0, 0), BuildingBlock: CIFDUS_clean_linker_0, # of connection points: 2
#     Edge 49, Type (0, 0), BuildingBlock: CIFDUS_clean_linker_0, # of connection points: 2
#     Edge 50, Type (0, 0), BuildingBlock: CIFDUS_clean_linker_0, # of connection points: 2
#     Edge 51, Type (0, 0), BuildingBlock: CIFDUS_clean_linker_0, # of connection points: 2
#     Edge 52, Type (0, 0), BuildingBlock: CIFDUS_clean_linker_0, # of connection points: 2
#     Edge 53, Type (0, 0), BuildingBlock: CIFDUS_clean_linker_0, # of connection points: 2
#     Edge 54, Type (0, 0), BuildingBlock: CIFDUS_clean_linker_0, # of connection points: 2
#     Edge 55, Type (0, 0), BuildingBlock: CIFDUS_clean_linker_0, # of connection points: 2
#     Edge 56, Type (0, 0), BuildingBlock: CIFDUS_clean_linker_0, # of connection points: 2
#     Edge 57, Type (0, 0), BuildingBlock: CIFDUS_clean_linker_0, # of connection points: 2
#     Edge 58, Type (0, 0), BuildingBlock: CIFDUS_clean_linker_0, # of connection points: 2
#     Edge 59, Type (0, 0), BuildingBlock: CIFDUS_clean_linker_0, # of connection points: 2
#     Edge 60, Type (0, 0), BuildingBlock: CIFDUS_clean_linker_0, # of connection points: 2
#     Edge 61, Type (0, 0), BuildingBlock: CIFDUS_clean_linker_0, # of connection points: 2
#     Edge 62, Type (0, 0), BuildingBlock: CIFDUS_clean_linker_0, # of connection points: 2
#     Edge 63, Type (0, 0), BuildingBlock: CIFDUS_clean_linker_0, # of connection points: 2
#     Edge 64, Type (0, 0), BuildingBlock: CIFDUS_clean_linker_0, # of connection points: 2
#     Edge 65, Type (0, 0), BuildingBlock: CIFDUS_clean_linker_0, # of connection points: 2
#     Edge 66, Type (0, 0), BuildingBlock: CIFDUS_clean_linker_0, # of connection points: 2
#     Edge 67, Type (0, 0), BuildingBlock: CIFDUS_clean_linker_0, # of connection points: 2
#     Edge 68, Type (0, 0), BuildingBlock: CIFDUS_clean_linker_0, # of connection points: 2
#     Edge 69, Type (0, 0), BuildingBlock: CIFDUS_clean_linker_0, # of connection points: 2
#     Edge 70, Type (0, 0), BuildingBlock: CIFDUS_clean_linker_0, # of connection points: 2
#     Edge 71, Type (0, 0), BuildingBlock: CIFDUS_clean_linker_0, # of connection points: 2
#     Edge 72, Type (0, 0), BuildingBlock: CIFDUS_clean_linker_0, # of connection points: 2
#     Edge 73, Type (0, 0), BuildingBlock: CIFDUS_clean_linker_0, # of connection points: 2
#     Edge 74, Type (0, 0), BuildingBlock: CIFDUS_clean_linker_0, # of connection points: 2
#     Edge 75, Type (0, 0), BuildingBlock: CIFDUS_clean_linker_0, # of connection points: 2
#     Edge 76, Type (0, 0), BuildingBlock: CIFDUS_clean_linker_0, # of connection points: 2
#     Edge 77, Type (0, 0), BuildingBlock: CIFDUS_clean_linker_0, # of connection points: 2
#     Edge 78, Type (0, 0), BuildingBlock: CIFDUS_clean_linker_0, # of connection points: 2
#     Edge 79, Type (0, 0), BuildingBlock: CIFDUS_clean_linker_0, # of connection points: 2
#     Edge 80, Type (0, 0), BuildingBlock: CIFDUS_clean_linker_0, # of connection points: 2
#     Edge 81, Type (0, 0), BuildingBlock: CIFDUS_clean_linker_0, # of connection points: 2
#     Edge 82, Type (0, 0), BuildingBlock: CIFDUS_clean_linker_0, # of connection points: 2
#     Edge 83, Type (0, 0), BuildingBlock: CIFDUS_clean_linker_0, # of connection points: 2
#     Edge 84, Type (0, 0), BuildingBlock: CIFDUS_clean_linker_0, # of connection points: 2
#     Edge 85, Type (0, 0), BuildingBlock: CIFDUS_clean_linker_0, # of connection points: 2
#     Edge 86, Type (0, 0), BuildingBlock: CIFDUS_clean_linker_0, # of connection points: 2
#     Edge 87, Type (0, 0), BuildingBlock: CIFDUS_clean_linker_0, # of connection points: 2
#     Edge 88, Type (0, 0), BuildingBlock: CIFDUS_clean_linker_0, # of connection points: 2
#     Edge 89, Type (0, 0), BuildingBlock: CIFDUS_clean_linker_0, # of connection points: 2
#     Edge 90, Type (0, 0), BuildingBlock: CIFDUS_clean_linker_0, # of connection points: 2
#     Edge 91, Type (0, 0), BuildingBlock: CIFDUS_clean_linker_0, # of connection points: 2
#     Edge 92, Type (0, 0), BuildingBlock: CIFDUS_clean_linker_0, # of connection points: 2
#     Edge 93, Type (0, 0), BuildingBlock: CIFDUS_clean_linker_0, # of connection points: 2
#     Edge 94, Type (0, 0), BuildingBlock: CIFDUS_clean_linker_0, # of connection points: 2
#     Edge 95, Type (0, 0), BuildingBlock: CIFDUS_clean_linker_0, # of connection points: 2
#     Edge 96, Type (0, 0), BuildingBlock: CIFDUS_clean_linker_0, # of connection points: 2
#     Edge 97, Type (0, 0), BuildingBlock: CIFDUS_clean_linker_0, # of connection points: 2
#     Edge 98, Type (0, 0), BuildingBlock: CIFDUS_clean_linker_0, # of connection points: 2
#     Edge 99, Type (0, 0), BuildingBlock: CIFDUS_clean_linker_0, # of connection points: 2
#     Edge 100, Type (0, 0), BuildingBlock: CIFDUS_clean_linker_0, # of connection points: 2
#     Edge 101, Type (0, 0), BuildingBlock: CIFDUS_clean_linker_0, # of connection points: 2
#     Edge 102, Type (0, 0), BuildingBlock: CIFDUS_clean_linker_0, # of connection points: 2
#     Edge 103, Type (0, 0), BuildingBlock: CIFDUS_clean_linker_0, # of connection points: 2
#     Edge 104, Type (0, 0), BuildingBlock: CIFDUS_clean_linker_0, # of connection points: 2
#     Edge 105, Type (0, 0), BuildingBlock: CIFDUS_clean_linker_0, # of connection points: 2
#     Edge 106, Type (0, 0), BuildingBlock: CIFDUS_clean_linker_0, # of connection points: 2
#     Edge 107, Type (0, 0), BuildingBlock: CIFDUS_clean_linker_0, # of connection points: 2
#     Edge 108, Type (0, 0), BuildingBlock: CIFDUS_clean_linker_0, # of connection points: 2
#     Edge 109, Type (0, 0), BuildingBlock: CIFDUS_clean_linker_0, # of connection points: 2
#     Edge 110, Type (0, 0), BuildingBlock: CIFDUS_clean_linker_0, # of connection points: 2
#     Edge 111, Type (0, 0), BuildingBlock: CIFDUS_clean_linker_0, # of connection points: 2
#     Edge 112, Type (0, 0), BuildingBlock: CIFDUS_clean_linker_0, # of connection points: 2
#     Edge 113, Type (0, 0), BuildingBlock: CIFDUS_clean_linker_0, # of connection points: 2
#     Edge 114, Type (0, 0), BuildingBlock: CIFDUS_clean_linker_0, # of connection points: 2
#     Edge 115, Type (0, 0), BuildingBlock: CIFDUS_clean_linker_0, # of connection points: 2
#     Edge 116, Type (0, 0), BuildingBlock: CIFDUS_clean_linker_0, # of connection points: 2
#     Edge 117, Type (0, 0), BuildingBlock: CIFDUS_clean_linker_0, # of connection points: 2
#     Edge 118, Type (0, 0), BuildingBlock: CIFDUS_clean_linker_0, # of connection points: 2
#     Edge 119, Type (0, 0), BuildingBlock: CIFDUS_clean_linker_0, # of connection points: 2
#     Edge 120, Type (0, 0), BuildingBlock: CIFDUS_clean_linker_0, # of connection points: 2
#     Edge 121, Type (0, 0), BuildingBlock: CIFDUS_clean_linker_0, # of connection points: 2
#     Edge 122, Type (0, 0), BuildingBlock: CIFDUS_clean_linker_0, # of connection points: 2
#     Edge 123, Type (0, 0), BuildingBlock: CIFDUS_clean_linker_0, # of connection points: 2
#     Edge 124, Type (0, 0), BuildingBlock: CIFDUS_clean_linker_0, # of connection points: 2
#     Edge 125, Type (0, 0), BuildingBlock: CIFDUS_clean_linker_0, # of connection points: 2
#     Edge 126, Type (0, 0), BuildingBlock: CIFDUS_clean_linker_0, # of connection points: 2
#     Edge 127, Type (0, 0), BuildingBlock: CIFDUS_clean_linker_0, # of connection points: 2
# Relax obj value: 0.340
# Max RMSD: 0.301
# Mean RMSD: 0.236
data_MOF--net-wip--node1-INOVEN_clean_sbu_0--edge1-CIFDUS_clean_linker_0
_symmetry_space_group_name_H-M    P1
_symmetry_Int_Tables_number       1
_symmetry_cell_setting            triclinic
loop_
_symmetry_equiv_pos_as_xyz
'x, y, z'
_cell_length_a     56.983933
_cell_length_b     54.188431
_cell_length_c     31.616636
_cell_angle_alpha  95.210485
_cell_angle_beta   85.216351
_cell_angle_gamma 88.203874
loop_
_atom_site_label
_atom_site_type_symbol
_atom_site_fract_x
_atom_site_fract_y
_atom_site_fract_z
_atom_type_partial_charge
Gd0 Gd 0.0599 0.40802 0.13791 0.0
Gd1 Gd 0.0944 0.43082 0.07711 0.0
C2 C 0.09611 0.44971 0.17327 0.0
C3 C 0.04002 0.3855 0.19941 0.0
C4 C 0.04446 0.38155 0.2434 0.0
C5 C 0.02814 0.36877 0.26778 0.0
C6 C 0.0632 0.39281 0.26278 0.0
C7 C 0.0478 0.38058 0.33166 0.0
C8 C 0.0649 0.39228 0.30658 0.0
C9 C 0.02978 0.36825 0.31151 0.0
C10 C 0.04169 0.45039 0.113 0.0
C11 C 0.04953 0.40205 0.04035 0.0
C12 C 0.11677 0.45079 1.01445 0.0
C13 C 0.11385 0.45936 0.9716 0.0
C14 C 0.13261 0.45556 0.93966 0.0
C15 C 0.09337 0.47233 0.96254 0.0
C16 C 0.11081 0.47801 0.89056 0.0
C17 C 0.09188 0.48156 0.92256 0.0
C18 C 0.13113 0.46469 0.89976 0.0
C19 C 0.11405 0.39582 0.123 0.0
O20 O 0.08195 0.43146 0.18169 0.0
O21 O 0.1017 0.4555 0.13418 0.0
O22 O 0.03487 0.40844 0.19307 0.0
O23 O 0.05442 0.37419 0.16884 0.0
O24 O 0.03059 0.42994 0.11501 0.0
O25 O 0.06305 0.44626 0.11944 0.0
O26 O 0.0662 0.41802 0.03499 0.0
O27 O 0.04532 0.39232 0.07701 0.0
O28 O 0.11712 0.42682 1.01772 0.0
O29 O 0.10561 0.46361 0.04768 0.0
O30 O 0.12487 0.41421 0.10792 0.0
O31 O 0.09425 0.39475 0.10698 0.0
H32 H 0.01346 0.36016 0.25336 0.0
H33 H 0.07601 0.40274 0.24443 0.0
H34 H 0.07919 0.40162 0.32102 0.0
H35 H 0.01614 0.35934 0.32986 0.0
H36 H 0.14868 0.4458 0.94582 0.0
H37 H 0.07856 0.47553 0.98643 0.0
H38 H 0.0758 0.49135 0.91667 0.0
H39 H 0.14621 0.46178 0.87643 0.0
Gd40 Gd 0.83288 0.81128 0.40625 0.0
Gd41 Gd 0.80203 0.84156 0.35604 0.0
C42 C 0.79046 0.84957 0.45477 0.0
C43 C 0.86062 0.79631 0.4608 0.0
C44 C 0.85848 0.78801 0.50436 0.0
C45 C 0.84582 0.76704 0.51383 0.0
C46 C 0.86977 0.80097 0.53692 0.0
C47 C 0.85643 0.77173 0.58731 0.0
C48 C 0.86869 0.793 0.57795 0.0
C49 C 0.84486 0.75898 0.55477 0.0
C50 C 0.79291 0.78789 0.38948 0.0
C51 C 0.83465 0.79691 0.30853 0.0
C52 C 0.7771 0.86028 0.30054 0.0
C53 C 0.76537 0.85455 0.26047 0.0
C54 C 0.77788 0.85436 0.22007 0.0
C55 C 0.74086 0.85178 0.26235 0.0
C56 C 0.74159 0.84881 0.18458 0.0
C57 C 0.72917 0.84888 0.22503 0.0
C58 C 0.76615 0.85149 0.18265 0.0
C59 C 0.83957 0.86476 0.38871 0.0
O60 O 0.81011 0.83606 0.4573 0.0
O61 O 0.78174 0.85226 0.41811 0.0
O62 O 0.8531 0.7817 0.43004 0.0
O63 O 0.85524 0.81959 0.45767 0.0
O64 O 0.81355 0.77719 0.3892 0.0
O65 O 0.79458 0.811 0.39779 0.0
O66 O 0.81358 0.80785 0.31255 0.0
O67 O 0.84896 0.79994 0.33928 0.0
O68 O 0.80017 0.86005 0.29819 0.0
O69 O 0.76791 0.85174 0.33543 0.0
O70 O 0.81918 0.87532 0.38547 0.0
O71 O 0.83953 0.84303 0.37063 0.0
H72 H 0.83677 0.75671 0.48958 0.0
H73 H 0.87967 0.81717 0.53048 0.0
H74 H 0.87798 0.80313 0.60207 0.0
H75 H 0.83499 0.74275 0.561 0.0
H76 H 0.79672 0.85679 0.21727 0.0
H77 H 0.73056 0.85238 0.29284 0.0
H78 H 0.71022 0.84727 0.22802 0.0
H79 H 0.77639 0.85125 0.15217 0.0
Gd80 Gd 0.43768 0.59032 0.6814 0.0
Gd81 Gd 0.40755 0.55494 0.63286 0.0
C82 C 0.41156 0.54505 0.72799 0.0
C83 C 0.45441 0.62115 0.7377 0.0
C84 C 0.45649 0.62196 0.78383 0.0
C85 C 0.47784 0.62892 0.79943 0.0
C86 C 0.43868 0.6134 0.81166 0.0
C87 C 0.46443 0.61694 0.86942 0.0
C88 C 0.44258 0.61101 0.85427 0.0
C89 C 0.48179 0.62644 0.84179 0.0
C90 C 0.46237 0.5487 0.64608 0.0
C91 C 0.44393 0.59012 0.58266 0.0
C92 C 0.39044 0.52692 0.57204 0.0
C93 C 0.39701 0.51578 0.52685 0.0
C94 C 0.3849 0.52342 0.49285 0.0
C95 C 0.41426 0.49641 0.51725 0.0
C96 C 0.40717 0.49282 0.44105 0.0
C97 C 0.41923 0.48518 0.47528 0.0
C98 C 0.38989 0.51221 0.45078 0.0
C99 C 0.38288 0.58971 0.6907 0.0
O100 O 0.42167 0.56685 0.73176 0.0
O101 O 0.40718 0.53404 0.69047 0.0
O102 O 0.46707 0.60351 0.71496 0.0
O103 O 0.43335 0.62387 0.72491 0.0
O104 O 0.47016 0.57095 0.64679 0.0
O105 O 0.44127 0.55005 0.66196 0.0
O106 O 0.43433 0.56837 0.58389 0.0
O107 O 0.44305 0.60571 0.61742 0.0
O108 O 0.38624 0.551 0.57847 0.0
O109 O 0.4014 0.51824 0.60281 0.0
O110 O 0.37578 0.5678 0.67907 0.0
O111 O 0.40103 0.59333 0.66566 0.0
H112 H 0.4918 0.63551 0.77841 0.0
H113 H 0.42208 0.60784 0.80019 0.0
H114 H 0.42889 0.60366 0.87484 0.0
H115 H 0.49862 0.6316 0.85279 0.0
H116 H 0.37134 0.53808 0.49884 0.0
H117 H 0.42384 0.48963 0.5423 0.0
H118 H 0.43235 0.4701 0.46994 0.0
H119 H 0.3803 0.51902 0.42579 0.0
Gd120 Gd 0.69446 0.18976 0.87299 0.0
Gd121 Gd 0.71953 0.1415 0.89285 0.0
C122 C 0.72684 0.15663 0.79546 0.0
C123 C 0.67721 0.22699 0.8385 0.0
C124 C 0.68118 0.23975 0.7993 0.0
C125 C 0.66158 0.24654 0.77828 0.0
C126 C 0.70389 0.24423 0.7814 0.0
C127 C 0.68712 0.26186 0.72157 0.0
C128 C 0.70682 0.25534 0.74296 0.0
C129 C 0.66449 0.25741 0.73985 0.0
C130 C 0.66567 0.15461 0.90055 0.0
C131 C 0.6997 0.1842 0.97087 0.0
C132 C 0.73218 0.09779 0.91027 0.0
C133 C 0.74287 0.08964 0.94792 0.0
C134 C 0.76183 0.10221 0.96438 0.0
C135 C 0.73269 0.07084 0.97017 0.0
C136 C 0.75925 0.07845 1.02618 0.0
C137 C 0.74079 0.06529 1.00897 0.0
C138 C 0.76997 0.09662 1.00296 0.0
C139 C 0.74487 0.18187 0.90635 0.0
O140 O 0.71521 0.17761 0.80999 0.0
O141 O 0.72912 0.13837 0.82039 0.0
O142 O 0.66961 0.20446 0.83288 0.0
O143 O 0.69272 0.22939 0.86699 0.0
O144 O 0.66196 0.17816 0.90954 0.0
O145 O 0.68399 0.15024 0.87494 0.0
O146 O 0.70471 0.16014 0.95887 0.0
O147 O 0.69807 0.20058 0.94241 0.0
O148 O 0.74534 0.11094 0.88552 0.0
O149 O 0.71038 0.10658 0.91727 0.0
O150 O 0.74664 0.16244 0.92714 0.0
O151 O 0.73139 0.17772 0.87694 0.0
H152 H 0.64392 0.2432 0.79146 0.0
H153 H 0.71932 0.23892 0.79678 0.0
H154 H 0.72449 0.25836 0.72954 0.0
H155 H 0.64896 0.2625 0.72457 0.0
H156 H 0.76988 0.11703 0.94828 0.0
H157 H 0.71798 0.06101 0.95823 0.0
H158 H 0.73229 0.05105 1.02594 0.0
H159 H 0.78394 0.10739 1.01557 0.0
Gd160 Gd 0.04922 0.5762 0.6302 0.0
Gd161 Gd 0.08827 0.54308 0.58037 0.0
C162 C 0.08722 0.54748 0.68229 0.0
C163 C 0.01765 0.59912 0.68433 0.0
C164 C 0.00924 0.59751 0.72918 0.0
C165 C 0.00245 0.6193 0.75515 0.0
C166 C 0.0089 0.57468 0.74689 0.0
C167 C 0.99543 0.59561 0.81658 0.0
C168 C 0.00186 0.57371 0.79009 0.0
C169 C 0.9957 0.6184 0.79846 0.0
C170 C 0.08336 0.5994 0.58544 0.0
C171 C 0.04265 0.56439 0.53261 0.0
C172 C 0.12309 0.52754 0.52617 0.0
C173 C 0.12663 0.52834 0.47999 0.0
C174 C 0.13929 0.50887 0.45512 0.0
C175 C 0.11339 0.54553 0.46027 0.0
C176 C 0.12163 0.52101 0.39247 0.0
C177 C 0.11094 0.54195 0.41672 0.0
C178 C 0.13688 0.50526 0.41144 0.0
C179 C 0.05545 0.51732 0.62003 0.0
O180 O 0.06625 0.55857 0.68231 0.0
O181 O 0.10104 0.54196 0.64649 0.0
O182 O 0.03908 0.60682 0.67774 0.0
O183 O 0.01301 0.58058 0.65712 0.0
O184 O 0.06124 0.60612 0.58888 0.0
O185 O 0.08631 0.58149 0.60746 0.0
O186 O 0.06466 0.55473 0.52891 0.0
O187 O 0.03146 0.57118 0.57026 0.0
O188 O 0.10601 0.51347 0.53822 0.0
O189 O 0.12279 0.54886 0.54936 0.0
O190 O 0.07733 0.5097 0.61221 0.0
O191 O 0.05142 0.53709 0.60273 0.0
H192 H 0.00284 0.6371 0.74208 0.0
H193 H 0.01435 0.55765 0.72749 0.0
H194 H 0.0016 0.55579 0.80273 0.0
H195 H 0.99135 0.63568 0.81791 0.0
H196 H 0.14942 0.49531 0.46996 0.0
H197 H 0.10336 0.5605 0.47904 0.0
H198 H 0.09925 0.55445 0.40269 0.0
H199 H 0.14519 0.48887 0.39343 0.0
Gd200 Gd 0.65871 0.80242 0.8981 0.0
Gd201 Gd 0.69703 0.83234 0.85264 0.0
C202 C 0.68992 0.84085 0.95479 0.0
C203 C 0.63223 0.77891 0.95024 0.0
C204 C 0.63427 0.77146 0.99369 0.0
C205 C 0.61505 0.7616 1.01622 0.0
C206 C 0.65539 0.77433 1.01315 0.0
C207 C 0.6379 0.75819 0.07768 0.0
C208 C 0.65721 0.76777 0.0546 0.0
C209 C 0.61684 0.75497 0.05778 0.0
C210 C 0.64335 0.83224 0.83889 0.0
C211 C 0.67916 0.78193 0.8061 0.0
C212 C 0.71717 0.86638 0.81245 0.0
C213 C 0.71812 0.87712 0.77171 0.0
C214 C 0.70859 0.86474 0.73664 0.0
C215 C 0.73322 0.89661 0.76572 0.0
C216 C 0.73392 0.88723 0.68916 0.0
C217 C 0.74104 0.90173 0.7246 0.0
C218 C 0.71645 0.8698 0.69545 0.0
C219 C 0.71939 0.79587 0.88966 0.0
O220 O 0.67463 0.82303 0.95344 0.0
O221 O 0.69916 0.84962 0.91974 0.0
O222 O 0.62967 0.80282 0.94715 0.0
O223 O 0.64717 0.76775 0.9202 0.0
O224 O 0.63463 0.81115 0.84658 0.0
O225 O 0.65845 0.83729 0.86544 0.0
O226 O 0.68586 0.80474 0.80026 0.0
O227 O 0.67228 0.77517 0.84413 0.0
O228 O 0.7253 0.84341 0.81024 0.0
O229 O 0.69818 0.87087 0.83866 0.0
O230 O 0.72988 0.81167 0.86703 0.0
O231 O 0.69731 0.79996 0.89071 0.0
H232 H 0.59857 0.75923 1.00181 0.0
H233 H 0.67045 0.7818 0.99635 0.0
H234 H 0.67382 0.77015 0.06853 0.0
H235 H 0.60155 0.74789 0.07468 0.0
H236 H 0.69688 0.84961 0.74094 0.0
H237 H 0.74064 0.90635 0.79264 0.0
H238 H 0.75415 0.91557 0.72056 0.0
H239 H 0.71064 0.8583 0.66879 0.0
Gd240 Gd 0.45604 0.40348 0.1193 0.0
Gd241 Gd 0.41722 0.43755 0.09449 0.0
C242 C 0.42002 0.43349 0.19343 0.0
C243 C 0.48842 0.38126 0.15585 0.0
C244 C 0.49776 0.38507 0.19775 0.0
C245 C 0.50881 0.36519 0.21467 0.0
C246 C 0.49435 0.40803 0.22224 0.0
C247 C 0.51152 0.39065 0.28148 0.0
C248 C 0.50111 0.41078 0.26382 0.0
C249 C 0.51572 0.36797 0.25617 0.0
C250 C 0.41971 0.38124 0.08207 0.0
C251 C 0.46169 0.41679 1.02281 0.0
C252 C 0.38198 0.4556 0.05954 0.0
C253 C 0.38026 0.47291 1.02705 0.0
C254 C 0.39703 0.49112 1.0227 0.0
C255 C 0.3632 0.4699 0.99781 0.0
C256 C 0.38071 0.50208 0.95828 0.0
C257 C 0.36342 0.48441 0.9635 0.0
C258 C 0.39716 0.50571 0.9887 0.0
C259 C 0.45344 0.46201 0.12348 0.0
O260 O 0.44177 0.42462 0.18231 0.0
O261 O 0.40489 0.43504 0.16402 0.0
O262 O 0.46668 0.37405 0.15642 0.0
O263 O 0.4928 0.39848 0.13006 0.0
O264 O 0.44153 0.37335 0.07569 0.0
O265 O 0.41814 0.39939 0.11025 0.0
O266 O 0.441 0.42936 1.03143 0.0
O267 O 0.47208 0.40611 0.05271 0.0
O268 O 0.38878 0.46497 0.09587 0.0
O269 O 0.39251 0.43422 0.04602 0.0
O270 O 0.43212 0.47146 0.12665 0.0
O271 O 0.45492 0.44162 0.10087 0.0
H272 H 0.51148 0.34733 0.19621 0.0
H273 H 0.48598 0.42367 0.20959 0.0
H274 H 0.49785 0.42854 0.28242 0.0
H275 H 0.52344 0.35205 0.26907 0.0
H276 H 0.41059 0.49344 0.04466 0.0
H277 H 0.35027 0.45577 1.00068 0.0
H278 H 0.35056 0.48134 0.94039 0.0
H279 H 0.41093 0.51888 0.98496 0.0
Gd280 Gd 0.82453 0.17991 0.4927 0.0
Gd281 Gd 0.79222 0.13964 0.45381 0.0
C282 C 0.79128 0.14548 0.55461 0.0
C283 C 0.839 0.2149 0.54537 0.0
C284 C 0.83157 0.22789 0.58914 0.0
C285 C 0.83453 0.21662 0.627 0.0
C286 C 0.82251 0.25258 0.59352 0.0
C287 C 0.8203 0.25464 0.67204 0.0
C288 C 0.81693 0.26563 0.634 0.0
C289 C 0.82897 0.2297 0.66759 0.0
C290 C 0.8481 0.1433 0.4381 0.0
C291 C 0.81567 0.18092 0.39436 0.0
C292 C 0.77521 0.10352 0.40795 0.0
C293 C 0.77631 0.09382 0.36292 0.0
C294 C 0.76159 0.07474 0.35067 0.0
C295 C 0.78983 0.10517 0.3316 0.0
C296 C 0.77172 0.08037 0.27588 0.0
C297 C 0.78761 0.09848 0.28837 0.0
C298 C 0.75936 0.068 0.30753 0.0
C299 C 0.77006 0.18403 0.48463 0.0
O300 O 0.80277 0.16598 0.54921 0.0
O301 O 0.78799 0.12947 0.52171 0.0
O302 O 0.84706 0.19174 0.5426 0.0
O303 O 0.82603 0.21918 0.51418 0.0
O304 O 0.85607 0.16516 0.44804 0.0
O305 O 0.83015 0.14054 0.46444 0.0
O306 O 0.80672 0.15864 0.39664 0.0
O307 O 0.82129 0.19487 0.42872 0.0
O308 O 0.76458 0.1253 0.41698 0.0
O309 O 0.79434 0.10107 0.42766 0.0
O310 O 0.75997 0.16282 0.48478 0.0
O311 O 0.79043 0.17968 0.46735 0.0
H312 H 0.84154 0.19772 0.62538 0.0
H313 H 0.81997 0.26204 0.5654 0.0
H314 H 0.80989 0.28449 0.63529 0.0
H315 H 0.83216 0.22036 0.69552 0.0
H316 H 0.75105 0.06576 0.37448 0.0
H317 H 0.80129 0.1199 0.34059 0.0
H318 H 0.79732 0.10849 0.26492 0.0
H319 H 0.74732 0.05366 0.29898 0.0
Gd320 Gd 0.91208 0.56308 0.3117 0.0
Gd321 Gd 0.94598 0.5926 0.25971 0.0
C322 C 0.9548 0.59216 0.3561 0.0
C323 C 0.89067 0.53868 0.37003 0.0
C324 C 0.89363 0.52899 0.41237 0.0
C325 C 0.87711 0.5362 0.44723 0.0
C326 C 0.91165 0.51152 0.41814 0.0
C327 C 0.89612 0.50838 0.4924 0.0
C328 C 0.91289 0.50142 0.45751 0.0
C329 C 0.87833 0.52614 0.48653 0.0
C330 C 0.89212 0.60194 0.27527 0.0
C331 C 0.91166 0.55229 0.21282 0.0
C332 C 0.9635 0.61938 0.20222 0.0
C333 C 0.96092 0.61842 0.15617 0.0
C334 C 0.9585 0.59555 0.13249 0.0
C335 C 0.96133 0.64018 0.13534 0.0
C336 C 0.95917 0.61591 0.06713 0.0
C337 C 0.96043 0.63895 0.09107 0.0
C338 C 0.95764 0.59431 0.08843 0.0
C339 C 0.96506 0.54792 0.27349 0.0
O340 O 0.94034 0.57364 0.35548 0.0
O341 O 0.95747 0.60609 0.32395 0.0
O342 O 0.88819 0.56277 0.36918 0.0
O343 O 0.90311 0.52799 0.33612 0.0
O344 O 0.8819 0.58148 0.28223 0.0
O345 O 0.91136 0.60193 0.29321 0.0
O346 O 0.92483 0.57201 0.21074 0.0
O347 O 0.90658 0.54243 0.24911 0.0
O348 O 0.97477 0.60034 0.21457 0.0
O349 O 0.94473 0.6264 0.22755 0.0
O350 O 0.97605 0.56857 0.27562 0.0
O351 O 0.94384 0.55261 0.26721 0.0
H352 H 0.86294 0.5495 0.44395 0.0
H353 H 0.92464 0.50534 0.39206 0.0
H354 H 0.92672 0.48764 0.46016 0.0
H355 H 0.86528 0.53243 0.51243 0.0
H356 H 0.95787 0.57849 0.14786 0.0
H357 H 0.96297 0.658 0.15313 0.0
H358 H 0.9617 0.65588 0.07539 0.0
H359 H 0.95627 0.57637 0.07086 0.0
Gd360 Gd 0.19211 0.1566 0.0453 0.0
Gd361 Gd 0.15641 0.18633 0.99316 0.0
C362 C 0.15431 0.19863 0.0941 0.0
C363 C 0.21882 0.13931 0.09964 0.0
C364 C 0.22722 0.14239 0.14346 0.0
C365 C 0.21479 0.13227 0.17776 0.0
C366 C 0.2492 0.15251 0.15037 0.0
C367 C 0.24627 0.14177 0.22439 0.0
C368 C 0.25853 0.1523 0.19022 0.0
C369 C 0.22411 0.13199 0.21747 0.0
C370 C 0.15843 0.13047 1.00611 0.0
C371 C 0.20419 0.1561 0.94628 0.0
C372 C 0.12433 0.19569 0.94294 0.0
C373 C 0.12348 0.20784 0.90306 0.0
C374 C 0.13375 0.23074 0.89794 0.0
C375 C 0.11369 0.19534 0.86834 0.0
C376 C 0.12487 0.22809 0.82342 0.0
C377 C 0.11442 0.20527 0.82897 0.0
C378 C 0.13433 0.24081 0.8586 0.0
C379 C 0.19554 0.21234 1.00071 0.0
O380 O 0.17371 0.18463 0.09403 0.0
O381 O 0.14245 0.20016 0.06007 0.0
O382 O 0.19692 0.13321 0.09614 0.0
O383 O 0.22639 0.15406 0.07109 0.0
O384 O 0.1793 0.12174 1.01162 0.0
O385 O 0.15582 0.1521 1.02508 0.0
O386 O 0.18273 0.16577 0.94313 0.0
O387 O 0.21313 0.15306 0.98273 0.0
O388 O 0.12713 0.20971 0.97809 0.0
O389 O 0.13707 0.17503 0.93932 0.0
O390 O 0.17727 0.21981 0.98289 0.0
O391 O 0.19109 0.19214 1.01635 0.0
H392 H 0.19806 0.12381 0.17367 0.0
H393 H 0.2595 0.16012 0.12464 0.0
H394 H 0.27544 0.16037 0.19413 0.0
H395 H 0.21417 0.12333 0.24239 0.0
H396 H 0.14165 0.24069 0.92408 0.0
H397 H 0.10595 0.1775 0.87136 0.0
H398 H 0.10736 0.19465 0.80259 0.0
H399 H 0.14225 0.25856 0.85577 0.0
Gd400 Gd 0.59043 0.43846 0.76407 0.0
Gd401 Gd 0.55994 0.40586 0.7116 0.0
C402 C 0.55136 0.40446 0.81062 0.0
C403 C 0.60811 0.46484 0.82628 0.0
C404 C 0.60125 0.47685 0.87081 0.0
C405 C 0.58478 0.49704 0.87866 0.0
C406 C 0.61246 0.46926 0.90586 0.0
C407 C 0.59089 0.50163 0.95525 0.0
C408 C 0.60736 0.48137 0.94728 0.0
C409 C 0.57972 0.50916 0.91997 0.0
C410 C 0.61452 0.40361 0.70495 0.0
C411 C 0.58807 0.45165 0.6707 0.0
C412 C 0.54367 0.3768 0.6523 0.0
C413 C 0.5461 0.37426 0.60552 0.0
C414 C 0.52718 0.36537 0.5839 0.0
C415 C 0.56566 0.38326 0.58244 0.0
C416 C 0.54643 0.37606 0.51686 0.0
C417 C 0.56594 0.38392 0.53823 0.0
C418 C 0.52731 0.3663 0.53996 0.0
C419 C 0.53584 0.44705 0.7499 0.0
O420 O 0.56257 0.42538 0.8116 0.0
O421 O 0.55148 0.38994 0.77465 0.0
O422 O 0.61027 0.44054 0.82057 0.0
O423 O 0.5989 0.47432 0.7944 0.0
O424 O 0.6222 0.42509 0.71761 0.0
O425 O 0.59594 0.40048 0.72903 0.0
O426 O 0.57831 0.4298 0.66408 0.0
O427 O 0.59139 0.46151 0.70943 0.0
O428 O 0.53278 0.39726 0.66945 0.0
O429 O 0.5621 0.37087 0.67181 0.0
O430 O 0.52757 0.42498 0.74672 0.0
O431 O 0.55708 0.44565 0.73462 0.0
H432 H 0.57592 0.50378 0.85273 0.0
H433 H 0.6254 0.45397 0.90119 0.0
H434 H 0.61623 0.4746 0.97316 0.0
H435 H 0.56726 0.52486 0.92394 0.0
H436 H 0.51188 0.35856 0.60126 0.0
H437 H 0.58026 0.39056 0.59874 0.0
H438 H 0.58086 0.39158 0.52112 0.0
H439 H 0.51219 0.35987 0.5241 0.0
Gd440 Gd 0.29607 0.84249 0.50114 0.0
Gd441 Gd 0.3296 0.80294 0.527 0.0
C442 C 0.32291 0.8009 0.4267 0.0
C443 C 0.27932 0.88147 0.47064 0.0
C444 C 0.27705 0.88966 0.42834 0.0
C445 C 0.2642 0.91165 0.4242 0.0
C446 C 0.2859 0.87455 0.39186 0.0
C447 C 0.26701 0.90204 0.34743 0.0
C448 C 0.28093 0.8807 0.35167 0.0
C449 C 0.25927 0.9179 0.38385 0.0
C450 C 0.27583 0.7992 0.51497 0.0
C451 C 0.29111 0.83272 0.59928 0.0
C452 C 0.35202 0.77011 0.5638 0.0
C453 C 0.34913 0.76003 0.60544 0.0
C454 C 0.36855 0.75891 0.6298 0.0
C455 C 0.32701 0.75317 0.62253 0.0
C456 C 0.34389 0.74407 0.68778 0.0
C457 C 0.32446 0.74508 0.66328 0.0
C458 C 0.36594 0.75111 0.67077 0.0
C459 C 0.35072 0.84271 0.49919 0.0
O460 O 0.31024 0.82223 0.43568 0.0
O461 O 0.33076 0.78865 0.45758 0.0
O462 O 0.26669 0.86264 0.4797 0.0
O463 O 0.30072 0.87967 0.4824 0.0
O464 O 0.26471 0.82071 0.52182 0.0
O465 O 0.29622 0.8021 0.49852 0.0
O466 O 0.30462 0.81263 0.58665 0.0
O467 O 0.28809 0.85005 0.57302 0.0
O468 O 0.35753 0.79342 0.56538 0.0
O469 O 0.33633 0.76441 0.53673 0.0
O470 O 0.35954 0.82033 0.49268 0.0
O471 O 0.33158 0.84353 0.52307 0.0
H472 H 0.25723 0.92347 0.45221 0.0
H473 H 0.2959 0.85755 0.39446 0.0
H474 H 0.28733 0.86834 0.32393 0.0
H475 H 0.24843 0.9344 0.3813 0.0
H476 H 0.38571 0.76438 0.61729 0.0
H477 H 0.31164 0.75433 0.60468 0.0
H478 H 0.30722 0.73995 0.67593 0.0
H479 H 0.38119 0.7503 0.68896 0.0
Gd480 Gd 0.91798 0.44632 0.80867 0.0
Gd481 Gd 0.95642 0.41215 0.76209 0.0
C482 C 0.96161 0.42385 0.86073 0.0
C483 C 0.88245 0.46333 0.8602 0.0
C484 C 0.88136 0.47996 0.89949 0.0
C485 C 0.89951 0.49642 0.906 0.0
C486 C 0.86333 0.47827 0.93189 0.0
C487 C 0.88217 0.50874 0.97777 0.0
C488 C 0.86374 0.49257 0.97092 0.0
C489 C 0.89984 0.51078 0.9447 0.0
C490 C 0.95389 0.47191 0.77897 0.0
C491 C 0.9241 0.44518 0.7072 0.0
C492 C 0.98794 0.38606 0.71188 0.0
C493 C 0.99917 0.38477 0.66822 0.0
C494 C 0.0133 0.3638 0.65247 0.0
C495 C 0.99495 0.40334 0.64135 0.0
C496 C 0.01768 0.37901 0.58225 0.0
C497 C 0.00415 0.4005 0.59865 0.0
C498 C 0.02252 0.36095 0.60991 0.0
C499 C 0.9185 0.39075 0.8004 0.0
O500 O 0.94058 0.43579 0.86266 0.0
O501 O 0.9726 0.41496 0.82388 0.0
O502 O 0.88925 0.47335 0.82539 0.0
O503 O 0.89269 0.4416 0.86225 0.0
O504 O 0.93272 0.48129 0.78837 0.0
O505 O 0.95595 0.45067 0.79242 0.0
O506 O 0.94483 0.43432 0.71041 0.0
O507 O 0.90787 0.4474 0.74021 0.0
O508 O 0.96561 0.38094 0.71544 0.0
O509 O 0.99298 0.40483 0.73819 0.0
O510 O 0.94019 0.38327 0.80173 0.0
O511 O 0.91799 0.40885 0.77813 0.0
H512 H 0.91382 0.49766 0.88156 0.0
H513 H 0.84931 0.46548 0.92739 0.0
H514 H 0.84991 0.4907 0.99596 0.0
H515 H 0.91452 0.52268 0.94937 0.0
H516 H 0.01678 0.34933 0.67289 0.0
H517 H 0.98408 0.41966 0.65308 0.0
H518 H 0.99991 0.41466 0.57814 0.0
H519 H 0.03317 0.34439 0.5985 0.0
Gd520 Gd 0.31214 0.15693 0.53146 0.0
Gd521 Gd 0.35131 0.18098 0.48706 0.0
C522 C 0.33504 0.20575 0.57733 0.0
C523 C 0.28662 0.13352 0.58475 0.0
C524 C 0.28488 0.13205 0.63078 0.0
C525 C 0.26582 0.1202 0.64968 0.0
C526 C 0.29999 0.14538 0.65644 0.0
C527 C 0.27491 0.13789 0.71951 0.0
C528 C 0.29495 0.1484 0.70063 0.0
C529 C 0.26091 0.12299 0.6938 0.0
C530 C 0.29582 0.19153 0.48341 0.0
C531 C 0.31929 0.14368 0.43138 0.0
C532 C 0.38116 0.19932 0.43323 0.0
C533 C 0.38168 0.20498 0.38828 0.0
C534 C 0.40292 0.202 0.36224 0.0
C535 C 0.36123 0.21323 0.37091 0.0
C536 C 0.38348 0.21589 0.30218 0.0
C537 C 0.36216 0.21875 0.32836 0.0
C538 C 0.40382 0.20733 0.31963 0.0
C539 C 0.36498 0.15122 0.54737 0.0
O540 O 0.32455 0.18465 0.58279 0.0
O541 O 0.34382 0.21093 0.53951 0.0
O542 O 0.28052 0.15521 0.57327 0.0
O543 O 0.30569 0.12359 0.56306 0.0
O544 O 0.28568 0.17101 0.49007 0.0
O545 O 0.31383 0.19353 0.50439 0.0
O546 O 0.33387 0.16203 0.43212 0.0
O547 O 0.31047 0.13535 0.46714 0.0
O548 O 0.3814 0.17581 0.43975 0.0
O549 O 0.36657 0.21293 0.46069 0.0
O550 O 0.37451 0.17176 0.53897 0.0
O551 O 0.34984 0.14628 0.5207 0.0
H552 H 0.25396 0.10998 0.63018 0.0
H553 H 0.3149 0.1545 0.64222 0.0
H554 H 0.30611 0.15976 0.71984 0.0
H555 H 0.24522 0.11489 0.70747 0.0
H556 H 0.41887 0.19561 0.37494 0.0
H557 H 0.34454 0.2154 0.39022 0.0
H558 H 0.34612 0.22499 0.31578 0.0
H559 H 0.42055 0.20511 0.30049 0.0
Gd560 Gd 0.5772 0.55777 0.29975 0.0
Gd561 Gd 0.54006 0.59431 0.27419 0.0
C562 C 0.53267 0.57843 0.36947 0.0
C563 C 0.61127 0.53498 0.33136 0.0
C564 C 0.61646 0.52783 0.37298 0.0
C565 C 0.63241 0.50789 0.37501 0.0
C566 C 0.60308 0.5381 0.40989 0.0
C567 C 0.61919 0.50618 0.44957 0.0
C568 C 0.60445 0.52735 0.44803 0.0
C569 C 0.63383 0.49714 0.41316 0.0
C570 C 0.54185 0.53647 0.26148 0.0
C571 C 0.57727 0.56463 0.2005 0.0
C572 C 0.5084 0.61843 0.2389 0.0
C573 C 0.49806 0.61634 0.19784 0.0
C574 C 0.48496 0.63648 0.18597 0.0
C575 C 0.50176 0.59472 0.16976 0.0
C576 C 0.48013 0.61393 0.11728 0.0
C577 C 0.49291 0.59354 0.12973 0.0
C578 C 0.47602 0.63529 0.14606 0.0
C579 C 0.57337 0.61526 0.32115 0.0
O580 O 0.55378 0.56672 0.36233 0.0
O581 O 0.52251 0.58882 0.33892 0.0
O582 O 0.59358 0.52376 0.31554 0.0
O583 O 0.61099 0.55864 0.32642 0.0
O584 O 0.56328 0.52733 0.25708 0.0
O585 O 0.53982 0.55541 0.28784 0.0
O586 O 0.55615 0.57556 0.21023 0.0
O587 O 0.59106 0.56023 0.23097 0.0
O588 O 0.53056 0.62437 0.23753 0.0
O589 O 0.50348 0.60088 0.26375 0.0
O590 O 0.55197 0.62394 0.32107 0.0
O591 O 0.5769 0.59753 0.29196 0.0
H592 H 0.64279 0.49978 0.34658 0.0
H593 H 0.5906 0.55346 0.40865 0.0
H594 H 0.59279 0.53458 0.47547 0.0
H595 H 0.64556 0.48107 0.41369 0.0
H596 H 0.48201 0.65331 0.2073 0.0
H597 H 0.51173 0.57892 0.1786 0.0
H598 H 0.49618 0.57675 0.10842 0.0
H599 H 0.46654 0.65141 0.13721 0.0
Gd600 Gd 0.20823 0.85106 0.92788 0.0
Gd601 Gd 0.17288 0.81828 0.88504 0.0
C602 C 0.17892 0.81088 0.98176 0.0
C603 C 0.228 0.88316 0.97756 0.0
C604 C 0.22594 0.89032 1.02345 0.0
C605 C 0.2438 0.90367 0.04162 0.0
C606 C 0.20781 0.8813 0.04979 0.0
C607 C 0.22688 0.89643 0.11237 0.0
C608 C 0.20814 0.8845 0.09396 0.0
C609 C 0.24428 0.90674 0.08586 0.0
C610 C 0.2268 0.80568 0.89453 0.0
C611 C 0.21223 0.8477 0.82733 0.0
C612 C 0.15193 0.7891 0.83152 0.0
C613 C 0.15719 0.77632 0.78773 0.0
C614 C 0.13862 0.76855 0.76383 0.0
C615 C 0.18045 0.77125 0.76968 0.0
C616 C 0.16634 0.75045 0.70477 0.0
C617 C 0.18497 0.75847 0.72881 0.0
C618 C 0.14309 0.75583 0.72301 0.0
C619 C 0.15277 0.85574 0.94274 0.0
O620 O 0.19099 0.83153 0.98259 0.0
O621 O 0.17239 0.79979 0.94567 0.0
O622 O 0.23668 0.8607 0.9665 0.0
O623 O 0.20983 0.8887 0.95701 0.0
O624 O 0.23818 0.82612 0.89453 0.0
O625 O 0.20638 0.81098 0.91152 0.0
O626 O 0.19872 0.82845 0.83067 0.0
O627 O 0.21537 0.86285 0.86136 0.0
O628 O 0.14904 0.81336 0.83479 0.0
O629 O 0.16396 0.7812 0.86159 0.0
O630 O 0.14295 0.83512 0.93171 0.0
O631 O 0.17098 0.8571 0.91649 0.0
H632 H 0.25803 0.91056 1.0216 0.0
H633 H 0.19401 0.8708 0.03622 0.0
H634 H 0.19432 0.87665 0.1136 0.0
H635 H 0.25909 0.91577 0.09906 0.0
H636 H 0.12053 0.77211 0.77695 0.0
H637 H 0.19516 0.77708 0.78726 0.0
H638 H 0.2031 0.75509 0.71591 0.0
H639 H 0.12823 0.74978 0.70607 0.0
Gd640 Gd 0.55382 0.89907 0.63019 0.0
Gd641 Gd 0.58996 0.92746 0.58097 0.0
C642 C 0.58592 0.94049 0.68024 0.0
C643 C 0.53407 0.87173 0.68484 0.0
C644 C 0.53609 0.87009 0.73056 0.0
C645 C 0.54257 0.89083 0.7562 0.0
C646 C 0.53046 0.84833 0.74933 0.0
C647 C 0.53578 0.86895 0.81942 0.0
C648 C 0.53031 0.84774 0.79356 0.0
C649 C 0.54255 0.89024 0.8001 0.0
C650 C 0.53581 0.94307 0.61086 0.0
C651 C 0.5481 0.89887 0.53212 0.0
C652 C 0.61314 0.95112 0.52371 0.0
C653 C 0.61096 0.96006 0.48055 0.0
C654 C 0.62799 0.95228 0.44679 0.0
C655 C 0.59301 0.97715 0.47277 0.0
C656 C 0.60941 0.9785 0.39858 0.0
C657 C 0.59227 0.98623 0.43245 0.0
C658 C 0.62722 0.96127 0.40654 0.0
C659 C 0.60789 0.88929 0.62167 0.0
O660 O 0.57204 0.92129 0.68171 0.0
O661 O 0.59378 0.94881 0.64382 0.0
O662 O 0.5246 0.89252 0.67522 0.0
O663 O 0.55255 0.86416 0.65911 0.0
O664 O 0.52481 0.92242 0.60878 0.0
O665 O 0.55657 0.93877 0.62047 0.0
O666 O 0.56388 0.91616 0.53313 0.0
O667 O 0.54315 0.88607 0.56513 0.0
O668 O 0.61559 0.92712 0.52575 0.0
O669 O 0.59996 0.9622 0.5564 0.0
O670 O 0.61858 0.90952 0.61495 0.0
O671 O 0.58945 0.88905 0.60138 0.0
H672 H 0.54682 0.90785 0.7426 0.0
H673 H 0.52547 0.83212 0.73 0.0
H674 H 0.52492 0.8311 0.80765 0.0
H675 H 0.54722 0.90674 0.81909 0.0
H676 H 0.6422 0.93938 0.45168 0.0
H677 H 0.57956 0.98364 0.49789 0.0
H678 H 0.57807 -0.00083 0.42775 0.0
H679 H 0.64097 0.95503 0.38182 0.0
Gd680 Gd 0.34756 0.29745 0.89611 0.0
Gd681 Gd 0.30957 0.32688 0.84777 0.0
C682 C 0.30091 0.32747 0.94728 0.0
C683 C 0.38102 0.28922 0.94406 0.0
C684 C 0.38181 0.28139 0.98783 0.0
C685 C 0.37793 0.25678 0.99673 0.0
C686 C 0.38563 0.29905 1.02174 0.0
C687 C 0.38047 0.26806 0.07272 0.0
C688 C 0.38486 0.29251 0.06362 0.0
C689 C 0.37733 0.2502 0.03868 0.0
C690 C 0.30785 0.27169 0.89332 0.0
C691 C 0.34632 0.28461 0.79631 0.0
C692 C 0.28116 0.34486 0.79665 0.0
C693 C 0.27036 0.34182 0.75506 0.0
C694 C 0.26608 0.36292 0.73357 0.0
C695 C 0.26283 0.3189 0.73777 0.0
C696 C 0.24582 0.33861 0.67948 0.0
C697 C 0.25079 0.31731 0.70049 0.0
C698 C 0.25404 0.36137 0.6964 0.0
C699 C 0.34591 0.35198 0.88027 0.0
O700 O 0.32322 0.31952 0.94778 0.0
O701 O 0.29032 0.32897 0.91195 0.0
O702 O 0.37515 0.2728 0.91401 0.0
O703 O 0.37128 0.31119 0.9418 0.0
O704 O 0.32655 0.26436 0.9101 0.0
O705 O 0.3121 0.29164 0.87685 0.0
O706 O 0.3263 0.29789 0.7985 0.0
O707 O 0.35968 0.28375 0.82854 0.0
O708 O 0.30356 0.34977 0.79613 0.0
O709 O 0.27441 0.33061 0.8265 0.0
O710 O 0.32449 0.36107 0.8814 0.0
O711 O 0.34689 0.33051 0.86109 0.0
H712 H 0.37494 0.24267 0.97145 0.0
H713 H 0.38886 0.31809 1.01597 0.0
H714 H 0.38772 0.30666 0.08895 0.0
H715 H 0.37377 0.23124 0.0446 0.0
H716 H 0.27155 0.38088 0.74624 0.0
H717 H 0.26591 0.30226 0.75341 0.0
H718 H 0.24525 0.29931 0.68828 0.0
H719 H 0.25047 0.37826 0.68182 0.0
Gd720 Gd 0.93992 0.09088 0.17624 0.0
Gd721 Gd 0.90638 0.05814 0.12726 0.0
C722 C 0.91139 0.04634 0.22124 0.0
C723 C 0.95746 0.11986 0.2345 0.0
C724 C 0.95536 0.12374 0.28146 0.0
C725 C 0.97102 0.1393 0.30166 0.0
C726 C 0.93967 0.11031 0.30634 0.0
C727 C 0.95652 0.12686 0.37105 0.0
C728 C 0.94029 0.1118 0.35077 0.0
C729 C 0.97157 0.14092 0.34596 0.0
C730 C 0.96144 0.04829 0.13842 0.0
C731 C 0.9468 0.08964 0.0765 0.0
C732 C 0.88791 0.03264 0.06493 0.0
C733 C 0.89442 0.0226 1.01897 0.0
C734 C 0.87942 0.02718 0.98697 0.0
C735 C 0.91489 0.00756 1.00654 0.0
C736 C 0.90518 0.00203 0.93148 0.0
C737 C 0.92012 0.99746 0.96385 0.0
C738 C 0.88467 0.01714 0.94414 0.0
C739 C 0.88499 0.09397 0.18707 0.0
O740 O 0.92311 0.06712 0.22498 0.0
O741 O 0.90472 0.03656 0.18438 0.0
O742 O 0.96728 0.09863 0.21841 0.0
O743 O 0.9393 0.12635 0.21469 0.0
O744 O 0.97111 0.06973 0.14107 0.0
O745 O 0.94035 0.05109 0.15428 0.0
O746 O 0.93344 0.07026 0.07772 0.0
O747 O 0.94887 0.10459 0.11143 0.0
O748 O 0.88459 0.05675 0.07334 0.0
O749 O 0.89849 0.02254 0.09488 0.0
O750 O 0.87584 0.07312 0.17482 0.0
O751 O 0.90329 0.09627 0.16162 0.0
H752 H 0.98341 0.14963 0.28302 0.0
H753 H 0.92736 0.09824 0.29144 0.0
H754 H 0.92826 0.10097 0.36918 0.0
H755 H 0.98447 0.15247 0.36038 0.0
H756 H 0.86342 0.03855 0.99514 0.0
H757 H 0.92691 0.00337 1.02994 0.0
H758 H 0.93586 0.98566 0.95653 0.0
H759 H 0.8727 0.02159 0.92086 0.0
Gd760 Gd 0.17056 0.69049 0.35871 0.0
Gd761 Gd 0.20264 0.64917 0.38557 0.0
C762 C 0.20912 0.65993 0.28771 0.0
C763 C 0.15049 0.7264 0.32534 0.0
C764 C 0.15466 0.74065 0.28825 0.0
C765 C 0.13603 0.74471 0.26312 0.0
C766 C 0.17694 0.74962 0.2768 0.0
C767 C 0.16191 0.76611 0.21496 0.0
C768 C 0.18048 0.76244 0.24054 0.0
C769 C 0.13964 0.75723 0.22663 0.0
C770 C 0.14753 0.65112 0.38404 0.0
C771 C 0.17533 0.69058 0.45944 0.0
C772 C 0.21818 0.60981 0.41667 0.0
C773 C 0.21991 0.60195 0.45944 0.0
C774 C 0.231 0.57907 0.46444 0.0
C775 C 0.21245 0.61814 0.49547 0.0
C776 C 0.22923 0.58975 0.54098 0.0
C777 C 0.21708 0.61211 0.53593 0.0
C778 C 0.23555 0.57292 0.50507 0.0
C779 C 0.22398 0.69218 0.37388 0.0
O780 O 0.19622 0.68049 0.30018 0.0
O781 O 0.21109 0.64219 0.31364 0.0
O782 O 0.14561 0.7031 0.31671 0.0
O783 O 0.16467 0.72986 0.3558 0.0
O784 O 0.13887 0.67357 0.38843 0.0
O785 O 0.16739 0.6499 0.36225 0.0
O786 O 0.18793 0.66924 0.45065 0.0
O787 O 0.1682 0.70331 0.42864 0.0
O788 O 0.23137 0.62818 0.40737 0.0
O789 O 0.19696 0.61209 0.40426 0.0
O790 O 0.23485 0.67052 0.36747 0.0
O791 O 0.20332 0.68945 0.38906 0.0
H792 H 0.11873 0.7379 0.27147 0.0
H793 H 0.19165 0.74648 0.29545 0.0
H794 H 0.19787 0.7689 0.23185 0.0
H795 H 0.12503 0.75997 0.20748 0.0
H796 H 0.23691 0.56639 0.43684 0.0
H797 H 0.20383 0.63583 0.49228 0.0
H798 H 0.21174 0.62524 0.56321 0.0
H799 H 0.245 0.55561 0.5082 0.0
Gd800 Gd 0.55487 0.07824 0.13501 0.0
Gd801 Gd 0.58974 0.04085 0.08457 0.0
C802 C 0.59172 0.04752 0.18659 0.0
C803 C 0.52594 0.10651 0.18695 0.0
C804 C 0.51792 0.11056 0.23246 0.0
C805 C 0.50806 0.13384 0.24872 0.0
C806 C 0.5202 0.09184 0.2599 0.0
C807 C 0.5032 0.12003 0.31988 0.0
C808 C 0.5128 0.09652 0.30333 0.0
C809 C 0.50078 0.13856 0.29202 0.0
C810 C 0.58949 0.09662 0.08386 0.0
C811 C 0.54322 0.0627 0.04099 0.0
C812 C 0.62219 0.02067 1.02896 0.0
C813 C 0.62621 0.01886 0.98236 0.0
C814 C 0.64204 0.00057 0.96131 0.0
C815 C 0.61202 0.03293 0.95858 0.0
C816 C 0.62699 0.00791 0.89372 0.0
C817 C 0.6123 0.02739 0.91455 0.0
C818 C 0.64256 0.99521 0.91714 0.0
C819 C 0.55627 0.01951 0.13082 0.0
O820 O 0.57204 0.06123 0.18777 0.0
O821 O 0.60388 0.03951 0.14986 0.0
O822 O 0.54766 0.11219 0.1764 0.0
O823 O 0.51987 0.08594 0.16641 0.0
O824 O 0.56775 0.10474 0.08747 0.0
O825 O 0.59188 0.07963 0.10797 0.0
O826 O 0.56495 0.05242 1.03466 0.0
O827 O 0.53396 0.07108 0.07932 0.0
O828 O 0.60393 0.00895 0.04344 0.0
O829 O 0.62383 0.04266 0.04914 0.0
O830 O 0.57743 0.00988 0.12147 0.0
O831 O 0.55305 0.03872 0.11163 0.0
H832 H 0.50614 0.14846 0.2279 0.0
H833 H 0.52787 0.07375 0.24786 0.0
H834 H 0.51512 0.08197 0.32412 0.0
H835 H 0.49323 0.15674 0.30374 0.0
H836 H 0.65305 0.98949 0.97929 0.0
H837 H 0.59983 0.04727 0.97427 0.0
H838 H 0.60022 0.03747 0.89704 0.0
H839 H 0.65387 0.97998 0.9018 0.0
Gd840 Gd 0.15097 0.30339 0.40271 0.0
Gd841 Gd 0.18988 0.32649 0.35941 0.0
C842 C 0.18271 0.33951 0.45965 0.0
C843 C 0.12036 0.28594 0.45613 0.0
C844 C 0.11932 0.27992 0.5008 0.0
C845 C 0.09782 0.28284 0.52597 0.0
C846 C 0.13946 0.2714 0.51873 0.0
C847 C 0.11618 0.2675 0.58605 0.0
C848 C 0.13789 0.26517 0.56089 0.0
C849 C 0.09626 0.27678 0.56814 0.0
C850 C 0.13635 0.33189 0.34171 0.0
C851 C 0.1668 0.27866 0.31183 0.0
C852 C 0.21941 0.34959 0.31228 0.0
C853 C 0.22866 0.35401 0.26918 0.0
C854 C 0.2531 0.3516 0.25986 0.0
C855 C 0.21422 0.35994 0.23743 0.0
C856 C 0.24892 0.35979 0.18667 0.0
C857 C 0.22433 0.36291 0.19636 0.0
C858 C 0.26312 0.35427 0.21909 0.0
C859 C 0.20562 0.29126 0.40727 0.0
O860 O 0.16905 0.32046 0.45826 0.0
O861 O 0.18984 0.34891 0.42383 0.0
O862 O 0.12115 0.30952 0.45028 0.0
O863 O 0.13453 0.2719 0.42853 0.0
O864 O 0.12718 0.31169 0.35254 0.0
O865 O 0.15205 0.33798 0.36703 0.0
O866 O 0.17758 0.29964 0.30652 0.0
O867 O 0.15812 0.27351 0.34982 0.0
O868 O 0.22342 0.3273 0.32314 0.0
O869 O 0.19879 0.35935 0.32764 0.0
O870 O 0.21531 0.31218 0.40269 0.0
O871 O 0.18796 0.28948 0.38548 0.0
H872 H 0.08216 0.28971 0.5129 0.0
H873 H 0.15633 0.26928 0.5 0.0
H874 H 0.15357 0.25795 0.57336 0.0
H875 H 0.07938 0.27939 0.58672 0.0
H876 H 0.26449 0.34701 0.28406 0.0
H877 H 0.19528 0.36192 0.24412 0.0
H878 H 0.21291 0.36736 0.17217 0.0
H879 H 0.28199 0.35108 0.21275 0.0
Gd880 Gd 0.95907 0.91519 0.61144 0.0
Gd881 Gd 0.91663 0.94228 0.58043 0.0
C882 C 0.92097 0.94428 0.6818 0.0
C883 C 0.99328 0.89644 0.64853 0.0
C884 C 0.00483 0.9002 0.68819 0.0
C885 C 0.02025 0.8815 0.69848 0.0
C886 C 0.9995 0.9212 0.71715 0.0
C887 C 0.02362 0.90364 0.76802 0.0
C888 C 0.00884 0.92292 0.75684 0.0
C889 C 0.02959 0.88318 0.73799 0.0
C890 C 0.92674 0.88598 0.57439 0.0
C891 C 0.96361 0.92373 0.51255 0.0
C892 C 0.87893 0.9524 0.54372 0.0
C893 C 0.87245 0.96842 0.51138 0.0
C894 C 0.88251 0.99155 0.50864 0.0
C895 C 0.85869 0.95897 0.47936 0.0
C896 C 0.8684 0.99362 0.43863 0.0
C897 C 0.85667 0.97148 0.44309 0.0
C898 C 0.88028 0.00419 0.47267 0.0
C899 C 0.94941 0.97334 0.60486 0.0
O900 O 0.94338 0.93769 0.67161 0.0
O901 O 0.90569 0.94255 0.65206 0.0
O902 O 0.97168 0.88886 0.6525 0.0
O903 O 0.99621 0.91329 0.62159 0.0
O904 O 0.94917 0.88103 0.57188 0.0
O905 O 0.92227 0.90523 0.59997 0.0
O906 O 0.94125 0.93265 0.51837 0.0
O907 O 0.97519 0.91786 0.54504 0.0
O908 O 0.88357 0.96329 0.58051 0.0
O909 O 0.89417 0.93449 0.52958 0.0
O910 O 0.92748 0.98028 0.6042 0.0
O911 O 0.95314 0.95162 0.58723 0.0
H912 H 0.02445 0.86513 0.67647 0.0
H913 H 0.98768 0.93587 0.7095 0.0
H914 H 0.00411 0.93904 0.77909 0.0
H915 H 0.0406 0.86785 0.74573 0.0
H916 H 0.89324 -0.00084 0.53301 0.0
H917 H 0.85081 0.94113 0.4811 0.0
H918 H 0.84751 0.96287 0.41727 0.0
H919 H 0.88916 0.02146 0.47024 0.0
Gd920 Gd 0.3243 0.67407 0.99826 0.0
Gd921 Gd 0.28994 0.63761 0.95882 0.0
C922 C 0.28726 0.64312 0.05903 0.0
C923 C 0.34348 0.70562 0.05074 0.0
C924 C 0.33842 0.71787 0.09521 0.0
C925 C 0.35717 0.72394 0.12 0.0
C926 C 0.31531 0.72403 0.11323 0.0
C927 C 0.32995 0.7426 0.17955 0.0
C928 C 0.31114 0.73625 0.15469 0.0
C929 C 0.35303 0.73606 0.16143 0.0
C930 C 0.34582 0.6367 0.94254 0.0
C931 C 0.31652 0.67763 0.90038 0.0
C932 C 0.2715 0.60356 0.91084 0.0
C933 C 0.27252 0.59698 0.86474 0.0
C934 C 0.25356 0.58523 0.84719 0.0
C935 C 0.2908 0.60519 0.83772 0.0
C936 C 0.26998 0.59231 0.77597 0.0
C937 C 0.28968 0.60268 0.79367 0.0
C938 C 0.25227 0.58289 0.80309 0.0
C939 C 0.27008 0.68309 0.98932 0.0
O940 O 0.29979 0.66298 0.05396 0.0
O941 O 0.28444 0.62698 1.02615 0.0
O942 O 0.34886 0.68172 0.04667 0.0
O943 O 0.32992 0.71218 1.02169 0.0
O944 O 0.35478 0.65796 0.95263 0.0
O945 O 0.32778 0.63472 0.96911 0.0
O946 O 0.30524 0.65659 0.90235 0.0
O947 O 0.32351 0.69021 0.93498 0.0
O948 O 0.26094 0.62499 0.92372 0.0
O949 O 0.2909 0.59985 0.9292 0.0
O950 O 0.25915 0.6624 0.99047 0.0
O951 O 0.29039 0.67787 0.97205 0.0
H952 H 0.37517 0.7195 0.10709 0.0
H953 H 0.30042 0.71948 0.0952 0.0
H954 H 0.29309 0.74051 0.16739 0.0
H955 H 0.36807 0.74076 0.17892 0.0
H956 H 0.23917 0.57903 0.86769 0.0
H957 H 0.30537 0.61464 0.85074 0.0
H958 H 0.30376 0.60982 0.77362 0.0
H959 H 0.23673 0.57508 0.79055 0.0
Gd960 Gd 0.41848 0.06327 0.80841 0.0
Gd961 Gd 0.45283 0.09276 0.75767 0.0
C962 C 0.46153 0.09094 0.85444 0.0
C963 C 0.39643 0.03813 0.86495 0.0
C964 C 0.40058 0.02688 0.90516 0.0
C965 C 0.38154 0.01832 0.93022 0.0
C966 C 0.42328 0.02432 0.91878 0.0
C967 C 0.40783 0.0044 0.98173 0.0
C968 C 0.42684 0.01344 0.95661 0.0
C969 C 0.38508 0.00719 0.96785 0.0
C970 C 0.39849 0.10191 0.77144 0.0
C971 C 0.4189 0.05308 0.70936 0.0
C972 C 0.47267 0.12071 0.70403 0.0
C973 C 0.47014 0.12518 0.65954 0.0
C974 C 0.48943 0.13353 0.63524 0.0
C975 C 0.45 0.11806 0.6396 0.0
C976 C 0.46936 0.12555 0.57062 0.0
C977 C 0.44955 0.11832 0.59548 0.0
C978 C 0.48907 0.13373 0.59119 0.0
C979 C 0.47182 0.04836 0.7735 0.0
O980 O 0.44644 0.07297 0.85319 0.0
O981 O 0.46431 0.10514 0.82265 0.0
O982 O 0.39546 0.06241 0.86672 0.0
O983 O 0.40791 0.02792 0.82971 0.0
O984 O 0.38824 0.0816 0.77916 0.0
O985 O 0.41771 0.10207 0.78946 0.0
O986 O 0.43164 0.07314 0.70767 0.0
O987 O 0.41411 0.04285 0.74535 0.0
O988 O 0.48057 0.09842 0.70914 0.0
O989 O 0.45541 0.12864 0.73239 0.0
O990 O 0.48258 0.06911 0.77597 0.0
O991 O 0.45083 0.05271 0.76533 0.0
H992 H 0.36384 0.01998 0.92039 0.0
H993 H 0.4383 0.03059 0.89999 0.0
H994 H 0.44461 0.01221 0.96609 0.0
H995 H 0.36996 0.00028 0.98547 0.0
H996 H 0.50524 0.13878 0.65005 0.0
H997 H 0.43501 0.11144 0.65792 0.0
H998 H 0.43398 0.11225 0.58072 0.0
H999 H 0.50476 0.13907 0.57303 0.0
Gd1000 Gd 0.69587 0.65171 0.54318 0.0
Gd1001 Gd 0.66252 0.68438 0.49813 0.0
C1002 C 0.66169 0.69516 0.59667 0.0
C1003 C 0.72437 0.63382 0.59437 0.0
C1004 C 0.73379 0.63881 0.63688 0.0
C1005 C 0.74573 0.61957 0.65433 0.0
C1006 C 0.7314 0.66224 0.66016 0.0
C1007 C 0.75342 0.64715 0.71712 0.0
C1008 C 0.74106 0.66635 0.69972 0.0
C1009 C 0.75538 0.62364 0.69378 0.0
C1010 C 0.65792 0.62902 0.51257 0.0
C1011 C 0.70164 0.64545 0.44259 0.0
C1012 C 0.63421 0.70241 0.44727 0.0
C1013 C 0.63391 0.70533 0.40111 0.0
C1014 C 0.62973 0.72906 0.38822 0.0
C1015 C 0.63776 0.68513 0.36976 0.0
C1016 C 0.63363 0.71264 0.31339 0.0
C1017 C 0.6376 0.68875 0.32636 0.0
C1018 C 0.62961 0.73269 0.345 0.0
C1019 C 0.70364 0.70563 0.51466 0.0
O1020 O 0.68183 0.68214 0.59231 0.0
O1021 O 0.64785 0.69565 0.56525 0.0
O1022 O 0.70215 0.62839 0.59397 0.0
O1023 O 0.73107 0.64794 0.56439 0.0
O1024 O 0.67818 0.61802 0.51581 0.0
O1025 O 0.65805 0.65084 0.53087 0.0
O1026 O 0.68216 0.65971 0.44427 0.0
O1027 O 0.71249 0.64158 0.47698 0.0
O1028 O 0.6492 0.71564 0.46758 0.0
O1029 O 0.63284 0.6801 0.45956 0.0
O1030 O 0.68312 0.71703 0.5193 0.0
O1031 O 0.70104 0.68305 0.50311 0.0
H1032 H 0.74786 0.60132 0.63709 0.0
H1033 H 0.72217 0.6774 0.64769 0.0
H1034 H 0.73875 0.68464 0.71675 0.0
H1035 H 0.76492 0.60842 0.70544 0.0
H1036 H 0.62654 0.7449 0.41172 0.0
H1037 H 0.641 0.66658 0.37869 0.0
H1038 H 0.64092 0.67289 0.30295 0.0
H1039 H 0.62604 0.75125 0.33639 0.0
Gd1040 Gd 0.09502 0.93956 0.25338 0.0
Gd1041 Gd 0.06184 0.90846 0.20302 0.0
C1042 C 0.0548 0.90716 0.30206 0.0
C1043 C 0.11464 0.96438 0.31504 0.0
C1044 C 0.10988 0.9734 0.36161 0.0
C1045 C 0.09806 0.95913 0.3912 0.0
C1046 C 0.11842 0.99625 0.37732 0.0
C1047 C 0.10417 0.99007 0.4512 0.0
C1048 C 0.1156 0.00447 0.42121 0.0
C1049 C 0.09526 0.96731 0.43514 0.0
C1050 C 0.11666 0.9034 0.19449 0.0
C1051 C 0.09246 0.95173 0.15839 0.0
C1052 C 0.04277 0.88067 0.14531 0.0
C1053 C 0.04166 0.88059 0.09906 0.0
C1054 C 0.02042 0.87497 0.08182 0.0
C1055 C 0.06021 0.88924 0.07304 0.0
C1056 C 0.03524 0.88919 1.01415 0.0
C1057 C 0.05704 0.89355 1.03086 0.0
C1058 C 0.01726 0.8791 0.03973 0.0
C1059 C 0.04109 0.95168 0.24049 0.0
O1060 O 0.06773 0.92692 0.3027 0.0
O1061 O 0.05301 0.89315 0.26615 0.0
O1062 O 0.11799 0.94041 0.30504 0.0
O1063 O 0.10261 0.97498 0.28752 0.0
O1064 O 0.12572 0.92427 0.20675 0.0
O1065 O 0.09795 0.90128 0.21909 0.0
O1066 O 0.08032 0.9312 0.15404 0.0
O1067 O 0.0979 0.96148 0.19623 0.0
O1068 O 0.03191 0.89971 0.16755 0.0
O1069 O 0.06308 0.87506 0.15913 0.0
O1070 O 0.03121 0.93042 0.23865 0.0
O1071 O 0.06208 0.94834 0.22451 0.0
H1072 H 0.09114 0.94147 0.38047 0.0
H1073 H 0.12773 0.00767 0.3556 0.0
H1074 H 0.12302 0.02189 0.43169 0.0
H1075 H 0.08596 0.95572 0.45654 0.0
H1076 H 0.00591 0.86828 0.10146 0.0
H1077 H 0.07678 0.89351 0.08583 0.0
H1078 H 0.07127 0.90129 1.01204 0.0
H1079 H 1.00049 0.8749 1.02753 0.0
Gd1080 Gd 0.78124 0.35912 0.99359 0.0
Gd1081 Gd 0.8021 0.31093 1.01933 0.0
C1082 C 0.79499 0.31197 0.92039 0.0
C1083 C 0.77441 0.40354 0.97285 0.0
C1084 C 0.76637 0.41259 0.93386 0.0
C1085 C 0.75088 0.39866 0.90998 0.0
C1086 C 0.776 0.43373 0.91793 0.0
C1087 C 0.75591 0.42594 0.85324 0.0
C1088 C 0.77081 0.44038 0.87789 0.0
C1089 C 0.74563 0.40531 0.87017 0.0
C1090 C 0.75123 0.32237 0.98866 0.0
C1091 C 0.77607 0.3501 0.09525 0.0
C1092 C 0.81668 0.27281 0.05471 0.0
C1093 C 0.814 0.26304 0.0966 0.0
C1094 C 0.83058 0.24524 0.10619 0.0
C1095 C 0.79667 0.27284 0.12837 0.0
C1096 C 0.81307 0.24747 0.17944 0.0
C1097 C 0.79622 0.26513 0.16953 0.0
C1098 C 0.83013 0.2375 0.14715 0.0
C1099 C 0.83336 0.34082 0.9826 0.0
O1100 O 0.79252 0.3367 0.92822 0.0
O1101 O 0.79555 0.29764 0.95215 0.0
O1102 O 0.75881 0.39229 0.99623 0.0
O1103 O 0.79512 0.39199 0.968 0.0
O1104 O 0.75138 0.3406 0.96464 0.0
O1105 O 0.76578 0.32582 1.01676 0.0
O1106 O 0.78842 0.32909 0.08465 0.0
O1107 O 0.7714 0.36531 0.06601 0.0
O1108 O 0.82801 0.2934 0.05388 0.0
O1109 O 0.79831 0.27251 1.0323 0.0
O1110 O 0.83435 0.31696 0.97632 0.0
O1111 O 0.81648 0.34811 1.01 0.0
H1112 H 0.74351 0.38204 0.92131 0.0
H1113 H 0.78816 0.44457 0.93578 0.0
H1114 H 0.77892 0.45642 0.86574 0.0
H1115 H 0.73449 0.39349 0.85172 0.0
H1116 H 0.84427 0.23775 0.0822 0.0
H1117 H 0.78376 0.28669 0.12158 0.0
H1118 H 0.7827 0.27295 0.19354 0.0
H1119 H 0.84355 0.22414 0.15381 0.0
Gd1120 Gd 0.41378 0.94838 0.30875 0.0
Gd1121 Gd 0.452 0.91554 0.25832 0.0
C1122 C 0.45911 0.92582 0.35629 0.0
C1123 C 0.3793 0.96555 0.36253 0.0
C1124 C 0.37895 0.98253 0.40123 0.0
C1125 C 0.39686 -0.00046 0.40546 0.0
C1126 C 0.36196 0.98063 0.43528 0.0
C1127 C 0.38163 0.0117 0.47847 0.0
C1128 C 0.3633 0.99514 0.4738 0.0
C1129 C 0.3981 0.0141 0.44368 0.0
C1130 C 0.44888 0.97446 0.27665 0.0
C1131 C 0.4155 0.94612 0.20763 0.0
C1132 C 0.48281 0.89191 0.20353 0.0
C1133 C 0.48926 0.8923 0.1577 0.0
C1134 C 0.47239 0.89907 0.13056 0.0
C1135 C 0.51237 0.88584 0.14078 0.0
C1136 C 0.50165 0.89281 0.06981 0.0
C1137 C 0.51852 0.88597 0.09705 0.0
C1138 C 0.47855 0.89945 0.08704 0.0
C1139 C 0.41586 0.89267 0.29897 0.0
O1140 O 0.43756 0.93677 0.3603 0.0
O1141 O 0.46979 0.91836 0.31845 0.0
O1142 O 0.38516 0.97531 0.32706 0.0
O1143 O 0.38985 0.94396 0.36439 0.0
O1144 O 0.42753 0.98338 0.28552 0.0
O1145 O 0.45133 0.95349 0.29058 0.0
O1146 O 0.43715 0.93688 0.20808 0.0
O1147 O 0.40074 0.94761 0.2426 0.0
O1148 O 0.46197 0.88363 0.21384 0.0
O1149 O 0.48762 0.9117 0.22771 0.0
O1150 O 0.43786 0.88566 0.29768 0.0
O1151 O 0.41411 0.91105 0.2776 0.0
H1152 H 0.41036 0.00098 0.37965 0.0
H1153 H 0.34814 0.96744 0.43249 0.0
H1154 H 0.35039 0.99299 0.50023 0.0
H1155 H 0.41268 0.02633 0.44665 0.0
H1156 H 0.45437 0.90379 0.14293 0.0
H1157 H 0.52561 0.88061 0.16135 0.0
H1158 H 0.53649 0.88094 0.08458 0.0
H1159 H 0.46511 0.90448 0.06672 0.0
Gd1160 Gd 0.80293 0.65541 0.04719 0.0
Gd1161 Gd 0.83833 0.6914 1.0075 0.0
C1162 C 0.81936 0.70467 0.10422 0.0
C1163 C 0.78717 0.61872 0.0864 0.0
C1164 C 0.76948 0.61567 0.12148 0.0
C1165 C 0.75179 0.63409 0.13372 0.0
C1166 C 0.77204 0.59574 0.14619 0.0
C1167 C 0.74078 0.61389 0.19755 0.0
C1168 C 0.75777 0.59483 0.18404 0.0
C1169 C 0.73745 0.63314 0.17142 0.0
C1170 C 0.77802 0.69485 1.02383 0.0
C1171 C 0.80879 0.65435 0.94583 0.0
C1172 C 0.86256 0.71764 0.95697 0.0
C1173 C 0.86021 0.72639 0.91422 0.0
C1174 C 0.87572 0.71682 0.87927 0.0
C1175 C 0.84282 0.74435 0.90773 0.0
C1176 C 0.85659 0.74295 0.83227 0.0
C1177 C 0.84105 0.75253 0.86727 0.0
C1178 C 0.87389 0.72491 0.83879 0.0
C1179 C 0.85682 0.65789 0.05722 0.0
O1180 O 0.81009 0.6824 0.10345 0.0
O1181 O 0.82855 0.71402 0.06949 0.0
O1182 O 0.77935 0.62493 0.05089 0.0
O1183 O 0.80521 0.63135 0.09747 0.0
O1184 O 0.76853 0.6772 0.04371 0.0
O1185 O 0.80011 0.69113 1.02026 0.0
O1186 O 0.8195 0.67549 0.95156 0.0
O1187 O 0.80473 0.64033 0.97767 0.0
O1188 O 0.86661 0.69369 0.95796 0.0
O1189 O 0.84778 0.72744 0.98868 0.0
O1190 O 0.86426 0.67997 0.05344 0.0
O1191 O 0.84133 0.65375 1.03079 0.0
H1192 H 0.74984 0.6498 0.11523 0.0
H1193 H 0.78578 0.58149 0.1372 0.0
H1194 H 0.76058 0.57974 0.20353 0.0
H1195 H 0.72474 0.64827 0.18138 0.0
H1196 H 0.88941 0.70311 0.88329 0.0
H1197 H 0.83057 0.75218 0.93388 0.0
H1198 H 0.82738 0.76626 0.86335 0.0
H1199 H 0.88636 0.71739 0.81274 0.0
Gd1200 Gd 0.0787 0.04382 0.79653 0.0
Gd1201 Gd 0.04459 0.0855 0.7639 0.0
C1202 C 0.03183 0.06613 0.85837 0.0
C1203 C 0.11459 0.02844 0.83202 0.0
C1204 C 0.12233 0.03229 0.87505 0.0
C1205 C 0.1411 0.01757 0.88592 0.0
C1206 C 0.10842 0.04701 0.90713 0.0
C1207 C 0.12855 0.02768 0.96101 0.0
C1208 C 0.1116 0.0448 0.95002 0.0
C1209 C 0.14427 0.01535 0.92871 0.0
C1210 C 0.04675 0.02242 0.7499 0.0
C1211 C 0.08282 0.05406 0.6947 0.0
C1212 C 0.01036 0.10874 0.73377 0.0
C1213 C 1.00039 0.10695 0.69205 0.0
C1214 C 0.98413 0.12518 0.68269 0.0
C1215 C 0.00786 0.0877 0.66062 0.0
C1216 C 0.98348 0.10546 0.61019 0.0
C1217 C 0.99947 0.08692 0.62015 0.0
C1218 C 0.97573 0.12445 0.6422 0.0
C1219 C 0.08157 0.10144 0.80832 0.0
O1220 O 0.05087 0.05074 0.85321 0.0
O1221 O 0.02601 0.08081 0.82899 0.0
O1222 O 0.09522 0.01598 0.82971 0.0
O1223 O 0.11517 0.04763 0.80937 0.0
O1224 O 0.06233 0.00968 0.76773 0.0
O1225 O 0.0489 0.04526 0.75954 0.0
O1226 O 0.06375 0.06899 0.7019 0.0
O1227 O 0.09336 0.04477 0.72637 0.0
O1228 O 0.03175 0.11699 0.73378 0.0
O1229 O 0.00728 0.08975 0.75631 0.0
O1230 O 0.0718 0.1144 0.78131 0.0
O1231 O 0.06939 0.08294 0.8123 0.0
H1232 H 0.152 0.00615 0.86149 0.0
H1233 H 0.09385 0.05853 0.89913 0.0
H1234 H 0.09921 0.05443 0.97429 0.0
H1235 H 0.15754 0.00214 0.93651 0.0
H1236 H 0.97816 0.14019 0.70654 0.0
H1237 H 0.02053 0.07351 0.6671 0.0
H1238 H 0.00608 0.07219 0.5963 0.0
H1239 H 0.9632 0.13882 0.63594 0.0
Gd1240 Gd 0.70915 0.35299 0.43233 0.0
Gd1241 Gd 0.67301 0.31787 0.39438 0.0
C1242 C 0.68469 0.3115 0.49043 0.0
C1243 C 0.7291 0.38637 0.4791 0.0
C1244 C 0.72859 0.39564 0.52463 0.0
C1245 C 0.74639 0.38761 0.54893 0.0
C1246 C 0.71089 0.41259 0.54419 0.0
C1247 C 0.72821 0.41222 0.61188 0.0
C1248 C 0.7105 0.42055 0.58763 0.0
C1249 C 0.74619 0.39577 0.59202 0.0
C1250 C 0.7277 0.30824 0.39602 0.0
C1251 C 0.70733 0.35081 0.33107 0.0
C1252 C 0.6556 0.28513 0.34169 0.0
C1253 C 0.66158 0.27498 0.29587 0.0
C1254 C 0.656 0.28843 0.26171 0.0
C1255 C 0.67278 0.25134 0.28575 0.0
C1256 C 0.67307 0.25514 0.20875 0.0
C1257 C 0.67846 0.24162 0.24304 0.0
C1258 C 0.6616 0.27871 0.21907 0.0
C1259 C 0.65332 0.35386 0.45446 0.0
O1260 O 0.69607 0.33257 0.48925 0.0
O1261 O 0.67617 0.30036 0.45596 0.0
O1262 O 0.73798 0.36384 0.46898 0.0
O1263 O 0.71061 0.39126 0.45873 0.0
O1264 O 0.73889 0.32881 0.39589 0.0
O1265 O 0.70793 0.31327 0.41562 0.0
O1266 O 0.69164 0.33359 0.33636 0.0
O1267 O 0.71553 0.36328 0.36431 0.0
O1268 O 0.64709 0.3081 0.34938 0.0
O1269 O 0.67043 0.27943 0.36921 0.0
O1270 O 0.64377 0.33292 0.44373 0.0
O1271 O 0.67066 0.35648 0.42661 0.0
H1272 H 0.76048 0.37484 0.53468 0.0
H1273 H 0.69737 0.41972 0.52599 0.0
H1274 H 0.69655 0.43339 0.60215 0.0
H1275 H 0.75992 0.38881 0.61004 0.0
H1276 H 0.64723 0.30658 0.26781 0.0
H1277 H 0.6773 0.24029 0.311 0.0
H1278 H 0.68748 0.2236 0.23703 0.0
H1279 H 0.65661 0.28971 0.19411 0.0
H1280 H 0.06999 0.47236 0.24067 0.0
H1281 H 0.14135 0.46084 0.18417 0.0
H1282 H 0.15597 0.48396 0.24641 0.0
H1283 H 0.14823 0.50499 0.31907 0.0
H1284 H 0.07638 0.5179 0.37331 0.0
H1285 H 0.062 0.49736 0.30925 0.0
C1286 C 0.08871 0.4751 0.24214 0.0
C1287 C 0.10473 0.4648 0.20884 0.0
C1288 C 0.09679 0.48882 0.27726 0.0
C1289 C 0.12888 0.46866 0.21002 0.0
C1290 C 0.13717 0.48181 0.24543 0.0
C1291 C 0.12945 0.50361 0.31638 0.0
C1292 C 0.1134 0.51284 0.35067 0.0
C1293 C 0.12129 0.49168 0.27952 0.0
C1294 C 0.08906 0.51116 0.34702 0.0
C1295 C 0.08082 0.49918 0.31066 0.0
H1296 H 0.71771 0.88508 0.61032 0.0
H1297 H 0.7816 0.88656 0.67472 0.0
H1298 H 0.80505 0.87651 0.60709 0.0
H1299 H 0.80711 0.86246 0.53098 0.0
H1300 H 0.74337 0.86062 0.46621 0.0
H1301 H 0.72019 0.87532 0.53262 0.0
C1302 C 0.73678 0.88358 0.60935 0.0
C1303 C 0.74785 0.88648 0.64742 0.0
C1304 C 0.75018 0.87725 0.57044 0.0
C1305 C 0.77261 0.88474 0.64579 0.0
C1306 C 0.78606 0.87866 0.60719 0.0
C1307 C 0.78817 0.86547 0.53144 0.0
C1308 C 0.7769 0.86021 0.4941 0.0
C1309 C 0.77498 0.87408 0.56957 0.0
C1310 C 0.75242 0.86451 0.49475 0.0
C1311 C 0.73914 0.87288 0.53267 0.0
H1312 H 0.40735 0.56685 0.8085 0.0
H1313 H 0.39984 0.49697 0.73465 0.0
H1314 H 0.38763 0.47798 0.79981 0.0
H1315 H 0.38075 0.48101 0.87771 0.0
H1316 H 0.38781 0.55112 0.95104 0.0
H1317 H 0.39828 0.57053 0.88556 0.0
C1318 C 0.40314 0.54745 0.80658 0.0
C1319 C 0.40466 0.53327 0.76695 0.0
C1320 C 0.39588 0.53684 0.84387 0.0
C1321 C 0.39882 0.50824 0.7649 0.0
C1322 C 0.39181 0.49741 0.80205 0.0
C1323 C 0.38408 0.50066 0.87922 0.0
C1324 C 0.38354 0.51467 0.91891 0.0
C1325 C 0.39035 0.51154 0.84167 0.0
C1326 C 0.38829 0.54 0.92069 0.0
C1327 C 0.39435 0.55104 0.8834 0.0
H1328 H 0.80234 0.07719 0.20387 0.0
H1329 H 0.72848 0.07488 0.24625 0.0
H1330 H 0.71844 0.07175 0.17271 0.0
H1331 H 0.73009 0.07327 0.09687 0.0
H1332 H 0.80366 0.07642 0.05353 0.0
H1333 H 0.81428 0.07593 0.12683 0.0
C1334 C 0.78407 0.07591 0.19696 0.0
C1335 C 0.76623 0.07624 0.23065 0.0
C1336 C 0.7783 0.07449 0.15441 0.0
C1337 C 0.74265 0.07428 0.22106 0.0
C1338 C 0.73682 0.0727 0.17895 0.0
C1339 C 0.74849 0.07328 0.10327 0.0
C1340 C 0.76602 0.07497 0.06974 0.0
C1341 C 0.75445 0.07318 0.14544 0.0
C1342 C 0.78978 0.07542 0.07882 0.0
C1343 C 0.79587 0.0751 0.12072 0.0
H1344 H 0.90972 0.57353 0.13919 0.0
H1345 H 0.89362 0.50643 0.19778 0.0
H1346 H 0.88078 0.48781 0.13057 0.0
H1347 H 0.87698 0.48969 0.05408 0.0
H1348 H 0.89307 0.55697 0.99619 0.0
H1349 H 0.90297 0.57663 0.06472 0.0
C1350 C 0.9034 0.55482 0.13735 0.0
C1351 C 0.90289 0.54123 0.17318 0.0
C1352 C 0.89601 0.54436 0.09889 0.0
C1353 C 0.89425 0.51721 0.17051 0.0
C1354 C 0.88692 0.50657 0.13215 0.0
C1355 C 0.88212 0.50883 0.05672 0.0
C1356 C 0.88443 0.52184 1.02022 0.0
C1357 C 0.88803 0.51988 0.09602 0.0
C1358 C 0.89142 0.54654 1.02387 0.0
C1359 C 0.8971 0.55775 0.06293 0.0
H1360 H 0.22649 0.18602 0.89452 0.0
H1361 H 0.21509 0.10931 0.91215 0.0
H1362 H 0.23823 0.09639 0.84445 0.0
H1363 H 0.2594 0.10735 0.77829 0.0
H1364 H 0.27135 0.18417 0.76124 0.0
H1365 H 0.25107 0.19672 0.8314 0.0
C1366 C 0.22924 0.16652 0.88332 0.0
C1367 C 0.21893 0.14853 0.90712 0.0
C1368 C 0.24284 0.15933 0.84494 0.0
C1369 C 0.22274 0.1233 0.89348 0.0
C1370 C 0.23599 0.11598 0.85504 0.0
C1371 C 0.25778 0.12679 0.79026 0.0
C1372 C 0.26666 0.14481 0.76469 0.0
C1373 C 0.2458 0.13387 0.83022 0.0
C1374 C 0.26479 0.16994 0.78059 0.0
C1375 C 0.25297 0.17716 0.82044 0.0
H1376 H 0.61646 0.52432 0.53275 0.0
H1377 H 0.6165 0.45617 0.45064 0.0
H1378 H 0.60743 0.4331 0.51228 0.0
H1379 H 0.59653 0.43286 0.5886 0.0
H1380 H 0.59601 0.50095 0.671 0.0
H1381 H 0.6077 0.52365 0.60986 0.0
C1382 C 0.61459 0.50441 0.52846 0.0
C1383 C 0.61705 0.492 0.48733 0.0
C1384 C 0.6089 0.49136 0.56388 0.0
C1385 C 0.61497 0.46612 0.48211 0.0
C1386 C 0.60951 0.45295 0.51724 0.0
C1387 C 0.59898 0.45266 0.59318 0.0
C1388 C 0.59526 0.46528 0.63404 0.0
C1389 C 0.60593 0.46548 0.55811 0.0
C1390 C 0.59878 0.49086 0.6397 0.0
C1391 C 0.60547 0.50384 0.60483 0.0
H1392 H 0.2469 0.86898 0.2949 0.0
H1393 H 0.2683 0.9447 0.3071 0.0
H1394 H 0.25584 0.9505 0.23606 0.0
H1395 H 0.24086 0.93296 0.16907 0.0
H1396 H 0.22091 0.8566 0.15767 0.0
H1397 H 0.23032 0.85224 0.23025 0.0
C1398 C 0.24891 0.88672 0.28186 0.0
C1399 C 0.25884 0.90626 0.30554 0.0
C1400 C 0.24176 0.88983 0.24143 0.0
C1401 C 0.2608 0.92938 0.28907 0.0
C1402 C 0.25372 0.93266 0.24858 0.0
C1403 C 0.23846 0.91545 0.18267 0.0
C1404 C 0.23005 0.89518 0.1581 0.0
C1405 C 0.24447 0.91287 0.22424 0.0
C1406 C 0.22682 0.87264 0.17617 0.0
C1407 C 0.2325 0.87002 0.21751 0.0
H1408 H 0.58613 0.99419 0.86456 0.0
H1409 H 0.65994 -0.00106 0.82524 0.0
H1410 H 0.65363 0.97956 0.75396 0.0
H1411 H 0.62697 0.95961 0.70395 0.0
H1412 H 0.55391 0.95242 0.74699 0.0
H1413 H 0.55992 0.97447 0.81568 0.0
C1414 C 0.60074 0.99135 0.84009 0.0
C1415 C 0.62336 -0.00174 0.84962 0.0
C1416 C 0.59709 0.97958 0.80007 0.0
C1417 C 0.64234 0.99389 0.81824 0.0
C1418 C 0.63873 0.98279 0.77767 0.0
C1419 C 0.61245 0.96309 0.72843 0.0
C1420 C 0.59009 0.95441 0.72079 0.0
C1421 C 0.61619 0.97531 0.76836 0.0
C1422 C 0.57135 0.95865 0.75261 0.0
C1423 C 0.57473 0.97137 0.79174 0.0
H1424 H 0.31596 0.35147 1.01778 0.0
H1425 H 0.25492 0.31875 0.96745 0.0
H1426 H 0.23244 0.32768 0.03681 0.0
H1427 H 0.23141 0.3419 0.11285 0.0
H1428 H 0.2914 0.37835 0.16115 0.0
H1429 H 0.313 0.37115 0.09115 0.0
C1430 C 0.29767 0.3466 1.022 0.0
C1431 C 0.28709 0.33435 0.98805 0.0
C1432 C 0.28472 0.35244 0.06143 0.0
C1433 C 0.26335 0.32821 0.99345 0.0
C1434 C 0.25052 0.3333 1.033 0.0
C1435 C 0.24893 0.34893 0.10791 0.0
C1436 C 0.25993 0.36011 0.14253 0.0
C1437 C 0.26115 0.34513 0.06737 0.0
C1438 C 0.28274 0.369 0.13536 0.0
C1439 C 0.29512 0.36497 0.09531 0.0
H1440 H 0.87013 0.02891 0.25321 0.0
H1441 H 0.9432 0.03696 0.27588 0.0
H1442 H 0.93607 0.02148 0.34567 0.0
H1443 H 0.90913 0.00703 0.40056 0.0
H1444 H 0.83541 0.00071 0.38163 0.0
H1445 H 0.84256 0.01437 0.30987 0.0
C1446 C 0.88443 0.02681 0.27335 0.0
C1447 C 0.90715 0.03372 0.2598 0.0
C1448 C 0.88001 0.0187 0.31408 0.0
C1449 C 0.92562 0.03153 0.28601 0.0
C1450 C 0.92153 0.02286 0.32586 0.0
C1451 C 0.89451 0.00906 0.38109 0.0
C1452 C 0.87173 0.00332 0.39648 0.0
C1453 C 0.89876 0.0168 0.3404 0.0
C1454 C 0.85309 0.00519 0.37036 0.0
C1455 C 0.8572 0.01291 0.32942 0.0
H1456 H 0.25165 0.62121 0.59306 0.0
H1457 H 0.2244 0.54779 0.58261 0.0
H1458 H 0.23618 0.54125 0.65378 0.0
H1459 H 0.25262 0.55743 0.72014 0.0
H1460 H 0.27897 0.63144 0.72975 0.0
H1461 H 0.26954 0.63655 0.65736 0.0
C1462 C 0.2482 0.60382 0.60651 0.0
C1463 C 0.23688 0.58514 0.58317 0.0
C1464 C 0.25503 0.60024 0.64706 0.0
C1465 C 0.23303 0.56244 0.60027 0.0
C1466 C 0.23972 0.55874 0.64087 0.0
C1467 C 0.25635 0.57463 0.70628 0.0
C1468 C 0.26649 0.59399 0.73036 0.0
C1469 C 0.2505 0.57765 0.66474 0.0
C1470 C 0.27152 0.61606 0.71179 0.0
C1471 C 0.2659 0.61913 0.67051 0.0
H1472 H 0.41482 0.07496 0.63674 0.0
H1473 H 0.40204 0.00682 0.6942 0.0
H1474 H 0.38715 0.98876 0.6285 0.0
H1475 H 0.38003 0.99164 0.5537 0.0
H1476 H 0.3924 0.06002 0.49681 0.0
H1477 H 0.40495 0.07895 0.56393 0.0
C1478 C 0.40879 0.05617 0.63496 0.0
C1479 C 0.40972 0.04217 0.67007 0.0
C1480 C 0.40006 0.04607 0.59742 0.0
C1481 C 0.40153 0.01795 0.66748 0.0
C1482 C 0.393 0.00764 0.63001 0.0
C1483 C 0.38493 0.01087 0.55633 0.0
C1484 C 0.38538 0.02443 0.52049 0.0
C1485 C 0.39237 0.02148 0.59472 0.0
C1486 C 0.39213 0.0492 0.52402 0.0
C1487 C 0.39936 0.05997 0.56224 0.0
H1488 H 0.76035 0.60727 0.27089 0.0
H1489 H 0.6942 0.62501 0.22129 0.0
H1490 H 0.67578 0.63456 0.29384 0.0
H1491 H 0.67965 0.64158 0.37008 0.0
H1492 H 0.74595 0.62483 0.42016 0.0
H1493 H 0.76317 0.61067 0.34824 0.0
C1494 C 0.74175 0.6126 0.276 0.0
C1495 C 0.72863 0.61555 0.24092 0.0
C1496 C 0.73146 0.61846 0.31763 0.0
C1497 C 0.70465 0.62286 0.2479 0.0
C1498 C 0.69416 0.62833 0.28926 0.0
C1499 C 0.69785 0.63471 0.36542 0.0
C1500 C 0.71163 0.6346 0.40027 0.0
C1501 C 0.7076 0.62687 0.3242 0.0
C1502 C 0.73503 0.62522 0.39377 0.0
C1503 C 0.74488 0.61719 0.35269 0.0
H1504 H 0.10475 -0.00018 0.14958 0.0
H1505 H 0.09831 0.92873 0.07879 0.0
H1506 H 0.11153 0.94554 1.01308 0.0
H1507 H 0.12281 0.98046 0.97466 0.0
H1508 H 0.12611 0.05308 0.04115 0.0
H1509 H 0.11634 0.03581 0.1096 0.0
C1510 C 0.10638 0.98809 0.11974 0.0
C1511 C 0.10057 0.963 0.1192 0.0
C1512 C 0.11346 -0.00184 0.08132 0.0
C1513 C 0.10248 0.94808 0.08025 0.0
C1514 C 0.11015 0.95765 0.04251 0.0
C1515 C 0.12195 0.99244 1.00424 0.0
C1516 C 0.12567 0.01783 1.00317 0.0
C1517 C 0.11548 0.98264 0.04263 0.0
C1518 C 0.12362 0.03336 0.04147 0.0
C1519 C 0.11792 0.02351 0.08042 0.0
H1520 H 0.76473 0.42856 0.65467 0.0
H1521 H 0.69105 0.41276 0.67247 0.0
H1522 H 0.69234 0.41897 0.74991 0.0
H1523 H 0.7157 0.42391 0.81208 0.0
H1524 H 0.78992 0.43748 0.79323 0.0
H1525 H 0.78705 0.43761 0.71679 0.0
C1526 C 0.74892 0.42672 0.67558 0.0
C1527 C 0.72794 0.41986 0.65807 0.0
C1528 C 0.74992 0.42984 0.71985 0.0
C1529 C 0.70741 0.41803 0.6853 0.0
C1530 C 0.70819 0.4214 0.72953 0.0
C1531 C 0.73117 0.42714 0.79124 0.0
C1532 C 0.75303 0.43043 0.80832 0.0
C1533 C 0.72954 0.42655 0.74711 0.0
C1534 C 0.77284 0.43508 0.78106 0.0
C1535 C 0.77128 0.43491 0.73724 0.0
H1536 H 0.15589 0.37086 0.29779 0.0
H1537 H 0.10072 0.31815 0.2949 0.0
H1538 H 0.08935 0.33168 0.22826 0.0
H1539 H 0.09549 0.3574 0.16767 0.0
H1540 H 0.14913 0.41158 0.17113 0.0
H1541 H 0.16075 0.39823 0.23814 0.0
C1542 C 0.14131 0.36245 0.28281 0.0
C1543 C 0.12941 0.34327 0.30217 0.0
C1544 C 0.13456 0.3704 0.24343 0.0
C1545 C 0.11049 0.33282 0.28144 0.0
C1546 C 0.10389 0.3405 0.24279 0.0
C1547 C 0.10932 0.36669 0.18342 0.0
C1548 C 0.12089 0.38594 0.16395 0.0
C1549 C 0.11584 0.35915 0.22306 0.0
C1550 C 0.13959 0.39682 0.18477 0.0
C1551 C 0.14631 0.38923 0.22358 0.0
H1552 H 0.87946 0.89465 0.56699 0.0
H1553 H 0.94199 0.85768 0.5013 0.0
H1554 H 0.92108 0.84815 0.43807 0.0
H1555 H 0.88545 0.85216 0.39918 0.0
H1556 H 0.824 0.89229 0.4627 0.0
H1557 H 0.84407 0.8994 0.52763 0.0
C1558 C 0.88845 0.88445 0.53884 0.0
C1559 C 0.91242 0.87745 0.5388 0.0
C1560 C 0.87659 0.88003 0.50149 0.0
C1561 C 0.92363 0.86371 0.50229 0.0
C1562 C 0.91174 0.8584 0.46578 0.0
C1563 C 0.87662 0.86273 0.42709 0.0
C1564 C 0.85321 0.87153 0.42597 0.0
C1565 C 0.88838 0.86699 0.46455 0.0
C1566 C 0.842 0.88523 0.46249 0.0
C1567 C 0.8534 0.88913 0.49994 0.0
H1568 H 0.3663 0.65574 0.8711 0.0
H1569 H 0.33766 0.58811 0.91112 0.0
H1570 H 0.34581 0.56833 0.83791 0.0
H1571 H 0.3611 0.57015 0.76155 0.0
H1572 H 0.38906 0.63823 0.72221 0.0
H1573 H 0.38071 0.65785 0.79522 0.0
C1574 C 0.3617 0.63664 0.86409 0.0
C1575 C 0.3509 0.62372 0.89747 0.0
C1576 C 0.36627 0.62541 0.82145 0.0
C1577 C 0.34548 0.59887 0.88679 0.0
C1578 C 0.35025 0.5875 0.8446 0.0
C1579 C 0.36543 0.58932 0.76875 0.0
C1580 C 0.37642 0.60238 0.73565 0.0
C1581 C 0.36055 0.60058 0.81146 0.0
C1582 C 0.38136 0.62732 0.74645 0.0
C1583 C 0.37644 0.63862 0.78848 0.0
H1584 H 0.67613 0.12666 0.96479 0.0
H1585 H 0.62063 0.14537 0.88759 0.0
H1586 H 0.59171 0.12794 0.93704 0.0
H1587 H 0.58172 0.11237 1.00698 0.0
H1588 H 0.6373 0.09377 0.08431 0.0
H1589 H 0.66682 0.10618 1.03014 0.0
C1590 C 0.65798 0.12592 0.95759 0.0
C1591 C 0.65071 0.1367 0.92171 0.0
C1592 C 0.64136 0.11655 0.98701 0.0
C1593 C 0.62676 0.13657 0.91429 0.0
C1594 C 0.61017 0.12695 0.94295 0.0
C1595 C 0.60031 0.11089 1.01178 0.0
C1596 C 0.60735 0.10258 0.04986 0.0
C1597 C 0.61716 0.11776 0.98024 0.0
C1598 C 0.63149 0.10033 0.05539 0.0
C1599 C 0.64835 0.10737 1.02439 0.0
H1600 H 0.07285 0.60686 0.50566 0.0
H1601 H 0.13097 0.60436 0.58418 0.0
H1602 H 0.15785 0.61617 0.52515 0.0
H1603 H 0.16335 0.6317 0.45394 0.0
H1604 H 0.10549 0.6316 0.37467 0.0
H1605 H 0.08002 0.61522 0.43069 0.0
C1606 C 0.09143 0.60877 0.50976 0.0
C1607 C 0.09991 0.60523 0.54938 0.0
C1608 C 0.10683 0.61461 0.47529 0.0
C1609 C 0.12407 0.60724 0.55402 0.0
C1610 C 0.13942 0.61386 0.52023 0.0
C1611 C 0.14562 0.62688 0.44794 0.0
C1612 C 0.13655 0.63233 0.40957 0.0
C1613 C 0.1309 0.61799 0.48087 0.0
C1614 C 0.11305 0.62699 0.40342 0.0
C1615 C 0.09835 0.61808 0.43579 0.0
H1616 H 0.63185 0.90391 0.69092 0.0
H1617 H 0.59476 0.842 0.63776 0.0
H1618 H 0.60191 0.81938 0.69971 0.0
H1619 H 0.61912 0.81693 0.76951 0.0
H1620 H 0.65564 0.87936 0.82238 0.0
H1621 H 0.64864 0.90166 0.76039 0.0
C1622 C 0.62533 0.88542 0.69265 0.0
C1623 C 0.61244 0.8749 0.65934 0.0
C1624 C 0.6296 0.87245 0.72859 0.0
C1625 C 0.60427 0.85088 0.66282 0.0
C1626 C 0.60851 0.83785 0.69834 0.0
C1627 C 0.62554 0.83544 0.76759 0.0
C1628 C 0.63836 0.84616 0.80088 0.0
C1629 C 0.62114 0.84842 0.73158 0.0
C1630 C 0.64633 0.87025 0.79731 0.0
C1631 C 0.64212 0.88315 0.76178 0.0
H1632 H 0.42937 0.3647 0.99847 0.0
H1633 H 0.37194 0.38948 0.09158 0.0
H1634 H 0.34424 0.3856 0.03619 0.0
H1635 H 0.33618 0.37378 0.96133 0.0
H1636 H 0.39361 0.34749 0.86933 0.0
H1637 H 0.42157 0.35406 0.92372 0.0
C1638 C 0.41075 0.36901 1.00675 0.0
C1639 C 0.40267 0.37717 0.04922 0.0
C1640 C 0.39498 0.36685 0.97468 0.0
C1641 C 0.37853 0.38296 0.05924 0.0
C1642 C 0.36273 0.38086 1.02751 0.0
C1643 C 0.35486 0.36985 0.95316 0.0
C1644 C 0.36286 0.36012 0.9114 0.0
C1645 C 0.37072 0.37278 0.98509 0.0
C1646 C 0.38709 0.35506 0.9012 0.0
C1647 C 0.40303 0.35859 0.9324 0.0
H1648 H 0.87225 0.16033 0.36774 0.0
H1649 H 0.83818 0.09529 0.40692 0.0
H1650 H 0.84568 0.07509 0.33403 0.0
H1651 H 0.86158 0.07595 0.25787 0.0
H1652 H 0.89555 0.14116 0.2192 0.0
H1653 H 0.88855 0.16095 0.2923 0.0
C1654 C 0.86651 0.14164 0.36067 0.0
C1655 C 0.85401 0.12974 0.39361 0.0
C1656 C 0.87101 0.13004 0.31819 0.0
C1657 C 0.84701 0.10544 0.38278 0.0
C1658 C 0.85154 0.09376 0.34082 0.0
C1659 C 0.86758 0.09448 0.26528 0.0
C1660 C 0.87974 0.10667 0.23229 0.0
C1661 C 0.86332 0.10592 0.30798 0.0
C1662 C 0.88689 0.13086 0.24336 0.0
C1663 C 0.8827 0.1423 0.28544 0.0
H1664 H 0.86918 0.58605 0.20495 0.0
H1665 H 0.90283 0.64986 0.26024 0.0
H1666 H 0.89528 0.67217 0.19821 0.0
H1667 H 0.87893 0.67379 0.12801 0.0
H1668 H 0.84744 0.60913 0.07058 0.0
H1669 H 0.85445 0.58699 0.13308 0.0
C1670 C 0.87496 0.60485 0.20354 0.0
C1671 C 0.88691 0.61607 0.23761 0.0
C1672 C 0.87089 0.61745 0.16708 0.0
C1673 C 0.89395 0.64053 0.23473 0.0
C1674 C 0.88958 0.65332 0.19908 0.0
C1675 C 0.87362 0.65479 0.12893 0.0
C1676 C 0.86208 0.64345 0.09447 0.0
C1677 C 0.87811 0.64199 0.16495 0.0
C1678 C 0.85576 0.61868 0.0966 0.0
C1679 C 0.85987 0.60596 0.13249 0.0
H1680 H 0.12637 0.09138 0.82632 0.0
H1681 H 0.06326 0.13414 0.87373 0.0
H1682 H 0.08021 0.1452 0.94148 0.0
H1683 H 0.11306 0.14181 0.98811 0.0
H1684 H 0.17553 0.09781 0.9398 0.0
H1685 H 0.15831 0.08685 0.87307 0.0
C1686 C 0.11638 0.10314 0.85147 0.0
C1687 C 0.09375 0.11217 0.84488 0.0
C1688 C 0.12595 0.10868 0.89075 0.0
C1689 C 0.081 0.12751 0.87769 0.0
C1690 C 0.09053 0.13345 0.9167 0.0
C1691 C 0.12277 0.12969 0.96303 0.0
C1692 C 0.14584 0.12125 0.96866 0.0
C1693 C 0.11293 0.1239 0.92385 0.0
C1694 C 0.15799 0.10509 0.93616 0.0
C1695 C 0.14822 0.09894 0.89769 0.0
H1696 H 0.63162 0.33587 0.52602 0.0
H1697 H 0.66327 0.40192 0.4856 0.0
H1698 H 0.65457 0.42257 0.55814 0.0
H1699 H 0.63813 0.42196 0.63422 0.0
H1700 H 0.60671 0.35557 0.6738 0.0
H1701 H 0.61556 0.3351 0.60153 0.0
C1702 C 0.63677 0.3548 0.53283 0.0
C1703 C 0.64843 0.36708 0.49944 0.0
C1704 C 0.63189 0.36654 0.57515 0.0
C1705 C 0.65473 0.39165 0.50995 0.0
C1706 C 0.64966 0.40353 0.55175 0.0
C1707 C 0.63322 0.40296 0.62724 0.0
C1708 C 0.62125 0.39062 0.66028 0.0
C1709 C 0.63836 0.39117 0.58486 0.0
C1710 C 0.61538 0.36591 0.64968 0.0
C1711 C 0.62058 0.3541 0.60804 0.0
H1712 H 0.33492 0.86033 0.42824 0.0
H1713 H 0.3909 0.86558 0.51161 0.0
H1714 H 0.41638 0.88257 0.4563 0.0
H1715 H 0.42464 0.88915 0.38086 0.0
H1716 H 0.3686 0.88588 0.29738 0.0
H1717 H 0.34108 0.87451 0.35594 0.0
C1718 C 0.35219 0.86641 0.4351 0.0
C1719 C 0.3608 0.86222 0.47445 0.0
C1720 C 0.36698 0.87554 0.40252 0.0
C1721 C 0.38367 0.86926 0.48206 0.0
C1722 C 0.3984 0.87852 0.45012 0.0
C1723 C 0.40633 0.88627 0.37562 0.0
C1724 C 0.3987 0.88778 0.33472 0.0
C1725 C 0.39059 0.88058 0.40964 0.0
C1726 C 0.37487 0.88445 0.32852 0.0
C1727 C 0.35916 0.87807 0.36201 0.0
H1728 H 0.92278 0.37501 0.87853 0.0
H1729 H 0.87098 0.39465 0.79429 0.0
H1730 H 0.83925 0.38414 0.84626 0.0
H1731 H 0.82667 0.36599 0.91326 0.0
H1732 H 0.87869 0.34696 0.99736 0.0
H1733 H 0.90991 0.36113 0.94844 0.0
C1734 C 0.90453 0.37699 0.87156 0.0
C1735 C 0.89922 0.3851 0.83224 0.0
C1736 C 0.88644 0.37138 0.90191 0.0
C1737 C 0.8755 0.38814 0.8241 0.0
C1738 C 0.85737 0.38222 0.85388 0.0
C1739 C 0.84469 0.36587 0.92168 0.0
C1740 C 0.85029 0.35611 0.9596 0.0
C1741 C 0.86264 0.37352 0.89273 0.0
C1742 C 0.8739 0.35507 0.96903 0.0
C1743 C 0.89179 0.36283 0.94074 0.0
H1744 H 0.38931 0.16807 0.61504 0.0
H1745 H 0.34946 0.10609 0.57039 0.0
H1746 H 0.35519 0.0865 0.63592 0.0
H1747 H 0.37216 0.08641 0.70573 0.0
H1748 H 0.4124 0.14805 0.7503 0.0
H1749 H 0.40576 0.16829 0.68562 0.0
C1750 C 0.38186 0.15023 0.6195 0.0
C1751 C 0.36875 0.13873 0.58734 0.0
C1752 C 0.38533 0.13897 0.65756 0.0
C1753 C 0.3593 0.11564 0.59431 0.0
C1754 C 0.36266 0.10437 0.63195 0.0
C1755 C 0.37947 0.10435 0.70154 0.0
C1756 C 0.39327 0.11538 0.73307 0.0
C1757 C 0.37567 0.11581 0.66384 0.0
C1758 C 0.40227 0.13874 0.7266 0.0
C1759 C 0.39834 0.15038 0.6895 0.0
H1760 H 0.61975 0.60268 0.33206 0.0
H1761 H 0.55698 0.63943 0.39714 0.0
H1762 H 0.57669 0.64608 0.46233 0.0
H1763 H 0.61189 0.64135 0.50199 0.0
H1764 H 0.67316 0.60053 0.43937 0.0
H1765 H 0.65358 0.59411 0.37381 0.0
C1766 C 0.61014 0.61129 0.36089 0.0
C1767 C 0.58667 0.61978 0.35968 0.0
C1768 C 0.62127 0.61411 0.39929 0.0
C1769 C 0.57503 0.63246 0.39685 0.0
C1770 C 0.58622 0.63615 0.43449 0.0
C1771 C 0.6208 0.63081 0.47412 0.0
C1772 C 0.64417 0.62205 0.47545 0.0
C1773 C 0.60931 0.62693 0.43629 0.0
C1774 C 0.65529 0.60793 0.43925 0.0
C1775 C 0.64415 0.60433 0.40147 0.0
H1776 H 0.12974 0.83782 1.01323 0.0
H1777 H 0.16459 0.90278 0.97551 0.0
H1778 H 0.15754 0.92231 0.04899 0.0
H1779 H 0.14136 0.92113 0.12486 0.0
H1780 H 0.10617 0.85621 0.16186 0.0
H1781 H 0.11383 0.83653 0.08873 0.0
C1782 C 0.13587 0.8563 1.02082 0.0
C1783 C 0.14812 0.86852 0.988 0.0
C1784 C 0.13174 0.86746 0.0636 0.0
C1785 C 0.1556 0.89255 0.99941 0.0
C1786 C 0.15144 0.9038 0.04174 0.0
C1787 C 0.13531 0.90263 0.11713 0.0
C1788 C 0.12255 0.89054 0.14957 0.0
C1789 C 0.13963 0.89142 0.07431 0.0
C1790 C 0.11534 0.86643 0.1381 0.0
C1791 C 0.11984 0.85509 0.096 0.0
H1792 H 0.01064 0.54377 0.23916 0.0
H1793 H 0.94654 0.50355 0.25078 0.0
H1794 H 0.96344 0.47156 0.19631 0.0
H1795 H 0.99577 0.45576 0.14449 0.0
H1796 H 0.06036 0.49521 0.13392 0.0
H1797 H 0.04321 0.52775 0.18727 0.0
C1798 C 1.00049 0.52778 0.23044 0.0
C1799 C 0.97735 0.52598 0.24925 0.0
C1800 C 0.01001 0.50991 0.19814 0.0
C1801 C 0.96445 0.50522 0.23717 0.0
C1802 C 0.97396 0.48716 0.20554 0.0
C1803 C 0.00604 0.47167 0.15317 0.0
C1804 C 0.02938 0.47302 0.13509 0.0
C1805 C 0.99652 0.48959 0.18529 0.0
C1806 C 0.04231 0.49382 0.14696 0.0
C1807 C 0.03266 0.51219 0.17802 0.0
H1808 H 0.79164 0.73982 0.40607 0.0
H1809 H 0.74887 0.80763 0.41556 0.0
H1810 H 0.71831 0.7888 0.4597 0.0
H1811 H 0.7046 0.75372 0.4974 0.0
H1812 H 0.74748 0.686 0.48809 0.0
H1813 H 0.77796 0.70479 0.44371 0.0
C1814 C 0.77549 0.75041 0.41725 0.0
C1815 C 0.77248 0.7751 0.40753 0.0
C1816 C 0.75849 0.73982 0.44379 0.0
C1817 C 0.75149 0.78854 0.42233 0.0
C1818 C 0.73419 0.77791 0.44805 0.0
C1819 C 0.72077 0.74316 0.48626 0.0
C1820 C 0.72387 0.71852 0.49616 0.0
C1821 C 0.73775 0.75375 0.45964 0.0
C1822 C 0.74483 0.70507 0.4812 0.0
C1823 C 0.76207 0.71568 0.45537 0.0
H1824 H 0.54611 0.48305 0.69763 0.0
H1825 H 0.48984 0.45591 0.77871 0.0
H1826 H 0.46142 0.48332 0.74989 0.0
H1827 H 0.45259 0.51329 0.69959 0.0
H1828 H 0.50877 0.54064 0.61861 0.0
H1829 H 0.53731 0.51351 0.64789 0.0
C1830 C 0.52772 0.48344 0.70967 0.0
C1831 C 0.52007 0.46759 0.74053 0.0
C1832 C 0.51146 0.49846 0.69177 0.0
C1833 C 0.49613 0.46816 0.75533 0.0
C1834 C 0.47988 0.48351 0.73841 0.0
C1835 C 0.471 0.51311 0.68779 0.0
C1836 C 0.47856 0.52883 0.65667 0.0
C1837 C 0.4873 0.49829 0.70594 0.0
C1838 C 0.50254 0.52849 0.64217 0.0
C1839 C 0.51886 0.51328 0.65934 0.0
H1840 H 0.7369 0.22546 0.87461 0.0
H1841 H 0.76186 0.19325 0.98312 0.0
H1842 H 0.76206 0.23422 1.02201 0.0
H1843 H 0.75485 0.27929 1.02504 0.0
H1844 H 0.73013 0.31119 0.91604 0.0
H1845 H 0.72777 0.27008 0.87904 0.0
C1846 C 0.74223 0.22752 0.90682 0.0
C1847 C 0.74908 0.2066 0.92618 0.0
C1848 C 0.74143 0.2509 0.92951 0.0
C1849 C 0.75662 0.20928 0.96751 0.0
C1850 C 0.75639 0.2326 0.99002 0.0
C1851 C 0.74892 0.27709 0.99328 0.0
C1852 C 0.74349 0.29802 0.97269 0.0
C1853 C 0.74864 0.25351 0.97143 0.0
C1854 C 0.73473 0.2952 0.93232 0.0
C1855 C 0.73366 0.27176 0.91087 0.0
H1856 H 0.99833 0.45491 0.74915 0.0
H1857 H 0.94711 0.51462 0.74345 0.0
H1858 H 0.97326 0.53319 0.69163 0.0
H1859 H 0.01063 0.53256 0.6475 0.0
H1860 H 0.06293 0.47434 0.6553 0.0
H1861 H 0.03631 0.45475 0.70556 0.0
C1862 C 0.99304 0.472 0.73661 0.0
C1863 C 0.97094 0.48337 0.75007 0.0
C1864 C 0.00821 0.48272 0.70674 0.0
C1865 C 0.96416 0.50555 0.73369 0.0
C1866 C 0.97901 0.51615 0.70384 0.0
C1867 C 0.01615 0.51565 0.66032 0.0
C1868 C 0.03861 0.505 0.64802 0.0
C1869 C 0.00105 0.50489 0.69006 0.0
C1870 C 0.0456 0.48291 0.66444 0.0
C1871 C 0.03047 0.47174 0.69331 0.0
H1872 H 0.7932 0.72474 0.96272 0.0
H1873 H 0.7315 0.70744 0.04118 0.0
H1874 H 0.70732 0.73627 1.00635 0.0
H1875 H 0.70345 0.76617 0.95187 0.0
H1876 H 0.76553 0.78307 0.874 0.0
H1877 H 0.78934 0.75445 0.90904 0.0
C1878 C 0.77453 0.72752 0.97249 0.0
C1879 C 0.76425 0.71411 1.00475 0.0
C1880 C 0.76058 0.74387 0.95179 0.0
C1881 C 0.73991 0.71764 1.01656 0.0
C1882 C 0.726 0.73406 0.99649 0.0
C1883 C 0.72215 0.76355 0.94275 0.0
C1884 C 0.73259 0.77688 0.91047 0.0
C1885 C 0.73607 0.74718 0.96374 0.0
C1886 C 0.75693 0.77316 0.89884 0.0
C1887 C 0.7707 0.75682 0.91901 0.0
H1888 H 0.4503 0.5023 0.17978 0.0
H1889 H 0.49984 0.44733 0.11321 0.0
H1890 H 0.53192 0.4661 0.15006 0.0
H1891 H 0.54545 0.49769 0.20187 0.0
H1892 H 0.49569 0.55201 0.26966 0.0
H1893 H 0.46388 0.53409 0.23107 0.0
C1894 C 0.46816 0.49456 0.17319 0.0
C1895 C 0.47289 0.47357 0.14405 0.0
C1896 C 0.48631 0.50531 0.19456 0.0
C1897 C 0.49594 0.46349 0.13579 0.0
C1898 C 0.51421 0.4742 0.15674 0.0
C1899 C 0.52762 0.50555 0.20817 0.0
C1900 C 0.52274 0.52604 0.23838 0.0
C1901 C 0.50953 0.49501 0.18633 0.0
C1902 C 0.49972 0.53625 0.2463 0.0
C1903 C 0.48159 0.526 0.22439 0.0
H1904 H 0.78977 0.22645 0.46506 0.0
H1905 H 0.72236 0.19301 0.4825 0.0
H1906 H 0.70373 0.22754 0.45084 0.0
H1907 H 0.70724 0.26593 0.41534 0.0
H1908 H 0.77516 0.29818 0.39576 0.0
H1909 H 0.79349 0.26393 0.42801 0.0
C1910 C 0.77098 0.22666 0.4621 0.0
C1911 C 0.75751 0.20707 0.47589 0.0
C1912 C 0.76078 0.24566 0.44175 0.0
C1913 C 0.7331 0.20792 0.47247 0.0
C1914 C 0.72256 0.2274 0.45366 0.0
C1915 C 0.72613 0.26527 0.41745 0.0
C1916 C 0.7398 0.28469 0.40335 0.0
C1917 C 0.73636 0.24601 0.4373 0.0
C1918 C 0.76426 0.28345 0.40606 0.0
C1919 C 0.77466 0.26409 0.42516 0.0
H1920 H 0.29979 0.2324 0.93727 0.0
H1921 H 0.26415 0.29033 0.87911 0.0
H1922 H 0.22624 0.27816 0.91182 0.0
H1923 H 0.20388 0.25192 0.958 0.0
H1924 H 0.23922 0.19332 1.01503 0.0
H1925 H 0.27726 0.20569 0.98287 0.0
C1926 C 0.28369 0.24223 0.93133 0.0
C1927 C 0.28464 0.26229 0.90592 0.0
C1928 C 0.26224 0.23545 0.95088 0.0
C1929 C 0.26375 0.27481 0.8984 0.0
C1930 C 0.24219 0.268 0.91744 0.0
C1931 C 0.21993 0.24197 0.96387 0.0
C1932 C 0.21887 0.22178 0.98901 0.0
C1933 C 0.24136 0.24863 0.9442 0.0
C1934 C 0.23971 0.20904 0.99619 0.0
C1935 C 0.26133 0.21593 0.97738 0.0
H1936 H 0.25296 0.69438 0.43593 0.0
H1937 H 0.21844 0.73856 0.35113 0.0
H1938 H 0.22877 0.77662 0.39225 0.0
H1939 H 0.24668 0.79687 0.45347 0.0
H1940 H 0.28154 0.7528 0.53805 0.0
H1941 H 0.27103 0.71468 0.49713 0.0
C1942 C 0.24847 0.71241 0.42579 0.0
C1943 C 0.23577 0.71403 0.38998 0.0
C1944 C 0.25349 0.73393 0.45068 0.0
C1945 C 0.22893 0.73722 0.37791 0.0
C1946 C 0.23441 0.75883 0.40184 0.0
C1947 C 0.25121 0.77885 0.46364 0.0
C1948 C 0.26399 0.77729 0.49934 0.0
C1949 C 0.24621 0.75734 0.43878 0.0
C1950 C 0.27091 0.7541 0.5114 0.0
C1951 C 0.26535 0.73247 0.48757 0.0
H1952 H 0.25342 0.19059 0.4503 0.0
H1953 H 0.30832 0.23995 0.48361 0.0
H1954 H 0.28473 0.27518 0.46437 0.0
H1955 H 0.24825 0.29198 0.4394 0.0
H1956 H 0.19334 0.24268 0.40589 0.0
H1957 H 0.21702 0.20737 0.42473 0.0
C1958 C 0.26028 0.20905 0.45322 0.0
C1959 C 0.2826 0.21266 0.46853 0.0
C1960 C 0.24649 0.22921 0.44255 0.0
C1961 C 0.29125 0.23667 0.47191 0.0
C1962 C 0.2777 0.25682 0.4611 0.0
C1963 C 0.2414 0.27351 0.43633 0.0
C1964 C 0.21902 0.26995 0.42124 0.0
C1965 C 0.25523 0.25333 0.44674 0.0
C1966 C 0.21044 0.24592 0.4175 0.0
C1967 C 0.22403 0.22573 0.4281 0.0
H1968 H 0.29046 0.72339 0.96045 0.0
H1969 H 0.22251 0.69438 0.99453 0.0
H1970 H 0.20324 0.72867 0.96341 0.0
H1971 H 0.20603 0.76544 0.9236 0.0
H1972 H 0.27415 0.79386 0.88853 0.0
H1973 H 0.2933 0.75966 0.91984 0.0
C1974 C 0.27142 0.72453 0.96125 0.0
C1975 C 0.25795 0.7062 0.97958 0.0
C1976 C 0.26063 0.7435 0.94155 0.0
C1977 C 0.23327 0.70827 0.98087 0.0
C1978 C 0.2223 0.72764 0.96247 0.0
C1979 C 0.22509 0.76411 0.92246 0.0
C1980 C 0.23864 0.78234 0.90397 0.0
C1981 C 0.23586 0.74501 0.94194 0.0
C1982 C 0.26332 0.78009 0.90238 0.0
C1983 C 0.27423 0.76076 0.92086 0.0
H1984 H 0.45863 0.01648 0.70923 0.0
H1985 H 0.51628 0.03322 0.78599 0.0
H1986 H 0.54244 0.00458 0.73797 0.0
H1987 H 0.54901 0.97599 0.67342 0.0
H1988 H 0.49128 0.95823 0.59749 0.0
H1989 H 0.46519 0.98748 0.64476 0.0
C1990 C 0.47676 0.01345 0.71607 0.0
C1991 C 0.48549 0.02673 0.75143 0.0
C1992 C 0.49183 -0.00237 0.68758 0.0
C1993 C 0.50914 0.02289 0.75934 0.0
C1994 C 0.52415 0.00684 0.73155 0.0
C1995 C 0.53084 0.97874 0.66672 0.0
C1996 C 0.52211 0.96503 0.63183 0.0
C1997 C 0.51577 0.99451 0.69517 0.0
C1998 C 0.49845 0.96881 0.62385 0.0
C1999 C 0.48347 0.98517 0.65126 0.0
H2000 H 0.99702 0.95267 0.21392 0.0
H2001 H 0.05566 -0.00121 0.23876 0.0
H2002 H 0.03754 0.03203 0.20352 0.0
H2003 H 0.00573 0.04727 0.16413 0.0
H2004 H 0.94721 0.00103 0.13902 0.0
H2005 H 0.9654 0.96776 0.17405 0.0
C2006 C 0.00563 0.97018 0.21252 0.0
C2007 C 0.02753 0.97344 0.22947 0.0
C2008 C 0.99564 0.98869 0.19069 0.0
C2009 C 0.03861 0.99607 0.22661 0.0
C2010 C 0.02846 0.01487 0.20584 0.0
C2011 C 0.99717 0.02972 0.16539 0.0
C2012 C 0.97523 0.02648 0.1486 0.0
C2013 C 0.00723 0.01116 0.18704 0.0
C2014 C 0.96427 0.00376 0.15116 0.0
C2015 C 0.97445 0.98495 0.17181 0.0
H2016 H 0.49467 0.95978 0.25724 0.0
H2017 H 0.4428 0.01639 0.2378 0.0
H2018 H 0.47147 0.03574 0.19093 0.0
H2019 H 0.51104 0.03579 0.15356 0.0
H2020 H 0.56288 0.97919 0.17337 0.0
H2021 H 0.53447 0.96047 0.22149 0.0
C2022 C 0.48973 0.97635 0.24272 0.0
C2023 C 0.46678 0.98661 0.25067 0.0
C2024 C 0.50623 0.98728 0.21562 0.0
C2025 C 0.4605 0.0082 0.23209 0.0
C2026 C 0.47682 0.01923 0.20519 0.0
C2027 C 0.51605 0.01943 0.16857 0.0
C2028 C 0.53883 0.00877 0.15983 0.0
C2029 C 0.49968 0.00882 0.19643 0.0
C2030 C 0.54527 0.98759 0.17943 0.0
C2031 C 0.5291 0.9769 0.20703 0.0
H2032 H 0.99328 0.95854 0.61744 0.0
H2033 H 0.94378 0.0209 0.6412 0.0
H2034 H 0.97084 0.04306 0.68605 0.0
H2035 H 0.00691 0.04255 0.72408 0.0
H2036 H 0.05376 0.97768 0.7058 0.0
H2037 H 0.02907 0.95805 0.65423 0.0
C2038 C 0.98843 0.97686 0.63264 0.0
C2039 C 0.9666 0.9879 0.62698 0.0
C2040 C 0.00339 0.98877 0.65986 0.0
C2041 C 0.96058 0.01201 0.64565 0.0
C2042 C 0.97592 0.02459 0.67139 0.0
C2043 C 0.01167 0.02424 0.70845 0.0
C2044 C 0.03184 0.01144 0.71857 0.0
C2045 C 0.99709 0.01283 0.67965 0.0
C2046 C 0.03803 0.98767 0.6986 0.0
C2047 C 0.02405 0.97651 0.66902 0.0
H2048 H 0.00405 0.41984 0.04104 0.0
H2049 H 0.05985 0.37945 0.9608 0.0
H2050 H 0.03721 0.38202 0.89876 0.0
H2051 H 0.00316 0.39835 0.8663 0.0
H2052 H 0.94762 0.44064 0.94474 0.0
H2053 H 0.96847 0.43486 1.00824 0.0
C2054 C 0.01085 0.41093 1.01017 0.0
C2055 C 0.03335 0.39871 1.0058 0.0
C2056 C 0.99798 0.41333 0.97413 0.0
C2057 C 0.04237 0.38826 0.96525 0.0
C2058 C 0.02951 0.39002 0.92967 0.0
C2059 C 0.99542 0.40633 0.8972 0.0
C2060 C 0.97376 0.42016 0.90028 0.0
C2061 C 0.00756 0.40297 0.93353 0.0
C2062 C 0.96423 0.43007 0.94101 0.0
C2063 C 0.97618 0.4267 0.97746 0.0
H2064 H 0.85195 0.73807 0.12747 0.0
H2065 H 0.7896 0.7028 0.17547 0.0
H2066 H 0.79093 0.72618 0.24489 0.0
H2067 H 0.80809 0.75855 0.29037 0.0
H2068 H 0.87054 0.79396 0.24438 0.0
H2069 H 0.87138 0.76818 0.17594 0.0
C2070 C 0.83863 0.73561 0.15313 0.0
C2071 C 0.82041 0.71906 0.1461 0.0
C2072 C 0.83975 0.74885 0.19336 0.0
C2073 C 0.80364 0.71556 0.17993 0.0
C2074 C 0.80443 0.72887 0.21966 0.0
C2075 C 0.82222 0.76015 0.26564 0.0
C2076 C 0.83935 0.77787 0.27224 0.0
C2077 C 0.82223 0.74571 0.22656 0.0
C2078 C 0.85745 0.78008 0.24011 0.0
C2079 C 0.85769 0.7656 0.20089 0.0
H2080 H 0.50011 0.61342 0.40917 0.0
H2081 H 0.53499 0.54368 0.42635 0.0
H2082 H 0.51096 0.54156 0.4936 0.0
H2083 H 0.47872 0.5584 0.5461 0.0
H2084 H 0.44572 0.6296 0.53327 0.0
H2085 H 0.47032 0.63245 0.46615 0.0
C2086 C 0.50252 0.59782 0.42776 0.0
C2087 C 0.51923 0.57855 0.41225 0.0
C2088 C 0.48892 0.597 0.46722 0.0
C2089 C 0.52234 0.55872 0.43725 0.0
C2090 C 0.50851 0.55747 0.47574 0.0
C2091 C 0.47704 0.57466 0.52874 0.0
C2092 C 0.46024 0.5937 0.54446 0.0
C2093 C 0.49157 0.57632 0.4908 0.0
C2094 C 0.45849 0.61475 0.52194 0.0
C2095 C 0.4725 0.61628 0.48345 0.0
H2096 H 0.6648 0.25015 0.64988 0.0
H2097 H 0.71578 0.29931 0.70071 0.0
H2098 H 0.71928 0.3192 0.63412 0.0
H2099 H 0.70746 0.32297 0.56181 0.0
H2100 H 0.65712 0.27308 0.51044 0.0
H2101 H 0.65361 0.25334 0.57701 0.0
C2102 C 0.6766 0.26529 0.64645 0.0
C2103 C 0.68993 0.27329 0.68037 0.0
C2104 C 0.67858 0.27658 0.60801 0.0
C2105 C 0.70545 0.29265 0.67506 0.0
C2106 C 0.70736 0.30413 0.63706 0.0
C2107 C 0.69566 0.30782 0.56513 0.0
C2108 C 0.6825 0.29961 0.53106 0.0
C2109 C 0.69394 0.29631 0.60338 0.0
C2110 C 0.66747 0.2798 0.53599 0.0
C2111 C 0.66545 0.26848 0.57411 0.0
H2112 H 0.98786 0.58417 1.01411 0.0
H2113 H 0.93592 0.64381 1.01454 0.0
H2114 H 0.94157 0.64185 0.93657 0.0
H2115 H 0.9622 0.62389 0.86874 0.0
H2116 H 0.01588 0.56588 0.8698 0.0
H2117 H 0.00802 0.56596 0.94665 0.0
C2118 C 0.97753 0.59651 0.99707 0.0
C2119 C 0.96145 0.61406 1.01991 0.0
C2120 C 0.98111 0.59548 0.95254 0.0
C2121 C 0.9485 0.63025 0.99756 0.0
C2122 C 0.95169 0.62908 0.95306 0.0
C2123 C 0.9723 0.61135 0.88575 0.0
C2124 C 0.98962 0.5949 0.86325 0.0
C2125 C 0.96816 0.61195 0.93027 0.0
C2126 C 0.00218 0.57847 0.88593 0.0
C2127 C 0.99786 0.57865 0.93004 0.0
H2128 H 0.65243 0.75075 0.27272 0.0
H2129 H 0.61436 0.68392 0.25004 0.0
H2130 H 0.61263 0.69172 0.17535 0.0
H2131 H 0.62108 0.71819 0.11658 0.0
H2132 H 0.65832 0.78546 0.1406 0.0
H2133 H 0.66112 0.77685 0.21435 0.0
C2134 C 0.64359 0.73794 0.25158 0.0
C2135 C 0.63343 0.71683 0.26728 0.0
C2136 C 0.64249 0.74264 0.20871 0.0
C2137 C 0.62253 0.7002 0.23894 0.0
C2138 C 0.62139 0.70475 0.19621 0.0
C2139 C 0.6297 0.73103 0.13801 0.0
C2140 C 0.63956 0.75244 0.12275 0.0
C2141 C 0.63115 0.72601 0.18076 0.0
C2142 C 0.65091 0.76866 0.15103 0.0
C2143 C 0.65239 0.76383 0.19342 0.0
H2144 H 0.511 0.39828 0.48146 0.0
H2145 H 0.57907 0.36119 0.45018 0.0
H2146 H 0.57495 0.36364 0.37399 0.0
H2147 H 0.55064 0.37411 0.31638 0.0
H2148 H 0.4826 0.41136 0.34899 0.0
H2149 H 0.48814 0.41134 0.42461 0.0
C2150 C 0.52492 0.39077 0.45788 0.0
C2151 C 0.54511 0.37921 0.47111 0.0
C2152 C 0.52242 0.3923 0.41449 0.0
C2153 C 0.56332 0.37006 0.44053 0.0
C2154 C 0.56092 0.37139 0.39708 0.0
C2155 C 0.53711 0.38229 0.34012 0.0
C2156 C 0.5162 0.39261 0.3271 0.0
C2157 C 0.54035 0.3821 0.38368 0.0
C2158 C 0.49894 0.4035 0.35813 0.0
C2159 C 0.50201 0.40333 0.4014 0.0
H2160 H 0.8073 0.33073 0.84202 0.0
H2161 H 0.78836 0.26332 0.89702 0.0
H2162 H 0.79337 0.24033 0.82713 0.0
H2163 H 0.8043 0.23827 0.74982 0.0
H2164 H 0.82556 0.30473 0.694 0.0
H2165 H 0.81839 0.32852 0.7634 0.0
C2166 C 0.80407 0.31107 0.8387 0.0
C2167 C 0.79722 0.29909 0.87555 0.0
C2168 C 0.80757 0.29743 0.79768 0.0
C2169 C 0.79349 0.2734 0.86992 0.0
C2170 C 0.79646 0.26002 0.82961 0.0
C2171 C 0.8076 0.25791 0.75255 0.0
C2172 C 0.81549 0.26933 0.71563 0.0
C2173 C 0.80377 0.27168 0.79318 0.0
C2174 C 0.81913 0.29509 0.72089 0.0
C2175 C 0.81518 0.30886 0.76103 0.0
H2176 H 1.00011 0.58854 0.53013 0.0
H2177 H 0.05713 0.55147 0.4476 0.0
H2178 H 0.03625 0.55949 0.38516 0.0
H2179 H 1.00039 0.57512 0.35413 0.0
H2180 H 0.94338 0.61083 0.43783 0.0
H2181 H 0.96575 0.60568 0.49953 0.0
C2182 C 0.00811 0.58214 0.49856 0.0
C2183 C 0.0302 0.56909 0.49394 0.0
C2184 C 0.99602 0.58691 0.46283 0.0
C2185 C 0.04016 0.56133 0.45244 0.0
C2186 C 0.02821 0.56601 0.41662 0.0
C2187 C 0.99325 0.58244 0.38581 0.0
C2188 C 0.97052 0.59409 0.39134 0.0
C2189 C 0.00602 0.57865 0.4214 0.0
C2190 C 0.96105 0.60251 0.43268 0.0
C2191 C 0.97375 0.59927 0.46798 0.0
H2192 H 0.15281 0.28814 0.2345 0.0
H2193 H 0.17282 0.22899 0.30832 0.0
H2194 H 0.1671 0.19835 0.24882 0.0
H2195 H 0.15907 0.18866 0.17463 0.0
H2196 H 0.13822 0.24705 0.10005 0.0
H2197 H 0.14056 0.2777 0.16152 0.0
C2198 C 0.15601 0.26852 0.23722 0.0
C2199 C 0.16375 0.26071 0.27512 0.0
C2200 C 0.15203 0.25094 0.20321 0.0
C2201 C 0.16715 0.23531 0.27911 0.0
C2202 C 0.16376 0.21782 0.24526 0.0
C2203 C 0.15445 0.20803 0.17218 0.0
C2204 C 0.1485 0.21563 0.13298 0.0
C2205 C 0.15642 0.22545 0.20711 0.0
C2206 C 0.14252 0.24073 0.13011 0.0
C2207 C 0.14427 0.25829 0.16502 0.0
H2208 H 0.49396 0.38159 0.98306 0.0
H2209 H 0.45908 0.45117 0.96493 0.0
H2210 H 0.48322 0.45299 0.89761 0.0
H2211 H 0.51594 0.4361 0.84567 0.0
H2212 H 0.54905 0.36521 0.86023 0.0
H2213 H 0.52397 0.36248 0.92678 0.0
C2214 C 0.4915 0.39707 0.96421 0.0
C2215 C 0.47476 0.41638 0.97953 0.0
C2216 C 0.50524 0.39777 0.92486 0.0
C2217 C 0.4717 0.43607 0.9542 0.0
C2218 C 0.48562 0.43717 0.91568 0.0
C2219 C 0.51747 0.41991 0.86321 0.0
C2220 C 0.53445 0.4009 0.84809 0.0
C2221 C 0.50267 0.41832 0.90097 0.0
C2222 C 0.53611 0.37999 0.87099 0.0
C2223 C 0.52182 0.37854 0.90918 0.0
H2224 H 0.32364 0.70221 0.70904 0.0
H2225 H 0.35838 0.76588 0.76206 0.0
H2226 H 0.35319 0.75104 0.83313 0.0
H2227 H 0.33814 0.71999 0.88015 0.0
H2228 H 0.30382 0.65631 0.82498 0.0
H2229 H 0.30958 0.67105 0.75503 0.0
C2230 C 0.32995 0.71287 0.73625 0.0
C2231 C 0.34118 0.73512 0.73062 0.0
C2232 C 0.32705 0.70419 0.77663 0.0
C2233 C 0.34971 0.74861 0.76583 0.0
C2234 C 0.3467 0.74018 0.80638 0.0
C2235 C 0.33195 0.70937 0.85282 0.0
C2236 C 0.3205 0.68711 0.85807 0.0
C2237 C 0.3353 0.71799 0.8122 0.0
C2238 C 0.31266 0.67352 0.82218 0.0
C2239 C 0.31591 0.68193 0.78195 0.0
H2240 H 0.03814 0.34521 0.38591 0.0
H2241 H 0.05572 0.422 0.38378 0.0
H2242 H 0.04953 0.42794 0.4614 0.0
H2243 H 0.03592 0.41222 0.52955 0.0
H2244 H 0.0166 0.33589 0.53084 0.0
H2245 H 0.02666 0.32895 0.45417 0.0
C2246 C 0.04071 0.36322 0.40245 0.0
C2247 C 0.04722 0.38314 0.37897 0.0
C2248 C 0.03663 0.36667 0.44704 0.0
C2249 C 0.05092 0.40625 0.40099 0.0
C2250 C 0.04715 0.40975 0.44541 0.0
C2251 C 0.03392 0.39408 0.51302 0.0
C2252 C 0.02542 0.37466 0.53599 0.0
C2253 C 0.03947 0.39025 0.46869 0.0
C2254 C 0.02332 0.35113 0.51415 0.0
C2255 C 0.02893 0.34715 0.47019 0.0
H2256 H 0.39918 0.22702 0.10396 0.0
H2257 H 0.35744 0.29432 0.14264 0.0
H2258 H 0.35438 0.28405 0.21648 0.0
H2259 H 0.36384 0.25616 0.27048 0.0
H2260 H 0.40578 0.18899 0.23206 0.0
H2261 H 0.40841 0.19895 0.15798 0.0
C2262 C 0.38927 0.23934 0.12851 0.0
C2263 C 0.37862 0.26145 0.11766 0.0
C2264 C 0.38764 0.23336 0.17108 0.0
C2265 C 0.36609 0.27735 0.15007 0.0
C2266 C 0.36421 0.27143 0.19233 0.0
C2267 C 0.37338 0.24359 0.24583 0.0
C2268 C 0.38459 0.22185 0.25691 0.0
C2269 C 0.37495 0.24951 0.20326 0.0
C2270 C 0.39718 0.20597 0.22458 0.0
C2271 C 0.39862 0.2116 0.18213 0.0
H2272 H 0.50512 0.59705 0.04301 0.0
H2273 H 0.43771 0.63051 0.09354 0.0
H2274 H 0.42632 0.63335 1.02118 0.0
H2275 H 0.43651 0.62841 0.94341 0.0
H2276 H 0.50417 0.59519 0.89371 0.0
H2277 H 0.51437 0.58996 0.96585 0.0
C2278 C 0.48777 0.60456 0.03823 0.0
C2279 C 0.47232 0.61361 0.0736 0.0
C2280 C 0.48145 0.60635 0.99665 0.0
C2281 C 0.45004 0.62367 0.0668 0.0
C2282 C 0.44349 0.62524 1.02546 0.0
C2283 C 0.45335 0.61979 0.94844 0.0
C2284 C 0.46967 0.61249 0.91334 0.0
C2285 C 0.4592 0.61699 0.99012 0.0
C2286 C 0.49149 0.60141 0.92028 0.0
C2287 C 0.4973 0.5983 0.96149 0.0
H2288 H 0.14219 0.7543 0.6338 0.0
H2289 H 0.20122 0.71476 0.67684 0.0
H2290 H 0.20879 0.69198 0.60632 0.0
H2291 H 0.19891 0.68343 0.53107 0.0
H2292 H 0.14 0.72391 0.48933 0.0
H2293 H 0.13202 0.74548 0.56024 0.0
C2294 C 0.15659 0.74053 0.6281 0.0
C2295 C 0.17104 0.73644 0.66117 0.0
C2296 C 0.16088 0.72741 0.58729 0.0
C2297 C 0.18989 0.71872 0.65226 0.0
C2298 C 0.19416 0.70548 0.61182 0.0
C2299 C 0.18419 0.69678 0.53763 0.0
C2300 C 0.1701 0.70191 0.50447 0.0
C2301 C 0.17981 0.70965 0.57888 0.0
C2302 C 0.15127 0.71954 0.5138 0.0
C2303 C 0.14664 0.73199 0.55454 0.0
H2304 H 0.50465 0.90907 0.35757 0.0
H2305 H 0.44248 0.93116 0.44152 0.0
H2306 H 0.46362 0.92179 0.50307 0.0
H2307 H 0.50066 0.90877 0.53344 0.0
H2308 H 0.56285 0.88915 0.44853 0.0
H2309 H 0.54074 0.89552 0.38706 0.0
C2310 C 0.49557 0.91186 0.38925 0.0
C2311 C 0.47189 0.92103 0.39459 0.0
C2312 C 0.50785 0.90647 0.42445 0.0
C2313 C 0.46068 0.92443 0.4362 0.0
C2314 C 0.47277 0.9189 0.47147 0.0
C2315 C 0.50912 0.90519 0.50136 0.0
C2316 C 0.53326 0.89768 0.49547 0.0
C2317 C 0.49642 0.90994 0.46605 0.0
C2318 C 0.54422 0.89422 0.45383 0.0
C2319 C 0.53162 0.89817 0.41871 0.0
H2320 H 0.34922 0.19611 0.65403 0.0
H2321 H 0.32778 0.25534 0.58161 0.0
H2322 H 0.33238 0.28575 0.64212 0.0
H2323 H 0.34002 0.29501 0.71669 0.0
H2324 H 0.36318 0.23654 0.78904 0.0
H2325 H 0.36138 0.20625 0.72689 0.0
C2326 C 0.34556 0.2157 0.65177 0.0
C2327 C 0.33773 0.22363 0.61408 0.0
C2328 C 0.34899 0.23311 0.6862 0.0
C2329 C 0.33358 0.24898 0.61069 0.0
C2330 C 0.33631 0.26631 0.6451 0.0
C2331 C 0.34522 0.27572 0.71846 0.0
C2332 C 0.35169 0.26792 0.75714 0.0
C2333 C 0.34379 0.25855 0.68306 0.0
C2334 C 0.35844 0.24295 0.7593 0.0
C2335 C 0.35704 0.22561 0.72403 0.0
H2336 H 0.96308 0.05082 1.02081 0.0
H2337 H 0.96793 0.13012 0.04323 0.0
H2338 H 0.99424 0.13002 0.97727 0.0
H2339 H 0.01566 0.10698 0.91224 0.0
H2340 H 0.01302 0.0273 0.89559 0.0
H2341 H 0.98593 0.02796 0.95999 0.0
C2342 C 0.9697 0.06823 1.01133 0.0
C2343 C 0.96306 0.09059 0.03684 0.0
C2344 C 0.98528 0.06787 0.97421 0.0
C2345 C 0.97248 0.11271 1.02425 0.0
C2346 C 0.98754 0.11261 0.98645 0.0
C2347 C 0.00915 0.0898 0.92289 0.0
C2348 C 0.01625 0.06705 0.89891 0.0
C2349 C 0.99403 0.09028 0.96103 0.0
C2350 C 0.00794 0.04495 0.91342 0.0
C2351 C 0.99238 0.04535 0.95023 0.0
H2352 H 0.18794 0.82916 0.06135 0.0
H2353 H 0.15725 0.76736 0.99273 0.0
H2354 H 0.14858 0.74856 0.05925 0.0
H2355 H 0.15066 0.74914 0.13658 0.0
H2356 H 0.18228 0.81027 0.20476 0.0
H2357 H 0.18947 0.83005 0.13849 0.0
C2358 C 0.17935 0.8116 0.06082 0.0
C2359 C 0.17334 0.79967 1.02205 0.0
C2360 C 0.17458 0.8008 0.09907 0.0
C2361 C 0.1621 0.77695 1.02211 0.0
C2362 C 0.15714 0.76616 0.06012 0.0
C2363 C 0.159 0.76687 0.13686 0.0
C2364 C 0.16593 0.77831 0.17525 0.0
C2365 C 0.16342 0.77786 0.09871 0.0
C2366 C 0.17698 0.80111 0.17537 0.0
C2367 C 0.18107 0.81239 0.13761 0.0
H2368 H 0.47845 0.09157 0.37337 0.0
H2369 H 0.51311 0.16113 0.37039 0.0
H2370 H 0.50369 0.17006 0.44705 0.0
H2371 H 0.48759 0.15716 0.51548 0.0
H2372 H 0.454 0.08702 0.51933 0.0
H2373 H 0.46053 0.07955 0.44185 0.0
C2374 C 0.48395 0.10865 0.38958 0.0
C2375 C 0.49656 0.1256 0.36625 0.0
C2376 C 0.47856 0.11364 0.4338 0.0
C2377 C 0.50324 0.14786 0.38754 0.0
C2378 C 0.49795 0.15294 0.43141 0.0
C2379 C 0.48166 0.14026 0.49936 0.0
C2380 C 0.47052 0.12261 0.52327 0.0
C2381 C 0.48588 0.13584 0.45492 0.0
C2382 C 0.46247 0.10104 0.50177 0.0
C2383 C 0.46641 0.09662 0.45744 0.0
H2384 H 0.14781 0.27298 0.64682 0.0
H2385 H 0.07975 0.24381 0.62483 0.0
H2386 H 0.07598 0.23043 0.69643 0.0
H2387 H 0.09211 0.22616 0.76488 0.0
H2388 H 0.1613 0.25262 0.7856 0.0
H2389 H 0.16435 0.26795 0.71521 0.0
C2390 C 0.13223 0.26351 0.65748 0.0
C2391 C 0.11407 0.25958 0.63022 0.0
C2392 C 0.13029 0.25539 0.69866 0.0
C2393 C 0.09386 0.24758 0.64513 0.0
C2394 C 0.09173 0.2397 0.68608 0.0
C2395 C 0.10799 0.23505 0.75397 0.0
C2396 C 0.12642 0.23814 0.78081 0.0
C2397 C 0.10987 0.2434 0.71305 0.0
C2398 C 0.14662 0.25025 0.76614 0.0
C2399 C 0.14849 0.25887 0.72563 0.0
H2400 H 0.06487 0.88286 0.941 0.0
H2401 H 0.9954 0.91132 0.99044 0.0
H2402 H 0.98641 0.9201 0.91922 0.0
H2403 H 0.99711 0.91698 0.84238 0.0
H2404 H 0.0667 0.88936 0.79235 0.0
H2405 H 0.07688 0.88331 0.86439 0.0
C2406 C 0.04789 0.89129 0.93628 0.0
C2407 C 0.0307 0.89596 0.97095 0.0
C2408 C 0.04281 0.89642 0.89513 0.0
C2409 C 0.00875 0.90687 0.96418 0.0
C2410 C 0.00363 0.9121 0.92349 0.0
C2411 C 0.0147 0.91019 0.84725 0.0
C2412 C 0.03105 0.90349 0.81196 0.0
C2413 C 0.02036 0.90656 0.88864 0.0
C2414 C 0.05365 0.89435 0.81892 0.0
C2415 C 0.0595 0.89089 0.86011 0.0
H2416 H 0.29975 0.80951 0.35492 0.0
H2417 H 0.35627 0.76525 0.39633 0.0
H2418 H 0.36339 0.74382 0.32517 0.0
H2419 H 0.35337 0.73645 0.25105 0.0
H2420 H 0.29667 0.77982 0.20846 0.0
H2421 H 0.2898 0.80215 0.27944 0.0
C2422 C 0.31374 0.79531 0.34831 0.0
C2423 C 0.32742 0.78919 0.38155 0.0
C2424 C 0.31765 0.78254 0.3068 0.0
C2425 C 0.34531 0.77048 0.37195 0.0
C2426 C 0.34945 0.7581 0.331 0.0
C2427 C 0.33961 0.75092 0.25696 0.0
C2428 C 0.32563 0.75622 0.22373 0.0
C2429 C 0.33569 0.7638 0.29815 0.0
C2430 C 0.30763 0.77489 0.23302 0.0
C2431 C 0.30375 0.78788 0.27379 0.0
H2432 H 0.45839 0.06667 0.92611 0.0
H2433 H 0.50405 0.11417 0.85758 0.0
H2434 H 0.53446 0.10811 0.90674 0.0
H2435 H 0.54845 0.08832 0.96934 0.0
H2436 H 0.5018 0.041 0.03611 0.0
H2437 H 0.47188 0.04724 0.98678 0.0
C2438 C 0.47494 0.07581 0.92174 0.0
C2439 C 0.47873 0.09089 0.88789 0.0
C2440 C 0.49251 0.07172 0.94942 0.0
C2441 C 0.50036 0.1027 0.88347 0.0
C2442 C 0.51792 0.09897 0.91135 0.0
C2443 C 0.53193 0.07899 0.97233 0.0
C2444 C 0.52756 0.06369 1.0058 0.0
C2445 C 0.51436 0.08322 0.94419 0.0
C2446 C 0.50576 0.0524 1.01016 0.0
C2447 C 0.48854 0.05617 0.98219 0.0
H2448 H 0.67675 0.68906 0.67326 0.0
H2449 H 0.63918 0.74119 0.60581 0.0
H2450 H 0.64222 0.77357 0.66448 0.0
H2451 H 0.65846 0.78765 0.73292 0.0
H2452 H 0.69558 0.73457 0.79919 0.0
H2453 H 0.69068 0.70208 0.74214 0.0
C2454 C 0.66888 0.70741 0.67166 0.0
C2455 C 0.65778 0.71276 0.63531 0.0
C2456 C 0.67132 0.72592 0.70466 0.0
C2457 C 0.64753 0.73654 0.63375 0.0
C2458 C 0.64963 0.75514 0.66695 0.0
C2459 C 0.66565 0.769 0.73438 0.0
C2460 C 0.6778 0.76345 0.7695 0.0
C2461 C 0.66209 0.75021 0.70202 0.0
C2462 C 0.68648 0.73918 0.77201 0.0
C2463 C 0.6835 0.72061 0.73967 0.0
H2464 H 0.00951 0.92492 0.32127 0.0
H2465 H 0.06534 0.88456 0.37207 0.0
H2466 H 0.04186 0.88553 0.44094 0.0
H2467 H 0.00642 0.89988 0.48802 0.0
H2468 H 0.9506 0.94103 0.43803 0.0
H2469 H 0.97297 0.93775 0.36794 0.0
C2470 C 0.01626 0.91581 0.34717 0.0
C2471 C 0.03897 0.90407 0.34115 0.0
C2472 C 0.00275 0.91694 0.38712 0.0
C2473 C 0.04778 0.89315 0.37548 0.0
C2474 C 0.03439 0.89393 0.41501 0.0
C2475 C 0.999 0.90812 0.46187 0.0
C2476 C 0.97672 0.92089 0.46886 0.0
C2477 C 0.012 0.9061 0.42146 0.0
C2478 C 0.96757 0.93114 0.43404 0.0
C2479 C 0.98043 0.92926 0.39379 0.0
H2480 H 0.81972 0.20069 0.20114 0.0
H2481 H 0.80637 0.27615 0.25601 0.0
H2482 H 0.80738 0.26261 0.32771 0.0
H2483 H 0.81194 0.22894 0.37489 0.0
H2484 H 0.82393 0.15366 0.31834 0.0
H2485 H 0.82449 0.16758 0.24738 0.0
C2486 C 0.8173 0.21425 0.22873 0.0
C2487 C 0.81309 0.23939 0.22316 0.0
C2488 C 0.81798 0.20638 0.26964 0.0
C2489 C 0.80943 0.25662 0.25939 0.0
C2490 C 0.8102 0.24893 0.30038 0.0
C2491 C 0.81493 0.21572 0.34696 0.0
C2492 C 0.81805 0.19033 0.35189 0.0
C2493 C 0.8145 0.22383 0.30592 0.0
C2494 C 0.82154 0.17329 0.31546 0.0
C2495 C 0.82177 0.18123 0.27479 0.0
H2496 H 0.51445 0.90579 0.87364 0.0
H2497 H 0.54947 0.83384 0.87063 0.0
H2498 H 0.54281 0.83529 0.94843 0.0
H2499 H 0.52599 0.85673 1.01696 0.0
H2500 H 0.4909 0.9286 1.01879 0.0
H2501 H 0.49888 0.92762 0.94158 0.0
C2502 C 0.52095 0.89057 0.89004 0.0
C2503 C 0.53255 0.8698 0.86652 0.0
C2504 C 0.51701 0.89153 0.93445 0.0
C2505 C 0.54037 0.84996 0.88809 0.0
C2506 C 0.53665 0.85084 0.93251 0.0
C2507 C 0.52038 0.87228 1.00043 0.0
C2508 C 0.50784 0.89268 1.02341 0.0
C2509 C 0.52487 0.87149 0.95597 0.0
C2510 C 0.50037 0.91259 1.00165 0.0
C2511 C 0.50497 0.91207 0.95758 0.0
H2512 H 0.85058 0.79865 0.66525 0.0
H2513 H 0.86204 0.72379 0.60627 0.0
H2514 H 0.86259 0.70829 0.67632 0.0
H2515 H 0.86045 0.71593 0.7545 0.0
H2516 H 0.84947 0.79082 0.81357 0.0
H2517 H 0.84801 0.80625 0.74358 0.0
C2518 C 0.85332 0.77896 0.66771 0.0
C2519 C 0.85627 0.76245 0.63039 0.0
C2520 C 0.85367 0.77012 0.70822 0.0
C2521 C 0.85944 0.73693 0.63434 0.0
C2522 C 0.8599 0.72803 0.67444 0.0
C2523 C 0.85788 0.73565 0.75207 0.0
C2524 C 0.85514 0.75215 0.7894 0.0
C2525 C 0.85713 0.74445 0.71162 0.0
C2526 C 0.8514 0.77762 0.78553 0.0
C2527 C 0.8507 0.7865 0.74544 0.0
H2528 H 0.97751 0.14519 0.56431 0.0
H2529 H 0.97207 0.06567 0.55666 0.0
H2530 H 0.96197 0.06539 0.48301 0.0
H2531 H 0.95665 0.08751 0.4194 0.0
H2532 H 0.96175 0.16705 0.42778 0.0
H2533 H 0.96963 0.16752 0.50257 0.0
C2534 C 0.97372 0.12781 0.54688 0.0
C2535 C 0.97571 0.10548 0.56618 0.0
C2536 C 0.96791 0.12776 0.50448 0.0
C2537 C 0.97108 0.08312 0.54257 0.0
C2538 C 0.96517 0.08295 0.50044 0.0
C2539 C 0.95908 0.105 0.43779 0.0
C2540 C 0.95875 0.12721 0.41779 0.0
C2541 C 0.96381 0.10512 0.48086 0.0
C2542 C 0.96223 0.14965 0.4421 0.0
C2543 C 0.96669 0.14994 0.48494 0.0
H2544 H 0.69999 0.23193 1.00833 0.0
H2545 H 0.6895 0.15688 0.03892 0.0
H2546 H 0.68065 0.17176 0.11426 0.0
H2547 H 0.67457 0.20638 0.17174 0.0
H2548 H 0.687 0.28112 0.14059 0.0
H2549 H 0.69611 0.26605 0.06596 0.0
C2550 C 0.69581 0.21874 1.03139 0.0
C2551 C 0.69536 0.1932 1.01744 0.0
C2552 C 0.69086 0.22744 0.07497 0.0
C2553 C 0.69009 0.17657 0.04831 0.0
C2554 C 0.68493 0.18512 0.09159 0.0
C2555 C 0.67948 0.21945 0.14889 0.0
C2556 C 0.67959 0.24513 0.16264 0.0
C2557 C 0.68511 0.21057 0.1054 0.0
C2558 C 0.68597 0.26145 0.13164 0.0
C2559 C 0.69143 0.25279 0.08863 0.0
H2560 H 0.11236 0.50536 0.6979 0.0
H2561 H 0.0747 0.5706 0.76081 0.0
H2562 H 0.07866 0.55526 0.83006 0.0
H2563 H 0.09128 0.52262 0.87329 0.0
H2564 H 0.12761 0.45637 0.81115 0.0
H2565 H 0.1259 0.47277 0.74196 0.0
C2566 C 0.10553 0.51644 0.72684 0.0
C2567 C 0.0935 0.5393 0.72394 0.0
C2568 C 0.10739 0.50717 0.76703 0.0
C2569 C 0.0842 0.55307 0.7619 0.0
C2570 C 0.08634 0.54423 0.80167 0.0
C2571 C 0.0987 0.51162 0.84467 0.0
C2572 C 0.10955 0.48817 0.84795 0.0
C2573 C 0.09754 0.52112 0.80468 0.0
C2574 C 0.11938 0.47456 0.81013 0.0
C2575 C 0.11833 0.48391 0.7703 0.0
H2576 H 0.67892 0.82262 1.03136 0.0
H2577 H 0.72336 0.8751 0.97222 0.0
H2578 H 0.743 0.88248 0.03788 0.0
H2579 H 0.74892 0.87245 0.11129 0.0
H2580 H 0.70543 0.81826 0.16798 0.0
H2581 H 0.68429 0.8132 0.10408 0.0
C2582 C 0.69276 0.83585 1.03268 0.0
C2583 C 0.69957 0.84821 0.99647 0.0
C2584 C 0.7044 0.83954 0.0702 0.0
C2585 C 0.71758 0.86533 0.99939 0.0
C2586 C 0.72897 0.86944 0.03695 0.0
C2587 C 0.73493 0.85939 0.10963 0.0
C2588 C 0.72887 0.84581 0.14482 0.0
C2589 C 0.72283 0.85632 0.07236 0.0
C2590 C 0.71038 0.82926 0.14197 0.0
C2591 C 0.69829 0.82623 0.10525 0.0
H2592 H 0.37749 0.48371 0.37601 0.0
H2593 H 0.45027 0.4748 0.4024 0.0
H2594 H 0.46014 0.455 0.33062 0.0
H2595 H 0.44873 0.4407 0.25909 0.0
H2596 H 0.37644 0.45064 0.23106 0.0
H2597 H 0.36609 0.46953 0.30382 0.0
C2598 C 0.39558 0.47767 0.36618 0.0
C2599 C 0.41295 0.48084 0.39573 0.0
C2600 C 0.40136 0.46633 0.32404 0.0
C2601 C 0.43622 0.47239 0.38155 0.0
C2602 C 0.44201 0.46112 0.34002 0.0
C2603 C 0.43063 0.44678 0.26879 0.0
C2604 C 0.41341 0.44392 0.23901 0.0
C2605 C 0.42478 0.45795 0.31089 0.0
C2606 C 0.39014 0.45234 0.25278 0.0
C2607 C 0.38419 0.46327 0.29461 0.0
H2608 H 0.78426 0.18006 0.62348 0.0
H2609 H 0.77212 0.10343 0.58553 0.0
H2610 H 0.75234 0.09912 0.65644 0.0
H2611 H 0.73715 0.11782 0.73007 0.0
H2612 H 0.74779 0.19547 0.76322 0.0
H2613 H 0.76927 0.19843 0.69441 0.0
C2614 C 0.77749 0.16227 0.63054 0.0
C2615 C 0.78 0.14207 0.59866 0.0
C2616 C 0.7656 0.16008 0.67112 0.0
C2617 C 0.77066 0.11937 0.60902 0.0
C2618 C 0.75925 0.11689 0.64979 0.0
C2619 C 0.74427 0.13531 0.72226 0.0
C2620 C 0.74061 0.15641 0.75243 0.0
C2621 C 0.75641 0.13719 0.68128 0.0
C2622 C 0.74996 0.17892 0.74106 0.0
C2623 C 0.76239 0.18069 0.70146 0.0
H2624 H 0.88325 0.46034 0.67103 0.0
H2625 H 0.95927 0.45865 0.65225 0.0
H2626 H 0.95748 0.47755 0.58616 0.0
H2627 H 0.93498 0.49468 0.53233 0.0
H2628 H 0.85903 0.49625 0.54798 0.0
H2629 H 0.8603 0.47795 0.61566 0.0
C2630 C 0.89938 0.4641 0.65246 0.0
C2631 C 0.92134 0.45746 0.66692 0.0
C2632 C 0.89836 0.47519 0.61341 0.0
C2633 C 0.94201 0.46281 0.64209 0.0
C2634 C 0.94109 0.47387 0.60402 0.0
C2635 C 0.91862 0.49084 0.55012 0.0
C2636 C 0.89696 0.49703 0.53435 0.0
C2637 C 0.91943 0.48 0.58907 0.0
C2638 C 0.87607 0.49217 0.55902 0.0
C2639 C 0.87676 0.48147 0.59789 0.0
H2640 H 0.29273 0.13446 0.24071 0.0
H2641 H 0.22285 0.14686 0.30467 0.0
H2642 H 0.23881 0.14473 0.37345 0.0
H2643 H 0.2729 0.14173 0.41655 0.0
H2644 H 0.34296 0.13334 0.35321 0.0
H2645 H 0.32675 0.13127 0.28368 0.0
C2646 C 0.28092 0.13687 0.26959 0.0
C2647 C 0.25645 0.14072 0.26683 0.0
C2648 C 0.2903 0.13604 0.30953 0.0
C2649 C 0.24164 0.14343 0.30513 0.0
C2650 C 0.25079 0.14233 0.34478 0.0
C2651 C 0.28455 0.13869 0.3875 0.0
C2652 C 0.30913 0.13695 0.39015 0.0
C2653 C 0.2751 0.1387 0.34749 0.0
C2654 C 0.324 0.13411 0.3521 0.0
C2655 C 0.31472 0.13322 0.3123 0.0
H2656 H 0.62005 0.51051 1.02111 0.0
H2657 H 0.54818 0.52229 0.99134 0.0
H2658 H 0.53829 0.5438 0.06188 0.0
H2659 H 0.54933 0.55861 0.13349 0.0
H2660 H 0.62059 0.54555 0.16496 0.0
H2661 H 0.63109 0.5253 0.09319 0.0
C2662 C 0.60214 0.51756 1.02993 0.0
C2663 C 0.58505 0.51466 0.99981 0.0
C2664 C 0.59633 0.52987 0.07136 0.0
C2665 C 0.56203 0.52442 1.01267 0.0
C2666 C 0.55622 0.53668 0.05348 0.0
C2667 C 0.56727 0.55163 0.12467 0.0
C2668 C 0.58415 0.554 0.15514 0.0
C2669 C 0.57318 0.53956 0.0832 0.0
C2670 C 0.60716 0.5443 0.14263 0.0
C2671 C 0.6132 0.53257 0.10139 0.0
H2672 H 0.2278 0.81069 0.76628 0.0
H2673 H 0.22927 0.88989 0.79408 0.0
H2674 H 0.25284 0.89296 0.72606 0.0
H2675 H 0.27372 0.87267 0.65769 0.0
H2676 H 0.27455 0.79283 0.63577 0.0
H2677 H 0.24973 0.79063 0.70154 0.0
C2678 C 0.23309 0.82872 0.75746 0.0
C2679 C 0.22633 0.85008 0.78541 0.0
C2680 C 0.24734 0.83023 0.71892 0.0
C2681 C 0.23398 0.87312 0.77341 0.0
C2682 C 0.24753 0.87486 0.73434 0.0
C2683 C 0.26849 0.85482 0.66737 0.0
C2684 C 0.27624 0.83294 0.64119 0.0
C2685 C 0.25445 0.8535 0.70666 0.0
C2686 C 0.26924 0.81002 0.6549 0.0
C2687 C 0.25486 0.80869 0.6927 0.0
H2688 H 0.59729 0.02564 0.3792 0.0
H2689 H 0.62012 0.95318 0.31933 0.0
H2690 H 0.61928 0.96842 0.2491 0.0
H2691 H 0.61016 0.00203 0.20355 0.0
H2692 H 0.58572 0.07376 0.26414 0.0
H2693 H 0.58915 0.05921 0.33424 0.0
C2694 C 0.60197 0.01306 0.35089 0.0
C2695 C 0.60879 0.98816 0.35523 0.0
C2696 C 0.60131 0.02193 0.31019 0.0
C2697 C 0.6151 0.97247 0.31762 0.0
C2698 C 0.61453 0.98118 0.27714 0.0
C2699 C 0.60617 0.01463 0.23208 0.0
C2700 C 0.59805 0.03916 0.22825 0.0
C2701 C 0.6076 0.00588 0.27286 0.0
C2702 C 0.59226 0.05492 0.26586 0.0
C2703 C 0.59406 0.04654 0.30615 0.0
H2704 H 0.17558 0.31862 0.53486 0.0
H2705 H 0.21719 0.37321 0.47535 0.0
H2706 H 0.2401 0.378 0.53771 0.0
H2707 H 0.24994 0.36477 0.60771 0.0
H2708 H 0.20806 0.30966 0.66547 0.0
H2709 H 0.18423 0.3067 0.60495 0.0
C2710 C 0.18943 0.33189 0.53549 0.0
C2711 C 0.19441 0.34565 0.50004 0.0
C2712 C 0.20293 0.3341 0.57105 0.0
C2713 C 0.21266 0.36252 0.50198 0.0
C2714 C 0.22595 0.3651 0.53764 0.0
C2715 C 0.23549 0.35225 0.60738 0.0
C2716 C 0.23122 0.33725 0.64153 0.0
C2717 C 0.22152 0.3507 0.57217 0.0
C2718 C 0.21238 0.32104 0.6397 0.0
C2719 C 0.19848 0.31949 0.6051 0.0
H2720 H 0.8755 0.98774 0.86765 0.0
H2721 H 0.94925 0.99269 0.8886 0.0
H2722 H 0.96009 0.97494 0.81602 0.0
H2723 H 0.94933 0.95819 0.74547 0.0
H2724 H 0.87604 0.95466 0.72173 0.0
H2725 H 0.86467 0.97185 0.7954 0.0
C2726 C 0.89398 0.9852 0.85652 0.0
C2727 C 0.91137 0.9915 0.88513 0.0
C2728 C 0.90035 0.97516 0.81358 0.0
C2729 C 0.9352 0.98763 0.8689 0.0
C2730 C 0.94154 0.97759 0.82677 0.0
C2731 C 0.9308 0.961 0.7562 0.0
C2732 C 0.91363 0.95475 0.72736 0.0
C2733 C 0.92434 0.97118 0.79876 0.0
C2734 C 0.88977 0.95906 0.74259 0.0
C2735 C 0.88323 0.96897 0.785 0.0
H2736 H 0.22584 0.61961 0.22959 0.0
H2737 H 0.22707 0.69934 0.25157 0.0
H2738 H 0.252 0.70093 0.18576 0.0
H2739 H 0.27313 0.68043 0.12067 0.0
H2740 H 0.2699 0.60134 0.09318 0.0
H2741 H 0.24646 0.59883 0.16144 0.0
C2742 C 0.23157 0.6373 0.21995 0.0
C2743 C 0.2243 0.65934 0.24607 0.0
C2744 C 0.24572 0.63827 0.18068 0.0
C2745 C 0.23197 0.68204 0.23244 0.0
C2746 C 0.24642 0.68303 0.19462 0.0
C2747 C 0.26753 0.66253 0.12961 0.0
C2748 C 0.2737 0.64105 0.10159 0.0
C2749 C 0.25337 0.66135 0.16834 0.0
C2750 C 0.26566 0.6182 0.11386 0.0
C2751 C 0.25216 0.61678 0.15306 0.0
H2752 H 0.44246 0.94589 0.13209 0.0
H2753 H 0.37453 0.97176 0.19324 0.0
H2754 H 0.36611 0.99202 0.1295 0.0
H2755 H 0.37873 0.00356 0.05686 0.0
H2756 H 0.44621 0.97524 0.99608 0.0
H2757 H 0.454 0.95515 0.05931 0.0
C2758 C 0.42559 0.95558 0.13157 0.0
C2759 C 0.4091 0.95694 0.16779 0.0
C2760 C 0.42087 0.96714 0.0948 0.0
C2761 C 0.38755 0.9701 0.16605 0.0
C2762 C 0.38277 0.98182 0.12952 0.0
C2763 C 0.39506 0.99279 0.05703 0.0
C2764 C 0.41195 0.99151 1.02116 0.0
C2765 C 0.39938 0.98062 0.0937 0.0
C2766 C 0.43304 0.97745 1.02299 0.0
C2767 C 0.43748 0.96561 0.05923 0.0
H2768 H 0.80627 0.68364 0.88008 0.0
H2769 H 0.78807 0.61137 0.91664 0.0
H2770 H 0.76957 0.60275 0.84987 0.0
H2771 H 0.75754 0.61615 0.7815 0.0
H2772 H 0.77574 0.68873 0.74627 0.0
H2773 H 0.79477 0.69676 0.8121 0.0
C2774 C 0.79849 0.66583 0.87347 0.0
C2775 C 0.79886 0.6481 0.9037 0.0
C2776 C 0.78752 0.66113 0.8352 0.0
C2777 C 0.78828 0.62536 0.89425 0.0
C2778 C 0.77759 0.62044 0.85597 0.0
C2779 C 0.7658 0.63368 0.78794 0.0
C2780 C 0.76491 0.65182 0.75841 0.0
C2781 C 0.77695 0.63824 0.82623 0.0
C2782 C 0.77559 0.67451 0.76821 0.0
C2783 C 0.78673 0.67908 0.8059 0.0
H2784 H 0.09739 0.03763 0.49226 0.0
H2785 H 0.1063 0.96136 0.51884 0.0
H2786 H 0.10257 0.97412 0.59523 0.0
H2787 H 0.09551 0.00703 0.65602 0.0
H2788 H 0.08547 0.08292 0.62875 0.0
H2789 H 0.09148 0.07035 0.55229 0.0
C2790 C 0.09882 0.02371 0.51453 0.0
C2791 C 0.10205 -0.00163 0.49878 0.0
C2792 C 0.09668 0.03121 0.55902 0.0
C2793 C 0.10341 0.9809 0.52913 0.0
C2794 C 0.10148 0.98824 0.57322 0.0
C2795 C 0.09526 0.02088 0.63336 0.0
C2796 C 0.09057 0.04609 0.64862 0.0
C2797 C 0.09803 0.01335 0.58877 0.0
C2798 C 0.08943 0.06352 0.61833 0.0
C2799 C 0.09269 0.05628 0.57436 0.0
H2800 H 0.75283 0.35972 0.29802 0.0
H2801 H 0.68262 0.34874 0.26063 0.0
H2802 H 0.69687 0.35002 0.18578 0.0
H2803 H 0.7298 0.35166 0.12921 0.0
H2804 H 0.8006 0.35809 0.16559 0.0
H2805 H 0.78588 0.36133 0.24117 0.0
C2806 C 0.74055 0.35813 0.2736 0.0
C2807 C 0.71642 0.35464 0.28571 0.0
C2808 C 0.74912 0.35796 0.22976 0.0
C2809 C 0.70113 0.35177 0.25291 0.0
C2810 C 0.70933 0.35241 0.20977 0.0
C2811 C 0.74195 0.35435 0.1537 0.0
C2812 C 0.76634 0.35539 0.14129 0.0
C2813 C 0.73334 0.35521 0.19754 0.0
C2814 C 0.78178 0.35782 0.17384 0.0
C2815 C 0.77331 0.35952 0.21728 0.0
loop_
_geom_bond_atom_site_label_1
_geom_bond_atom_site_label_2
_geom_bond_distance
_geom_bond_site_symmetry_2
_ccdc_geom_bond_type
Gd0 C3 2.818 . S
Gd0 O20 2.377 . S
Gd0 O22 2.448 . S
Gd0 O23 2.506 . S
Gd0 O24 2.435 . S
Gd0 O25 2.717 . S
Gd0 O27 2.395 . S
Gd0 O31 2.327 . S
Gd1 C12 2.818 1_554 S
Gd1 O21 2.395 . S
Gd1 O25 2.327 . S
Gd1 O26 2.377 . S
Gd1 O28 2.448 . S
Gd1 O29 2.506 . S
Gd1 O30 2.435 . S
Gd1 O31 2.717 . S
C2 O20 1.240 . S
C2 O21 1.240 . S
C3 Gd0 2.818 . S
C3 C4 1.510 . S
C3 O22 1.249 . S
C3 O23 1.252 . S
C4 C3 1.510 . S
C4 C5 1.404 . S
C4 C6 1.352 . S
C5 C4 1.404 . S
C5 C9 1.393 . S
C5 H32 0.930 1_455 S
C6 C4 1.352 . S
C6 C8 1.374 . S
C6 H33 0.931 . S
C7 C8 1.359 . S
C7 C9 1.398 . S
C8 C6 1.374 . S
C8 C7 1.359 . S
C8 H34 0.931 . S
C9 C5 1.393 . S
C9 C7 1.398 . S
C9 H35 0.893 1_455 S
C10 O24 1.256 . S
C10 O25 1.257 . S
C11 O26 1.240 . S
C11 O27 1.240 . S
C12 Gd1 2.818 1_556 S
C12 C13 1.510 . S
C12 O28 1.249 1_556 S
C12 O29 1.252 1_556 S
C13 C12 1.510 . S
C13 C14 1.404 . S
C13 C15 1.352 . S
C14 C13 1.404 . S
C14 C18 1.389 . S
C14 H36 0.930 . S
C15 C13 1.352 . S
C15 C17 1.374 . S
C15 H37 0.931 . S
C16 C17 1.359 . S
C16 C18 1.364 . S
C17 C15 1.374 . S
C17 C16 1.359 . S
C17 H38 0.931 . S
C18 C14 1.389 . S
C18 C16 1.364 . S
C18 H39 0.931 . S
C19 O30 1.256 . S
C19 O31 1.257 . S
O20 Gd0 2.377 . S
O20 C2 1.240 . S
O21 Gd1 2.395 . S
O21 C2 1.240 . S
O22 Gd0 2.448 . S
O22 C3 1.249 . S
O23 Gd0 2.506 . S
O23 C3 1.252 . S
O24 Gd0 2.435 . S
O24 C10 1.256 . S
O25 Gd0 2.717 . S
O25 Gd1 2.327 . S
O25 C10 1.257 . S
O26 Gd1 2.377 . S
O26 C11 1.240 . S
O27 Gd0 2.395 . S
O27 C11 1.240 . S
O28 Gd1 2.448 . S
O28 C12 1.249 1_554 S
O29 Gd1 2.506 . S
O29 C12 1.252 1_554 S
O30 Gd1 2.435 . S
O30 C19 1.256 . S
O31 Gd0 2.327 . S
O31 Gd1 2.717 . S
O31 C19 1.257 . S
H32 C5 0.930 1_655 S
H33 C6 0.931 . S
H34 C8 0.931 . S
H35 C9 0.893 1_655 S
H36 C14 0.930 . S
H37 C15 0.931 . S
H38 C17 0.931 . S
H39 C18 0.931 . S
Gd40 C43 2.818 . S
Gd40 O60 2.377 . S
Gd40 O62 2.448 . S
Gd40 O63 2.506 . S
Gd40 O64 2.435 . S
Gd40 O65 2.717 . S
Gd40 O67 2.395 . S
Gd40 O71 2.327 . S
Gd41 C52 2.818 . S
Gd41 O61 2.395 . S
Gd41 O65 2.327 . S
Gd41 O66 2.377 . S
Gd41 O68 2.448 . S
Gd41 O69 2.506 . S
Gd41 O70 2.435 . S
Gd41 O71 2.717 . S
C42 O60 1.240 . S
C42 O61 1.240 . S
C43 Gd40 2.818 . S
C43 C44 1.510 . S
C43 O62 1.249 . S
C43 O63 1.252 . S
C44 C43 1.510 . S
C44 C45 1.404 . S
C44 C46 1.352 . S
C45 C44 1.404 . S
C45 C49 1.389 . S
C45 H72 0.930 . S
C46 C44 1.352 . S
C46 C48 1.374 . S
C46 H73 0.931 . S
C47 C48 1.359 . S
C47 C49 1.364 . S
C48 C46 1.374 . S
C48 C47 1.359 . S
C48 H74 0.931 . S
C49 C45 1.389 . S
C49 C47 1.364 . S
C49 H75 0.931 . S
C50 O64 1.256 . S
C50 O65 1.257 . S
C51 O66 1.240 . S
C51 O67 1.240 . S
C52 Gd41 2.818 . S
C52 C53 1.510 . S
C52 O68 1.249 . S
C52 O69 1.252 . S
C53 C52 1.510 . S
C53 C54 1.404 . S
C53 C55 1.352 . S
C54 C53 1.404 . S
C54 C58 1.389 . S
C54 H76 0.930 . S
C55 C53 1.352 . S
C55 C57 1.374 . S
C55 H77 0.931 . S
C56 C57 1.359 . S
C56 C58 1.364 . S
C57 C55 1.374 . S
C57 C56 1.359 . S
C57 H78 0.931 . S
C58 C54 1.389 . S
C58 C56 1.364 . S
C58 H79 0.931 . S
C59 O70 1.256 . S
C59 O71 1.257 . S
O60 Gd40 2.377 . S
O60 C42 1.240 . S
O61 Gd41 2.395 . S
O61 C42 1.240 . S
O62 Gd40 2.448 . S
O62 C43 1.249 . S
O63 Gd40 2.506 . S
O63 C43 1.252 . S
O64 Gd40 2.435 . S
O64 C50 1.256 . S
O65 Gd40 2.717 . S
O65 Gd41 2.327 . S
O65 C50 1.257 . S
O66 Gd41 2.377 . S
O66 C51 1.240 . S
O67 Gd40 2.395 . S
O67 C51 1.240 . S
O68 Gd41 2.448 . S
O68 C52 1.249 . S
O69 Gd41 2.506 . S
O69 C52 1.252 . S
O70 Gd41 2.435 . S
O70 C59 1.256 . S
O71 Gd40 2.327 . S
O71 Gd41 2.717 . S
O71 C59 1.257 . S
H72 C45 0.930 . S
H73 C46 0.931 . S
H74 C48 0.931 . S
H75 C49 0.931 . S
H76 C54 0.930 . S
H77 C55 0.931 . S
H78 C57 0.931 . S
H79 C58 0.931 . S
Gd80 C83 2.818 . S
Gd80 O100 2.377 . S
Gd80 O102 2.448 . S
Gd80 O103 2.506 . S
Gd80 O104 2.435 . S
Gd80 O105 2.717 . S
Gd80 O107 2.395 . S
Gd80 O111 2.327 . S
Gd81 C92 2.818 . S
Gd81 O101 2.395 . S
Gd81 O105 2.327 . S
Gd81 O106 2.377 . S
Gd81 O108 2.448 . S
Gd81 O109 2.506 . S
Gd81 O110 2.435 . S
Gd81 O111 2.717 . S
C82 O100 1.240 . S
C82 O101 1.240 . S
C83 Gd80 2.818 . S
C83 C84 1.510 . S
C83 O102 1.249 . S
C83 O103 1.252 . S
C84 C83 1.510 . S
C84 C85 1.404 . S
C84 C86 1.352 . S
C85 C84 1.404 . S
C85 C89 1.389 . S
C85 H112 0.930 . S
C86 C84 1.352 . S
C86 C88 1.374 . S
C86 H113 0.931 . S
C87 C88 1.359 . S
C87 C89 1.364 . S
C88 C86 1.374 . S
C88 C87 1.359 . S
C88 H114 0.931 . S
C89 C85 1.389 . S
C89 C87 1.364 . S
C89 H115 0.931 . S
C90 O104 1.256 . S
C90 O105 1.257 . S
C91 O106 1.240 . S
C91 O107 1.240 . S
C92 Gd81 2.818 . S
C92 C93 1.510 . S
C92 O108 1.249 . S
C92 O109 1.252 . S
C93 C92 1.510 . S
C93 C94 1.404 . S
C93 C95 1.352 . S
C94 C93 1.404 . S
C94 C98 1.389 . S
C94 H116 0.930 . S
C95 C93 1.352 . S
C95 C97 1.374 . S
C95 H117 0.931 . S
C96 C97 1.359 . S
C96 C98 1.364 . S
C97 C95 1.374 . S
C97 C96 1.359 . S
C97 H118 0.931 . S
C98 C94 1.389 . S
C98 C96 1.364 . S
C98 H119 0.931 . S
C99 O110 1.256 . S
C99 O111 1.257 . S
O100 Gd80 2.377 . S
O100 C82 1.240 . S
O101 Gd81 2.395 . S
O101 C82 1.240 . S
O102 Gd80 2.448 . S
O102 C83 1.249 . S
O103 Gd80 2.506 . S
O103 C83 1.252 . S
O104 Gd80 2.435 . S
O104 C90 1.256 . S
O105 Gd80 2.717 . S
O105 Gd81 2.327 . S
O105 C90 1.257 . S
O106 Gd81 2.377 . S
O106 C91 1.240 . S
O107 Gd80 2.395 . S
O107 C91 1.240 . S
O108 Gd81 2.448 . S
O108 C92 1.249 . S
O109 Gd81 2.506 . S
O109 C92 1.252 . S
O110 Gd81 2.435 . S
O110 C99 1.256 . S
O111 Gd80 2.327 . S
O111 Gd81 2.717 . S
O111 C99 1.257 . S
H112 C85 0.930 . S
H113 C86 0.931 . S
H114 C88 0.931 . S
H115 C89 0.931 . S
H116 C94 0.930 . S
H117 C95 0.931 . S
H118 C97 0.931 . S
H119 C98 0.931 . S
Gd120 C123 2.818 . S
Gd120 O140 2.377 . S
Gd120 O142 2.448 . S
Gd120 O143 2.506 . S
Gd120 O144 2.435 . S
Gd120 O145 2.717 . S
Gd120 O147 2.395 . S
Gd120 O151 2.327 . S
Gd121 C132 2.818 . S
Gd121 O141 2.395 . S
Gd121 O145 2.327 . S
Gd121 O146 2.377 . S
Gd121 O148 2.448 . S
Gd121 O149 2.506 . S
Gd121 O150 2.435 . S
Gd121 O151 2.717 . S
C122 O140 1.240 . S
C122 O141 1.240 . S
C123 Gd120 2.818 . S
C123 C124 1.510 . S
C123 O142 1.249 . S
C123 O143 1.252 . S
C124 C123 1.510 . S
C124 C125 1.404 . S
C124 C126 1.352 . S
C125 C124 1.404 . S
C125 C129 1.389 . S
C125 H152 0.930 . S
C126 C124 1.352 . S
C126 C128 1.374 . S
C126 H153 0.931 . S
C127 C128 1.359 . S
C127 C129 1.364 . S
C128 C126 1.374 . S
C128 C127 1.359 . S
C128 H154 0.931 . S
C129 C125 1.389 . S
C129 C127 1.364 . S
C129 H155 0.931 . S
C130 O144 1.256 . S
C130 O145 1.257 . S
C131 O146 1.240 . S
C131 O147 1.240 . S
C132 Gd121 2.818 . S
C132 C133 1.510 1_556 S
C132 O148 1.249 . S
C132 O149 1.252 . S
C133 C132 1.510 1_554 S
C133 C134 1.404 . S
C133 C135 1.352 . S
C134 C133 1.404 . S
C134 C138 1.389 . S
C134 H156 0.930 . S
C135 C133 1.352 . S
C135 C137 1.374 . S
C135 H157 0.931 . S
C136 C137 1.359 . S
C136 C138 1.364 . S
C137 C135 1.374 . S
C137 C136 1.359 . S
C137 H158 0.931 . S
C138 C134 1.389 . S
C138 C136 1.364 . S
C138 H159 0.931 . S
C139 O150 1.256 . S
C139 O151 1.257 . S
O140 Gd120 2.377 . S
O140 C122 1.240 . S
O141 Gd121 2.395 . S
O141 C122 1.240 . S
O142 Gd120 2.448 . S
O142 C123 1.249 . S
O143 Gd120 2.506 . S
O143 C123 1.252 . S
O144 Gd120 2.435 . S
O144 C130 1.256 . S
O145 Gd120 2.717 . S
O145 Gd121 2.327 . S
O145 C130 1.257 . S
O146 Gd121 2.377 . S
O146 C131 1.240 . S
O147 Gd120 2.395 . S
O147 C131 1.240 . S
O148 Gd121 2.448 . S
O148 C132 1.249 . S
O149 Gd121 2.506 . S
O149 C132 1.252 . S
O150 Gd121 2.435 . S
O150 C139 1.256 . S
O151 Gd120 2.327 . S
O151 Gd121 2.717 . S
O151 C139 1.257 . S
H152 C125 0.930 . S
H153 C126 0.931 . S
H154 C128 0.931 . S
H155 C129 0.931 . S
H156 C134 0.930 . S
H157 C135 0.931 . S
H158 C137 0.931 . S
H159 C138 0.931 . S
Gd160 C163 2.818 . S
Gd160 O180 2.377 . S
Gd160 O182 2.448 . S
Gd160 O183 2.506 . S
Gd160 O184 2.435 . S
Gd160 O185 2.717 . S
Gd160 O187 2.395 . S
Gd160 O191 2.327 . S
Gd161 C172 2.818 . S
Gd161 O181 2.395 . S
Gd161 O185 2.327 . S
Gd161 O186 2.377 . S
Gd161 O188 2.448 . S
Gd161 O189 2.506 . S
Gd161 O190 2.435 . S
Gd161 O191 2.717 . S
C162 O180 1.240 . S
C162 O181 1.240 . S
C163 Gd160 2.818 . S
C163 C164 1.510 . S
C163 O182 1.249 . S
C163 O183 1.252 . S
C164 C163 1.510 . S
C164 C165 1.404 . S
C164 C166 1.352 . S
C165 C164 1.404 . S
C165 C169 1.389 . S
C165 H192 0.930 . S
C166 C164 1.352 . S
C166 C168 1.374 . S
C166 H193 0.931 . S
C167 C168 1.359 . S
C167 C169 1.364 . S
C168 C166 1.374 . S
C168 C167 1.359 . S
C168 H194 0.931 . S
C169 C165 1.389 . S
C169 C167 1.364 . S
C169 H195 0.931 . S
C170 O184 1.256 . S
C170 O185 1.257 . S
C171 O186 1.240 . S
C171 O187 1.240 . S
C172 Gd161 2.818 . S
C172 C173 1.510 . S
C172 O188 1.249 . S
C172 O189 1.252 . S
C173 C172 1.510 . S
C173 C174 1.404 . S
C173 C175 1.352 . S
C174 C173 1.404 . S
C174 C178 1.389 . S
C174 H196 0.930 . S
C175 C173 1.352 . S
C175 C177 1.374 . S
C175 H197 0.931 . S
C176 C177 1.359 . S
C176 C178 1.364 . S
C177 C175 1.374 . S
C177 C176 1.359 . S
C177 H198 0.931 . S
C178 C174 1.389 . S
C178 C176 1.364 . S
C178 H199 0.931 . S
C179 O190 1.256 . S
C179 O191 1.257 . S
O180 Gd160 2.377 . S
O180 C162 1.240 . S
O181 Gd161 2.395 . S
O181 C162 1.240 . S
O182 Gd160 2.448 . S
O182 C163 1.249 . S
O183 Gd160 2.506 . S
O183 C163 1.252 . S
O184 Gd160 2.435 . S
O184 C170 1.256 . S
O185 Gd160 2.717 . S
O185 Gd161 2.327 . S
O185 C170 1.257 . S
O186 Gd161 2.377 . S
O186 C171 1.240 . S
O187 Gd160 2.395 . S
O187 C171 1.240 . S
O188 Gd161 2.448 . S
O188 C172 1.249 . S
O189 Gd161 2.506 . S
O189 C172 1.252 . S
O190 Gd161 2.435 . S
O190 C179 1.256 . S
O191 Gd160 2.327 . S
O191 Gd161 2.717 . S
O191 C179 1.257 . S
H192 C165 0.930 . S
H193 C166 0.931 . S
H194 C168 0.931 . S
H195 C169 0.931 . S
H196 C174 0.930 . S
H197 C175 0.931 . S
H198 C177 0.931 . S
H199 C178 0.931 . S
Gd200 C203 2.818 . S
Gd200 O220 2.377 . S
Gd200 O222 2.448 . S
Gd200 O223 2.506 . S
Gd200 O224 2.435 . S
Gd200 O225 2.717 . S
Gd200 O227 2.395 . S
Gd200 O231 2.327 . S
Gd201 C212 2.818 . S
Gd201 O221 2.395 . S
Gd201 O225 2.327 . S
Gd201 O226 2.377 . S
Gd201 O228 2.448 . S
Gd201 O229 2.506 . S
Gd201 O230 2.435 . S
Gd201 O231 2.717 . S
C202 O220 1.240 . S
C202 O221 1.240 . S
C203 Gd200 2.818 . S
C203 C204 1.510 . S
C203 O222 1.249 . S
C203 O223 1.252 . S
C204 C203 1.510 . S
C204 C205 1.404 . S
C204 C206 1.352 1_556 S
C205 C204 1.404 . S
C205 C209 1.389 1_556 S
C205 H232 0.930 . S
C206 C204 1.352 1_554 S
C206 C208 1.374 . S
C206 H233 0.931 1_554 S
C207 C208 1.359 . S
C207 C209 1.364 . S
C208 C206 1.374 . S
C208 C207 1.359 . S
C208 H234 0.931 . S
C209 C205 1.389 1_554 S
C209 C207 1.364 . S
C209 H235 0.931 . S
C210 O224 1.256 . S
C210 O225 1.257 . S
C211 O226 1.240 . S
C211 O227 1.240 . S
C212 Gd201 2.818 . S
C212 C213 1.510 . S
C212 O228 1.249 . S
C212 O229 1.252 . S
C213 C212 1.510 . S
C213 C214 1.404 . S
C213 C215 1.352 . S
C214 C213 1.404 . S
C214 C218 1.389 . S
C214 H236 0.930 . S
C215 C213 1.352 . S
C215 C217 1.374 . S
C215 H237 0.931 . S
C216 C217 1.359 . S
C216 C218 1.364 . S
C217 C215 1.374 . S
C217 C216 1.359 . S
C217 H238 0.931 . S
C218 C214 1.389 . S
C218 C216 1.364 . S
C218 H239 0.931 . S
C219 O230 1.256 . S
C219 O231 1.257 . S
O220 Gd200 2.377 . S
O220 C202 1.240 . S
O221 Gd201 2.395 . S
O221 C202 1.240 . S
O222 Gd200 2.448 . S
O222 C203 1.249 . S
O223 Gd200 2.506 . S
O223 C203 1.252 . S
O224 Gd200 2.435 . S
O224 C210 1.256 . S
O225 Gd200 2.717 . S
O225 Gd201 2.327 . S
O225 C210 1.257 . S
O226 Gd201 2.377 . S
O226 C211 1.240 . S
O227 Gd200 2.395 . S
O227 C211 1.240 . S
O228 Gd201 2.448 . S
O228 C212 1.249 . S
O229 Gd201 2.506 . S
O229 C212 1.252 . S
O230 Gd201 2.435 . S
O230 C219 1.256 . S
O231 Gd200 2.327 . S
O231 Gd201 2.717 . S
O231 C219 1.257 . S
H232 C205 0.930 . S
H233 C206 0.931 1_556 S
H234 C208 0.931 . S
H235 C209 0.931 . S
H236 C214 0.930 . S
H237 C215 0.931 . S
H238 C217 0.931 . S
H239 C218 0.931 . S
Gd240 C243 2.818 . S
Gd240 O260 2.377 . S
Gd240 O262 2.448 . S
Gd240 O263 2.506 . S
Gd240 O264 2.435 . S
Gd240 O265 2.717 . S
Gd240 O267 2.395 . S
Gd240 O271 2.327 . S
Gd241 C252 2.818 1_554 S
Gd241 O261 2.395 . S
Gd241 O265 2.327 . S
Gd241 O266 2.377 . S
Gd241 O268 2.448 1_554 S
Gd241 O269 2.506 1_554 S
Gd241 O270 2.435 . S
Gd241 O271 2.717 . S
C242 O260 1.240 . S
C242 O261 1.240 . S
C243 Gd240 2.818 . S
C243 C244 1.510 . S
C243 O262 1.249 . S
C243 O263 1.252 . S
C244 C243 1.510 . S
C244 C245 1.404 . S
C244 C246 1.352 . S
C245 C244 1.404 . S
C245 C249 1.389 . S
C245 H272 0.930 . S
C246 C244 1.352 . S
C246 C248 1.374 . S
C246 H273 0.931 . S
C247 C248 1.359 . S
C247 C249 1.364 . S
C248 C246 1.374 . S
C248 C247 1.359 . S
C248 H274 0.931 . S
C249 C245 1.389 . S
C249 C247 1.364 . S
C249 H275 0.931 . S
C250 O264 1.256 . S
C250 O265 1.257 . S
C251 O266 1.240 1_556 S
C251 O267 1.240 1_556 S
C252 Gd241 2.818 1_556 S
C252 C253 1.510 . S
C252 O268 1.249 . S
C252 O269 1.252 . S
C253 C252 1.510 . S
C253 C254 1.404 . S
C253 C255 1.352 . S
C254 C253 1.404 . S
C254 C258 1.389 . S
C254 H276 0.930 . S
C255 C253 1.352 . S
C255 C257 1.374 . S
C255 H277 0.931 . S
C256 C257 1.359 . S
C256 C258 1.364 . S
C257 C255 1.374 . S
C257 C256 1.359 . S
C257 H278 0.931 . S
C258 C254 1.389 . S
C258 C256 1.364 . S
C258 H279 0.931 . S
C259 O270 1.256 . S
C259 O271 1.257 . S
O260 Gd240 2.377 . S
O260 C242 1.240 . S
O261 Gd241 2.395 . S
O261 C242 1.240 . S
O262 Gd240 2.448 . S
O262 C243 1.249 . S
O263 Gd240 2.506 . S
O263 C243 1.252 . S
O264 Gd240 2.435 . S
O264 C250 1.256 . S
O265 Gd240 2.717 . S
O265 Gd241 2.327 . S
O265 C250 1.257 . S
O266 Gd241 2.377 . S
O266 C251 1.240 1_554 S
O267 Gd240 2.395 . S
O267 C251 1.240 1_554 S
O268 Gd241 2.448 1_556 S
O268 C252 1.249 . S
O269 Gd241 2.506 1_556 S
O269 C252 1.252 . S
O270 Gd241 2.435 . S
O270 C259 1.256 . S
O271 Gd240 2.327 . S
O271 Gd241 2.717 . S
O271 C259 1.257 . S
H272 C245 0.930 . S
H273 C246 0.931 . S
H274 C248 0.931 . S
H275 C249 0.931 . S
H276 C254 0.930 . S
H277 C255 0.931 . S
H278 C257 0.931 . S
H279 C258 0.931 . S
Gd280 C283 2.818 . S
Gd280 O300 2.377 . S
Gd280 O302 2.448 . S
Gd280 O303 2.506 . S
Gd280 O304 2.435 . S
Gd280 O305 2.717 . S
Gd280 O307 2.395 . S
Gd280 O311 2.327 . S
Gd281 C292 2.818 . S
Gd281 O301 2.395 . S
Gd281 O305 2.327 . S
Gd281 O306 2.377 . S
Gd281 O308 2.448 . S
Gd281 O309 2.506 . S
Gd281 O310 2.435 . S
Gd281 O311 2.717 . S
C282 O300 1.240 . S
C282 O301 1.240 . S
C283 Gd280 2.818 . S
C283 C284 1.510 . S
C283 O302 1.249 . S
C283 O303 1.252 . S
C284 C283 1.510 . S
C284 C285 1.404 . S
C284 C286 1.352 . S
C285 C284 1.404 . S
C285 C289 1.389 . S
C285 H312 0.930 . S
C286 C284 1.352 . S
C286 C288 1.374 . S
C286 H313 0.931 . S
C287 C288 1.359 . S
C287 C289 1.364 . S
C288 C286 1.374 . S
C288 C287 1.359 . S
C288 H314 0.931 . S
C289 C285 1.389 . S
C289 C287 1.364 . S
C289 H315 0.931 . S
C290 O304 1.256 . S
C290 O305 1.257 . S
C291 O306 1.240 . S
C291 O307 1.240 . S
C292 Gd281 2.818 . S
C292 C293 1.510 . S
C292 O308 1.249 . S
C292 O309 1.252 . S
C293 C292 1.510 . S
C293 C294 1.404 . S
C293 C295 1.352 . S
C294 C293 1.404 . S
C294 C298 1.389 . S
C294 H316 0.930 . S
C295 C293 1.352 . S
C295 C297 1.374 . S
C295 H317 0.931 . S
C296 C297 1.359 . S
C296 C298 1.364 . S
C297 C295 1.374 . S
C297 C296 1.359 . S
C297 H318 0.931 . S
C298 C294 1.389 . S
C298 C296 1.364 . S
C298 H319 0.931 . S
C299 O310 1.256 . S
C299 O311 1.257 . S
O300 Gd280 2.377 . S
O300 C282 1.240 . S
O301 Gd281 2.395 . S
O301 C282 1.240 . S
O302 Gd280 2.448 . S
O302 C283 1.249 . S
O303 Gd280 2.506 . S
O303 C283 1.252 . S
O304 Gd280 2.435 . S
O304 C290 1.256 . S
O305 Gd280 2.717 . S
O305 Gd281 2.327 . S
O305 C290 1.257 . S
O306 Gd281 2.377 . S
O306 C291 1.240 . S
O307 Gd280 2.395 . S
O307 C291 1.240 . S
O308 Gd281 2.448 . S
O308 C292 1.249 . S
O309 Gd281 2.506 . S
O309 C292 1.252 . S
O310 Gd281 2.435 . S
O310 C299 1.256 . S
O311 Gd280 2.327 . S
O311 Gd281 2.717 . S
O311 C299 1.257 . S
H312 C285 0.930 . S
H313 C286 0.931 . S
H314 C288 0.931 . S
H315 C289 0.931 . S
H316 C294 0.930 . S
H317 C295 0.931 . S
H318 C297 0.931 . S
H319 C298 0.931 . S
Gd320 C323 2.818 . S
Gd320 O340 2.377 . S
Gd320 O342 2.448 . S
Gd320 O343 2.506 . S
Gd320 O344 2.435 . S
Gd320 O345 2.717 . S
Gd320 O347 2.395 . S
Gd320 O351 2.327 . S
Gd321 C332 2.818 . S
Gd321 O341 2.395 . S
Gd321 O345 2.327 . S
Gd321 O346 2.377 . S
Gd321 O348 2.448 . S
Gd321 O349 2.506 . S
Gd321 O350 2.435 . S
Gd321 O351 2.717 . S
C322 O340 1.240 . S
C322 O341 1.240 . S
C323 Gd320 2.818 . S
C323 C324 1.510 . S
C323 O342 1.249 . S
C323 O343 1.252 . S
C324 C323 1.510 . S
C324 C325 1.404 . S
C324 C326 1.352 . S
C325 C324 1.404 . S
C325 C329 1.389 . S
C325 H352 0.930 . S
C326 C324 1.352 . S
C326 C328 1.374 . S
C326 H353 0.931 . S
C327 C328 1.359 . S
C327 C329 1.364 . S
C328 C326 1.374 . S
C328 C327 1.359 . S
C328 H354 0.931 . S
C329 C325 1.389 . S
C329 C327 1.364 . S
C329 H355 0.931 . S
C330 O344 1.256 . S
C330 O345 1.257 . S
C331 O346 1.240 . S
C331 O347 1.240 . S
C332 Gd321 2.818 . S
C332 C333 1.510 . S
C332 O348 1.249 . S
C332 O349 1.252 . S
C333 C332 1.510 . S
C333 C334 1.404 . S
C333 C335 1.352 . S
C334 C333 1.404 . S
C334 C338 1.393 . S
C334 H356 0.930 1_655 S
C335 C333 1.352 . S
C335 C337 1.374 . S
C335 H357 0.931 . S
C336 C337 1.359 1_556 S
C336 C338 1.395 1_556 S
C337 C335 1.374 . S
C337 C336 1.359 1_554 S
C337 H358 0.931 1_554 S
C338 C334 1.393 . S
C338 C336 1.395 1_554 S
C338 H359 0.897 1_654 S
C339 O350 1.256 . S
C339 O351 1.257 . S
O340 Gd320 2.377 . S
O340 C322 1.240 . S
O341 Gd321 2.395 . S
O341 C322 1.240 . S
O342 Gd320 2.448 . S
O342 C323 1.249 . S
O343 Gd320 2.506 . S
O343 C323 1.252 . S
O344 Gd320 2.435 . S
O344 C330 1.256 . S
O345 Gd320 2.717 . S
O345 Gd321 2.327 . S
O345 C330 1.257 . S
O346 Gd321 2.377 . S
O346 C331 1.240 . S
O347 Gd320 2.395 . S
O347 C331 1.240 . S
O348 Gd321 2.448 . S
O348 C332 1.249 . S
O349 Gd321 2.506 . S
O349 C332 1.252 . S
O350 Gd321 2.435 . S
O350 C339 1.256 . S
O351 Gd320 2.327 . S
O351 Gd321 2.717 . S
O351 C339 1.257 . S
H352 C325 0.930 . S
H353 C326 0.931 . S
H354 C328 0.931 . S
H355 C329 0.931 . S
H356 C334 0.930 1_455 S
H357 C335 0.931 . S
H358 C337 0.931 1_556 S
H359 C338 0.897 1_456 S
Gd360 C363 2.818 1_556 S
Gd360 O380 2.377 1_556 S
Gd360 O382 2.448 1_556 S
Gd360 O383 2.506 1_556 S
Gd360 O384 2.435 . S
Gd360 O385 2.717 . S
Gd360 O387 2.395 . S
Gd360 O391 2.327 . S
Gd361 C372 2.818 . S
Gd361 O381 2.395 1_556 S
Gd361 O385 2.327 . S
Gd361 O386 2.377 . S
Gd361 O388 2.448 . S
Gd361 O389 2.506 . S
Gd361 O390 2.435 . S
Gd361 O391 2.717 . S
C362 O380 1.240 . S
C362 O381 1.240 . S
C363 Gd360 2.818 1_554 S
C363 C364 1.510 . S
C363 O382 1.249 . S
C363 O383 1.252 . S
C364 C363 1.510 . S
C364 C365 1.404 . S
C364 C366 1.352 . S
C365 C364 1.404 . S
C365 C369 1.389 . S
C365 H392 0.930 . S
C366 C364 1.352 . S
C366 C368 1.374 . S
C366 H393 0.931 . S
C367 C368 1.359 . S
C367 C369 1.364 . S
C368 C366 1.374 . S
C368 C367 1.359 . S
C368 H394 0.931 . S
C369 C365 1.389 . S
C369 C367 1.364 . S
C369 H395 0.931 . S
C370 O384 1.256 . S
C370 O385 1.257 . S
C371 O386 1.240 . S
C371 O387 1.240 . S
C372 Gd361 2.818 . S
C372 C373 1.510 . S
C372 O388 1.249 . S
C372 O389 1.252 . S
C373 C372 1.510 . S
C373 C374 1.404 . S
C373 C375 1.352 . S
C374 C373 1.404 . S
C374 C378 1.389 . S
C374 H396 0.930 . S
C375 C373 1.352 . S
C375 C377 1.374 . S
C375 H397 0.931 . S
C376 C377 1.359 . S
C376 C378 1.364 . S
C377 C375 1.374 . S
C377 C376 1.359 . S
C377 H398 0.931 . S
C378 C374 1.389 . S
C378 C376 1.364 . S
C378 H399 0.931 . S
C379 O390 1.256 . S
C379 O391 1.257 . S
O380 Gd360 2.377 1_554 S
O380 C362 1.240 . S
O381 Gd361 2.395 1_554 S
O381 C362 1.240 . S
O382 Gd360 2.448 1_554 S
O382 C363 1.249 . S
O383 Gd360 2.506 1_554 S
O383 C363 1.252 . S
O384 Gd360 2.435 . S
O384 C370 1.256 . S
O385 Gd360 2.717 . S
O385 Gd361 2.327 . S
O385 C370 1.257 . S
O386 Gd361 2.377 . S
O386 C371 1.240 . S
O387 Gd360 2.395 . S
O387 C371 1.240 . S
O388 Gd361 2.448 . S
O388 C372 1.249 . S
O389 Gd361 2.506 . S
O389 C372 1.252 . S
O390 Gd361 2.435 . S
O390 C379 1.256 . S
O391 Gd360 2.327 . S
O391 Gd361 2.717 . S
O391 C379 1.257 . S
H392 C365 0.930 . S
H393 C366 0.931 . S
H394 C368 0.931 . S
H395 C369 0.931 . S
H396 C374 0.930 . S
H397 C375 0.931 . S
H398 C377 0.931 . S
H399 C378 0.931 . S
Gd400 C403 2.818 . S
Gd400 O420 2.377 . S
Gd400 O422 2.448 . S
Gd400 O423 2.506 . S
Gd400 O424 2.435 . S
Gd400 O425 2.717 . S
Gd400 O427 2.395 . S
Gd400 O431 2.327 . S
Gd401 C412 2.818 . S
Gd401 O421 2.395 . S
Gd401 O425 2.327 . S
Gd401 O426 2.377 . S
Gd401 O428 2.448 . S
Gd401 O429 2.506 . S
Gd401 O430 2.435 . S
Gd401 O431 2.717 . S
C402 O420 1.240 . S
C402 O421 1.240 . S
C403 Gd400 2.818 . S
C403 C404 1.510 . S
C403 O422 1.249 . S
C403 O423 1.252 . S
C404 C403 1.510 . S
C404 C405 1.404 . S
C404 C406 1.352 . S
C405 C404 1.404 . S
C405 C409 1.389 . S
C405 H432 0.930 . S
C406 C404 1.352 . S
C406 C408 1.374 . S
C406 H433 0.931 . S
C407 C408 1.359 . S
C407 C409 1.364 . S
C408 C406 1.374 . S
C408 C407 1.359 . S
C408 H434 0.931 . S
C409 C405 1.389 . S
C409 C407 1.364 . S
C409 H435 0.931 . S
C410 O424 1.256 . S
C410 O425 1.257 . S
C411 O426 1.240 . S
C411 O427 1.240 . S
C412 Gd401 2.818 . S
C412 C413 1.510 . S
C412 O428 1.249 . S
C412 O429 1.252 . S
C413 C412 1.510 . S
C413 C414 1.404 . S
C413 C415 1.352 . S
C414 C413 1.404 . S
C414 C418 1.389 . S
C414 H436 0.930 . S
C415 C413 1.352 . S
C415 C417 1.374 . S
C415 H437 0.931 . S
C416 C417 1.359 . S
C416 C418 1.364 . S
C417 C415 1.374 . S
C417 C416 1.359 . S
C417 H438 0.931 . S
C418 C414 1.389 . S
C418 C416 1.364 . S
C418 H439 0.931 . S
C419 O430 1.256 . S
C419 O431 1.257 . S
O420 Gd400 2.377 . S
O420 C402 1.240 . S
O421 Gd401 2.395 . S
O421 C402 1.240 . S
O422 Gd400 2.448 . S
O422 C403 1.249 . S
O423 Gd400 2.506 . S
O423 C403 1.252 . S
O424 Gd400 2.435 . S
O424 C410 1.256 . S
O425 Gd400 2.717 . S
O425 Gd401 2.327 . S
O425 C410 1.257 . S
O426 Gd401 2.377 . S
O426 C411 1.240 . S
O427 Gd400 2.395 . S
O427 C411 1.240 . S
O428 Gd401 2.448 . S
O428 C412 1.249 . S
O429 Gd401 2.506 . S
O429 C412 1.252 . S
O430 Gd401 2.435 . S
O430 C419 1.256 . S
O431 Gd400 2.327 . S
O431 Gd401 2.717 . S
O431 C419 1.257 . S
H432 C405 0.930 . S
H433 C406 0.931 . S
H434 C408 0.931 . S
H435 C409 0.931 . S
H436 C414 0.930 . S
H437 C415 0.931 . S
H438 C417 0.931 . S
H439 C418 0.931 . S
Gd440 C443 2.818 . S
Gd440 O460 2.377 . S
Gd440 O462 2.448 . S
Gd440 O463 2.506 . S
Gd440 O464 2.435 . S
Gd440 O465 2.717 . S
Gd440 O467 2.395 . S
Gd440 O471 2.327 . S
Gd441 C452 2.818 . S
Gd441 O461 2.395 . S
Gd441 O465 2.327 . S
Gd441 O466 2.377 . S
Gd441 O468 2.448 . S
Gd441 O469 2.506 . S
Gd441 O470 2.435 . S
Gd441 O471 2.717 . S
C442 O460 1.240 . S
C442 O461 1.240 . S
C443 Gd440 2.818 . S
C443 C444 1.510 . S
C443 O462 1.249 . S
C443 O463 1.252 . S
C444 C443 1.510 . S
C444 C445 1.404 . S
C444 C446 1.352 . S
C445 C444 1.404 . S
C445 C449 1.389 . S
C445 H472 0.930 . S
C446 C444 1.352 . S
C446 C448 1.374 . S
C446 H473 0.931 . S
C447 C448 1.359 . S
C447 C449 1.364 . S
C448 C446 1.374 . S
C448 C447 1.359 . S
C448 H474 0.931 . S
C449 C445 1.389 . S
C449 C447 1.364 . S
C449 H475 0.931 . S
C450 O464 1.256 . S
C450 O465 1.257 . S
C451 O466 1.240 . S
C451 O467 1.240 . S
C452 Gd441 2.818 . S
C452 C453 1.510 . S
C452 O468 1.249 . S
C452 O469 1.252 . S
C453 C452 1.510 . S
C453 C454 1.404 . S
C453 C455 1.352 . S
C454 C453 1.404 . S
C454 C458 1.389 . S
C454 H476 0.930 . S
C455 C453 1.352 . S
C455 C457 1.374 . S
C455 H477 0.931 . S
C456 C457 1.359 . S
C456 C458 1.364 . S
C457 C455 1.374 . S
C457 C456 1.359 . S
C457 H478 0.931 . S
C458 C454 1.389 . S
C458 C456 1.364 . S
C458 H479 0.931 . S
C459 O470 1.256 . S
C459 O471 1.257 . S
O460 Gd440 2.377 . S
O460 C442 1.240 . S
O461 Gd441 2.395 . S
O461 C442 1.240 . S
O462 Gd440 2.448 . S
O462 C443 1.249 . S
O463 Gd440 2.506 . S
O463 C443 1.252 . S
O464 Gd440 2.435 . S
O464 C450 1.256 . S
O465 Gd440 2.717 . S
O465 Gd441 2.327 . S
O465 C450 1.257 . S
O466 Gd441 2.377 . S
O466 C451 1.240 . S
O467 Gd440 2.395 . S
O467 C451 1.240 . S
O468 Gd441 2.448 . S
O468 C452 1.249 . S
O469 Gd441 2.506 . S
O469 C452 1.252 . S
O470 Gd441 2.435 . S
O470 C459 1.256 . S
O471 Gd440 2.327 . S
O471 Gd441 2.717 . S
O471 C459 1.257 . S
H472 C445 0.930 . S
H473 C446 0.931 . S
H474 C448 0.931 . S
H475 C449 0.931 . S
H476 C454 0.930 . S
H477 C455 0.931 . S
H478 C457 0.931 . S
H479 C458 0.931 . S
Gd480 C483 2.818 . S
Gd480 O500 2.377 . S
Gd480 O502 2.448 . S
Gd480 O503 2.506 . S
Gd480 O504 2.435 . S
Gd480 O505 2.717 . S
Gd480 O507 2.395 . S
Gd480 O511 2.327 . S
Gd481 C492 2.818 . S
Gd481 O501 2.395 . S
Gd481 O505 2.327 . S
Gd481 O506 2.377 . S
Gd481 O508 2.448 . S
Gd481 O509 2.506 . S
Gd481 O510 2.435 . S
Gd481 O511 2.717 . S
C482 O500 1.240 . S
C482 O501 1.240 . S
C483 Gd480 2.818 . S
C483 C484 1.510 . S
C483 O502 1.249 . S
C483 O503 1.252 . S
C484 C483 1.510 . S
C484 C485 1.404 . S
C484 C486 1.352 . S
C485 C484 1.404 . S
C485 C489 1.389 . S
C485 H512 0.930 . S
C486 C484 1.352 . S
C486 C488 1.374 . S
C486 H513 0.931 . S
C487 C488 1.359 . S
C487 C489 1.364 . S
C488 C486 1.374 . S
C488 C487 1.359 . S
C488 H514 0.911 1_556 S
C489 C485 1.389 . S
C489 C487 1.364 . S
C489 H515 0.931 . S
C490 O504 1.256 . S
C490 O505 1.257 . S
C491 O506 1.240 . S
C491 O507 1.240 . S
C492 Gd481 2.818 . S
C492 C493 1.510 . S
C492 O508 1.249 . S
C492 O509 1.252 . S
C493 C492 1.510 . S
C493 C494 1.404 . S
C493 C495 1.352 . S
C494 C493 1.404 . S
C494 C498 1.389 . S
C494 H516 0.930 . S
C495 C493 1.352 . S
C495 C497 1.374 . S
C495 H517 0.931 . S
C496 C497 1.359 . S
C496 C498 1.364 . S
C497 C495 1.374 . S
C497 C496 1.359 . S
C497 H518 0.931 . S
C498 C494 1.389 . S
C498 C496 1.364 . S
C498 H519 0.931 . S
C499 O510 1.256 . S
C499 O511 1.257 . S
O500 Gd480 2.377 . S
O500 C482 1.240 . S
O501 Gd481 2.395 . S
O501 C482 1.240 . S
O502 Gd480 2.448 . S
O502 C483 1.249 . S
O503 Gd480 2.506 . S
O503 C483 1.252 . S
O504 Gd480 2.435 . S
O504 C490 1.256 . S
O505 Gd480 2.717 . S
O505 Gd481 2.327 . S
O505 C490 1.257 . S
O506 Gd481 2.377 . S
O506 C491 1.240 . S
O507 Gd480 2.395 . S
O507 C491 1.240 . S
O508 Gd481 2.448 . S
O508 C492 1.249 . S
O509 Gd481 2.506 . S
O509 C492 1.252 . S
O510 Gd481 2.435 . S
O510 C499 1.256 . S
O511 Gd480 2.327 . S
O511 Gd481 2.717 . S
O511 C499 1.257 . S
H512 C485 0.930 . S
H513 C486 0.931 . S
H514 C488 0.911 1_554 S
H515 C489 0.931 . S
H516 C494 0.930 . S
H517 C495 0.931 . S
H518 C497 0.931 . S
H519 C498 0.931 . S
Gd520 C523 2.818 . S
Gd520 O540 2.377 . S
Gd520 O542 2.448 . S
Gd520 O543 2.506 . S
Gd520 O544 2.435 . S
Gd520 O545 2.717 . S
Gd520 O547 2.395 . S
Gd520 O551 2.327 . S
Gd521 C532 2.818 . S
Gd521 O541 2.395 . S
Gd521 O545 2.327 . S
Gd521 O546 2.377 . S
Gd521 O548 2.448 . S
Gd521 O549 2.506 . S
Gd521 O550 2.435 . S
Gd521 O551 2.717 . S
C522 O540 1.240 . S
C522 O541 1.240 . S
C523 Gd520 2.818 . S
C523 C524 1.510 . S
C523 O542 1.249 . S
C523 O543 1.252 . S
C524 C523 1.510 . S
C524 C525 1.404 . S
C524 C526 1.352 . S
C525 C524 1.404 . S
C525 C529 1.389 . S
C525 H552 0.930 . S
C526 C524 1.352 . S
C526 C528 1.374 . S
C526 H553 0.931 . S
C527 C528 1.359 . S
C527 C529 1.364 . S
C528 C526 1.374 . S
C528 C527 1.359 . S
C528 H554 0.931 . S
C529 C525 1.389 . S
C529 C527 1.364 . S
C529 H555 0.931 . S
C530 O544 1.256 . S
C530 O545 1.257 . S
C531 O546 1.240 . S
C531 O547 1.240 . S
C532 Gd521 2.818 . S
C532 C533 1.510 . S
C532 O548 1.249 . S
C532 O549 1.252 . S
C533 C532 1.510 . S
C533 C534 1.404 . S
C533 C535 1.352 . S
C534 C533 1.404 . S
C534 C538 1.389 . S
C534 H556 0.930 . S
C535 C533 1.352 . S
C535 C537 1.374 . S
C535 H557 0.931 . S
C536 C537 1.359 . S
C536 C538 1.364 . S
C537 C535 1.374 . S
C537 C536 1.359 . S
C537 H558 0.931 . S
C538 C534 1.389 . S
C538 C536 1.364 . S
C538 H559 0.931 . S
C539 O550 1.256 . S
C539 O551 1.257 . S
O540 Gd520 2.377 . S
O540 C522 1.240 . S
O541 Gd521 2.395 . S
O541 C522 1.240 . S
O542 Gd520 2.448 . S
O542 C523 1.249 . S
O543 Gd520 2.506 . S
O543 C523 1.252 . S
O544 Gd520 2.435 . S
O544 C530 1.256 . S
O545 Gd520 2.717 . S
O545 Gd521 2.327 . S
O545 C530 1.257 . S
O546 Gd521 2.377 . S
O546 C531 1.240 . S
O547 Gd520 2.395 . S
O547 C531 1.240 . S
O548 Gd521 2.448 . S
O548 C532 1.249 . S
O549 Gd521 2.506 . S
O549 C532 1.252 . S
O550 Gd521 2.435 . S
O550 C539 1.256 . S
O551 Gd520 2.327 . S
O551 Gd521 2.717 . S
O551 C539 1.257 . S
H552 C525 0.930 . S
H553 C526 0.931 . S
H554 C528 0.931 . S
H555 C529 0.931 . S
H556 C534 0.930 . S
H557 C535 0.931 . S
H558 C537 0.931 . S
H559 C538 0.931 . S
Gd560 C563 2.818 . S
Gd560 O580 2.377 . S
Gd560 O582 2.448 . S
Gd560 O583 2.506 . S
Gd560 O584 2.435 . S
Gd560 O585 2.717 . S
Gd560 O587 2.395 . S
Gd560 O591 2.327 . S
Gd561 C572 2.818 . S
Gd561 O581 2.395 . S
Gd561 O585 2.327 . S
Gd561 O586 2.377 . S
Gd561 O588 2.448 . S
Gd561 O589 2.506 . S
Gd561 O590 2.435 . S
Gd561 O591 2.717 . S
C562 O580 1.240 . S
C562 O581 1.240 . S
C563 Gd560 2.818 . S
C563 C564 1.510 . S
C563 O582 1.249 . S
C563 O583 1.252 . S
C564 C563 1.510 . S
C564 C565 1.404 . S
C564 C566 1.352 . S
C565 C564 1.404 . S
C565 C569 1.389 . S
C565 H592 0.930 . S
C566 C564 1.352 . S
C566 C568 1.374 . S
C566 H593 0.931 . S
C567 C568 1.359 . S
C567 C569 1.364 . S
C568 C566 1.374 . S
C568 C567 1.359 . S
C568 H594 0.931 . S
C569 C565 1.389 . S
C569 C567 1.364 . S
C569 H595 0.931 . S
C570 O584 1.256 . S
C570 O585 1.257 . S
C571 O586 1.240 . S
C571 O587 1.240 . S
C572 Gd561 2.818 . S
C572 C573 1.510 . S
C572 O588 1.249 . S
C572 O589 1.252 . S
C573 C572 1.510 . S
C573 C574 1.404 . S
C573 C575 1.352 . S
C574 C573 1.404 . S
C574 C578 1.389 . S
C574 H596 0.930 . S
C575 C573 1.352 . S
C575 C577 1.374 . S
C575 H597 0.931 . S
C576 C577 1.359 . S
C576 C578 1.364 . S
C577 C575 1.374 . S
C577 C576 1.359 . S
C577 H598 0.931 . S
C578 C574 1.389 . S
C578 C576 1.364 . S
C578 H599 0.931 . S
C579 O590 1.256 . S
C579 O591 1.257 . S
O580 Gd560 2.377 . S
O580 C562 1.240 . S
O581 Gd561 2.395 . S
O581 C562 1.240 . S
O582 Gd560 2.448 . S
O582 C563 1.249 . S
O583 Gd560 2.506 . S
O583 C563 1.252 . S
O584 Gd560 2.435 . S
O584 C570 1.256 . S
O585 Gd560 2.717 . S
O585 Gd561 2.327 . S
O585 C570 1.257 . S
O586 Gd561 2.377 . S
O586 C571 1.240 . S
O587 Gd560 2.395 . S
O587 C571 1.240 . S
O588 Gd561 2.448 . S
O588 C572 1.249 . S
O589 Gd561 2.506 . S
O589 C572 1.252 . S
O590 Gd561 2.435 . S
O590 C579 1.256 . S
O591 Gd560 2.327 . S
O591 Gd561 2.717 . S
O591 C579 1.257 . S
H592 C565 0.930 . S
H593 C566 0.931 . S
H594 C568 0.931 . S
H595 C569 0.931 . S
H596 C574 0.930 . S
H597 C575 0.931 . S
H598 C577 0.931 . S
H599 C578 0.931 . S
Gd600 C603 2.835 . S
Gd600 O620 2.377 . S
Gd600 O622 2.448 . S
Gd600 O623 2.506 . S
Gd600 O624 2.435 . S
Gd600 O625 2.717 . S
Gd600 O627 2.395 . S
Gd600 O631 2.327 . S
Gd601 C612 2.818 . S
Gd601 O621 2.395 . S
Gd601 O625 2.327 . S
Gd601 O626 2.377 . S
Gd601 O628 2.448 . S
Gd601 O629 2.506 . S
Gd601 O630 2.435 . S
Gd601 O631 2.717 . S
C602 O620 1.240 . S
C602 O621 1.240 . S
C603 Gd600 2.835 . S
C603 C604 1.493 1_556 S
C603 O622 1.258 . S
C603 O623 1.259 . S
C604 C603 1.493 1_554 S
C604 C605 1.404 . S
C604 C606 1.352 . S
C605 C604 1.404 . S
C605 C609 1.389 . S
C605 H632 0.930 . S
C606 C604 1.352 . S
C606 C608 1.374 . S
C606 H633 0.931 . S
C607 C608 1.359 . S
C607 C609 1.364 . S
C608 C606 1.374 . S
C608 C607 1.359 . S
C608 H634 0.931 . S
C609 C605 1.389 . S
C609 C607 1.364 . S
C609 H635 0.931 . S
C610 O624 1.256 . S
C610 O625 1.257 . S
C611 O626 1.240 . S
C611 O627 1.240 . S
C612 Gd601 2.818 . S
C612 C613 1.510 . S
C612 O628 1.249 . S
C612 O629 1.252 . S
C613 C612 1.510 . S
C613 C614 1.404 . S
C613 C615 1.352 . S
C614 C613 1.404 . S
C614 C618 1.389 . S
C614 H636 0.930 . S
C615 C613 1.352 . S
C615 C617 1.374 . S
C615 H637 0.931 . S
C616 C617 1.359 . S
C616 C618 1.364 . S
C617 C615 1.374 . S
C617 C616 1.359 . S
C617 H638 0.931 . S
C618 C614 1.389 . S
C618 C616 1.364 . S
C618 H639 0.931 . S
C619 O630 1.256 . S
C619 O631 1.257 . S
O620 Gd600 2.377 . S
O620 C602 1.240 . S
O621 Gd601 2.395 . S
O621 C602 1.240 . S
O622 Gd600 2.448 . S
O622 C603 1.258 . S
O623 Gd600 2.506 . S
O623 C603 1.259 . S
O624 Gd600 2.435 . S
O624 C610 1.256 . S
O625 Gd600 2.717 . S
O625 Gd601 2.327 . S
O625 C610 1.257 . S
O626 Gd601 2.377 . S
O626 C611 1.240 . S
O627 Gd600 2.395 . S
O627 C611 1.240 . S
O628 Gd601 2.448 . S
O628 C612 1.249 . S
O629 Gd601 2.506 . S
O629 C612 1.252 . S
O630 Gd601 2.435 . S
O630 C619 1.256 . S
O631 Gd600 2.327 . S
O631 Gd601 2.717 . S
O631 C619 1.257 . S
H632 C605 0.930 . S
H633 C606 0.931 . S
H634 C608 0.931 . S
H635 C609 0.931 . S
H636 C614 0.930 . S
H637 C615 0.931 . S
H638 C617 0.931 . S
H639 C618 0.931 . S
Gd640 C643 2.818 . S
Gd640 O660 2.377 . S
Gd640 O662 2.448 . S
Gd640 O663 2.506 . S
Gd640 O664 2.435 . S
Gd640 O665 2.717 . S
Gd640 O667 2.395 . S
Gd640 O671 2.327 . S
Gd641 C652 2.818 . S
Gd641 O661 2.395 . S
Gd641 O665 2.327 . S
Gd641 O666 2.377 . S
Gd641 O668 2.448 . S
Gd641 O669 2.506 . S
Gd641 O670 2.435 . S
Gd641 O671 2.717 . S
C642 O660 1.240 . S
C642 O661 1.240 . S
C643 Gd640 2.818 . S
C643 C644 1.510 . S
C643 O662 1.249 . S
C643 O663 1.252 . S
C644 C643 1.510 . S
C644 C645 1.404 . S
C644 C646 1.352 . S
C645 C644 1.404 . S
C645 C649 1.389 . S
C645 H672 0.930 . S
C646 C644 1.352 . S
C646 C648 1.374 . S
C646 H673 0.931 . S
C647 C648 1.359 . S
C647 C649 1.364 . S
C648 C646 1.374 . S
C648 C647 1.359 . S
C648 H674 0.931 . S
C649 C645 1.389 . S
C649 C647 1.364 . S
C649 H675 0.931 . S
C650 O664 1.256 . S
C650 O665 1.257 . S
C651 O666 1.240 . S
C651 O667 1.240 . S
C652 Gd641 2.818 . S
C652 C653 1.510 . S
C652 O668 1.249 . S
C652 O669 1.252 . S
C653 C652 1.510 . S
C653 C654 1.404 . S
C653 C655 1.352 . S
C654 C653 1.404 . S
C654 C658 1.389 . S
C654 H676 0.930 . S
C655 C653 1.352 . S
C655 C657 1.374 . S
C655 H677 0.931 . S
C656 C657 1.359 . S
C656 C658 1.364 . S
C657 C655 1.374 . S
C657 C656 1.359 . S
C657 H678 0.931 . S
C658 C654 1.389 . S
C658 C656 1.364 . S
C658 H679 0.931 . S
C659 O670 1.256 . S
C659 O671 1.257 . S
O660 Gd640 2.377 . S
O660 C642 1.240 . S
O661 Gd641 2.395 . S
O661 C642 1.240 . S
O662 Gd640 2.448 . S
O662 C643 1.249 . S
O663 Gd640 2.506 . S
O663 C643 1.252 . S
O664 Gd640 2.435 . S
O664 C650 1.256 . S
O665 Gd640 2.717 . S
O665 Gd641 2.327 . S
O665 C650 1.257 . S
O666 Gd641 2.377 . S
O666 C651 1.240 . S
O667 Gd640 2.395 . S
O667 C651 1.240 . S
O668 Gd641 2.448 . S
O668 C652 1.249 . S
O669 Gd641 2.506 . S
O669 C652 1.252 . S
O670 Gd641 2.435 . S
O670 C659 1.256 . S
O671 Gd640 2.327 . S
O671 Gd641 2.717 . S
O671 C659 1.257 . S
H672 C645 0.930 . S
H673 C646 0.931 . S
H674 C648 0.931 . S
H675 C649 0.931 . S
H676 C654 0.930 . S
H677 C655 0.931 . S
H678 C657 0.931 . S
H679 C658 0.931 . S
Gd680 C683 2.818 . S
Gd680 O700 2.377 . S
Gd680 O702 2.448 . S
Gd680 O703 2.506 . S
Gd680 O704 2.435 . S
Gd680 O705 2.717 . S
Gd680 O707 2.395 . S
Gd680 O711 2.327 . S
Gd681 C692 2.818 . S
Gd681 O701 2.395 . S
Gd681 O705 2.327 . S
Gd681 O706 2.377 . S
Gd681 O708 2.448 . S
Gd681 O709 2.506 . S
Gd681 O710 2.435 . S
Gd681 O711 2.717 . S
C682 O700 1.240 . S
C682 O701 1.240 . S
C683 Gd680 2.818 . S
C683 C684 1.510 1_556 S
C683 O702 1.249 . S
C683 O703 1.252 . S
C684 C683 1.510 1_554 S
C684 C685 1.404 . S
C684 C686 1.352 . S
C685 C684 1.404 . S
C685 C689 1.389 . S
C685 H712 0.930 . S
C686 C684 1.352 . S
C686 C688 1.374 . S
C686 H713 0.931 . S
C687 C688 1.359 . S
C687 C689 1.364 . S
C688 C686 1.374 . S
C688 C687 1.359 . S
C688 H714 0.931 . S
C689 C685 1.389 . S
C689 C687 1.364 . S
C689 H715 0.931 . S
C690 O704 1.256 . S
C690 O705 1.257 . S
C691 O706 1.240 . S
C691 O707 1.240 . S
C692 Gd681 2.818 . S
C692 C693 1.510 . S
C692 O708 1.249 . S
C692 O709 1.252 . S
C693 C692 1.510 . S
C693 C694 1.404 . S
C693 C695 1.352 . S
C694 C693 1.404 . S
C694 C698 1.389 . S
C694 H716 0.930 . S
C695 C693 1.352 . S
C695 C697 1.374 . S
C695 H717 0.931 . S
C696 C697 1.359 . S
C696 C698 1.364 . S
C697 C695 1.374 . S
C697 C696 1.359 . S
C697 H718 0.931 . S
C698 C694 1.389 . S
C698 C696 1.364 . S
C698 H719 0.931 . S
C699 O710 1.256 . S
C699 O711 1.257 . S
O700 Gd680 2.377 . S
O700 C682 1.240 . S
O701 Gd681 2.395 . S
O701 C682 1.240 . S
O702 Gd680 2.448 . S
O702 C683 1.249 . S
O703 Gd680 2.506 . S
O703 C683 1.252 . S
O704 Gd680 2.435 . S
O704 C690 1.256 . S
O705 Gd680 2.717 . S
O705 Gd681 2.327 . S
O705 C690 1.257 . S
O706 Gd681 2.377 . S
O706 C691 1.240 . S
O707 Gd680 2.395 . S
O707 C691 1.240 . S
O708 Gd681 2.448 . S
O708 C692 1.249 . S
O709 Gd681 2.506 . S
O709 C692 1.252 . S
O710 Gd681 2.435 . S
O710 C699 1.256 . S
O711 Gd680 2.327 . S
O711 Gd681 2.717 . S
O711 C699 1.257 . S
H712 C685 0.930 . S
H713 C686 0.931 . S
H714 C688 0.931 . S
H715 C689 0.931 . S
H716 C694 0.930 . S
H717 C695 0.931 . S
H718 C697 0.931 . S
H719 C698 0.931 . S
Gd720 C723 2.818 . S
Gd720 O740 2.377 . S
Gd720 O742 2.448 . S
Gd720 O743 2.506 . S
Gd720 O744 2.435 . S
Gd720 O745 2.717 . S
Gd720 O747 2.395 . S
Gd720 O751 2.327 . S
Gd721 C732 2.818 . S
Gd721 O741 2.395 . S
Gd721 O745 2.327 . S
Gd721 O746 2.377 . S
Gd721 O748 2.448 . S
Gd721 O749 2.506 . S
Gd721 O750 2.435 . S
Gd721 O751 2.717 . S
C722 O740 1.240 . S
C722 O741 1.240 . S
C723 Gd720 2.818 . S
C723 C724 1.510 . S
C723 O742 1.249 . S
C723 O743 1.252 . S
C724 C723 1.510 . S
C724 C725 1.404 1_655 S
C724 C726 1.352 . S
C725 C724 1.404 1_455 S
C725 C729 1.389 . S
C725 H752 0.930 . S
C726 C724 1.352 . S
C726 C728 1.374 . S
C726 H753 0.931 . S
C727 C728 1.359 . S
C727 C729 1.364 1_655 S
C728 C726 1.374 . S
C728 C727 1.359 . S
C728 H754 0.931 . S
C729 C725 1.389 . S
C729 C727 1.364 1_455 S
C729 H755 0.931 . S
C730 O744 1.256 . S
C730 O745 1.257 . S
C731 O746 1.240 . S
C731 O747 1.240 . S
C732 Gd721 2.818 . S
C732 C733 1.510 1_554 S
C732 O748 1.249 . S
C732 O749 1.252 . S
C733 C732 1.510 1_556 S
C733 C734 1.404 . S
C733 C735 1.352 . S
C734 C733 1.404 . S
C734 C738 1.389 . S
C734 H756 0.930 . S
C735 C733 1.352 . S
C735 C737 1.374 . S
C735 H757 0.931 . S
C736 C737 1.359 . S
C736 C738 1.364 . S
C737 C735 1.374 . S
C737 C736 1.359 . S
C737 H758 0.931 . S
C738 C734 1.389 . S
C738 C736 1.364 . S
C738 H759 0.931 . S
C739 O750 1.256 . S
C739 O751 1.257 . S
O740 Gd720 2.377 . S
O740 C722 1.240 . S
O741 Gd721 2.395 . S
O741 C722 1.240 . S
O742 Gd720 2.448 . S
O742 C723 1.249 . S
O743 Gd720 2.506 . S
O743 C723 1.252 . S
O744 Gd720 2.435 . S
O744 C730 1.256 . S
O745 Gd720 2.717 . S
O745 Gd721 2.327 . S
O745 C730 1.257 . S
O746 Gd721 2.377 . S
O746 C731 1.240 . S
O747 Gd720 2.395 . S
O747 C731 1.240 . S
O748 Gd721 2.448 . S
O748 C732 1.249 . S
O749 Gd721 2.506 . S
O749 C732 1.252 . S
O750 Gd721 2.435 . S
O750 C739 1.256 . S
O751 Gd720 2.327 . S
O751 Gd721 2.717 . S
O751 C739 1.257 . S
H752 C725 0.930 . S
H753 C726 0.931 . S
H754 C728 0.931 . S
H755 C729 0.931 . S
H756 C734 0.930 . S
H757 C735 0.931 . S
H758 C737 0.931 . S
H759 C738 0.931 . S
Gd760 C763 2.818 . S
Gd760 O780 2.377 . S
Gd760 O782 2.448 . S
Gd760 O783 2.506 . S
Gd760 O784 2.435 . S
Gd760 O785 2.717 . S
Gd760 O787 2.395 . S
Gd760 O791 2.327 . S
Gd761 C772 2.818 . S
Gd761 O781 2.395 . S
Gd761 O785 2.327 . S
Gd761 O786 2.377 . S
Gd761 O788 2.448 . S
Gd761 O789 2.506 . S
Gd761 O790 2.435 . S
Gd761 O791 2.717 . S
C762 O780 1.240 . S
C762 O781 1.240 . S
C763 Gd760 2.818 . S
C763 C764 1.510 . S
C763 O782 1.249 . S
C763 O783 1.252 . S
C764 C763 1.510 . S
C764 C765 1.404 . S
C764 C766 1.352 . S
C765 C764 1.404 . S
C765 C769 1.389 . S
C765 H792 0.930 . S
C766 C764 1.352 . S
C766 C768 1.374 . S
C766 H793 0.931 . S
C767 C768 1.359 . S
C767 C769 1.364 . S
C768 C766 1.374 . S
C768 C767 1.359 . S
C768 H794 0.931 . S
C769 C765 1.389 . S
C769 C767 1.364 . S
C769 H795 0.931 . S
C770 O784 1.256 . S
C770 O785 1.257 . S
C771 O786 1.240 . S
C771 O787 1.240 . S
C772 Gd761 2.818 . S
C772 C773 1.510 . S
C772 O788 1.249 . S
C772 O789 1.252 . S
C773 C772 1.510 . S
C773 C774 1.404 . S
C773 C775 1.352 . S
C774 C773 1.404 . S
C774 C778 1.389 . S
C774 H796 0.930 . S
C775 C773 1.352 . S
C775 C777 1.374 . S
C775 H797 0.931 . S
C776 C777 1.359 . S
C776 C778 1.364 . S
C777 C775 1.374 . S
C777 C776 1.359 . S
C777 H798 0.931 . S
C778 C774 1.389 . S
C778 C776 1.364 . S
C778 H799 0.931 . S
C779 O790 1.256 . S
C779 O791 1.257 . S
O780 Gd760 2.377 . S
O780 C762 1.240 . S
O781 Gd761 2.395 . S
O781 C762 1.240 . S
O782 Gd760 2.448 . S
O782 C763 1.249 . S
O783 Gd760 2.506 . S
O783 C763 1.252 . S
O784 Gd760 2.435 . S
O784 C770 1.256 . S
O785 Gd760 2.717 . S
O785 Gd761 2.327 . S
O785 C770 1.257 . S
O786 Gd761 2.377 . S
O786 C771 1.240 . S
O787 Gd760 2.395 . S
O787 C771 1.240 . S
O788 Gd761 2.448 . S
O788 C772 1.249 . S
O789 Gd761 2.506 . S
O789 C772 1.252 . S
O790 Gd761 2.435 . S
O790 C779 1.256 . S
O791 Gd760 2.327 . S
O791 Gd761 2.717 . S
O791 C779 1.257 . S
H792 C765 0.930 . S
H793 C766 0.931 . S
H794 C768 0.931 . S
H795 C769 0.931 . S
H796 C774 0.930 . S
H797 C775 0.931 . S
H798 C777 0.931 . S
H799 C778 0.931 . S
Gd800 C803 2.818 . S
Gd800 O820 2.377 . S
Gd800 O822 2.448 . S
Gd800 O823 2.506 . S
Gd800 O824 2.435 . S
Gd800 O825 2.717 . S
Gd800 O827 2.395 . S
Gd800 O831 2.327 . S
Gd801 C812 2.818 1_554 S
Gd801 O821 2.395 . S
Gd801 O825 2.327 . S
Gd801 O826 2.377 . S
Gd801 O828 2.448 1_544 S
Gd801 O829 2.506 1_554 S
Gd801 O830 2.435 1_545 S
Gd801 O831 2.717 . S
C802 O820 1.240 . S
C802 O821 1.240 . S
C803 Gd800 2.818 . S
C803 C804 1.510 . S
C803 O822 1.249 . S
C803 O823 1.252 . S
C804 C803 1.510 . S
C804 C805 1.404 . S
C804 C806 1.352 . S
C805 C804 1.404 . S
C805 C809 1.389 . S
C805 H832 0.930 . S
C806 C804 1.352 . S
C806 C808 1.374 . S
C806 H833 0.931 . S
C807 C808 1.359 . S
C807 C809 1.364 . S
C808 C806 1.374 . S
C808 C807 1.359 . S
C808 H834 0.931 . S
C809 C805 1.389 . S
C809 C807 1.364 . S
C809 H835 0.931 . S
C810 O824 1.256 . S
C810 O825 1.257 . S
C811 O826 1.243 . S
C811 O827 1.254 . S
C812 Gd801 2.818 1_556 S
C812 C813 1.510 1_545 S
C812 O828 1.249 1_545 S
C812 O829 1.252 . S
C813 C812 1.510 1_565 S
C813 C814 1.404 . S
C813 C815 1.352 1_565 S
C814 C813 1.404 . S
C814 C818 1.389 . S
C814 H836 0.930 . S
C815 C813 1.352 1_545 S
C815 C817 1.374 . S
C815 H837 0.931 . S
C816 C817 1.359 1_565 S
C816 C818 1.364 . S
C817 C815 1.374 . S
C817 C816 1.359 1_545 S
C817 H838 0.931 . S
C818 C814 1.389 . S
C818 C816 1.364 . S
C818 H839 0.931 . S
C819 O830 1.256 1_545 S
C819 O831 1.257 . S
O820 Gd800 2.377 . S
O820 C802 1.240 . S
O821 Gd801 2.395 . S
O821 C802 1.240 . S
O822 Gd800 2.448 . S
O822 C803 1.249 . S
O823 Gd800 2.506 . S
O823 C803 1.252 . S
O824 Gd800 2.435 . S
O824 C810 1.256 . S
O825 Gd800 2.717 . S
O825 Gd801 2.327 . S
O825 C810 1.257 . S
O826 Gd801 2.377 . S
O826 C811 1.243 . S
O827 Gd800 2.395 . S
O827 C811 1.254 . S
O828 Gd801 2.448 1_566 S
O828 C812 1.249 1_565 S
O829 Gd801 2.506 1_556 S
O829 C812 1.252 . S
O830 Gd801 2.435 1_565 S
O830 C819 1.256 1_565 S
O831 Gd800 2.327 . S
O831 Gd801 2.717 . S
O831 C819 1.257 . S
H832 C805 0.930 . S
H833 C806 0.931 . S
H834 C808 0.931 . S
H835 C809 0.931 . S
H836 C814 0.930 . S
H837 C815 0.931 . S
H838 C817 0.931 . S
H839 C818 0.931 . S
Gd840 C843 2.818 . S
Gd840 O860 2.377 . S
Gd840 O862 2.448 . S
Gd840 O863 2.506 . S
Gd840 O864 2.435 . S
Gd840 O865 2.717 . S
Gd840 O867 2.395 . S
Gd840 O871 2.327 . S
Gd841 C852 2.818 . S
Gd841 O861 2.395 . S
Gd841 O865 2.327 . S
Gd841 O866 2.377 . S
Gd841 O868 2.448 . S
Gd841 O869 2.506 . S
Gd841 O870 2.435 . S
Gd841 O871 2.717 . S
C842 O860 1.240 . S
C842 O861 1.240 . S
C843 Gd840 2.818 . S
C843 C844 1.510 . S
C843 O862 1.249 . S
C843 O863 1.252 . S
C844 C843 1.510 . S
C844 C845 1.404 . S
C844 C846 1.352 . S
C845 C844 1.404 . S
C845 C849 1.389 . S
C845 H872 0.930 . S
C846 C844 1.352 . S
C846 C848 1.374 . S
C846 H873 0.931 . S
C847 C848 1.359 . S
C847 C849 1.364 . S
C848 C846 1.374 . S
C848 C847 1.359 . S
C848 H874 0.931 . S
C849 C845 1.389 . S
C849 C847 1.364 . S
C849 H875 0.931 . S
C850 O864 1.256 . S
C850 O865 1.257 . S
C851 O866 1.240 . S
C851 O867 1.240 . S
C852 Gd841 2.818 . S
C852 C853 1.510 . S
C852 O868 1.249 . S
C852 O869 1.252 . S
C853 C852 1.510 . S
C853 C854 1.404 . S
C853 C855 1.352 . S
C854 C853 1.404 . S
C854 C858 1.389 . S
C854 H876 0.930 . S
C855 C853 1.352 . S
C855 C857 1.374 . S
C855 H877 0.931 . S
C856 C857 1.359 . S
C856 C858 1.364 . S
C857 C855 1.374 . S
C857 C856 1.359 . S
C857 H878 0.931 . S
C858 C854 1.389 . S
C858 C856 1.364 . S
C858 H879 0.931 . S
C859 O870 1.256 . S
C859 O871 1.257 . S
O860 Gd840 2.377 . S
O860 C842 1.240 . S
O861 Gd841 2.395 . S
O861 C842 1.240 . S
O862 Gd840 2.448 . S
O862 C843 1.249 . S
O863 Gd840 2.506 . S
O863 C843 1.252 . S
O864 Gd840 2.435 . S
O864 C850 1.256 . S
O865 Gd840 2.717 . S
O865 Gd841 2.327 . S
O865 C850 1.257 . S
O866 Gd841 2.377 . S
O866 C851 1.240 . S
O867 Gd840 2.395 . S
O867 C851 1.240 . S
O868 Gd841 2.448 . S
O868 C852 1.249 . S
O869 Gd841 2.506 . S
O869 C852 1.252 . S
O870 Gd841 2.435 . S
O870 C859 1.256 . S
O871 Gd840 2.327 . S
O871 Gd841 2.717 . S
O871 C859 1.257 . S
H872 C845 0.930 . S
H873 C846 0.931 . S
H874 C848 0.931 . S
H875 C849 0.931 . S
H876 C854 0.930 . S
H877 C855 0.931 . S
H878 C857 0.931 . S
H879 C858 0.931 . S
Gd880 C883 2.818 . S
Gd880 O900 2.377 . S
Gd880 O902 2.448 . S
Gd880 O903 2.506 . S
Gd880 O904 2.435 . S
Gd880 O905 2.717 . S
Gd880 O907 2.395 . S
Gd880 O911 2.327 . S
Gd881 C892 2.818 1_565 S
Gd881 O901 2.395 . S
Gd881 O905 2.327 . S
Gd881 O906 2.377 . S
Gd881 O908 2.448 1_565 S
Gd881 O909 2.506 . S
Gd881 O910 2.435 1_565 S
Gd881 O911 2.717 . S
C882 O900 1.240 . S
C882 O901 1.240 . S
C883 Gd880 2.818 . S
C883 C884 1.510 . S
C883 O902 1.249 . S
C883 O903 1.252 . S
C884 C883 1.510 . S
C884 C885 1.404 . S
C884 C886 1.352 . S
C885 C884 1.404 . S
C885 C889 1.389 . S
C885 H912 0.930 . S
C886 C884 1.352 . S
C886 C888 1.374 . S
C886 H913 0.931 . S
C887 C888 1.359 . S
C887 C889 1.364 . S
C888 C886 1.374 . S
C888 C887 1.359 . S
C888 H914 0.931 . S
C889 C885 1.389 . S
C889 C887 1.364 . S
C889 H915 0.931 . S
C890 O904 1.256 . S
C890 O905 1.257 . S
C891 O906 1.240 . S
C891 O907 1.240 . S
C892 Gd881 2.818 1_545 S
C892 C893 1.510 . S
C892 O908 1.249 . S
C892 O909 1.252 1_545 S
C893 C892 1.510 . S
C893 C894 1.404 . S
C893 C895 1.352 1_545 S
C894 C893 1.404 . S
C894 C898 1.389 . S
C894 H916 0.930 . S
C895 C893 1.352 1_565 S
C895 C897 1.374 1_565 S
C895 H917 0.931 . S
C896 C897 1.359 . S
C896 C898 1.364 . S
C897 C895 1.374 1_545 S
C897 C896 1.359 . S
C897 H918 0.931 1_545 S
C898 C894 1.389 . S
C898 C896 1.364 . S
C898 H919 0.931 . S
C899 O910 1.256 1_565 S
C899 O911 1.257 . S
O900 Gd880 2.377 . S
O900 C882 1.240 . S
O901 Gd881 2.395 . S
O901 C882 1.240 . S
O902 Gd880 2.448 . S
O902 C883 1.249 . S
O903 Gd880 2.506 . S
O903 C883 1.252 . S
O904 Gd880 2.435 . S
O904 C890 1.256 . S
O905 Gd880 2.717 . S
O905 Gd881 2.327 . S
O905 C890 1.257 . S
O906 Gd881 2.377 . S
O906 C891 1.240 . S
O907 Gd880 2.395 . S
O907 C891 1.240 . S
O908 Gd881 2.448 1_545 S
O908 C892 1.249 . S
O909 Gd881 2.506 . S
O909 C892 1.252 1_565 S
O910 Gd881 2.435 1_545 S
O910 C899 1.256 1_545 S
O911 Gd880 2.327 . S
O911 Gd881 2.717 . S
O911 C899 1.257 . S
H912 C885 0.930 . S
H913 C886 0.931 . S
H914 C888 0.931 . S
H915 C889 0.931 . S
H916 C894 0.930 . S
H917 C895 0.931 . S
H918 C897 0.931 1_565 S
H919 C898 0.931 . S
Gd920 C923 2.818 1_556 S
Gd920 O940 2.377 . S
Gd920 O942 2.448 1_556 S
Gd920 O943 2.506 1_556 S
Gd920 O944 2.435 . S
Gd920 O945 2.717 . S
Gd920 O947 2.395 . S
Gd920 O951 2.327 . S
Gd921 C932 2.818 . S
Gd921 O941 2.395 . S
Gd921 O945 2.327 . S
Gd921 O946 2.377 . S
Gd921 O948 2.448 . S
Gd921 O949 2.506 . S
Gd921 O950 2.435 . S
Gd921 O951 2.717 . S
C922 O940 1.242 . S
C922 O941 1.259 . S
C923 Gd920 2.818 1_554 S
C923 C924 1.510 . S
C923 O942 1.249 . S
C923 O943 1.252 . S
C924 C923 1.510 . S
C924 C925 1.404 . S
C924 C926 1.352 . S
C925 C924 1.404 . S
C925 C929 1.389 . S
C925 H952 0.930 . S
C926 C924 1.352 . S
C926 C928 1.374 . S
C926 H953 0.931 . S
C927 C928 1.359 . S
C927 C929 1.364 . S
C928 C926 1.374 . S
C928 C927 1.359 . S
C928 H954 0.931 . S
C929 C925 1.389 . S
C929 C927 1.364 . S
C929 H955 0.931 . S
C930 O944 1.256 . S
C930 O945 1.257 . S
C931 O946 1.240 . S
C931 O947 1.240 . S
C932 Gd921 2.818 . S
C932 C933 1.510 . S
C932 O948 1.249 . S
C932 O949 1.252 . S
C933 C932 1.510 . S
C933 C934 1.404 . S
C933 C935 1.352 . S
C934 C933 1.404 . S
C934 C938 1.389 . S
C934 H956 0.930 . S
C935 C933 1.352 . S
C935 C937 1.374 . S
C935 H957 0.931 . S
C936 C937 1.359 . S
C936 C938 1.364 . S
C937 C935 1.374 . S
C937 C936 1.359 . S
C937 H958 0.931 . S
C938 C934 1.389 . S
C938 C936 1.364 . S
C938 H959 0.931 . S
C939 O950 1.256 . S
C939 O951 1.257 . S
O940 Gd920 2.377 . S
O940 C922 1.242 . S
O941 Gd921 2.395 . S
O941 C922 1.259 . S
O942 Gd920 2.448 1_554 S
O942 C923 1.249 . S
O943 Gd920 2.506 1_554 S
O943 C923 1.252 . S
O944 Gd920 2.435 . S
O944 C930 1.256 . S
O945 Gd920 2.717 . S
O945 Gd921 2.327 . S
O945 C930 1.257 . S
O946 Gd921 2.377 . S
O946 C931 1.240 . S
O947 Gd920 2.395 . S
O947 C931 1.240 . S
O948 Gd921 2.448 . S
O948 C932 1.249 . S
O949 Gd921 2.506 . S
O949 C932 1.252 . S
O950 Gd921 2.435 . S
O950 C939 1.256 . S
O951 Gd920 2.327 . S
O951 Gd921 2.717 . S
O951 C939 1.257 . S
H952 C925 0.930 . S
H953 C926 0.931 . S
H954 C928 0.931 . S
H955 C929 0.931 . S
H956 C934 0.930 . S
H957 C935 0.931 . S
H958 C937 0.931 . S
H959 C938 0.931 . S
Gd960 C963 2.818 . S
Gd960 O980 2.377 . S
Gd960 O982 2.448 . S
Gd960 O983 2.506 . S
Gd960 O984 2.435 . S
Gd960 O985 2.717 . S
Gd960 O987 2.395 . S
Gd960 O991 2.327 . S
Gd961 C972 2.818 . S
Gd961 O981 2.395 . S
Gd961 O985 2.327 . S
Gd961 O986 2.377 . S
Gd961 O988 2.448 . S
Gd961 O989 2.506 . S
Gd961 O990 2.435 . S
Gd961 O991 2.717 . S
C962 O980 1.240 . S
C962 O981 1.240 . S
C963 Gd960 2.818 . S
C963 C964 1.510 . S
C963 O982 1.249 . S
C963 O983 1.252 . S
C964 C963 1.510 . S
C964 C965 1.404 . S
C964 C966 1.352 . S
C965 C964 1.404 . S
C965 C969 1.389 . S
C965 H992 0.930 . S
C966 C964 1.352 . S
C966 C968 1.374 . S
C966 H993 0.931 . S
C967 C968 1.359 . S
C967 C969 1.364 . S
C968 C966 1.374 . S
C968 C967 1.359 . S
C968 H994 0.931 . S
C969 C965 1.389 . S
C969 C967 1.364 . S
C969 H995 0.931 . S
C970 O984 1.256 . S
C970 O985 1.257 . S
C971 O986 1.240 . S
C971 O987 1.240 . S
C972 Gd961 2.818 . S
C972 C973 1.510 . S
C972 O988 1.249 . S
C972 O989 1.252 . S
C973 C972 1.510 . S
C973 C974 1.404 . S
C973 C975 1.352 . S
C974 C973 1.404 . S
C974 C978 1.389 . S
C974 H996 0.930 . S
C975 C973 1.352 . S
C975 C977 1.374 . S
C975 H997 0.931 . S
C976 C977 1.359 . S
C976 C978 1.364 . S
C977 C975 1.374 . S
C977 C976 1.359 . S
C977 H998 0.931 . S
C978 C974 1.389 . S
C978 C976 1.364 . S
C978 H999 0.931 . S
C979 O990 1.256 . S
C979 O991 1.257 . S
O980 Gd960 2.377 . S
O980 C962 1.240 . S
O981 Gd961 2.395 . S
O981 C962 1.240 . S
O982 Gd960 2.448 . S
O982 C963 1.249 . S
O983 Gd960 2.506 . S
O983 C963 1.252 . S
O984 Gd960 2.435 . S
O984 C970 1.256 . S
O985 Gd960 2.717 . S
O985 Gd961 2.327 . S
O985 C970 1.257 . S
O986 Gd961 2.377 . S
O986 C971 1.240 . S
O987 Gd960 2.395 . S
O987 C971 1.240 . S
O988 Gd961 2.448 . S
O988 C972 1.249 . S
O989 Gd961 2.506 . S
O989 C972 1.252 . S
O990 Gd961 2.435 . S
O990 C979 1.256 . S
O991 Gd960 2.327 . S
O991 Gd961 2.717 . S
O991 C979 1.257 . S
H992 C965 0.930 . S
H993 C966 0.931 . S
H994 C968 0.931 . S
H995 C969 0.931 . S
H996 C974 0.930 . S
H997 C975 0.931 . S
H998 C977 0.931 . S
H999 C978 0.931 . S
Gd1000 C1003 2.818 . S
Gd1000 O1020 2.377 . S
Gd1000 O1022 2.448 . S
Gd1000 O1023 2.506 . S
Gd1000 O1024 2.435 . S
Gd1000 O1025 2.717 . S
Gd1000 O1027 2.395 . S
Gd1000 O1031 2.327 . S
Gd1001 C1012 2.818 . S
Gd1001 O1021 2.395 . S
Gd1001 O1025 2.327 . S
Gd1001 O1026 2.377 . S
Gd1001 O1028 2.448 . S
Gd1001 O1029 2.506 . S
Gd1001 O1030 2.435 . S
Gd1001 O1031 2.717 . S
C1002 O1020 1.240 . S
C1002 O1021 1.240 . S
C1003 Gd1000 2.818 . S
C1003 C1004 1.510 . S
C1003 O1022 1.249 . S
C1003 O1023 1.252 . S
C1004 C1003 1.510 . S
C1004 C1005 1.404 . S
C1004 C1006 1.352 . S
C1005 C1004 1.404 . S
C1005 C1009 1.389 . S
C1005 H1032 0.930 . S
C1006 C1004 1.352 . S
C1006 C1008 1.374 . S
C1006 H1033 0.931 . S
C1007 C1008 1.359 . S
C1007 C1009 1.364 . S
C1008 C1006 1.374 . S
C1008 C1007 1.359 . S
C1008 H1034 0.931 . S
C1009 C1005 1.389 . S
C1009 C1007 1.364 . S
C1009 H1035 0.931 . S
C1010 O1024 1.256 . S
C1010 O1025 1.257 . S
C1011 O1026 1.240 . S
C1011 O1027 1.240 . S
C1012 Gd1001 2.818 . S
C1012 C1013 1.510 . S
C1012 O1028 1.249 . S
C1012 O1029 1.252 . S
C1013 C1012 1.510 . S
C1013 C1014 1.404 . S
C1013 C1015 1.352 . S
C1014 C1013 1.404 . S
C1014 C1018 1.389 . S
C1014 H1036 0.930 . S
C1015 C1013 1.352 . S
C1015 C1017 1.374 . S
C1015 H1037 0.931 . S
C1016 C1017 1.359 . S
C1016 C1018 1.364 . S
C1017 C1015 1.374 . S
C1017 C1016 1.359 . S
C1017 H1038 0.931 . S
C1018 C1014 1.389 . S
C1018 C1016 1.364 . S
C1018 H1039 0.931 . S
C1019 O1030 1.256 . S
C1019 O1031 1.257 . S
O1020 Gd1000 2.377 . S
O1020 C1002 1.240 . S
O1021 Gd1001 2.395 . S
O1021 C1002 1.240 . S
O1022 Gd1000 2.448 . S
O1022 C1003 1.249 . S
O1023 Gd1000 2.506 . S
O1023 C1003 1.252 . S
O1024 Gd1000 2.435 . S
O1024 C1010 1.256 . S
O1025 Gd1000 2.717 . S
O1025 Gd1001 2.327 . S
O1025 C1010 1.257 . S
O1026 Gd1001 2.377 . S
O1026 C1011 1.240 . S
O1027 Gd1000 2.395 . S
O1027 C1011 1.240 . S
O1028 Gd1001 2.448 . S
O1028 C1012 1.249 . S
O1029 Gd1001 2.506 . S
O1029 C1012 1.252 . S
O1030 Gd1001 2.435 . S
O1030 C1019 1.256 . S
O1031 Gd1000 2.327 . S
O1031 Gd1001 2.717 . S
O1031 C1019 1.257 . S
H1032 C1005 0.930 . S
H1033 C1006 0.931 . S
H1034 C1008 0.931 . S
H1035 C1009 0.931 . S
H1036 C1014 0.930 . S
H1037 C1015 0.931 . S
H1038 C1017 0.931 . S
H1039 C1018 0.931 . S
Gd1040 C1043 2.818 . S
Gd1040 O1060 2.377 . S
Gd1040 O1062 2.448 . S
Gd1040 O1063 2.506 . S
Gd1040 O1064 2.435 . S
Gd1040 O1065 2.717 . S
Gd1040 O1067 2.395 . S
Gd1040 O1071 2.327 . S
Gd1041 C1052 2.818 . S
Gd1041 O1061 2.395 . S
Gd1041 O1065 2.327 . S
Gd1041 O1066 2.377 . S
Gd1041 O1068 2.448 . S
Gd1041 O1069 2.506 . S
Gd1041 O1070 2.435 . S
Gd1041 O1071 2.717 . S
C1042 O1060 1.240 . S
C1042 O1061 1.240 . S
C1043 Gd1040 2.818 . S
C1043 C1044 1.510 . S
C1043 O1062 1.249 . S
C1043 O1063 1.252 . S
C1044 C1043 1.510 . S
C1044 C1045 1.404 . S
C1044 C1046 1.352 . S
C1045 C1044 1.404 . S
C1045 C1049 1.389 . S
C1045 H1072 0.930 . S
C1046 C1044 1.352 . S
C1046 C1048 1.374 . S
C1046 H1073 0.931 . S
C1047 C1048 1.359 . S
C1047 C1049 1.364 . S
C1048 C1046 1.374 . S
C1048 C1047 1.359 . S
C1048 H1074 0.931 . S
C1049 C1045 1.389 . S
C1049 C1047 1.364 . S
C1049 H1075 0.931 . S
C1050 O1064 1.256 . S
C1050 O1065 1.257 . S
C1051 O1066 1.240 . S
C1051 O1067 1.240 . S
C1052 Gd1041 2.818 . S
C1052 C1053 1.510 . S
C1052 O1068 1.249 . S
C1052 O1069 1.252 . S
C1053 C1052 1.510 . S
C1053 C1054 1.404 1_455 S
C1053 C1055 1.354 . S
C1054 C1053 1.404 1_655 S
C1054 C1058 1.389 1_554 S
C1054 H1076 0.930 . S
C1055 C1053 1.354 . S
C1055 C1057 1.370 1_554 S
C1055 H1077 0.932 . S
C1056 C1057 1.359 . S
C1056 C1058 1.364 1_455 S
C1057 C1055 1.370 1_556 S
C1057 C1056 1.359 . S
C1057 H1078 0.931 . S
C1058 C1054 1.389 1_556 S
C1058 C1056 1.364 1_655 S
C1058 H1079 0.931 . S
C1059 O1070 1.256 . S
C1059 O1071 1.257 . S
O1060 Gd1040 2.377 . S
O1060 C1042 1.240 . S
O1061 Gd1041 2.395 . S
O1061 C1042 1.240 . S
O1062 Gd1040 2.448 . S
O1062 C1043 1.249 . S
O1063 Gd1040 2.506 . S
O1063 C1043 1.252 . S
O1064 Gd1040 2.435 . S
O1064 C1050 1.256 . S
O1065 Gd1040 2.717 . S
O1065 Gd1041 2.327 . S
O1065 C1050 1.257 . S
O1066 Gd1041 2.377 . S
O1066 C1051 1.240 . S
O1067 Gd1040 2.395 . S
O1067 C1051 1.240 . S
O1068 Gd1041 2.448 . S
O1068 C1052 1.249 . S
O1069 Gd1041 2.506 . S
O1069 C1052 1.252 . S
O1070 Gd1041 2.435 . S
O1070 C1059 1.256 . S
O1071 Gd1040 2.327 . S
O1071 Gd1041 2.717 . S
O1071 C1059 1.257 . S
H1072 C1045 0.930 . S
H1073 C1046 0.931 . S
H1074 C1048 0.931 . S
H1075 C1049 0.931 . S
H1076 C1054 0.930 . S
H1077 C1055 0.932 . S
H1078 C1057 0.931 . S
H1079 C1058 0.931 . S
Gd1080 C1083 2.818 . S
Gd1080 O1100 2.377 . S
Gd1080 O1102 2.448 . S
Gd1080 O1103 2.506 . S
Gd1080 O1104 2.435 . S
Gd1080 O1105 2.717 . S
Gd1080 O1107 2.395 1_556 S
Gd1080 O1111 2.327 . S
Gd1081 C1092 2.818 1_556 S
Gd1081 O1101 2.395 . S
Gd1081 O1105 2.327 . S
Gd1081 O1106 2.377 1_556 S
Gd1081 O1108 2.448 1_556 S
Gd1081 O1109 2.506 1_556 S
Gd1081 O1110 2.435 . S
Gd1081 O1111 2.717 . S
C1082 O1100 1.240 . S
C1082 O1101 1.240 . S
C1083 Gd1080 2.818 . S
C1083 C1084 1.510 . S
C1083 O1102 1.249 . S
C1083 O1103 1.252 . S
C1084 C1083 1.510 . S
C1084 C1085 1.404 . S
C1084 C1086 1.352 . S
C1085 C1084 1.404 . S
C1085 C1089 1.389 . S
C1085 H1112 0.930 . S
C1086 C1084 1.352 . S
C1086 C1088 1.374 . S
C1086 H1113 0.931 . S
C1087 C1088 1.359 . S
C1087 C1089 1.364 . S
C1088 C1086 1.374 . S
C1088 C1087 1.359 . S
C1088 H1114 0.931 . S
C1089 C1085 1.389 . S
C1089 C1087 1.364 . S
C1089 H1115 0.931 . S
C1090 O1104 1.256 . S
C1090 O1105 1.257 . S
C1091 O1106 1.240 . S
C1091 O1107 1.240 . S
C1092 Gd1081 2.818 1_554 S
C1092 C1093 1.510 . S
C1092 O1108 1.249 . S
C1092 O1109 1.252 . S
C1093 C1092 1.510 . S
C1093 C1094 1.404 . S
C1093 C1095 1.352 . S
C1094 C1093 1.404 . S
C1094 C1098 1.389 . S
C1094 H1116 0.930 . S
C1095 C1093 1.352 . S
C1095 C1097 1.374 . S
C1095 H1117 0.931 . S
C1096 C1097 1.359 . S
C1096 C1098 1.364 . S
C1097 C1095 1.374 . S
C1097 C1096 1.359 . S
C1097 H1118 0.931 . S
C1098 C1094 1.389 . S
C1098 C1096 1.364 . S
C1098 H1119 0.931 . S
C1099 O1110 1.256 . S
C1099 O1111 1.257 . S
O1100 Gd1080 2.377 . S
O1100 C1082 1.240 . S
O1101 Gd1081 2.395 . S
O1101 C1082 1.240 . S
O1102 Gd1080 2.448 . S
O1102 C1083 1.249 . S
O1103 Gd1080 2.506 . S
O1103 C1083 1.252 . S
O1104 Gd1080 2.435 . S
O1104 C1090 1.256 . S
O1105 Gd1080 2.717 . S
O1105 Gd1081 2.327 . S
O1105 C1090 1.257 . S
O1106 Gd1081 2.377 1_554 S
O1106 C1091 1.240 . S
O1107 Gd1080 2.395 1_554 S
O1107 C1091 1.240 . S
O1108 Gd1081 2.448 1_554 S
O1108 C1092 1.249 . S
O1109 Gd1081 2.506 1_554 S
O1109 C1092 1.252 . S
O1110 Gd1081 2.435 . S
O1110 C1099 1.256 . S
O1111 Gd1080 2.327 . S
O1111 Gd1081 2.717 . S
O1111 C1099 1.257 . S
H1112 C1085 0.930 . S
H1113 C1086 0.931 . S
H1114 C1088 0.931 . S
H1115 C1089 0.931 . S
H1116 C1094 0.930 . S
H1117 C1095 0.931 . S
H1118 C1097 0.931 . S
H1119 C1098 0.931 . S
Gd1120 C1123 2.818 . S
Gd1120 O1140 2.377 . S
Gd1120 O1142 2.448 1_565 S
Gd1120 O1143 2.506 . S
Gd1120 O1144 2.435 1_565 S
Gd1120 O1145 2.717 . S
Gd1120 O1147 2.395 . S
Gd1120 O1151 2.327 . S
Gd1121 C1132 2.818 . S
Gd1121 O1141 2.395 . S
Gd1121 O1145 2.327 . S
Gd1121 O1146 2.377 . S
Gd1121 O1148 2.448 . S
Gd1121 O1149 2.506 . S
Gd1121 O1150 2.435 . S
Gd1121 O1151 2.717 . S
C1122 O1140 1.240 . S
C1122 O1141 1.240 . S
C1123 Gd1120 2.818 . S
C1123 C1124 1.510 1_565 S
C1123 O1142 1.249 1_565 S
C1123 O1143 1.252 . S
C1124 C1123 1.510 1_545 S
C1124 C1125 1.404 . S
C1124 C1126 1.352 1_545 S
C1125 C1124 1.404 . S
C1125 C1129 1.389 . S
C1125 H1152 0.930 . S
C1126 C1124 1.352 1_565 S
C1126 C1128 1.374 . S
C1126 H1153 0.931 . S
C1127 C1128 1.359 1_545 S
C1127 C1129 1.364 . S
C1128 C1126 1.374 . S
C1128 C1127 1.359 1_565 S
C1128 H1154 0.931 . S
C1129 C1125 1.389 . S
C1129 C1127 1.364 . S
C1129 H1155 0.931 . S
C1130 O1144 1.256 1_565 S
C1130 O1145 1.257 . S
C1131 O1146 1.240 . S
C1131 O1147 1.240 . S
C1132 Gd1121 2.818 . S
C1132 C1133 1.510 . S
C1132 O1148 1.249 . S
C1132 O1149 1.252 . S
C1133 C1132 1.510 . S
C1133 C1134 1.404 . S
C1133 C1135 1.352 . S
C1134 C1133 1.404 . S
C1134 C1138 1.389 . S
C1134 H1156 0.930 . S
C1135 C1133 1.352 . S
C1135 C1137 1.374 . S
C1135 H1157 0.931 . S
C1136 C1137 1.359 . S
C1136 C1138 1.364 . S
C1137 C1135 1.374 . S
C1137 C1136 1.359 . S
C1137 H1158 0.931 . S
C1138 C1134 1.389 . S
C1138 C1136 1.364 . S
C1138 H1159 0.931 . S
C1139 O1150 1.256 . S
C1139 O1151 1.257 . S
O1140 Gd1120 2.377 . S
O1140 C1122 1.240 . S
O1141 Gd1121 2.395 . S
O1141 C1122 1.240 . S
O1142 Gd1120 2.448 1_545 S
O1142 C1123 1.249 1_545 S
O1143 Gd1120 2.506 . S
O1143 C1123 1.252 . S
O1144 Gd1120 2.435 1_545 S
O1144 C1130 1.256 1_545 S
O1145 Gd1120 2.717 . S
O1145 Gd1121 2.327 . S
O1145 C1130 1.257 . S
O1146 Gd1121 2.377 . S
O1146 C1131 1.240 . S
O1147 Gd1120 2.395 . S
O1147 C1131 1.240 . S
O1148 Gd1121 2.448 . S
O1148 C1132 1.249 . S
O1149 Gd1121 2.506 . S
O1149 C1132 1.252 . S
O1150 Gd1121 2.435 . S
O1150 C1139 1.256 . S
O1151 Gd1120 2.327 . S
O1151 Gd1121 2.717 . S
O1151 C1139 1.257 . S
H1152 C1125 0.930 . S
H1153 C1126 0.931 . S
H1154 C1128 0.931 . S
H1155 C1129 0.931 . S
H1156 C1134 0.930 . S
H1157 C1135 0.931 . S
H1158 C1137 0.931 . S
H1159 C1138 0.931 . S
Gd1160 C1163 2.818 . S
Gd1160 O1180 2.377 . S
Gd1160 O1182 2.448 . S
Gd1160 O1183 2.506 . S
Gd1160 O1184 2.435 . S
Gd1160 O1185 2.717 1_554 S
Gd1160 O1187 2.395 1_554 S
Gd1160 O1191 2.327 . S
Gd1161 C1172 2.818 . S
Gd1161 O1181 2.395 1_556 S
Gd1161 O1185 2.327 . S
Gd1161 O1186 2.377 . S
Gd1161 O1188 2.448 . S
Gd1161 O1189 2.506 . S
Gd1161 O1190 2.435 . S
Gd1161 O1191 2.717 1_556 S
C1162 O1180 1.240 . S
C1162 O1181 1.240 . S
C1163 Gd1160 2.818 . S
C1163 C1164 1.510 . S
C1163 O1182 1.249 . S
C1163 O1183 1.252 . S
C1164 C1163 1.510 . S
C1164 C1165 1.404 . S
C1164 C1166 1.352 . S
C1165 C1164 1.404 . S
C1165 C1169 1.389 . S
C1165 H1192 0.930 . S
C1166 C1164 1.352 . S
C1166 C1168 1.374 . S
C1166 H1193 0.931 . S
C1167 C1168 1.359 . S
C1167 C1169 1.364 . S
C1168 C1166 1.374 . S
C1168 C1167 1.359 . S
C1168 H1194 0.931 . S
C1169 C1165 1.389 . S
C1169 C1167 1.364 . S
C1169 H1195 0.931 . S
C1170 O1184 1.256 1_556 S
C1170 O1185 1.257 . S
C1171 O1186 1.240 . S
C1171 O1187 1.240 . S
C1172 Gd1161 2.818 . S
C1172 C1173 1.510 . S
C1172 O1188 1.249 . S
C1172 O1189 1.252 . S
C1173 C1172 1.510 . S
C1173 C1174 1.404 . S
C1173 C1175 1.352 . S
C1174 C1173 1.404 . S
C1174 C1178 1.389 . S
C1174 H1196 0.930 . S
C1175 C1173 1.352 . S
C1175 C1177 1.374 . S
C1175 H1197 0.931 . S
C1176 C1177 1.359 . S
C1176 C1178 1.364 . S
C1177 C1175 1.374 . S
C1177 C1176 1.359 . S
C1177 H1198 0.931 . S
C1178 C1174 1.389 . S
C1178 C1176 1.364 . S
C1178 H1199 0.931 . S
C1179 O1190 1.256 1_554 S
C1179 O1191 1.257 . S
O1180 Gd1160 2.377 . S
O1180 C1162 1.240 . S
O1181 Gd1161 2.395 1_554 S
O1181 C1162 1.240 . S
O1182 Gd1160 2.448 . S
O1182 C1163 1.249 . S
O1183 Gd1160 2.506 . S
O1183 C1163 1.252 . S
O1184 Gd1160 2.435 . S
O1184 C1170 1.256 1_554 S
O1185 Gd1160 2.717 1_556 S
O1185 Gd1161 2.327 . S
O1185 C1170 1.257 . S
O1186 Gd1161 2.377 . S
O1186 C1171 1.240 . S
O1187 Gd1160 2.395 1_556 S
O1187 C1171 1.240 . S
O1188 Gd1161 2.448 . S
O1188 C1172 1.249 . S
O1189 Gd1161 2.506 . S
O1189 C1172 1.252 . S
O1190 Gd1161 2.435 . S
O1190 C1179 1.256 1_556 S
O1191 Gd1160 2.327 . S
O1191 Gd1161 2.717 1_554 S
O1191 C1179 1.257 . S
H1192 C1165 0.930 . S
H1193 C1166 0.931 . S
H1194 C1168 0.931 . S
H1195 C1169 0.931 . S
H1196 C1174 0.930 . S
H1197 C1175 0.931 . S
H1198 C1177 0.931 . S
H1199 C1178 0.931 . S
Gd1200 C1203 2.818 1_545 S
Gd1200 O1220 2.377 . S
Gd1200 O1222 2.448 1_545 S
Gd1200 O1223 2.506 . S
Gd1200 O1224 2.435 1_545 S
Gd1200 O1225 2.717 . S
Gd1200 O1227 2.395 . S
Gd1200 O1231 2.327 . S
Gd1201 C1212 2.818 . S
Gd1201 O1221 2.395 . S
Gd1201 O1225 2.327 . S
Gd1201 O1226 2.377 . S
Gd1201 O1228 2.448 . S
Gd1201 O1229 2.506 . S
Gd1201 O1230 2.435 . S
Gd1201 O1231 2.717 . S
C1202 O1220 1.240 . S
C1202 O1221 1.240 . S
C1203 Gd1200 2.818 1_565 S
C1203 C1204 1.510 . S
C1203 O1222 1.249 . S
C1203 O1223 1.252 1_565 S
C1204 C1203 1.510 . S
C1204 C1205 1.404 . S
C1204 C1206 1.352 1_565 S
C1205 C1204 1.404 . S
C1205 C1209 1.389 . S
C1205 H1232 0.930 . S
C1206 C1204 1.352 1_545 S
C1206 C1208 1.374 1_545 S
C1206 H1233 0.931 . S
C1207 C1208 1.359 . S
C1207 C1209 1.364 . S
C1208 C1206 1.374 1_565 S
C1208 C1207 1.359 . S
C1208 H1234 0.931 1_565 S
C1209 C1205 1.389 . S
C1209 C1207 1.364 . S
C1209 H1235 0.931 . S
C1210 O1224 1.256 1_545 S
C1210 O1225 1.257 . S
C1211 O1226 1.240 . S
C1211 O1227 1.240 . S
C1212 Gd1201 2.818 . S
C1212 C1213 1.510 . S
C1212 O1228 1.249 . S
C1212 O1229 1.252 . S
C1213 C1212 1.510 . S
C1213 C1214 1.404 . S
C1213 C1215 1.352 . S
C1214 C1213 1.404 . S
C1214 C1218 1.389 . S
C1214 H1236 0.930 . S
C1215 C1213 1.352 . S
C1215 C1217 1.374 . S
C1215 H1237 0.931 . S
C1216 C1217 1.359 . S
C1216 C1218 1.364 . S
C1217 C1215 1.374 . S
C1217 C1216 1.359 . S
C1217 H1238 0.931 . S
C1218 C1214 1.389 . S
C1218 C1216 1.364 . S
C1218 H1239 0.931 . S
C1219 O1230 1.256 . S
C1219 O1231 1.257 . S
O1220 Gd1200 2.377 . S
O1220 C1202 1.240 . S
O1221 Gd1201 2.395 . S
O1221 C1202 1.240 . S
O1222 Gd1200 2.448 1_565 S
O1222 C1203 1.249 . S
O1223 Gd1200 2.506 . S
O1223 C1203 1.252 1_545 S
O1224 Gd1200 2.435 1_565 S
O1224 C1210 1.256 1_565 S
O1225 Gd1200 2.717 . S
O1225 Gd1201 2.327 . S
O1225 C1210 1.257 . S
O1226 Gd1201 2.377 . S
O1226 C1211 1.240 . S
O1227 Gd1200 2.395 . S
O1227 C1211 1.240 . S
O1228 Gd1201 2.448 . S
O1228 C1212 1.249 . S
O1229 Gd1201 2.506 . S
O1229 C1212 1.252 . S
O1230 Gd1201 2.435 . S
O1230 C1219 1.256 . S
O1231 Gd1200 2.327 . S
O1231 Gd1201 2.717 . S
O1231 C1219 1.257 . S
H1232 C1205 0.930 . S
H1233 C1206 0.931 . S
H1234 C1208 0.931 1_545 S
H1235 C1209 0.931 . S
H1236 C1214 0.930 . S
H1237 C1215 0.931 . S
H1238 C1217 0.931 . S
H1239 C1218 0.931 . S
Gd1240 C1243 2.818 . S
Gd1240 O1260 2.377 . S
Gd1240 O1262 2.448 . S
Gd1240 O1263 2.506 . S
Gd1240 O1264 2.435 . S
Gd1240 O1265 2.717 . S
Gd1240 O1267 2.395 . S
Gd1240 O1271 2.327 . S
Gd1241 C1252 2.818 . S
Gd1241 O1261 2.395 . S
Gd1241 O1265 2.327 . S
Gd1241 O1266 2.377 . S
Gd1241 O1268 2.448 . S
Gd1241 O1269 2.506 . S
Gd1241 O1270 2.435 . S
Gd1241 O1271 2.717 . S
C1242 O1260 1.240 . S
C1242 O1261 1.240 . S
C1243 Gd1240 2.818 . S
C1243 C1244 1.510 . S
C1243 O1262 1.249 . S
C1243 O1263 1.252 . S
C1244 C1243 1.510 . S
C1244 C1245 1.404 . S
C1244 C1246 1.352 . S
C1245 C1244 1.404 . S
C1245 C1249 1.389 . S
C1245 H1272 0.930 . S
C1246 C1244 1.352 . S
C1246 C1248 1.374 . S
C1246 H1273 0.931 . S
C1247 C1248 1.359 . S
C1247 C1249 1.364 . S
C1248 C1246 1.374 . S
C1248 C1247 1.359 . S
C1248 H1274 0.931 . S
C1249 C1245 1.389 . S
C1249 C1247 1.364 . S
C1249 H1275 0.931 . S
C1250 O1264 1.256 . S
C1250 O1265 1.257 . S
C1251 O1266 1.240 . S
C1251 O1267 1.240 . S
C1252 Gd1241 2.818 . S
C1252 C1253 1.510 . S
C1252 O1268 1.249 . S
C1252 O1269 1.252 . S
C1253 C1252 1.510 . S
C1253 C1254 1.404 . S
C1253 C1255 1.352 . S
C1254 C1253 1.404 . S
C1254 C1258 1.389 . S
C1254 H1276 0.930 . S
C1255 C1253 1.352 . S
C1255 C1257 1.374 . S
C1255 H1277 0.931 . S
C1256 C1257 1.359 . S
C1256 C1258 1.364 . S
C1257 C1255 1.374 . S
C1257 C1256 1.359 . S
C1257 H1278 0.931 . S
C1258 C1254 1.389 . S
C1258 C1256 1.364 . S
C1258 H1279 0.931 . S
C1259 O1270 1.256 . S
C1259 O1271 1.257 . S
O1260 Gd1240 2.377 . S
O1260 C1242 1.240 . S
O1261 Gd1241 2.395 . S
O1261 C1242 1.240 . S
O1262 Gd1240 2.448 . S
O1262 C1243 1.249 . S
O1263 Gd1240 2.506 . S
O1263 C1243 1.252 . S
O1264 Gd1240 2.435 . S
O1264 C1250 1.256 . S
O1265 Gd1240 2.717 . S
O1265 Gd1241 2.327 . S
O1265 C1250 1.257 . S
O1266 Gd1241 2.377 . S
O1266 C1251 1.240 . S
O1267 Gd1240 2.395 . S
O1267 C1251 1.240 . S
O1268 Gd1241 2.448 . S
O1268 C1252 1.249 . S
O1269 Gd1241 2.506 . S
O1269 C1252 1.252 . S
O1270 Gd1241 2.435 . S
O1270 C1259 1.256 . S
O1271 Gd1240 2.327 . S
O1271 Gd1241 2.717 . S
O1271 C1259 1.257 . S
H1272 C1245 0.930 . S
H1273 C1246 0.931 . S
H1274 C1248 0.931 . S
H1275 C1249 0.931 . S
H1276 C1254 0.930 . S
H1277 C1255 0.931 . S
H1278 C1257 0.931 . S
H1279 C1258 0.931 . S
H1280 C1286 0.930 . S
H1281 C1289 0.930 . S
H1282 C1290 0.930 . S
H1283 C1291 0.930 . S
H1284 C1294 0.930 . S
H1285 C1295 0.930 . S
C1286 H1280 0.930 . S
C1286 C1287 1.355 . S
C1286 C1288 1.415 . S
C1287 C1286 1.355 . S
C1287 C1289 1.419 . S
C1288 C1286 1.415 . S
C1288 C1293 1.425 . S
C1288 C1295 1.409 . S
C1289 H1281 0.930 . S
C1289 C1287 1.419 . S
C1289 C1290 1.362 . S
C1290 H1282 0.930 . S
C1290 C1289 1.362 . S
C1290 C1293 1.409 . S
C1291 H1283 0.930 . S
C1291 C1292 1.355 . S
C1291 C1293 1.415 . S
C1292 C1291 1.355 . S
C1292 C1294 1.419 . S
C1293 C1288 1.425 . S
C1293 C1290 1.409 . S
C1293 C1291 1.415 . S
C1294 H1284 0.930 . S
C1294 C1292 1.419 . S
C1294 C1295 1.362 . S
C1295 H1285 0.930 . S
C1295 C1288 1.409 . S
C1295 C1294 1.362 . S
H1296 C1302 0.930 . S
H1297 C1305 0.930 . S
H1298 C1306 0.930 . S
H1299 C1307 0.930 . S
H1300 C1310 0.930 . S
H1301 C1311 0.930 . S
C1302 H1296 0.930 . S
C1302 C1303 1.355 . S
C1302 C1304 1.415 . S
C1303 C1302 1.355 . S
C1303 C1305 1.419 . S
C1304 C1302 1.415 . S
C1304 C1309 1.425 . S
C1304 C1311 1.409 . S
C1305 H1297 0.930 . S
C1305 C1303 1.419 . S
C1305 C1306 1.362 . S
C1306 H1298 0.930 . S
C1306 C1305 1.362 . S
C1306 C1309 1.409 . S
C1307 H1299 0.930 . S
C1307 C1308 1.355 . S
C1307 C1309 1.415 . S
C1308 C1307 1.355 . S
C1308 C1310 1.419 . S
C1309 C1304 1.425 . S
C1309 C1306 1.409 . S
C1309 C1307 1.415 . S
C1310 H1300 0.930 . S
C1310 C1308 1.419 . S
C1310 C1311 1.362 . S
C1311 H1301 0.930 . S
C1311 C1304 1.409 . S
C1311 C1310 1.362 . S
H1312 C1318 0.930 . S
H1313 C1321 0.930 . S
H1314 C1322 0.930 . S
H1315 C1323 0.930 . S
H1316 C1326 0.930 . S
H1317 C1327 0.930 . S
C1318 H1312 0.930 . S
C1318 C1319 1.355 . S
C1318 C1320 1.415 . S
C1319 C1318 1.355 . S
C1319 C1321 1.419 . S
C1320 C1318 1.415 . S
C1320 C1325 1.425 . S
C1320 C1327 1.409 . S
C1321 H1313 0.930 . S
C1321 C1319 1.419 . S
C1321 C1322 1.362 . S
C1322 H1314 0.930 . S
C1322 C1321 1.362 . S
C1322 C1325 1.409 . S
C1323 H1315 0.930 . S
C1323 C1324 1.355 . S
C1323 C1325 1.415 . S
C1324 C1323 1.355 . S
C1324 C1326 1.419 . S
C1325 C1320 1.425 . S
C1325 C1322 1.409 . S
C1325 C1323 1.415 . S
C1326 H1316 0.930 . S
C1326 C1324 1.419 . S
C1326 C1327 1.362 . S
C1327 H1317 0.930 . S
C1327 C1320 1.409 . S
C1327 C1326 1.362 . S
H1328 C1334 0.930 . S
H1329 C1337 0.930 . S
H1330 C1338 0.930 . S
H1331 C1339 0.930 . S
H1332 C1342 0.930 . S
H1333 C1343 0.930 . S
C1334 H1328 0.930 . S
C1334 C1335 1.355 . S
C1334 C1336 1.415 . S
C1335 C1334 1.355 . S
C1335 C1337 1.419 . S
C1336 C1334 1.415 . S
C1336 C1341 1.425 . S
C1336 C1343 1.409 . S
C1337 H1329 0.930 . S
C1337 C1335 1.419 . S
C1337 C1338 1.362 . S
C1338 H1330 0.930 . S
C1338 C1337 1.362 . S
C1338 C1341 1.409 . S
C1339 H1331 0.930 . S
C1339 C1340 1.355 . S
C1339 C1341 1.415 . S
C1340 C1339 1.355 . S
C1340 C1342 1.419 . S
C1341 C1336 1.425 . S
C1341 C1338 1.409 . S
C1341 C1339 1.415 . S
C1342 H1332 0.930 . S
C1342 C1340 1.419 . S
C1342 C1343 1.362 . S
C1343 H1333 0.930 . S
C1343 C1336 1.409 . S
C1343 C1342 1.362 . S
H1344 C1350 0.930 . S
H1345 C1353 0.930 . S
H1346 C1354 0.930 . S
H1347 C1355 0.930 . S
H1348 C1358 0.930 . S
H1349 C1359 0.930 . S
C1350 H1344 0.930 . S
C1350 C1351 1.355 . S
C1350 C1352 1.415 . S
C1351 C1350 1.355 . S
C1351 C1353 1.419 . S
C1352 C1350 1.415 . S
C1352 C1357 1.425 . S
C1352 C1359 1.409 . S
C1353 H1345 0.930 . S
C1353 C1351 1.419 . S
C1353 C1354 1.362 . S
C1354 H1346 0.930 . S
C1354 C1353 1.362 . S
C1354 C1357 1.409 . S
C1355 H1347 0.930 . S
C1355 C1356 1.352 . S
C1355 C1357 1.415 . S
C1356 C1355 1.352 . S
C1356 C1358 1.419 1_554 S
C1357 C1352 1.425 . S
C1357 C1354 1.409 . S
C1357 C1355 1.415 . S
C1358 H1348 0.930 . S
C1358 C1356 1.419 1_556 S
C1358 C1359 1.362 1_556 S
C1359 H1349 0.930 . S
C1359 C1352 1.409 . S
C1359 C1358 1.362 1_554 S
H1360 C1366 0.930 . S
H1361 C1369 0.930 . S
H1362 C1370 0.930 . S
H1363 C1371 0.930 . S
H1364 C1374 0.930 . S
H1365 C1375 0.930 . S
C1366 H1360 0.930 . S
C1366 C1367 1.355 . S
C1366 C1368 1.415 . S
C1367 C1366 1.355 . S
C1367 C1369 1.419 . S
C1368 C1366 1.415 . S
C1368 C1373 1.425 . S
C1368 C1375 1.409 . S
C1369 H1361 0.930 . S
C1369 C1367 1.419 . S
C1369 C1370 1.362 . S
C1370 H1362 0.930 . S
C1370 C1369 1.362 . S
C1370 C1373 1.409 . S
C1371 H1363 0.930 . S
C1371 C1372 1.355 . S
C1371 C1373 1.415 . S
C1372 C1371 1.355 . S
C1372 C1374 1.419 . S
C1373 C1368 1.425 . S
C1373 C1370 1.409 . S
C1373 C1371 1.415 . S
C1374 H1364 0.930 . S
C1374 C1372 1.419 . S
C1374 C1375 1.362 . S
C1375 H1365 0.930 . S
C1375 C1368 1.409 . S
C1375 C1374 1.362 . S
H1376 C1382 0.930 . S
H1377 C1385 0.930 . S
H1378 C1386 0.930 . S
H1379 C1387 0.930 . S
H1380 C1390 0.930 . S
H1381 C1391 0.930 . S
C1382 H1376 0.930 . S
C1382 C1383 1.355 . S
C1382 C1384 1.415 . S
C1383 C1382 1.355 . S
C1383 C1385 1.419 . S
C1384 C1382 1.415 . S
C1384 C1389 1.425 . S
C1384 C1391 1.409 . S
C1385 H1377 0.930 . S
C1385 C1383 1.419 . S
C1385 C1386 1.362 . S
C1386 H1378 0.930 . S
C1386 C1385 1.362 . S
C1386 C1389 1.409 . S
C1387 H1379 0.930 . S
C1387 C1388 1.355 . S
C1387 C1389 1.415 . S
C1388 C1387 1.355 . S
C1388 C1390 1.419 . S
C1389 C1384 1.425 . S
C1389 C1386 1.409 . S
C1389 C1387 1.415 . S
C1390 H1380 0.930 . S
C1390 C1388 1.419 . S
C1390 C1391 1.362 . S
C1391 H1381 0.930 . S
C1391 C1384 1.409 . S
C1391 C1390 1.362 . S
H1392 C1398 0.930 . S
H1393 C1401 0.930 . S
H1394 C1402 0.930 . S
H1395 C1403 0.930 . S
H1396 C1406 0.930 . S
H1397 C1407 0.930 . S
C1398 H1392 0.930 . S
C1398 C1399 1.355 . S
C1398 C1400 1.415 . S
C1399 C1398 1.355 . S
C1399 C1401 1.419 . S
C1400 C1398 1.415 . S
C1400 C1405 1.425 . S
C1400 C1407 1.409 . S
C1401 H1393 0.930 . S
C1401 C1399 1.419 . S
C1401 C1402 1.362 . S
C1402 H1394 0.930 . S
C1402 C1401 1.362 . S
C1402 C1405 1.409 . S
C1403 H1395 0.930 . S
C1403 C1404 1.355 . S
C1403 C1405 1.415 . S
C1404 C1403 1.355 . S
C1404 C1406 1.419 . S
C1405 C1400 1.425 . S
C1405 C1402 1.409 . S
C1405 C1403 1.415 . S
C1406 H1396 0.930 . S
C1406 C1404 1.419 . S
C1406 C1407 1.362 . S
C1407 H1397 0.930 . S
C1407 C1400 1.409 . S
C1407 C1406 1.362 . S
H1408 C1414 0.930 . S
H1409 C1417 0.930 . S
H1410 C1418 0.930 . S
H1411 C1419 0.930 . S
H1412 C1422 0.930 . S
H1413 C1423 0.930 . S
C1414 H1408 0.930 . S
C1414 C1415 1.355 . S
C1414 C1416 1.415 . S
C1415 C1414 1.355 . S
C1415 C1417 1.419 . S
C1416 C1414 1.415 . S
C1416 C1421 1.425 . S
C1416 C1423 1.409 . S
C1417 H1409 0.930 . S
C1417 C1415 1.419 . S
C1417 C1418 1.362 . S
C1418 H1410 0.930 . S
C1418 C1417 1.362 . S
C1418 C1421 1.409 . S
C1419 H1411 0.930 . S
C1419 C1420 1.355 . S
C1419 C1421 1.415 . S
C1420 C1419 1.355 . S
C1420 C1422 1.419 . S
C1421 C1416 1.425 . S
C1421 C1418 1.409 . S
C1421 C1419 1.415 . S
C1422 H1412 0.930 . S
C1422 C1420 1.419 . S
C1422 C1423 1.362 . S
C1423 H1413 0.930 . S
C1423 C1416 1.409 . S
C1423 C1422 1.362 . S
H1424 C1430 0.930 . S
H1425 C1433 0.930 . S
H1426 C1434 0.930 . S
H1427 C1435 0.930 . S
H1428 C1438 0.930 . S
H1429 C1439 0.930 . S
C1430 H1424 0.930 . S
C1430 C1431 1.355 . S
C1430 C1432 1.415 1_556 S
C1431 C1430 1.355 . S
C1431 C1433 1.419 . S
C1432 C1430 1.415 1_554 S
C1432 C1437 1.425 . S
C1432 C1439 1.409 . S
C1433 H1425 0.930 . S
C1433 C1431 1.419 . S
C1433 C1434 1.362 . S
C1434 H1426 0.930 . S
C1434 C1433 1.362 . S
C1434 C1437 1.409 1_556 S
C1435 H1427 0.930 . S
C1435 C1436 1.355 . S
C1435 C1437 1.415 . S
C1436 C1435 1.355 . S
C1436 C1438 1.419 . S
C1437 C1432 1.425 . S
C1437 C1434 1.409 1_554 S
C1437 C1435 1.415 . S
C1438 H1428 0.930 . S
C1438 C1436 1.419 . S
C1438 C1439 1.362 . S
C1439 H1429 0.930 . S
C1439 C1432 1.409 . S
C1439 C1438 1.362 . S
H1440 C1446 0.930 . S
H1441 C1449 0.930 . S
H1442 C1450 0.930 . S
H1443 C1451 0.930 . S
H1444 C1454 0.930 . S
H1445 C1455 0.930 . S
C1446 H1440 0.930 . S
C1446 C1447 1.355 . S
C1446 C1448 1.415 . S
C1447 C1446 1.355 . S
C1447 C1449 1.419 . S
C1448 C1446 1.415 . S
C1448 C1453 1.425 . S
C1448 C1455 1.409 . S
C1449 H1441 0.930 . S
C1449 C1447 1.419 . S
C1449 C1450 1.362 . S
C1450 H1442 0.930 . S
C1450 C1449 1.362 . S
C1450 C1453 1.409 . S
C1451 H1443 0.930 . S
C1451 C1452 1.355 . S
C1451 C1453 1.415 . S
C1452 C1451 1.355 . S
C1452 C1454 1.419 . S
C1453 C1448 1.425 . S
C1453 C1450 1.409 . S
C1453 C1451 1.415 . S
C1454 H1444 0.930 . S
C1454 C1452 1.419 . S
C1454 C1455 1.362 . S
C1455 H1445 0.930 . S
C1455 C1448 1.409 . S
C1455 C1454 1.362 . S
H1456 C1462 0.930 . S
H1457 C1465 0.930 . S
H1458 C1466 0.930 . S
H1459 C1467 0.930 . S
H1460 C1470 0.930 . S
H1461 C1471 0.930 . S
C1462 H1456 0.930 . S
C1462 C1463 1.355 . S
C1462 C1464 1.415 . S
C1463 C1462 1.355 . S
C1463 C1465 1.419 . S
C1464 C1462 1.415 . S
C1464 C1469 1.425 . S
C1464 C1471 1.409 . S
C1465 H1457 0.930 . S
C1465 C1463 1.419 . S
C1465 C1466 1.362 . S
C1466 H1458 0.930 . S
C1466 C1465 1.362 . S
C1466 C1469 1.409 . S
C1467 H1459 0.930 . S
C1467 C1468 1.355 . S
C1467 C1469 1.415 . S
C1468 C1467 1.355 . S
C1468 C1470 1.419 . S
C1469 C1464 1.425 . S
C1469 C1466 1.409 . S
C1469 C1467 1.415 . S
C1470 H1460 0.930 . S
C1470 C1468 1.419 . S
C1470 C1471 1.362 . S
C1471 H1461 0.930 . S
C1471 C1464 1.409 . S
C1471 C1470 1.362 . S
H1472 C1478 0.930 . S
H1473 C1481 0.930 . S
H1474 C1482 0.930 . S
H1475 C1483 0.930 1_565 S
H1476 C1486 0.930 . S
H1477 C1487 0.930 . S
C1478 H1472 0.930 . S
C1478 C1479 1.355 . S
C1478 C1480 1.415 . S
C1479 C1478 1.355 . S
C1479 C1481 1.419 . S
C1480 C1478 1.415 . S
C1480 C1485 1.425 . S
C1480 C1487 1.409 . S
C1481 H1473 0.930 . S
C1481 C1479 1.419 . S
C1481 C1482 1.362 . S
C1482 H1474 0.930 . S
C1482 C1481 1.362 . S
C1482 C1485 1.409 . S
C1483 H1475 0.930 1_545 S
C1483 C1484 1.355 . S
C1483 C1485 1.415 . S
C1484 C1483 1.355 . S
C1484 C1486 1.419 . S
C1485 C1480 1.425 . S
C1485 C1482 1.409 . S
C1485 C1483 1.415 . S
C1486 H1476 0.930 . S
C1486 C1484 1.419 . S
C1486 C1487 1.362 . S
C1487 H1477 0.930 . S
C1487 C1480 1.409 . S
C1487 C1486 1.362 . S
H1488 C1494 0.930 . S
H1489 C1497 0.930 . S
H1490 C1498 0.930 . S
H1491 C1499 0.930 . S
H1492 C1502 0.930 . S
H1493 C1503 0.930 . S
C1494 H1488 0.930 . S
C1494 C1495 1.355 . S
C1494 C1496 1.415 . S
C1495 C1494 1.355 . S
C1495 C1497 1.419 . S
C1496 C1494 1.415 . S
C1496 C1501 1.425 . S
C1496 C1503 1.409 . S
C1497 H1489 0.930 . S
C1497 C1495 1.419 . S
C1497 C1498 1.362 . S
C1498 H1490 0.930 . S
C1498 C1497 1.362 . S
C1498 C1501 1.409 . S
C1499 H1491 0.930 . S
C1499 C1500 1.355 . S
C1499 C1501 1.415 . S
C1500 C1499 1.355 . S
C1500 C1502 1.419 . S
C1501 C1496 1.425 . S
C1501 C1498 1.409 . S
C1501 C1499 1.415 . S
C1502 H1492 0.930 . S
C1502 C1500 1.419 . S
C1502 C1503 1.362 . S
C1503 H1493 0.930 . S
C1503 C1496 1.409 . S
C1503 C1502 1.362 . S
H1504 C1510 0.930 . S
H1505 C1513 0.930 . S
H1506 C1514 0.930 . S
H1507 C1515 0.930 . S
H1508 C1518 0.943 1_556 S
H1509 C1519 0.930 . S
C1510 H1504 0.930 . S
C1510 C1511 1.355 . S
C1510 C1512 1.415 . S
C1511 C1510 1.355 . S
C1511 C1513 1.419 . S
C1512 C1510 1.415 . S
C1512 C1517 1.425 . S
C1512 C1519 1.409 . S
C1513 H1505 0.930 . S
C1513 C1511 1.419 . S
C1513 C1514 1.362 . S
C1514 H1506 0.930 . S
C1514 C1513 1.362 . S
C1514 C1517 1.409 . S
C1515 H1507 0.930 . S
C1515 C1516 1.355 . S
C1515 C1517 1.415 1_556 S
C1516 C1515 1.355 . S
C1516 C1518 1.419 1_556 S
C1517 C1512 1.425 . S
C1517 C1514 1.409 . S
C1517 C1515 1.415 1_554 S
C1518 H1508 0.943 1_554 S
C1518 C1516 1.419 1_554 S
C1518 C1519 1.362 . S
C1519 H1509 0.930 . S
C1519 C1512 1.409 . S
C1519 C1518 1.362 . S
H1520 C1526 0.930 . S
H1521 C1529 0.930 . S
H1522 C1530 0.930 . S
H1523 C1531 0.930 . S
H1524 C1534 0.930 . S
H1525 C1535 0.930 . S
C1526 H1520 0.930 . S
C1526 C1527 1.355 . S
C1526 C1528 1.415 . S
C1527 C1526 1.355 . S
C1527 C1529 1.419 . S
C1528 C1526 1.415 . S
C1528 C1533 1.425 . S
C1528 C1535 1.409 . S
C1529 H1521 0.930 . S
C1529 C1527 1.419 . S
C1529 C1530 1.362 . S
C1530 H1522 0.930 . S
C1530 C1529 1.362 . S
C1530 C1533 1.409 . S
C1531 H1523 0.930 . S
C1531 C1532 1.355 . S
C1531 C1533 1.415 . S
C1532 C1531 1.355 . S
C1532 C1534 1.419 . S
C1533 C1528 1.425 . S
C1533 C1530 1.409 . S
C1533 C1531 1.415 . S
C1534 H1524 0.930 . S
C1534 C1532 1.419 . S
C1534 C1535 1.362 . S
C1535 H1525 0.930 . S
C1535 C1528 1.409 . S
C1535 C1534 1.362 . S
H1536 C1542 0.930 . S
H1537 C1545 0.930 . S
H1538 C1546 0.930 . S
H1539 C1547 0.930 . S
H1540 C1550 0.930 . S
H1541 C1551 0.930 . S
C1542 H1536 0.930 . S
C1542 C1543 1.355 . S
C1542 C1544 1.415 . S
C1543 C1542 1.355 . S
C1543 C1545 1.419 . S
C1544 C1542 1.415 . S
C1544 C1549 1.425 . S
C1544 C1551 1.409 . S
C1545 H1537 0.930 . S
C1545 C1543 1.419 . S
C1545 C1546 1.362 . S
C1546 H1538 0.930 . S
C1546 C1545 1.362 . S
C1546 C1549 1.409 . S
C1547 H1539 0.930 . S
C1547 C1548 1.355 . S
C1547 C1549 1.415 . S
C1548 C1547 1.355 . S
C1548 C1550 1.419 . S
C1549 C1544 1.425 . S
C1549 C1546 1.409 . S
C1549 C1547 1.415 . S
C1550 H1540 0.930 . S
C1550 C1548 1.419 . S
C1550 C1551 1.362 . S
C1551 H1541 0.930 . S
C1551 C1544 1.409 . S
C1551 C1550 1.362 . S
H1552 C1558 0.930 . S
H1553 C1561 0.930 . S
H1554 C1562 0.930 . S
H1555 C1563 0.930 . S
H1556 C1566 0.930 . S
H1557 C1567 0.930 . S
C1558 H1552 0.930 . S
C1558 C1559 1.355 . S
C1558 C1560 1.415 . S
C1559 C1558 1.355 . S
C1559 C1561 1.419 . S
C1560 C1558 1.415 . S
C1560 C1565 1.425 . S
C1560 C1567 1.409 . S
C1561 H1553 0.930 . S
C1561 C1559 1.419 . S
C1561 C1562 1.362 . S
C1562 H1554 0.930 . S
C1562 C1561 1.362 . S
C1562 C1565 1.409 . S
C1563 H1555 0.930 . S
C1563 C1564 1.355 . S
C1563 C1565 1.415 . S
C1564 C1563 1.355 . S
C1564 C1566 1.419 . S
C1565 C1560 1.425 . S
C1565 C1562 1.409 . S
C1565 C1563 1.415 . S
C1566 H1556 0.930 . S
C1566 C1564 1.419 . S
C1566 C1567 1.362 . S
C1567 H1557 0.930 . S
C1567 C1560 1.409 . S
C1567 C1566 1.362 . S
H1568 C1574 0.930 . S
H1569 C1577 0.930 . S
H1570 C1578 0.930 . S
H1571 C1579 0.930 . S
H1572 C1582 0.930 . S
H1573 C1583 0.930 . S
C1574 H1568 0.930 . S
C1574 C1575 1.355 . S
C1574 C1576 1.415 . S
C1575 C1574 1.355 . S
C1575 C1577 1.419 . S
C1576 C1574 1.415 . S
C1576 C1581 1.425 . S
C1576 C1583 1.409 . S
C1577 H1569 0.930 . S
C1577 C1575 1.419 . S
C1577 C1578 1.362 . S
C1578 H1570 0.930 . S
C1578 C1577 1.362 . S
C1578 C1581 1.409 . S
C1579 H1571 0.930 . S
C1579 C1580 1.355 . S
C1579 C1581 1.415 . S
C1580 C1579 1.355 . S
C1580 C1582 1.419 . S
C1581 C1576 1.425 . S
C1581 C1578 1.409 . S
C1581 C1579 1.415 . S
C1582 H1572 0.930 . S
C1582 C1580 1.419 . S
C1582 C1583 1.362 . S
C1583 H1573 0.930 . S
C1583 C1576 1.409 . S
C1583 C1582 1.362 . S
H1584 C1590 0.930 . S
H1585 C1593 0.930 . S
H1586 C1594 0.930 . S
H1587 C1595 0.930 1_554 S
H1588 C1598 0.930 . S
H1589 C1599 0.930 . S
C1590 H1584 0.930 . S
C1590 C1591 1.355 . S
C1590 C1592 1.415 . S
C1591 C1590 1.355 . S
C1591 C1593 1.419 . S
C1592 C1590 1.415 . S
C1592 C1597 1.425 . S
C1592 C1599 1.409 . S
C1593 H1585 0.930 . S
C1593 C1591 1.419 . S
C1593 C1594 1.362 . S
C1594 H1586 0.930 . S
C1594 C1593 1.362 . S
C1594 C1597 1.409 . S
C1595 H1587 0.930 1_556 S
C1595 C1596 1.355 1_556 S
C1595 C1597 1.415 . S
C1596 C1595 1.355 1_554 S
C1596 C1598 1.419 . S
C1597 C1592 1.425 . S
C1597 C1594 1.409 . S
C1597 C1595 1.415 . S
C1598 H1588 0.930 . S
C1598 C1596 1.419 . S
C1598 C1599 1.362 1_554 S
C1599 H1589 0.930 . S
C1599 C1592 1.409 . S
C1599 C1598 1.362 1_556 S
H1600 C1606 0.930 . S
H1601 C1609 0.930 . S
H1602 C1610 0.930 . S
H1603 C1611 0.930 . S
H1604 C1614 0.930 . S
H1605 C1615 0.930 . S
C1606 H1600 0.930 . S
C1606 C1607 1.355 . S
C1606 C1608 1.415 . S
C1607 C1606 1.355 . S
C1607 C1609 1.419 . S
C1608 C1606 1.415 . S
C1608 C1613 1.425 . S
C1608 C1615 1.409 . S
C1609 H1601 0.930 . S
C1609 C1607 1.419 . S
C1609 C1610 1.362 . S
C1610 H1602 0.930 . S
C1610 C1609 1.362 . S
C1610 C1613 1.409 . S
C1611 H1603 0.930 . S
C1611 C1612 1.355 . S
C1611 C1613 1.415 . S
C1612 C1611 1.355 . S
C1612 C1614 1.419 . S
C1613 C1608 1.425 . S
C1613 C1610 1.409 . S
C1613 C1611 1.415 . S
C1614 H1604 0.930 . S
C1614 C1612 1.419 . S
C1614 C1615 1.362 . S
C1615 H1605 0.930 . S
C1615 C1608 1.409 . S
C1615 C1614 1.362 . S
H1616 C1622 0.930 . S
H1617 C1625 0.930 . S
H1618 C1626 0.930 . S
H1619 C1627 0.930 . S
H1620 C1630 0.930 . S
H1621 C1631 0.930 . S
C1622 H1616 0.930 . S
C1622 C1623 1.355 . S
C1622 C1624 1.415 . S
C1623 C1622 1.355 . S
C1623 C1625 1.419 . S
C1624 C1622 1.415 . S
C1624 C1629 1.425 . S
C1624 C1631 1.409 . S
C1625 H1617 0.930 . S
C1625 C1623 1.419 . S
C1625 C1626 1.362 . S
C1626 H1618 0.930 . S
C1626 C1625 1.362 . S
C1626 C1629 1.409 . S
C1627 H1619 0.930 . S
C1627 C1628 1.355 . S
C1627 C1629 1.415 . S
C1628 C1627 1.355 . S
C1628 C1630 1.419 . S
C1629 C1624 1.425 . S
C1629 C1626 1.409 . S
C1629 C1627 1.415 . S
C1630 H1620 0.930 . S
C1630 C1628 1.419 . S
C1630 C1631 1.362 . S
C1631 H1621 0.930 . S
C1631 C1624 1.409 . S
C1631 C1630 1.362 . S
H1632 C1638 0.930 . S
H1633 C1641 0.930 . S
H1634 C1642 0.936 . S
H1635 C1643 0.930 . S
H1636 C1646 0.930 . S
H1637 C1647 0.930 . S
C1638 H1632 0.930 . S
C1638 C1639 1.355 1_556 S
C1638 C1640 1.415 . S
C1639 C1638 1.355 1_554 S
C1639 C1641 1.419 . S
C1640 C1638 1.415 . S
C1640 C1645 1.425 . S
C1640 C1647 1.409 . S
C1641 H1633 0.930 . S
C1641 C1639 1.419 . S
C1641 C1642 1.376 . S
C1642 H1634 0.936 . S
C1642 C1641 1.376 . S
C1642 C1645 1.389 1_554 S
C1643 H1635 0.930 . S
C1643 C1644 1.355 . S
C1643 C1645 1.415 . S
C1644 C1643 1.355 . S
C1644 C1646 1.419 . S
C1645 C1640 1.425 . S
C1645 C1642 1.389 1_556 S
C1645 C1643 1.415 . S
C1646 H1636 0.930 . S
C1646 C1644 1.419 . S
C1646 C1647 1.362 . S
C1647 H1637 0.930 . S
C1647 C1640 1.409 . S
C1647 C1646 1.362 . S
H1648 C1654 0.930 . S
H1649 C1657 0.930 . S
H1650 C1658 0.930 . S
H1651 C1659 0.930 . S
H1652 C1662 0.930 . S
H1653 C1663 0.930 . S
C1654 H1648 0.930 . S
C1654 C1655 1.355 . S
C1654 C1656 1.415 . S
C1655 C1654 1.355 . S
C1655 C1657 1.419 . S
C1656 C1654 1.415 . S
C1656 C1661 1.425 . S
C1656 C1663 1.409 . S
C1657 H1649 0.930 . S
C1657 C1655 1.419 . S
C1657 C1658 1.362 . S
C1658 H1650 0.930 . S
C1658 C1657 1.362 . S
C1658 C1661 1.409 . S
C1659 H1651 0.930 . S
C1659 C1660 1.355 . S
C1659 C1661 1.415 . S
C1660 C1659 1.355 . S
C1660 C1662 1.419 . S
C1661 C1656 1.425 . S
C1661 C1658 1.409 . S
C1661 C1659 1.415 . S
C1662 H1652 0.930 . S
C1662 C1660 1.419 . S
C1662 C1663 1.362 . S
C1663 H1653 0.930 . S
C1663 C1656 1.409 . S
C1663 C1662 1.362 . S
H1664 C1670 0.930 . S
H1665 C1673 0.930 . S
H1666 C1674 0.930 . S
H1667 C1675 0.930 . S
H1668 C1678 0.930 . S
H1669 C1679 0.930 . S
C1670 H1664 0.930 . S
C1670 C1671 1.355 . S
C1670 C1672 1.415 . S
C1671 C1670 1.355 . S
C1671 C1673 1.419 . S
C1672 C1670 1.415 . S
C1672 C1677 1.425 . S
C1672 C1679 1.409 . S
C1673 H1665 0.930 . S
C1673 C1671 1.419 . S
C1673 C1674 1.362 . S
C1674 H1666 0.930 . S
C1674 C1673 1.362 . S
C1674 C1677 1.409 . S
C1675 H1667 0.930 . S
C1675 C1676 1.355 . S
C1675 C1677 1.415 . S
C1676 C1675 1.355 . S
C1676 C1678 1.419 . S
C1677 C1672 1.425 . S
C1677 C1674 1.409 . S
C1677 C1675 1.415 . S
C1678 H1668 0.930 . S
C1678 C1676 1.419 . S
C1678 C1679 1.362 . S
C1679 H1669 0.930 . S
C1679 C1672 1.409 . S
C1679 C1678 1.362 . S
H1680 C1686 0.930 . S
H1681 C1689 0.930 . S
H1682 C1690 0.930 . S
H1683 C1691 0.930 . S
H1684 C1694 0.930 . S
H1685 C1695 0.930 . S
C1686 H1680 0.930 . S
C1686 C1687 1.355 . S
C1686 C1688 1.415 . S
C1687 C1686 1.355 . S
C1687 C1689 1.419 . S
C1688 C1686 1.415 . S
C1688 C1693 1.425 . S
C1688 C1695 1.409 . S
C1689 H1681 0.930 . S
C1689 C1687 1.419 . S
C1689 C1690 1.362 . S
C1690 H1682 0.930 . S
C1690 C1689 1.362 . S
C1690 C1693 1.409 . S
C1691 H1683 0.930 . S
C1691 C1692 1.355 . S
C1691 C1693 1.415 . S
C1692 C1691 1.355 . S
C1692 C1694 1.419 . S
C1693 C1688 1.425 . S
C1693 C1690 1.409 . S
C1693 C1691 1.415 . S
C1694 H1684 0.930 . S
C1694 C1692 1.419 . S
C1694 C1695 1.362 . S
C1695 H1685 0.930 . S
C1695 C1688 1.409 . S
C1695 C1694 1.362 . S
H1696 C1702 0.930 . S
H1697 C1705 0.930 . S
H1698 C1706 0.930 . S
H1699 C1707 0.930 . S
H1700 C1710 0.930 . S
H1701 C1711 0.930 . S
C1702 H1696 0.930 . S
C1702 C1703 1.355 . S
C1702 C1704 1.415 . S
C1703 C1702 1.355 . S
C1703 C1705 1.419 . S
C1704 C1702 1.415 . S
C1704 C1709 1.425 . S
C1704 C1711 1.409 . S
C1705 H1697 0.930 . S
C1705 C1703 1.419 . S
C1705 C1706 1.362 . S
C1706 H1698 0.930 . S
C1706 C1705 1.362 . S
C1706 C1709 1.409 . S
C1707 H1699 0.930 . S
C1707 C1708 1.355 . S
C1707 C1709 1.415 . S
C1708 C1707 1.355 . S
C1708 C1710 1.419 . S
C1709 C1704 1.425 . S
C1709 C1706 1.409 . S
C1709 C1707 1.415 . S
C1710 H1700 0.930 . S
C1710 C1708 1.419 . S
C1710 C1711 1.362 . S
C1711 H1701 0.930 . S
C1711 C1704 1.409 . S
C1711 C1710 1.362 . S
H1712 C1718 0.930 . S
H1713 C1721 0.930 . S
H1714 C1722 0.930 . S
H1715 C1723 0.930 . S
H1716 C1726 0.930 . S
H1717 C1727 0.930 . S
C1718 H1712 0.930 . S
C1718 C1719 1.355 . S
C1718 C1720 1.415 . S
C1719 C1718 1.355 . S
C1719 C1721 1.419 . S
C1720 C1718 1.415 . S
C1720 C1725 1.425 . S
C1720 C1727 1.409 . S
C1721 H1713 0.930 . S
C1721 C1719 1.419 . S
C1721 C1722 1.362 . S
C1722 H1714 0.930 . S
C1722 C1721 1.362 . S
C1722 C1725 1.409 . S
C1723 H1715 0.930 . S
C1723 C1724 1.355 . S
C1723 C1725 1.415 . S
C1724 C1723 1.355 . S
C1724 C1726 1.419 . S
C1725 C1720 1.425 . S
C1725 C1722 1.409 . S
C1725 C1723 1.415 . S
C1726 H1716 0.930 . S
C1726 C1724 1.419 . S
C1726 C1727 1.362 . S
C1727 H1717 0.930 . S
C1727 C1720 1.409 . S
C1727 C1726 1.362 . S
H1728 C1734 0.930 . S
H1729 C1737 0.930 . S
H1730 C1738 0.930 . S
H1731 C1739 0.930 . S
H1732 C1742 0.930 . S
H1733 C1743 0.930 . S
C1734 H1728 0.930 . S
C1734 C1735 1.355 . S
C1734 C1736 1.415 . S
C1735 C1734 1.355 . S
C1735 C1737 1.419 . S
C1736 C1734 1.415 . S
C1736 C1741 1.425 . S
C1736 C1743 1.409 . S
C1737 H1729 0.930 . S
C1737 C1735 1.419 . S
C1737 C1738 1.362 . S
C1738 H1730 0.930 . S
C1738 C1737 1.362 . S
C1738 C1741 1.409 . S
C1739 H1731 0.930 . S
C1739 C1740 1.355 . S
C1739 C1741 1.415 . S
C1740 C1739 1.355 . S
C1740 C1742 1.419 . S
C1741 C1736 1.425 . S
C1741 C1738 1.409 . S
C1741 C1739 1.415 . S
C1742 H1732 0.930 . S
C1742 C1740 1.419 . S
C1742 C1743 1.362 . S
C1743 H1733 0.930 . S
C1743 C1736 1.409 . S
C1743 C1742 1.362 . S
H1744 C1750 0.930 . S
H1745 C1753 0.930 . S
H1746 C1754 0.930 . S
H1747 C1755 0.930 . S
H1748 C1758 0.930 . S
H1749 C1759 0.930 . S
C1750 H1744 0.930 . S
C1750 C1751 1.355 . S
C1750 C1752 1.415 . S
C1751 C1750 1.355 . S
C1751 C1753 1.419 . S
C1752 C1750 1.415 . S
C1752 C1757 1.425 . S
C1752 C1759 1.409 . S
C1753 H1745 0.930 . S
C1753 C1751 1.419 . S
C1753 C1754 1.362 . S
C1754 H1746 0.930 . S
C1754 C1753 1.362 . S
C1754 C1757 1.409 . S
C1755 H1747 0.930 . S
C1755 C1756 1.355 . S
C1755 C1757 1.415 . S
C1756 C1755 1.355 . S
C1756 C1758 1.419 . S
C1757 C1752 1.425 . S
C1757 C1754 1.409 . S
C1757 C1755 1.415 . S
C1758 H1748 0.930 . S
C1758 C1756 1.419 . S
C1758 C1759 1.362 . S
C1759 H1749 0.930 . S
C1759 C1752 1.409 . S
C1759 C1758 1.362 . S
H1760 C1766 0.930 . S
H1761 C1769 0.930 . S
H1762 C1770 0.930 . S
H1763 C1771 0.930 . S
H1764 C1774 0.930 . S
H1765 C1775 0.930 . S
C1766 H1760 0.930 . S
C1766 C1767 1.355 . S
C1766 C1768 1.415 . S
C1767 C1766 1.355 . S
C1767 C1769 1.419 . S
C1768 C1766 1.415 . S
C1768 C1773 1.425 . S
C1768 C1775 1.409 . S
C1769 H1761 0.930 . S
C1769 C1767 1.419 . S
C1769 C1770 1.362 . S
C1770 H1762 0.930 . S
C1770 C1769 1.362 . S
C1770 C1773 1.409 . S
C1771 H1763 0.930 . S
C1771 C1772 1.355 . S
C1771 C1773 1.415 . S
C1772 C1771 1.355 . S
C1772 C1774 1.419 . S
C1773 C1768 1.425 . S
C1773 C1770 1.409 . S
C1773 C1771 1.415 . S
C1774 H1764 0.930 . S
C1774 C1772 1.419 . S
C1774 C1775 1.362 . S
C1775 H1765 0.930 . S
C1775 C1768 1.409 . S
C1775 C1774 1.362 . S
H1776 C1782 0.930 . S
H1777 C1785 0.930 . S
H1778 C1786 0.930 . S
H1779 C1787 0.930 . S
H1780 C1790 0.930 . S
H1781 C1791 0.930 . S
C1782 H1776 0.930 . S
C1782 C1783 1.355 . S
C1782 C1784 1.415 1_556 S
C1783 C1782 1.355 . S
C1783 C1785 1.419 . S
C1784 C1782 1.415 1_554 S
C1784 C1789 1.425 . S
C1784 C1791 1.409 . S
C1785 H1777 0.930 . S
C1785 C1783 1.419 . S
C1785 C1786 1.362 1_556 S
C1786 H1778 0.930 . S
C1786 C1785 1.362 1_554 S
C1786 C1789 1.409 . S
C1787 H1779 0.930 . S
C1787 C1788 1.355 . S
C1787 C1789 1.415 . S
C1788 C1787 1.355 . S
C1788 C1790 1.419 . S
C1789 C1784 1.425 . S
C1789 C1786 1.409 . S
C1789 C1787 1.415 . S
C1790 H1780 0.930 . S
C1790 C1788 1.419 . S
C1790 C1791 1.362 . S
C1791 H1781 0.930 . S
C1791 C1784 1.409 . S
C1791 C1790 1.362 . S
H1792 C1798 0.949 . S
H1793 C1801 0.930 . S
H1794 C1802 0.930 . S
H1795 C1803 0.946 . S
H1796 C1806 0.930 . S
H1797 C1807 0.930 . S
C1798 H1792 0.949 . S
C1798 C1799 1.328 1_455 S
C1798 C1800 1.422 . S
C1799 C1798 1.328 1_655 S
C1799 C1801 1.419 . S
C1800 C1798 1.422 . S
C1800 C1805 1.425 1_455 S
C1800 C1807 1.409 . S
C1801 H1793 0.930 . S
C1801 C1799 1.419 . S
C1801 C1802 1.362 . S
C1802 H1794 0.930 . S
C1802 C1801 1.362 . S
C1802 C1805 1.409 . S
C1803 H1795 0.946 . S
C1803 C1804 1.333 1_655 S
C1803 C1805 1.421 . S
C1804 C1803 1.333 1_455 S
C1804 C1806 1.419 . S
C1805 C1800 1.425 1_655 S
C1805 C1802 1.409 . S
C1805 C1803 1.421 . S
C1806 H1796 0.930 . S
C1806 C1804 1.419 . S
C1806 C1807 1.362 . S
C1807 H1797 0.930 . S
C1807 C1800 1.409 . S
C1807 C1806 1.362 . S
H1808 C1814 0.930 . S
H1809 C1817 0.930 . S
H1810 C1818 0.930 . S
H1811 C1819 0.930 . S
H1812 C1822 0.930 . S
H1813 C1823 0.930 . S
C1814 H1808 0.930 . S
C1814 C1815 1.355 . S
C1814 C1816 1.415 . S
C1815 C1814 1.355 . S
C1815 C1817 1.419 . S
C1816 C1814 1.415 . S
C1816 C1821 1.425 . S
C1816 C1823 1.409 . S
C1817 H1809 0.930 . S
C1817 C1815 1.419 . S
C1817 C1818 1.362 . S
C1818 H1810 0.930 . S
C1818 C1817 1.362 . S
C1818 C1821 1.409 . S
C1819 H1811 0.930 . S
C1819 C1820 1.355 . S
C1819 C1821 1.415 . S
C1820 C1819 1.355 . S
C1820 C1822 1.419 . S
C1821 C1816 1.425 . S
C1821 C1818 1.409 . S
C1821 C1819 1.415 . S
C1822 H1812 0.930 . S
C1822 C1820 1.419 . S
C1822 C1823 1.362 . S
C1823 H1813 0.930 . S
C1823 C1816 1.409 . S
C1823 C1822 1.362 . S
H1824 C1830 0.930 . S
H1825 C1833 0.930 . S
H1826 C1834 0.930 . S
H1827 C1835 0.930 . S
H1828 C1838 0.930 . S
H1829 C1839 0.930 . S
C1830 H1824 0.930 . S
C1830 C1831 1.355 . S
C1830 C1832 1.415 . S
C1831 C1830 1.355 . S
C1831 C1833 1.419 . S
C1832 C1830 1.415 . S
C1832 C1837 1.425 . S
C1832 C1839 1.409 . S
C1833 H1825 0.930 . S
C1833 C1831 1.419 . S
C1833 C1834 1.362 . S
C1834 H1826 0.930 . S
C1834 C1833 1.362 . S
C1834 C1837 1.409 . S
C1835 H1827 0.930 . S
C1835 C1836 1.355 . S
C1835 C1837 1.415 . S
C1836 C1835 1.355 . S
C1836 C1838 1.419 . S
C1837 C1832 1.425 . S
C1837 C1834 1.409 . S
C1837 C1835 1.415 . S
C1838 H1828 0.930 . S
C1838 C1836 1.419 . S
C1838 C1839 1.362 . S
C1839 H1829 0.930 . S
C1839 C1832 1.409 . S
C1839 C1838 1.362 . S
H1840 C1846 0.930 . S
H1841 C1849 0.930 . S
H1842 C1850 0.930 . S
H1843 C1851 0.930 . S
H1844 C1854 0.930 . S
H1845 C1855 0.930 . S
C1846 H1840 0.930 . S
C1846 C1847 1.355 . S
C1846 C1848 1.415 . S
C1847 C1846 1.355 . S
C1847 C1849 1.419 . S
C1848 C1846 1.415 . S
C1848 C1853 1.425 . S
C1848 C1855 1.409 . S
C1849 H1841 0.930 . S
C1849 C1847 1.419 . S
C1849 C1850 1.362 . S
C1850 H1842 0.930 . S
C1850 C1849 1.362 . S
C1850 C1853 1.409 . S
C1851 H1843 0.930 . S
C1851 C1852 1.355 . S
C1851 C1853 1.415 . S
C1852 C1851 1.355 . S
C1852 C1854 1.419 . S
C1853 C1848 1.425 . S
C1853 C1850 1.409 . S
C1853 C1851 1.415 . S
C1854 H1844 0.930 . S
C1854 C1852 1.419 . S
C1854 C1855 1.362 . S
C1855 H1845 0.930 . S
C1855 C1848 1.409 . S
C1855 C1854 1.362 . S
H1856 C1862 0.930 . S
H1857 C1865 0.930 . S
H1858 C1866 0.930 . S
H1859 C1867 0.930 . S
H1860 C1870 0.930 . S
H1861 C1871 0.930 . S
C1862 H1856 0.930 . S
C1862 C1863 1.355 . S
C1862 C1864 1.415 1_655 S
C1863 C1862 1.355 . S
C1863 C1865 1.419 . S
C1864 C1862 1.415 1_455 S
C1864 C1869 1.425 1_455 S
C1864 C1871 1.409 . S
C1865 H1857 0.930 . S
C1865 C1863 1.419 . S
C1865 C1866 1.362 . S
C1866 H1858 0.930 . S
C1866 C1865 1.362 . S
C1866 C1869 1.409 . S
C1867 H1859 0.930 . S
C1867 C1868 1.355 . S
C1867 C1869 1.415 1_455 S
C1868 C1867 1.355 . S
C1868 C1870 1.419 . S
C1869 C1864 1.425 1_655 S
C1869 C1866 1.409 . S
C1869 C1867 1.415 1_655 S
C1870 H1860 0.930 . S
C1870 C1868 1.419 . S
C1870 C1871 1.362 . S
C1871 H1861 0.930 . S
C1871 C1864 1.409 . S
C1871 C1870 1.362 . S
H1872 C1878 0.930 . S
H1873 C1881 0.930 . S
H1874 C1882 0.930 . S
H1875 C1883 0.930 . S
H1876 C1886 0.930 . S
H1877 C1887 0.930 . S
C1878 H1872 0.930 . S
C1878 C1879 1.355 . S
C1878 C1880 1.415 . S
C1879 C1878 1.355 . S
C1879 C1881 1.419 . S
C1880 C1878 1.415 . S
C1880 C1885 1.425 . S
C1880 C1887 1.409 . S
C1881 H1873 0.930 . S
C1881 C1879 1.419 . S
C1881 C1882 1.362 . S
C1882 H1874 0.930 . S
C1882 C1881 1.362 . S
C1882 C1885 1.409 . S
C1883 H1875 0.930 . S
C1883 C1884 1.355 . S
C1883 C1885 1.415 . S
C1884 C1883 1.355 . S
C1884 C1886 1.419 . S
C1885 C1880 1.425 . S
C1885 C1882 1.409 . S
C1885 C1883 1.415 . S
C1886 H1876 0.930 . S
C1886 C1884 1.419 . S
C1886 C1887 1.362 . S
C1887 H1877 0.930 . S
C1887 C1880 1.409 . S
C1887 C1886 1.362 . S
H1888 C1894 0.930 . S
H1889 C1897 0.930 . S
H1890 C1898 0.930 . S
H1891 C1899 0.930 . S
H1892 C1902 0.930 . S
H1893 C1903 0.930 . S
C1894 H1888 0.930 . S
C1894 C1895 1.355 . S
C1894 C1896 1.415 . S
C1895 C1894 1.355 . S
C1895 C1897 1.419 . S
C1896 C1894 1.415 . S
C1896 C1901 1.425 . S
C1896 C1903 1.409 . S
C1897 H1889 0.930 . S
C1897 C1895 1.419 . S
C1897 C1898 1.362 . S
C1898 H1890 0.930 . S
C1898 C1897 1.362 . S
C1898 C1901 1.409 . S
C1899 H1891 0.930 . S
C1899 C1900 1.355 . S
C1899 C1901 1.415 . S
C1900 C1899 1.355 . S
C1900 C1902 1.419 . S
C1901 C1896 1.425 . S
C1901 C1898 1.409 . S
C1901 C1899 1.415 . S
C1902 H1892 0.930 . S
C1902 C1900 1.419 . S
C1902 C1903 1.362 . S
C1903 H1893 0.930 . S
C1903 C1896 1.409 . S
C1903 C1902 1.362 . S
H1904 C1910 0.930 . S
H1905 C1913 0.930 . S
H1906 C1914 0.930 . S
H1907 C1915 0.930 . S
H1908 C1918 0.930 . S
H1909 C1919 0.930 . S
C1910 H1904 0.930 . S
C1910 C1911 1.355 . S
C1910 C1912 1.415 . S
C1911 C1910 1.355 . S
C1911 C1913 1.419 . S
C1912 C1910 1.415 . S
C1912 C1917 1.425 . S
C1912 C1919 1.409 . S
C1913 H1905 0.930 . S
C1913 C1911 1.419 . S
C1913 C1914 1.362 . S
C1914 H1906 0.930 . S
C1914 C1913 1.362 . S
C1914 C1917 1.409 . S
C1915 H1907 0.930 . S
C1915 C1916 1.355 . S
C1915 C1917 1.415 . S
C1916 C1915 1.355 . S
C1916 C1918 1.419 . S
C1917 C1912 1.425 . S
C1917 C1914 1.409 . S
C1917 C1915 1.415 . S
C1918 H1908 0.930 . S
C1918 C1916 1.419 . S
C1918 C1919 1.362 . S
C1919 H1909 0.930 . S
C1919 C1912 1.409 . S
C1919 C1918 1.362 . S
H1920 C1926 0.930 . S
H1921 C1929 0.930 . S
H1922 C1930 0.930 . S
H1923 C1931 0.930 . S
H1924 C1934 0.930 . S
H1925 C1935 0.930 . S
C1926 H1920 0.930 . S
C1926 C1927 1.355 . S
C1926 C1928 1.415 . S
C1927 C1926 1.355 . S
C1927 C1929 1.419 . S
C1928 C1926 1.415 . S
C1928 C1933 1.425 . S
C1928 C1935 1.409 . S
C1929 H1921 0.930 . S
C1929 C1927 1.419 . S
C1929 C1930 1.362 . S
C1930 H1922 0.930 . S
C1930 C1929 1.362 . S
C1930 C1933 1.409 . S
C1931 H1923 0.930 . S
C1931 C1932 1.355 . S
C1931 C1933 1.415 . S
C1932 C1931 1.355 . S
C1932 C1934 1.419 . S
C1933 C1928 1.425 . S
C1933 C1930 1.409 . S
C1933 C1931 1.415 . S
C1934 H1924 0.930 . S
C1934 C1932 1.419 . S
C1934 C1935 1.362 . S
C1935 H1925 0.930 . S
C1935 C1928 1.409 . S
C1935 C1934 1.362 . S
H1936 C1942 0.930 . S
H1937 C1945 0.930 . S
H1938 C1946 0.930 . S
H1939 C1947 0.930 . S
H1940 C1950 0.930 . S
H1941 C1951 0.930 . S
C1942 H1936 0.930 . S
C1942 C1943 1.355 . S
C1942 C1944 1.415 . S
C1943 C1942 1.355 . S
C1943 C1945 1.419 . S
C1944 C1942 1.415 . S
C1944 C1949 1.425 . S
C1944 C1951 1.409 . S
C1945 H1937 0.930 . S
C1945 C1943 1.419 . S
C1945 C1946 1.362 . S
C1946 H1938 0.930 . S
C1946 C1945 1.362 . S
C1946 C1949 1.409 . S
C1947 H1939 0.930 . S
C1947 C1948 1.355 . S
C1947 C1949 1.415 . S
C1948 C1947 1.355 . S
C1948 C1950 1.419 . S
C1949 C1944 1.425 . S
C1949 C1946 1.409 . S
C1949 C1947 1.415 . S
C1950 H1940 0.930 . S
C1950 C1948 1.419 . S
C1950 C1951 1.362 . S
C1951 H1941 0.930 . S
C1951 C1944 1.409 . S
C1951 C1950 1.362 . S
H1952 C1958 0.930 . S
H1953 C1961 0.930 . S
H1954 C1962 0.930 . S
H1955 C1963 0.930 . S
H1956 C1966 0.930 . S
H1957 C1967 0.930 . S
C1958 H1952 0.930 . S
C1958 C1959 1.355 . S
C1958 C1960 1.415 . S
C1959 C1958 1.355 . S
C1959 C1961 1.419 . S
C1960 C1958 1.415 . S
C1960 C1965 1.425 . S
C1960 C1967 1.409 . S
C1961 H1953 0.930 . S
C1961 C1959 1.419 . S
C1961 C1962 1.362 . S
C1962 H1954 0.930 . S
C1962 C1961 1.362 . S
C1962 C1965 1.409 . S
C1963 H1955 0.930 . S
C1963 C1964 1.355 . S
C1963 C1965 1.415 . S
C1964 C1963 1.355 . S
C1964 C1966 1.419 . S
C1965 C1960 1.425 . S
C1965 C1962 1.409 . S
C1965 C1963 1.415 . S
C1966 H1956 0.930 . S
C1966 C1964 1.419 . S
C1966 C1967 1.362 . S
C1967 H1957 0.930 . S
C1967 C1960 1.409 . S
C1967 C1966 1.362 . S
H1968 C1974 0.930 . S
H1969 C1977 0.930 1_554 S
H1970 C1978 0.930 . S
H1971 C1979 0.930 . S
H1972 C1982 0.930 . S
H1973 C1983 0.930 . S
C1974 H1968 0.930 . S
C1974 C1975 1.355 . S
C1974 C1976 1.415 . S
C1975 C1974 1.355 . S
C1975 C1977 1.419 . S
C1976 C1974 1.415 . S
C1976 C1981 1.425 . S
C1976 C1983 1.409 . S
C1977 H1969 0.930 1_556 S
C1977 C1975 1.419 . S
C1977 C1978 1.362 . S
C1978 H1970 0.930 . S
C1978 C1977 1.362 . S
C1978 C1981 1.409 . S
C1979 H1971 0.930 . S
C1979 C1980 1.355 . S
C1979 C1981 1.415 . S
C1980 C1979 1.355 . S
C1980 C1982 1.419 . S
C1981 C1976 1.425 . S
C1981 C1978 1.409 . S
C1981 C1979 1.415 . S
C1982 H1972 0.930 . S
C1982 C1980 1.419 . S
C1982 C1983 1.362 . S
C1983 H1973 0.930 . S
C1983 C1976 1.409 . S
C1983 C1982 1.362 . S
H1984 C1990 0.930 . S
H1985 C1993 0.930 . S
H1986 C1994 0.930 . S
H1987 C1995 0.930 . S
H1988 C1998 0.930 . S
H1989 C1999 0.930 . S
C1990 H1984 0.930 . S
C1990 C1991 1.355 . S
C1990 C1992 1.415 1_545 S
C1991 C1990 1.355 . S
C1991 C1993 1.419 . S
C1992 C1990 1.415 1_565 S
C1992 C1997 1.425 1_565 S
C1992 C1999 1.409 . S
C1993 H1985 0.930 . S
C1993 C1991 1.419 . S
C1993 C1994 1.362 . S
C1994 H1986 0.930 . S
C1994 C1993 1.362 . S
C1994 C1997 1.409 . S
C1995 H1987 0.930 . S
C1995 C1996 1.355 . S
C1995 C1997 1.415 1_565 S
C1996 C1995 1.355 . S
C1996 C1998 1.419 . S
C1997 C1992 1.425 1_545 S
C1997 C1994 1.409 . S
C1997 C1995 1.415 1_545 S
C1998 H1988 0.930 . S
C1998 C1996 1.419 . S
C1998 C1999 1.362 . S
C1999 H1989 0.930 . S
C1999 C1992 1.409 . S
C1999 C1998 1.362 . S
H2000 C2006 0.930 . S
H2001 C2009 0.930 . S
H2002 C2010 0.930 . S
H2003 C2011 0.958 . S
H2004 C2014 0.930 . S
H2005 C2015 0.930 . S
C2006 H2000 0.930 . S
C2006 C2007 1.355 1_655 S
C2006 C2008 1.415 . S
C2007 C2006 1.355 1_455 S
C2007 C2009 1.419 . S
C2008 C2006 1.415 . S
C2008 C2013 1.425 1_665 S
C2008 C2015 1.409 1_565 S
C2009 H2001 0.930 . S
C2009 C2007 1.419 . S
C2009 C2010 1.362 . S
C2010 H2002 0.930 . S
C2010 C2009 1.362 . S
C2010 C2013 1.409 1_565 S
C2011 H2003 0.958 . S
C2011 C2012 1.312 1_455 S
C2011 C2013 1.431 . S
C2012 C2011 1.312 1_655 S
C2012 C2014 1.419 . S
C2013 C2008 1.425 1_445 S
C2013 C2010 1.409 1_545 S
C2013 C2011 1.431 . S
C2014 H2004 0.930 . S
C2014 C2012 1.419 . S
C2014 C2015 1.362 . S
C2015 H2005 0.930 . S
C2015 C2008 1.409 1_545 S
C2015 C2014 1.362 . S
H2016 C2022 0.930 . S
H2017 C2025 0.930 . S
H2018 C2026 0.930 . S
H2019 C2027 0.930 . S
H2020 C2030 0.930 . S
H2021 C2031 0.930 . S
C2022 H2016 0.930 . S
C2022 C2023 1.355 . S
C2022 C2024 1.415 . S
C2023 C2022 1.355 . S
C2023 C2025 1.419 1_565 S
C2024 C2022 1.415 . S
C2024 C2029 1.425 1_565 S
C2024 C2031 1.409 . S
C2025 H2017 0.930 . S
C2025 C2023 1.419 1_545 S
C2025 C2026 1.362 . S
C2026 H2018 0.930 . S
C2026 C2025 1.362 . S
C2026 C2029 1.409 . S
C2027 H2019 0.930 . S
C2027 C2028 1.355 . S
C2027 C2029 1.415 . S
C2028 C2027 1.355 . S
C2028 C2030 1.419 1_545 S
C2029 C2024 1.425 1_545 S
C2029 C2026 1.409 . S
C2029 C2027 1.415 . S
C2030 H2020 0.930 . S
C2030 C2028 1.419 1_565 S
C2030 C2031 1.362 . S
C2031 H2021 0.930 . S
C2031 C2024 1.409 . S
C2031 C2030 1.362 . S
H2032 C2038 0.930 1_455 S
H2033 C2041 0.930 . S
H2034 C2042 0.930 . S
H2035 C2043 0.930 1_655 S
H2036 C2046 0.930 . S
H2037 C2047 0.930 . S
C2038 H2032 0.930 1_655 S
C2038 C2039 1.355 . S
C2038 C2040 1.415 1_655 S
C2039 C2038 1.355 . S
C2039 C2041 1.419 1_565 S
C2040 C2038 1.415 1_455 S
C2040 C2045 1.425 1_465 S
C2040 C2047 1.409 . S
C2041 H2033 0.930 . S
C2041 C2039 1.419 1_545 S
C2041 C2042 1.362 . S
C2042 H2034 0.930 . S
C2042 C2041 1.362 . S
C2042 C2045 1.409 . S
C2043 H2035 0.930 1_455 S
C2043 C2044 1.355 . S
C2043 C2045 1.415 1_455 S
C2044 C2043 1.355 . S
C2044 C2046 1.419 1_545 S
C2045 C2040 1.425 1_645 S
C2045 C2042 1.409 . S
C2045 C2043 1.415 1_655 S
C2046 H2036 0.930 . S
C2046 C2044 1.419 1_565 S
C2046 C2047 1.362 . S
C2047 H2037 0.930 . S
C2047 C2040 1.409 . S
C2047 C2046 1.362 . S
H2048 C2054 0.930 1_655 S
H2049 C2057 0.930 . S
H2050 C2058 0.930 . S
H2051 C2059 0.930 . S
H2052 C2062 0.930 . S
H2053 C2063 0.930 . S
C2054 H2048 0.930 1_455 S
C2054 C2055 1.355 . S
C2054 C2056 1.415 1_455 S
C2055 C2054 1.355 . S
C2055 C2057 1.419 . S
C2056 C2054 1.415 1_655 S
C2056 C2061 1.425 1_655 S
C2056 C2063 1.409 . S
C2057 H2049 0.930 . S
C2057 C2055 1.419 . S
C2057 C2058 1.362 . S
C2058 H2050 0.930 . S
C2058 C2057 1.362 . S
C2058 C2061 1.409 . S
C2059 H2051 0.930 . S
C2059 C2060 1.355 1_455 S
C2059 C2061 1.415 . S
C2060 C2059 1.355 1_655 S
C2060 C2062 1.419 . S
C2061 C2056 1.425 1_455 S
C2061 C2058 1.409 . S
C2061 C2059 1.415 . S
C2062 H2052 0.930 . S
C2062 C2060 1.419 . S
C2062 C2063 1.362 . S
C2063 H2053 0.930 . S
C2063 C2056 1.409 . S
C2063 C2062 1.362 . S
H2064 C2070 0.930 . S
H2065 C2073 0.930 . S
H2066 C2074 0.930 . S
H2067 C2075 0.930 . S
H2068 C2078 0.930 . S
H2069 C2079 0.930 . S
C2070 H2064 0.930 . S
C2070 C2071 1.355 . S
C2070 C2072 1.415 . S
C2071 C2070 1.355 . S
C2071 C2073 1.419 . S
C2072 C2070 1.415 . S
C2072 C2077 1.425 . S
C2072 C2079 1.409 . S
C2073 H2065 0.930 . S
C2073 C2071 1.419 . S
C2073 C2074 1.362 . S
C2074 H2066 0.930 . S
C2074 C2073 1.362 . S
C2074 C2077 1.409 . S
C2075 H2067 0.930 . S
C2075 C2076 1.355 . S
C2075 C2077 1.415 . S
C2076 C2075 1.355 . S
C2076 C2078 1.419 . S
C2077 C2072 1.425 . S
C2077 C2074 1.409 . S
C2077 C2075 1.415 . S
C2078 H2068 0.930 . S
C2078 C2076 1.419 . S
C2078 C2079 1.362 . S
C2079 H2069 0.930 . S
C2079 C2072 1.409 . S
C2079 C2078 1.362 . S
H2080 C2086 0.930 . S
H2081 C2089 0.930 . S
H2082 C2090 0.930 . S
H2083 C2091 0.930 . S
H2084 C2094 0.930 . S
H2085 C2095 0.930 . S
C2086 H2080 0.930 . S
C2086 C2087 1.355 . S
C2086 C2088 1.415 . S
C2087 C2086 1.355 . S
C2087 C2089 1.419 . S
C2088 C2086 1.415 . S
C2088 C2093 1.425 . S
C2088 C2095 1.409 . S
C2089 H2081 0.930 . S
C2089 C2087 1.419 . S
C2089 C2090 1.362 . S
C2090 H2082 0.930 . S
C2090 C2089 1.362 . S
C2090 C2093 1.409 . S
C2091 H2083 0.930 . S
C2091 C2092 1.355 . S
C2091 C2093 1.415 . S
C2092 C2091 1.355 . S
C2092 C2094 1.419 . S
C2093 C2088 1.425 . S
C2093 C2090 1.409 . S
C2093 C2091 1.415 . S
C2094 H2084 0.930 . S
C2094 C2092 1.419 . S
C2094 C2095 1.362 . S
C2095 H2085 0.930 . S
C2095 C2088 1.409 . S
C2095 C2094 1.362 . S
H2096 C2102 0.930 . S
H2097 C2105 0.930 . S
H2098 C2106 0.930 . S
H2099 C2107 0.930 . S
H2100 C2110 0.930 . S
H2101 C2111 0.930 . S
C2102 H2096 0.930 . S
C2102 C2103 1.355 . S
C2102 C2104 1.415 . S
C2103 C2102 1.355 . S
C2103 C2105 1.419 . S
C2104 C2102 1.415 . S
C2104 C2109 1.425 . S
C2104 C2111 1.409 . S
C2105 H2097 0.930 . S
C2105 C2103 1.419 . S
C2105 C2106 1.362 . S
C2106 H2098 0.930 . S
C2106 C2105 1.362 . S
C2106 C2109 1.409 . S
C2107 H2099 0.930 . S
C2107 C2108 1.355 . S
C2107 C2109 1.415 . S
C2108 C2107 1.355 . S
C2108 C2110 1.419 . S
C2109 C2104 1.425 . S
C2109 C2106 1.409 . S
C2109 C2107 1.415 . S
C2110 H2100 0.930 . S
C2110 C2108 1.419 . S
C2110 C2111 1.362 . S
C2111 H2101 0.930 . S
C2111 C2104 1.409 . S
C2111 C2110 1.362 . S
H2112 C2118 0.930 . S
H2113 C2121 0.930 . S
H2114 C2122 0.930 . S
H2115 C2123 0.930 . S
H2116 C2126 0.930 . S
H2117 C2127 0.930 . S
C2118 H2112 0.930 . S
C2118 C2119 1.355 1_455 S
C2118 C2120 1.415 . S
C2119 C2118 1.355 1_655 S
C2119 C2121 1.419 . S
C2120 C2118 1.415 . S
C2120 C2125 1.425 . S
C2120 C2127 1.409 . S
C2121 H2113 0.930 . S
C2121 C2119 1.419 . S
C2121 C2122 1.362 . S
C2122 H2114 0.930 . S
C2122 C2121 1.362 . S
C2122 C2125 1.409 1_655 S
C2123 H2115 0.930 . S
C2123 C2124 1.355 . S
C2123 C2125 1.415 . S
C2124 C2123 1.355 . S
C2124 C2126 1.419 . S
C2125 C2120 1.425 . S
C2125 C2122 1.409 1_455 S
C2125 C2123 1.415 . S
C2126 H2116 0.930 . S
C2126 C2124 1.419 . S
C2126 C2127 1.362 . S
C2127 H2117 0.930 . S
C2127 C2120 1.409 . S
C2127 C2126 1.362 . S
H2128 C2134 0.930 . S
H2129 C2137 0.930 . S
H2130 C2138 0.930 . S
H2131 C2139 0.930 . S
H2132 C2142 0.930 . S
H2133 C2143 0.930 . S
C2134 H2128 0.930 . S
C2134 C2135 1.355 . S
C2134 C2136 1.415 . S
C2135 C2134 1.355 . S
C2135 C2137 1.419 . S
C2136 C2134 1.415 . S
C2136 C2141 1.425 . S
C2136 C2143 1.409 . S
C2137 H2129 0.930 . S
C2137 C2135 1.419 . S
C2137 C2138 1.362 . S
C2138 H2130 0.930 . S
C2138 C2137 1.362 . S
C2138 C2141 1.409 . S
C2139 H2131 0.930 . S
C2139 C2140 1.355 . S
C2139 C2141 1.415 . S
C2140 C2139 1.355 . S
C2140 C2142 1.419 . S
C2141 C2136 1.425 . S
C2141 C2138 1.409 . S
C2141 C2139 1.415 . S
C2142 H2132 0.930 . S
C2142 C2140 1.419 . S
C2142 C2143 1.362 . S
C2143 H2133 0.930 . S
C2143 C2136 1.409 . S
C2143 C2142 1.362 . S
H2144 C2150 0.930 . S
H2145 C2153 0.930 . S
H2146 C2154 0.930 . S
H2147 C2155 0.930 . S
H2148 C2158 0.930 . S
H2149 C2159 0.930 . S
C2150 H2144 0.930 . S
C2150 C2151 1.355 . S
C2150 C2152 1.415 . S
C2151 C2150 1.355 . S
C2151 C2153 1.419 . S
C2152 C2150 1.415 . S
C2152 C2157 1.425 . S
C2152 C2159 1.409 . S
C2153 H2145 0.930 . S
C2153 C2151 1.419 . S
C2153 C2154 1.362 . S
C2154 H2146 0.930 . S
C2154 C2153 1.362 . S
C2154 C2157 1.409 . S
C2155 H2147 0.930 . S
C2155 C2156 1.355 . S
C2155 C2157 1.415 . S
C2156 C2155 1.355 . S
C2156 C2158 1.419 . S
C2157 C2152 1.425 . S
C2157 C2154 1.409 . S
C2157 C2155 1.415 . S
C2158 H2148 0.930 . S
C2158 C2156 1.419 . S
C2158 C2159 1.362 . S
C2159 H2149 0.930 . S
C2159 C2152 1.409 . S
C2159 C2158 1.362 . S
H2160 C2166 0.930 . S
H2161 C2169 0.930 . S
H2162 C2170 0.930 . S
H2163 C2171 0.930 . S
H2164 C2174 0.930 . S
H2165 C2175 0.930 . S
C2166 H2160 0.930 . S
C2166 C2167 1.355 . S
C2166 C2168 1.415 . S
C2167 C2166 1.355 . S
C2167 C2169 1.419 . S
C2168 C2166 1.415 . S
C2168 C2173 1.425 . S
C2168 C2175 1.409 . S
C2169 H2161 0.930 . S
C2169 C2167 1.419 . S
C2169 C2170 1.362 . S
C2170 H2162 0.930 . S
C2170 C2169 1.362 . S
C2170 C2173 1.409 . S
C2171 H2163 0.930 . S
C2171 C2172 1.355 . S
C2171 C2173 1.415 . S
C2172 C2171 1.355 . S
C2172 C2174 1.419 . S
C2173 C2168 1.425 . S
C2173 C2170 1.409 . S
C2173 C2171 1.415 . S
C2174 H2164 0.930 . S
C2174 C2172 1.419 . S
C2174 C2175 1.362 . S
C2175 H2165 0.930 . S
C2175 C2168 1.409 . S
C2175 C2174 1.362 . S
H2176 C2182 0.930 . S
H2177 C2185 0.930 . S
H2178 C2186 0.930 . S
H2179 C2187 0.930 1_455 S
H2180 C2190 0.930 . S
H2181 C2191 0.930 . S
C2182 H2176 0.930 . S
C2182 C2183 1.355 1_655 S
C2182 C2184 1.415 . S
C2183 C2182 1.355 1_455 S
C2183 C2185 1.419 . S
C2184 C2182 1.415 . S
C2184 C2189 1.425 1_655 S
C2184 C2191 1.409 . S
C2185 H2177 0.930 . S
C2185 C2183 1.419 . S
C2185 C2186 1.362 . S
C2186 H2178 0.930 . S
C2186 C2185 1.362 . S
C2186 C2189 1.409 . S
C2187 H2179 0.930 1_655 S
C2187 C2188 1.355 . S
C2187 C2189 1.415 1_655 S
C2188 C2187 1.355 . S
C2188 C2190 1.419 . S
C2189 C2184 1.425 1_455 S
C2189 C2186 1.409 . S
C2189 C2187 1.415 1_455 S
C2190 H2180 0.930 . S
C2190 C2188 1.419 . S
C2190 C2191 1.362 . S
C2191 H2181 0.930 . S
C2191 C2184 1.409 . S
C2191 C2190 1.362 . S
H2192 C2198 0.930 . S
H2193 C2201 0.930 . S
H2194 C2202 0.930 . S
H2195 C2203 0.930 . S
H2196 C2206 0.930 . S
H2197 C2207 0.930 . S
C2198 H2192 0.930 . S
C2198 C2199 1.355 . S
C2198 C2200 1.415 . S
C2199 C2198 1.355 . S
C2199 C2201 1.419 . S
C2200 C2198 1.415 . S
C2200 C2205 1.425 . S
C2200 C2207 1.409 . S
C2201 H2193 0.930 . S
C2201 C2199 1.419 . S
C2201 C2202 1.362 . S
C2202 H2194 0.930 . S
C2202 C2201 1.362 . S
C2202 C2205 1.409 . S
C2203 H2195 0.930 . S
C2203 C2204 1.355 . S
C2203 C2205 1.415 . S
C2204 C2203 1.355 . S
C2204 C2206 1.419 . S
C2205 C2200 1.425 . S
C2205 C2202 1.409 . S
C2205 C2203 1.415 . S
C2206 H2196 0.930 . S
C2206 C2204 1.419 . S
C2206 C2207 1.362 . S
C2207 H2197 0.930 . S
C2207 C2200 1.409 . S
C2207 C2206 1.362 . S
H2208 C2214 0.930 . S
H2209 C2217 0.930 . S
H2210 C2218 0.930 . S
H2211 C2219 0.930 . S
H2212 C2222 0.930 . S
H2213 C2223 0.930 . S
C2214 H2208 0.930 . S
C2214 C2215 1.355 . S
C2214 C2216 1.415 . S
C2215 C2214 1.355 . S
C2215 C2217 1.419 . S
C2216 C2214 1.415 . S
C2216 C2221 1.425 . S
C2216 C2223 1.409 . S
C2217 H2209 0.930 . S
C2217 C2215 1.419 . S
C2217 C2218 1.362 . S
C2218 H2210 0.930 . S
C2218 C2217 1.362 . S
C2218 C2221 1.409 . S
C2219 H2211 0.930 . S
C2219 C2220 1.355 . S
C2219 C2221 1.415 . S
C2220 C2219 1.355 . S
C2220 C2222 1.419 . S
C2221 C2216 1.425 . S
C2221 C2218 1.409 . S
C2221 C2219 1.415 . S
C2222 H2212 0.930 . S
C2222 C2220 1.419 . S
C2222 C2223 1.362 . S
C2223 H2213 0.930 . S
C2223 C2216 1.409 . S
C2223 C2222 1.362 . S
H2224 C2230 0.930 . S
H2225 C2233 0.930 . S
H2226 C2234 0.930 . S
H2227 C2235 0.930 . S
H2228 C2238 0.930 . S
H2229 C2239 0.930 . S
C2230 H2224 0.930 . S
C2230 C2231 1.355 . S
C2230 C2232 1.415 . S
C2231 C2230 1.355 . S
C2231 C2233 1.419 . S
C2232 C2230 1.415 . S
C2232 C2237 1.425 . S
C2232 C2239 1.409 . S
C2233 H2225 0.930 . S
C2233 C2231 1.419 . S
C2233 C2234 1.362 . S
C2234 H2226 0.930 . S
C2234 C2233 1.362 . S
C2234 C2237 1.409 . S
C2235 H2227 0.930 . S
C2235 C2236 1.355 . S
C2235 C2237 1.415 . S
C2236 C2235 1.355 . S
C2236 C2238 1.419 . S
C2237 C2232 1.425 . S
C2237 C2234 1.409 . S
C2237 C2235 1.415 . S
C2238 H2228 0.930 . S
C2238 C2236 1.419 . S
C2238 C2239 1.362 . S
C2239 H2229 0.930 . S
C2239 C2232 1.409 . S
C2239 C2238 1.362 . S
H2240 C2246 0.930 . S
H2241 C2249 0.930 . S
H2242 C2250 0.930 . S
H2243 C2251 0.930 . S
H2244 C2254 0.930 . S
H2245 C2255 0.930 . S
C2246 H2240 0.930 . S
C2246 C2247 1.355 1_655 S
C2246 C2248 1.415 . S
C2247 C2246 1.355 1_455 S
C2247 C2249 1.419 . S
C2248 C2246 1.415 . S
C2248 C2253 1.425 . S
C2248 C2255 1.409 . S
C2249 H2241 0.930 . S
C2249 C2247 1.419 . S
C2249 C2250 1.362 . S
C2250 H2242 0.930 . S
C2250 C2249 1.362 . S
C2250 C2253 1.409 1_455 S
C2251 H2243 0.930 . S
C2251 C2252 1.355 . S
C2251 C2253 1.415 . S
C2252 C2251 1.355 . S
C2252 C2254 1.419 . S
C2253 C2248 1.425 . S
C2253 C2250 1.409 1_655 S
C2253 C2251 1.415 . S
C2254 H2244 0.930 . S
C2254 C2252 1.419 . S
C2254 C2255 1.362 . S
C2255 H2245 0.930 . S
C2255 C2248 1.409 . S
C2255 C2254 1.362 . S
H2256 C2262 0.930 . S
H2257 C2265 0.930 . S
H2258 C2266 0.930 . S
H2259 C2267 0.930 . S
H2260 C2270 0.930 . S
H2261 C2271 0.930 . S
C2262 H2256 0.930 . S
C2262 C2263 1.355 . S
C2262 C2264 1.415 . S
C2263 C2262 1.355 . S
C2263 C2265 1.419 . S
C2264 C2262 1.415 . S
C2264 C2269 1.425 . S
C2264 C2271 1.409 . S
C2265 H2257 0.930 . S
C2265 C2263 1.419 . S
C2265 C2266 1.362 . S
C2266 H2258 0.930 . S
C2266 C2265 1.362 . S
C2266 C2269 1.409 . S
C2267 H2259 0.930 . S
C2267 C2268 1.355 . S
C2267 C2269 1.415 . S
C2268 C2267 1.355 . S
C2268 C2270 1.419 . S
C2269 C2264 1.425 . S
C2269 C2266 1.409 . S
C2269 C2267 1.415 . S
C2270 H2260 0.930 . S
C2270 C2268 1.419 . S
C2270 C2271 1.362 . S
C2271 H2261 0.930 . S
C2271 C2264 1.409 . S
C2271 C2270 1.362 . S
H2272 C2278 0.930 . S
H2273 C2281 0.930 . S
H2274 C2282 0.930 . S
H2275 C2283 0.930 . S
H2276 C2286 0.930 . S
H2277 C2287 0.930 . S
C2278 H2272 0.930 . S
C2278 C2279 1.355 1_556 S
C2278 C2280 1.415 . S
C2279 C2278 1.355 1_554 S
C2279 C2281 1.419 . S
C2280 C2278 1.415 . S
C2280 C2285 1.425 . S
C2280 C2287 1.409 . S
C2281 H2273 0.930 . S
C2281 C2279 1.419 . S
C2281 C2282 1.362 1_554 S
C2282 H2274 0.930 . S
C2282 C2281 1.362 1_556 S
C2282 C2285 1.409 . S
C2283 H2275 0.930 . S
C2283 C2284 1.355 . S
C2283 C2285 1.415 . S
C2284 C2283 1.355 . S
C2284 C2286 1.419 . S
C2285 C2280 1.425 . S
C2285 C2282 1.409 . S
C2285 C2283 1.415 . S
C2286 H2276 0.930 . S
C2286 C2284 1.419 . S
C2286 C2287 1.362 . S
C2287 H2277 0.930 . S
C2287 C2280 1.409 . S
C2287 C2286 1.362 . S
H2288 C2294 0.930 . S
H2289 C2297 0.930 . S
H2290 C2298 0.930 . S
H2291 C2299 0.930 . S
H2292 C2302 0.930 . S
H2293 C2303 0.930 . S
C2294 H2288 0.930 . S
C2294 C2295 1.355 . S
C2294 C2296 1.415 . S
C2295 C2294 1.355 . S
C2295 C2297 1.419 . S
C2296 C2294 1.415 . S
C2296 C2301 1.425 . S
C2296 C2303 1.409 . S
C2297 H2289 0.930 . S
C2297 C2295 1.419 . S
C2297 C2298 1.362 . S
C2298 H2290 0.930 . S
C2298 C2297 1.362 . S
C2298 C2301 1.409 . S
C2299 H2291 0.930 . S
C2299 C2300 1.355 . S
C2299 C2301 1.415 . S
C2300 C2299 1.355 . S
C2300 C2302 1.419 . S
C2301 C2296 1.425 . S
C2301 C2298 1.409 . S
C2301 C2299 1.415 . S
C2302 H2292 0.930 . S
C2302 C2300 1.419 . S
C2302 C2303 1.362 . S
C2303 H2293 0.930 . S
C2303 C2296 1.409 . S
C2303 C2302 1.362 . S
H2304 C2310 0.930 . S
H2305 C2313 0.930 . S
H2306 C2314 0.930 . S
H2307 C2315 0.930 . S
H2308 C2318 0.930 . S
H2309 C2319 0.930 . S
C2310 H2304 0.930 . S
C2310 C2311 1.355 . S
C2310 C2312 1.415 . S
C2311 C2310 1.355 . S
C2311 C2313 1.419 . S
C2312 C2310 1.415 . S
C2312 C2317 1.425 . S
C2312 C2319 1.409 . S
C2313 H2305 0.930 . S
C2313 C2311 1.419 . S
C2313 C2314 1.362 . S
C2314 H2306 0.930 . S
C2314 C2313 1.362 . S
C2314 C2317 1.409 . S
C2315 H2307 0.930 . S
C2315 C2316 1.355 . S
C2315 C2317 1.415 . S
C2316 C2315 1.355 . S
C2316 C2318 1.419 . S
C2317 C2312 1.425 . S
C2317 C2314 1.409 . S
C2317 C2315 1.415 . S
C2318 H2308 0.930 . S
C2318 C2316 1.419 . S
C2318 C2319 1.362 . S
C2319 H2309 0.930 . S
C2319 C2312 1.409 . S
C2319 C2318 1.362 . S
H2320 C2326 0.930 . S
H2321 C2329 0.930 . S
H2322 C2330 0.930 . S
H2323 C2331 0.930 . S
H2324 C2334 0.930 . S
H2325 C2335 0.930 . S
C2326 H2320 0.930 . S
C2326 C2327 1.355 . S
C2326 C2328 1.415 . S
C2327 C2326 1.355 . S
C2327 C2329 1.419 . S
C2328 C2326 1.415 . S
C2328 C2333 1.425 . S
C2328 C2335 1.409 . S
C2329 H2321 0.930 . S
C2329 C2327 1.419 . S
C2329 C2330 1.362 . S
C2330 H2322 0.930 . S
C2330 C2329 1.362 . S
C2330 C2333 1.409 . S
C2331 H2323 0.930 . S
C2331 C2332 1.355 . S
C2331 C2333 1.415 . S
C2332 C2331 1.355 . S
C2332 C2334 1.419 . S
C2333 C2328 1.425 . S
C2333 C2330 1.409 . S
C2333 C2331 1.415 . S
C2334 H2324 0.930 . S
C2334 C2332 1.419 . S
C2334 C2335 1.362 . S
C2335 H2325 0.930 . S
C2335 C2328 1.409 . S
C2335 C2334 1.362 . S
H2336 C2342 0.930 . S
H2337 C2345 0.930 . S
H2338 C2346 0.930 . S
H2339 C2347 0.930 . S
H2340 C2350 0.945 . S
H2341 C2351 0.930 . S
C2342 H2336 0.930 . S
C2342 C2343 1.355 1_556 S
C2342 C2344 1.415 . S
C2343 C2342 1.355 1_554 S
C2343 C2345 1.419 1_655 S
C2344 C2342 1.415 . S
C2344 C2349 1.425 1_655 S
C2344 C2351 1.409 . S
C2345 H2337 0.930 . S
C2345 C2343 1.419 1_455 S
C2345 C2346 1.362 1_554 S
C2346 H2338 0.930 . S
C2346 C2345 1.362 1_556 S
C2346 C2349 1.409 . S
C2347 H2339 0.930 . S
C2347 C2348 1.355 . S
C2347 C2349 1.415 . S
C2348 C2347 1.355 . S
C2348 C2350 1.380 1_455 S
C2349 C2344 1.425 1_455 S
C2349 C2346 1.409 . S
C2349 C2347 1.415 . S
C2350 H2340 0.945 . S
C2350 C2348 1.380 1_655 S
C2350 C2351 1.387 . S
C2351 H2341 0.930 . S
C2351 C2344 1.409 . S
C2351 C2350 1.387 . S
H2352 C2358 0.930 . S
H2353 C2361 0.930 . S
H2354 C2362 0.930 . S
H2355 C2363 0.930 . S
H2356 C2366 0.930 . S
H2357 C2367 0.930 . S
C2358 H2352 0.930 . S
C2358 C2359 1.355 1_554 S
C2358 C2360 1.415 . S
C2359 C2358 1.355 1_556 S
C2359 C2361 1.419 . S
C2360 C2358 1.415 . S
C2360 C2365 1.425 . S
C2360 C2367 1.409 . S
C2361 H2353 0.930 . S
C2361 C2359 1.419 . S
C2361 C2362 1.362 1_556 S
C2362 H2354 0.930 . S
C2362 C2361 1.362 1_554 S
C2362 C2365 1.409 . S
C2363 H2355 0.930 . S
C2363 C2364 1.355 . S
C2363 C2365 1.415 . S
C2364 C2363 1.355 . S
C2364 C2366 1.419 . S
C2365 C2360 1.425 . S
C2365 C2362 1.409 . S
C2365 C2363 1.415 . S
C2366 H2356 0.930 . S
C2366 C2364 1.419 . S
C2366 C2367 1.362 . S
C2367 H2357 0.930 . S
C2367 C2360 1.409 . S
C2367 C2366 1.362 . S
H2368 C2374 0.930 . S
H2369 C2377 0.930 . S
H2370 C2378 0.930 . S
H2371 C2379 0.930 . S
H2372 C2382 0.930 . S
H2373 C2383 0.930 . S
C2374 H2368 0.930 . S
C2374 C2375 1.355 . S
C2374 C2376 1.415 . S
C2375 C2374 1.355 . S
C2375 C2377 1.419 . S
C2376 C2374 1.415 . S
C2376 C2381 1.425 . S
C2376 C2383 1.409 . S
C2377 H2369 0.930 . S
C2377 C2375 1.419 . S
C2377 C2378 1.362 . S
C2378 H2370 0.930 . S
C2378 C2377 1.362 . S
C2378 C2381 1.409 . S
C2379 H2371 0.930 . S
C2379 C2380 1.355 . S
C2379 C2381 1.415 . S
C2380 C2379 1.355 . S
C2380 C2382 1.419 . S
C2381 C2376 1.425 . S
C2381 C2378 1.409 . S
C2381 C2379 1.415 . S
C2382 H2372 0.930 . S
C2382 C2380 1.419 . S
C2382 C2383 1.362 . S
C2383 H2373 0.930 . S
C2383 C2376 1.409 . S
C2383 C2382 1.362 . S
H2384 C2390 0.930 . S
H2385 C2393 0.930 . S
H2386 C2394 0.930 . S
H2387 C2395 0.930 . S
H2388 C2398 0.930 . S
H2389 C2399 0.930 . S
C2390 H2384 0.930 . S
C2390 C2391 1.355 . S
C2390 C2392 1.415 . S
C2391 C2390 1.355 . S
C2391 C2393 1.419 . S
C2392 C2390 1.415 . S
C2392 C2397 1.425 . S
C2392 C2399 1.409 . S
C2393 H2385 0.930 . S
C2393 C2391 1.419 . S
C2393 C2394 1.362 . S
C2394 H2386 0.930 . S
C2394 C2393 1.362 . S
C2394 C2397 1.409 . S
C2395 H2387 0.930 . S
C2395 C2396 1.355 . S
C2395 C2397 1.415 . S
C2396 C2395 1.355 . S
C2396 C2398 1.419 . S
C2397 C2392 1.425 . S
C2397 C2394 1.409 . S
C2397 C2395 1.415 . S
C2398 H2388 0.930 . S
C2398 C2396 1.419 . S
C2398 C2399 1.362 . S
C2399 H2389 0.930 . S
C2399 C2392 1.409 . S
C2399 C2398 1.362 . S
H2400 C2406 0.930 . S
H2401 C2409 0.930 . S
H2402 C2410 0.930 . S
H2403 C2411 0.930 . S
H2404 C2414 0.930 . S
H2405 C2415 0.930 . S
C2406 H2400 0.930 . S
C2406 C2407 1.355 1_655 S
C2406 C2408 1.415 . S
C2407 C2406 1.355 1_455 S
C2407 C2409 1.419 . S
C2408 C2406 1.415 . S
C2408 C2413 1.425 . S
C2408 C2415 1.409 . S
C2409 H2401 0.930 . S
C2409 C2407 1.419 . S
C2409 C2410 1.362 1_455 S
C2410 H2402 0.930 . S
C2410 C2409 1.362 1_655 S
C2410 C2413 1.409 . S
C2411 H2403 0.930 . S
C2411 C2412 1.355 . S
C2411 C2413 1.415 . S
C2412 C2411 1.355 . S
C2412 C2414 1.419 . S
C2413 C2408 1.425 . S
C2413 C2410 1.409 . S
C2413 C2411 1.415 . S
C2414 H2404 0.930 . S
C2414 C2412 1.419 . S
C2414 C2415 1.362 . S
C2415 H2405 0.930 . S
C2415 C2408 1.409 . S
C2415 C2414 1.362 . S
H2416 C2422 0.930 . S
H2417 C2425 0.930 . S
H2418 C2426 0.930 . S
H2419 C2427 0.930 . S
H2420 C2430 0.930 . S
H2421 C2431 0.930 . S
C2422 H2416 0.930 . S
C2422 C2423 1.355 . S
C2422 C2424 1.415 . S
C2423 C2422 1.355 . S
C2423 C2425 1.419 . S
C2424 C2422 1.415 . S
C2424 C2429 1.425 . S
C2424 C2431 1.409 . S
C2425 H2417 0.930 . S
C2425 C2423 1.419 . S
C2425 C2426 1.362 . S
C2426 H2418 0.930 . S
C2426 C2425 1.362 . S
C2426 C2429 1.409 . S
C2427 H2419 0.930 . S
C2427 C2428 1.355 . S
C2427 C2429 1.415 . S
C2428 C2427 1.355 . S
C2428 C2430 1.419 . S
C2429 C2424 1.425 . S
C2429 C2426 1.409 . S
C2429 C2427 1.415 . S
C2430 H2420 0.930 . S
C2430 C2428 1.419 . S
C2430 C2431 1.362 . S
C2431 H2421 0.930 . S
C2431 C2424 1.409 . S
C2431 C2430 1.362 . S
H2432 C2438 0.930 . S
H2433 C2441 0.930 . S
H2434 C2442 0.930 . S
H2435 C2443 0.930 . S
H2436 C2446 0.930 . S
H2437 C2447 0.930 . S
C2438 H2432 0.930 . S
C2438 C2439 1.355 . S
C2438 C2440 1.415 . S
C2439 C2438 1.355 . S
C2439 C2441 1.419 . S
C2440 C2438 1.415 . S
C2440 C2445 1.425 . S
C2440 C2447 1.409 . S
C2441 H2433 0.930 . S
C2441 C2439 1.419 . S
C2441 C2442 1.362 . S
C2442 H2434 0.930 . S
C2442 C2441 1.362 . S
C2442 C2445 1.409 . S
C2443 H2435 0.930 . S
C2443 C2444 1.355 . S
C2443 C2445 1.415 . S
C2444 C2443 1.355 . S
C2444 C2446 1.419 . S
C2445 C2440 1.425 . S
C2445 C2442 1.409 . S
C2445 C2443 1.415 . S
C2446 H2436 0.930 . S
C2446 C2444 1.419 . S
C2446 C2447 1.362 . S
C2447 H2437 0.930 . S
C2447 C2440 1.409 . S
C2447 C2446 1.362 . S
H2448 C2454 0.930 . S
H2449 C2457 0.930 . S
H2450 C2458 0.930 . S
H2451 C2459 0.930 . S
H2452 C2462 0.930 . S
H2453 C2463 0.930 . S
C2454 H2448 0.930 . S
C2454 C2455 1.355 . S
C2454 C2456 1.415 . S
C2455 C2454 1.355 . S
C2455 C2457 1.419 . S
C2456 C2454 1.415 . S
C2456 C2461 1.425 . S
C2456 C2463 1.409 . S
C2457 H2449 0.930 . S
C2457 C2455 1.419 . S
C2457 C2458 1.362 . S
C2458 H2450 0.930 . S
C2458 C2457 1.362 . S
C2458 C2461 1.409 . S
C2459 H2451 0.930 . S
C2459 C2460 1.355 . S
C2459 C2461 1.415 . S
C2460 C2459 1.355 . S
C2460 C2462 1.419 . S
C2461 C2456 1.425 . S
C2461 C2458 1.409 . S
C2461 C2459 1.415 . S
C2462 H2452 0.930 . S
C2462 C2460 1.419 . S
C2462 C2463 1.362 . S
C2463 H2453 0.930 . S
C2463 C2456 1.409 . S
C2463 C2462 1.362 . S
H2464 C2470 0.930 . S
H2465 C2473 0.930 . S
H2466 C2474 0.930 . S
H2467 C2475 0.930 . S
H2468 C2478 0.930 . S
H2469 C2479 0.930 . S
C2470 H2464 0.930 . S
C2470 C2471 1.355 . S
C2470 C2472 1.415 1_455 S
C2471 C2470 1.355 . S
C2471 C2473 1.419 . S
C2472 C2470 1.415 1_655 S
C2472 C2477 1.425 . S
C2472 C2479 1.409 . S
C2473 H2465 0.930 . S
C2473 C2471 1.419 . S
C2473 C2474 1.362 . S
C2474 H2466 0.930 . S
C2474 C2473 1.362 . S
C2474 C2477 1.409 1_455 S
C2475 H2467 0.930 . S
C2475 C2476 1.355 . S
C2475 C2477 1.415 . S
C2476 C2475 1.355 . S
C2476 C2478 1.419 . S
C2477 C2472 1.425 . S
C2477 C2474 1.409 1_655 S
C2477 C2475 1.415 . S
C2478 H2468 0.930 . S
C2478 C2476 1.419 . S
C2478 C2479 1.362 . S
C2479 H2469 0.930 . S
C2479 C2472 1.409 . S
C2479 C2478 1.362 . S
H2480 C2486 0.930 . S
H2481 C2489 0.930 . S
H2482 C2490 0.930 . S
H2483 C2491 0.930 . S
H2484 C2494 0.930 . S
H2485 C2495 0.930 . S
C2486 H2480 0.930 . S
C2486 C2487 1.355 . S
C2486 C2488 1.415 . S
C2487 C2486 1.355 . S
C2487 C2489 1.419 . S
C2488 C2486 1.415 . S
C2488 C2493 1.425 . S
C2488 C2495 1.409 . S
C2489 H2481 0.930 . S
C2489 C2487 1.419 . S
C2489 C2490 1.362 . S
C2490 H2482 0.930 . S
C2490 C2489 1.362 . S
C2490 C2493 1.409 . S
C2491 H2483 0.930 . S
C2491 C2492 1.355 . S
C2491 C2493 1.415 . S
C2492 C2491 1.355 . S
C2492 C2494 1.419 . S
C2493 C2488 1.425 . S
C2493 C2490 1.409 . S
C2493 C2491 1.415 . S
C2494 H2484 0.930 . S
C2494 C2492 1.419 . S
C2494 C2495 1.362 . S
C2495 H2485 0.930 . S
C2495 C2488 1.409 . S
C2495 C2494 1.362 . S
H2496 C2502 0.930 . S
H2497 C2505 0.930 . S
H2498 C2506 0.930 . S
H2499 C2507 0.930 1_554 S
H2500 C2510 0.930 . S
H2501 C2511 0.930 . S
C2502 H2496 0.930 . S
C2502 C2503 1.355 . S
C2502 C2504 1.415 . S
C2503 C2502 1.355 . S
C2503 C2505 1.419 . S
C2504 C2502 1.415 . S
C2504 C2509 1.425 . S
C2504 C2511 1.409 . S
C2505 H2497 0.930 . S
C2505 C2503 1.419 . S
C2505 C2506 1.362 . S
C2506 H2498 0.930 . S
C2506 C2505 1.362 . S
C2506 C2509 1.409 . S
C2507 H2499 0.930 1_556 S
C2507 C2508 1.355 . S
C2507 C2509 1.415 . S
C2508 C2507 1.355 . S
C2508 C2510 1.419 . S
C2509 C2504 1.425 . S
C2509 C2506 1.409 . S
C2509 C2507 1.415 . S
C2510 H2500 0.930 . S
C2510 C2508 1.419 . S
C2510 C2511 1.362 . S
C2511 H2501 0.930 . S
C2511 C2504 1.409 . S
C2511 C2510 1.362 . S
H2512 C2518 0.930 . S
H2513 C2521 0.930 . S
H2514 C2522 0.930 . S
H2515 C2523 0.930 . S
H2516 C2526 0.930 . S
H2517 C2527 0.930 . S
C2518 H2512 0.930 . S
C2518 C2519 1.355 . S
C2518 C2520 1.415 . S
C2519 C2518 1.355 . S
C2519 C2521 1.419 . S
C2520 C2518 1.415 . S
C2520 C2525 1.425 . S
C2520 C2527 1.409 . S
C2521 H2513 0.930 . S
C2521 C2519 1.419 . S
C2521 C2522 1.362 . S
C2522 H2514 0.930 . S
C2522 C2521 1.362 . S
C2522 C2525 1.409 . S
C2523 H2515 0.930 . S
C2523 C2524 1.355 . S
C2523 C2525 1.415 . S
C2524 C2523 1.355 . S
C2524 C2526 1.419 . S
C2525 C2520 1.425 . S
C2525 C2522 1.409 . S
C2525 C2523 1.415 . S
C2526 H2516 0.930 . S
C2526 C2524 1.419 . S
C2526 C2527 1.362 . S
C2527 H2517 0.930 . S
C2527 C2520 1.409 . S
C2527 C2526 1.362 . S
H2528 C2534 0.930 . S
H2529 C2537 0.930 . S
H2530 C2538 0.930 . S
H2531 C2539 0.930 . S
H2532 C2542 0.930 . S
H2533 C2543 0.930 . S
C2534 H2528 0.930 . S
C2534 C2535 1.355 . S
C2534 C2536 1.415 . S
C2535 C2534 1.355 . S
C2535 C2537 1.419 . S
C2536 C2534 1.415 . S
C2536 C2541 1.425 . S
C2536 C2543 1.409 . S
C2537 H2529 0.930 . S
C2537 C2535 1.419 . S
C2537 C2538 1.362 1_455 S
C2538 H2530 0.930 . S
C2538 C2537 1.362 1_655 S
C2538 C2541 1.409 1_655 S
C2539 H2531 0.930 . S
C2539 C2540 1.355 . S
C2539 C2541 1.415 1_655 S
C2540 C2539 1.355 . S
C2540 C2542 1.419 1_655 S
C2541 C2536 1.425 . S
C2541 C2538 1.409 1_455 S
C2541 C2539 1.415 1_455 S
C2542 H2532 0.930 . S
C2542 C2540 1.419 1_455 S
C2542 C2543 1.362 . S
C2543 H2533 0.930 . S
C2543 C2536 1.409 . S
C2543 C2542 1.362 . S
H2544 C2550 0.930 . S
H2545 C2553 0.930 . S
H2546 C2554 0.930 . S
H2547 C2555 0.930 . S
H2548 C2558 0.930 . S
H2549 C2559 0.930 . S
C2550 H2544 0.930 . S
C2550 C2551 1.355 . S
C2550 C2552 1.415 1_556 S
C2551 C2550 1.355 . S
C2551 C2553 1.419 1_556 S
C2552 C2550 1.415 1_554 S
C2552 C2557 1.425 . S
C2552 C2559 1.409 . S
C2553 H2545 0.930 . S
C2553 C2551 1.419 1_554 S
C2553 C2554 1.362 . S
C2554 H2546 0.930 . S
C2554 C2553 1.362 . S
C2554 C2557 1.409 . S
C2555 H2547 0.930 . S
C2555 C2556 1.355 . S
C2555 C2557 1.415 . S
C2556 C2555 1.355 . S
C2556 C2558 1.419 . S
C2557 C2552 1.425 . S
C2557 C2554 1.409 . S
C2557 C2555 1.415 . S
C2558 H2548 0.930 . S
C2558 C2556 1.419 . S
C2558 C2559 1.362 . S
C2559 H2549 0.930 . S
C2559 C2552 1.409 . S
C2559 C2558 1.362 . S
H2560 C2566 0.930 . S
H2561 C2569 0.930 . S
H2562 C2570 0.930 . S
H2563 C2571 0.930 . S
H2564 C2574 0.930 . S
H2565 C2575 0.930 . S
C2566 H2560 0.930 . S
C2566 C2567 1.355 . S
C2566 C2568 1.415 . S
C2567 C2566 1.355 . S
C2567 C2569 1.419 . S
C2568 C2566 1.415 . S
C2568 C2573 1.425 . S
C2568 C2575 1.409 . S
C2569 H2561 0.930 . S
C2569 C2567 1.419 . S
C2569 C2570 1.362 . S
C2570 H2562 0.930 . S
C2570 C2569 1.362 . S
C2570 C2573 1.409 . S
C2571 H2563 0.930 . S
C2571 C2572 1.355 . S
C2571 C2573 1.415 . S
C2572 C2571 1.355 . S
C2572 C2574 1.419 . S
C2573 C2568 1.425 . S
C2573 C2570 1.409 . S
C2573 C2571 1.415 . S
C2574 H2564 0.930 . S
C2574 C2572 1.419 . S
C2574 C2575 1.362 . S
C2575 H2565 0.930 . S
C2575 C2568 1.409 . S
C2575 C2574 1.362 . S
H2576 C2582 0.930 . S
H2577 C2585 0.930 . S
H2578 C2586 0.930 . S
H2579 C2587 0.930 . S
H2580 C2590 0.930 . S
H2581 C2591 0.930 . S
C2582 H2576 0.930 . S
C2582 C2583 1.355 . S
C2582 C2584 1.415 1_556 S
C2583 C2582 1.355 . S
C2583 C2585 1.419 . S
C2584 C2582 1.415 1_554 S
C2584 C2589 1.425 . S
C2584 C2591 1.409 . S
C2585 H2577 0.930 . S
C2585 C2583 1.419 . S
C2585 C2586 1.362 1_556 S
C2586 H2578 0.930 . S
C2586 C2585 1.362 1_554 S
C2586 C2589 1.409 . S
C2587 H2579 0.930 . S
C2587 C2588 1.355 . S
C2587 C2589 1.415 . S
C2588 C2587 1.355 . S
C2588 C2590 1.419 . S
C2589 C2584 1.425 . S
C2589 C2586 1.409 . S
C2589 C2587 1.415 . S
C2590 H2580 0.930 . S
C2590 C2588 1.419 . S
C2590 C2591 1.362 . S
C2591 H2581 0.930 . S
C2591 C2584 1.409 . S
C2591 C2590 1.362 . S
H2592 C2598 0.930 . S
H2593 C2601 0.930 . S
H2594 C2602 0.930 . S
H2595 C2603 0.930 . S
H2596 C2606 0.930 . S
H2597 C2607 0.930 . S
C2598 H2592 0.930 . S
C2598 C2599 1.355 . S
C2598 C2600 1.415 . S
C2599 C2598 1.355 . S
C2599 C2601 1.419 . S
C2600 C2598 1.415 . S
C2600 C2605 1.425 . S
C2600 C2607 1.409 . S
C2601 H2593 0.930 . S
C2601 C2599 1.419 . S
C2601 C2602 1.362 . S
C2602 H2594 0.930 . S
C2602 C2601 1.362 . S
C2602 C2605 1.409 . S
C2603 H2595 0.930 . S
C2603 C2604 1.355 . S
C2603 C2605 1.415 . S
C2604 C2603 1.355 . S
C2604 C2606 1.419 . S
C2605 C2600 1.425 . S
C2605 C2602 1.409 . S
C2605 C2603 1.415 . S
C2606 H2596 0.930 . S
C2606 C2604 1.419 . S
C2606 C2607 1.362 . S
C2607 H2597 0.930 . S
C2607 C2600 1.409 . S
C2607 C2606 1.362 . S
H2608 C2614 0.930 . S
H2609 C2617 0.930 . S
H2610 C2618 0.930 . S
H2611 C2619 0.930 . S
H2612 C2622 0.930 . S
H2613 C2623 0.930 . S
C2614 H2608 0.930 . S
C2614 C2615 1.355 . S
C2614 C2616 1.415 . S
C2615 C2614 1.355 . S
C2615 C2617 1.419 . S
C2616 C2614 1.415 . S
C2616 C2621 1.425 . S
C2616 C2623 1.409 . S
C2617 H2609 0.930 . S
C2617 C2615 1.419 . S
C2617 C2618 1.362 . S
C2618 H2610 0.930 . S
C2618 C2617 1.362 . S
C2618 C2621 1.409 . S
C2619 H2611 0.930 . S
C2619 C2620 1.355 . S
C2619 C2621 1.415 . S
C2620 C2619 1.355 . S
C2620 C2622 1.419 . S
C2621 C2616 1.425 . S
C2621 C2618 1.409 . S
C2621 C2619 1.415 . S
C2622 H2612 0.930 . S
C2622 C2620 1.419 . S
C2622 C2623 1.362 . S
C2623 H2613 0.930 . S
C2623 C2616 1.409 . S
C2623 C2622 1.362 . S
H2624 C2630 0.930 . S
H2625 C2633 0.930 . S
H2626 C2634 0.930 . S
H2627 C2635 0.930 . S
H2628 C2638 0.930 . S
H2629 C2639 0.930 . S
C2630 H2624 0.930 . S
C2630 C2631 1.355 . S
C2630 C2632 1.415 . S
C2631 C2630 1.355 . S
C2631 C2633 1.419 . S
C2632 C2630 1.415 . S
C2632 C2637 1.425 . S
C2632 C2639 1.409 . S
C2633 H2625 0.930 . S
C2633 C2631 1.419 . S
C2633 C2634 1.362 . S
C2634 H2626 0.930 . S
C2634 C2633 1.362 . S
C2634 C2637 1.409 . S
C2635 H2627 0.930 . S
C2635 C2636 1.355 . S
C2635 C2637 1.415 . S
C2636 C2635 1.355 . S
C2636 C2638 1.419 . S
C2637 C2632 1.425 . S
C2637 C2634 1.409 . S
C2637 C2635 1.415 . S
C2638 H2628 0.930 . S
C2638 C2636 1.419 . S
C2638 C2639 1.362 . S
C2639 H2629 0.930 . S
C2639 C2632 1.409 . S
C2639 C2638 1.362 . S
H2640 C2646 0.930 . S
H2641 C2649 0.930 . S
H2642 C2650 0.930 . S
H2643 C2651 0.930 . S
H2644 C2654 0.930 . S
H2645 C2655 0.930 . S
C2646 H2640 0.930 . S
C2646 C2647 1.355 . S
C2646 C2648 1.415 . S
C2647 C2646 1.355 . S
C2647 C2649 1.419 . S
C2648 C2646 1.415 . S
C2648 C2653 1.425 . S
C2648 C2655 1.409 . S
C2649 H2641 0.930 . S
C2649 C2647 1.419 . S
C2649 C2650 1.362 . S
C2650 H2642 0.930 . S
C2650 C2649 1.362 . S
C2650 C2653 1.409 . S
C2651 H2643 0.930 . S
C2651 C2652 1.355 . S
C2651 C2653 1.415 . S
C2652 C2651 1.355 . S
C2652 C2654 1.419 . S
C2653 C2648 1.425 . S
C2653 C2650 1.409 . S
C2653 C2651 1.415 . S
C2654 H2644 0.930 . S
C2654 C2652 1.419 . S
C2654 C2655 1.362 . S
C2655 H2645 0.930 . S
C2655 C2648 1.409 . S
C2655 C2654 1.362 . S
H2656 C2662 0.934 . S
H2657 C2665 0.930 . S
H2658 C2666 0.930 . S
H2659 C2667 0.930 . S
H2660 C2670 0.930 . S
H2661 C2671 0.930 . S
C2662 H2656 0.934 . S
C2662 C2663 1.355 1_554 S
C2662 C2664 1.415 . S
C2663 C2662 1.355 1_556 S
C2663 C2665 1.419 . S
C2664 C2662 1.415 . S
C2664 C2669 1.425 . S
C2664 C2671 1.409 . S
C2665 H2657 0.930 . S
C2665 C2663 1.419 . S
C2665 C2666 1.362 1_556 S
C2666 H2658 0.930 . S
C2666 C2665 1.362 1_554 S
C2666 C2669 1.409 . S
C2667 H2659 0.930 . S
C2667 C2668 1.355 . S
C2667 C2669 1.415 . S
C2668 C2667 1.355 . S
C2668 C2670 1.419 . S
C2669 C2664 1.425 . S
C2669 C2666 1.409 . S
C2669 C2667 1.415 . S
C2670 H2660 0.930 . S
C2670 C2668 1.419 . S
C2670 C2671 1.362 . S
C2671 H2661 0.930 . S
C2671 C2664 1.409 . S
C2671 C2670 1.362 . S
H2672 C2678 0.930 . S
H2673 C2681 0.930 . S
H2674 C2682 0.930 . S
H2675 C2683 0.930 . S
H2676 C2686 0.930 . S
H2677 C2687 0.930 . S
C2678 H2672 0.930 . S
C2678 C2679 1.355 . S
C2678 C2680 1.415 . S
C2679 C2678 1.355 . S
C2679 C2681 1.419 . S
C2680 C2678 1.415 . S
C2680 C2685 1.425 . S
C2680 C2687 1.409 . S
C2681 H2673 0.930 . S
C2681 C2679 1.419 . S
C2681 C2682 1.362 . S
C2682 H2674 0.930 . S
C2682 C2681 1.362 . S
C2682 C2685 1.409 . S
C2683 H2675 0.930 . S
C2683 C2684 1.355 . S
C2683 C2685 1.415 . S
C2684 C2683 1.355 . S
C2684 C2686 1.419 . S
C2685 C2680 1.425 . S
C2685 C2682 1.409 . S
C2685 C2683 1.415 . S
C2686 H2676 0.930 . S
C2686 C2684 1.419 . S
C2686 C2687 1.362 . S
C2687 H2677 0.930 . S
C2687 C2680 1.409 . S
C2687 C2686 1.362 . S
H2688 C2694 0.930 . S
H2689 C2697 0.930 . S
H2690 C2698 0.930 . S
H2691 C2699 0.930 . S
H2692 C2702 0.930 . S
H2693 C2703 0.930 . S
C2694 H2688 0.930 . S
C2694 C2695 1.355 1_545 S
C2694 C2696 1.415 . S
C2695 C2694 1.355 1_565 S
C2695 C2697 1.419 . S
C2696 C2694 1.415 . S
C2696 C2701 1.425 1_545 S
C2696 C2703 1.409 . S
C2697 H2689 0.930 . S
C2697 C2695 1.419 . S
C2697 C2698 1.362 . S
C2698 H2690 0.930 . S
C2698 C2697 1.362 . S
C2698 C2701 1.409 . S
C2699 H2691 0.930 . S
C2699 C2700 1.355 1_565 S
C2699 C2701 1.415 . S
C2700 C2699 1.355 1_545 S
C2700 C2702 1.419 . S
C2701 C2696 1.425 1_565 S
C2701 C2698 1.409 . S
C2701 C2699 1.415 . S
C2702 H2692 0.930 . S
C2702 C2700 1.419 . S
C2702 C2703 1.362 . S
C2703 H2693 0.930 . S
C2703 C2696 1.409 . S
C2703 C2702 1.362 . S
H2704 C2710 0.930 . S
H2705 C2713 0.930 . S
H2706 C2714 0.930 . S
H2707 C2715 0.930 . S
H2708 C2718 0.930 . S
H2709 C2719 0.930 . S
C2710 H2704 0.930 . S
C2710 C2711 1.355 . S
C2710 C2712 1.415 . S
C2711 C2710 1.355 . S
C2711 C2713 1.419 . S
C2712 C2710 1.415 . S
C2712 C2717 1.425 . S
C2712 C2719 1.409 . S
C2713 H2705 0.930 . S
C2713 C2711 1.419 . S
C2713 C2714 1.362 . S
C2714 H2706 0.930 . S
C2714 C2713 1.362 . S
C2714 C2717 1.409 . S
C2715 H2707 0.930 . S
C2715 C2716 1.355 . S
C2715 C2717 1.415 . S
C2716 C2715 1.355 . S
C2716 C2718 1.419 . S
C2717 C2712 1.425 . S
C2717 C2714 1.409 . S
C2717 C2715 1.415 . S
C2718 H2708 0.930 . S
C2718 C2716 1.419 . S
C2718 C2719 1.362 . S
C2719 H2709 0.930 . S
C2719 C2712 1.409 . S
C2719 C2718 1.362 . S
H2720 C2726 0.930 . S
H2721 C2729 0.930 . S
H2722 C2730 0.930 . S
H2723 C2731 0.930 . S
H2724 C2734 0.930 . S
H2725 C2735 0.930 . S
C2726 H2720 0.930 . S
C2726 C2727 1.355 . S
C2726 C2728 1.425 . S
C2727 C2726 1.355 . S
C2727 C2729 1.419 . S
C2728 C2726 1.425 . S
C2728 C2733 1.446 . S
C2728 C2735 1.381 1_545 S
C2729 H2721 0.930 . S
C2729 C2727 1.419 . S
C2729 C2730 1.362 . S
C2730 H2722 0.930 . S
C2730 C2729 1.362 . S
C2730 C2733 1.409 . S
C2731 H2723 0.930 . S
C2731 C2732 1.355 1_545 S
C2731 C2733 1.415 . S
C2732 C2731 1.355 1_565 S
C2732 C2734 1.419 . S
C2733 C2728 1.446 . S
C2733 C2730 1.409 . S
C2733 C2731 1.415 . S
C2734 H2724 0.930 . S
C2734 C2732 1.419 . S
C2734 C2735 1.362 . S
C2735 H2725 0.930 . S
C2735 C2728 1.381 1_565 S
C2735 C2734 1.362 . S
H2736 C2742 0.930 . S
H2737 C2745 0.930 . S
H2738 C2746 0.930 . S
H2739 C2747 0.930 . S
H2740 C2750 0.930 . S
H2741 C2751 0.930 . S
C2742 H2736 0.930 . S
C2742 C2743 1.355 . S
C2742 C2744 1.415 . S
C2743 C2742 1.355 . S
C2743 C2745 1.419 . S
C2744 C2742 1.415 . S
C2744 C2749 1.425 . S
C2744 C2751 1.409 . S
C2745 H2737 0.930 . S
C2745 C2743 1.419 . S
C2745 C2746 1.362 . S
C2746 H2738 0.930 . S
C2746 C2745 1.362 . S
C2746 C2749 1.409 . S
C2747 H2739 0.930 . S
C2747 C2748 1.355 . S
C2747 C2749 1.415 . S
C2748 C2747 1.355 . S
C2748 C2750 1.419 . S
C2749 C2744 1.425 . S
C2749 C2746 1.409 . S
C2749 C2747 1.415 . S
C2750 H2740 0.930 . S
C2750 C2748 1.419 . S
C2750 C2751 1.362 . S
C2751 H2741 0.930 . S
C2751 C2744 1.409 . S
C2751 C2750 1.362 . S
H2752 C2758 0.930 . S
H2753 C2761 0.930 . S
H2754 C2762 0.930 . S
H2755 C2763 0.930 . S
H2756 C2766 0.930 . S
H2757 C2767 0.930 . S
C2758 H2752 0.930 . S
C2758 C2759 1.355 . S
C2758 C2760 1.415 . S
C2759 C2758 1.355 . S
C2759 C2761 1.419 1_565 S
C2760 C2758 1.415 . S
C2760 C2765 1.425 1_565 S
C2760 C2767 1.409 . S
C2761 H2753 0.930 . S
C2761 C2759 1.419 1_545 S
C2761 C2762 1.362 . S
C2762 H2754 0.930 . S
C2762 C2761 1.362 . S
C2762 C2765 1.409 . S
C2763 H2755 0.930 . S
C2763 C2764 1.355 . S
C2763 C2765 1.415 . S
C2764 C2763 1.355 . S
C2764 C2766 1.419 1_544 S
C2765 C2760 1.425 1_545 S
C2765 C2762 1.409 . S
C2765 C2763 1.415 . S
C2766 H2756 0.930 . S
C2766 C2764 1.419 1_566 S
C2766 C2767 1.363 1_556 S
C2767 H2757 0.930 . S
C2767 C2760 1.409 . S
C2767 C2766 1.363 1_554 S
H2768 C2774 0.930 . S
H2769 C2777 0.930 . S
H2770 C2778 0.930 . S
H2771 C2779 0.930 . S
H2772 C2782 0.930 . S
H2773 C2783 0.930 . S
C2774 H2768 0.930 . S
C2774 C2775 1.355 . S
C2774 C2776 1.415 . S
C2775 C2774 1.355 . S
C2775 C2777 1.419 . S
C2776 C2774 1.415 . S
C2776 C2781 1.425 . S
C2776 C2783 1.409 . S
C2777 H2769 0.930 . S
C2777 C2775 1.419 . S
C2777 C2778 1.362 . S
C2778 H2770 0.930 . S
C2778 C2777 1.362 . S
C2778 C2781 1.409 . S
C2779 H2771 0.930 . S
C2779 C2780 1.355 . S
C2779 C2781 1.415 . S
C2780 C2779 1.355 . S
C2780 C2782 1.419 . S
C2781 C2776 1.425 . S
C2781 C2778 1.409 . S
C2781 C2779 1.415 . S
C2782 H2772 0.930 . S
C2782 C2780 1.419 . S
C2782 C2783 1.362 . S
C2783 H2773 0.930 . S
C2783 C2776 1.409 . S
C2783 C2782 1.362 . S
H2784 C2790 0.930 . S
H2785 C2793 0.930 . S
H2786 C2794 0.930 . S
H2787 C2795 0.930 . S
H2788 C2798 0.930 . S
H2789 C2799 0.930 . S
C2790 H2784 0.930 . S
C2790 C2791 1.355 . S
C2790 C2792 1.415 . S
C2791 C2790 1.355 . S
C2791 C2793 1.419 . S
C2792 C2790 1.415 . S
C2792 C2797 1.425 . S
C2792 C2799 1.409 . S
C2793 H2785 0.930 . S
C2793 C2791 1.419 . S
C2793 C2794 1.362 . S
C2794 H2786 0.930 . S
C2794 C2793 1.362 . S
C2794 C2797 1.409 . S
C2795 H2787 0.930 . S
C2795 C2796 1.355 . S
C2795 C2797 1.415 1_545 S
C2796 C2795 1.355 . S
C2796 C2798 1.419 . S
C2797 C2792 1.425 . S
C2797 C2794 1.409 . S
C2797 C2795 1.415 1_565 S
C2798 H2788 0.930 . S
C2798 C2796 1.419 . S
C2798 C2799 1.362 1_545 S
C2799 H2789 0.930 . S
C2799 C2792 1.409 . S
C2799 C2798 1.362 1_565 S
H2800 C2806 0.930 . S
H2801 C2809 0.930 . S
H2802 C2810 0.930 . S
H2803 C2811 0.930 . S
H2804 C2814 0.930 . S
H2805 C2815 0.930 . S
C2806 H2800 0.930 . S
C2806 C2807 1.355 . S
C2806 C2808 1.415 . S
C2807 C2806 1.355 . S
C2807 C2809 1.419 . S
C2808 C2806 1.415 . S
C2808 C2813 1.425 . S
C2808 C2815 1.409 . S
C2809 H2801 0.930 . S
C2809 C2807 1.419 . S
C2809 C2810 1.362 . S
C2810 H2802 0.930 . S
C2810 C2809 1.362 . S
C2810 C2813 1.409 . S
C2811 H2803 0.930 . S
C2811 C2812 1.355 . S
C2811 C2813 1.415 . S
C2812 C2811 1.355 . S
C2812 C2814 1.419 . S
C2813 C2808 1.425 . S
C2813 C2810 1.409 . S
C2813 C2811 1.415 . S
C2814 H2804 0.930 . S
C2814 C2812 1.419 . S
C2814 C2815 1.362 . S
C2815 H2805 0.930 . S
C2815 C2808 1.409 . S
C2815 C2814 1.362 . S
C1287 C2 0.423 . S
C1292 C176 0.237 . S
C1303 C216 0.380 . S
C1308 C42 0.340 . S
C1319 C82 0.214 . S
C1324 C256 0.407 . S
C1335 C296 0.166 . S
C1340 C136 0.368 . S
C1351 C331 0.349 . S
C1356 C487 0.246 1_554 S
C1367 C371 0.369 . S
C1372 C527 0.367 . S
C1383 C567 0.317 . S
C1388 C411 0.263 . S
C1399 C447 0.481 . S
C1404 C607 0.346 . S
C1415 C816 0.331 . S
C1420 C642 0.229 . S
C1431 C682 0.266 . S
C1436 C856 0.379 . S
C1447 C722 0.247 . S
C1452 C896 0.402 . S
C1463 C776 0.431 . S
C1468 C936 0.225 . S
C1479 C971 0.345 . S
C1484 C1127 0.246 . S
C1495 C1167 0.383 . S
C1500 C1011 0.264 . S
C1511 C1051 0.270 . S
C1516 C1207 0.389 . S
C1527 C1247 0.368 . S
C1532 C1087 0.480 . S
C1543 C850 2.011 . S
C1548 C19 1.980 . S
C1559 C890 1.468 . S
C1564 C59 1.443 . S
C1575 C930 2.140 . S
C1580 C99 2.130 . S
C1591 C130 1.435 . S
C1596 C810 1.492 . S
C1607 C170 1.492 . S
C1612 C770 1.442 . S
C1623 C659 1.962 . S
C1628 C210 2.008 . S
C1639 C250 1.519 . S
C1644 C699 1.511 . S
C1655 C290 2.135 . S
C1660 C739 2.125 . S
C1671 C330 1.951 . S
C1676 C1179 1.997 . S
C1687 C1219 1.467 . S
C1692 C370 1.448 . S
C1703 C1259 2.126 . S
C1708 C410 2.116 . S
C1719 C459 1.397 . S
C1724 C1139 1.456 . S
C1735 C499 1.490 . S
C1740 C1099 1.423 . S
C1751 C539 2.051 . S
C1756 C970 2.013 . S
C1767 C579 1.471 . S
C1772 C1010 1.444 . S
C1783 C619 2.151 . S
C1788 C1050 2.141 . S
C1799 C339 1.074 . S
C1804 C10 1.074 . S
C1815 C50 1.057 . S
C1820 C1019 1.057 . S
C1831 C419 0.874 . S
C1836 C90 0.874 . S
C1847 C139 1.007 . S
C1852 C1090 1.007 . S
C1863 C490 0.818 . S
C1868 C179 0.818 . S
C1879 C1170 0.984 . S
C1884 C219 0.984 . S
C1895 C259 0.842 . S
C1900 C570 0.842 . S
C1911 C299 0.866 . S
C1916 C1250 0.866 . S
C1927 C690 0.934 . S
C1932 C379 0.934 . S
C1943 C779 0.905 . S
C1948 C450 0.905 . S
C1959 C530 0.930 . S
C1964 C859 0.930 . S
C1975 C939 1.052 . S
C1980 C610 1.052 . S
C1991 C979 1.029 . S
C1996 C650 1.029 . S
C2007 C1059 0.888 . S
C2012 C730 0.888 . S
C2023 C1130 0.877 . S
C2028 C819 0.877 . S
C2039 C899 0.840 . S
C2044 C1210 0.840 . S
C2055 C11 2.232 1_556 S
C2060 C482 2.287 . S
C2071 C1162 1.979 . S
C2076 C51 1.919 . S
C2087 C562 2.260 . S
C2092 C91 2.199 . S
C2103 C127 1.294 . S
C2108 C1242 1.366 . S
C2119 C336 0.913 . S
C2124 C167 0.867 . S
C2135 C1016 1.067 . S
C2140 C207 1.005 . S
C2151 C416 0.823 . S
C2156 C247 0.740 . S
C2167 C1082 1.664 . S
C2172 C287 1.569 . S
C2183 C171 2.287 . S
C2188 C322 2.234 . S
C2199 C851 1.961 . S
C2204 C362 1.898 . S
C2215 C251 2.280 . S
C2220 C402 2.236 . S
C2231 C456 1.355 . S
C2236 C931 1.404 . S
C2247 C7 0.887 . S
C2252 C496 0.923 . S
C2263 C687 1.013 . S
C2268 C536 1.058 . S
C2279 C576 0.832 . S
C2284 C87 0.764 . S
C2295 C616 1.621 . S
C2300 C771 1.651 . S
C2311 C1122 2.287 . S
C2316 C651 2.226 . S
C2327 C522 1.964 . S
C2332 C691 1.896 . S
C2343 C731 2.202 . S
C2348 C1202 2.260 . S
C2359 C602 1.364 . S
C2364 C767 1.331 . S
C2375 C807 0.924 . S
C2380 C976 0.869 . S
C2391 C847 1.035 . S
C2396 C376 1.003 . S
C2407 C1056 0.783 . S
C2412 C887 0.855 . S
C2423 C442 1.658 . S
C2428 C927 1.572 . S
C2439 C962 2.209 . S
C2444 C811 2.246 1_556 S
C2455 C1002 1.900 . S
C2460 C211 1.971 . S
C2471 C1042 2.235 . S
C2476 C891 2.281 . S
C2487 C1096 1.304 . S
C2492 C291 1.398 . S
C2503 C647 0.886 . S
C2508 C1136 0.923 1_556 S
C2519 C47 1.032 . S
C2524 C1176 0.964 . S
C2535 C1216 0.765 . S
C2540 C727 0.764 . S
C2551 C131 1.673 . S
C2556 C1256 1.645 . S
C2567 C162 2.330 . S
C2572 C16 2.283 . S
C2583 C202 2.250 . S
C2588 C56 2.209 . S
C2599 C96 2.221 . S
C2604 C242 2.292 . S
C2615 C282 3.086 . S
C2620 C122 3.091 . S
C2631 C491 2.318 . S
C2636 C327 2.287 . S
C2647 C367 2.229 . S
C2652 C531 2.238 . S
C2663 C407 2.235 . S
C2668 C571 2.273 . S
C2679 C611 3.073 . S
C2684 C451 3.078 . S
C2695 C656 2.265 . S
C2700 C802 2.334 . S
C2711 C842 2.239 . S
C2716 C696 2.193 . S
C2727 C736 2.221 . S
C2732 C882 2.292 . S
C2743 C762 3.086 . S
C2748 C922 3.042 1_554 S
C2759 C1131 2.321 . S
C2764 C967 2.250 1_554 S
C2775 C1171 2.227 . S
C2780 C1007 2.205 . S
C2791 C1047 2.247 . S
C2796 C1211 2.272 . S
C2807 C1251 3.085 . S
C2812 C1091 3.093 . S
