# Generated by pormake.
# Topology zff, (5)-cn, num edge types: 1
# Building blocks:
#     Node 0, Type 0, BuildingBlock: XOMCOT_clean_sbu_1, # of connection points: 5
#     Node 1, Type 0, BuildingBlock: XOMCOT_clean_sbu_1, # of connection points: 5
#     Node 2, Type 0, BuildingBlock: XOMCOT_clean_sbu_1, # of connection points: 5
#     Node 3, Type 0, BuildingBlock: XOMCOT_clean_sbu_1, # of connection points: 5
#     Node 4, Type 0, BuildingBlock: XOMCOT_clean_sbu_1, # of connection points: 5
#     Node 5, Type 0, BuildingBlock: XOMCOT_clean_sbu_1, # of connection points: 5
#     Node 6, Type 0, BuildingBlock: XOMCOT_clean_sbu_1, # of connection points: 5
#     Node 7, Type 0, BuildingBlock: XOMCOT_clean_sbu_1, # of connection points: 5
#     Node 8, Type 0, BuildingBlock: XOMCOT_clean_sbu_1, # of connection points: 5
#     Node 9, Type 0, BuildingBlock: XOMCOT_clean_sbu_1, # of connection points: 5
#     Node 10, Type 0, BuildingBlock: XOMCOT_clean_sbu_1, # of connection points: 5
#     Node 11, Type 0, BuildingBlock: XOMCOT_clean_sbu_1, # of connection points: 5
#     Node 12, Type 0, BuildingBlock: XOMCOT_clean_sbu_1, # of connection points: 5
#     Node 13, Type 0, BuildingBlock: XOMCOT_clean_sbu_1, # of connection points: 5
#     Node 14, Type 0, BuildingBlock: XOMCOT_clean_sbu_1, # of connection points: 5
#     Node 15, Type 0, BuildingBlock: XOMCOT_clean_sbu_1, # of connection points: 5
#     Edge 16, Type (0, 0), BuildingBlock: EZIPEK_clean_linker_0, # of connection points: 2
#     Edge 17, Type (0, 0), BuildingBlock: EZIPEK_clean_linker_0, # of connection points: 2
#     Edge 18, Type (0, 0), BuildingBlock: EZIPEK_clean_linker_0, # of connection points: 2
#     Edge 19, Type (0, 0), BuildingBlock: EZIPEK_clean_linker_0, # of connection points: 2
#     Edge 20, Type (0, 0), BuildingBlock: EZIPEK_clean_linker_0, # of connection points: 2
#     Edge 21, Type (0, 0), BuildingBlock: EZIPEK_clean_linker_0, # of connection points: 2
#     Edge 22, Type (0, 0), BuildingBlock: EZIPEK_clean_linker_0, # of connection points: 2
#     Edge 23, Type (0, 0), BuildingBlock: EZIPEK_clean_linker_0, # of connection points: 2
#     Edge 24, Type (0, 0), BuildingBlock: EZIPEK_clean_linker_0, # of connection points: 2
#     Edge 25, Type (0, 0), BuildingBlock: EZIPEK_clean_linker_0, # of connection points: 2
#     Edge 26, Type (0, 0), BuildingBlock: EZIPEK_clean_linker_0, # of connection points: 2
#     Edge 27, Type (0, 0), BuildingBlock: EZIPEK_clean_linker_0, # of connection points: 2
#     Edge 28, Type (0, 0), BuildingBlock: EZIPEK_clean_linker_0, # of connection points: 2
#     Edge 29, Type (0, 0), BuildingBlock: EZIPEK_clean_linker_0, # of connection points: 2
#     Edge 30, Type (0, 0), BuildingBlock: EZIPEK_clean_linker_0, # of connection points: 2
#     Edge 31, Type (0, 0), BuildingBlock: EZIPEK_clean_linker_0, # of connection points: 2
#     Edge 32, Type (0, 0), BuildingBlock: EZIPEK_clean_linker_0, # of connection points: 2
#     Edge 33, Type (0, 0), BuildingBlock: EZIPEK_clean_linker_0, # of connection points: 2
#     Edge 34, Type (0, 0), BuildingBlock: EZIPEK_clean_linker_0, # of connection points: 2
#     Edge 35, Type (0, 0), BuildingBlock: EZIPEK_clean_linker_0, # of connection points: 2
#     Edge 36, Type (0, 0), BuildingBlock: EZIPEK_clean_linker_0, # of connection points: 2
#     Edge 37, Type (0, 0), BuildingBlock: EZIPEK_clean_linker_0, # of connection points: 2
#     Edge 38, Type (0, 0), BuildingBlock: EZIPEK_clean_linker_0, # of connection points: 2
#     Edge 39, Type (0, 0), BuildingBlock: EZIPEK_clean_linker_0, # of connection points: 2
#     Edge 40, Type (0, 0), BuildingBlock: EZIPEK_clean_linker_0, # of connection points: 2
#     Edge 41, Type (0, 0), BuildingBlock: EZIPEK_clean_linker_0, # of connection points: 2
#     Edge 42, Type (0, 0), BuildingBlock: EZIPEK_clean_linker_0, # of connection points: 2
#     Edge 43, Type (0, 0), BuildingBlock: EZIPEK_clean_linker_0, # of connection points: 2
#     Edge 44, Type (0, 0), BuildingBlock: EZIPEK_clean_linker_0, # of connection points: 2
#     Edge 45, Type (0, 0), BuildingBlock: EZIPEK_clean_linker_0, # of connection points: 2
#     Edge 46, Type (0, 0), BuildingBlock: EZIPEK_clean_linker_0, # of connection points: 2
#     Edge 47, Type (0, 0), BuildingBlock: EZIPEK_clean_linker_0, # of connection points: 2
#     Edge 48, Type (0, 0), BuildingBlock: EZIPEK_clean_linker_0, # of connection points: 2
#     Edge 49, Type (0, 0), BuildingBlock: EZIPEK_clean_linker_0, # of connection points: 2
#     Edge 50, Type (0, 0), BuildingBlock: EZIPEK_clean_linker_0, # of connection points: 2
#     Edge 51, Type (0, 0), BuildingBlock: EZIPEK_clean_linker_0, # of connection points: 2
#     Edge 52, Type (0, 0), BuildingBlock: EZIPEK_clean_linker_0, # of connection points: 2
#     Edge 53, Type (0, 0), BuildingBlock: EZIPEK_clean_linker_0, # of connection points: 2
#     Edge 54, Type (0, 0), BuildingBlock: EZIPEK_clean_linker_0, # of connection points: 2
#     Edge 55, Type (0, 0), BuildingBlock: EZIPEK_clean_linker_0, # of connection points: 2
# Relax obj value: 0.148
# Max RMSD: 0.189
# Mean RMSD: 0.189
data_MOF--net-zff--node1-XOMCOT_clean_sbu_1--edge1-EZIPEK_clean_linker_0
_symmetry_space_group_name_H-M    P1
_symmetry_Int_Tables_number       1
_symmetry_cell_setting            triclinic
loop_
_symmetry_equiv_pos_as_xyz
'x, y, z'
_cell_length_a     28.822234
_cell_length_b     28.928429
_cell_length_c     49.756046
_cell_angle_alpha  90.232336
_cell_angle_beta   90.267597
_cell_angle_gamma 90.338931
loop_
_atom_site_label
_atom_site_type_symbol
_atom_site_fract_x
_atom_site_fract_y
_atom_site_fract_z
_atom_type_partial_charge
C0 C 0.9297 0.26864 0.46583 0.0
C1 C 0.92722 0.26944 0.49348 0.0
N2 N 0.96805 0.28507 0.50309 0.0
N3 N 0.97225 0.283 0.45795 0.0
C4 C -0.00553 0.29364 0.4813 0.0
H5 H 0.90177 0.25884 0.45239 0.0
Co6 Co -0.00627 0.29182 0.42202 0.0
C7 C 0.06965 0.23142 0.44598 0.0
O8 O 0.04491 0.21584 0.46614 0.0
N9 N 0.01731 0.30126 0.38607 0.0
C10 C 0.04733 0.28617 0.34552 0.0
C11 C 0.02302 0.26831 0.36696 0.0
C12 C 0.03917 0.33898 0.37547 0.0
N13 N 0.05768 0.33058 0.35091 0.0
O14 O 0.01889 0.34951 0.43244 0.0
H15 H 0.01218 0.23264 0.36881 0.0
H16 H 0.04277 0.37185 0.3857 0.0
O17 O 0.05097 0.259 0.42924 0.0
C18 C 0.98245 0.37455 0.43212 0.0
O19 O 0.9419 0.35474 0.42785 0.0
N20 N 0.96152 0.23874 0.4111 0.0
C21 C 0.88714 0.17828 0.40415 0.0
C22 C 0.92845 0.163 0.41614 0.0
C23 C 0.96561 0.19405 0.4195 0.0
C24 C 0.92277 0.25282 0.39771 0.0
C25 C 0.88505 0.22325 0.39414 0.0
H26 H -0.004 0.18263 0.43006 0.0
H27 H 0.91984 0.28848 0.39152 0.0
H28 H 0.02966 0.30679 0.48235 0.0
H29 H 0.89779 0.25945 0.50563 0.0
H30 H 0.05743 0.2677 0.32753 0.0
H31 H 0.93116 0.12809 0.42375 0.0
H32 H 0.85378 0.2359 0.38458 0.0
C33 C 0.6442 0.92981 0.45359 0.0
C34 C 0.64528 0.9331 0.48103 0.0
N35 N 0.67652 0.96564 0.48825 0.0
N36 N 0.67294 0.9616 0.44276 0.0
C37 C 0.69322 0.98208 0.46456 0.0
H38 H 0.62228 0.90626 0.44239 0.0
Co39 Co 0.67321 0.97264 0.40482 0.0
C40 C 0.73916 0.04662 0.39442 0.0
O41 O 0.75563 0.01763 0.37653 0.0
N42 N 0.67 0.98434 0.36597 0.0
C43 C 0.67634 -0.01385 0.32105 0.0
C44 C 0.69291 0.96671 0.34456 0.0
C45 C 0.63948 0.01432 0.35437 0.0
N46 N 0.64189 0.01548 0.32723 0.0
O47 O 0.6131 -0.00278 0.40796 0.0
H48 H 0.72049 0.94171 0.34558 0.0
H49 H 0.615 0.03504 0.36547 0.0
O50 O 0.70481 0.03375 0.4091 0.0
C51 C 0.58893 0.96149 0.4018 0.0
O52 O 0.61037 0.92346 0.39452 0.0
N53 N 0.72929 0.94098 0.40296 0.0
C54 C 0.79805 0.87587 0.41136 0.0
C55 C 0.80184 0.91974 0.42302 0.0
C56 C 0.7669 0.95183 0.41869 0.0
C57 C 0.72487 0.89795 0.39194 0.0
C58 C 0.75943 0.86505 0.3954 0.0
H59 H 0.76914 0.98441 0.42921 0.0
H60 H 0.69339 0.88847 0.38133 0.0
H61 H 0.71924 0.00889 0.46322 0.0
H62 H 0.62413 0.91315 0.49473 0.0
H63 H 0.68777 0.97823 0.30086 0.0
H64 H 0.83113 0.92868 0.43579 0.0
H65 H 0.75544 0.83106 0.38643 0.0
C66 C 0.06233 0.65309 0.4632 0.0
C67 C 0.0646 0.65722 0.49088 0.0
N68 N 0.0217 0.66627 0.50004 0.0
N69 N 0.01816 0.65969 0.45499 0.0
C70 C -0.00574 0.6675 0.47797 0.0
H71 H 0.09078 0.64479 0.44996 0.0
Co72 Co -0.00783 0.65317 0.42003 0.0
C73 C 0.93479 0.73414 0.41271 0.0
O74 O 0.95341 0.73544 0.38864 0.0
N75 N 0.96105 0.64319 0.38532 0.0
C76 C 0.89517 0.62735 0.3628 0.0
C77 C 0.91402 0.64209 0.38646 0.0
C78 C 0.96954 0.62682 0.35991 0.0
N79 N 0.92959 0.61728 0.34588 0.0
O80 O 0.95694 0.60318 0.43324 0.0
H81 H 0.89388 0.64831 0.40431 0.0
H82 H 0.00375 0.61917 0.35236 0.0
O83 O 0.9457 0.70136 0.42888 0.0
C84 C 0.98587 0.57073 0.42905 0.0
O85 O 0.02603 0.58056 0.41796 0.0
N86 N 0.03319 0.69981 0.40748 0.0
C87 C 0.10391 0.76308 0.39642 0.0
C88 C 0.07505 0.7695 0.41846 0.0
C89 C 0.04011 0.73767 0.42364 0.0
C90 C 0.06217 0.69206 0.38632 0.0
C91 C 0.09743 0.72395 0.38005 0.0
H92 H 0.01891 0.74339 0.44117 0.0
H93 H 0.05924 0.66051 0.37484 0.0
H94 H 0.95712 0.67267 0.47865 0.0
H95 H 0.09514 0.65317 0.50338 0.0
H96 H 0.85858 0.62196 0.35873 0.0
H97 H 0.0793 0.79928 0.43155 0.0
H98 H 0.11974 0.71786 0.36296 0.0
C99 C 0.34406 0.01142 0.45035 0.0
C100 C 0.34382 0.01064 0.47777 0.0
N101 N 0.30759 -0.01509 0.48607 0.0
N102 N 0.30963 -0.01547 0.44054 0.0
C103 C 0.28689 0.96965 0.46288 0.0
H104 H 0.36874 0.03007 0.4382 0.0
Co105 Co 0.3077 0.97887 0.40263 0.0
C106 C 0.23251 0.91611 0.38592 0.0
O107 O 0.22583 0.9437 0.36538 0.0
N108 N 0.31007 0.97498 0.36377 0.0
C109 C 0.3198 -0.00742 0.32035 0.0
C110 C 0.30539 0.00862 0.34509 0.0
C111 C 0.32675 0.93857 0.3494 0.0
N112 N 0.33389 0.9487 0.32321 0.0
O113 O 0.35927 0.93838 0.40457 0.0
H114 H 0.29449 0.04355 0.34898 0.0
H115 H 0.33499 0.90553 0.35819 0.0
O116 O 0.26396 0.92585 0.4035 0.0
C117 C 0.39554 0.96145 0.3989 0.0
O118 O 0.39143 0.00454 0.39106 0.0
N119 N 0.25972 0.02197 0.4025 0.0
C120 C 0.20292 0.09609 0.41541 0.0
C121 C 0.18796 0.05083 0.42003 0.0
C122 C 0.2174 0.01418 0.41402 0.0
C123 C 0.27493 0.06608 0.39841 0.0
C124 C 0.24674 0.10375 0.40428 0.0
H125 H 0.2074 0.98025 0.42077 0.0
H126 H 0.31026 0.07211 0.39201 0.0
H127 H 0.25591 0.94836 0.46217 0.0
H128 H 0.36856 0.02813 0.49079 0.0
H129 H 0.32208 0.01236 0.30198 0.0
H130 H 0.15485 0.04408 0.42951 0.0
H131 H 0.2597 0.13856 0.40126 0.0
C132 C 0.91733 0.69716 0.64401 0.0
C133 C 0.91999 0.69829 0.61636 0.0
N134 N 0.96379 0.68853 0.6093 0.0
N135 N 0.95938 0.68676 0.65448 0.0
C136 C -0.01307 0.68168 0.63261 0.0
H137 H 0.88608 0.70196 0.65555 0.0
Co138 Co 0.97495 0.67592 0.69136 0.0
C139 C 0.07252 0.70426 0.67971 0.0
O140 O 0.08549 0.66323 0.67133 0.0
N141 N -0.00714 0.66562 0.72786 0.0
C142 C 0.03571 0.67664 0.76471 0.0
C143 C 0.01601 0.69742 0.74271 0.0
C144 C -0.00238 0.62578 0.74211 0.0
N145 N 0.02438 0.63137 0.76456 0.0
O146 O 0.00313 0.61988 0.68173 0.0
H147 H 0.02133 0.73304 0.73691 0.0
H148 H 0.98437 0.59271 0.7353 0.0
O149 O 0.03083 0.7113 0.68687 0.0
C150 C 0.97001 0.59189 0.6764 0.0
O151 O 0.92733 0.60758 0.67546 0.0
N152 N 0.94165 0.72812 0.70118 0.0
C153 C 0.87294 0.79485 0.70242 0.0
C154 C 0.91909 0.80728 0.69706 0.0
C155 C 0.95314 0.77312 0.69635 0.0
C156 C 0.89791 0.71626 0.7089 0.0
C157 C 0.86267 0.74904 0.70921 0.0
H158 H -0.01224 0.78266 0.69056 0.0
H159 H 0.88949 0.68029 0.71237 0.0
H160 H 0.02292 0.67166 0.63356 0.0
H161 H 0.89171 0.70443 0.60246 0.0
H162 H 0.05841 0.69331 0.77925 0.0
H163 H 0.92814 0.84259 0.69202 0.0
H164 H 0.82739 0.73839 0.71351 0.0
C165 C 0.31469 0.91446 0.63772 0.0
C166 C 0.31467 0.91153 0.61016 0.0
N167 N 0.30364 0.9531 0.59989 0.0
N168 N 0.30521 0.95811 0.64552 0.0
C169 C 0.29909 0.98094 0.62188 0.0
H170 H 0.32171 0.88629 0.65134 0.0
Co171 Co 0.30756 0.97624 0.68303 0.0
C172 C 0.23924 0.05327 0.66446 0.0
O173 O 0.22184 0.03591 0.64221 0.0
N174 N 0.31256 -0.00441 0.72037 0.0
C175 C 0.29461 0.03183 0.75872 0.0
C176 C 0.27732 0.011 0.73575 0.0
C177 C 0.35115 0.00711 0.73506 0.0
N178 N 0.34125 0.02972 0.75834 0.0
O179 O 0.36375 0.00729 0.67608 0.0
H180 H 0.2412 0.00944 0.73004 0.0
H181 H 0.38618 0.00208 0.72816 0.0
O182 O 0.26983 0.03164 0.67807 0.0
C183 C 0.39233 0.97374 0.67677 0.0
O184 O 0.37643 0.93233 0.68265 0.0
N185 N 0.254 0.9398 0.68986 0.0
C186 C 0.19178 0.86539 0.69123 0.0
C187 C 0.19074 0.89716 0.67016 0.0
C188 C 0.22094 0.93465 0.67029 0.0
C189 C 0.25488 0.9098 0.71101 0.0
C190 C 0.22276 0.87337 0.71263 0.0
H191 H 0.22029 0.95669 0.65306 0.0
H192 H 0.28218 0.91214 0.72592 0.0
H193 H 0.29283 0.01756 0.62068 0.0
H194 H 0.32197 0.88077 0.5985 0.0
H195 H 0.27443 0.04894 0.77409 0.0
H196 H 0.16772 0.8922 0.6531 0.0
H197 H 0.22443 0.84966 0.7294 0.0
C198 C 0.06977 0.30691 0.64819 0.0
C199 C 0.06782 0.30368 0.62059 0.0
N200 N 0.02294 0.30288 0.61313 0.0
N201 N 0.02626 0.30742 0.65814 0.0
C202 C -0.00165 0.3055 0.63616 0.0
H203 H 0.10097 0.30874 0.66032 0.0
Co204 Co 0.01172 0.31362 0.69495 0.0
C205 C 0.93745 0.24174 0.70052 0.0
O206 O 0.96322 0.21744 0.71689 0.0
N207 N -0.00353 0.32222 0.73255 0.0
C208 C 0.97013 0.30782 0.77378 0.0
C209 C -0.00662 0.29008 0.75206 0.0
C210 C 0.97852 0.36072 0.74443 0.0
N211 N 0.96092 0.35279 0.76936 0.0
O212 O 0.98024 0.3677 0.68638 0.0
H213 H 0.00611 0.25521 0.75073 0.0
H214 H 0.97697 0.39394 0.73462 0.0
O215 O 0.95306 0.27892 0.68991 0.0
C216 C 0.00771 0.40059 0.68073 0.0
O217 O 0.05221 0.39494 0.68554 0.0
N218 N 0.04706 0.26065 0.70194 0.0
C219 C 0.11801 0.19617 0.69977 0.0
C220 C 0.07751 0.18957 0.68472 0.0
C221 C 0.04272 0.22252 0.68575 0.0
C222 C 0.08584 0.26687 0.71742 0.0
C223 C 0.12181 0.23457 0.71687 0.0
H224 H 0.01391 0.21917 0.6719 0.0
H225 H 0.09027 0.2985 0.72884 0.0
H226 H 0.96087 0.30657 0.63694 0.0
H227 H 0.09699 0.30206 0.60699 0.0
H228 H 0.95957 0.28821 0.79121 0.0
H229 H 0.074 0.16046 0.67106 0.0
H230 H 0.15309 0.24062 0.72853 0.0
C231 C 0.66282 0.06344 0.63386 0.0
C232 C 0.6649 0.06116 0.60637 0.0
N233 N 0.68432 0.02072 0.59915 0.0
N234 N 0.67932 0.02402 0.64445 0.0
C235 C 0.69318 -0.00107 0.62283 0.0
H236 H 0.64776 0.09124 0.64543 0.0
Co237 Co 0.67015 0.0106 0.68125 0.0
C238 C 0.74626 0.94569 0.69464 0.0
O239 O 0.76133 0.97463 0.71304 0.0
N240 N 0.65799 -0.00289 0.71912 0.0
C241 C 0.6664 0.98373 0.76315 0.0
C242 C 0.68473 0.00556 0.74103 0.0
C243 C 0.62144 0.97292 0.72953 0.0
N244 N 0.62594 0.96339 0.75616 0.0
O245 O 0.61946 0.97337 0.67115 0.0
H246 H 0.71651 0.02549 0.7412 0.0
H247 H 0.59195 0.96166 0.71785 0.0
O248 O 0.71159 0.95607 0.67961 0.0
C249 C 0.58495 -0.00012 0.66771 0.0
O250 O 0.58969 0.04379 0.67408 0.0
N251 N 0.71795 0.05202 0.68951 0.0
C252 C 0.77857 0.127 0.69279 0.0
C253 C 0.79207 0.08598 0.68011 0.0
C254 C 0.7606 0.04956 0.67775 0.0
C255 C 0.70385 0.09198 0.70148 0.0
C256 C 0.73357 0.13021 0.70317 0.0
H257 H 0.76996 0.02008 0.66563 0.0
H258 H 0.66864 0.09478 0.70871 0.0
H259 H 0.70724 0.96449 0.62432 0.0
H260 H 0.65172 0.0869 0.59261 0.0
H261 H 0.68213 0.98266 0.78294 0.0
H262 H 0.8261 0.08286 0.67115 0.0
H263 H 0.72161 0.16196 0.71235 0.0
C264 C 0.40353 0.79796 0.94775 0.0
C265 C 0.4063 0.79468 0.97531 0.0
N266 N 0.45134 0.79601 0.98242 0.0
N267 N 0.44671 0.80075 0.93742 0.0
C268 C 0.47521 0.79991 0.95918 0.0
H269 H 0.37194 0.79885 0.93597 0.0
Co270 Co 0.46021 0.80943 0.90062 0.0
C271 C 0.53611 0.74153 0.892 0.0
O272 O 0.51164 0.71859 0.87409 0.0
N273 N 0.4746 0.82017 0.86299 0.0
C274 C 0.49778 0.80649 0.821 0.0
C275 C 0.47406 0.78915 0.84266 0.0
C276 C 0.49536 0.85798 0.85175 0.0
N277 N 0.51099 0.85042 0.82628 0.0
O278 O 0.49164 0.86328 0.91003 0.0
H279 H 0.45908 0.75492 0.84355 0.0
H280 H 0.50023 0.89033 0.86236 0.0
O281 O 0.5189 0.7761 0.90445 0.0
C282 C 0.46456 0.89573 0.9165 0.0
O283 O 0.41981 0.88974 0.91245 0.0
N284 N 0.42474 0.75655 0.89278 0.0
C285 C 0.35314 0.69138 0.89401 0.0
C286 C 0.39616 0.68196 0.90593 0.0
C287 C 0.43096 0.7156 0.9059 0.0
C288 C 0.38359 0.76576 0.88034 0.0
C289 C 0.34703 0.73381 0.88097 0.0
H290 H 0.46143 0.71002 0.91814 0.0
H291 H 0.37794 0.79951 0.87168 0.0
H292 H 0.51257 0.80319 0.95811 0.0
H293 H 0.37753 0.792 0.98914 0.0
H294 H 0.50588 0.78721 0.80296 0.0
H295 H 0.40173 0.64995 0.91668 0.0
H296 H 0.3139 0.74262 0.87205 0.0
C297 C 0.15004 0.41468 0.96348 0.0
C298 C 0.15161 0.41652 0.99096 0.0
N299 N 0.17086 0.45703 0.9987 0.0
N300 N 0.16633 0.45458 0.95317 0.0
C301 C 0.17973 0.47949 0.97519 0.0
H302 H 0.1364 0.38616 0.95174 0.0
Co303 Co 0.15903 0.46666 0.91563 0.0
C304 C 0.22987 0.53634 0.90255 0.0
O305 O 0.24593 0.50679 0.88491 0.0
N306 N 0.14866 0.4788 0.87724 0.0
C307 C 0.15613 0.48741 0.8327 0.0
C308 C 0.17409 0.46703 0.85544 0.0
C309 C 0.11394 0.50488 0.86636 0.0
N310 N 0.11796 0.51126 0.83944 0.0
O311 O 0.10395 0.49753 0.92352 0.0
H312 H 0.20528 0.44656 0.8558 0.0
H313 H 0.08644 0.52037 0.87792 0.0
O314 O 0.19588 0.5249 0.91782 0.0
C315 C 0.075 0.46406 0.92255 0.0
O316 O 0.08987 0.42277 0.9158 0.0
N317 N 0.21039 0.42969 0.90925 0.0
C318 C 0.27318 0.35758 0.91045 0.0
C319 C 0.28372 0.39946 0.92326 0.0
C320 C 0.2513 0.43493 0.92293 0.0
C321 C 0.19958 0.38875 0.89695 0.0
C322 C 0.23092 0.35227 0.89693 0.0
H323 H 0.25795 0.46555 0.93487 0.0
H324 H 0.16556 0.38376 0.88811 0.0
H325 H 0.19417 0.51392 0.97409 0.0
H326 H 0.13893 0.38996 1.00437 0.0
H327 H 0.17066 0.48551 0.8127 0.0
H328 H 0.31586 0.40388 0.93438 0.0
H329 H 0.22172 0.3198 0.88731 0.0
C330 C 0.56306 0.18761 0.95666 0.0
C331 C 0.56422 0.1872 0.98433 0.0
N332 N 0.52145 0.17674 0.99312 0.0
N333 N 0.51943 0.17855 0.94786 0.0
C334 C 0.49528 0.17052 0.97075 0.0
H335 H 0.59238 0.19416 0.94369 0.0
Co336 Co 0.50181 0.17252 0.91071 0.0
C337 C 0.42146 0.23255 0.93164 0.0
O338 O 0.43692 0.2404 0.95606 0.0
N339 N 0.4834 0.1645 0.87346 0.0
C340 C 0.45133 0.18039 0.83356 0.0
C341 C 0.47227 0.19868 0.8562 0.0
C342 C 0.46941 0.12533 0.86017 0.0
N343 N 0.44913 0.13411 0.83597 0.0
O344 O 0.47241 0.11621 0.9187 0.0
H345 H 0.47732 0.23505 0.8601 0.0
H346 H 0.47156 0.09102 0.86859 0.0
O347 O 0.44409 0.20741 0.91514 0.0
C348 C 0.50494 0.08716 0.92196 0.0
O349 O 0.5482 0.1018 0.92137 0.0
N350 N 0.53555 0.22691 0.90291 0.0
C351 C 0.60047 0.29817 0.8986 0.0
C352 C 0.56427 0.30116 0.91703 0.0
C353 C 0.53227 0.26529 0.91886 0.0
C354 C 0.57072 0.22339 0.88473 0.0
C355 C 0.6033 0.25916 0.8819 0.0
H356 H 0.50676 0.2674 0.93441 0.0
H357 H 0.57455 0.19201 0.87308 0.0
H358 H 0.45898 0.16085 0.97113 0.0
H359 H 0.59396 0.19448 0.99705 0.0
H360 H 0.43738 0.19984 0.81685 0.0
H361 H 0.56135 0.33071 0.93036 0.0
H362 H 0.63107 0.25591 0.86744 0.0
C363 C 0.81163 0.56794 0.96102 0.0
C364 C 0.80938 0.56433 0.98841 0.0
N365 N 0.78657 0.52506 0.99477 0.0
N366 N 0.79213 0.53027 0.94959 0.0
C367 C 0.77579 0.5053 0.97061 0.0
H368 H 0.8293 0.59499 0.95009 0.0
Co369 Co 0.80305 0.51722 0.91294 0.0
C370 C 0.72613 0.45459 0.89573 0.0
O371 O 0.71862 0.48121 0.87498 0.0
N372 N 0.81748 0.50455 0.87529 0.0
C373 C 0.81352 0.49567 0.83065 0.0
C374 C 0.79502 0.51767 0.85265 0.0
C375 C 0.85243 0.47769 0.86557 0.0
N376 N 0.85041 0.47076 0.83856 0.0
O377 O 0.84989 0.47657 0.92377 0.0
H378 H 0.76535 0.54029 0.85193 0.0
H379 H 0.87906 0.46291 0.87799 0.0
O380 O 0.75756 0.4654 0.91304 0.0
C381 C 0.88622 0.49965 0.92951 0.0
O382 O 0.88677 0.54416 0.92434 0.0
N383 N 0.75844 0.56082 0.90413 0.0
C384 C 0.6989 0.63557 0.89998 0.0
C385 C 0.68386 0.59418 0.91154 0.0
C386 C 0.7147 0.55788 0.91436 0.0
C387 C 0.77423 0.60128 0.89346 0.0
C388 C 0.74493 0.63944 0.89127 0.0
H389 H 0.70407 0.52829 0.92598 0.0
H390 H 0.81016 0.60433 0.88748 0.0
H391 H 0.75844 0.47224 0.96826 0.0
H392 H 0.82514 0.58811 1.00267 0.0
H393 H 0.80022 0.49757 0.8103 0.0
H394 H 0.649 0.59064 0.91937 0.0
H395 H 0.75799 0.67158 0.88307 0.0
C396 C 0.4121 0.1793 0.13627 0.0
C397 C 0.41625 0.18281 0.10882 0.0
N398 N 0.46108 0.17697 0.10247 0.0
N399 N 0.45427 0.17185 0.14739 0.0
C400 C 0.48352 0.17037 0.1261 0.0
H401 H 0.37991 0.1806 0.14727 0.0
Co402 Co 0.46598 0.15925 0.18424 0.0
C403 C 0.54189 0.22125 0.19934 0.0
O404 O 0.51872 0.23033 0.22141 0.0
N405 N 0.47888 0.14431 0.22143 0.0
C406 C 0.47591 0.13019 0.26563 0.0
C407 C 0.45324 0.14953 0.24399 0.0
C408 C 0.51729 0.12153 0.23031 0.0
N409 N 0.51621 0.11259 0.25702 0.0
O410 O 0.49393 0.10333 0.17435 0.0
H411 H 0.41985 0.16586 0.24523 0.0
H412 H 0.54548 0.11116 0.21737 0.0
O413 O 0.52507 0.19268 0.18217 0.0
C414 C 0.45936 0.07625 0.17099 0.0
O415 O 0.41721 0.09294 0.17316 0.0
N416 N 0.4316 0.21213 0.19328 0.0
C417 C 0.35918 0.27558 0.19198 0.0
C418 C 0.40415 0.28901 0.18455 0.0
C419 C 0.43992 0.25639 0.18488 0.0
C420 C 0.38807 0.19926 0.20101 0.0
C421 C 0.35158 0.23053 0.20093 0.0
H422 H 0.47277 0.26586 0.1762 0.0
H423 H 0.38062 0.16327 0.20499 0.0
H424 H 0.52026 0.16335 0.12778 0.0
H425 H 0.38839 0.18802 0.0945 0.0
H426 H 0.46361 0.12884 0.28614 0.0
H427 H 0.41073 0.32338 0.17685 0.0
H428 H 0.31701 0.21878 0.20611 0.0
C429 C 0.81521 0.42162 0.13893 0.0
C430 C 0.814 0.42468 0.11144 0.0
N431 N 0.78992 0.46261 0.10444 0.0
N432 N 0.79362 0.45831 0.14978 0.0
C433 C 0.77776 0.4823 0.12826 0.0
H434 H 0.83314 0.39543 0.15032 0.0
Co435 Co 0.79989 0.47133 0.18684 0.0
C436 C 0.72611 0.53541 0.20173 0.0
O437 O 0.71775 0.50729 0.22183 0.0
N438 N 0.80933 0.48488 0.22468 0.0
C439 C 0.81966 0.48142 0.26917 0.0
C440 C 0.80123 0.45931 0.24688 0.0
C441 C 0.83217 0.5228 0.23452 0.0
N442 N 0.83974 0.52131 0.26139 0.0
O443 O 0.85272 0.50839 0.17891 0.0
H444 H 0.78448 0.42591 0.24717 0.0
H445 H 0.84381 0.55089 0.22214 0.0
O446 O 0.75784 0.52517 0.18468 0.0
C447 C 0.88653 0.48034 0.18066 0.0
O448 O 0.87797 0.43756 0.18799 0.0
N449 N 0.75138 0.42884 0.1933 0.0
C450 C 0.69133 0.35272 0.19423 0.0
C451 C 0.67565 0.396 0.18577 0.0
C452 C 0.70665 0.43309 0.18443 0.0
C453 C 0.76745 0.38652 0.20084 0.0
C454 C 0.73806 0.34794 0.20146 0.0
H455 H 0.69478 0.46433 0.17522 0.0
H456 H 0.80387 0.38237 0.20552 0.0
H457 H 0.76005 0.51486 0.12993 0.0
H458 H 0.83096 0.40133 0.09761 0.0
H459 H 0.82054 0.46791 0.28942 0.0
H460 H 0.64014 0.40055 0.17909 0.0
H461 H 0.75175 0.31461 0.20722 0.0
C462 C 0.54921 0.77373 0.12949 0.0
C463 C 0.55083 0.77318 0.10181 0.0
N464 N 0.50964 0.7875 0.09239 0.0
N465 N 0.50684 0.78771 0.13773 0.0
C466 C 0.48383 0.79672 0.1144 0.0
H467 H 0.57757 0.76432 0.14254 0.0
Co468 Co 0.48515 0.79531 0.17387 0.0
C469 C 0.41587 0.72786 0.14995 0.0
O470 O 0.44479 0.71201 0.13187 0.0
N471 N 0.46255 0.80364 0.20977 0.0
C472 C 0.42711 0.78747 0.24852 0.0
C473 C 0.44834 0.76919 0.22615 0.0
C474 C 0.44985 0.84275 0.2231 0.0
N475 N 0.42767 0.83379 0.2465 0.0
O476 O 0.45307 0.84825 0.16294 0.0
H477 H 0.45059 0.73278 0.22146 0.0
H478 H 0.45537 0.87723 0.21559 0.0
O479 O 0.43051 0.75796 0.16677 0.0
C480 C 0.48168 0.88176 0.16322 0.0
O481 O 0.52482 0.87367 0.17041 0.0
N482 N 0.52097 0.74516 0.18523 0.0
C483 C 0.59099 0.68198 0.19514 0.0
C484 C 0.54669 0.6667 0.18748 0.0
C485 C 0.51184 0.69895 0.18274 0.0
C486 C 0.56278 0.76017 0.19491 0.0
C487 C 0.59868 0.72911 0.19971 0.0
H488 H 0.47829 0.68629 0.17675 0.0
H489 H 0.56919 0.79687 0.19711 0.0
H490 H 0.44836 0.80872 0.11353 0.0
H491 H 0.57985 0.76274 0.0895 0.0
H492 H 0.41045 0.76818 0.26442 0.0
H493 H 0.53962 0.63024 0.18435 0.0
H494 H 0.63254 0.74183 0.20586 0.0
C495 C 0.13123 0.53045 0.14719 0.0
C496 C 0.13198 0.5306 0.11967 0.0
N497 N 0.16547 0.5019 0.11124 0.0
N498 N 0.16279 0.50033 0.1568 0.0
C499 C 0.18426 0.48449 0.13426 0.0
H500 H 0.10803 0.55082 0.15929 0.0
Co501 Co 0.16692 0.48722 0.19452 0.0
C502 C 0.1986 0.39274 0.17711 0.0
O503 O 0.16062 0.38145 0.16389 0.0
N504 N 0.16959 0.47435 0.23263 0.0
C505 C 0.18453 0.47665 0.27684 0.0
C506 C 0.19522 0.49532 0.25207 0.0
C507 C 0.14364 0.4429 0.24644 0.0
N508 N 0.1521 0.44359 0.27324 0.0
O509 O 0.10901 0.45615 0.19231 0.0
H510 H 0.21982 0.52301 0.24877 0.0
H511 H 0.11855 0.41983 0.23716 0.0
O512 O 0.20223 0.43184 0.18871 0.0
C513 C 0.08035 0.4882 0.19777 0.0
O514 O 0.09713 0.52791 0.20649 0.0
N515 N 0.22054 0.52269 0.19598 0.0
C516 C 0.28495 0.59098 0.18415 0.0
C517 C 0.29755 0.54427 0.18289 0.0
C518 C 0.26442 0.51023 0.18873 0.0
C519 C 0.20901 0.56795 0.199 0.0
C520 C 0.24067 0.60275 0.19309 0.0
H521 H 0.27346 0.47442 0.18576 0.0
H522 H 0.17387 0.57705 0.2042 0.0
H523 H 0.21267 0.46034 0.13463 0.0
H524 H 0.10911 0.55014 0.10672 0.0
H525 H 0.19899 0.48697 0.29608 0.0
H526 H 0.33166 0.53433 0.17599 0.0
H527 H 0.22996 0.63855 0.1942 0.0
C528 C 0.004 0.49882 0.45401 0.0
C529 C 0.97605 0.522 0.4348 0.0
C530 C 0.95954 0.44926 0.41207 0.0
C531 C 0.98418 0.42535 0.43249 0.0
N532 N 0.02214 0.42649 0.47585 0.0
N533 N 0.91763 0.51831 0.40017 0.0
C534 C 0.00421 0.44979 0.45441 0.0
C535 C 0.95034 0.49677 0.41548 0.0
N536 N 0.03151 0.52371 0.47125 0.0
N537 N 0.94703 0.42721 0.38874 0.0
H538 H 0.90916 0.55288 0.40305 0.0
H539 H 0.89536 0.50075 0.38704 0.0
H540 H 0.95537 0.39289 0.38464 0.0
H541 H 0.93297 0.4443 0.37224 0.0
H542 H 0.05666 0.50884 0.48352 0.0
H543 H 0.0309 0.55969 0.47208 0.0
H544 H 0.03245 0.44272 0.49365 0.0
H545 H 0.02333 0.39056 0.47673 0.0
C546 C 0.51489 0.94271 0.37879 0.0
C547 C 0.53799 0.96038 0.40203 0.0
C548 C 0.46534 0.95661 0.42715 0.0
C549 C 0.44239 0.94363 0.40322 0.0
N550 N 0.44593 0.9054 0.36083 0.0
N551 N 0.53579 -0.01533 0.44864 0.0
C552 C 0.46747 0.93083 0.38038 0.0
C553 C 0.51347 0.96736 0.42645 0.0
N554 N 0.53765 0.93963 0.35482 0.0
N555 N 0.44092 0.95611 0.45056 0.0
H556 H 0.57101 -0.00737 0.44906 0.0
H557 H 0.5191 -0.00604 0.46632 0.0
H558 H 0.40697 0.94343 0.45106 0.0
H559 H 0.455 0.96299 0.46945 0.0
H560 H 0.52121 0.93147 0.33676 0.0
H561 H 0.5722 0.94925 0.3524 0.0
H562 H 0.46321 0.89048 0.34466 0.0
H563 H 0.41165 0.89449 0.36294 0.0
C564 C 0.02073 0.4757 0.65689 0.0
C565 C -0.0093 0.44611 0.67156 0.0
C566 C 0.94674 0.51139 0.6876 0.0
C567 C 0.97753 0.54184 0.67407 0.0
N568 N 0.03468 0.55263 0.63927 0.0
N569 N 0.9114 0.43588 0.68612 0.0
C570 C 0.01201 0.524 0.65667 0.0
C571 C 0.94909 0.46374 0.68215 0.0
N572 N 0.0569 0.45736 0.64286 0.0
N573 N 0.9168 0.52726 0.70671 0.0
H574 H 0.90975 0.40189 0.67921 0.0
H575 H 0.87932 0.44874 0.69208 0.0
H576 H 0.91649 0.56126 0.71367 0.0
H577 H 0.89574 0.50531 0.71787 0.0
H578 H 0.08371 0.47703 0.63475 0.0
H579 H 0.06001 0.42186 0.63955 0.0
H580 H 0.05719 0.54105 0.62443 0.0
H581 H 0.02789 0.58786 0.63799 0.0
C582 C 0.50774 0.01105 0.64632 0.0
C583 C 0.53805 0.98249 0.66129 0.0
C584 C 0.4739 0.95126 0.6863 0.0
C585 C 0.44242 0.9791 0.67151 0.0
N586 N 0.42893 0.02507 0.63164 0.0
N587 N 0.54532 0.90905 0.68349 0.0
C588 C 0.45904 0.00606 0.64968 0.0
C589 C 0.5197 0.94695 0.67719 0.0
N590 N 0.52576 0.04298 0.62908 0.0
N591 N 0.46155 0.9312 0.71002 0.0
H592 H 0.57816 0.90335 0.6755 0.0
H593 H 0.53097 0.8808 0.6935 0.0
H594 H 0.42949 0.93603 0.71913 0.0
H595 H 0.48581 0.91487 0.72225 0.0
H596 H 0.50612 0.06887 0.62012 0.0
H597 H 0.56105 0.04397 0.62445 0.0
H598 H 0.43957 0.04136 0.61407 0.0
H599 H 0.39318 0.02078 0.63281 0.0
C600 C 0.52254 0.95959 0.91331 0.0
C601 C 0.48232 0.94134 0.9254 0.0
C602 C 0.46308 0.01882 0.94177 0.0
C603 C 0.49584 0.03721 0.9234 0.0
N604 N 0.5507 0.02335 0.88742 0.0
N605 N 0.41841 0.95192 0.95588 0.0
C606 C 0.5241 0.00718 0.90805 0.0
C607 C 0.45378 0.97054 0.9412 0.0
N608 N 0.55986 0.93246 0.90771 0.0
N609 N 0.44257 0.04681 0.96037 0.0
H610 H 0.41482 0.91636 0.95872 0.0
H611 H 0.39254 0.97152 0.96487 0.0
H612 H 0.44943 0.08207 0.96174 0.0
H613 H 0.42191 0.03461 0.97594 0.0
H614 H 0.591 0.94618 0.90062 0.0
H615 H 0.56264 0.89849 0.91432 0.0
H616 H 0.5691 0.00131 0.87483 0.0
H617 H 0.54994 0.05749 0.88082 0.0
C618 C 0.96151 0.50213 0.95382 0.0
C619 C 0.93015 0.47753 0.93697 0.0
C620 C -0.00699 0.44538 0.91165 0.0
C621 C 0.02538 0.46992 0.92795 0.0
N622 N 0.04058 0.50931 0.97017 0.0
N623 N 0.91879 0.40701 0.91193 0.0
C624 C 0.00987 0.49464 0.95091 0.0
C625 C 0.94672 0.44258 0.92004 0.0
N626 N 0.94481 0.53297 0.97215 0.0
N627 N 0.00516 0.42765 0.88723 0.0
H628 H 0.88514 0.40277 0.91916 0.0
H629 H 0.93165 0.37903 0.90103 0.0
H630 H 0.03775 0.43264 0.87867 0.0
H631 H 0.98055 0.41355 0.87411 0.0
H632 H 0.96581 0.55606 0.98285 0.0
H633 H 0.90933 0.5359 0.97591 0.0
H634 H 0.03039 0.52421 0.98827 0.0
H635 H 0.07598 0.50249 0.96928 0.0
C636 C 0.43343 0.94931 0.1761 0.0
C637 C 0.46744 0.9301 0.15906 0.0
C638 C 0.49201 0.00816 0.14608 0.0
C639 C 0.46476 0.02617 0.16729 0.0
N640 N 0.41784 0.01192 0.20666 0.0
N641 N 0.52887 0.94075 0.12689 0.0
C642 C 0.43761 -0.00375 0.18343 0.0
C643 C 0.49654 0.9595 0.14362 0.0
N644 N 0.3971 0.92339 0.18526 0.0
N645 N 0.51223 0.03717 0.1279 0.0
H646 H 0.5306 0.90532 0.12315 0.0
H647 H 0.55495 0.95997 0.11767 0.0
H648 H 0.50973 0.07301 0.12907 0.0
H649 H 0.52826 0.02568 0.11041 0.0
H650 H 0.37 0.93752 0.19635 0.0
H651 H 0.39078 0.88953 0.1791 0.0
H652 H 0.40155 -0.01001 0.22031 0.0
H653 H 0.42264 0.04551 0.21391 0.0
C654 C 0.96463 0.46566 0.16179 0.0
C655 C 0.93553 0.49407 0.17758 0.0
C656 C -0.00064 0.51178 0.20761 0.0
C657 C 0.03008 0.48549 0.19135 0.0
N658 N 0.04272 0.44805 0.14802 0.0
N659 N 0.9317 0.56032 0.20652 0.0
C660 C 0.01318 0.46533 0.16693 0.0
C661 C 0.955 0.52254 0.19757 0.0
N662 N 0.94559 0.43873 0.14198 0.0
N663 N 0.01162 0.52515 0.23302 0.0
H664 H 0.90212 0.57193 0.19656 0.0
H665 H 0.94562 0.58342 0.22059 0.0
H666 H 0.04243 0.51479 0.24212 0.0
H667 H -0.01134 0.54168 0.246 0.0
H668 H 0.96367 0.41261 0.13214 0.0
H669 H 0.91093 0.44184 0.13619 0.0
H670 H 0.03179 0.43795 0.12888 0.0
H671 H 0.07856 0.44747 0.15005 0.0
C672 C 0.05846 0.39646 0.31906 0.0
C673 C 0.08274 0.36204 0.33334 0.0
C674 C 0.15328 0.38083 0.30749 0.0
C675 C 0.12921 0.41658 0.29399 0.0
N676 N 0.06313 0.46635 0.2924 0.0
N677 N 0.15544 0.32789 0.34533 0.0
C678 C 0.0829 0.42658 0.30132 0.0
C679 C 0.13091 0.35605 0.32869 0.0
N680 N 0.0115 0.39899 0.32153 0.0
N681 N 0.19724 0.37013 0.29966 0.0
H682 H 0.13988 0.31182 0.36167 0.0
H683 H 0.19133 0.32429 0.34469 0.0
H684 H 0.21457 0.38851 0.28473 0.0
H685 H 0.21528 0.34146 0.30662 0.0
H686 H -0.00879 0.41876 0.30881 0.0
H687 H -0.00745 0.37794 0.33449 0.0
H688 H 0.03177 0.47859 0.29974 0.0
H689 H 0.08093 0.48959 0.28018 0.0
C690 C 0.57892 0.11339 0.2914 0.0
C691 C 0.54998 0.08821 0.27339 0.0
C692 C 0.58261 0.01508 0.29025 0.0
C693 C 0.61116 0.04013 0.3088 0.0
N694 N 0.63596 0.11298 0.32764 0.0
N695 N 0.52038 0.01596 0.2568 0.0
C696 C 0.60905 0.08935 0.30951 0.0
C697 C 0.55127 0.03924 0.2729 0.0
N698 N 0.57768 0.16061 0.29076 0.0
N699 N 0.58486 0.96794 0.28962 0.0
H700 H 0.49712 0.03286 0.24415 0.0
H701 H 0.51586 0.9803 0.25665 0.0
H702 H 0.60193 0.94874 0.30425 0.0
H703 H 0.57083 0.94757 0.27432 0.0
H704 H 0.59965 0.18236 0.30163 0.0
H705 H 0.55523 0.17865 0.27815 0.0
H706 H 0.63422 0.14834 0.33118 0.0
H707 H 0.65994 0.09679 0.34 0.0
C708 C 0.90874 0.52839 0.29108 0.0
C709 C 0.87119 0.54974 0.2777 0.0
C710 C 0.89105 0.62198 0.30162 0.0
C711 C 0.92051 0.59734 0.31942 0.0
N712 N 0.95603 0.52508 0.3314 0.0
N713 N 0.82836 0.6192 0.26883 0.0
C714 C 0.92984 0.55016 0.31392 0.0
C715 C 0.86339 0.59757 0.28217 0.0
N716 N 0.92501 0.48763 0.28129 0.0
N717 N 0.88932 0.66895 0.30387 0.0
H718 H 0.80928 0.60299 0.25372 0.0
H719 H 0.81705 0.65239 0.27344 0.0
H720 H 0.90964 0.68693 0.31792 0.0
H721 H 0.87152 0.69006 0.29048 0.0
H722 H 0.95566 0.47323 0.28806 0.0
H723 H 0.91146 0.47205 0.26397 0.0
H724 H 0.95925 0.48931 0.32995 0.0
H725 H 0.97197 0.53958 0.34828 0.0
C726 C 0.35485 0.86328 0.26678 0.0
C727 C 0.40385 0.8659 0.2642 0.0
C728 C 0.40559 0.92786 0.29828 0.0
C729 C 0.35754 0.9209 0.30322 0.0
N730 N 0.28668 0.88007 0.29371 0.0
N731 N 0.4767 0.89724 0.27927 0.0
C732 C 0.33228 0.88791 0.2879 0.0
C733 C 0.42942 0.89766 0.28026 0.0
N734 N 0.32984 0.83884 0.24816 0.0
N735 N 0.42831 0.96357 0.31075 0.0
H736 H 0.49501 0.87535 0.2665 0.0
H737 H 0.49774 0.91604 0.29241 0.0
H738 H 0.41254 0.98447 0.32513 0.0
H739 H 0.46183 0.97401 0.30578 0.0
H740 H 0.29375 0.83825 0.24738 0.0
H741 H 0.34552 0.82304 0.2317 0.0
H742 H 0.26721 0.85325 0.28526 0.0
H743 H 0.26917 0.89876 0.30847 0.0
C744 C 0.07756 0.52286 0.79529 0.0
C745 C 0.0894 0.53932 0.82146 0.0
C746 C 0.04421 0.60908 0.81152 0.0
C747 C 0.04185 0.59738 0.78376 0.0
N748 N 0.06749 0.54481 0.74886 0.0
N749 N 0.09187 0.6056 0.85139 0.0
C750 C 0.06125 0.55449 0.77544 0.0
C751 C 0.07463 0.58443 0.8289 0.0
N752 N 0.08066 0.47689 0.78946 0.0
N753 N 0.01694 0.64343 0.82146 0.0
H754 H 0.11802 0.59143 0.86319 0.0
H755 H 0.08446 0.63987 0.85622 0.0
H756 H -0.00785 0.66005 0.80965 0.0
H757 H 0.01513 0.65106 0.84193 0.0
H758 H 0.06912 0.46288 0.77126 0.0
H759 H 0.0891 0.45244 0.80401 0.0
H760 H 0.08464 0.51525 0.74226 0.0
H761 H 0.06119 0.5686 0.73367 0.0
C762 C 0.43731 0.10474 0.7892 0.0
C763 C 0.42613 0.10259 0.81697 0.0
C764 C 0.3671 0.0433 0.80575 0.0
C765 C 0.37273 0.05168 0.7778 0.0
N766 N 0.40838 0.09874 0.74355 0.0
N767 N 0.37304 0.07499 0.85079 0.0
C768 C 0.40686 0.08441 0.76962 0.0
C769 C 0.38926 0.07292 0.8251 0.0
N770 N 0.47759 0.12576 0.78152 0.0
N771 N 0.34111 0.00638 0.81384 0.0
H772 H 0.38595 0.09812 0.86509 0.0
H773 H 0.34343 0.05727 0.85702 0.0
H774 H 0.32606 0.9832 0.8002 0.0
H775 H 0.33897 -0.00395 0.83385 0.0
H776 H 0.48965 0.12501 0.76181 0.0
H777 H 0.50129 0.13929 0.79543 0.0
H778 H 0.42979 0.12561 0.73711 0.0
H779 H 0.38468 0.08765 0.729 0.0
C780 C 0.889 0.45404 0.79438 0.0
C781 C 0.88017 0.442 0.82158 0.0
C782 C 0.93441 0.3777 0.81543 0.0
C783 C 0.93486 0.384 0.78701 0.0
N784 N 0.89245 0.41977 0.75044 0.0
N785 N 0.88291 0.37884 0.85342 0.0
C786 C 0.90667 0.41997 0.77656 0.0
C787 C 0.89958 0.3999 0.831 0.0
N788 N 0.8823 0.49793 0.78543 0.0
N789 N 0.9677 0.35224 0.82792 0.0
H790 H 0.85334 0.39022 0.86336 0.0
H791 H 0.89459 0.34644 0.85952 0.0
H792 H -0.00218 0.34188 0.81813 0.0
H793 H 0.96806 0.34706 0.84865 0.0
H794 H 0.89041 0.50757 0.76582 0.0
H795 H 0.87516 0.52533 0.79841 0.0
H796 H 0.8686 0.44385 0.74333 0.0
H797 H 0.89773 0.39172 0.73765 0.0
C798 C 0.57022 0.91424 0.81896 0.0
C799 C 0.53828 0.88078 0.8086 0.0
C800 C 0.57115 0.89632 0.76388 0.0
C801 C 0.59522 0.93617 0.77354 0.0
N802 N 0.60231 -0.00997 0.81072 0.0
N803 N 0.49948 0.85362 0.76809 0.0
C804 C 0.58999 0.94746 0.80123 0.0
C805 C 0.53591 0.87592 0.78007 0.0
N806 N 0.58544 0.91237 0.84487 0.0
N807 N 0.58357 0.87563 0.74038 0.0
H808 H 0.46936 0.84517 0.77855 0.0
H809 H 0.49695 0.84927 0.74733 0.0
H810 H 0.61285 0.88561 0.72962 0.0
H811 H 0.56857 0.84458 0.73392 0.0
H812 H 0.61107 0.93482 0.85216 0.0
H813 H 0.5785 0.88436 0.85733 0.0
H814 H 0.59718 -0.00036 0.8307 0.0
H815 H 0.61147 0.01714 0.79803 0.0
C816 C 0.12772 0.20281 0.41198 0.0
C817 C 0.11444 0.20792 0.43924 0.0
C818 C 0.17053 0.14769 0.45144 0.0
C819 C 0.17396 0.13565 0.42379 0.0
N820 N 0.15274 0.1496 0.37756 0.0
N821 N 0.13238 0.19374 0.48578 0.0
C822 C 0.15178 0.16266 0.40398 0.0
C823 C 0.13888 0.18293 0.45932 0.0
N824 N 0.12064 0.23758 0.39408 0.0
N825 N 0.19831 0.12619 0.46986 0.0
H826 H 0.11546 0.22386 0.49176 0.0
H827 H 0.14389 0.17357 0.50171 0.0
H828 H 0.22198 0.10058 0.46462 0.0
H829 H 0.20035 0.13541 0.49006 0.0
H830 H 0.13163 0.23575 0.3742 0.0
H831 H 0.11139 0.27072 0.40022 0.0
H832 H 0.13267 0.16554 0.36282 0.0
H833 H 0.17024 0.12036 0.37076 0.0
C834 C 0.8303 0.13241 0.37671 0.0
C835 C 0.84533 0.14808 0.40228 0.0
C836 C 0.77909 0.10842 0.42346 0.0
C837 C 0.76556 0.09103 0.3978 0.0
N838 N 0.76704 0.10213 0.34985 0.0
N839 N 0.82872 0.16078 0.44918 0.0
C840 C 0.78751 0.1085 0.37441 0.0
C841 C 0.81814 0.13894 0.42548 0.0
N842 N 0.858 0.13831 0.35472 0.0
N843 N 0.75517 0.09567 0.44583 0.0
H844 H 0.85704 0.18307 0.4514 0.0
H845 H 0.80782 0.15955 0.46616 0.0
H846 H 0.72188 0.08178 0.44485 0.0
H847 H 0.76767 0.10006 0.46534 0.0
H848 H 0.85104 0.12304 0.33613 0.0
H849 H 0.89021 0.15489 0.35559 0.0
H850 H 0.77882 0.11786 0.33234 0.0
H851 H 0.73543 0.08489 0.34759 0.0
C852 C 0.85798 0.76405 0.43062 0.0
C853 C 0.90296 0.77238 0.41996 0.0
C854 C 0.87925 0.84908 0.40491 0.0
C855 C 0.83474 0.8413 0.41578 0.0
N856 N 0.78542 0.79758 0.44546 0.0
N857 N 0.96006 0.82939 0.40684 0.0
C858 C 0.82526 0.80071 0.43077 0.0
C859 C 0.91473 0.81716 0.41043 0.0
N860 N 0.84539 0.72106 0.43928 0.0
N861 N 0.88726 0.88559 0.38814 0.0
H862 H -0.01289 0.80741 0.41171 0.0
H863 H 0.97073 0.86289 0.40218 0.0
H864 H 0.86183 0.90942 0.38283 0.0
H865 H 0.91797 0.88963 0.37739 0.0
H866 H 0.81122 0.71189 0.44357 0.0
H867 H 0.86836 0.69372 0.44111 0.0
H868 H 0.77879 0.77085 0.4589 0.0
H869 H 0.76097 0.82401 0.44615 0.0
C870 C 0.12258 0.84331 0.3823 0.0
C871 C 0.13881 0.79952 0.39048 0.0
C872 C 0.21806 0.83071 0.39354 0.0
C873 C 0.20055 0.87591 0.38902 0.0
N874 N 0.1336 0.92579 0.38483 0.0
N875 N 0.20088 0.75219 0.40746 0.0
C876 C 0.1521 0.88237 0.38487 0.0
C877 C 0.18631 0.79329 0.39706 0.0
N878 N 0.07879 0.84752 0.37192 0.0
N879 N 0.26478 0.82296 0.39324 0.0
H880 H 0.17885 0.72377 0.40979 0.0
H881 H 0.23392 0.74745 0.41553 0.0
H882 H 0.28924 0.84897 0.38999 0.0
H883 H 0.27908 0.78998 0.39366 0.0
H884 H 0.06667 0.8778 0.36313 0.0
H885 H 0.05624 0.8194 0.36958 0.0
H886 H 0.09802 0.93193 0.3848 0.0
H887 H 0.15317 0.9557 0.38783 0.0
C888 C 0.11453 0.82753 0.68231 0.0
C889 C 0.16193 0.82309 0.68956 0.0
C890 C 0.15075 0.73914 0.69221 0.0
C891 C 0.10562 0.74373 0.68098 0.0
N892 N 0.05306 0.79275 0.65622 0.0
N893 N 0.22798 0.77176 0.69314 0.0
C894 C 0.08999 0.78809 0.67324 0.0
C895 C 0.18109 0.77805 0.69217 0.0
N896 N 0.09238 0.86892 0.68468 0.0
N897 N 0.16438 0.6988 0.70391 0.0
H898 H 0.25182 0.79867 0.69094 0.0
H899 H 0.24299 0.73905 0.69283 0.0
H900 H 0.14266 0.67012 0.70582 0.0
H901 H 0.19571 0.69581 0.71431 0.0
H902 H 0.05684 0.87236 0.68123 0.0
H903 H 0.10831 0.89815 0.69302 0.0
H904 H 0.04289 0.82469 0.6486 0.0
H905 H 0.0361 0.76442 0.64756 0.0
C906 C 0.17836 0.08205 0.69604 0.0
C907 C 0.21424 0.09184 0.67737 0.0
C908 C 0.19209 0.1734 0.67695 0.0
C909 C 0.15672 0.16343 0.6959 0.0
N910 N 0.12421 0.11215 0.72878 0.0
N911 N 0.26195 0.14744 0.6544 0.0
C912 C 0.1528 0.11898 0.70731 0.0
C913 C 0.22342 0.13788 0.66933 0.0
N914 N 0.16655 0.03736 0.7017 0.0
N915 N 0.1941 0.216 0.66521 0.0
H916 H 0.2851 0.12187 0.64832 0.0
H917 H 0.27301 0.18086 0.64995 0.0
H918 H 0.17247 0.24315 0.67076 0.0
H919 H 0.21535 0.22374 0.64896 0.0
H920 H 0.13718 0.0281 0.71259 0.0
H921 H 0.18414 0.00918 0.69381 0.0
H922 H 0.12313 0.08148 0.73966 0.0
H923 H 0.10495 0.13883 0.73734 0.0
C924 C 0.8274 0.18383 0.71935 0.0
C925 C 0.81169 0.1665 0.69415 0.0
C926 C 0.87364 0.209 0.67126 0.0
C927 C 0.8891 0.22606 0.69647 0.0
N928 N 0.87057 0.24423 0.74235 0.0
N929 N 0.80972 0.17541 0.64595 0.0
C930 C 0.86219 0.21854 0.71976 0.0
C931 C 0.83136 0.18362 0.66999 0.0
N932 N 0.81214 0.16495 0.74286 0.0
N933 N 0.90057 0.21411 0.64896 0.0
H934 H 0.77807 0.15781 0.64455 0.0
H935 H 0.82063 0.19014 0.62796 0.0
H936 H 0.93199 0.23203 0.64925 0.0
H937 H 0.89328 0.19776 0.63071 0.0
H938 H 0.82647 0.17344 0.76152 0.0
H939 H 0.78841 0.13772 0.74373 0.0
H940 H 0.84972 0.24267 0.75939 0.0
H941 H 0.89508 0.2709 0.74264 0.0
C942 C 0.82625 0.84835 0.67334 0.0
C943 C 0.83505 0.82906 0.69909 0.0
C944 C 0.77123 0.87429 0.71756 0.0
C945 C 0.76915 0.90011 0.69345 0.0
N946 N 0.79716 0.91407 0.6486 0.0
N947 N 0.81874 0.82727 0.74667 0.0
C948 C 0.79683 0.88744 0.67119 0.0
C949 C 0.80792 0.84255 0.72146 0.0
N950 N 0.84529 0.82883 0.65092 0.0
N951 N 0.73796 0.88033 0.73671 0.0
H952 H 0.84632 0.8051 0.75059 0.0
H953 H 0.80304 0.83992 0.764 0.0
H954 H 0.71003 0.90264 0.73394 0.0
H955 H 0.73532 0.85976 0.75378 0.0
H956 H 0.83662 0.83887 0.63146 0.0
H957 H 0.86614 0.79949 0.65166 0.0
H958 H 0.82078 0.90957 0.63304 0.0
H959 H 0.7759 0.94273 0.64627 0.0
C960 C 0.61273 0.7227 0.87283 0.0
C961 C 0.58484 0.72773 0.896 0.0
C962 C 0.64498 0.69028 0.92262 0.0
C963 C 0.66601 0.67471 0.89851 0.0
N964 N 0.66779 0.6743 0.84985 0.0
N965 N 0.57342 0.71436 0.94342 0.0
C966 C 0.65005 0.69116 0.87332 0.0
C967 C 0.60106 0.712 0.92125 0.0
N968 N 0.60312 0.74789 0.85035 0.0
N969 N 0.6667 0.68342 0.94671 0.0
H970 H 0.54041 0.72872 0.94307 0.0
H971 H 0.5818 0.69872 0.96162 0.0
H972 H 0.69931 0.66803 0.94809 0.0
H973 H 0.65468 0.6972 0.96475 0.0
H974 H 0.62448 0.74828 0.83351 0.0
H975 H 0.5767 0.77238 0.84995 0.0
H976 H 0.65343 0.6816 0.83109 0.0
H977 H 0.69433 0.65008 0.84906 0.0
C978 C 0.29284 0.63772 0.87368 0.0
C979 C 0.31413 0.65766 0.89676 0.0
C980 C 0.27309 0.60226 0.92548 0.0
C981 C 0.25084 0.58335 0.90243 0.0
N982 N 0.22758 0.59383 0.85628 0.0
N983 N 0.31217 0.66891 0.94488 0.0
C984 C 0.25661 0.60498 0.87712 0.0
C985 C 0.30006 0.64327 0.92279 0.0
N986 N 0.3091 0.64731 0.84854 0.0
N987 N 0.27142 0.57965 0.94946 0.0
H988 H 0.33066 0.69994 0.94351 0.0
H989 H 0.29958 0.66198 0.96405 0.0
H990 H 0.25337 0.54879 0.952 0.0
H991 H 0.29126 0.58949 0.96612 0.0
H992 H 0.29764 0.62983 0.83138 0.0
H993 H 0.33717 0.66928 0.84499 0.0
H994 H 0.22767 0.61136 0.83802 0.0
H995 H 0.20012 0.57052 0.85843 0.0
C996 C 0.3834 0.29111 0.90139 0.0
C997 C 0.37998 0.25817 0.92248 0.0
C998 C 0.30262 0.28677 0.93366 0.0
C999 C 0.30617 0.31893 0.91233 0.0
N1000 N 0.3431 0.34331 0.87148 0.0
N1001 N 0.33234 0.21687 0.95411 0.0
C1002 C 0.34421 0.31798 0.89461 0.0
C1003 C 0.33816 0.25349 0.93715 0.0
N1004 N 0.42491 0.29978 0.8893 0.0
N1005 N 0.2663 0.28928 0.95117 0.0
H1006 H 0.3576 0.19156 0.95674 0.0
H1007 H 0.30109 0.20918 0.96356 0.0
H1008 H 0.23891 0.31233 0.94872 0.0
H1009 H 0.26465 0.27049 0.96895 0.0
H1010 H 0.43052 0.32721 0.87618 0.0
H1011 H 0.455 0.28234 0.8942 0.0
H1012 H 0.36786 0.34027 0.8564 0.0
H1013 H 0.31499 0.36402 0.8662 0.0
C1014 C 0.6465 0.42022 0.89436 0.0
C1015 C 0.69475 0.41421 0.89924 0.0
C1016 C 0.6811 0.33117 0.90553 0.0
C1017 C 0.63436 0.33687 0.89702 0.0
N1018 N 0.57574 0.38558 0.87739 0.0
N1019 N 0.75939 0.36194 0.90445 0.0
C1020 C 0.61807 0.38105 0.8896 0.0
C1021 C 0.71258 0.36913 0.90358 0.0
N1022 N 0.62727 0.46325 0.89526 0.0
N1023 N 0.69515 0.29013 0.91623 0.0
H1024 H 0.78382 0.38838 0.90247 0.0
H1025 H 0.77399 0.32909 0.90467 0.0
H1026 H 0.67311 0.26163 0.91817 0.0
H1027 H 0.72746 0.28576 0.92532 0.0
H1028 H 0.59159 0.46879 0.89442 0.0
H1029 H 0.64624 0.49292 0.89993 0.0
H1030 H 0.56426 0.41661 0.8692 0.0
H1031 H 0.55425 0.35742 0.87289 0.0
C1032 C 0.61712 0.25078 0.21723 0.0
C1033 C 0.58668 0.24591 0.19494 0.0
C1034 C 0.63622 0.29939 0.16977 0.0
C1035 C 0.65896 0.31237 0.19406 0.0
N1036 N 0.66688 0.30295 0.24217 0.0
N1037 N 0.56641 0.26843 0.14944 0.0
C1038 C 0.64876 0.28841 0.21814 0.0
C1039 C 0.59628 0.27037 0.17081 0.0
N1040 N 0.61624 0.21886 0.23734 0.0
N1041 N 0.65319 0.31427 0.14568 0.0
H1042 H 0.53694 0.24763 0.14879 0.0
H1043 H 0.56923 0.29021 0.13289 0.0
H1044 H 0.68319 0.33447 0.1442 0.0
H1045 H 0.64054 0.30244 0.12723 0.0
H1046 H 0.6402 0.21871 0.2531 0.0
H1047 H 0.59523 0.18941 0.23625 0.0
H1048 H 0.65655 0.28912 0.26053 0.0
H1049 H 0.6887 0.33163 0.24411 0.0
C1050 C 0.64682 0.6289 0.17257 0.0
C1051 C 0.6298 0.64871 0.19661 0.0
C1052 C 0.68504 0.60296 0.22257 0.0
C1053 C 0.69635 0.57725 0.19899 0.0
N1054 N 0.67925 0.56105 0.15211 0.0
N1055 N 0.62875 0.65133 0.24501 0.0
C1056 C 0.67543 0.58926 0.17401 0.0
C1057 C 0.648 0.63509 0.22178 0.0
N1058 N 0.63561 0.64792 0.1483 0.0
N1059 N 0.71028 0.59753 0.24564 0.0
H1060 H 0.60171 0.67513 0.24527 0.0
H1061 H 0.63699 0.63834 0.26393 0.0
H1062 H 0.7379 0.5747 0.24722 0.0
H1063 H 0.70678 0.6189 0.26241 0.0
H1064 H 0.65094 0.63766 0.13033 0.0
H1065 H 0.61462 0.67702 0.14647 0.0
H1066 H 0.66072 0.56606 0.13434 0.0
H1067 H 0.69631 0.52969 0.15261 0.0
C1068 C 0.33186 0.66258 0.19226 0.0
C1069 C 0.31609 0.62801 0.17417 0.0
C1070 C 0.35457 0.66837 0.13698 0.0
C1071 C 0.3722 0.70138 0.15573 0.0
N1072 N 0.35227 0.74302 0.19622 0.0
N1073 N 0.30094 0.60478 0.12824 0.0
C1074 C 0.35327 0.7027 0.18194 0.0
C1075 C 0.32411 0.63276 0.1461 0.0
N1076 N 0.32708 0.65701 0.21936 0.0
N1077 N 0.36576 0.67209 0.11044 0.0
H1078 H 0.27768 0.57906 0.13415 0.0
H1079 H 0.30185 0.60905 0.1075 0.0
H1080 H 0.38043 0.70212 0.10251 0.0
H1081 H 0.36013 0.64597 0.09633 0.0
H1082 H 0.34201 0.67974 0.2333 0.0
H1083 H 0.31223 0.62754 0.22786 0.0
H1084 H 0.33588 0.74577 0.21478 0.0
H1085 H 0.36088 0.77476 0.18766 0.0
C1086 C 0.26347 0.3447 0.15759 0.0
C1087 C 0.23743 0.35944 0.18018 0.0
C1088 C 0.29446 0.32383 0.21034 0.0
C1089 C 0.31869 0.30642 0.18779 0.0
N1090 N 0.32091 0.29193 0.13997 0.0
N1091 N 0.22162 0.35231 0.22748 0.0
C1092 C 0.30171 0.31448 0.16138 0.0
C1093 C 0.25115 0.346 0.20642 0.0
N1094 N 0.25279 0.36074 0.13258 0.0
N1095 N 0.31334 0.32012 0.23548 0.0
H1096 H 0.18869 0.36646 0.22509 0.0
H1097 H 0.22746 0.33838 0.24645 0.0
H1098 H 0.34518 0.30427 0.23909 0.0
H1099 H 0.29951 0.33642 0.25233 0.0
H1100 H 0.27386 0.35595 0.11586 0.0
H1101 H 0.22435 0.38171 0.12896 0.0
H1102 H 0.30663 0.29236 0.12071 0.0
H1103 H 0.34889 0.26946 0.1418 0.0
C1104 C 0.98056 0.33384 0.54354 0.0
C1105 C 0.98111 0.28974 0.53104 0.0
C1106 C 0.00299 0.254 0.57394 0.0
C1107 C 0.00575 0.2984 0.58594 0.0
N1108 N 0.00084 0.3809 0.58261 0.0
N1109 N -0.00308 0.20845 0.53287 0.0
C1110 C -0.00463 0.33848 0.57084 0.0
C1111 C -0.00673 0.24989 0.54592 0.0
N1112 N 0.9647 0.37087 0.52933 0.0
N1113 N 0.00902 0.21588 0.58966 0.0
H1114 H -0.01023 0.20464 0.51241 0.0
H1115 H 0.00988 0.17862 0.54171 0.0
H1116 H 0.01651 0.21828 0.61017 0.0
H1117 H 0.00347 0.18215 0.58302 0.0
H1118 H 0.95955 0.40353 0.53758 0.0
H1119 H 0.95385 0.36807 0.50935 0.0
H1120 H -0.00167 0.41202 0.57231 0.0
H1121 H 0.01034 0.38482 0.60275 0.0
C1122 C 0.67941 0.95862 0.56353 0.0
C1123 C 0.69006 0.00473 0.57151 0.0
C1124 C 0.69235 0.02631 0.52379 0.0
C1125 C 0.68699 0.97925 0.51592 0.0
N1126 N 0.69514 0.89997 0.5302 0.0
N1127 N 0.7248 0.07705 0.55779 0.0
C1128 C 0.68719 0.94514 0.53643 0.0
C1129 C 0.70264 0.03681 0.55115 0.0
N1130 N 0.65826 0.92854 0.58065 0.0
N1131 N 0.68409 0.06134 0.50618 0.0
H1132 H 0.73598 0.08413 0.57736 0.0
H1133 H 0.73697 0.10008 0.54332 0.0
H1134 H 0.67028 0.05599 0.48707 0.0
H1135 H 0.68494 0.096 0.51203 0.0
H1136 H 0.64761 0.89558 0.57458 0.0
H1137 H 0.64539 0.93843 0.5993 0.0
H1138 H 0.69807 0.87449 0.54489 0.0
H1139 H 0.70458 0.88952 0.51089 0.0
C1140 C -0.00141 0.72087 0.56796 0.0
C1141 C 0.98072 0.68241 0.58221 0.0
C1142 C -0.01157 0.6337 0.54188 0.0
C1143 C 0.00777 0.67174 0.52781 0.0
N1144 N 0.03458 0.75037 0.52717 0.0
N1145 N 0.96309 0.60143 0.58455 0.0
C1146 C 0.0139 0.71504 0.54087 0.0
C1147 C 0.977 0.63852 0.56963 0.0
N1148 N -0.00021 0.76306 0.58038 0.0
N1149 N 0.98012 0.59332 0.52835 0.0
H1150 H 0.95357 0.60445 0.60469 0.0
H1151 H 0.96358 0.56741 0.57772 0.0
H1152 H -0.01119 0.5889 0.50822 0.0
H1153 H 0.96231 0.56523 0.53635 0.0
H1154 H 0.00867 0.7938 0.57089 0.0
H1155 H -0.01021 0.76759 0.60035 0.0
H1156 H 0.04396 0.78191 0.53576 0.0
H1157 H 0.04424 0.7473 0.50706 0.0
C1158 C 0.31211 0.00636 0.56006 0.0
C1159 C 0.29752 0.96359 0.5713 0.0
C1160 C 0.28548 0.93392 0.5252 0.0
C1161 C 0.29603 0.97809 0.51434 0.0
N1162 N 0.29931 0.05992 0.52367 0.0
N1163 N 0.25117 0.89484 0.56315 0.0
C1164 C 0.30231 0.01554 0.53259 0.0
C1165 C 0.27809 0.92984 0.55344 0.0
N1166 N 0.3388 0.03674 0.57439 0.0
N1167 N 0.2852 0.89533 0.5094 0.0
H1168 H 0.24092 0.89353 0.58321 0.0
H1169 H 0.23416 0.87122 0.55058 0.0
H1170 H 0.29422 0.89567 0.4892 0.0
H1171 H 0.28109 0.86223 0.51732 0.0
H1172 H 0.3523 0.06691 0.56598 0.0
H1173 H 0.35303 0.02864 0.59297 0.0
H1174 H 0.30113 0.08829 0.53665 0.0
H1175 H 0.28939 0.06759 0.50398 0.0
C1176 C 0.48324 0.83452 1.02316 0.0
C1177 C 0.46925 0.79359 1.00956 0.0
C1178 C 0.48042 0.74896 0.05101 0.0
C1179 C 0.49574 0.78965 0.06443 0.0
N1180 N 0.51941 0.86916 0.06271 0.0
N1181 N 0.46043 0.71116 1.00865 0.0
C1182 C 0.4993 0.83194 0.05029 0.0
C1183 C 0.46951 0.75055 1.02302 0.0
N1184 N 0.47979 0.87594 1.01026 0.0
N1185 N 0.47569 0.70903 0.0653 0.0
H1186 H 0.45272 0.7117 0.98814 0.0
H1187 H 0.46373 0.67796 1.01635 0.0
H1188 H 0.48526 0.70667 0.08546 0.0
H1189 H 0.4602 0.67907 0.05777 0.0
H1190 H 0.48481 0.90781 1.01963 0.0
H1191 H 0.46909 0.87844 0.99027 0.0
H1192 H 0.52704 0.90015 0.0531 0.0
H1193 H 0.53178 0.86755 0.08239 0.0
C1194 C 0.1751 0.52763 0.06375 0.0
C1195 C 0.17529 0.49154 0.0831 0.0
C1196 C 0.19014 0.4375 1.04619 0.0
C1197 C 0.17789 0.47126 1.0267 0.0
N1198 N 0.1477 0.54844 1.01959 0.0
N1199 N 0.1697 0.40904 0.08996 0.0
C1200 C 0.16782 0.51669 1.03605 0.0
C1201 C 0.17965 0.44546 0.07369 0.0
N1202 N 0.18191 0.57229 0.07174 0.0
N1203 N 0.21204 0.39794 1.03862 0.0
H1204 H 0.15584 0.41319 0.1091 0.0
H1205 H 0.1696 0.37497 0.083 0.0
H1206 H 0.22361 0.39269 1.019 0.0
H1207 H 0.22356 0.37365 0.05255 0.0
H1208 H 0.18493 0.59941 0.05809 0.0
H1209 H 0.19009 0.58096 0.09159 0.0
H1210 H 0.13701 0.58072 1.02652 0.0
H1211 H 0.13593 0.54061 1.00032 0.0
C1212 C 0.4925 0.21818 0.06314 0.0
C1213 C 0.47963 0.17612 0.07554 0.0
C1214 C 0.49684 0.13388 1.03377 0.0
C1215 C 0.50642 0.17639 1.02082 0.0
N1216 N 0.50738 0.25941 1.02156 0.0
N1217 N 0.46431 0.09462 0.07261 0.0
C1218 C 0.50282 0.21871 1.03514 0.0
C1219 C 0.48045 0.13405 0.06082 0.0
N1220 N 0.49507 0.25749 0.07838 0.0
N1221 N 0.50466 0.09345 1.02032 0.0
H1222 H 0.4528 0.09396 0.09246 0.0
H1223 H 0.45966 0.06342 0.06245 0.0
H1224 H 0.51654 0.09267 1.00054 0.0
H1225 H 0.50248 0.06097 1.02914 0.0
H1226 H 0.50838 0.28874 0.07145 0.0
H1227 H 0.48689 0.25783 0.09879 0.0
H1228 H 0.50107 0.29169 1.03004 0.0
H1229 H 0.51392 0.26069 1.00097 0.0
C1230 C 0.77312 0.53981 1.0435 0.0
C1231 C 0.7802 0.50793 1.02208 0.0
C1232 C 0.77666 0.4463 0.05562 0.0
C1233 C 0.78255 0.47877 0.07697 0.0
N1234 N 0.80003 0.55889 0.088 0.0
N1235 N 0.80214 0.42926 1.01073 0.0
C1236 C 0.78417 0.52646 0.0702 0.0
C1237 C 0.78534 0.46046 1.02878 0.0
N1238 N 0.75558 0.5826 1.03857 0.0
N1239 N 0.76204 0.40233 0.06069 0.0
H1240 H 0.81619 0.4388 0.99234 0.0
H1241 H 0.80845 0.39494 1.01589 0.0
H1242 H 0.75106 0.39203 0.07971 0.0
H1243 H 0.75519 0.37857 1.04532 0.0
H1244 H 0.74788 0.60581 0.05401 0.0
H1245 H 0.74343 0.59209 1.0196 0.0
H1246 H 0.80367 0.59362 0.08279 0.0
H1247 H 0.81609 0.55037 0.10607 0.0
loop_
_geom_bond_atom_site_label_1
_geom_bond_atom_site_label_2
_geom_bond_distance
_geom_bond_site_symmetry_2
_ccdc_geom_bond_type
C0 C1 1.351 . S
C0 N3 1.368 1_655 S
C0 H5 0.931 . S
C1 C0 1.351 . S
C1 N2 1.373 1_655 S
C1 H29 0.930 . S
N2 C1 1.373 1_455 S
N2 C4 1.340 . S
N3 C0 1.368 1_455 S
N3 C4 1.321 . S
N3 Co6 2.135 . S
C4 N2 1.340 . S
C4 N3 1.321 . S
C4 H28 0.930 . S
H5 C0 0.931 . S
Co6 N3 2.135 . S
Co6 N9 2.121 . S
Co6 O14 2.055 . S
Co6 O17 2.039 . S
Co6 N20 2.140 1_455 S
C7 O8 1.227 . S
C7 O17 1.265 . S
O8 C7 1.227 . S
N9 Co6 2.121 . S
N9 C11 1.375 . S
N9 C12 1.313 . S
C10 C11 1.338 . S
C10 N13 1.377 . S
C10 H30 0.930 . S
C11 N9 1.375 . S
C11 C10 1.338 . S
C11 H15 0.931 . S
C12 N9 1.313 . S
C12 N13 1.344 . S
C12 H16 0.930 . S
N13 C10 1.377 . S
N13 C12 1.344 . S
O14 Co6 2.055 . S
O14 C18 1.253 . S
H15 C11 0.931 . S
H16 C12 0.930 . S
O17 Co6 2.039 . S
O17 C7 1.265 . S
C18 O14 1.253 . S
C18 O19 1.227 1_455 S
O19 C18 1.227 1_655 S
N20 Co6 2.140 1_655 S
N20 C23 1.346 . S
N20 C24 1.345 . S
C21 C22 1.387 . S
C21 C25 1.391 . S
C22 C21 1.387 . S
C22 C23 1.369 . S
C22 H31 0.929 . S
C23 N20 1.346 . S
C23 C22 1.369 . S
C23 H26 0.928 . S
C24 N20 1.345 . S
C24 C25 1.371 . S
C24 H27 0.931 . S
C25 C21 1.391 . S
C25 C24 1.371 . S
C25 H32 0.930 . S
H26 C23 0.928 . S
H27 C24 0.931 . S
H28 C4 0.930 . S
H29 C1 0.930 . S
H30 C10 0.930 . S
H31 C22 0.929 . S
H32 C25 0.930 . S
C33 C34 1.351 . S
C33 N36 1.368 1_565 S
C33 H38 0.931 . S
C34 C33 1.351 . S
C34 N35 1.373 1_565 S
C34 H62 0.930 . S
N35 C34 1.373 1_545 S
N35 C37 1.340 . S
N36 C33 1.368 1_545 S
N36 C37 1.321 . S
N36 Co39 2.135 . S
C37 N35 1.340 . S
C37 N36 1.321 . S
C37 H61 0.930 . S
H38 C33 0.931 . S
Co39 N36 2.135 . S
Co39 N42 2.121 . S
Co39 O47 2.055 . S
Co39 O50 2.039 . S
Co39 N53 2.140 1_545 S
C40 O41 1.227 . S
C40 O50 1.265 . S
O41 C40 1.227 . S
N42 Co39 2.121 . S
N42 C44 1.375 . S
N42 C45 1.313 . S
C43 C44 1.338 . S
C43 N46 1.377 . S
C43 H63 0.930 . S
C44 N42 1.375 . S
C44 C43 1.338 . S
C44 H48 0.931 . S
C45 N42 1.313 . S
C45 N46 1.344 . S
C45 H49 0.930 . S
N46 C43 1.377 . S
N46 C45 1.344 . S
O47 Co39 2.055 . S
O47 C51 1.253 . S
H48 C44 0.931 . S
H49 C45 0.930 . S
O50 Co39 2.039 . S
O50 C40 1.265 . S
C51 O47 1.253 . S
C51 O52 1.227 1_545 S
O52 C51 1.227 1_565 S
N53 Co39 2.140 1_565 S
N53 C56 1.346 . S
N53 C57 1.345 . S
C54 C55 1.387 . S
C54 C58 1.391 . S
C55 C54 1.387 . S
C55 C56 1.369 . S
C55 H64 0.929 . S
C56 N53 1.346 . S
C56 C55 1.369 . S
C56 H59 0.928 . S
C57 N53 1.345 . S
C57 C58 1.371 . S
C57 H60 0.931 . S
C58 C54 1.391 . S
C58 C57 1.371 . S
C58 H65 0.930 . S
H59 C56 0.928 . S
H60 C57 0.931 . S
H61 C37 0.930 . S
H62 C34 0.930 . S
H63 C43 0.930 . S
H64 C55 0.929 . S
H65 C58 0.930 . S
C66 C67 1.351 . S
C66 N69 1.368 1_455 S
C66 H71 0.931 . S
C67 C66 1.351 . S
C67 N68 1.373 1_455 S
C67 H95 0.930 . S
N68 C67 1.373 1_655 S
N68 C70 1.340 . S
N69 C66 1.368 1_655 S
N69 C70 1.321 . S
N69 Co72 2.135 . S
C70 N68 1.340 . S
C70 N69 1.321 . S
C70 H94 0.930 . S
H71 C66 0.931 . S
Co72 N69 2.135 . S
Co72 N75 2.121 . S
Co72 O80 2.055 . S
Co72 O83 2.039 . S
Co72 N86 2.140 1_655 S
C73 O74 1.227 . S
C73 O83 1.265 . S
O74 C73 1.227 . S
N75 Co72 2.121 . S
N75 C77 1.375 . S
N75 C78 1.313 . S
C76 C77 1.338 . S
C76 N79 1.377 . S
C76 H96 0.930 . S
C77 N75 1.375 . S
C77 C76 1.338 . S
C77 H81 0.931 . S
C78 N75 1.313 . S
C78 N79 1.344 . S
C78 H82 0.930 . S
N79 C76 1.377 . S
N79 C78 1.344 . S
O80 Co72 2.055 . S
O80 C84 1.253 . S
H81 C77 0.931 . S
H82 C78 0.930 . S
O83 Co72 2.039 . S
O83 C73 1.265 . S
C84 O80 1.253 . S
C84 O85 1.227 1_655 S
O85 C84 1.227 1_455 S
N86 Co72 2.140 1_455 S
N86 C89 1.346 . S
N86 C90 1.345 . S
C87 C88 1.387 . S
C87 C91 1.391 . S
C88 C87 1.387 . S
C88 C89 1.369 . S
C88 H97 0.929 . S
C89 N86 1.346 . S
C89 C88 1.369 . S
C89 H92 0.928 . S
C90 N86 1.345 . S
C90 C91 1.371 . S
C90 H93 0.931 . S
C91 C87 1.391 . S
C91 C90 1.371 . S
C91 H98 0.930 . S
H92 C89 0.928 . S
H93 C90 0.931 . S
H94 C70 0.930 . S
H95 C67 0.930 . S
H96 C76 0.930 . S
H97 C88 0.929 . S
H98 C91 0.930 . S
C99 C100 1.351 . S
C99 N102 1.368 1_545 S
C99 H104 0.931 . S
C100 C99 1.351 . S
C100 N101 1.373 1_545 S
C100 H128 0.930 . S
N101 C100 1.373 1_565 S
N101 C103 1.340 . S
N102 C99 1.368 1_565 S
N102 C103 1.321 . S
N102 Co105 2.135 . S
C103 N101 1.340 . S
C103 N102 1.321 . S
C103 H127 0.930 . S
H104 C99 0.931 . S
Co105 N102 2.135 . S
Co105 N108 2.121 . S
Co105 O113 2.055 . S
Co105 O116 2.039 . S
Co105 N119 2.140 1_565 S
C106 O107 1.227 . S
C106 O116 1.265 . S
O107 C106 1.227 . S
N108 Co105 2.121 . S
N108 C110 1.375 . S
N108 C111 1.313 . S
C109 C110 1.338 . S
C109 N112 1.377 . S
C109 H129 0.930 . S
C110 N108 1.375 . S
C110 C109 1.338 . S
C110 H114 0.931 . S
C111 N108 1.313 . S
C111 N112 1.344 . S
C111 H115 0.930 . S
N112 C109 1.377 . S
N112 C111 1.344 . S
O113 Co105 2.055 . S
O113 C117 1.253 . S
H114 C110 0.931 . S
H115 C111 0.930 . S
O116 Co105 2.039 . S
O116 C106 1.265 . S
C117 O113 1.253 . S
C117 O118 1.227 1_565 S
O118 C117 1.227 1_545 S
N119 Co105 2.140 1_545 S
N119 C122 1.346 . S
N119 C123 1.345 . S
C120 C121 1.387 . S
C120 C124 1.391 . S
C121 C120 1.387 . S
C121 C122 1.369 . S
C121 H130 0.929 . S
C122 N119 1.346 . S
C122 C121 1.369 . S
C122 H125 0.928 . S
C123 N119 1.345 . S
C123 C124 1.371 . S
C123 H126 0.931 . S
C124 C120 1.391 . S
C124 C123 1.371 . S
C124 H131 0.930 . S
H125 C122 0.928 . S
H126 C123 0.931 . S
H127 C103 0.930 . S
H128 C100 0.930 . S
H129 C109 0.930 . S
H130 C121 0.929 . S
H131 C124 0.930 . S
C132 C133 1.351 . S
C132 N135 1.368 1_655 S
C132 H137 0.931 . S
C133 C132 1.351 . S
C133 N134 1.373 1_655 S
C133 H161 0.930 . S
N134 C133 1.373 1_455 S
N134 C136 1.340 . S
N135 C132 1.368 1_455 S
N135 C136 1.321 . S
N135 Co138 2.135 . S
C136 N134 1.340 . S
C136 N135 1.321 . S
C136 H160 0.930 . S
H137 C132 0.931 . S
Co138 N135 2.135 . S
Co138 N141 2.121 . S
Co138 O146 2.055 . S
Co138 O149 2.039 . S
Co138 N152 2.140 1_455 S
C139 O140 1.227 . S
C139 O149 1.265 . S
O140 C139 1.227 . S
N141 Co138 2.121 . S
N141 C143 1.375 . S
N141 C144 1.313 . S
C142 C143 1.338 . S
C142 N145 1.377 . S
C142 H162 0.930 . S
C143 N141 1.375 . S
C143 C142 1.338 . S
C143 H147 0.931 . S
C144 N141 1.313 . S
C144 N145 1.344 . S
C144 H148 0.930 . S
N145 C142 1.377 . S
N145 C144 1.344 . S
O146 Co138 2.055 . S
O146 C150 1.253 . S
H147 C143 0.931 . S
H148 C144 0.930 . S
O149 Co138 2.039 . S
O149 C139 1.265 . S
C150 O146 1.253 . S
C150 O151 1.227 1_455 S
O151 C150 1.227 1_655 S
N152 Co138 2.140 1_655 S
N152 C155 1.346 . S
N152 C156 1.345 . S
C153 C154 1.387 . S
C153 C157 1.391 . S
C154 C153 1.387 . S
C154 C155 1.369 . S
C154 H163 0.929 . S
C155 N152 1.346 . S
C155 C154 1.369 . S
C155 H158 0.928 . S
C156 N152 1.345 . S
C156 C157 1.371 . S
C156 H159 0.931 . S
C157 C153 1.391 . S
C157 C156 1.371 . S
C157 H164 0.930 . S
H158 C155 0.928 . S
H159 C156 0.931 . S
H160 C136 0.930 . S
H161 C133 0.930 . S
H162 C142 0.930 . S
H163 C154 0.929 . S
H164 C157 0.930 . S
C165 C166 1.351 . S
C165 N168 1.368 1_565 S
C165 H170 0.931 . S
C166 C165 1.351 . S
C166 N167 1.373 1_565 S
C166 H194 0.930 . S
N167 C166 1.373 1_545 S
N167 C169 1.340 . S
N168 C165 1.368 1_545 S
N168 C169 1.321 . S
N168 Co171 2.135 . S
C169 N167 1.340 . S
C169 N168 1.321 . S
C169 H193 0.930 . S
H170 C165 0.931 . S
Co171 N168 2.135 . S
Co171 N174 2.121 . S
Co171 O179 2.055 . S
Co171 O182 2.039 . S
Co171 N185 2.140 1_545 S
C172 O173 1.227 . S
C172 O182 1.265 . S
O173 C172 1.227 . S
N174 Co171 2.121 . S
N174 C176 1.375 . S
N174 C177 1.313 . S
C175 C176 1.338 . S
C175 N178 1.377 . S
C175 H195 0.930 . S
C176 N174 1.375 . S
C176 C175 1.338 . S
C176 H180 0.931 . S
C177 N174 1.313 . S
C177 N178 1.344 . S
C177 H181 0.930 . S
N178 C175 1.377 . S
N178 C177 1.344 . S
O179 Co171 2.055 . S
O179 C183 1.253 . S
H180 C176 0.931 . S
H181 C177 0.930 . S
O182 Co171 2.039 . S
O182 C172 1.265 . S
C183 O179 1.253 . S
C183 O184 1.227 1_545 S
O184 C183 1.227 1_565 S
N185 Co171 2.140 1_565 S
N185 C188 1.346 . S
N185 C189 1.345 . S
C186 C187 1.387 . S
C186 C190 1.391 . S
C187 C186 1.387 . S
C187 C188 1.369 . S
C187 H196 0.929 . S
C188 N185 1.346 . S
C188 C187 1.369 . S
C188 H191 0.928 . S
C189 N185 1.345 . S
C189 C190 1.371 . S
C189 H192 0.931 . S
C190 C186 1.391 . S
C190 C189 1.371 . S
C190 H197 0.930 . S
H191 C188 0.928 . S
H192 C189 0.931 . S
H193 C169 0.930 . S
H194 C166 0.930 . S
H195 C175 0.930 . S
H196 C187 0.929 . S
H197 C190 0.930 . S
C198 C199 1.351 . S
C198 N201 1.368 1_455 S
C198 H203 0.931 . S
C199 C198 1.351 . S
C199 N200 1.373 1_455 S
C199 H227 0.930 . S
N200 C199 1.373 1_655 S
N200 C202 1.340 . S
N201 C198 1.368 1_655 S
N201 C202 1.321 . S
N201 Co204 2.135 . S
C202 N200 1.340 . S
C202 N201 1.321 . S
C202 H226 0.930 . S
H203 C198 0.931 . S
Co204 N201 2.135 . S
Co204 N207 2.121 . S
Co204 O212 2.055 . S
Co204 O215 2.039 . S
Co204 N218 2.140 1_655 S
C205 O206 1.227 . S
C205 O215 1.265 . S
O206 C205 1.227 . S
N207 Co204 2.121 . S
N207 C209 1.375 . S
N207 C210 1.313 . S
C208 C209 1.338 . S
C208 N211 1.377 . S
C208 H228 0.930 . S
C209 N207 1.375 . S
C209 C208 1.338 . S
C209 H213 0.931 . S
C210 N207 1.313 . S
C210 N211 1.344 . S
C210 H214 0.930 . S
N211 C208 1.377 . S
N211 C210 1.344 . S
O212 Co204 2.055 . S
O212 C216 1.253 . S
H213 C209 0.931 . S
H214 C210 0.930 . S
O215 Co204 2.039 . S
O215 C205 1.265 . S
C216 O212 1.253 . S
C216 O217 1.227 1_655 S
O217 C216 1.227 1_455 S
N218 Co204 2.140 1_455 S
N218 C221 1.346 . S
N218 C222 1.345 . S
C219 C220 1.387 . S
C219 C223 1.391 . S
C220 C219 1.387 . S
C220 C221 1.369 . S
C220 H229 0.929 . S
C221 N218 1.346 . S
C221 C220 1.369 . S
C221 H224 0.928 . S
C222 N218 1.345 . S
C222 C223 1.371 . S
C222 H225 0.931 . S
C223 C219 1.391 . S
C223 C222 1.371 . S
C223 H230 0.930 . S
H224 C221 0.928 . S
H225 C222 0.931 . S
H226 C202 0.930 . S
H227 C199 0.930 . S
H228 C208 0.930 . S
H229 C220 0.929 . S
H230 C223 0.930 . S
C231 C232 1.351 . S
C231 N234 1.368 1_545 S
C231 H236 0.931 . S
C232 C231 1.351 . S
C232 N233 1.373 1_545 S
C232 H260 0.930 . S
N233 C232 1.373 1_565 S
N233 C235 1.340 . S
N234 C231 1.368 1_565 S
N234 C235 1.321 . S
N234 Co237 2.135 . S
C235 N233 1.340 . S
C235 N234 1.321 . S
C235 H259 0.930 . S
H236 C231 0.931 . S
Co237 N234 2.135 . S
Co237 N240 2.121 . S
Co237 O245 2.055 . S
Co237 O248 2.039 . S
Co237 N251 2.140 1_565 S
C238 O239 1.227 . S
C238 O248 1.265 . S
O239 C238 1.227 . S
N240 Co237 2.121 . S
N240 C242 1.375 . S
N240 C243 1.313 . S
C241 C242 1.338 . S
C241 N244 1.377 . S
C241 H261 0.930 . S
C242 N240 1.375 . S
C242 C241 1.338 . S
C242 H246 0.931 . S
C243 N240 1.313 . S
C243 N244 1.344 . S
C243 H247 0.930 . S
N244 C241 1.377 . S
N244 C243 1.344 . S
O245 Co237 2.055 . S
O245 C249 1.253 . S
H246 C242 0.931 . S
H247 C243 0.930 . S
O248 Co237 2.039 . S
O248 C238 1.265 . S
C249 O245 1.253 . S
C249 O250 1.227 1_565 S
O250 C249 1.227 1_545 S
N251 Co237 2.140 1_545 S
N251 C254 1.346 . S
N251 C255 1.345 . S
C252 C253 1.387 . S
C252 C256 1.391 . S
C253 C252 1.387 . S
C253 C254 1.369 . S
C253 H262 0.929 . S
C254 N251 1.346 . S
C254 C253 1.369 . S
C254 H257 0.928 . S
C255 N251 1.345 . S
C255 C256 1.371 . S
C255 H258 0.931 . S
C256 C252 1.391 . S
C256 C255 1.371 . S
C256 H263 0.930 . S
H257 C254 0.928 . S
H258 C255 0.931 . S
H259 C235 0.930 . S
H260 C232 0.930 . S
H261 C241 0.930 . S
H262 C253 0.929 . S
H263 C256 0.930 . S
C264 C265 1.351 . S
C264 N267 1.368 . S
C264 H269 0.931 . S
C265 C264 1.351 . S
C265 N266 1.373 . S
C265 H293 0.930 . S
N266 C265 1.373 . S
N266 C268 1.340 . S
N267 C264 1.368 . S
N267 C268 1.321 . S
N267 Co270 2.135 . S
C268 N266 1.340 . S
C268 N267 1.321 . S
C268 H292 0.930 . S
H269 C264 0.931 . S
Co270 N267 2.135 . S
Co270 N273 2.121 . S
Co270 O278 2.055 . S
Co270 O281 2.039 . S
Co270 N284 2.140 . S
C271 O272 1.227 . S
C271 O281 1.265 . S
O272 C271 1.227 . S
N273 Co270 2.121 . S
N273 C275 1.375 . S
N273 C276 1.313 . S
C274 C275 1.338 . S
C274 N277 1.377 . S
C274 H294 0.930 . S
C275 N273 1.375 . S
C275 C274 1.338 . S
C275 H279 0.931 . S
C276 N273 1.313 . S
C276 N277 1.344 . S
C276 H280 0.930 . S
N277 C274 1.377 . S
N277 C276 1.344 . S
O278 Co270 2.055 . S
O278 C282 1.253 . S
H279 C275 0.931 . S
H280 C276 0.930 . S
O281 Co270 2.039 . S
O281 C271 1.265 . S
C282 O278 1.253 . S
C282 O283 1.227 . S
O283 C282 1.227 . S
N284 Co270 2.140 . S
N284 C287 1.346 . S
N284 C288 1.345 . S
C285 C286 1.387 . S
C285 C289 1.391 . S
C286 C285 1.387 . S
C286 C287 1.369 . S
C286 H295 0.929 . S
C287 N284 1.346 . S
C287 C286 1.369 . S
C287 H290 0.928 . S
C288 N284 1.345 . S
C288 C289 1.371 . S
C288 H291 0.931 . S
C289 C285 1.391 . S
C289 C288 1.371 . S
C289 H296 0.930 . S
H290 C287 0.928 . S
H291 C288 0.931 . S
H292 C268 0.930 . S
H293 C265 0.930 . S
H294 C274 0.930 . S
H295 C286 0.929 . S
H296 C289 0.930 . S
C297 C298 1.351 . S
C297 N300 1.368 . S
C297 H302 0.931 . S
C298 C297 1.351 . S
C298 N299 1.373 . S
C298 H326 0.930 . S
N299 C298 1.373 . S
N299 C301 1.340 . S
N300 C297 1.368 . S
N300 C301 1.321 . S
N300 Co303 2.135 . S
C301 N299 1.340 . S
C301 N300 1.321 . S
C301 H325 0.930 . S
H302 C297 0.931 . S
Co303 N300 2.135 . S
Co303 N306 2.121 . S
Co303 O311 2.055 . S
Co303 O314 2.039 . S
Co303 N317 2.140 . S
C304 O305 1.227 . S
C304 O314 1.265 . S
O305 C304 1.227 . S
N306 Co303 2.121 . S
N306 C308 1.375 . S
N306 C309 1.313 . S
C307 C308 1.338 . S
C307 N310 1.377 . S
C307 H327 0.930 . S
C308 N306 1.375 . S
C308 C307 1.338 . S
C308 H312 0.931 . S
C309 N306 1.313 . S
C309 N310 1.344 . S
C309 H313 0.930 . S
N310 C307 1.377 . S
N310 C309 1.344 . S
O311 Co303 2.055 . S
O311 C315 1.253 . S
H312 C308 0.931 . S
H313 C309 0.930 . S
O314 Co303 2.039 . S
O314 C304 1.265 . S
C315 O311 1.253 . S
C315 O316 1.227 . S
O316 C315 1.227 . S
N317 Co303 2.140 . S
N317 C320 1.346 . S
N317 C321 1.345 . S
C318 C319 1.387 . S
C318 C322 1.391 . S
C319 C318 1.387 . S
C319 C320 1.369 . S
C319 H328 0.929 . S
C320 N317 1.346 . S
C320 C319 1.369 . S
C320 H323 0.928 . S
C321 N317 1.345 . S
C321 C322 1.371 . S
C321 H324 0.931 . S
C322 C318 1.391 . S
C322 C321 1.371 . S
C322 H329 0.930 . S
H323 C320 0.928 . S
H324 C321 0.931 . S
H325 C301 0.930 . S
H326 C298 0.930 . S
H327 C307 0.930 . S
H328 C319 0.929 . S
H329 C322 0.930 . S
C330 C331 1.351 . S
C330 N333 1.368 . S
C330 H335 0.931 . S
C331 C330 1.351 . S
C331 N332 1.373 . S
C331 H359 0.930 . S
N332 C331 1.373 . S
N332 C334 1.340 . S
N333 C330 1.368 . S
N333 C334 1.321 . S
N333 Co336 2.135 . S
C334 N332 1.340 . S
C334 N333 1.321 . S
C334 H358 0.930 . S
H335 C330 0.931 . S
Co336 N333 2.135 . S
Co336 N339 2.121 . S
Co336 O344 2.055 . S
Co336 O347 2.039 . S
Co336 N350 2.140 . S
C337 O338 1.227 . S
C337 O347 1.265 . S
O338 C337 1.227 . S
N339 Co336 2.121 . S
N339 C341 1.375 . S
N339 C342 1.313 . S
C340 C341 1.338 . S
C340 N343 1.377 . S
C340 H360 0.930 . S
C341 N339 1.375 . S
C341 C340 1.338 . S
C341 H345 0.931 . S
C342 N339 1.313 . S
C342 N343 1.344 . S
C342 H346 0.930 . S
N343 C340 1.377 . S
N343 C342 1.344 . S
O344 Co336 2.055 . S
O344 C348 1.253 . S
H345 C341 0.931 . S
H346 C342 0.930 . S
O347 Co336 2.039 . S
O347 C337 1.265 . S
C348 O344 1.253 . S
C348 O349 1.227 . S
O349 C348 1.227 . S
N350 Co336 2.140 . S
N350 C353 1.346 . S
N350 C354 1.345 . S
C351 C352 1.387 . S
C351 C355 1.391 . S
C352 C351 1.387 . S
C352 C353 1.369 . S
C352 H361 0.929 . S
C353 N350 1.346 . S
C353 C352 1.369 . S
C353 H356 0.928 . S
C354 N350 1.345 . S
C354 C355 1.371 . S
C354 H357 0.931 . S
C355 C351 1.391 . S
C355 C354 1.371 . S
C355 H362 0.930 . S
H356 C353 0.928 . S
H357 C354 0.931 . S
H358 C334 0.930 . S
H359 C331 0.930 . S
H360 C340 0.930 . S
H361 C352 0.929 . S
H362 C355 0.930 . S
C363 C364 1.351 . S
C363 N366 1.368 . S
C363 H368 0.931 . S
C364 C363 1.351 . S
C364 N365 1.373 . S
C364 H392 0.930 . S
N365 C364 1.373 . S
N365 C367 1.340 . S
N366 C363 1.368 . S
N366 C367 1.321 . S
N366 Co369 2.135 . S
C367 N365 1.340 . S
C367 N366 1.321 . S
C367 H391 0.930 . S
H368 C363 0.931 . S
Co369 N366 2.135 . S
Co369 N372 2.121 . S
Co369 O377 2.055 . S
Co369 O380 2.039 . S
Co369 N383 2.140 . S
C370 O371 1.227 . S
C370 O380 1.265 . S
O371 C370 1.227 . S
N372 Co369 2.121 . S
N372 C374 1.375 . S
N372 C375 1.313 . S
C373 C374 1.338 . S
C373 N376 1.377 . S
C373 H393 0.930 . S
C374 N372 1.375 . S
C374 C373 1.338 . S
C374 H378 0.931 . S
C375 N372 1.313 . S
C375 N376 1.344 . S
C375 H379 0.930 . S
N376 C373 1.377 . S
N376 C375 1.344 . S
O377 Co369 2.055 . S
O377 C381 1.253 . S
H378 C374 0.931 . S
H379 C375 0.930 . S
O380 Co369 2.039 . S
O380 C370 1.265 . S
C381 O377 1.253 . S
C381 O382 1.227 . S
O382 C381 1.227 . S
N383 Co369 2.140 . S
N383 C386 1.346 . S
N383 C387 1.345 . S
C384 C385 1.387 . S
C384 C388 1.391 . S
C385 C384 1.387 . S
C385 C386 1.369 . S
C385 H394 0.929 . S
C386 N383 1.346 . S
C386 C385 1.369 . S
C386 H389 0.928 . S
C387 N383 1.345 . S
C387 C388 1.371 . S
C387 H390 0.931 . S
C388 C384 1.391 . S
C388 C387 1.371 . S
C388 H395 0.930 . S
H389 C386 0.928 . S
H390 C387 0.931 . S
H391 C367 0.930 . S
H392 C364 0.930 . S
H393 C373 0.930 . S
H394 C385 0.929 . S
H395 C388 0.930 . S
C396 C397 1.351 . S
C396 N399 1.368 . S
C396 H401 0.931 . S
C397 C396 1.351 . S
C397 N398 1.373 . S
C397 H425 0.930 . S
N398 C397 1.373 . S
N398 C400 1.340 . S
N399 C396 1.368 . S
N399 C400 1.321 . S
N399 Co402 2.135 . S
C400 N398 1.340 . S
C400 N399 1.321 . S
C400 H424 0.930 . S
H401 C396 0.931 . S
Co402 N399 2.135 . S
Co402 N405 2.121 . S
Co402 O410 2.055 . S
Co402 O413 2.039 . S
Co402 N416 2.140 . S
C403 O404 1.227 . S
C403 O413 1.265 . S
O404 C403 1.227 . S
N405 Co402 2.121 . S
N405 C407 1.375 . S
N405 C408 1.313 . S
C406 C407 1.338 . S
C406 N409 1.377 . S
C406 H426 0.930 . S
C407 N405 1.375 . S
C407 C406 1.338 . S
C407 H411 0.931 . S
C408 N405 1.313 . S
C408 N409 1.344 . S
C408 H412 0.930 . S
N409 C406 1.377 . S
N409 C408 1.344 . S
O410 Co402 2.055 . S
O410 C414 1.253 . S
H411 C407 0.931 . S
H412 C408 0.930 . S
O413 Co402 2.039 . S
O413 C403 1.265 . S
C414 O410 1.253 . S
C414 O415 1.227 . S
O415 C414 1.227 . S
N416 Co402 2.140 . S
N416 C419 1.346 . S
N416 C420 1.345 . S
C417 C418 1.387 . S
C417 C421 1.391 . S
C418 C417 1.387 . S
C418 C419 1.369 . S
C418 H427 0.929 . S
C419 N416 1.346 . S
C419 C418 1.369 . S
C419 H422 0.928 . S
C420 N416 1.345 . S
C420 C421 1.371 . S
C420 H423 0.931 . S
C421 C417 1.391 . S
C421 C420 1.371 . S
C421 H428 0.930 . S
H422 C419 0.928 . S
H423 C420 0.931 . S
H424 C400 0.930 . S
H425 C397 0.930 . S
H426 C406 0.930 . S
H427 C418 0.929 . S
H428 C421 0.930 . S
C429 C430 1.351 . S
C429 N432 1.368 . S
C429 H434 0.931 . S
C430 C429 1.351 . S
C430 N431 1.373 . S
C430 H458 0.930 . S
N431 C430 1.373 . S
N431 C433 1.340 . S
N432 C429 1.368 . S
N432 C433 1.321 . S
N432 Co435 2.135 . S
C433 N431 1.340 . S
C433 N432 1.321 . S
C433 H457 0.930 . S
H434 C429 0.931 . S
Co435 N432 2.135 . S
Co435 N438 2.121 . S
Co435 O443 2.055 . S
Co435 O446 2.039 . S
Co435 N449 2.140 . S
C436 O437 1.227 . S
C436 O446 1.265 . S
O437 C436 1.227 . S
N438 Co435 2.121 . S
N438 C440 1.375 . S
N438 C441 1.313 . S
C439 C440 1.338 . S
C439 N442 1.377 . S
C439 H459 0.930 . S
C440 N438 1.375 . S
C440 C439 1.338 . S
C440 H444 0.931 . S
C441 N438 1.313 . S
C441 N442 1.344 . S
C441 H445 0.930 . S
N442 C439 1.377 . S
N442 C441 1.344 . S
O443 Co435 2.055 . S
O443 C447 1.253 . S
H444 C440 0.931 . S
H445 C441 0.930 . S
O446 Co435 2.039 . S
O446 C436 1.265 . S
C447 O443 1.253 . S
C447 O448 1.227 . S
O448 C447 1.227 . S
N449 Co435 2.140 . S
N449 C452 1.346 . S
N449 C453 1.345 . S
C450 C451 1.387 . S
C450 C454 1.391 . S
C451 C450 1.387 . S
C451 C452 1.369 . S
C451 H460 0.929 . S
C452 N449 1.346 . S
C452 C451 1.369 . S
C452 H455 0.928 . S
C453 N449 1.345 . S
C453 C454 1.371 . S
C453 H456 0.931 . S
C454 C450 1.391 . S
C454 C453 1.371 . S
C454 H461 0.930 . S
H455 C452 0.928 . S
H456 C453 0.931 . S
H457 C433 0.930 . S
H458 C430 0.930 . S
H459 C439 0.930 . S
H460 C451 0.929 . S
H461 C454 0.930 . S
C462 C463 1.351 . S
C462 N465 1.368 . S
C462 H467 0.931 . S
C463 C462 1.351 . S
C463 N464 1.373 . S
C463 H491 0.930 . S
N464 C463 1.373 . S
N464 C466 1.340 . S
N465 C462 1.368 . S
N465 C466 1.321 . S
N465 Co468 2.135 . S
C466 N464 1.340 . S
C466 N465 1.321 . S
C466 H490 0.930 . S
H467 C462 0.931 . S
Co468 N465 2.135 . S
Co468 N471 2.121 . S
Co468 O476 2.055 . S
Co468 O479 2.039 . S
Co468 N482 2.140 . S
C469 O470 1.227 . S
C469 O479 1.265 . S
O470 C469 1.227 . S
N471 Co468 2.121 . S
N471 C473 1.375 . S
N471 C474 1.313 . S
C472 C473 1.338 . S
C472 N475 1.377 . S
C472 H492 0.930 . S
C473 N471 1.375 . S
C473 C472 1.338 . S
C473 H477 0.931 . S
C474 N471 1.313 . S
C474 N475 1.344 . S
C474 H478 0.930 . S
N475 C472 1.377 . S
N475 C474 1.344 . S
O476 Co468 2.055 . S
O476 C480 1.253 . S
H477 C473 0.931 . S
H478 C474 0.930 . S
O479 Co468 2.039 . S
O479 C469 1.265 . S
C480 O476 1.253 . S
C480 O481 1.227 . S
O481 C480 1.227 . S
N482 Co468 2.140 . S
N482 C485 1.346 . S
N482 C486 1.345 . S
C483 C484 1.387 . S
C483 C487 1.391 . S
C484 C483 1.387 . S
C484 C485 1.369 . S
C484 H493 0.929 . S
C485 N482 1.346 . S
C485 C484 1.369 . S
C485 H488 0.928 . S
C486 N482 1.345 . S
C486 C487 1.371 . S
C486 H489 0.931 . S
C487 C483 1.391 . S
C487 C486 1.371 . S
C487 H494 0.930 . S
H488 C485 0.928 . S
H489 C486 0.931 . S
H490 C466 0.930 . S
H491 C463 0.930 . S
H492 C472 0.930 . S
H493 C484 0.929 . S
H494 C487 0.930 . S
C495 C496 1.351 . S
C495 N498 1.368 . S
C495 H500 0.931 . S
C496 C495 1.351 . S
C496 N497 1.373 . S
C496 H524 0.930 . S
N497 C496 1.373 . S
N497 C499 1.340 . S
N498 C495 1.368 . S
N498 C499 1.321 . S
N498 Co501 2.135 . S
C499 N497 1.340 . S
C499 N498 1.321 . S
C499 H523 0.930 . S
H500 C495 0.931 . S
Co501 N498 2.135 . S
Co501 N504 2.121 . S
Co501 O509 2.055 . S
Co501 O512 2.039 . S
Co501 N515 2.140 . S
C502 O503 1.227 . S
C502 O512 1.265 . S
O503 C502 1.227 . S
N504 Co501 2.121 . S
N504 C506 1.375 . S
N504 C507 1.313 . S
C505 C506 1.338 . S
C505 N508 1.377 . S
C505 H525 0.930 . S
C506 N504 1.375 . S
C506 C505 1.338 . S
C506 H510 0.931 . S
C507 N504 1.313 . S
C507 N508 1.344 . S
C507 H511 0.930 . S
N508 C505 1.377 . S
N508 C507 1.344 . S
O509 Co501 2.055 . S
O509 C513 1.253 . S
H510 C506 0.931 . S
H511 C507 0.930 . S
O512 Co501 2.039 . S
O512 C502 1.265 . S
C513 O509 1.253 . S
C513 O514 1.227 . S
O514 C513 1.227 . S
N515 Co501 2.140 . S
N515 C518 1.346 . S
N515 C519 1.345 . S
C516 C517 1.387 . S
C516 C520 1.391 . S
C517 C516 1.387 . S
C517 C518 1.369 . S
C517 H526 0.929 . S
C518 N515 1.346 . S
C518 C517 1.369 . S
C518 H521 0.928 . S
C519 N515 1.345 . S
C519 C520 1.371 . S
C519 H522 0.931 . S
C520 C516 1.391 . S
C520 C519 1.371 . S
C520 H527 0.930 . S
H521 C518 0.928 . S
H522 C519 0.931 . S
H523 C499 0.930 . S
H524 C496 0.930 . S
H525 C505 0.930 . S
H526 C517 0.929 . S
H527 C520 0.930 . S
C528 C529 1.363 1_455 S
C528 C534 1.379 . S
C528 N536 1.356 . S
C529 C528 1.363 1_655 S
C529 C535 1.363 . S
C530 C531 1.363 1_655 S
C530 C535 1.379 . S
C530 N537 1.356 . S
C531 C530 1.363 1_455 S
C531 C534 1.363 . S
N532 C534 1.356 . S
N532 H544 0.984 . S
N532 H545 0.985 . S
N533 C535 1.356 . S
N533 H538 0.984 . S
N533 H539 0.985 . S
C534 C528 1.379 . S
C534 C531 1.363 . S
C534 N532 1.356 . S
C535 C529 1.363 . S
C535 C530 1.379 . S
C535 N533 1.356 . S
N536 C528 1.356 . S
N536 H542 0.984 . S
N536 H543 0.984 . S
N537 C530 1.356 . S
N537 H540 0.984 . S
N537 H541 0.985 . S
H538 N533 0.984 . S
H539 N533 0.985 . S
H540 N537 0.984 . S
H541 N537 0.985 . S
H542 N536 0.984 . S
H543 N536 0.984 . S
H544 N532 0.984 . S
H545 N532 0.985 . S
C546 C547 1.363 . S
C546 C552 1.379 . S
C546 N554 1.356 . S
C547 C546 1.363 . S
C547 C553 1.363 1_545 S
C548 C549 1.363 . S
C548 C553 1.379 . S
C548 N555 1.356 . S
C549 C548 1.363 . S
C549 C552 1.363 1_565 S
N550 C552 1.356 . S
N550 H562 0.984 . S
N550 H563 0.985 . S
N551 C553 1.356 . S
N551 H556 0.984 . S
N551 H557 0.985 . S
C552 C546 1.379 . S
C552 C549 1.363 1_545 S
C552 N550 1.356 . S
C553 C547 1.363 1_565 S
C553 C548 1.379 . S
C553 N551 1.356 . S
N554 C546 1.356 . S
N554 H560 0.984 . S
N554 H561 0.984 . S
N555 C548 1.356 . S
N555 H558 0.984 . S
N555 H559 0.985 . S
H556 N551 0.984 . S
H557 N551 0.985 . S
H558 N555 0.984 . S
H559 N555 0.985 . S
H560 N554 0.984 . S
H561 N554 0.984 . S
H562 N550 0.984 . S
H563 N550 0.985 . S
C564 C565 1.363 1_455 S
C564 C570 1.379 . S
C564 N572 1.356 . S
C565 C564 1.363 1_655 S
C565 C571 1.363 . S
C566 C567 1.363 1_655 S
C566 C571 1.379 . S
C566 N573 1.356 . S
C567 C566 1.363 1_455 S
C567 C570 1.363 . S
N568 C570 1.356 . S
N568 H580 0.984 . S
N568 H581 0.985 . S
N569 C571 1.356 . S
N569 H574 0.984 . S
N569 H575 0.985 . S
C570 C564 1.379 . S
C570 C567 1.363 . S
C570 N568 1.356 . S
C571 C565 1.363 . S
C571 C566 1.379 . S
C571 N569 1.356 . S
N572 C564 1.356 . S
N572 H578 0.984 . S
N572 H579 0.984 . S
N573 C566 1.356 . S
N573 H576 0.984 . S
N573 H577 0.985 . S
H574 N569 0.984 . S
H575 N569 0.985 . S
H576 N573 0.984 . S
H577 N573 0.985 . S
H578 N572 0.984 . S
H579 N572 0.984 . S
H580 N568 0.984 . S
H581 N568 0.985 . S
C582 C583 1.363 1_545 S
C582 C588 1.379 . S
C582 N590 1.356 . S
C583 C582 1.363 1_565 S
C583 C589 1.363 . S
C584 C585 1.363 1_565 S
C584 C589 1.379 . S
C584 N591 1.356 . S
C585 C584 1.363 1_545 S
C585 C588 1.363 . S
N586 C588 1.356 . S
N586 H598 0.984 . S
N586 H599 0.985 . S
N587 C589 1.356 . S
N587 H592 0.984 . S
N587 H593 0.985 . S
C588 C582 1.379 . S
C588 C585 1.363 . S
C588 N586 1.356 . S
C589 C583 1.363 . S
C589 C584 1.379 . S
C589 N587 1.356 . S
N590 C582 1.356 . S
N590 H596 0.984 . S
N590 H597 0.984 . S
N591 C584 1.356 . S
N591 H594 0.984 . S
N591 H595 0.985 . S
H592 N587 0.984 . S
H593 N587 0.985 . S
H594 N591 0.984 . S
H595 N591 0.985 . S
H596 N590 0.984 . S
H597 N590 0.984 . S
H598 N586 0.984 . S
H599 N586 0.985 . S
C600 C601 1.363 . S
C600 C606 1.379 1_565 S
C600 N608 1.356 . S
C601 C600 1.363 . S
C601 C607 1.363 . S
C602 C603 1.363 . S
C602 C607 1.379 1_545 S
C602 N609 1.356 . S
C603 C602 1.363 . S
C603 C606 1.363 . S
N604 C606 1.356 . S
N604 H616 0.984 . S
N604 H617 0.985 . S
N605 C607 1.356 . S
N605 H610 0.984 . S
N605 H611 0.985 . S
C606 C600 1.379 1_545 S
C606 C603 1.363 . S
C606 N604 1.356 . S
C607 C601 1.363 . S
C607 C602 1.379 1_565 S
C607 N605 1.356 . S
N608 C600 1.356 . S
N608 H614 0.984 . S
N608 H615 0.984 . S
N609 C602 1.356 . S
N609 H612 0.984 . S
N609 H613 0.985 . S
H610 N605 0.984 . S
H611 N605 0.985 . S
H612 N609 0.984 . S
H613 N609 0.985 . S
H614 N608 0.984 . S
H615 N608 0.984 . S
H616 N604 0.984 . S
H617 N604 0.985 . S
C618 C619 1.363 . S
C618 C624 1.379 1_655 S
C618 N626 1.356 . S
C619 C618 1.363 . S
C619 C625 1.363 . S
C620 C621 1.363 . S
C620 C625 1.379 1_455 S
C620 N627 1.356 . S
C621 C620 1.363 . S
C621 C624 1.363 . S
N622 C624 1.356 . S
N622 H634 0.984 . S
N622 H635 0.985 . S
N623 C625 1.356 . S
N623 H628 0.984 . S
N623 H629 0.985 . S
C624 C618 1.379 1_455 S
C624 C621 1.363 . S
C624 N622 1.356 . S
C625 C619 1.363 . S
C625 C620 1.379 1_655 S
C625 N623 1.356 . S
N626 C618 1.356 . S
N626 H632 0.984 . S
N626 H633 0.984 . S
N627 C620 1.356 . S
N627 H630 0.984 . S
N627 H631 0.985 . S
H628 N623 0.984 . S
H629 N623 0.985 . S
H630 N627 0.984 . S
H631 N627 0.985 . S
H632 N626 0.984 . S
H633 N626 0.984 . S
H634 N622 0.984 . S
H635 N622 0.985 . S
C636 C637 1.363 . S
C636 C642 1.379 1_565 S
C636 N644 1.356 . S
C637 C636 1.363 . S
C637 C643 1.363 . S
C638 C639 1.363 . S
C638 C643 1.379 1_545 S
C638 N645 1.356 . S
C639 C638 1.363 . S
C639 C642 1.363 . S
N640 C642 1.356 . S
N640 H652 0.984 . S
N640 H653 0.985 . S
N641 C643 1.356 . S
N641 H646 0.984 . S
N641 H647 0.985 . S
C642 C636 1.379 1_545 S
C642 C639 1.363 . S
C642 N640 1.356 . S
C643 C637 1.363 . S
C643 C638 1.379 1_565 S
C643 N641 1.356 . S
N644 C636 1.356 . S
N644 H650 0.984 . S
N644 H651 0.984 . S
N645 C638 1.356 . S
N645 H648 0.984 . S
N645 H649 0.985 . S
H646 N641 0.984 . S
H647 N641 0.985 . S
H648 N645 0.984 . S
H649 N645 0.985 . S
H650 N644 0.984 . S
H651 N644 0.984 . S
H652 N640 0.984 . S
H653 N640 0.985 . S
C654 C655 1.363 . S
C654 C660 1.379 1_655 S
C654 N662 1.356 . S
C655 C654 1.363 . S
C655 C661 1.363 . S
C656 C657 1.363 . S
C656 C661 1.379 1_455 S
C656 N663 1.356 . S
C657 C656 1.363 . S
C657 C660 1.363 . S
N658 C660 1.356 . S
N658 H670 0.984 . S
N658 H671 0.985 . S
N659 C661 1.356 . S
N659 H664 0.984 . S
N659 H665 0.985 . S
C660 C654 1.379 1_455 S
C660 C657 1.363 . S
C660 N658 1.356 . S
C661 C655 1.363 . S
C661 C656 1.379 1_655 S
C661 N659 1.356 . S
N662 C654 1.356 . S
N662 H668 0.984 . S
N662 H669 0.984 . S
N663 C656 1.356 . S
N663 H666 0.984 . S
N663 H667 0.985 . S
H664 N659 0.984 . S
H665 N659 0.985 . S
H666 N663 0.984 . S
H667 N663 0.985 . S
H668 N662 0.984 . S
H669 N662 0.984 . S
H670 N658 0.984 . S
H671 N658 0.985 . S
C672 C673 1.363 . S
C672 C678 1.379 . S
C672 N680 1.356 . S
C673 C672 1.363 . S
C673 C679 1.363 . S
C674 C675 1.363 . S
C674 C679 1.379 . S
C674 N681 1.356 . S
C675 C674 1.363 . S
C675 C678 1.363 . S
N676 C678 1.356 . S
N676 H688 0.984 . S
N676 H689 0.985 . S
N677 C679 1.356 . S
N677 H682 0.984 . S
N677 H683 0.985 . S
C678 C672 1.379 . S
C678 C675 1.363 . S
C678 N676 1.356 . S
C679 C673 1.363 . S
C679 C674 1.379 . S
C679 N677 1.356 . S
N680 C672 1.356 . S
N680 H686 0.987 . S
N680 H687 0.984 . S
N681 C674 1.356 . S
N681 H684 0.984 . S
N681 H685 0.985 . S
H682 N677 0.984 . S
H683 N677 0.985 . S
H684 N681 0.984 . S
H685 N681 0.985 . S
H686 N680 0.987 . S
H687 N680 0.984 . S
H688 N676 0.984 . S
H689 N676 0.985 . S
C690 C691 1.363 . S
C690 C696 1.379 . S
C690 N698 1.356 . S
C691 C690 1.363 . S
C691 C697 1.363 . S
C692 C693 1.363 . S
C692 C697 1.379 . S
C692 N699 1.356 1_545 S
C693 C692 1.363 . S
C693 C696 1.363 . S
N694 C696 1.356 . S
N694 H706 0.984 . S
N694 H707 0.985 . S
N695 C697 1.356 . S
N695 H700 0.984 . S
N695 H701 0.985 . S
C696 C690 1.379 . S
C696 C693 1.363 . S
C696 N694 1.356 . S
C697 C691 1.363 . S
C697 C692 1.379 . S
C697 N695 1.356 . S
N698 C690 1.356 . S
N698 H704 0.984 . S
N698 H705 0.984 . S
N699 C692 1.356 1_565 S
N699 H702 0.984 . S
N699 H703 0.985 . S
H700 N695 0.984 . S
H701 N695 0.985 . S
H702 N699 0.984 . S
H703 N699 0.985 . S
H704 N698 0.984 . S
H705 N698 0.984 . S
H706 N694 0.984 . S
H707 N694 0.985 . S
C708 C709 1.363 . S
C708 C714 1.379 . S
C708 N716 1.356 . S
C709 C708 1.363 . S
C709 C715 1.363 . S
C710 C711 1.363 . S
C710 C715 1.379 . S
C710 N717 1.356 . S
C711 C710 1.363 . S
C711 C714 1.363 . S
N712 C714 1.356 . S
N712 H724 0.984 . S
N712 H725 0.985 . S
N713 C715 1.356 . S
N713 H718 0.984 . S
N713 H719 0.985 . S
C714 C708 1.379 . S
C714 C711 1.363 . S
C714 N712 1.356 . S
C715 C709 1.363 . S
C715 C710 1.379 . S
C715 N713 1.356 . S
N716 C708 1.356 . S
N716 H722 0.984 . S
N716 H723 0.984 . S
N717 C710 1.356 . S
N717 H720 0.984 . S
N717 H721 0.985 . S
H718 N713 0.984 . S
H719 N713 0.985 . S
H720 N717 0.984 . S
H721 N717 0.985 . S
H722 N716 0.984 . S
H723 N716 0.984 . S
H724 N712 0.984 . S
H725 N712 0.985 . S
C726 C727 1.363 . S
C726 C732 1.379 . S
C726 N734 1.356 . S
C727 C726 1.363 . S
C727 C733 1.363 . S
C728 C729 1.363 . S
C728 C733 1.379 . S
C728 N735 1.356 . S
C729 C728 1.363 . S
C729 C732 1.363 . S
N730 C732 1.356 . S
N730 H742 0.984 . S
N730 H743 0.985 . S
N731 C733 1.356 . S
N731 H736 0.984 . S
N731 H737 0.985 . S
C732 C726 1.379 . S
C732 C729 1.363 . S
C732 N730 1.356 . S
C733 C727 1.363 . S
C733 C728 1.379 . S
C733 N731 1.356 . S
N734 C726 1.356 . S
N734 H740 0.984 . S
N734 H741 0.984 . S
N735 C728 1.356 . S
N735 H738 0.985 1_565 S
N735 H739 0.985 1_565 S
H736 N731 0.984 . S
H737 N731 0.985 . S
H738 N735 0.985 1_545 S
H739 N735 0.985 1_545 S
H740 N734 0.984 . S
H741 N734 0.984 . S
H742 N730 0.984 . S
H743 N730 0.985 . S
C744 C745 1.363 . S
C744 C750 1.379 . S
C744 N752 1.356 . S
C745 C744 1.363 . S
C745 C751 1.363 . S
C746 C747 1.363 . S
C746 C751 1.379 . S
C746 N753 1.356 . S
C747 C746 1.363 . S
C747 C750 1.363 . S
N748 C750 1.356 . S
N748 H760 0.984 . S
N748 H761 0.985 . S
N749 C751 1.356 . S
N749 H754 0.984 . S
N749 H755 0.985 . S
C750 C744 1.379 . S
C750 C747 1.363 . S
C750 N748 1.356 . S
C751 C745 1.363 . S
C751 C746 1.379 . S
C751 N749 1.356 . S
N752 C744 1.356 . S
N752 H758 0.984 . S
N752 H759 0.984 . S
N753 C746 1.356 . S
N753 H756 0.984 . S
N753 H757 0.985 . S
H754 N749 0.984 . S
H755 N749 0.985 . S
H756 N753 0.984 . S
H757 N753 0.985 . S
H758 N752 0.984 . S
H759 N752 0.984 . S
H760 N748 0.984 . S
H761 N748 0.985 . S
C762 C763 1.363 . S
C762 C768 1.379 . S
C762 N770 1.356 . S
C763 C762 1.363 . S
C763 C769 1.363 . S
C764 C765 1.363 . S
C764 C769 1.379 . S
C764 N771 1.356 . S
C765 C764 1.363 . S
C765 C768 1.363 . S
N766 C768 1.356 . S
N766 H778 0.984 . S
N766 H779 0.985 . S
N767 C769 1.356 . S
N767 H772 0.984 . S
N767 H773 0.985 . S
C768 C762 1.379 . S
C768 C765 1.363 . S
C768 N766 1.356 . S
C769 C763 1.363 . S
C769 C764 1.379 . S
C769 N767 1.356 . S
N770 C762 1.356 . S
N770 H776 0.984 . S
N770 H777 0.984 . S
N771 C764 1.356 . S
N771 H774 0.984 1_545 S
N771 H775 0.985 1_545 S
H772 N767 0.984 . S
H773 N767 0.985 . S
H774 N771 0.984 1_565 S
H775 N771 0.985 1_565 S
H776 N770 0.984 . S
H777 N770 0.984 . S
H778 N766 0.984 . S
H779 N766 0.985 . S
C780 C781 1.363 . S
C780 C786 1.379 . S
C780 N788 1.356 . S
C781 C780 1.363 . S
C781 C787 1.363 . S
C782 C783 1.363 . S
C782 C787 1.379 . S
C782 N789 1.356 . S
C783 C782 1.363 . S
C783 C786 1.363 . S
N784 C786 1.356 . S
N784 H796 0.984 . S
N784 H797 0.985 . S
N785 C787 1.356 . S
N785 H790 0.984 . S
N785 H791 0.985 . S
C786 C780 1.379 . S
C786 C783 1.363 . S
C786 N784 1.356 . S
C787 C781 1.363 . S
C787 C782 1.379 . S
C787 N785 1.356 . S
N788 C780 1.356 . S
N788 H794 0.984 . S
N788 H795 0.984 . S
N789 C782 1.356 . S
N789 H792 0.984 . S
N789 H793 0.985 . S
H790 N785 0.984 . S
H791 N785 0.985 . S
H792 N789 0.984 . S
H793 N789 0.985 . S
H794 N788 0.984 . S
H795 N788 0.984 . S
H796 N784 0.984 . S
H797 N784 0.985 . S
C798 C799 1.363 . S
C798 C804 1.379 . S
C798 N806 1.356 . S
C799 C798 1.363 . S
C799 C805 1.363 . S
C800 C801 1.363 . S
C800 C805 1.379 . S
C800 N807 1.356 . S
C801 C800 1.363 . S
C801 C804 1.363 . S
N802 C804 1.356 . S
N802 H814 0.984 . S
N802 H815 0.985 . S
N803 C805 1.356 . S
N803 H808 0.984 . S
N803 H809 0.985 . S
C804 C798 1.379 . S
C804 C801 1.363 . S
C804 N802 1.356 . S
C805 C799 1.363 . S
C805 C800 1.379 . S
C805 N803 1.356 . S
N806 C798 1.356 . S
N806 H812 0.984 . S
N806 H813 0.984 . S
N807 C800 1.356 . S
N807 H810 0.984 . S
N807 H811 0.985 . S
H808 N803 0.984 . S
H809 N803 0.985 . S
H810 N807 0.984 . S
H811 N807 0.985 . S
H812 N806 0.984 . S
H813 N806 0.984 . S
H814 N802 0.984 . S
H815 N802 0.985 . S
C816 C817 1.363 . S
C816 C822 1.379 . S
C816 N824 1.356 . S
C817 C816 1.363 . S
C817 C823 1.363 . S
C818 C819 1.363 . S
C818 C823 1.379 . S
C818 N825 1.356 . S
C819 C818 1.363 . S
C819 C822 1.363 . S
N820 C822 1.356 . S
N820 H832 0.984 . S
N820 H833 0.985 . S
N821 C823 1.356 . S
N821 H826 0.984 . S
N821 H827 0.985 . S
C822 C816 1.379 . S
C822 C819 1.363 . S
C822 N820 1.356 . S
C823 C817 1.363 . S
C823 C818 1.379 . S
C823 N821 1.356 . S
N824 C816 1.356 . S
N824 H830 0.984 . S
N824 H831 0.984 . S
N825 C818 1.356 . S
N825 H828 0.984 . S
N825 H829 0.985 . S
H826 N821 0.984 . S
H827 N821 0.985 . S
H828 N825 0.984 . S
H829 N825 0.985 . S
H830 N824 0.984 . S
H831 N824 0.984 . S
H832 N820 0.984 . S
H833 N820 0.985 . S
C834 C835 1.363 . S
C834 C840 1.379 . S
C834 N842 1.356 . S
C835 C834 1.363 . S
C835 C841 1.363 . S
C836 C837 1.363 . S
C836 C841 1.379 . S
C836 N843 1.356 . S
C837 C836 1.363 . S
C837 C840 1.363 . S
N838 C840 1.356 . S
N838 H850 0.984 . S
N838 H851 0.985 . S
N839 C841 1.356 . S
N839 H844 0.984 . S
N839 H845 0.985 . S
C840 C834 1.379 . S
C840 C837 1.363 . S
C840 N838 1.356 . S
C841 C835 1.363 . S
C841 C836 1.379 . S
C841 N839 1.356 . S
N842 C834 1.356 . S
N842 H848 0.984 . S
N842 H849 0.984 . S
N843 C836 1.356 . S
N843 H846 0.984 . S
N843 H847 0.985 . S
H844 N839 0.984 . S
H845 N839 0.985 . S
H846 N843 0.984 . S
H847 N843 0.985 . S
H848 N842 0.984 . S
H849 N842 0.984 . S
H850 N838 0.984 . S
H851 N838 0.985 . S
C852 C853 1.363 . S
C852 C858 1.379 . S
C852 N860 1.356 . S
C853 C852 1.363 . S
C853 C859 1.363 . S
C854 C855 1.363 . S
C854 C859 1.379 . S
C854 N861 1.356 . S
C855 C854 1.363 . S
C855 C858 1.363 . S
N856 C858 1.356 . S
N856 H868 0.984 . S
N856 H869 0.985 . S
N857 C859 1.356 . S
N857 H862 0.984 . S
N857 H863 0.985 . S
C858 C852 1.379 . S
C858 C855 1.363 . S
C858 N856 1.356 . S
C859 C853 1.363 . S
C859 C854 1.379 . S
C859 N857 1.356 . S
N860 C852 1.356 . S
N860 H866 0.984 . S
N860 H867 0.984 . S
N861 C854 1.356 . S
N861 H864 0.984 . S
N861 H865 0.985 . S
H862 N857 0.984 . S
H863 N857 0.985 . S
H864 N861 0.984 . S
H865 N861 0.985 . S
H866 N860 0.984 . S
H867 N860 0.984 . S
H868 N856 0.984 . S
H869 N856 0.985 . S
C870 C871 1.363 . S
C870 C876 1.379 . S
C870 N878 1.356 . S
C871 C870 1.363 . S
C871 C877 1.363 . S
C872 C873 1.363 . S
C872 C877 1.379 . S
C872 N879 1.356 . S
C873 C872 1.363 . S
C873 C876 1.363 . S
N874 C876 1.356 . S
N874 H886 0.984 . S
N874 H887 0.985 . S
N875 C877 1.356 . S
N875 H880 0.984 . S
N875 H881 0.985 . S
C876 C870 1.379 . S
C876 C873 1.363 . S
C876 N874 1.356 . S
C877 C871 1.363 . S
C877 C872 1.379 . S
C877 N875 1.356 . S
N878 C870 1.356 . S
N878 H884 0.984 . S
N878 H885 0.984 . S
N879 C872 1.356 . S
N879 H882 0.984 . S
N879 H883 0.985 . S
H880 N875 0.984 . S
H881 N875 0.985 . S
H882 N879 0.984 . S
H883 N879 0.985 . S
H884 N878 0.984 . S
H885 N878 0.984 . S
H886 N874 0.984 . S
H887 N874 0.985 . S
C888 C889 1.363 . S
C888 C894 1.379 . S
C888 N896 1.356 . S
C889 C888 1.363 . S
C889 C895 1.363 . S
C890 C891 1.363 . S
C890 C895 1.379 . S
C890 N897 1.356 . S
C891 C890 1.363 . S
C891 C894 1.363 . S
N892 C894 1.356 . S
N892 H904 0.984 . S
N892 H905 0.985 . S
N893 C895 1.356 . S
N893 H898 0.984 . S
N893 H899 0.985 . S
C894 C888 1.379 . S
C894 C891 1.363 . S
C894 N892 1.356 . S
C895 C889 1.363 . S
C895 C890 1.379 . S
C895 N893 1.356 . S
N896 C888 1.356 . S
N896 H902 0.984 . S
N896 H903 0.984 . S
N897 C890 1.356 . S
N897 H900 0.984 . S
N897 H901 0.985 . S
H898 N893 0.984 . S
H899 N893 0.985 . S
H900 N897 0.984 . S
H901 N897 0.985 . S
H902 N896 0.984 . S
H903 N896 0.984 . S
H904 N892 0.984 . S
H905 N892 0.985 . S
C906 C907 1.363 . S
C906 C912 1.379 . S
C906 N914 1.356 . S
C907 C906 1.363 . S
C907 C913 1.363 . S
C908 C909 1.363 . S
C908 C913 1.379 . S
C908 N915 1.356 . S
C909 C908 1.363 . S
C909 C912 1.363 . S
N910 C912 1.356 . S
N910 H922 0.984 . S
N910 H923 0.985 . S
N911 C913 1.356 . S
N911 H916 0.984 . S
N911 H917 0.985 . S
C912 C906 1.379 . S
C912 C909 1.363 . S
C912 N910 1.356 . S
C913 C907 1.363 . S
C913 C908 1.379 . S
C913 N911 1.356 . S
N914 C906 1.356 . S
N914 H920 0.984 . S
N914 H921 0.984 . S
N915 C908 1.356 . S
N915 H918 0.984 . S
N915 H919 0.985 . S
H916 N911 0.984 . S
H917 N911 0.985 . S
H918 N915 0.984 . S
H919 N915 0.985 . S
H920 N914 0.984 . S
H921 N914 0.984 . S
H922 N910 0.984 . S
H923 N910 0.985 . S
C924 C925 1.363 . S
C924 C930 1.379 . S
C924 N932 1.356 . S
C925 C924 1.363 . S
C925 C931 1.363 . S
C926 C927 1.363 . S
C926 C931 1.379 . S
C926 N933 1.356 . S
C927 C926 1.363 . S
C927 C930 1.363 . S
N928 C930 1.356 . S
N928 H940 0.984 . S
N928 H941 0.985 . S
N929 C931 1.356 . S
N929 H934 0.984 . S
N929 H935 0.985 . S
C930 C924 1.379 . S
C930 C927 1.363 . S
C930 N928 1.356 . S
C931 C925 1.363 . S
C931 C926 1.379 . S
C931 N929 1.356 . S
N932 C924 1.356 . S
N932 H938 0.984 . S
N932 H939 0.984 . S
N933 C926 1.356 . S
N933 H936 0.984 . S
N933 H937 0.985 . S
H934 N929 0.984 . S
H935 N929 0.985 . S
H936 N933 0.984 . S
H937 N933 0.985 . S
H938 N932 0.984 . S
H939 N932 0.984 . S
H940 N928 0.984 . S
H941 N928 0.985 . S
C942 C943 1.363 . S
C942 C948 1.379 . S
C942 N950 1.356 . S
C943 C942 1.363 . S
C943 C949 1.363 . S
C944 C945 1.363 . S
C944 C949 1.379 . S
C944 N951 1.356 . S
C945 C944 1.363 . S
C945 C948 1.363 . S
N946 C948 1.356 . S
N946 H958 0.984 . S
N946 H959 0.985 . S
N947 C949 1.356 . S
N947 H952 0.984 . S
N947 H953 0.985 . S
C948 C942 1.379 . S
C948 C945 1.363 . S
C948 N946 1.356 . S
C949 C943 1.363 . S
C949 C944 1.379 . S
C949 N947 1.356 . S
N950 C942 1.356 . S
N950 H956 0.984 . S
N950 H957 0.984 . S
N951 C944 1.356 . S
N951 H954 0.984 . S
N951 H955 0.985 . S
H952 N947 0.984 . S
H953 N947 0.985 . S
H954 N951 0.984 . S
H955 N951 0.985 . S
H956 N950 0.984 . S
H957 N950 0.984 . S
H958 N946 0.984 . S
H959 N946 0.985 . S
C960 C961 1.363 . S
C960 C966 1.379 . S
C960 N968 1.356 . S
C961 C960 1.363 . S
C961 C967 1.363 . S
C962 C963 1.363 . S
C962 C967 1.379 . S
C962 N969 1.356 . S
C963 C962 1.363 . S
C963 C966 1.363 . S
N964 C966 1.356 . S
N964 H976 0.984 . S
N964 H977 0.985 . S
N965 C967 1.356 . S
N965 H970 0.984 . S
N965 H971 0.985 . S
C966 C960 1.379 . S
C966 C963 1.363 . S
C966 N964 1.356 . S
C967 C961 1.363 . S
C967 C962 1.379 . S
C967 N965 1.356 . S
N968 C960 1.356 . S
N968 H974 0.984 . S
N968 H975 0.984 . S
N969 C962 1.356 . S
N969 H972 0.984 . S
N969 H973 0.985 . S
H970 N965 0.984 . S
H971 N965 0.985 . S
H972 N969 0.984 . S
H973 N969 0.985 . S
H974 N968 0.984 . S
H975 N968 0.984 . S
H976 N964 0.984 . S
H977 N964 0.985 . S
C978 C979 1.363 . S
C978 C984 1.379 . S
C978 N986 1.356 . S
C979 C978 1.363 . S
C979 C985 1.363 . S
C980 C981 1.363 . S
C980 C985 1.379 . S
C980 N987 1.356 . S
C981 C980 1.363 . S
C981 C984 1.363 . S
N982 C984 1.356 . S
N982 H994 0.984 . S
N982 H995 0.985 . S
N983 C985 1.356 . S
N983 H988 0.984 . S
N983 H989 0.985 . S
C984 C978 1.379 . S
C984 C981 1.363 . S
C984 N982 1.356 . S
C985 C979 1.363 . S
C985 C980 1.379 . S
C985 N983 1.356 . S
N986 C978 1.356 . S
N986 H992 0.984 . S
N986 H993 0.984 . S
N987 C980 1.356 . S
N987 H990 0.984 . S
N987 H991 0.985 . S
H988 N983 0.984 . S
H989 N983 0.985 . S
H990 N987 0.984 . S
H991 N987 0.985 . S
H992 N986 0.984 . S
H993 N986 0.984 . S
H994 N982 0.984 . S
H995 N982 0.985 . S
C996 C997 1.363 . S
C996 C1002 1.379 . S
C996 N1004 1.356 . S
C997 C996 1.363 . S
C997 C1003 1.363 . S
C998 C999 1.363 . S
C998 C1003 1.379 . S
C998 N1005 1.356 . S
C999 C998 1.363 . S
C999 C1002 1.363 . S
N1000 C1002 1.356 . S
N1000 H1012 0.984 . S
N1000 H1013 0.985 . S
N1001 C1003 1.356 . S
N1001 H1006 0.984 . S
N1001 H1007 0.985 . S
C1002 C996 1.379 . S
C1002 C999 1.363 . S
C1002 N1000 1.356 . S
C1003 C997 1.363 . S
C1003 C998 1.379 . S
C1003 N1001 1.356 . S
N1004 C996 1.356 . S
N1004 H1010 0.984 . S
N1004 H1011 0.984 . S
N1005 C998 1.356 . S
N1005 H1008 0.984 . S
N1005 H1009 0.985 . S
H1006 N1001 0.984 . S
H1007 N1001 0.985 . S
H1008 N1005 0.984 . S
H1009 N1005 0.985 . S
H1010 N1004 0.984 . S
H1011 N1004 0.984 . S
H1012 N1000 0.984 . S
H1013 N1000 0.985 . S
C1014 C1015 1.363 . S
C1014 C1020 1.379 . S
C1014 N1022 1.356 . S
C1015 C1014 1.363 . S
C1015 C1021 1.363 . S
C1016 C1017 1.363 . S
C1016 C1021 1.379 . S
C1016 N1023 1.356 . S
C1017 C1016 1.363 . S
C1017 C1020 1.363 . S
N1018 C1020 1.356 . S
N1018 H1030 0.984 . S
N1018 H1031 0.985 . S
N1019 C1021 1.356 . S
N1019 H1024 0.984 . S
N1019 H1025 0.985 . S
C1020 C1014 1.379 . S
C1020 C1017 1.363 . S
C1020 N1018 1.356 . S
C1021 C1015 1.363 . S
C1021 C1016 1.379 . S
C1021 N1019 1.356 . S
N1022 C1014 1.356 . S
N1022 H1028 0.984 . S
N1022 H1029 0.984 . S
N1023 C1016 1.356 . S
N1023 H1026 0.984 . S
N1023 H1027 0.985 . S
H1024 N1019 0.984 . S
H1025 N1019 0.985 . S
H1026 N1023 0.984 . S
H1027 N1023 0.985 . S
H1028 N1022 0.984 . S
H1029 N1022 0.984 . S
H1030 N1018 0.984 . S
H1031 N1018 0.985 . S
C1032 C1033 1.363 . S
C1032 C1038 1.379 . S
C1032 N1040 1.356 . S
C1033 C1032 1.363 . S
C1033 C1039 1.363 . S
C1034 C1035 1.363 . S
C1034 C1039 1.379 . S
C1034 N1041 1.356 . S
C1035 C1034 1.363 . S
C1035 C1038 1.363 . S
N1036 C1038 1.356 . S
N1036 H1048 0.984 . S
N1036 H1049 0.985 . S
N1037 C1039 1.356 . S
N1037 H1042 0.984 . S
N1037 H1043 0.985 . S
C1038 C1032 1.379 . S
C1038 C1035 1.363 . S
C1038 N1036 1.356 . S
C1039 C1033 1.363 . S
C1039 C1034 1.379 . S
C1039 N1037 1.356 . S
N1040 C1032 1.356 . S
N1040 H1046 0.984 . S
N1040 H1047 0.984 . S
N1041 C1034 1.356 . S
N1041 H1044 0.984 . S
N1041 H1045 0.985 . S
H1042 N1037 0.984 . S
H1043 N1037 0.985 . S
H1044 N1041 0.984 . S
H1045 N1041 0.985 . S
H1046 N1040 0.984 . S
H1047 N1040 0.984 . S
H1048 N1036 0.984 . S
H1049 N1036 0.985 . S
C1050 C1051 1.363 . S
C1050 C1056 1.379 . S
C1050 N1058 1.356 . S
C1051 C1050 1.363 . S
C1051 C1057 1.363 . S
C1052 C1053 1.363 . S
C1052 C1057 1.379 . S
C1052 N1059 1.356 . S
C1053 C1052 1.363 . S
C1053 C1056 1.363 . S
N1054 C1056 1.356 . S
N1054 H1066 0.984 . S
N1054 H1067 0.985 . S
N1055 C1057 1.356 . S
N1055 H1060 0.984 . S
N1055 H1061 0.985 . S
C1056 C1050 1.379 . S
C1056 C1053 1.363 . S
C1056 N1054 1.356 . S
C1057 C1051 1.363 . S
C1057 C1052 1.379 . S
C1057 N1055 1.356 . S
N1058 C1050 1.356 . S
N1058 H1064 0.984 . S
N1058 H1065 0.984 . S
N1059 C1052 1.356 . S
N1059 H1062 0.984 . S
N1059 H1063 0.985 . S
H1060 N1055 0.984 . S
H1061 N1055 0.985 . S
H1062 N1059 0.984 . S
H1063 N1059 0.985 . S
H1064 N1058 0.984 . S
H1065 N1058 0.984 . S
H1066 N1054 0.984 . S
H1067 N1054 0.985 . S
C1068 C1069 1.363 . S
C1068 C1074 1.379 . S
C1068 N1076 1.356 . S
C1069 C1068 1.363 . S
C1069 C1075 1.363 . S
C1070 C1071 1.363 . S
C1070 C1075 1.379 . S
C1070 N1077 1.356 . S
C1071 C1070 1.363 . S
C1071 C1074 1.363 . S
N1072 C1074 1.356 . S
N1072 H1084 0.984 . S
N1072 H1085 0.985 . S
N1073 C1075 1.356 . S
N1073 H1078 0.984 . S
N1073 H1079 0.985 . S
C1074 C1068 1.379 . S
C1074 C1071 1.363 . S
C1074 N1072 1.356 . S
C1075 C1069 1.363 . S
C1075 C1070 1.379 . S
C1075 N1073 1.356 . S
N1076 C1068 1.356 . S
N1076 H1082 0.984 . S
N1076 H1083 0.984 . S
N1077 C1070 1.356 . S
N1077 H1080 0.984 . S
N1077 H1081 0.985 . S
H1078 N1073 0.984 . S
H1079 N1073 0.985 . S
H1080 N1077 0.984 . S
H1081 N1077 0.985 . S
H1082 N1076 0.984 . S
H1083 N1076 0.984 . S
H1084 N1072 0.984 . S
H1085 N1072 0.985 . S
C1086 C1087 1.363 . S
C1086 C1092 1.379 . S
C1086 N1094 1.356 . S
C1087 C1086 1.363 . S
C1087 C1093 1.363 . S
C1088 C1089 1.363 . S
C1088 C1093 1.379 . S
C1088 N1095 1.356 . S
C1089 C1088 1.363 . S
C1089 C1092 1.363 . S
N1090 C1092 1.356 . S
N1090 H1102 0.984 . S
N1090 H1103 0.985 . S
N1091 C1093 1.356 . S
N1091 H1096 0.984 . S
N1091 H1097 0.985 . S
C1092 C1086 1.379 . S
C1092 C1089 1.363 . S
C1092 N1090 1.356 . S
C1093 C1087 1.363 . S
C1093 C1088 1.379 . S
C1093 N1091 1.356 . S
N1094 C1086 1.356 . S
N1094 H1100 0.984 . S
N1094 H1101 0.984 . S
N1095 C1088 1.356 . S
N1095 H1098 0.984 . S
N1095 H1099 0.985 . S
H1096 N1091 0.984 . S
H1097 N1091 0.985 . S
H1098 N1095 0.984 . S
H1099 N1095 0.985 . S
H1100 N1094 0.984 . S
H1101 N1094 0.984 . S
H1102 N1090 0.984 . S
H1103 N1090 0.985 . S
C1104 C1105 1.363 . S
C1104 C1110 1.379 . S
C1104 N1112 1.356 . S
C1105 C1104 1.363 . S
C1105 C1111 1.363 1_455 S
C1106 C1107 1.363 . S
C1106 C1111 1.379 . S
C1106 N1113 1.356 . S
C1107 C1106 1.363 . S
C1107 C1110 1.363 1_655 S
N1108 C1110 1.356 . S
N1108 H1120 0.984 . S
N1108 H1121 0.985 . S
N1109 C1111 1.356 . S
N1109 H1114 0.984 . S
N1109 H1115 0.985 . S
C1110 C1104 1.379 . S
C1110 C1107 1.363 1_455 S
C1110 N1108 1.356 . S
C1111 C1105 1.363 1_655 S
C1111 C1106 1.379 . S
C1111 N1109 1.356 . S
N1112 C1104 1.356 . S
N1112 H1118 0.984 . S
N1112 H1119 0.984 . S
N1113 C1106 1.356 . S
N1113 H1116 0.984 . S
N1113 H1117 0.985 . S
H1114 N1109 0.984 . S
H1115 N1109 0.985 . S
H1116 N1113 0.984 . S
H1117 N1113 0.985 . S
H1118 N1112 0.984 . S
H1119 N1112 0.984 . S
H1120 N1108 0.984 . S
H1121 N1108 0.985 . S
C1122 C1123 1.363 . S
C1122 C1128 1.379 . S
C1122 N1130 1.356 . S
C1123 C1122 1.363 . S
C1123 C1129 1.363 1_565 S
C1124 C1125 1.363 . S
C1124 C1129 1.379 . S
C1124 N1131 1.356 . S
C1125 C1124 1.363 . S
C1125 C1128 1.363 1_545 S
N1126 C1128 1.356 . S
N1126 H1138 0.984 . S
N1126 H1139 0.985 . S
N1127 C1129 1.356 . S
N1127 H1132 0.984 . S
N1127 H1133 0.985 . S
C1128 C1122 1.379 . S
C1128 C1125 1.363 1_565 S
C1128 N1126 1.356 . S
C1129 C1123 1.363 1_545 S
C1129 C1124 1.379 . S
C1129 N1127 1.356 . S
N1130 C1122 1.356 . S
N1130 H1136 0.984 . S
N1130 H1137 0.984 . S
N1131 C1124 1.356 . S
N1131 H1134 0.984 . S
N1131 H1135 0.985 . S
H1132 N1127 0.984 . S
H1133 N1127 0.985 . S
H1134 N1131 0.984 . S
H1135 N1131 0.985 . S
H1136 N1130 0.984 . S
H1137 N1130 0.984 . S
H1138 N1126 0.984 . S
H1139 N1126 0.985 . S
C1140 C1141 1.363 1_655 S
C1140 C1146 1.379 . S
C1140 N1148 1.356 . S
C1141 C1140 1.363 1_455 S
C1141 C1147 1.363 . S
C1142 C1143 1.363 1_455 S
C1142 C1147 1.379 . S
C1142 N1149 1.356 . S
C1143 C1142 1.363 1_655 S
C1143 C1146 1.363 . S
N1144 C1146 1.356 . S
N1144 H1156 0.984 . S
N1144 H1157 0.985 . S
N1145 C1147 1.356 . S
N1145 H1150 0.984 . S
N1145 H1151 0.985 . S
C1146 C1140 1.379 . S
C1146 C1143 1.363 . S
C1146 N1144 1.356 . S
C1147 C1141 1.363 . S
C1147 C1142 1.379 . S
C1147 N1145 1.356 . S
N1148 C1140 1.356 . S
N1148 H1154 0.984 . S
N1148 H1155 0.984 . S
N1149 C1142 1.356 . S
N1149 H1152 0.984 . S
N1149 H1153 0.985 . S
H1150 N1145 0.984 . S
H1151 N1145 0.985 . S
H1152 N1149 0.984 . S
H1153 N1149 0.985 . S
H1154 N1148 0.984 . S
H1155 N1148 0.984 . S
H1156 N1144 0.984 . S
H1157 N1144 0.985 . S
C1158 C1159 1.363 . S
C1158 C1164 1.379 . S
C1158 N1166 1.356 . S
C1159 C1158 1.363 . S
C1159 C1165 1.363 1_545 S
C1160 C1161 1.363 . S
C1160 C1165 1.379 . S
C1160 N1167 1.356 . S
C1161 C1160 1.363 . S
C1161 C1164 1.363 1_565 S
N1162 C1164 1.356 . S
N1162 H1174 0.984 . S
N1162 H1175 0.985 . S
N1163 C1165 1.356 . S
N1163 H1168 0.984 . S
N1163 H1169 0.985 . S
C1164 C1158 1.379 . S
C1164 C1161 1.363 1_545 S
C1164 N1162 1.356 . S
C1165 C1159 1.363 1_565 S
C1165 C1160 1.379 . S
C1165 N1163 1.356 . S
N1166 C1158 1.356 . S
N1166 H1172 0.984 . S
N1166 H1173 0.984 . S
N1167 C1160 1.356 . S
N1167 H1170 0.984 . S
N1167 H1171 0.985 . S
H1168 N1163 0.984 . S
H1169 N1163 0.985 . S
H1170 N1167 0.984 . S
H1171 N1167 0.985 . S
H1172 N1166 0.984 . S
H1173 N1166 0.984 . S
H1174 N1162 0.984 . S
H1175 N1162 0.985 . S
C1176 C1177 1.363 . S
C1176 C1182 1.379 1_556 S
C1176 N1184 1.356 . S
C1177 C1176 1.363 . S
C1177 C1183 1.363 . S
C1178 C1179 1.363 . S
C1178 C1183 1.379 1_554 S
C1178 N1185 1.356 . S
C1179 C1178 1.363 . S
C1179 C1182 1.363 . S
N1180 C1182 1.356 . S
N1180 H1192 0.984 . S
N1180 H1193 0.985 . S
N1181 C1183 1.356 . S
N1181 H1186 0.984 . S
N1181 H1187 0.985 . S
C1182 C1176 1.379 1_554 S
C1182 C1179 1.363 . S
C1182 N1180 1.356 . S
C1183 C1177 1.363 . S
C1183 C1178 1.379 1_556 S
C1183 N1181 1.356 . S
N1184 C1176 1.356 . S
N1184 H1190 0.984 . S
N1184 H1191 0.984 . S
N1185 C1178 1.356 . S
N1185 H1188 0.984 . S
N1185 H1189 0.985 . S
H1186 N1181 0.984 . S
H1187 N1181 0.985 . S
H1188 N1185 0.984 . S
H1189 N1185 0.985 . S
H1190 N1184 0.984 . S
H1191 N1184 0.984 . S
H1192 N1180 0.984 . S
H1193 N1180 0.985 . S
C1194 C1195 1.363 . S
C1194 C1200 1.379 1_554 S
C1194 N1202 1.356 . S
C1195 C1194 1.363 . S
C1195 C1201 1.363 . S
C1196 C1197 1.363 . S
C1196 C1201 1.379 1_556 S
C1196 N1203 1.356 . S
C1197 C1196 1.363 . S
C1197 C1200 1.363 . S
N1198 C1200 1.356 . S
N1198 H1210 0.984 . S
N1198 H1211 0.985 . S
N1199 C1201 1.356 . S
N1199 H1204 0.984 . S
N1199 H1205 0.985 . S
C1200 C1194 1.379 1_556 S
C1200 C1197 1.363 . S
C1200 N1198 1.356 . S
C1201 C1195 1.363 . S
C1201 C1196 1.379 1_554 S
C1201 N1199 1.356 . S
N1202 C1194 1.356 . S
N1202 H1208 0.984 . S
N1202 H1209 0.984 . S
N1203 C1196 1.356 . S
N1203 H1206 0.984 . S
N1203 H1207 0.985 . S
H1204 N1199 0.984 . S
H1205 N1199 0.985 . S
H1206 N1203 0.984 . S
H1207 N1203 0.985 . S
H1208 N1202 0.984 . S
H1209 N1202 0.984 . S
H1210 N1198 0.984 . S
H1211 N1198 0.985 . S
C1212 C1213 1.363 . S
C1212 C1218 1.379 1_554 S
C1212 N1220 1.356 . S
C1213 C1212 1.363 . S
C1213 C1219 1.363 . S
C1214 C1215 1.363 . S
C1214 C1219 1.379 1_556 S
C1214 N1221 1.356 . S
C1215 C1214 1.363 . S
C1215 C1218 1.363 . S
N1216 C1218 1.356 . S
N1216 H1228 0.984 . S
N1216 H1229 0.985 . S
N1217 C1219 1.356 . S
N1217 H1222 0.984 . S
N1217 H1223 0.985 . S
C1218 C1212 1.379 1_556 S
C1218 C1215 1.363 . S
C1218 N1216 1.356 . S
C1219 C1213 1.363 . S
C1219 C1214 1.379 1_554 S
C1219 N1217 1.356 . S
N1220 C1212 1.356 . S
N1220 H1226 0.984 . S
N1220 H1227 0.984 . S
N1221 C1214 1.356 . S
N1221 H1224 0.984 . S
N1221 H1225 0.985 . S
H1222 N1217 0.984 . S
H1223 N1217 0.985 . S
H1224 N1221 0.984 . S
H1225 N1221 0.985 . S
H1226 N1220 0.984 . S
H1227 N1220 0.984 . S
H1228 N1216 0.984 . S
H1229 N1216 0.985 . S
C1230 C1231 1.363 . S
C1230 C1236 1.379 1_556 S
C1230 N1238 1.356 . S
C1231 C1230 1.363 . S
C1231 C1237 1.363 . S
C1232 C1233 1.363 . S
C1232 C1237 1.379 1_554 S
C1232 N1239 1.356 . S
C1233 C1232 1.363 . S
C1233 C1236 1.363 . S
N1234 C1236 1.356 . S
N1234 H1246 0.984 . S
N1234 H1247 0.985 . S
N1235 C1237 1.356 . S
N1235 H1240 0.984 . S
N1235 H1241 0.985 . S
C1236 C1230 1.379 1_554 S
C1236 C1233 1.363 . S
C1236 N1234 1.356 . S
C1237 C1231 1.363 . S
C1237 C1232 1.379 1_556 S
C1237 N1235 1.356 . S
N1238 C1230 1.356 . S
N1238 H1244 0.984 . S
N1238 H1245 0.984 . S
N1239 C1232 1.356 . S
N1239 H1242 0.984 . S
N1239 H1243 0.985 . S
H1240 N1235 0.984 . S
H1241 N1235 0.985 . S
H1242 N1239 0.984 . S
H1243 N1239 0.985 . S
H1244 N1238 0.984 . S
H1245 N1238 0.984 . S
H1246 N1234 0.984 . S
H1247 N1234 0.985 . S
C529 C84 0.715 . S
C531 C18 0.715 . S
C547 C51 0.715 . S
C549 C117 0.715 . S
C565 C216 0.715 . S
C567 C150 0.715 . S
C583 C249 0.715 . S
C585 C183 0.715 . S
C601 C282 0.715 . S
C603 C348 0.715 . S
C619 C381 0.715 . S
C621 C315 0.715 . S
C637 C480 0.715 . S
C639 C414 0.715 . S
C655 C447 0.715 . S
C657 C513 0.715 . S
C673 N13 1.739 . S
C675 N508 1.739 . S
C691 N409 1.739 . S
C693 N46 1.739 . S
C709 N442 1.739 . S
C711 N79 1.739 . S
C727 N475 1.739 . S
C729 N112 1.739 . S
C745 N310 1.739 . S
C747 N145 1.739 . S
C763 N343 1.739 . S
C765 N178 1.739 . S
C781 N376 1.739 . S
C783 N211 1.739 . S
C799 N277 1.739 . S
C801 N244 1.739 . S
C817 C7 1.474 . S
C819 C120 1.464 . S
C835 C21 1.464 . S
C837 C40 1.474 . S
C853 C73 1.474 . S
C855 C54 1.464 . S
C871 C87 1.464 . S
C873 C106 1.474 . S
C889 C186 1.464 . S
C891 C139 1.474 . S
C907 C172 1.474 . S
C909 C219 1.464 . S
C925 C252 1.464 . S
C927 C205 1.474 . S
C943 C153 1.464 . S
C945 C238 1.474 . S
C961 C271 1.474 . S
C963 C384 1.464 . S
C979 C285 1.464 . S
C981 C304 1.474 . S
C997 C337 1.474 . S
C999 C318 1.464 . S
C1015 C370 1.474 . S
C1017 C351 1.464 . S
C1033 C403 1.474 . S
C1035 C450 1.464 . S
C1051 C483 1.464 . S
C1053 C436 1.474 . S
C1069 C516 1.464 . S
C1071 C469 1.474 . S
C1087 C502 1.474 . S
C1089 C417 1.464 . S
C1105 N2 1.543 . S
C1107 N200 1.543 . S
C1123 N233 1.543 . S
C1125 N35 1.543 . S
C1141 N134 1.543 . S
C1143 N68 1.543 . S
C1159 N167 1.543 . S
C1161 N101 1.543 . S
C1177 N266 1.543 . S
C1179 N464 1.543 . S
C1195 N497 1.543 . S
C1197 N299 1.543 . S
C1213 N398 1.543 . S
C1215 N332 1.543 . S
C1231 N365 1.543 . S
C1233 N431 1.543 . S
