# Generated by pormake.
# Topology umg, (4)-cn, num edge types: 1
# Building blocks:
#     Node 0, Type 0, BuildingBlock: QUQFOY_clean_sbu_3, # of connection points: 4
#     Node 1, Type 0, BuildingBlock: QUQFOY_clean_sbu_3, # of connection points: 4
#     Node 2, Type 0, BuildingBlock: QUQFOY_clean_sbu_3, # of connection points: 4
#     Node 3, Type 0, BuildingBlock: QUQFOY_clean_sbu_3, # of connection points: 4
#     Node 4, Type 0, BuildingBlock: QUQFOY_clean_sbu_3, # of connection points: 4
#     Node 5, Type 0, BuildingBlock: QUQFOY_clean_sbu_3, # of connection points: 4
#     Node 6, Type 0, BuildingBlock: QUQFOY_clean_sbu_3, # of connection points: 4
#     Node 7, Type 0, BuildingBlock: QUQFOY_clean_sbu_3, # of connection points: 4
#     Node 8, Type 0, BuildingBlock: QUQFOY_clean_sbu_3, # of connection points: 4
#     Node 9, Type 0, BuildingBlock: QUQFOY_clean_sbu_3, # of connection points: 4
#     Node 10, Type 0, BuildingBlock: QUQFOY_clean_sbu_3, # of connection points: 4
#     Node 11, Type 0, BuildingBlock: QUQFOY_clean_sbu_3, # of connection points: 4
#     Edge 12, Type (0, 0), BuildingBlock: UVAHIK_clean_linker_0, # of connection points: 2
#     Edge 13, Type (0, 0), BuildingBlock: UVAHIK_clean_linker_0, # of connection points: 2
#     Edge 14, Type (0, 0), BuildingBlock: UVAHIK_clean_linker_0, # of connection points: 2
#     Edge 15, Type (0, 0), BuildingBlock: UVAHIK_clean_linker_0, # of connection points: 2
#     Edge 16, Type (0, 0), BuildingBlock: UVAHIK_clean_linker_0, # of connection points: 2
#     Edge 17, Type (0, 0), BuildingBlock: UVAHIK_clean_linker_0, # of connection points: 2
#     Edge 18, Type (0, 0), BuildingBlock: UVAHIK_clean_linker_0, # of connection points: 2
#     Edge 19, Type (0, 0), BuildingBlock: UVAHIK_clean_linker_0, # of connection points: 2
#     Edge 20, Type (0, 0), BuildingBlock: UVAHIK_clean_linker_0, # of connection points: 2
#     Edge 21, Type (0, 0), BuildingBlock: UVAHIK_clean_linker_0, # of connection points: 2
#     Edge 22, Type (0, 0), BuildingBlock: UVAHIK_clean_linker_0, # of connection points: 2
#     Edge 23, Type (0, 0), BuildingBlock: UVAHIK_clean_linker_0, # of connection points: 2
#     Edge 24, Type (0, 0), BuildingBlock: UVAHIK_clean_linker_0, # of connection points: 2
#     Edge 25, Type (0, 0), BuildingBlock: UVAHIK_clean_linker_0, # of connection points: 2
#     Edge 26, Type (0, 0), BuildingBlock: UVAHIK_clean_linker_0, # of connection points: 2
#     Edge 27, Type (0, 0), BuildingBlock: UVAHIK_clean_linker_0, # of connection points: 2
#     Edge 28, Type (0, 0), BuildingBlock: UVAHIK_clean_linker_0, # of connection points: 2
#     Edge 29, Type (0, 0), BuildingBlock: UVAHIK_clean_linker_0, # of connection points: 2
#     Edge 30, Type (0, 0), BuildingBlock: UVAHIK_clean_linker_0, # of connection points: 2
#     Edge 31, Type (0, 0), BuildingBlock: UVAHIK_clean_linker_0, # of connection points: 2
#     Edge 32, Type (0, 0), BuildingBlock: UVAHIK_clean_linker_0, # of connection points: 2
#     Edge 33, Type (0, 0), BuildingBlock: UVAHIK_clean_linker_0, # of connection points: 2
#     Edge 34, Type (0, 0), BuildingBlock: UVAHIK_clean_linker_0, # of connection points: 2
#     Edge 35, Type (0, 0), BuildingBlock: UVAHIK_clean_linker_0, # of connection points: 2
# Relax obj value: 0.087
# Max RMSD: 0.355
# Mean RMSD: 0.214
data_MOF--net-umg--node1-QUQFOY_clean_sbu_3--edge1-UVAHIK_clean_linker_0
_symmetry_space_group_name_H-M    P1
_symmetry_Int_Tables_number       1
_symmetry_cell_setting            triclinic
loop_
_symmetry_equiv_pos_as_xyz
'x, y, z'
_cell_length_a     36.914403
_cell_length_b     36.902908
_cell_length_c     103.30202
_cell_angle_alpha  90.025491
_cell_angle_beta   90.003645
_cell_angle_gamma 120.00184
loop_
_atom_site_label
_atom_site_type_symbol
_atom_site_fract_x
_atom_site_fract_y
_atom_site_fract_z
_atom_type_partial_charge
C0 C 0.35522 0.89365 0.07634 0.0
O1 O 0.34294 0.90978 0.06782 0.0
Cd2 Cd 0.30981 0.86853 0.0485 0.0
O3 O 0.35102 0.85777 0.07453 0.0
Cd4 Cd 0.32547 0.80171 0.0586 0.0
C5 C 0.22727 0.78383 0.06243 0.0
O6 O 0.34351 0.83579 0.03691 0.0
O7 O 0.29802 0.7693 0.03844 0.0
O8 O 0.39136 0.80324 0.06082 0.0
C9 C 0.32129 0.80047 0.03138 0.0
O10 O 0.24036 0.8166 0.05554 0.0
C11 C 0.37641 0.76596 0.0648 0.0
O12 O 0.25227 0.77126 0.06598 0.0
O13 O 0.3369 0.74466 0.06624 0.0
C14 C 0.82874 0.32519 0.45027 0.0
O15 O 0.79288 0.32078 0.44812 0.0
Cd16 Cd 0.76066 0.30233 0.42714 0.0
O17 O 0.85027 0.3228 0.44102 0.0
Cd18 Cd 0.84866 0.31566 0.41712 0.0
C19 C 0.76938 0.21554 0.41937 0.0
O20 O 0.81004 0.35161 0.41221 0.0
O21 O 0.8186 0.31873 0.39627 0.0
O22 O 0.91655 0.37802 0.41766 0.0
C23 C 0.80503 0.34226 0.40028 0.0
O24 O 0.74723 0.23179 0.42252 0.0
C25 C 0.93675 0.36273 0.41226 0.0
O26 O 0.80852 0.23853 0.41728 0.0
O27 O 0.91586 0.3245 0.40885 0.0
C28 C 0.10718 0.46286 0.74418 0.0
O29 O 0.08788 0.43476 0.73572 0.0
Cd30 Cd 0.12674 0.43971 0.71618 0.0
O31 O 0.14393 0.49251 0.74189 0.0
Cd32 Cd 0.19776 0.52093 0.72528 0.0
C33 C 0.21199 0.43858 0.72877 0.0
O34 O 0.15914 0.50594 0.70449 0.0
O35 O 0.22396 0.52049 0.70428 0.0
O36 O 0.19909 0.58635 0.72862 0.0
C37 C 0.19206 0.51508 0.69806 0.0
O38 O 0.17791 0.41954 0.72242 0.0
C39 C 0.23753 0.60808 0.73149 0.0
O40 O 0.22658 0.47662 0.73216 0.0
O41 O 0.2584 0.58915 0.73166 0.0
C42 C 0.67355 0.50173 0.11455 0.0
O43 O 0.6761 0.46991 0.1113 0.0
Cd44 Cd 0.69326 0.45979 0.08978 0.0
O45 O 0.67704 0.52838 0.10608 0.0
Cd46 Cd 0.68358 0.5382 0.08223 0.0
C47 C 0.78224 0.5556 0.08392 0.0
O48 O 0.64495 0.46508 0.07568 0.0
O49 O 0.68249 0.50896 0.06079 0.0
O50 O 0.62303 0.54634 0.08419 0.0
C51 C 0.65611 0.47162 0.06392 0.0
O52 O 0.76478 0.51637 0.08597 0.0
C53 C 0.63842 0.58181 0.07878 0.0
O54 O 0.76039 0.57341 0.0827 0.0
O55 O 0.6759 0.59795 0.07471 0.0
C56 C 0.52797 0.64178 0.41171 0.0
O57 O 0.55584 0.64993 0.40323 0.0
Cd58 Cd 0.55177 0.68483 0.38379 0.0
O59 O 0.4986 0.64926 0.40938 0.0
Cd60 Cd 0.4706 0.67463 0.39258 0.0
C61 C 0.55251 0.77018 0.39728 0.0
O62 O 0.48674 0.65412 0.37148 0.0
O63 O 0.47698 0.70751 0.37215 0.0
O64 O 0.40505 0.60983 0.3947 0.0
C65 C 0.48088 0.68088 0.36545 0.0
O66 O 0.57163 0.75554 0.39077 0.0
C67 C 0.38284 0.62591 0.39772 0.0
O68 O 0.51427 0.74666 0.40045 0.0
O69 O 0.4015 0.66566 0.39847 0.0
C70 C 0.49751 0.17271 0.78035 0.0
O71 O 0.52858 0.20776 0.77717 0.0
Cd72 Cd 0.54041 0.234 0.75546 0.0
O73 O 0.47227 0.14835 0.77177 0.0
Cd74 Cd 0.46364 0.14328 0.7479 0.0
C75 C 0.44401 0.22383 0.74819 0.0
O76 O 0.5376 0.17947 0.74237 0.0
O77 O 0.49508 0.16629 0.72638 0.0
O78 O 0.45701 0.07536 0.75046 0.0
C79 C 0.53241 0.18064 0.73028 0.0
O80 O 0.48286 0.24649 0.75069 0.0
C81 C 0.42146 0.05432 0.74516 0.0
O82 O 0.42735 0.18422 0.74704 0.0
O83 O 0.40438 0.07468 0.741 0.0
C84 C 0.50428 0.67801 0.54496 0.0
O85 O 0.47065 0.67749 0.54793 0.0
Cd86 Cd 0.45776 0.69108 0.56975 0.0
O87 O 0.53049 0.68243 0.55369 0.0
Cd88 Cd 0.53956 0.68664 0.5774 0.0
C89 C 0.55029 0.78277 0.57671 0.0
O90 O 0.46619 0.64406 0.58363 0.0
O91 O 0.50953 0.67993 0.59887 0.0
O92 O 0.55333 0.63127 0.57233 0.0
C93 C 0.47237 0.65375 0.59553 0.0
O94 O 0.51097 0.76329 0.57464 0.0
C95 C 0.58622 0.64421 0.57905 0.0
O96 O 0.57045 0.76305 0.5774 0.0
O97 O 0.59839 0.67798 0.58539 0.0
C98 C 0.46733 0.10901 0.9151 0.0
O99 O 0.43804 0.08878 0.92312 0.0
Cd100 Cd 0.44133 0.12637 0.94284 0.0
O101 O 0.49659 0.14548 0.91792 0.0
Cd102 Cd 0.52306 0.19793 0.93494 0.0
C103 C 0.44147 0.21242 0.93033 0.0
O104 O 0.50597 0.15815 0.95546 0.0
O105 O 0.51775 0.22205 0.95591 0.0
O106 O 0.58892 0.19937 0.93275 0.0
C107 C 0.51306 0.19026 0.96204 0.0
O108 O 0.42174 0.17793 0.93645 0.0
C109 C 0.61103 0.23782 0.92994 0.0
O110 O 0.47991 0.2273 0.92742 0.0
O111 O 0.59219 0.25874 0.92933 0.0
C112 C 0.32054 0.82505 0.20994 0.0
O113 O 0.31281 0.78814 0.21241 0.0
Cd114 Cd 0.29747 0.75891 0.23379 0.0
O115 O 0.32176 0.84897 0.21903 0.0
Cd116 Cd 0.31516 0.84981 0.24294 0.0
C117 C 0.2136 0.77224 0.24145 0.0
O118 O 0.34889 0.80921 0.24809 0.0
O119 O 0.31866 0.82135 0.26406 0.0
O120 O 0.37857 0.9171 0.24188 0.0
C121 C 0.34052 0.80581 0.26009 0.0
O122 O 0.22863 0.74876 0.23866 0.0
C123 C 0.3642 0.93827 0.24719 0.0
O124 O 0.23762 0.81153 0.24307 0.0
O125 O 0.32612 0.91825 0.25077 0.0
C126 C 0.88974 0.35784 0.58289 0.0
O127 O 0.90585 0.34291 0.59056 0.0
Cd128 Cd 0.86996 0.30533 0.61019 0.0
O129 O 0.85475 0.35482 0.58554 0.0
Cd130 Cd 0.79808 0.32928 0.60117 0.0
C131 C 0.77664 0.22729 0.59801 0.0
O132 O 0.83295 0.33287 0.62196 0.0
O133 O 0.78976 0.35589 0.62175 0.0
O134 O 0.79762 0.38758 0.59094 0.0
C135 C 0.81351 0.34736 0.62824 0.0
O136 O 0.81333 0.23971 0.60233 0.0
C137 C 0.75813 0.37182 0.59111 0.0
O138 O 0.76261 0.25257 0.59684 0.0
O139 O 0.73643 0.3346 0.59544 0.0
C140 C 0.16607 0.49 0.87673 0.0
O141 O 0.20142 0.52202 0.87899 0.0
Cd142 Cd 0.23205 0.53596 0.90017 0.0
O143 O 0.14444 0.46594 0.88593 0.0
Cd144 Cd 0.14506 0.46115 0.90984 0.0
C145 C 0.22488 0.44123 0.90805 0.0
O146 O 0.1815 0.53578 0.91469 0.0
O147 O 0.17538 0.49511 0.9306 0.0
O148 O 0.07703 0.45494 0.90863 0.0
C149 C 0.18671 0.53179 0.92662 0.0
O150 O 0.24676 0.47974 0.905 0.0
C151 C 0.0568 0.42004 0.91436 0.0
O152 O 0.18558 0.42458 0.90993 0.0
O153 O 0.07772 0.40324 0.91825 0.0
C154 C 0.63698 0.52721 0.24908 0.0
O155 O 0.64563 0.55581 0.25733 0.0
Cd156 Cd 0.6824 0.55349 0.27659 0.0
O157 O 0.6456 0.49864 0.25144 0.0
Cd158 Cd 0.67413 0.47248 0.26776 0.0
C159 C 0.76816 0.55664 0.26257 0.0
O160 O 0.65453 0.4887 0.289 0.0
O161 O 0.70852 0.48 0.28795 0.0
O162 O 0.61046 0.40572 0.26601 0.0
C163 C 0.68222 0.48383 0.29484 0.0
O164 O 0.75309 0.57512 0.2692 0.0
C165 C 0.62723 0.38446 0.26262 0.0
O166 O 0.74533 0.51818 0.25949 0.0
O167 O 0.66691 0.40416 0.26155 0.0
C168 C 0.22602 0.56628 0.94686 0.0
C169 C 0.20758 0.56856 0.93523 0.0
C170 C 0.24654 0.60135 0.95487 0.0
C171 C 0.24669 0.69478 0.96491 0.0
H172 H 0.35676 0.72773 0.97858 0.0
C173 C 0.31305 0.80911 0.00775 0.0
C174 C 0.3265 0.79296 0.01775 0.0
C175 C 0.3078 0.79266 0.99519 0.0
C176 C 0.32606 0.71904 0.97484 0.0
H177 H 0.19557 0.60901 0.92293 0.0
H178 H 0.23036 0.67007 0.93722 0.0
H179 H 0.32686 0.67473 0.96159 0.0
H180 H 0.34768 0.74956 0.02255 0.0
H181 H 0.339 0.72118 0.00087 0.0
H182 H 0.24438 0.73671 0.97874 0.0
C183 C 0.22945 0.6413 0.93998 0.0
C184 C 0.30903 0.68875 0.96511 0.0
C185 C 0.20965 0.60645 0.93183 0.0
C186 C 0.33758 0.76265 0.01491 0.0
C187 C 0.33273 0.74655 0.00244 0.0
C188 C 0.26345 0.72468 0.97478 0.0
C189 C 0.24833 0.63911 0.95152 0.0
C190 C 0.2687 0.67545 0.96036 0.0
C191 C 0.31619 0.76008 0.99253 0.0
C192 C 0.30275 0.73606 0.98019 0.0
H193 H 0.22498 0.53753 0.94972 0.0
H194 H 0.26043 0.59876 0.96381 0.0
H195 H 0.21545 0.68492 0.9614 0.0
H196 H 0.30387 0.83217 0.00981 0.0
H197 H 0.29539 0.80405 0.98773 0.0
C198 C 0.77009 0.38446 0.3962 0.0
C199 C 0.78302 0.35683 0.39162 0.0
C200 C 0.75007 0.39895 0.38795 0.0
C201 C 0.69349 0.37731 0.35678 0.0
H202 H 0.73882 0.4974 0.35548 0.0
C203 C 0.64763 0.45175 0.31587 0.0
C204 C 0.68349 0.48007 0.30897 0.0
C205 C 0.65144 0.43977 0.32845 0.0
C206 C 0.72537 0.46374 0.35587 0.0
H207 H 0.78441 0.32215 0.37485 0.0
H208 H 0.74963 0.34756 0.36044 0.0
H209 H 0.76157 0.4673 0.37251 0.0
H210 H 0.75058 0.52079 0.30998 0.0
H211 H 0.75718 0.50107 0.33195 0.0
H212 H 0.65898 0.37398 0.33974 0.0
C213 C 0.7546 0.35771 0.37045 0.0
C214 C 0.73827 0.44648 0.36563 0.0
C215 C 0.77486 0.34343 0.37867 0.0
C216 C 0.7225 0.499 0.31517 0.0
C217 C 0.72621 0.48777 0.32776 0.0
C218 C 0.68035 0.39454 0.34708 0.0
C219 C 0.74226 0.38586 0.37497 0.0
C220 C 0.72358 0.40324 0.36591 0.0
C221 C 0.69104 0.45667 0.33433 0.0
C222 C 0.6973 0.43808 0.34625 0.0
H223 H 0.77581 0.39525 0.40614 0.0
H224 H 0.74073 0.42045 0.39171 0.0
H225 H 0.68119 0.34381 0.35687 0.0
H226 H 0.61729 0.43644 0.31119 0.0
H227 H 0.62382 0.41583 0.33332 0.0
C228 C 0.19493 0.49778 0.67508 0.0
C229 C 0.19698 0.52652 0.68435 0.0
C230 C 0.21515 0.51197 0.66315 0.0
C231 C 0.31286 0.59121 0.65442 0.0
H232 H 0.28493 0.57293 0.61795 0.0
C233 C 0.4421 0.66196 0.61614 0.0
C234 C 0.43733 0.63927 0.60476 0.0
C235 C 0.40884 0.64917 0.62476 0.0
C236 C 0.29328 0.57783 0.6281 0.0
H237 H 0.2189 0.59179 0.68834 0.0
H238 H 0.25477 0.61669 0.66757 0.0
H239 H 0.22885 0.54784 0.63414 0.0
H240 H 0.39422 0.58529 0.59346 0.0
H241 H 0.33661 0.56149 0.60886 0.0
H242 H 0.37667 0.61865 0.64879 0.0
C243 C 0.23683 0.58332 0.66936 0.0
C244 C 0.26116 0.56382 0.63731 0.0
C245 C 0.21618 0.56909 0.68118 0.0
C246 C 0.39867 0.60339 0.60217 0.0
C247 C 0.36555 0.59002 0.61095 0.0
C248 C 0.34478 0.60434 0.64532 0.0
C249 C 0.2382 0.55505 0.66056 0.0
C250 C 0.2709 0.5708 0.65052 0.0
C251 C 0.37022 0.61273 0.62239 0.0
C252 C 0.33558 0.59818 0.63201 0.0
H253 H 0.18112 0.46494 0.6775 0.0
H254 H 0.21635 0.48977 0.65655 0.0
H255 H 0.32095 0.59607 0.66461 0.0
H256 H 0.47138 0.69012 0.61829 0.0
H257 H 0.41348 0.6682 0.63326 0.0
C258 C 0.66908 0.4395 0.04448 0.0
C259 C 0.64296 0.43661 0.05476 0.0
C260 C 0.65723 0.40576 0.03607 0.0
C261 C 0.57792 0.29166 0.03178 0.0
H262 H 0.61164 0.31739 0.99588 0.0
C263 C 0.49746 0.19868 0.98474 0.0
C264 C 0.52399 0.195 0.97579 0.0
C265 C 0.5132 0.21859 -0.00338 0.0
C266 C 0.60256 0.30973 0.00593 0.0
H267 H 0.58387 0.39664 0.06428 0.0
H268 H 0.5617 0.33878 0.04914 0.0
H269 H 0.63636 0.37375 0.01155 0.0
H270 H 0.58672 0.2067 0.97231 0.0
H271 H 0.61461 0.24253 0.99298 0.0
H272 H 0.5412 0.22756 0.02561 0.0
C273 C 0.59221 0.36618 0.04782 0.0
C274 C 0.61686 0.34204 0.01497 0.0
C275 C 0.60464 0.39955 0.05643 0.0
C276 C 0.56555 0.20837 0.97924 0.0
C277 C 0.58153 0.22906 0.99099 0.0
C278 C 0.56271 0.25938 0.0226 0.0
C279 C 0.61836 0.36871 0.0375 0.0
C280 C 0.60459 0.33363 0.02804 0.0
C281 C 0.55589 0.23596 -0.00052 0.0
C282 C 0.57491 0.2683 0.00962 0.0
H283 H 0.69913 0.46755 0.0431 0.0
H284 H 0.67884 0.40879 0.0285 0.0
H285 H 0.56839 0.28363 0.04176 0.0
H286 H 0.46558 0.18943 0.9821 0.0
H287 H 0.49305 0.22406 0.00297 0.0
C288 C 0.34245 0.77775 0.282 0.0
C289 C 0.3541 0.78323 0.26889 0.0
C290 C 0.35579 0.75692 0.29034 0.0
C291 C 0.44016 0.73337 0.29463 0.0
H292 H 0.36836 0.66101 0.32193 0.0
C293 C 0.44489 0.64506 0.34499 0.0
C294 C 0.47605 0.68071 0.35134 0.0
C295 C 0.43198 0.64854 0.33252 0.0
C296 C 0.38862 0.68039 0.3142 0.0
H297 H 0.38832 0.77059 0.2542 0.0
H298 H 0.41181 0.73444 0.26881 0.0
H299 H 0.33882 0.68429 0.3049 0.0
H300 H 0.52051 0.7468 0.34947 0.0
H301 H 0.49921 0.7527 0.32762 0.0
H302 H 0.4903 0.73089 0.30426 0.0
C303 C 0.39248 0.74639 0.27263 0.0
C304 C 0.37181 0.69417 0.30456 0.0
C305 C 0.37897 0.76703 0.26427 0.0
C306 C 0.49664 0.71887 0.34468 0.0
C307 C 0.48443 0.72217 0.33217 0.0
C308 C 0.45703 0.71984 0.30433 0.0
C309 C 0.38119 0.74127 0.28577 0.0
C310 C 0.39764 0.72183 0.29489 0.0
C311 C 0.4507 0.68754 0.32619 0.0
C312 C 0.43168 0.69424 0.31444 0.0
H313 H 0.32332 0.78986 0.28587 0.0
H314 H 0.3471 0.75407 0.30046 0.0
H315 H 0.46091 0.75475 0.28733 0.0
H316 H 0.42822 0.61546 0.35006 0.0
H317 H 0.40598 0.62134 0.3281 0.0
C318 C 0.56207 0.20225 0.70799 0.0
C319 C 0.56842 0.20049 0.72132 0.0
C320 C 0.59615 0.22244 0.69961 0.0
C321 C 0.7092 0.26046 0.69629 0.0
H322 H 0.70047 0.32882 0.66937 0.0
C323 C 0.79959 0.3721 0.64895 0.0
C324 C 0.80969 0.34495 0.64244 0.0
C325 C 0.7808 0.36152 0.66113 0.0
C326 C 0.70402 0.31061 0.67697 0.0
H327 H 0.6155 0.21769 0.73629 0.0
H328 H 0.67504 0.25326 0.72163 0.0
H329 H 0.64472 0.29482 0.68508 0.0
H330 H 0.81258 0.28797 0.64406 0.0
H331 H 0.77868 0.26874 0.66519 0.0
H332 H 0.76868 0.2763 0.68803 0.0
C333 C 0.64371 0.23878 0.71766 0.0
C334 C 0.67156 0.29045 0.68585 0.0
C335 C 0.60958 0.21859 0.72606 0.0
C336 C 0.80525 0.30954 0.64893 0.0
C337 C 0.78568 0.29849 0.66104 0.0
C338 C 0.74186 0.28071 0.68735 0.0
C339 C 0.63736 0.24137 0.70437 0.0
C340 C 0.67335 0.26455 0.69547 0.0
C341 C 0.77086 0.32308 0.66687 0.0
C342 C 0.73939 0.30564 0.67748 0.0
H343 H 0.53076 0.18833 0.70403 0.0
H344 H 0.5902 0.2232 0.68937 0.0
H345 H 0.71145 0.24061 0.70358 0.0
H346 H 0.80305 0.39979 0.64417 0.0
H347 H 0.77106 0.38186 0.66557 0.0
C348 C 0.32092 0.81285 0.18611 0.0
C349 C 0.329 0.84064 0.19643 0.0
C350 C 0.32981 0.82753 0.17339 0.0
C351 C 0.35103 0.9176 0.15238 0.0
H352 H 0.39174 0.86308 0.1293 0.0
C353 C 0.40136 0.91103 0.09551 0.0
C354 C 0.36815 0.91218 0.08931 0.0
C355 C 0.40557 0.91484 0.10894 0.0
C356 C 0.38129 0.87949 0.1356 0.0
H357 H 0.35251 0.90574 0.20148 0.0
H358 H 0.36888 0.93149 0.17927 0.0
H359 H 0.38084 0.8438 0.15191 0.0
H360 H 0.31527 0.92146 0.09204 0.0
H361 H 0.32141 0.92651 0.11556 0.0
H362 H 0.35208 0.95372 0.13599 0.0
C363 C 0.35503 0.89822 0.18099 0.0
C364 C 0.37421 0.86771 0.14859 0.0
C365 C 0.3458 0.88346 0.19373 0.0
C366 C 0.34146 0.92101 0.09662 0.0
C367 C 0.34501 0.92379 0.11013 0.0
C368 C 0.35846 0.92968 0.13934 0.0
C369 C 0.34745 0.87046 0.17067 0.0
C370 C 0.35806 0.88584 0.15709 0.0
C371 C 0.37576 0.91841 0.1165 0.0
C372 C 0.37299 0.91022 0.13072 0.0
H373 H 0.30757 0.77963 0.18782 0.0
H374 H 0.32257 0.80505 0.16568 0.0
H375 H 0.3385 0.93219 0.15865 0.0
H376 H 0.42237 0.90431 0.09004 0.0
H377 H 0.43057 0.9121 0.11346 0.0
C378 C 0.83061 0.35114 0.47278 0.0
C379 C 0.84649 0.3349 0.4635 0.0
C380 C 0.84821 0.36165 0.48514 0.0
C381 C 0.90166 0.33478 0.50924 0.0
H382 H 0.92641 0.44012 0.525 0.0
C383 C 0.93233 0.35894 0.56378 0.0
C384 C 0.90731 0.37277 0.56982 0.0
C385 C 0.93913 0.36362 0.55038 0.0
C386 C 0.91969 0.41055 0.52076 0.0
H387 H 0.89294 0.31641 0.45995 0.0
H388 H 0.92284 0.33366 0.48177 0.0
H389 H 0.9077 0.42779 0.50211 0.0
H390 H 0.87375 0.40637 0.56686 0.0
H391 H 0.88501 0.41406 0.54374 0.0
H392 H 0.91073 0.31619 0.52798 0.0
C393 C 0.89718 0.33877 0.47935 0.0
C394 C 0.90904 0.40358 0.50765 0.0
C395 C 0.88008 0.32896 0.46689 0.0
C396 C 0.89283 0.39499 0.56247 0.0
C397 C 0.89959 0.39967 0.54915 0.0
C398 C 0.91172 0.34149 0.5224 0.0
C399 C 0.88159 0.3555 0.48855 0.0
C400 C 0.89873 0.36516 0.50187 0.0
C401 C 0.92115 0.38234 0.54283 0.0
C402 C 0.91949 0.37894 0.52843 0.0
H403 H 0.80489 0.35624 0.47046 0.0
H404 H 0.83524 0.37398 0.49212 0.0
H405 H 0.89371 0.30483 0.50501 0.0
H406 H 0.94405 0.34181 0.5692 0.0
H407 H 0.95664 0.35069 0.54585 0.0
C408 C 0.10539 0.49636 0.7648 0.0
C409 C 0.08996 0.45992 0.75728 0.0
C410 C 0.09801 0.49384 0.77808 0.0
C411 C 0.08359 0.42257 0.80453 0.0
H412 H 0.08736 0.51262 0.82495 0.0
C413 C 0.11559 0.44183 0.86004 0.0
C414 C 0.14879 0.48159 0.86345 0.0
C415 C 0.09854 0.43432 0.84757 0.0
C416 C 0.08607 0.48713 0.81937 0.0
H417 H 0.05149 0.39236 0.7575 0.0
H418 H 0.03821 0.38781 0.78086 0.0
H419 H 0.06896 0.50657 0.80204 0.0
H420 H 0.18995 0.54464 0.85649 0.0
H421 H 0.15974 0.53162 0.83481 0.0
H422 H 0.1016 0.40381 0.82189 0.0
C423 C 0.05656 0.41837 0.77647 0.0
C424 C 0.07555 0.48362 0.80627 0.0
C425 C 0.0638 0.42096 0.76309 0.0
C426 C 0.1645 0.51366 0.85416 0.0
C427 C 0.14698 0.50633 0.84179 0.0
C428 C 0.0936 0.4258 0.8177 0.0
C429 C 0.07507 0.45474 0.78419 0.0
C430 C 0.07594 0.45238 0.79855 0.0
C431 C 0.11383 0.46664 0.83838 0.0
C432 C 0.09651 0.45907 0.82509 0.0
H433 H 0.12539 0.52687 0.76055 0.0
H434 H 0.11307 0.52253 0.78365 0.0
H435 H 0.08465 0.39838 0.79889 0.0
H436 H 0.10288 0.41646 0.86699 0.0
H437 H 0.07308 0.40342 0.84515 0.0
C438 C 0.6717 0.54592 0.13277 0.0
C439 C 0.6652 0.50718 0.12821 0.0
C440 C 0.66395 0.55078 0.14574 0.0
C441 C 0.6517 0.50043 0.17777 0.0
H442 H 0.60498 0.56945 0.18843 0.0
C443 C 0.59871 0.49142 0.22913 0.0
C444 C 0.62254 0.52903 0.23592 0.0
C445 C 0.59649 0.49143 0.21567 0.0
C446 C 0.61805 0.55016 0.18553 0.0
H447 H 0.64419 0.44288 0.13358 0.0
H448 H 0.62948 0.45085 0.15596 0.0
H449 H 0.61773 0.56388 0.16536 0.0
H450 H 0.65878 0.59651 0.23415 0.0
H451 H 0.65488 0.5965 0.21041 0.0
H452 H 0.65135 0.48606 0.1978 0.0
C453 C 0.64186 0.47797 0.1497 0.0
C454 C 0.62561 0.54711 0.17237 0.0
C455 C 0.65011 0.47329 0.13682 0.0
C456 C 0.64003 0.56711 0.22913 0.0
C457 C 0.63793 0.56711 0.21557 0.0
C458 C 0.64363 0.503 0.19079 0.0
C459 C 0.64915 0.51687 0.15439 0.0
C460 C 0.64216 0.5218 0.16833 0.0
C461 C 0.6182 0.52904 0.20875 0.0
C462 C 0.62634 0.52746 0.1948 0.0
H463 H 0.68338 0.57267 0.12636 0.0
H464 H 0.67035 0.58128 0.14904 0.0
H465 H 0.66571 0.48176 0.17513 0.0
H466 H 0.58464 0.46167 0.23415 0.0
H467 H 0.58055 0.46174 0.21062 0.0
C468 C 0.55237 0.67977 0.52753 0.0
C469 C 0.51216 0.67072 0.53143 0.0
C470 C 0.55939 0.67078 0.51493 0.0
C471 C 0.50569 0.60271 0.48727 0.0
H472 H 0.59226 0.68979 0.46617 0.0
C473 C 0.495 0.60763 0.4325 0.0
C474 C 0.53128 0.62846 0.42492 0.0
C475 C 0.4978 0.60421 0.44584 0.0
C476 C 0.56867 0.66466 0.47199 0.0
H477 H 0.4479 0.64536 0.52514 0.0
H478 H 0.46013 0.62927 0.5032 0.0
H479 H 0.5872 0.70281 0.48907 0.0
H480 H 0.59892 0.65885 0.42514 0.0
H481 H 0.60396 0.65268 0.44862 0.0
H482 H 0.48653 0.56477 0.47021 0.0
C483 C 0.48613 0.64323 0.50992 0.0
C484 C 0.56563 0.67229 0.4851 0.0
C485 C 0.47923 0.6528 0.52244 0.0
C486 C 0.57044 0.64259 0.43077 0.0
C487 C 0.5733 0.63944 0.44422 0.0
C488 C 0.50898 0.5949 0.47422 0.0
C489 C 0.52621 0.65191 0.50607 0.0
C490 C 0.53317 0.6419 0.49273 0.0
C491 C 0.53702 0.62173 0.45196 0.0
C492 C 0.53949 0.62635 0.46629 0.0
H493 H 0.57843 0.69367 0.53423 0.0
H494 H 0.59059 0.67786 0.5122 0.0
H495 H 0.48091 0.57844 0.49303 0.0
H496 H 0.46437 0.59623 0.42822 0.0
H497 H 0.46917 0.59063 0.45144 0.0
C498 C 0.42803 0.07327 0.89492 0.0
C499 C 0.46595 0.09399 0.90179 0.0
C500 C 0.42832 0.07166 0.88135 0.0
C501 C 0.49129 0.14245 0.85679 0.0
H502 H 0.43566 0.05523 0.83107 0.0
C503 C 0.5243 0.17976 0.80295 0.0
C504 C 0.49139 0.15945 0.79407 0.0
C505 C 0.51903 0.16706 0.81586 0.0
C506 C 0.45091 0.07999 0.83816 0.0
H507 H 0.53341 0.12428 0.90013 0.0
H508 H 0.5338 0.12116 0.87659 0.0
H509 H 0.4292 0.03672 0.85414 0.0
H510 H 0.42701 0.10981 0.79175 0.0
H511 H 0.41731 0.08855 0.81446 0.0
H512 H 0.51192 0.18599 0.84119 0.0
C513 C 0.50402 0.10686 0.88159 0.0
C514 C 0.44735 0.06928 0.85131 0.0
C515 C 0.50376 0.10855 0.89505 0.0
C516 C 0.45302 0.12605 0.79838 0.0
C517 C 0.44755 0.11366 0.81138 0.0
C518 C 0.49433 0.15317 0.84376 0.0
C519 C 0.4665 0.09061 0.87461 0.0
C520 C 0.46822 0.10048 0.86068 0.0
C521 C 0.48048 0.13415 0.8203 0.0
C522 C 0.47489 0.12212 0.83422 0.0
H523 H 0.39848 0.06196 0.8999 0.0
H524 H 0.399 0.05896 0.87613 0.0
H525 H 0.50686 0.16717 0.86388 0.0
H526 H 0.55443 0.20521 0.79991 0.0
H527 H 0.54547 0.18294 0.82235 0.0
C528 C 0.85255 0.56147 0.08589 0.0
C529 C 0.82847 0.58017 0.08284 0.0
C530 C 0.89598 0.58372 0.08458 0.0
C531 C 0.98669 0.69095 0.08159 0.0
H532 H 0.0415 0.63314 0.06758 0.0
C533 C 0.15668 0.77752 0.0633 0.0
C534 C 0.18246 0.76054 0.06612 0.0
C535 C 0.11415 0.75558 0.06627 0.0
C536 C 0.02674 0.64957 0.07168 0.0
H537 H 0.8314 0.63718 0.07605 0.0
H538 H 0.90736 0.6759 0.07353 0.0
H539 H 0.96592 0.59521 0.07066 0.0
H540 H 0.18365 0.70722 0.07446 0.0
H541 H 0.10892 0.66868 0.07966 0.0
H542 H 0.04755 0.74551 0.08238 0.0
C543 C 0.89258 0.64414 0.07716 0.0
C544 C 0.98339 0.62786 0.07344 0.0
C545 C 0.849 0.62189 0.07854 0.0
C546 C 0.16468 0.72116 0.07215 0.0
C547 C 0.12188 0.69902 0.07506 0.0
C548 C 0.03002 0.7127 0.07978 0.0
C549 C 0.91656 0.62521 0.0801 0.0
C550 C 0.96279 0.64832 0.07837 0.0
C551 C 0.09616 0.716 0.07211 0.0
C552 C 0.05049 0.6923 0.07473 0.0
H553 H 0.83786 0.52949 0.08933 0.0
H554 H 0.91346 0.56839 0.08717 0.0
H555 H 0.97199 0.70751 0.08562 0.0
H556 H 0.16923 0.80778 0.05867 0.0
H557 H 0.09514 0.76929 0.06371 0.0
C558 C 0.7064 0.14426 0.42156 0.0
C559 C 0.74863 0.16939 0.41801 0.0
C560 C 0.6859 0.10094 0.41995 0.0
C561 C 0.70384 0.01179 0.41527 0.0
H562 H 0.58971 0.95638 0.40251 0.0
C563 C 0.61772 0.84034 0.39768 0.0
C564 C 0.57513 0.81516 0.40083 0.0
C565 C 0.63904 0.88308 0.40046 0.0
C566 C 0.62135 0.97128 0.40624 0.0
H567 H 0.80252 0.16839 0.41008 0.0
H568 H 0.76643 0.09252 0.40709 0.0
H569 H 0.62713 0.03186 0.40574 0.0
H570 H 0.5218 0.81525 0.4096 0.0
H571 H 0.55922 0.89008 0.41452 0.0
H572 H 0.69807 0.9511 0.41563 0.0
C573 C 0.74939 0.10647 0.41129 0.0
C574 C 0.64286 0.01458 0.40809 0.0
C575 C 0.77003 0.14997 0.41295 0.0
C576 C 0.55454 0.83372 0.40702 0.0
C577 C 0.57591 0.87663 0.40977 0.0
C578 C 0.68233 0.96844 0.41339 0.0
C579 C 0.70696 0.08149 0.41468 0.0
C580 C 0.68436 0.0354 0.41263 0.0
C581 C 0.61836 0.90183 0.40644 0.0
C582 C 0.64084 0.94769 0.40885 0.0
H583 H 0.68895 0.15802 0.42559 0.0
H584 H 0.65349 0.08265 0.4229 0.0
H585 H 0.73554 0.02672 0.41895 0.0
H586 H 0.63465 0.82718 0.39291 0.0
H587 H 0.67155 0.90164 0.39762 0.0
C588 C 0.43598 0.28707 0.74988 0.0
C589 C 0.4185 0.24444 0.74676 0.0
C590 C 0.41286 0.30729 0.74842 0.0
C591 C 0.30491 0.28832 0.74501 0.0
H592 H 0.36175 0.40196 0.73183 0.0
C593 C 0.21729 0.37353 0.72871 0.0
C594 C 0.23483 0.41612 0.7319 0.0
C595 C 0.23909 0.35236 0.73111 0.0
C596 C 0.34554 0.37045 0.73568 0.0
H597 H 0.36268 0.1896 0.7397 0.0
H598 H 0.32236 0.22522 0.73692 0.0
H599 H 0.40037 0.36492 0.73448 0.0
H600 H 0.28896 0.46965 0.74033 0.0
H601 H 0.32707 0.43252 0.74458 0.0
H602 H 0.24991 0.29384 0.74603 0.0
C603 C 0.3539 0.24281 0.74069 0.0
C604 C 0.36766 0.34914 0.7372 0.0
C605 C 0.37706 0.22242 0.74223 0.0
C606 C 0.27456 0.4369 0.73773 0.0
C607 C 0.29649 0.41569 0.74009 0.0
C608 C 0.28272 0.3096 0.74344 0.0
C609 C 0.37165 0.28558 0.74371 0.0
C610 C 0.34768 0.30784 0.74191 0.0
C611 C 0.27907 0.37323 0.73674 0.0
C612 C 0.30281 0.35093 0.73876 0.0
H613 H 0.46767 0.305 0.75352 0.0
H614 H 0.42727 0.33998 0.7511 0.0
H615 H 0.28867 0.25679 0.74884 0.0
H616 H 0.18676 0.35647 0.7242 0.0
H617 H 0.22499 0.31982 0.72827 0.0
C618 C 0.70728 0.16395 0.59237 0.0
C619 C 0.75066 0.18264 0.59436 0.0
C620 C 0.68332 0.12114 0.5895 0.0
C621 C 0.69287 0.03198 0.57722 0.0
H622 H 0.59071 0.96312 0.5964 0.0
C623 C 0.61604 0.85234 0.57938 0.0
C624 C 0.57226 0.82886 0.57831 0.0
C625 C 0.63635 0.89586 0.58076 0.0
C626 C 0.61892 0.98199 0.59085 0.0
H627 H 0.80293 0.17114 0.59456 0.0
H628 H 0.76146 0.09726 0.58961 0.0
H629 H 0.62784 0.03902 0.59924 0.0
H630 H 0.5155 0.83286 0.57799 0.0
H631 H 0.55095 0.90852 0.58034 0.0
H632 H 0.68436 0.97508 0.56894 0.0
C633 C 0.74584 0.11545 0.5902 0.0
C634 C 0.64009 0.02546 0.59245 0.0
C635 C 0.76958 0.15786 0.59315 0.0
C636 C 0.54929 0.8499 0.57876 0.0
C637 C 0.56956 0.89331 0.58019 0.0
C638 C 0.67177 0.98861 0.57562 0.0
C639 C 0.70245 0.09648 0.58841 0.0
C640 C 0.67764 0.05085 0.58579 0.0
C641 C 0.61331 0.91682 0.58116 0.0
C642 C 0.63485 0.96306 0.58254 0.0
H643 H 0.69178 0.18218 0.59325 0.0
H644 H 0.64992 0.10737 0.5881 0.0
H645 H 0.72138 0.05079 0.57179 0.0
H646 H 0.63467 0.83716 0.57912 0.0
H647 H 0.67011 0.91307 0.58166 0.0
C648 C 0.28859 0.43395 0.90626 0.0
C649 C 0.24603 0.41621 0.90948 0.0
C650 C 0.30931 0.41133 0.90787 0.0
C651 C 0.29173 0.30406 0.91189 0.0
H652 H 0.4048 0.36224 0.92553 0.0
C653 C 0.37645 0.21771 0.92971 0.0
C654 C 0.41927 0.23527 0.92687 0.0
C655 C 0.35541 0.23938 0.92691 0.0
C656 C 0.37347 0.34566 0.92154 0.0
H657 H 0.1918 0.3604 0.91683 0.0
H658 H 0.22822 0.32098 0.9198 0.0
H659 H 0.36743 0.40031 0.9222 0.0
H660 H 0.47335 0.28933 0.91866 0.0
H661 H 0.43644 0.32719 0.91369 0.0
H662 H 0.29772 0.24927 0.91137 0.0
C663 C 0.24539 0.35233 0.91587 0.0
C664 C 0.35199 0.36746 0.91964 0.0
C665 C 0.22455 0.37499 0.91422 0.0
C666 C 0.44042 0.27492 0.921 0.0
C667 C 0.41933 0.29671 0.91822 0.0
C668 C 0.3132 0.28221 0.91382 0.0
C669 C 0.28812 0.37037 0.91278 0.0
C670 C 0.31083 0.34695 0.9148 0.0
C671 C 0.3766 0.27924 0.9212 0.0
C672 C 0.35429 0.30274 0.9187 0.0
H673 H 0.30613 0.4655 0.90249 0.0
H674 H 0.34198 0.42595 0.90516 0.0
H675 H 0.26034 0.28742 0.90796 0.0
H676 H 0.35909 0.18725 0.93424 0.0
H677 H 0.32267 0.22525 0.92949 0.0
C678 C 0.14163 0.71081 0.23901 0.0
C679 C 0.16755 0.75275 0.24275 0.0
C680 C 0.09839 0.69117 0.24055 0.0
C681 C 0.01038 0.71056 0.24546 0.0
H682 H 0.95401 0.59574 0.25764 0.0
C683 C 0.83765 0.62274 0.26216 0.0
C684 C 0.81301 0.58014 0.2589 0.0
C685 C 0.88045 0.64465 0.25949 0.0
C686 C 0.96915 0.62758 0.25406 0.0
H687 H 0.168 0.80716 0.25088 0.0
H688 H 0.09203 0.77247 0.25377 0.0
H689 H 0.0295 0.633 0.25474 0.0
H690 H 0.81407 0.52754 0.24993 0.0
H691 H 0.88892 0.56597 0.24517 0.0
H692 H 0.94979 0.70506 0.24492 0.0
C693 C 0.10542 0.75501 0.24949 0.0
C694 C 0.01249 0.64902 0.25242 0.0
C695 C 0.14895 0.77484 0.24789 0.0
C696 C 0.83211 0.56024 0.25262 0.0
C697 C 0.87504 0.5822 0.24996 0.0
C698 C 0.96693 0.68909 0.24714 0.0
C699 C 0.07971 0.71277 0.24596 0.0
C700 C 0.03365 0.69069 0.24803 0.0
C701 C 0.89978 0.62455 0.2535 0.0
C702 C 0.94581 0.64729 0.25142 0.0
H703 H 0.1547 0.69287 0.23487 0.0
H704 H 0.07954 0.65895 0.23745 0.0
H705 H 0.02562 0.74245 0.24193 0.0
H706 H 0.82405 0.63916 0.26701 0.0
H707 H 0.89862 0.67708 0.26247 0.0
C708 C 0.57172 0.58244 0.08188 0.0
C709 C 0.61331 0.60277 0.07746 0.0
C710 C 0.54746 0.60156 0.08084 0.0
C711 C 0.53941 0.68414 0.06316 0.0
H712 H 0.46264 0.67031 0.09089 0.0
C713 C 0.44675 0.77179 0.06395 0.0
C714 C 0.40405 0.74827 0.06713 0.0
C715 C 0.47296 0.755 0.06555 0.0
C716 C 0.48366 0.67413 0.08303 0.0
H717 H 0.66211 0.65929 0.06851 0.0
H718 H 0.61973 0.69315 0.06682 0.0
H719 H 0.50825 0.64052 0.0931 0.0
H720 H 0.35551 0.68888 0.07469 0.0
H721 H 0.40154 0.6595 0.07757 0.0
H722 H 0.51488 0.71797 0.05313 0.0
C723 C 0.60578 0.66207 0.07095 0.0
C724 C 0.50981 0.65706 0.08427 0.0
C725 C 0.63013 0.64279 0.07196 0.0
C726 C 0.38826 0.70777 0.07216 0.0
C727 C 0.41464 0.69103 0.07386 0.0
C728 C 0.51341 0.7014 0.06194 0.0
C729 C 0.56414 0.64166 0.07541 0.0
C730 C 0.53779 0.66157 0.07431 0.0
C731 C 0.4572 0.71437 0.07045 0.0
C732 C 0.48508 0.69638 0.07183 0.0
H733 H 0.55766 0.55149 0.08612 0.0
H734 H 0.51534 0.58457 0.08415 0.0
H735 H 0.56009 0.68767 0.05522 0.0
H736 H 0.45996 0.80313 0.06006 0.0
H737 H 0.50569 0.77395 0.06301 0.0
C738 C 0.00247 0.43202 0.41268 0.0
C739 C 0.9825 0.38873 0.41032 0.0
C740 C 0.04567 0.45706 0.41127 0.0
C741 C 0.14336 0.45388 0.4114 0.0
H742 H 0.18863 0.5615 0.39431 0.0
C743 C 0.31851 0.55539 0.39878 0.0
C744 C 0.33732 0.59909 0.39996 0.0
C745 C 0.27543 0.52967 0.40039 0.0
C746 C 0.17657 0.53184 0.39928 0.0
H747 H 0.99229 0.33774 0.40461 0.0
H748 H 0.06829 0.38175 0.40218 0.0
H749 H 0.11311 0.5161 0.39598 0.0
H750 H 0.3257 0.65 0.40404 0.0
H751 H 0.25031 0.60496 0.40704 0.0
H752 H 0.20681 0.46976 0.41482 0.0
C753 C 0.05025 0.39613 0.40516 0.0
C754 C 0.13327 0.50573 0.40018 0.0
C755 C 0.00678 0.37101 0.40647 0.0
C756 C 0.31212 0.61647 0.40301 0.0
C757 C 0.2689 0.59066 0.40465 0.0
C758 C 0.18672 0.4801 0.41056 0.0
C759 C 0.07011 0.43946 0.40754 0.0
C760 C 0.11617 0.46649 0.40626 0.0
C761 C 0.24999 0.54694 0.40326 0.0
C762 C 0.20387 0.51942 0.40448 0.0
H763 H 0.98473 0.4467 0.41568 0.0
H764 H 0.06006 0.49021 0.41333 0.0
H765 H 0.13112 0.42409 0.41631 0.0
H766 H 0.33699 0.54093 0.39643 0.0
H767 H 0.26195 0.49625 0.39908 0.0
C768 C 0.35958 0.98349 0.74027 0.0
C769 C 0.40169 0.00835 0.74392 0.0
C770 C 0.34144 0.93993 0.73937 0.0
C771 C 0.36838 0.85742 0.73465 0.0
H772 H 0.26008 0.78411 0.75005 0.0
C773 C 0.29955 0.67828 0.73686 0.0
C774 C 0.2567 0.65346 0.7341 0.0
C775 C 0.31741 0.72148 0.73873 0.0
C776 C 0.29016 0.80412 0.74558 0.0
H777 H 0.45785 0.00711 0.74939 0.0
H778 H 0.42638 0.93156 0.7477 0.0
H779 H 0.29008 0.85983 0.75142 0.0
H780 H 0.19889 0.65441 0.73135 0.0
H781 H 0.22999 0.72936 0.73436 0.0
H782 H 0.36835 0.80198 0.7286 0.0
C783 C 0.40737 0.94558 0.74552 0.0
C784 C 0.30729 0.84748 0.74636 0.0
C785 C 0.4253 0.98887 0.74656 0.0
C786 C 0.23202 0.67259 0.73347 0.0
C787 C 0.24982 0.71563 0.7353 0.0
C788 C 0.35115 0.8141 0.73378 0.0
C789 C 0.36527 0.92061 0.74194 0.0
C790 C 0.34658 0.87457 0.74091 0.0
C791 C 0.29278 0.74072 0.73786 0.0
C792 C 0.31179 0.78687 0.73921 0.0
H793 H 0.3406 0.99762 0.73821 0.0
H794 H 0.30895 0.92142 0.7365 0.0
H795 H 0.39855 0.87756 0.73023 0.0
H796 H 0.31936 0.66443 0.73746 0.0
H797 H 0.35051 0.73979 0.74087 0.0
C798 C 0.59972 0.58979 0.56984 0.0
C799 C 0.60817 0.61996 0.57945 0.0
C800 C 0.6174 0.56417 0.57047 0.0
C801 C 0.70093 0.55183 0.58608 0.0
H802 H 0.62913 0.43565 0.57631 0.0
C803 C 0.69713 0.38404 0.5906 0.0
C804 C 0.73913 0.39755 0.58764 0.0
C805 C 0.68106 0.41097 0.58895 0.0
C806 C 0.64952 0.46789 0.57916 0.0
H807 H 0.64272 0.64779 0.59709 0.0
H808 H 0.67311 0.60214 0.59841 0.0
H809 H 0.60236 0.48386 0.57533 0.0
H810 H 0.79662 0.44912 0.58 0.0
H811 H 0.76836 0.49557 0.57685 0.0
H812 H 0.74764 0.53542 0.59031 0.0
C813 C 0.65319 0.59876 0.59026 0.0
C814 C 0.63435 0.49573 0.57844 0.0
C815 C 0.63574 0.62484 0.58954 0.0
C816 C 0.76417 0.43783 0.58246 0.0
C817 C 0.74809 0.46464 0.58076 0.0
C818 C 0.71606 0.52391 0.58684 0.0
C819 C 0.64364 0.56765 0.58082 0.0
C820 C 0.65991 0.53811 0.58183 0.0
C821 C 0.70662 0.45189 0.58425 0.0
C822 C 0.69057 0.48161 0.58335 0.0
H823 H 0.57905 0.58567 0.56183 0.0
H824 H 0.61025 0.54142 0.56285 0.0
H825 H 0.72156 0.58427 0.58867 0.0
H826 H 0.67711 0.35327 0.59466 0.0
H827 H 0.64905 0.40021 0.59181 0.0
C828 C 0.99102 0.42336 0.9132 0.0
C829 C 0.01103 0.4005 0.91621 0.0
C830 C 0.94786 0.40549 0.91463 0.0
C831 C 0.85006 0.30486 0.91591 0.0
H832 H 0.80572 0.36989 0.93177 0.0
C833 C 0.67582 0.23244 0.92928 0.0
C834 C 0.65659 0.25681 0.92771 0.0
C835 C 0.71885 0.24992 0.92753 0.0
C836 C 0.81749 0.35151 0.92714 0.0
H837 H 0.00131 0.34077 0.92306 0.0
H838 H 0.92537 0.30926 0.92552 0.0
H839 H 0.88114 0.39985 0.92974 0.0
H840 H 0.66746 0.31859 0.92286 0.0
H841 H 0.74278 0.34914 0.91959 0.0
H842 H 0.78648 0.25667 0.91315 0.0
C843 C 0.94336 0.34111 0.92202 0.0
C844 C 0.86075 0.36862 0.92603 0.0
C845 C 0.9868 0.35919 0.92069 0.0
C846 C 0.68137 0.29905 0.9242 0.0
C847 C 0.72456 0.31657 0.92239 0.0
C848 C 0.80676 0.28781 0.91694 0.0
C849 C 0.92349 0.36417 0.91904 0.0
C850 C 0.87752 0.34548 0.92043 0.0
C851 C 0.74385 0.29223 0.9241 0.0
C852 C 0.78992 0.31087 0.92261 0.0
H853 H 0.00872 0.45524 0.9097 0.0
H854 H 0.93345 0.42388 0.91209 0.0
H855 H 0.86204 0.28652 0.91136 0.0
H856 H 0.65769 0.1998 0.93202 0.0
H857 H 0.73262 0.23038 0.92914 0.0
C858 C 0.43402 0.00345 0.24616 0.0
C859 C 0.39099 0.98408 0.24888 0.0
C860 C 0.45969 0.04668 0.24742 0.0
C861 C 0.4576 0.14517 0.24775 0.0
H862 H 0.56622 0.19 0.26416 0.0
C863 C 0.55751 0.31914 0.26162 0.0
C864 C 0.6012 0.33889 0.26022 0.0
C865 C 0.53244 0.27612 0.2597 0.0
C866 C 0.53628 0.17806 0.25937 0.0
H867 H 0.34115 0.99502 0.25506 0.0
H868 H 0.38617 0.07092 0.25724 0.0
H869 H 0.52089 0.11446 0.2622 0.0
H870 H 0.65276 0.32892 0.25549 0.0
H871 H 0.60879 0.25353 0.25198 0.0
H872 H 0.47301 0.2087 0.24483 0.0
C873 C 0.3999 0.05245 0.25408 0.0
C874 C 0.51022 0.13474 0.2583 0.0
C875 C 0.37418 0.009 0.25292 0.0
C876 C 0.61922 0.31461 0.2567 0.0
C877 C 0.59403 0.27139 0.25476 0.0
C878 C 0.48374 0.18851 0.24876 0.0
C879 C 0.44296 0.07173 0.25135 0.0
C880 C 0.47051 0.1178 0.25253 0.0
C881 C 0.55031 0.25161 0.25629 0.0
C882 C 0.52332 0.20551 0.25466 0.0
H883 H 0.448 0.98519 0.24301 0.0
H884 H 0.4926 0.06059 0.2451 0.0
H885 H 0.4275 0.1331 0.24306 0.0
H886 H 0.54255 0.33687 0.26434 0.0
H887 H 0.49902 0.26194 0.26117 0.0
loop_
_geom_bond_atom_site_label_1
_geom_bond_atom_site_label_2
_geom_bond_distance
_geom_bond_site_symmetry_2
_ccdc_geom_bond_type
C0 O1 1.306 . S
C0 O3 1.160 . S
O1 C0 1.306 . S
O1 Cd2 2.228 . S
Cd2 O1 2.228 . S
Cd2 O6 2.273 . S
Cd2 O10 2.277 . S
O3 C0 1.160 . S
O3 Cd4 2.203 . S
Cd4 O3 2.203 . S
Cd4 O6 2.411 . S
Cd4 O7 2.333 . S
Cd4 O8 2.352 . S
Cd4 O12 2.277 . S
Cd4 O13 2.356 . S
C5 O10 1.209 . S
C5 O12 1.226 . S
O6 Cd2 2.273 . S
O6 Cd4 2.411 . S
O6 C9 1.320 . S
O7 Cd4 2.333 . S
O7 C9 1.214 . S
O8 Cd4 2.352 . S
O8 C11 1.258 . S
C9 O6 1.320 . S
C9 O7 1.214 . S
O10 Cd2 2.277 . S
O10 C5 1.209 . S
C11 O8 1.258 . S
C11 O13 1.282 . S
O12 Cd4 2.277 . S
O12 C5 1.226 . S
O13 Cd4 2.356 . S
O13 C11 1.282 . S
C14 O15 1.306 . S
C14 O17 1.160 . S
O15 C14 1.306 . S
O15 Cd16 2.228 . S
Cd16 O15 2.228 . S
Cd16 O20 2.273 . S
Cd16 O24 2.277 . S
O17 C14 1.160 . S
O17 Cd18 2.203 . S
Cd18 O17 2.203 . S
Cd18 O20 2.411 . S
Cd18 O21 2.333 . S
Cd18 O22 2.352 . S
Cd18 O26 2.277 . S
Cd18 O27 2.356 . S
C19 O24 1.209 . S
C19 O26 1.226 . S
O20 Cd16 2.273 . S
O20 Cd18 2.411 . S
O20 C23 1.320 . S
O21 Cd18 2.333 . S
O21 C23 1.214 . S
O22 Cd18 2.352 . S
O22 C25 1.258 . S
C23 O20 1.320 . S
C23 O21 1.214 . S
O24 Cd16 2.277 . S
O24 C19 1.209 . S
C25 O22 1.258 . S
C25 O27 1.282 . S
O26 Cd18 2.277 . S
O26 C19 1.226 . S
O27 Cd18 2.356 . S
O27 C25 1.282 . S
C28 O29 1.306 . S
C28 O31 1.160 . S
O29 C28 1.306 . S
O29 Cd30 2.228 . S
Cd30 O29 2.228 . S
Cd30 O34 2.273 . S
Cd30 O38 2.277 . S
O31 C28 1.160 . S
O31 Cd32 2.203 . S
Cd32 O31 2.203 . S
Cd32 O34 2.411 . S
Cd32 O35 2.333 . S
Cd32 O36 2.352 . S
Cd32 O40 2.277 . S
Cd32 O41 2.356 . S
C33 O38 1.209 . S
C33 O40 1.226 . S
O34 Cd30 2.273 . S
O34 Cd32 2.411 . S
O34 C37 1.320 . S
O35 Cd32 2.333 . S
O35 C37 1.214 . S
O36 Cd32 2.352 . S
O36 C39 1.258 . S
C37 O34 1.320 . S
C37 O35 1.214 . S
O38 Cd30 2.277 . S
O38 C33 1.209 . S
C39 O36 1.258 . S
C39 O41 1.282 . S
O40 Cd32 2.277 . S
O40 C33 1.226 . S
O41 Cd32 2.356 . S
O41 C39 1.282 . S
C42 O43 1.306 . S
C42 O45 1.160 . S
O43 C42 1.306 . S
O43 Cd44 2.228 . S
Cd44 O43 2.228 . S
Cd44 O48 2.273 . S
Cd44 O52 2.277 . S
O45 C42 1.160 . S
O45 Cd46 2.203 . S
Cd46 O45 2.203 . S
Cd46 O48 2.411 . S
Cd46 O49 2.333 . S
Cd46 O50 2.352 . S
Cd46 O54 2.277 . S
Cd46 O55 2.356 . S
C47 O52 1.209 . S
C47 O54 1.226 . S
O48 Cd44 2.273 . S
O48 Cd46 2.411 . S
O48 C51 1.320 . S
O49 Cd46 2.333 . S
O49 C51 1.214 . S
O50 Cd46 2.352 . S
O50 C53 1.258 . S
C51 O48 1.320 . S
C51 O49 1.214 . S
O52 Cd44 2.277 . S
O52 C47 1.209 . S
C53 O50 1.258 . S
C53 O55 1.282 . S
O54 Cd46 2.277 . S
O54 C47 1.226 . S
O55 Cd46 2.356 . S
O55 C53 1.282 . S
C56 O57 1.306 . S
C56 O59 1.160 . S
O57 C56 1.306 . S
O57 Cd58 2.228 . S
Cd58 O57 2.228 . S
Cd58 O62 2.273 . S
Cd58 O66 2.277 . S
O59 C56 1.160 . S
O59 Cd60 2.203 . S
Cd60 O59 2.203 . S
Cd60 O62 2.411 . S
Cd60 O63 2.333 . S
Cd60 O64 2.352 . S
Cd60 O68 2.277 . S
Cd60 O69 2.356 . S
C61 O66 1.209 . S
C61 O68 1.226 . S
O62 Cd58 2.273 . S
O62 Cd60 2.411 . S
O62 C65 1.320 . S
O63 Cd60 2.333 . S
O63 C65 1.214 . S
O64 Cd60 2.352 . S
O64 C67 1.258 . S
C65 O62 1.320 . S
C65 O63 1.214 . S
O66 Cd58 2.277 . S
O66 C61 1.209 . S
C67 O64 1.258 . S
C67 O69 1.282 . S
O68 Cd60 2.277 . S
O68 C61 1.226 . S
O69 Cd60 2.356 . S
O69 C67 1.282 . S
C70 O71 1.306 . S
C70 O73 1.160 . S
O71 C70 1.306 . S
O71 Cd72 2.228 . S
Cd72 O71 2.228 . S
Cd72 O76 2.273 . S
Cd72 O80 2.277 . S
O73 C70 1.160 . S
O73 Cd74 2.203 . S
Cd74 O73 2.203 . S
Cd74 O76 2.411 . S
Cd74 O77 2.333 . S
Cd74 O78 2.352 . S
Cd74 O82 2.277 . S
Cd74 O83 2.356 . S
C75 O80 1.209 . S
C75 O82 1.226 . S
O76 Cd72 2.273 . S
O76 Cd74 2.411 . S
O76 C79 1.320 . S
O77 Cd74 2.333 . S
O77 C79 1.214 . S
O78 Cd74 2.352 . S
O78 C81 1.258 . S
C79 O76 1.320 . S
C79 O77 1.214 . S
O80 Cd72 2.277 . S
O80 C75 1.209 . S
C81 O78 1.258 . S
C81 O83 1.282 . S
O82 Cd74 2.277 . S
O82 C75 1.226 . S
O83 Cd74 2.356 . S
O83 C81 1.282 . S
C84 O85 1.306 . S
C84 O87 1.160 . S
O85 C84 1.306 . S
O85 Cd86 2.228 . S
Cd86 O85 2.228 . S
Cd86 O90 2.273 . S
Cd86 O94 2.277 . S
O87 C84 1.160 . S
O87 Cd88 2.203 . S
Cd88 O87 2.203 . S
Cd88 O90 2.411 . S
Cd88 O91 2.333 . S
Cd88 O92 2.352 . S
Cd88 O96 2.277 . S
Cd88 O97 2.356 . S
C89 O94 1.209 . S
C89 O96 1.226 . S
O90 Cd86 2.273 . S
O90 Cd88 2.411 . S
O90 C93 1.320 . S
O91 Cd88 2.333 . S
O91 C93 1.214 . S
O92 Cd88 2.352 . S
O92 C95 1.258 . S
C93 O90 1.320 . S
C93 O91 1.214 . S
O94 Cd86 2.277 . S
O94 C89 1.209 . S
C95 O92 1.258 . S
C95 O97 1.282 . S
O96 Cd88 2.277 . S
O96 C89 1.226 . S
O97 Cd88 2.356 . S
O97 C95 1.282 . S
C98 O99 1.306 . S
C98 O101 1.160 . S
O99 C98 1.306 . S
O99 Cd100 2.228 . S
Cd100 O99 2.228 . S
Cd100 O104 2.273 . S
Cd100 O108 2.277 . S
O101 C98 1.160 . S
O101 Cd102 2.203 . S
Cd102 O101 2.203 . S
Cd102 O104 2.411 . S
Cd102 O105 2.333 . S
Cd102 O106 2.352 . S
Cd102 O110 2.277 . S
Cd102 O111 2.356 . S
C103 O108 1.209 . S
C103 O110 1.226 . S
O104 Cd100 2.273 . S
O104 Cd102 2.411 . S
O104 C107 1.320 . S
O105 Cd102 2.333 . S
O105 C107 1.214 . S
O106 Cd102 2.352 . S
O106 C109 1.258 . S
C107 O104 1.320 . S
C107 O105 1.214 . S
O108 Cd100 2.277 . S
O108 C103 1.209 . S
C109 O106 1.258 . S
C109 O111 1.282 . S
O110 Cd102 2.277 . S
O110 C103 1.226 . S
O111 Cd102 2.356 . S
O111 C109 1.282 . S
C112 O113 1.306 . S
C112 O115 1.160 . S
O113 C112 1.306 . S
O113 Cd114 2.228 . S
Cd114 O113 2.228 . S
Cd114 O118 2.273 . S
Cd114 O122 2.277 . S
O115 C112 1.160 . S
O115 Cd116 2.203 . S
Cd116 O115 2.203 . S
Cd116 O118 2.411 . S
Cd116 O119 2.333 . S
Cd116 O120 2.352 . S
Cd116 O124 2.277 . S
Cd116 O125 2.356 . S
C117 O122 1.209 . S
C117 O124 1.226 . S
O118 Cd114 2.273 . S
O118 Cd116 2.411 . S
O118 C121 1.320 . S
O119 Cd116 2.333 . S
O119 C121 1.214 . S
O120 Cd116 2.352 . S
O120 C123 1.258 . S
C121 O118 1.320 . S
C121 O119 1.214 . S
O122 Cd114 2.277 . S
O122 C117 1.209 . S
C123 O120 1.258 . S
C123 O125 1.282 . S
O124 Cd116 2.277 . S
O124 C117 1.226 . S
O125 Cd116 2.356 . S
O125 C123 1.282 . S
C126 O127 1.306 . S
C126 O129 1.160 . S
O127 C126 1.306 . S
O127 Cd128 2.228 . S
Cd128 O127 2.228 . S
Cd128 O132 2.273 . S
Cd128 O136 2.277 . S
O129 C126 1.160 . S
O129 Cd130 2.203 . S
Cd130 O129 2.203 . S
Cd130 O132 2.411 . S
Cd130 O133 2.333 . S
Cd130 O134 2.352 . S
Cd130 O138 2.277 . S
Cd130 O139 2.356 . S
C131 O136 1.209 . S
C131 O138 1.226 . S
O132 Cd128 2.273 . S
O132 Cd130 2.411 . S
O132 C135 1.320 . S
O133 Cd130 2.333 . S
O133 C135 1.214 . S
O134 Cd130 2.352 . S
O134 C137 1.258 . S
C135 O132 1.320 . S
C135 O133 1.214 . S
O136 Cd128 2.277 . S
O136 C131 1.209 . S
C137 O134 1.258 . S
C137 O139 1.282 . S
O138 Cd130 2.277 . S
O138 C131 1.226 . S
O139 Cd130 2.356 . S
O139 C137 1.282 . S
C140 O141 1.306 . S
C140 O143 1.160 . S
O141 C140 1.306 . S
O141 Cd142 2.228 . S
Cd142 O141 2.228 . S
Cd142 O146 2.273 . S
Cd142 O150 2.277 . S
O143 C140 1.160 . S
O143 Cd144 2.203 . S
Cd144 O143 2.203 . S
Cd144 O146 2.411 . S
Cd144 O147 2.333 . S
Cd144 O148 2.352 . S
Cd144 O152 2.277 . S
Cd144 O153 2.356 . S
C145 O150 1.209 . S
C145 O152 1.226 . S
O146 Cd142 2.273 . S
O146 Cd144 2.411 . S
O146 C149 1.320 . S
O147 Cd144 2.333 . S
O147 C149 1.214 . S
O148 Cd144 2.352 . S
O148 C151 1.258 . S
C149 O146 1.320 . S
C149 O147 1.214 . S
O150 Cd142 2.277 . S
O150 C145 1.209 . S
C151 O148 1.258 . S
C151 O153 1.282 . S
O152 Cd144 2.277 . S
O152 C145 1.226 . S
O153 Cd144 2.356 . S
O153 C151 1.282 . S
C154 O155 1.306 . S
C154 O157 1.160 . S
O155 C154 1.306 . S
O155 Cd156 2.228 . S
Cd156 O155 2.228 . S
Cd156 O160 2.273 . S
Cd156 O164 2.277 . S
O157 C154 1.160 . S
O157 Cd158 2.203 . S
Cd158 O157 2.203 . S
Cd158 O160 2.411 . S
Cd158 O161 2.333 . S
Cd158 O162 2.352 . S
Cd158 O166 2.277 . S
Cd158 O167 2.356 . S
C159 O164 1.209 . S
C159 O166 1.226 . S
O160 Cd156 2.273 . S
O160 Cd158 2.411 . S
O160 C163 1.320 . S
O161 Cd158 2.333 . S
O161 C163 1.214 . S
O162 Cd158 2.352 . S
O162 C165 1.258 . S
C163 O160 1.320 . S
C163 O161 1.214 . S
O164 Cd156 2.277 . S
O164 C159 1.209 . S
C165 O162 1.258 . S
C165 O167 1.282 . S
O166 Cd158 2.277 . S
O166 C159 1.226 . S
O167 Cd158 2.356 . S
O167 C165 1.282 . S
C168 C169 1.349 . S
C168 C170 1.327 . S
C168 H193 0.950 . S
C169 C168 1.349 . S
C169 C185 1.349 . S
C170 C168 1.327 . S
C170 C189 1.429 . S
C170 H194 0.950 . S
C171 C188 1.574 . S
C171 C190 1.368 . S
C171 H195 0.949 . S
H172 C176 0.949 . S
C173 C174 1.349 . S
C173 C175 1.327 . S
C173 H196 0.950 . S
C174 C173 1.349 . S
C174 C186 1.349 . S
C175 C173 1.327 . S
C175 C191 1.429 . S
C175 H197 0.950 . S
C176 H172 0.949 . S
C176 C184 1.574 . S
C176 C192 1.368 . S
H177 C185 0.950 . S
H178 C183 0.950 . S
H179 C184 0.949 . S
H180 C186 0.950 . S
H181 C187 0.950 . S
H182 C188 0.949 . S
C183 H178 0.950 . S
C183 C185 1.327 . S
C183 C189 1.429 . S
C184 C176 1.574 . S
C184 H179 0.949 . S
C184 C190 1.368 . S
C185 C169 1.349 . S
C185 H177 0.950 . S
C185 C183 1.327 . S
C186 C174 1.349 . S
C186 H180 0.950 . S
C186 C187 1.327 . S
C187 H181 0.950 . S
C187 C186 1.327 . S
C187 C191 1.429 . S
C188 C171 1.574 . S
C188 H182 0.949 . S
C188 C192 1.368 . S
C189 C170 1.429 . S
C189 C183 1.429 . S
C189 C190 1.523 . S
C190 C171 1.368 . S
C190 C184 1.368 . S
C190 C189 1.523 . S
C191 C175 1.429 . S
C191 C187 1.429 . S
C191 C192 1.523 1_554 S
C192 C176 1.368 . S
C192 C188 1.368 . S
C192 C191 1.523 1_556 S
H193 C168 0.950 . S
H194 C170 0.950 . S
H195 C171 0.949 . S
H196 C173 0.950 . S
H197 C175 0.950 . S
C198 C199 1.349 . S
C198 C200 1.327 . S
C198 H223 0.950 . S
C199 C198 1.349 . S
C199 C215 1.349 . S
C200 C198 1.327 . S
C200 C219 1.429 . S
C200 H224 0.950 . S
C201 C218 1.574 . S
C201 C220 1.368 . S
C201 H225 0.949 . S
H202 C206 0.949 . S
C203 C204 1.349 . S
C203 C205 1.327 . S
C203 H226 0.950 . S
C204 C203 1.349 . S
C204 C216 1.349 . S
C205 C203 1.327 . S
C205 C221 1.429 . S
C205 H227 0.950 . S
C206 H202 0.949 . S
C206 C214 1.574 . S
C206 C222 1.368 . S
H207 C215 0.950 . S
H208 C213 0.950 . S
H209 C214 0.949 . S
H210 C216 0.950 . S
H211 C217 0.950 . S
H212 C218 0.949 . S
C213 H208 0.950 . S
C213 C215 1.327 . S
C213 C219 1.429 . S
C214 C206 1.574 . S
C214 H209 0.949 . S
C214 C220 1.368 . S
C215 C199 1.349 . S
C215 H207 0.950 . S
C215 C213 1.327 . S
C216 C204 1.349 . S
C216 H210 0.950 . S
C216 C217 1.327 . S
C217 H211 0.950 . S
C217 C216 1.327 . S
C217 C221 1.429 . S
C218 C201 1.574 . S
C218 H212 0.949 . S
C218 C222 1.368 . S
C219 C200 1.429 . S
C219 C213 1.429 . S
C219 C220 1.523 . S
C220 C201 1.368 . S
C220 C214 1.368 . S
C220 C219 1.523 . S
C221 C205 1.429 . S
C221 C217 1.429 . S
C221 C222 1.523 . S
C222 C206 1.368 . S
C222 C218 1.368 . S
C222 C221 1.523 . S
H223 C198 0.950 . S
H224 C200 0.950 . S
H225 C201 0.949 . S
H226 C203 0.950 . S
H227 C205 0.950 . S
C228 C229 1.349 . S
C228 C230 1.327 . S
C228 H253 0.950 . S
C229 C228 1.349 . S
C229 C245 1.349 . S
C230 C228 1.327 . S
C230 C249 1.429 . S
C230 H254 0.950 . S
C231 C248 1.574 . S
C231 C250 1.368 . S
C231 H255 0.949 . S
H232 C236 0.949 . S
C233 C234 1.349 . S
C233 C235 1.327 . S
C233 H256 0.950 . S
C234 C233 1.349 . S
C234 C246 1.349 . S
C235 C233 1.327 . S
C235 C251 1.429 . S
C235 H257 0.950 . S
C236 H232 0.949 . S
C236 C244 1.574 . S
C236 C252 1.368 . S
H237 C245 0.950 . S
H238 C243 0.950 . S
H239 C244 0.949 . S
H240 C246 0.950 . S
H241 C247 0.950 . S
H242 C248 0.949 . S
C243 H238 0.950 . S
C243 C245 1.327 . S
C243 C249 1.429 . S
C244 C236 1.574 . S
C244 H239 0.949 . S
C244 C250 1.368 . S
C245 C229 1.349 . S
C245 H237 0.950 . S
C245 C243 1.327 . S
C246 C234 1.349 . S
C246 H240 0.950 . S
C246 C247 1.327 . S
C247 H241 0.950 . S
C247 C246 1.327 . S
C247 C251 1.429 . S
C248 C231 1.574 . S
C248 H242 0.949 . S
C248 C252 1.368 . S
C249 C230 1.429 . S
C249 C243 1.429 . S
C249 C250 1.523 . S
C250 C231 1.368 . S
C250 C244 1.368 . S
C250 C249 1.523 . S
C251 C235 1.429 . S
C251 C247 1.429 . S
C251 C252 1.523 . S
C252 C236 1.368 . S
C252 C248 1.368 . S
C252 C251 1.523 . S
H253 C228 0.950 . S
H254 C230 0.950 . S
H255 C231 0.949 . S
H256 C233 0.950 . S
H257 C235 0.950 . S
C258 C259 1.349 . S
C258 C260 1.327 . S
C258 H283 0.950 . S
C259 C258 1.349 . S
C259 C275 1.349 . S
C260 C258 1.327 . S
C260 C279 1.429 . S
C260 H284 0.950 . S
C261 C278 1.574 . S
C261 C280 1.368 . S
C261 H285 0.949 . S
H262 C266 0.949 1_556 S
C263 C264 1.349 . S
C263 C265 1.327 . S
C263 H286 0.950 . S
C264 C263 1.349 . S
C264 C276 1.349 . S
C265 C263 1.327 . S
C265 C281 1.429 . S
C265 H287 1.012 . S
C266 H262 0.949 1_554 S
C266 C274 1.574 . S
C266 C282 1.368 . S
H267 C275 0.950 . S
H268 C273 0.950 . S
H269 C274 0.949 . S
H270 C276 0.950 . S
H271 C277 0.950 . S
H272 C278 0.949 . S
C273 H268 0.950 . S
C273 C275 1.327 . S
C273 C279 1.429 . S
C274 C266 1.574 . S
C274 H269 0.949 . S
C274 C280 1.368 . S
C275 C259 1.349 . S
C275 H267 0.950 . S
C275 C273 1.327 . S
C276 C264 1.349 . S
C276 H270 0.950 . S
C276 C277 1.327 . S
C277 H271 0.950 . S
C277 C276 1.327 . S
C277 C281 1.429 . S
C278 C261 1.574 . S
C278 H272 0.949 . S
C278 C282 1.368 . S
C279 C260 1.429 . S
C279 C273 1.429 . S
C279 C280 1.523 . S
C280 C261 1.368 . S
C280 C274 1.368 . S
C280 C279 1.523 . S
C281 C265 1.429 . S
C281 C277 1.429 . S
C281 C282 1.523 1_556 S
C282 C266 1.368 . S
C282 C278 1.368 . S
C282 C281 1.523 1_554 S
H283 C258 0.950 . S
H284 C260 0.950 . S
H285 C261 0.949 . S
H286 C263 0.950 . S
H287 C265 1.012 . S
C288 C289 1.349 . S
C288 C290 1.327 . S
C288 H313 0.950 . S
C289 C288 1.349 . S
C289 C305 1.349 . S
C290 C288 1.327 . S
C290 C309 1.429 . S
C290 H314 0.950 . S
C291 C308 1.574 . S
C291 C310 1.368 . S
C291 H315 0.949 . S
H292 C296 0.949 . S
C293 C294 1.349 . S
C293 C295 1.327 . S
C293 H316 0.950 . S
C294 C293 1.349 . S
C294 C306 1.349 . S
C295 C293 1.327 . S
C295 C311 1.429 . S
C295 H317 0.950 . S
C296 H292 0.949 . S
C296 C304 1.574 . S
C296 C312 1.368 . S
H297 C305 0.950 . S
H298 C303 0.950 . S
H299 C304 0.949 . S
H300 C306 0.950 . S
H301 C307 0.950 . S
H302 C308 0.949 . S
C303 H298 0.950 . S
C303 C305 1.327 . S
C303 C309 1.429 . S
C304 C296 1.574 . S
C304 H299 0.949 . S
C304 C310 1.368 . S
C305 C289 1.349 . S
C305 H297 0.950 . S
C305 C303 1.327 . S
C306 C294 1.349 . S
C306 H300 0.950 . S
C306 C307 1.327 . S
C307 H301 0.950 . S
C307 C306 1.327 . S
C307 C311 1.429 . S
C308 C291 1.574 . S
C308 H302 0.949 . S
C308 C312 1.368 . S
C309 C290 1.429 . S
C309 C303 1.429 . S
C309 C310 1.523 . S
C310 C291 1.368 . S
C310 C304 1.368 . S
C310 C309 1.523 . S
C311 C295 1.429 . S
C311 C307 1.429 . S
C311 C312 1.523 . S
C312 C296 1.368 . S
C312 C308 1.368 . S
C312 C311 1.523 . S
H313 C288 0.950 . S
H314 C290 0.950 . S
H315 C291 0.949 . S
H316 C293 0.950 . S
H317 C295 0.950 . S
C318 C319 1.349 . S
C318 C320 1.327 . S
C318 H343 0.950 . S
C319 C318 1.349 . S
C319 C335 1.349 . S
C320 C318 1.327 . S
C320 C339 1.429 . S
C320 H344 0.950 . S
C321 C338 1.574 . S
C321 C340 1.368 . S
C321 H345 0.949 . S
H322 C326 0.949 . S
C323 C324 1.349 . S
C323 C325 1.327 . S
C323 H346 0.950 . S
C324 C323 1.349 . S
C324 C336 1.349 . S
C325 C323 1.327 . S
C325 C341 1.429 . S
C325 H347 0.950 . S
C326 H322 0.949 . S
C326 C334 1.574 . S
C326 C342 1.368 . S
H327 C335 0.950 . S
H328 C333 0.950 . S
H329 C334 0.949 . S
H330 C336 0.950 . S
H331 C337 0.950 . S
H332 C338 0.949 . S
C333 H328 0.950 . S
C333 C335 1.327 . S
C333 C339 1.429 . S
C334 C326 1.574 . S
C334 H329 0.949 . S
C334 C340 1.368 . S
C335 C319 1.349 . S
C335 H327 0.950 . S
C335 C333 1.327 . S
C336 C324 1.349 . S
C336 H330 0.950 . S
C336 C337 1.327 . S
C337 H331 0.950 . S
C337 C336 1.327 . S
C337 C341 1.429 . S
C338 C321 1.574 . S
C338 H332 0.949 . S
C338 C342 1.368 . S
C339 C320 1.429 . S
C339 C333 1.429 . S
C339 C340 1.523 . S
C340 C321 1.368 . S
C340 C334 1.368 . S
C340 C339 1.523 . S
C341 C325 1.429 . S
C341 C337 1.429 . S
C341 C342 1.523 . S
C342 C326 1.368 . S
C342 C338 1.368 . S
C342 C341 1.523 . S
H343 C318 0.950 . S
H344 C320 0.950 . S
H345 C321 0.949 . S
H346 C323 0.950 . S
H347 C325 0.950 . S
C348 C349 1.349 . S
C348 C350 1.327 . S
C348 H373 0.950 . S
C349 C348 1.349 . S
C349 C365 1.349 . S
C350 C348 1.327 . S
C350 C369 1.429 . S
C350 H374 0.950 . S
C351 C368 1.574 . S
C351 C370 1.368 . S
C351 H375 0.949 . S
H352 C356 0.949 . S
C353 C354 1.349 . S
C353 C355 1.327 . S
C353 H376 0.950 . S
C354 C353 1.349 . S
C354 C366 1.349 . S
C355 C353 1.327 . S
C355 C371 1.429 . S
C355 H377 0.950 . S
C356 H352 0.949 . S
C356 C364 1.574 . S
C356 C372 1.368 . S
H357 C365 0.950 . S
H358 C363 0.950 . S
H359 C364 0.949 . S
H360 C366 0.950 . S
H361 C367 0.950 . S
H362 C368 0.949 . S
C363 H358 0.950 . S
C363 C365 1.327 . S
C363 C369 1.429 . S
C364 C356 1.574 . S
C364 H359 0.949 . S
C364 C370 1.368 . S
C365 C349 1.349 . S
C365 H357 0.950 . S
C365 C363 1.327 . S
C366 C354 1.349 . S
C366 H360 0.950 . S
C366 C367 1.327 . S
C367 H361 0.950 . S
C367 C366 1.327 . S
C367 C371 1.429 . S
C368 C351 1.574 . S
C368 H362 0.949 . S
C368 C372 1.368 . S
C369 C350 1.429 . S
C369 C363 1.429 . S
C369 C370 1.523 . S
C370 C351 1.368 . S
C370 C364 1.368 . S
C370 C369 1.523 . S
C371 C355 1.429 . S
C371 C367 1.429 . S
C371 C372 1.523 . S
C372 C356 1.368 . S
C372 C368 1.368 . S
C372 C371 1.523 . S
H373 C348 0.950 . S
H374 C350 0.950 . S
H375 C351 0.949 . S
H376 C353 0.950 . S
H377 C355 0.950 . S
C378 C379 1.349 . S
C378 C380 1.327 . S
C378 H403 0.950 . S
C379 C378 1.349 . S
C379 C395 1.349 . S
C380 C378 1.327 . S
C380 C399 1.429 . S
C380 H404 0.950 . S
C381 C398 1.574 . S
C381 C400 1.368 . S
C381 H405 0.949 . S
H382 C386 0.949 . S
C383 C384 1.349 . S
C383 C385 1.327 . S
C383 H406 0.950 . S
C384 C383 1.349 . S
C384 C396 1.349 . S
C385 C383 1.327 . S
C385 C401 1.429 . S
C385 H407 0.950 . S
C386 H382 0.949 . S
C386 C394 1.574 . S
C386 C402 1.368 . S
H387 C395 0.950 . S
H388 C393 0.950 . S
H389 C394 0.949 . S
H390 C396 0.950 . S
H391 C397 0.950 . S
H392 C398 0.949 . S
C393 H388 0.950 . S
C393 C395 1.327 . S
C393 C399 1.429 . S
C394 C386 1.574 . S
C394 H389 0.949 . S
C394 C400 1.368 . S
C395 C379 1.349 . S
C395 H387 0.950 . S
C395 C393 1.327 . S
C396 C384 1.349 . S
C396 H390 0.950 . S
C396 C397 1.327 . S
C397 H391 0.950 . S
C397 C396 1.327 . S
C397 C401 1.429 . S
C398 C381 1.574 . S
C398 H392 0.949 . S
C398 C402 1.368 . S
C399 C380 1.429 . S
C399 C393 1.429 . S
C399 C400 1.523 . S
C400 C381 1.368 . S
C400 C394 1.368 . S
C400 C399 1.523 . S
C401 C385 1.429 . S
C401 C397 1.429 . S
C401 C402 1.523 . S
C402 C386 1.368 . S
C402 C398 1.368 . S
C402 C401 1.523 . S
H403 C378 0.950 . S
H404 C380 0.950 . S
H405 C381 0.949 . S
H406 C383 0.950 . S
H407 C385 0.950 . S
C408 C409 1.349 . S
C408 C410 1.327 . S
C408 H433 0.950 . S
C409 C408 1.349 . S
C409 C425 1.349 . S
C410 C408 1.327 . S
C410 C429 1.429 . S
C410 H434 0.950 . S
C411 C428 1.574 . S
C411 C430 1.368 . S
C411 H435 0.949 . S
H412 C416 0.949 . S
C413 C414 1.349 . S
C413 C415 1.327 . S
C413 H436 0.950 . S
C414 C413 1.349 . S
C414 C426 1.349 . S
C415 C413 1.327 . S
C415 C431 1.429 . S
C415 H437 0.950 . S
C416 H412 0.949 . S
C416 C424 1.574 . S
C416 C432 1.368 . S
H417 C425 0.950 . S
H418 C423 0.950 . S
H419 C424 0.949 . S
H420 C426 0.950 . S
H421 C427 0.950 . S
H422 C428 0.949 . S
C423 H418 0.950 . S
C423 C425 1.327 . S
C423 C429 1.429 . S
C424 C416 1.574 . S
C424 H419 0.949 . S
C424 C430 1.368 . S
C425 C409 1.349 . S
C425 H417 0.950 . S
C425 C423 1.327 . S
C426 C414 1.349 . S
C426 H420 0.950 . S
C426 C427 1.327 . S
C427 H421 0.950 . S
C427 C426 1.327 . S
C427 C431 1.429 . S
C428 C411 1.574 . S
C428 H422 0.949 . S
C428 C432 1.368 . S
C429 C410 1.429 . S
C429 C423 1.429 . S
C429 C430 1.523 . S
C430 C411 1.368 . S
C430 C424 1.368 . S
C430 C429 1.523 . S
C431 C415 1.429 . S
C431 C427 1.429 . S
C431 C432 1.523 . S
C432 C416 1.368 . S
C432 C428 1.368 . S
C432 C431 1.523 . S
H433 C408 0.950 . S
H434 C410 0.950 . S
H435 C411 0.949 . S
H436 C413 0.950 . S
H437 C415 0.950 . S
C438 C439 1.349 . S
C438 C440 1.327 . S
C438 H463 0.950 . S
C439 C438 1.349 . S
C439 C455 1.349 . S
C440 C438 1.327 . S
C440 C459 1.429 . S
C440 H464 0.950 . S
C441 C458 1.574 . S
C441 C460 1.368 . S
C441 H465 0.949 . S
H442 C446 0.949 . S
C443 C444 1.349 . S
C443 C445 1.327 . S
C443 H466 0.950 . S
C444 C443 1.349 . S
C444 C456 1.349 . S
C445 C443 1.327 . S
C445 C461 1.429 . S
C445 H467 0.950 . S
C446 H442 0.949 . S
C446 C454 1.574 . S
C446 C462 1.368 . S
H447 C455 0.950 . S
H448 C453 0.950 . S
H449 C454 0.949 . S
H450 C456 0.950 . S
H451 C457 0.950 . S
H452 C458 0.949 . S
C453 H448 0.950 . S
C453 C455 1.327 . S
C453 C459 1.429 . S
C454 C446 1.574 . S
C454 H449 0.949 . S
C454 C460 1.368 . S
C455 C439 1.349 . S
C455 H447 0.950 . S
C455 C453 1.327 . S
C456 C444 1.349 . S
C456 H450 0.950 . S
C456 C457 1.327 . S
C457 H451 0.950 . S
C457 C456 1.327 . S
C457 C461 1.429 . S
C458 C441 1.574 . S
C458 H452 0.949 . S
C458 C462 1.368 . S
C459 C440 1.429 . S
C459 C453 1.429 . S
C459 C460 1.523 . S
C460 C441 1.368 . S
C460 C454 1.368 . S
C460 C459 1.523 . S
C461 C445 1.429 . S
C461 C457 1.429 . S
C461 C462 1.523 . S
C462 C446 1.368 . S
C462 C458 1.368 . S
C462 C461 1.523 . S
H463 C438 0.950 . S
H464 C440 0.950 . S
H465 C441 0.949 . S
H466 C443 0.950 . S
H467 C445 0.950 . S
C468 C469 1.349 . S
C468 C470 1.327 . S
C468 H493 0.950 . S
C469 C468 1.349 . S
C469 C485 1.349 . S
C470 C468 1.327 . S
C470 C489 1.429 . S
C470 H494 0.950 . S
C471 C488 1.574 . S
C471 C490 1.368 . S
C471 H495 0.949 . S
H472 C476 0.949 . S
C473 C474 1.349 . S
C473 C475 1.327 . S
C473 H496 0.950 . S
C474 C473 1.349 . S
C474 C486 1.349 . S
C475 C473 1.327 . S
C475 C491 1.429 . S
C475 H497 0.950 . S
C476 H472 0.949 . S
C476 C484 1.574 . S
C476 C492 1.368 . S
H477 C485 0.950 . S
H478 C483 0.950 . S
H479 C484 0.949 . S
H480 C486 0.950 . S
H481 C487 0.950 . S
H482 C488 0.949 . S
C483 H478 0.950 . S
C483 C485 1.327 . S
C483 C489 1.429 . S
C484 C476 1.574 . S
C484 H479 0.949 . S
C484 C490 1.368 . S
C485 C469 1.349 . S
C485 H477 0.950 . S
C485 C483 1.327 . S
C486 C474 1.349 . S
C486 H480 0.950 . S
C486 C487 1.327 . S
C487 H481 0.950 . S
C487 C486 1.327 . S
C487 C491 1.429 . S
C488 C471 1.574 . S
C488 H482 0.949 . S
C488 C492 1.368 . S
C489 C470 1.429 . S
C489 C483 1.429 . S
C489 C490 1.523 . S
C490 C471 1.368 . S
C490 C484 1.368 . S
C490 C489 1.523 . S
C491 C475 1.429 . S
C491 C487 1.429 . S
C491 C492 1.523 . S
C492 C476 1.368 . S
C492 C488 1.368 . S
C492 C491 1.523 . S
H493 C468 0.950 . S
H494 C470 0.950 . S
H495 C471 0.949 . S
H496 C473 0.950 . S
H497 C475 0.950 . S
C498 C499 1.349 . S
C498 C500 1.327 . S
C498 H523 0.950 . S
C499 C498 1.349 . S
C499 C515 1.349 . S
C500 C498 1.327 . S
C500 C519 1.429 . S
C500 H524 0.950 . S
C501 C518 1.574 . S
C501 C520 1.368 . S
C501 H525 0.949 . S
H502 C506 0.949 . S
C503 C504 1.349 . S
C503 C505 1.327 . S
C503 H526 0.950 . S
C504 C503 1.349 . S
C504 C516 1.349 . S
C505 C503 1.327 . S
C505 C521 1.429 . S
C505 H527 0.950 . S
C506 H502 0.949 . S
C506 C514 1.574 . S
C506 C522 1.368 . S
H507 C515 0.950 . S
H508 C513 0.950 . S
H509 C514 0.949 . S
H510 C516 0.950 . S
H511 C517 0.950 . S
H512 C518 0.949 . S
C513 H508 0.950 . S
C513 C515 1.327 . S
C513 C519 1.429 . S
C514 C506 1.574 . S
C514 H509 0.949 . S
C514 C520 1.368 . S
C515 C499 1.349 . S
C515 H507 0.950 . S
C515 C513 1.327 . S
C516 C504 1.349 . S
C516 H510 0.950 . S
C516 C517 1.327 . S
C517 H511 0.950 . S
C517 C516 1.327 . S
C517 C521 1.429 . S
C518 C501 1.574 . S
C518 H512 0.949 . S
C518 C522 1.368 . S
C519 C500 1.429 . S
C519 C513 1.429 . S
C519 C520 1.523 . S
C520 C501 1.368 . S
C520 C514 1.368 . S
C520 C519 1.523 . S
C521 C505 1.429 . S
C521 C517 1.429 . S
C521 C522 1.523 . S
C522 C506 1.368 . S
C522 C518 1.368 . S
C522 C521 1.523 . S
H523 C498 0.950 . S
H524 C500 0.950 . S
H525 C501 0.949 . S
H526 C503 0.950 . S
H527 C505 0.950 . S
C528 C529 1.349 . S
C528 C530 1.327 . S
C528 H553 0.950 . S
C529 C528 1.349 . S
C529 C545 1.349 . S
C530 C528 1.327 . S
C530 C549 1.429 . S
C530 H554 0.950 . S
C531 C548 1.574 1_655 S
C531 C550 1.368 . S
C531 H555 0.949 . S
H532 C536 0.949 . S
C533 C534 1.349 . S
C533 C535 1.327 . S
C533 H556 0.950 . S
C534 C533 1.349 . S
C534 C546 1.349 . S
C535 C533 1.327 . S
C535 C551 1.429 . S
C535 H557 0.950 . S
C536 H532 0.949 . S
C536 C544 1.574 1_455 S
C536 C552 1.368 . S
H537 C545 0.950 . S
H538 C543 0.950 . S
H539 C544 0.949 . S
H540 C546 0.950 . S
H541 C547 0.950 . S
H542 C548 0.949 . S
C543 H538 0.950 . S
C543 C545 1.327 . S
C543 C549 1.429 . S
C544 C536 1.574 1_655 S
C544 H539 0.949 . S
C544 C550 1.368 . S
C545 C529 1.349 . S
C545 H537 0.950 . S
C545 C543 1.327 . S
C546 C534 1.349 . S
C546 H540 0.950 . S
C546 C547 1.327 . S
C547 H541 0.950 . S
C547 C546 1.327 . S
C547 C551 1.429 . S
C548 C531 1.574 1_455 S
C548 H542 0.949 . S
C548 C552 1.368 . S
C549 C530 1.429 . S
C549 C543 1.429 . S
C549 C550 1.523 . S
C550 C531 1.368 . S
C550 C544 1.368 . S
C550 C549 1.523 . S
C551 C535 1.429 . S
C551 C547 1.429 . S
C551 C552 1.523 . S
C552 C536 1.368 . S
C552 C548 1.368 . S
C552 C551 1.523 . S
H553 C528 0.950 . S
H554 C530 0.950 . S
H555 C531 0.949 . S
H556 C533 0.950 . S
H557 C535 0.950 . S
C558 C559 1.349 . S
C558 C560 1.327 . S
C558 H583 0.950 . S
C559 C558 1.349 . S
C559 C575 1.349 . S
C560 C558 1.327 . S
C560 C579 1.429 . S
C560 H584 0.950 . S
C561 C578 1.574 1_545 S
C561 C580 1.368 . S
C561 H585 0.949 . S
H562 C566 0.949 . S
C563 C564 1.349 . S
C563 C565 1.327 . S
C563 H586 0.950 . S
C564 C563 1.349 . S
C564 C576 1.349 . S
C565 C563 1.327 . S
C565 C581 1.429 . S
C565 H587 0.950 . S
C566 H562 0.949 . S
C566 C574 1.574 1_565 S
C566 C582 1.368 . S
H567 C575 0.950 . S
H568 C573 0.950 . S
H569 C574 0.949 . S
H570 C576 0.950 . S
H571 C577 0.950 . S
H572 C578 0.949 . S
C573 H568 0.950 . S
C573 C575 1.327 . S
C573 C579 1.429 . S
C574 C566 1.574 1_545 S
C574 H569 0.949 . S
C574 C580 1.368 . S
C575 C559 1.349 . S
C575 H567 0.950 . S
C575 C573 1.327 . S
C576 C564 1.349 . S
C576 H570 0.950 . S
C576 C577 1.327 . S
C577 H571 0.950 . S
C577 C576 1.327 . S
C577 C581 1.429 . S
C578 C561 1.574 1_565 S
C578 H572 0.949 . S
C578 C582 1.368 . S
C579 C560 1.429 . S
C579 C573 1.429 . S
C579 C580 1.523 . S
C580 C561 1.368 . S
C580 C574 1.368 . S
C580 C579 1.523 . S
C581 C565 1.429 . S
C581 C577 1.429 . S
C581 C582 1.523 . S
C582 C566 1.368 . S
C582 C578 1.368 . S
C582 C581 1.523 . S
H583 C558 0.950 . S
H584 C560 0.950 . S
H585 C561 0.949 . S
H586 C563 0.950 . S
H587 C565 0.950 . S
C588 C589 1.349 . S
C588 C590 1.327 . S
C588 H613 0.950 . S
C589 C588 1.349 . S
C589 C605 1.349 . S
C590 C588 1.327 . S
C590 C609 1.429 . S
C590 H614 0.950 . S
C591 C608 1.574 . S
C591 C610 1.368 . S
C591 H615 0.949 . S
H592 C596 0.949 . S
C593 C594 1.349 . S
C593 C595 1.327 . S
C593 H616 0.950 . S
C594 C593 1.349 . S
C594 C606 1.349 . S
C595 C593 1.327 . S
C595 C611 1.429 . S
C595 H617 0.950 . S
C596 H592 0.949 . S
C596 C604 1.574 . S
C596 C612 1.368 . S
H597 C605 0.950 . S
H598 C603 0.950 . S
H599 C604 0.949 . S
H600 C606 0.950 . S
H601 C607 0.950 . S
H602 C608 0.949 . S
C603 H598 0.950 . S
C603 C605 1.327 . S
C603 C609 1.429 . S
C604 C596 1.574 . S
C604 H599 0.949 . S
C604 C610 1.368 . S
C605 C589 1.349 . S
C605 H597 0.950 . S
C605 C603 1.327 . S
C606 C594 1.349 . S
C606 H600 0.950 . S
C606 C607 1.327 . S
C607 H601 0.950 . S
C607 C606 1.327 . S
C607 C611 1.429 . S
C608 C591 1.574 . S
C608 H602 0.949 . S
C608 C612 1.368 . S
C609 C590 1.429 . S
C609 C603 1.429 . S
C609 C610 1.523 . S
C610 C591 1.368 . S
C610 C604 1.368 . S
C610 C609 1.523 . S
C611 C595 1.429 . S
C611 C607 1.429 . S
C611 C612 1.523 . S
C612 C596 1.368 . S
C612 C608 1.368 . S
C612 C611 1.523 . S
H613 C588 0.950 . S
H614 C590 0.950 . S
H615 C591 0.949 . S
H616 C593 0.950 . S
H617 C595 0.950 . S
C618 C619 1.349 . S
C618 C620 1.327 . S
C618 H643 0.950 . S
C619 C618 1.349 . S
C619 C635 1.349 . S
C620 C618 1.327 . S
C620 C639 1.429 . S
C620 H644 0.950 . S
C621 C638 1.574 1_545 S
C621 C640 1.368 . S
C621 H645 0.949 . S
H622 C626 0.949 . S
C623 C624 1.349 . S
C623 C625 1.327 . S
C623 H646 0.950 . S
C624 C623 1.349 . S
C624 C636 1.349 . S
C625 C623 1.327 . S
C625 C641 1.429 . S
C625 H647 0.950 . S
C626 H622 0.949 . S
C626 C634 1.574 1_565 S
C626 C642 1.368 . S
H627 C635 0.950 . S
H628 C633 0.950 . S
H629 C634 0.949 . S
H630 C636 0.950 . S
H631 C637 0.950 . S
H632 C638 0.949 . S
C633 H628 0.950 . S
C633 C635 1.327 . S
C633 C639 1.429 . S
C634 C626 1.574 1_545 S
C634 H629 0.949 . S
C634 C640 1.368 . S
C635 C619 1.349 . S
C635 H627 0.950 . S
C635 C633 1.327 . S
C636 C624 1.349 . S
C636 H630 0.950 . S
C636 C637 1.327 . S
C637 H631 0.950 . S
C637 C636 1.327 . S
C637 C641 1.429 . S
C638 C621 1.574 1_565 S
C638 H632 0.949 . S
C638 C642 1.368 . S
C639 C620 1.429 . S
C639 C633 1.429 . S
C639 C640 1.523 . S
C640 C621 1.368 . S
C640 C634 1.368 . S
C640 C639 1.523 . S
C641 C625 1.429 . S
C641 C637 1.429 . S
C641 C642 1.523 . S
C642 C626 1.368 . S
C642 C638 1.368 . S
C642 C641 1.523 . S
H643 C618 0.950 . S
H644 C620 0.950 . S
H645 C621 0.949 . S
H646 C623 0.950 . S
H647 C625 0.950 . S
C648 C649 1.349 . S
C648 C650 1.327 . S
C648 H673 0.950 . S
C649 C648 1.349 . S
C649 C665 1.349 . S
C650 C648 1.327 . S
C650 C669 1.429 . S
C650 H674 0.950 . S
C651 C668 1.574 . S
C651 C670 1.368 . S
C651 H675 0.949 . S
H652 C656 0.949 . S
C653 C654 1.349 . S
C653 C655 1.327 . S
C653 H676 0.950 . S
C654 C653 1.349 . S
C654 C666 1.349 . S
C655 C653 1.327 . S
C655 C671 1.429 . S
C655 H677 0.950 . S
C656 H652 0.949 . S
C656 C664 1.574 . S
C656 C672 1.368 . S
H657 C665 0.950 . S
H658 C663 0.950 . S
H659 C664 0.949 . S
H660 C666 0.950 . S
H661 C667 0.950 . S
H662 C668 0.949 . S
C663 H658 0.950 . S
C663 C665 1.327 . S
C663 C669 1.429 . S
C664 C656 1.574 . S
C664 H659 0.949 . S
C664 C670 1.368 . S
C665 C649 1.349 . S
C665 H657 0.950 . S
C665 C663 1.327 . S
C666 C654 1.349 . S
C666 H660 0.950 . S
C666 C667 1.327 . S
C667 H661 0.950 . S
C667 C666 1.327 . S
C667 C671 1.429 . S
C668 C651 1.574 . S
C668 H662 0.949 . S
C668 C672 1.368 . S
C669 C650 1.429 . S
C669 C663 1.429 . S
C669 C670 1.523 . S
C670 C651 1.368 . S
C670 C664 1.368 . S
C670 C669 1.523 . S
C671 C655 1.429 . S
C671 C667 1.429 . S
C671 C672 1.523 . S
C672 C656 1.368 . S
C672 C668 1.368 . S
C672 C671 1.523 . S
H673 C648 0.950 . S
H674 C650 0.950 . S
H675 C651 0.949 . S
H676 C653 0.950 . S
H677 C655 0.950 . S
C678 C679 1.349 . S
C678 C680 1.327 . S
C678 H703 0.950 . S
C679 C678 1.349 . S
C679 C695 1.349 . S
C680 C678 1.327 . S
C680 C699 1.429 . S
C680 H704 0.950 . S
C681 C698 1.574 1_455 S
C681 C700 1.368 . S
C681 H705 0.949 . S
H682 C686 0.949 . S
C683 C684 1.349 . S
C683 C685 1.327 . S
C683 H706 0.950 . S
C684 C683 1.349 . S
C684 C696 1.349 . S
C685 C683 1.327 . S
C685 C701 1.429 . S
C685 H707 0.950 . S
C686 H682 0.949 . S
C686 C694 1.574 1_655 S
C686 C702 1.368 . S
H687 C695 0.950 . S
H688 C693 0.950 . S
H689 C694 0.949 . S
H690 C696 0.950 . S
H691 C697 0.950 . S
H692 C698 0.949 . S
C693 H688 0.950 . S
C693 C695 1.327 . S
C693 C699 1.429 . S
C694 C686 1.574 1_455 S
C694 H689 0.949 . S
C694 C700 1.368 . S
C695 C679 1.349 . S
C695 H687 0.950 . S
C695 C693 1.327 . S
C696 C684 1.349 . S
C696 H690 0.950 . S
C696 C697 1.327 . S
C697 H691 0.950 . S
C697 C696 1.327 . S
C697 C701 1.429 . S
C698 C681 1.574 1_655 S
C698 H692 0.949 . S
C698 C702 1.368 . S
C699 C680 1.429 . S
C699 C693 1.429 . S
C699 C700 1.523 . S
C700 C681 1.368 . S
C700 C694 1.368 . S
C700 C699 1.523 . S
C701 C685 1.429 . S
C701 C697 1.429 . S
C701 C702 1.523 . S
C702 C686 1.368 . S
C702 C698 1.368 . S
C702 C701 1.523 . S
H703 C678 0.950 . S
H704 C680 0.950 . S
H705 C681 0.949 . S
H706 C683 0.950 . S
H707 C685 0.950 . S
C708 C709 1.349 . S
C708 C710 1.327 . S
C708 H733 0.950 . S
C709 C708 1.349 . S
C709 C725 1.349 . S
C710 C708 1.327 . S
C710 C729 1.429 . S
C710 H734 0.950 . S
C711 C728 1.574 . S
C711 C730 1.368 . S
C711 H735 0.949 . S
H712 C716 0.949 . S
C713 C714 1.349 . S
C713 C715 1.327 . S
C713 H736 0.950 . S
C714 C713 1.349 . S
C714 C726 1.349 . S
C715 C713 1.327 . S
C715 C731 1.429 . S
C715 H737 0.950 . S
C716 H712 0.949 . S
C716 C724 1.574 . S
C716 C732 1.368 . S
H717 C725 0.950 . S
H718 C723 0.950 . S
H719 C724 0.949 . S
H720 C726 0.950 . S
H721 C727 0.950 . S
H722 C728 0.949 . S
C723 H718 0.950 . S
C723 C725 1.327 . S
C723 C729 1.429 . S
C724 C716 1.574 . S
C724 H719 0.949 . S
C724 C730 1.368 . S
C725 C709 1.349 . S
C725 H717 0.950 . S
C725 C723 1.327 . S
C726 C714 1.349 . S
C726 H720 0.950 . S
C726 C727 1.327 . S
C727 H721 0.950 . S
C727 C726 1.327 . S
C727 C731 1.429 . S
C728 C711 1.574 . S
C728 H722 0.949 . S
C728 C732 1.368 . S
C729 C710 1.429 . S
C729 C723 1.429 . S
C729 C730 1.523 . S
C730 C711 1.368 . S
C730 C724 1.368 . S
C730 C729 1.523 . S
C731 C715 1.429 . S
C731 C727 1.429 . S
C731 C732 1.523 . S
C732 C716 1.368 . S
C732 C728 1.368 . S
C732 C731 1.523 . S
H733 C708 0.950 . S
H734 C710 0.950 . S
H735 C711 0.949 . S
H736 C713 0.950 . S
H737 C715 0.950 . S
C738 C739 1.349 1_455 S
C738 C740 1.327 . S
C738 H763 0.950 1_455 S
C739 C738 1.349 1_655 S
C739 C755 1.349 1_655 S
C740 C738 1.327 . S
C740 C759 1.429 . S
C740 H764 0.950 . S
C741 C758 1.574 . S
C741 C760 1.368 . S
C741 H765 0.949 . S
H742 C746 0.949 . S
C743 C744 1.349 . S
C743 C745 1.327 . S
C743 H766 0.950 . S
C744 C743 1.349 . S
C744 C756 1.349 . S
C745 C743 1.327 . S
C745 C761 1.429 . S
C745 H767 0.950 . S
C746 H742 0.949 . S
C746 C754 1.574 . S
C746 C762 1.368 . S
H747 C755 0.950 . S
H748 C753 0.950 . S
H749 C754 0.949 . S
H750 C756 0.950 . S
H751 C757 0.950 . S
H752 C758 0.949 . S
C753 H748 0.950 . S
C753 C755 1.327 . S
C753 C759 1.429 . S
C754 C746 1.574 . S
C754 H749 0.949 . S
C754 C760 1.368 . S
C755 C739 1.349 1_455 S
C755 H747 0.950 . S
C755 C753 1.327 . S
C756 C744 1.349 . S
C756 H750 0.950 . S
C756 C757 1.327 . S
C757 H751 0.950 . S
C757 C756 1.327 . S
C757 C761 1.429 . S
C758 C741 1.574 . S
C758 H752 0.949 . S
C758 C762 1.368 . S
C759 C740 1.429 . S
C759 C753 1.429 . S
C759 C760 1.523 . S
C760 C741 1.368 . S
C760 C754 1.368 . S
C760 C759 1.523 . S
C761 C745 1.429 . S
C761 C757 1.429 . S
C761 C762 1.523 . S
C762 C746 1.368 . S
C762 C758 1.368 . S
C762 C761 1.523 . S
H763 C738 0.950 1_655 S
H764 C740 0.950 . S
H765 C741 0.949 . S
H766 C743 0.950 . S
H767 C745 0.950 . S
C768 C769 1.349 1_565 S
C768 C770 1.327 . S
C768 H793 0.950 . S
C769 C768 1.349 1_545 S
C769 C785 1.349 1_545 S
C770 C768 1.327 . S
C770 C789 1.429 . S
C770 H794 0.950 . S
C771 C788 1.574 . S
C771 C790 1.368 . S
C771 H795 0.949 . S
H772 C776 0.949 . S
C773 C774 1.349 . S
C773 C775 1.327 . S
C773 H796 0.950 . S
C774 C773 1.349 . S
C774 C786 1.349 . S
C775 C773 1.327 . S
C775 C791 1.429 . S
C775 H797 0.950 . S
C776 H772 0.949 . S
C776 C784 1.574 . S
C776 C792 1.368 . S
H777 C785 0.950 1_545 S
H778 C783 0.950 . S
H779 C784 0.949 . S
H780 C786 0.950 . S
H781 C787 0.950 . S
H782 C788 0.949 . S
C783 H778 0.950 . S
C783 C785 1.327 . S
C783 C789 1.429 . S
C784 C776 1.574 . S
C784 H779 0.949 . S
C784 C790 1.368 . S
C785 C769 1.349 1_565 S
C785 H777 0.950 1_565 S
C785 C783 1.327 . S
C786 C774 1.349 . S
C786 H780 0.950 . S
C786 C787 1.327 . S
C787 H781 0.950 . S
C787 C786 1.327 . S
C787 C791 1.429 . S
C788 C771 1.574 . S
C788 H782 0.949 . S
C788 C792 1.368 . S
C789 C770 1.429 . S
C789 C783 1.429 . S
C789 C790 1.523 . S
C790 C771 1.368 . S
C790 C784 1.368 . S
C790 C789 1.523 . S
C791 C775 1.429 . S
C791 C787 1.429 . S
C791 C792 1.523 . S
C792 C776 1.368 . S
C792 C788 1.368 . S
C792 C791 1.523 . S
H793 C768 0.950 . S
H794 C770 0.950 . S
H795 C771 0.949 . S
H796 C773 0.950 . S
H797 C775 0.950 . S
C798 C799 1.349 . S
C798 C800 1.327 . S
C798 H823 0.950 . S
C799 C798 1.349 . S
C799 C815 1.349 . S
C800 C798 1.327 . S
C800 C819 1.429 . S
C800 H824 0.950 . S
C801 C818 1.574 . S
C801 C820 1.368 . S
C801 H825 0.949 . S
H802 C806 0.949 . S
C803 C804 1.349 . S
C803 C805 1.327 . S
C803 H826 0.950 . S
C804 C803 1.349 . S
C804 C816 1.349 . S
C805 C803 1.327 . S
C805 C821 1.429 . S
C805 H827 0.950 . S
C806 H802 0.949 . S
C806 C814 1.574 . S
C806 C822 1.368 . S
H807 C815 0.950 . S
H808 C813 0.950 . S
H809 C814 0.949 . S
H810 C816 0.950 . S
H811 C817 0.950 . S
H812 C818 0.949 . S
C813 H808 0.950 . S
C813 C815 1.327 . S
C813 C819 1.429 . S
C814 C806 1.574 . S
C814 H809 0.949 . S
C814 C820 1.368 . S
C815 C799 1.349 . S
C815 H807 0.950 . S
C815 C813 1.327 . S
C816 C804 1.349 . S
C816 H810 0.950 . S
C816 C817 1.327 . S
C817 H811 0.950 . S
C817 C816 1.327 . S
C817 C821 1.429 . S
C818 C801 1.574 . S
C818 H812 0.949 . S
C818 C822 1.368 . S
C819 C800 1.429 . S
C819 C813 1.429 . S
C819 C820 1.523 . S
C820 C801 1.368 . S
C820 C814 1.368 . S
C820 C819 1.523 . S
C821 C805 1.429 . S
C821 C817 1.429 . S
C821 C822 1.523 . S
C822 C806 1.368 . S
C822 C818 1.368 . S
C822 C821 1.523 . S
H823 C798 0.950 . S
H824 C800 0.950 . S
H825 C801 0.949 . S
H826 C803 0.950 . S
H827 C805 0.950 . S
C828 C829 1.348 1_655 S
C828 C830 1.328 . S
C828 H853 0.950 1_655 S
C829 C828 1.348 1_455 S
C829 C845 1.349 1_455 S
C830 C828 1.328 . S
C830 C849 1.429 . S
C830 H854 0.950 . S
C831 C848 1.574 . S
C831 C850 1.368 . S
C831 H855 0.949 . S
H832 C836 0.949 . S
C833 C834 1.349 . S
C833 C835 1.327 . S
C833 H856 0.950 . S
C834 C833 1.349 . S
C834 C846 1.349 . S
C835 C833 1.327 . S
C835 C851 1.429 . S
C835 H857 0.950 . S
C836 H832 0.949 . S
C836 C844 1.574 . S
C836 C852 1.368 . S
H837 C845 0.950 . S
H838 C843 0.950 . S
H839 C844 0.949 . S
H840 C846 0.950 . S
H841 C847 0.950 . S
H842 C848 0.949 . S
C843 H838 0.950 . S
C843 C845 1.327 . S
C843 C849 1.429 . S
C844 C836 1.574 . S
C844 H839 0.949 . S
C844 C850 1.368 . S
C845 C829 1.349 1_655 S
C845 H837 0.950 . S
C845 C843 1.327 . S
C846 C834 1.349 . S
C846 H840 0.950 . S
C846 C847 1.327 . S
C847 H841 0.950 . S
C847 C846 1.327 . S
C847 C851 1.429 . S
C848 C831 1.574 . S
C848 H842 0.949 . S
C848 C852 1.368 . S
C849 C830 1.429 . S
C849 C843 1.429 . S
C849 C850 1.523 . S
C850 C831 1.368 . S
C850 C844 1.368 . S
C850 C849 1.523 . S
C851 C835 1.429 . S
C851 C847 1.429 . S
C851 C852 1.523 . S
C852 C836 1.368 . S
C852 C848 1.368 . S
C852 C851 1.523 . S
H853 C828 0.950 1_455 S
H854 C830 0.950 . S
H855 C831 0.949 . S
H856 C833 0.950 . S
H857 C835 0.950 . S
C858 C859 1.349 1_545 S
C858 C860 1.327 . S
C858 H883 0.950 1_545 S
C859 C858 1.349 1_565 S
C859 C875 1.349 1_565 S
C860 C858 1.327 . S
C860 C879 1.429 . S
C860 H884 0.950 . S
C861 C878 1.574 . S
C861 C880 1.368 . S
C861 H885 0.949 . S
H862 C866 0.949 . S
C863 C864 1.349 . S
C863 C865 1.327 . S
C863 H886 0.950 . S
C864 C863 1.349 . S
C864 C876 1.349 . S
C865 C863 1.327 . S
C865 C881 1.429 . S
C865 H887 0.950 . S
C866 H862 0.949 . S
C866 C874 1.574 . S
C866 C882 1.368 . S
H867 C875 0.950 . S
H868 C873 0.950 . S
H869 C874 0.949 . S
H870 C876 0.950 . S
H871 C877 0.950 . S
H872 C878 0.949 . S
C873 H868 0.950 . S
C873 C875 1.327 . S
C873 C879 1.429 . S
C874 C866 1.574 . S
C874 H869 0.949 . S
C874 C880 1.368 . S
C875 C859 1.349 1_545 S
C875 H867 0.950 . S
C875 C873 1.327 . S
C876 C864 1.349 . S
C876 H870 0.950 . S
C876 C877 1.327 . S
C877 H871 0.950 . S
C877 C876 1.327 . S
C877 C881 1.429 . S
C878 C861 1.574 . S
C878 H872 0.949 . S
C878 C882 1.368 . S
C879 C860 1.429 . S
C879 C873 1.429 . S
C879 C880 1.523 . S
C880 C861 1.368 . S
C880 C874 1.368 . S
C880 C879 1.523 . S
C881 C865 1.429 . S
C881 C877 1.429 . S
C881 C882 1.523 . S
C882 C866 1.368 . S
C882 C878 1.368 . S
C882 C881 1.523 . S
H883 C858 0.950 1_565 S
H884 C860 0.950 . S
H885 C861 0.949 . S
H886 C863 0.950 . S
H887 C865 0.950 . S
C169 C149 1.559 . S
C174 C9 1.395 . S
C199 C23 1.558 . S
C204 C163 1.394 . S
C229 C37 1.395 . S
C234 C93 1.559 . S
C259 C51 1.559 . S
C264 C107 1.395 . S
C289 C121 1.558 . S
C294 C65 1.394 . S
C319 C79 1.559 . S
C324 C135 1.395 . S
C349 C112 1.596 . S
C354 C0 1.488 . S
C379 C14 1.596 . S
C384 C126 1.488 . S
C409 C28 1.489 . S
C414 C140 1.596 . S
C439 C42 1.595 . S
C444 C154 1.488 . S
C469 C84 1.595 . S
C474 C56 1.488 . S
C499 C98 1.488 . S
C504 C70 1.595 . S
C529 C47 1.420 . S
C534 C5 1.419 . S
C559 C19 1.420 . S
C564 C61 1.419 . S
C589 C75 1.420 . S
C594 C33 1.420 . S
C619 C131 1.420 . S
C624 C89 1.420 . S
C649 C145 1.420 . S
C654 C103 1.419 . S
C679 C117 1.419 . S
C684 C159 1.419 . S
C709 C53 1.294 . S
C714 C11 1.294 . S
C739 C25 1.294 . S
C744 C67 1.293 . S
C769 C81 1.294 . S
C774 C39 1.294 . S
C799 C95 1.294 . S
C804 C137 1.294 . S
C829 C151 1.293 . S
C834 C109 1.293 . S
C859 C123 1.294 . S
C864 C165 1.294 . S
