# Generated by pormake.
# Topology fnl, (5)-cn, num edge types: 1
# Building blocks:
#     Node 0, Type 0, BuildingBlock: XOMCOT_clean_sbu_0, # of connection points: 5
#     Node 1, Type 0, BuildingBlock: XOMCOT_clean_sbu_0, # of connection points: 5
#     Node 2, Type 0, BuildingBlock: XOMCOT_clean_sbu_0, # of connection points: 5
#     Node 3, Type 0, BuildingBlock: XOMCOT_clean_sbu_0, # of connection points: 5
#     Node 4, Type 0, BuildingBlock: XOMCOT_clean_sbu_0, # of connection points: 5
#     Node 5, Type 0, BuildingBlock: XOMCOT_clean_sbu_0, # of connection points: 5
#     Node 6, Type 0, BuildingBlock: XOMCOT_clean_sbu_0, # of connection points: 5
#     Node 7, Type 0, BuildingBlock: XOMCOT_clean_sbu_0, # of connection points: 5
#     Node 8, Type 0, BuildingBlock: XOMCOT_clean_sbu_0, # of connection points: 5
#     Node 9, Type 0, BuildingBlock: XOMCOT_clean_sbu_0, # of connection points: 5
#     Node 10, Type 0, BuildingBlock: XOMCOT_clean_sbu_0, # of connection points: 5
#     Node 11, Type 0, BuildingBlock: XOMCOT_clean_sbu_0, # of connection points: 5
#     Node 12, Type 0, BuildingBlock: XOMCOT_clean_sbu_0, # of connection points: 5
#     Node 13, Type 0, BuildingBlock: XOMCOT_clean_sbu_0, # of connection points: 5
#     Node 14, Type 0, BuildingBlock: XOMCOT_clean_sbu_0, # of connection points: 5
#     Node 15, Type 0, BuildingBlock: XOMCOT_clean_sbu_0, # of connection points: 5
#     Edge 16, Type (0, 0), BuildingBlock: TEMPAE_clean_linker_10, # of connection points: 2
#     Edge 17, Type (0, 0), BuildingBlock: TEMPAE_clean_linker_10, # of connection points: 2
#     Edge 18, Type (0, 0), BuildingBlock: TEMPAE_clean_linker_10, # of connection points: 2
#     Edge 19, Type (0, 0), BuildingBlock: TEMPAE_clean_linker_10, # of connection points: 2
#     Edge 20, Type (0, 0), BuildingBlock: TEMPAE_clean_linker_10, # of connection points: 2
#     Edge 21, Type (0, 0), BuildingBlock: TEMPAE_clean_linker_10, # of connection points: 2
#     Edge 22, Type (0, 0), BuildingBlock: TEMPAE_clean_linker_10, # of connection points: 2
#     Edge 23, Type (0, 0), BuildingBlock: TEMPAE_clean_linker_10, # of connection points: 2
#     Edge 24, Type (0, 0), BuildingBlock: TEMPAE_clean_linker_10, # of connection points: 2
#     Edge 25, Type (0, 0), BuildingBlock: TEMPAE_clean_linker_10, # of connection points: 2
#     Edge 26, Type (0, 0), BuildingBlock: TEMPAE_clean_linker_10, # of connection points: 2
#     Edge 27, Type (0, 0), BuildingBlock: TEMPAE_clean_linker_10, # of connection points: 2
#     Edge 28, Type (0, 0), BuildingBlock: TEMPAE_clean_linker_10, # of connection points: 2
#     Edge 29, Type (0, 0), BuildingBlock: TEMPAE_clean_linker_10, # of connection points: 2
#     Edge 30, Type (0, 0), BuildingBlock: TEMPAE_clean_linker_10, # of connection points: 2
#     Edge 31, Type (0, 0), BuildingBlock: TEMPAE_clean_linker_10, # of connection points: 2
#     Edge 32, Type (0, 0), BuildingBlock: TEMPAE_clean_linker_10, # of connection points: 2
#     Edge 33, Type (0, 0), BuildingBlock: TEMPAE_clean_linker_10, # of connection points: 2
#     Edge 34, Type (0, 0), BuildingBlock: TEMPAE_clean_linker_10, # of connection points: 2
#     Edge 35, Type (0, 0), BuildingBlock: TEMPAE_clean_linker_10, # of connection points: 2
#     Edge 36, Type (0, 0), BuildingBlock: TEMPAE_clean_linker_10, # of connection points: 2
#     Edge 37, Type (0, 0), BuildingBlock: TEMPAE_clean_linker_10, # of connection points: 2
#     Edge 38, Type (0, 0), BuildingBlock: TEMPAE_clean_linker_10, # of connection points: 2
#     Edge 39, Type (0, 0), BuildingBlock: TEMPAE_clean_linker_10, # of connection points: 2
#     Edge 40, Type (0, 0), BuildingBlock: TEMPAE_clean_linker_10, # of connection points: 2
#     Edge 41, Type (0, 0), BuildingBlock: TEMPAE_clean_linker_10, # of connection points: 2
#     Edge 42, Type (0, 0), BuildingBlock: TEMPAE_clean_linker_10, # of connection points: 2
#     Edge 43, Type (0, 0), BuildingBlock: TEMPAE_clean_linker_10, # of connection points: 2
#     Edge 44, Type (0, 0), BuildingBlock: TEMPAE_clean_linker_10, # of connection points: 2
#     Edge 45, Type (0, 0), BuildingBlock: TEMPAE_clean_linker_10, # of connection points: 2
#     Edge 46, Type (0, 0), BuildingBlock: TEMPAE_clean_linker_10, # of connection points: 2
#     Edge 47, Type (0, 0), BuildingBlock: TEMPAE_clean_linker_10, # of connection points: 2
#     Edge 48, Type (0, 0), BuildingBlock: TEMPAE_clean_linker_10, # of connection points: 2
#     Edge 49, Type (0, 0), BuildingBlock: TEMPAE_clean_linker_10, # of connection points: 2
#     Edge 50, Type (0, 0), BuildingBlock: TEMPAE_clean_linker_10, # of connection points: 2
#     Edge 51, Type (0, 0), BuildingBlock: TEMPAE_clean_linker_10, # of connection points: 2
#     Edge 52, Type (0, 0), BuildingBlock: TEMPAE_clean_linker_10, # of connection points: 2
#     Edge 53, Type (0, 0), BuildingBlock: TEMPAE_clean_linker_10, # of connection points: 2
#     Edge 54, Type (0, 0), BuildingBlock: TEMPAE_clean_linker_10, # of connection points: 2
#     Edge 55, Type (0, 0), BuildingBlock: TEMPAE_clean_linker_10, # of connection points: 2
# Relax obj value: 0.530
# Max RMSD: 0.271
# Mean RMSD: 0.271
data_MOF--net-fnl--node1-XOMCOT_clean_sbu_0--edge1-TEMPAE_clean_linker_10
_symmetry_space_group_name_H-M    P1
_symmetry_Int_Tables_number       1
_symmetry_cell_setting            triclinic
loop_
_symmetry_equiv_pos_as_xyz
'x, y, z'
_cell_length_a     34.683467
_cell_length_b     34.602792
_cell_length_c     96.350042
_cell_angle_alpha  89.995169
_cell_angle_beta   90.012898
_cell_angle_gamma 90.042237
loop_
_atom_site_label
_atom_site_type_symbol
_atom_site_fract_x
_atom_site_fract_y
_atom_site_fract_z
_atom_type_partial_charge
Co0 Co 0.03064 0.04073 0.07005 0.0
C1 C 0.03936 0.12297 0.07814 0.0
C2 C 0.09285 0.09844 0.0714 0.0
C3 C 0.09902 0.13674 0.07468 0.0
N4 N 0.05531 0.08995 0.07352 0.0
N5 N 0.06529 0.15175 0.07902 0.0
H6 H 0.00933 0.12676 0.08055 0.0
H7 H 0.11423 0.07827 0.06764 0.0
C8 C 0.07678 0.02987 0.09615 0.0
O9 O 0.06771 0.0649 0.10025 0.0
N10 N 0.00665 0.99171 0.06648 0.0
C11 C 0.97008 0.98518 0.06241 0.0
C12 C 0.96457 0.94587 0.06141 0.0
C13 C 0.023 0.95672 0.0678 0.0
N14 N -0.00213 0.92813 0.06486 0.0
C15 C 0.95857 0.07514 0.07767 0.0
C16 C 0.94887 0.03451 0.10206 0.0
C17 C 0.91825 0.05687 0.09702 0.0
C18 C 0.92361 0.07795 0.08479 0.0
C19 C 0.98306 0.03206 0.09454 0.0
N20 N 0.98796 0.05249 0.08254 0.0
H21 H 0.96145 0.09021 0.06792 0.0
H22 H 0.00396 0.01112 0.09792 0.0
H23 H 0.94886 0.00737 0.06042 0.0
H24 H 0.05281 0.95236 0.0707 0.0
O25 O 0.00943 0.06054 0.05294 0.0
O26 O 0.06595 0.03116 0.05503 0.0
O27 O 0.06273 0.0161 0.08496 0.0
C28 C 0.04043 0.04727 0.04703 0.0
H29 H 0.12598 0.15236 0.07389 0.0
H30 H 0.93793 0.93151 0.05864 0.0
H31 H 0.9453 0.0163 0.11112 0.0
H32 H 0.90037 0.09495 0.08042 0.0
Co33 Co 0.2709 0.80409 0.32265 0.0
C34 C 0.18972 0.82066 0.33094 0.0
C35 C 0.22022 0.87152 0.32461 0.0
C36 C 0.18237 0.88142 0.32712 0.0
N37 N 0.22472 0.83328 0.32688 0.0
N38 N 0.16357 0.84933 0.33118 0.0
H39 H 0.18229 0.79107 0.33298 0.0
H40 H 0.24262 0.89062 0.32086 0.0
C41 C 0.29192 0.85135 0.34759 0.0
O42 O 0.25881 0.84237 0.35338 0.0
N43 N 0.31709 0.77593 0.31829 0.0
C44 C 0.32007 0.73847 0.31464 0.0
C45 C 0.35858 0.7296 0.31315 0.0
C46 C 0.35337 0.78943 0.3189 0.0
N47 N 0.37934 0.76168 0.31593 0.0
C48 C 0.23255 0.73765 0.33403 0.0
C49 C 0.28421 0.7263 0.35537 0.0
C50 C 0.256 0.69793 0.35292 0.0
C51 C 0.22926 0.70456 0.34227 0.0
C52 C 0.28586 0.75922 0.34713 0.0
N53 N 0.25998 0.76507 0.33668 0.0
H54 H 0.21414 0.74011 0.32504 0.0
H55 H 0.31045 0.77791 0.34841 0.0
H56 H 0.29601 0.71887 0.3134 0.0
H57 H 0.36059 0.81902 0.32144 0.0
O58 O 0.24561 0.78042 0.30693 0.0
O59 O 0.27879 0.83527 0.30642 0.0
O60 O 0.30102 0.83753 0.33577 0.0
C61 C 0.25951 0.80902 0.29971 0.0
H62 H 0.1694 0.90958 0.32567 0.0
H63 H 0.37038 0.70156 0.31057 0.0
H64 H 0.3071 0.72199 0.36284 0.0
H65 H 0.20717 0.68357 0.3398 0.0
Co66 Co 0.49921 0.02867 0.57369 0.0
C67 C 0.49596 0.94648 0.58234 0.0
C68 C 0.43954 0.9703 0.57952 0.0
C69 C 0.43583 0.93175 0.58294 0.0
N70 N 0.47735 0.97949 0.57919 0.0
N71 N 0.47146 0.91705 0.58477 0.0
H72 H 0.52673 0.94302 0.58222 0.0
H73 H 0.41632 0.99014 0.57721 0.0
C74 C 0.45817 0.04472 0.60067 0.0
O75 O 0.4665 0.01003 0.60531 0.0
N76 N 0.52063 0.07747 0.56803 0.0
C77 C 0.55609 0.08376 0.56282 0.0
C78 C 0.56037 0.12274 0.5605 0.0
C79 C 0.50362 0.11233 0.56867 0.0
N80 N 0.52736 0.14068 0.5642 0.0
C81 C 0.57415 -0.00145 0.58023 0.0
C82 C 0.58697 0.04492 0.60305 0.0
C83 C 0.61733 0.02217 0.59801 0.0
C84 C 0.61037 0.99821 0.58658 0.0
C85 C 0.55135 0.04444 0.59641 0.0
N86 N 0.54487 0.02111 0.58521 0.0
H87 H 0.57026 0.98177 0.57089 0.0
H88 H 0.53049 0.06548 0.5997 0.0
H89 H 0.57749 0.06165 0.56099 0.0
H90 H 0.47439 0.1167 0.57225 0.0
O91 O 0.51728 0.00593 0.55659 0.0
O92 O 0.46034 0.03383 0.55957 0.0
O93 O 0.47 0.05592 0.5888 0.0
C94 C 0.48476 0.01734 0.55124 0.0
H95 H 0.40914 0.91571 0.5838 0.0
H96 H 0.58617 0.13679 0.5567 0.0
H97 H 0.59142 0.06536 0.61141 0.0
H98 H 0.63315 0.98063 0.5822 0.0
Co99 Co 0.26482 0.29511 0.82676 0.0
C100 C 0.34797 0.28872 0.8262 0.0
C101 C 0.3237 0.23464 0.83264 0.0
C102 C 0.3633 0.23105 0.83228 0.0
N103 N 0.31434 0.27091 0.82879 0.0
N104 N 0.3783 0.26513 0.82815 0.0
H105 H 0.35017 0.31864 0.82306 0.0
H106 H 0.30365 0.21217 0.83548 0.0
C107 C 0.22735 0.22473 0.83733 0.0
O108 O 0.23378 0.21005 0.82499 0.0
N109 N 0.21553 0.31995 0.82471 0.0
C110 C 0.2073 0.35808 0.82459 0.0
C111 C 0.16824 0.36256 0.82269 0.0
C112 C 0.18178 0.30189 0.82251 0.0
N113 N 0.15257 0.32718 0.82132 0.0
C114 C 0.29358 0.36642 0.83763 0.0
C115 C 0.2696 0.35496 0.8646 0.0
C116 C 0.27843 0.39262 0.86021 0.0
C117 C 0.29322 0.3976 0.84679 0.0
C118 C 0.26961 0.32475 0.85501 0.0
N119 N 0.27848 0.33151 0.84141 0.0
H120 H 0.30223 0.37175 0.82705 0.0
H121 H 0.26036 0.29676 0.85856 0.0
H122 H 0.22792 0.38124 0.82553 0.0
H123 H 0.17854 0.27087 0.82182 0.0
O124 O 0.28346 0.32336 0.81061 0.0
O125 O 0.25511 0.26628 0.81004 0.0
O126 O 0.24044 0.25822 0.84037 0.0
C127 C 0.27029 0.29477 0.80328 0.0
H128 H 0.37966 0.20527 0.83465 0.0
H129 H 0.15265 0.38961 0.82207 0.0
H130 H 0.25984 0.34938 0.87509 0.0
H131 H 0.30088 0.42593 0.8429 0.0
Co132 Co 0.01201 0.03891 0.92138 0.0
C133 C 0.01005 0.95592 0.91578 0.0
C134 C 0.06658 0.97922 0.91215 0.0
C135 C 0.06729 0.9401 0.90935 0.0
N136 N 0.03065 0.98881 0.91615 0.0
N137 N 0.03161 0.92578 0.91155 0.0
H138 H 0.98001 0.95399 0.91874 0.0
H139 H 0.09047 -0.00079 0.91135 0.0
C140 C 0.03047 0.08956 0.89712 0.0
O141 O 0.99508 0.10307 0.89757 0.0
N142 N 0.99414 0.08986 0.92693 0.0
C143 C 0.961 0.1005 0.93321 0.0
C144 C 0.96171 0.13972 0.93545 0.0
C145 C 0.01528 0.12253 0.92622 0.0
N146 N 0.99578 0.15357 0.93092 0.0
C147 C 0.93133 0.02598 0.91694 0.0
C148 C 0.93403 0.02176 0.88841 0.0
C149 C 0.89789 0.02558 0.8949 0.0
C150 C 0.89697 0.02542 0.90947 0.0
C151 C 0.96772 0.02358 0.89635 0.0
N152 N 0.96587 0.02954 0.91034 0.0
H153 H 0.92996 0.02463 0.9281 0.0
H154 H 0.99526 0.02128 0.89118 0.0
H155 H 0.93796 0.08166 0.93636 0.0
H156 H 0.04454 0.12348 0.92236 0.0
O157 O 0.9947 0.01828 0.93888 0.0
O158 O 0.05252 0.04362 0.93492 0.0
O159 O 0.04082 0.06244 0.90531 0.0
C160 C 0.02831 0.02845 0.94367 0.0
H161 H 0.09193 0.92357 0.90586 0.0
H162 H 0.93859 0.15673 0.93986 0.0
H163 H 0.9365 0.01893 0.87726 0.0
H164 H 0.87023 0.02703 0.91521 0.0
Co165 Co 0.27056 0.79972 0.17222 0.0
C166 C 0.35315 0.81071 0.16711 0.0
C167 C 0.32835 0.86175 0.17596 0.0
C168 C 0.36747 0.86764 0.17434 0.0
N169 N 0.31954 0.82604 0.1713 0.0
N170 N 0.38274 0.83545 0.16869 0.0
H171 H 0.35657 0.78136 0.16359 0.0
H172 H 0.30792 0.88189 0.18038 0.0
C173 C 0.26052 0.86121 0.15008 0.0
O174 O 0.29781 0.86318 0.14784 0.0
N175 N 0.22198 0.77311 0.17339 0.0
C176 C 0.21569 0.73472 0.17444 0.0
C177 C 0.17658 0.72823 0.17462 0.0
C178 C 0.18688 0.78952 0.17336 0.0
N179 N 0.15882 0.76272 0.17399 0.0
C180 C 0.30261 0.72847 0.16241 0.0
C181 C 0.27937 0.73604 0.1352 0.0
C182 C 0.28976 0.69936 0.14009 0.0
C183 C 0.3039 0.69632 0.15366 0.0
C184 C 0.27712 0.76697 0.14439 0.0
N185 N 0.28669 0.76255 0.15806 0.0
H186 H 0.31123 0.72476 0.17308 0.0
H187 H 0.26494 0.79318 0.14045 0.0
H188 H 0.23768 0.71282 0.17526 0.0
H189 H 0.18193 0.82036 0.17285 0.0
O190 O 0.2877 0.77327 0.18885 0.0
O191 O 0.25673 0.82927 0.18831 0.0
O192 O 0.24658 0.83617 0.15842 0.0
C193 C 0.27199 0.80177 0.19562 0.0
H194 H 0.38343 0.89328 0.17725 0.0
H195 H 0.16225 0.70052 0.17547 0.0
H196 H 0.26965 0.74014 0.12461 0.0
H197 H 0.31256 0.66872 0.15793 0.0
Co198 Co 0.51084 0.04522 0.42607 0.0
C199 C 0.51186 0.12857 0.4215 0.0
C200 C 0.45486 0.10578 0.41846 0.0
C201 C 0.45415 0.14509 0.41591 0.0
N202 N 0.49114 0.09575 0.42191 0.0
N203 N 0.49016 0.15896 0.41771 0.0
H204 H 0.54233 0.13021 0.42385 0.0
H205 H 0.43088 0.0859 0.41769 0.0
C206 C 0.49463 0.99752 0.40098 0.0
O207 O 0.53016 0.98447 0.40173 0.0
N208 N 0.53005 0.99396 0.43063 0.0
C209 C 0.56346 0.98367 0.4368 0.0
C210 C 0.56356 0.94439 0.43883 0.0
C211 C 0.5096 0.96085 0.42971 0.0
N212 N 0.52973 0.93004 0.43429 0.0
C213 C 0.59126 0.0612 0.42182 0.0
C214 C 0.58748 0.07081 0.39346 0.0
C215 C 0.62392 0.06713 0.39973 0.0
C216 C 0.62534 0.06453 0.41427 0.0
C217 C 0.5542 0.06599 0.40142 0.0
N218 N 0.55668 0.05753 0.41524 0.0
H219 H 0.59287 0.0608 0.43298 0.0
H220 H 0.52646 0.06831 0.3964 0.0
H221 H 0.58601 0.0028 0.44017 0.0
H222 H 0.48029 0.95949 0.4259 0.0
O223 O 0.52744 0.06333 0.44403 0.0
O224 O 0.47035 0.03721 0.43938 0.0
O225 O 0.48296 0.02354 0.40941 0.0
C226 C 0.49409 0.05134 0.44852 0.0
H227 H 0.42949 0.16193 0.41263 0.0
H228 H 0.58697 0.92776 0.44323 0.0
H229 H 0.58452 0.07577 0.38242 0.0
H230 H 0.65233 0.06293 0.41986 0.0
Co231 Co 0.27716 0.28893 0.67597 0.0
C232 C 0.19541 0.27413 0.66768 0.0
C233 C 0.22179 0.22487 0.67719 0.0
C234 C 0.18382 0.21605 0.67441 0.0
N235 N 0.22896 0.26152 0.6731 0.0
N236 N 0.16759 0.24709 0.66837 0.0
H237 H 0.19034 0.30262 0.66367 0.0
H238 H 0.24255 0.20604 0.68212 0.0
C239 C 0.29171 0.23535 0.65218 0.0
O240 O 0.25768 0.24412 0.6471 0.0
N241 N 0.32519 0.31529 0.67904 0.0
C242 C 0.33054 0.35319 0.68157 0.0
C243 C 0.36956 0.36006 0.68265 0.0
C244 C 0.36056 0.29953 0.67871 0.0
N245 N 0.38827 0.32627 0.68078 0.0
C246 C 0.24053 0.35484 0.66355 0.0
C247 C 0.2906 0.36032 0.64144 0.0
C248 C 0.26357 0.39013 0.64344 0.0
C249 C 0.23755 0.38633 0.65452 0.0
C250 C 0.29158 0.32877 0.65036 0.0
N251 N 0.26659 0.32595 0.66124 0.0
H252 H 0.22248 0.3543 0.67268 0.0
H253 H 0.315 0.30859 0.64918 0.0
H254 H 0.30773 0.37438 0.68235 0.0
H255 H 0.36586 0.26908 0.67707 0.0
O256 O 0.25494 0.31651 0.69146 0.0
O257 O 0.28548 0.26025 0.69274 0.0
O258 O 0.30392 0.25182 0.66318 0.0
C259 C 0.26815 0.28844 0.6991 0.0
H260 H 0.16913 0.18928 0.67683 0.0
H261 H 0.38309 0.38786 0.68432 0.0
H262 H 0.31302 0.36227 0.63367 0.0
H263 H 0.21605 0.40814 0.65666 0.0
Co264 Co 0.78286 0.29749 0.66896 0.0
C265 C 0.8651 0.30207 0.6632 0.0
C266 C 0.83932 0.35844 0.66239 0.0
C267 C 0.87842 0.36212 0.65999 0.0
N268 N 0.83136 0.32076 0.66439 0.0
N269 N 0.89422 0.32652 0.6604 0.0
H270 H 0.86848 0.27128 0.66476 0.0
H271 H 0.81835 0.38152 0.66286 0.0
C272 C 0.73041 0.31903 0.64568 0.0
O273 O 0.71904 0.2828 0.64526 0.0
N274 N 0.7336 0.27467 0.67395 0.0
C275 C 0.72566 0.23941 0.67925 0.0
C276 C 0.68692 0.23732 0.68222 0.0
C277 C 0.69988 0.29397 0.67445 0.0
N278 N 0.6708 0.27162 0.67908 0.0
C279 C 0.80036 0.21938 0.66096 0.0
C280 C 0.80089 0.23254 0.63272 0.0
C281 C 0.79935 0.19438 0.63759 0.0
C282 C 0.80191 0.18798 0.65192 0.0
C283 C 0.79938 0.263 0.64218 0.0
N284 N 0.79457 0.25585 0.65602 0.0
H285 H 0.80253 0.21415 0.67195 0.0
H286 H 0.8001 0.29227 0.6383 0.0
H287 H 0.74621 0.21693 0.68141 0.0
H288 H 0.69683 0.32413 0.67169 0.0
O289 O 0.80526 0.27607 0.68559 0.0
O290 O 0.77639 0.33317 0.68408 0.0
O291 O 0.75683 0.32945 0.65416 0.0
C292 C 0.79337 0.30735 0.69175 0.0
H293 H 0.89403 0.38873 0.65814 0.0
H294 H 0.67183 0.21243 0.68632 0.0
H295 H 0.80083 0.23873 0.62169 0.0
H296 H 0.80216 0.159 0.65617 0.0
Co297 Co 0.76487 0.77377 0.17237 0.0
C298 C 0.68283 0.76517 0.16619 0.0
C299 C 0.706 0.7122 0.17412 0.0
C300 C 0.66679 0.70766 0.17226 0.0
N301 N 0.71589 0.74825 0.17014 0.0
N302 N 0.6525 0.74111 0.16723 0.0
H303 H 0.68037 0.79527 0.16345 0.0
H304 H 0.7257 0.69106 0.17836 0.0
C305 C 0.77868 0.7125 0.15032 0.0
O306 O 0.74185 0.71058 0.14724 0.0
N307 N 0.81337 0.79983 0.17489 0.0
C308 C 0.81947 0.83797 0.17687 0.0
C309 C 0.85853 0.84452 0.17746 0.0
C310 C 0.84852 0.78354 0.17477 0.0
N311 N 0.87644 0.81025 0.17617 0.0
C312 C 0.73682 0.84622 0.16204 0.0
C313 C 0.76306 0.83766 0.13522 0.0
C314 C 0.75333 0.87471 0.13992 0.0
C315 C 0.73776 0.87836 0.15326 0.0
C316 C 0.76298 0.80671 0.14444 0.0
N317 N 0.75196 0.81153 0.15795 0.0
H318 H 0.727 0.8503 0.17255 0.0
H319 H 0.77443 0.78002 0.14067 0.0
H320 H 0.79733 0.85965 0.17793 0.0
H321 H 0.85366 0.75292 0.17352 0.0
O322 O 0.74484 0.80002 0.18861 0.0
O323 O 0.77515 0.74364 0.18868 0.0
O324 O 0.7911 0.73739 0.15904 0.0
C325 C 0.75891 0.77121 0.19568 0.0
H326 H 0.65008 0.68216 0.17473 0.0
H327 H 0.87273 0.87212 0.17887 0.0
H328 H 0.77383 0.83313 0.12479 0.0
H329 H 0.72951 0.90628 0.15736 0.0
Co330 Co 0.76498 0.29354 0.8185 0.0
C331 C 0.68275 0.30868 0.8173 0.0
C332 C 0.7137 0.36021 0.82281 0.0
C333 C 0.67474 0.36825 0.82294 0.0
N334 N 0.71829 0.32279 0.81937 0.0
N335 N 0.65554 0.33572 0.81944 0.0
H336 H 0.67696 0.27871 0.81485 0.0
H337 H 0.73689 0.37994 0.82531 0.0
C338 C 0.80887 0.31413 0.84417 0.0
O339 O 0.81758 0.27744 0.84578 0.0
N340 N 0.81277 0.26467 0.81738 0.0
C341 C 0.82004 0.22623 0.81732 0.0
C342 C 0.8592 0.22059 0.81638 0.0
C343 C 0.84753 0.28157 0.81605 0.0
N344 N 0.87612 0.25544 0.81552 0.0
C345 C 0.73238 0.22008 0.82554 0.0
C346 C 0.72355 0.2339 0.85351 0.0
C347 C 0.72312 0.19536 0.8488 0.0
C348 C 0.72443 0.18926 0.83438 0.0
C349 C 0.73282 0.26365 0.84427 0.0
N350 N 0.74166 0.25542 0.83079 0.0
H351 H 0.73497 0.21448 0.81455 0.0
H352 H 0.7346 0.29289 0.84812 0.0
H353 H 0.79928 0.20325 0.81779 0.0
H354 H 0.85188 0.31256 0.81587 0.0
O355 O 0.74939 0.27251 0.80081 0.0
O356 O 0.78329 0.3263 0.80377 0.0
O357 O 0.78658 0.32475 0.83434 0.0
C358 C 0.76751 0.30169 0.79531 0.0
H359 H 0.66159 0.39566 0.82555 0.0
H360 H 0.87409 0.19311 0.81623 0.0
H361 H 0.7193 0.24094 0.86434 0.0
H362 H 0.723 0.16071 0.82986 0.0
Co363 Co 0.7754 0.79619 0.3224 0.0
C364 C 0.85865 0.79428 0.3268 0.0
C365 C 0.83459 0.73712 0.32775 0.0
C366 C 0.8739 0.73464 0.32986 0.0
N367 N 0.82537 0.77456 0.32587 0.0
N368 N 0.88861 0.7707 0.32938 0.0
H369 H 0.86101 0.82525 0.3255 0.0
H370 H 0.81421 0.71345 0.3276 0.0
C371 C 0.72695 0.77378 0.3466 0.0
O372 O 0.71411 0.8095 0.34697 0.0
N373 N 0.72457 0.81713 0.31852 0.0
C374 C 0.71403 0.85262 0.31408 0.0
C375 C 0.67494 0.85283 0.31173 0.0
C376 C 0.69191 0.79598 0.31816 0.0
N377 N 0.6611 0.81721 0.31438 0.0
C378 C 0.79281 0.87488 0.32936 0.0
C379 C 0.80114 0.86377 0.35753 0.0
C380 C 0.79834 0.90178 0.35246 0.0
C381 C 0.79644 0.9069 0.33801 0.0
C382 C 0.79614 0.83263 0.34848 0.0
N383 N 0.78827 0.83879 0.33477 0.0
H384 H 0.7925 0.87933 0.3183 0.0
H385 H 0.79773 0.80364 0.35259 0.0
H386 H 0.73284 0.87671 0.31216 0.0
H387 H 0.69089 0.76539 0.32047 0.0
O388 O 0.79381 0.81742 0.30511 0.0
O389 O 0.76698 0.75956 0.30771 0.0
O390 O 0.75325 0.76417 0.33797 0.0
C391 C 0.78148 0.78553 0.29947 0.0
H392 H 0.89029 0.70858 0.3318 0.0
H393 H 0.65805 0.87744 0.3084 0.0
H394 H 0.80547 0.85796 0.36846 0.0
H395 H 0.79542 0.93527 0.33332 0.0
Co396 Co 0.52596 0.53752 0.56945 0.0
C397 C 0.54406 0.61742 0.57876 0.0
C398 C 0.58319 0.59855 0.563 0.0
C399 C 0.59065 0.63676 0.56588 0.0
N400 N 0.55346 0.58645 0.57094 0.0
N401 N 0.56564 0.64872 0.57569 0.0
H402 H 0.52056 0.61809 0.58606 0.0
H403 H 0.59754 0.5816 0.55513 0.0
C404 C 0.59582 0.50807 0.58268 0.0
O405 O 0.61343 0.51901 0.57128 0.0
N406 N 0.4987 0.48933 0.56796 0.0
C407 C 0.46089 0.48485 0.56518 0.0
C408 C 0.45307 0.44599 0.56417 0.0
C409 C 0.51347 0.45345 0.56858 0.0
N410 N 0.48615 0.4264 0.5663 0.0
C411 C 0.45971 0.57923 0.57919 0.0
C412 C 0.45327 0.53927 0.60387 0.0
C413 C 0.42323 0.56427 0.59997 0.0
C414 C 0.42741 0.58537 0.58761 0.0
C415 C 0.48506 0.5344 0.59531 0.0
N416 N 0.48785 0.5537 0.58302 0.0
H417 H 0.46166 0.59422 0.56938 0.0
H418 H 0.50565 0.51254 0.59818 0.0
H419 H 0.44058 0.50822 0.5638 0.0
H420 H 0.54372 0.44734 0.57023 0.0
O421 O 0.50077 0.55514 0.55265 0.0
O422 O 0.55591 0.52295 0.55349 0.0
O423 O 0.55995 0.51487 0.58418 0.0
C424 C 0.52903 0.5387 0.54603 0.0
H425 H 0.61171 0.65473 0.56067 0.0
H426 H 0.42522 0.43315 0.56203 0.0
H427 H 0.45119 0.52097 0.61295 0.0
H428 H 0.40528 0.6052 0.58416 0.0
Co429 Co 0.01431 0.53252 0.07267 0.0
C430 C 0.00405 0.45042 0.08072 0.0
C431 C 0.95073 0.47654 0.07459 0.0
C432 C 0.94386 0.43825 0.07769 0.0
N433 N 0.9886 0.48402 0.07643 0.0
N434 N 0.97749 0.42222 0.08164 0.0
H435 H 0.03417 0.4457 0.08272 0.0
H436 H 0.92965 0.49735 0.07106 0.0
C437 C 0.96899 0.54523 0.09882 0.0
O438 O 0.97762 0.5102 0.10305 0.0
N439 N 0.03928 0.58087 0.0688 0.0
C440 C 0.07597 0.58652 0.0647 0.0
C441 C 0.08216 0.62566 0.0634 0.0
C442 C 0.02353 0.61621 0.06983 0.0
N443 N 0.04916 0.64419 0.06668 0.0
C444 C 0.08571 0.4967 0.08026 0.0
C445 C 0.09702 0.53807 0.10438 0.0
C446 C 0.12698 0.51476 0.09937 0.0
C447 C 0.12075 0.49329 0.08729 0.0
C448 C 0.06267 0.54099 0.09698 0.0
N449 N 0.05699 0.52023 0.0851 0.0
H450 H 0.08229 0.4814 0.07057 0.0
H451 H 0.04233 0.56254 0.1003 0.0
H452 H 0.09679 0.56385 0.06288 0.0
H453 H 0.99378 0.62125 0.07265 0.0
O454 O 0.03471 0.5116 0.0556 0.0
O455 O 0.97887 0.5422 0.05771 0.0
O456 O 0.98307 0.55842 0.08754 0.0
C457 C 0.00376 0.52512 0.04971 0.0
H458 H 0.91653 0.42325 0.07694 0.0
H459 H 0.10903 0.63938 0.0605 0.0
H460 H 0.10125 0.55661 0.11332 0.0
H461 H 0.14344 0.47554 0.08293 0.0
Co462 Co 0.53093 0.53881 0.41906 0.0
C463 C 0.54877 0.45766 0.41112 0.0
C464 C 0.59908 0.4889 0.41747 0.0
C465 C 0.60914 0.45074 0.41548 0.0
N466 N 0.56106 0.49312 0.41487 0.0
N467 N 0.57739 0.43148 0.41139 0.0
H468 H 0.51931 0.44986 0.40913 0.0
H469 H 0.61778 0.51159 0.42126 0.0
C470 C 0.57963 0.56167 0.39468 0.0
O471 O 0.57222 0.52846 0.38863 0.0
N472 N 0.50155 0.58436 0.4234 0.0
C473 C 0.46378 0.58607 0.42658 0.0
C474 C 0.45375 0.62422 0.42839 0.0
C475 C 0.51411 0.62111 0.42339 0.0
N476 N 0.48543 0.64616 0.42633 0.0
C477 C 0.46557 0.49971 0.40726 0.0
C478 C 0.45538 0.55083 0.38564 0.0
C479 C 0.42705 0.5225 0.38796 0.0
C480 C 0.43309 0.49604 0.39876 0.0
C481 C 0.48761 0.55295 0.39417 0.0
N482 N 0.49291 0.52734 0.40476 0.0
H483 H 0.46752 0.48152 0.41633 0.0
H484 H 0.5061 0.57772 0.39296 0.0
H485 H 0.44477 0.56136 0.42733 0.0
H486 H 0.5437 0.62927 0.42137 0.0
O487 O 0.50736 0.51263 0.43464 0.0
O488 O 0.56132 0.54705 0.43541 0.0
O489 O 0.56426 0.57011 0.4063 0.0
C490 C 0.53546 0.527 0.44199 0.0
H491 H 0.63704 0.43783 0.41743 0.0
H492 H 0.4252 0.63496 0.43075 0.0
H493 H 0.45143 0.57353 0.37805 0.0
H494 H 0.41202 0.47394 0.40115 0.0
Co495 Co 0.99585 0.5442 0.92242 0.0
C496 C 0.97149 0.62363 0.91455 0.0
C497 C 0.93333 0.5989 0.92958 0.0
C498 C 0.92308 0.63686 0.92758 0.0
N499 N 0.96418 0.59061 0.92155 0.0
N500 N 0.94736 0.6524 0.91821 0.0
H501 H 0.99544 0.62774 0.90756 0.0
H502 H 0.92021 0.57958 0.93702 0.0
C503 C 0.92931 0.5101 0.90847 0.0
O504 O 0.91035 0.51918 0.91979 0.0
N505 N 0.0272 0.49843 0.92329 0.0
C506 C 0.06541 0.49656 0.92572 0.0
C507 C 0.07629 0.45832 0.92585 0.0
C508 C 0.01525 0.46163 0.92203 0.0
N509 N 0.04469 0.43648 0.92352 0.0
C510 C 0.05936 0.59143 0.91429 0.0
C511 C 0.07278 0.55364 0.88953 0.0
C512 C 0.10217 0.57655 0.89526 0.0
C513 C 0.09423 0.59742 0.90738 0.0
C514 C 0.03844 0.54834 0.89677 0.0
N515 N 0.0329 0.56554 0.90937 0.0
H516 H 0.05488 0.60548 0.92417 0.0
H517 H 0.01844 0.52719 0.89283 0.0
H518 H 0.08399 0.5212 0.92742 0.0
H519 H 0.98544 0.45345 0.92049 0.0
O520 O 0.01894 0.56216 0.9395 0.0
O521 O 0.96694 0.52523 0.93815 0.0
O522 O 0.96454 0.52005 0.90721 0.0
C523 C 0.99207 0.54293 0.94587 0.0
H524 H 0.90081 0.65237 0.93314 0.0
H525 H 0.10517 0.44746 0.92755 0.0
H526 H 0.07771 0.53647 0.8803 0.0
H527 H 0.11594 0.61577 0.91207 0.0
C528 C 0.96842 0.35335 0.07647 0.0
C529 C 0.98568 0.38238 0.08444 0.0
C530 C 0.98148 0.31512 0.0773 0.0
C531 C 0.0122 0.30595 0.08642 0.0
C532 C 0.02789 0.33471 0.09517 0.0
C533 C 0.01447 0.3727 0.09403 0.0
C534 C 0.96401 0.28507 0.06783 0.0
C535 C 0.06018 0.32584 0.10519 0.0
C536 C 0.02817 0.19925 0.09236 0.0
C537 C 0.05658 0.19111 0.08244 0.0
C538 C 0.01458 0.23694 0.09427 0.0
C539 C 0.02971 0.267 0.08597 0.0
C540 C 0.05996 0.25931 0.07648 0.0
C541 C 0.07319 0.22133 0.07488 0.0
C542 C 0.98279 0.24421 0.10465 0.0
C543 C 0.07684 0.29079 0.06748 0.0
H544 H 0.94637 0.36097 0.06899 0.0
H545 H 0.02736 0.39523 0.10032 0.0
H546 H 0.9859 0.27539 0.06019 0.0
H547 H 0.95502 0.25932 0.07388 0.0
H548 H 0.9386 0.29629 0.06208 0.0
H549 H 0.06595 0.35028 0.11237 0.0
H550 H 0.05328 0.29975 0.1114 0.0
H551 H 0.08696 0.31961 0.0993 0.0
H552 H 0.01582 0.17582 0.09836 0.0
H553 H 0.09496 0.21493 0.06715 0.0
H554 H 0.95576 0.25148 0.09907 0.0
H555 H 0.99009 0.26921 0.11136 0.0
H556 H 0.97728 0.21864 0.11134 0.0
H557 H 0.05446 0.30167 0.06024 0.0
H558 H 0.10184 0.28049 0.0613 0.0
H559 H 0.08628 0.31554 0.07396 0.0
C560 C 0.1093 0.81971 0.3435 0.0
C561 C 0.1229 0.84412 0.333 0.0
C562 C 0.0703 0.80937 0.34418 0.0
C563 C 0.04464 0.82314 0.3339 0.0
C564 C 0.058 0.84904 0.32357 0.0
C565 C 0.09704 0.85955 0.32334 0.0
C566 C 0.05691 0.78249 0.35555 0.0
C567 C 0.03157 0.86389 0.31231 0.0
C568 C 0.95778 0.76121 0.32514 0.0
C569 C 0.92793 0.78238 0.33123 0.0
C570 C 0.99604 0.77411 0.32599 0.0
C571 C 0.00448 0.80851 0.33337 0.0
C572 C 0.9745 0.82926 0.33995 0.0
C573 C 0.93646 0.81612 0.33867 0.0
C574 C 0.02724 0.75154 0.31866 0.0
C575 C 0.98255 0.86546 0.34821 0.0
H576 H 0.12953 0.80801 0.35098 0.0
H577 H 0.10784 0.878 0.31513 0.0
H578 H 0.03076 0.79424 0.36067 0.0
H579 H 0.04903 0.75409 0.35103 0.0
H580 H 0.0795 0.7778 0.36356 0.0
H581 H 0.04598 0.88542 0.30551 0.0
H582 H 0.02163 0.83937 0.3058 0.0
H583 H 0.00559 0.87738 0.31694 0.0
H584 H 0.95093 0.73532 0.31931 0.0
H585 H 0.91323 0.83213 0.34351 0.0
H586 H 0.04966 0.74247 0.3262 0.0
H587 H 0.04153 0.77016 0.31081 0.0
H588 H 0.01582 0.72539 0.31338 0.0
H589 H 0.00451 0.85951 0.35631 0.0
H590 H 0.95622 0.877 0.3533 0.0
H591 H 0.99453 0.88814 0.34131 0.0
C592 C 0.51732 0.8689 0.59372 0.0
C593 C 0.48244 0.87744 0.58701 0.0
C594 C 0.53194 0.83118 0.59395 0.0
C595 C 0.51101 0.80129 0.58737 0.0
C596 C 0.47445 0.80921 0.58145 0.0
C597 C 0.46057 0.84728 0.58135 0.0
C598 C 0.57086 0.82386 0.60046 0.0
C599 C 0.45113 0.77793 0.57444 0.0
C600 C 0.56442 0.71847 0.57044 0.0
C601 C 0.55702 0.68796 0.57965 0.0
C602 C 0.55077 0.75581 0.57312 0.0
C603 C 0.52903 0.76284 0.58529 0.0
C604 C 0.52311 0.73276 0.59499 0.0
C605 C 0.53734 0.69569 0.59208 0.0
C606 C 0.55807 0.78732 0.56258 0.0
C607 C 0.50032 0.73929 0.60813 0.0
H608 H 0.53388 0.89206 0.59839 0.0
H609 H 0.43368 0.85373 0.57613 0.0
H610 H 0.56985 0.79801 0.60726 0.0
H611 H 0.59233 0.81802 0.59219 0.0
H612 H 0.58106 0.84894 0.60666 0.0
H613 H 0.42167 0.7879 0.57168 0.0
H614 H 0.46598 0.76862 0.56481 0.0
H615 H 0.44869 0.75225 0.58128 0.0
H616 H 0.57922 0.71289 0.56076 0.0
H617 H 0.53215 0.67248 0.59938 0.0
H618 H 0.57107 0.81294 0.5677 0.0
H619 H 0.53033 0.79665 0.55793 0.0
H620 H 0.57754 0.77772 0.55411 0.0
H621 H 0.51128 0.76504 0.61374 0.0
H622 H 0.50145 0.71397 0.61521 0.0
H623 H 0.46972 0.74501 0.60546 0.0
C624 C 0.44693 0.25728 0.83409 0.0
C625 C 0.41814 0.27506 0.82616 0.0
C626 C 0.48564 0.26819 0.83265 0.0
C627 C 0.49556 0.29756 0.82306 0.0
C628 C 0.46671 0.31527 0.8149 0.0
C629 C 0.42835 0.30366 0.81651 0.0
C630 C 0.51587 0.24856 0.84146 0.0
C631 C 0.47633 0.34659 0.80454 0.0
C632 C 0.59072 0.34887 0.82872 0.0
C633 C 0.61467 0.32912 0.81942 0.0
C634 C 0.55156 0.33939 0.82984 0.0
C635 C 0.53626 0.30949 0.82146 0.0
C636 C 0.55999 0.2904 0.81172 0.0
C637 C 0.59892 0.30058 0.81078 0.0
C638 C 0.52685 0.36051 0.84027 0.0
C639 C 0.54455 0.25853 0.80255 0.0
H640 H 0.43908 0.23544 0.84163 0.0
H641 H 0.40631 0.31691 0.81013 0.0
H642 H 0.53796 0.23497 0.83471 0.0
H643 H 0.53085 0.27025 0.848 0.0
H644 H 0.50338 0.22598 0.84832 0.0
H645 H 0.45036 0.35757 0.79906 0.0
H646 H 0.49058 0.37115 0.80988 0.0
H647 H 0.49694 0.33541 0.7967 0.0
H648 H 0.60289 0.37067 0.83549 0.0
H649 H 0.61727 0.28579 0.8034 0.0
H650 H 0.51643 0.33996 0.84828 0.0
H651 H 0.50106 0.37283 0.83509 0.0
H652 H 0.54275 0.38425 0.84552 0.0
H653 H 0.53436 0.23412 0.80906 0.0
H654 H 0.56661 0.24749 0.79519 0.0
H655 H 0.51943 0.26905 0.79651 0.0
C656 C 0.96854 0.70463 0.90258 0.0
C657 C 0.95323 0.69279 0.91536 0.0
C658 C 0.97969 0.74313 0.90039 0.0
C659 C 0.97578 0.77019 0.91131 0.0
C660 C 0.95885 0.75874 0.92403 0.0
C661 C 0.94761 0.72021 0.92587 0.0
C662 C 0.99701 0.75449 0.88661 0.0
C663 C 0.95442 0.78673 0.93596 0.0
C664 C 0.04334 0.85598 0.91387 0.0
C665 C 0.01889 0.88646 0.91019 0.0
C666 C 0.02999 0.81772 0.91385 0.0
C667 C 0.99145 0.80989 0.90986 0.0
C668 C 0.96722 0.84042 0.9055 0.0
C669 C 0.98118 0.87842 0.90581 0.0
C670 C 0.0566 0.78591 0.91868 0.0
C671 C 0.9262 0.8331 0.90094 0.0
H672 H 0.97256 0.68349 0.89441 0.0
H673 H 0.93634 0.71112 0.93583 0.0
H674 H 0.98276 0.78084 0.88253 0.0
H675 H 0.02801 0.76141 0.888 0.0
H676 H 0.99443 0.7311 0.87876 0.0
H677 H 0.9389 0.77372 0.9449 0.0
H678 H 0.98329 0.79634 0.93953 0.0
H679 H 0.93849 0.81283 0.93254 0.0
H680 H 0.07239 0.86226 0.91734 0.0
H681 H 0.96251 0.902 0.90273 0.0
H682 H 0.05801 0.76258 0.9108 0.0
H683 H 0.04513 0.77293 0.92838 0.0
H684 H 0.0863 0.79655 0.92071 0.0
H685 H 0.92532 0.80992 0.89299 0.0
H686 H 0.9124 0.85944 0.89661 0.0
H687 H 0.90888 0.82304 0.90992 0.0
C688 C 0.43227 0.79907 0.15603 0.0
C689 C 0.42255 0.82632 0.16623 0.0
C690 C 0.46984 0.78483 0.1549 0.0
C691 C 0.49849 0.79874 0.16404 0.0
C692 C 0.48951 0.82805 0.17377 0.0
C693 C 0.45148 0.84146 0.17478 0.0
C694 C 0.4784 0.75364 0.14437 0.0
C695 C 0.51967 0.844 0.18352 0.0
C696 C 0.58367 0.73543 0.17327 0.0
C697 C 0.6129 0.75194 0.16518 0.0
C698 C 0.5459 0.74971 0.17269 0.0
C699 C 0.53744 0.78136 0.16388 0.0
C700 C 0.5664 0.79702 0.15525 0.0
C701 C 0.60371 0.78185 0.15591 0.0
C702 C 0.51539 0.73187 0.18185 0.0
C703 C 0.55838 0.83075 0.14572 0.0
H704 H 0.41012 0.78802 0.14916 0.0
H705 H 0.44406 0.86239 0.1827 0.0
H706 H 0.50354 0.76185 0.1379 0.0
H707 H 0.48599 0.72645 0.14982 0.0
H708 H 0.45346 0.74785 0.13743 0.0
H709 H 0.5087 0.86872 0.18972 0.0
H710 H 0.52925 0.82097 0.19075 0.0
H711 H 0.54537 0.85364 0.1776 0.0
H712 H 0.59061 0.71248 0.18049 0.0
H713 H 0.62604 0.79409 0.1494 0.0
H714 H 0.48992 0.72349 0.17557 0.0
H715 H 0.50553 0.75337 0.18962 0.0
H716 H 0.5261 0.70593 0.18745 0.0
H717 H 0.53359 0.82418 0.13884 0.0
H718 H 0.58366 0.83825 0.13917 0.0
H719 H 0.55043 0.85647 0.15197 0.0
C720 C 0.5393 0.2037 0.40887 0.0
C721 C 0.50376 0.19759 0.41543 0.0
C722 C 0.55399 0.2411 0.40707 0.0
C723 C 0.53295 0.27297 0.41226 0.0
C724 C 0.49683 0.26693 0.41881 0.0
C725 C 0.48243 0.22922 0.42016 0.0
C726 C 0.59205 0.24648 0.39971 0.0
C727 C 0.47386 0.3002 0.42466 0.0
C728 C 0.58456 0.36638 0.42112 0.0
C729 C 0.57193 0.39053 0.4104 0.0
C730 C 0.57293 0.32758 0.42167 0.0
C731 C 0.54884 0.31265 0.41106 0.0
C732 C 0.53805 0.33643 0.39976 0.0
C733 C 0.54934 0.37531 0.39968 0.0
C734 C 0.58452 0.30326 0.43399 0.0
C735 C 0.51326 0.32129 0.38808 0.0
H736 H 0.55546 0.17909 0.40506 0.0
H737 H 0.45511 0.22424 0.42531 0.0
H738 H 0.58852 0.2667 0.39086 0.0
H739 H 0.6134 0.25953 0.40689 0.0
H740 H 0.6039 0.21878 0.39575 0.0
H741 H 0.44648 0.29053 0.42954 0.0
H742 H 0.49125 0.31572 0.43257 0.0
H743 H 0.46697 0.3212 0.41633 0.0
H744 H 0.60151 0.37853 0.4295 0.0
H745 H 0.53968 0.39429 0.39143 0.0
H746 H 0.598 0.27591 0.43049 0.0
H747 H 0.55848 0.29547 0.44008 0.0
H748 H 0.60503 0.31857 0.44094 0.0
H749 H 0.52515 0.29373 0.38404 0.0
H750 H 0.51102 0.34223 0.37937 0.0
H751 H 0.48381 0.31519 0.392 0.0
C752 C 0.96258 0.33858 0.66545 0.0
C753 C 0.93405 0.31607 0.65914 0.0
C754 C 0.00099 0.32601 0.66579 0.0
C755 C 0.01092 0.29045 0.65944 0.0
C756 C 0.98247 0.26859 0.65244 0.0
C757 C 0.94423 0.28154 0.65249 0.0
C758 C 0.03056 0.34991 0.67346 0.0
C759 C 0.99216 0.23102 0.64528 0.0
C760 C 0.11768 0.2754 0.65345 0.0
C761 C 0.12774 0.25314 0.66505 0.0
C762 C 0.07936 0.28638 0.65112 0.0
C763 C 0.05069 0.27529 0.66077 0.0
C764 C 0.06047 0.25145 0.67219 0.0
C765 C 0.09895 0.24037 0.67413 0.0
C766 C 0.06985 0.31106 0.63866 0.0
C767 C 0.03066 0.23931 0.68276 0.0
H768 H 0.95449 0.36507 0.67069 0.0
H769 H 0.92204 0.26446 0.64748 0.0
H770 H 0.04199 0.33317 0.68239 0.0
H771 H 0.05527 0.35662 0.66656 0.0
H772 H 0.01839 0.37748 0.67741 0.0
H773 H 0.96737 0.21931 0.63931 0.0
H774 H 0.01686 0.23513 0.63812 0.0
H775 H 0.00097 0.20921 0.65311 0.0
H776 H 0.14006 0.28488 0.64638 0.0
H777 H 0.10691 0.22352 0.68316 0.0
H778 H 0.06129 0.34039 0.64214 0.0
H779 H 0.04506 0.29864 0.63291 0.0
H780 H 0.09468 0.31387 0.63145 0.0
H781 H 0.01925 0.26523 0.68815 0.0
H782 H 0.04264 0.21923 0.69065 0.0
H783 H 0.00598 0.22499 0.67754 0.0
C784 C 0.02084 0.06994 0.02354 0.0
C785 C 0.04474 0.04697 0.03184 0.0
C786 C 0.02195 0.06695 0.00904 0.0
C787 C 0.04705 0.0398 0.00277 0.0
C788 C 0.07202 0.01731 0.0111 0.0
C789 C 0.07079 0.02142 0.02556 0.0
C790 C 0.99543 0.09197 0.00045 0.0
C791 C 0.09877 0.98773 0.00478 0.0
C792 C 0.01376 0.00499 0.96752 0.0
C793 C 0.03666 0.02732 0.95864 0.0
C794 C 0.01809 0.00752 0.98195 0.0
C795 C 0.04546 0.03356 0.98757 0.0
C796 C 0.0696 0.05518 0.97863 0.0
C797 C 0.06512 0.05153 0.96423 0.0
C798 C 0.99239 0.98341 0.99118 0.0
C799 C 0.09875 0.08358 0.98426 0.0
H800 H 0.00082 0.08985 0.02838 0.0
H801 H 0.08915 0.00342 0.03197 0.0
H802 H 0.01206 0.10733 0.99231 0.0
H803 H 0.9738 0.07359 0.99512 0.0
H804 H 0.97993 0.11368 0.00685 0.0
H805 H 0.11809 0.97436 0.01262 0.0
H806 H 0.08156 0.96455 -0.00022 0.0
H807 H 0.11675 0.00119 0.99658 0.0
H808 H 0.99186 0.98613 0.96319 0.0
H809 H 0.08268 0.06906 0.95737 0.0
H810 H 0.97243 0.00252 0.99699 0.0
H811 H 0.00994 0.96752 -0.00107 0.0
H812 H 0.975 0.96222 0.98519 0.0
H813 H 0.08351 0.10757 0.98957 0.0
H814 H 0.11721 0.096 0.97596 0.0
H815 H 0.11752 0.06945 0.99207 0.0
C816 C 0.23471 0.78268 0.27728 0.0
C817 C 0.25759 0.80947 0.28444 0.0
C818 C 0.23562 0.7807 0.26274 0.0
C819 C 0.26042 0.80572 0.25529 0.0
C820 C 0.28315 0.83316 0.26246 0.0
C821 C 0.28123 0.83489 0.27696 0.0
C822 C 0.21047 0.75158 0.25537 0.0
C823 C 0.31015 0.86012 0.25486 0.0
C824 C 0.29236 0.77794 0.21897 0.0
C825 C 0.26928 0.80223 0.21086 0.0
C826 C 0.28959 0.77851 0.2335 0.0
C827 C 0.26263 0.80348 0.23995 0.0
C828 C 0.23877 0.82748 0.23176 0.0
C829 C 0.24263 0.8268 0.21731 0.0
C830 C 0.31587 0.75293 0.24196 0.0
C831 C 0.20932 0.85405 0.23827 0.0
H832 H 0.21642 0.76298 0.28305 0.0
H833 H 0.2992 0.85548 0.28245 0.0
H834 H 0.19189 0.76638 0.24765 0.0
H835 H 0.22873 0.73074 0.24961 0.0
H836 H 0.19177 0.73521 0.26266 0.0
H837 H 0.32595 0.8797 0.26201 0.0
H838 H 0.33149 0.8431 0.24884 0.0
H839 H 0.29375 0.87797 0.24734 0.0
H840 H 0.31294 0.75891 0.21398 0.0
H841 H 0.22437 0.8453 0.21105 0.0
H842 H 0.29856 0.73369 0.24875 0.0
H843 H 0.33423 0.77096 0.24883 0.0
H844 H 0.33486 0.7348 0.23535 0.0
H845 H 0.18972 0.83731 0.24511 0.0
H846 H 0.19172 0.86946 0.23039 0.0
H847 H 0.22404 0.87583 0.24485 0.0
C848 C 0.50266 0.99576 0.52742 0.0
C849 C 0.47844 0.0172 0.53612 0.0
C850 C 0.501 0.00026 0.51297 0.0
C851 C 0.47501 0.02739 0.50718 0.0
C852 C 0.4493 0.04782 0.51588 0.0
C853 C 0.45109 0.0422 0.53027 0.0
C854 C 0.52829 0.97733 0.50397 0.0
C855 C 0.42152 0.07729 0.51009 0.0
C856 C 0.50787 0.07008 0.47298 0.0
C857 C 0.48572 0.04902 0.46347 0.0
C858 C 0.50349 0.0644 0.48729 0.0
C859 C 0.47689 0.03641 0.49214 0.0
C860 C 0.45361 0.01591 0.4826 0.0
C861 C 0.45807 0.02274 0.46835 0.0
C862 C 0.52825 0.08741 0.4972 0.0
C863 C 0.42533 0.9855 0.48739 0.0
H864 H 0.52371 0.9763 0.53193 0.0
H865 H 0.43246 0.05904 0.53698 0.0
H866 H 0.51233 0.96328 0.49535 0.0
H867 H 0.54987 0.99703 0.49925 0.0
H868 H 0.54386 0.95473 0.50993 0.0
H869 H 0.40113 0.08812 0.51808 0.0
H870 H 0.43794 0.10222 0.50589 0.0
H871 H 0.4047 0.06478 0.50139 0.0
H872 H 0.52917 0.09049 0.46921 0.0
H873 H 0.44114 0.00612 0.461 0.0
H874 H 0.54849 0.0678 0.50266 0.0
H875 H 0.51 0.10141 0.50521 0.0
H876 H 0.54529 0.11009 0.49181 0.0
H877 H 0.44127 0.96109 0.49217 0.0
H878 H 0.40751 0.97409 0.47873 0.0
H879 H 0.4059 0.99744 0.49546 0.0
C880 C 0.29037 0.26515 0.72212 0.0
C881 C 0.26672 0.28985 0.71436 0.0
C882 C 0.29141 0.2674 0.73661 0.0
C883 C 0.26774 0.29457 0.74349 0.0
C884 C 0.24343 0.31933 0.73573 0.0
C885 C 0.24345 0.31689 0.72119 0.0
C886 C 0.31798 0.24078 0.74456 0.0
C887 C 0.21731 0.34817 0.74278 0.0
C888 C 0.24454 0.27091 0.78086 0.0
C889 C 0.2699 0.29535 0.78802 0.0
C890 C 0.24283 0.27118 0.76636 0.0
C891 C 0.26761 0.29602 0.75886 0.0
C892 C 0.29328 0.32086 0.76602 0.0
C893 C 0.29386 0.3205 0.78059 0.0
C894 C 0.21471 0.24469 0.75907 0.0
C895 C 0.32053 0.34725 0.75831 0.0
H896 H 0.30871 0.24446 0.71686 0.0
H897 H 0.22518 0.33603 0.71519 0.0
H898 H 0.33774 0.25796 0.75119 0.0
H899 H 0.30089 0.22185 0.75152 0.0
H900 H 0.33553 0.22223 0.73759 0.0
H901 H 0.20016 0.36529 0.73523 0.0
H902 H 0.1972 0.33289 0.74986 0.0
H903 H 0.23463 0.36832 0.74921 0.0
H904 H 0.22561 0.25178 0.78661 0.0
H905 H 0.31345 0.3394 0.78615 0.0
H906 H 0.23066 0.2234 0.75267 0.0
H907 H 0.19606 0.26159 0.75196 0.0
H908 H 0.19603 0.22868 0.76647 0.0
H909 H 0.34018 0.32983 0.75172 0.0
H910 H 0.33818 0.36527 0.76543 0.0
H911 H 0.30409 0.36661 0.7513 0.0
C912 C 0.74881 0.28389 0.77117 0.0
C913 C 0.77197 0.30557 0.78018 0.0
C914 C 0.75384 0.28627 0.75676 0.0
C915 C 0.78312 0.31043 0.75131 0.0
C916 C 0.80655 0.33243 0.76037 0.0
C917 C 0.80049 0.32994 0.77472 0.0
C918 C 0.72795 0.26278 0.74739 0.0
C919 C 0.83837 0.35807 0.75491 0.0
C920 C 0.81588 0.28481 0.71496 0.0
C921 C 0.79486 0.31126 0.70697 0.0
C922 C 0.81355 0.28523 0.72948 0.0
C923 C 0.78922 0.3124 0.7361 0.0
C924 C 0.76904 0.34007 0.7281 0.0
C925 C 0.77231 0.33932 0.7136 0.0
C926 C 0.83599 0.25569 0.73772 0.0
C927 C 0.74258 0.36928 0.73479 0.0
H928 H 0.7267 0.2651 0.77539 0.0
H929 H 0.81868 0.34648 0.78168 0.0
H930 H 0.71304 0.28206 0.73991 0.0
H931 H 0.74547 0.24212 0.74125 0.0
H932 H 0.70588 0.24627 0.75328 0.0
H933 H 0.85398 0.37334 0.76336 0.0
H934 H 0.8594 0.34052 0.74895 0.0
H935 H 0.82632 0.37989 0.74768 0.0
H936 H 0.83345 0.26317 0.70985 0.0
H937 H 0.75586 0.35973 0.70746 0.0
H938 H 0.81574 0.23533 0.74282 0.0
H939 H 0.85283 0.27009 0.74603 0.0
H940 H 0.85607 0.23879 0.7311 0.0
H941 H 0.71815 0.35409 0.73985 0.0
H942 H 0.73077 0.39026 0.72717 0.0
H943 H 0.75813 0.38548 0.743 0.0
C944 C 0.73752 0.79724 0.21861 0.0
C945 C 0.75986 0.77115 0.21096 0.0
C946 C 0.74036 0.79872 0.23313 0.0
C947 C 0.76669 0.77404 0.24004 0.0
C948 C 0.78906 0.74746 0.23234 0.0
C949 C 0.7851 0.7461 0.2179 0.0
C950 C 0.71554 0.82691 0.24107 0.0
C951 C 0.81784 0.7211 0.23933 0.0
C952 C 0.80179 0.8048 0.27564 0.0
C953 C 0.77987 0.78086 0.2843 0.0
C954 C 0.79813 0.80255 0.26116 0.0
C955 C 0.77133 0.7763 0.25531 0.0
C956 C 0.74926 0.75195 0.26402 0.0
C957 C 0.75408 0.75427 0.27844 0.0
C958 C 0.82272 0.82838 0.25215 0.0
C959 C 0.72002 0.72403 0.25814 0.0
H960 H 0.71796 0.81658 0.21325 0.0
H961 H 0.80269 0.72609 0.212 0.0
H962 H 0.69863 0.8114 0.2491 0.0
H963 H 0.73405 0.84822 0.24652 0.0
H964 H 0.69528 0.84281 0.2342 0.0
H965 H 0.83288 0.70195 0.23183 0.0
H966 H 0.83974 0.73859 0.24491 0.0
H967 H 0.80313 0.7028 0.24717 0.0
H968 H 0.82172 0.82538 0.28017 0.0
H969 H 0.73672 0.73605 0.28513 0.0
H970 H 0.80407 0.84782 0.24593 0.0
H971 H 0.83965 0.81065 0.24474 0.0
H972 H 0.84298 0.84636 0.25833 0.0
H973 H 0.69821 0.74002 0.25198 0.0
H974 H 0.70493 0.70736 0.26637 0.0
H975 H 0.73436 0.70338 0.25102 0.0
C976 C 0.56157 0.54798 0.46476 0.0
C977 C 0.53604 0.52455 0.45724 0.0
C978 C 0.56016 0.54942 0.47926 0.0
C979 C 0.53294 0.5264 0.4864 0.0
C980 C 0.50787 0.50173 0.47891 0.0
C981 C 0.50952 0.5013 0.46436 0.0
C982 C 0.58715 0.57632 0.4869 0.0
C983 C 0.47897 0.4763 0.48626 0.0
C984 C 0.55421 0.509 0.5244 0.0
C985 C 0.52973 0.53583 0.5308 0.0
C986 C 0.55474 0.50486 0.50995 0.0
C987 C 0.53068 0.52861 0.50173 0.0
C988 C 0.50584 0.55574 0.50814 0.0
C989 C 0.50543 0.55881 0.52266 0.0
C990 C 0.58122 0.47528 0.50347 0.0
C991 C 0.48023 0.58195 0.49966 0.0
H992 H 0.582 0.56619 0.45931 0.0
H993 H 0.48977 0.48315 0.45856 0.0
H994 H 0.57023 0.59775 0.49292 0.0
H995 H 0.60489 0.55979 0.49442 0.0
H996 H 0.60677 0.59214 0.47977 0.0
H997 H 0.46281 0.45746 0.47895 0.0
H998 H 0.49381 0.45778 0.49399 0.0
H999 H 0.45802 0.49447 0.49201 0.0
H1000 H 0.57272 0.49084 0.53069 0.0
H1001 H 0.48646 0.57951 0.52761 0.0
H1002 H 0.60297 0.48998 0.49688 0.0
H1003 H 0.56452 0.4556 0.49665 0.0
H1004 H 0.59657 0.45769 0.51138 0.0
H1005 H 0.49817 0.60036 0.49278 0.0
H1006 H 0.46209 0.60098 0.50625 0.0
H1007 H 0.46109 0.5645 0.49289 0.0
C1008 C 0.01433 0.5642 0.96922 0.0
C1009 C 0.991 0.54009 0.96111 0.0
C1010 C 0.01476 0.56078 0.98371 0.0
C1011 C 0.99167 0.53222 0.99017 0.0
C1012 C 0.9679 0.50791 0.98203 0.0
C1013 C 0.96766 0.51232 0.96756 0.0
C1014 C 0.04008 0.58757 0.9921 0.0
C1015 C 0.94323 0.4769 0.98857 0.0
C1016 C 0.02351 0.50231 0.02622 0.0
C1017 C -0.00151 0.52398 0.03455 0.0
C1018 C 0.02077 0.50372 0.01171 0.0
C1019 C 0.99269 0.52776 0.00546 0.0
C1020 C 0.96673 0.54894 0.01384 0.0
C1021 C 0.9698 0.5466 0.02831 0.0
C1022 C 0.04858 0.48033 0.00307 0.0
C1023 C 0.93666 0.57515 0.00753 0.0
H1024 H 0.03231 0.58578 0.96425 0.0
H1025 H 0.94975 0.49348 0.9613 0.0
H1026 H 0.02243 0.60346 -0.00018 0.0
H1027 H 0.06177 0.57055 -0.00205 0.0
H1028 H 0.05546 0.60891 0.98549 0.0
H1029 H 0.92618 0.46056 0.98077 0.0
H1030 H 0.96173 0.45628 0.99435 0.0
H1031 H 0.92308 0.48997 0.99618 0.0
H1032 H 0.04562 0.48468 0.03102 0.0
H1033 H 0.95047 0.56352 0.03473 0.0
H1034 H 0.06761 0.50001 0.99709 0.0
H1035 H 0.03258 0.46239 0.99545 0.0
H1036 H 0.06692 0.46108 0.00952 0.0
H1037 H 0.95102 0.59873 0.00167 0.0
H1038 H 0.91755 0.58828 0.01549 0.0
H1039 H 0.91859 0.55885 4e-05 0.0
C1040 C 0.19396 0.8849 0.14501 0.0
C1041 C 0.23372 0.88648 0.14229 0.0
C1042 C 0.168 0.90875 0.1379 0.0
C1043 C 0.18208 0.93475 0.12777 0.0
C1044 C 0.22212 0.93661 0.12497 0.0
C1045 C 0.24751 0.91249 0.1323 0.0
C1046 C 0.12548 0.90597 0.14118 0.0
C1047 C 0.23807 0.9638 0.11414 0.0
C1048 C 0.11265 0.96824 0.09991 0.0
C1049 C 0.10296 0.00548 0.10453 0.0
C1050 C 0.13837 0.94499 0.10737 0.0
C1051 C 0.15472 0.9592 0.11981 0.0
C1052 C 0.14482 0.99655 0.12464 0.0
C1053 C 0.11908 0.01932 0.11692 0.0
C1054 C 0.1481 0.90525 0.1019 0.0
C1055 C 0.16152 0.01246 0.13794 0.0
H1056 H 0.18296 0.86502 0.15273 0.0
H1057 H 0.27815 0.91394 0.13015 0.0
H1058 H 0.11433 0.93467 0.14437 0.0
H1059 H 0.10927 0.89712 0.13178 0.0
H1060 H 0.11935 0.88487 0.1496 0.0
H1061 H 0.26999 0.96217 0.11336 0.0
H1062 H 0.2255 0.95685 0.10385 0.0
H1063 H 0.22983 0.99399 0.11664 0.0
H1064 H 0.10037 0.9572 0.09036 0.0
H1065 H 0.11174 0.04802 0.12056 0.0
H1066 H 0.13906 0.88293 0.10949 0.0
H1067 H 0.17974 0.90245 0.10052 0.0
H1068 H 0.13383 0.89907 0.09181 0.0
H1069 H 0.15434 0.99303 0.14673 0.0
H1070 H 0.15062 0.04189 0.14034 0.0
H1071 H 0.19342 0.01366 0.13719 0.0
C1072 C 0.35013 0.8936 0.34773 0.0
C1073 C 0.32073 0.87481 0.35512 0.0
C1074 C 0.37874 0.91485 0.35462 0.0
C1075 C 0.37843 0.91665 0.36929 0.0
C1076 C 0.3489 0.89763 0.37683 0.0
C1077 C 0.32008 0.87728 0.36963 0.0
C1078 C 0.40935 0.93522 0.3462 0.0
C1079 C 0.34827 0.89806 0.3925 0.0
C1080 C 0.47244 0.93969 0.38774 0.0
C1081 C 0.46642 0.97808 0.39186 0.0
C1082 C 0.44405 0.91932 0.38037 0.0
C1083 C 0.40922 0.93814 0.37677 0.0
C1084 C 0.40356 0.97732 0.38049 0.0
C1085 C 0.43207 0.9967 0.38814 0.0
C1086 C 0.45102 0.87746 0.37671 0.0
C1087 C 0.36721 -0.00138 0.37652 0.0
H1088 H 0.35067 0.89185 0.33649 0.0
H1089 H 0.29767 0.86244 0.37538 0.0
H1090 H 0.41054 0.96626 0.34907 0.0
H1091 H 0.43804 0.92263 0.34851 0.0
H1092 H 0.40409 0.93291 0.33486 0.0
H1093 H 0.32356 0.88151 0.39681 0.0
H1094 H 0.37543 0.88549 0.39658 0.0
H1095 H 0.34657 0.92824 0.39632 0.0
H1096 H 0.49879 0.92503 0.39072 0.0
H1097 H 0.42739 0.02642 0.39129 0.0
H1098 H 0.45204 0.87406 0.36527 0.0
H1099 H 0.42692 0.85926 0.38055 0.0
H1100 H 0.47844 0.86634 0.38113 0.0
H1101 H 0.36259 0.99678 0.36514 0.0
H1102 H 0.36816 0.02956 0.37957 0.0
H1103 H 0.34196 0.98491 0.3816 0.0
C1104 C 0.41202 0.05892 0.62001 0.0
C1105 C 0.43608 0.07213 0.60933 0.0
C1106 C 0.38895 0.08484 0.62756 0.0
C1107 C 0.39048 0.12484 0.62445 0.0
C1108 C 0.4159 0.13841 0.61406 0.0
C1109 C 0.43806 0.11187 0.60653 0.0
C1110 C 0.36233 0.06938 0.63864 0.0
C1111 C 0.41903 0.18082 0.61053 0.0
C1112 C 0.30439 0.18838 0.63292 0.0
C1113 C 0.31676 0.20692 0.64507 0.0
C1114 C 0.32798 0.16128 0.62618 0.0
C1115 C 0.36472 0.15246 0.63176 0.0
C1116 C 0.37736 0.17102 0.64402 0.0
C1117 C 0.35324 0.198 0.65053 0.0
C1118 C 0.31376 0.14237 0.61302 0.0
C1119 C 0.41662 0.16289 0.65014 0.0
H1120 H 0.41039 0.02823 0.62219 0.0
H1121 H 0.45694 0.12235 0.59839 0.0
H1122 H 0.36806 0.08412 0.64866 0.0
H1123 H 0.33195 0.07556 0.63578 0.0
H1124 H 0.36558 0.03773 0.64015 0.0
H1125 H 0.44587 0.18724 0.60469 0.0
H1126 H 0.39402 0.18931 0.60403 0.0
H1127 H 0.41863 0.19901 0.62001 0.0
H1128 H 0.27629 0.19509 0.62863 0.0
H1129 H 0.36315 0.21219 0.6599 0.0
H1130 H 0.31424 0.11047 0.61416 0.0
H1131 H 0.33325 0.14986 0.60429 0.0
H1132 H 0.28402 0.15148 0.61027 0.0
H1133 H 0.41997 0.13148 0.6521 0.0
H1134 H 0.42154 0.17871 0.66002 0.0
H1135 H 0.43937 0.17143 0.64264 0.0
C1136 C 0.04935 0.13869 0.87927 0.0
C1137 C 0.05985 0.10896 0.88841 0.0
C1138 C 0.0773 0.1585 0.87148 0.0
C1139 C 0.11665 0.1484 0.87291 0.0
C1140 C 0.12747 0.11879 0.88225 0.0
C1141 C 0.09896 0.09928 0.88982 0.0
C1142 C 0.06467 0.18992 0.86161 0.0
C1143 C 0.16925 0.10788 0.88429 0.0
C1144 C 0.18366 0.16952 0.8428 0.0
C1145 C 0.20134 0.20409 0.847 0.0
C1146 C 0.15618 0.15116 0.85117 0.0
C1147 C 0.14638 0.16747 0.86416 0.0
C1148 C 0.16484 0.2018 0.86866 0.0
C1149 C 0.19192 0.21988 0.85997 0.0
C1150 C 0.13703 0.11469 0.84597 0.0
C1151 C 0.15513 0.22031 0.8824 0.0
H1152 H 0.01926 0.14656 0.87819 0.0
H1153 H 0.10745 0.0767 0.89699 0.0
H1154 H 0.08048 0.2171 0.86382 0.0
H1155 H 0.07167 0.18139 0.8508 0.0
H1156 H 0.03324 0.19575 0.86231 0.0
H1157 H 0.173 0.08513 0.89232 0.0
H1158 H 0.18156 0.09725 0.87438 0.0
H1159 H 0.18613 0.13372 0.88741 0.0
H1160 H 0.19061 0.15711 0.83278 0.0
H1161 H 0.2052 0.24671 0.86326 0.0
H1162 H 0.10544 0.1192 0.84518 0.0
H1163 H 0.14181 0.09076 0.85344 0.0
H1164 H 0.14806 0.10563 0.83565 0.0
H1165 H 0.12762 0.23636 0.88134 0.0
H1166 H 0.17773 0.2411 0.88574 0.0
H1167 H 0.1513 0.19829 0.89066 0.0
C1168 C 0.82537 0.02739 0.89214 0.0
C1169 C 0.86237 0.03506 0.88679 0.0
C1170 C 0.79257 0.04578 0.88671 0.0
C1171 C 0.79675 0.07136 0.87537 0.0
C1172 C 0.83304 0.07504 0.86877 0.0
C1173 C 0.86541 0.05738 0.87466 0.0
C1174 C 0.75443 0.04057 0.894 0.0
C1175 C 0.83857 0.10092 0.85629 0.0
C1176 C 0.72148 0.12399 0.85448 0.0
C1177 C 0.72936 0.16226 0.85857 0.0
C1178 C 0.7403 0.09265 0.86081 0.0
C1179 C 0.76614 0.09974 0.87185 0.0
C1180 C 0.76866 0.13724 0.87761 0.0
C1181 C 0.75075 0.16812 0.8708 0.0
C1182 C 0.73593 0.05291 0.85457 0.0
C1183 C 0.79434 0.14573 0.88991 0.0
H1184 H 0.8221 0.00884 0.90112 0.0
H1185 H 0.89343 0.06384 0.87029 0.0
H1186 H 0.75158 0.06303 0.90216 0.0
H1187 H 0.72974 0.0437 0.88677 0.0
H1188 H 0.75269 0.01186 0.89912 0.0
H1189 H 0.86678 0.09591 0.85113 0.0
H1190 H 0.81528 0.09618 0.84858 0.0
H1191 H 0.83733 0.13162 0.8596 0.0
H1192 H 0.70312 0.11848 0.84561 0.0
H1193 H 0.757 0.19704 0.87442 0.0
H1194 H 0.73804 0.03003 0.8626 0.0
H1195 H 0.75947 0.04813 0.84696 0.0
H1196 H 0.708 0.04988 0.84903 0.0
H1197 H 0.79128 0.12301 0.89795 0.0
H1198 H 0.78766 0.17421 0.89465 0.0
H1199 H 0.82489 0.14607 0.88648 0.0
C1200 C 0.6877 0.03455 0.5942 0.0
C1201 C 0.65687 0.0287 0.60342 0.0
C1202 C 0.72169 0.05272 0.59868 0.0
C1203 C 0.72416 0.06613 0.61251 0.0
C1204 C 0.6955 0.05531 0.62223 0.0
C1205 C 0.66233 0.03625 0.61757 0.0
C1206 C 0.7529 0.06146 0.58824 0.0
C1207 C 0.69735 0.06825 0.63719 0.0
C1208 C 0.80271 0.12514 0.62974 0.0
C1209 C 0.7874 0.16246 0.6283 0.0
C1210 C 0.78464 0.09326 0.62345 0.0
C1211 C 0.74999 0.09896 0.61596 0.0
C1212 C 0.73638 0.13699 0.61354 0.0
C1213 C 0.7555 0.16823 0.61963 0.0
C1214 C 0.80126 0.0535 0.62571 0.0
C1215 C 0.69944 0.1446 0.60565 0.0
H1216 H 0.6841 0.02829 0.58326 0.0
H1217 H 0.63912 0.03044 0.62482 0.0
H1218 H 0.74864 0.09098 0.58403 0.0
H1219 H 0.78184 0.06041 0.59316 0.0
H1220 H 0.75211 0.04077 0.57943 0.0
H1221 H 0.67513 0.05387 0.64369 0.0
H1222 H 0.72614 0.06205 0.64165 0.0
H1223 H 0.69274 0.09996 0.63773 0.0
H1224 H 0.82772 0.12063 0.63629 0.0
H1225 H 0.7433 0.19692 0.61858 0.0
H1226 H 0.79359 0.03342 0.61716 0.0
H1227 H 0.78987 0.04144 0.63556 0.0
H1228 H 0.83317 0.05484 0.62664 0.0
H1229 H 0.70056 0.13086 0.59527 0.0
H1230 H 0.69383 0.17596 0.60423 0.0
H1231 H 0.6747 0.13182 0.61135 0.0
C1232 C 0.79907 0.97325 0.35784 0.0
C1233 C 0.7911 0.93506 0.36199 0.0
C1234 C 0.7809 0.00471 0.36431 0.0
C1235 C 0.75522 0.99775 0.37542 0.0
C1236 C 0.75216 0.96011 0.38106 0.0
C1237 C 0.76967 0.92919 0.37418 0.0
C1238 C 0.78592 0.04456 0.35824 0.0
C1239 C 0.72634 0.95162 0.39332 0.0
C1240 C 0.69631 0.0678 0.39662 0.0
C1241 C 0.65932 0.06018 0.39126 0.0
C1242 C 0.72923 0.05069 0.39076 0.0
C1243 C 0.72504 0.02637 0.37908 0.0
C1244 C 0.68876 0.02332 0.37244 0.0
C1245 C 0.65632 0.03977 0.3787 0.0
C1246 C 0.76752 0.05555 0.39798 0.0
C1247 C 0.68322 -0.00116 0.3596 0.0
H1248 H 0.81722 0.97858 0.34889 0.0
H1249 H 0.76326 0.9002 0.37772 0.0
H1250 H 0.76298 0.04965 0.35042 0.0
H1251 H 0.78347 0.0673 0.3663 0.0
H1252 H 0.81424 0.04745 0.35295 0.0
H1253 H 0.7322 0.92268 0.39784 0.0
H1254 H 0.73015 0.97372 0.40154 0.0
H1255 H 0.69575 0.95241 0.38993 0.0
H1256 H 0.69949 0.08507 0.40592 0.0
H1257 H 0.62832 0.03348 0.37428 0.0
H1258 H 0.79196 0.0537 0.39058 0.0
H1259 H 0.77101 0.03215 0.40575 0.0
H1260 H 0.76902 0.08362 0.40355 0.0
H1261 H 0.70644 0.00447 0.35195 0.0
H1262 H 0.65497 0.00436 0.35454 0.0
H1263 H 0.68454 0.9678 0.36248 0.0
C1264 C 0.74502 0.94397 0.13209 0.0
C1265 C 0.76615 0.90935 0.13203 0.0
C1266 C 0.76032 0.97792 0.12619 0.0
C1267 C 0.79734 0.97687 0.12001 0.0
C1268 C 0.81803 0.94163 0.11947 0.0
C1269 C 0.80234 0.9086 0.12555 0.0
C1270 C 0.73712 0.01476 0.12671 0.0
C1271 C 0.85775 0.93896 0.11302 0.0
C1272 C 0.84901 0.03925 0.09467 0.0
C1273 C 0.87947 0.05165 0.10315 0.0
C1274 C 0.81738 0.01965 0.1004 0.0
C1275 C 0.81671 0.01233 0.11484 0.0
C1276 C 0.84387 0.03083 0.12358 0.0
C1277 C 0.87521 0.0502 0.1176 0.0
C1278 C 0.78821 0.00162 0.09076 0.0
C1279 C 0.8434 0.02497 0.1391 0.0
H1280 H 0.71688 0.94471 0.13697 0.0
H1281 H 0.81952 0.88247 0.12576 0.0
H1282 H 0.75534 0.03949 0.12999 0.0
H1283 H 0.72601 0.0214 0.11618 0.0
H1284 H 0.71217 0.01238 0.13389 0.0
H1285 H 0.86916 0.90897 0.113 0.0
H1286 H 0.85699 0.94941 0.10214 0.0
H1287 H 0.87826 0.9575 0.11883 0.0
H1288 H 0.85191 0.04071 0.08348 0.0
H1289 H 0.89833 0.0607 0.12418 0.0
H1290 H 0.75916 0.00112 0.09556 0.0
H1291 H 0.79674 0.97131 0.08858 0.0
H1292 H 0.78666 0.01738 0.08073 0.0
H1293 H 0.81347 0.02497 0.14315 0.0
H1294 H 0.86023 0.04772 0.14453 0.0
H1295 H 0.85647 0.99651 0.14158 0.0
C1296 C 0.68599 0.33646 0.62625 0.0
C1297 C 0.71125 0.34814 0.63681 0.0
C1298 C 0.66701 0.36373 0.61793 0.0
C1299 C 0.67316 0.40362 0.62032 0.0
C1300 C 0.69829 0.41563 0.63106 0.0
C1301 C 0.71722 0.38773 0.63913 0.0
C1302 C 0.64059 0.34984 0.60651 0.0
C1303 C 0.70515 0.45793 0.63402 0.0
C1304 C 0.65407 0.47106 0.59009 0.0
C1305 C 0.61661 0.48406 0.59297 0.0
C1306 C 0.67301 0.44539 0.59903 0.0
C1307 C 0.65423 0.43269 0.61124 0.0
C1308 C 0.61691 0.44662 0.61446 0.0
C1309 C 0.59844 0.47203 0.60524 0.0
C1310 C 0.71267 0.43089 0.59518 0.0
C1311 C 0.59616 0.43399 0.62748 0.0
H1312 H 0.68117 0.30594 0.62441 0.0
H1313 H 0.73643 0.39699 0.64737 0.0
H1314 H 0.61124 0.36174 0.60807 0.0
H1315 H 0.65107 0.3605 0.59632 0.0
H1316 H 0.6386 0.31781 0.60608 0.0
H1317 H 0.72459 0.46247 0.64304 0.0
H1318 H 0.71809 0.47209 0.6248 0.0
H1319 H 0.67733 0.4726 0.63612 0.0
H1320 H 0.66833 0.4801 0.58062 0.0
H1321 H 0.56954 0.48198 0.60757 0.0
H1322 H 0.71177 0.39912 0.59364 0.0
H1323 H 0.73331 0.43671 0.60373 0.0
H1324 H 0.7238 0.44453 0.58554 0.0
H1325 H 0.59018 0.40252 0.627 0.0
H1326 H 0.56842 0.44948 0.62895 0.0
H1327 H 0.61461 0.43906 0.63671 0.0
C1328 C 0.93287 0.4683 0.88724 0.0
C1329 C 0.91108 0.48438 0.89807 0.0
C1330 C 0.91658 0.44118 0.87811 0.0
C1331 C 0.87762 0.4299 0.87985 0.0
C1332 C 0.8553 0.44659 0.89058 0.0
C1333 C 0.87227 0.47365 0.89953 0.0
C1334 C 0.94133 0.42383 0.86682 0.0
C1335 C 0.81369 0.43524 0.89279 0.0
C1336 C 0.82376 0.38295 0.84996 0.0
C1337 C 0.82592 0.34363 0.85346 0.0
C1338 C 0.84087 0.41128 0.85837 0.0
C1339 C 0.86028 0.40008 0.87064 0.0
C1340 C 0.86245 0.36047 0.87426 0.0
C1341 C 0.84536 0.33268 0.8656 0.0
C1342 C 0.83829 0.45319 0.85409 0.0
C1343 C 0.88235 0.34744 0.88738 0.0
H1344 H 0.96295 0.47619 0.88609 0.0
H1345 H 0.8552 0.48589 0.90786 0.0
H1346 H 0.94452 0.3923 0.8686 0.0
H1347 H 0.92727 0.4276 0.85657 0.0
H1348 H 0.97052 0.43703 0.86642 0.0
H1349 H 0.80002 0.45166 0.90139 0.0
H1350 H 0.79687 0.44023 0.88316 0.0
H1351 H 0.81184 0.40394 0.8952 0.0
H1352 H 0.80906 0.39166 0.84054 0.0
H1353 H 0.84705 0.30239 0.86839 0.0
H1354 H 0.86767 0.46554 0.85301 0.0
H1355 H 0.82322 0.47006 0.86224 0.0
H1356 H 0.82268 0.45704 0.84412 0.0
H1357 H 0.9111 0.36122 0.88828 0.0
H1358 H 0.88596 0.31557 0.88781 0.0
H1359 H 0.86518 0.35668 0.89651 0.0
C1360 C 0.92515 0.55607 0.11913 0.0
C1361 C 0.94266 0.56998 0.10701 0.0
C1362 C 0.8987 0.57887 0.12653 0.0
C1363 C 0.88953 0.61635 0.12163 0.0
C1364 C 0.9075 0.63073 0.10951 0.0
C1365 C 0.93389 0.60744 0.10237 0.0
C1366 C 0.88028 0.56274 0.13949 0.0
C1367 C 0.8986 0.67062 0.10399 0.0
C1368 C 0.79473 0.66203 0.13256 0.0
C1369 C 0.80684 0.68776 0.14293 0.0
C1370 C 0.82134 0.63845 0.12559 0.0
C1371 C 0.86094 0.64054 0.12912 0.0
C1372 C 0.87333 0.66631 0.1396 0.0
C1373 C 0.84616 0.68963 0.14635 0.0
C1374 C 0.80717 0.61152 0.11436 0.0
C1375 C 0.91531 0.66935 0.14368 0.0
H1376 H 0.93176 0.5272 0.12279 0.0
H1377 H 0.94733 0.61856 0.09304 0.0
H1378 H 0.88595 0.58221 0.14841 0.0
H1379 H 0.84855 0.5612 0.13813 0.0
H1380 H 0.89113 0.53342 0.14208 0.0
H1381 H 0.91426 0.677 0.09419 0.0
H1382 H 0.8672 0.67351 0.10204 0.0
H1383 H 0.90659 0.69275 0.11181 0.0
H1384 H 0.76444 0.66037 0.12985 0.0
H1385 H 0.85589 0.70932 0.15434 0.0
H1386 H 0.8151 0.58129 0.11692 0.0
H1387 H 0.82128 0.61878 0.10436 0.0
H1388 H 0.77542 0.61308 0.11294 0.0
H1389 H 0.92617 0.64069 0.14704 0.0
H1390 H 0.9201 0.69041 0.15221 0.0
H1391 H 0.93279 0.67838 0.1346 0.0
C1392 C 0.66837 0.74816 0.35843 0.0
C1393 C 0.70711 0.74343 0.35465 0.0
C1394 C 0.64785 0.71814 0.36485 0.0
C1395 C 0.66687 0.68294 0.36788 0.0
C1396 C 0.70631 0.67842 0.36444 0.0
C1397 C 0.72584 0.70858 0.35769 0.0
C1398 C 0.60568 0.7239 0.36819 0.0
C1399 C 0.72779 0.64168 0.36783 0.0
C1400 C 0.62155 0.61999 0.39566 0.0
C1401 C 0.6034 0.59129 0.38771 0.0
C1402 C 0.64293 0.64952 0.38935 0.0
C1403 C 0.64552 0.6509 0.37471 0.0
C1404 C 0.62724 0.62201 0.36661 0.0
C1405 C 0.60675 0.5922 0.37323 0.0
C1406 C 0.66253 0.67938 0.39836 0.0
C1407 C 0.62851 0.62319 0.35095 0.0
H1408 H 0.65364 0.7749 0.35593 0.0
H1409 H 0.75582 0.7049 0.35478 0.0
H1410 H 0.58827 0.70005 0.36371 0.0
H1411 H 0.60137 0.72323 0.37959 0.0
H1412 H 0.59448 0.7518 0.36416 0.0
H1413 H 0.75874 0.64332 0.36491 0.0
H1414 H 0.72571 0.63554 0.37911 0.0
H1415 H 0.71449 0.61694 0.36229 0.0
H1416 H 0.61915 0.61928 0.40688 0.0
H1417 H 0.5924 0.57029 0.36706 0.0
H1418 H 0.64977 0.70825 0.39642 0.0
H1419 H 0.69361 0.68122 0.39571 0.0
H1420 H 0.65974 0.67274 0.4096 0.0
H1421 H 0.61559 0.6506 0.34718 0.0
H1422 H 0.61275 0.59861 0.34616 0.0
H1423 H 0.65883 0.62258 0.34731 0.0
C1424 C 0.38776 0.5425 0.36744 0.0
C1425 C 0.38926 0.52561 0.38066 0.0
C1426 C 0.35412 0.56051 0.36274 0.0
C1427 C 0.32029 0.55862 0.37099 0.0
C1428 C 0.31959 0.53411 0.38273 0.0
C1429 C 0.35441 0.5188 0.38772 0.0
C1430 C 0.35638 0.58514 0.3498 0.0
C1431 C 0.28309 0.52665 0.39079 0.0
C1432 C 0.27662 0.65738 0.37308 0.0
C1433 C 0.25925 0.65965 0.35997 0.0
C1434 C 0.29394 0.62312 0.37759 0.0
C1435 C 0.29081 0.58941 0.36928 0.0
C1436 C 0.26615 0.58968 0.35759 0.0
C1437 C 0.25158 0.62509 0.35278 0.0
C1438 C 0.31902 0.62451 0.39042 0.0
C1439 C 0.25751 0.55352 0.34942 0.0
H1440 H 0.41397 0.54528 0.3614 0.0
H1441 H 0.35438 0.50443 0.3977 0.0
H1442 H 0.3364 0.57368 0.34184 0.0
H1443 H 0.34773 0.61533 0.35214 0.0
H1444 H 0.38582 0.58572 0.34526 0.0
H1445 H 0.28021 0.49518 0.39283 0.0
H1446 H 0.28478 0.54108 0.40106 0.0
H1447 H 0.25692 0.53673 0.38524 0.0
H1448 H 0.2801 0.68337 0.37924 0.0
H1449 H 0.23692 0.62564 0.34286 0.0
H1450 H 0.34872 0.6147 0.38797 0.0
H1451 H 0.30711 0.60496 0.39845 0.0
H1452 H 0.32086 0.65399 0.39494 0.0
H1453 H 0.27127 0.55535 0.33905 0.0
H1454 H 0.22595 0.55133 0.34763 0.0
H1455 H 0.26738 0.52688 0.35476 0.0
C1456 C 0.24284 0.664 0.1253 0.0
C1457 C 0.27845 0.66423 0.13218 0.0
C1458 C 0.2279 0.63024 0.1195 0.0
C1459 C 0.24883 0.59526 0.12073 0.0
C1460 C 0.28553 0.59527 0.12717 0.0
C1461 C 0.30005 0.62992 0.13279 0.0
C1462 C 0.18854 0.63185 0.11272 0.0
C1463 C 0.30913 0.5588 0.12831 0.0
C1464 C 0.17076 0.52227 0.11971 0.0
C1465 C 0.16609 0.51942 0.1053 0.0
C1466 C 0.20249 0.54186 0.12532 0.0
C1467 C 0.22967 0.55899 0.11624 0.0
C1468 C 0.22876 0.54977 0.10194 0.0
C1469 C 0.19667 0.53013 0.09658 0.0
C1470 C 0.20321 0.5497 0.14072 0.0
C1471 C 0.25818 0.56601 0.09201 0.0
H1472 H 0.2253 0.68989 0.12505 0.0
H1473 H 0.32782 0.62996 0.13795 0.0
H1474 H 0.18997 0.6202 0.10202 0.0
H1475 H 0.16782 0.61384 0.11866 0.0
H1476 H 0.17691 0.66172 0.11218 0.0
H1477 H 0.33365 0.56216 0.13564 0.0
H1478 H 0.29106 0.53413 0.13176 0.0
H1479 H 0.32092 0.55135 0.11795 0.0
H1480 H 0.14761 0.51292 0.12649 0.0
H1481 H 0.19355 0.52746 0.08542 0.0
H1482 H 0.19047 0.57859 0.14274 0.0
H1483 H 0.23318 0.54988 0.14474 0.0
H1484 H 0.18619 0.52786 0.14655 0.0
H1485 H 0.24995 0.596 0.0892 0.0
H1486 H 0.25962 0.54868 0.08231 0.0
H1487 H 0.28719 0.56697 0.09683 0.0
C1488 C 0.14981 0.56554 0.87621 0.0
C1489 C 0.14237 0.57105 0.89036 0.0
C1490 C 0.18247 0.545 0.87187 0.0
C1491 C 0.20811 0.53004 0.88196 0.0
C1492 C 0.20437 0.54167 0.89595 0.0
C1493 C 0.17126 0.56191 0.90005 0.0
C1494 C 0.18627 0.53449 0.85673 0.0
C1495 C 0.23221 0.52795 0.90692 0.0
C1496 C 0.22888 0.42508 0.87478 0.0
C1497 C 0.26507 0.42667 0.86831 0.0
C1498 C 0.21126 0.45836 0.87996 0.0
C1499 C 0.2302 0.49448 0.87864 0.0
C1500 C 0.26791 0.49608 0.87306 0.0
C1501 C 0.2849 0.4621 0.8679 0.0
C1502 C 0.1711 0.45505 0.88599 0.0
C1503 C 0.28953 0.53374 0.87175 0.0
H1504 H 0.12814 0.5737 0.86864 0.0
H1505 H 0.16616 0.56646 0.91102 0.0
H1506 H 0.21681 0.53606 0.85338 0.0
H1507 H 0.17624 0.50432 0.85518 0.0
H1508 H 0.16873 0.55375 0.85001 0.0
H1509 H 0.23154 0.54697 0.91621 0.0
H1510 H 0.22408 0.49831 0.91022 0.0
H1511 H 0.26209 0.52687 0.90282 0.0
H1512 H 0.21287 0.39819 0.87497 0.0
H1513 H 0.3131 0.46357 0.86309 0.0
H1514 H 0.15034 0.47104 0.87936 0.0
H1515 H 0.17015 0.46809 0.8965 0.0
H1516 H 0.16122 0.42458 0.88679 0.0
H1517 H 0.28203 0.5475 0.86171 0.0
H1518 H 0.32119 0.52891 0.87187 0.0
H1519 H 0.28194 0.55418 0.88019 0.0
C1520 C 0.28449 0.42613 0.62213 0.0
C1521 C 0.26678 0.42671 0.63521 0.0
C1522 C 0.30006 0.45976 0.61634 0.0
C1523 C 0.29435 0.4957 0.62312 0.0
C1524 C 0.26983 0.4974 0.63484 0.0
C1525 C 0.25741 0.46282 0.64105 0.0
C1526 C 0.32558 0.45582 0.60368 0.0
C1527 C 0.25849 0.53518 0.64149 0.0
C1528 C 0.38607 0.55233 0.62177 0.0
C1529 C 0.386 0.56263 0.60769 0.0
C1530 C 0.35429 0.53366 0.62769 0.0
C1531 C 0.32045 0.52844 0.61964 0.0
C1532 C 0.31733 0.54733 0.60666 0.0
C1533 C 0.35059 0.56317 0.60059 0.0
C1534 C 0.35889 0.51573 0.6419 0.0
C1535 C 0.28016 0.54783 0.59855 0.0
H1536 H 0.28909 0.39886 0.61687 0.0
H1537 H 0.24255 0.46456 0.6509 0.0
H1538 H 0.31162 0.46993 0.59467 0.0
H1539 H 0.35386 0.47006 0.60543 0.0
H1540 H 0.33103 0.42516 0.60089 0.0
H1541 H 0.22664 0.5362 0.64264 0.0
H1542 H 0.27073 0.53688 0.65212 0.0
H1543 H 0.26784 0.56077 0.63541 0.0
H1544 H 0.4125 0.55478 0.62772 0.0
H1545 H 0.34921 0.57266 0.58989 0.0
H1546 H 0.35251 0.4843 0.64152 0.0
H1547 H 0.33837 0.52932 0.64923 0.0
H1548 H 0.38844 0.51956 0.64615 0.0
H1549 H 0.28305 0.52958 0.58914 0.0
H1550 H 0.27425 0.5777 0.59491 0.0
H1551 H 0.25518 0.53769 0.60477 0.0
C1552 C 0.98464 0.86174 0.05693 0.0
C1553 C 0.0051 0.88724 0.0655 0.0
C1554 C 0.99173 0.8219 0.05734 0.0
C1555 C 0.01997 0.80731 0.06655 0.0
C1556 C 0.04051 0.83282 0.07532 0.0
C1557 C 0.03283 0.87251 0.07469 0.0
C1558 C 0.96926 0.79547 0.04783 0.0
C1559 C 0.07073 0.81822 0.08532 0.0
C1560 C 0.01479 0.70106 0.07581 0.0
C1561 C 0.04251 0.68521 0.06687 0.0
C1562 C 0.0074 0.74085 0.07593 0.0
C1563 C 0.02827 0.76532 0.06688 0.0
C1564 C 0.05662 0.74964 0.05795 0.0
C1565 C 0.06339 0.70972 0.05806 0.0
C1566 C 0.97706 0.75663 0.08564 0.0
C1567 C 0.07945 0.77496 0.04817 0.0
H1568 H 0.96353 0.87302 0.04971 0.0
H1569 H 0.04827 0.89199 0.08151 0.0
H1570 H 0.98931 0.78001 0.04079 0.0
H1571 H 0.95383 0.77328 0.05402 0.0
H1572 H 0.94787 0.8114 0.04143 0.0
H1573 H 0.08273 0.84166 0.09192 0.0
H1574 H 0.0583 0.79565 0.09217 0.0
H1575 H 0.09472 0.80469 0.07947 0.0
H1576 H -0.00097 0.68237 0.08283 0.0
H1577 H 0.08453 0.69759 0.05103 0.0
H1578 H 0.9532 0.76952 0.07953 0.0
H1579 H 0.98942 0.77994 0.09217 0.0
H1580 H 0.9649 0.73398 0.09254 0.0
H1581 H 0.05966 0.78955 0.0408 0.0
H1582 H 0.10108 0.75831 0.04213 0.0
H1583 H 0.09463 0.79788 0.05409 0.0
C1584 C 0.44357 0.74344 0.30715 0.0
C1585 C 0.4206 0.76566 0.31606 0.0
C1586 C 0.48368 0.74853 0.30675 0.0
C1587 C 0.50103 0.77644 0.31549 0.0
C1588 C 0.47811 0.79814 0.32479 0.0
C1589 C 0.43816 0.79245 0.32497 0.0
C1590 C 0.50737 0.72472 0.29678 0.0
C1591 C 0.49564 0.82793 0.33437 0.0
C1592 C 0.6084 0.77543 0.32274 0.0
C1593 C 0.62148 0.80494 0.31393 0.0
C1594 C 0.5694 0.76487 0.32306 0.0
C1595 C 0.54288 0.78455 0.31443 0.0
C1596 C 0.55606 0.8136 0.30524 0.0
C1597 C 0.59523 0.82339 0.30509 0.0
C1598 C 0.55651 0.73371 0.33301 0.0
C1599 C 0.5286 0.83507 0.29582 0.0
H1600 H 0.43006 0.72285 0.30022 0.0
H1601 H 0.42061 0.80903 0.3321 0.0
H1602 H 0.5211 0.74393 0.28899 0.0
H1603 H 0.53089 0.70972 0.30242 0.0
H1604 H 0.48974 0.70281 0.29122 0.0
H1605 H 0.47382 0.84174 0.3412 0.0
H1606 H 0.51802 0.81431 0.34098 0.0
H1607 H 0.51002 0.85082 0.32818 0.0
H1608 H 0.62842 0.76137 0.32973 0.0
H1609 H 0.6053 0.84571 0.29809 0.0
H1610 H 0.53591 0.71365 0.32794 0.0
H1611 H 0.54143 0.74721 0.34193 0.0
H1612 H 0.58123 0.71671 0.33706 0.0
H1613 H 0.512 0.81434 0.28938 0.0
H1614 H 0.54376 0.85561 0.28884 0.0
H1615 H 0.50752 0.8515 0.30217 0.0
C1616 C 0.54041 0.20598 0.55501 0.0
C1617 C 0.51979 0.18163 0.56398 0.0
C1618 C 0.53452 0.24604 0.5551 0.0
C1619 C 0.50709 0.26213 0.56429 0.0
C1620 C 0.48538 0.2377 0.57311 0.0
C1621 C 0.49227 0.1978 0.57294 0.0
C1622 C 0.55788 0.27121 0.54543 0.0
C1623 C 0.4557 0.25339 0.58309 0.0
C1624 C 0.51894 0.3674 0.5743 0.0
C1625 C 0.49141 0.38524 0.56581 0.0
C1626 C 0.52418 0.32724 0.57398 0.0
C1627 C 0.50167 0.3046 0.56481 0.0
C1628 C 0.47383 0.32245 0.55621 0.0
C1629 C 0.46897 0.3626 0.55684 0.0
C1630 C 0.55349 0.309 0.58352 0.0
C1631 C 0.44892 0.29905 0.54648 0.0
H1632 H 0.56117 0.19374 0.54787 0.0
H1633 H 0.47656 0.17945 0.58007 0.0
H1634 H 0.53837 0.28837 0.5387 0.0
H1635 H 0.57538 0.29197 0.55154 0.0
H1636 H 0.57753 0.25409 0.53872 0.0
H1637 H 0.43257 0.23186 0.58502 0.0
H1638 H 0.46994 0.2598 0.59315 0.0
H1639 H 0.44207 0.28035 0.57928 0.0
H1640 H 0.53589 0.38481 0.58138 0.0
H1641 H 0.44793 0.37639 0.55018 0.0
H1642 H 0.57531 0.29305 0.57736 0.0
H1643 H 0.53905 0.28777 0.59042 0.0
H1644 H 0.56851 0.33072 0.59005 0.0
H1645 H 0.4673 0.28225 0.53925 0.0
H1646 H 0.42904 0.31743 0.54031 0.0
H1647 H 0.43155 0.27799 0.55253 0.0
C1648 C 0.08438 0.33746 0.82677 0.0
C1649 C 0.11281 0.31785 0.81929 0.0
C1650 C 0.0456 0.32678 0.82561 0.0
C1651 C 0.03527 0.29637 0.81651 0.0
C1652 C 0.06384 0.27725 0.80861 0.0
C1653 C 0.10246 0.28801 0.81022 0.0
C1654 C 0.01586 0.34727 0.83439 0.0
C1655 C 0.05366 0.24524 0.7986 0.0
C1656 C 0.9418 0.2441 0.82384 0.0
C1657 C 0.91645 0.26364 0.81501 0.0
C1658 C 0.98084 0.25422 0.82433 0.0
C1659 C 0.99463 0.28395 0.81555 0.0
C1660 C 0.96932 0.30274 0.80623 0.0
C1661 C 0.93027 0.29263 0.8062 0.0
C1662 C 0.00695 0.23409 0.83458 0.0
C1663 C 0.98334 0.33389 0.79647 0.0
H1664 H 0.09275 0.36025 0.83388 0.0
H1665 H 0.12468 0.27325 0.80436 0.0
H1666 H 0.99332 0.36019 0.82767 0.0
H1667 H 0.00135 0.32619 0.84132 0.0
H1668 H 0.02873 0.37051 0.84087 0.0
H1669 H 0.07912 0.23492 0.79267 0.0
H1670 H 0.04119 0.22044 0.80435 0.0
H1671 H 0.03144 0.25536 0.79115 0.0
H1672 H 0.93068 0.222 0.83073 0.0
H1673 H 0.91037 0.30733 0.79932 0.0
H1674 H 0.01791 0.25532 0.84226 0.0
H1675 H 0.03234 0.22171 0.82919 0.0
H1676 H 0.99191 0.21052 0.84025 0.0
H1677 H 0.99353 0.35919 0.80252 0.0
H1678 H 0.96043 0.34365 0.78921 0.0
H1679 H 0.00818 0.32319 0.79032 0.0
C1680 C 0.03341 0.20557 0.91979 0.0
C1681 C 0.0074 0.19346 0.93008 0.0
C1682 C 0.0429 0.24471 0.91822 0.0
C1683 C 0.02574 0.27238 0.92707 0.0
C1684 C -0.0 0.26034 0.93761 0.0
C1685 C 0.99131 0.22099 0.93903 0.0
C1686 C 0.07026 0.25652 0.90679 0.0
C1687 C 0.98088 0.28912 0.94717 0.0
C1688 C 0.06727 0.37285 0.93167 0.0
C1689 C 0.0422 0.39499 0.92348 0.0
C1690 C 0.06318 0.3326 0.93254 0.0
C1691 C 0.03334 0.31417 0.92502 0.0
C1692 C 0.00906 0.33616 0.91625 0.0
C1693 C 0.01367 0.37634 0.91564 0.0
C1694 C 0.08989 0.30999 0.94188 0.0
C1695 C 0.97705 0.31771 0.90794 0.0
H1696 H 0.04547 0.18465 0.91266 0.0
H1697 H 0.97162 0.21183 0.94711 0.0
H1698 H 0.05496 0.27505 0.89917 0.0
H1699 H 0.09438 0.2738 0.91112 0.0
H1700 H 0.08236 0.23117 0.90123 0.0
H1701 H 0.96243 0.27491 0.9551 0.0
H1702 H 0.00301 0.30674 0.95256 0.0
H1703 H 0.96274 0.30921 0.94101 0.0
H1704 H 0.0892 0.38711 0.93782 0.0
H1705 H 0.99469 0.39325 0.9091 0.0
H1706 H 0.10278 0.28544 0.93611 0.0
H1707 H 0.07329 0.29768 0.95067 0.0
H1708 H 0.1135 0.32818 0.94613 0.0
H1709 H 0.98583 0.28926 0.90369 0.0
H1710 H 0.96797 0.33644 0.89918 0.0
H1711 H 0.95176 0.31297 0.91479 0.0
C1712 C 0.09385 0.74824 0.16556 0.0
C1713 C 0.11825 0.7696 0.1742 0.0
C1714 C 0.05407 0.75502 0.16553 0.0
C1715 C 0.03861 0.78298 0.17469 0.0
C1716 C 0.06323 0.80427 0.18357 0.0
C1717 C 0.103 0.79768 0.18305 0.0
C1718 C 0.02869 0.73263 0.15564 0.0
C1719 C 0.04755 0.83356 0.19372 0.0
C1720 C 0.94071 0.82652 0.1675 0.0
C1721 C 0.91704 0.80357 0.17587 0.0
C1722 C 0.98042 0.81967 0.1668 0.0
C1723 C 0.99661 0.78992 0.17502 0.0
C1724 C 0.97276 0.76699 0.18364 0.0
C1725 C 0.93299 0.77376 0.18379 0.0
C1726 C 0.00493 0.84389 0.15719 0.0
C1727 C 0.98926 0.7357 0.19281 0.0
H1728 H 0.10613 0.72683 0.15865 0.0
H1729 H 0.12223 0.81379 0.18978 0.0
H1730 H 0.00724 0.7154 0.16153 0.0
H1731 H 0.01236 0.75292 0.14893 0.0
H1732 H 0.04551 0.71277 0.14891 0.0
H1733 H 0.07059 0.84675 0.20019 0.0
H1734 H 0.03237 0.85694 0.18806 0.0
H1735 H 0.02617 0.81961 0.20068 0.0
H1736 H 0.92787 0.84922 0.16128 0.0
H1737 H 0.91431 0.75634 0.19028 0.0
H1738 H 0.02059 0.82493 0.14981 0.0
H1739 H 0.02693 0.85996 0.16323 0.0
H1740 H 0.98754 0.865 0.15116 0.0
H1741 H 0.00379 0.71349 0.18637 0.0
H1742 H 0.96679 0.7213 0.1992 0.0
H1743 H 0.01136 0.74817 0.19984 0.0
C1744 C 0.51629 0.70725 0.41926 0.0
C1745 C 0.48817 0.68764 0.42699 0.0
C1746 C 0.52038 0.74744 0.42021 0.0
C1747 C 0.49563 0.76853 0.42909 0.0
C1748 C 0.46642 0.74913 0.43661 0.0
C1749 C 0.4631 0.70886 0.4355 0.0
C1750 C 0.55171 0.7672 0.41194 0.0
C1751 C 0.43925 0.77082 0.44605 0.0
C1752 C 0.53534 0.86305 0.44274 0.0
C1753 C 0.5186 0.88996 0.43369 0.0
C1754 C 0.52744 0.82351 0.44152 0.0
C1755 C 0.50183 0.81058 0.43107 0.0
C1756 C 0.48358 0.83765 0.42225 0.0
C1757 C 0.4924 0.87703 0.4236 0.0
C1758 C 0.54734 0.79547 0.45117 0.0
C1759 C 0.45583 0.82508 0.41104 0.0
H1760 H 0.53517 0.69118 0.41242 0.0
H1761 H 0.44147 0.6939 0.44156 0.0
H1762 H 0.53903 0.79003 0.40528 0.0
H1763 H 0.57237 0.78149 0.41909 0.0
H1764 H 0.5679 0.7467 0.40525 0.0
H1765 H 0.41668 0.75176 0.45054 0.0
H1766 H 0.45571 0.78423 0.45467 0.0
H1767 H 0.42498 0.79455 0.44025 0.0
H1768 H 0.55498 0.87285 0.45074 0.0
H1769 H 0.47964 0.8975 0.41645 0.0
H1770 H 0.56599 0.7757 0.44508 0.0
H1771 H 0.5257 0.7774 0.45663 0.0
H1772 H 0.56544 0.81036 0.45905 0.0
H1773 H 0.47226 0.81231 0.4023 0.0
H1774 H 0.43866 0.84971 0.407 0.0
H1775 H 0.43574 0.80263 0.41496 0.0
C1776 C 0.60658 0.26435 0.68969 0.0
C1777 C 0.63067 0.28177 0.67984 0.0
C1778 C 0.56708 0.27275 0.69012 0.0
C1779 C 0.55139 0.29915 0.68042 0.0
C1780 C 0.57564 0.31729 0.67057 0.0
C1781 C 0.61502 0.30836 0.6704 0.0
C1782 C 0.54205 0.25298 0.7008 0.0
C1783 C 0.55988 0.34546 0.66002 0.0
C1784 C 0.44488 0.29019 0.67245 0.0
C1785 C 0.42925 0.31999 0.68055 0.0
C1786 C 0.48464 0.2833 0.67223 0.0
C1787 C 0.50936 0.30679 0.68032 0.0
C1788 C 0.49387 0.33715 0.68842 0.0
C1789 C 0.45393 0.34341 0.68842 0.0
C1790 C 0.50015 0.25075 0.6634 0.0
C1791 C 0.51943 0.3627 0.69719 0.0
H1792 H 0.61867 0.24418 0.6971 0.0
H1793 H 0.63342 0.32143 0.66262 0.0
H1794 H 0.52659 0.27483 0.70712 0.0
H1795 H 0.51989 0.23508 0.69553 0.0
H1796 H 0.55897 0.23412 0.70787 0.0
H1797 H 0.58288 0.35813 0.65341 0.0
H1798 H 0.53872 0.33062 0.65322 0.0
H1799 H 0.5444 0.36927 0.66534 0.0
H1800 H 0.42602 0.27246 0.66614 0.0
H1801 H 0.44192 0.3662 0.69479 0.0
H1802 H 0.51485 0.22918 0.67008 0.0
H1803 H 0.5219 0.26201 0.65599 0.0
H1804 H 0.4771 0.23584 0.65744 0.0
H1805 H 0.53494 0.34496 0.70498 0.0
H1806 H 0.50289 0.38549 0.7027 0.0
H1807 H 0.54155 0.3768 0.69058 0.0
loop_
_geom_bond_atom_site_label_1
_geom_bond_atom_site_label_2
_geom_bond_distance
_geom_bond_site_symmetry_2
_ccdc_geom_bond_type
Co0 N4 2.148 . S
Co0 N10 2.128 1_545 S
Co0 N20 2.194 1_455 S
Co0 O25 2.351 1_455 S
Co0 O26 2.155 . S
Co0 O27 2.096 . S
C1 N4 1.301 . S
C1 N5 1.328 . S
C1 H6 0.930 1_455 S
C2 C3 1.333 . S
C2 N4 1.317 . S
C2 H7 0.930 . S
C3 C2 1.333 . S
C3 N5 1.350 . S
C3 H29 0.931 . S
N4 Co0 2.148 . S
N4 C1 1.301 . S
N4 C2 1.317 . S
N5 C1 1.328 . S
N5 C3 1.350 . S
H6 C1 0.930 1_655 S
H7 C2 0.930 . S
C8 O9 1.224 . S
C8 O27 1.247 . S
O9 C8 1.224 . S
N10 Co0 2.128 1_565 S
N10 C11 1.355 1_455 S
N10 C13 1.311 . S
C11 N10 1.355 1_655 S
C11 C12 1.363 . S
C11 H23 0.929 . S
C12 C11 1.363 . S
C12 N14 1.375 1_655 S
C12 H30 0.931 . S
C13 N10 1.311 . S
C13 N14 1.347 . S
C13 H24 0.929 . S
N14 C12 1.375 1_455 S
N14 C13 1.347 . S
C15 C18 1.365 . S
C15 N20 1.328 . S
C15 H21 0.929 . S
C16 C17 1.362 . S
C16 C19 1.378 . S
C16 H31 0.929 . S
C17 C16 1.362 . S
C17 C18 1.366 . S
C18 C15 1.365 . S
C18 C17 1.366 . S
C18 H32 0.930 . S
C19 C16 1.378 . S
C19 N20 1.315 . S
C19 H22 0.930 . S
N20 Co0 2.194 1_655 S
N20 C15 1.328 . S
N20 C19 1.315 . S
H21 C15 0.929 . S
H22 C19 0.930 . S
H23 C11 0.929 . S
H24 C13 0.929 . S
O25 Co0 2.351 1_655 S
O25 C28 1.244 1_655 S
O26 Co0 2.155 . S
O26 C28 1.240 . S
O27 Co0 2.096 . S
O27 C8 1.247 . S
C28 O25 1.244 1_455 S
C28 O26 1.240 . S
H29 C3 0.931 . S
H30 C12 0.931 . S
H31 C16 0.929 . S
H32 C18 0.930 . S
Co33 N37 2.148 . S
Co33 N43 2.128 . S
Co33 N53 2.194 . S
Co33 O58 2.351 . S
Co33 O59 2.155 . S
Co33 O60 2.096 . S
C34 N37 1.301 . S
C34 N38 1.328 . S
C34 H39 0.930 . S
C35 C36 1.333 . S
C35 N37 1.317 . S
C35 H40 0.930 . S
C36 C35 1.333 . S
C36 N38 1.350 . S
C36 H62 0.931 . S
N37 Co33 2.148 . S
N37 C34 1.301 . S
N37 C35 1.317 . S
N38 C34 1.328 . S
N38 C36 1.350 . S
H39 C34 0.930 . S
H40 C35 0.930 . S
C41 O42 1.224 . S
C41 O60 1.247 . S
O42 C41 1.224 . S
N43 Co33 2.128 . S
N43 C44 1.355 . S
N43 C46 1.311 . S
C44 N43 1.355 . S
C44 C45 1.363 . S
C44 H56 0.929 . S
C45 C44 1.363 . S
C45 N47 1.375 . S
C45 H63 0.931 . S
C46 N43 1.311 . S
C46 N47 1.347 . S
C46 H57 0.929 . S
N47 C45 1.375 . S
N47 C46 1.347 . S
C48 C51 1.365 . S
C48 N53 1.328 . S
C48 H54 0.929 . S
C49 C50 1.362 . S
C49 C52 1.378 . S
C49 H64 0.929 . S
C50 C49 1.362 . S
C50 C51 1.366 . S
C51 C48 1.365 . S
C51 C50 1.366 . S
C51 H65 0.930 . S
C52 C49 1.378 . S
C52 N53 1.315 . S
C52 H55 0.930 . S
N53 Co33 2.194 . S
N53 C48 1.328 . S
N53 C52 1.315 . S
H54 C48 0.929 . S
H55 C52 0.930 . S
H56 C44 0.929 . S
H57 C46 0.929 . S
O58 Co33 2.351 . S
O58 C61 1.244 . S
O59 Co33 2.155 . S
O59 C61 1.240 . S
O60 Co33 2.096 . S
O60 C41 1.247 . S
C61 O58 1.244 . S
C61 O59 1.240 . S
H62 C36 0.931 . S
H63 C45 0.931 . S
H64 C49 0.929 . S
H65 C51 0.930 . S
Co66 N70 2.148 1_545 S
Co66 N76 2.128 . S
Co66 N86 2.194 . S
Co66 O91 2.351 . S
Co66 O92 2.155 . S
Co66 O93 2.096 . S
C67 N70 1.301 . S
C67 N71 1.328 . S
C67 H72 0.930 . S
C68 C69 1.333 . S
C68 N70 1.317 . S
C68 H73 0.930 . S
C69 C68 1.333 . S
C69 N71 1.350 . S
C69 H95 0.931 . S
N70 Co66 2.148 1_565 S
N70 C67 1.301 . S
N70 C68 1.317 . S
N71 C67 1.328 . S
N71 C69 1.350 . S
H72 C67 0.930 . S
H73 C68 0.930 . S
C74 O75 1.224 . S
C74 O93 1.247 . S
O75 C74 1.224 . S
N76 Co66 2.128 . S
N76 C77 1.355 . S
N76 C79 1.311 . S
C77 N76 1.355 . S
C77 C78 1.363 . S
C77 H89 0.929 . S
C78 C77 1.363 . S
C78 N80 1.375 . S
C78 H96 0.931 . S
C79 N76 1.311 . S
C79 N80 1.347 . S
C79 H90 0.929 . S
N80 C78 1.375 . S
N80 C79 1.347 . S
C81 C84 1.365 . S
C81 N86 1.328 . S
C81 H87 0.929 . S
C82 C83 1.362 . S
C82 C85 1.378 . S
C82 H97 0.929 . S
C83 C82 1.362 . S
C83 C84 1.366 . S
C84 C81 1.365 . S
C84 C83 1.366 . S
C84 H98 0.930 . S
C85 C82 1.378 . S
C85 N86 1.315 . S
C85 H88 0.930 . S
N86 Co66 2.194 . S
N86 C81 1.328 . S
N86 C85 1.315 . S
H87 C81 0.929 . S
H88 C85 0.930 . S
H89 C77 0.929 . S
H90 C79 0.929 . S
O91 Co66 2.351 . S
O91 C94 1.244 . S
O92 Co66 2.155 . S
O92 C94 1.240 . S
O93 Co66 2.096 . S
O93 C74 1.247 . S
C94 O91 1.244 . S
C94 O92 1.240 . S
H95 C69 0.931 . S
H96 C78 0.931 . S
H97 C82 0.929 . S
H98 C84 0.930 . S
Co99 N103 2.148 . S
Co99 N109 2.128 . S
Co99 N119 2.194 . S
Co99 O124 2.351 . S
Co99 O125 2.155 . S
Co99 O126 2.096 . S
C100 N103 1.301 . S
C100 N104 1.328 . S
C100 H105 0.930 . S
C101 C102 1.333 . S
C101 N103 1.317 . S
C101 H106 0.930 . S
C102 C101 1.333 . S
C102 N104 1.350 . S
C102 H128 0.931 . S
N103 Co99 2.148 . S
N103 C100 1.301 . S
N103 C101 1.317 . S
N104 C100 1.328 . S
N104 C102 1.350 . S
H105 C100 0.930 . S
H106 C101 0.930 . S
C107 O108 1.224 . S
C107 O126 1.247 . S
O108 C107 1.224 . S
N109 Co99 2.128 . S
N109 C110 1.355 . S
N109 C112 1.311 . S
C110 N109 1.355 . S
C110 C111 1.363 . S
C110 H122 0.929 . S
C111 C110 1.363 . S
C111 N113 1.375 . S
C111 H129 0.931 . S
C112 N109 1.311 . S
C112 N113 1.347 . S
C112 H123 0.929 . S
N113 C111 1.375 . S
N113 C112 1.347 . S
C114 C117 1.365 . S
C114 N119 1.328 . S
C114 H120 0.929 . S
C115 C116 1.362 . S
C115 C118 1.378 . S
C115 H130 0.929 . S
C116 C115 1.362 . S
C116 C117 1.366 . S
C117 C114 1.365 . S
C117 C116 1.366 . S
C117 H131 0.930 . S
C118 C115 1.378 . S
C118 N119 1.315 . S
C118 H121 0.930 . S
N119 Co99 2.194 . S
N119 C114 1.328 . S
N119 C118 1.315 . S
H120 C114 0.929 . S
H121 C118 0.930 . S
H122 C110 0.929 . S
H123 C112 0.929 . S
O124 Co99 2.351 . S
O124 C127 1.244 . S
O125 Co99 2.155 . S
O125 C127 1.240 . S
O126 Co99 2.096 . S
O126 C107 1.247 . S
C127 O124 1.244 . S
C127 O125 1.240 . S
H128 C102 0.931 . S
H129 C111 0.931 . S
H130 C115 0.929 . S
H131 C117 0.930 . S
Co132 N136 2.148 1_545 S
Co132 N142 2.128 . S
Co132 N152 2.194 1_455 S
Co132 O157 2.351 1_455 S
Co132 O158 2.155 . S
Co132 O159 2.096 . S
C133 N136 1.301 . S
C133 N137 1.328 . S
C133 H138 0.930 1_455 S
C134 C135 1.333 . S
C134 N136 1.317 . S
C134 H139 0.930 . S
C135 C134 1.333 . S
C135 N137 1.350 . S
C135 H161 0.931 . S
N136 Co132 2.148 1_565 S
N136 C133 1.301 . S
N136 C134 1.317 . S
N137 C133 1.328 . S
N137 C135 1.350 . S
H138 C133 0.930 1_655 S
H139 C134 0.930 . S
C140 O141 1.224 . S
C140 O159 1.247 . S
O141 C140 1.224 . S
N142 Co132 2.128 . S
N142 C143 1.355 1_455 S
N142 C145 1.311 . S
C143 N142 1.355 1_655 S
C143 C144 1.363 . S
C143 H155 0.929 . S
C144 C143 1.363 . S
C144 N146 1.375 1_655 S
C144 H162 0.931 . S
C145 N142 1.311 . S
C145 N146 1.347 . S
C145 H156 0.929 . S
N146 C144 1.375 1_455 S
N146 C145 1.347 . S
C147 C150 1.365 . S
C147 N152 1.328 . S
C147 H153 0.929 . S
C148 C149 1.362 . S
C148 C151 1.378 . S
C148 H163 0.929 . S
C149 C148 1.362 . S
C149 C150 1.366 . S
C150 C147 1.365 . S
C150 C149 1.366 . S
C150 H164 0.930 . S
C151 C148 1.378 . S
C151 N152 1.315 . S
C151 H154 0.930 . S
N152 Co132 2.194 1_655 S
N152 C147 1.328 . S
N152 C151 1.315 . S
H153 C147 0.929 . S
H154 C151 0.930 . S
H155 C143 0.929 . S
H156 C145 0.929 . S
O157 Co132 2.351 1_655 S
O157 C160 1.244 1_655 S
O158 Co132 2.155 . S
O158 C160 1.240 . S
O159 Co132 2.096 . S
O159 C140 1.247 . S
C160 O157 1.244 1_455 S
C160 O158 1.240 . S
H161 C135 0.931 . S
H162 C144 0.931 . S
H163 C148 0.929 . S
H164 C150 0.930 . S
Co165 N169 2.148 . S
Co165 N175 2.128 . S
Co165 N185 2.194 . S
Co165 O190 2.351 . S
Co165 O191 2.155 . S
Co165 O192 2.096 . S
C166 N169 1.301 . S
C166 N170 1.328 . S
C166 H171 0.930 . S
C167 C168 1.333 . S
C167 N169 1.317 . S
C167 H172 0.930 . S
C168 C167 1.333 . S
C168 N170 1.350 . S
C168 H194 0.931 . S
N169 Co165 2.148 . S
N169 C166 1.301 . S
N169 C167 1.317 . S
N170 C166 1.328 . S
N170 C168 1.350 . S
H171 C166 0.930 . S
H172 C167 0.930 . S
C173 O174 1.224 . S
C173 O192 1.247 . S
O174 C173 1.224 . S
N175 Co165 2.128 . S
N175 C176 1.355 . S
N175 C178 1.311 . S
C176 N175 1.355 . S
C176 C177 1.363 . S
C176 H188 0.929 . S
C177 C176 1.363 . S
C177 N179 1.375 . S
C177 H195 0.931 . S
C178 N175 1.311 . S
C178 N179 1.347 . S
C178 H189 0.929 . S
N179 C177 1.375 . S
N179 C178 1.347 . S
C180 C183 1.365 . S
C180 N185 1.328 . S
C180 H186 0.929 . S
C181 C182 1.362 . S
C181 C184 1.378 . S
C181 H196 0.929 . S
C182 C181 1.362 . S
C182 C183 1.366 . S
C183 C180 1.365 . S
C183 C182 1.366 . S
C183 H197 0.930 . S
C184 C181 1.378 . S
C184 N185 1.315 . S
C184 H187 0.930 . S
N185 Co165 2.194 . S
N185 C180 1.328 . S
N185 C184 1.315 . S
H186 C180 0.929 . S
H187 C184 0.930 . S
H188 C176 0.929 . S
H189 C178 0.929 . S
O190 Co165 2.351 . S
O190 C193 1.244 . S
O191 Co165 2.155 . S
O191 C193 1.240 . S
O192 Co165 2.096 . S
O192 C173 1.247 . S
C193 O190 1.244 . S
C193 O191 1.240 . S
H194 C168 0.931 . S
H195 C177 0.931 . S
H196 C181 0.929 . S
H197 C183 0.930 . S
Co198 N202 2.148 . S
Co198 N208 2.128 1_545 S
Co198 N218 2.194 . S
Co198 O223 2.351 . S
Co198 O224 2.155 . S
Co198 O225 2.096 . S
C199 N202 1.301 . S
C199 N203 1.328 . S
C199 H204 0.930 . S
C200 C201 1.333 . S
C200 N202 1.317 . S
C200 H205 0.930 . S
C201 C200 1.333 . S
C201 N203 1.350 . S
C201 H227 0.931 . S
N202 Co198 2.148 . S
N202 C199 1.301 . S
N202 C200 1.317 . S
N203 C199 1.328 . S
N203 C201 1.350 . S
H204 C199 0.930 . S
H205 C200 0.930 . S
C206 O207 1.224 . S
C206 O225 1.247 . S
O207 C206 1.224 . S
N208 Co198 2.128 1_565 S
N208 C209 1.355 . S
N208 C211 1.311 . S
C209 N208 1.355 . S
C209 C210 1.363 . S
C209 H221 0.929 . S
C210 C209 1.363 . S
C210 N212 1.375 . S
C210 H228 0.931 . S
C211 N208 1.311 . S
C211 N212 1.347 . S
C211 H222 0.929 . S
N212 C210 1.375 . S
N212 C211 1.347 . S
C213 C216 1.365 . S
C213 N218 1.328 . S
C213 H219 0.929 . S
C214 C215 1.362 . S
C214 C217 1.378 . S
C214 H229 0.929 . S
C215 C214 1.362 . S
C215 C216 1.366 . S
C216 C213 1.365 . S
C216 C215 1.366 . S
C216 H230 0.930 . S
C217 C214 1.378 . S
C217 N218 1.315 . S
C217 H220 0.930 . S
N218 Co198 2.194 . S
N218 C213 1.328 . S
N218 C217 1.315 . S
H219 C213 0.929 . S
H220 C217 0.930 . S
H221 C209 0.929 . S
H222 C211 0.929 . S
O223 Co198 2.351 . S
O223 C226 1.244 . S
O224 Co198 2.155 . S
O224 C226 1.240 . S
O225 Co198 2.096 . S
O225 C206 1.247 . S
C226 O223 1.244 . S
C226 O224 1.240 . S
H227 C201 0.931 . S
H228 C210 0.931 . S
H229 C214 0.929 . S
H230 C216 0.930 . S
Co231 N235 2.148 . S
Co231 N241 2.128 . S
Co231 N251 2.194 . S
Co231 O256 2.351 . S
Co231 O257 2.155 . S
Co231 O258 2.096 . S
C232 N235 1.301 . S
C232 N236 1.328 . S
C232 H237 0.930 . S
C233 C234 1.333 . S
C233 N235 1.317 . S
C233 H238 0.930 . S
C234 C233 1.333 . S
C234 N236 1.350 . S
C234 H260 0.931 . S
N235 Co231 2.148 . S
N235 C232 1.301 . S
N235 C233 1.317 . S
N236 C232 1.328 . S
N236 C234 1.350 . S
H237 C232 0.930 . S
H238 C233 0.930 . S
C239 O240 1.224 . S
C239 O258 1.247 . S
O240 C239 1.224 . S
N241 Co231 2.128 . S
N241 C242 1.355 . S
N241 C244 1.311 . S
C242 N241 1.355 . S
C242 C243 1.363 . S
C242 H254 0.929 . S
C243 C242 1.363 . S
C243 N245 1.375 . S
C243 H261 0.931 . S
C244 N241 1.311 . S
C244 N245 1.347 . S
C244 H255 0.929 . S
N245 C243 1.375 . S
N245 C244 1.347 . S
C246 C249 1.365 . S
C246 N251 1.328 . S
C246 H252 0.929 . S
C247 C248 1.362 . S
C247 C250 1.378 . S
C247 H262 0.929 . S
C248 C247 1.362 . S
C248 C249 1.366 . S
C249 C246 1.365 . S
C249 C248 1.366 . S
C249 H263 0.930 . S
C250 C247 1.378 . S
C250 N251 1.315 . S
C250 H253 0.930 . S
N251 Co231 2.194 . S
N251 C246 1.328 . S
N251 C250 1.315 . S
H252 C246 0.929 . S
H253 C250 0.930 . S
H254 C242 0.929 . S
H255 C244 0.929 . S
O256 Co231 2.351 . S
O256 C259 1.244 . S
O257 Co231 2.155 . S
O257 C259 1.240 . S
O258 Co231 2.096 . S
O258 C239 1.247 . S
C259 O256 1.244 . S
C259 O257 1.240 . S
H260 C234 0.931 . S
H261 C243 0.931 . S
H262 C247 0.929 . S
H263 C249 0.930 . S
Co264 N268 2.148 . S
Co264 N274 2.128 . S
Co264 N284 2.194 . S
Co264 O289 2.351 . S
Co264 O290 2.155 . S
Co264 O291 2.096 . S
C265 N268 1.301 . S
C265 N269 1.328 . S
C265 H270 0.930 . S
C266 C267 1.333 . S
C266 N268 1.317 . S
C266 H271 0.930 . S
C267 C266 1.333 . S
C267 N269 1.350 . S
C267 H293 0.931 . S
N268 Co264 2.148 . S
N268 C265 1.301 . S
N268 C266 1.317 . S
N269 C265 1.328 . S
N269 C267 1.350 . S
H270 C265 0.930 . S
H271 C266 0.930 . S
C272 O273 1.224 . S
C272 O291 1.247 . S
O273 C272 1.224 . S
N274 Co264 2.128 . S
N274 C275 1.355 . S
N274 C277 1.311 . S
C275 N274 1.355 . S
C275 C276 1.363 . S
C275 H287 0.929 . S
C276 C275 1.363 . S
C276 N278 1.375 . S
C276 H294 0.931 . S
C277 N274 1.311 . S
C277 N278 1.347 . S
C277 H288 0.929 . S
N278 C276 1.375 . S
N278 C277 1.347 . S
C279 C282 1.365 . S
C279 N284 1.328 . S
C279 H285 0.929 . S
C280 C281 1.362 . S
C280 C283 1.378 . S
C280 H295 0.929 . S
C281 C280 1.362 . S
C281 C282 1.366 . S
C282 C279 1.365 . S
C282 C281 1.366 . S
C282 H296 0.930 . S
C283 C280 1.378 . S
C283 N284 1.315 . S
C283 H286 0.930 . S
N284 Co264 2.194 . S
N284 C279 1.328 . S
N284 C283 1.315 . S
H285 C279 0.929 . S
H286 C283 0.930 . S
H287 C275 0.929 . S
H288 C277 0.929 . S
O289 Co264 2.351 . S
O289 C292 1.244 . S
O290 Co264 2.155 . S
O290 C292 1.240 . S
O291 Co264 2.096 . S
O291 C272 1.247 . S
C292 O289 1.244 . S
C292 O290 1.240 . S
H293 C267 0.931 . S
H294 C276 0.931 . S
H295 C280 0.929 . S
H296 C282 0.930 . S
Co297 N301 2.148 . S
Co297 N307 2.128 . S
Co297 N317 2.194 . S
Co297 O322 2.351 . S
Co297 O323 2.155 . S
Co297 O324 2.096 . S
C298 N301 1.301 . S
C298 N302 1.328 . S
C298 H303 0.930 . S
C299 C300 1.333 . S
C299 N301 1.317 . S
C299 H304 0.930 . S
C300 C299 1.333 . S
C300 N302 1.350 . S
C300 H326 0.931 . S
N301 Co297 2.148 . S
N301 C298 1.301 . S
N301 C299 1.317 . S
N302 C298 1.328 . S
N302 C300 1.350 . S
H303 C298 0.930 . S
H304 C299 0.930 . S
C305 O306 1.224 . S
C305 O324 1.247 . S
O306 C305 1.224 . S
N307 Co297 2.128 . S
N307 C308 1.355 . S
N307 C310 1.311 . S
C308 N307 1.355 . S
C308 C309 1.363 . S
C308 H320 0.929 . S
C309 C308 1.363 . S
C309 N311 1.375 . S
C309 H327 0.931 . S
C310 N307 1.311 . S
C310 N311 1.347 . S
C310 H321 0.929 . S
N311 C309 1.375 . S
N311 C310 1.347 . S
C312 C315 1.365 . S
C312 N317 1.328 . S
C312 H318 0.929 . S
C313 C314 1.362 . S
C313 C316 1.378 . S
C313 H328 0.929 . S
C314 C313 1.362 . S
C314 C315 1.366 . S
C315 C312 1.365 . S
C315 C314 1.366 . S
C315 H329 0.930 . S
C316 C313 1.378 . S
C316 N317 1.315 . S
C316 H319 0.930 . S
N317 Co297 2.194 . S
N317 C312 1.328 . S
N317 C316 1.315 . S
H318 C312 0.929 . S
H319 C316 0.930 . S
H320 C308 0.929 . S
H321 C310 0.929 . S
O322 Co297 2.351 . S
O322 C325 1.244 . S
O323 Co297 2.155 . S
O323 C325 1.240 . S
O324 Co297 2.096 . S
O324 C305 1.247 . S
C325 O322 1.244 . S
C325 O323 1.240 . S
H326 C300 0.931 . S
H327 C309 0.931 . S
H328 C313 0.929 . S
H329 C315 0.930 . S
Co330 N334 2.148 . S
Co330 N340 2.128 . S
Co330 N350 2.194 . S
Co330 O355 2.351 . S
Co330 O356 2.155 . S
Co330 O357 2.096 . S
C331 N334 1.301 . S
C331 N335 1.328 . S
C331 H336 0.930 . S
C332 C333 1.333 . S
C332 N334 1.317 . S
C332 H337 0.930 . S
C333 C332 1.333 . S
C333 N335 1.350 . S
C333 H359 0.931 . S
N334 Co330 2.148 . S
N334 C331 1.301 . S
N334 C332 1.317 . S
N335 C331 1.328 . S
N335 C333 1.350 . S
H336 C331 0.930 . S
H337 C332 0.930 . S
C338 O339 1.224 . S
C338 O357 1.247 . S
O339 C338 1.224 . S
N340 Co330 2.128 . S
N340 C341 1.355 . S
N340 C343 1.311 . S
C341 N340 1.355 . S
C341 C342 1.363 . S
C341 H353 0.929 . S
C342 C341 1.363 . S
C342 N344 1.375 . S
C342 H360 0.931 . S
C343 N340 1.311 . S
C343 N344 1.347 . S
C343 H354 0.929 . S
N344 C342 1.375 . S
N344 C343 1.347 . S
C345 C348 1.365 . S
C345 N350 1.328 . S
C345 H351 0.929 . S
C346 C347 1.362 . S
C346 C349 1.378 . S
C346 H361 0.929 . S
C347 C346 1.362 . S
C347 C348 1.366 . S
C348 C345 1.365 . S
C348 C347 1.366 . S
C348 H362 0.930 . S
C349 C346 1.378 . S
C349 N350 1.315 . S
C349 H352 0.930 . S
N350 Co330 2.194 . S
N350 C345 1.328 . S
N350 C349 1.315 . S
H351 C345 0.929 . S
H352 C349 0.930 . S
H353 C341 0.929 . S
H354 C343 0.929 . S
O355 Co330 2.351 . S
O355 C358 1.244 . S
O356 Co330 2.155 . S
O356 C358 1.240 . S
O357 Co330 2.096 . S
O357 C338 1.247 . S
C358 O355 1.244 . S
C358 O356 1.240 . S
H359 C333 0.931 . S
H360 C342 0.931 . S
H361 C346 0.929 . S
H362 C348 0.930 . S
Co363 N367 2.148 . S
Co363 N373 2.128 . S
Co363 N383 2.194 . S
Co363 O388 2.351 . S
Co363 O389 2.155 . S
Co363 O390 2.096 . S
C364 N367 1.301 . S
C364 N368 1.328 . S
C364 H369 0.930 . S
C365 C366 1.333 . S
C365 N367 1.317 . S
C365 H370 0.930 . S
C366 C365 1.333 . S
C366 N368 1.350 . S
C366 H392 0.931 . S
N367 Co363 2.148 . S
N367 C364 1.301 . S
N367 C365 1.317 . S
N368 C364 1.328 . S
N368 C366 1.350 . S
H369 C364 0.930 . S
H370 C365 0.930 . S
C371 O372 1.224 . S
C371 O390 1.247 . S
O372 C371 1.224 . S
N373 Co363 2.128 . S
N373 C374 1.355 . S
N373 C376 1.311 . S
C374 N373 1.355 . S
C374 C375 1.363 . S
C374 H386 0.929 . S
C375 C374 1.363 . S
C375 N377 1.375 . S
C375 H393 0.931 . S
C376 N373 1.311 . S
C376 N377 1.347 . S
C376 H387 0.929 . S
N377 C375 1.375 . S
N377 C376 1.347 . S
C378 C381 1.365 . S
C378 N383 1.328 . S
C378 H384 0.929 . S
C379 C380 1.362 . S
C379 C382 1.378 . S
C379 H394 0.929 . S
C380 C379 1.362 . S
C380 C381 1.366 . S
C381 C378 1.365 . S
C381 C380 1.366 . S
C381 H395 0.930 . S
C382 C379 1.378 . S
C382 N383 1.315 . S
C382 H385 0.930 . S
N383 Co363 2.194 . S
N383 C378 1.328 . S
N383 C382 1.315 . S
H384 C378 0.929 . S
H385 C382 0.930 . S
H386 C374 0.929 . S
H387 C376 0.929 . S
O388 Co363 2.351 . S
O388 C391 1.244 . S
O389 Co363 2.155 . S
O389 C391 1.240 . S
O390 Co363 2.096 . S
O390 C371 1.247 . S
C391 O388 1.244 . S
C391 O389 1.240 . S
H392 C366 0.931 . S
H393 C375 0.931 . S
H394 C379 0.929 . S
H395 C381 0.930 . S
Co396 N400 2.148 . S
Co396 N406 2.128 . S
Co396 N416 2.194 . S
Co396 O421 2.351 . S
Co396 O422 2.155 . S
Co396 O423 2.096 . S
C397 N400 1.301 . S
C397 N401 1.328 . S
C397 H402 0.930 . S
C398 C399 1.333 . S
C398 N400 1.317 . S
C398 H403 0.930 . S
C399 C398 1.333 . S
C399 N401 1.350 . S
C399 H425 0.931 . S
N400 Co396 2.148 . S
N400 C397 1.301 . S
N400 C398 1.317 . S
N401 C397 1.328 . S
N401 C399 1.350 . S
H402 C397 0.930 . S
H403 C398 0.930 . S
C404 O405 1.224 . S
C404 O423 1.247 . S
O405 C404 1.224 . S
N406 Co396 2.128 . S
N406 C407 1.355 . S
N406 C409 1.311 . S
C407 N406 1.355 . S
C407 C408 1.363 . S
C407 H419 0.929 . S
C408 C407 1.363 . S
C408 N410 1.375 . S
C408 H426 0.931 . S
C409 N406 1.311 . S
C409 N410 1.347 . S
C409 H420 0.929 . S
N410 C408 1.375 . S
N410 C409 1.347 . S
C411 C414 1.365 . S
C411 N416 1.328 . S
C411 H417 0.929 . S
C412 C413 1.362 . S
C412 C415 1.378 . S
C412 H427 0.929 . S
C413 C412 1.362 . S
C413 C414 1.366 . S
C414 C411 1.365 . S
C414 C413 1.366 . S
C414 H428 0.930 . S
C415 C412 1.378 . S
C415 N416 1.315 . S
C415 H418 0.930 . S
N416 Co396 2.194 . S
N416 C411 1.328 . S
N416 C415 1.315 . S
H417 C411 0.929 . S
H418 C415 0.930 . S
H419 C407 0.929 . S
H420 C409 0.929 . S
O421 Co396 2.351 . S
O421 C424 1.244 . S
O422 Co396 2.155 . S
O422 C424 1.240 . S
O423 Co396 2.096 . S
O423 C404 1.247 . S
C424 O421 1.244 . S
C424 O422 1.240 . S
H425 C399 0.931 . S
H426 C408 0.931 . S
H427 C412 0.929 . S
H428 C414 0.930 . S
Co429 N433 2.148 . S
Co429 N439 2.128 . S
Co429 N449 2.194 . S
Co429 O454 2.351 . S
Co429 O455 2.155 1_455 S
Co429 O456 2.096 1_455 S
C430 N433 1.301 . S
C430 N434 1.328 . S
C430 H435 0.930 . S
C431 C432 1.333 . S
C431 N433 1.317 1_655 S
C431 H436 0.930 . S
C432 C431 1.333 . S
C432 N434 1.350 1_655 S
C432 H458 0.931 . S
N433 Co429 2.148 . S
N433 C430 1.301 . S
N433 C431 1.317 1_455 S
N434 C430 1.328 . S
N434 C432 1.350 1_455 S
H435 C430 0.930 . S
H436 C431 0.930 . S
C437 O438 1.224 . S
C437 O456 1.247 . S
O438 C437 1.224 . S
N439 Co429 2.128 . S
N439 C440 1.355 . S
N439 C442 1.311 . S
C440 N439 1.355 . S
C440 C441 1.363 . S
C440 H452 0.929 . S
C441 C440 1.363 . S
C441 N443 1.375 . S
C441 H459 0.931 . S
C442 N439 1.311 . S
C442 N443 1.347 . S
C442 H453 0.929 1_455 S
N443 C441 1.375 . S
N443 C442 1.347 . S
C444 C447 1.365 . S
C444 N449 1.328 . S
C444 H450 0.929 . S
C445 C446 1.362 . S
C445 C448 1.378 . S
C445 H460 0.929 . S
C446 C445 1.362 . S
C446 C447 1.366 . S
C447 C444 1.365 . S
C447 C446 1.366 . S
C447 H461 0.930 . S
C448 C445 1.378 . S
C448 N449 1.315 . S
C448 H451 0.930 . S
N449 Co429 2.194 . S
N449 C444 1.328 . S
N449 C448 1.315 . S
H450 C444 0.929 . S
H451 C448 0.930 . S
H452 C440 0.929 . S
H453 C442 0.929 1_655 S
O454 Co429 2.351 . S
O454 C457 1.244 . S
O455 Co429 2.155 1_655 S
O455 C457 1.240 1_655 S
O456 Co429 2.096 1_655 S
O456 C437 1.247 . S
C457 O454 1.244 . S
C457 O455 1.240 1_455 S
H458 C432 0.931 . S
H459 C441 0.931 . S
H460 C445 0.929 . S
H461 C447 0.930 . S
Co462 N466 2.148 . S
Co462 N472 2.128 . S
Co462 N482 2.194 . S
Co462 O487 2.351 . S
Co462 O488 2.155 . S
Co462 O489 2.096 . S
C463 N466 1.301 . S
C463 N467 1.328 . S
C463 H468 0.930 . S
C464 C465 1.333 . S
C464 N466 1.317 . S
C464 H469 0.930 . S
C465 C464 1.333 . S
C465 N467 1.350 . S
C465 H491 0.931 . S
N466 Co462 2.148 . S
N466 C463 1.301 . S
N466 C464 1.317 . S
N467 C463 1.328 . S
N467 C465 1.350 . S
H468 C463 0.930 . S
H469 C464 0.930 . S
C470 O471 1.224 . S
C470 O489 1.247 . S
O471 C470 1.224 . S
N472 Co462 2.128 . S
N472 C473 1.355 . S
N472 C475 1.311 . S
C473 N472 1.355 . S
C473 C474 1.363 . S
C473 H485 0.929 . S
C474 C473 1.363 . S
C474 N476 1.375 . S
C474 H492 0.931 . S
C475 N472 1.311 . S
C475 N476 1.347 . S
C475 H486 0.929 . S
N476 C474 1.375 . S
N476 C475 1.347 . S
C477 C480 1.365 . S
C477 N482 1.328 . S
C477 H483 0.929 . S
C478 C479 1.362 . S
C478 C481 1.378 . S
C478 H493 0.929 . S
C479 C478 1.362 . S
C479 C480 1.366 . S
C480 C477 1.365 . S
C480 C479 1.366 . S
C480 H494 0.930 . S
C481 C478 1.378 . S
C481 N482 1.315 . S
C481 H484 0.930 . S
N482 Co462 2.194 . S
N482 C477 1.328 . S
N482 C481 1.315 . S
H483 C477 0.929 . S
H484 C481 0.930 . S
H485 C473 0.929 . S
H486 C475 0.929 . S
O487 Co462 2.351 . S
O487 C490 1.244 . S
O488 Co462 2.155 . S
O488 C490 1.240 . S
O489 Co462 2.096 . S
O489 C470 1.247 . S
C490 O487 1.244 . S
C490 O488 1.240 . S
H491 C465 0.931 . S
H492 C474 0.931 . S
H493 C478 0.929 . S
H494 C480 0.930 . S
Co495 N499 2.148 . S
Co495 N505 2.128 . S
Co495 N515 2.194 . S
Co495 O520 2.351 . S
Co495 O521 2.155 1_455 S
Co495 O522 2.096 1_455 S
C496 N499 1.301 . S
C496 N500 1.328 . S
C496 H501 0.930 . S
C497 C498 1.333 . S
C497 N499 1.317 1_655 S
C497 H502 0.930 . S
C498 C497 1.333 . S
C498 N500 1.350 1_655 S
C498 H524 0.931 . S
N499 Co495 2.148 . S
N499 C496 1.301 . S
N499 C497 1.317 1_455 S
N500 C496 1.328 . S
N500 C498 1.350 1_455 S
H501 C496 0.930 . S
H502 C497 0.930 . S
C503 O504 1.224 . S
C503 O522 1.247 . S
O504 C503 1.224 . S
N505 Co495 2.128 . S
N505 C506 1.355 . S
N505 C508 1.311 . S
C506 N505 1.355 . S
C506 C507 1.363 . S
C506 H518 0.929 . S
C507 C506 1.363 . S
C507 N509 1.375 . S
C507 H525 0.931 . S
C508 N505 1.311 . S
C508 N509 1.347 . S
C508 H519 0.929 1_455 S
N509 C507 1.375 . S
N509 C508 1.347 . S
C510 C513 1.365 . S
C510 N515 1.328 . S
C510 H516 0.929 . S
C511 C512 1.362 . S
C511 C514 1.378 . S
C511 H526 0.929 . S
C512 C511 1.362 . S
C512 C513 1.366 . S
C513 C510 1.365 . S
C513 C512 1.366 . S
C513 H527 0.930 . S
C514 C511 1.378 . S
C514 N515 1.315 . S
C514 H517 0.930 . S
N515 Co495 2.194 . S
N515 C510 1.328 . S
N515 C514 1.315 . S
H516 C510 0.929 . S
H517 C514 0.930 . S
H518 C506 0.929 . S
H519 C508 0.929 1_655 S
O520 Co495 2.351 . S
O520 C523 1.244 . S
O521 Co495 2.155 1_655 S
O521 C523 1.240 1_655 S
O522 Co495 2.096 1_655 S
O522 C503 1.247 . S
C523 O520 1.244 . S
C523 O521 1.240 1_455 S
H524 C498 0.931 . S
H525 C507 0.931 . S
H526 C511 0.929 . S
H527 C513 0.930 . S
C528 C529 1.391 1_655 S
C528 C530 1.394 . S
C528 H544 0.931 . S
C529 C528 1.391 1_455 S
C529 C533 1.376 . S
C530 C528 1.394 . S
C530 C531 1.369 1_655 S
C530 C534 1.531 . S
C531 C530 1.369 1_455 S
C531 C532 1.410 . S
C531 C539 1.503 . S
C532 C531 1.410 . S
C532 C533 1.392 . S
C532 C535 1.511 . S
C533 C529 1.376 . S
C533 C532 1.392 . S
C533 H545 0.929 . S
C534 C530 1.531 . S
C534 H546 0.960 . S
C534 H547 0.962 . S
C534 H548 0.960 . S
C535 C532 1.511 . S
C535 H549 0.961 . S
C535 H550 0.961 . S
C535 H551 0.961 . S
C536 C537 1.370 . S
C536 C538 1.363 . S
C536 H552 0.931 . S
C537 C536 1.370 . S
C537 C541 1.408 . S
C538 C536 1.363 . S
C538 C539 1.370 . S
C538 C542 1.524 . S
C539 C531 1.503 . S
C539 C538 1.370 . S
C539 C540 1.403 . S
C540 C539 1.403 . S
C540 C541 1.404 . S
C540 C543 1.544 . S
C541 C537 1.408 . S
C541 C540 1.404 . S
C541 H553 0.930 . S
C542 C538 1.524 . S
C542 H554 0.956 . S
C542 H555 0.961 . S
C542 H556 0.961 . S
C543 C540 1.544 . S
C543 H557 0.934 1_455 S
C543 H558 0.970 . S
C543 H559 0.971 . S
H544 C528 0.931 . S
H545 C533 0.929 . S
H546 C534 0.960 . S
H547 C534 0.962 . S
H548 C534 0.960 . S
H549 C535 0.961 . S
H550 C535 0.961 . S
H551 C535 0.961 . S
H552 C536 0.931 . S
H553 C541 0.930 . S
H554 C542 0.956 . S
H555 C542 0.961 . S
H556 C542 0.961 . S
H557 C543 0.934 1_655 S
H558 C543 0.970 . S
H559 C543 0.971 . S
C560 C561 1.391 . S
C560 C562 1.394 . S
C560 H576 0.931 . S
C561 C560 1.391 . S
C561 C565 1.376 . S
C562 C560 1.394 . S
C562 C563 1.369 . S
C562 C566 1.531 . S
C563 C562 1.369 . S
C563 C564 1.410 . S
C563 C571 1.496 1_455 S
C564 C563 1.410 . S
C564 C565 1.392 . S
C564 C567 1.511 . S
C565 C561 1.376 . S
C565 C564 1.392 . S
C565 H577 0.929 . S
C566 C562 1.531 . S
C566 H578 0.960 . S
C566 H579 0.962 . S
C566 H580 0.960 . S
C567 C564 1.511 . S
C567 H581 0.961 . S
C567 H582 0.961 . S
C567 H583 0.961 . S
C568 C569 1.370 . S
C568 C570 1.363 . S
C568 H584 0.931 . S
C569 C568 1.370 . S
C569 C573 1.408 . S
C570 C568 1.363 . S
C570 C571 1.374 . S
C570 C574 1.524 1_655 S
C571 C563 1.496 1_655 S
C571 C570 1.374 . S
C571 C572 1.406 . S
C572 C571 1.406 . S
C572 C573 1.404 . S
C572 C575 1.539 . S
C573 C569 1.408 . S
C573 C572 1.404 . S
C573 H585 0.930 . S
C574 C570 1.524 1_455 S
C574 H586 0.956 . S
C574 H587 0.961 . S
C574 H588 0.961 1_455 S
C575 C572 1.539 . S
C575 H589 0.955 1_655 S
C575 H590 0.961 . S
C575 H591 0.960 1_655 S
H576 C560 0.931 . S
H577 C565 0.929 . S
H578 C566 0.960 . S
H579 C566 0.962 . S
H580 C566 0.960 . S
H581 C567 0.961 . S
H582 C567 0.961 . S
H583 C567 0.961 . S
H584 C568 0.931 . S
H585 C573 0.930 . S
H586 C574 0.956 . S
H587 C574 0.961 . S
H588 C574 0.961 1_655 S
H589 C575 0.955 1_455 S
H590 C575 0.961 . S
H591 C575 0.960 1_455 S
C592 C593 1.391 . S
C592 C594 1.394 . S
C592 H608 0.931 . S
C593 C592 1.391 . S
C593 C597 1.376 . S
C594 C592 1.394 . S
C594 C595 1.369 . S
C594 C598 1.531 . S
C595 C594 1.369 . S
C595 C596 1.410 . S
C595 C603 1.503 . S
C596 C595 1.410 . S
C596 C597 1.392 . S
C596 C599 1.511 . S
C597 C593 1.376 . S
C597 C596 1.392 . S
C597 H609 0.929 . S
C598 C594 1.531 . S
C598 H610 0.960 . S
C598 H611 0.962 . S
C598 H612 0.960 . S
C599 C596 1.511 . S
C599 H613 0.961 . S
C599 H614 0.961 . S
C599 H615 0.961 . S
C600 C601 1.370 . S
C600 C602 1.363 . S
C600 H616 0.931 . S
C601 C600 1.370 . S
C601 C605 1.408 . S
C602 C600 1.363 . S
C602 C603 1.370 . S
C602 C606 1.524 . S
C603 C595 1.503 . S
C603 C602 1.370 . S
C603 C604 1.403 . S
C604 C603 1.403 . S
C604 C605 1.404 . S
C604 C607 1.539 . S
C605 C601 1.408 . S
C605 C604 1.404 . S
C605 H617 0.930 . S
C606 C602 1.524 . S
C606 H618 0.956 . S
C606 H619 0.961 . S
C606 H620 0.961 . S
C607 C604 1.539 . S
C607 H621 0.958 . S
C607 H622 0.961 . S
C607 H623 0.960 . S
H608 C592 0.931 . S
H609 C597 0.929 . S
H610 C598 0.960 . S
H611 C598 0.962 . S
H612 C598 0.960 . S
H613 C599 0.961 . S
H614 C599 0.961 . S
H615 C599 0.961 . S
H616 C600 0.931 . S
H617 C605 0.930 . S
H618 C606 0.956 . S
H619 C606 0.961 . S
H620 C606 0.961 . S
H621 C607 0.958 . S
H622 C607 0.961 . S
H623 C607 0.960 . S
C624 C625 1.391 . S
C624 C626 1.394 . S
C624 H640 0.931 . S
C625 C624 1.391 . S
C625 C629 1.376 . S
C626 C624 1.394 . S
C626 C627 1.369 . S
C626 C630 1.531 . S
C627 C626 1.369 . S
C627 C628 1.410 . S
C627 C635 1.503 . S
C628 C627 1.410 . S
C628 C629 1.392 . S
C628 C631 1.511 . S
C629 C625 1.376 . S
C629 C628 1.392 . S
C629 H641 0.929 . S
C630 C626 1.531 . S
C630 H642 0.960 . S
C630 H643 0.962 . S
C630 H644 0.960 . S
C631 C628 1.511 . S
C631 H645 0.961 . S
C631 H646 0.961 . S
C631 H647 0.961 . S
C632 C633 1.370 . S
C632 C634 1.363 . S
C632 H648 0.931 . S
C633 C632 1.370 . S
C633 C637 1.408 . S
C634 C632 1.363 . S
C634 C635 1.370 . S
C634 C638 1.524 . S
C635 C627 1.503 . S
C635 C634 1.370 . S
C635 C636 1.403 . S
C636 C635 1.403 . S
C636 C637 1.404 . S
C636 C639 1.539 . S
C637 C633 1.408 . S
C637 C636 1.404 . S
C637 H649 0.930 . S
C638 C634 1.524 . S
C638 H650 0.956 . S
C638 H651 0.961 . S
C638 H652 0.961 . S
C639 C636 1.539 . S
C639 H653 0.958 . S
C639 H654 0.961 . S
C639 H655 0.960 . S
H640 C624 0.931 . S
H641 C629 0.929 . S
H642 C630 0.960 . S
H643 C630 0.962 . S
H644 C630 0.960 . S
H645 C631 0.961 . S
H646 C631 0.961 . S
H647 C631 0.961 . S
H648 C632 0.931 . S
H649 C637 0.930 . S
H650 C638 0.956 . S
H651 C638 0.961 . S
H652 C638 0.961 . S
H653 C639 0.958 . S
H654 C639 0.961 . S
H655 C639 0.960 . S
C656 C657 1.391 . S
C656 C658 1.394 . S
C656 H672 0.931 . S
C657 C656 1.391 . S
C657 C661 1.376 1_455 S
C658 C656 1.394 . S
C658 C659 1.369 . S
C658 C662 1.531 . S
C659 C658 1.369 . S
C659 C660 1.410 1_455 S
C659 C667 1.503 . S
C660 C659 1.410 1_655 S
C660 C661 1.392 . S
C660 C663 1.511 . S
C661 C657 1.376 1_655 S
C661 C660 1.392 . S
C661 H673 0.929 . S
C662 C658 1.531 . S
C662 H674 0.960 . S
C662 H675 0.962 . S
C662 H676 0.960 . S
C663 C660 1.511 . S
C663 H677 0.961 . S
C663 H678 0.961 . S
C663 H679 0.961 . S
C664 C665 1.370 . S
C664 C666 1.363 . S
C664 H680 0.931 . S
C665 C664 1.370 . S
C665 C669 1.408 . S
C666 C664 1.363 . S
C666 C667 1.370 . S
C666 C670 1.524 . S
C667 C659 1.503 . S
C667 C666 1.370 . S
C667 C668 1.403 . S
C668 C667 1.403 . S
C668 C669 1.404 . S
C668 C671 1.539 1_455 S
C669 C665 1.408 . S
C669 C668 1.404 . S
C669 H681 0.930 1_455 S
C670 C666 1.524 . S
C670 H682 0.956 . S
C670 H683 0.961 . S
C670 H684 0.961 . S
C671 C668 1.539 1_655 S
C671 H685 0.958 1_655 S
C671 H686 0.961 . S
C671 H687 0.960 . S
H672 C656 0.931 . S
H673 C661 0.929 . S
H674 C662 0.960 . S
H675 C662 0.962 . S
H676 C662 0.960 . S
H677 C663 0.961 . S
H678 C663 0.961 . S
H679 C663 0.961 . S
H680 C664 0.931 . S
H681 C669 0.930 1_655 S
H682 C670 0.956 . S
H683 C670 0.961 . S
H684 C670 0.961 . S
H685 C671 0.958 1_455 S
H686 C671 0.961 . S
H687 C671 0.960 . S
C688 C689 1.391 . S
C688 C690 1.394 . S
C688 H704 0.931 . S
C689 C688 1.391 . S
C689 C693 1.376 . S
C690 C688 1.394 . S
C690 C691 1.369 . S
C690 C694 1.531 . S
C691 C690 1.369 . S
C691 C692 1.410 . S
C691 C699 1.503 . S
C692 C691 1.410 . S
C692 C693 1.392 . S
C692 C695 1.511 . S
C693 C689 1.376 . S
C693 C692 1.392 . S
C693 H705 0.929 . S
C694 C690 1.531 . S
C694 H706 0.960 . S
C694 H707 0.962 . S
C694 H708 0.960 . S
C695 C692 1.511 . S
C695 H709 0.961 . S
C695 H710 0.961 . S
C695 H711 0.961 . S
C696 C697 1.370 . S
C696 C698 1.363 . S
C696 H712 0.931 . S
C697 C696 1.370 . S
C697 C701 1.408 . S
C698 C696 1.363 . S
C698 C699 1.370 . S
C698 C702 1.524 . S
C699 C691 1.503 . S
C699 C698 1.370 . S
C699 C700 1.403 . S
C700 C699 1.403 . S
C700 C701 1.404 . S
C700 C703 1.539 . S
C701 C697 1.408 . S
C701 C700 1.404 . S
C701 H713 0.930 . S
C702 C698 1.524 . S
C702 H714 0.956 . S
C702 H715 0.961 . S
C702 H716 0.961 . S
C703 C700 1.539 . S
C703 H717 0.958 . S
C703 H718 0.961 . S
C703 H719 0.960 . S
H704 C688 0.931 . S
H705 C693 0.929 . S
H706 C694 0.960 . S
H707 C694 0.962 . S
H708 C694 0.960 . S
H709 C695 0.961 . S
H710 C695 0.961 . S
H711 C695 0.961 . S
H712 C696 0.931 . S
H713 C701 0.930 . S
H714 C702 0.956 . S
H715 C702 0.961 . S
H716 C702 0.961 . S
H717 C703 0.958 . S
H718 C703 0.961 . S
H719 C703 0.960 . S
C720 C721 1.391 . S
C720 C722 1.394 . S
C720 H736 0.931 . S
C721 C720 1.391 . S
C721 C725 1.376 . S
C722 C720 1.394 . S
C722 C723 1.369 . S
C722 C726 1.531 . S
C723 C722 1.369 . S
C723 C724 1.410 . S
C723 C731 1.503 . S
C724 C723 1.410 . S
C724 C725 1.392 . S
C724 C727 1.511 . S
C725 C721 1.376 . S
C725 C724 1.392 . S
C725 H737 0.929 . S
C726 C722 1.531 . S
C726 H738 0.960 . S
C726 H739 0.962 . S
C726 H740 0.960 . S
C727 C724 1.511 . S
C727 H741 0.961 . S
C727 H742 0.961 . S
C727 H743 0.961 . S
C728 C729 1.370 . S
C728 C730 1.363 . S
C728 H744 0.931 . S
C729 C728 1.370 . S
C729 C733 1.408 . S
C730 C728 1.363 . S
C730 C731 1.370 . S
C730 C734 1.524 . S
C731 C723 1.503 . S
C731 C730 1.370 . S
C731 C732 1.403 . S
C732 C731 1.403 . S
C732 C733 1.404 . S
C732 C735 1.539 . S
C733 C729 1.408 . S
C733 C732 1.404 . S
C733 H745 0.930 . S
C734 C730 1.524 . S
C734 H746 0.956 . S
C734 H747 0.961 . S
C734 H748 0.961 . S
C735 C732 1.539 . S
C735 H749 0.958 . S
C735 H750 0.961 . S
C735 H751 0.960 . S
H736 C720 0.931 . S
H737 C725 0.929 . S
H738 C726 0.960 . S
H739 C726 0.962 . S
H740 C726 0.960 . S
H741 C727 0.961 . S
H742 C727 0.961 . S
H743 C727 0.961 . S
H744 C728 0.931 . S
H745 C733 0.930 . S
H746 C734 0.956 . S
H747 C734 0.961 . S
H748 C734 0.961 . S
H749 C735 0.958 . S
H750 C735 0.961 . S
H751 C735 0.960 . S
C752 C753 1.391 . S
C752 C754 1.394 . S
C752 H768 0.931 . S
C753 C752 1.391 . S
C753 C757 1.376 . S
C754 C752 1.394 . S
C754 C755 1.374 . S
C754 C758 1.528 1_655 S
C755 C754 1.374 . S
C755 C756 1.414 . S
C755 C763 1.494 1_655 S
C756 C755 1.414 . S
C756 C757 1.392 . S
C756 C759 1.511 1_655 S
C757 C753 1.376 . S
C757 C756 1.392 . S
C757 H769 0.929 . S
C758 C754 1.528 1_455 S
C758 H770 0.965 . S
C758 H771 0.963 . S
C758 H772 0.957 1_455 S
C759 C756 1.511 1_455 S
C759 H773 0.961 1_455 S
C759 H774 0.961 . S
C759 H775 0.961 . S
C760 C761 1.370 . S
C760 C762 1.363 . S
C760 H776 0.931 . S
C761 C760 1.370 . S
C761 C765 1.408 . S
C762 C760 1.363 . S
C762 C763 1.370 . S
C762 C766 1.524 . S
C763 C755 1.494 1_455 S
C763 C762 1.370 . S
C763 C764 1.403 . S
C764 C763 1.403 . S
C764 C765 1.404 . S
C764 C767 1.539 . S
C765 C761 1.408 . S
C765 C764 1.404 . S
C765 H777 0.930 . S
C766 C762 1.524 . S
C766 H778 0.956 . S
C766 H779 0.961 . S
C766 H780 0.961 . S
C767 C764 1.539 . S
C767 H781 0.958 . S
C767 H782 0.961 . S
C767 H783 0.960 . S
H768 C752 0.931 . S
H769 C757 0.929 . S
H770 C758 0.965 . S
H771 C758 0.963 . S
H772 C758 0.957 1_655 S
H773 C759 0.961 1_655 S
H774 C759 0.961 . S
H775 C759 0.961 . S
H776 C760 0.931 . S
H777 C765 0.930 . S
H778 C766 0.956 . S
H779 C766 0.961 . S
H780 C766 0.961 . S
H781 C767 0.958 . S
H782 C767 0.961 . S
H783 C767 0.960 . S
C784 C785 1.391 . S
C784 C786 1.394 . S
C784 H800 0.931 . S
C785 C784 1.391 . S
C785 C789 1.376 . S
C786 C784 1.394 . S
C786 C787 1.369 . S
C786 C790 1.531 . S
C787 C786 1.369 . S
C787 C788 1.410 . S
C787 C795 1.503 1_554 S
C788 C787 1.410 . S
C788 C789 1.392 . S
C788 C791 1.511 1_545 S
C789 C785 1.376 . S
C789 C788 1.392 . S
C789 H801 0.929 1_545 S
C790 C786 1.531 . S
C790 H802 0.960 1_554 S
C790 H803 0.962 . S
C790 H804 0.960 . S
C791 C788 1.511 1_565 S
C791 H805 0.963 . S
C791 H806 0.961 . S
C791 H807 0.961 . S
C792 C793 1.370 1_655 S
C792 C794 1.363 . S
C792 H808 0.931 . S
C793 C792 1.370 1_455 S
C793 C797 1.408 . S
C794 C792 1.363 . S
C794 C795 1.370 1_655 S
C794 C798 1.524 . S
C795 C787 1.503 1_556 S
C795 C794 1.370 1_455 S
C795 C796 1.403 . S
C796 C795 1.403 . S
C796 C797 1.404 . S
C796 C799 1.539 . S
C797 C793 1.408 . S
C797 C796 1.404 . S
C797 H809 0.930 . S
C798 C794 1.524 . S
C798 H810 0.956 . S
C798 H811 0.961 1_556 S
C798 H812 0.961 . S
C799 C796 1.539 . S
C799 H813 0.958 . S
C799 H814 0.961 . S
C799 H815 0.890 1_556 S
H800 C784 0.931 . S
H801 C789 0.929 1_565 S
H802 C790 0.960 1_556 S
H803 C790 0.962 . S
H804 C790 0.960 . S
H805 C791 0.963 . S
H806 C791 0.961 . S
H807 C791 0.961 . S
H808 C792 0.931 . S
H809 C797 0.930 . S
H810 C798 0.956 . S
H811 C798 0.961 1_554 S
H812 C798 0.961 . S
H813 C799 0.958 . S
H814 C799 0.961 . S
H815 C799 0.890 1_554 S
C816 C817 1.391 . S
C816 C818 1.394 . S
C816 H832 0.931 . S
C817 C816 1.391 . S
C817 C821 1.376 . S
C818 C816 1.394 . S
C818 C819 1.369 . S
C818 C822 1.531 . S
C819 C818 1.369 . S
C819 C820 1.410 . S
C819 C827 1.503 . S
C820 C819 1.410 . S
C820 C821 1.392 . S
C820 C823 1.511 . S
C821 C817 1.376 . S
C821 C820 1.392 . S
C821 H833 0.929 . S
C822 C818 1.531 . S
C822 H834 0.960 . S
C822 H835 0.962 . S
C822 H836 0.960 . S
C823 C820 1.511 . S
C823 H837 0.961 . S
C823 H838 0.961 . S
C823 H839 0.961 . S
C824 C825 1.370 . S
C824 C826 1.363 . S
C824 H840 0.931 . S
C825 C824 1.370 . S
C825 C829 1.408 . S
C826 C824 1.363 . S
C826 C827 1.370 . S
C826 C830 1.524 . S
C827 C819 1.503 . S
C827 C826 1.370 . S
C827 C828 1.403 . S
C828 C827 1.403 . S
C828 C829 1.404 . S
C828 C831 1.539 . S
C829 C825 1.408 . S
C829 C828 1.404 . S
C829 H841 0.930 . S
C830 C826 1.524 . S
C830 H842 0.956 . S
C830 H843 0.961 . S
C830 H844 0.961 . S
C831 C828 1.539 . S
C831 H845 0.958 . S
C831 H846 0.961 . S
C831 H847 0.960 . S
H832 C816 0.931 . S
H833 C821 0.929 . S
H834 C822 0.960 . S
H835 C822 0.962 . S
H836 C822 0.960 . S
H837 C823 0.961 . S
H838 C823 0.961 . S
H839 C823 0.961 . S
H840 C824 0.931 . S
H841 C829 0.930 . S
H842 C830 0.956 . S
H843 C830 0.961 . S
H844 C830 0.961 . S
H845 C831 0.958 . S
H846 C831 0.961 . S
H847 C831 0.960 . S
C848 C849 1.391 . S
C848 C850 1.394 . S
C848 H864 0.931 1_545 S
C849 C848 1.391 . S
C849 C853 1.376 . S
C850 C848 1.394 . S
C850 C851 1.369 . S
C850 C854 1.531 1_545 S
C851 C850 1.369 . S
C851 C852 1.410 . S
C851 C859 1.503 . S
C852 C851 1.410 . S
C852 C853 1.392 . S
C852 C855 1.511 . S
C853 C849 1.376 . S
C853 C852 1.392 . S
C853 H865 0.929 . S
C854 C850 1.531 1_565 S
C854 H866 0.960 . S
C854 H867 0.962 . S
C854 H868 0.960 . S
C855 C852 1.511 . S
C855 H869 0.961 . S
C855 H870 0.961 . S
C855 H871 0.961 . S
C856 C857 1.370 . S
C856 C858 1.363 . S
C856 H872 0.931 . S
C857 C856 1.370 . S
C857 C861 1.408 . S
C858 C856 1.363 . S
C858 C859 1.370 . S
C858 C862 1.524 . S
C859 C851 1.503 . S
C859 C858 1.370 . S
C859 C860 1.403 . S
C860 C859 1.403 . S
C860 C861 1.404 . S
C860 C863 1.539 1_545 S
C861 C857 1.408 . S
C861 C860 1.404 . S
C861 H873 0.930 . S
C862 C858 1.524 . S
C862 H874 0.956 . S
C862 H875 0.961 . S
C862 H876 0.961 . S
C863 C860 1.539 1_565 S
C863 H877 0.958 . S
C863 H878 0.961 . S
C863 H879 0.960 . S
H864 C848 0.931 1_565 S
H865 C853 0.929 . S
H866 C854 0.960 . S
H867 C854 0.962 . S
H868 C854 0.960 . S
H869 C855 0.961 . S
H870 C855 0.961 . S
H871 C855 0.961 . S
H872 C856 0.931 . S
H873 C861 0.930 . S
H874 C862 0.956 . S
H875 C862 0.961 . S
H876 C862 0.961 . S
H877 C863 0.958 . S
H878 C863 0.961 . S
H879 C863 0.960 . S
C880 C881 1.391 . S
C880 C882 1.394 . S
C880 H896 0.931 . S
C881 C880 1.391 . S
C881 C885 1.376 . S
C882 C880 1.394 . S
C882 C883 1.369 . S
C882 C886 1.531 . S
C883 C882 1.369 . S
C883 C884 1.410 . S
C883 C891 1.503 . S
C884 C883 1.410 . S
C884 C885 1.392 . S
C884 C887 1.511 . S
C885 C881 1.376 . S
C885 C884 1.392 . S
C885 H897 0.929 . S
C886 C882 1.531 . S
C886 H898 0.960 . S
C886 H899 0.962 . S
C886 H900 0.960 . S
C887 C884 1.511 . S
C887 H901 0.961 . S
C887 H902 0.961 . S
C887 H903 0.961 . S
C888 C889 1.370 . S
C888 C890 1.363 . S
C888 H904 0.931 . S
C889 C888 1.370 . S
C889 C893 1.408 . S
C890 C888 1.363 . S
C890 C891 1.370 . S
C890 C894 1.524 . S
C891 C883 1.503 . S
C891 C890 1.370 . S
C891 C892 1.403 . S
C892 C891 1.403 . S
C892 C893 1.404 . S
C892 C895 1.539 . S
C893 C889 1.408 . S
C893 C892 1.404 . S
C893 H905 0.930 . S
C894 C890 1.524 . S
C894 H906 0.956 . S
C894 H907 0.961 . S
C894 H908 0.961 . S
C895 C892 1.539 . S
C895 H909 0.958 . S
C895 H910 0.961 . S
C895 H911 0.960 . S
H896 C880 0.931 . S
H897 C885 0.929 . S
H898 C886 0.960 . S
H899 C886 0.962 . S
H900 C886 0.960 . S
H901 C887 0.961 . S
H902 C887 0.961 . S
H903 C887 0.961 . S
H904 C888 0.931 . S
H905 C893 0.930 . S
H906 C894 0.956 . S
H907 C894 0.961 . S
H908 C894 0.961 . S
H909 C895 0.958 . S
H910 C895 0.961 . S
H911 C895 0.960 . S
C912 C913 1.391 . S
C912 C914 1.394 . S
C912 H928 0.931 . S
C913 C912 1.391 . S
C913 C917 1.376 . S
C914 C912 1.394 . S
C914 C915 1.369 . S
C914 C918 1.531 . S
C915 C914 1.369 . S
C915 C916 1.410 . S
C915 C923 1.503 . S
C916 C915 1.410 . S
C916 C917 1.392 . S
C916 C919 1.511 . S
C917 C913 1.376 . S
C917 C916 1.392 . S
C917 H929 0.929 . S
C918 C914 1.531 . S
C918 H930 0.960 . S
C918 H931 0.962 . S
C918 H932 0.960 . S
C919 C916 1.511 . S
C919 H933 0.961 . S
C919 H934 0.961 . S
C919 H935 0.961 . S
C920 C921 1.370 . S
C920 C922 1.363 . S
C920 H936 0.931 . S
C921 C920 1.370 . S
C921 C925 1.408 . S
C922 C920 1.363 . S
C922 C923 1.370 . S
C922 C926 1.524 . S
C923 C915 1.503 . S
C923 C922 1.370 . S
C923 C924 1.403 . S
C924 C923 1.403 . S
C924 C925 1.404 . S
C924 C927 1.539 . S
C925 C921 1.408 . S
C925 C924 1.404 . S
C925 H937 0.930 . S
C926 C922 1.524 . S
C926 H938 0.956 . S
C926 H939 0.961 . S
C926 H940 0.961 . S
C927 C924 1.539 . S
C927 H941 0.958 . S
C927 H942 0.961 . S
C927 H943 0.960 . S
H928 C912 0.931 . S
H929 C917 0.929 . S
H930 C918 0.960 . S
H931 C918 0.962 . S
H932 C918 0.960 . S
H933 C919 0.961 . S
H934 C919 0.961 . S
H935 C919 0.961 . S
H936 C920 0.931 . S
H937 C925 0.930 . S
H938 C926 0.956 . S
H939 C926 0.961 . S
H940 C926 0.961 . S
H941 C927 0.958 . S
H942 C927 0.961 . S
H943 C927 0.960 . S
C944 C945 1.391 . S
C944 C946 1.394 . S
C944 H960 0.931 . S
C945 C944 1.391 . S
C945 C949 1.376 . S
C946 C944 1.394 . S
C946 C947 1.369 . S
C946 C950 1.531 . S
C947 C946 1.369 . S
C947 C948 1.410 . S
C947 C955 1.503 . S
C948 C947 1.410 . S
C948 C949 1.392 . S
C948 C951 1.511 . S
C949 C945 1.376 . S
C949 C948 1.392 . S
C949 H961 0.929 . S
C950 C946 1.531 . S
C950 H962 0.960 . S
C950 H963 0.962 . S
C950 H964 0.960 . S
C951 C948 1.511 . S
C951 H965 0.961 . S
C951 H966 0.961 . S
C951 H967 0.961 . S
C952 C953 1.370 . S
C952 C954 1.363 . S
C952 H968 0.931 . S
C953 C952 1.370 . S
C953 C957 1.408 . S
C954 C952 1.363 . S
C954 C955 1.370 . S
C954 C958 1.524 . S
C955 C947 1.503 . S
C955 C954 1.370 . S
C955 C956 1.403 . S
C956 C955 1.403 . S
C956 C957 1.404 . S
C956 C959 1.539 . S
C957 C953 1.408 . S
C957 C956 1.404 . S
C957 H969 0.930 . S
C958 C954 1.524 . S
C958 H970 0.956 . S
C958 H971 0.961 . S
C958 H972 0.961 . S
C959 C956 1.539 . S
C959 H973 0.958 . S
C959 H974 0.961 . S
C959 H975 0.960 . S
H960 C944 0.931 . S
H961 C949 0.929 . S
H962 C950 0.960 . S
H963 C950 0.962 . S
H964 C950 0.960 . S
H965 C951 0.961 . S
H966 C951 0.961 . S
H967 C951 0.961 . S
H968 C952 0.931 . S
H969 C957 0.930 . S
H970 C958 0.956 . S
H971 C958 0.961 . S
H972 C958 0.961 . S
H973 C959 0.958 . S
H974 C959 0.961 . S
H975 C959 0.960 . S
C976 C977 1.391 . S
C976 C978 1.394 . S
C976 H992 0.931 . S
C977 C976 1.391 . S
C977 C981 1.376 . S
C978 C976 1.394 . S
C978 C979 1.369 . S
C978 C982 1.531 . S
C979 C978 1.369 . S
C979 C980 1.410 . S
C979 C987 1.503 . S
C980 C979 1.410 . S
C980 C981 1.392 . S
C980 C983 1.511 . S
C981 C977 1.376 . S
C981 C980 1.392 . S
C981 H993 0.929 . S
C982 C978 1.531 . S
C982 H994 0.960 . S
C982 H995 0.962 . S
C982 H996 0.960 . S
C983 C980 1.511 . S
C983 H997 0.961 . S
C983 H998 0.961 . S
C983 H999 0.961 . S
C984 C985 1.370 . S
C984 C986 1.363 . S
C984 H1000 0.931 . S
C985 C984 1.370 . S
C985 C989 1.408 . S
C986 C984 1.363 . S
C986 C987 1.370 . S
C986 C990 1.524 . S
C987 C979 1.503 . S
C987 C986 1.370 . S
C987 C988 1.403 . S
C988 C987 1.403 . S
C988 C989 1.404 . S
C988 C991 1.539 . S
C989 C985 1.408 . S
C989 C988 1.404 . S
C989 H1001 0.930 . S
C990 C986 1.524 . S
C990 H1002 0.956 . S
C990 H1003 0.961 . S
C990 H1004 0.961 . S
C991 C988 1.539 . S
C991 H1005 0.958 . S
C991 H1006 0.961 . S
C991 H1007 0.960 . S
H992 C976 0.931 . S
H993 C981 0.929 . S
H994 C982 0.960 . S
H995 C982 0.962 . S
H996 C982 0.960 . S
H997 C983 0.961 . S
H998 C983 0.961 . S
H999 C983 0.961 . S
H1000 C984 0.931 . S
H1001 C989 0.930 . S
H1002 C990 0.956 . S
H1003 C990 0.961 . S
H1004 C990 0.961 . S
H1005 C991 0.958 . S
H1006 C991 0.961 . S
H1007 C991 0.960 . S
C1008 C1009 1.391 . S
C1008 C1010 1.394 . S
C1008 H1024 0.931 . S
C1009 C1008 1.391 . S
C1009 C1013 1.376 1_455 S
C1010 C1008 1.394 . S
C1010 C1011 1.369 . S
C1010 C1014 1.531 . S
C1011 C1010 1.369 . S
C1011 C1012 1.410 1_455 S
C1011 C1019 1.503 1_556 S
C1012 C1011 1.410 1_655 S
C1012 C1013 1.392 . S
C1012 C1015 1.511 . S
C1013 C1009 1.376 1_655 S
C1013 C1012 1.392 . S
C1013 H1025 0.929 . S
C1014 C1010 1.531 . S
C1014 H1026 0.960 1_556 S
C1014 H1027 0.962 . S
C1014 H1028 0.960 . S
C1015 C1012 1.511 . S
C1015 H1029 0.961 . S
C1015 H1030 0.979 . S
C1015 H1031 0.961 . S
C1016 C1017 1.370 . S
C1016 C1018 1.363 . S
C1016 H1032 0.931 . S
C1017 C1016 1.370 . S
C1017 C1021 1.408 . S
C1018 C1016 1.363 . S
C1018 C1019 1.370 . S
C1018 C1022 1.524 . S
C1019 C1011 1.503 1_554 S
C1019 C1018 1.370 . S
C1019 C1020 1.403 . S
C1020 C1019 1.403 . S
C1020 C1021 1.404 . S
C1020 C1023 1.539 1_455 S
C1021 C1017 1.408 . S
C1021 C1020 1.404 . S
C1021 H1033 0.930 1_455 S
C1022 C1018 1.524 . S
C1022 H1034 0.956 1_554 S
C1022 H1035 0.961 1_554 S
C1022 H1036 0.961 . S
C1023 C1020 1.539 1_655 S
C1023 H1037 0.958 . S
C1023 H1038 0.961 . S
C1023 H1039 0.960 . S
H1024 C1008 0.931 . S
H1025 C1013 0.929 . S
H1026 C1014 0.960 1_554 S
H1027 C1014 0.962 . S
H1028 C1014 0.960 . S
H1029 C1015 0.961 . S
H1030 C1015 0.979 . S
H1031 C1015 0.961 . S
H1032 C1016 0.931 . S
H1033 C1021 0.930 1_655 S
H1034 C1022 0.956 1_556 S
H1035 C1022 0.961 1_556 S
H1036 C1022 0.961 . S
H1037 C1023 0.958 . S
H1038 C1023 0.961 . S
H1039 C1023 0.960 . S
C1040 C1041 1.391 . S
C1040 C1042 1.394 . S
C1040 H1056 0.931 . S
C1041 C1040 1.391 . S
C1041 C1045 1.376 . S
C1042 C1040 1.394 . S
C1042 C1043 1.369 . S
C1042 C1046 1.531 . S
C1043 C1042 1.369 . S
C1043 C1044 1.410 . S
C1043 C1051 1.503 . S
C1044 C1043 1.410 . S
C1044 C1045 1.392 . S
C1044 C1047 1.511 . S
C1045 C1041 1.376 . S
C1045 C1044 1.392 . S
C1045 H1057 0.929 . S
C1046 C1042 1.531 . S
C1046 H1058 0.960 . S
C1046 H1059 0.962 . S
C1046 H1060 0.960 . S
C1047 C1044 1.511 . S
C1047 H1061 0.961 . S
C1047 H1062 0.961 . S
C1047 H1063 0.961 . S
C1048 C1049 1.370 . S
C1048 C1050 1.363 . S
C1048 H1064 0.931 . S
C1049 C1048 1.370 . S
C1049 C1053 1.408 1_565 S
C1050 C1048 1.363 . S
C1050 C1051 1.370 . S
C1050 C1054 1.524 . S
C1051 C1043 1.503 . S
C1051 C1050 1.370 . S
C1051 C1052 1.403 . S
C1052 C1051 1.403 . S
C1052 C1053 1.404 1_565 S
C1052 C1055 1.539 1_565 S
C1053 C1049 1.408 1_545 S
C1053 C1052 1.404 1_545 S
C1053 H1065 0.930 . S
C1054 C1050 1.524 . S
C1054 H1066 0.956 . S
C1054 H1067 0.961 . S
C1054 H1068 0.961 . S
C1055 C1052 1.539 1_545 S
C1055 H1069 0.958 . S
C1055 H1070 0.961 . S
C1055 H1071 0.960 . S
H1056 C1040 0.931 . S
H1057 C1045 0.929 . S
H1058 C1046 0.960 . S
H1059 C1046 0.962 . S
H1060 C1046 0.960 . S
H1061 C1047 0.961 . S
H1062 C1047 0.961 . S
H1063 C1047 0.961 . S
H1064 C1048 0.931 . S
H1065 C1053 0.930 . S
H1066 C1054 0.956 . S
H1067 C1054 0.961 . S
H1068 C1054 0.961 . S
H1069 C1055 0.958 . S
H1070 C1055 0.961 . S
H1071 C1055 0.960 . S
C1072 C1073 1.391 . S
C1072 C1074 1.394 . S
C1072 H1088 0.931 . S
C1073 C1072 1.391 . S
C1073 C1077 1.376 . S
C1074 C1072 1.394 . S
C1074 C1075 1.369 . S
C1074 C1078 1.531 . S
C1075 C1074 1.369 . S
C1075 C1076 1.410 . S
C1075 C1083 1.503 . S
C1076 C1075 1.410 . S
C1076 C1077 1.392 . S
C1076 C1079 1.511 . S
C1077 C1073 1.376 . S
C1077 C1076 1.392 . S
C1077 H1089 0.929 . S
C1078 C1074 1.531 . S
C1078 H1090 0.960 . S
C1078 H1091 0.966 . S
C1078 H1092 0.960 . S
C1079 C1076 1.511 . S
C1079 H1093 0.961 . S
C1079 H1094 0.961 . S
C1079 H1095 0.961 . S
C1080 C1081 1.370 . S
C1080 C1082 1.363 . S
C1080 H1096 0.931 . S
C1081 C1080 1.370 . S
C1081 C1085 1.408 . S
C1082 C1080 1.363 . S
C1082 C1083 1.370 . S
C1082 C1086 1.524 . S
C1083 C1075 1.503 . S
C1083 C1082 1.370 . S
C1083 C1084 1.403 . S
C1084 C1083 1.403 . S
C1084 C1085 1.404 . S
C1084 C1087 1.539 . S
C1085 C1081 1.408 . S
C1085 C1084 1.404 . S
C1085 H1097 0.930 . S
C1086 C1082 1.524 . S
C1086 H1098 0.956 . S
C1086 H1099 0.961 . S
C1086 H1100 0.961 . S
C1087 C1084 1.539 . S
C1087 H1101 0.958 . S
C1087 H1102 0.961 . S
C1087 H1103 0.960 . S
H1088 C1072 0.931 . S
H1089 C1077 0.929 . S
H1090 C1078 0.960 . S
H1091 C1078 0.966 . S
H1092 C1078 0.960 . S
H1093 C1079 0.961 . S
H1094 C1079 0.961 . S
H1095 C1079 0.961 . S
H1096 C1080 0.931 . S
H1097 C1085 0.930 . S
H1098 C1086 0.956 . S
H1099 C1086 0.961 . S
H1100 C1086 0.961 . S
H1101 C1087 0.958 . S
H1102 C1087 0.961 . S
H1103 C1087 0.960 . S
C1104 C1105 1.391 . S
C1104 C1106 1.394 . S
C1104 H1120 0.931 . S
C1105 C1104 1.391 . S
C1105 C1109 1.376 . S
C1106 C1104 1.394 . S
C1106 C1107 1.369 . S
C1106 C1110 1.531 . S
C1107 C1106 1.369 . S
C1107 C1108 1.410 . S
C1107 C1115 1.503 . S
C1108 C1107 1.410 . S
C1108 C1109 1.392 . S
C1108 C1111 1.511 . S
C1109 C1105 1.376 . S
C1109 C1108 1.392 . S
C1109 H1121 0.929 . S
C1110 C1106 1.531 . S
C1110 H1122 0.960 . S
C1110 H1123 0.962 . S
C1110 H1124 0.960 . S
C1111 C1108 1.511 . S
C1111 H1125 0.961 . S
C1111 H1126 0.961 . S
C1111 H1127 0.961 . S
C1112 C1113 1.370 . S
C1112 C1114 1.363 . S
C1112 H1128 0.931 . S
C1113 C1112 1.370 . S
C1113 C1117 1.408 . S
C1114 C1112 1.363 . S
C1114 C1115 1.370 . S
C1114 C1118 1.524 . S
C1115 C1107 1.503 . S
C1115 C1114 1.370 . S
C1115 C1116 1.403 . S
C1116 C1115 1.403 . S
C1116 C1117 1.404 . S
C1116 C1119 1.539 . S
C1117 C1113 1.408 . S
C1117 C1116 1.404 . S
C1117 H1129 0.930 . S
C1118 C1114 1.524 . S
C1118 H1130 0.956 . S
C1118 H1131 0.961 . S
C1118 H1132 0.961 . S
C1119 C1116 1.539 . S
C1119 H1133 0.958 . S
C1119 H1134 0.961 . S
C1119 H1135 0.960 . S
H1120 C1104 0.931 . S
H1121 C1109 0.929 . S
H1122 C1110 0.960 . S
H1123 C1110 0.962 . S
H1124 C1110 0.960 . S
H1125 C1111 0.961 . S
H1126 C1111 0.961 . S
H1127 C1111 0.961 . S
H1128 C1112 0.931 . S
H1129 C1117 0.930 . S
H1130 C1118 0.956 . S
H1131 C1118 0.961 . S
H1132 C1118 0.961 . S
H1133 C1119 0.958 . S
H1134 C1119 0.961 . S
H1135 C1119 0.960 . S
C1136 C1137 1.391 . S
C1136 C1138 1.394 . S
C1136 H1152 0.931 . S
C1137 C1136 1.391 . S
C1137 C1141 1.376 . S
C1138 C1136 1.394 . S
C1138 C1139 1.369 . S
C1138 C1142 1.531 . S
C1139 C1138 1.369 . S
C1139 C1140 1.410 . S
C1139 C1147 1.503 . S
C1140 C1139 1.410 . S
C1140 C1141 1.392 . S
C1140 C1143 1.511 . S
C1141 C1137 1.376 . S
C1141 C1140 1.392 . S
C1141 H1153 0.929 . S
C1142 C1138 1.531 . S
C1142 H1154 0.960 . S
C1142 H1155 0.962 . S
C1142 H1156 0.960 . S
C1143 C1140 1.511 . S
C1143 H1157 0.961 . S
C1143 H1158 0.961 . S
C1143 H1159 0.961 . S
C1144 C1145 1.370 . S
C1144 C1146 1.363 . S
C1144 H1160 0.931 . S
C1145 C1144 1.370 . S
C1145 C1149 1.408 . S
C1146 C1144 1.363 . S
C1146 C1147 1.370 . S
C1146 C1150 1.524 . S
C1147 C1139 1.503 . S
C1147 C1146 1.370 . S
C1147 C1148 1.403 . S
C1148 C1147 1.403 . S
C1148 C1149 1.404 . S
C1148 C1151 1.539 . S
C1149 C1145 1.408 . S
C1149 C1148 1.404 . S
C1149 H1161 0.930 . S
C1150 C1146 1.524 . S
C1150 H1162 0.956 . S
C1150 H1163 0.961 . S
C1150 H1164 0.961 . S
C1151 C1148 1.539 . S
C1151 H1165 0.958 . S
C1151 H1166 0.961 . S
C1151 H1167 0.960 . S
H1152 C1136 0.931 . S
H1153 C1141 0.929 . S
H1154 C1142 0.960 . S
H1155 C1142 0.962 . S
H1156 C1142 0.960 . S
H1157 C1143 0.961 . S
H1158 C1143 0.961 . S
H1159 C1143 0.961 . S
H1160 C1144 0.931 . S
H1161 C1149 0.930 . S
H1162 C1150 0.956 . S
H1163 C1150 0.961 . S
H1164 C1150 0.961 . S
H1165 C1151 0.958 . S
H1166 C1151 0.961 . S
H1167 C1151 0.960 . S
C1168 C1169 1.391 . S
C1168 C1170 1.394 . S
C1168 H1184 0.931 . S
C1169 C1168 1.391 . S
C1169 C1173 1.376 . S
C1170 C1168 1.394 . S
C1170 C1171 1.369 . S
C1170 C1174 1.531 . S
C1171 C1170 1.369 . S
C1171 C1172 1.410 . S
C1171 C1179 1.503 . S
C1172 C1171 1.410 . S
C1172 C1173 1.392 . S
C1172 C1175 1.511 . S
C1173 C1169 1.376 . S
C1173 C1172 1.392 . S
C1173 H1185 0.929 . S
C1174 C1170 1.531 . S
C1174 H1186 0.960 . S
C1174 H1187 0.962 . S
C1174 H1188 0.960 . S
C1175 C1172 1.511 . S
C1175 H1189 0.961 . S
C1175 H1190 0.961 . S
C1175 H1191 0.961 . S
C1176 C1177 1.370 . S
C1176 C1178 1.363 . S
C1176 H1192 0.931 . S
C1177 C1176 1.370 . S
C1177 C1181 1.408 . S
C1178 C1176 1.363 . S
C1178 C1179 1.370 . S
C1178 C1182 1.524 . S
C1179 C1171 1.503 . S
C1179 C1178 1.370 . S
C1179 C1180 1.403 . S
C1180 C1179 1.403 . S
C1180 C1181 1.404 . S
C1180 C1183 1.539 . S
C1181 C1177 1.408 . S
C1181 C1180 1.404 . S
C1181 H1193 0.930 . S
C1182 C1178 1.524 . S
C1182 H1194 0.956 . S
C1182 H1195 0.961 . S
C1182 H1196 0.961 . S
C1183 C1180 1.539 . S
C1183 H1197 0.958 . S
C1183 H1198 0.961 . S
C1183 H1199 0.960 . S
H1184 C1168 0.931 . S
H1185 C1173 0.929 . S
H1186 C1174 0.960 . S
H1187 C1174 0.962 . S
H1188 C1174 0.960 . S
H1189 C1175 0.961 . S
H1190 C1175 0.961 . S
H1191 C1175 0.961 . S
H1192 C1176 0.931 . S
H1193 C1181 0.930 . S
H1194 C1182 0.956 . S
H1195 C1182 0.961 . S
H1196 C1182 0.961 . S
H1197 C1183 0.958 . S
H1198 C1183 0.961 . S
H1199 C1183 0.960 . S
C1200 C1201 1.391 . S
C1200 C1202 1.394 . S
C1200 H1216 0.931 . S
C1201 C1200 1.391 . S
C1201 C1205 1.376 . S
C1202 C1200 1.394 . S
C1202 C1203 1.369 . S
C1202 C1206 1.531 . S
C1203 C1202 1.369 . S
C1203 C1204 1.410 . S
C1203 C1211 1.503 . S
C1204 C1203 1.410 . S
C1204 C1205 1.392 . S
C1204 C1207 1.511 . S
C1205 C1201 1.376 . S
C1205 C1204 1.392 . S
C1205 H1217 0.929 . S
C1206 C1202 1.531 . S
C1206 H1218 0.960 . S
C1206 H1219 0.962 . S
C1206 H1220 0.960 . S
C1207 C1204 1.511 . S
C1207 H1221 0.961 . S
C1207 H1222 0.961 . S
C1207 H1223 0.961 . S
C1208 C1209 1.370 . S
C1208 C1210 1.363 . S
C1208 H1224 0.931 . S
C1209 C1208 1.370 . S
C1209 C1213 1.408 . S
C1210 C1208 1.363 . S
C1210 C1211 1.370 . S
C1210 C1214 1.524 . S
C1211 C1203 1.503 . S
C1211 C1210 1.370 . S
C1211 C1212 1.403 . S
C1212 C1211 1.403 . S
C1212 C1213 1.404 . S
C1212 C1215 1.539 . S
C1213 C1209 1.408 . S
C1213 C1212 1.404 . S
C1213 H1225 0.930 . S
C1214 C1210 1.524 . S
C1214 H1226 0.956 . S
C1214 H1227 0.961 . S
C1214 H1228 0.961 . S
C1215 C1212 1.539 . S
C1215 H1229 0.958 . S
C1215 H1230 0.961 . S
C1215 H1231 0.960 . S
H1216 C1200 0.931 . S
H1217 C1205 0.929 . S
H1218 C1206 0.960 . S
H1219 C1206 0.962 . S
H1220 C1206 0.960 . S
H1221 C1207 0.961 . S
H1222 C1207 0.961 . S
H1223 C1207 0.961 . S
H1224 C1208 0.931 . S
H1225 C1213 0.930 . S
H1226 C1214 0.956 . S
H1227 C1214 0.961 . S
H1228 C1214 0.961 . S
H1229 C1215 0.958 . S
H1230 C1215 0.961 . S
H1231 C1215 0.960 . S
C1232 C1233 1.391 . S
C1232 C1234 1.394 . S
C1232 H1248 0.931 . S
C1233 C1232 1.391 . S
C1233 C1237 1.376 . S
C1234 C1232 1.394 . S
C1234 C1235 1.369 . S
C1234 C1238 1.531 1_565 S
C1235 C1234 1.369 . S
C1235 C1236 1.410 . S
C1235 C1243 1.503 . S
C1236 C1235 1.410 . S
C1236 C1237 1.392 . S
C1236 C1239 1.511 . S
C1237 C1233 1.376 . S
C1237 C1236 1.392 . S
C1237 H1249 0.929 . S
C1238 C1234 1.531 1_545 S
C1238 H1250 0.960 . S
C1238 H1251 0.962 . S
C1238 H1252 0.960 . S
C1239 C1236 1.511 . S
C1239 H1253 0.961 . S
C1239 H1254 0.961 . S
C1239 H1255 0.961 . S
C1240 C1241 1.370 . S
C1240 C1242 1.363 . S
C1240 H1256 0.931 . S
C1241 C1240 1.370 . S
C1241 C1245 1.408 . S
C1242 C1240 1.363 . S
C1242 C1243 1.370 1_545 S
C1242 C1246 1.524 1_545 S
C1243 C1235 1.503 . S
C1243 C1242 1.370 1_565 S
C1243 C1244 1.403 . S
C1244 C1243 1.403 . S
C1244 C1245 1.404 1_565 S
C1244 C1247 1.539 . S
C1245 C1241 1.408 . S
C1245 C1244 1.404 1_545 S
C1245 H1257 0.930 . S
C1246 C1242 1.524 1_565 S
C1246 H1258 0.956 1_565 S
C1246 H1259 0.961 . S
C1246 H1260 0.961 1_565 S
C1247 C1244 1.539 . S
C1247 H1261 0.958 . S
C1247 H1262 0.961 . S
C1247 H1263 0.960 . S
H1248 C1232 0.931 . S
H1249 C1237 0.929 . S
H1250 C1238 0.960 . S
H1251 C1238 0.962 . S
H1252 C1238 0.960 . S
H1253 C1239 0.961 . S
H1254 C1239 0.961 . S
H1255 C1239 0.961 . S
H1256 C1240 0.931 . S
H1257 C1245 0.930 . S
H1258 C1246 0.956 1_545 S
H1259 C1246 0.961 . S
H1260 C1246 0.961 1_545 S
H1261 C1247 0.958 . S
H1262 C1247 0.961 . S
H1263 C1247 0.960 . S
C1264 C1265 1.391 . S
C1264 C1266 1.394 . S
C1264 H1280 0.931 . S
C1265 C1264 1.391 . S
C1265 C1269 1.376 . S
C1266 C1264 1.394 . S
C1266 C1267 1.369 . S
C1266 C1270 1.531 . S
C1267 C1266 1.369 . S
C1267 C1268 1.410 . S
C1267 C1275 1.503 . S
C1268 C1267 1.410 . S
C1268 C1269 1.392 . S
C1268 C1271 1.511 . S
C1269 C1265 1.376 . S
C1269 C1268 1.392 . S
C1269 H1281 0.929 . S
C1270 C1266 1.531 . S
C1270 H1282 0.960 1_565 S
C1270 H1283 0.962 . S
C1270 H1284 0.960 . S
C1271 C1268 1.511 . S
C1271 H1285 0.961 . S
C1271 H1286 0.961 . S
C1271 H1287 0.961 . S
C1272 C1273 1.353 1_565 S
C1272 C1274 1.373 . S
C1272 H1288 0.938 . S
C1273 C1272 1.353 1_545 S
C1273 C1277 1.408 . S
C1274 C1272 1.373 . S
C1274 C1275 1.370 . S
C1274 C1278 1.524 . S
C1275 C1267 1.503 . S
C1275 C1274 1.370 . S
C1275 C1276 1.403 1_565 S
C1276 C1275 1.403 1_545 S
C1276 C1277 1.404 . S
C1276 C1279 1.539 . S
C1277 C1273 1.408 . S
C1277 C1276 1.404 . S
C1277 H1289 0.930 . S
C1278 C1274 1.524 . S
C1278 H1290 0.956 . S
C1278 H1291 0.961 . S
C1278 H1292 0.961 . S
C1279 C1276 1.539 . S
C1279 H1293 0.958 . S
C1279 H1294 0.961 . S
C1279 H1295 0.960 . S
H1280 C1264 0.931 . S
H1281 C1269 0.929 . S
H1282 C1270 0.960 1_545 S
H1283 C1270 0.962 . S
H1284 C1270 0.960 . S
H1285 C1271 0.961 . S
H1286 C1271 0.961 . S
H1287 C1271 0.961 . S
H1288 C1272 0.938 . S
H1289 C1277 0.930 . S
H1290 C1278 0.956 . S
H1291 C1278 0.961 . S
H1292 C1278 0.961 . S
H1293 C1279 0.958 . S
H1294 C1279 0.961 . S
H1295 C1279 0.960 . S
C1296 C1297 1.391 . S
C1296 C1298 1.394 . S
C1296 H1312 0.931 . S
C1297 C1296 1.391 . S
C1297 C1301 1.376 . S
C1298 C1296 1.394 . S
C1298 C1299 1.369 . S
C1298 C1302 1.531 . S
C1299 C1298 1.369 . S
C1299 C1300 1.410 . S
C1299 C1307 1.503 . S
C1300 C1299 1.410 . S
C1300 C1301 1.392 . S
C1300 C1303 1.511 . S
C1301 C1297 1.376 . S
C1301 C1300 1.392 . S
C1301 H1313 0.929 . S
C1302 C1298 1.531 . S
C1302 H1314 0.960 . S
C1302 H1315 0.962 . S
C1302 H1316 0.960 . S
C1303 C1300 1.511 . S
C1303 H1317 0.961 . S
C1303 H1318 0.961 . S
C1303 H1319 0.961 . S
C1304 C1305 1.370 . S
C1304 C1306 1.363 . S
C1304 H1320 0.931 . S
C1305 C1304 1.370 . S
C1305 C1309 1.408 . S
C1306 C1304 1.363 . S
C1306 C1307 1.370 . S
C1306 C1310 1.524 . S
C1307 C1299 1.503 . S
C1307 C1306 1.370 . S
C1307 C1308 1.403 . S
C1308 C1307 1.403 . S
C1308 C1309 1.404 . S
C1308 C1311 1.539 . S
C1309 C1305 1.408 . S
C1309 C1308 1.404 . S
C1309 H1321 0.930 . S
C1310 C1306 1.524 . S
C1310 H1322 0.956 . S
C1310 H1323 0.961 . S
C1310 H1324 0.961 . S
C1311 C1308 1.539 . S
C1311 H1325 0.958 . S
C1311 H1326 0.961 . S
C1311 H1327 0.960 . S
H1312 C1296 0.931 . S
H1313 C1301 0.929 . S
H1314 C1302 0.960 . S
H1315 C1302 0.962 . S
H1316 C1302 0.960 . S
H1317 C1303 0.961 . S
H1318 C1303 0.961 . S
H1319 C1303 0.961 . S
H1320 C1304 0.931 . S
H1321 C1309 0.930 . S
H1322 C1310 0.956 . S
H1323 C1310 0.961 . S
H1324 C1310 0.961 . S
H1325 C1311 0.958 . S
H1326 C1311 0.961 . S
H1327 C1311 0.960 . S
C1328 C1329 1.391 . S
C1328 C1330 1.394 . S
C1328 H1344 0.931 . S
C1329 C1328 1.391 . S
C1329 C1333 1.376 . S
C1330 C1328 1.394 . S
C1330 C1331 1.369 . S
C1330 C1334 1.531 . S
C1331 C1330 1.369 . S
C1331 C1332 1.410 . S
C1331 C1339 1.503 . S
C1332 C1331 1.410 . S
C1332 C1333 1.392 . S
C1332 C1335 1.511 . S
C1333 C1329 1.376 . S
C1333 C1332 1.392 . S
C1333 H1345 0.929 . S
C1334 C1330 1.531 . S
C1334 H1346 0.960 . S
C1334 H1347 0.962 . S
C1334 H1348 0.960 . S
C1335 C1332 1.511 . S
C1335 H1349 0.961 . S
C1335 H1350 0.961 . S
C1335 H1351 0.961 . S
C1336 C1337 1.370 . S
C1336 C1338 1.363 . S
C1336 H1352 0.931 . S
C1337 C1336 1.370 . S
C1337 C1341 1.408 . S
C1338 C1336 1.363 . S
C1338 C1339 1.370 . S
C1338 C1342 1.524 . S
C1339 C1331 1.503 . S
C1339 C1338 1.370 . S
C1339 C1340 1.403 . S
C1340 C1339 1.403 . S
C1340 C1341 1.404 . S
C1340 C1343 1.539 . S
C1341 C1337 1.408 . S
C1341 C1340 1.404 . S
C1341 H1353 0.930 . S
C1342 C1338 1.524 . S
C1342 H1354 0.956 . S
C1342 H1355 0.961 . S
C1342 H1356 0.961 . S
C1343 C1340 1.539 . S
C1343 H1357 0.958 . S
C1343 H1358 0.961 . S
C1343 H1359 0.960 . S
H1344 C1328 0.931 . S
H1345 C1333 0.929 . S
H1346 C1334 0.960 . S
H1347 C1334 0.962 . S
H1348 C1334 0.960 . S
H1349 C1335 0.961 . S
H1350 C1335 0.961 . S
H1351 C1335 0.961 . S
H1352 C1336 0.931 . S
H1353 C1341 0.930 . S
H1354 C1342 0.956 . S
H1355 C1342 0.961 . S
H1356 C1342 0.961 . S
H1357 C1343 0.958 . S
H1358 C1343 0.961 . S
H1359 C1343 0.960 . S
C1360 C1361 1.391 . S
C1360 C1362 1.394 . S
C1360 H1376 0.931 . S
C1361 C1360 1.391 . S
C1361 C1365 1.376 . S
C1362 C1360 1.394 . S
C1362 C1363 1.369 . S
C1362 C1366 1.531 . S
C1363 C1362 1.369 . S
C1363 C1364 1.410 . S
C1363 C1371 1.503 . S
C1364 C1363 1.410 . S
C1364 C1365 1.392 . S
C1364 C1367 1.511 . S
C1365 C1361 1.376 . S
C1365 C1364 1.392 . S
C1365 H1377 0.929 . S
C1366 C1362 1.531 . S
C1366 H1378 0.960 . S
C1366 H1379 0.962 . S
C1366 H1380 0.960 . S
C1367 C1364 1.511 . S
C1367 H1381 0.961 . S
C1367 H1382 0.961 . S
C1367 H1383 0.961 . S
C1368 C1369 1.370 . S
C1368 C1370 1.363 . S
C1368 H1384 0.931 . S
C1369 C1368 1.370 . S
C1369 C1373 1.408 . S
C1370 C1368 1.363 . S
C1370 C1371 1.370 . S
C1370 C1374 1.524 . S
C1371 C1363 1.503 . S
C1371 C1370 1.370 . S
C1371 C1372 1.403 . S
C1372 C1371 1.403 . S
C1372 C1373 1.404 . S
C1372 C1375 1.539 . S
C1373 C1369 1.408 . S
C1373 C1372 1.404 . S
C1373 H1385 0.930 . S
C1374 C1370 1.524 . S
C1374 H1386 0.956 . S
C1374 H1387 0.961 . S
C1374 H1388 0.961 . S
C1375 C1372 1.539 . S
C1375 H1389 0.958 . S
C1375 H1390 0.961 . S
C1375 H1391 0.960 . S
H1376 C1360 0.931 . S
H1377 C1365 0.929 . S
H1378 C1366 0.960 . S
H1379 C1366 0.962 . S
H1380 C1366 0.960 . S
H1381 C1367 0.961 . S
H1382 C1367 0.961 . S
H1383 C1367 0.961 . S
H1384 C1368 0.931 . S
H1385 C1373 0.930 . S
H1386 C1374 0.956 . S
H1387 C1374 0.961 . S
H1388 C1374 0.961 . S
H1389 C1375 0.958 . S
H1390 C1375 0.961 . S
H1391 C1375 0.960 . S
C1392 C1393 1.391 . S
C1392 C1394 1.394 . S
C1392 H1408 0.931 . S
C1393 C1392 1.391 . S
C1393 C1397 1.376 . S
C1394 C1392 1.394 . S
C1394 C1395 1.369 . S
C1394 C1398 1.531 . S
C1395 C1394 1.369 . S
C1395 C1396 1.410 . S
C1395 C1403 1.503 . S
C1396 C1395 1.410 . S
C1396 C1397 1.392 . S
C1396 C1399 1.511 . S
C1397 C1393 1.376 . S
C1397 C1396 1.392 . S
C1397 H1409 0.929 . S
C1398 C1394 1.531 . S
C1398 H1410 0.960 . S
C1398 H1411 0.962 . S
C1398 H1412 0.960 . S
C1399 C1396 1.511 . S
C1399 H1413 0.961 . S
C1399 H1414 0.961 . S
C1399 H1415 0.961 . S
C1400 C1401 1.370 . S
C1400 C1402 1.363 . S
C1400 H1416 0.931 . S
C1401 C1400 1.370 . S
C1401 C1405 1.408 . S
C1402 C1400 1.363 . S
C1402 C1403 1.370 . S
C1402 C1406 1.524 . S
C1403 C1395 1.503 . S
C1403 C1402 1.370 . S
C1403 C1404 1.403 . S
C1404 C1403 1.403 . S
C1404 C1405 1.404 . S
C1404 C1407 1.539 . S
C1405 C1401 1.408 . S
C1405 C1404 1.404 . S
C1405 H1417 0.930 . S
C1406 C1402 1.524 . S
C1406 H1418 0.956 . S
C1406 H1419 0.961 . S
C1406 H1420 0.961 . S
C1407 C1404 1.539 . S
C1407 H1421 0.958 . S
C1407 H1422 0.961 . S
C1407 H1423 0.960 . S
H1408 C1392 0.931 . S
H1409 C1397 0.929 . S
H1410 C1398 0.960 . S
H1411 C1398 0.962 . S
H1412 C1398 0.960 . S
H1413 C1399 0.961 . S
H1414 C1399 0.961 . S
H1415 C1399 0.961 . S
H1416 C1400 0.931 . S
H1417 C1405 0.930 . S
H1418 C1406 0.956 . S
H1419 C1406 0.961 . S
H1420 C1406 0.961 . S
H1421 C1407 0.958 . S
H1422 C1407 0.961 . S
H1423 C1407 0.960 . S
C1424 C1425 1.391 . S
C1424 C1426 1.394 . S
C1424 H1440 0.931 . S
C1425 C1424 1.391 . S
C1425 C1429 1.376 . S
C1426 C1424 1.394 . S
C1426 C1427 1.369 . S
C1426 C1430 1.531 . S
C1427 C1426 1.369 . S
C1427 C1428 1.410 . S
C1427 C1435 1.503 . S
C1428 C1427 1.410 . S
C1428 C1429 1.392 . S
C1428 C1431 1.511 . S
C1429 C1425 1.376 . S
C1429 C1428 1.392 . S
C1429 H1441 0.929 . S
C1430 C1426 1.531 . S
C1430 H1442 0.960 . S
C1430 H1443 0.962 . S
C1430 H1444 0.960 . S
C1431 C1428 1.511 . S
C1431 H1445 0.961 . S
C1431 H1446 0.961 . S
C1431 H1447 0.961 . S
C1432 C1433 1.370 . S
C1432 C1434 1.363 . S
C1432 H1448 0.931 . S
C1433 C1432 1.370 . S
C1433 C1437 1.408 . S
C1434 C1432 1.363 . S
C1434 C1435 1.370 . S
C1434 C1438 1.524 . S
C1435 C1427 1.503 . S
C1435 C1434 1.370 . S
C1435 C1436 1.403 . S
C1436 C1435 1.403 . S
C1436 C1437 1.404 . S
C1436 C1439 1.539 . S
C1437 C1433 1.408 . S
C1437 C1436 1.404 . S
C1437 H1449 0.930 . S
C1438 C1434 1.524 . S
C1438 H1450 0.956 . S
C1438 H1451 0.961 . S
C1438 H1452 0.961 . S
C1439 C1436 1.539 . S
C1439 H1453 0.958 . S
C1439 H1454 0.961 . S
C1439 H1455 0.960 . S
H1440 C1424 0.931 . S
H1441 C1429 0.929 . S
H1442 C1430 0.960 . S
H1443 C1430 0.962 . S
H1444 C1430 0.960 . S
H1445 C1431 0.961 . S
H1446 C1431 0.961 . S
H1447 C1431 0.961 . S
H1448 C1432 0.931 . S
H1449 C1437 0.930 . S
H1450 C1438 0.956 . S
H1451 C1438 0.961 . S
H1452 C1438 0.961 . S
H1453 C1439 0.958 . S
H1454 C1439 0.961 . S
H1455 C1439 0.960 . S
C1456 C1457 1.391 . S
C1456 C1458 1.394 . S
C1456 H1472 0.931 . S
C1457 C1456 1.391 . S
C1457 C1461 1.376 . S
C1458 C1456 1.394 . S
C1458 C1459 1.369 . S
C1458 C1462 1.531 . S
C1459 C1458 1.369 . S
C1459 C1460 1.410 . S
C1459 C1467 1.503 . S
C1460 C1459 1.410 . S
C1460 C1461 1.392 . S
C1460 C1463 1.511 . S
C1461 C1457 1.376 . S
C1461 C1460 1.392 . S
C1461 H1473 0.929 . S
C1462 C1458 1.531 . S
C1462 H1474 0.960 . S
C1462 H1475 0.962 . S
C1462 H1476 0.960 . S
C1463 C1460 1.511 . S
C1463 H1477 0.961 . S
C1463 H1478 0.961 . S
C1463 H1479 0.961 . S
C1464 C1465 1.370 . S
C1464 C1466 1.363 . S
C1464 H1480 0.931 . S
C1465 C1464 1.370 . S
C1465 C1469 1.408 . S
C1466 C1464 1.363 . S
C1466 C1467 1.370 . S
C1466 C1470 1.524 . S
C1467 C1459 1.503 . S
C1467 C1466 1.370 . S
C1467 C1468 1.403 . S
C1468 C1467 1.403 . S
C1468 C1469 1.404 . S
C1468 C1471 1.539 . S
C1469 C1465 1.408 . S
C1469 C1468 1.404 . S
C1469 H1481 0.930 . S
C1470 C1466 1.524 . S
C1470 H1482 0.956 . S
C1470 H1483 0.961 . S
C1470 H1484 0.961 . S
C1471 C1468 1.539 . S
C1471 H1485 0.958 . S
C1471 H1486 0.961 . S
C1471 H1487 0.960 . S
H1472 C1456 0.931 . S
H1473 C1461 0.929 . S
H1474 C1462 0.960 . S
H1475 C1462 0.962 . S
H1476 C1462 0.960 . S
H1477 C1463 0.961 . S
H1478 C1463 0.961 . S
H1479 C1463 0.961 . S
H1480 C1464 0.931 . S
H1481 C1469 0.930 . S
H1482 C1470 0.956 . S
H1483 C1470 0.961 . S
H1484 C1470 0.961 . S
H1485 C1471 0.958 . S
H1486 C1471 0.961 . S
H1487 C1471 0.960 . S
C1488 C1489 1.391 . S
C1488 C1490 1.394 . S
C1488 H1504 0.931 . S
C1489 C1488 1.391 . S
C1489 C1493 1.376 . S
C1490 C1488 1.394 . S
C1490 C1491 1.369 . S
C1490 C1494 1.531 . S
C1491 C1490 1.369 . S
C1491 C1492 1.410 . S
C1491 C1499 1.503 . S
C1492 C1491 1.410 . S
C1492 C1493 1.392 . S
C1492 C1495 1.511 . S
C1493 C1489 1.376 . S
C1493 C1492 1.392 . S
C1493 H1505 0.929 . S
C1494 C1490 1.531 . S
C1494 H1506 0.960 . S
C1494 H1507 0.962 . S
C1494 H1508 0.960 . S
C1495 C1492 1.511 . S
C1495 H1509 0.961 . S
C1495 H1510 0.961 . S
C1495 H1511 0.961 . S
C1496 C1497 1.370 . S
C1496 C1498 1.363 . S
C1496 H1512 0.931 . S
C1497 C1496 1.370 . S
C1497 C1501 1.408 . S
C1498 C1496 1.363 . S
C1498 C1499 1.370 . S
C1498 C1502 1.524 . S
C1499 C1491 1.503 . S
C1499 C1498 1.370 . S
C1499 C1500 1.403 . S
C1500 C1499 1.403 . S
C1500 C1501 1.404 . S
C1500 C1503 1.539 . S
C1501 C1497 1.408 . S
C1501 C1500 1.404 . S
C1501 H1513 0.930 . S
C1502 C1498 1.524 . S
C1502 H1514 0.956 . S
C1502 H1515 0.961 . S
C1502 H1516 0.961 . S
C1503 C1500 1.539 . S
C1503 H1517 0.958 . S
C1503 H1518 0.961 . S
C1503 H1519 0.960 . S
H1504 C1488 0.931 . S
H1505 C1493 0.929 . S
H1506 C1494 0.960 . S
H1507 C1494 0.962 . S
H1508 C1494 0.960 . S
H1509 C1495 0.961 . S
H1510 C1495 0.961 . S
H1511 C1495 0.961 . S
H1512 C1496 0.931 . S
H1513 C1501 0.930 . S
H1514 C1502 0.956 . S
H1515 C1502 0.961 . S
H1516 C1502 0.961 . S
H1517 C1503 0.958 . S
H1518 C1503 0.961 . S
H1519 C1503 0.960 . S
C1520 C1521 1.391 . S
C1520 C1522 1.394 . S
C1520 H1536 0.931 . S
C1521 C1520 1.391 . S
C1521 C1525 1.376 . S
C1522 C1520 1.394 . S
C1522 C1523 1.369 . S
C1522 C1526 1.531 . S
C1523 C1522 1.369 . S
C1523 C1524 1.410 . S
C1523 C1531 1.503 . S
C1524 C1523 1.410 . S
C1524 C1525 1.392 . S
C1524 C1527 1.511 . S
C1525 C1521 1.376 . S
C1525 C1524 1.392 . S
C1525 H1537 0.929 . S
C1526 C1522 1.531 . S
C1526 H1538 0.960 . S
C1526 H1539 0.962 . S
C1526 H1540 0.960 . S
C1527 C1524 1.511 . S
C1527 H1541 0.961 . S
C1527 H1542 0.961 . S
C1527 H1543 0.961 . S
C1528 C1529 1.370 . S
C1528 C1530 1.363 . S
C1528 H1544 0.931 . S
C1529 C1528 1.370 . S
C1529 C1533 1.408 . S
C1530 C1528 1.363 . S
C1530 C1531 1.370 . S
C1530 C1534 1.524 . S
C1531 C1523 1.503 . S
C1531 C1530 1.370 . S
C1531 C1532 1.403 . S
C1532 C1531 1.403 . S
C1532 C1533 1.404 . S
C1532 C1535 1.539 . S
C1533 C1529 1.408 . S
C1533 C1532 1.404 . S
C1533 H1545 0.930 . S
C1534 C1530 1.524 . S
C1534 H1546 0.956 . S
C1534 H1547 0.961 . S
C1534 H1548 0.961 . S
C1535 C1532 1.539 . S
C1535 H1549 0.958 . S
C1535 H1550 0.961 . S
C1535 H1551 0.960 . S
H1536 C1520 0.931 . S
H1537 C1525 0.929 . S
H1538 C1526 0.960 . S
H1539 C1526 0.962 . S
H1540 C1526 0.960 . S
H1541 C1527 0.961 . S
H1542 C1527 0.961 . S
H1543 C1527 0.961 . S
H1544 C1528 0.931 . S
H1545 C1533 0.930 . S
H1546 C1534 0.956 . S
H1547 C1534 0.961 . S
H1548 C1534 0.961 . S
H1549 C1535 0.958 . S
H1550 C1535 0.961 . S
H1551 C1535 0.960 . S
C1552 C1553 1.391 . S
C1552 C1554 1.394 . S
C1552 H1568 0.931 . S
C1553 C1552 1.391 . S
C1553 C1557 1.376 . S
C1554 C1552 1.394 . S
C1554 C1555 1.369 . S
C1554 C1558 1.531 . S
C1555 C1554 1.369 . S
C1555 C1556 1.410 . S
C1555 C1563 1.503 . S
C1556 C1555 1.410 . S
C1556 C1557 1.392 . S
C1556 C1559 1.511 . S
C1557 C1553 1.376 . S
C1557 C1556 1.392 . S
C1557 H1569 0.929 . S
C1558 C1554 1.531 . S
C1558 H1570 0.960 . S
C1558 H1571 0.962 1_455 S
C1558 H1572 0.960 . S
C1559 C1556 1.511 . S
C1559 H1573 0.961 . S
C1559 H1574 0.961 . S
C1559 H1575 0.961 . S
C1560 C1561 1.370 1_655 S
C1560 C1562 1.363 . S
C1560 H1576 0.931 . S
C1561 C1560 1.370 1_455 S
C1561 C1565 1.408 . S
C1562 C1560 1.363 . S
C1562 C1563 1.370 1_655 S
C1562 C1566 1.524 . S
C1563 C1555 1.503 . S
C1563 C1562 1.370 1_455 S
C1563 C1564 1.403 . S
C1564 C1563 1.403 . S
C1564 C1565 1.404 . S
C1564 C1567 1.539 . S
C1565 C1561 1.408 . S
C1565 C1564 1.404 . S
C1565 H1577 0.930 . S
C1566 C1562 1.524 . S
C1566 H1578 0.956 . S
C1566 H1579 0.961 . S
C1566 H1580 0.961 . S
C1567 C1564 1.539 . S
C1567 H1581 0.958 . S
C1567 H1582 0.961 . S
C1567 H1583 0.960 . S
H1568 C1552 0.931 . S
H1569 C1557 0.929 . S
H1570 C1558 0.960 . S
H1571 C1558 0.962 1_655 S
H1572 C1558 0.960 . S
H1573 C1559 0.961 . S
H1574 C1559 0.961 . S
H1575 C1559 0.961 . S
H1576 C1560 0.931 . S
H1577 C1565 0.930 . S
H1578 C1566 0.956 . S
H1579 C1566 0.961 . S
H1580 C1566 0.961 . S
H1581 C1567 0.958 . S
H1582 C1567 0.961 . S
H1583 C1567 0.960 . S
C1584 C1585 1.391 . S
C1584 C1586 1.394 . S
C1584 H1600 0.931 . S
C1585 C1584 1.391 . S
C1585 C1589 1.376 . S
C1586 C1584 1.394 . S
C1586 C1587 1.369 . S
C1586 C1590 1.531 . S
C1587 C1586 1.369 . S
C1587 C1588 1.410 . S
C1587 C1595 1.503 . S
C1588 C1587 1.410 . S
C1588 C1589 1.392 . S
C1588 C1591 1.511 . S
C1589 C1585 1.376 . S
C1589 C1588 1.392 . S
C1589 H1601 0.929 . S
C1590 C1586 1.531 . S
C1590 H1602 0.960 . S
C1590 H1603 0.962 . S
C1590 H1604 0.960 . S
C1591 C1588 1.511 . S
C1591 H1605 0.961 . S
C1591 H1606 0.961 . S
C1591 H1607 0.961 . S
C1592 C1593 1.370 . S
C1592 C1594 1.363 . S
C1592 H1608 0.931 . S
C1593 C1592 1.370 . S
C1593 C1597 1.408 . S
C1594 C1592 1.363 . S
C1594 C1595 1.370 . S
C1594 C1598 1.524 . S
C1595 C1587 1.503 . S
C1595 C1594 1.370 . S
C1595 C1596 1.403 . S
C1596 C1595 1.403 . S
C1596 C1597 1.404 . S
C1596 C1599 1.539 . S
C1597 C1593 1.408 . S
C1597 C1596 1.404 . S
C1597 H1609 0.930 . S
C1598 C1594 1.524 . S
C1598 H1610 0.956 . S
C1598 H1611 0.961 . S
C1598 H1612 0.961 . S
C1599 C1596 1.539 . S
C1599 H1613 0.958 . S
C1599 H1614 0.961 . S
C1599 H1615 0.960 . S
H1600 C1584 0.931 . S
H1601 C1589 0.929 . S
H1602 C1590 0.960 . S
H1603 C1590 0.962 . S
H1604 C1590 0.960 . S
H1605 C1591 0.961 . S
H1606 C1591 0.961 . S
H1607 C1591 0.961 . S
H1608 C1592 0.931 . S
H1609 C1597 0.930 . S
H1610 C1598 0.956 . S
H1611 C1598 0.961 . S
H1612 C1598 0.961 . S
H1613 C1599 0.958 . S
H1614 C1599 0.961 . S
H1615 C1599 0.960 . S
C1616 C1617 1.391 . S
C1616 C1618 1.394 . S
C1616 H1632 0.931 . S
C1617 C1616 1.391 . S
C1617 C1621 1.376 . S
C1618 C1616 1.394 . S
C1618 C1619 1.369 . S
C1618 C1622 1.531 . S
C1619 C1618 1.369 . S
C1619 C1620 1.410 . S
C1619 C1627 1.503 . S
C1620 C1619 1.410 . S
C1620 C1621 1.392 . S
C1620 C1623 1.511 . S
C1621 C1617 1.376 . S
C1621 C1620 1.392 . S
C1621 H1633 0.929 . S
C1622 C1618 1.531 . S
C1622 H1634 0.960 . S
C1622 H1635 0.962 . S
C1622 H1636 0.960 . S
C1623 C1620 1.511 . S
C1623 H1637 0.961 . S
C1623 H1638 0.961 . S
C1623 H1639 0.961 . S
C1624 C1625 1.370 . S
C1624 C1626 1.363 . S
C1624 H1640 0.931 . S
C1625 C1624 1.370 . S
C1625 C1629 1.408 . S
C1626 C1624 1.363 . S
C1626 C1627 1.370 . S
C1626 C1630 1.524 . S
C1627 C1619 1.503 . S
C1627 C1626 1.370 . S
C1627 C1628 1.403 . S
C1628 C1627 1.403 . S
C1628 C1629 1.404 . S
C1628 C1631 1.539 . S
C1629 C1625 1.408 . S
C1629 C1628 1.404 . S
C1629 H1641 0.930 . S
C1630 C1626 1.524 . S
C1630 H1642 0.956 . S
C1630 H1643 0.961 . S
C1630 H1644 0.961 . S
C1631 C1628 1.539 . S
C1631 H1645 0.958 . S
C1631 H1646 0.961 . S
C1631 H1647 0.960 . S
H1632 C1616 0.931 . S
H1633 C1621 0.929 . S
H1634 C1622 0.960 . S
H1635 C1622 0.962 . S
H1636 C1622 0.960 . S
H1637 C1623 0.961 . S
H1638 C1623 0.961 . S
H1639 C1623 0.961 . S
H1640 C1624 0.931 . S
H1641 C1629 0.930 . S
H1642 C1630 0.956 . S
H1643 C1630 0.961 . S
H1644 C1630 0.961 . S
H1645 C1631 0.958 . S
H1646 C1631 0.961 . S
H1647 C1631 0.960 . S
C1648 C1649 1.391 . S
C1648 C1650 1.394 . S
C1648 H1664 0.931 . S
C1649 C1648 1.391 . S
C1649 C1653 1.376 . S
C1650 C1648 1.394 . S
C1650 C1651 1.369 . S
C1650 C1654 1.531 . S
C1651 C1650 1.369 . S
C1651 C1652 1.410 . S
C1651 C1659 1.503 1_455 S
C1652 C1651 1.410 . S
C1652 C1653 1.392 . S
C1652 C1655 1.511 . S
C1653 C1649 1.376 . S
C1653 C1652 1.392 . S
C1653 H1665 0.929 . S
C1654 C1650 1.531 . S
C1654 H1666 0.960 . S
C1654 H1667 0.962 . S
C1654 H1668 0.960 . S
C1655 C1652 1.511 . S
C1655 H1669 0.961 . S
C1655 H1670 0.961 . S
C1655 H1671 0.961 . S
C1656 C1657 1.370 . S
C1656 C1658 1.363 . S
C1656 H1672 0.931 . S
C1657 C1656 1.370 . S
C1657 C1661 1.408 . S
C1658 C1656 1.363 . S
C1658 C1659 1.370 . S
C1658 C1662 1.524 1_655 S
C1659 C1651 1.503 1_655 S
C1659 C1658 1.370 . S
C1659 C1660 1.403 . S
C1660 C1659 1.403 . S
C1660 C1661 1.404 . S
C1660 C1663 1.539 . S
C1661 C1657 1.408 . S
C1661 C1660 1.404 . S
C1661 H1673 0.930 . S
C1662 C1658 1.524 1_455 S
C1662 H1674 0.956 . S
C1662 H1675 0.961 . S
C1662 H1676 0.961 1_455 S
C1663 C1660 1.539 . S
C1663 H1677 0.958 1_655 S
C1663 H1678 0.961 . S
C1663 H1679 0.960 1_655 S
H1664 C1648 0.931 . S
H1665 C1653 0.929 . S
H1666 C1654 0.960 . S
H1667 C1654 0.962 . S
H1668 C1654 0.960 . S
H1669 C1655 0.961 . S
H1670 C1655 0.961 . S
H1671 C1655 0.961 . S
H1672 C1656 0.931 . S
H1673 C1661 0.930 . S
H1674 C1662 0.956 . S
H1675 C1662 0.961 . S
H1676 C1662 0.961 1_655 S
H1677 C1663 0.958 1_455 S
H1678 C1663 0.961 . S
H1679 C1663 0.960 1_455 S
C1680 C1681 1.391 . S
C1680 C1682 1.394 . S
C1680 H1696 0.931 . S
C1681 C1680 1.391 . S
C1681 C1685 1.376 . S
C1682 C1680 1.394 . S
C1682 C1683 1.369 . S
C1682 C1686 1.531 . S
C1683 C1682 1.369 . S
C1683 C1684 1.410 1_455 S
C1683 C1691 1.503 . S
C1684 C1683 1.410 1_655 S
C1684 C1685 1.392 1_655 S
C1684 C1687 1.511 . S
C1685 C1681 1.376 . S
C1685 C1684 1.392 1_455 S
C1685 H1697 0.929 1_455 S
C1686 C1682 1.531 . S
C1686 H1698 0.960 . S
C1686 H1699 0.962 . S
C1686 H1700 0.960 . S
C1687 C1684 1.511 . S
C1687 H1701 0.961 . S
C1687 H1702 0.961 . S
C1687 H1703 0.961 . S
C1688 C1689 1.370 . S
C1688 C1690 1.363 . S
C1688 H1704 0.931 . S
C1689 C1688 1.370 . S
C1689 C1693 1.408 1_455 S
C1690 C1688 1.363 . S
C1690 C1691 1.370 . S
C1690 C1694 1.524 . S
C1691 C1683 1.503 . S
C1691 C1690 1.370 . S
C1691 C1692 1.403 1_455 S
C1692 C1691 1.403 1_655 S
C1692 C1693 1.404 . S
C1692 C1695 1.539 . S
C1693 C1689 1.408 1_655 S
C1693 C1692 1.404 . S
C1693 H1705 0.930 . S
C1694 C1690 1.524 . S
C1694 H1706 0.956 . S
C1694 H1707 0.961 . S
C1694 H1708 0.961 . S
C1695 C1692 1.539 . S
C1695 H1709 0.958 . S
C1695 H1710 0.961 . S
C1695 H1711 0.960 . S
H1696 C1680 0.931 . S
H1697 C1685 0.929 1_655 S
H1698 C1686 0.960 . S
H1699 C1686 0.962 . S
H1700 C1686 0.960 . S
H1701 C1687 0.961 . S
H1702 C1687 0.961 . S
H1703 C1687 0.961 . S
H1704 C1688 0.931 . S
H1705 C1693 0.930 . S
H1706 C1694 0.956 . S
H1707 C1694 0.961 . S
H1708 C1694 0.961 . S
H1709 C1695 0.958 . S
H1710 C1695 0.961 . S
H1711 C1695 0.960 . S
C1712 C1713 1.391 . S
C1712 C1714 1.394 . S
C1712 H1728 0.931 . S
C1713 C1712 1.391 . S
C1713 C1717 1.376 . S
C1714 C1712 1.394 . S
C1714 C1715 1.369 . S
C1714 C1718 1.531 . S
C1715 C1714 1.369 . S
C1715 C1716 1.410 . S
C1715 C1723 1.504 . S
C1716 C1715 1.410 . S
C1716 C1717 1.392 . S
C1716 C1719 1.511 . S
C1717 C1713 1.376 . S
C1717 C1716 1.392 . S
C1717 H1729 0.929 . S
C1718 C1714 1.531 . S
C1718 H1730 0.960 . S
C1718 H1731 0.962 . S
C1718 H1732 0.960 . S
C1719 C1716 1.511 . S
C1719 H1733 0.961 . S
C1719 H1734 0.961 . S
C1719 H1735 0.961 . S
C1720 C1721 1.370 . S
C1720 C1722 1.363 . S
C1720 H1736 0.931 . S
C1721 C1720 1.370 . S
C1721 C1725 1.408 . S
C1722 C1720 1.363 . S
C1722 C1723 1.370 1_655 S
C1722 C1726 1.524 1_655 S
C1723 C1715 1.504 . S
C1723 C1722 1.370 1_455 S
C1723 C1724 1.402 1_455 S
C1724 C1723 1.402 1_655 S
C1724 C1725 1.404 . S
C1724 C1727 1.530 1_655 S
C1725 C1721 1.408 . S
C1725 C1724 1.404 . S
C1725 H1737 0.930 . S
C1726 C1722 1.524 1_455 S
C1726 H1738 0.956 . S
C1726 H1739 0.961 . S
C1726 H1740 0.961 1_455 S
C1727 C1724 1.530 1_455 S
C1727 H1741 0.963 . S
C1727 H1742 0.949 1_455 S
C1727 H1743 0.976 . S
H1728 C1712 0.931 . S
H1729 C1717 0.929 . S
H1730 C1718 0.960 . S
H1731 C1718 0.962 . S
H1732 C1718 0.960 . S
H1733 C1719 0.961 . S
H1734 C1719 0.961 . S
H1735 C1719 0.961 . S
H1736 C1720 0.931 . S
H1737 C1725 0.930 . S
H1738 C1726 0.956 . S
H1739 C1726 0.961 . S
H1740 C1726 0.961 1_655 S
H1741 C1727 0.963 . S
H1742 C1727 0.949 1_655 S
H1743 C1727 0.976 . S
C1744 C1745 1.391 . S
C1744 C1746 1.394 . S
C1744 H1760 0.931 . S
C1745 C1744 1.391 . S
C1745 C1749 1.376 . S
C1746 C1744 1.394 . S
C1746 C1747 1.369 . S
C1746 C1750 1.531 . S
C1747 C1746 1.369 . S
C1747 C1748 1.410 . S
C1747 C1755 1.503 . S
C1748 C1747 1.410 . S
C1748 C1749 1.392 . S
C1748 C1751 1.511 . S
C1749 C1745 1.376 . S
C1749 C1748 1.392 . S
C1749 H1761 0.929 . S
C1750 C1746 1.531 . S
C1750 H1762 0.960 . S
C1750 H1763 0.962 . S
C1750 H1764 0.960 . S
C1751 C1748 1.511 . S
C1751 H1765 0.961 . S
C1751 H1766 0.961 . S
C1751 H1767 0.961 . S
C1752 C1753 1.370 . S
C1752 C1754 1.363 . S
C1752 H1768 0.931 . S
C1753 C1752 1.370 . S
C1753 C1757 1.408 . S
C1754 C1752 1.363 . S
C1754 C1755 1.370 . S
C1754 C1758 1.524 . S
C1755 C1747 1.503 . S
C1755 C1754 1.370 . S
C1755 C1756 1.403 . S
C1756 C1755 1.403 . S
C1756 C1757 1.404 . S
C1756 C1759 1.539 . S
C1757 C1753 1.408 . S
C1757 C1756 1.404 . S
C1757 H1769 0.930 . S
C1758 C1754 1.524 . S
C1758 H1770 0.956 . S
C1758 H1771 0.961 . S
C1758 H1772 0.961 . S
C1759 C1756 1.539 . S
C1759 H1773 0.958 . S
C1759 H1774 0.961 . S
C1759 H1775 0.960 . S
H1760 C1744 0.931 . S
H1761 C1749 0.929 . S
H1762 C1750 0.960 . S
H1763 C1750 0.962 . S
H1764 C1750 0.960 . S
H1765 C1751 0.961 . S
H1766 C1751 0.961 . S
H1767 C1751 0.961 . S
H1768 C1752 0.931 . S
H1769 C1757 0.930 . S
H1770 C1758 0.956 . S
H1771 C1758 0.961 . S
H1772 C1758 0.961 . S
H1773 C1759 0.958 . S
H1774 C1759 0.961 . S
H1775 C1759 0.960 . S
C1776 C1777 1.391 . S
C1776 C1778 1.394 . S
C1776 H1792 0.931 . S
C1777 C1776 1.391 . S
C1777 C1781 1.376 . S
C1778 C1776 1.394 . S
C1778 C1779 1.369 . S
C1778 C1782 1.531 . S
C1779 C1778 1.369 . S
C1779 C1780 1.410 . S
C1779 C1787 1.503 . S
C1780 C1779 1.410 . S
C1780 C1781 1.392 . S
C1780 C1783 1.511 . S
C1781 C1777 1.376 . S
C1781 C1780 1.392 . S
C1781 H1793 0.929 . S
C1782 C1778 1.531 . S
C1782 H1794 0.960 . S
C1782 H1795 0.962 . S
C1782 H1796 0.960 . S
C1783 C1780 1.511 . S
C1783 H1797 0.961 . S
C1783 H1798 0.961 . S
C1783 H1799 0.961 . S
C1784 C1785 1.370 . S
C1784 C1786 1.363 . S
C1784 H1800 0.931 . S
C1785 C1784 1.370 . S
C1785 C1789 1.408 . S
C1786 C1784 1.363 . S
C1786 C1787 1.370 . S
C1786 C1790 1.524 . S
C1787 C1779 1.503 . S
C1787 C1786 1.370 . S
C1787 C1788 1.403 . S
C1788 C1787 1.403 . S
C1788 C1789 1.404 . S
C1788 C1791 1.539 . S
C1789 C1785 1.408 . S
C1789 C1788 1.404 . S
C1789 H1801 0.930 . S
C1790 C1786 1.524 . S
C1790 H1802 0.956 . S
C1790 H1803 0.961 . S
C1790 H1804 0.961 . S
C1791 C1788 1.539 . S
C1791 H1805 0.958 . S
C1791 H1806 0.961 . S
C1791 H1807 0.960 . S
H1792 C1776 0.931 . S
H1793 C1781 0.929 . S
H1794 C1782 0.960 . S
H1795 C1782 0.962 . S
H1796 C1782 0.960 . S
H1797 C1783 0.961 . S
H1798 C1783 0.961 . S
H1799 C1783 0.961 . S
H1800 C1784 0.931 . S
H1801 C1789 0.930 . S
H1802 C1790 0.956 . S
H1803 C1790 0.961 . S
H1804 C1790 0.961 . S
H1805 C1791 0.958 . S
H1806 C1791 0.961 . S
H1807 C1791 0.960 . S
C529 N434 1.283 . S
C537 N5 1.289 . S
C561 N38 1.256 . S
C569 N368 1.293 . S
C593 N71 1.268 . S
C601 N401 1.285 . S
C625 N104 1.275 . S
C633 N335 1.292 . S
C657 N500 1.262 . S
C665 N137 1.288 . S
C689 N170 1.272 . S
C697 N302 1.283 . S
C721 N203 1.263 . S
C729 N467 1.287 . S
C753 N269 1.304 . S
C761 N236 1.279 . S
C785 C28 1.626 . S
C793 C160 1.638 . S
C817 C61 1.655 . S
C825 C193 1.628 . S
C849 C94 1.646 . S
C857 C226 1.629 . S
C881 C259 1.646 . S
C889 C127 1.631 . S
C913 C358 1.629 . S
C921 C292 1.636 . S
C945 C325 1.617 . S
C953 C391 1.641 . S
C977 C490 1.614 . S
C985 C424 1.644 . S
C1009 C523 1.649 . S
C1017 C457 1.628 . S
C1041 C173 1.172 . S
C1049 C8 1.153 1_565 S
C1073 C41 1.149 . S
C1081 C206 1.149 1_565 S
C1105 C74 1.161 . S
C1113 C239 1.153 . S
C1137 C140 1.099 . S
C1145 C107 1.125 . S
C1169 C149 0.363 . S
C1177 C347 0.396 . S
C1201 C83 0.371 . S
C1209 C281 0.393 . S
C1233 C380 0.362 . S
C1241 C215 0.396 . S
C1265 C314 0.494 . S
C1273 C17 0.452 . S
C1297 C272 1.100 . S
C1305 C404 1.125 . S
C1329 C503 1.149 . S
C1337 C338 1.142 . S
C1361 C437 1.113 . S
C1369 C305 1.133 . S
C1393 C371 1.175 . S
C1401 C470 1.155 . S
C1425 C479 0.514 . S
C1433 C50 0.456 . S
C1457 C182 0.380 . S
C1465 C446 0.397 . S
C1489 C512 0.525 . S
C1497 C116 0.462 . S
C1521 C248 0.501 . S
C1529 C413 0.449 . S
C1553 N14 0.667 . S
C1561 N443 0.568 . S
C1585 N47 0.670 . S
C1593 N377 0.570 . S
C1617 N80 0.623 . S
C1625 N410 0.574 . S
C1649 N113 0.561 . S
C1657 N344 0.598 . S
C1681 N146 0.551 . S
C1689 N509 0.627 . S
C1713 N179 0.546 . S
C1721 N311 0.606 . S
C1745 N476 0.589 . S
C1753 N212 0.619 . S
C1777 N278 0.579 . S
C1785 N245 0.590 . S
