# Generated by pormake.
# Topology upb, (4)-cn, num edge types: 1
# Building blocks:
#     Node 0, Type 0, BuildingBlock: UXUYUI_clean_sbu_0, # of connection points: 4
#     Node 1, Type 0, BuildingBlock: UXUYUI_clean_sbu_0, # of connection points: 4
#     Node 2, Type 0, BuildingBlock: UXUYUI_clean_sbu_0, # of connection points: 4
#     Node 3, Type 0, BuildingBlock: UXUYUI_clean_sbu_0, # of connection points: 4
#     Node 4, Type 0, BuildingBlock: UXUYUI_clean_sbu_0, # of connection points: 4
#     Node 5, Type 0, BuildingBlock: UXUYUI_clean_sbu_0, # of connection points: 4
#     Node 6, Type 0, BuildingBlock: UXUYUI_clean_sbu_0, # of connection points: 4
#     Node 7, Type 0, BuildingBlock: UXUYUI_clean_sbu_0, # of connection points: 4
#     Node 8, Type 0, BuildingBlock: UXUYUI_clean_sbu_0, # of connection points: 4
#     Node 9, Type 0, BuildingBlock: UXUYUI_clean_sbu_0, # of connection points: 4
#     Node 10, Type 0, BuildingBlock: UXUYUI_clean_sbu_0, # of connection points: 4
#     Node 11, Type 0, BuildingBlock: UXUYUI_clean_sbu_0, # of connection points: 4
#     Node 12, Type 0, BuildingBlock: UXUYUI_clean_sbu_0, # of connection points: 4
#     Node 13, Type 0, BuildingBlock: UXUYUI_clean_sbu_0, # of connection points: 4
#     Node 14, Type 0, BuildingBlock: UXUYUI_clean_sbu_0, # of connection points: 4
#     Node 15, Type 0, BuildingBlock: UXUYUI_clean_sbu_0, # of connection points: 4
#     Edge 16, Type (0, 0), BuildingBlock: KIFKEQ_clean_linker_1, # of connection points: 2
#     Edge 17, Type (0, 0), BuildingBlock: KIFKEQ_clean_linker_1, # of connection points: 2
#     Edge 18, Type (0, 0), BuildingBlock: KIFKEQ_clean_linker_1, # of connection points: 2
#     Edge 19, Type (0, 0), BuildingBlock: KIFKEQ_clean_linker_1, # of connection points: 2
#     Edge 20, Type (0, 0), BuildingBlock: KIFKEQ_clean_linker_1, # of connection points: 2
#     Edge 21, Type (0, 0), BuildingBlock: KIFKEQ_clean_linker_1, # of connection points: 2
#     Edge 22, Type (0, 0), BuildingBlock: KIFKEQ_clean_linker_1, # of connection points: 2
#     Edge 23, Type (0, 0), BuildingBlock: KIFKEQ_clean_linker_1, # of connection points: 2
#     Edge 24, Type (0, 0), BuildingBlock: KIFKEQ_clean_linker_1, # of connection points: 2
#     Edge 25, Type (0, 0), BuildingBlock: KIFKEQ_clean_linker_1, # of connection points: 2
#     Edge 26, Type (0, 0), BuildingBlock: KIFKEQ_clean_linker_1, # of connection points: 2
#     Edge 27, Type (0, 0), BuildingBlock: KIFKEQ_clean_linker_1, # of connection points: 2
#     Edge 28, Type (0, 0), BuildingBlock: KIFKEQ_clean_linker_1, # of connection points: 2
#     Edge 29, Type (0, 0), BuildingBlock: KIFKEQ_clean_linker_1, # of connection points: 2
#     Edge 30, Type (0, 0), BuildingBlock: KIFKEQ_clean_linker_1, # of connection points: 2
#     Edge 31, Type (0, 0), BuildingBlock: KIFKEQ_clean_linker_1, # of connection points: 2
#     Edge 32, Type (0, 0), BuildingBlock: KIFKEQ_clean_linker_1, # of connection points: 2
#     Edge 33, Type (0, 0), BuildingBlock: KIFKEQ_clean_linker_1, # of connection points: 2
#     Edge 34, Type (0, 0), BuildingBlock: KIFKEQ_clean_linker_1, # of connection points: 2
#     Edge 35, Type (0, 0), BuildingBlock: KIFKEQ_clean_linker_1, # of connection points: 2
#     Edge 36, Type (0, 0), BuildingBlock: KIFKEQ_clean_linker_1, # of connection points: 2
#     Edge 37, Type (0, 0), BuildingBlock: KIFKEQ_clean_linker_1, # of connection points: 2
#     Edge 38, Type (0, 0), BuildingBlock: KIFKEQ_clean_linker_1, # of connection points: 2
#     Edge 39, Type (0, 0), BuildingBlock: KIFKEQ_clean_linker_1, # of connection points: 2
#     Edge 40, Type (0, 0), BuildingBlock: KIFKEQ_clean_linker_1, # of connection points: 2
#     Edge 41, Type (0, 0), BuildingBlock: KIFKEQ_clean_linker_1, # of connection points: 2
#     Edge 42, Type (0, 0), BuildingBlock: KIFKEQ_clean_linker_1, # of connection points: 2
#     Edge 43, Type (0, 0), BuildingBlock: KIFKEQ_clean_linker_1, # of connection points: 2
#     Edge 44, Type (0, 0), BuildingBlock: KIFKEQ_clean_linker_1, # of connection points: 2
#     Edge 45, Type (0, 0), BuildingBlock: KIFKEQ_clean_linker_1, # of connection points: 2
#     Edge 46, Type (0, 0), BuildingBlock: KIFKEQ_clean_linker_1, # of connection points: 2
#     Edge 47, Type (0, 0), BuildingBlock: KIFKEQ_clean_linker_1, # of connection points: 2
# Relax obj value: 0.322
# Max RMSD: 0.141
# Mean RMSD: 0.140
data_MOF--net-upb--node1-UXUYUI_clean_sbu_0--edge1-KIFKEQ_clean_linker_1
_symmetry_space_group_name_H-M    P1
_symmetry_Int_Tables_number       1
_symmetry_cell_setting            triclinic
loop_
_symmetry_equiv_pos_as_xyz
'x, y, z'
_cell_length_a     52.149662
_cell_length_b     52.080045
_cell_length_c     73.44699
_cell_angle_alpha  90.005118
_cell_angle_beta   90.001984
_cell_angle_gamma 89.999419
loop_
_atom_site_label
_atom_site_type_symbol
_atom_site_fract_x
_atom_site_fract_y
_atom_site_fract_z
_atom_type_partial_charge
Li0 Li 0.02173 0.28004 0.349 0.0
Li1 Li 0.99673 0.30898 0.37024 0.0
Li2 Li 0.97585 0.28421 0.34726 0.0
Li3 Li 0.00064 0.31986 0.33781 0.0
C4 C 0.98294 0.2502 0.37316 0.0
N5 N 0.95341 0.20806 0.38221 0.0
C6 C 0.96379 0.25235 0.38638 0.0
C7 C 0.98726 0.22658 0.36466 0.0
C8 C 0.94902 0.23083 0.39074 0.0
C9 C 0.97207 0.20551 0.36939 0.0
C10 C 0.05062 0.32799 0.36021 0.0
C11 C 0.07809 0.36525 0.36005 0.0
N12 N 0.09654 0.35154 0.36882 0.0
C13 C 0.06988 0.31425 0.36917 0.0
C14 C 0.05477 0.35369 0.35556 0.0
C15 C 0.09294 0.32651 0.37344 0.0
C16 C 0.06576 0.26026 0.3317 0.0
N17 N 0.05091 0.25877 0.34686 0.0
C18 C 0.07788 0.2263 0.35946 0.0
C19 C 0.05653 0.24233 0.36065 0.0
C20 C 0.09362 0.22723 0.34393 0.0
C21 C 0.08735 0.24455 0.32993 0.0
H22 H 0.06081 0.27366 0.32101 0.0
H23 H 0.04436 0.24167 0.37256 0.0
C24 C 0.97239 0.32426 0.40277 0.0
N25 N 0.99561 0.32091 0.3947 0.0
C26 C 0.97087 0.33027 0.42127 0.0
C27 C 0.01719 0.33013 0.42263 0.0
C28 C 0.01779 0.32396 0.40415 0.0
C29 C 0.99349 0.3329 0.4315 0.0
H30 H 0.95504 0.3215 0.39493 0.0
H31 H 0.03596 0.32074 0.39754 0.0
C32 C 0.98882 0.28597 0.31028 0.0
N33 N 0.96523 0.28872 0.27666 0.0
C34 C 0.96613 0.29998 0.30818 0.0
C35 C 0.99952 0.27341 0.29529 0.0
C36 C 0.9545 0.30112 0.29107 0.0
C37 C 0.98729 0.27501 0.27841 0.0
C38 C 0.96265 0.34561 0.35726 0.0
C39 C 0.93751 0.35421 0.35474 0.0
C40 C 0.98129 0.36261 0.36371 0.0
C41 C 0.93146 0.37975 0.35866 0.0
C42 C 0.97448 0.38799 0.36748 0.0
N43 N 0.94992 0.39598 0.36489 0.0
C44 C 0.92422 0.26893 0.35219 0.0
C45 C 0.94802 0.24349 0.33142 0.0
C46 C 0.90341 0.2521 0.351 0.0
N47 N 0.94609 0.26403 0.34275 0.0
C48 C 0.92767 0.2263 0.32973 0.0
C49 C 0.90519 0.23012 0.33994 0.0
H50 H 0.92339 0.28527 0.36126 0.0
H51 H 0.96577 0.23988 0.32426 0.0
C52 C 0.02961 0.34311 0.31173 0.0
N53 N 0.00667 0.34579 0.32024 0.0
C54 C 0.03669 0.35993 0.2979 0.0
C55 C 0.99635 0.38217 0.30178 0.0
C56 C 0.98996 0.36474 0.31556 0.0
C57 C 0.01992 0.37968 0.29267 0.0
H58 H 0.04237 0.3277 0.31569 0.0
H59 H 0.97159 0.36615 0.32228 0.0
O60 O 0.99706 0.27122 0.3683 0.0
O61 O 0.02805 0.31618 0.35567 0.0
O62 O 0.00078 0.2847 0.32684 0.0
O63 O 0.96872 0.32066 0.35332 0.0
H64 H 0.96017 0.27052 0.39304 0.0
H65 H 0.00188 0.22466 0.3543 0.0
H66 H 0.934 0.23225 0.40084 0.0
H67 H 0.97502 0.18716 0.36281 0.0
H68 H 0.08155 0.38513 0.35655 0.0
H69 H 0.06696 0.29441 0.37298 0.0
H70 H 0.04016 0.36463 0.34855 0.0
H71 H 0.10796 0.31612 0.38043 0.0
H72 H 0.08175 0.213 0.37045 0.0
H73 H 0.09909 0.2461 0.31782 0.0
H74 H 0.95222 0.3324 0.42757 0.0
H75 H 0.03507 0.33159 0.43006 0.0
H76 H 0.95758 0.30989 0.3196 0.0
H77 H 0.01712 0.26255 0.29671 0.0
H78 H 0.93695 0.31189 0.28925 0.0
H79 H 0.99536 0.26538 0.26668 0.0
H80 H 0.92286 0.34126 0.34975 0.0
H81 H 0.00075 0.3563 0.36588 0.0
H82 H 0.91209 0.38668 0.35674 0.0
H83 H 0.98873 0.40134 0.37248 0.0
H84 H 0.88662 0.25566 0.35929 0.0
H85 H 0.92977 0.20986 0.32083 0.0
H86 H 0.0552 0.35754 0.29142 0.0
H87 H 0.98281 0.39701 0.29801 0.0
Li88 Li 0.67759 0.00032 0.33878 0.0
Li89 Li 0.7138 0.02179 0.35232 0.0
Li90 Li 0.71437 0.9748 0.34878 0.0
Li91 Li 0.68718 0.996 0.37137 0.0
C92 C 0.71416 0.98994 0.31268 0.0
N93 N 0.7164 0.96635 0.27902 0.0
C94 C 0.72883 0.00068 0.2987 0.0
C95 C 0.70059 0.9672 0.30953 0.0
C96 C 0.72973 0.98846 0.28178 0.0
C97 C 0.70199 0.95558 0.29242 0.0
C98 C 0.67769 0.05319 0.36113 0.0
C99 C 0.68647 0.08898 0.38108 0.0
N100 N 0.68124 0.10549 0.36723 0.0
C101 C 0.67216 0.07057 0.34716 0.0
C102 C 0.6847 0.06251 0.37827 0.0
C103 C 0.67416 0.09691 0.35049 0.0
C104 C 0.63069 0.99059 0.31799 0.0
N105 N 0.65244 0.00475 0.32011 0.0
C106 C 0.6399 0.03282 0.29603 0.0
C107 C 0.65771 0.02485 0.30895 0.0
C108 C 0.61649 0.01974 0.29437 0.0
C109 C 0.61227 0.99785 0.30512 0.0
H110 H 0.62724 0.97402 0.32642 0.0
H111 H 0.67561 0.03513 0.31043 0.0
C112 C 0.74768 0.05956 0.36592 0.0
N113 N 0.73497 0.05151 0.35083 0.0
C114 C 0.76442 0.08038 0.36499 0.0
C115 C 0.75454 0.08451 0.33297 0.0
C116 C 0.7378 0.06365 0.33457 0.0
C117 C 0.76841 0.0929 0.34828 0.0
H118 H 0.74508 0.04964 0.37866 0.0
H119 H 0.72742 0.05681 0.32278 0.0
C120 C 0.65379 0.95867 0.35755 0.0
N121 N 0.60565 0.93968 0.36562 0.0
C122 C 0.63413 0.97537 0.36279 0.0
C123 C 0.64898 0.93233 0.35646 0.0
C124 C 0.60992 0.96539 0.36681 0.0
C125 C 0.6245 0.9231 0.36056 0.0
C126 C 0.73464 0.98971 0.38682 0.0
C127 C 0.74708 0.96629 0.38976 0.0
C128 C 0.7319 0.00694 0.4013 0.0
C129 C 0.75614 0.96032 0.40715 0.0
C130 C 0.74118 0.00026 0.4185 0.0
N131 N 0.75299 0.97727 0.42105 0.0
C132 C 0.75747 0.9504 0.334 0.0
C133 C 0.73024 0.92276 0.35083 0.0
C134 C 0.77516 0.93064 0.33146 0.0
N135 N 0.73572 0.94621 0.34372 0.0
C136 C 0.74764 0.90252 0.34889 0.0
C137 C 0.77073 0.90644 0.33936 0.0
H138 H 0.76138 0.96931 0.32859 0.0
H139 H 0.71292 0.92013 0.35872 0.0
C140 C 0.65449 0.0098 0.40049 0.0
N141 N 0.6724 0.99248 0.39505 0.0
C142 C 0.6455 0.00968 0.41837 0.0
C143 C 0.67261 0.97309 0.42451 0.0
C144 C 0.68051 0.9735 0.40636 0.0
C145 C 0.65536 0.99183 0.43093 0.0
H146 H 0.64759 0.02413 0.39104 0.0
H147 H 0.69411 0.9594 0.40153 0.0
O148 O 0.7131 0.0018 0.32929 0.0
O149 O 0.6766 0.02726 0.358 0.0
O150 O 0.67784 0.96785 0.35397 0.0
O151 O 0.72566 0.99584 0.36981 0.0
H152 H 0.73943 0.01828 0.30092 0.0
H153 H 0.68909 0.95859 0.32014 0.0
H154 H 0.74103 0.99656 0.27084 0.0
H155 H 0.6916 0.93798 0.2898 0.0
H156 H 0.69204 0.09638 0.39426 0.0
H157 H 0.66645 0.0639 0.33388 0.0
H158 H 0.68889 0.04948 0.38929 0.0
H159 H 0.67007 0.11052 0.33975 0.0
H160 H 0.64422 0.04934 0.2876 0.0
H161 H 0.59457 0.98708 0.30408 0.0
H162 H 0.77429 0.08645 0.37722 0.0
H163 H 0.75716 0.09341 0.31978 0.0
H164 H 0.63741 0.99583 0.36353 0.0
H165 H 0.66403 0.91915 0.35248 0.0
H166 H 0.59452 0.97809 0.37083 0.0
H167 H 0.6205 0.90275 0.35975 0.0
H168 H 0.74986 0.95286 0.37875 0.0
H169 H 0.7223 0.02508 0.39944 0.0
H170 H 0.76571 0.94222 0.40959 0.0
H171 H 0.73891 0.01333 0.42984 0.0
H172 H 0.79236 0.9345 0.32368 0.0
H173 H 0.74348 0.88438 0.35545 0.0
H174 H 0.63144 0.02389 0.42237 0.0
H175 H 0.68096 0.95894 0.43352 0.0
Li176 Li 0.97772 0.7128 0.34806 0.0
Li177 Li 0.00185 0.68333 0.36926 0.0
Li178 Li 0.02437 0.70908 0.34693 0.0
Li179 Li 0.00098 0.67242 0.33753 0.0
C180 C 0.01653 0.73785 0.3772 0.0
N181 N 0.04675 0.77191 0.39645 0.0
C182 C 0.03753 0.72892 0.38718 0.0
C183 C 0.01084 0.76407 0.37702 0.0
C184 C 0.05259 0.74646 0.39682 0.0
C185 C 0.02637 0.78099 0.38684 0.0
C186 C 0.95425 0.66378 0.36569 0.0
C187 C 0.94213 0.62662 0.38332 0.0
N188 N 0.92118 0.63948 0.38953 0.0
C189 C 0.93243 0.67651 0.37208 0.0
C190 C 0.95898 0.63852 0.37119 0.0
C191 C 0.91601 0.66394 0.38418 0.0
C192 C 0.93682 0.73831 0.3299 0.0
N193 N 0.94915 0.73501 0.34602 0.0
C194 C 0.9216 0.76535 0.36054 0.0
C195 C 0.94186 0.74791 0.36124 0.0
C196 C 0.90888 0.76984 0.34396 0.0
C197 C 0.91661 0.75583 0.32852 0.0
H198 H 0.94303 0.72768 0.31803 0.0
H199 H 0.95187 0.74462 0.37393 0.0
C200 C 0.02157 0.65913 0.40116 0.0
N201 N 0.00165 0.67264 0.39401 0.0
C202 C 0.02238 0.65391 0.41982 0.0
C203 C 0.98192 0.67607 0.42326 0.0
C204 C 0.98214 0.68126 0.40464 0.0
C205 C 0.00241 0.66256 0.43108 0.0
H206 H 0.03728 0.65325 0.39251 0.0
H207 H 0.96714 0.69293 0.39876 0.0
C208 C 0.01196 0.72169 0.31333 0.0
N209 N 0.0374 0.75121 0.2878 0.0
C210 C 0.0346 0.71273 0.30538 0.0
C211 C 0.00218 0.74562 0.30823 0.0
C212 C 0.04721 0.72795 0.29254 0.0
C213 C 0.01533 0.76026 0.2953 0.0
C214 C 0.04312 0.65066 0.34922 0.0
C215 C 0.06318 0.65067 0.33658 0.0
C216 C 0.03495 0.62745 0.35679 0.0
C217 C 0.07451 0.6274 0.33159 0.0
C218 C 0.04675 0.60458 0.35144 0.0
N219 N 0.06612 0.60503 0.33904 0.0
C220 C 0.07776 0.72191 0.34673 0.0
C221 C 0.04929 0.75614 0.34026 0.0
C222 C 0.09881 0.73845 0.34549 0.0
N223 N 0.05363 0.73094 0.34395 0.0
C224 C 0.06968 0.77335 0.33901 0.0
C225 C 0.09491 0.76461 0.34164 0.0
H226 H 0.08067 0.702 0.35028 0.0
H227 H 0.02986 0.76303 0.33874 0.0
C228 C 0.9751 0.6311 0.32159 0.0
N229 N 0.99725 0.64476 0.32056 0.0
C230 C 0.96958 0.61219 0.30875 0.0
C231 C 0.0101 0.62111 0.29415 0.0
C232 C 0.01472 0.64007 0.30721 0.0
C233 C 0.98702 0.60716 0.2946 0.0
H234 H 0.96119 0.63552 0.332 0.0
H235 H 0.03198 0.6514 0.30637 0.0
O236 O 0.00199 0.72109 0.36728 0.0
O237 O 0.9707 0.67589 0.35397 0.0
O238 O 0.9995 0.70718 0.3261 0.0
O239 O 0.03165 0.67323 0.35421 0.0
H240 H 0.04238 0.70873 0.38725 0.0
H241 H 0.99478 0.7713 0.36922 0.0
H242 H 0.06898 0.73984 0.40453 0.0
H243 H 0.02227 0.80135 0.38678 0.0
H244 H 0.94567 0.60714 0.38776 0.0
H245 H 0.92825 0.69591 0.36782 0.0
H246 H 0.97547 0.62821 0.36612 0.0
H247 H 0.89916 0.67364 0.38933 0.0
H248 H 0.916 0.7752 0.3729 0.0
H249 H 0.9076 0.7588 0.31541 0.0
H250 H 0.03862 0.64365 0.42544 0.0
H251 H 0.96651 0.6836 0.43158 0.0
H252 H 0.04264 0.69447 0.30936 0.0
H253 H 0.98482 0.753 0.31434 0.0
H254 H 0.06487 0.72133 0.28639 0.0
H255 H 0.00805 0.77887 0.29129 0.0
H256 H 0.06967 0.66836 0.33043 0.0
H257 H 0.0197 0.62708 0.36673 0.0
H258 H 0.08991 0.62712 0.32172 0.0
H259 H 0.04054 0.58648 0.35716 0.0
H260 H 0.11788 0.73081 0.34761 0.0
H261 H 0.0656 0.79342 0.33652 0.0
H262 H 0.95125 0.60247 0.30947 0.0
H263 H 0.02423 0.61782 0.28361 0.0
Li264 Li 0.31341 0.99814 0.37018 0.0
Li265 Li 0.28643 0.02166 0.34845 0.0
Li266 Li 0.28472 0.97472 0.3503 0.0
Li267 Li 0.32195 0.99706 0.33763 0.0
C268 C 0.26843 0.00414 0.38668 0.0
N269 N 0.25636 0.0133 0.42274 0.0
C270 C 0.26137 0.02878 0.39233 0.0
C271 C 0.26921 0.98413 0.39936 0.0
C272 C 0.25534 0.03302 0.41062 0.0
C273 C 0.26311 0.98917 0.41753 0.0
C274 C 0.34604 0.0371 0.34923 0.0
C275 C 0.37235 0.06146 0.32848 0.0
N276 N 0.39354 0.05453 0.33809 0.0
C277 C 0.36806 0.03025 0.35893 0.0
C278 C 0.34815 0.05287 0.3339 0.0
C279 C 0.39191 0.03926 0.35307 0.0
C280 C 0.34111 0.97856 0.40042 0.0
N281 N 0.32818 0.99921 0.39383 0.0
C282 C 0.33241 0.02107 0.42224 0.0
C283 C 0.32455 0.0206 0.40409 0.0
C284 C 0.34474 0.99953 0.42979 0.0
C285 C 0.34967 0.97833 0.41844 0.0
H286 H 0.34441 0.96209 0.3918 0.0
H287 H 0.3147 0.03696 0.39834 0.0
C288 C 0.23941 0.04673 0.34631 0.0
N289 N 0.26508 0.05093 0.34537 0.0
C290 C 0.22225 0.06704 0.34428 0.0
C291 C 0.25828 0.09579 0.34053 0.0
C292 C 0.27479 0.07483 0.3426 0.0
C293 C 0.2316 0.092 0.34135 0.0
H294 H 0.23229 0.02753 0.34877 0.0
H295 H 0.2953 0.07764 0.34208 0.0
C296 C 0.32219 0.94192 0.35478 0.0
N297 N 0.32128 0.88889 0.35341 0.0
C298 C 0.33051 0.92906 0.33915 0.0
C299 C 0.31343 0.92778 0.36972 0.0
C300 C 0.32993 0.90225 0.33873 0.0
C301 C 0.31309 0.90099 0.36875 0.0
C302 C 0.26839 0.0064 0.31696 0.0
C303 C 0.24407 0.99519 0.31604 0.0
C304 C 0.27351 0.02864 0.30693 0.0
C305 C 0.22522 0.0065 0.30516 0.0
C306 C 0.25413 0.0394 0.29624 0.0
N307 N 0.23059 0.0282 0.29558 0.0
C308 C 0.24388 0.94259 0.361 0.0
C309 C 0.26545 0.92882 0.33435 0.0
C310 C 0.22728 0.92164 0.36007 0.0
N311 N 0.26264 0.94565 0.34836 0.0
C312 C 0.24939 0.90743 0.33296 0.0
C313 C 0.22996 0.90358 0.34596 0.0
H314 H 0.24158 0.9566 0.37171 0.0
H315 H 0.28016 0.93204 0.32424 0.0
C316 C 0.37047 0.98177 0.32522 0.0
N317 N 0.34882 0.99444 0.32022 0.0
C318 C 0.38974 0.97697 0.31249 0.0
C319 C 0.36487 2e-05 0.29004 0.0
C320 C 0.34587 0.00394 0.30313 0.0
C321 C 0.38688 0.98567 0.29447 0.0
H322 H 0.37231 0.97452 0.33896 0.0
H323 H 0.32856 0.0141 0.29955 0.0
O324 O 0.27481 0.99966 0.36888 0.0
O325 O 0.32263 0.02786 0.35444 0.0
O326 O 0.32222 0.96819 0.35537 0.0
O327 O 0.28696 0.99588 0.3278 0.0
H328 H 0.26087 0.04456 0.38278 0.0
H329 H 0.27474 0.96498 0.39527 0.0
H330 H 0.24997 0.05201 0.41519 0.0
H331 H 0.26381 0.9739 0.42751 0.0
H332 H 0.37429 0.07352 0.31657 0.0
H333 H 0.36679 0.0179 0.37073 0.0
H334 H 0.33133 0.05805 0.32609 0.0
H335 H 0.40913 0.03403 0.3604 0.0
H336 H 0.3279 0.03778 0.43039 0.0
H337 H 0.35969 0.96157 0.42346 0.0
H338 H 0.20189 0.06328 0.34537 0.0
H339 H 0.26628 0.11469 0.33821 0.0
H340 H 0.33695 0.93964 0.32734 0.0
H341 H 0.3067 0.93737 0.38186 0.0
H342 H 0.33621 0.89206 0.3267 0.0
H343 H 0.30624 0.88983 0.38018 0.0
H344 H 0.23968 0.97806 0.32375 0.0
H345 H 0.29206 0.03786 0.30773 0.0
H346 H 0.20629 0.99808 0.30437 0.0
H347 H 0.25777 0.05674 0.28856 0.0
H348 H 0.2122 0.9199 0.37012 0.0
H349 H 0.25231 0.894 0.3219 0.0
H350 H 0.40608 0.96554 0.31659 0.0
H351 H 0.36202 0.00767 0.27649 0.0
Li352 Li 0.99912 0.68012 0.66066 0.0
Li353 Li 0.97226 0.71722 0.65351 0.0
Li354 Li 0.99677 0.69512 0.62968 0.0
Li355 Li 0.0181 0.72184 0.65261 0.0
C356 C 0.95438 0.66066 0.64949 0.0
N357 N 0.92676 0.61818 0.66054 0.0
C358 C 0.93297 0.66363 0.66074 0.0
C359 C 0.96162 0.63615 0.64372 0.0
C360 C 0.91928 0.6419 0.6662 0.0
C361 C 0.94745 0.61489 0.64951 0.0
C362 C 0.0107 0.72401 0.68752 0.0
C363 C 0.02715 0.76145 0.70293 0.0
N364 N 0.04167 0.74603 0.71375 0.0
C365 C 0.02574 0.70853 0.69882 0.0
C366 C 0.01132 0.75069 0.68962 0.0
C367 C 0.04127 0.72004 0.712 0.0
C368 C 0.02627 0.63835 0.67491 0.0
N369 N 0.0035 0.65091 0.67592 0.0
C370 C 0.99008 0.62421 0.70063 0.0
C371 C 0.98548 0.64431 0.68845 0.0
C372 C 0.01375 0.61124 0.70023 0.0
C373 C 0.03184 0.61846 0.68697 0.0
H374 H 0.04058 0.64446 0.66521 0.0
H375 H 0.96783 0.65509 0.68934 0.0
C376 C 0.92168 0.73368 0.64614 0.0
N377 N 0.94115 0.735 0.65841 0.0
C378 C 0.90058 0.75005 0.64771 0.0
C379 C 0.91931 0.76766 0.67511 0.0
C380 C 0.93999 0.75094 0.67303 0.0
C381 C 0.89962 0.76786 0.66206 0.0
H382 H 0.9232 0.72083 0.63461 0.0
H383 H 0.95562 0.75142 0.68266 0.0
C384 C 0.0441 0.67636 0.63188 0.0
N385 N 0.07587 0.65495 0.60589 0.0
C386 C 0.06468 0.69045 0.6249 0.0
C387 C 0.03981 0.65131 0.62577 0.0
C388 C 0.0805 0.67929 0.61174 0.0
C389 C 0.05604 0.64085 0.61258 0.0
C390 C 0.97754 0.75073 0.62695 0.0
C391 C 0.96388 0.74595 0.61093 0.0
C392 C 0.97379 0.77385 0.63627 0.0
C393 C 0.94659 0.76436 0.60454 0.0
C394 C 0.95625 0.79172 0.62947 0.0
N395 N 0.94313 0.78664 0.61388 0.0
C396 C 0.98145 0.66906 0.59715 0.0
C397 C 0.01581 0.69857 0.59441 0.0
C398 C 0.98244 0.66384 0.57848 0.0
N399 N 0.99801 0.6862 0.60465 0.0
C400 C 0.01783 0.69358 0.57585 0.0
C401 C 0.00079 0.67625 0.56751 0.0
H402 H 0.96719 0.65982 0.60559 0.0
H403 H 0.02839 0.71247 0.60071 0.0
C404 C 0.06778 0.73615 0.66508 0.0
N405 N 0.04653 0.74427 0.65603 0.0
C406 C 0.08913 0.75225 0.66667 0.0
C407 C 0.06613 0.78473 0.64976 0.0
C408 C 0.04535 0.76802 0.64845 0.0
C409 C 0.08856 0.77683 0.65877 0.0
H410 H 0.0683 0.717 0.67076 0.0
H411 H 0.02841 0.77387 0.64111 0.0
O412 O 0.96809 0.68168 0.64406 0.0
O413 O 0.99572 0.71314 0.67431 0.0
O414 O 0.02816 0.68707 0.64457 0.0
O415 O 0.99412 0.73268 0.63366 0.0
H416 H 0.92712 0.68248 0.66534 0.0
H417 H 0.97807 0.63355 0.63494 0.0
H418 H 0.90274 0.64387 0.67498 0.0
H419 H 0.95291 0.59578 0.64523 0.0
H420 H 0.02798 0.78207 0.7046 0.0
H421 H 0.02556 0.68787 0.69739 0.0
H422 H 0.0001 0.76299 0.68082 0.0
H423 H 0.05307 0.7083 0.7208 0.0
H424 H 0.97544 0.61929 0.71047 0.0
H425 H 0.05063 0.60968 0.68637 0.0
H426 H 0.88592 0.7497 0.63727 0.0
H427 H 0.91907 0.7808 0.68655 0.0
H428 H 0.06823 0.70989 0.62942 0.0
H429 H 0.024 0.64014 0.63107 0.0
H430 H 0.09641 0.69002 0.60614 0.0
H431 H 0.05285 0.62154 0.60765 0.0
H432 H 0.96637 0.72814 0.60358 0.0
H433 H 0.98388 0.77772 0.64885 0.0
H434 H 0.93581 0.76087 0.5922 0.0
H435 H 0.95295 0.80955 0.63666 0.0
H436 H 0.96857 0.6507 0.5727 0.0
H437 H 0.03262 0.70329 0.56815 0.0
H438 H 0.10611 0.74524 0.67355 0.0
H439 H 0.06465 0.80362 0.6437 0.0
Li440 Li 0.29152 0.02136 0.64737 0.0
Li441 Li 0.32681 0.99894 0.65879 0.0
Li442 Li 0.31716 0.99616 0.62616 0.0
Li443 Li 0.28936 0.97405 0.65098 0.0
C444 C 0.33153 0.05172 0.63704 0.0
N445 N 0.33894 0.10348 0.63064 0.0
C446 C 0.33285 0.06895 0.6516 0.0
C447 C 0.33427 0.06078 0.61923 0.0
C448 C 0.3365 0.09505 0.64808 0.0
C449 C 0.33794 0.08702 0.61627 0.0
C450 C 0.29546 0.00216 0.68801 0.0
C451 C 0.29598 0.9824 0.71769 0.0
N452 N 0.30311 0.00521 0.72515 0.0
C453 C 0.30245 0.02549 0.69598 0.0
C454 C 0.29193 0.98048 0.69893 0.0
C455 C 0.30638 0.02661 0.71478 0.0
C456 C 0.25244 0.05134 0.66295 0.0
N457 N 0.26996 0.0512 0.64926 0.0
C458 C 0.25378 0.0911 0.63795 0.0
C459 C 0.27075 0.07047 0.63678 0.0
C460 C 0.2352 0.09168 0.65182 0.0
C461 C 0.23476 0.07138 0.66446 0.0
H462 H 0.25173 0.0355 0.67245 0.0
H463 H 0.28404 0.06961 0.62557 0.0
C464 C 0.37271 0.01963 0.67227 0.0
N465 N 0.35493 0.00114 0.67559 0.0
C466 C 0.3921 0.02456 0.68485 0.0
C467 C 0.37562 0.99022 0.7036 0.0
C468 C 0.35656 0.98591 0.6906 0.0
C469 C 0.39334 0.01021 0.70101 0.0
H470 H 0.37145 0.03109 0.66006 0.0
H471 H 0.3427 0.97083 0.69274 0.0
C472 C 0.25811 0.00752 0.62253 0.0
N473 N 0.21564 0.03359 0.60972 0.0
C474 C 0.23421 0.00395 0.63074 0.0
C475 C 0.26041 0.0243 0.60776 0.0
C476 C 0.21297 0.01733 0.62409 0.0
C477 C 0.2387 0.03729 0.60148 0.0
C478 C 0.34601 0.95411 0.65001 0.0
C479 C 0.37069 0.9603 0.64407 0.0
C480 C 0.3426 0.93496 0.66312 0.0
C481 C 0.39168 0.94733 0.6515 0.0
C482 C 0.36409 0.92239 0.67018 0.0
N483 N 0.38797 0.92881 0.66429 0.0
C484 C 0.35326 0.99936 0.59709 0.0
C485 C 0.31112 0.98621 0.58921 0.0
C486 C 0.36047 0.9995 0.57874 0.0
N487 N 0.32881 0.9932 0.60186 0.0
C488 C 0.31735 0.98654 0.57077 0.0
C489 C 0.34216 0.99357 0.56542 0.0
H490 H 0.36686 0.00498 0.60747 0.0
H491 H 0.29193 0.98112 0.59342 0.0
C492 C 0.24637 0.94869 0.66563 0.0
N493 N 0.26798 0.94547 0.65556 0.0
C494 C 0.22915 0.92839 0.66783 0.0
C495 C 0.2573 0.90162 0.64982 0.0
C496 C 0.27386 0.92251 0.64785 0.0
C497 C 0.23432 0.90452 0.65965 0.0
H498 H 0.24219 0.96725 0.67154 0.0
H499 H 0.2912 0.92058 0.63988 0.0
O500 O 0.32819 0.02606 0.64021 0.0
O501 O 0.29165 0.00064 0.66963 0.0
O502 O 0.27926 0.99515 0.62919 0.0
O503 O 0.32527 0.96692 0.64317 0.0
H504 H 0.33108 0.06223 0.66547 0.0
H505 H 0.33324 0.04777 0.60778 0.0
H506 H 0.33744 0.10861 0.65922 0.0
H507 H 0.33992 0.09432 0.60256 0.0
H508 H 0.29353 0.96573 0.7263 0.0
H509 H 0.30483 0.04252 0.68774 0.0
H510 H 0.28646 0.96229 0.69296 0.0
H511 H 0.31198 0.04449 0.72113 0.0
H512 H 0.25518 0.10632 0.62797 0.0
H513 H 0.22048 0.07052 0.67514 0.0
H514 H 0.40522 0.04028 0.68231 0.0
H515 H 0.37616 0.97839 0.71572 0.0
H516 H 0.23213 0.99119 0.64226 0.0
H517 H 0.27884 0.02767 0.60144 0.0
H518 H 0.19438 0.01485 0.63038 0.0
H519 H 0.24023 0.05046 0.59014 0.0
H520 H 0.37361 0.97517 0.634 0.0
H521 H 0.32361 0.93008 0.66795 0.0
H522 H 0.41093 0.95203 0.64712 0.0
H523 H 0.36177 0.90762 0.6804 0.0
H524 H 0.37975 0.00509 0.57496 0.0
H525 H 0.30286 0.98176 0.56075 0.0
H526 H 0.21155 0.9317 0.67529 0.0
H527 H 0.26233 0.88351 0.64352 0.0
Li528 Li 0.00366 0.32185 0.66214 0.0
Li529 Li 0.02797 0.28491 0.65344 0.0
Li530 Li 0.00447 0.31106 0.63028 0.0
Li531 Li 0.98126 0.28376 0.6532 0.0
C532 C 0.04692 0.34347 0.64336 0.0
N533 N 0.07346 0.38883 0.63822 0.0
C534 C 0.07082 0.3471 0.65159 0.0
C535 C 0.03671 0.36277 0.63229 0.0
C536 C 0.08387 0.37022 0.6489 0.0
C537 C 0.05037 0.3856 0.62992 0.0
C538 C 0.01798 0.28868 0.69032 0.0
C539 C 0.02474 0.27586 0.72152 0.0
N540 N 0.046 0.29094 0.72222 0.0
C541 C 0.03987 0.30409 0.69138 0.0
C542 C 0.0103 0.27448 0.70552 0.0
C543 C 0.05379 0.30497 0.70762 0.0
C544 C 0.98691 0.34353 0.69465 0.0
N545 N 0.00026 0.34966 0.67934 0.0
C546 C 0.00185 0.39378 0.68847 0.0
C547 C 0.008 0.37422 0.67616 0.0
C548 C 0.98792 0.38786 0.70426 0.0
C549 C 0.98076 0.36231 0.70741 0.0
H550 H 0.98004 0.32416 0.69661 0.0
H551 H 0.01799 0.379 0.66382 0.0
C552 C 0.07335 0.26222 0.64115 0.0
N553 N 0.05749 0.2635 0.65579 0.0
C554 C 0.0939 0.24501 0.64098 0.0
C555 C 0.08187 0.23132 0.67122 0.0
C556 C 0.06129 0.2484 0.67064 0.0
C557 C 0.09834 0.22907 0.65614 0.0
H558 H 0.06951 0.27405 0.62935 0.0
H559 H 0.04806 0.24899 0.68191 0.0
C560 C 0.95784 0.33734 0.65219 0.0
N561 N 0.92693 0.37437 0.66779 0.0
C562 C 0.93963 0.33044 0.66526 0.0
C563 C 0.96017 0.36302 0.64691 0.0
C564 C 0.9242 0.34946 0.67301 0.0
C565 C 0.94441 0.38147 0.65501 0.0
C566 C 0.00697 0.24718 0.63127 0.0
C567 C 0.01083 0.23692 0.61392 0.0
C568 C 0.00534 0.2308 0.64631 0.0
C569 C 0.01295 0.21033 0.61187 0.0
C570 C 0.00757 0.20433 0.6437 0.0
N571 N 0.01129 0.19473 0.62668 0.0
C572 C 0.02246 0.31136 0.59433 0.0
C573 C 0.98473 0.33587 0.59902 0.0
C574 C 0.02171 0.31647 0.57568 0.0
N575 N 0.00402 0.3209 0.60549 0.0
C576 C 0.98334 0.34164 0.58048 0.0
C577 C 0.0018 0.33161 0.56847 0.0
H578 H 0.03738 0.29924 0.59989 0.0
H579 H 0.97019 0.34298 0.60822 0.0
C580 C 0.94602 0.25177 0.67202 0.0
N581 N 0.95249 0.26198 0.65563 0.0
C582 C 0.92571 0.23437 0.67329 0.0
C583 C 0.91896 0.23879 0.64086 0.0
C584 C 0.93937 0.25607 0.64022 0.0
C585 C 0.91205 0.22746 0.65752 0.0
H586 H 0.95693 0.2568 0.68401 0.0
H587 H 0.94506 0.26453 0.62739 0.0
O588 O 0.03422 0.32069 0.64552 0.0
O589 O 0.0039 0.28757 0.6746 0.0
O590 O 0.97369 0.3191 0.64491 0.0
O591 O 0.00515 0.27317 0.63351 0.0
H592 H 0.07927 0.33217 0.6599 0.0
H593 H 0.01827 0.36038 0.62584 0.0
H594 H 0.10233 0.37333 0.65525 0.0
H595 H 0.04259 0.40077 0.62151 0.0
H596 H 0.01903 0.26493 0.73337 0.0
H597 H 0.04602 0.3153 0.67984 0.0
H598 H 0.9934 0.26246 0.70496 0.0
H599 H 0.07077 0.31682 0.70861 0.0
H600 H 0.00753 0.41335 0.68553 0.0
H601 H 0.96944 0.35708 0.7192 0.0
H602 H 0.10563 0.2437 0.62886 0.0
H603 H 0.0846 0.21982 0.68334 0.0
H604 H 0.93767 0.31067 0.66956 0.0
H605 H 0.97428 0.36873 0.63691 0.0
H606 H 0.91016 0.34443 0.68324 0.0
H607 H 0.94617 0.40145 0.6512 0.0
H608 H 0.01222 0.24939 0.60216 0.0
H609 H 0.00254 0.23845 0.65986 0.0
H610 H 0.01595 0.2021 0.59852 0.0
H611 H 0.00638 0.19143 0.65521 0.0
H612 H 0.0361 0.30792 0.56695 0.0
H613 H 0.96784 0.35365 0.57561 0.0
H614 H 0.92123 0.2259 0.68637 0.0
H615 H 0.90874 0.2343 0.62842 0.0
Li616 Li 0.71368 0.02655 0.65206 0.0
Li617 Li 0.68629 0.0054 0.62801 0.0
Li618 Li 0.6758 0.00336 0.65937 0.0
Li619 Li 0.71146 0.97892 0.64964 0.0
C620 C 0.65725 0.04725 0.65063 0.0
N621 N 0.61415 0.07039 0.66502 0.0
C622 C 0.6331 0.04213 0.64322 0.0
C623 C 0.65954 0.06423 0.66526 0.0
C624 C 0.61152 0.054 0.65072 0.0
C625 C 0.63749 0.07572 0.67237 0.0
C626 C 0.74488 0.00666 0.62081 0.0
C627 C 0.77987 0.98865 0.6035 0.0
N628 N 0.78748 0.01274 0.59881 0.0
C629 C 0.753 0.03123 0.61573 0.0
C630 C 0.75837 0.98518 0.61458 0.0
C631 C 0.77459 0.0339 0.60464 0.0
C632 C 0.75978 0.04774 0.664 0.0
N633 N 0.7366 0.05377 0.65673 0.0
C634 C 0.7489 0.09769 0.65346 0.0
C635 C 0.73071 0.07816 0.65169 0.0
C636 C 0.77334 0.09194 0.66046 0.0
C637 C 0.77852 0.06664 0.66604 0.0
H638 H 0.76387 0.02809 0.66778 0.0
H639 H 0.71219 0.08225 0.64572 0.0
C640 C 0.65154 0.99875 0.59859 0.0
N641 N 0.67507 0.00772 0.60342 0.0
C642 C 0.64403 0.99871 0.58031 0.0
C643 C 0.68499 0.01737 0.57246 0.0
C644 C 0.69156 0.01725 0.59083 0.0
C645 C 0.66098 0.0079 0.56692 0.0
H646 H 0.63879 0.99124 0.60891 0.0
H647 H 0.71005 0.02438 0.59497 0.0
C648 C 0.70867 0.98558 0.68671 0.0
N649 N 0.7065 0.95479 0.71731 0.0
C650 C 0.69432 0.96289 0.6865 0.0
C651 C 0.72195 0.99256 0.70247 0.0
C652 C 0.69345 0.94761 0.70211 0.0
C653 C 0.72062 0.97674 0.7178 0.0
C654 C 0.67299 0.95404 0.63013 0.0
C655 C 0.65359 0.93583 0.63247 0.0
C656 C 0.69045 0.95123 0.61582 0.0
C657 C 0.65199 0.91508 0.62047 0.0
C658 C 0.6882 0.93024 0.60409 0.0
N659 N 0.66918 0.91274 0.60664 0.0
C660 C 0.62721 0.98804 0.67217 0.0
C661 C 0.65167 0.01259 0.69311 0.0
C662 C 0.60919 0.98238 0.68564 0.0
N663 N 0.64829 0.0022 0.67631 0.0
C664 C 0.63426 0.00726 0.70701 0.0
C665 C 0.61321 0.9912 0.70349 0.0
H666 H 0.62515 0.97995 0.65869 0.0
H667 H 0.66868 0.02376 0.69598 0.0
C668 C 0.75782 0.95479 0.6562 0.0
N669 N 0.7328 0.94955 0.65269 0.0
C670 C 0.77551 0.9349 0.65812 0.0
C671 C 0.74118 0.90443 0.6534 0.0
C672 C 0.72412 0.92497 0.65164 0.0
C673 C 0.76735 0.90928 0.65647 0.0
H674 H 0.76406 0.97455 0.6573 0.0
H675 H 0.70402 0.9212 0.64935 0.0
O676 O 0.6785 0.03534 0.64377 0.0
O677 O 0.72398 0.00365 0.63191 0.0
O678 O 0.70958 0.00114 0.67171 0.0
O679 O 0.67465 0.9744 0.64186 0.0
H680 H 0.63105 0.02893 0.63194 0.0
H681 H 0.67811 0.06823 0.67121 0.0
H682 H 0.59268 0.05012 0.6452 0.0
H683 H 0.63893 0.0888 0.68376 0.0
H684 H 0.79049 0.97219 0.59862 0.0
H685 H 0.74254 0.04805 0.62009 0.0
H686 H 0.75232 0.96599 0.6182 0.0
H687 H 0.78105 0.0528 0.60061 0.0
H688 H 0.7442 0.11682 0.64876 0.0
H689 H 0.79696 0.06143 0.67172 0.0
H690 H 0.62522 0.99149 0.57674 0.0
H691 H 0.69895 0.02421 0.56268 0.0
H692 H 0.68382 0.95718 0.67447 0.0
H693 H 0.73312 0.01009 0.70285 0.0
H694 H 0.68236 0.93006 0.70215 0.0
H695 H 0.73078 0.98193 0.73011 0.0
H696 H 0.63995 0.93767 0.6435 0.0
H697 H 0.70549 0.96511 0.61369 0.0
H698 H 0.63709 0.90083 0.62215 0.0
H699 H 0.70156 0.92788 0.59295 0.0
H700 H 0.59335 0.96971 0.68243 0.0
H701 H 0.63791 0.01452 0.72059 0.0
H702 H 0.79536 0.93957 0.66089 0.0
H703 H 0.73403 0.88502 0.65201 0.0
Li704 Li 0.51844 0.77958 0.84999 0.0
Li705 Li 0.49611 0.80901 0.87098 0.0
Li706 Li 0.47311 0.78422 0.84876 0.0
Li707 Li 0.50035 0.81948 0.8387 0.0
C708 C 0.47738 0.75337 0.87633 0.0
N709 N 0.44225 0.71797 0.88913 0.0
C710 C 0.45939 0.7605 0.88949 0.0
C711 C 0.47764 0.72816 0.86978 0.0
C712 C 0.44176 0.74234 0.89577 0.0
C713 C 0.45968 0.71057 0.87639 0.0
C714 C 0.53849 0.83829 0.86121 0.0
C715 C 0.53379 0.88313 0.86869 0.0
N716 N 0.55972 0.88528 0.86997 0.0
C717 C 0.56507 0.84093 0.86259 0.0
C718 C 0.52267 0.85954 0.86427 0.0
C719 C 0.57545 0.86485 0.86704 0.0
C720 C 0.56605 0.76296 0.83572 0.0
N721 N 0.54753 0.75774 0.84822 0.0
C722 C 0.57071 0.72114 0.85881 0.0
C723 C 0.54958 0.73751 0.8598 0.0
C724 C 0.58991 0.72571 0.84579 0.0
C725 C 0.58742 0.74695 0.83414 0.0
H726 H 0.5641 0.77949 0.82691 0.0
H727 H 0.53482 0.7341 0.86983 0.0
C728 C 0.47603 0.8299 0.904 0.0
N729 N 0.49731 0.82143 0.89517 0.0
C730 C 0.47724 0.83596 0.92253 0.0
C731 C 0.5225 0.82593 0.9221 0.0
C732 C 0.52031 0.81964 0.90374 0.0
C733 C 0.50065 0.83352 0.93193 0.0
H734 H 0.45794 0.83093 0.89682 0.0
H735 H 0.53688 0.81268 0.89638 0.0
C736 C 0.50911 0.77049 0.81489 0.0
N737 N 0.53437 0.74161 0.78889 0.0
C738 C 0.51905 0.78227 0.79932 0.0
C739 C 0.51162 0.74393 0.81706 0.0
C740 C 0.53185 0.76736 0.78637 0.0
C741 C 0.52458 0.7297 0.80382 0.0
C742 C 0.44905 0.83225 0.84483 0.0
C743 C 0.44285 0.82275 0.82756 0.0
C744 C 0.43471 0.85235 0.85225 0.0
C745 C 0.42239 0.83362 0.818 0.0
C746 C 0.41443 0.86273 0.84223 0.0
N747 N 0.40874 0.85322 0.82546 0.0
C748 C 0.42017 0.77326 0.8539 0.0
C749 C 0.44196 0.74498 0.83395 0.0
C750 C 0.39777 0.7587 0.85245 0.0
N751 N 0.44174 0.76601 0.84487 0.0
C752 C 0.42017 0.72964 0.83234 0.0
C753 C 0.39767 0.73622 0.84182 0.0
H754 H 0.42055 0.79004 0.86258 0.0
H755 H 0.45932 0.73958 0.82696 0.0
C756 C 0.53318 0.84523 0.81634 0.0
N757 N 0.50832 0.84613 0.8218 0.0
C758 C 0.54256 0.86293 0.80383 0.0
C759 C 0.50062 0.88259 0.80274 0.0
C760 C 0.49209 0.86459 0.81554 0.0
C761 C 0.52614 0.88171 0.79657 0.0
H762 H 0.54573 0.83048 0.82164 0.0
H763 H 0.47256 0.86543 0.8203 0.0
O764 O 0.49422 0.77113 0.86958 0.0
O765 O 0.52813 0.81499 0.85673 0.0
O766 O 0.49663 0.78486 0.82776 0.0
O767 O 0.4687 0.82177 0.85469 0.0
H768 H 0.45878 0.77994 0.89461 0.0
H769 H 0.4913 0.72231 0.85952 0.0
H770 H 0.42762 0.74766 0.90586 0.0
H771 H 0.45953 0.69106 0.87134 0.0
H772 H 0.5218 0.89974 0.87108 0.0
H773 H 0.57755 0.82465 0.8602 0.0
H774 H 0.50206 0.8579 0.86321 0.0
H775 H 0.596 0.86719 0.86815 0.0
H776 H 0.57183 0.70488 0.86797 0.0
H777 H 0.60197 0.75131 0.82408 0.0
H778 H 0.45981 0.84144 0.92953 0.0
H779 H 0.54107 0.8243 0.92859 0.0
H780 H 0.51673 0.80265 0.79714 0.0
H781 H 0.50417 0.73447 0.82903 0.0
H782 H 0.53971 0.77626 0.77429 0.0
H783 H 0.52694 0.70919 0.80546 0.0
H784 H 0.45367 0.80723 0.82155 0.0
H785 H 0.43922 0.85984 0.86562 0.0
H786 H 0.41739 0.82648 0.80463 0.0
H787 H 0.40319 0.87832 0.8478 0.0
H788 H 0.38085 0.76487 0.85978 0.0
H789 H 0.42136 0.7123 0.82426 0.0
H790 H 0.56255 0.86187 0.79994 0.0
H791 H 0.48725 0.89669 0.79753 0.0
Li792 Li 0.17365 0.49952 0.836 0.0
Li793 Li 0.21108 0.5235 0.84708 0.0
Li794 Li 0.21125 0.4765 0.84449 0.0
Li795 Li 0.18548 0.49802 0.86801 0.0
C796 C 0.2249 0.49351 0.81226 0.0
N797 N 0.26053 0.47399 0.7881 0.0
C798 C 0.24847 0.50583 0.8099 0.0
C799 C 0.21935 0.47139 0.80222 0.0
C800 C 0.26625 0.49564 0.79764 0.0
C801 C 0.23765 0.46178 0.79012 0.0
C802 C 0.17148 0.5541 0.85383 0.0
C803 C 0.17933 0.59564 0.86728 0.0
N804 N 0.16676 0.60696 0.85318 0.0
C805 C 0.15867 0.56616 0.83946 0.0
C806 C 0.18189 0.56895 0.86786 0.0
C807 C 0.15646 0.5929 0.83939 0.0
C808 C 0.12234 0.5096 0.82697 0.0
N809 N 0.14515 0.50171 0.81997 0.0
C810 C 0.12834 0.50322 0.78975 0.0
C811 C 0.14835 0.49793 0.80181 0.0
C812 C 0.10504 0.51283 0.79651 0.0
C813 C 0.10192 0.51539 0.81541 0.0
H814 H 0.12047 0.51265 0.84148 0.0
H815 H 0.16678 0.49194 0.79661 0.0
C816 C 0.25411 0.55357 0.85485 0.0
N817 N 0.23214 0.55328 0.84494 0.0
C818 C 0.27033 0.57482 0.85432 0.0
C819 C 0.24123 0.59509 0.83313 0.0
C820 C 0.22578 0.57318 0.83384 0.0
C821 C 0.26383 0.59621 0.84357 0.0
H822 H 0.25919 0.53718 0.8631 0.0
H823 H 0.2086 0.57215 0.82565 0.0
C824 C 0.15314 0.45742 0.8479 0.0
N825 N 0.10629 0.43657 0.83849 0.0
C826 C 0.1318 0.46125 0.85908 0.0
C827 C 0.15073 0.44287 0.832 0.0
C828 C 0.10826 0.45056 0.85407 0.0
C829 C 0.12685 0.43254 0.82746 0.0
C830 C 0.23228 0.49428 0.88197 0.0
C831 C 0.24011 0.46976 0.88736 0.0
C832 C 0.23296 0.5145 0.89447 0.0
C833 C 0.24832 0.46585 0.90525 0.0
C834 C 0.24122 0.50979 0.91226 0.0
N835 N 0.24866 0.48577 0.91723 0.0
C836 C 0.25932 0.4551 0.83979 0.0
C837 C 0.22618 0.42401 0.83837 0.0
C838 C 0.27792 0.43617 0.83762 0.0
N839 N 0.23408 0.44875 0.84016 0.0
C840 C 0.24423 0.40433 0.83628 0.0
C841 C 0.27054 0.41031 0.83611 0.0
H842 H 0.265 0.47494 0.84144 0.0
H843 H 0.20595 0.41951 0.83893 0.0
C844 C 0.16218 0.51707 0.9 0.0
N845 N 0.17371 0.49622 0.89249 0.0
C846 C 0.15643 0.51749 0.91854 0.0
C847 C 0.17319 0.47436 0.92108 0.0
C848 C 0.1785 0.47476 0.90245 0.0
C849 C 0.16255 0.49618 0.92944 0.0
H850 H 0.15794 0.53362 0.89169 0.0
H851 H 0.18736 0.4583 0.89604 0.0
O852 O 0.20743 0.50293 0.82444 0.0
O853 O 0.17393 0.52793 0.85412 0.0
O854 O 0.17619 0.4682 0.85235 0.0
O855 O 0.2237 0.49841 0.86461 0.0
H856 H 0.2531 0.52296 0.81755 0.0
H857 H 0.20127 0.4615 0.80398 0.0
H858 H 0.28462 0.5049 0.79574 0.0
H859 H 0.2337 0.44455 0.78238 0.0
H860 H 0.1874 0.60735 0.87801 0.0
H861 H 0.15078 0.5551 0.82834 0.0
H862 H 0.1921 0.56 0.87899 0.0
H863 H 0.14666 0.60248 0.82833 0.0
H864 H 0.1316 0.50133 0.77525 0.0
H865 H 0.08421 0.52269 0.82111 0.0
H866 H 0.28792 0.5743 0.86212 0.0
H867 H 0.2353 0.61104 0.82468 0.0
H868 H 0.13336 0.47255 0.87139 0.0
H869 H 0.16706 0.43985 0.82317 0.0
H870 H 0.09154 0.45345 0.86254 0.0
H871 H 0.12465 0.42137 0.81514 0.0
H872 H 0.23956 0.45384 0.87791 0.0
H873 H 0.22695 0.53358 0.89053 0.0
H874 H 0.25431 0.44695 0.90964 0.0
H875 H 0.24166 0.52523 0.92211 0.0
H876 H 0.29791 0.44177 0.83725 0.0
H877 H 0.23768 0.38464 0.83536 0.0
H878 H 0.14766 0.53448 0.92433 0.0
H879 H 0.17835 0.45756 0.92895 0.0
Li880 Li 0.4784 0.21912 0.84365 0.0
Li881 Li 0.49872 0.19249 0.8671 0.0
Li882 Li 0.52442 0.2139 0.84359 0.0
Li883 Li 0.49727 0.17724 0.83641 0.0
C884 C 0.51814 0.2483 0.86957 0.0
N885 N 0.55169 0.285 0.88267 0.0
C886 C 0.53114 0.24425 0.88596 0.0
C887 C 0.52209 0.27109 0.85989 0.0
C888 C 0.54801 0.26304 0.89236 0.0
C889 C 0.53919 0.28937 0.86672 0.0
C890 C 0.45096 0.17572 0.86486 0.0
C891 C 0.43786 0.14308 0.88623 0.0
N892 N 0.41795 0.1582 0.89154 0.0
C893 C 0.43031 0.19089 0.87048 0.0
C894 C 0.45471 0.15156 0.87273 0.0
C895 C 0.41385 0.18169 0.884 0.0
C896 C 0.43061 0.2358 0.82863 0.0
N897 N 0.45078 0.24235 0.83941 0.0
C898 C 0.43202 0.28319 0.84573 0.0
C899 C 0.45168 0.26539 0.84804 0.0
C900 C 0.41105 0.27722 0.83449 0.0
C901 C 0.41043 0.25309 0.82591 0.0
H902 H 0.43015 0.21713 0.82219 0.0
H903 H 0.46753 0.26985 0.85694 0.0
C904 C 0.51277 0.16691 0.90006 0.0
N905 N 0.49686 0.18436 0.89223 0.0
C906 C 0.51145 0.16227 0.91879 0.0
C907 C 0.47706 0.19327 0.92083 0.0
C908 C 0.47937 0.19761 0.90219 0.0
C909 C 0.49346 0.17565 0.92948 0.0
H910 H 0.52679 0.15695 0.89182 0.0
H911 H 0.46725 0.21168 0.89562 0.0
C912 C 0.48786 0.22101 0.80877 0.0
N913 N 0.45957 0.24363 0.7813 0.0
C914 C 0.47289 0.20589 0.79718 0.0
C915 C 0.48847 0.24764 0.80636 0.0
C916 C 0.45875 0.21769 0.78336 0.0
C917 C 0.474 0.25871 0.79242 0.0
C918 C 0.5405 0.15715 0.84737 0.0
C919 C 0.56093 0.15962 0.83519 0.0
C920 C 0.53287 0.13277 0.85319 0.0
C921 C 0.5733 0.13754 0.82889 0.0
C922 C 0.5457 0.11117 0.84655 0.0
N923 N 0.56547 0.11398 0.83464 0.0
C924 C 0.57448 0.23062 0.85215 0.0
C925 C 0.55848 0.24586 0.82395 0.0
C926 C 0.59583 0.24669 0.85079 0.0
N927 N 0.55597 0.23119 0.83913 0.0
C928 C 0.57955 0.26214 0.82199 0.0
C929 C 0.59819 0.26329 0.83579 0.0
H930 H 0.57196 0.21867 0.86407 0.0
H931 H 0.54366 0.24565 0.81369 0.0
C932 C 0.47402 0.13143 0.8244 0.0
N933 N 0.49368 0.14793 0.8212 0.0
C934 C 0.46925 0.11118 0.81245 0.0
C935 C 0.50543 0.1249 0.79432 0.0
C936 C 0.50949 0.14493 0.80664 0.0
C937 C 0.48478 0.10797 0.79698 0.0
H938 H 0.46143 0.13455 0.83585 0.0
H939 H 0.52476 0.15859 0.8043 0.0
O940 O 0.50198 0.22988 0.86285 0.0
O941 O 0.4675 0.18453 0.85182 0.0
O942 O 0.50159 0.20986 0.82254 0.0
O943 O 0.52786 0.17849 0.85343 0.0
H944 H 0.52848 0.2267 0.89358 0.0
H945 H 0.51242 0.27443 0.84708 0.0
H946 H 0.55829 0.26011 0.90498 0.0
H947 H 0.54262 0.30696 0.85928 0.0
H948 H 0.44066 0.12452 0.89253 0.0
H949 H 0.42713 0.20965 0.86459 0.0
H950 H 0.4707 0.13964 0.86864 0.0
H951 H 0.39786 0.19328 0.88853 0.0
H952 H 0.43301 0.30126 0.85299 0.0
H953 H 0.39465 0.24771 0.81712 0.0
H954 H 0.52481 0.14885 0.92484 0.0
H955 H 0.46257 0.20372 0.92834 0.0
H956 H 0.472 0.18529 0.7989 0.0
H957 H 0.49964 0.25968 0.81537 0.0
H958 H 0.44703 0.20623 0.77432 0.0
H959 H 0.47416 0.2793 0.79048 0.0
H960 H 0.56702 0.17836 0.83052 0.0
H961 H 0.51704 0.13056 0.86259 0.0
H962 H 0.58907 0.13913 0.81939 0.0
H963 H 0.5399 0.09216 0.85084 0.0
H964 H 0.6096 0.24705 0.86182 0.0
H965 H 0.58087 0.2742 0.81001 0.0
H966 H 0.4528 0.09896 0.81486 0.0
H967 H 0.51795 0.12306 0.78263 0.0
Li968 Li 0.78527 0.52275 0.84802 0.0
Li969 Li 0.8131 0.49993 0.86961 0.0
Li970 Li 0.8212 0.49897 0.83696 0.0
Li971 Li 0.78475 0.47574 0.84987 0.0
C972 C 0.84441 0.53964 0.84821 0.0
N973 N 0.89108 0.55826 0.83631 0.0
C974 C 0.86687 0.53345 0.8576 0.0
C975 C 0.84563 0.55537 0.83281 0.0
C976 C 0.8903 0.54306 0.85136 0.0
C977 C 0.86943 0.56456 0.827 0.0
C978 C 0.76757 0.50433 0.88625 0.0
C979 C 0.76335 0.48895 0.9171 0.0
N980 N 0.75429 0.51234 0.92225 0.0
C981 C 0.75816 0.5282 0.89185 0.0
C982 C 0.7701 0.4845 0.89897 0.0
C983 C 0.75155 0.53186 0.9101 0.0
C984 C 0.73774 0.54697 0.84502 0.0
N985 N 0.76338 0.55163 0.84514 0.0
C986 C 0.75612 0.59672 0.8421 0.0
C987 C 0.77284 0.57587 0.84375 0.0
C988 C 0.72951 0.59244 0.84181 0.0
C989 C 0.72039 0.56715 0.84323 0.0
H990 H 0.7308 0.52751 0.84652 0.0
H991 H 0.79332 0.57902 0.8441 0.0
C992 C 0.84286 0.48157 0.8992 0.0
N993 N 0.82802 0.50127 0.89323 0.0
C994 C 0.85118 0.48089 0.91727 0.0
C995 C 0.82963 0.52132 0.92243 0.0
C996 C 0.82231 0.5215 0.90417 0.0
C997 C 0.84378 0.50049 0.9294 0.0
H998 H 0.84774 0.46607 0.89005 0.0
H999 H 0.81099 0.53723 0.89892 0.0
C1000 C 0.76769 0.50723 0.81634 0.0
N1001 N 0.73008 0.52837 0.79447 0.0
C1002 C 0.74366 0.49547 0.81498 0.0
C1003 C 0.77261 0.52969 0.80651 0.0
C1004 C 0.72491 0.50646 0.80385 0.0
C1005 C 0.75333 0.54011 0.79556 0.0
C1006 C 0.82284 0.44393 0.85379 0.0
C1007 C 0.82987 0.43168 0.83761 0.0
C1008 C 0.81575 0.42925 0.86891 0.0
C1009 C 0.82966 0.40487 0.83683 0.0
C1010 C 0.81572 0.4025 0.86756 0.0
N1011 N 0.82262 0.39096 0.85168 0.0
C1012 C 0.86996 0.485 0.82433 0.0
C1013 C 0.84401 0.50501 0.80197 0.0
C1014 C 0.88903 0.48013 0.81146 0.0
N1015 N 0.84778 0.49669 0.81929 0.0
C1016 C 0.86272 0.50087 0.78871 0.0
C1017 C 0.88535 0.4876 0.79324 0.0
H1018 H 0.87238 0.47853 0.83822 0.0
H1019 H 0.82622 0.51426 0.79833 0.0
C1020 C 0.74595 0.44158 0.86127 0.0
N1021 N 0.76334 0.44617 0.8479 0.0
C1022 C 0.72921 0.42079 0.85997 0.0
C1023 C 0.74853 0.40972 0.83111 0.0
C1024 C 0.76492 0.43079 0.83297 0.0
C1025 C 0.73019 0.40464 0.84466 0.0
H1026 H 0.74475 0.4543 0.87283 0.0
H1027 H 0.77858 0.43521 0.82235 0.0
O1028 O 0.82142 0.5298 0.85378 0.0
O1029 O 0.77443 0.50045 0.86847 0.0
O1030 O 0.78618 0.49698 0.82739 0.0
O1031 O 0.82243 0.47017 0.85473 0.0
H1032 H 0.86626 0.52115 0.86946 0.0
H1033 H 0.82844 0.56011 0.82528 0.0
H1034 H 0.90786 0.53834 0.85844 0.0
H1035 H 0.87069 0.57662 0.81504 0.0
H1036 H 0.76541 0.47383 0.9271 0.0
H1037 H 0.75621 0.54383 0.88227 0.0
H1038 H 0.77756 0.46598 0.89494 0.0
H1039 H 0.74434 0.55026 0.91463 0.0
H1040 H 0.76389 0.61594 0.84101 0.0
H1041 H 0.70003 0.56306 0.84341 0.0
H1042 H 0.86277 0.46485 0.92173 0.0
H1043 H 0.82314 0.53682 0.93109 0.0
H1044 H 0.73941 0.4782 0.82256 0.0
H1045 H 0.79091 0.53932 0.80764 0.0
H1046 H 0.70621 0.49762 0.80273 0.0
H1047 H 0.75681 0.5576 0.78802 0.0
H1048 H 0.83507 0.44271 0.8257 0.0
H1049 H 0.81008 0.43841 0.88149 0.0
H1050 H 0.83494 0.39513 0.82437 0.0
H1051 H 0.81016 0.39091 0.87912 0.0
H1052 H 0.90589 0.46952 0.81563 0.0
H1053 H 0.85919 0.50743 0.77495 0.0
H1054 H 0.71555 0.41747 0.87083 0.0
H1055 H 0.7497 0.398 0.81896 0.0
Li1056 Li 0.47175 0.21316 0.15164 0.0
Li1057 Li 0.49812 0.1757 0.15922 0.0
Li1058 Li 0.51895 0.21702 0.1491 0.0
Li1059 Li 0.49633 0.18881 0.12769 0.0
C1060 C 0.49209 0.22471 0.18615 0.0
N1061 N 0.47985 0.25437 0.21613 0.0
C1062 C 0.48413 0.21305 0.20233 0.0
C1063 C 0.49411 0.25144 0.1853 0.0
C1064 C 0.47796 0.22838 0.21732 0.0
C1065 C 0.48775 0.26611 0.20057 0.0
C1066 C 0.45222 0.15737 0.1492 0.0
C1067 C 0.44126 0.1124 0.14968 0.0
N1068 N 0.42209 0.11748 0.16171 0.0
C1069 C 0.43228 0.1622 0.16144 0.0
C1070 C 0.45663 0.13233 0.14313 0.0
C1071 C 0.4173 0.14175 0.16765 0.0
C1072 C 0.42973 0.24125 0.14008 0.0
N1073 N 0.44094 0.23218 0.15549 0.0
C1074 C 0.40947 0.25322 0.17389 0.0
C1075 C 0.43092 0.23731 0.17221 0.0
C1076 C 0.39803 0.26354 0.1582 0.0
C1077 C 0.40817 0.25703 0.14111 0.0
H1078 H 0.43798 0.2367 0.12695 0.0
H1079 H 0.43959 0.2293 0.18426 0.0
C1080 C 0.52477 0.13414 0.17411 0.0
N1081 N 0.50232 0.14726 0.17533 0.0
C1082 C 0.53042 0.11461 0.18642 0.0
C1083 C 0.48957 0.12206 0.20101 0.0
C1084 C 0.48466 0.14146 0.18832 0.0
C1085 C 0.51292 0.10861 0.20031 0.0
H1086 H 0.53882 0.13948 0.16402 0.0
H1087 H 0.46715 0.15245 0.18926 0.0
C1088 C 0.49606 0.25055 0.12423 0.0
N1089 N 0.50324 0.29951 0.11061 0.0
C1090 C 0.50754 0.2541 0.10722 0.0
C1091 C 0.48779 0.27191 0.13415 0.0
C1092 C 0.51114 0.279 0.10062 0.0
C1093 C 0.49169 0.2965 0.12707 0.0
C1094 C 0.5426 0.16666 0.13109 0.0
C1095 C 0.56625 0.1761 0.12513 0.0
C1096 C 0.5345 0.14231 0.12553 0.0
C1097 C 0.5812 0.16117 0.11343 0.0
C1098 C 0.54999 0.12797 0.11381 0.0
N1099 N 0.57282 0.13763 0.10803 0.0
C1100 C 0.55562 0.24721 0.16829 0.0
C1101 C 0.55989 0.24718 0.13619 0.0
C1102 C 0.57611 0.26432 0.16998 0.0
N1103 N 0.54761 0.23945 0.15156 0.0
C1104 C 0.58059 0.26407 0.13724 0.0
C1105 C 0.58881 0.27317 0.15429 0.0
H1106 H 0.54606 0.24021 0.18035 0.0
H1107 H 0.55373 0.24 0.1231 0.0
C1108 C 0.47424 0.16681 0.0962 0.0
N1109 N 0.49563 0.17833 0.10293 0.0
C1110 C 0.47252 0.161 0.07767 0.0
C1111 C 0.5152 0.17819 0.07354 0.0
C1112 C 0.51594 0.18401 0.09205 0.0
C1113 C 0.49313 0.16692 0.0661 0.0
H1114 H 0.45827 0.16277 0.10515 0.0
H1115 H 0.53244 0.19375 0.09765 0.0
O1116 O 0.49805 0.20996 0.17131 0.0
O1117 O 0.46715 0.17712 0.14303 0.0
O1118 O 0.49239 0.22627 0.1309 0.0
O1119 O 0.52757 0.1811 0.14242 0.0
H1120 H 0.48267 0.1924 0.20332 0.0
H1121 H 0.50077 0.26077 0.17305 0.0
H1122 H 0.47167 0.21961 0.2299 0.0
H1123 H 0.48919 0.28681 0.20007 0.0
H1124 H 0.44453 0.0929 0.14517 0.0
H1125 H 0.42856 0.18147 0.16624 0.0
H1126 H 0.47173 0.12832 0.13346 0.0
H1127 H 0.40191 0.14517 0.17722 0.0
H1128 H 0.40197 0.25747 0.18731 0.0
H1129 H 0.40007 0.26473 0.12868 0.0
H1130 H 0.54893 0.10524 0.18561 0.0
H1131 H 0.47555 0.11807 0.21151 0.0
H1132 H 0.51378 0.23783 0.09924 0.0
H1133 H 0.47821 0.26958 0.14707 0.0
H1134 H 0.5202 0.28201 0.08754 0.0
H1135 H 0.48545 0.31318 0.13464 0.0
H1136 H 0.57297 0.19475 0.12948 0.0
H1137 H 0.51638 0.13465 0.13015 0.0
H1138 H 0.59949 0.16828 0.10864 0.0
H1139 H 0.54387 0.10917 0.1093 0.0
H1140 H 0.58164 0.27083 0.18342 0.0
H1141 H 0.59019 0.26973 0.12479 0.0
H1142 H 0.45517 0.15233 0.07238 0.0
H1143 H 0.53128 0.1835 0.06499 0.0
Li1144 Li 0.7858 0.52112 0.1501 0.0
Li1145 Li 0.82368 0.49879 0.15826 0.0
Li1146 Li 0.81018 0.49588 0.12732 0.0
Li1147 Li 0.78629 0.4734 0.15266 0.0
C1148 C 0.82162 0.54798 0.12908 0.0
N1149 N 0.82223 0.59002 0.10613 0.0
C1150 C 0.83991 0.56731 0.13144 0.0
C1151 C 0.80368 0.55002 0.11503 0.0
C1152 C 0.83989 0.58842 0.11971 0.0
C1153 C 0.8043 0.5714 0.10357 0.0
C1154 C 0.79232 0.515 0.18705 0.0
C1155 C 0.78154 0.52432 0.21829 0.0
N1156 N 0.79509 0.54659 0.21722 0.0
C1157 C 0.80612 0.538 0.18625 0.0
C1158 C 0.77991 0.50809 0.20318 0.0
C1159 C 0.8073 0.55369 0.20165 0.0
C1160 C 0.73849 0.54466 0.15614 0.0
N1161 N 0.76381 0.54988 0.15381 0.0
C1162 C 0.75575 0.59497 0.15588 0.0
C1163 C 0.77275 0.57441 0.15403 0.0
C1164 C 0.72934 0.59019 0.15755 0.0
C1165 C 0.72081 0.56461 0.15791 0.0
H1166 H 0.73201 0.52492 0.15625 0.0
H1167 H 0.79303 0.5781 0.15264 0.0
C1168 C 0.87331 0.51565 0.16639 0.0
N1169 N 0.85335 0.5019 0.17317 0.0
C1170 C 0.89388 0.52222 0.17758 0.0
C1171 C 0.87363 0.49913 0.20226 0.0
C1172 C 0.85342 0.49298 0.19057 0.0
C1173 C 0.89382 0.51463 0.19594 0.0
H1174 H 0.87274 0.52234 0.15246 0.0
H1175 H 0.83722 0.48212 0.19559 0.0
C1176 C 0.75188 0.49228 0.12202 0.0
N1177 N 0.7094 0.48549 0.1 0.0
C1178 C 0.74385 0.46756 0.11725 0.0
C1179 C 0.73836 0.51355 0.11545 0.0
C1180 C 0.72232 0.46453 0.10614 0.0
C1181 C 0.71692 0.50972 0.10437 0.0
C1182 C 0.84235 0.45474 0.14973 0.0
C1183 C 0.86628 0.45853 0.1416 0.0
C1184 C 0.84029 0.43914 0.16514 0.0
C1185 C 0.88787 0.44675 0.14914 0.0
C1186 C 0.86234 0.42767 0.17225 0.0
N1187 N 0.88548 0.4317 0.16419 0.0
C1188 C 0.84413 0.50031 0.09736 0.0
C1189 C 0.80233 0.4861 0.08981 0.0
C1190 C 0.85148 0.4994 0.07905 0.0
N1191 N 0.81991 0.49369 0.10234 0.0
C1192 C 0.8087 0.48521 0.07141 0.0
C1193 C 0.8336 0.49179 0.06575 0.0
H1194 H 0.85771 0.50644 0.10761 0.0
H1195 H 0.78324 0.48096 0.09399 0.0
C1196 C 0.74307 0.44824 0.16686 0.0
N1197 N 0.76556 0.44459 0.15789 0.0
C1198 C 0.72562 0.42805 0.16862 0.0
C1199 C 0.75516 0.40067 0.15224 0.0
C1200 C 0.77213 0.42132 0.15094 0.0
C1201 C 0.73135 0.40406 0.16086 0.0
H1202 H 0.7383 0.46711 0.17201 0.0
H1203 H 0.79005 0.41913 0.14369 0.0
O1204 O 0.82143 0.52732 0.14059 0.0
O1205 O 0.79091 0.49918 0.17221 0.0
O1206 O 0.77285 0.49563 0.13302 0.0
O1207 O 0.8211 0.46666 0.14287 0.0
H1208 H 0.8539 0.56607 0.1423 0.0
H1209 H 0.78952 0.53523 0.11292 0.0
H1210 H 0.8539 0.60355 0.12141 0.0
H1211 H 0.79052 0.57319 0.09263 0.0
H1212 H 0.77204 0.5192 0.23087 0.0
H1213 H 0.81592 0.54366 0.17393 0.0
H1214 H 0.76916 0.49034 0.20401 0.0
H1215 H 0.81794 0.57151 0.20123 0.0
H1216 H 0.76313 0.6144 0.15551 0.0
H1217 H 0.70068 0.56006 0.15951 0.0
H1218 H 0.90925 0.53388 0.1721 0.0
H1219 H 0.87269 0.49307 0.21635 0.0
H1220 H 0.75434 0.45089 0.12181 0.0
H1221 H 0.74431 0.53286 0.11881 0.0
H1222 H 0.71594 0.4455 0.10235 0.0
H1223 H 0.70628 0.52601 0.09924 0.0
H1224 H 0.86817 0.47065 0.12971 0.0
H1225 H 0.82191 0.43618 0.17165 0.0
H1226 H 0.90655 0.44961 0.14306 0.0
H1227 H 0.86108 0.41565 0.18423 0.0
H1228 H 0.87095 0.50444 0.07541 0.0
H1229 H 0.79402 0.47982 0.06172 0.0
H1230 H 0.70735 0.4315 0.17519 0.0
H1231 H 0.76033 0.38242 0.14619 0.0
Li1232 Li 0.50031 0.82229 0.16104 0.0
Li1233 Li 0.52657 0.78516 0.15315 0.0
Li1234 Li 0.50313 0.80921 0.12987 0.0
Li1235 Li 0.48053 0.78167 0.15173 0.0
C1236 C 0.54498 0.84145 0.15214 0.0
N1237 N 0.57117 0.88241 0.16713 0.0
C1238 C 0.56512 0.83711 0.16431 0.0
C1239 C 0.53824 0.86659 0.14751 0.0
C1240 C 0.57813 0.85809 0.17175 0.0
C1241 C 0.55168 0.88704 0.15527 0.0
C1242 C 0.48848 0.77694 0.18697 0.0
C1243 C 0.47242 0.73863 0.20148 0.0
N1244 N 0.45896 0.75341 0.21339 0.0
C1245 C 0.47453 0.79176 0.19937 0.0
C1246 C 0.4875 0.75016 0.18806 0.0
C1247 C 0.45972 0.7795 0.21263 0.0
C1248 C 0.47589 0.86651 0.17382 0.0
N1249 N 0.49621 0.85083 0.17694 0.0
C1250 C 0.50718 0.87435 0.2038 0.0
C1251 C 0.5119 0.85438 0.19152 0.0
C1252 C 0.48596 0.89059 0.2011 0.0
C1253 C 0.47042 0.88658 0.18573 0.0
H1254 H 0.46336 0.86292 0.16242 0.0
H1255 H 0.52767 0.84131 0.19385 0.0
C1256 C 0.5767 0.76892 0.14523 0.0
N1257 N 0.55731 0.76643 0.15746 0.0
C1258 C 0.59789 0.75258 0.14603 0.0
C1259 C 0.5795 0.73257 0.17271 0.0
C1260 C 0.5586 0.74922 0.17133 0.0
C1261 C 0.59916 0.73369 0.15966 0.0
H1262 H 0.57515 0.78287 0.13438 0.0
H1263 H 0.54296 0.74773 0.1809 0.0
C1264 C 0.45608 0.82698 0.131 0.0
N1265 N 0.42587 0.84657 0.10338 0.0
C1266 C 0.43612 0.81228 0.12373 0.0
C1267 C 0.46055 0.85171 0.1243 0.0
C1268 C 0.42108 0.82252 0.10976 0.0
C1269 C 0.44512 0.86124 0.1103 0.0
C1270 C 0.52045 0.75283 0.12594 0.0
C1271 C 0.53553 0.75778 0.1106 0.0
C1272 C 0.52206 0.72894 0.13455 0.0
C1273 C 0.55215 0.73876 0.1042 0.0
C1274 C 0.53898 0.71047 0.12777 0.0
N1275 N 0.55355 0.71572 0.11287 0.0
C1276 C 0.51887 0.83848 0.09898 0.0
C1277 C 0.48706 0.80678 0.09372 0.0
C1278 C 0.51875 0.84526 0.08057 0.0
N1279 N 0.50314 0.81955 0.10511 0.0
C1280 C 0.48609 0.81312 0.07531 0.0
C1281 C 0.50217 0.83249 0.06851 0.0
H1282 H 0.53165 0.84811 0.10834 0.0
H1283 H 0.47512 0.7915 0.09897 0.0
C1284 C 0.43211 0.76631 0.16581 0.0
N1285 N 0.45161 0.75968 0.15444 0.0
C1286 C 0.41065 0.75042 0.16751 0.0
C1287 C 0.42937 0.72174 0.1453 0.0
C1288 C 0.45056 0.738 0.14419 0.0
C1289 C 0.40908 0.72787 0.15709 0.0
H1290 H 0.43315 0.78402 0.17345 0.0
H1291 H 0.46606 0.73347 0.13498 0.0
O1292 O 0.5318 0.82119 0.14491 0.0
O1293 O 0.5029 0.78858 0.17378 0.0
O1294 O 0.47134 0.81712 0.14444 0.0
O1295 O 0.50461 0.77145 0.13273 0.0
H1296 H 0.57051 0.81777 0.16809 0.0
H1297 H 0.5226 0.87025 0.13818 0.0
H1298 H 0.59369 0.85505 0.18124 0.0
H1299 H 0.54657 0.90661 0.1519 0.0
H1300 H 0.47133 0.71793 0.20239 0.0
H1301 H 0.47496 0.81249 0.19871 0.0
H1302 H 0.49791 0.73838 0.17844 0.0
H1303 H 0.44877 0.79072 0.22228 0.0
H1304 H 0.51971 0.87676 0.21543 0.0
H1305 H 0.45347 0.8981 0.1833 0.0
H1306 H 0.6128 0.75432 0.13585 0.0
H1307 H 0.57964 0.71819 0.18336 0.0
H1308 H 0.4324 0.79309 0.12868 0.0
H1309 H 0.47604 0.86328 0.12968 0.0
H1310 H 0.40564 0.81132 0.10395 0.0
H1311 H 0.4485 0.88026 0.1049 0.0
H1312 H 0.53468 0.77621 0.10384 0.0
H1313 H 0.51069 0.72487 0.14653 0.0
H1314 H 0.56404 0.74237 0.09241 0.0
H1315 H 0.5406 0.69199 0.1344 0.0
H1316 H 0.53146 0.86027 0.07581 0.0
H1317 H 0.4734 0.80249 0.06639 0.0
H1318 H 0.39524 0.75596 0.17658 0.0
H1319 H 0.42894 0.70446 0.1371 0.0
Li1320 Li 0.21421 0.52574 0.15064 0.0
Li1321 Li 0.18913 0.5026 0.12768 0.0
Li1322 Li 0.17734 0.50166 0.15979 0.0
Li1323 Li 0.2155 0.47883 0.14877 0.0
C1324 C 0.15574 0.54355 0.14692 0.0
N1325 N 0.10901 0.56563 0.15515 0.0
C1326 C 0.1351 0.54095 0.13493 0.0
C1327 C 0.15271 0.55754 0.16302 0.0
C1328 C 0.1116 0.55224 0.13935 0.0
C1329 C 0.1289 0.56849 0.16696 0.0
C1330 C 0.23493 0.50838 0.11321 0.0
C1331 C 0.24206 0.49379 0.08245 0.0
N1332 N 0.24876 0.51806 0.07755 0.0
C1333 C 0.24193 0.53317 0.10788 0.0
C1334 C 0.23508 0.48849 0.10042 0.0
C1335 C 0.24887 0.53767 0.08978 0.0
C1336 C 0.26102 0.55043 0.15588 0.0
N1337 N 0.23538 0.5548 0.15489 0.0
C1338 C 0.2419 0.59994 0.15845 0.0
C1339 C 0.22554 0.57891 0.15613 0.0
C1340 C 0.26851 0.59595 0.15959 0.0
C1341 C 0.278 0.57078 0.1584 0.0
H1342 H 0.26829 0.53108 0.15445 0.0
H1343 H 0.20508 0.58183 0.15508 0.0
C1344 C 0.16707 0.48143 0.09597 0.0
N1345 N 0.17685 0.50327 0.10331 0.0
C1346 C 0.16091 0.48043 0.0775 0.0
C1347 C 0.17378 0.52485 0.0747 0.0
C1348 C 0.17961 0.525 0.09325 0.0
C1349 C 0.16481 0.50216 0.06651 0.0
H1350 H 0.16462 0.46458 0.10435 0.0
H1351 H 0.18726 0.54216 0.09951 0.0
C1352 C 0.22802 0.51038 0.18333 0.0
N1353 N 0.26204 0.53219 0.20766 0.0
C1354 C 0.25258 0.50005 0.18544 0.0
C1355 C 0.22067 0.53165 0.1937 0.0
C1356 C 0.26951 0.51139 0.1978 0.0
C1357 C 0.23819 0.54245 0.20589 0.0
C1358 C 0.17742 0.44667 0.14385 0.0
C1359 C 0.16568 0.43563 0.15907 0.0
C1360 C 0.18839 0.43085 0.13058 0.0
C1361 C 0.16519 0.40891 0.16078 0.0
C1362 C 0.18755 0.40422 0.13282 0.0
N1363 N 0.17607 0.3939 0.14774 0.0
C1364 C 0.1254 0.49479 0.16943 0.0
C1365 C 0.15419 0.49755 0.19432 0.0
C1366 C 0.10521 0.4886 0.18112 0.0
N1367 N 0.14934 0.49877 0.17618 0.0
C1368 C 0.13465 0.49115 0.20648 0.0
C1369 C 0.10987 0.48593 0.19988 0.0
H1370 H 0.12223 0.49528 0.15489 0.0
H1371 H 0.17353 0.50019 0.19926 0.0
C1372 C 0.25646 0.44608 0.1398 0.0
N1373 N 0.23695 0.44955 0.15179 0.0
C1374 C 0.27232 0.42462 0.14115 0.0
C1375 C 0.24811 0.4109 0.16748 0.0
C1376 C 0.23276 0.43275 0.16565 0.0
C1377 C 0.26812 0.40652 0.15503 0.0
H1378 H 0.2598 0.46005 0.1292 0.0
H1379 H 0.21733 0.43622 0.17517 0.0
O1380 O 0.17881 0.53243 0.14293 0.0
O1381 O 0.22756 0.50368 0.13078 0.0
O1382 O 0.21133 0.49988 0.17106 0.0
O1383 O 0.17843 0.4728 0.14204 0.0
H1384 H 0.13713 0.53017 0.12242 0.0
H1385 H 0.16851 0.5597 0.17244 0.0
H1386 H 0.09541 0.55029 0.13025 0.0
H1387 H 0.12622 0.57924 0.17942 0.0
H1388 H 0.24204 0.47863 0.07238 0.0
H1389 H 0.24175 0.54884 0.11753 0.0
H1390 H 0.22946 0.46924 0.10426 0.0
H1391 H 0.25423 0.55678 0.08545 0.0
H1392 H 0.23387 0.61908 0.15931 0.0
H1393 H 0.2984 0.56693 0.15887 0.0
H1394 H 0.15353 0.4627 0.07184 0.0
H1395 H 0.17727 0.54199 0.06674 0.0
H1396 H 0.25859 0.48364 0.17749 0.0
H1397 H 0.20175 0.53988 0.19221 0.0
H1398 H 0.28863 0.50369 0.1995 0.0
H1399 H 0.23283 0.55903 0.21391 0.0
H1400 H 0.15722 0.4475 0.16953 0.0
H1401 H 0.19783 0.43904 0.11883 0.0
H1402 H 0.15624 0.40012 0.17251 0.0
H1403 H 0.19614 0.39177 0.12273 0.0
H1404 H 0.08641 0.48501 0.17542 0.0
H1405 H 0.13936 0.48884 0.22074 0.0
H1406 H 0.2879 0.42241 0.13153 0.0
H1407 H 0.24411 0.39744 0.17834 0.0
H1408 H 0.10994 0.201 0.31375 0.0
H1409 H 0.12812 0.21403 0.3704 0.0
H1410 H 0.14544 0.17067 0.31153 0.0
H1411 H 0.16286 0.18294 0.36839 0.0
H1412 H 0.236 0.14001 0.35626 0.0
H1413 H 0.20476 0.17485 0.35533 0.0
H1414 H 0.15449 0.12782 0.32253 0.0
H1415 H 0.18614 0.09346 0.32284 0.0
C1416 C 0.12164 0.19757 0.32569 0.0
C1417 C 0.11609 0.20984 0.34228 0.0
C1418 C 0.14181 0.17998 0.32447 0.0
C1419 C 0.15691 0.17426 0.33981 0.0
C1420 C 0.15179 0.18706 0.35626 0.0
C1421 C 0.13164 0.20464 0.35748 0.0
C1422 C 0.2185 0.1373 0.34857 0.0
C1423 C 0.21349 0.11389 0.33972 0.0
C1424 C 0.20046 0.15717 0.3482 0.0
C1425 C 0.17704 0.15407 0.33897 0.0
C1426 C 0.17241 0.13096 0.32964 0.0
C1427 C 0.19043 0.11112 0.33001 0.0
H1428 H 0.91063 0.17798 0.33974 0.0
H1429 H 0.85299 0.2376 0.34048 0.0
H1430 H 0.87727 0.14551 0.34067 0.0
H1431 H 0.81948 0.20493 0.34237 0.0
H1432 H 0.7656 0.13754 0.32835 0.0
H1433 H 0.79834 0.17084 0.32534 0.0
H1434 H 0.84734 0.12899 0.36235 0.0
H1435 H 0.81538 0.0953 0.36463 0.0
C1436 C 0.89081 0.1842 0.33995 0.0
C1437 C 0.88452 0.21045 0.33995 0.0
C1438 C 0.87166 0.16554 0.34077 0.0
C1439 C 0.84568 0.17259 0.34176 0.0
C1440 C 0.8393 0.19883 0.34149 0.0
C1441 C 0.85851 0.21756 0.34061 0.0
C1442 C 0.78347 0.13537 0.33571 0.0
C1443 C 0.78782 0.11373 0.34675 0.0
C1444 C 0.80211 0.15459 0.33414 0.0
C1445 C 0.82552 0.15255 0.34355 0.0
C1446 C 0.82971 0.13102 0.35469 0.0
C1447 C 0.81118 0.11184 0.35621 0.0
H1448 H 0.76419 0.85409 0.33648 0.0
H1449 H 0.82286 0.91244 0.34083 0.0
H1450 H 0.79712 0.82093 0.33752 0.0
H1451 H 0.85565 0.87954 0.34052 0.0
H1452 H 0.90637 0.81618 0.36145 0.0
H1453 H 0.87261 0.84808 0.36003 0.0
H1454 H 0.83146 0.80117 0.32125 0.0
H1455 H 0.86453 0.76828 0.32365 0.0
C1456 C 0.78407 0.8599 0.33754 0.0
C1457 C 0.79075 0.88604 0.33862 0.0
C1458 C 0.80301 0.84086 0.33788 0.0
C1459 C 0.8291 0.84749 0.33921 0.0
C1460 C 0.83576 0.87363 0.33983 0.0
C1461 C 0.81688 0.89261 0.33968 0.0
C1462 C 0.88995 0.81238 0.35284 0.0
C1463 C 0.8882 0.7895 0.34275 0.0
C1464 C 0.87073 0.83095 0.35178 0.0
C1465 C 0.84933 0.82737 0.34041 0.0
C1466 C 0.84753 0.80451 0.33028 0.0
C1467 C 0.8667 0.78577 0.33147 0.0
H1468 H 0.13767 0.76553 0.36341 0.0
H1469 H 0.10165 0.80546 0.31861 0.0
H1470 H 0.17229 0.79685 0.3634 0.0
H1471 H 0.13537 0.83766 0.31937 0.0
H1472 H 0.20936 0.8818 0.31521 0.0
H1473 H 0.17925 0.84619 0.31331 0.0
H1474 H 0.17902 0.84023 0.372 0.0
H1475 H 0.21031 0.87467 0.37384 0.0
C1476 C 0.1372 0.78086 0.35346 0.0
C1477 C 0.11676 0.78298 0.34105 0.0
C1478 C 0.1569 0.79907 0.35363 0.0
C1479 C 0.15658 0.81995 0.34148 0.0
C1480 C 0.13644 0.82173 0.32881 0.0
C1481 C 0.11686 0.80343 0.32855 0.0
C1482 C 0.20329 0.87258 0.3277 0.0
C1483 C 0.21223 0.88124 0.34469 0.0
C1484 C 0.18572 0.85235 0.32662 0.0
C1485 C 0.17652 0.84038 0.3425 0.0
C1486 C 0.18584 0.84875 0.35946 0.0
C1487 C 0.20354 0.86882 0.36054 0.0
H1488 H 0.10688 0.80751 0.63157 0.0
H1489 H 0.12201 0.78481 0.68714 0.0
H1490 H 0.14298 0.83685 0.63257 0.0
H1491 H 0.15917 0.81337 0.68783 0.0
H1492 H 0.20337 0.89059 0.6883 0.0
H1493 H 0.16922 0.85864 0.68839 0.0
H1494 H 0.18861 0.83768 0.63315 0.0
H1495 H 0.22161 0.87054 0.63268 0.0
C1496 C 0.11793 0.80876 0.64403 0.0
C1497 C 0.11137 0.79395 0.65933 0.0
C1498 C 0.13893 0.82533 0.64451 0.0
C1499 C 0.1541 0.82742 0.66026 0.0
C1500 C 0.14775 0.8124 0.67553 0.0
C1501 C 0.12662 0.79583 0.67507 0.0
C1502 C 0.20027 0.87925 0.67614 0.0
C1503 C 0.21517 0.88334 0.66044 0.0
C1504 C 0.18089 0.86068 0.67628 0.0
C1505 C 0.17602 0.8457 0.66073 0.0
C1506 C 0.19153 0.84917 0.64526 0.0
C1507 C 0.21076 0.86781 0.64509 0.0
H1508 H 0.21293 0.11797 0.62345 0.0
H1509 H 0.21358 0.11354 0.6823 0.0
H1510 H 0.18136 0.15237 0.62501 0.0
H1511 H 0.18089 0.14701 0.6836 0.0
H1512 H 0.0985 0.18112 0.67179 0.0
H1513 H 0.13266 0.1493 0.67148 0.0
H1514 H 0.17945 0.19983 0.63894 0.0
H1515 H 0.14593 0.23253 0.64001 0.0
C1516 C 0.20664 0.12441 0.63673 0.0
C1517 C 0.216 0.11287 0.65276 0.0
C1518 C 0.18842 0.14404 0.63757 0.0
C1519 C 0.17876 0.15225 0.65441 0.0
C1520 C 0.18795 0.14083 0.67044 0.0
C1521 C 0.20654 0.12153 0.66964 0.0
C1522 C 0.11623 0.18586 0.6649 0.0
C1523 C 0.11936 0.20962 0.656 0.0
C1524 C 0.13572 0.16748 0.66465 0.0
C1525 C 0.1586 0.17218 0.6552 0.0
C1526 C 0.16184 0.19574 0.64622 0.0
C1527 C 0.14254 0.21436 0.64675 0.0
H1528 H 0.90256 0.18882 0.6333 0.0
H1529 H 0.87473 0.2218 0.68354 0.0
H1530 H 0.86874 0.15669 0.63442 0.0
H1531 H 0.84141 0.18891 0.68504 0.0
H1532 H 0.76876 0.14262 0.67019 0.0
H1533 H 0.80199 0.17565 0.6696 0.0
H1534 H 0.85732 0.11911 0.652 0.0
H1535 H 0.824 0.08643 0.65186 0.0
C1536 C 0.88916 0.18928 0.64456 0.0
C1537 C 0.8913 0.20794 0.6583 0.0
C1538 C 0.86996 0.17064 0.64533 0.0
C1539 C 0.85245 0.17014 0.65987 0.0
C1540 C 0.85448 0.18888 0.67358 0.0
C1541 C 0.87373 0.20756 0.67282 0.0
C1542 C 0.788 0.13729 0.66611 0.0
C1543 C 0.79371 0.11188 0.66107 0.0
C1544 C 0.80709 0.15616 0.66595 0.0
C1545 C 0.83228 0.15003 0.66069 0.0
C1546 C 0.83803 0.12455 0.65589 0.0
C1547 C 0.81899 0.10572 0.65605 0.0
H1548 H 0.81583 0.90769 0.64241 0.0
H1549 H 0.76143 0.86231 0.67301 0.0
H1550 H 0.84707 0.87314 0.64463 0.0
H1551 H 0.79274 0.82749 0.67497 0.0
H1552 H 0.84802 0.76221 0.65584 0.0
H1553 H 0.81546 0.79604 0.65479 0.0
H1554 H 0.87308 0.85237 0.66854 0.0
H1555 H 0.90559 0.81883 0.66915 0.0
C1556 C 0.8106 0.89044 0.64976 0.0
C1557 C 0.78617 0.88789 0.65766 0.0
C1558 C 0.82851 0.87061 0.651 0.0
C1559 C 0.82241 0.84767 0.66007 0.0
C1560 C 0.7979 0.84489 0.66776 0.0
C1561 C 0.77997 0.86482 0.66661 0.0
C1562 C 0.85367 0.78183 0.65865 0.0
C1563 C 0.87935 0.78785 0.66261 0.0
C1564 C 0.83502 0.80114 0.65819 0.0
C1565 C 0.84175 0.82686 0.6615 0.0
C1566 C 0.86735 0.83277 0.66573 0.0
C1567 C 0.88592 0.8135 0.6663 0.0
H1568 H 0.61875 0.70608 0.87351 0.0
H1569 H 0.61158 0.70594 0.81493 0.0
H1570 H 0.6541 0.67554 0.87139 0.0
H1571 H 0.64735 0.67572 0.81278 0.0
H1572 H 0.68645 0.59594 0.82079 0.0
H1573 H 0.65421 0.62992 0.82101 0.0
H1574 H 0.69901 0.67205 0.86044 0.0
H1575 H 0.73103 0.63779 0.86049 0.0
C1576 C 0.62481 0.69958 0.86018 0.0
C1577 C 0.61232 0.70828 0.84439 0.0
C1578 C 0.64523 0.68232 0.85895 0.0
C1579 C 0.6535 0.67325 0.84192 0.0
C1580 C 0.64127 0.68225 0.8261 0.0
C1581 C 0.62095 0.69968 0.82732 0.0
C1582 C 0.68943 0.61251 0.82945 0.0
C1583 C 0.71117 0.61415 0.8407 0.0
C1584 C 0.67111 0.63207 0.82945 0.0
C1585 C 0.67404 0.6536 0.84079 0.0
C1586 C 0.69612 0.65556 0.85169 0.0
C1587 C 0.71456 0.63608 0.85159 0.0
H1588 H 0.36347 0.72602 0.86935 0.0
H1589 H 0.38003 0.70699 0.81326 0.0
H1590 H 0.32822 0.69571 0.86926 0.0
H1591 H 0.34636 0.67493 0.81373 0.0
H1592 H 0.2742 0.62841 0.81474 0.0
H1593 H 0.30285 0.66519 0.81415 0.0
H1594 H 0.32212 0.65176 0.87063 0.0
H1595 H 0.29184 0.61662 0.87166 0.0
C1596 C 0.35955 0.71556 0.85692 0.0
C1597 C 0.37488 0.71895 0.84134 0.0
C1598 C 0.33953 0.69774 0.85698 0.0
C1599 C 0.33456 0.68244 0.84159 0.0
C1600 C 0.34935 0.68641 0.82582 0.0
C1601 C 0.36907 0.70457 0.82565 0.0
C1602 C 0.28408 0.63364 0.82716 0.0
C1603 C 0.28075 0.61928 0.84322 0.0
C1604 C 0.30089 0.65457 0.82675 0.0
C1605 C 0.31508 0.66148 0.8423 0.0
C1606 C 0.31136 0.64738 0.85842 0.0
C1607 C 0.29427 0.62678 0.85891 0.0
H1608 H 0.31575 0.40772 0.85474 0.0
H1609 H 0.27015 0.36632 0.81532 0.0
H1610 H 0.34905 0.37528 0.85252 0.0
H1611 H 0.30359 0.33341 0.81338 0.0
H1612 H 0.35923 0.26789 0.83386 0.0
H1613 H 0.32456 0.29951 0.83301 0.0
H1614 H 0.38036 0.36055 0.82933 0.0
H1615 H 0.4149 0.3291 0.82998 0.0
C1616 C 0.31291 0.39183 0.84545 0.0
C1617 C 0.29037 0.38983 0.83503 0.0
C1618 C 0.33201 0.37319 0.84421 0.0
C1619 C 0.32906 0.35195 0.83262 0.0
C1620 C 0.30633 0.34955 0.82247 0.0
C1621 C 0.28719 0.36835 0.82362 0.0
C1622 C 0.36407 0.28803 0.83254 0.0
C1623 C 0.38984 0.29601 0.83222 0.0
C1624 C 0.34421 0.30612 0.83207 0.0
C1625 C 0.34978 0.3325 0.83135 0.0
C1626 C 0.3755 0.34037 0.83028 0.0
C1627 C 0.39528 0.32235 0.83067 0.0
H1628 H 0.67904 0.40537 0.85244 0.0
H1629 H 0.73896 0.35576 0.83211 0.0
H1630 H 0.64825 0.37058 0.84952 0.0
H1631 H 0.70777 0.32103 0.82855 0.0
H1632 H 0.64877 0.25831 0.84571 0.0
H1633 H 0.68123 0.2921 0.84725 0.0
H1634 H 0.62652 0.34659 0.82586 0.0
H1635 H 0.59393 0.31324 0.82502 0.0
C1636 C 0.68567 0.38699 0.84738 0.0
C1637 C 0.7115 0.38331 0.8426 0.0
C1638 C 0.66792 0.36713 0.84548 0.0
C1639 C 0.67552 0.34306 0.8387 0.0
C1640 C 0.70136 0.33931 0.83392 0.0
C1641 C 0.71916 0.35926 0.8358 0.0
C1642 C 0.64371 0.27752 0.84135 0.0
C1643 C 0.61874 0.28306 0.83526 0.0
C1644 C 0.66236 0.29681 0.84206 0.0
C1645 C 0.6564 0.32207 0.83678 0.0
C1646 C 0.63164 0.32741 0.83026 0.0
C1647 C 0.61304 0.30818 0.82954 0.0
H1648 H 0.71727 0.37447 0.13198 0.0
H1649 H 0.70111 0.38728 0.18893 0.0
H1650 H 0.6835 0.34208 0.13077 0.0
H1651 H 0.66707 0.35492 0.18767 0.0
H1652 H 0.62658 0.27578 0.18038 0.0
H1653 H 0.6616 0.30676 0.18252 0.0
H1654 H 0.63525 0.34346 0.13327 0.0
H1655 H 0.59984 0.31313 0.13134 0.0
C1656 C 0.7067 0.37012 0.1443 0.0
C1657 C 0.71185 0.38334 0.16057 0.0
C1658 C 0.68721 0.35178 0.14355 0.0
C1659 C 0.6726 0.34608 0.1591 0.0
C1660 C 0.67813 0.35884 0.17551 0.0
C1661 C 0.69747 0.37744 0.1762 0.0
C1662 C 0.62803 0.29063 0.17011 0.0
C1663 C 0.61035 0.29186 0.15565 0.0
C1664 C 0.64815 0.3083 0.17133 0.0
C1665 C 0.6512 0.32741 0.15801 0.0
C1666 C 0.6336 0.32867 0.14357 0.0
C1667 C 0.61335 0.3112 0.14245 0.0
H1668 H 0.61839 0.70806 0.13032 0.0
H1669 H 0.6264 0.71481 0.18866 0.0
H1670 H 0.65071 0.67428 0.13001 0.0
H1671 H 0.65835 0.68043 0.18841 0.0
H1672 H 0.73294 0.63492 0.17708 0.0
H1673 H 0.70253 0.67069 0.17758 0.0
H1674 H 0.65313 0.62949 0.1405 0.0
H1675 H 0.68371 0.59414 0.13964 0.0
C1676 C 0.62727 0.70252 0.14306 0.0
C1677 C 0.61989 0.71416 0.15951 0.0
C1678 C 0.64556 0.68295 0.14291 0.0
C1679 C 0.65695 0.67458 0.1592 0.0
C1680 C 0.65001 0.68657 0.17562 0.0
C1681 C 0.63159 0.7061 0.17579 0.0
C1682 C 0.71564 0.63361 0.16897 0.0
C1683 C 0.71071 0.61171 0.15833 0.0
C1684 C 0.69815 0.65397 0.16938 0.0
C1685 C 0.67549 0.65294 0.15903 0.0
C1686 C 0.67056 0.631 0.14845 0.0
C1687 C 0.68794 0.61062 0.14812 0.0
H1688 H 0.38218 0.70648 0.12912 0.0
H1689 H 0.38479 0.71086 0.1878 0.0
H1690 H 0.3462 0.67664 0.131 0.0
H1691 H 0.3485 0.68114 0.1897 0.0
H1692 H 0.30987 0.60036 0.18216 0.0
H1693 H 0.34214 0.63437 0.18242 0.0
H1694 H 0.30016 0.67493 0.14069 0.0
H1695 H 0.26804 0.64073 0.14027 0.0
C1696 C 0.37498 0.7011 0.14242 0.0
C1697 C 0.38637 0.71085 0.15831 0.0
C1698 C 0.35422 0.68424 0.14349 0.0
C1699 C 0.34453 0.67659 0.1605 0.0
C1700 C 0.35567 0.68662 0.17641 0.0
C1701 C 0.3763 0.70372 0.17533 0.0
C1702 C 0.30747 0.61664 0.17314 0.0
C1703 C 0.28654 0.61785 0.16112 0.0
C1704 C 0.32581 0.6362 0.1734 0.0
C1705 C 0.32371 0.65724 0.16152 0.0
C1706 C 0.30237 0.65882 0.14989 0.0
C1707 C 0.28389 0.63938 0.14975 0.0
H1708 H 0.2866 0.37675 0.12733 0.0
H1709 H 0.28723 0.38389 0.18594 0.0
H1710 H 0.3162 0.34085 0.12932 0.0
H1711 H 0.3159 0.34699 0.18801 0.0
H1712 H 0.39331 0.30423 0.18138 0.0
H1713 H 0.35996 0.33701 0.18157 0.0
H1714 H 0.32038 0.29701 0.13832 0.0
H1715 H 0.35407 0.26453 0.13794 0.0
C1716 C 0.29296 0.37058 0.14067 0.0
C1717 C 0.28473 0.3834 0.15646 0.0
C1718 C 0.30967 0.34971 0.14183 0.0
C1719 C 0.31847 0.34098 0.15884 0.0
C1720 C 0.30974 0.35339 0.17468 0.0
C1721 C 0.29306 0.37437 0.17351 0.0
C1722 C 0.37725 0.30224 0.17213 0.0
C1723 C 0.37638 0.28192 0.15956 0.0
C1724 C 0.35809 0.32101 0.17225 0.0
C1725 C 0.33755 0.31978 0.15986 0.0
C1726 C 0.33619 0.29885 0.14779 0.0
C1727 C 0.35544 0.2802 0.14759 0.0
H1728 H 0.01501 0.43211 0.29126 0.0
H1729 H 0.04141 0.36687 0.26018 0.0
H1730 H 0.03103 0.461 0.26752 0.0
H1731 H 0.05811 0.39545 0.23695 0.0
H1732 H 0.07516 0.44804 0.19217 0.0
H1733 H 0.04754 0.4253 0.21331 0.0
H1734 H 0.07329 0.47449 0.257 0.0
H1735 H 0.09989 0.49833 0.23559 0.0
C1736 C 0.02394 0.42396 0.27926 0.0
C1737 C 0.02723 0.39726 0.27766 0.0
C1738 C 0.03329 0.44047 0.26576 0.0
C1739 C 0.04593 0.43056 0.25036 0.0
C1740 C 0.04821 0.40379 0.24849 0.0
C1741 C 0.03894 0.38738 0.26194 0.0
C1742 C 0.07436 0.45465 0.20614 0.0
C1743 C 0.09005 0.47489 0.21219 0.0
C1744 C 0.05873 0.44133 0.21833 0.0
C1745 C 0.05857 0.44774 0.23692 0.0
C1746 C 0.07291 0.46906 0.24277 0.0
C1747 C 0.08843 0.48253 0.23053 0.0
H1748 H 0.58648 0.993 0.27016 0.0
H1749 H 0.60098 0.06921 0.29092 0.0
H1750 H 0.55521 0.01076 0.24861 0.0
H1751 H 0.57046 0.08691 0.26934 0.0
H1752 H 0.50548 0.11394 0.23693 0.0
H1753 H 0.52518 0.08884 0.26116 0.0
H1754 H 0.55854 0.03809 0.22112 0.0
H1755 H 0.53801 0.06263 0.19688 0.0
C1756 C 0.58279 0.01347 0.27023 0.0
C1757 C 0.59637 0.02978 0.28203 0.0
C1758 C 0.56502 0.02363 0.25787 0.0
C1759 C 0.56033 0.05023 0.25729 0.0
C1760 C 0.57331 0.06631 0.26958 0.0
C1761 C 0.5911 0.05622 0.28178 0.0
C1762 C 0.51629 0.09694 0.2333 0.0
C1763 C 0.5205 0.0905 0.21496 0.0
C1764 C 0.52781 0.08271 0.24718 0.0
C1765 C 0.54381 0.06179 0.24303 0.0
C1766 C 0.54632 0.05409 0.22478 0.0
C1767 C 0.53477 0.06831 0.21088 0.0
H1768 H 0.91143 0.56369 0.19773 0.0
H1769 H 0.91906 0.48962 0.22361 0.0
H1770 H 0.93886 0.58267 0.22068 0.0
H1771 H 0.94713 0.50863 0.24665 0.0
H1772 H 0.96051 0.56169 0.29699 0.0
H1773 H 0.94229 0.5369 0.2721 0.0
H1774 H 0.98048 0.58622 0.23333 0.0
H1775 H 0.99724 0.61205 0.25814 0.0
C1776 C 0.91957 0.55128 0.20806 0.0
C1777 C 0.91307 0.52513 0.20883 0.0
C1778 C 0.9354 0.56218 0.22126 0.0
C1779 C 0.94529 0.54721 0.23556 0.0
C1780 C 0.93957 0.5208 0.23597 0.0
C1781 C 0.92355 0.50989 0.22277 0.0
C1782 C 0.96507 0.56724 0.28316 0.0
C1783 C 0.97994 0.58923 0.27963 0.0
C1784 C 0.95491 0.55276 0.26885 0.0
C1785 C 0.95959 0.55977 0.25067 0.0
C1786 C 0.97603 0.5806 0.24717 0.0
C1787 C 0.98596 0.59524 0.26146 0.0
H1788 H 0.43923 0.97899 0.2975 0.0
H1789 H 0.37682 0.97398 0.25882 0.0
H1790 H 0.46818 0.96035 0.2749 0.0
H1791 H 0.40596 0.95663 0.23626 0.0
H1792 H 0.46632 0.93873 0.19524 0.0
H1793 H 0.44615 0.96682 0.21766 0.0
H1794 H 0.46865 0.91496 0.26061 0.0
H1795 H 0.48816 0.88646 0.23826 0.0
C1796 C 0.43168 0.97423 0.28419 0.0
C1797 C 0.40553 0.97787 0.28011 0.0
C1798 C 0.44834 0.96373 0.27124 0.0
C1799 C 0.4393 0.95713 0.25386 0.0
C1800 C 0.41355 0.96194 0.24947 0.0
C1801 C 0.39684 0.97202 0.26245 0.0
C1802 C 0.46719 0.93342 0.20948 0.0
C1803 C 0.47845 0.91008 0.2149 0.0
C1804 C 0.45576 0.94958 0.2223 0.0
C1805 C 0.45564 0.94291 0.24081 0.0
C1806 C 0.46864 0.92066 0.24643 0.0
C1807 C 0.47986 0.90434 0.23359 0.0
H1808 H 0.08127 0.55907 0.79833 0.0
H1809 H 0.08545 0.49018 0.76581 0.0
H1810 H 0.05435 0.57911 0.77552 0.0
H1811 H 0.0574 0.50984 0.74306 0.0
H1812 H 0.04337 0.5679 0.69642 0.0
H1813 H 0.06092 0.54128 0.72045 0.0
H1814 H 0.01554 0.5825 0.76011 0.0
H1815 H 0.99978 0.61061 0.73631 0.0
C1816 C 0.07572 0.54792 0.78652 0.0
C1817 C 0.0855 0.5231 0.78381 0.0
C1818 C 0.06015 0.55938 0.7734 0.0
C1819 C 0.05366 0.5462 0.75731 0.0
C1820 C 0.06238 0.52079 0.75509 0.0
C1821 C 0.07832 0.50944 0.76813 0.0
C1822 C 0.03717 0.57139 0.71027 0.0
C1823 C 0.02059 0.5919 0.71438 0.0
C1824 C 0.04693 0.55575 0.72408 0.0
C1825 C 0.04002 0.55991 0.74236 0.0
C1826 C 0.02185 0.57911 0.74627 0.0
C1827 C 0.01244 0.59504 0.73251 0.0
H1828 H 0.4678 0.05861 0.8021 0.0
H1829 H 0.4854 0.11389 0.76005 0.0
H1830 H 0.45005 0.02967 0.77915 0.0
H1831 H 0.46784 0.08507 0.73724 0.0
H1832 H 0.4436 0.02505 0.69764 0.0
H1833 H 0.47076 0.04411 0.72112 0.0
H1834 H 0.41092 0.03188 0.76086 0.0
H1835 H 0.38388 0.01297 0.73749 0.0
C1836 C 0.46815 0.06446 0.78795 0.0
C1837 C 0.4778 0.08867 0.78293 0.0
C1838 C 0.45802 0.04788 0.77482 0.0
C1839 C 0.45737 0.05514 0.75639 0.0
C1840 C 0.46836 0.07871 0.75127 0.0
C1841 C 0.47844 0.09528 0.76438 0.0
C1842 C 0.4364 0.02617 0.71145 0.0
C1843 C 0.41149 0.01773 0.71566 0.0
C1844 C 0.45195 0.03707 0.72488 0.0
C1845 C 0.44292 0.03972 0.74282 0.0
C1846 C 0.41861 0.02985 0.74724 0.0
C1847 C 0.40307 0.01898 0.73382 0.0
H1848 H 0.99121 0.38876 0.74128 0.0
H1849 H 0.96354 0.43239 0.69533 0.0
H1850 H 0.96978 0.41849 0.76202 0.0
H1851 H 0.94215 0.46227 0.7161 0.0
H1852 H 0.8746 0.47224 0.75841 0.0
H1853 H 0.90374 0.45382 0.73623 0.0
H1854 H 0.96703 0.46454 0.77332 0.0
H1855 H 0.93797 0.48396 0.7955 0.0
C1856 C 0.98097 0.40504 0.73567 0.0
C1857 C 0.97887 0.40823 0.71674 0.0
C1858 C 0.96888 0.42215 0.74752 0.0
C1859 C 0.9542 0.4426 0.74065 0.0
C1860 C 0.95323 0.44657 0.72173 0.0
C1861 C 0.96559 0.42961 0.70988 0.0
C1862 C 0.89482 0.47153 0.76172 0.0
C1863 C 0.90382 0.4795 0.77887 0.0
C1864 C 0.91154 0.46088 0.74896 0.0
C1865 C 0.93763 0.45767 0.75308 0.0
C1866 C 0.94694 0.46659 0.76988 0.0
C1867 C 0.93024 0.47756 0.78259 0.0
H1868 H 0.63134 0.97125 0.73503 0.0
H1869 H 0.56088 0.98593 0.70587 0.0
H1870 H 0.60755 0.94714 0.75794 0.0
H1871 H 0.53699 0.96175 0.72913 0.0
H1872 H 0.51436 0.93301 0.79219 0.0
H1873 H 0.5329 0.96304 0.77004 0.0
H1874 H 0.57889 0.90189 0.74772 0.0
H1875 H 0.55972 0.87163 0.76895 0.0
C1876 C 0.61067 0.96999 0.73381 0.0
C1877 C 0.59793 0.98049 0.71869 0.0
C1878 C 0.59714 0.95608 0.74685 0.0
C1879 C 0.57059 0.95269 0.74517 0.0
C1880 C 0.55749 0.96433 0.73067 0.0
C1881 C 0.57113 0.97799 0.7174 0.0
C1882 C 0.52803 0.92584 0.78233 0.0
C1883 C 0.53583 0.89993 0.78257 0.0
C1884 C 0.53866 0.94306 0.76976 0.0
C1885 C 0.55742 0.93466 0.75745 0.0
C1886 C 0.56465 0.90876 0.7573 0.0
C1887 C 0.55381 0.89154 0.76958 0.0
H1888 H 0.96247 0.30848 0.45583 0.0
H1889 H 0.02268 0.3652 0.45241 0.0
H1890 H 0.96358 0.31113 0.48887 0.0
H1891 H 0.02354 0.36826 0.48559 0.0
H1892 H 0.04053 0.33977 0.54384 0.0
H1893 H 0.03716 0.34256 0.51085 0.0
H1894 H 0.95467 0.33704 0.51486 0.0
H1895 H 0.95813 0.3327 0.54773 0.0
C1896 C 0.97556 0.32195 0.46215 0.0
C1897 C 0.99252 0.33659 0.45152 0.0
C1898 C 0.9762 0.3235 0.48112 0.0
C1899 C 0.99371 0.33986 0.48994 0.0
C1900 C 0.01012 0.35513 0.47927 0.0
C1901 C 0.00958 0.35345 0.46027 0.0
C1902 C 0.02168 0.33902 0.53769 0.0
C1903 C 0.99964 0.33578 0.54848 0.0
C1904 C 0.01971 0.341 0.51876 0.0
C1905 C 0.99563 0.33993 0.51016 0.0
C1906 C 0.97354 0.33756 0.521 0.0
C1907 C 0.97552 0.33543 0.53991 0.0
H1908 H 0.63406 0.97056 0.54858 0.0
H1909 H 0.67286 0.04301 0.54052 0.0
H1910 H 0.62658 0.96741 0.51594 0.0
H1911 H 0.66738 0.03885 0.50798 0.0
H1912 H 0.64562 0.03565 0.45058 0.0
H1913 H 0.64044 0.04 0.4831 0.0
H1914 H 0.64938 0.95794 0.48939 0.0
H1915 H 0.65186 0.95323 0.45658 0.0
C1916 C 0.64081 0.98594 0.5399 0.0
C1917 C 0.65433 0.00692 0.54722 0.0
C1918 C 0.63686 0.98393 0.52111 0.0
C1919 C 0.64656 0.00272 0.50918 0.0
C1920 C 0.65927 0.02411 0.51663 0.0
C1921 C 0.66287 0.02629 0.53537 0.0
C1922 C 0.64561 0.01833 0.45873 0.0
C1923 C 0.64946 0.99405 0.45076 0.0
C1924 C 0.64313 0.02093 0.47755 0.0
C1925 C 0.64507 0.99943 0.48904 0.0
C1926 C 0.64768 0.975 0.48106 0.0
C1927 C 0.6496 0.97233 0.46216 0.0
H1928 H 0.99102 0.6316 0.54851 0.0
H1929 H 0.01245 0.71115 0.54081 0.0
H1930 H 0.9922 0.62521 0.51552 0.0
H1931 H 0.01491 0.70416 0.50817 0.0
H1932 H 0.04259 0.67456 0.45308 0.0
H1933 H 0.04318 0.6754 0.48638 0.0
H1934 H 0.96601 0.6455 0.48754 0.0
H1935 H 0.96529 0.6449 0.45415 0.0
C1936 C 0.99595 0.64772 0.53989 0.0
C1937 C 0.00179 0.67189 0.54746 0.0
C1938 C 0.99679 0.64395 0.52102 0.0
C1939 C 0.00392 0.66412 0.50941 0.0
C1940 C 0.00982 0.68817 0.51689 0.0
C1941 C 0.00853 0.69209 0.53565 0.0
C1942 C 0.02596 0.66769 0.46046 0.0
C1943 C 0.00387 0.65971 0.4511 0.0
C1944 C 0.02624 0.66833 0.47946 0.0
C1945 C 0.0046 0.66062 0.48944 0.0
C1946 C 0.98296 0.65142 0.48012 0.0
C1947 C 0.98252 0.65119 0.46108 0.0
H1948 H 0.32284 0.02859 0.54211 0.0
H1949 H 0.37425 0.96388 0.54505 0.0
H1950 H 0.32897 0.03071 0.50913 0.0
H1951 H 0.38013 0.9656 0.51182 0.0
H1952 H 0.34196 0.95805 0.45272 0.0
H1953 H 0.347 0.95755 0.48564 0.0
H1954 H 0.36475 0.03845 0.48508 0.0
H1955 H 0.36088 0.03893 0.45197 0.0
C1956 C 0.33572 0.01507 0.53563 0.0
C1957 C 0.34811 0.99609 0.54592 0.0
C1958 C 0.33934 0.01633 0.51684 0.0
C1959 C 0.35506 0.99834 0.50799 0.0
C1960 C 0.36791 0.97966 0.51837 0.0
C1961 C 0.36465 0.97871 0.53728 0.0
C1962 C 0.34774 0.97561 0.45945 0.0
C1963 C 0.35078 0.9986 0.4496 0.0
C1964 C 0.35055 0.97528 0.47836 0.0
C1965 C 0.35613 0.99798 0.48786 0.0
C1966 C 0.36021 0.02074 0.47805 0.0
C1967 C 0.35778 0.02101 0.4591 0.0
H1968 H 0.47482 0.86862 0.95324 0.0
H1969 H 0.52928 0.80612 0.95634 0.0
H1970 H 0.47571 0.87235 0.98645 0.0
H1971 H 0.53072 0.81056 0.98919 0.0
H1972 H 0.54395 0.83794 0.04652 0.0
H1973 H 0.54451 0.84215 0.01339 0.0
H1974 H 0.46172 0.84334 0.01272 0.0
H1975 H 0.46116 0.83939 0.0459 0.0
C1976 C 0.48703 0.85576 0.96092 0.0
C1977 C 0.50205 0.83713 0.95202 0.0
C1978 C 0.48761 0.85801 0.97991 0.0
C1979 C 0.50344 0.84188 0.99035 0.0
C1980 C 0.51874 0.8236 0.98146 0.0
C1981 C 0.51794 0.82114 0.96258 0.0
C1982 C 0.5259 0.83964 0.03933 0.0
C1983 C 0.50251 0.83816 0.04874 0.0
C1984 C 0.52622 0.84186 0.02038 0.0
C1985 C 0.50315 0.8429 0.0105 0.0
C1986 C 0.47977 0.84273 0.02 0.0
C1987 C 0.47945 0.84024 0.03894 0.0
H1988 H 0.17256 0.53661 0.95203 0.0
H1989 H 0.14551 0.45818 0.95234 0.0
H1990 H 0.16997 0.53784 0.98508 0.0
H1991 H 0.14307 0.45939 0.98554 0.0
H1992 H 0.17763 0.46276 0.04372 0.0
H1993 H 0.17392 0.46124 0.01072 0.0
H1994 H 0.14005 0.53693 0.01083 0.0
H1995 H 0.14363 0.53843 0.04397 0.0
C1996 C 0.1656 0.51977 0.95912 0.0
C1997 C 0.15924 0.49729 0.94952 0.0
C1998 C 0.16413 0.52048 0.97809 0.0
C1999 C 0.15634 0.49871 0.98794 0.0
C2000 C 0.14946 0.47638 0.97834 0.0
C2001 C 0.15088 0.47568 0.95934 0.0
C2002 C 0.16892 0.47889 0.03676 0.0
C2003 C 0.16093 0.50073 0.04649 0.0
C2004 C 0.16681 0.47801 0.01783 0.0
C2005 C 0.15672 0.49897 0.00815 0.0
C2006 C 0.14822 0.52061 0.01789 0.0
C2007 C 0.1503 0.52148 0.03686 0.0
H2008 H 0.52809 0.14526 0.043 0.0
H2009 H 0.45362 0.18146 0.04423 0.0
H2010 H 0.52673 0.14477 0.00965 0.0
H2011 H 0.45232 0.18103 0.01096 0.0
H2012 H 0.48351 0.21197 0.95552 0.0
H2013 H 0.48105 0.20631 0.98829 0.0
H2014 H 0.49976 0.12607 0.9823 0.0
H2015 H 0.50107 0.13126 0.9492 0.0
C2016 C 0.51132 0.15277 0.03612 0.0
C2017 C 0.49099 0.16347 0.04615 0.0
C2018 C 0.51048 0.15236 0.0171 0.0
C2019 C 0.48949 0.163 0.00781 0.0
C2020 C 0.46878 0.17285 0.01784 0.0
C2021 C 0.46944 0.17292 0.03684 0.0
C2022 C 0.48655 0.19293 0.96103 0.0
C2023 C 0.49226 0.17202 0.94959 0.0
C2024 C 0.48524 0.18976 0.97986 0.0
C2025 C 0.49004 0.16573 0.98776 0.0
C2026 C 0.49605 0.14482 0.97648 0.0
C2027 C 0.49695 0.14788 0.95756 0.0
H2028 H 0.85248 0.53933 0.95421 0.0
H2029 H 0.84668 0.45666 0.95016 0.0
H2030 H 0.85348 0.53596 0.9871 0.0
H2031 H 0.85049 0.45321 0.98285 0.0
H2032 H 0.81746 0.45743 0.03997 0.0
H2033 H 0.82392 0.45922 0.00744 0.0
H2034 H 0.87371 0.52498 0.01418 0.0
H2035 H 0.86527 0.52455 0.04676 0.0
C2036 C 0.85177 0.52039 0.96024 0.0
C2037 C 0.84893 0.49834 0.94934 0.0
C2038 C 0.85285 0.51842 0.97921 0.0
C2039 C 0.85167 0.4943 0.9878 0.0
C2040 C 0.8507 0.47218 0.97683 0.0
C2041 C 0.84903 0.47416 0.95791 0.0
C2042 C 0.82959 0.47247 0.03456 0.0
C2043 C 0.84041 0.49113 0.04606 0.0
C2044 C 0.83375 0.47321 0.01582 0.0
C2045 C 0.84934 0.49231 0.008 0.0
C2046 C 0.86121 0.51025 0.0196 0.0
C2047 C 0.85667 0.50977 0.03838 0.0
loop_
_geom_bond_atom_site_label_1
_geom_bond_atom_site_label_2
_geom_bond_distance
_geom_bond_site_symmetry_2
_ccdc_geom_bond_type
Li0 N17 1.990 . S
Li0 O60 1.956 1_455 S
Li0 O61 1.970 . S
Li0 O62 1.961 . S
Li1 N25 1.990 . S
Li1 O60 1.970 1_455 S
Li1 O61 1.956 . S
Li1 O63 1.961 1_455 S
Li2 N47 1.990 . S
Li2 O60 1.961 . S
Li2 O62 1.956 1_655 S
Li2 O63 1.970 . S
Li3 N53 1.990 . S
Li3 O61 1.961 . S
Li3 O62 1.970 . S
Li3 O63 1.956 1_455 S
C4 C6 1.348 . S
C4 C7 1.356 . S
C4 O60 1.325 . S
N5 C8 1.314 . S
N5 C9 1.279 . S
C6 C4 1.348 . S
C6 C8 1.353 . S
C6 H64 0.929 1_655 S
C7 C4 1.356 . S
C7 C9 1.358 . S
C7 H65 0.930 . S
C8 N5 1.314 . S
C8 C6 1.353 . S
C8 H66 0.930 . S
C9 N5 1.279 . S
C9 C7 1.358 . S
C9 H67 0.930 . S
C10 C13 1.348 . S
C10 C14 1.356 . S
C10 O61 1.325 . S
C11 N12 1.279 . S
C11 C14 1.358 . S
C11 H68 0.930 . S
N12 C11 1.279 . S
N12 C15 1.314 . S
C13 C10 1.348 . S
C13 C15 1.353 . S
C13 H69 0.929 . S
C14 C10 1.356 . S
C14 C11 1.358 . S
C14 H70 0.930 . S
C15 N12 1.314 . S
C15 C13 1.353 . S
C15 H71 0.930 . S
C16 N17 1.314 . S
C16 C21 1.353 . S
C16 H22 0.930 . S
N17 Li0 1.990 . S
N17 C16 1.314 . S
N17 C19 1.279 . S
C18 C19 1.358 . S
C18 C20 1.356 . S
C18 H72 0.930 . S
C19 N17 1.279 . S
C19 C18 1.358 . S
C19 H23 0.930 . S
C20 C18 1.356 . S
C20 C21 1.348 . S
C21 C16 1.353 . S
C21 C20 1.348 . S
C21 H73 0.929 . S
H22 C16 0.930 . S
H23 C19 0.930 . S
C24 N25 1.314 1_655 S
C24 C26 1.353 . S
C24 H30 0.930 . S
N25 Li1 1.990 . S
N25 C24 1.314 1_455 S
N25 C28 1.279 . S
C26 C24 1.353 . S
C26 C29 1.348 . S
C26 H74 0.929 . S
C27 C28 1.358 . S
C27 C29 1.356 1_455 S
C27 H75 0.930 . S
C28 N25 1.279 . S
C28 C27 1.358 . S
C28 H31 0.930 . S
C29 C26 1.348 . S
C29 C27 1.356 1_655 S
H30 C24 0.930 . S
H31 C28 0.930 . S
C32 C34 1.348 . S
C32 C35 1.356 . S
C32 O62 1.325 . S
N33 C36 1.314 . S
N33 C37 1.279 . S
C34 C32 1.348 . S
C34 C36 1.353 . S
C34 H76 0.929 . S
C35 C32 1.356 . S
C35 C37 1.358 . S
C35 H77 0.930 . S
C36 N33 1.314 . S
C36 C34 1.353 . S
C36 H78 0.930 . S
C37 N33 1.279 . S
C37 C35 1.358 . S
C37 H79 0.930 . S
C38 C39 1.348 . S
C38 C40 1.356 . S
C38 O63 1.325 . S
C39 C38 1.348 . S
C39 C41 1.353 . S
C39 H80 0.929 . S
C40 C38 1.356 . S
C40 C42 1.358 . S
C40 H81 0.930 . S
C41 C39 1.353 . S
C41 N43 1.314 . S
C41 H82 0.930 . S
C42 C40 1.358 . S
C42 N43 1.279 . S
C42 H83 0.930 . S
N43 C41 1.314 . S
N43 C42 1.279 . S
C44 C46 1.353 . S
C44 N47 1.314 . S
C44 H50 0.930 . S
C45 N47 1.279 . S
C45 C48 1.358 . S
C45 H51 0.930 . S
C46 C44 1.353 . S
C46 C49 1.348 . S
C46 H84 0.929 . S
N47 Li2 1.990 . S
N47 C44 1.314 . S
N47 C45 1.279 . S
C48 C45 1.358 . S
C48 C49 1.356 . S
C48 H85 0.930 . S
C49 C46 1.348 . S
C49 C48 1.356 . S
H50 C44 0.930 . S
H51 C45 0.930 . S
C52 N53 1.314 . S
C52 C54 1.353 . S
C52 H58 0.930 . S
N53 Li3 1.990 . S
N53 C52 1.314 . S
N53 C56 1.279 1_455 S
C54 C52 1.353 . S
C54 C57 1.348 . S
C54 H86 0.929 . S
C55 C56 1.358 1_455 S
C55 C57 1.356 . S
C55 H87 0.930 1_455 S
C56 N53 1.279 1_655 S
C56 C55 1.358 1_655 S
C56 H59 0.930 . S
C57 C54 1.348 . S
C57 C55 1.356 . S
H58 C52 0.930 . S
H59 C56 0.930 . S
O60 Li0 1.956 1_655 S
O60 Li1 1.970 1_655 S
O60 Li2 1.961 . S
O60 C4 1.325 . S
O61 Li0 1.970 . S
O61 Li1 1.956 . S
O61 Li3 1.961 . S
O61 C10 1.325 . S
O62 Li0 1.961 . S
O62 Li2 1.956 1_455 S
O62 Li3 1.970 . S
O62 C32 1.325 . S
O63 Li1 1.961 1_655 S
O63 Li2 1.970 . S
O63 Li3 1.956 1_655 S
O63 C38 1.325 . S
H64 C6 0.929 1_455 S
H65 C7 0.930 . S
H66 C8 0.930 . S
H67 C9 0.930 . S
H68 C11 0.930 . S
H69 C13 0.929 . S
H70 C14 0.930 . S
H71 C15 0.930 . S
H72 C18 0.930 . S
H73 C21 0.929 . S
H74 C26 0.929 . S
H75 C27 0.930 . S
H76 C34 0.929 . S
H77 C35 0.930 . S
H78 C36 0.930 . S
H79 C37 0.930 . S
H80 C39 0.929 . S
H81 C40 0.930 . S
H82 C41 0.930 . S
H83 C42 0.930 . S
H84 C46 0.929 . S
H85 C48 0.930 . S
H86 C54 0.929 . S
H87 C55 0.930 1_655 S
Li88 N105 1.990 . S
Li88 O148 1.956 . S
Li88 O149 1.970 . S
Li88 O150 1.961 1_545 S
Li89 N113 1.990 . S
Li89 O148 1.970 . S
Li89 O149 1.956 . S
Li89 O151 1.961 1_545 S
Li90 N135 1.990 . S
Li90 O148 1.961 1_565 S
Li90 O150 1.956 . S
Li90 O151 1.970 . S
Li91 N141 1.990 . S
Li91 O149 1.961 . S
Li91 O150 1.970 1_545 S
Li91 O151 1.956 1_545 S
C92 C94 1.348 . S
C92 C95 1.356 1_545 S
C92 O148 1.325 . S
N93 C96 1.314 . S
N93 C97 1.279 1_545 S
C94 C92 1.348 . S
C94 C96 1.353 . S
C94 H152 0.929 . S
C95 C92 1.356 1_565 S
C95 C97 1.358 . S
C95 H153 0.930 . S
C96 N93 1.314 . S
C96 C94 1.353 . S
C96 H154 0.930 . S
C97 N93 1.279 1_565 S
C97 C95 1.358 . S
C97 H155 0.930 . S
C98 C101 1.348 . S
C98 C102 1.356 . S
C98 O149 1.325 . S
C99 N100 1.279 . S
C99 C102 1.358 . S
C99 H156 0.930 . S
N100 C99 1.279 . S
N100 C103 1.314 . S
C101 C98 1.348 . S
C101 C103 1.353 . S
C101 H157 0.929 . S
C102 C98 1.356 . S
C102 C99 1.358 . S
C102 H158 0.930 . S
C103 N100 1.314 . S
C103 C101 1.353 . S
C103 H159 0.930 . S
C104 N105 1.314 . S
C104 C109 1.353 . S
C104 H110 0.930 . S
N105 Li88 1.990 . S
N105 C104 1.314 . S
N105 C107 1.279 . S
C106 C107 1.358 . S
C106 C108 1.356 . S
C106 H160 0.930 . S
C107 N105 1.279 . S
C107 C106 1.358 . S
C107 H111 0.930 . S
C108 C106 1.356 . S
C108 C109 1.348 . S
C109 C104 1.353 . S
C109 C108 1.348 . S
C109 H161 0.929 . S
H110 C104 0.930 . S
H111 C107 0.930 . S
C112 N113 1.314 . S
C112 C114 1.353 . S
C112 H118 0.930 . S
N113 Li89 1.990 . S
N113 C112 1.314 . S
N113 C116 1.279 . S
C114 C112 1.353 . S
C114 C117 1.348 . S
C114 H162 0.929 . S
C115 C116 1.358 . S
C115 C117 1.356 . S
C115 H163 0.930 . S
C116 N113 1.279 . S
C116 C115 1.358 . S
C116 H119 0.930 . S
C117 C114 1.348 . S
C117 C115 1.356 . S
H118 C112 0.930 . S
H119 C116 0.930 . S
C120 C122 1.348 . S
C120 C123 1.356 . S
C120 O150 1.325 . S
N121 C124 1.314 . S
N121 C125 1.279 . S
C122 C120 1.348 . S
C122 C124 1.353 . S
C122 H164 0.929 . S
C123 C120 1.356 . S
C123 C125 1.358 . S
C123 H165 0.930 . S
C124 N121 1.314 . S
C124 C122 1.353 . S
C124 H166 0.930 . S
C125 N121 1.279 . S
C125 C123 1.358 . S
C125 H167 0.930 . S
C126 C127 1.348 . S
C126 C128 1.356 1_565 S
C126 O151 1.325 . S
C127 C126 1.348 . S
C127 C129 1.353 . S
C127 H168 0.929 . S
C128 C126 1.356 1_545 S
C128 C130 1.358 . S
C128 H169 0.930 . S
C129 C127 1.353 . S
C129 N131 1.314 . S
C129 H170 0.930 . S
C130 C128 1.358 . S
C130 N131 1.279 1_545 S
C130 H171 0.930 . S
N131 C129 1.314 . S
N131 C130 1.279 1_565 S
C132 C134 1.353 . S
C132 N135 1.314 . S
C132 H138 0.930 . S
C133 N135 1.279 . S
C133 C136 1.358 . S
C133 H139 0.930 . S
C134 C132 1.353 . S
C134 C137 1.348 . S
C134 H172 0.929 . S
N135 Li90 1.990 . S
N135 C132 1.314 . S
N135 C133 1.279 . S
C136 C133 1.358 . S
C136 C137 1.356 . S
C136 H173 0.930 . S
C137 C134 1.348 . S
C137 C136 1.356 . S
H138 C132 0.930 . S
H139 C133 0.930 . S
C140 N141 1.314 . S
C140 C142 1.353 . S
C140 H146 0.930 . S
N141 Li91 1.990 . S
N141 C140 1.314 . S
N141 C144 1.279 1_545 S
C142 C140 1.353 . S
C142 C145 1.348 1_545 S
C142 H174 0.929 . S
C143 C144 1.358 . S
C143 C145 1.356 . S
C143 H175 0.930 . S
C144 N141 1.279 1_565 S
C144 C143 1.358 . S
C144 H147 0.930 . S
C145 C142 1.348 1_565 S
C145 C143 1.356 . S
H146 C140 0.930 . S
H147 C144 0.930 . S
O148 Li88 1.956 . S
O148 Li89 1.970 . S
O148 Li90 1.961 1_545 S
O148 C92 1.325 . S
O149 Li88 1.970 . S
O149 Li89 1.956 . S
O149 Li91 1.961 . S
O149 C98 1.325 . S
O150 Li88 1.961 1_565 S
O150 Li90 1.956 . S
O150 Li91 1.970 1_565 S
O150 C120 1.325 . S
O151 Li89 1.961 1_565 S
O151 Li90 1.970 . S
O151 Li91 1.956 1_565 S
O151 C126 1.325 . S
H152 C94 0.929 . S
H153 C95 0.930 . S
H154 C96 0.930 . S
H155 C97 0.930 . S
H156 C99 0.930 . S
H157 C101 0.929 . S
H158 C102 0.930 . S
H159 C103 0.930 . S
H160 C106 0.930 . S
H161 C109 0.929 . S
H162 C114 0.929 . S
H163 C115 0.930 . S
H164 C122 0.929 . S
H165 C123 0.930 . S
H166 C124 0.930 . S
H167 C125 0.930 . S
H168 C127 0.929 . S
H169 C128 0.930 . S
H170 C129 0.930 . S
H171 C130 0.930 . S
H172 C134 0.929 . S
H173 C136 0.930 . S
H174 C142 0.929 . S
H175 C143 0.930 . S
Li176 N193 1.990 . S
Li176 O236 1.956 1_655 S
Li176 O237 1.970 . S
Li176 O238 1.961 . S
Li177 N201 1.990 . S
Li177 O236 1.970 1_655 S
Li177 O237 1.956 . S
Li177 O239 1.961 1_655 S
Li178 N223 1.990 . S
Li178 O236 1.961 . S
Li178 O238 1.956 1_455 S
Li178 O239 1.970 . S
Li179 N229 1.990 . S
Li179 O237 1.961 . S
Li179 O238 1.970 . S
Li179 O239 1.956 1_655 S
C180 C182 1.348 . S
C180 C183 1.356 . S
C180 O236 1.325 . S
N181 C184 1.314 . S
N181 C185 1.279 . S
C182 C180 1.348 . S
C182 C184 1.353 . S
C182 H240 0.929 1_455 S
C183 C180 1.356 . S
C183 C185 1.358 . S
C183 H241 0.930 . S
C184 N181 1.314 . S
C184 C182 1.353 . S
C184 H242 0.930 . S
C185 N181 1.279 . S
C185 C183 1.358 . S
C185 H243 0.930 . S
C186 C189 1.348 . S
C186 C190 1.356 . S
C186 O237 1.325 . S
C187 N188 1.279 . S
C187 C190 1.358 . S
C187 H244 0.930 . S
N188 C187 1.279 . S
N188 C191 1.314 . S
C189 C186 1.348 . S
C189 C191 1.353 . S
C189 H245 0.929 . S
C190 C186 1.356 . S
C190 C187 1.358 . S
C190 H246 0.930 . S
C191 N188 1.314 . S
C191 C189 1.353 . S
C191 H247 0.930 . S
C192 N193 1.314 . S
C192 C197 1.353 . S
C192 H198 0.930 . S
N193 Li176 1.990 . S
N193 C192 1.314 . S
N193 C195 1.279 . S
C194 C195 1.358 . S
C194 C196 1.356 . S
C194 H248 0.930 . S
C195 N193 1.279 . S
C195 C194 1.358 . S
C195 H199 0.930 . S
C196 C194 1.356 . S
C196 C197 1.348 . S
C197 C192 1.353 . S
C197 C196 1.348 . S
C197 H249 0.929 . S
H198 C192 0.930 . S
H199 C195 0.930 . S
C200 N201 1.314 1_455 S
C200 C202 1.353 . S
C200 H206 0.930 . S
N201 Li177 1.990 . S
N201 C200 1.314 1_655 S
N201 C204 1.279 . S
C202 C200 1.353 . S
C202 C205 1.348 . S
C202 H250 0.929 . S
C203 C204 1.358 . S
C203 C205 1.356 1_655 S
C203 H251 0.930 . S
C204 N201 1.279 . S
C204 C203 1.358 . S
C204 H207 0.930 . S
C205 C202 1.348 . S
C205 C203 1.356 1_455 S
H206 C200 0.930 . S
H207 C204 0.930 . S
C208 C210 1.348 . S
C208 C211 1.356 . S
C208 O238 1.325 . S
N209 C212 1.314 . S
N209 C213 1.279 . S
C210 C208 1.348 . S
C210 C212 1.353 . S
C210 H252 0.929 . S
C211 C208 1.356 . S
C211 C213 1.358 . S
C211 H253 0.930 . S
C212 N209 1.314 . S
C212 C210 1.353 . S
C212 H254 0.930 . S
C213 N209 1.279 . S
C213 C211 1.358 . S
C213 H255 0.930 . S
C214 C215 1.348 . S
C214 C216 1.356 . S
C214 O239 1.325 . S
C215 C214 1.348 . S
C215 C217 1.353 . S
C215 H256 0.929 . S
C216 C214 1.356 . S
C216 C218 1.358 . S
C216 H257 0.930 . S
C217 C215 1.353 . S
C217 N219 1.314 . S
C217 H258 0.930 . S
C218 C216 1.358 . S
C218 N219 1.279 . S
C218 H259 0.930 . S
N219 C217 1.314 . S
N219 C218 1.279 . S
C220 C222 1.353 . S
C220 N223 1.314 . S
C220 H226 0.930 . S
C221 N223 1.279 . S
C221 C224 1.358 . S
C221 H227 0.930 . S
C222 C220 1.353 . S
C222 C225 1.348 . S
C222 H260 0.929 . S
N223 Li178 1.990 . S
N223 C220 1.314 . S
N223 C221 1.279 . S
C224 C221 1.358 . S
C224 C225 1.356 . S
C224 H261 0.930 . S
C225 C222 1.348 . S
C225 C224 1.356 . S
H226 C220 0.930 . S
H227 C221 0.930 . S
C228 N229 1.314 . S
C228 C230 1.353 . S
C228 H234 0.930 . S
N229 Li179 1.990 . S
N229 C228 1.314 . S
N229 C232 1.279 1_655 S
C230 C228 1.353 . S
C230 C233 1.348 . S
C230 H262 0.929 . S
C231 C232 1.358 1_655 S
C231 C233 1.356 . S
C231 H263 0.930 1_655 S
C232 N229 1.279 1_455 S
C232 C231 1.358 1_455 S
C232 H235 0.930 . S
C233 C230 1.348 . S
C233 C231 1.356 . S
H234 C228 0.930 . S
H235 C232 0.930 . S
O236 Li176 1.956 1_455 S
O236 Li177 1.970 1_455 S
O236 Li178 1.961 . S
O236 C180 1.325 . S
O237 Li176 1.970 . S
O237 Li177 1.956 . S
O237 Li179 1.961 . S
O237 C186 1.325 . S
O238 Li176 1.961 . S
O238 Li178 1.956 1_655 S
O238 Li179 1.970 . S
O238 C208 1.325 . S
O239 Li177 1.961 1_455 S
O239 Li178 1.970 . S
O239 Li179 1.956 1_455 S
O239 C214 1.325 . S
H240 C182 0.929 1_655 S
H241 C183 0.930 . S
H242 C184 0.930 . S
H243 C185 0.930 . S
H244 C187 0.930 . S
H245 C189 0.929 . S
H246 C190 0.930 . S
H247 C191 0.930 . S
H248 C194 0.930 . S
H249 C197 0.929 . S
H250 C202 0.929 . S
H251 C203 0.930 . S
H252 C210 0.929 . S
H253 C211 0.930 . S
H254 C212 0.930 . S
H255 C213 0.930 . S
H256 C215 0.929 . S
H257 C216 0.930 . S
H258 C217 0.930 . S
H259 C218 0.930 . S
H260 C222 0.929 . S
H261 C224 0.930 . S
H262 C230 0.929 . S
H263 C231 0.930 1_455 S
Li264 N281 1.990 . S
Li264 O324 1.956 1_565 S
Li264 O325 1.970 1_565 S
Li264 O326 1.961 . S
Li265 N289 1.990 . S
Li265 O324 1.970 . S
Li265 O325 1.956 . S
Li265 O327 1.961 1_545 S
Li266 N311 1.990 . S
Li266 O324 1.961 1_565 S
Li266 O326 1.956 . S
Li266 O327 1.970 . S
Li267 N317 1.990 . S
Li267 O325 1.961 1_565 S
Li267 O326 1.970 . S
Li267 O327 1.956 . S
C268 C270 1.348 . S
C268 C271 1.356 1_545 S
C268 O324 1.325 . S
N269 C272 1.314 . S
N269 C273 1.279 1_545 S
C270 C268 1.348 . S
C270 C272 1.353 . S
C270 H328 0.929 . S
C271 C268 1.356 1_565 S
C271 C273 1.358 . S
C271 H329 0.930 . S
C272 N269 1.314 . S
C272 C270 1.353 . S
C272 H330 0.930 . S
C273 N269 1.279 1_565 S
C273 C271 1.358 . S
C273 H331 0.930 . S
C274 C277 1.348 . S
C274 C278 1.356 . S
C274 O325 1.325 . S
C275 N276 1.279 . S
C275 C278 1.358 . S
C275 H332 0.930 . S
N276 C275 1.279 . S
N276 C279 1.314 . S
C277 C274 1.348 . S
C277 C279 1.353 . S
C277 H333 0.929 . S
C278 C274 1.356 . S
C278 C275 1.358 . S
C278 H334 0.930 . S
C279 N276 1.314 . S
C279 C277 1.353 . S
C279 H335 0.930 . S
C280 N281 1.314 . S
C280 C285 1.353 . S
C280 H286 0.930 . S
N281 Li264 1.990 . S
N281 C280 1.314 . S
N281 C283 1.279 1_565 S
C282 C283 1.358 . S
C282 C284 1.356 . S
C282 H336 0.930 . S
C283 N281 1.279 1_545 S
C283 C282 1.358 . S
C283 H287 0.930 . S
C284 C282 1.356 . S
C284 C285 1.348 1_545 S
C285 C280 1.353 . S
C285 C284 1.348 1_565 S
C285 H337 0.929 . S
H286 C280 0.930 . S
H287 C283 0.930 . S
C288 N289 1.314 . S
C288 C290 1.353 . S
C288 H294 0.930 . S
N289 Li265 1.990 . S
N289 C288 1.314 . S
N289 C292 1.279 . S
C290 C288 1.353 . S
C290 C293 1.348 . S
C290 H338 0.929 . S
C291 C292 1.358 . S
C291 C293 1.356 . S
C291 H339 0.930 . S
C292 N289 1.279 . S
C292 C291 1.358 . S
C292 H295 0.930 . S
C293 C290 1.348 . S
C293 C291 1.356 . S
H294 C288 0.930 . S
H295 C292 0.930 . S
C296 C298 1.348 . S
C296 C299 1.356 . S
C296 O326 1.325 . S
N297 C300 1.314 . S
N297 C301 1.279 . S
C298 C296 1.348 . S
C298 C300 1.353 . S
C298 H340 0.929 . S
C299 C296 1.356 . S
C299 C301 1.358 . S
C299 H341 0.930 . S
C300 N297 1.314 . S
C300 C298 1.353 . S
C300 H342 0.930 . S
C301 N297 1.279 . S
C301 C299 1.358 . S
C301 H343 0.930 . S
C302 C303 1.348 . S
C302 C304 1.356 1_565 S
C302 O327 1.325 . S
C303 C302 1.348 . S
C303 C305 1.353 . S
C303 H344 0.929 . S
C304 C302 1.356 1_545 S
C304 C306 1.358 . S
C304 H345 0.930 . S
C305 C303 1.353 . S
C305 N307 1.314 . S
C305 H346 0.930 . S
C306 C304 1.358 . S
C306 N307 1.279 1_545 S
C306 H347 0.930 . S
N307 C305 1.314 . S
N307 C306 1.279 1_565 S
C308 C310 1.353 . S
C308 N311 1.314 . S
C308 H314 0.930 . S
C309 N311 1.279 . S
C309 C312 1.358 . S
C309 H315 0.930 . S
C310 C308 1.353 . S
C310 C313 1.348 . S
C310 H348 0.929 . S
N311 Li266 1.990 . S
N311 C308 1.314 . S
N311 C309 1.279 . S
C312 C309 1.358 . S
C312 C313 1.356 . S
C312 H349 0.930 . S
C313 C310 1.348 . S
C313 C312 1.356 . S
H314 C308 0.930 . S
H315 C309 0.930 . S
C316 N317 1.314 . S
C316 C318 1.353 . S
C316 H322 0.930 . S
N317 Li267 1.990 . S
N317 C316 1.314 . S
N317 C320 1.279 . S
C318 C316 1.353 . S
C318 C321 1.348 . S
C318 H350 0.929 . S
C319 C320 1.358 . S
C319 C321 1.356 . S
C319 H351 0.930 . S
C320 N317 1.279 . S
C320 C319 1.358 . S
C320 H323 0.930 . S
C321 C318 1.348 . S
C321 C319 1.356 . S
H322 C316 0.930 . S
H323 C320 0.930 . S
O324 Li264 1.956 1_545 S
O324 Li265 1.970 . S
O324 Li266 1.961 1_545 S
O324 C268 1.325 . S
O325 Li264 1.970 1_545 S
O325 Li265 1.956 . S
O325 Li267 1.961 1_545 S
O325 C274 1.325 . S
O326 Li264 1.961 . S
O326 Li266 1.956 . S
O326 Li267 1.970 . S
O326 C296 1.325 . S
O327 Li265 1.961 1_565 S
O327 Li266 1.970 . S
O327 Li267 1.956 . S
O327 C302 1.325 . S
H328 C270 0.929 . S
H329 C271 0.930 . S
H330 C272 0.930 . S
H331 C273 0.930 . S
H332 C275 0.930 . S
H333 C277 0.929 . S
H334 C278 0.930 . S
H335 C279 0.930 . S
H336 C282 0.930 . S
H337 C285 0.929 . S
H338 C290 0.929 . S
H339 C291 0.930 . S
H340 C298 0.929 . S
H341 C299 0.930 . S
H342 C300 0.930 . S
H343 C301 0.930 . S
H344 C303 0.929 . S
H345 C304 0.930 . S
H346 C305 0.930 . S
H347 C306 0.930 . S
H348 C310 0.929 . S
H349 C312 0.930 . S
H350 C318 0.929 . S
H351 C319 0.930 . S
Li352 N369 1.990 . S
Li352 O412 1.956 1_455 S
Li352 O413 1.970 . S
Li352 O414 1.961 . S
Li353 N377 1.990 . S
Li353 O412 1.970 . S
Li353 O413 1.956 1_655 S
Li353 O415 1.961 . S
Li354 N399 1.990 . S
Li354 O412 1.961 1_455 S
Li354 O414 1.956 . S
Li354 O415 1.970 1_455 S
Li355 N405 1.990 . S
Li355 O413 1.961 . S
Li355 O414 1.970 . S
Li355 O415 1.956 1_455 S
C356 C358 1.348 . S
C356 C359 1.356 . S
C356 O412 1.325 . S
N357 C360 1.314 . S
N357 C361 1.279 . S
C358 C356 1.348 . S
C358 C360 1.353 . S
C358 H416 0.929 . S
C359 C356 1.356 . S
C359 C361 1.358 . S
C359 H417 0.930 . S
C360 N357 1.314 . S
C360 C358 1.353 . S
C360 H418 0.930 . S
C361 N357 1.279 . S
C361 C359 1.358 . S
C361 H419 0.930 . S
C362 C365 1.348 . S
C362 C366 1.356 . S
C362 O413 1.325 . S
C363 N364 1.279 . S
C363 C366 1.358 . S
C363 H420 0.930 . S
N364 C363 1.279 . S
N364 C367 1.314 . S
C365 C362 1.348 . S
C365 C367 1.353 . S
C365 H421 0.929 . S
C366 C362 1.356 . S
C366 C363 1.358 . S
C366 H422 0.930 . S
C367 N364 1.314 . S
C367 C365 1.353 . S
C367 H423 0.930 . S
C368 N369 1.314 . S
C368 C373 1.353 . S
C368 H374 0.930 . S
N369 Li352 1.990 . S
N369 C368 1.314 . S
N369 C371 1.279 1_455 S
C370 C371 1.358 1_455 S
C370 C372 1.356 . S
C370 H424 0.930 1_455 S
C371 N369 1.279 1_655 S
C371 C370 1.358 1_655 S
C371 H375 0.930 . S
C372 C370 1.356 . S
C372 C373 1.348 . S
C373 C368 1.353 . S
C373 C372 1.348 . S
C373 H425 0.929 . S
H374 C368 0.930 . S
H375 C371 0.930 . S
C376 N377 1.314 . S
C376 C378 1.353 . S
C376 H382 0.930 . S
N377 Li353 1.990 . S
N377 C376 1.314 . S
N377 C380 1.279 . S
C378 C376 1.353 . S
C378 C381 1.348 . S
C378 H426 0.929 . S
C379 C380 1.358 . S
C379 C381 1.356 . S
C379 H427 0.930 . S
C380 N377 1.279 . S
C380 C379 1.358 . S
C380 H383 0.930 . S
C381 C378 1.348 . S
C381 C379 1.356 . S
H382 C376 0.930 . S
H383 C380 0.930 . S
C384 C386 1.348 . S
C384 C387 1.356 . S
C384 O414 1.325 . S
N385 C388 1.314 . S
N385 C389 1.279 . S
C386 C384 1.348 . S
C386 C388 1.353 . S
C386 H428 0.929 . S
C387 C384 1.356 . S
C387 C389 1.358 . S
C387 H429 0.930 . S
C388 N385 1.314 . S
C388 C386 1.353 . S
C388 H430 0.930 . S
C389 N385 1.279 . S
C389 C387 1.358 . S
C389 H431 0.930 . S
C390 C391 1.348 . S
C390 C392 1.356 . S
C390 O415 1.325 . S
C391 C390 1.348 . S
C391 C393 1.353 . S
C391 H432 0.929 1_655 S
C392 C390 1.356 . S
C392 C394 1.358 . S
C392 H433 0.930 . S
C393 C391 1.353 . S
C393 N395 1.314 . S
C393 H434 0.930 . S
C394 C392 1.358 . S
C394 N395 1.279 . S
C394 H435 0.930 . S
N395 C393 1.314 . S
N395 C394 1.279 . S
C396 C398 1.353 . S
C396 N399 1.314 1_655 S
C396 H402 0.930 . S
C397 N399 1.279 . S
C397 C400 1.358 . S
C397 H403 0.930 . S
C398 C396 1.353 . S
C398 C401 1.348 . S
C398 H436 0.929 . S
N399 Li354 1.990 . S
N399 C396 1.314 1_455 S
N399 C397 1.279 . S
C400 C397 1.358 . S
C400 C401 1.356 1_455 S
C400 H437 0.930 . S
C401 C398 1.348 . S
C401 C400 1.356 1_655 S
H402 C396 0.930 . S
H403 C397 0.930 . S
C404 N405 1.314 . S
C404 C406 1.353 . S
C404 H410 0.930 . S
N405 Li355 1.990 . S
N405 C404 1.314 . S
N405 C408 1.279 . S
C406 C404 1.353 . S
C406 C409 1.348 . S
C406 H438 0.929 . S
C407 C408 1.358 . S
C407 C409 1.356 . S
C407 H439 0.930 . S
C408 N405 1.279 . S
C408 C407 1.358 . S
C408 H411 0.930 . S
C409 C406 1.348 . S
C409 C407 1.356 . S
H410 C404 0.930 . S
H411 C408 0.930 . S
O412 Li352 1.956 1_655 S
O412 Li353 1.970 . S
O412 Li354 1.961 1_655 S
O412 C356 1.325 . S
O413 Li352 1.970 . S
O413 Li353 1.956 1_455 S
O413 Li355 1.961 . S
O413 C362 1.325 . S
O414 Li352 1.961 . S
O414 Li354 1.956 . S
O414 Li355 1.970 . S
O414 C384 1.325 . S
O415 Li353 1.961 . S
O415 Li354 1.970 1_655 S
O415 Li355 1.956 1_655 S
O415 C390 1.325 . S
H416 C358 0.929 . S
H417 C359 0.930 . S
H418 C360 0.930 . S
H419 C361 0.930 . S
H420 C363 0.930 . S
H421 C365 0.929 . S
H422 C366 0.930 . S
H423 C367 0.930 . S
H424 C370 0.930 1_655 S
H425 C373 0.929 . S
H426 C378 0.929 . S
H427 C379 0.930 . S
H428 C386 0.929 . S
H429 C387 0.930 . S
H430 C388 0.930 . S
H431 C389 0.930 . S
H432 C391 0.929 1_455 S
H433 C392 0.930 . S
H434 C393 0.930 . S
H435 C394 0.930 . S
H436 C398 0.929 . S
H437 C400 0.930 . S
H438 C406 0.929 . S
H439 C407 0.930 . S
Li440 N457 1.990 . S
Li440 O500 1.956 . S
Li440 O501 1.970 . S
Li440 O502 1.961 1_545 S
Li441 N465 1.990 . S
Li441 O500 1.970 . S
Li441 O501 1.956 . S
Li441 O503 1.961 1_545 S
Li442 N487 1.990 . S
Li442 O500 1.961 . S
Li442 O502 1.956 1_545 S
Li442 O503 1.970 1_545 S
Li443 N493 1.990 . S
Li443 O501 1.961 1_565 S
Li443 O502 1.970 . S
Li443 O503 1.956 . S
C444 C446 1.348 . S
C444 C447 1.356 . S
C444 O500 1.325 . S
N445 C448 1.314 . S
N445 C449 1.279 . S
C446 C444 1.348 . S
C446 C448 1.353 . S
C446 H504 0.929 . S
C447 C444 1.356 . S
C447 C449 1.358 . S
C447 H505 0.930 . S
C448 N445 1.314 . S
C448 C446 1.353 . S
C448 H506 0.930 . S
C449 N445 1.279 . S
C449 C447 1.358 . S
C449 H507 0.930 . S
C450 C453 1.348 . S
C450 C454 1.356 1_545 S
C450 O501 1.325 . S
C451 N452 1.279 1_565 S
C451 C454 1.358 . S
C451 H508 0.930 . S
N452 C451 1.279 1_545 S
N452 C455 1.314 . S
C453 C450 1.348 . S
C453 C455 1.353 . S
C453 H509 0.929 . S
C454 C450 1.356 1_565 S
C454 C451 1.358 . S
C454 H510 0.930 . S
C455 N452 1.314 . S
C455 C453 1.353 . S
C455 H511 0.930 . S
C456 N457 1.314 . S
C456 C461 1.353 . S
C456 H462 0.930 . S
N457 Li440 1.990 . S
N457 C456 1.314 . S
N457 C459 1.279 . S
C458 C459 1.358 . S
C458 C460 1.356 . S
C458 H512 0.930 . S
C459 N457 1.279 . S
C459 C458 1.358 . S
C459 H463 0.930 . S
C460 C458 1.356 . S
C460 C461 1.348 . S
C461 C456 1.353 . S
C461 C460 1.348 . S
C461 H513 0.929 . S
H462 C456 0.930 . S
H463 C459 0.930 . S
C464 N465 1.314 . S
C464 C466 1.353 . S
C464 H470 0.930 . S
N465 Li441 1.990 . S
N465 C464 1.314 . S
N465 C468 1.279 . S
C466 C464 1.353 . S
C466 C469 1.348 . S
C466 H514 0.929 . S
C467 C468 1.358 . S
C467 C469 1.356 . S
C467 H515 0.930 . S
C468 N465 1.279 . S
C468 C467 1.358 . S
C468 H471 0.930 . S
C469 C466 1.348 . S
C469 C467 1.356 . S
H470 C464 0.930 . S
H471 C468 0.930 . S
C472 C474 1.348 . S
C472 C475 1.356 1_565 S
C472 O502 1.325 . S
N473 C476 1.314 . S
N473 C477 1.279 1_565 S
C474 C472 1.348 . S
C474 C476 1.353 . S
C474 H516 0.929 . S
C475 C472 1.356 1_545 S
C475 C477 1.358 . S
C475 H517 0.930 . S
C476 N473 1.314 . S
C476 C474 1.353 . S
C476 H518 0.930 . S
C477 N473 1.279 1_545 S
C477 C475 1.358 . S
C477 H519 0.930 . S
C478 C479 1.348 . S
C478 C480 1.356 . S
C478 O503 1.325 . S
C479 C478 1.348 . S
C479 C481 1.353 . S
C479 H520 0.929 . S
C480 C478 1.356 . S
C480 C482 1.358 . S
C480 H521 0.930 . S
C481 C479 1.353 . S
C481 N483 1.314 . S
C481 H522 0.930 . S
C482 C480 1.358 . S
C482 N483 1.279 . S
C482 H523 0.930 . S
N483 C481 1.314 . S
N483 C482 1.279 . S
C484 C486 1.353 . S
C484 N487 1.314 . S
C484 H490 0.930 . S
C485 N487 1.279 1_565 S
C485 C488 1.358 . S
C485 H491 0.930 . S
C486 C484 1.353 . S
C486 C489 1.348 1_545 S
C486 H524 0.929 . S
N487 Li442 1.990 . S
N487 C484 1.314 . S
N487 C485 1.279 1_545 S
C488 C485 1.358 . S
C488 C489 1.356 . S
C488 H525 0.930 . S
C489 C486 1.348 1_565 S
C489 C488 1.356 . S
H490 C484 0.930 . S
H491 C485 0.930 . S
C492 N493 1.314 . S
C492 C494 1.353 . S
C492 H498 0.930 . S
N493 Li443 1.990 . S
N493 C492 1.314 . S
N493 C496 1.279 . S
C494 C492 1.353 . S
C494 C497 1.348 . S
C494 H526 0.929 . S
C495 C496 1.358 . S
C495 C497 1.356 . S
C495 H527 0.930 . S
C496 N493 1.279 . S
C496 C495 1.358 . S
C496 H499 0.930 . S
C497 C494 1.348 . S
C497 C495 1.356 . S
H498 C492 0.930 . S
H499 C496 0.930 . S
O500 Li440 1.956 . S
O500 Li441 1.970 . S
O500 Li442 1.961 . S
O500 C444 1.325 . S
O501 Li440 1.970 . S
O501 Li441 1.956 . S
O501 Li443 1.961 1_545 S
O501 C450 1.325 . S
O502 Li440 1.961 1_565 S
O502 Li442 1.956 1_565 S
O502 Li443 1.970 . S
O502 C472 1.325 . S
O503 Li441 1.961 1_565 S
O503 Li442 1.970 1_565 S
O503 Li443 1.956 . S
O503 C478 1.325 . S
H504 C446 0.929 . S
H505 C447 0.930 . S
H506 C448 0.930 . S
H507 C449 0.930 . S
H508 C451 0.930 . S
H509 C453 0.929 . S
H510 C454 0.930 . S
H511 C455 0.930 . S
H512 C458 0.930 . S
H513 C461 0.929 . S
H514 C466 0.929 . S
H515 C467 0.930 . S
H516 C474 0.929 . S
H517 C475 0.930 . S
H518 C476 0.930 . S
H519 C477 0.930 . S
H520 C479 0.929 . S
H521 C480 0.930 . S
H522 C481 0.930 . S
H523 C482 0.930 . S
H524 C486 0.929 . S
H525 C488 0.930 . S
H526 C494 0.929 . S
H527 C495 0.930 . S
Li528 N545 1.990 . S
Li528 O588 1.956 1_655 S
Li528 O589 1.970 . S
Li528 O590 1.961 . S
Li529 N553 1.990 . S
Li529 O588 1.970 . S
Li529 O589 1.956 1_455 S
Li529 O591 1.961 . S
Li530 N575 1.990 . S
Li530 O588 1.961 1_655 S
Li530 O590 1.956 . S
Li530 O591 1.970 1_655 S
Li531 N581 1.990 . S
Li531 O589 1.961 . S
Li531 O590 1.970 . S
Li531 O591 1.956 1_655 S
C532 C534 1.348 . S
C532 C535 1.356 . S
C532 O588 1.325 . S
N533 C536 1.314 . S
N533 C537 1.279 . S
C534 C532 1.348 . S
C534 C536 1.353 . S
C534 H592 0.929 . S
C535 C532 1.356 . S
C535 C537 1.358 . S
C535 H593 0.930 . S
C536 N533 1.314 . S
C536 C534 1.353 . S
C536 H594 0.930 . S
C537 N533 1.279 . S
C537 C535 1.358 . S
C537 H595 0.930 . S
C538 C541 1.348 . S
C538 C542 1.356 . S
C538 O589 1.325 . S
C539 N540 1.279 . S
C539 C542 1.358 . S
C539 H596 0.930 . S
N540 C539 1.279 . S
N540 C543 1.314 . S
C541 C538 1.348 . S
C541 C543 1.353 . S
C541 H597 0.929 . S
C542 C538 1.356 . S
C542 C539 1.358 . S
C542 H598 0.930 . S
C543 N540 1.314 . S
C543 C541 1.353 . S
C543 H599 0.930 . S
C544 N545 1.314 . S
C544 C549 1.353 . S
C544 H550 0.930 . S
N545 Li528 1.990 . S
N545 C544 1.314 . S
N545 C547 1.279 1_655 S
C546 C547 1.358 1_655 S
C546 C548 1.356 . S
C546 H600 0.930 1_655 S
C547 N545 1.279 1_455 S
C547 C546 1.358 1_455 S
C547 H551 0.930 . S
C548 C546 1.356 . S
C548 C549 1.348 . S
C549 C544 1.353 . S
C549 C548 1.348 . S
C549 H601 0.929 . S
H550 C544 0.930 . S
H551 C547 0.930 . S
C552 N553 1.314 . S
C552 C554 1.353 . S
C552 H558 0.930 . S
N553 Li529 1.990 . S
N553 C552 1.314 . S
N553 C556 1.279 . S
C554 C552 1.353 . S
C554 C557 1.348 . S
C554 H602 0.929 . S
C555 C556 1.358 . S
C555 C557 1.356 . S
C555 H603 0.930 . S
C556 N553 1.279 . S
C556 C555 1.358 . S
C556 H559 0.930 . S
C557 C554 1.348 . S
C557 C555 1.356 . S
H558 C552 0.930 . S
H559 C556 0.930 . S
C560 C562 1.348 . S
C560 C563 1.356 . S
C560 O590 1.325 . S
N561 C564 1.314 . S
N561 C565 1.279 . S
C562 C560 1.348 . S
C562 C564 1.353 . S
C562 H604 0.929 . S
C563 C560 1.356 . S
C563 C565 1.358 . S
C563 H605 0.930 . S
C564 N561 1.314 . S
C564 C562 1.353 . S
C564 H606 0.930 . S
C565 N561 1.279 . S
C565 C563 1.358 . S
C565 H607 0.930 . S
C566 C567 1.348 . S
C566 C568 1.356 . S
C566 O591 1.325 . S
C567 C566 1.348 . S
C567 C569 1.353 . S
C567 H608 0.929 1_455 S
C568 C566 1.356 . S
C568 C570 1.358 . S
C568 H609 0.930 . S
C569 C567 1.353 . S
C569 N571 1.314 . S
C569 H610 0.930 . S
C570 C568 1.358 . S
C570 N571 1.279 . S
C570 H611 0.930 . S
N571 C569 1.314 . S
N571 C570 1.279 . S
C572 C574 1.353 . S
C572 N575 1.314 1_455 S
C572 H578 0.930 . S
C573 N575 1.279 . S
C573 C576 1.358 . S
C573 H579 0.930 . S
C574 C572 1.353 . S
C574 C577 1.348 . S
C574 H612 0.929 . S
N575 Li530 1.990 . S
N575 C572 1.314 1_655 S
N575 C573 1.279 . S
C576 C573 1.358 . S
C576 C577 1.356 1_655 S
C576 H613 0.930 . S
C577 C574 1.348 . S
C577 C576 1.356 1_455 S
H578 C572 0.930 . S
H579 C573 0.930 . S
C580 N581 1.314 . S
C580 C582 1.353 . S
C580 H586 0.930 . S
N581 Li531 1.990 . S
N581 C580 1.314 . S
N581 C584 1.279 . S
C582 C580 1.353 . S
C582 C585 1.348 . S
C582 H614 0.929 . S
C583 C584 1.358 . S
C583 C585 1.356 . S
C583 H615 0.930 . S
C584 N581 1.279 . S
C584 C583 1.358 . S
C584 H587 0.930 . S
C585 C582 1.348 . S
C585 C583 1.356 . S
H586 C580 0.930 . S
H587 C584 0.930 . S
O588 Li528 1.956 1_455 S
O588 Li529 1.970 . S
O588 Li530 1.961 1_455 S
O588 C532 1.325 . S
O589 Li528 1.970 . S
O589 Li529 1.956 1_655 S
O589 Li531 1.961 . S
O589 C538 1.325 . S
O590 Li528 1.961 . S
O590 Li530 1.956 . S
O590 Li531 1.970 . S
O590 C560 1.325 . S
O591 Li529 1.961 . S
O591 Li530 1.970 1_455 S
O591 Li531 1.956 1_455 S
O591 C566 1.325 . S
H592 C534 0.929 . S
H593 C535 0.930 . S
H594 C536 0.930 . S
H595 C537 0.930 . S
H596 C539 0.930 . S
H597 C541 0.929 . S
H598 C542 0.930 . S
H599 C543 0.930 . S
H600 C546 0.930 1_455 S
H601 C549 0.929 . S
H602 C554 0.929 . S
H603 C555 0.930 . S
H604 C562 0.929 . S
H605 C563 0.930 . S
H606 C564 0.930 . S
H607 C565 0.930 . S
H608 C567 0.929 1_655 S
H609 C568 0.930 . S
H610 C569 0.930 . S
H611 C570 0.930 . S
H612 C574 0.929 . S
H613 C576 0.930 . S
H614 C582 0.929 . S
H615 C583 0.930 . S
Li616 N633 1.990 . S
Li616 O676 1.956 . S
Li616 O677 1.970 . S
Li616 O678 1.961 1_545 S
Li617 N641 1.990 . S
Li617 O676 1.970 1_565 S
Li617 O677 1.956 1_565 S
Li617 O679 1.961 . S
Li618 N663 1.990 . S
Li618 O676 1.961 1_565 S
Li618 O678 1.956 . S
Li618 O679 1.970 . S
Li619 N669 1.990 . S
Li619 O677 1.961 1_565 S
Li619 O678 1.970 . S
Li619 O679 1.956 . S
C620 C622 1.348 . S
C620 C623 1.356 . S
C620 O676 1.325 . S
N621 C624 1.314 . S
N621 C625 1.279 . S
C622 C620 1.348 . S
C622 C624 1.353 . S
C622 H680 0.929 . S
C623 C620 1.356 . S
C623 C625 1.358 . S
C623 H681 0.930 . S
C624 N621 1.314 . S
C624 C622 1.353 . S
C624 H682 0.930 . S
C625 N621 1.279 . S
C625 C623 1.358 . S
C625 H683 0.930 . S
C626 C629 1.348 . S
C626 C630 1.356 1_545 S
C626 O677 1.325 . S
C627 N628 1.279 1_565 S
C627 C630 1.358 . S
C627 H684 0.930 . S
N628 C627 1.279 1_545 S
N628 C631 1.314 . S
C629 C626 1.348 . S
C629 C631 1.353 . S
C629 H685 0.929 . S
C630 C626 1.356 1_565 S
C630 C627 1.358 . S
C630 H686 0.930 . S
C631 N628 1.314 . S
C631 C629 1.353 . S
C631 H687 0.930 . S
C632 N633 1.314 . S
C632 C637 1.353 . S
C632 H638 0.930 . S
N633 Li616 1.990 . S
N633 C632 1.314 . S
N633 C635 1.279 . S
C634 C635 1.358 . S
C634 C636 1.356 . S
C634 H688 0.930 . S
C635 N633 1.279 . S
C635 C634 1.358 . S
C635 H639 0.930 . S
C636 C634 1.356 . S
C636 C637 1.348 . S
C637 C632 1.353 . S
C637 C636 1.348 . S
C637 H689 0.929 . S
H638 C632 0.930 . S
H639 C635 0.930 . S
C640 N641 1.314 . S
C640 C642 1.353 . S
C640 H646 0.930 . S
N641 Li617 1.990 . S
N641 C640 1.314 . S
N641 C644 1.279 1_565 S
C642 C640 1.353 . S
C642 C645 1.348 1_565 S
C642 H690 0.929 . S
C643 C644 1.358 . S
C643 C645 1.356 . S
C643 H691 0.930 . S
C644 N641 1.279 1_545 S
C644 C643 1.358 . S
C644 H647 0.930 . S
C645 C642 1.348 1_545 S
C645 C643 1.356 . S
H646 C640 0.930 . S
H647 C644 0.930 . S
C648 C650 1.348 . S
C648 C651 1.356 1_565 S
C648 O678 1.325 . S
N649 C652 1.314 . S
N649 C653 1.279 1_565 S
C650 C648 1.348 . S
C650 C652 1.353 . S
C650 H692 0.929 . S
C651 C648 1.356 1_545 S
C651 C653 1.358 . S
C651 H693 0.930 . S
C652 N649 1.314 . S
C652 C650 1.353 . S
C652 H694 0.930 . S
C653 N649 1.279 1_545 S
C653 C651 1.358 . S
C653 H695 0.930 . S
C654 C655 1.348 . S
C654 C656 1.356 . S
C654 O679 1.325 . S
C655 C654 1.348 . S
C655 C657 1.353 . S
C655 H696 0.929 . S
C656 C654 1.356 . S
C656 C658 1.358 . S
C656 H697 0.930 . S
C657 C655 1.353 . S
C657 N659 1.314 . S
C657 H698 0.930 . S
C658 C656 1.358 . S
C658 N659 1.279 . S
C658 H699 0.930 . S
N659 C657 1.314 . S
N659 C658 1.279 . S
C660 C662 1.353 . S
C660 N663 1.314 . S
C660 H666 0.930 . S
C661 N663 1.279 . S
C661 C664 1.358 . S
C661 H667 0.930 . S
C662 C660 1.353 . S
C662 C665 1.348 . S
C662 H700 0.929 . S
N663 Li618 1.990 . S
N663 C660 1.314 . S
N663 C661 1.279 . S
C664 C661 1.358 . S
C664 C665 1.356 . S
C664 H701 0.930 . S
C665 C662 1.348 . S
C665 C664 1.356 . S
H666 C660 0.930 . S
H667 C661 0.930 . S
C668 N669 1.314 . S
C668 C670 1.353 . S
C668 H674 0.930 . S
N669 Li619 1.990 . S
N669 C668 1.314 . S
N669 C672 1.279 . S
C670 C668 1.353 . S
C670 C673 1.348 . S
C670 H702 0.929 . S
C671 C672 1.358 . S
C671 C673 1.356 . S
C671 H703 0.930 . S
C672 N669 1.279 . S
C672 C671 1.358 . S
C672 H675 0.930 . S
C673 C670 1.348 . S
C673 C671 1.356 . S
H674 C668 0.930 . S
H675 C672 0.930 . S
O676 Li616 1.956 . S
O676 Li617 1.970 1_545 S
O676 Li618 1.961 1_545 S
O676 C620 1.325 . S
O677 Li616 1.970 . S
O677 Li617 1.956 1_545 S
O677 Li619 1.961 1_545 S
O677 C626 1.325 . S
O678 Li616 1.961 1_565 S
O678 Li618 1.956 . S
O678 Li619 1.970 . S
O678 C648 1.325 . S
O679 Li617 1.961 . S
O679 Li618 1.970 . S
O679 Li619 1.956 . S
O679 C654 1.325 . S
H680 C622 0.929 . S
H681 C623 0.930 . S
H682 C624 0.930 . S
H683 C625 0.930 . S
H684 C627 0.930 . S
H685 C629 0.929 . S
H686 C630 0.930 . S
H687 C631 0.930 . S
H688 C634 0.930 . S
H689 C637 0.929 . S
H690 C642 0.929 . S
H691 C643 0.930 . S
H692 C650 0.929 . S
H693 C651 0.930 . S
H694 C652 0.930 . S
H695 C653 0.930 . S
H696 C655 0.929 . S
H697 C656 0.930 . S
H698 C657 0.930 . S
H699 C658 0.930 . S
H700 C662 0.929 . S
H701 C664 0.930 . S
H702 C670 0.929 . S
H703 C671 0.930 . S
Li704 N721 1.990 . S
Li704 O764 1.956 . S
Li704 O765 1.970 . S
Li704 O766 1.961 . S
Li705 N729 1.990 . S
Li705 O764 1.970 . S
Li705 O765 1.956 . S
Li705 O767 1.961 . S
Li706 N751 1.990 . S
Li706 O764 1.961 . S
Li706 O766 1.956 . S
Li706 O767 1.970 . S
Li707 N757 1.990 . S
Li707 O765 1.961 . S
Li707 O766 1.970 . S
Li707 O767 1.956 . S
C708 C710 1.348 . S
C708 C711 1.356 . S
C708 O764 1.325 . S
N709 C712 1.314 . S
N709 C713 1.279 . S
C710 C708 1.348 . S
C710 C712 1.353 . S
C710 H768 0.929 . S
C711 C708 1.356 . S
C711 C713 1.358 . S
C711 H769 0.930 . S
C712 N709 1.314 . S
C712 C710 1.353 . S
C712 H770 0.930 . S
C713 N709 1.279 . S
C713 C711 1.358 . S
C713 H771 0.930 . S
C714 C717 1.348 . S
C714 C718 1.356 . S
C714 O765 1.325 . S
C715 N716 1.279 . S
C715 C718 1.358 . S
C715 H772 0.930 . S
N716 C715 1.279 . S
N716 C719 1.314 . S
C717 C714 1.348 . S
C717 C719 1.353 . S
C717 H773 0.929 . S
C718 C714 1.356 . S
C718 C715 1.358 . S
C718 H774 0.930 . S
C719 N716 1.314 . S
C719 C717 1.353 . S
C719 H775 0.930 . S
C720 N721 1.314 . S
C720 C725 1.353 . S
C720 H726 0.930 . S
N721 Li704 1.990 . S
N721 C720 1.314 . S
N721 C723 1.279 . S
C722 C723 1.358 . S
C722 C724 1.356 . S
C722 H776 0.930 . S
C723 N721 1.279 . S
C723 C722 1.358 . S
C723 H727 0.930 . S
C724 C722 1.356 . S
C724 C725 1.348 . S
C725 C720 1.353 . S
C725 C724 1.348 . S
C725 H777 0.929 . S
H726 C720 0.930 . S
H727 C723 0.930 . S
C728 N729 1.314 . S
C728 C730 1.353 . S
C728 H734 0.930 . S
N729 Li705 1.990 . S
N729 C728 1.314 . S
N729 C732 1.279 . S
C730 C728 1.353 . S
C730 C733 1.348 . S
C730 H778 0.929 . S
C731 C732 1.358 . S
C731 C733 1.356 . S
C731 H779 0.930 . S
C732 N729 1.279 . S
C732 C731 1.358 . S
C732 H735 0.930 . S
C733 C730 1.348 . S
C733 C731 1.356 . S
H734 C728 0.930 . S
H735 C732 0.930 . S
C736 C738 1.348 . S
C736 C739 1.356 . S
C736 O766 1.325 . S
N737 C740 1.314 . S
N737 C741 1.279 . S
C738 C736 1.348 . S
C738 C740 1.353 . S
C738 H780 0.929 . S
C739 C736 1.356 . S
C739 C741 1.358 . S
C739 H781 0.930 . S
C740 N737 1.314 . S
C740 C738 1.353 . S
C740 H782 0.930 . S
C741 N737 1.279 . S
C741 C739 1.358 . S
C741 H783 0.930 . S
C742 C743 1.348 . S
C742 C744 1.356 . S
C742 O767 1.325 . S
C743 C742 1.348 . S
C743 C745 1.353 . S
C743 H784 0.929 . S
C744 C742 1.356 . S
C744 C746 1.358 . S
C744 H785 0.930 . S
C745 C743 1.353 . S
C745 N747 1.314 . S
C745 H786 0.930 . S
C746 C744 1.358 . S
C746 N747 1.279 . S
C746 H787 0.930 . S
N747 C745 1.314 . S
N747 C746 1.279 . S
C748 C750 1.353 . S
C748 N751 1.314 . S
C748 H754 0.930 . S
C749 N751 1.279 . S
C749 C752 1.358 . S
C749 H755 0.930 . S
C750 C748 1.353 . S
C750 C753 1.348 . S
C750 H788 0.929 . S
N751 Li706 1.990 . S
N751 C748 1.314 . S
N751 C749 1.279 . S
C752 C749 1.358 . S
C752 C753 1.356 . S
C752 H789 0.930 . S
C753 C750 1.348 . S
C753 C752 1.356 . S
H754 C748 0.930 . S
H755 C749 0.930 . S
C756 N757 1.314 . S
C756 C758 1.353 . S
C756 H762 0.930 . S
N757 Li707 1.990 . S
N757 C756 1.314 . S
N757 C760 1.279 . S
C758 C756 1.353 . S
C758 C761 1.348 . S
C758 H790 0.929 . S
C759 C760 1.358 . S
C759 C761 1.356 . S
C759 H791 0.930 . S
C760 N757 1.279 . S
C760 C759 1.358 . S
C760 H763 0.930 . S
C761 C758 1.348 . S
C761 C759 1.356 . S
H762 C756 0.930 . S
H763 C760 0.930 . S
O764 Li704 1.956 . S
O764 Li705 1.970 . S
O764 Li706 1.961 . S
O764 C708 1.325 . S
O765 Li704 1.970 . S
O765 Li705 1.956 . S
O765 Li707 1.961 . S
O765 C714 1.325 . S
O766 Li704 1.961 . S
O766 Li706 1.956 . S
O766 Li707 1.970 . S
O766 C736 1.325 . S
O767 Li705 1.961 . S
O767 Li706 1.970 . S
O767 Li707 1.956 . S
O767 C742 1.325 . S
H768 C710 0.929 . S
H769 C711 0.930 . S
H770 C712 0.930 . S
H771 C713 0.930 . S
H772 C715 0.930 . S
H773 C717 0.929 . S
H774 C718 0.930 . S
H775 C719 0.930 . S
H776 C722 0.930 . S
H777 C725 0.929 . S
H778 C730 0.929 . S
H779 C731 0.930 . S
H780 C738 0.929 . S
H781 C739 0.930 . S
H782 C740 0.930 . S
H783 C741 0.930 . S
H784 C743 0.929 . S
H785 C744 0.930 . S
H786 C745 0.930 . S
H787 C746 0.930 . S
H788 C750 0.929 . S
H789 C752 0.930 . S
H790 C758 0.929 . S
H791 C759 0.930 . S
Li792 N809 1.990 . S
Li792 O852 1.956 . S
Li792 O853 1.970 . S
Li792 O854 1.961 . S
Li793 N817 1.990 . S
Li793 O852 1.970 . S
Li793 O853 1.956 . S
Li793 O855 1.961 . S
Li794 N839 1.990 . S
Li794 O852 1.961 . S
Li794 O854 1.956 . S
Li794 O855 1.970 . S
Li795 N845 1.990 . S
Li795 O853 1.961 . S
Li795 O854 1.970 . S
Li795 O855 1.956 . S
C796 C798 1.348 . S
C796 C799 1.356 . S
C796 O852 1.325 . S
N797 C800 1.314 . S
N797 C801 1.279 . S
C798 C796 1.348 . S
C798 C800 1.353 . S
C798 H856 0.929 . S
C799 C796 1.356 . S
C799 C801 1.358 . S
C799 H857 0.930 . S
C800 N797 1.314 . S
C800 C798 1.353 . S
C800 H858 0.930 . S
C801 N797 1.279 . S
C801 C799 1.358 . S
C801 H859 0.930 . S
C802 C805 1.348 . S
C802 C806 1.356 . S
C802 O853 1.325 . S
C803 N804 1.279 . S
C803 C806 1.358 . S
C803 H860 0.930 . S
N804 C803 1.279 . S
N804 C807 1.314 . S
C805 C802 1.348 . S
C805 C807 1.353 . S
C805 H861 0.929 . S
C806 C802 1.356 . S
C806 C803 1.358 . S
C806 H862 0.930 . S
C807 N804 1.314 . S
C807 C805 1.353 . S
C807 H863 0.930 . S
C808 N809 1.314 . S
C808 C813 1.353 . S
C808 H814 0.930 . S
N809 Li792 1.990 . S
N809 C808 1.314 . S
N809 C811 1.279 . S
C810 C811 1.358 . S
C810 C812 1.356 . S
C810 H864 0.930 . S
C811 N809 1.279 . S
C811 C810 1.358 . S
C811 H815 0.930 . S
C812 C810 1.356 . S
C812 C813 1.348 . S
C813 C808 1.353 . S
C813 C812 1.348 . S
C813 H865 0.929 . S
H814 C808 0.930 . S
H815 C811 0.930 . S
C816 N817 1.314 . S
C816 C818 1.353 . S
C816 H822 0.930 . S
N817 Li793 1.990 . S
N817 C816 1.314 . S
N817 C820 1.279 . S
C818 C816 1.353 . S
C818 C821 1.348 . S
C818 H866 0.929 . S
C819 C820 1.358 . S
C819 C821 1.356 . S
C819 H867 0.930 . S
C820 N817 1.279 . S
C820 C819 1.358 . S
C820 H823 0.930 . S
C821 C818 1.348 . S
C821 C819 1.356 . S
H822 C816 0.930 . S
H823 C820 0.930 . S
C824 C826 1.348 . S
C824 C827 1.356 . S
C824 O854 1.325 . S
N825 C828 1.314 . S
N825 C829 1.279 . S
C826 C824 1.348 . S
C826 C828 1.353 . S
C826 H868 0.929 . S
C827 C824 1.356 . S
C827 C829 1.358 . S
C827 H869 0.930 . S
C828 N825 1.314 . S
C828 C826 1.353 . S
C828 H870 0.930 . S
C829 N825 1.279 . S
C829 C827 1.358 . S
C829 H871 0.930 . S
C830 C831 1.348 . S
C830 C832 1.356 . S
C830 O855 1.325 . S
C831 C830 1.348 . S
C831 C833 1.353 . S
C831 H872 0.929 . S
C832 C830 1.356 . S
C832 C834 1.358 . S
C832 H873 0.930 . S
C833 C831 1.353 . S
C833 N835 1.314 . S
C833 H874 0.930 . S
C834 C832 1.358 . S
C834 N835 1.279 . S
C834 H875 0.930 . S
N835 C833 1.314 . S
N835 C834 1.279 . S
C836 C838 1.353 . S
C836 N839 1.314 . S
C836 H842 0.930 . S
C837 N839 1.279 . S
C837 C840 1.358 . S
C837 H843 0.930 . S
C838 C836 1.353 . S
C838 C841 1.348 . S
C838 H876 0.929 . S
N839 Li794 1.990 . S
N839 C836 1.314 . S
N839 C837 1.279 . S
C840 C837 1.358 . S
C840 C841 1.356 . S
C840 H877 0.930 . S
C841 C838 1.348 . S
C841 C840 1.356 . S
H842 C836 0.930 . S
H843 C837 0.930 . S
C844 N845 1.314 . S
C844 C846 1.353 . S
C844 H850 0.930 . S
N845 Li795 1.990 . S
N845 C844 1.314 . S
N845 C848 1.279 . S
C846 C844 1.353 . S
C846 C849 1.348 . S
C846 H878 0.929 . S
C847 C848 1.358 . S
C847 C849 1.356 . S
C847 H879 0.930 . S
C848 N845 1.279 . S
C848 C847 1.358 . S
C848 H851 0.930 . S
C849 C846 1.348 . S
C849 C847 1.356 . S
H850 C844 0.930 . S
H851 C848 0.930 . S
O852 Li792 1.956 . S
O852 Li793 1.970 . S
O852 Li794 1.961 . S
O852 C796 1.325 . S
O853 Li792 1.970 . S
O853 Li793 1.956 . S
O853 Li795 1.961 . S
O853 C802 1.325 . S
O854 Li792 1.961 . S
O854 Li794 1.956 . S
O854 Li795 1.970 . S
O854 C824 1.325 . S
O855 Li793 1.961 . S
O855 Li794 1.970 . S
O855 Li795 1.956 . S
O855 C830 1.325 . S
H856 C798 0.929 . S
H857 C799 0.930 . S
H858 C800 0.930 . S
H859 C801 0.930 . S
H860 C803 0.930 . S
H861 C805 0.929 . S
H862 C806 0.930 . S
H863 C807 0.930 . S
H864 C810 0.930 . S
H865 C813 0.929 . S
H866 C818 0.929 . S
H867 C819 0.930 . S
H868 C826 0.929 . S
H869 C827 0.930 . S
H870 C828 0.930 . S
H871 C829 0.930 . S
H872 C831 0.929 . S
H873 C832 0.930 . S
H874 C833 0.930 . S
H875 C834 0.930 . S
H876 C838 0.929 . S
H877 C840 0.930 . S
H878 C846 0.929 . S
H879 C847 0.930 . S
Li880 N897 1.990 . S
Li880 O940 1.956 . S
Li880 O941 1.970 . S
Li880 O942 1.961 . S
Li881 N905 1.990 . S
Li881 O940 1.970 . S
Li881 O941 1.956 . S
Li881 O943 1.961 . S
Li882 N927 1.990 . S
Li882 O940 1.961 . S
Li882 O942 1.956 . S
Li882 O943 1.970 . S
Li883 N933 1.990 . S
Li883 O941 1.961 . S
Li883 O942 1.970 . S
Li883 O943 1.956 . S
C884 C886 1.348 . S
C884 C887 1.356 . S
C884 O940 1.325 . S
N885 C888 1.314 . S
N885 C889 1.279 . S
C886 C884 1.348 . S
C886 C888 1.353 . S
C886 H944 0.929 . S
C887 C884 1.356 . S
C887 C889 1.358 . S
C887 H945 0.930 . S
C888 N885 1.314 . S
C888 C886 1.353 . S
C888 H946 0.930 . S
C889 N885 1.279 . S
C889 C887 1.358 . S
C889 H947 0.930 . S
C890 C893 1.348 . S
C890 C894 1.356 . S
C890 O941 1.325 . S
C891 N892 1.279 . S
C891 C894 1.358 . S
C891 H948 0.930 . S
N892 C891 1.279 . S
N892 C895 1.314 . S
C893 C890 1.348 . S
C893 C895 1.353 . S
C893 H949 0.929 . S
C894 C890 1.356 . S
C894 C891 1.358 . S
C894 H950 0.930 . S
C895 N892 1.314 . S
C895 C893 1.353 . S
C895 H951 0.930 . S
C896 N897 1.314 . S
C896 C901 1.353 . S
C896 H902 0.930 . S
N897 Li880 1.990 . S
N897 C896 1.314 . S
N897 C899 1.279 . S
C898 C899 1.358 . S
C898 C900 1.356 . S
C898 H952 0.930 . S
C899 N897 1.279 . S
C899 C898 1.358 . S
C899 H903 0.930 . S
C900 C898 1.356 . S
C900 C901 1.348 . S
C901 C896 1.353 . S
C901 C900 1.348 . S
C901 H953 0.929 . S
H902 C896 0.930 . S
H903 C899 0.930 . S
C904 N905 1.314 . S
C904 C906 1.353 . S
C904 H910 0.930 . S
N905 Li881 1.990 . S
N905 C904 1.314 . S
N905 C908 1.279 . S
C906 C904 1.353 . S
C906 C909 1.348 . S
C906 H954 0.929 . S
C907 C908 1.358 . S
C907 C909 1.356 . S
C907 H955 0.930 . S
C908 N905 1.279 . S
C908 C907 1.358 . S
C908 H911 0.930 . S
C909 C906 1.348 . S
C909 C907 1.356 . S
H910 C904 0.930 . S
H911 C908 0.930 . S
C912 C914 1.348 . S
C912 C915 1.356 . S
C912 O942 1.325 . S
N913 C916 1.314 . S
N913 C917 1.279 . S
C914 C912 1.348 . S
C914 C916 1.353 . S
C914 H956 0.929 . S
C915 C912 1.356 . S
C915 C917 1.358 . S
C915 H957 0.930 . S
C916 N913 1.314 . S
C916 C914 1.353 . S
C916 H958 0.930 . S
C917 N913 1.279 . S
C917 C915 1.358 . S
C917 H959 0.930 . S
C918 C919 1.348 . S
C918 C920 1.356 . S
C918 O943 1.325 . S
C919 C918 1.348 . S
C919 C921 1.353 . S
C919 H960 0.929 . S
C920 C918 1.356 . S
C920 C922 1.358 . S
C920 H961 0.930 . S
C921 C919 1.353 . S
C921 N923 1.314 . S
C921 H962 0.930 . S
C922 C920 1.358 . S
C922 N923 1.279 . S
C922 H963 0.930 . S
N923 C921 1.314 . S
N923 C922 1.279 . S
C924 C926 1.353 . S
C924 N927 1.314 . S
C924 H930 0.930 . S
C925 N927 1.279 . S
C925 C928 1.358 . S
C925 H931 0.930 . S
C926 C924 1.353 . S
C926 C929 1.348 . S
C926 H964 0.929 . S
N927 Li882 1.990 . S
N927 C924 1.314 . S
N927 C925 1.279 . S
C928 C925 1.358 . S
C928 C929 1.356 . S
C928 H965 0.930 . S
C929 C926 1.348 . S
C929 C928 1.356 . S
H930 C924 0.930 . S
H931 C925 0.930 . S
C932 N933 1.314 . S
C932 C934 1.353 . S
C932 H938 0.930 . S
N933 Li883 1.990 . S
N933 C932 1.314 . S
N933 C936 1.279 . S
C934 C932 1.353 . S
C934 C937 1.348 . S
C934 H966 0.929 . S
C935 C936 1.358 . S
C935 C937 1.356 . S
C935 H967 0.930 . S
C936 N933 1.279 . S
C936 C935 1.358 . S
C936 H939 0.930 . S
C937 C934 1.348 . S
C937 C935 1.356 . S
H938 C932 0.930 . S
H939 C936 0.930 . S
O940 Li880 1.956 . S
O940 Li881 1.970 . S
O940 Li882 1.961 . S
O940 C884 1.325 . S
O941 Li880 1.970 . S
O941 Li881 1.956 . S
O941 Li883 1.961 . S
O941 C890 1.325 . S
O942 Li880 1.961 . S
O942 Li882 1.956 . S
O942 Li883 1.970 . S
O942 C912 1.325 . S
O943 Li881 1.961 . S
O943 Li882 1.970 . S
O943 Li883 1.956 . S
O943 C918 1.325 . S
H944 C886 0.929 . S
H945 C887 0.930 . S
H946 C888 0.930 . S
H947 C889 0.930 . S
H948 C891 0.930 . S
H949 C893 0.929 . S
H950 C894 0.930 . S
H951 C895 0.930 . S
H952 C898 0.930 . S
H953 C901 0.929 . S
H954 C906 0.929 . S
H955 C907 0.930 . S
H956 C914 0.929 . S
H957 C915 0.930 . S
H958 C916 0.930 . S
H959 C917 0.930 . S
H960 C919 0.929 . S
H961 C920 0.930 . S
H962 C921 0.930 . S
H963 C922 0.930 . S
H964 C926 0.929 . S
H965 C928 0.930 . S
H966 C934 0.929 . S
H967 C935 0.930 . S
Li968 N985 1.990 . S
Li968 O1028 1.956 . S
Li968 O1029 1.970 . S
Li968 O1030 1.961 . S
Li969 N993 1.990 . S
Li969 O1028 1.970 . S
Li969 O1029 1.956 . S
Li969 O1031 1.961 . S
Li970 N1015 1.990 . S
Li970 O1028 1.961 . S
Li970 O1030 1.956 . S
Li970 O1031 1.970 . S
Li971 N1021 1.990 . S
Li971 O1029 1.961 . S
Li971 O1030 1.970 . S
Li971 O1031 1.956 . S
C972 C974 1.348 . S
C972 C975 1.356 . S
C972 O1028 1.325 . S
N973 C976 1.314 . S
N973 C977 1.279 . S
C974 C972 1.348 . S
C974 C976 1.353 . S
C974 H1032 0.929 . S
C975 C972 1.356 . S
C975 C977 1.358 . S
C975 H1033 0.930 . S
C976 N973 1.314 . S
C976 C974 1.353 . S
C976 H1034 0.930 . S
C977 N973 1.279 . S
C977 C975 1.358 . S
C977 H1035 0.930 . S
C978 C981 1.348 . S
C978 C982 1.356 . S
C978 O1029 1.325 . S
C979 N980 1.279 . S
C979 C982 1.358 . S
C979 H1036 0.930 . S
N980 C979 1.279 . S
N980 C983 1.314 . S
C981 C978 1.348 . S
C981 C983 1.353 . S
C981 H1037 0.929 . S
C982 C978 1.356 . S
C982 C979 1.358 . S
C982 H1038 0.930 . S
C983 N980 1.314 . S
C983 C981 1.353 . S
C983 H1039 0.930 . S
C984 N985 1.314 . S
C984 C989 1.353 . S
C984 H990 0.930 . S
N985 Li968 1.990 . S
N985 C984 1.314 . S
N985 C987 1.279 . S
C986 C987 1.358 . S
C986 C988 1.356 . S
C986 H1040 0.930 . S
C987 N985 1.279 . S
C987 C986 1.358 . S
C987 H991 0.930 . S
C988 C986 1.356 . S
C988 C989 1.348 . S
C989 C984 1.353 . S
C989 C988 1.348 . S
C989 H1041 0.929 . S
H990 C984 0.930 . S
H991 C987 0.930 . S
C992 N993 1.314 . S
C992 C994 1.353 . S
C992 H998 0.930 . S
N993 Li969 1.990 . S
N993 C992 1.314 . S
N993 C996 1.279 . S
C994 C992 1.353 . S
C994 C997 1.348 . S
C994 H1042 0.929 . S
C995 C996 1.358 . S
C995 C997 1.356 . S
C995 H1043 0.930 . S
C996 N993 1.279 . S
C996 C995 1.358 . S
C996 H999 0.930 . S
C997 C994 1.348 . S
C997 C995 1.356 . S
H998 C992 0.930 . S
H999 C996 0.930 . S
C1000 C1002 1.348 . S
C1000 C1003 1.356 . S
C1000 O1030 1.325 . S
N1001 C1004 1.314 . S
N1001 C1005 1.279 . S
C1002 C1000 1.348 . S
C1002 C1004 1.353 . S
C1002 H1044 0.929 . S
C1003 C1000 1.356 . S
C1003 C1005 1.358 . S
C1003 H1045 0.930 . S
C1004 N1001 1.314 . S
C1004 C1002 1.353 . S
C1004 H1046 0.930 . S
C1005 N1001 1.279 . S
C1005 C1003 1.358 . S
C1005 H1047 0.930 . S
C1006 C1007 1.348 . S
C1006 C1008 1.356 . S
C1006 O1031 1.325 . S
C1007 C1006 1.348 . S
C1007 C1009 1.353 . S
C1007 H1048 0.929 . S
C1008 C1006 1.356 . S
C1008 C1010 1.358 . S
C1008 H1049 0.930 . S
C1009 C1007 1.353 . S
C1009 N1011 1.314 . S
C1009 H1050 0.930 . S
C1010 C1008 1.358 . S
C1010 N1011 1.279 . S
C1010 H1051 0.930 . S
N1011 C1009 1.314 . S
N1011 C1010 1.279 . S
C1012 C1014 1.353 . S
C1012 N1015 1.314 . S
C1012 H1018 0.930 . S
C1013 N1015 1.279 . S
C1013 C1016 1.358 . S
C1013 H1019 0.930 . S
C1014 C1012 1.353 . S
C1014 C1017 1.348 . S
C1014 H1052 0.929 . S
N1015 Li970 1.990 . S
N1015 C1012 1.314 . S
N1015 C1013 1.279 . S
C1016 C1013 1.358 . S
C1016 C1017 1.356 . S
C1016 H1053 0.930 . S
C1017 C1014 1.348 . S
C1017 C1016 1.356 . S
H1018 C1012 0.930 . S
H1019 C1013 0.930 . S
C1020 N1021 1.314 . S
C1020 C1022 1.353 . S
C1020 H1026 0.930 . S
N1021 Li971 1.990 . S
N1021 C1020 1.314 . S
N1021 C1024 1.279 . S
C1022 C1020 1.353 . S
C1022 C1025 1.348 . S
C1022 H1054 0.929 . S
C1023 C1024 1.358 . S
C1023 C1025 1.356 . S
C1023 H1055 0.930 . S
C1024 N1021 1.279 . S
C1024 C1023 1.358 . S
C1024 H1027 0.930 . S
C1025 C1022 1.348 . S
C1025 C1023 1.356 . S
H1026 C1020 0.930 . S
H1027 C1024 0.930 . S
O1028 Li968 1.956 . S
O1028 Li969 1.970 . S
O1028 Li970 1.961 . S
O1028 C972 1.325 . S
O1029 Li968 1.970 . S
O1029 Li969 1.956 . S
O1029 Li971 1.961 . S
O1029 C978 1.325 . S
O1030 Li968 1.961 . S
O1030 Li970 1.956 . S
O1030 Li971 1.970 . S
O1030 C1000 1.325 . S
O1031 Li969 1.961 . S
O1031 Li970 1.970 . S
O1031 Li971 1.956 . S
O1031 C1006 1.325 . S
H1032 C974 0.929 . S
H1033 C975 0.930 . S
H1034 C976 0.930 . S
H1035 C977 0.930 . S
H1036 C979 0.930 . S
H1037 C981 0.929 . S
H1038 C982 0.930 . S
H1039 C983 0.930 . S
H1040 C986 0.930 . S
H1041 C989 0.929 . S
H1042 C994 0.929 . S
H1043 C995 0.930 . S
H1044 C1002 0.929 . S
H1045 C1003 0.930 . S
H1046 C1004 0.930 . S
H1047 C1005 0.930 . S
H1048 C1007 0.929 . S
H1049 C1008 0.930 . S
H1050 C1009 0.930 . S
H1051 C1010 0.930 . S
H1052 C1014 0.929 . S
H1053 C1016 0.930 . S
H1054 C1022 0.929 . S
H1055 C1023 0.930 . S
Li1056 N1073 1.990 . S
Li1056 O1116 1.956 . S
Li1056 O1117 1.970 . S
Li1056 O1118 1.961 . S
Li1057 N1081 1.990 . S
Li1057 O1116 1.970 . S
Li1057 O1117 1.956 . S
Li1057 O1119 1.961 . S
Li1058 N1103 1.990 . S
Li1058 O1116 1.961 . S
Li1058 O1118 1.956 . S
Li1058 O1119 1.970 . S
Li1059 N1109 1.990 . S
Li1059 O1117 1.961 . S
Li1059 O1118 1.970 . S
Li1059 O1119 1.956 . S
C1060 C1062 1.348 . S
C1060 C1063 1.356 . S
C1060 O1116 1.325 . S
N1061 C1064 1.314 . S
N1061 C1065 1.279 . S
C1062 C1060 1.348 . S
C1062 C1064 1.353 . S
C1062 H1120 0.929 . S
C1063 C1060 1.356 . S
C1063 C1065 1.358 . S
C1063 H1121 0.930 . S
C1064 N1061 1.314 . S
C1064 C1062 1.353 . S
C1064 H1122 0.930 . S
C1065 N1061 1.279 . S
C1065 C1063 1.358 . S
C1065 H1123 0.930 . S
C1066 C1069 1.348 . S
C1066 C1070 1.356 . S
C1066 O1117 1.325 . S
C1067 N1068 1.279 . S
C1067 C1070 1.358 . S
C1067 H1124 0.930 . S
N1068 C1067 1.279 . S
N1068 C1071 1.314 . S
C1069 C1066 1.348 . S
C1069 C1071 1.353 . S
C1069 H1125 0.929 . S
C1070 C1066 1.356 . S
C1070 C1067 1.358 . S
C1070 H1126 0.930 . S
C1071 N1068 1.314 . S
C1071 C1069 1.353 . S
C1071 H1127 0.930 . S
C1072 N1073 1.314 . S
C1072 C1077 1.353 . S
C1072 H1078 0.930 . S
N1073 Li1056 1.990 . S
N1073 C1072 1.314 . S
N1073 C1075 1.279 . S
C1074 C1075 1.358 . S
C1074 C1076 1.356 . S
C1074 H1128 0.930 . S
C1075 N1073 1.279 . S
C1075 C1074 1.358 . S
C1075 H1079 0.930 . S
C1076 C1074 1.356 . S
C1076 C1077 1.348 . S
C1077 C1072 1.353 . S
C1077 C1076 1.348 . S
C1077 H1129 0.929 . S
H1078 C1072 0.930 . S
H1079 C1075 0.930 . S
C1080 N1081 1.314 . S
C1080 C1082 1.353 . S
C1080 H1086 0.930 . S
N1081 Li1057 1.990 . S
N1081 C1080 1.314 . S
N1081 C1084 1.279 . S
C1082 C1080 1.353 . S
C1082 C1085 1.348 . S
C1082 H1130 0.929 . S
C1083 C1084 1.358 . S
C1083 C1085 1.356 . S
C1083 H1131 0.930 . S
C1084 N1081 1.279 . S
C1084 C1083 1.358 . S
C1084 H1087 0.930 . S
C1085 C1082 1.348 . S
C1085 C1083 1.356 . S
H1086 C1080 0.930 . S
H1087 C1084 0.930 . S
C1088 C1090 1.348 . S
C1088 C1091 1.356 . S
C1088 O1118 1.325 . S
N1089 C1092 1.314 . S
N1089 C1093 1.279 . S
C1090 C1088 1.348 . S
C1090 C1092 1.353 . S
C1090 H1132 0.929 . S
C1091 C1088 1.356 . S
C1091 C1093 1.358 . S
C1091 H1133 0.930 . S
C1092 N1089 1.314 . S
C1092 C1090 1.353 . S
C1092 H1134 0.930 . S
C1093 N1089 1.279 . S
C1093 C1091 1.358 . S
C1093 H1135 0.930 . S
C1094 C1095 1.348 . S
C1094 C1096 1.356 . S
C1094 O1119 1.325 . S
C1095 C1094 1.348 . S
C1095 C1097 1.353 . S
C1095 H1136 0.929 . S
C1096 C1094 1.356 . S
C1096 C1098 1.358 . S
C1096 H1137 0.930 . S
C1097 C1095 1.353 . S
C1097 N1099 1.314 . S
C1097 H1138 0.930 . S
C1098 C1096 1.358 . S
C1098 N1099 1.279 . S
C1098 H1139 0.930 . S
N1099 C1097 1.314 . S
N1099 C1098 1.279 . S
C1100 C1102 1.353 . S
C1100 N1103 1.314 . S
C1100 H1106 0.930 . S
C1101 N1103 1.279 . S
C1101 C1104 1.358 . S
C1101 H1107 0.930 . S
C1102 C1100 1.353 . S
C1102 C1105 1.348 . S
C1102 H1140 0.929 . S
N1103 Li1058 1.990 . S
N1103 C1100 1.314 . S
N1103 C1101 1.279 . S
C1104 C1101 1.358 . S
C1104 C1105 1.356 . S
C1104 H1141 0.930 . S
C1105 C1102 1.348 . S
C1105 C1104 1.356 . S
H1106 C1100 0.930 . S
H1107 C1101 0.930 . S
C1108 N1109 1.314 . S
C1108 C1110 1.353 . S
C1108 H1114 0.930 . S
N1109 Li1059 1.990 . S
N1109 C1108 1.314 . S
N1109 C1112 1.279 . S
C1110 C1108 1.353 . S
C1110 C1113 1.348 . S
C1110 H1142 0.929 . S
C1111 C1112 1.358 . S
C1111 C1113 1.356 . S
C1111 H1143 0.930 . S
C1112 N1109 1.279 . S
C1112 C1111 1.358 . S
C1112 H1115 0.930 . S
C1113 C1110 1.348 . S
C1113 C1111 1.356 . S
H1114 C1108 0.930 . S
H1115 C1112 0.930 . S
O1116 Li1056 1.956 . S
O1116 Li1057 1.970 . S
O1116 Li1058 1.961 . S
O1116 C1060 1.325 . S
O1117 Li1056 1.970 . S
O1117 Li1057 1.956 . S
O1117 Li1059 1.961 . S
O1117 C1066 1.325 . S
O1118 Li1056 1.961 . S
O1118 Li1058 1.956 . S
O1118 Li1059 1.970 . S
O1118 C1088 1.325 . S
O1119 Li1057 1.961 . S
O1119 Li1058 1.970 . S
O1119 Li1059 1.956 . S
O1119 C1094 1.325 . S
H1120 C1062 0.929 . S
H1121 C1063 0.930 . S
H1122 C1064 0.930 . S
H1123 C1065 0.930 . S
H1124 C1067 0.930 . S
H1125 C1069 0.929 . S
H1126 C1070 0.930 . S
H1127 C1071 0.930 . S
H1128 C1074 0.930 . S
H1129 C1077 0.929 . S
H1130 C1082 0.929 . S
H1131 C1083 0.930 . S
H1132 C1090 0.929 . S
H1133 C1091 0.930 . S
H1134 C1092 0.930 . S
H1135 C1093 0.930 . S
H1136 C1095 0.929 . S
H1137 C1096 0.930 . S
H1138 C1097 0.930 . S
H1139 C1098 0.930 . S
H1140 C1102 0.929 . S
H1141 C1104 0.930 . S
H1142 C1110 0.929 . S
H1143 C1111 0.930 . S
Li1144 N1161 1.990 . S
Li1144 O1204 1.956 . S
Li1144 O1205 1.970 . S
Li1144 O1206 1.961 . S
Li1145 N1169 1.990 . S
Li1145 O1204 1.970 . S
Li1145 O1205 1.956 . S
Li1145 O1207 1.961 . S
Li1146 N1191 1.990 . S
Li1146 O1204 1.961 . S
Li1146 O1206 1.956 . S
Li1146 O1207 1.970 . S
Li1147 N1197 1.990 . S
Li1147 O1205 1.961 . S
Li1147 O1206 1.970 . S
Li1147 O1207 1.956 . S
C1148 C1150 1.348 . S
C1148 C1151 1.356 . S
C1148 O1204 1.325 . S
N1149 C1152 1.314 . S
N1149 C1153 1.279 . S
C1150 C1148 1.348 . S
C1150 C1152 1.353 . S
C1150 H1208 0.929 . S
C1151 C1148 1.356 . S
C1151 C1153 1.358 . S
C1151 H1209 0.930 . S
C1152 N1149 1.314 . S
C1152 C1150 1.353 . S
C1152 H1210 0.930 . S
C1153 N1149 1.279 . S
C1153 C1151 1.358 . S
C1153 H1211 0.930 . S
C1154 C1157 1.348 . S
C1154 C1158 1.356 . S
C1154 O1205 1.325 . S
C1155 N1156 1.279 . S
C1155 C1158 1.358 . S
C1155 H1212 0.930 . S
N1156 C1155 1.279 . S
N1156 C1159 1.314 . S
C1157 C1154 1.348 . S
C1157 C1159 1.353 . S
C1157 H1213 0.929 . S
C1158 C1154 1.356 . S
C1158 C1155 1.358 . S
C1158 H1214 0.930 . S
C1159 N1156 1.314 . S
C1159 C1157 1.353 . S
C1159 H1215 0.930 . S
C1160 N1161 1.314 . S
C1160 C1165 1.353 . S
C1160 H1166 0.930 . S
N1161 Li1144 1.990 . S
N1161 C1160 1.314 . S
N1161 C1163 1.279 . S
C1162 C1163 1.358 . S
C1162 C1164 1.356 . S
C1162 H1216 0.930 . S
C1163 N1161 1.279 . S
C1163 C1162 1.358 . S
C1163 H1167 0.930 . S
C1164 C1162 1.356 . S
C1164 C1165 1.348 . S
C1165 C1160 1.353 . S
C1165 C1164 1.348 . S
C1165 H1217 0.929 . S
H1166 C1160 0.930 . S
H1167 C1163 0.930 . S
C1168 N1169 1.314 . S
C1168 C1170 1.353 . S
C1168 H1174 0.930 . S
N1169 Li1145 1.990 . S
N1169 C1168 1.314 . S
N1169 C1172 1.279 . S
C1170 C1168 1.353 . S
C1170 C1173 1.348 . S
C1170 H1218 0.929 . S
C1171 C1172 1.358 . S
C1171 C1173 1.356 . S
C1171 H1219 0.930 . S
C1172 N1169 1.279 . S
C1172 C1171 1.358 . S
C1172 H1175 0.930 . S
C1173 C1170 1.348 . S
C1173 C1171 1.356 . S
H1174 C1168 0.930 . S
H1175 C1172 0.930 . S
C1176 C1178 1.348 . S
C1176 C1179 1.356 . S
C1176 O1206 1.325 . S
N1177 C1180 1.314 . S
N1177 C1181 1.279 . S
C1178 C1176 1.348 . S
C1178 C1180 1.353 . S
C1178 H1220 0.929 . S
C1179 C1176 1.356 . S
C1179 C1181 1.358 . S
C1179 H1221 0.930 . S
C1180 N1177 1.314 . S
C1180 C1178 1.353 . S
C1180 H1222 0.930 . S
C1181 N1177 1.279 . S
C1181 C1179 1.358 . S
C1181 H1223 0.930 . S
C1182 C1183 1.348 . S
C1182 C1184 1.356 . S
C1182 O1207 1.325 . S
C1183 C1182 1.348 . S
C1183 C1185 1.353 . S
C1183 H1224 0.929 . S
C1184 C1182 1.356 . S
C1184 C1186 1.358 . S
C1184 H1225 0.930 . S
C1185 C1183 1.353 . S
C1185 N1187 1.314 . S
C1185 H1226 0.930 . S
C1186 C1184 1.358 . S
C1186 N1187 1.279 . S
C1186 H1227 0.930 . S
N1187 C1185 1.314 . S
N1187 C1186 1.279 . S
C1188 C1190 1.353 . S
C1188 N1191 1.314 . S
C1188 H1194 0.930 . S
C1189 N1191 1.279 . S
C1189 C1192 1.358 . S
C1189 H1195 0.930 . S
C1190 C1188 1.353 . S
C1190 C1193 1.348 . S
C1190 H1228 0.929 . S
N1191 Li1146 1.990 . S
N1191 C1188 1.314 . S
N1191 C1189 1.279 . S
C1192 C1189 1.358 . S
C1192 C1193 1.356 . S
C1192 H1229 0.930 . S
C1193 C1190 1.348 . S
C1193 C1192 1.356 . S
H1194 C1188 0.930 . S
H1195 C1189 0.930 . S
C1196 N1197 1.314 . S
C1196 C1198 1.353 . S
C1196 H1202 0.930 . S
N1197 Li1147 1.990 . S
N1197 C1196 1.314 . S
N1197 C1200 1.279 . S
C1198 C1196 1.353 . S
C1198 C1201 1.348 . S
C1198 H1230 0.929 . S
C1199 C1200 1.358 . S
C1199 C1201 1.356 . S
C1199 H1231 0.930 . S
C1200 N1197 1.279 . S
C1200 C1199 1.358 . S
C1200 H1203 0.930 . S
C1201 C1198 1.348 . S
C1201 C1199 1.356 . S
H1202 C1196 0.930 . S
H1203 C1200 0.930 . S
O1204 Li1144 1.956 . S
O1204 Li1145 1.970 . S
O1204 Li1146 1.961 . S
O1204 C1148 1.325 . S
O1205 Li1144 1.970 . S
O1205 Li1145 1.956 . S
O1205 Li1147 1.961 . S
O1205 C1154 1.325 . S
O1206 Li1144 1.961 . S
O1206 Li1146 1.956 . S
O1206 Li1147 1.970 . S
O1206 C1176 1.325 . S
O1207 Li1145 1.961 . S
O1207 Li1146 1.970 . S
O1207 Li1147 1.956 . S
O1207 C1182 1.325 . S
H1208 C1150 0.929 . S
H1209 C1151 0.930 . S
H1210 C1152 0.930 . S
H1211 C1153 0.930 . S
H1212 C1155 0.930 . S
H1213 C1157 0.929 . S
H1214 C1158 0.930 . S
H1215 C1159 0.930 . S
H1216 C1162 0.930 . S
H1217 C1165 0.929 . S
H1218 C1170 0.929 . S
H1219 C1171 0.930 . S
H1220 C1178 0.929 . S
H1221 C1179 0.930 . S
H1222 C1180 0.930 . S
H1223 C1181 0.930 . S
H1224 C1183 0.929 . S
H1225 C1184 0.930 . S
H1226 C1185 0.930 . S
H1227 C1186 0.930 . S
H1228 C1190 0.929 . S
H1229 C1192 0.930 . S
H1230 C1198 0.929 . S
H1231 C1199 0.930 . S
Li1232 N1249 1.990 . S
Li1232 O1292 1.956 . S
Li1232 O1293 1.970 . S
Li1232 O1294 1.961 . S
Li1233 N1257 1.990 . S
Li1233 O1292 1.970 . S
Li1233 O1293 1.956 . S
Li1233 O1295 1.961 . S
Li1234 N1279 1.990 . S
Li1234 O1292 1.961 . S
Li1234 O1294 1.956 . S
Li1234 O1295 1.970 . S
Li1235 N1285 1.990 . S
Li1235 O1293 1.961 . S
Li1235 O1294 1.970 . S
Li1235 O1295 1.956 . S
C1236 C1238 1.348 . S
C1236 C1239 1.356 . S
C1236 O1292 1.325 . S
N1237 C1240 1.314 . S
N1237 C1241 1.279 . S
C1238 C1236 1.348 . S
C1238 C1240 1.353 . S
C1238 H1296 0.929 . S
C1239 C1236 1.356 . S
C1239 C1241 1.358 . S
C1239 H1297 0.930 . S
C1240 N1237 1.314 . S
C1240 C1238 1.353 . S
C1240 H1298 0.930 . S
C1241 N1237 1.279 . S
C1241 C1239 1.358 . S
C1241 H1299 0.930 . S
C1242 C1245 1.348 . S
C1242 C1246 1.356 . S
C1242 O1293 1.325 . S
C1243 N1244 1.279 . S
C1243 C1246 1.358 . S
C1243 H1300 0.930 . S
N1244 C1243 1.279 . S
N1244 C1247 1.314 . S
C1245 C1242 1.348 . S
C1245 C1247 1.353 . S
C1245 H1301 0.929 . S
C1246 C1242 1.356 . S
C1246 C1243 1.358 . S
C1246 H1302 0.930 . S
C1247 N1244 1.314 . S
C1247 C1245 1.353 . S
C1247 H1303 0.930 . S
C1248 N1249 1.314 . S
C1248 C1253 1.353 . S
C1248 H1254 0.930 . S
N1249 Li1232 1.990 . S
N1249 C1248 1.314 . S
N1249 C1251 1.279 . S
C1250 C1251 1.358 . S
C1250 C1252 1.356 . S
C1250 H1304 0.930 . S
C1251 N1249 1.279 . S
C1251 C1250 1.358 . S
C1251 H1255 0.930 . S
C1252 C1250 1.356 . S
C1252 C1253 1.348 . S
C1253 C1248 1.353 . S
C1253 C1252 1.348 . S
C1253 H1305 0.929 . S
H1254 C1248 0.930 . S
H1255 C1251 0.930 . S
C1256 N1257 1.314 . S
C1256 C1258 1.353 . S
C1256 H1262 0.930 . S
N1257 Li1233 1.990 . S
N1257 C1256 1.314 . S
N1257 C1260 1.279 . S
C1258 C1256 1.353 . S
C1258 C1261 1.348 . S
C1258 H1306 0.929 . S
C1259 C1260 1.358 . S
C1259 C1261 1.356 . S
C1259 H1307 0.930 . S
C1260 N1257 1.279 . S
C1260 C1259 1.358 . S
C1260 H1263 0.930 . S
C1261 C1258 1.348 . S
C1261 C1259 1.356 . S
H1262 C1256 0.930 . S
H1263 C1260 0.930 . S
C1264 C1266 1.348 . S
C1264 C1267 1.356 . S
C1264 O1294 1.325 . S
N1265 C1268 1.314 . S
N1265 C1269 1.279 . S
C1266 C1264 1.348 . S
C1266 C1268 1.353 . S
C1266 H1308 0.929 . S
C1267 C1264 1.356 . S
C1267 C1269 1.358 . S
C1267 H1309 0.930 . S
C1268 N1265 1.314 . S
C1268 C1266 1.353 . S
C1268 H1310 0.930 . S
C1269 N1265 1.279 . S
C1269 C1267 1.358 . S
C1269 H1311 0.930 . S
C1270 C1271 1.348 . S
C1270 C1272 1.356 . S
C1270 O1295 1.325 . S
C1271 C1270 1.348 . S
C1271 C1273 1.353 . S
C1271 H1312 0.929 . S
C1272 C1270 1.356 . S
C1272 C1274 1.358 . S
C1272 H1313 0.930 . S
C1273 C1271 1.353 . S
C1273 N1275 1.314 . S
C1273 H1314 0.930 . S
C1274 C1272 1.358 . S
C1274 N1275 1.279 . S
C1274 H1315 0.930 . S
N1275 C1273 1.314 . S
N1275 C1274 1.279 . S
C1276 C1278 1.353 . S
C1276 N1279 1.314 . S
C1276 H1282 0.930 . S
C1277 N1279 1.279 . S
C1277 C1280 1.358 . S
C1277 H1283 0.930 . S
C1278 C1276 1.353 . S
C1278 C1281 1.348 . S
C1278 H1316 0.929 . S
N1279 Li1234 1.990 . S
N1279 C1276 1.314 . S
N1279 C1277 1.279 . S
C1280 C1277 1.358 . S
C1280 C1281 1.356 . S
C1280 H1317 0.930 . S
C1281 C1278 1.348 . S
C1281 C1280 1.356 . S
H1282 C1276 0.930 . S
H1283 C1277 0.930 . S
C1284 N1285 1.314 . S
C1284 C1286 1.353 . S
C1284 H1290 0.930 . S
N1285 Li1235 1.990 . S
N1285 C1284 1.314 . S
N1285 C1288 1.279 . S
C1286 C1284 1.353 . S
C1286 C1289 1.348 . S
C1286 H1318 0.929 . S
C1287 C1288 1.358 . S
C1287 C1289 1.356 . S
C1287 H1319 0.930 . S
C1288 N1285 1.279 . S
C1288 C1287 1.358 . S
C1288 H1291 0.930 . S
C1289 C1286 1.348 . S
C1289 C1287 1.356 . S
H1290 C1284 0.930 . S
H1291 C1288 0.930 . S
O1292 Li1232 1.956 . S
O1292 Li1233 1.970 . S
O1292 Li1234 1.961 . S
O1292 C1236 1.325 . S
O1293 Li1232 1.970 . S
O1293 Li1233 1.956 . S
O1293 Li1235 1.961 . S
O1293 C1242 1.325 . S
O1294 Li1232 1.961 . S
O1294 Li1234 1.956 . S
O1294 Li1235 1.970 . S
O1294 C1264 1.325 . S
O1295 Li1233 1.961 . S
O1295 Li1234 1.970 . S
O1295 Li1235 1.956 . S
O1295 C1270 1.325 . S
H1296 C1238 0.929 . S
H1297 C1239 0.930 . S
H1298 C1240 0.930 . S
H1299 C1241 0.930 . S
H1300 C1243 0.930 . S
H1301 C1245 0.929 . S
H1302 C1246 0.930 . S
H1303 C1247 0.930 . S
H1304 C1250 0.930 . S
H1305 C1253 0.929 . S
H1306 C1258 0.929 . S
H1307 C1259 0.930 . S
H1308 C1266 0.929 . S
H1309 C1267 0.930 . S
H1310 C1268 0.930 . S
H1311 C1269 0.930 . S
H1312 C1271 0.929 . S
H1313 C1272 0.930 . S
H1314 C1273 0.930 . S
H1315 C1274 0.930 . S
H1316 C1278 0.929 . S
H1317 C1280 0.930 . S
H1318 C1286 0.929 . S
H1319 C1287 0.930 . S
Li1320 N1337 1.990 . S
Li1320 O1380 1.956 . S
Li1320 O1381 1.970 . S
Li1320 O1382 1.961 . S
Li1321 N1345 1.990 . S
Li1321 O1380 1.970 . S
Li1321 O1381 1.956 . S
Li1321 O1383 1.961 . S
Li1322 N1367 1.990 . S
Li1322 O1380 1.961 . S
Li1322 O1382 1.956 . S
Li1322 O1383 1.970 . S
Li1323 N1373 1.990 . S
Li1323 O1381 1.961 . S
Li1323 O1382 1.970 . S
Li1323 O1383 1.956 . S
C1324 C1326 1.348 . S
C1324 C1327 1.356 . S
C1324 O1380 1.325 . S
N1325 C1328 1.314 . S
N1325 C1329 1.279 . S
C1326 C1324 1.348 . S
C1326 C1328 1.353 . S
C1326 H1384 0.929 . S
C1327 C1324 1.356 . S
C1327 C1329 1.358 . S
C1327 H1385 0.930 . S
C1328 N1325 1.314 . S
C1328 C1326 1.353 . S
C1328 H1386 0.930 . S
C1329 N1325 1.279 . S
C1329 C1327 1.358 . S
C1329 H1387 0.930 . S
C1330 C1333 1.348 . S
C1330 C1334 1.356 . S
C1330 O1381 1.325 . S
C1331 N1332 1.279 . S
C1331 C1334 1.358 . S
C1331 H1388 0.930 . S
N1332 C1331 1.279 . S
N1332 C1335 1.314 . S
C1333 C1330 1.348 . S
C1333 C1335 1.353 . S
C1333 H1389 0.929 . S
C1334 C1330 1.356 . S
C1334 C1331 1.358 . S
C1334 H1390 0.930 . S
C1335 N1332 1.314 . S
C1335 C1333 1.353 . S
C1335 H1391 0.930 . S
C1336 N1337 1.314 . S
C1336 C1341 1.353 . S
C1336 H1342 0.930 . S
N1337 Li1320 1.990 . S
N1337 C1336 1.314 . S
N1337 C1339 1.279 . S
C1338 C1339 1.358 . S
C1338 C1340 1.356 . S
C1338 H1392 0.930 . S
C1339 N1337 1.279 . S
C1339 C1338 1.358 . S
C1339 H1343 0.930 . S
C1340 C1338 1.356 . S
C1340 C1341 1.348 . S
C1341 C1336 1.353 . S
C1341 C1340 1.348 . S
C1341 H1393 0.929 . S
H1342 C1336 0.930 . S
H1343 C1339 0.930 . S
C1344 N1345 1.314 . S
C1344 C1346 1.353 . S
C1344 H1350 0.930 . S
N1345 Li1321 1.990 . S
N1345 C1344 1.314 . S
N1345 C1348 1.279 . S
C1346 C1344 1.353 . S
C1346 C1349 1.348 . S
C1346 H1394 0.929 . S
C1347 C1348 1.358 . S
C1347 C1349 1.356 . S
C1347 H1395 0.930 . S
C1348 N1345 1.279 . S
C1348 C1347 1.358 . S
C1348 H1351 0.930 . S
C1349 C1346 1.348 . S
C1349 C1347 1.356 . S
H1350 C1344 0.930 . S
H1351 C1348 0.930 . S
C1352 C1354 1.348 . S
C1352 C1355 1.356 . S
C1352 O1382 1.325 . S
N1353 C1356 1.314 . S
N1353 C1357 1.279 . S
C1354 C1352 1.348 . S
C1354 C1356 1.353 . S
C1354 H1396 0.929 . S
C1355 C1352 1.356 . S
C1355 C1357 1.358 . S
C1355 H1397 0.930 . S
C1356 N1353 1.314 . S
C1356 C1354 1.353 . S
C1356 H1398 0.930 . S
C1357 N1353 1.279 . S
C1357 C1355 1.358 . S
C1357 H1399 0.930 . S
C1358 C1359 1.348 . S
C1358 C1360 1.356 . S
C1358 O1383 1.325 . S
C1359 C1358 1.348 . S
C1359 C1361 1.353 . S
C1359 H1400 0.929 . S
C1360 C1358 1.356 . S
C1360 C1362 1.358 . S
C1360 H1401 0.930 . S
C1361 C1359 1.353 . S
C1361 N1363 1.314 . S
C1361 H1402 0.930 . S
C1362 C1360 1.358 . S
C1362 N1363 1.279 . S
C1362 H1403 0.930 . S
N1363 C1361 1.314 . S
N1363 C1362 1.279 . S
C1364 C1366 1.353 . S
C1364 N1367 1.314 . S
C1364 H1370 0.930 . S
C1365 N1367 1.279 . S
C1365 C1368 1.358 . S
C1365 H1371 0.930 . S
C1366 C1364 1.353 . S
C1366 C1369 1.348 . S
C1366 H1404 0.929 . S
N1367 Li1322 1.990 . S
N1367 C1364 1.314 . S
N1367 C1365 1.279 . S
C1368 C1365 1.358 . S
C1368 C1369 1.356 . S
C1368 H1405 0.930 . S
C1369 C1366 1.348 . S
C1369 C1368 1.356 . S
H1370 C1364 0.930 . S
H1371 C1365 0.930 . S
C1372 N1373 1.314 . S
C1372 C1374 1.353 . S
C1372 H1378 0.930 . S
N1373 Li1323 1.990 . S
N1373 C1372 1.314 . S
N1373 C1376 1.279 . S
C1374 C1372 1.353 . S
C1374 C1377 1.348 . S
C1374 H1406 0.929 . S
C1375 C1376 1.358 . S
C1375 C1377 1.356 . S
C1375 H1407 0.930 . S
C1376 N1373 1.279 . S
C1376 C1375 1.358 . S
C1376 H1379 0.930 . S
C1377 C1374 1.348 . S
C1377 C1375 1.356 . S
H1378 C1372 0.930 . S
H1379 C1376 0.930 . S
O1380 Li1320 1.956 . S
O1380 Li1321 1.970 . S
O1380 Li1322 1.961 . S
O1380 C1324 1.325 . S
O1381 Li1320 1.970 . S
O1381 Li1321 1.956 . S
O1381 Li1323 1.961 . S
O1381 C1330 1.325 . S
O1382 Li1320 1.961 . S
O1382 Li1322 1.956 . S
O1382 Li1323 1.970 . S
O1382 C1352 1.325 . S
O1383 Li1321 1.961 . S
O1383 Li1322 1.970 . S
O1383 Li1323 1.956 . S
O1383 C1358 1.325 . S
H1384 C1326 0.929 . S
H1385 C1327 0.930 . S
H1386 C1328 0.930 . S
H1387 C1329 0.930 . S
H1388 C1331 0.930 . S
H1389 C1333 0.929 . S
H1390 C1334 0.930 . S
H1391 C1335 0.930 . S
H1392 C1338 0.930 . S
H1393 C1341 0.929 . S
H1394 C1346 0.929 . S
H1395 C1347 0.930 . S
H1396 C1354 0.929 . S
H1397 C1355 0.930 . S
H1398 C1356 0.930 . S
H1399 C1357 0.930 . S
H1400 C1359 0.929 . S
H1401 C1360 0.930 . S
H1402 C1361 0.930 . S
H1403 C1362 0.930 . S
H1404 C1366 0.929 . S
H1405 C1368 0.930 . S
H1406 C1374 0.929 . S
H1407 C1375 0.930 . S
H1408 C1416 0.950 . S
H1409 C1421 0.950 . S
H1410 C1418 0.950 . S
H1411 C1420 0.950 . S
H1412 C1422 0.950 . S
H1413 C1424 0.950 . S
H1414 C1426 0.950 . S
H1415 C1427 0.950 . S
C1416 H1408 0.950 . S
C1416 C1417 1.386 . S
C1416 C1418 1.391 . S
C1417 C1416 1.386 . S
C1417 C1421 1.393 . S
C1418 H1410 0.950 . S
C1418 C1416 1.391 . S
C1418 C1419 1.400 . S
C1419 C1418 1.400 . S
C1419 C1420 1.398 . S
C1419 C1425 1.491 . S
C1420 H1411 0.950 . S
C1420 C1419 1.398 . S
C1420 C1421 1.391 . S
C1421 H1409 0.950 . S
C1421 C1417 1.393 . S
C1421 C1420 1.391 . S
C1422 H1412 0.950 . S
C1422 C1423 1.386 . S
C1422 C1424 1.391 . S
C1423 C1422 1.386 . S
C1423 C1427 1.393 . S
C1424 H1413 0.950 . S
C1424 C1422 1.391 . S
C1424 C1425 1.400 . S
C1425 C1419 1.491 . S
C1425 C1424 1.400 . S
C1425 C1426 1.398 . S
C1426 H1414 0.950 . S
C1426 C1425 1.398 . S
C1426 C1427 1.391 . S
C1427 H1415 0.950 . S
C1427 C1423 1.393 . S
C1427 C1426 1.391 . S
H1428 C1436 0.950 . S
H1429 C1441 0.950 . S
H1430 C1438 0.950 . S
H1431 C1440 0.950 . S
H1432 C1442 0.950 . S
H1433 C1444 0.950 . S
H1434 C1446 0.950 . S
H1435 C1447 0.950 . S
C1436 H1428 0.950 . S
C1436 C1437 1.386 . S
C1436 C1438 1.391 . S
C1437 C1436 1.386 . S
C1437 C1441 1.393 . S
C1438 H1430 0.950 . S
C1438 C1436 1.391 . S
C1438 C1439 1.400 . S
C1439 C1438 1.400 . S
C1439 C1440 1.398 . S
C1439 C1445 1.491 . S
C1440 H1431 0.950 . S
C1440 C1439 1.398 . S
C1440 C1441 1.391 . S
C1441 H1429 0.950 . S
C1441 C1437 1.393 . S
C1441 C1440 1.391 . S
C1442 H1432 0.950 . S
C1442 C1443 1.386 . S
C1442 C1444 1.391 . S
C1443 C1442 1.386 . S
C1443 C1447 1.393 . S
C1444 H1433 0.950 . S
C1444 C1442 1.391 . S
C1444 C1445 1.400 . S
C1445 C1439 1.491 . S
C1445 C1444 1.400 . S
C1445 C1446 1.398 . S
C1446 H1434 0.950 . S
C1446 C1445 1.398 . S
C1446 C1447 1.391 . S
C1447 H1435 0.950 . S
C1447 C1443 1.393 . S
C1447 C1446 1.391 . S
H1448 C1456 0.950 . S
H1449 C1461 0.950 . S
H1450 C1458 0.950 . S
H1451 C1460 0.950 . S
H1452 C1462 0.950 . S
H1453 C1464 0.950 . S
H1454 C1466 0.950 . S
H1455 C1467 0.950 . S
C1456 H1448 0.950 . S
C1456 C1457 1.386 . S
C1456 C1458 1.391 . S
C1457 C1456 1.386 . S
C1457 C1461 1.393 . S
C1458 H1450 0.950 . S
C1458 C1456 1.391 . S
C1458 C1459 1.400 . S
C1459 C1458 1.400 . S
C1459 C1460 1.398 . S
C1459 C1465 1.491 . S
C1460 H1451 0.950 . S
C1460 C1459 1.398 . S
C1460 C1461 1.391 . S
C1461 H1449 0.950 . S
C1461 C1457 1.393 . S
C1461 C1460 1.391 . S
C1462 H1452 0.950 . S
C1462 C1463 1.386 . S
C1462 C1464 1.391 . S
C1463 C1462 1.386 . S
C1463 C1467 1.393 . S
C1464 H1453 0.950 . S
C1464 C1462 1.391 . S
C1464 C1465 1.400 . S
C1465 C1459 1.491 . S
C1465 C1464 1.400 . S
C1465 C1466 1.398 . S
C1466 H1454 0.950 . S
C1466 C1465 1.398 . S
C1466 C1467 1.391 . S
C1467 H1455 0.950 . S
C1467 C1463 1.393 . S
C1467 C1466 1.391 . S
H1468 C1476 0.950 . S
H1469 C1481 0.950 . S
H1470 C1478 0.950 . S
H1471 C1480 0.950 . S
H1472 C1482 0.950 . S
H1473 C1484 0.950 . S
H1474 C1486 0.950 . S
H1475 C1487 0.950 . S
C1476 H1468 0.950 . S
C1476 C1477 1.386 . S
C1476 C1478 1.391 . S
C1477 C1476 1.386 . S
C1477 C1481 1.393 . S
C1478 H1470 0.950 . S
C1478 C1476 1.391 . S
C1478 C1479 1.400 . S
C1479 C1478 1.400 . S
C1479 C1480 1.398 . S
C1479 C1485 1.491 . S
C1480 H1471 0.950 . S
C1480 C1479 1.398 . S
C1480 C1481 1.391 . S
C1481 H1469 0.950 . S
C1481 C1477 1.393 . S
C1481 C1480 1.391 . S
C1482 H1472 0.950 . S
C1482 C1483 1.386 . S
C1482 C1484 1.391 . S
C1483 C1482 1.386 . S
C1483 C1487 1.393 . S
C1484 H1473 0.950 . S
C1484 C1482 1.391 . S
C1484 C1485 1.400 . S
C1485 C1479 1.491 . S
C1485 C1484 1.400 . S
C1485 C1486 1.398 . S
C1486 H1474 0.950 . S
C1486 C1485 1.398 . S
C1486 C1487 1.391 . S
C1487 H1475 0.950 . S
C1487 C1483 1.393 . S
C1487 C1486 1.391 . S
H1488 C1496 0.950 . S
H1489 C1501 0.950 . S
H1490 C1498 0.950 . S
H1491 C1500 0.950 . S
H1492 C1502 0.950 . S
H1493 C1504 0.950 . S
H1494 C1506 0.950 . S
H1495 C1507 0.950 . S
C1496 H1488 0.950 . S
C1496 C1497 1.386 . S
C1496 C1498 1.391 . S
C1497 C1496 1.386 . S
C1497 C1501 1.393 . S
C1498 H1490 0.950 . S
C1498 C1496 1.391 . S
C1498 C1499 1.400 . S
C1499 C1498 1.400 . S
C1499 C1500 1.398 . S
C1499 C1505 1.491 . S
C1500 H1491 0.950 . S
C1500 C1499 1.398 . S
C1500 C1501 1.391 . S
C1501 H1489 0.950 . S
C1501 C1497 1.393 . S
C1501 C1500 1.391 . S
C1502 H1492 0.950 . S
C1502 C1503 1.386 . S
C1502 C1504 1.391 . S
C1503 C1502 1.386 . S
C1503 C1507 1.393 . S
C1504 H1493 0.950 . S
C1504 C1502 1.391 . S
C1504 C1505 1.400 . S
C1505 C1499 1.491 . S
C1505 C1504 1.400 . S
C1505 C1506 1.398 . S
C1506 H1494 0.950 . S
C1506 C1505 1.398 . S
C1506 C1507 1.391 . S
C1507 H1495 0.950 . S
C1507 C1503 1.393 . S
C1507 C1506 1.391 . S
H1508 C1516 0.950 . S
H1509 C1521 0.950 . S
H1510 C1518 0.950 . S
H1511 C1520 0.950 . S
H1512 C1522 0.950 . S
H1513 C1524 0.950 . S
H1514 C1526 0.950 . S
H1515 C1527 0.950 . S
C1516 H1508 0.950 . S
C1516 C1517 1.386 . S
C1516 C1518 1.391 . S
C1517 C1516 1.386 . S
C1517 C1521 1.393 . S
C1518 H1510 0.950 . S
C1518 C1516 1.391 . S
C1518 C1519 1.400 . S
C1519 C1518 1.400 . S
C1519 C1520 1.398 . S
C1519 C1525 1.491 . S
C1520 H1511 0.950 . S
C1520 C1519 1.398 . S
C1520 C1521 1.391 . S
C1521 H1509 0.950 . S
C1521 C1517 1.393 . S
C1521 C1520 1.391 . S
C1522 H1512 0.950 . S
C1522 C1523 1.386 . S
C1522 C1524 1.391 . S
C1523 C1522 1.386 . S
C1523 C1527 1.393 . S
C1524 H1513 0.950 . S
C1524 C1522 1.391 . S
C1524 C1525 1.400 . S
C1525 C1519 1.491 . S
C1525 C1524 1.400 . S
C1525 C1526 1.398 . S
C1526 H1514 0.950 . S
C1526 C1525 1.398 . S
C1526 C1527 1.391 . S
C1527 H1515 0.950 . S
C1527 C1523 1.393 . S
C1527 C1526 1.391 . S
H1528 C1536 0.950 . S
H1529 C1541 0.950 . S
H1530 C1538 0.950 . S
H1531 C1540 0.950 . S
H1532 C1542 0.950 . S
H1533 C1544 0.950 . S
H1534 C1546 0.950 . S
H1535 C1547 0.950 . S
C1536 H1528 0.950 . S
C1536 C1537 1.386 . S
C1536 C1538 1.391 . S
C1537 C1536 1.386 . S
C1537 C1541 1.393 . S
C1538 H1530 0.950 . S
C1538 C1536 1.391 . S
C1538 C1539 1.400 . S
C1539 C1538 1.400 . S
C1539 C1540 1.398 . S
C1539 C1545 1.491 . S
C1540 H1531 0.950 . S
C1540 C1539 1.398 . S
C1540 C1541 1.391 . S
C1541 H1529 0.950 . S
C1541 C1537 1.393 . S
C1541 C1540 1.391 . S
C1542 H1532 0.950 . S
C1542 C1543 1.386 . S
C1542 C1544 1.391 . S
C1543 C1542 1.386 . S
C1543 C1547 1.393 . S
C1544 H1533 0.950 . S
C1544 C1542 1.391 . S
C1544 C1545 1.400 . S
C1545 C1539 1.491 . S
C1545 C1544 1.400 . S
C1545 C1546 1.398 . S
C1546 H1534 0.950 . S
C1546 C1545 1.398 . S
C1546 C1547 1.391 . S
C1547 H1535 0.950 . S
C1547 C1543 1.393 . S
C1547 C1546 1.391 . S
H1548 C1556 0.950 . S
H1549 C1561 0.950 . S
H1550 C1558 0.950 . S
H1551 C1560 0.950 . S
H1552 C1562 0.950 . S
H1553 C1564 0.950 . S
H1554 C1566 0.950 . S
H1555 C1567 0.950 . S
C1556 H1548 0.950 . S
C1556 C1557 1.386 . S
C1556 C1558 1.391 . S
C1557 C1556 1.386 . S
C1557 C1561 1.393 . S
C1558 H1550 0.950 . S
C1558 C1556 1.391 . S
C1558 C1559 1.400 . S
C1559 C1558 1.400 . S
C1559 C1560 1.398 . S
C1559 C1565 1.491 . S
C1560 H1551 0.950 . S
C1560 C1559 1.398 . S
C1560 C1561 1.391 . S
C1561 H1549 0.950 . S
C1561 C1557 1.393 . S
C1561 C1560 1.391 . S
C1562 H1552 0.950 . S
C1562 C1563 1.386 . S
C1562 C1564 1.391 . S
C1563 C1562 1.386 . S
C1563 C1567 1.393 . S
C1564 H1553 0.950 . S
C1564 C1562 1.391 . S
C1564 C1565 1.400 . S
C1565 C1559 1.491 . S
C1565 C1564 1.400 . S
C1565 C1566 1.398 . S
C1566 H1554 0.950 . S
C1566 C1565 1.398 . S
C1566 C1567 1.391 . S
C1567 H1555 0.950 . S
C1567 C1563 1.393 . S
C1567 C1566 1.391 . S
H1568 C1576 0.950 . S
H1569 C1581 0.950 . S
H1570 C1578 0.950 . S
H1571 C1580 0.950 . S
H1572 C1582 0.950 . S
H1573 C1584 0.950 . S
H1574 C1586 0.950 . S
H1575 C1587 0.950 . S
C1576 H1568 0.950 . S
C1576 C1577 1.386 . S
C1576 C1578 1.391 . S
C1577 C1576 1.386 . S
C1577 C1581 1.393 . S
C1578 H1570 0.950 . S
C1578 C1576 1.391 . S
C1578 C1579 1.400 . S
C1579 C1578 1.400 . S
C1579 C1580 1.398 . S
C1579 C1585 1.491 . S
C1580 H1571 0.950 . S
C1580 C1579 1.398 . S
C1580 C1581 1.391 . S
C1581 H1569 0.950 . S
C1581 C1577 1.393 . S
C1581 C1580 1.391 . S
C1582 H1572 0.950 . S
C1582 C1583 1.386 . S
C1582 C1584 1.391 . S
C1583 C1582 1.386 . S
C1583 C1587 1.393 . S
C1584 H1573 0.950 . S
C1584 C1582 1.391 . S
C1584 C1585 1.400 . S
C1585 C1579 1.491 . S
C1585 C1584 1.400 . S
C1585 C1586 1.398 . S
C1586 H1574 0.950 . S
C1586 C1585 1.398 . S
C1586 C1587 1.391 . S
C1587 H1575 0.950 . S
C1587 C1583 1.393 . S
C1587 C1586 1.391 . S
H1588 C1596 0.950 . S
H1589 C1601 0.950 . S
H1590 C1598 0.950 . S
H1591 C1600 0.950 . S
H1592 C1602 0.950 . S
H1593 C1604 0.950 . S
H1594 C1606 0.950 . S
H1595 C1607 0.950 . S
C1596 H1588 0.950 . S
C1596 C1597 1.386 . S
C1596 C1598 1.391 . S
C1597 C1596 1.386 . S
C1597 C1601 1.393 . S
C1598 H1590 0.950 . S
C1598 C1596 1.391 . S
C1598 C1599 1.400 . S
C1599 C1598 1.400 . S
C1599 C1600 1.398 . S
C1599 C1605 1.491 . S
C1600 H1591 0.950 . S
C1600 C1599 1.398 . S
C1600 C1601 1.391 . S
C1601 H1589 0.950 . S
C1601 C1597 1.393 . S
C1601 C1600 1.391 . S
C1602 H1592 0.950 . S
C1602 C1603 1.386 . S
C1602 C1604 1.391 . S
C1603 C1602 1.386 . S
C1603 C1607 1.393 . S
C1604 H1593 0.950 . S
C1604 C1602 1.391 . S
C1604 C1605 1.400 . S
C1605 C1599 1.491 . S
C1605 C1604 1.400 . S
C1605 C1606 1.398 . S
C1606 H1594 0.950 . S
C1606 C1605 1.398 . S
C1606 C1607 1.391 . S
C1607 H1595 0.950 . S
C1607 C1603 1.393 . S
C1607 C1606 1.391 . S
H1608 C1616 0.950 . S
H1609 C1621 0.950 . S
H1610 C1618 0.950 . S
H1611 C1620 0.950 . S
H1612 C1622 0.950 . S
H1613 C1624 0.950 . S
H1614 C1626 0.950 . S
H1615 C1627 0.950 . S
C1616 H1608 0.950 . S
C1616 C1617 1.386 . S
C1616 C1618 1.391 . S
C1617 C1616 1.386 . S
C1617 C1621 1.393 . S
C1618 H1610 0.950 . S
C1618 C1616 1.391 . S
C1618 C1619 1.400 . S
C1619 C1618 1.400 . S
C1619 C1620 1.398 . S
C1619 C1625 1.491 . S
C1620 H1611 0.950 . S
C1620 C1619 1.398 . S
C1620 C1621 1.391 . S
C1621 H1609 0.950 . S
C1621 C1617 1.393 . S
C1621 C1620 1.391 . S
C1622 H1612 0.950 . S
C1622 C1623 1.386 . S
C1622 C1624 1.391 . S
C1623 C1622 1.386 . S
C1623 C1627 1.393 . S
C1624 H1613 0.950 . S
C1624 C1622 1.391 . S
C1624 C1625 1.400 . S
C1625 C1619 1.491 . S
C1625 C1624 1.400 . S
C1625 C1626 1.398 . S
C1626 H1614 0.950 . S
C1626 C1625 1.398 . S
C1626 C1627 1.391 . S
C1627 H1615 0.950 . S
C1627 C1623 1.393 . S
C1627 C1626 1.391 . S
H1628 C1636 0.950 . S
H1629 C1641 0.950 . S
H1630 C1638 0.950 . S
H1631 C1640 0.950 . S
H1632 C1642 0.950 . S
H1633 C1644 0.950 . S
H1634 C1646 0.950 . S
H1635 C1647 0.950 . S
C1636 H1628 0.950 . S
C1636 C1637 1.386 . S
C1636 C1638 1.391 . S
C1637 C1636 1.386 . S
C1637 C1641 1.393 . S
C1638 H1630 0.950 . S
C1638 C1636 1.391 . S
C1638 C1639 1.400 . S
C1639 C1638 1.400 . S
C1639 C1640 1.398 . S
C1639 C1645 1.491 . S
C1640 H1631 0.950 . S
C1640 C1639 1.398 . S
C1640 C1641 1.391 . S
C1641 H1629 0.950 . S
C1641 C1637 1.393 . S
C1641 C1640 1.391 . S
C1642 H1632 0.950 . S
C1642 C1643 1.386 . S
C1642 C1644 1.391 . S
C1643 C1642 1.386 . S
C1643 C1647 1.393 . S
C1644 H1633 0.950 . S
C1644 C1642 1.391 . S
C1644 C1645 1.400 . S
C1645 C1639 1.491 . S
C1645 C1644 1.400 . S
C1645 C1646 1.398 . S
C1646 H1634 0.950 . S
C1646 C1645 1.398 . S
C1646 C1647 1.391 . S
C1647 H1635 0.950 . S
C1647 C1643 1.393 . S
C1647 C1646 1.391 . S
H1648 C1656 0.950 . S
H1649 C1661 0.950 . S
H1650 C1658 0.950 . S
H1651 C1660 0.950 . S
H1652 C1662 0.950 . S
H1653 C1664 0.950 . S
H1654 C1666 0.950 . S
H1655 C1667 0.950 . S
C1656 H1648 0.950 . S
C1656 C1657 1.386 . S
C1656 C1658 1.391 . S
C1657 C1656 1.386 . S
C1657 C1661 1.393 . S
C1658 H1650 0.950 . S
C1658 C1656 1.391 . S
C1658 C1659 1.400 . S
C1659 C1658 1.400 . S
C1659 C1660 1.398 . S
C1659 C1665 1.491 . S
C1660 H1651 0.950 . S
C1660 C1659 1.398 . S
C1660 C1661 1.391 . S
C1661 H1649 0.950 . S
C1661 C1657 1.393 . S
C1661 C1660 1.391 . S
C1662 H1652 0.950 . S
C1662 C1663 1.386 . S
C1662 C1664 1.391 . S
C1663 C1662 1.386 . S
C1663 C1667 1.393 . S
C1664 H1653 0.950 . S
C1664 C1662 1.391 . S
C1664 C1665 1.400 . S
C1665 C1659 1.491 . S
C1665 C1664 1.400 . S
C1665 C1666 1.398 . S
C1666 H1654 0.950 . S
C1666 C1665 1.398 . S
C1666 C1667 1.391 . S
C1667 H1655 0.950 . S
C1667 C1663 1.393 . S
C1667 C1666 1.391 . S
H1668 C1676 0.950 . S
H1669 C1681 0.950 . S
H1670 C1678 0.950 . S
H1671 C1680 0.950 . S
H1672 C1682 0.950 . S
H1673 C1684 0.950 . S
H1674 C1686 0.950 . S
H1675 C1687 0.950 . S
C1676 H1668 0.950 . S
C1676 C1677 1.386 . S
C1676 C1678 1.391 . S
C1677 C1676 1.386 . S
C1677 C1681 1.393 . S
C1678 H1670 0.950 . S
C1678 C1676 1.391 . S
C1678 C1679 1.400 . S
C1679 C1678 1.400 . S
C1679 C1680 1.398 . S
C1679 C1685 1.491 . S
C1680 H1671 0.950 . S
C1680 C1679 1.398 . S
C1680 C1681 1.391 . S
C1681 H1669 0.950 . S
C1681 C1677 1.393 . S
C1681 C1680 1.391 . S
C1682 H1672 0.950 . S
C1682 C1683 1.386 . S
C1682 C1684 1.391 . S
C1683 C1682 1.386 . S
C1683 C1687 1.393 . S
C1684 H1673 0.950 . S
C1684 C1682 1.391 . S
C1684 C1685 1.400 . S
C1685 C1679 1.491 . S
C1685 C1684 1.400 . S
C1685 C1686 1.398 . S
C1686 H1674 0.950 . S
C1686 C1685 1.398 . S
C1686 C1687 1.391 . S
C1687 H1675 0.950 . S
C1687 C1683 1.393 . S
C1687 C1686 1.391 . S
H1688 C1696 0.950 . S
H1689 C1701 0.950 . S
H1690 C1698 0.950 . S
H1691 C1700 0.950 . S
H1692 C1702 0.950 . S
H1693 C1704 0.950 . S
H1694 C1706 0.950 . S
H1695 C1707 0.950 . S
C1696 H1688 0.950 . S
C1696 C1697 1.386 . S
C1696 C1698 1.391 . S
C1697 C1696 1.386 . S
C1697 C1701 1.393 . S
C1698 H1690 0.950 . S
C1698 C1696 1.391 . S
C1698 C1699 1.400 . S
C1699 C1698 1.400 . S
C1699 C1700 1.398 . S
C1699 C1705 1.491 . S
C1700 H1691 0.950 . S
C1700 C1699 1.398 . S
C1700 C1701 1.391 . S
C1701 H1689 0.950 . S
C1701 C1697 1.393 . S
C1701 C1700 1.391 . S
C1702 H1692 0.950 . S
C1702 C1703 1.386 . S
C1702 C1704 1.391 . S
C1703 C1702 1.386 . S
C1703 C1707 1.393 . S
C1704 H1693 0.950 . S
C1704 C1702 1.391 . S
C1704 C1705 1.400 . S
C1705 C1699 1.491 . S
C1705 C1704 1.400 . S
C1705 C1706 1.398 . S
C1706 H1694 0.950 . S
C1706 C1705 1.398 . S
C1706 C1707 1.391 . S
C1707 H1695 0.950 . S
C1707 C1703 1.393 . S
C1707 C1706 1.391 . S
H1708 C1716 0.950 . S
H1709 C1721 0.950 . S
H1710 C1718 0.950 . S
H1711 C1720 0.950 . S
H1712 C1722 0.950 . S
H1713 C1724 0.950 . S
H1714 C1726 0.950 . S
H1715 C1727 0.950 . S
C1716 H1708 0.950 . S
C1716 C1717 1.386 . S
C1716 C1718 1.391 . S
C1717 C1716 1.386 . S
C1717 C1721 1.393 . S
C1718 H1710 0.950 . S
C1718 C1716 1.391 . S
C1718 C1719 1.400 . S
C1719 C1718 1.400 . S
C1719 C1720 1.398 . S
C1719 C1725 1.491 . S
C1720 H1711 0.950 . S
C1720 C1719 1.398 . S
C1720 C1721 1.391 . S
C1721 H1709 0.950 . S
C1721 C1717 1.393 . S
C1721 C1720 1.391 . S
C1722 H1712 0.950 . S
C1722 C1723 1.386 . S
C1722 C1724 1.391 . S
C1723 C1722 1.386 . S
C1723 C1727 1.393 . S
C1724 H1713 0.950 . S
C1724 C1722 1.391 . S
C1724 C1725 1.400 . S
C1725 C1719 1.491 . S
C1725 C1724 1.400 . S
C1725 C1726 1.398 . S
C1726 H1714 0.950 . S
C1726 C1725 1.398 . S
C1726 C1727 1.391 . S
C1727 H1715 0.950 . S
C1727 C1723 1.393 . S
C1727 C1726 1.391 . S
H1728 C1736 0.950 . S
H1729 C1741 0.950 . S
H1730 C1738 0.950 . S
H1731 C1740 0.950 . S
H1732 C1742 0.950 . S
H1733 C1744 0.950 . S
H1734 C1746 0.950 . S
H1735 C1747 0.950 . S
C1736 H1728 0.950 . S
C1736 C1737 1.386 . S
C1736 C1738 1.391 . S
C1737 C1736 1.386 . S
C1737 C1741 1.393 . S
C1738 H1730 0.950 . S
C1738 C1736 1.391 . S
C1738 C1739 1.400 . S
C1739 C1738 1.400 . S
C1739 C1740 1.398 . S
C1739 C1745 1.491 . S
C1740 H1731 0.950 . S
C1740 C1739 1.398 . S
C1740 C1741 1.391 . S
C1741 H1729 0.950 . S
C1741 C1737 1.393 . S
C1741 C1740 1.391 . S
C1742 H1732 0.950 . S
C1742 C1743 1.386 . S
C1742 C1744 1.391 . S
C1743 C1742 1.386 . S
C1743 C1747 1.393 . S
C1744 H1733 0.950 . S
C1744 C1742 1.391 . S
C1744 C1745 1.400 . S
C1745 C1739 1.491 . S
C1745 C1744 1.400 . S
C1745 C1746 1.398 . S
C1746 H1734 0.950 . S
C1746 C1745 1.398 . S
C1746 C1747 1.391 . S
C1747 H1735 0.950 . S
C1747 C1743 1.393 . S
C1747 C1746 1.391 . S
H1748 C1756 0.945 1_565 S
H1749 C1761 0.950 . S
H1750 C1758 0.950 . S
H1751 C1760 0.950 . S
H1752 C1762 0.950 . S
H1753 C1764 0.950 . S
H1754 C1766 0.950 . S
H1755 C1767 0.950 . S
C1756 H1748 0.945 1_545 S
C1756 C1757 1.386 . S
C1756 C1758 1.391 . S
C1757 C1756 1.386 . S
C1757 C1761 1.393 . S
C1758 H1750 0.950 . S
C1758 C1756 1.391 . S
C1758 C1759 1.400 . S
C1759 C1758 1.400 . S
C1759 C1760 1.398 . S
C1759 C1765 1.491 . S
C1760 H1751 0.950 . S
C1760 C1759 1.398 . S
C1760 C1761 1.391 . S
C1761 H1749 0.950 . S
C1761 C1757 1.393 . S
C1761 C1760 1.391 . S
C1762 H1752 0.950 . S
C1762 C1763 1.386 . S
C1762 C1764 1.391 . S
C1763 C1762 1.386 . S
C1763 C1767 1.393 . S
C1764 H1753 0.950 . S
C1764 C1762 1.391 . S
C1764 C1765 1.400 . S
C1765 C1759 1.491 . S
C1765 C1764 1.400 . S
C1765 C1766 1.398 . S
C1766 H1754 0.950 . S
C1766 C1765 1.398 . S
C1766 C1767 1.391 . S
C1767 H1755 0.950 . S
C1767 C1763 1.393 . S
C1767 C1766 1.391 . S
H1768 C1776 0.950 . S
H1769 C1781 0.950 . S
H1770 C1778 0.950 . S
H1771 C1780 0.950 . S
H1772 C1782 0.950 . S
H1773 C1784 0.950 . S
H1774 C1786 0.950 . S
H1775 C1787 0.950 . S
C1776 H1768 0.950 . S
C1776 C1777 1.386 . S
C1776 C1778 1.391 . S
C1777 C1776 1.386 . S
C1777 C1781 1.393 . S
C1778 H1770 0.950 . S
C1778 C1776 1.391 . S
C1778 C1779 1.400 . S
C1779 C1778 1.400 . S
C1779 C1780 1.398 . S
C1779 C1785 1.491 . S
C1780 H1771 0.950 . S
C1780 C1779 1.398 . S
C1780 C1781 1.391 . S
C1781 H1769 0.950 . S
C1781 C1777 1.393 . S
C1781 C1780 1.391 . S
C1782 H1772 0.950 . S
C1782 C1783 1.386 . S
C1782 C1784 1.391 . S
C1783 C1782 1.386 . S
C1783 C1787 1.393 . S
C1784 H1773 0.950 . S
C1784 C1782 1.391 . S
C1784 C1785 1.400 . S
C1785 C1779 1.491 . S
C1785 C1784 1.400 . S
C1785 C1786 1.398 . S
C1786 H1774 0.950 . S
C1786 C1785 1.398 . S
C1786 C1787 1.391 . S
C1787 H1775 0.950 . S
C1787 C1783 1.393 . S
C1787 C1786 1.391 . S
H1788 C1796 0.950 . S
H1789 C1801 0.950 . S
H1790 C1798 0.950 . S
H1791 C1800 0.950 . S
H1792 C1802 0.950 . S
H1793 C1804 0.950 . S
H1794 C1806 0.950 . S
H1795 C1807 0.950 . S
C1796 H1788 0.950 . S
C1796 C1797 1.386 . S
C1796 C1798 1.391 . S
C1797 C1796 1.386 . S
C1797 C1801 1.393 . S
C1798 H1790 0.950 . S
C1798 C1796 1.391 . S
C1798 C1799 1.400 . S
C1799 C1798 1.400 . S
C1799 C1800 1.398 . S
C1799 C1805 1.491 . S
C1800 H1791 0.950 . S
C1800 C1799 1.398 . S
C1800 C1801 1.391 . S
C1801 H1789 0.950 . S
C1801 C1797 1.393 . S
C1801 C1800 1.391 . S
C1802 H1792 0.950 . S
C1802 C1803 1.386 . S
C1802 C1804 1.391 . S
C1803 C1802 1.386 . S
C1803 C1807 1.393 . S
C1804 H1793 0.950 . S
C1804 C1802 1.391 . S
C1804 C1805 1.400 . S
C1805 C1799 1.491 . S
C1805 C1804 1.400 . S
C1805 C1806 1.398 . S
C1806 H1794 0.950 . S
C1806 C1805 1.398 . S
C1806 C1807 1.391 . S
C1807 H1795 0.950 . S
C1807 C1803 1.393 . S
C1807 C1806 1.391 . S
H1808 C1816 0.950 . S
H1809 C1821 0.950 . S
H1810 C1818 0.950 . S
H1811 C1820 0.950 . S
H1812 C1822 0.950 . S
H1813 C1824 0.950 . S
H1814 C1826 0.950 . S
H1815 C1827 0.950 1_655 S
C1816 H1808 0.950 . S
C1816 C1817 1.386 . S
C1816 C1818 1.391 . S
C1817 C1816 1.386 . S
C1817 C1821 1.393 . S
C1818 H1810 0.950 . S
C1818 C1816 1.391 . S
C1818 C1819 1.400 . S
C1819 C1818 1.400 . S
C1819 C1820 1.398 . S
C1819 C1825 1.491 . S
C1820 H1811 0.950 . S
C1820 C1819 1.398 . S
C1820 C1821 1.391 . S
C1821 H1809 0.950 . S
C1821 C1817 1.393 . S
C1821 C1820 1.391 . S
C1822 H1812 0.950 . S
C1822 C1823 1.386 . S
C1822 C1824 1.391 . S
C1823 C1822 1.386 . S
C1823 C1827 1.393 . S
C1824 H1813 0.950 . S
C1824 C1822 1.391 . S
C1824 C1825 1.400 . S
C1825 C1819 1.491 . S
C1825 C1824 1.400 . S
C1825 C1826 1.398 . S
C1826 H1814 0.950 . S
C1826 C1825 1.398 . S
C1826 C1827 1.391 . S
C1827 H1815 0.950 1_455 S
C1827 C1823 1.393 . S
C1827 C1826 1.391 . S
H1828 C1836 0.950 . S
H1829 C1841 0.950 . S
H1830 C1838 0.950 . S
H1831 C1840 0.950 . S
H1832 C1842 0.950 . S
H1833 C1844 0.950 . S
H1834 C1846 0.950 . S
H1835 C1847 0.950 . S
C1836 H1828 0.950 . S
C1836 C1837 1.386 . S
C1836 C1838 1.391 . S
C1837 C1836 1.386 . S
C1837 C1841 1.393 . S
C1838 H1830 0.950 . S
C1838 C1836 1.391 . S
C1838 C1839 1.400 . S
C1839 C1838 1.400 . S
C1839 C1840 1.398 . S
C1839 C1845 1.491 . S
C1840 H1831 0.950 . S
C1840 C1839 1.398 . S
C1840 C1841 1.391 . S
C1841 H1829 0.950 . S
C1841 C1837 1.393 . S
C1841 C1840 1.391 . S
C1842 H1832 0.950 . S
C1842 C1843 1.386 . S
C1842 C1844 1.391 . S
C1843 C1842 1.386 . S
C1843 C1847 1.393 . S
C1844 H1833 0.950 . S
C1844 C1842 1.391 . S
C1844 C1845 1.400 . S
C1845 C1839 1.491 . S
C1845 C1844 1.400 . S
C1845 C1846 1.398 . S
C1846 H1834 0.950 . S
C1846 C1845 1.398 . S
C1846 C1847 1.391 . S
C1847 H1835 0.950 . S
C1847 C1843 1.393 . S
C1847 C1846 1.391 . S
H1848 C1856 0.950 1_455 S
H1849 C1861 0.950 . S
H1850 C1858 0.950 . S
H1851 C1860 0.950 . S
H1852 C1862 0.950 . S
H1853 C1864 0.950 . S
H1854 C1866 0.950 . S
H1855 C1867 0.950 . S
C1856 H1848 0.950 1_655 S
C1856 C1857 1.386 . S
C1856 C1858 1.391 . S
C1857 C1856 1.386 . S
C1857 C1861 1.393 . S
C1858 H1850 0.950 . S
C1858 C1856 1.391 . S
C1858 C1859 1.400 . S
C1859 C1858 1.400 . S
C1859 C1860 1.398 . S
C1859 C1865 1.491 . S
C1860 H1851 0.950 . S
C1860 C1859 1.398 . S
C1860 C1861 1.391 . S
C1861 H1849 0.950 . S
C1861 C1857 1.393 . S
C1861 C1860 1.391 . S
C1862 H1852 0.950 . S
C1862 C1863 1.386 . S
C1862 C1864 1.391 . S
C1863 C1862 1.386 . S
C1863 C1867 1.393 . S
C1864 H1853 0.950 . S
C1864 C1862 1.391 . S
C1864 C1865 1.400 . S
C1865 C1859 1.491 . S
C1865 C1864 1.400 . S
C1865 C1866 1.398 . S
C1866 H1854 0.950 . S
C1866 C1865 1.398 . S
C1866 C1867 1.391 . S
C1867 H1855 0.950 . S
C1867 C1863 1.393 . S
C1867 C1866 1.391 . S
H1868 C1876 0.950 . S
H1869 C1881 0.950 . S
H1870 C1878 0.950 . S
H1871 C1880 0.950 . S
H1872 C1882 0.950 . S
H1873 C1884 0.950 . S
H1874 C1886 0.950 . S
H1875 C1887 0.950 . S
C1876 H1868 0.950 . S
C1876 C1877 1.386 . S
C1876 C1878 1.391 . S
C1877 C1876 1.386 . S
C1877 C1881 1.393 . S
C1878 H1870 0.950 . S
C1878 C1876 1.391 . S
C1878 C1879 1.400 . S
C1879 C1878 1.400 . S
C1879 C1880 1.398 . S
C1879 C1885 1.491 . S
C1880 H1871 0.950 . S
C1880 C1879 1.398 . S
C1880 C1881 1.391 . S
C1881 H1869 0.950 . S
C1881 C1877 1.393 . S
C1881 C1880 1.391 . S
C1882 H1872 0.950 . S
C1882 C1883 1.386 . S
C1882 C1884 1.391 . S
C1883 C1882 1.386 . S
C1883 C1887 1.393 . S
C1884 H1873 0.950 . S
C1884 C1882 1.391 . S
C1884 C1885 1.400 . S
C1885 C1879 1.491 . S
C1885 C1884 1.400 . S
C1885 C1886 1.398 . S
C1886 H1874 0.950 . S
C1886 C1885 1.398 . S
C1886 C1887 1.391 . S
C1887 H1875 0.950 . S
C1887 C1883 1.393 . S
C1887 C1886 1.391 . S
H1888 C1896 0.950 . S
H1889 C1901 0.950 . S
H1890 C1898 0.950 . S
H1891 C1900 0.950 . S
H1892 C1902 0.950 . S
H1893 C1904 0.950 . S
H1894 C1906 0.950 . S
H1895 C1907 0.950 . S
C1896 H1888 0.950 . S
C1896 C1897 1.386 . S
C1896 C1898 1.391 . S
C1897 C1896 1.386 . S
C1897 C1901 1.393 1_655 S
C1898 H1890 0.950 . S
C1898 C1896 1.391 . S
C1898 C1899 1.405 . S
C1899 C1898 1.405 . S
C1899 C1900 1.394 1_655 S
C1899 C1905 1.490 1_655 S
C1900 H1891 0.950 . S
C1900 C1899 1.394 1_455 S
C1900 C1901 1.391 . S
C1901 H1889 0.950 . S
C1901 C1897 1.393 1_455 S
C1901 C1900 1.391 . S
C1902 H1892 0.950 . S
C1902 C1903 1.386 . S
C1902 C1904 1.391 . S
C1903 C1902 1.386 . S
C1903 C1907 1.393 1_455 S
C1904 H1893 0.950 . S
C1904 C1902 1.391 . S
C1904 C1905 1.405 . S
C1905 C1899 1.490 1_455 S
C1905 C1904 1.405 . S
C1905 C1906 1.394 1_455 S
C1906 H1894 0.950 . S
C1906 C1905 1.394 1_655 S
C1906 C1907 1.391 . S
C1907 H1895 0.950 . S
C1907 C1903 1.393 1_655 S
C1907 C1906 1.391 . S
H1908 C1916 0.950 . S
H1909 C1921 0.950 . S
H1910 C1918 0.950 . S
H1911 C1920 0.950 . S
H1912 C1922 0.950 . S
H1913 C1924 0.950 . S
H1914 C1926 0.950 . S
H1915 C1927 0.950 . S
C1916 H1908 0.950 . S
C1916 C1917 1.386 1_565 S
C1916 C1918 1.391 . S
C1917 C1916 1.386 1_545 S
C1917 C1921 1.393 . S
C1918 H1910 0.950 . S
C1918 C1916 1.391 . S
C1918 C1919 1.376 1_565 S
C1919 C1918 1.376 1_545 S
C1919 C1920 1.424 . S
C1919 C1925 1.489 1_545 S
C1920 H1911 0.950 . S
C1920 C1919 1.424 . S
C1920 C1921 1.391 . S
C1921 H1909 0.950 . S
C1921 C1917 1.393 . S
C1921 C1920 1.391 . S
C1922 H1912 0.950 . S
C1922 C1923 1.386 1_545 S
C1922 C1924 1.391 . S
C1923 C1922 1.386 1_565 S
C1923 C1927 1.393 . S
C1924 H1913 0.950 . S
C1924 C1922 1.391 . S
C1924 C1925 1.376 1_545 S
C1925 C1919 1.489 1_565 S
C1925 C1924 1.376 1_565 S
C1925 C1926 1.424 . S
C1926 H1914 0.950 . S
C1926 C1925 1.424 . S
C1926 C1927 1.391 . S
C1927 H1915 0.950 . S
C1927 C1923 1.393 . S
C1927 C1926 1.391 . S
H1928 C1936 0.950 . S
H1929 C1941 0.950 . S
H1930 C1938 0.950 . S
H1931 C1940 0.950 . S
H1932 C1942 0.950 . S
H1933 C1944 0.950 . S
H1934 C1946 0.950 . S
H1935 C1947 0.950 . S
C1936 H1928 0.950 . S
C1936 C1937 1.386 . S
C1936 C1938 1.391 . S
C1937 C1936 1.386 . S
C1937 C1941 1.393 1_655 S
C1938 H1930 0.950 . S
C1938 C1936 1.391 . S
C1938 C1939 1.430 . S
C1939 C1938 1.430 . S
C1939 C1940 1.372 1_655 S
C1939 C1945 1.488 1_655 S
C1940 H1931 0.950 . S
C1940 C1939 1.372 1_455 S
C1940 C1941 1.391 . S
C1941 H1929 0.950 . S
C1941 C1937 1.393 1_455 S
C1941 C1940 1.391 . S
C1942 H1932 0.950 . S
C1942 C1943 1.386 . S
C1942 C1944 1.391 . S
C1943 C1942 1.386 . S
C1943 C1947 1.393 1_455 S
C1944 H1933 0.950 . S
C1944 C1942 1.391 . S
C1944 C1945 1.430 . S
C1945 C1939 1.488 1_455 S
C1945 C1944 1.430 . S
C1945 C1946 1.372 1_455 S
C1946 H1934 0.950 . S
C1946 C1945 1.372 1_655 S
C1946 C1947 1.391 . S
C1947 H1935 0.950 . S
C1947 C1943 1.393 1_655 S
C1947 C1946 1.391 . S
H1948 C1956 0.950 . S
H1949 C1961 0.950 . S
H1950 C1958 0.950 . S
H1951 C1960 0.950 . S
H1952 C1962 0.950 . S
H1953 C1964 0.950 . S
H1954 C1966 0.950 . S
H1955 C1967 0.950 . S
C1956 H1948 0.950 . S
C1956 C1957 1.386 1_545 S
C1956 C1958 1.391 . S
C1957 C1956 1.386 1_565 S
C1957 C1961 1.393 . S
C1958 H1950 0.950 . S
C1958 C1956 1.391 . S
C1958 C1959 1.393 1_545 S
C1959 C1958 1.393 1_565 S
C1959 C1960 1.406 . S
C1959 C1965 1.490 1_565 S
C1960 H1951 0.950 . S
C1960 C1959 1.406 . S
C1960 C1961 1.391 . S
C1961 H1949 0.950 . S
C1961 C1957 1.393 . S
C1961 C1960 1.391 . S
C1962 H1952 0.950 . S
C1962 C1963 1.386 1_565 S
C1962 C1964 1.391 . S
C1963 C1962 1.386 1_545 S
C1963 C1967 1.393 . S
C1964 H1953 0.950 . S
C1964 C1962 1.391 . S
C1964 C1965 1.393 1_565 S
C1965 C1959 1.490 1_545 S
C1965 C1964 1.393 1_545 S
C1965 C1966 1.406 . S
C1966 H1954 0.950 . S
C1966 C1965 1.406 . S
C1966 C1967 1.391 . S
C1967 H1955 0.950 . S
C1967 C1963 1.393 . S
C1967 C1966 1.391 . S
H1968 C1976 0.950 . S
H1969 C1981 0.950 . S
H1970 C1978 0.950 . S
H1971 C1980 0.950 . S
H1972 C1982 0.950 . S
H1973 C1984 0.950 . S
H1974 C1986 0.950 . S
H1975 C1987 0.950 . S
C1976 H1968 0.950 . S
C1976 C1977 1.386 . S
C1976 C1978 1.391 . S
C1977 C1976 1.386 . S
C1977 C1981 1.393 . S
C1978 H1970 0.950 . S
C1978 C1976 1.391 . S
C1978 C1979 1.400 . S
C1979 C1978 1.400 . S
C1979 C1980 1.398 . S
C1979 C1985 1.491 1_556 S
C1980 H1971 0.950 . S
C1980 C1979 1.398 . S
C1980 C1981 1.391 . S
C1981 H1969 0.950 . S
C1981 C1977 1.393 . S
C1981 C1980 1.391 . S
C1982 H1972 0.950 . S
C1982 C1983 1.386 . S
C1982 C1984 1.391 . S
C1983 C1982 1.386 . S
C1983 C1987 1.393 . S
C1984 H1973 0.950 . S
C1984 C1982 1.391 . S
C1984 C1985 1.400 . S
C1985 C1979 1.491 1_554 S
C1985 C1984 1.400 . S
C1985 C1986 1.398 . S
C1986 H1974 0.950 . S
C1986 C1985 1.398 . S
C1986 C1987 1.391 . S
C1987 H1975 0.950 . S
C1987 C1983 1.393 . S
C1987 C1986 1.391 . S
H1988 C1996 0.950 . S
H1989 C2001 0.950 . S
H1990 C1998 0.950 . S
H1991 C2000 0.950 . S
H1992 C2002 0.950 . S
H1993 C2004 0.950 . S
H1994 C2006 0.950 . S
H1995 C2007 0.950 . S
C1996 H1988 0.950 . S
C1996 C1997 1.386 . S
C1996 C1998 1.391 . S
C1997 C1996 1.386 . S
C1997 C2001 1.393 . S
C1998 H1990 0.950 . S
C1998 C1996 1.391 . S
C1998 C1999 1.400 . S
C1999 C1998 1.400 . S
C1999 C2000 1.398 . S
C1999 C2005 1.491 1_556 S
C2000 H1991 0.950 . S
C2000 C1999 1.398 . S
C2000 C2001 1.391 . S
C2001 H1989 0.950 . S
C2001 C1997 1.393 . S
C2001 C2000 1.391 . S
C2002 H1992 0.950 . S
C2002 C2003 1.386 . S
C2002 C2004 1.391 . S
C2003 C2002 1.386 . S
C2003 C2007 1.393 . S
C2004 H1993 0.950 . S
C2004 C2002 1.391 . S
C2004 C2005 1.400 . S
C2005 C1999 1.491 1_554 S
C2005 C2004 1.400 . S
C2005 C2006 1.398 . S
C2006 H1994 0.950 . S
C2006 C2005 1.398 . S
C2006 C2007 1.391 . S
C2007 H1995 0.950 . S
C2007 C2003 1.393 . S
C2007 C2006 1.391 . S
H2008 C2016 0.950 . S
H2009 C2021 0.950 . S
H2010 C2018 0.950 . S
H2011 C2020 0.950 . S
H2012 C2022 0.950 . S
H2013 C2024 0.950 . S
H2014 C2026 0.950 . S
H2015 C2027 0.950 . S
C2016 H2008 0.950 . S
C2016 C2017 1.386 . S
C2016 C2018 1.391 . S
C2017 C2016 1.386 . S
C2017 C2021 1.393 . S
C2018 H2010 0.950 . S
C2018 C2016 1.391 . S
C2018 C2019 1.400 . S
C2019 C2018 1.400 . S
C2019 C2020 1.398 . S
C2019 C2025 1.491 1_554 S
C2020 H2011 0.950 . S
C2020 C2019 1.398 . S
C2020 C2021 1.391 . S
C2021 H2009 0.950 . S
C2021 C2017 1.393 . S
C2021 C2020 1.391 . S
C2022 H2012 0.950 . S
C2022 C2023 1.386 . S
C2022 C2024 1.391 . S
C2023 C2022 1.386 . S
C2023 C2027 1.393 . S
C2024 H2013 0.950 . S
C2024 C2022 1.391 . S
C2024 C2025 1.400 . S
C2025 C2019 1.491 1_556 S
C2025 C2024 1.400 . S
C2025 C2026 1.398 . S
C2026 H2014 0.950 . S
C2026 C2025 1.398 . S
C2026 C2027 1.391 . S
C2027 H2015 0.950 . S
C2027 C2023 1.393 . S
C2027 C2026 1.391 . S
H2028 C2036 0.950 . S
H2029 C2041 0.950 . S
H2030 C2038 0.950 . S
H2031 C2040 0.950 . S
H2032 C2042 0.950 . S
H2033 C2044 0.950 . S
H2034 C2046 0.950 . S
H2035 C2047 0.950 . S
C2036 H2028 0.950 . S
C2036 C2037 1.386 . S
C2036 C2038 1.391 . S
C2037 C2036 1.386 . S
C2037 C2041 1.393 . S
C2038 H2030 0.950 . S
C2038 C2036 1.391 . S
C2038 C2039 1.400 . S
C2039 C2038 1.400 . S
C2039 C2040 1.398 . S
C2039 C2045 1.491 1_556 S
C2040 H2031 0.950 . S
C2040 C2039 1.398 . S
C2040 C2041 1.391 . S
C2041 H2029 0.950 . S
C2041 C2037 1.393 . S
C2041 C2040 1.391 . S
C2042 H2032 0.950 . S
C2042 C2043 1.386 . S
C2042 C2044 1.391 . S
C2043 C2042 1.386 . S
C2043 C2047 1.393 . S
C2044 H2033 0.950 . S
C2044 C2042 1.391 . S
C2044 C2045 1.400 . S
C2045 C2039 1.491 1_554 S
C2045 C2044 1.400 . S
C2045 C2046 1.398 . S
C2046 H2034 0.950 . S
C2046 C2045 1.398 . S
C2046 C2047 1.391 . S
C2047 H2035 0.950 . S
C2047 C2043 1.393 . S
C2047 C2046 1.391 . S
C1417 C20 1.624 . S
C1423 C293 1.555 . S
C1437 C49 1.538 . S
C1443 C117 1.616 . S
C1457 C137 1.568 . S
C1463 C196 1.627 . S
C1477 C225 1.558 . S
C1483 C313 1.621 . S
C1497 C409 1.627 . S
C1503 C497 1.571 . S
C1517 C460 1.621 . S
C1523 C557 1.560 . S
C1537 C585 1.624 . S
C1543 C636 1.557 . S
C1557 C673 1.617 . S
C1563 C381 1.542 . S
C1577 C724 1.629 . S
C1583 C988 1.579 . S
C1597 C753 1.552 . S
C1603 C821 1.619 . S
C1617 C841 1.565 . S
C1623 C900 1.626 . S
C1637 C1025 1.615 . S
C1643 C929 1.536 . S
C1657 C1201 1.571 . S
C1663 C1105 1.627 . S
C1677 C1261 1.556 . S
C1683 C1164 1.620 . S
C1697 C1289 1.628 . S
C1703 C1340 1.575 . S
C1717 C1377 1.621 . S
C1723 C1076 1.559 . S
C1737 C57 0.801 . S
C1743 C1369 0.831 . S
C1757 C108 0.820 . S
C1763 C1085 0.814 . S
C1777 C1173 0.800 . S
C1783 C233 0.825 . S
C1797 C321 0.808 . S
C1803 C1252 0.825 . S
C1817 C812 0.800 . S
C1823 C372 0.830 . S
C1837 C937 0.808 . S
C1843 C469 0.817 . S
C1857 C548 0.819 . S
C1863 C1017 0.814 . S
C1877 C665 0.816 . S
C1883 C761 0.809 . S
C1897 C29 1.441 . S
C1903 C577 1.451 . S
C1917 C645 1.456 . S
C1923 C145 1.435 . S
C1937 C401 1.442 . S
C1943 C205 1.458 . S
C1957 C489 1.452 . S
C1963 C284 1.435 . S
C1977 C733 1.440 . S
C1983 C1281 1.457 . S
C1997 C849 1.451 . S
C2003 C1349 1.444 . S
C2017 C1113 1.458 . S
C2023 C909 1.441 . S
C2037 C997 1.434 . S
C2043 C1193 1.455 . S
