# Generated by pormake.
# Topology wjo, (5)-cn, num edge types: 1
# Building blocks:
#     Node 0, Type 0, BuildingBlock: BEQFEK_clean_sbu_0, # of connection points: 5
#     Node 1, Type 0, BuildingBlock: BEQFEK_clean_sbu_0, # of connection points: 5
#     Node 2, Type 0, BuildingBlock: BEQFEK_clean_sbu_0, # of connection points: 5
#     Node 3, Type 0, BuildingBlock: BEQFEK_clean_sbu_0, # of connection points: 5
#     Node 4, Type 0, BuildingBlock: BEQFEK_clean_sbu_0, # of connection points: 5
#     Node 5, Type 0, BuildingBlock: BEQFEK_clean_sbu_0, # of connection points: 5
#     Node 6, Type 0, BuildingBlock: BEQFEK_clean_sbu_0, # of connection points: 5
#     Node 7, Type 0, BuildingBlock: BEQFEK_clean_sbu_0, # of connection points: 5
#     Node 8, Type 0, BuildingBlock: BEQFEK_clean_sbu_0, # of connection points: 5
#     Node 9, Type 0, BuildingBlock: BEQFEK_clean_sbu_0, # of connection points: 5
#     Node 10, Type 0, BuildingBlock: BEQFEK_clean_sbu_0, # of connection points: 5
#     Node 11, Type 0, BuildingBlock: BEQFEK_clean_sbu_0, # of connection points: 5
#     Edge 12, Type (0, 0), BuildingBlock: XUDNAN_clean_linker_2, # of connection points: 2
#     Edge 13, Type (0, 0), BuildingBlock: XUDNAN_clean_linker_2, # of connection points: 2
#     Edge 14, Type (0, 0), BuildingBlock: XUDNAN_clean_linker_2, # of connection points: 2
#     Edge 15, Type (0, 0), BuildingBlock: XUDNAN_clean_linker_2, # of connection points: 2
#     Edge 16, Type (0, 0), BuildingBlock: XUDNAN_clean_linker_2, # of connection points: 2
#     Edge 17, Type (0, 0), BuildingBlock: XUDNAN_clean_linker_2, # of connection points: 2
#     Edge 18, Type (0, 0), BuildingBlock: XUDNAN_clean_linker_2, # of connection points: 2
#     Edge 19, Type (0, 0), BuildingBlock: XUDNAN_clean_linker_2, # of connection points: 2
#     Edge 20, Type (0, 0), BuildingBlock: XUDNAN_clean_linker_2, # of connection points: 2
#     Edge 21, Type (0, 0), BuildingBlock: XUDNAN_clean_linker_2, # of connection points: 2
#     Edge 22, Type (0, 0), BuildingBlock: XUDNAN_clean_linker_2, # of connection points: 2
#     Edge 23, Type (0, 0), BuildingBlock: XUDNAN_clean_linker_2, # of connection points: 2
#     Edge 24, Type (0, 0), BuildingBlock: XUDNAN_clean_linker_2, # of connection points: 2
#     Edge 25, Type (0, 0), BuildingBlock: XUDNAN_clean_linker_2, # of connection points: 2
#     Edge 26, Type (0, 0), BuildingBlock: XUDNAN_clean_linker_2, # of connection points: 2
#     Edge 27, Type (0, 0), BuildingBlock: XUDNAN_clean_linker_2, # of connection points: 2
#     Edge 28, Type (0, 0), BuildingBlock: XUDNAN_clean_linker_2, # of connection points: 2
#     Edge 29, Type (0, 0), BuildingBlock: XUDNAN_clean_linker_2, # of connection points: 2
#     Edge 30, Type (0, 0), BuildingBlock: XUDNAN_clean_linker_2, # of connection points: 2
#     Edge 31, Type (0, 0), BuildingBlock: XUDNAN_clean_linker_2, # of connection points: 2
#     Edge 32, Type (0, 0), BuildingBlock: XUDNAN_clean_linker_2, # of connection points: 2
#     Edge 33, Type (0, 0), BuildingBlock: XUDNAN_clean_linker_2, # of connection points: 2
#     Edge 34, Type (0, 0), BuildingBlock: XUDNAN_clean_linker_2, # of connection points: 2
#     Edge 35, Type (0, 0), BuildingBlock: XUDNAN_clean_linker_2, # of connection points: 2
#     Edge 36, Type (0, 0), BuildingBlock: XUDNAN_clean_linker_2, # of connection points: 2
#     Edge 37, Type (0, 0), BuildingBlock: XUDNAN_clean_linker_2, # of connection points: 2
#     Edge 38, Type (0, 0), BuildingBlock: XUDNAN_clean_linker_2, # of connection points: 2
#     Edge 39, Type (0, 0), BuildingBlock: XUDNAN_clean_linker_2, # of connection points: 2
#     Edge 40, Type (0, 0), BuildingBlock: XUDNAN_clean_linker_2, # of connection points: 2
#     Edge 41, Type (0, 0), BuildingBlock: XUDNAN_clean_linker_2, # of connection points: 2
# Relax obj value: 0.788
# Max RMSD: 0.255
# Mean RMSD: 0.245
data_MOF--net-wjo--node1-BEQFEK_clean_sbu_0--edge1-XUDNAN_clean_linker_2
_symmetry_space_group_name_H-M    P1
_symmetry_Int_Tables_number       1
_symmetry_cell_setting            triclinic
loop_
_symmetry_equiv_pos_as_xyz
'x, y, z'
_cell_length_a     45.900135
_cell_length_b     45.719683
_cell_length_c     27.317998
_cell_angle_alpha  90.082504
_cell_angle_beta   89.955664
_cell_angle_gamma 120.11527
loop_
_atom_site_label
_atom_site_type_symbol
_atom_site_fract_x
_atom_site_fract_y
_atom_site_fract_z
_atom_type_partial_charge
Co0 Co 0.31018 0.38034 0.90889 0.0
Co1 Co 0.3041 0.42598 0.99152 0.0
C2 C 0.31276 0.36737 0.01652 0.0
O3 O 0.31446 0.36091 0.97161 0.0
O4 O 0.30843 0.39168 0.02931 0.0
C5 C 0.29685 0.31745 0.86661 0.0
O6 O 0.28274 0.30623 0.90955 0.0
C7 C 0.30642 0.46417 0.0815 0.0
C8 C 0.2812 0.49167 0.05593 0.0
C9 C 0.29614 0.48658 0.09648 0.0
N10 N 0.29771 0.45606 0.03416 0.0
N11 N 0.28344 0.47338 0.01894 0.0
C12 C 0.32392 0.4507 0.11259 0.0
H13 H 0.32377 0.42885 0.09568 0.0
H14 H 0.31197 0.4435 0.14928 0.0
H15 H 0.35058 0.47074 0.1176 0.0
C16 C 0.23935 0.36419 0.89199 0.0
N17 N 0.27008 0.38392 0.91204 0.0
N18 N 0.26731 0.40188 0.9477 0.0
C19 C 0.23468 0.39319 0.9525 0.0
C20 C 0.21583 0.36946 0.91683 0.0
C21 C 0.23207 0.33816 0.85344 0.0
H22 H 0.25296 0.34802 0.8265 0.0
H23 H 0.23006 0.3153 0.8708 0.0
H24 H 0.20802 0.33098 0.83443 0.0
O25 O 0.35282 0.42474 0.90005 0.0
O26 O 0.34689 0.45563 0.95756 0.0
H27 H 0.21808 0.4233 0.99014 0.0
H28 H 0.19523 0.37941 0.00642 0.0
C29 C 0.22057 0.40078 0.99718 0.0
H30 H 0.23722 0.40562 0.02914 0.0
H31 H 0.27486 0.47243 0.9833 0.0
O32 O 0.3086 0.34858 0.85643 0.0
C33 C 0.36378 0.45255 0.92316 0.0
Co34 Co 0.93938 0.29992 0.0656 0.0
Co35 Co 0.88473 0.29407 0.14104 0.0
C36 C 0.95148 0.3051 0.17408 0.0
O37 O 0.96067 0.30483 0.13021 0.0
O38 O 0.92268 0.30139 0.18368 0.0
C39 C 0.98723 0.2829 0.02764 0.0
O40 O 0.97879 0.26437 0.06747 0.0
C41 C 0.84099 0.27535 0.22764 0.0
C42 C 0.80387 0.28994 0.20462 0.0
C43 C 0.81306 0.27699 0.24371 0.0
N44 N 0.84798 0.28709 0.18152 0.0
N45 N 0.82574 0.29579 0.16801 0.0
C46 C 0.85983 0.26133 0.2542 0.0
H47 H 0.87256 0.2529 0.22797 0.0
H48 H 0.84253 0.2397 0.27766 0.0
H49 H 0.87938 0.28137 0.27767 0.0
C50 C 0.88464 0.22766 0.0478 0.0
N51 N 0.89568 0.25896 0.06628 0.0
N52 N 0.87307 0.2572 0.09776 0.0
C53 C 0.84709 0.22515 0.09986 0.0
C54 C 0.85368 0.20496 0.06893 0.0
C55 C 0.90457 0.21876 0.01383 0.0
H56 H 0.91945 0.23998 0.98832 0.0
H57 H 0.92209 0.21379 0.03537 0.0
H58 H 0.88764 0.19557 0.99272 0.0
O59 O 0.93768 0.34264 0.05414 0.0
O60 O 0.89761 0.3361 0.1059 0.0
H61 H 0.8089 0.23033 0.13731 0.0
H62 H 0.79872 0.18729 0.13022 0.0
C63 C 0.8195 0.21328 0.13719 0.0
H64 H 0.82996 0.21381 0.17389 0.0
H65 H 0.82568 0.30599 0.13389 0.0
O66 O 0.97226 0.29925 0.0176 0.0
C67 C 0.91936 0.35322 0.0735 0.0
Co68 Co 0.6472 0.93428 0.24456 0.0
Co69 Co 0.59659 0.87385 0.31205 0.0
C70 C 0.65312 0.93823 0.35347 0.0
O71 O 0.66334 0.95223 0.31187 0.0
O72 O 0.62802 0.90855 0.35769 0.0
C73 C 0.71224 0.98423 0.20952 0.0
O74 O 0.72143 0.97604 0.25041 0.0
C75 C 0.57108 0.82836 0.39635 0.0
C76 C 0.51852 0.79274 0.37479 0.0
C77 C 0.54091 0.80169 0.41352 0.0
N78 N 0.5665 0.83529 0.35014 0.0
N79 N 0.53508 0.81372 0.33732 0.0
C80 C 0.60411 0.84652 0.42265 0.0
H81 H 0.62525 0.85595 0.39623 0.0
H82 H 0.6065 0.82964 0.44948 0.0
H83 H 0.60587 0.86858 0.44238 0.0
C84 C 0.66481 0.88073 0.21821 0.0
N85 N 0.64385 0.89017 0.23834 0.0
N86 N 0.62189 0.86507 0.26587 0.0
C87 C 0.62806 0.83921 0.26408 0.0
C88 C 0.65606 0.84838 0.23451 0.0
C89 C 0.69474 0.90334 0.18748 0.0
H90 H 0.68849 0.91852 0.16256 0.0
H91 H 0.7158 0.92078 0.21151 0.0
H92 H 0.70302 0.8883 0.16567 0.0
O93 O 0.60296 0.93307 0.23465 0.0
O94 O 0.56849 0.88948 0.28103 0.0
H95 H 0.58386 0.79922 0.29786 0.0
H96 H 0.61588 0.7886 0.28677 0.0
C97 C 0.6114 0.80928 0.29761 0.0
H98 H 0.62116 0.81727 0.33524 0.0
H99 H 0.52462 0.81409 0.30359 0.0
O100 O 0.68114 0.9688 0.19805 0.0
C101 C 0.57371 0.91337 0.25217 0.0
Co102 Co 0.71396 0.63867 0.39854 0.0
Co103 Co 0.71919 0.59064 0.4767 0.0
C104 C 0.71291 0.64945 0.50787 0.0
O105 O 0.71162 0.65735 0.46351 0.0
O106 O 0.71595 0.62402 0.51853 0.0
C107 C 0.73552 0.70394 0.35915 0.0
O108 O 0.75455 0.71251 0.39846 0.0
C109 C 0.72775 0.55862 0.56432 0.0
C110 C 0.73398 0.5175 0.53304 0.0
C111 C 0.73351 0.53259 0.57675 0.0
N112 N 0.72569 0.55951 0.5154 0.0
N113 N 0.72898 0.53456 0.49691 0.0
C114 C 0.72177 0.58075 0.59836 0.0
H115 H 0.74348 0.60693 0.59636 0.0
H116 H 0.71824 0.57173 0.63674 0.0
H117 H 0.69876 0.58102 0.58679 0.0
C118 C 0.78381 0.65067 0.376 0.0
N119 N 0.75333 0.63341 0.39806 0.0
N120 N 0.75514 0.6141 0.43231 0.0
C121 C 0.78664 0.61918 0.43424 0.0
C122 C 0.80593 0.64211 0.39811 0.0
C123 C 0.79229 0.67638 0.33663 0.0
H124 H 0.7698 0.66954 0.31378 0.0
H125 H 0.80078 0.70143 0.35361 0.0
H126 H 0.81304 0.67835 0.31334 0.0
O127 O 0.66997 0.59501 0.38895 0.0
O128 O 0.67616 0.56281 0.44373 0.0
H129 H 0.7943 0.58162 0.46891 0.0
H130 H 0.82706 0.62431 0.48156 0.0
C131 C 0.79958 0.60771 0.47613 0.0
H132 H 0.7869 0.60789 0.51053 0.0
H133 H 0.7282 0.52944 0.45954 0.0
O134 O 0.71654 0.67267 0.34957 0.0
C135 C 0.65891 0.56677 0.41091 0.0
Co136 Co 0.08204 0.71639 0.56863 0.0
Co137 Co 0.13873 0.7246 0.64291 0.0
C138 C 0.07312 0.71932 0.67499 0.0
O139 O 0.06029 0.7151 0.63251 0.0
O140 O 0.10218 0.7232 0.68145 0.0
C141 C 0.02595 0.69154 0.50208 0.0
O142 O 0.02143 0.6622 0.51678 0.0
C143 C 0.16241 0.71808 0.73679 0.0
C144 C 0.2178 0.74755 0.73396 0.0
C145 C 0.19099 0.72972 0.76583 0.0
N146 N 0.17176 0.73039 0.69128 0.0
N147 N 0.20501 0.74673 0.6892 0.0
C148 C 0.12712 0.69122 0.74915 0.0
H149 H 0.11385 0.67684 0.71578 0.0
H150 H 0.11304 0.70305 0.76426 0.0
H151 H 0.12715 0.6733 0.7765 0.0
C152 C 0.13636 0.78692 0.54547 0.0
N153 N 0.12654 0.75663 0.56657 0.0
N154 N 0.15035 0.76 0.59716 0.0
C155 C 0.17553 0.7925 0.59681 0.0
C156 C 0.16784 0.81052 0.5636 0.0
C157 C 0.1139 0.79415 0.51446 0.0
H158 H 0.10485 0.77657 0.48278 0.0
H159 H 0.09153 0.78953 0.53616 0.0
H160 H 0.1272 0.82066 0.5011 0.0
O161 O 0.08272 0.67263 0.56134 0.0
O162 O 0.12426 0.68102 0.61142 0.0
H163 H 0.22389 0.80329 0.62169 0.0
H164 H 0.21433 0.83539 0.63735 0.0
C165 C 0.20336 0.80768 0.63377 0.0
H166 H 0.19387 0.796 0.67008 0.0
H167 H 0.21904 0.75718 0.6575 0.0
O168 O 0.05139 0.71847 0.5179 0.0
C169 C 0.10144 0.66265 0.58098 0.0
Co170 Co 0.37581 0.07875 0.74299 0.0
Co171 Co 0.42308 0.13082 0.82299 0.0
C172 C 0.36485 0.06339 0.85054 0.0
O173 O 0.35674 0.05525 0.80591 0.0
O174 O 0.38993 0.09192 0.8623 0.0
C175 C 0.31314 0.03001 0.69782 0.0
O176 O 0.3009 0.03103 0.74087 0.0
C177 C 0.4471 0.17266 0.91208 0.0
C178 C 0.50001 0.20853 0.89227 0.0
C179 C 0.47705 0.19926 0.9303 0.0
N180 N 0.45244 0.16641 0.86582 0.0
N181 N 0.48408 0.18797 0.8542 0.0
C182 C 0.41352 0.15437 0.93685 0.0
H183 H 0.39296 0.1435 0.90937 0.0
H184 H 0.40999 0.17168 0.96148 0.0
H185 H 0.41209 0.13336 0.95894 0.0
C186 C 0.36226 0.13587 0.72518 0.0
N187 N 0.38026 0.12298 0.74561 0.0
N188 N 0.40069 0.14459 0.77863 0.0
C189 C 0.39673 0.17182 0.77963 0.0
C190 C 0.37214 0.16725 0.74617 0.0
C191 C 0.33313 0.11661 0.69141 0.0
H192 H 0.34012 0.1042 0.66249 0.0
H193 H 0.31172 0.09658 0.71242 0.0
H194 H 0.32509 0.13347 0.6744 0.0
O195 O 0.41997 0.07969 0.73366 0.0
O196 O 0.45227 0.11776 0.78899 0.0
H197 H 0.40922 0.22136 0.80663 0.0
H198 H 0.40317 0.19066 0.85284 0.0
C199 C 0.41345 0.20014 0.81582 0.0
H200 H 0.4409 0.20964 0.81637 0.0
H201 H 0.49493 0.1883 0.82048 0.0
O202 O 0.34444 0.04958 0.6897 0.0
C203 C 0.44823 0.09692 0.75531 0.0
Co204 Co 0.65042 0.72167 0.91487 0.0
Co205 Co 0.59703 0.73041 0.85308 0.0
C206 C 0.65262 0.72351 0.8058 0.0
O207 O 0.66466 0.72051 0.84625 0.0
O208 O 0.62694 0.72718 0.80417 0.0
C209 C 0.71617 0.73601 0.94687 0.0
O210 O 0.72546 0.75347 0.906 0.0
C211 C 0.56841 0.75122 0.77359 0.0
C212 C 0.51523 0.72817 0.79654 0.0
C213 C 0.53705 0.74515 0.75832 0.0
N214 N 0.56532 0.73844 0.81882 0.0
N215 N 0.53358 0.72529 0.83271 0.0
C216 C 0.59948 0.76412 0.74294 0.0
H217 H 0.62218 0.77529 0.76653 0.0
H218 H 0.60169 0.78344 0.71646 0.0
H219 H 0.59825 0.74271 0.72199 0.0
C220 C 0.66889 0.79283 0.94211 0.0
N221 N 0.64694 0.76212 0.92338 0.0
N222 N 0.62404 0.76498 0.89808 0.0
C223 C 0.63064 0.7972 0.89988 0.0
C224 C 0.65987 0.81642 0.92705 0.0
C225 C 0.70002 0.80044 0.96977 0.0
H226 H 0.69455 0.77938 0.99514 0.0
H227 H 0.71975 0.80323 0.94367 0.0
H228 H 0.70972 0.82434 0.99081 0.0
O229 O 0.60683 0.67805 0.92596 0.0
O230 O 0.56999 0.6864 0.8849 0.0
H231 H 0.61823 0.83565 0.8788 0.0
H232 H 0.62154 0.81152 0.82959 0.0
C233 C 0.6131 0.81022 0.86793 0.0
H234 H 0.58553 0.79277 0.86965 0.0
H235 H 0.524 0.71242 0.86562 0.0
O236 O 0.68521 0.72094 0.95905 0.0
C237 C 0.57682 0.66795 0.9116 0.0
Co238 Co 0.93619 0.63928 0.08486 0.0
Co239 Co 0.8792 0.58974 0.01178 0.0
C240 C 0.94435 0.64786 0.97577 0.0
O241 O 0.95533 0.65724 0.01917 0.0
O242 O 0.91555 0.62202 0.96777 0.0
C243 C 0.99136 0.70118 0.12486 0.0
O244 O 0.9924 0.71243 0.08031 0.0
C245 C 0.83725 0.55697 0.9257 0.0
C246 C 0.78825 0.52022 0.95822 0.0
C247 C 0.80446 0.53283 0.91398 0.0
N248 N 0.8402 0.55933 0.97461 0.0
N249 N 0.81097 0.53686 0.9939 0.0
C250 C 0.86603 0.57573 0.8911 0.0
H251 H 0.88846 0.57526 0.9051 0.0
H252 H 0.87198 0.6024 0.8888 0.0
H253 H 0.86022 0.56437 0.85396 0.0
C254 C 0.88383 0.65802 0.10501 0.0
N255 N 0.8926 0.63586 0.08746 0.0
N256 N 0.86936 0.61554 0.05617 0.0
C257 C 0.84557 0.62445 0.05216 0.0
C258 C 0.85363 0.65158 0.08329 0.0
C259 C 0.90641 0.68779 0.1362 0.0
H260 H 0.91749 0.6798 0.16572 0.0
H261 H 0.92734 0.7069 0.11343 0.0
H262 H 0.89245 0.69941 0.15253 0.0
O263 O 0.93549 0.59507 0.09268 0.0
O264 O 0.89361 0.56085 0.04379 0.0
H265 H 0.79931 0.58759 0.019 0.0
H266 H 0.81094 0.63034 0.00386 0.0
C267 C 0.82082 0.61304 0.01063 0.0
H268 H 0.83306 0.61159 0.97647 0.0
H269 H 0.80638 0.53328 0.03145 0.0
O270 O 0.96841 0.67122 0.13563 0.0
C271 C 0.91677 0.56598 0.07379 0.0
Co272 Co 0.30298 0.92684 0.25252 0.0
Co273 Co 0.29285 0.86238 0.19554 0.0
C274 C 0.29899 0.92464 0.14499 0.0
O275 O 0.3025 0.94096 0.18439 0.0
O276 O 0.29535 0.89513 0.14542 0.0
C277 C 0.30175 0.98685 0.28405 0.0
O278 O 0.29721 0.98956 0.23718 0.0
C279 C 0.25749 0.80761 0.1256 0.0
C280 C 0.28628 0.78078 0.12832 0.0
C281 C 0.26 0.78142 0.10444 0.0
N282 N 0.28093 0.82165 0.16084 0.0
N283 N 0.29786 0.80529 0.16269 0.0
C284 C 0.23597 0.82171 0.10862 0.0
H285 H 0.23891 0.8425 0.13282 0.0
H286 H 0.20907 0.80174 0.10853 0.0
H287 H 0.24287 0.83096 0.07048 0.0
C288 C 0.23244 0.87595 0.28101 0.0
N289 N 0.26298 0.88378 0.26322 0.0
N290 N 0.26076 0.85632 0.24395 0.0
C291 C 0.22964 0.82997 0.25211 0.0
C292 C 0.21022 0.84147 0.27461 0.0
C293 C 0.22351 0.90185 0.29654 0.0
H294 H 0.23922 0.91604 0.32846 0.0
H295 H 0.22938 0.92024 0.26639 0.0
H296 H 0.19648 0.89003 0.3065 0.0
O297 O 0.34665 0.92633 0.26096 0.0
O298 O 0.33761 0.87935 0.2235 0.0
H299 H 0.23767 0.78944 0.22921 0.0
H300 H 0.19782 0.77622 0.25894 0.0
C301 C 0.21682 0.79485 0.23329 0.0
H302 H 0.20407 0.79178 0.19769 0.0
H303 H 0.31826 0.81179 0.18592 0.0
O304 O 0.30423 0.96176 0.29882 0.0
C305 C 0.35666 0.90602 0.2476 0.0
Co306 Co 0.37394 0.29544 0.41971 0.0
Co307 Co 0.4299 0.2875 0.36387 0.0
C308 C 0.37447 0.29257 0.31147 0.0
O309 O 0.36103 0.29544 0.35058 0.0
O310 O 0.40055 0.28955 0.31248 0.0
C311 C 0.30756 0.28112 0.4464 0.0
O312 O 0.30026 0.26494 0.40439 0.0
C313 C 0.45701 0.26087 0.2902 0.0
C314 C 0.51154 0.29096 0.30531 0.0
C315 C 0.48828 0.26827 0.27219 0.0
N316 N 0.46166 0.27863 0.33162 0.0
N317 N 0.49428 0.29589 0.34111 0.0
C318 C 0.42365 0.24052 0.26531 0.0
H319 H 0.40297 0.23898 0.28809 0.0
H320 H 0.41839 0.21436 0.2591 0.0
H321 H 0.42426 0.25179 0.2291 0.0
C322 C 0.35597 0.22435 0.44787 0.0
N323 N 0.37796 0.25561 0.43071 0.0
N324 N 0.40347 0.25445 0.41057 0.0
C325 C 0.3993 0.22338 0.41645 0.0
C326 C 0.36865 0.20283 0.43894 0.0
C327 C 0.32107 0.21367 0.46474 0.0
H328 H 0.32165 0.23276 0.49037 0.0
H329 H 0.30542 0.21175 0.43264 0.0
H330 H 0.30948 0.18867 0.48314 0.0
O331 O 0.41717 0.34011 0.43041 0.0
O332 O 0.45566 0.33209 0.39335 0.0
H333 H 0.41816 0.18873 0.41277 0.0
H334 H 0.41417 0.20495 0.35495 0.0
C335 C 0.42136 0.21162 0.3938 0.0
H336 H 0.44813 0.23182 0.39596 0.0
H337 H 0.50494 0.31292 0.3701 0.0
O338 O 0.33787 0.29564 0.46163 0.0
C339 C 0.44762 0.35069 0.41756 0.0
Co340 Co 0.08764 0.37789 0.57976 0.0
Co341 Co 0.15081 0.43204 0.51988 0.0
C342 C 0.08819 0.37712 0.47089 0.0
O343 O 0.07276 0.36466 0.51102 0.0
O344 O 0.11783 0.40269 0.46989 0.0
C345 C 0.03187 0.34434 0.64933 0.0
O346 O 0.03378 0.37394 0.65214 0.0
C347 C 0.20071 0.46248 0.44108 0.0
C348 C 0.23992 0.5101 0.47455 0.0
C349 C 0.23102 0.49162 0.43148 0.0
N350 N 0.1917 0.46375 0.4875 0.0
N351 N 0.21526 0.49232 0.50733 0.0
C352 C 0.18152 0.43299 0.40755 0.0
H353 H 0.16089 0.43514 0.39 0.0
H354 H 0.17032 0.40911 0.42868 0.0
H355 H 0.198 0.43205 0.37859 0.0
C356 C 0.13738 0.35639 0.60273 0.0
N357 N 0.13069 0.3805 0.58759 0.0
N358 N 0.15719 0.40385 0.56395 0.0
C359 C 0.18158 0.39561 0.56385 0.0
C360 C 0.16973 0.36472 0.58757 0.0
C361 C 0.11138 0.32358 0.62468 0.0
H362 H 0.0994 0.32867 0.6563 0.0
H363 H 0.09146 0.30908 0.59717 0.0
H364 H 0.12261 0.30828 0.63707 0.0
O365 O 0.08802 0.42159 0.59194 0.0
O366 O 0.13366 0.45891 0.55174 0.0
H367 H 0.22472 0.44079 0.538 0.0
H368 H 0.23097 0.40518 0.53992 0.0
C369 C 0.21234 0.41313 0.53218 0.0
H370 H 0.20483 0.40759 0.49325 0.0
H371 H 0.21439 0.49979 0.54316 0.0
O372 O 0.05257 0.34106 0.62203 0.0
C373 C 0.10808 0.45181 0.57795 0.0
Co374 Co 0.71906 0.0847 0.75967 0.0
Co375 Co 0.72213 0.1385 0.68441 0.0
C376 C 0.71546 0.07309 0.65115 0.0
O377 O 0.71609 0.06385 0.69488 0.0
O378 O 0.71716 0.10119 0.64208 0.0
C379 C 0.73972 0.03983 0.79692 0.0
O380 O 0.75715 0.0491 0.75604 0.0
C381 C 0.74075 0.18243 0.598 0.0
C382 C 0.71778 0.2137 0.61533 0.0
C383 C 0.73503 0.20725 0.57931 0.0
N384 N 0.72767 0.17465 0.64334 0.0
N385 N 0.71433 0.19373 0.65369 0.0
C386 C 0.75469 0.16359 0.57106 0.0
H387 H 0.7631 0.1507 0.59697 0.0
H388 H 0.77623 0.18085 0.54765 0.0
H389 H 0.73482 0.14446 0.54691 0.0
C390 C 0.78936 0.14278 0.7792 0.0
N391 N 0.75822 0.12974 0.75955 0.0
N392 N 0.75873 0.15186 0.72815 0.0
C393 C 0.78971 0.17947 0.72718 0.0
C394 C 0.81048 0.17464 0.75915 0.0
C395 C 0.79965 0.12412 0.81347 0.0
H396 H 0.77863 0.1082 0.83865 0.0
H397 H 0.8061 0.10753 0.79206 0.0
H398 H 0.82215 0.14205 0.83494 0.0
O399 O 0.67496 0.08369 0.77041 0.0
O400 O 0.67978 0.12354 0.71922 0.0
H401 H 0.82605 0.22851 0.69619 0.0
H402 H 0.79955 0.19671 0.65317 0.0
C403 C 0.80032 0.20712 0.69006 0.0
H404 H 0.78257 0.21688 0.69086 0.0
H405 H 0.70163 0.1921 0.68618 0.0
O406 O 0.72214 0.05328 0.80823 0.0
C407 C 0.66329 0.10115 0.75124 0.0
H408 H 0.20532 0.48834 0.34063 0.0
H409 H 0.29839 0.51686 0.4174 0.0
H410 H 0.32797 0.5265 0.33787 0.0
H411 H 0.21427 0.44068 0.25127 0.0
H412 H 0.1961 0.45279 0.20243 0.0
H413 H 0.18408 0.45381 0.26475 0.0
H414 H 0.20159 0.51697 0.25513 0.0
H415 H 0.21366 0.51615 0.19254 0.0
H416 H 0.24356 0.5469 0.23472 0.0
H417 H 0.34502 0.5253 0.25026 0.0
H418 H 0.34838 0.51401 0.1625 0.0
H419 H 0.24362 0.48535 0.14391 0.0
C420 C 0.23204 0.49704 0.34061 0.0
C421 C 0.24963 0.50147 0.38479 0.0
C422 C 0.28461 0.51338 0.38369 0.0
C423 C 0.30153 0.51891 0.33878 0.0
C424 C 0.2831 0.51301 0.29563 0.0
C425 C 0.24917 0.5027 0.29629 0.0
C426 C 0.23435 0.49539 0.2453 0.0
C427 C 0.20552 0.45848 0.24069 0.0
C428 C 0.2226 0.52034 0.23109 0.0
C429 C 0.26484 0.50163 0.21586 0.0
C430 C 0.29287 0.51232 0.24537 0.0
C431 C 0.32333 0.51732 0.22678 0.0
C432 C 0.32492 0.51051 0.17705 0.0
C433 C 0.29612 0.49845 0.14678 0.0
C434 C 0.26609 0.49496 0.1662 0.0
H435 H 0.84049 0.28027 0.33508 0.0
H436 H 0.74655 0.25354 0.26148 0.0
H437 H 0.71686 0.23687 0.3409 0.0
H438 H 0.80548 0.20951 0.41579 0.0
H439 H 0.83266 0.23278 0.46616 0.0
H440 H 0.84676 0.24519 0.40417 0.0
H441 H 0.85837 0.30568 0.42297 0.0
H442 H 0.84406 0.29343 0.48497 0.0
H443 H 0.82497 0.31143 0.44699 0.0
H444 H 0.69715 0.22114 0.42797 0.0
H445 H 0.68845 0.20455 0.51544 0.0
H446 H 0.79482 0.2389 0.53031 0.0
C447 C 0.8136 0.2702 0.33512 0.0
C448 C 0.79572 0.26736 0.29167 0.0
C449 C 0.76075 0.25574 0.29428 0.0
C450 C 0.74367 0.24623 0.33919 0.0
C451 C 0.76198 0.24861 0.38112 0.0
C452 C 0.79614 0.26017 0.37942 0.0
C453 C 0.80974 0.25885 0.42928 0.0
C454 C 0.82452 0.23517 0.4288 0.0
C455 C 0.83582 0.29447 0.44709 0.0
C456 C 0.77777 0.24426 0.45922 0.0
C457 C 0.75056 0.23896 0.43095 0.0
C458 C 0.71826 0.22521 0.45048 0.0
C459 C 0.71356 0.216 0.50004 0.0
C460 C 0.74093 0.22017 0.52892 0.0
C461 C 0.77346 0.23504 0.50853 0.0
H462 H 0.56443 0.83489 0.50135 0.0
H463 H 0.497 0.73619 0.43895 0.0
H464 H 0.48364 0.7117 0.52235 0.0
H465 H 0.60002 0.806 0.59041 0.0
H466 H 0.60421 0.83642 0.63597 0.0
H467 H 0.60542 0.84628 0.57199 0.0
H468 H 0.55652 0.85842 0.58517 0.0
H469 H 0.55494 0.84826 0.64918 0.0
H470 H 0.51761 0.82635 0.61199 0.0
H471 H 0.48072 0.69763 0.61244 0.0
H472 H 0.49092 0.69452 0.70084 0.0
H473 H 0.56198 0.80221 0.70266 0.0
C474 C 0.54739 0.80802 0.50484 0.0
C475 C 0.53254 0.78723 0.46346 0.0
C476 C 0.50891 0.7525 0.4702 0.0
C477 C 0.50114 0.73841 0.51737 0.0
C478 C 0.51702 0.75954 0.55729 0.0
C479 C 0.53971 0.79359 0.5514 0.0
C480 C 0.55495 0.81055 0.59973 0.0
C481 C 0.59342 0.82569 0.5995 0.0
C482 C 0.54542 0.83748 0.61224 0.0
C483 C 0.53784 0.78056 0.63379 0.0
C484 C 0.51563 0.75145 0.6088 0.0
C485 C 0.49785 0.72031 0.63239 0.0
C486 C 0.50366 0.71879 0.6825 0.0
C487 C 0.52733 0.74811 0.70801 0.0
C488 C 0.54392 0.77944 0.68365 0.0
H489 H 0.77541 0.57696 0.64479 0.0
H490 H 0.70892 0.47001 0.61814 0.0
H491 H 0.71942 0.45741 0.70265 0.0
H492 H 0.83588 0.56955 0.71923 0.0
H493 H 0.84259 0.60378 0.75916 0.0
H494 H 0.83059 0.60356 0.69636 0.0
H495 H 0.77925 0.60846 0.7249 0.0
H496 H 0.79108 0.60868 0.78777 0.0
H497 H 0.7495 0.57776 0.76719 0.0
H498 H 0.73605 0.45762 0.79226 0.0
H499 H 0.75994 0.4704 0.87637 0.0
H500 H 0.81305 0.57738 0.84213 0.0
C501 C 0.76282 0.5509 0.65689 0.0
C502 C 0.74077 0.52444 0.62574 0.0
C503 C 0.72568 0.49057 0.64198 0.0
C504 C 0.73142 0.48326 0.68979 0.0
C505 C 0.75254 0.51017 0.72027 0.0
C506 C 0.76816 0.54329 0.70417 0.0
C507 C 0.78947 0.56783 0.74364 0.0
C508 C 0.82684 0.58732 0.72869 0.0
C509 C 0.77654 0.5921 0.75664 0.0
C510 C 0.78338 0.54344 0.78476 0.0
C511 C 0.7621 0.51027 0.77086 0.0
C512 C 0.75293 0.4835 0.80336 0.0
C513 C 0.76643 0.49093 0.85094 0.0
C514 C 0.78893 0.52474 0.865 0.0
C515 C 0.79678 0.5512 0.83177 0.0
H516 H 0.24667 0.74296 0.82019 0.0
H517 H 0.14212 0.71663 0.83591 0.0
H518 H 0.14686 0.7157 0.92419 0.0
H519 H 0.25355 0.69997 0.93233 0.0
H520 H 0.2946 0.73492 0.94729 0.0
H521 H 0.2816 0.72566 0.8842 0.0
H522 H 0.29366 0.78699 0.87223 0.0
H523 H 0.30676 0.7964 0.93506 0.0
H524 H 0.27377 0.80317 0.91225 0.0
H525 H 0.16314 0.72322 0.01075 0.0
H526 H 0.19232 0.74592 0.08939 0.0
H527 H 0.28792 0.7742 0.02033 0.0
C528 C 0.22447 0.73593 0.84213 0.0
C529 C 0.19333 0.72749 0.81998 0.0
C530 C 0.1655 0.72037 0.85052 0.0
C531 C 0.16805 0.72029 0.90144 0.0
C532 C 0.19889 0.72842 0.92189 0.0
C533 C 0.22684 0.73671 0.89336 0.0
C534 C 0.25822 0.74989 0.92473 0.0
C535 C 0.27285 0.72619 0.92197 0.0
C536 C 0.28464 0.78626 0.9102 0.0
C537 C 0.24357 0.74872 0.97497 0.0
C538 C 0.20912 0.73539 0.97248 0.0
C539 C 0.19008 0.73356 0.01331 0.0
C540 C 0.20684 0.74678 0.05762 0.0
C541 C 0.24225 0.76216 0.06039 0.0
C542 C 0.26072 0.76214 0.01905 0.0
H543 H 0.45041 0.1691 0.01974 0.0
H544 H 0.52263 0.2645 0.95288 0.0
H545 H 0.53718 0.2912 0.03457 0.0
H546 H 0.41921 0.20461 0.10776 0.0
H547 H 0.41363 0.17476 0.15501 0.0
H548 H 0.41057 0.16275 0.0916 0.0
H549 H 0.45663 0.14663 0.10514 0.0
H550 H 0.46008 0.15892 0.16851 0.0
H551 H 0.4969 0.17757 0.12991 0.0
H552 H 0.54229 0.30806 0.12272 0.0
H553 H 0.53487 0.31489 0.21072 0.0
H554 H 0.45894 0.20865 0.21989 0.0
C555 C 0.4687 0.19575 0.02185 0.0
C556 C 0.48479 0.2149 0.97959 0.0
C557 C 0.50983 0.24937 0.98472 0.0
C558 C 0.51831 0.26475 0.03094 0.0
C559 C 0.50165 0.24524 0.07171 0.0
C560 C 0.47726 0.21155 0.06764 0.0
C561 C 0.46218 0.19658 0.11704 0.0
C562 C 0.42415 0.18395 0.11788 0.0
C563 C 0.4694 0.16825 0.13095 0.0
C564 C 0.48152 0.22734 0.14939 0.0
C565 C 0.50445 0.25502 0.12259 0.0
C566 C 0.52452 0.28654 0.14415 0.0
C567 C 0.52028 0.29012 0.19416 0.0
C568 C 0.49595 0.26243 0.22183 0.0
C569 C 0.47709 0.23045 0.19938 0.0
H570 H 0.28725 0.2549 0.88789 0.0
H571 H 0.32148 0.3298 0.77214 0.0
H572 H 0.33732 0.29462 0.72226 0.0
H573 H 0.35354 0.23966 0.87964 0.0
H574 H 0.329 0.19517 0.8933 0.0
H575 H 0.31576 0.22359 0.91594 0.0
H576 H 0.25763 0.18745 0.87412 0.0
H577 H 0.27082 0.15892 0.85119 0.0
H578 H 0.25569 0.17881 0.80942 0.0
H579 H 0.3556 0.25395 0.68934 0.0
H580 H 0.37612 0.2133 0.67871 0.0
H581 H 0.33025 0.16618 0.81651 0.0
C582 C 0.29725 0.26359 0.85153 0.0
C583 C 0.30284 0.29503 0.8338 0.0
C584 C 0.31675 0.30572 0.78642 0.0
C585 C 0.32574 0.28583 0.75777 0.0
C586 C 0.32059 0.25529 0.77695 0.0
C587 C 0.30658 0.24426 0.8228 0.0
C588 C 0.30666 0.21238 0.83742 0.0
C589 C 0.32748 0.21806 0.88432 0.0
C590 C 0.27055 0.18263 0.84338 0.0
C591 C 0.32368 0.20753 0.79325 0.0
C592 C 0.33115 0.23218 0.75831 0.0
C593 C 0.34925 0.23418 0.71604 0.0
C594 C 0.36067 0.21097 0.71009 0.0
C595 C 0.35402 0.18637 0.7463 0.0
C596 C 0.33474 0.18425 0.78773 0.0
H597 H 0.17034 0.39123 0.91573 0.0
H598 H 0.17767 0.30049 0.92207 0.0
H599 H 0.11675 0.26664 0.93948 0.0
H600 H 0.11888 0.37309 0.01457 0.0
H601 H 0.09384 0.39024 0.99125 0.0
H602 H 0.13612 0.4063 0.96944 0.0
H603 H 0.11445 0.39273 0.8801 0.0
H604 H 0.07198 0.37689 0.90155 0.0
H605 H 0.08192 0.3505 0.86427 0.0
H606 H 0.0583 0.24476 0.9716 0.0
H607 H 1.00584 0.23588 0.01063 0.0
H608 H 0.03514 0.34023 0.98149 0.0
C609 C 0.15872 0.36403 0.91888 0.0
C610 C 0.17851 0.34833 0.9165 0.0
C611 C 0.16282 0.31287 0.92227 0.0
C612 C 0.12824 0.29348 0.93255 0.0
C613 C 0.10962 0.3099 0.93649 0.0
C614 C 0.12421 0.34434 0.92907 0.0
C615 C 0.09952 0.35637 0.94019 0.0
C616 C 0.11289 0.38306 0.9813 0.0
C617 C 0.09149 0.36992 0.89375 0.0
C618 C 0.0692 0.3236 0.95695 0.0
C619 C 0.07548 0.29704 0.95421 0.0
C620 C 0.05274 0.26513 0.97263 0.0
C621 C 0.02307 0.26032 0.99487 0.0
C622 C 0.01618 0.28716 -0.00184 0.0
C623 C 0.03927 0.31899 0.97802 0.0
H624 H 0.78764 0.15494 0.05654 0.0
H625 H 0.88599 0.1718 0.09787 0.0
H626 H 0.86021 0.11287 0.12622 0.0
H627 H 0.74798 0.11244 0.15994 0.0
H628 H 0.70829 0.08243 0.13258 0.0
H629 H 0.73447 0.12267 0.1038 0.0
H630 H 0.73487 0.09279 0.0234 0.0
H631 H 0.70823 0.05229 0.05171 0.0
H632 H 0.74776 0.06148 0.02464 0.0
H633 H 0.82382 0.05693 0.16459 0.0
H634 H 0.77948 0.00686 0.20731 0.0
H635 H 0.70343 0.0253 0.14436 0.0
C636 C 0.80374 0.1457 0.06992 0.0
C637 C 0.83887 0.16779 0.07438 0.0
C638 C 0.85918 0.15515 0.0929 0.0
C639 C 0.84468 0.1217 0.10948 0.0
C640 C 0.80977 0.10109 0.10718 0.0
C641 C 0.7895 0.11241 0.08734 0.0
C642 C 0.75248 0.08665 0.09501 0.0
C643 C 0.73478 0.10196 0.1246 0.0
C644 C 0.73479 0.07246 0.04575 0.0
C645 C 0.75516 0.05986 0.12423 0.0
C646 C 0.78846 0.06851 0.13008 0.0
C647 C 0.79763 0.0495 0.15934 0.0
C648 C 0.77224 0.02118 0.18371 0.0
C649 C 0.73797 0.01198 0.17887 0.0
C650 C 0.72934 0.03126 0.1479 0.0
H651 H 0.68621 0.69677 0.29432 0.0
H652 H 0.78078 0.7715 0.35979 0.0
H653 H 0.77501 0.81705 0.32144 0.0
H654 H 0.69478 0.74544 0.17795 0.0
H655 H 0.65047 0.73172 0.17745 0.0
H656 H 0.66478 0.7046 0.20239 0.0
H657 H 0.63435 0.70094 0.28408 0.0
H658 H 0.62003 0.72796 0.25941 0.0
H659 H 0.64378 0.73939 0.31562 0.0
H660 H 0.75475 0.8543 0.28912 0.0
H661 H 0.72119 0.88036 0.26545 0.0
H662 H 0.64093 0.78304 0.21543 0.0
C663 C 0.70624 0.72267 0.29918 0.0
C664 C 0.73408 0.73053 0.32985 0.0
C665 C 0.75928 0.76481 0.33639 0.0
C666 C 0.75632 0.79091 0.31452 0.0
C667 C 0.72811 0.78244 0.28577 0.0
C668 C 0.7036 0.74916 0.27762 0.0
C669 C 0.67408 0.74718 0.24958 0.0
C670 C 0.67085 0.73129 0.19882 0.0
C671 C 0.64113 0.72773 0.27894 0.0
C672 C 0.68512 0.78444 0.24543 0.0
C673 C 0.71662 0.80433 0.26591 0.0
C674 C 0.73052 0.83912 0.27166 0.0
C675 C 0.71135 0.85381 0.25769 0.0
C676 C 0.67861 0.83383 0.23801 0.0
C677 C 0.66601 0.79894 0.23002 0.0
H678 H 0.9705 0.63857 0.45971 0.0
H679 H 0.02066 0.74733 0.47912 0.0
H680 H 0.97237 0.74792 0.44001 0.0
H681 H 0.92814 0.63513 0.34073 0.0
H682 H 0.89087 0.59628 0.35778 0.0
H683 H 0.93156 0.60528 0.37988 0.0
H684 H 0.90975 0.5972 0.46929 0.0
H685 H 0.86915 0.5881 0.44746 0.0
H686 H 0.89146 0.62166 0.49114 0.0
H687 H 0.91438 0.73503 0.41194 0.0
H688 H 0.85314 0.70986 0.39807 0.0
H689 H 0.84224 0.61023 0.39221 0.0
C690 C 0.9718 0.66267 0.45461 0.0
C691 C 0.99947 0.69292 0.47247 0.0
C692 C 0.99988 0.72384 0.46551 0.0
C693 C 0.97255 0.72442 0.44321 0.0
C694 C 0.9452 0.69396 0.42727 0.0
C695 C 0.94489 0.6637 0.43219 0.0
C696 C 0.91142 0.63408 0.41628 0.0
C697 C 0.91577 0.61667 0.37097 0.0
C698 C 0.89446 0.6088 0.45856 0.0
C699 C 0.89233 0.65213 0.40376 0.0
C700 C 0.91228 0.68672 0.4097 0.0
C701 C 0.89883 0.7081 0.40583 0.0
C702 C 0.86402 0.69363 0.39751 0.0
C703 C 0.8431 0.65816 0.39329 0.0
C704 C 0.85783 0.63749 0.39434 0.0
H705 H 0.24745 0.97998 0.7092 0.0
H706 H 0.3302 0.01938 0.60554 0.0
H707 H 0.29627 0.97099 0.55059 0.0
H708 H 0.22638 0.89703 0.69949 0.0
H709 H 0.18157 0.87956 0.70559 0.0
H710 H 0.21 0.92007 0.73196 0.0
H711 H 0.18072 0.94677 0.68312 0.0
H712 H 0.1523 0.90618 0.65625 0.0
H713 H 0.17725 0.94214 0.61749 0.0
H714 H 0.25731 0.91353 0.5142 0.0
H715 H 0.21742 0.85246 0.50103 0.0
H716 H 0.15933 0.85145 0.6263 0.0
C717 C 0.25815 0.97902 0.67432 0.0
C718 C 0.2915 1.00365 0.66167 0.0
C719 C 0.30469 1.00097 0.61603 0.0
C720 C 0.28552 0.97359 0.58444 0.0
C721 C 0.25304 0.94923 0.59871 0.0
C722 C 0.23939 0.95188 0.64248 0.0
C723 C 0.20548 0.9207 0.65199 0.0
C724 C 0.20592 0.90333 0.70007 0.0
C725 C 0.17727 0.92949 0.65221 0.0
C726 C 0.20273 0.89942 0.60779 0.0
C727 C 0.23018 0.91646 0.57703 0.0
C728 C 0.23522 0.90034 0.53715 0.0
C729 C 0.21238 0.86575 0.52966 0.0
C730 C 0.18487 0.84782 0.56171 0.0
C731 C 0.17939 0.86515 0.60011 0.0
H732 H 0.78794 0.63539 0.09262 0.0
H733 H 0.88754 0.71857 0.05919 0.0
H734 H 0.86273 0.75273 0.03186 0.0
H735 H 0.75082 0.64191 0.98948 0.0
H736 H 0.71063 0.63126 0.01569 0.0
H737 H 0.73599 0.61615 0.04378 0.0
H738 H 0.73494 0.64372 0.12615 0.0
H739 H 0.70904 0.65855 0.09857 0.0
H740 H 0.74805 0.68806 0.12804 0.0
H741 H 0.82717 0.77339 0.99326 0.0
H742 H 0.78363 0.78047 0.95091 0.0
H743 H 0.70623 0.6841 0.00841 0.0
C744 C 0.8045 0.66138 0.08169 0.0
C745 C 0.8397 0.67464 0.07909 0.0
C746 C 0.86065 0.70826 0.06289 0.0
C747 C 0.8467 0.72776 0.04687 0.0
C748 C 0.81175 0.71336 0.04752 0.0
C749 C 0.79089 0.68107 0.06519 0.0
C750 C 0.75411 0.67002 0.05642 0.0
C751 C 0.7369 0.63795 0.02444 0.0
C752 C 0.73544 0.66479 0.1052 0.0
C753 C 0.75757 0.70054 0.02926 0.0
C754 C 0.79104 0.72538 0.02501 0.0
C755 C 0.80086 0.75449 0.9974 0.0
C756 C 0.77595 0.7582 0.97323 0.0
C757 C 0.74152 0.73305 0.97681 0.0
C758 C 0.73226 0.70414 0.00599 0.0
H759 H 0.04886 0.76148 0.10729 0.0
H760 H 0.99637 0.68777 0.22187 0.0
H761 H 0.04453 0.72042 0.2777 0.0
H762 H 0.12832 0.77213 0.13115 0.0
H763 H 0.15114 0.81661 0.11701 0.0
H764 H 0.11103 0.78957 0.08867 0.0
H765 H 0.08897 0.82822 0.12135 0.0
H766 H 0.12906 0.85525 0.15011 0.0
H767 H 0.09099 0.83697 0.18602 0.0
H768 H 0.10166 0.75792 0.31773 0.0
H769 H 0.16216 0.79613 0.33699 0.0
H770 H 0.1761 0.84542 0.19693 0.0
C771 C 0.04707 0.75249 0.14444 0.0
C772 C 0.01864 0.7221 0.16023 0.0
C773 C 0.01776 0.71103 0.20893 0.0
C774 C 0.045 0.72948 0.24096 0.0
C775 C 0.07291 0.75905 0.22387 0.0
C776 C 0.07402 0.77048 0.17669 0.0
C777 C 0.10783 0.80139 0.16572 0.0
C778 C 0.12561 0.79449 0.12314 0.0
C779 C 0.10397 0.83229 0.15519 0.0
C780 C 0.12586 0.80534 0.21375 0.0
C781 C 0.10533 0.78084 0.24708 0.0
C782 C 0.11764 0.77768 0.29235 0.0
C783 C 0.1519 0.79955 0.30321 0.0
C784 C 0.17321 0.8243 0.26911 0.0
C785 C 0.15984 0.82756 0.22434 0.0
H786 H 0.3064 0.04729 0.26123 0.0
H787 H 0.30726 0.98806 0.3846 0.0
H788 H 0.31753 0.03493 0.4406 0.0
H789 H 0.37331 0.12486 0.30189 0.0
H790 H 0.35592 0.14973 0.27867 0.0
H791 H 0.34548 0.1103 0.24974 0.0
H792 H 0.28193 0.08926 0.26231 0.0
H793 H 0.29231 0.12863 0.29173 0.0
H794 H 0.26636 0.08915 0.32296 0.0
H795 H 0.33358 0.09126 0.48201 0.0
H796 H 0.35495 0.15155 0.5035 0.0
H797 H 0.34161 0.17216 0.35322 0.0
C798 C 0.30815 0.04383 0.3001 0.0
C799 C 0.30584 0.01386 0.31849 0.0
C800 C 0.30885 0.01073 0.3696 0.0
C801 C 0.31458 0.0372 0.40173 0.0
C802 C 0.3171 0.06659 0.38222 0.0
C803 C 0.31394 0.06995 0.33249 0.0
C804 C 0.31999 0.1048 0.32001 0.0
C805 C 0.35048 0.1235 0.28557 0.0
C806 C 0.28824 0.10282 0.29796 0.0
C807 C 0.32743 0.12077 0.37034 0.0
C808 C 0.32557 0.09842 0.40596 0.0
C809 C 0.3344 0.1087 0.45457 0.0
C810 C 0.34627 0.14283 0.46661 0.0
C811 C 0.34894 0.16596 0.43022 0.0
C812 C 0.33865 0.15454 0.38192 0.0
H813 H 0.31479 0.32603 0.51975 0.0
H814 H 0.23977 0.24202 0.43382 0.0
H815 H 0.19498 0.24889 0.47205 0.0
H816 H 0.26121 0.31012 0.63189 0.0
H817 H 0.2779 0.35467 0.64236 0.0
H818 H 0.30387 0.34005 0.61428 0.0
H819 H 0.31467 0.37972 0.54034 0.0
H820 H 0.28889 0.39444 0.56825 0.0
H821 H 0.27928 0.37682 0.5074 0.0
H822 H 0.15947 0.26971 0.50909 0.0
H823 H 0.13597 0.30383 0.54145 0.0
H824 H 0.2322 0.373 0.60787 0.0
C825 C 0.28885 0.3085 0.51006 0.0
C826 C 0.28081 0.28334 0.47392 0.0
C827 C 0.24661 0.26145 0.46138 0.0
C828 C 0.22091 0.26502 0.48313 0.0
C829 C 0.22965 0.29051 0.51771 0.0
C830 C 0.26276 0.31182 0.53139 0.0
C831 C 0.26549 0.33922 0.56582 0.0
C832 C 0.27785 0.3358 0.61661 0.0
C833 C 0.28843 0.37463 0.54414 0.0
C834 C 0.229 0.33077 0.56766 0.0
C835 C 0.20873 0.30227 0.54015 0.0
C836 C 0.17486 0.29151 0.53184 0.0
C837 C 0.16161 0.31093 0.55075 0.0
C838 C 0.18209 0.34075 0.57789 0.0
C839 C 0.21588 0.35002 0.58787 0.0
H840 H 0.98114 0.34202 0.70568 0.0
H841 H 0.01909 0.27886 0.6486 0.0
H842 H 0.9698 0.22846 0.68334 0.0
H843 H 0.94276 0.29232 0.81975 0.0
H844 H 0.90735 0.29905 0.81616 0.0
H845 H 0.94786 0.33064 0.79297 0.0
H846 H 0.92107 0.32818 0.70839 0.0
H847 H 0.8806 0.29684 0.73142 0.0
H848 H 0.89757 0.28805 0.6775 0.0
H849 H 0.91261 0.1843 0.7136 0.0
H850 H 0.85228 0.15058 0.73506 0.0
H851 H 0.85244 0.24207 0.77669 0.0
C852 C 0.97954 0.31771 0.70142 0.0
C853 C 1.00413 0.3145 0.67445 0.0
C854 C 1.00071 0.28207 0.6692 0.0
C855 C 0.97283 0.25326 0.68901 0.0
C856 C 0.94872 0.25725 0.71455 0.0
C857 C 0.95194 0.28873 0.72111 0.0
C858 C 0.92116 0.2859 0.74625 0.0
C859 C 0.93034 0.30299 0.79679 0.0
C860 C 0.90411 0.3006 0.71395 0.0
C861 C 0.8995 0.24785 0.75098 0.0
C862 C 0.91601 0.23176 0.73307 0.0
C863 C 0.89976 0.19662 0.72883 0.0
C864 C 0.86552 0.1776 0.74147 0.0
C865 C 0.84789 0.19374 0.75805 0.0
C866 C 0.86554 0.22914 0.76478 0.0
H867 H 0.69223 0.9992 0.86536 0.0
H868 H 0.78359 0.01627 0.79286 0.0
H869 H 0.7778 0.96496 0.83132 0.0
H870 H 0.70371 0.96009 0.98077 0.0
H871 H 0.65926 0.93004 0.98462 0.0
H872 H 0.67361 0.97135 0.95884 0.0
H873 H 0.63992 0.94361 0.87954 0.0
H874 H 0.62558 0.90237 0.90504 0.0
H875 H 0.64726 0.91352 0.84709 0.0
H876 H 0.75736 0.90762 0.86455 0.0
H877 H 0.72362 0.84829 0.89048 0.0
H878 H 0.64686 0.86793 0.94723 0.0
C879 C 0.7116 0.99273 0.85896 0.0
C880 C 0.7385 0.01192 0.82628 0.0
C881 C 0.76282 1.00208 0.81779 0.0
C882 C 0.75985 0.97301 0.8397 0.0
C883 C 0.73252 0.95403 0.87046 0.0
C884 C 0.70893 0.96358 0.88056 0.0
C885 C 0.68011 0.9367 0.91075 0.0
C886 C 0.67913 0.95037 0.96178 0.0
C887 C 0.64624 0.92327 0.88399 0.0
C888 C 0.69039 0.90993 0.91384 0.0
C889 C 0.72099 0.92074 0.89095 0.0
C890 C 0.7339 0.89921 0.8839 0.0
C891 C 0.71463 0.86551 0.89919 0.0
C892 C 0.6828 0.85354 0.92154 0.0
C893 C 0.67124 0.87648 0.9306 0.0
H894 H 0.30499 0.3699 0.11566 0.0
H895 H 0.33113 0.31929 0.00391 0.0
H896 H 0.34379 0.28955 0.0683 0.0
H897 H 0.36965 0.38576 0.19564 0.0
H898 H 0.34548 0.37868 0.25086 0.0
H899 H 0.33417 0.3925 0.19616 0.0
H900 H 0.27374 0.34085 0.20087 0.0
H901 H 0.28484 0.32684 0.25576 0.0
H902 H 0.26784 0.29882 0.20391 0.0
H903 H 0.36036 0.27108 0.14395 0.0
H904 H 0.37817 0.26383 0.22599 0.0
H905 H 0.34041 0.32561 0.28867 0.0
C906 C 0.31293 0.35224 0.10459 0.0
C907 C 0.31725 0.3471 0.05471 0.0
C908 C 0.3276 0.32365 0.04188 0.0
C909 C 0.33478 0.30656 0.07818 0.0
C910 C 0.33107 0.3129 0.12702 0.0
C911 C 0.32009 0.33493 0.14028 0.0
C912 C 0.32043 0.33908 0.1953 0.0
C913 C 0.34383 0.3762 0.21035 0.0
C914 C 0.28458 0.32558 0.21512 0.0
C915 C 0.33451 0.31688 0.21086 0.0
C916 C 0.34017 0.30177 0.17091 0.0
C917 C 0.35552 0.28228 0.17559 0.0
C918 C 0.36575 0.27849 0.22226 0.0
C919 C 0.36055 0.29405 0.26356 0.0
C920 C 0.34411 0.31291 0.25782 0.0
H921 H 0.94187 0.30928 0.27262 0.0
H922 H 0.01542 0.3154 0.16672 0.0
H923 H 0.05681 0.32985 0.23297 0.0
H924 H 0.99737 0.37857 0.34341 0.0
H925 H 0.9784 0.36027 0.40153 0.0
H926 H 0.95328 0.34712 0.34672 0.0
H927 H 0.93578 0.2848 0.36428 0.0
H928 H 0.96077 0.29769 0.41938 0.0
H929 H 0.96783 0.27356 0.37347 0.0
H930 H 0.09175 0.34906 0.30818 0.0
H931 H 0.11776 0.37013 0.38902 0.0
H932 H 0.02159 0.35028 0.44717 0.0
C933 C 0.96646 0.31306 0.26341 0.0
C934 C 0.97534 0.31117 0.21441 0.0
C935 C 1.00796 0.31666 0.20393 0.0
C936 C 0.03165 0.3248 0.24133 0.0
C937 C 0.02224 0.32701 0.28903 0.0
C938 C 0.99038 0.32104 0.30033 0.0
C939 C 0.98732 0.32676 0.35429 0.0
C940 C 0.97859 0.35486 0.3619 0.0
C941 C 0.96139 0.29373 0.37933 0.0
C942 C 0.02278 0.33782 0.37125 0.0
C943 C 0.04241 0.33761 0.33298 0.0
C944 C 0.07658 0.34894 0.3386 0.0
C945 C 0.09119 0.36113 0.38449 0.0
C946 C 0.07167 0.36183 0.42409 0.0
C947 C 0.03691 0.34948 0.41759 0.0
H948 H 0.67441 1.00411 0.37729 0.0
H949 H 0.66887 0.9124 0.43145 0.0
H950 H 0.68984 0.93931 0.51195 0.0
H951 H 0.75005 0.06527 0.44987 0.0
H952 H 0.73302 0.09266 0.46081 0.0
H953 H 0.72275 0.0682 0.40516 0.0
H954 H 0.6592 0.04215 0.42435 0.0
H955 H 0.66926 0.0663 0.48008 0.0
H956 H 0.64295 0.02093 0.48197 0.0
H957 H 0.70521 0.97335 0.58824 0.0
H958 H 0.71408 0.01256 0.6561 0.0
H959 H 0.70843 0.08202 0.55341 0.0
C960 C 0.67869 0.99022 0.40574 0.0
C961 C 0.67023 0.95632 0.39846 0.0
C962 C 0.6751 0.93837 0.43669 0.0
C963 C 0.68721 0.95351 0.48233 0.0
C964 C 0.69431 0.98663 0.48906 0.0
C965 C 0.69041 1.0049 0.45185 0.0
C966 C 0.69662 0.03882 0.47028 0.0
C967 C 0.72745 0.06796 0.44503 0.0
C968 C 0.66513 0.04222 0.46379 0.0
C969 C 0.70361 0.03626 0.52381 0.0
C970 C 0.70264 0.00617 0.53368 0.0
C971 C 0.70651 0.99723 0.58093 0.0
C972 C 0.71139 0.01962 0.61926 0.0
C973 C 0.71206 0.05045 0.61013 0.0
C974 C 0.70843 0.05888 0.5616 0.0
H975 H 0.7128 0.6391 0.60685 0.0
H976 H 0.70484 0.70478 0.49963 0.0
H977 H 0.69484 0.73516 0.56626 0.0
H978 H 0.64737 0.62924 0.68123 0.0
H979 H 0.66704 0.62908 0.73824 0.0
H980 H 0.67779 0.6153 0.68289 0.0
H981 H 0.74077 0.65922 0.69641 0.0
H982 H 0.73029 0.67322 0.75198 0.0
H983 H 0.75354 0.70321 0.7043 0.0
H984 H 0.67962 0.7541 0.64275 0.0
H985 H 0.66048 0.76065 0.72425 0.0
H986 H 0.67878 0.68307 0.78211 0.0
C987 C 0.70955 0.66019 0.59724 0.0
C988 C 0.70961 0.66947 0.54788 0.0
C989 C 0.70495 0.69716 0.53711 0.0
C990 C 0.69937 0.71467 0.57473 0.0
C991 C 0.69884 0.70438 0.62287 0.0
C992 C 0.704 0.67792 0.63428 0.0
C993 C 0.69978 0.67028 0.68861 0.0
C994 C 0.67129 0.63382 0.69828 0.0
C995 C 0.73309 0.67689 0.71168 0.0
C996 C 0.69034 0.69592 0.70583 0.0
C997 C 0.69028 0.71553 0.66733 0.0
C998 C 0.67999 0.73923 0.67327 0.0
C999 C 0.6689 0.74257 0.71955 0.0
C1000 C 0.66813 0.72231 0.75921 0.0
C1001 C 0.67973 0.69927 0.75252 0.0
H1002 H 1.00732 0.67519 0.69912 0.0
H1003 H 0.09884 0.76279 0.7507 0.0
H1004 H 0.07272 0.75788 0.8314 0.0
H1005 H 0.94591 0.68896 0.77467 0.0
H1006 H 0.91987 0.6443 0.78625 0.0
H1007 H 0.94291 0.65873 0.72959 0.0
H1008 H 0.97067 0.62248 0.74677 0.0
H1009 H 0.9481 0.60835 0.80362 0.0
H1010 H 0.9934 0.62853 0.80318 0.0
H1011 H 0.04071 0.7391 0.9088 0.0
H1012 H 1.00394 0.70807 0.97832 0.0
H1013 H 0.93354 0.63137 0.87806 0.0
C1014 C 0.02115 0.69409 0.72688 0.0
C1015 C 0.05474 0.71974 0.71876 0.0
C1016 C 0.07285 0.74326 0.75633 0.0
C1017 C 0.05824 0.7407 0.80217 0.0
C1018 C 0.02551 0.71439 0.80988 0.0
C1019 C 1.007 0.69157 0.77329 0.0
C1020 C 0.97398 0.66328 0.79312 0.0
C1021 C 0.94389 0.66387 0.76951 0.0
C1022 C 0.97142 0.62863 0.78627 0.0
C1023 C 0.9775 0.6732 0.84666 0.0
C1024 C 1.00715 0.70301 0.85535 0.0
C1025 C 0.01708 0.71604 0.9024 0.0
C1026 C 0.9961 0.6981 0.94171 0.0
C1027 C 0.96565 0.66731 0.93378 0.0
C1028 C 0.95626 0.65501 0.88546 0.0
H1029 H 0.33189 0.99212 0.12266 0.0
H1030 H 0.26933 0.89245 0.05977 0.0
H1031 H 0.27436 0.91809 0.97856 0.0
H1032 H 0.30312 0.03842 0.04309 0.0
H1033 H 0.34484 0.07475 0.03857 0.0
H1034 H 0.33243 0.04903 0.093 0.0
H1035 H 0.38373 0.04033 0.08302 0.0
H1036 H 0.39618 0.06593 0.02866 0.0
H1037 H 0.38936 0.02354 0.0263 0.0
H1038 H 0.28949 0.95381 0.90357 0.0
H1039 H 0.31646 0.99683 0.83897 0.0
H1040 H 0.37116 0.07314 0.95 0.0
C1041 C 0.31862 0.97581 0.09197 0.0
C1042 C 0.29997 0.94033 0.09744 0.0
C1043 C 0.28369 0.91968 0.05628 0.0
C1044 C 0.28623 0.93403 0.0101 0.0
C1045 C 0.30531 0.96905 0.00569 0.0
C1046 C 0.32134 0.9897 0.04543 0.0
C1047 C 0.34299 0.02624 0.02986 0.0
C1048 C 0.33006 0.04841 0.05248 0.0
C1049 C 0.38026 0.03978 0.04271 0.0
C1050 C 0.33727 0.0227 0.97508 0.0
C1051 C 0.31496 0.98962 0.96202 0.0
C1052 C 0.30677 0.97988 0.91333 0.0
C1053 C 0.32225 1.00452 0.87689 0.0
C1054 C 0.34601 0.0384 0.88936 0.0
C1055 C 0.35308 0.04754 0.93921 0.0
H1056 H 0.5102 0.64562 0.92733 0.0
H1057 H 0.58197 0.61087 0.91233 0.0
H1058 H 0.53493 0.55155 0.91003 0.0
H1059 H 0.45154 0.57582 0.0073 0.0
H1060 H 0.41514 0.5748 0.9806 0.0
H1061 H 0.45472 0.61394 0.9829 0.0
H1062 H 0.45171 0.62023 0.88904 0.0
H1063 H 0.41254 0.58072 0.88627 0.0
H1064 H 0.44769 0.58693 0.84919 0.0
H1065 H 0.47913 0.49631 0.90027 0.0
H1066 H 0.42004 0.44903 0.90061 0.0
H1067 H 0.38554 0.52008 0.9285 0.0
C1068 C 0.51601 0.62545 0.92463 0.0
C1069 C 0.54967 0.63273 0.92018 0.0
C1070 C 0.55636 0.60576 0.91647 0.0
C1071 C 0.52979 0.57205 0.91459 0.0
C1072 C 0.49678 0.56579 0.91743 0.0
C1073 C 0.4899 0.59173 0.92384 0.0
C1074 C 0.45236 0.57835 0.92707 0.0
C1075 C 0.44289 0.58619 0.97747 0.0
C1076 C 0.44039 0.5924 0.88541 0.0
C1077 C 0.43907 0.54086 0.92067 0.0
C1078 C 0.465 0.5341 0.91433 0.0
C1079 C 0.45868 0.50131 0.90584 0.0
C1080 C 0.42506 0.47466 0.90553 0.0
C1081 C 0.39831 0.48095 0.91453 0.0
C1082 C 0.40553 0.51456 0.92157 0.0
H1083 H 0.87328 0.37409 0.06938 0.0
H1084 H 0.98039 0.41061 0.0602 0.0
H1085 H 0.99191 0.46968 0.06365 0.0
H1086 H 0.8751 0.44153 0.99301 0.0
H1087 H 0.84247 0.44243 0.02856 0.0
H1088 H 0.84343 0.40368 0.02285 0.0
H1089 H 0.8437 0.39948 0.11745 0.0
H1090 H 0.84369 0.4387 0.12345 0.0
H1091 H 0.87638 0.43387 0.15211 0.0
H1092 H 0.99137 0.52475 0.07752 0.0
H1093 H 0.97868 0.57136 0.08297 0.0
H1094 H 0.87185 0.49827 0.0774 0.0
C1095 C 0.89912 0.39457 0.06687 0.0
C1096 C 0.92597 0.38789 0.06425 0.0
C1097 C 0.95946 0.41525 0.06141 0.0
C1098 C 0.96622 0.44883 0.06397 0.0
C1099 C 0.93916 0.45452 0.06845 0.0
C1100 C 0.90623 0.42811 0.06834 0.0
C1101 C 0.88156 0.44083 0.07249 0.0
C1102 C 0.85934 0.43158 0.02649 0.0
C1103 C 0.86008 0.42741 0.11915 0.0
C1104 C 0.9057 0.47853 0.07577 0.0
C1105 C 0.93884 0.48599 0.07419 0.0
C1106 C 0.96551 0.51918 0.07819 0.0
C1107 C 0.95809 0.54546 0.08191 0.0
C1108 C 0.92432 0.53837 0.08077 0.0
C1109 C 0.89791 0.5044 0.07847 0.0
H1110 H 0.50685 0.86667 0.25081 0.0
H1111 H 0.5767 0.97427 0.23708 0.0
H1112 H 0.52872 0.98488 0.23848 0.0
H1113 H 0.44098 0.8648 0.17332 0.0
H1114 H 0.40772 0.83278 0.21023 0.0
H1115 H 0.44768 0.83445 0.20603 0.0
H1116 H 0.45243 0.83783 0.30066 0.0
H1117 H 0.41287 0.83698 0.3051 0.0
H1118 H 0.45016 0.8712 0.3325 0.0
H1119 H 0.47235 0.98336 0.24877 0.0
H1120 H 0.41273 0.96936 0.25245 0.0
H1121 H 0.38082 0.8626 0.25583 0.0
C1122 C 0.51204 0.89245 0.24722 0.0
C1123 C 0.54547 0.91968 0.24375 0.0
C1124 C 0.55125 0.95303 0.23918 0.0
C1125 C 0.52418 0.95928 0.24048 0.0
C1126 C 0.49154 0.93186 0.24567 0.0
C1127 C 0.48542 0.89904 0.24775 0.0
C1128 C 0.44819 0.87383 0.25246 0.0
C1129 C 0.43539 0.85008 0.20785 0.0
C1130 C 0.44048 0.85379 0.30054 0.0
C1131 C 0.43417 0.89752 0.25321 0.0
C1132 C 0.45949 0.93093 0.24993 0.0
C1133 C 0.45237 0.95725 0.25093 0.0
C1134 C 0.41847 0.9491 0.25357 0.0
C1135 C 0.39218 0.91491 0.2545 0.0
C1136 C 0.40037 0.88897 0.25516 0.0
H1137 H 0.51445 0.37484 0.43146 0.0
H1138 H 0.44084 0.4071 0.41567 0.0
H1139 H 0.48712 0.46663 0.40806 0.0
H1140 H 0.57564 0.44835 0.50303 0.0
H1141 H 0.61089 0.44818 0.47418 0.0
H1142 H 0.57164 0.40918 0.48158 0.0
H1143 H 0.57067 0.39835 0.38823 0.0
H1144 H 0.6094 0.43778 0.38033 0.0
H1145 H 0.57252 0.42947 0.34593 0.0
H1146 H 0.54285 0.52247 0.39389 0.0
H1147 H 0.60193 0.56994 0.38971 0.0
H1148 H 0.63746 0.49976 0.41731 0.0
C1149 C 0.50804 0.39452 0.42762 0.0
C1150 C 0.4741 0.38645 0.42444 0.0
C1151 C 0.46669 0.41284 0.419 0.0
C1152 C 0.49283 0.44664 0.41403 0.0
C1153 C 0.52612 0.45353 0.41525 0.0
C1154 C 0.53366 0.4282 0.42322 0.0
C1155 C 0.57124 0.44184 0.42326 0.0
C1156 C 0.58305 0.43659 0.4735 0.0
C1157 C 0.58154 0.4259 0.38198 0.0
C1158 C 0.58386 0.47882 0.41347 0.0
C1159 C 0.55761 0.48521 0.40835 0.0
C1160 C 0.56353 0.51771 0.39827 0.0
C1161 C 0.59712 0.54445 0.39533 0.0
C1162 C 0.6242 0.53847 0.40302 0.0
C1163 C 0.61726 0.50509 0.41118 0.0
H1164 H 0.14794 0.64239 0.57968 0.0
H1165 H 0.04072 0.60453 0.56703 0.0
H1166 H 0.03006 0.54569 0.56976 0.0
H1167 H 0.1489 0.57714 0.50298 0.0
H1168 H 0.18115 0.57625 0.53946 0.0
H1169 H 0.1795 0.61467 0.53478 0.0
H1170 H 0.17716 0.61709 0.62943 0.0
H1171 H 0.17793 0.57822 0.63436 0.0
H1172 H 0.14419 0.58173 0.66218 0.0
H1173 H 0.03153 0.49078 0.58146 0.0
H1174 H 0.04532 0.44489 0.58517 0.0
H1175 H 0.15177 0.51969 0.58557 0.0
C1176 C 0.12224 0.6217 0.57658 0.0
C1177 C 0.09512 0.62792 0.57305 0.0
C1178 C 0.06185 0.60026 0.56914 0.0
C1179 C 0.05558 0.56681 0.57123 0.0
C1180 C 0.08291 0.56158 0.57645 0.0
C1181 C 0.11564 0.58835 0.57774 0.0
C1182 C 0.14073 0.57623 0.58226 0.0
C1183 C 0.16393 0.58668 0.53718 0.0
C1184 C 0.1612 0.58909 0.62989 0.0
C1185 C 0.1171 0.53839 0.58382 0.0
C1186 C 0.0838 0.53035 0.58121 0.0
C1187 C 0.05753 0.49685 0.58307 0.0
C1188 C 0.06558 0.47096 0.58575 0.0
C1189 C 0.0996 0.47875 0.58576 0.0
C1190 C 0.12553 0.51297 0.58569 0.0
H1191 H 0.64059 0.14563 0.75945 0.0
H1192 H 0.60713 0.03857 0.76045 0.0
H1193 H 0.54773 0.02534 0.75674 0.0
H1194 H 0.57144 0.13904 0.83634 0.0
H1195 H 0.56996 0.17241 0.80344 0.0
H1196 H 0.60911 0.17249 0.80861 0.0
H1197 H 0.61462 0.17559 0.71405 0.0
H1198 H 0.57501 0.17454 0.70852 0.0
H1199 H 0.58135 0.14343 0.67724 0.0
H1200 H 0.49203 0.02457 0.74376 0.0
H1201 H 0.44454 0.03589 0.74042 0.0
H1202 H 0.51514 0.14334 0.75344 0.0
C1203 C 0.62069 0.1194 0.76015 0.0
C1204 C 0.62831 0.09308 0.76056 0.0
C1205 C 0.60172 0.05906 0.761 0.0
C1206 C 0.56798 0.05136 0.75825 0.0
C1207 C 0.56137 0.078 0.75598 0.0
C1208 C 0.58701 0.11133 0.75846 0.0
C1209 C 0.57342 0.13539 0.75643 0.0
C1210 C 0.58145 0.15604 0.80404 0.0
C1211 C 0.58691 0.15859 0.71138 0.0
C1212 C 0.53612 0.11049 0.75168 0.0
C1213 C 0.52959 0.0775 0.75065 0.0
C1214 C 0.49688 0.05029 0.74507 0.0
C1215 C 0.47011 0.05694 0.74254 0.0
C1216 C 0.47627 0.09046 0.74641 0.0
C1217 C 0.50976 0.11747 0.75017 0.0
loop_
_geom_bond_atom_site_label_1
_geom_bond_atom_site_label_2
_geom_bond_distance
_geom_bond_site_symmetry_2
_ccdc_geom_bond_type
Co0 O3 1.970 1_556 S
Co0 N17 1.989 . S
Co0 O25 1.967 . S
Co0 O32 1.920 . S
Co1 O4 1.966 . S
Co1 N10 2.022 . S
Co1 N18 1.993 1_554 S
Co1 O26 1.941 1_554 S
C2 O3 1.258 . S
C2 O4 1.263 . S
O3 Co0 1.970 1_554 S
O3 C2 1.258 . S
O4 Co1 1.966 . S
O4 C2 1.263 . S
C5 O6 1.235 . S
C5 O32 1.289 . S
O6 C5 1.235 . S
C7 C9 1.400 . S
C7 N10 1.351 . S
C7 C12 1.501 . S
C8 C9 1.387 . S
C8 N11 1.341 . S
C9 C7 1.400 . S
C9 C8 1.387 . S
N10 Co1 2.022 . S
N10 C7 1.351 . S
N10 N11 1.365 . S
N11 C8 1.341 . S
N11 N10 1.365 . S
N11 H31 0.862 . S
C12 C7 1.501 . S
C12 H13 0.961 . S
C12 H14 0.961 . S
C12 H15 0.960 . S
H13 C12 0.961 . S
H14 C12 0.961 . S
H15 C12 0.960 . S
C16 N17 1.342 . S
C16 C20 1.401 . S
C16 C21 1.499 . S
N17 Co0 1.989 . S
N17 C16 1.342 . S
N17 N18 1.388 . S
N18 Co1 1.993 1_556 S
N18 N17 1.388 . S
N18 C19 1.346 . S
C19 N18 1.346 . S
C19 C20 1.396 . S
C19 C29 1.510 1_556 S
C20 C16 1.401 . S
C20 C19 1.396 . S
C21 C16 1.499 . S
C21 H22 0.959 . S
C21 H23 0.960 . S
C21 H24 0.961 . S
H22 C21 0.959 . S
H23 C21 0.960 . S
H24 C21 0.961 . S
O25 Co0 1.967 . S
O25 C33 1.258 . S
O26 Co1 1.941 1_556 S
O26 C33 1.266 . S
H27 C29 0.959 . S
H28 C29 0.961 . S
C29 C19 1.510 1_554 S
C29 H27 0.959 . S
C29 H28 0.961 . S
C29 H30 0.960 . S
H30 C29 0.960 . S
H31 N11 0.862 . S
O32 Co0 1.920 . S
O32 C5 1.289 . S
C33 O25 1.258 . S
C33 O26 1.266 . S
Co34 O37 1.970 . S
Co34 N51 1.989 . S
Co34 O59 1.967 . S
Co34 O66 1.920 . S
Co35 O38 1.966 . S
Co35 N44 2.022 . S
Co35 N52 1.993 . S
Co35 O60 1.941 . S
C36 O37 1.258 . S
C36 O38 1.263 . S
O37 Co34 1.970 . S
O37 C36 1.258 . S
O38 Co35 1.966 . S
O38 C36 1.263 . S
C39 O40 1.235 . S
C39 O66 1.289 . S
O40 C39 1.235 . S
C41 C43 1.400 . S
C41 N44 1.351 . S
C41 C46 1.501 . S
C42 C43 1.387 . S
C42 N45 1.341 . S
C43 C41 1.400 . S
C43 C42 1.387 . S
N44 Co35 2.022 . S
N44 C41 1.351 . S
N44 N45 1.365 . S
N45 C42 1.341 . S
N45 N44 1.365 . S
N45 H65 0.862 . S
C46 C41 1.501 . S
C46 H47 0.961 . S
C46 H48 0.961 . S
C46 H49 0.960 . S
H47 C46 0.961 . S
H48 C46 0.961 . S
H49 C46 0.960 . S
C50 N51 1.342 . S
C50 C54 1.401 . S
C50 C55 1.499 . S
N51 Co34 1.989 . S
N51 C50 1.342 . S
N51 N52 1.388 . S
N52 Co35 1.993 . S
N52 N51 1.388 . S
N52 C53 1.346 . S
C53 N52 1.346 . S
C53 C54 1.396 . S
C53 C63 1.510 . S
C54 C50 1.401 . S
C54 C53 1.396 . S
C55 C50 1.499 . S
C55 H56 0.959 . S
C55 H57 0.960 . S
C55 H58 0.961 1_554 S
H56 C55 0.959 . S
H57 C55 0.960 . S
H58 C55 0.961 1_556 S
O59 Co34 1.967 . S
O59 C67 1.258 . S
O60 Co35 1.941 . S
O60 C67 1.266 . S
H61 C63 0.959 . S
H62 C63 0.961 . S
C63 C53 1.510 . S
C63 H61 0.959 . S
C63 H62 0.961 . S
C63 H64 0.960 . S
H64 C63 0.960 . S
H65 N45 0.862 . S
O66 Co34 1.920 . S
O66 C39 1.289 . S
C67 O59 1.258 . S
C67 O60 1.266 . S
Co68 O71 1.970 . S
Co68 N85 1.989 . S
Co68 O93 1.967 . S
Co68 O100 1.920 . S
Co69 O72 1.966 . S
Co69 N78 2.022 . S
Co69 N86 1.993 . S
Co69 O94 1.941 . S
C70 O71 1.258 . S
C70 O72 1.263 . S
O71 Co68 1.970 . S
O71 C70 1.258 . S
O72 Co69 1.966 . S
O72 C70 1.263 . S
C73 O74 1.235 . S
C73 O100 1.289 . S
O74 C73 1.235 . S
C75 C77 1.400 . S
C75 N78 1.351 . S
C75 C80 1.501 . S
C76 C77 1.387 . S
C76 N79 1.341 . S
C77 C75 1.400 . S
C77 C76 1.387 . S
N78 Co69 2.022 . S
N78 C75 1.351 . S
N78 N79 1.365 . S
N79 C76 1.341 . S
N79 N78 1.365 . S
N79 H99 0.862 . S
C80 C75 1.501 . S
C80 H81 0.961 . S
C80 H82 0.961 . S
C80 H83 0.960 . S
H81 C80 0.961 . S
H82 C80 0.961 . S
H83 C80 0.960 . S
C84 N85 1.342 . S
C84 C88 1.401 . S
C84 C89 1.499 . S
N85 Co68 1.989 . S
N85 C84 1.342 . S
N85 N86 1.388 . S
N86 Co69 1.993 . S
N86 N85 1.388 . S
N86 C87 1.346 . S
C87 N86 1.346 . S
C87 C88 1.396 . S
C87 C97 1.510 . S
C88 C84 1.401 . S
C88 C87 1.396 . S
C89 C84 1.499 . S
C89 H90 0.959 . S
C89 H91 0.960 . S
C89 H92 0.961 . S
H90 C89 0.959 . S
H91 C89 0.960 . S
H92 C89 0.961 . S
O93 Co68 1.967 . S
O93 C101 1.258 . S
O94 Co69 1.941 . S
O94 C101 1.266 . S
H95 C97 0.959 . S
H96 C97 0.961 . S
C97 C87 1.510 . S
C97 H95 0.959 . S
C97 H96 0.961 . S
C97 H98 0.960 . S
H98 C97 0.960 . S
H99 N79 0.862 . S
O100 Co68 1.920 . S
O100 C73 1.289 . S
C101 O93 1.258 . S
C101 O94 1.266 . S
Co102 O105 1.970 . S
Co102 N119 1.989 . S
Co102 O127 1.967 . S
Co102 O134 1.920 . S
Co103 O106 1.966 . S
Co103 N112 2.022 . S
Co103 N120 1.993 . S
Co103 O128 1.941 . S
C104 O105 1.258 . S
C104 O106 1.263 . S
O105 Co102 1.970 . S
O105 C104 1.258 . S
O106 Co103 1.966 . S
O106 C104 1.263 . S
C107 O108 1.235 . S
C107 O134 1.289 . S
O108 C107 1.235 . S
C109 C111 1.400 . S
C109 N112 1.351 . S
C109 C114 1.501 . S
C110 C111 1.387 . S
C110 N113 1.341 . S
C111 C109 1.400 . S
C111 C110 1.387 . S
N112 Co103 2.022 . S
N112 C109 1.351 . S
N112 N113 1.365 . S
N113 C110 1.341 . S
N113 N112 1.365 . S
N113 H133 0.862 . S
C114 C109 1.501 . S
C114 H115 0.961 . S
C114 H116 0.961 . S
C114 H117 0.960 . S
H115 C114 0.961 . S
H116 C114 0.961 . S
H117 C114 0.960 . S
C118 N119 1.342 . S
C118 C122 1.401 . S
C118 C123 1.499 . S
N119 Co102 1.989 . S
N119 C118 1.342 . S
N119 N120 1.388 . S
N120 Co103 1.993 . S
N120 N119 1.388 . S
N120 C121 1.346 . S
C121 N120 1.346 . S
C121 C122 1.396 . S
C121 C131 1.510 . S
C122 C118 1.401 . S
C122 C121 1.396 . S
C123 C118 1.499 . S
C123 H124 0.959 . S
C123 H125 0.960 . S
C123 H126 0.961 . S
H124 C123 0.959 . S
H125 C123 0.960 . S
H126 C123 0.961 . S
O127 Co102 1.967 . S
O127 C135 1.258 . S
O128 Co103 1.941 . S
O128 C135 1.266 . S
H129 C131 0.959 . S
H130 C131 0.961 . S
C131 C121 1.510 . S
C131 H129 0.959 . S
C131 H130 0.961 . S
C131 H132 0.960 . S
H132 C131 0.960 . S
H133 N113 0.862 . S
O134 Co102 1.920 . S
O134 C107 1.289 . S
C135 O127 1.258 . S
C135 O128 1.266 . S
Co136 O139 1.970 . S
Co136 N153 1.989 . S
Co136 O161 1.967 . S
Co136 O168 1.920 . S
Co137 O140 1.966 . S
Co137 N146 2.022 . S
Co137 N154 1.993 . S
Co137 O162 1.941 . S
C138 O139 1.258 . S
C138 O140 1.263 . S
O139 Co136 1.970 . S
O139 C138 1.258 . S
O140 Co137 1.966 . S
O140 C138 1.263 . S
C141 O142 1.235 . S
C141 O168 1.289 . S
O142 C141 1.235 . S
C143 C145 1.400 . S
C143 N146 1.351 . S
C143 C148 1.501 . S
C144 C145 1.387 . S
C144 N147 1.341 . S
C145 C143 1.400 . S
C145 C144 1.387 . S
N146 Co137 2.022 . S
N146 C143 1.351 . S
N146 N147 1.365 . S
N147 C144 1.341 . S
N147 N146 1.365 . S
N147 H167 0.862 . S
C148 C143 1.501 . S
C148 H149 0.961 . S
C148 H150 0.961 . S
C148 H151 0.960 . S
H149 C148 0.961 . S
H150 C148 0.961 . S
H151 C148 0.960 . S
C152 N153 1.342 . S
C152 C156 1.401 . S
C152 C157 1.499 . S
N153 Co136 1.989 . S
N153 C152 1.342 . S
N153 N154 1.388 . S
N154 Co137 1.993 . S
N154 N153 1.388 . S
N154 C155 1.346 . S
C155 N154 1.346 . S
C155 C156 1.396 . S
C155 C165 1.510 . S
C156 C152 1.401 . S
C156 C155 1.396 . S
C157 C152 1.499 . S
C157 H158 0.959 . S
C157 H159 0.960 . S
C157 H160 0.961 . S
H158 C157 0.959 . S
H159 C157 0.960 . S
H160 C157 0.961 . S
O161 Co136 1.967 . S
O161 C169 1.258 . S
O162 Co137 1.941 . S
O162 C169 1.266 . S
H163 C165 0.959 . S
H164 C165 0.961 . S
C165 C155 1.510 . S
C165 H163 0.959 . S
C165 H164 0.961 . S
C165 H166 0.960 . S
H166 C165 0.960 . S
H167 N147 0.862 . S
O168 Co136 1.920 . S
O168 C141 1.289 . S
C169 O161 1.258 . S
C169 O162 1.266 . S
Co170 O173 1.970 . S
Co170 N187 1.989 . S
Co170 O195 1.967 . S
Co170 O202 1.920 . S
Co171 O174 1.966 . S
Co171 N180 2.022 . S
Co171 N188 1.993 . S
Co171 O196 1.941 . S
C172 O173 1.258 . S
C172 O174 1.263 . S
O173 Co170 1.970 . S
O173 C172 1.258 . S
O174 Co171 1.966 . S
O174 C172 1.263 . S
C175 O176 1.235 . S
C175 O202 1.289 . S
O176 C175 1.235 . S
C177 C179 1.400 . S
C177 N180 1.351 . S
C177 C182 1.501 . S
C178 C179 1.387 . S
C178 N181 1.341 . S
C179 C177 1.400 . S
C179 C178 1.387 . S
N180 Co171 2.022 . S
N180 C177 1.351 . S
N180 N181 1.365 . S
N181 C178 1.341 . S
N181 N180 1.365 . S
N181 H201 0.862 . S
C182 C177 1.501 . S
C182 H183 0.961 . S
C182 H184 0.961 . S
C182 H185 0.960 . S
H183 C182 0.961 . S
H184 C182 0.961 . S
H185 C182 0.960 . S
C186 N187 1.342 . S
C186 C190 1.401 . S
C186 C191 1.499 . S
N187 Co170 1.989 . S
N187 C186 1.342 . S
N187 N188 1.388 . S
N188 Co171 1.993 . S
N188 N187 1.388 . S
N188 C189 1.346 . S
C189 N188 1.346 . S
C189 C190 1.396 . S
C189 C199 1.510 . S
C190 C186 1.401 . S
C190 C189 1.396 . S
C191 C186 1.499 . S
C191 H192 0.959 . S
C191 H193 0.960 . S
C191 H194 0.961 . S
H192 C191 0.959 . S
H193 C191 0.960 . S
H194 C191 0.961 . S
O195 Co170 1.967 . S
O195 C203 1.258 . S
O196 Co171 1.941 . S
O196 C203 1.266 . S
H197 C199 0.959 . S
H198 C199 0.961 . S
C199 C189 1.510 . S
C199 H197 0.959 . S
C199 H198 0.961 . S
C199 H200 0.960 . S
H200 C199 0.960 . S
H201 N181 0.862 . S
O202 Co170 1.920 . S
O202 C175 1.289 . S
C203 O195 1.258 . S
C203 O196 1.266 . S
Co204 O207 1.970 . S
Co204 N221 1.989 . S
Co204 O229 1.967 . S
Co204 O236 1.920 . S
Co205 O208 1.966 . S
Co205 N214 2.022 . S
Co205 N222 1.993 . S
Co205 O230 1.941 . S
C206 O207 1.258 . S
C206 O208 1.263 . S
O207 Co204 1.970 . S
O207 C206 1.258 . S
O208 Co205 1.966 . S
O208 C206 1.263 . S
C209 O210 1.235 . S
C209 O236 1.289 . S
O210 C209 1.235 . S
C211 C213 1.400 . S
C211 N214 1.351 . S
C211 C216 1.501 . S
C212 C213 1.387 . S
C212 N215 1.341 . S
C213 C211 1.400 . S
C213 C212 1.387 . S
N214 Co205 2.022 . S
N214 C211 1.351 . S
N214 N215 1.365 . S
N215 C212 1.341 . S
N215 N214 1.365 . S
N215 H235 0.862 . S
C216 C211 1.501 . S
C216 H217 0.961 . S
C216 H218 0.961 . S
C216 H219 0.960 . S
H217 C216 0.961 . S
H218 C216 0.961 . S
H219 C216 0.960 . S
C220 N221 1.342 . S
C220 C224 1.401 . S
C220 C225 1.499 . S
N221 Co204 1.989 . S
N221 C220 1.342 . S
N221 N222 1.388 . S
N222 Co205 1.993 . S
N222 N221 1.388 . S
N222 C223 1.346 . S
C223 N222 1.346 . S
C223 C224 1.396 . S
C223 C233 1.510 . S
C224 C220 1.401 . S
C224 C223 1.396 . S
C225 C220 1.499 . S
C225 H226 0.959 . S
C225 H227 0.960 . S
C225 H228 0.961 1_556 S
H226 C225 0.959 . S
H227 C225 0.960 . S
H228 C225 0.961 1_554 S
O229 Co204 1.967 . S
O229 C237 1.258 . S
O230 Co205 1.941 . S
O230 C237 1.266 . S
H231 C233 0.959 . S
H232 C233 0.961 . S
C233 C223 1.510 . S
C233 H231 0.959 . S
C233 H232 0.961 . S
C233 H234 0.960 . S
H234 C233 0.960 . S
H235 N215 0.862 . S
O236 Co204 1.920 . S
O236 C209 1.289 . S
C237 O229 1.258 . S
C237 O230 1.266 . S
Co238 O241 1.970 1_554 S
Co238 N255 1.989 . S
Co238 O263 1.967 . S
Co238 O270 1.920 . S
Co239 O242 1.966 . S
Co239 N248 2.022 . S
Co239 N256 1.993 1_556 S
Co239 O264 1.941 1_556 S
C240 O241 1.258 . S
C240 O242 1.263 . S
O241 Co238 1.970 1_556 S
O241 C240 1.258 . S
O242 Co239 1.966 . S
O242 C240 1.263 . S
C243 O244 1.235 . S
C243 O270 1.289 . S
O244 C243 1.235 . S
C245 C247 1.400 . S
C245 N248 1.351 . S
C245 C250 1.501 . S
C246 C247 1.387 . S
C246 N249 1.341 . S
C247 C245 1.400 . S
C247 C246 1.387 . S
N248 Co239 2.022 . S
N248 C245 1.351 . S
N248 N249 1.365 . S
N249 C246 1.341 . S
N249 N248 1.365 . S
N249 H269 0.862 . S
C250 C245 1.501 . S
C250 H251 0.961 . S
C250 H252 0.961 . S
C250 H253 0.960 . S
H251 C250 0.961 . S
H252 C250 0.961 . S
H253 C250 0.960 . S
C254 N255 1.342 . S
C254 C258 1.401 . S
C254 C259 1.499 . S
N255 Co238 1.989 . S
N255 C254 1.342 . S
N255 N256 1.388 . S
N256 Co239 1.993 1_554 S
N256 N255 1.388 . S
N256 C257 1.346 . S
C257 N256 1.346 . S
C257 C258 1.396 . S
C257 C267 1.510 1_554 S
C258 C254 1.401 . S
C258 C257 1.396 . S
C259 C254 1.499 . S
C259 H260 0.959 . S
C259 H261 0.960 . S
C259 H262 0.961 . S
H260 C259 0.959 . S
H261 C259 0.960 . S
H262 C259 0.961 . S
O263 Co238 1.967 . S
O263 C271 1.258 . S
O264 Co239 1.941 1_554 S
O264 C271 1.266 . S
H265 C267 0.959 . S
H266 C267 0.961 . S
C267 C257 1.510 1_556 S
C267 H265 0.959 . S
C267 H266 0.961 . S
C267 H268 0.960 . S
H268 C267 0.960 . S
H269 N249 0.862 . S
O270 Co238 1.920 . S
O270 C243 1.289 . S
C271 O263 1.258 . S
C271 O264 1.266 . S
Co272 O275 1.970 . S
Co272 N289 1.989 . S
Co272 O297 1.967 . S
Co272 O304 1.920 . S
Co273 O276 1.966 . S
Co273 N282 2.022 . S
Co273 N290 1.993 . S
Co273 O298 1.941 . S
C274 O275 1.258 . S
C274 O276 1.263 . S
O275 Co272 1.970 . S
O275 C274 1.258 . S
O276 Co273 1.966 . S
O276 C274 1.263 . S
C277 O278 1.235 . S
C277 O304 1.289 . S
O278 C277 1.235 . S
C279 C281 1.400 . S
C279 N282 1.351 . S
C279 C284 1.501 . S
C280 C281 1.387 . S
C280 N283 1.341 . S
C281 C279 1.400 . S
C281 C280 1.387 . S
N282 Co273 2.022 . S
N282 C279 1.351 . S
N282 N283 1.365 . S
N283 C280 1.341 . S
N283 N282 1.365 . S
N283 H303 0.862 . S
C284 C279 1.501 . S
C284 H285 0.961 . S
C284 H286 0.961 . S
C284 H287 0.960 . S
H285 C284 0.961 . S
H286 C284 0.961 . S
H287 C284 0.960 . S
C288 N289 1.342 . S
C288 C292 1.401 . S
C288 C293 1.499 . S
N289 Co272 1.989 . S
N289 C288 1.342 . S
N289 N290 1.388 . S
N290 Co273 1.993 . S
N290 N289 1.388 . S
N290 C291 1.346 . S
C291 N290 1.346 . S
C291 C292 1.396 . S
C291 C301 1.510 . S
C292 C288 1.401 . S
C292 C291 1.396 . S
C293 C288 1.499 . S
C293 H294 0.959 . S
C293 H295 0.960 . S
C293 H296 0.961 . S
H294 C293 0.959 . S
H295 C293 0.960 . S
H296 C293 0.961 . S
O297 Co272 1.967 . S
O297 C305 1.258 . S
O298 Co273 1.941 . S
O298 C305 1.266 . S
H299 C301 0.959 . S
H300 C301 0.961 . S
C301 C291 1.510 . S
C301 H299 0.959 . S
C301 H300 0.961 . S
C301 H302 0.960 . S
H302 C301 0.960 . S
H303 N283 0.862 . S
O304 Co272 1.920 . S
O304 C277 1.289 . S
C305 O297 1.258 . S
C305 O298 1.266 . S
Co306 O309 1.970 . S
Co306 N323 1.989 . S
Co306 O331 1.967 . S
Co306 O338 1.920 . S
Co307 O310 1.966 . S
Co307 N316 2.022 . S
Co307 N324 1.993 . S
Co307 O332 1.941 . S
C308 O309 1.258 . S
C308 O310 1.263 . S
O309 Co306 1.970 . S
O309 C308 1.258 . S
O310 Co307 1.966 . S
O310 C308 1.263 . S
C311 O312 1.235 . S
C311 O338 1.289 . S
O312 C311 1.235 . S
C313 C315 1.400 . S
C313 N316 1.351 . S
C313 C318 1.501 . S
C314 C315 1.387 . S
C314 N317 1.341 . S
C315 C313 1.400 . S
C315 C314 1.387 . S
N316 Co307 2.022 . S
N316 C313 1.351 . S
N316 N317 1.365 . S
N317 C314 1.341 . S
N317 N316 1.365 . S
N317 H337 0.862 . S
C318 C313 1.501 . S
C318 H319 0.961 . S
C318 H320 0.961 . S
C318 H321 0.960 . S
H319 C318 0.961 . S
H320 C318 0.961 . S
H321 C318 0.960 . S
C322 N323 1.342 . S
C322 C326 1.401 . S
C322 C327 1.499 . S
N323 Co306 1.989 . S
N323 C322 1.342 . S
N323 N324 1.388 . S
N324 Co307 1.993 . S
N324 N323 1.388 . S
N324 C325 1.346 . S
C325 N324 1.346 . S
C325 C326 1.396 . S
C325 C335 1.510 . S
C326 C322 1.401 . S
C326 C325 1.396 . S
C327 C322 1.499 . S
C327 H328 0.959 . S
C327 H329 0.960 . S
C327 H330 0.961 . S
H328 C327 0.959 . S
H329 C327 0.960 . S
H330 C327 0.961 . S
O331 Co306 1.967 . S
O331 C339 1.258 . S
O332 Co307 1.941 . S
O332 C339 1.266 . S
H333 C335 0.959 . S
H334 C335 0.961 . S
C335 C325 1.510 . S
C335 H333 0.959 . S
C335 H334 0.961 . S
C335 H336 0.960 . S
H336 C335 0.960 . S
H337 N317 0.862 . S
O338 Co306 1.920 . S
O338 C311 1.289 . S
C339 O331 1.258 . S
C339 O332 1.266 . S
Co340 O343 1.970 . S
Co340 N357 1.989 . S
Co340 O365 1.967 . S
Co340 O372 1.920 . S
Co341 O344 1.966 . S
Co341 N350 2.022 . S
Co341 N358 1.993 . S
Co341 O366 1.941 . S
C342 O343 1.258 . S
C342 O344 1.263 . S
O343 Co340 1.970 . S
O343 C342 1.258 . S
O344 Co341 1.966 . S
O344 C342 1.263 . S
C345 O346 1.235 . S
C345 O372 1.289 . S
O346 C345 1.235 . S
C347 C349 1.400 . S
C347 N350 1.351 . S
C347 C352 1.501 . S
C348 C349 1.387 . S
C348 N351 1.341 . S
C349 C347 1.400 . S
C349 C348 1.387 . S
N350 Co341 2.022 . S
N350 C347 1.351 . S
N350 N351 1.365 . S
N351 C348 1.341 . S
N351 N350 1.365 . S
N351 H371 0.862 . S
C352 C347 1.501 . S
C352 H353 0.961 . S
C352 H354 0.961 . S
C352 H355 0.960 . S
H353 C352 0.961 . S
H354 C352 0.961 . S
H355 C352 0.960 . S
C356 N357 1.342 . S
C356 C360 1.401 . S
C356 C361 1.499 . S
N357 Co340 1.989 . S
N357 C356 1.342 . S
N357 N358 1.388 . S
N358 Co341 1.993 . S
N358 N357 1.388 . S
N358 C359 1.346 . S
C359 N358 1.346 . S
C359 C360 1.396 . S
C359 C369 1.510 . S
C360 C356 1.401 . S
C360 C359 1.396 . S
C361 C356 1.499 . S
C361 H362 0.959 . S
C361 H363 0.960 . S
C361 H364 0.961 . S
H362 C361 0.959 . S
H363 C361 0.960 . S
H364 C361 0.961 . S
O365 Co340 1.967 . S
O365 C373 1.258 . S
O366 Co341 1.941 . S
O366 C373 1.266 . S
H367 C369 0.959 . S
H368 C369 0.961 . S
C369 C359 1.510 . S
C369 H367 0.959 . S
C369 H368 0.961 . S
C369 H370 0.960 . S
H370 C369 0.960 . S
H371 N351 0.862 . S
O372 Co340 1.920 . S
O372 C345 1.289 . S
C373 O365 1.258 . S
C373 O366 1.266 . S
Co374 O377 1.970 . S
Co374 N391 1.989 . S
Co374 O399 1.967 . S
Co374 O406 1.920 . S
Co375 O378 1.966 . S
Co375 N384 2.022 . S
Co375 N392 1.993 . S
Co375 O400 1.941 . S
C376 O377 1.258 . S
C376 O378 1.263 . S
O377 Co374 1.970 . S
O377 C376 1.258 . S
O378 Co375 1.966 . S
O378 C376 1.263 . S
C379 O380 1.235 . S
C379 O406 1.289 . S
O380 C379 1.235 . S
C381 C383 1.400 . S
C381 N384 1.351 . S
C381 C386 1.501 . S
C382 C383 1.387 . S
C382 N385 1.341 . S
C383 C381 1.400 . S
C383 C382 1.387 . S
N384 Co375 2.022 . S
N384 C381 1.351 . S
N384 N385 1.365 . S
N385 C382 1.341 . S
N385 N384 1.365 . S
N385 H405 0.862 . S
C386 C381 1.501 . S
C386 H387 0.961 . S
C386 H388 0.961 . S
C386 H389 0.960 . S
H387 C386 0.961 . S
H388 C386 0.961 . S
H389 C386 0.960 . S
C390 N391 1.342 . S
C390 C394 1.401 . S
C390 C395 1.499 . S
N391 Co374 1.989 . S
N391 C390 1.342 . S
N391 N392 1.388 . S
N392 Co375 1.993 . S
N392 N391 1.388 . S
N392 C393 1.346 . S
C393 N392 1.346 . S
C393 C394 1.396 . S
C393 C403 1.510 . S
C394 C390 1.401 . S
C394 C393 1.396 . S
C395 C390 1.499 . S
C395 H396 0.959 . S
C395 H397 0.960 . S
C395 H398 0.961 . S
H396 C395 0.959 . S
H397 C395 0.960 . S
H398 C395 0.961 . S
O399 Co374 1.967 . S
O399 C407 1.258 . S
O400 Co375 1.941 . S
O400 C407 1.266 . S
H401 C403 0.959 . S
H402 C403 0.961 . S
C403 C393 1.510 . S
C403 H401 0.959 . S
C403 H402 0.961 . S
C403 H404 0.960 . S
H404 C403 0.960 . S
H405 N385 0.862 . S
O406 Co374 1.920 . S
O406 C379 1.289 . S
C407 O399 1.258 . S
C407 O400 1.266 . S
H408 C420 0.930 . S
H409 C422 0.930 . S
H410 C423 0.930 . S
H411 C427 0.959 . S
H412 C427 0.959 . S
H413 C427 0.961 . S
H414 C428 0.960 . S
H415 C428 0.961 . S
H416 C428 0.959 . S
H417 C431 0.929 . S
H418 C432 0.931 . S
H419 C434 0.930 . S
C420 H408 0.930 . S
C420 C421 1.399 . S
C420 C425 1.399 . S
C421 C420 1.399 . S
C421 C422 1.376 . S
C422 H409 0.930 . S
C422 C421 1.376 . S
C422 C423 1.388 . S
C423 H410 0.930 . S
C423 C422 1.388 . S
C423 C424 1.390 . S
C424 C423 1.390 . S
C424 C425 1.394 . S
C424 C430 1.465 . S
C425 C420 1.399 . S
C425 C424 1.394 . S
C425 C426 1.516 . S
C426 C425 1.516 . S
C426 C427 1.502 . S
C426 C428 1.561 . S
C426 C429 1.526 . S
C427 H411 0.959 . S
C427 H412 0.959 . S
C427 H413 0.961 . S
C427 C426 1.502 . S
C428 H414 0.960 . S
C428 H415 0.961 . S
C428 H416 0.959 . S
C428 C426 1.561 . S
C429 C426 1.526 . S
C429 C430 1.396 . S
C429 C434 1.390 . S
C430 C424 1.465 . S
C430 C429 1.396 . S
C430 C431 1.399 . S
C431 H417 0.929 . S
C431 C430 1.399 . S
C431 C432 1.385 . S
C432 H418 0.931 . S
C432 C431 1.385 . S
C432 C433 1.389 . S
C433 C432 1.389 . S
C433 C434 1.387 . S
C434 H419 0.930 . S
C434 C429 1.390 . S
C434 C433 1.387 . S
H435 C447 0.930 . S
H436 C449 0.930 . S
H437 C450 0.930 . S
H438 C454 0.959 . S
H439 C454 0.959 . S
H440 C454 0.961 . S
H441 C455 0.960 . S
H442 C455 0.961 . S
H443 C455 0.959 . S
H444 C458 0.929 . S
H445 C459 0.931 . S
H446 C461 0.930 . S
C447 H435 0.930 . S
C447 C448 1.399 . S
C447 C452 1.399 . S
C448 C447 1.399 . S
C448 C449 1.376 . S
C449 H436 0.930 . S
C449 C448 1.376 . S
C449 C450 1.388 . S
C450 H437 0.930 . S
C450 C449 1.388 . S
C450 C451 1.390 . S
C451 C450 1.390 . S
C451 C452 1.394 . S
C451 C457 1.465 . S
C452 C447 1.399 . S
C452 C451 1.394 . S
C452 C453 1.516 . S
C453 C452 1.516 . S
C453 C454 1.502 . S
C453 C455 1.561 . S
C453 C456 1.526 . S
C454 H438 0.959 . S
C454 H439 0.959 . S
C454 H440 0.961 . S
C454 C453 1.502 . S
C455 H441 0.960 . S
C455 H442 0.961 . S
C455 H443 0.959 . S
C455 C453 1.561 . S
C456 C453 1.526 . S
C456 C457 1.396 . S
C456 C461 1.390 . S
C457 C451 1.465 . S
C457 C456 1.396 . S
C457 C458 1.399 . S
C458 H444 0.929 . S
C458 C457 1.399 . S
C458 C459 1.385 . S
C459 H445 0.931 . S
C459 C458 1.385 . S
C459 C460 1.389 . S
C460 C459 1.389 . S
C460 C461 1.387 . S
C461 H446 0.930 . S
C461 C456 1.390 . S
C461 C460 1.387 . S
H462 C474 0.930 . S
H463 C476 0.930 . S
H464 C477 0.930 . S
H465 C481 0.959 . S
H466 C481 0.959 . S
H467 C481 0.961 . S
H468 C482 0.960 . S
H469 C482 0.961 . S
H470 C482 0.959 . S
H471 C485 0.929 . S
H472 C486 0.931 . S
H473 C488 0.930 . S
C474 H462 0.930 . S
C474 C475 1.399 . S
C474 C479 1.399 . S
C475 C474 1.399 . S
C475 C476 1.376 . S
C476 H463 0.930 . S
C476 C475 1.376 . S
C476 C477 1.388 . S
C477 H464 0.930 . S
C477 C476 1.388 . S
C477 C478 1.390 . S
C478 C477 1.390 . S
C478 C479 1.394 . S
C478 C484 1.465 . S
C479 C474 1.399 . S
C479 C478 1.394 . S
C479 C480 1.516 . S
C480 C479 1.516 . S
C480 C481 1.502 . S
C480 C482 1.561 . S
C480 C483 1.526 . S
C481 H465 0.959 . S
C481 H466 0.959 . S
C481 H467 0.961 . S
C481 C480 1.502 . S
C482 H468 0.960 . S
C482 H469 0.961 . S
C482 H470 0.959 . S
C482 C480 1.561 . S
C483 C480 1.526 . S
C483 C484 1.396 . S
C483 C488 1.390 . S
C484 C478 1.465 . S
C484 C483 1.396 . S
C484 C485 1.399 . S
C485 H471 0.929 . S
C485 C484 1.399 . S
C485 C486 1.385 . S
C486 H472 0.931 . S
C486 C485 1.385 . S
C486 C487 1.389 . S
C487 C486 1.389 . S
C487 C488 1.387 . S
C488 H473 0.930 . S
C488 C483 1.390 . S
C488 C487 1.387 . S
H489 C501 0.930 . S
H490 C503 0.930 . S
H491 C504 0.930 . S
H492 C508 0.959 . S
H493 C508 0.959 . S
H494 C508 0.961 . S
H495 C509 0.960 . S
H496 C509 0.961 . S
H497 C509 0.959 . S
H498 C512 0.929 . S
H499 C513 0.931 . S
H500 C515 0.930 . S
C501 H489 0.930 . S
C501 C502 1.399 . S
C501 C506 1.399 . S
C502 C501 1.399 . S
C502 C503 1.376 . S
C503 H490 0.930 . S
C503 C502 1.376 . S
C503 C504 1.388 . S
C504 H491 0.930 . S
C504 C503 1.388 . S
C504 C505 1.390 . S
C505 C504 1.390 . S
C505 C506 1.394 . S
C505 C511 1.465 . S
C506 C501 1.399 . S
C506 C505 1.394 . S
C506 C507 1.516 . S
C507 C506 1.516 . S
C507 C508 1.502 . S
C507 C509 1.561 . S
C507 C510 1.526 . S
C508 H492 0.959 . S
C508 H493 0.959 . S
C508 H494 0.961 . S
C508 C507 1.502 . S
C509 H495 0.960 . S
C509 H496 0.961 . S
C509 H497 0.959 . S
C509 C507 1.561 . S
C510 C507 1.526 . S
C510 C511 1.396 . S
C510 C515 1.390 . S
C511 C505 1.465 . S
C511 C510 1.396 . S
C511 C512 1.399 . S
C512 H498 0.929 . S
C512 C511 1.399 . S
C512 C513 1.385 . S
C513 H499 0.931 . S
C513 C512 1.385 . S
C513 C514 1.389 . S
C514 C513 1.389 . S
C514 C515 1.387 . S
C515 H500 0.930 . S
C515 C510 1.390 . S
C515 C514 1.387 . S
H516 C528 0.930 . S
H517 C530 0.930 . S
H518 C531 0.930 . S
H519 C535 0.959 . S
H520 C535 0.959 . S
H521 C535 0.961 . S
H522 C536 0.960 . S
H523 C536 0.961 . S
H524 C536 0.959 . S
H525 C539 0.929 . S
H526 C540 0.931 . S
H527 C542 0.930 . S
C528 H516 0.930 . S
C528 C529 1.399 . S
C528 C533 1.399 . S
C529 C528 1.399 . S
C529 C530 1.376 . S
C530 H517 0.930 . S
C530 C529 1.376 . S
C530 C531 1.388 . S
C531 H518 0.930 . S
C531 C530 1.388 . S
C531 C532 1.390 . S
C532 C531 1.390 . S
C532 C533 1.394 . S
C532 C538 1.465 . S
C533 C528 1.399 . S
C533 C532 1.394 . S
C533 C534 1.516 . S
C534 C533 1.516 . S
C534 C535 1.502 . S
C534 C536 1.561 . S
C534 C537 1.526 . S
C535 H519 0.959 . S
C535 H520 0.959 . S
C535 H521 0.961 . S
C535 C534 1.502 . S
C536 H522 0.960 . S
C536 H523 0.961 . S
C536 H524 0.959 . S
C536 C534 1.561 . S
C537 C534 1.526 . S
C537 C538 1.396 . S
C537 C542 1.390 . S
C538 C532 1.465 . S
C538 C537 1.396 . S
C538 C539 1.399 . S
C539 H525 0.929 . S
C539 C538 1.399 . S
C539 C540 1.385 1_556 S
C540 H526 0.931 . S
C540 C539 1.385 1_554 S
C540 C541 1.389 . S
C541 C540 1.389 . S
C541 C542 1.387 1_554 S
C542 H527 0.930 . S
C542 C537 1.390 . S
C542 C541 1.387 1_556 S
H543 C555 0.930 . S
H544 C557 0.930 . S
H545 C558 0.930 . S
H546 C562 0.959 . S
H547 C562 0.959 . S
H548 C562 0.961 . S
H549 C563 0.960 . S
H550 C563 0.961 . S
H551 C563 0.959 . S
H552 C566 0.929 . S
H553 C567 0.931 . S
H554 C569 0.930 . S
C555 H543 0.930 . S
C555 C556 1.399 1_554 S
C555 C560 1.399 . S
C556 C555 1.399 1_556 S
C556 C557 1.376 . S
C557 H544 0.930 . S
C557 C556 1.376 . S
C557 C558 1.388 1_556 S
C558 H545 0.930 . S
C558 C557 1.388 1_554 S
C558 C559 1.390 . S
C559 C558 1.390 . S
C559 C560 1.394 . S
C559 C565 1.465 . S
C560 C555 1.399 . S
C560 C559 1.394 . S
C560 C561 1.516 . S
C561 C560 1.516 . S
C561 C562 1.502 . S
C561 C563 1.561 . S
C561 C564 1.526 . S
C562 H546 0.959 . S
C562 H547 0.959 . S
C562 H548 0.961 . S
C562 C561 1.502 . S
C563 H549 0.960 . S
C563 H550 0.961 . S
C563 H551 0.959 . S
C563 C561 1.561 . S
C564 C561 1.526 . S
C564 C565 1.396 . S
C564 C569 1.390 . S
C565 C559 1.465 . S
C565 C564 1.396 . S
C565 C566 1.399 . S
C566 H552 0.929 . S
C566 C565 1.399 . S
C566 C567 1.385 . S
C567 H553 0.931 . S
C567 C566 1.385 . S
C567 C568 1.389 . S
C568 C567 1.389 . S
C568 C569 1.387 . S
C569 H554 0.930 . S
C569 C564 1.390 . S
C569 C568 1.387 . S
H570 C582 0.930 . S
H571 C584 0.930 . S
H572 C585 0.930 . S
H573 C589 0.959 . S
H574 C589 0.959 . S
H575 C589 0.961 . S
H576 C590 0.960 . S
H577 C590 0.961 . S
H578 C590 0.959 . S
H579 C593 0.929 . S
H580 C594 0.931 . S
H581 C596 0.930 . S
C582 H570 0.930 . S
C582 C583 1.399 . S
C582 C587 1.399 . S
C583 C582 1.399 . S
C583 C584 1.376 . S
C584 H571 0.930 . S
C584 C583 1.376 . S
C584 C585 1.388 . S
C585 H572 0.930 . S
C585 C584 1.388 . S
C585 C586 1.390 . S
C586 C585 1.390 . S
C586 C587 1.394 . S
C586 C592 1.465 . S
C587 C582 1.399 . S
C587 C586 1.394 . S
C587 C588 1.516 . S
C588 C587 1.516 . S
C588 C589 1.502 . S
C588 C590 1.561 . S
C588 C591 1.526 . S
C589 H573 0.959 . S
C589 H574 0.959 . S
C589 H575 0.961 . S
C589 C588 1.502 . S
C590 H576 0.960 . S
C590 H577 0.961 . S
C590 H578 0.959 . S
C590 C588 1.561 . S
C591 C588 1.526 . S
C591 C592 1.396 . S
C591 C596 1.390 . S
C592 C586 1.465 . S
C592 C591 1.396 . S
C592 C593 1.399 . S
C593 H579 0.929 . S
C593 C592 1.399 . S
C593 C594 1.385 . S
C594 H580 0.931 . S
C594 C593 1.385 . S
C594 C595 1.389 . S
C595 C594 1.389 . S
C595 C596 1.387 . S
C596 H581 0.930 . S
C596 C591 1.390 . S
C596 C595 1.387 . S
H597 C609 0.930 . S
H598 C611 0.930 . S
H599 C612 0.930 . S
H600 C616 0.959 . S
H601 C616 0.959 . S
H602 C616 0.961 . S
H603 C617 0.960 . S
H604 C617 0.961 1_554 S
H605 C617 0.959 . S
H606 C620 0.929 . S
H607 C621 0.931 1_655 S
H608 C623 0.930 . S
C609 H597 0.930 . S
C609 C610 1.399 . S
C609 C614 1.399 . S
C610 C609 1.399 . S
C610 C611 1.376 . S
C611 H598 0.930 . S
C611 C610 1.376 . S
C611 C612 1.388 . S
C612 H599 0.930 . S
C612 C611 1.388 . S
C612 C613 1.390 . S
C613 C612 1.390 . S
C613 C614 1.394 . S
C613 C619 1.465 . S
C614 C609 1.399 . S
C614 C613 1.394 . S
C614 C615 1.516 1_556 S
C615 C614 1.516 1_554 S
C615 C616 1.502 . S
C615 C617 1.561 1_554 S
C615 C618 1.526 1_554 S
C616 H600 0.959 . S
C616 H601 0.959 . S
C616 H602 0.961 . S
C616 C615 1.502 . S
C617 H603 0.960 . S
C617 H604 0.961 1_556 S
C617 H605 0.959 . S
C617 C615 1.561 1_556 S
C618 C615 1.526 1_556 S
C618 C619 1.396 . S
C618 C623 1.390 1_556 S
C619 C613 1.465 . S
C619 C618 1.396 . S
C619 C620 1.399 . S
C620 H606 0.929 . S
C620 C619 1.399 . S
C620 C621 1.385 . S
C621 H607 0.931 1_455 S
C621 C620 1.385 . S
C621 C622 1.389 . S
C622 C621 1.389 . S
C622 C623 1.387 1_556 S
C623 H608 0.930 . S
C623 C618 1.390 1_554 S
C623 C622 1.387 1_554 S
H624 C636 0.930 . S
H625 C638 0.930 . S
H626 C639 0.930 . S
H627 C643 0.959 . S
H628 C643 0.959 . S
H629 C643 0.961 . S
H630 C644 0.960 1_556 S
H631 C644 0.961 . S
H632 C644 0.959 . S
H633 C647 0.929 . S
H634 C648 0.931 . S
H635 C650 0.930 . S
C636 H624 0.930 . S
C636 C637 1.399 . S
C636 C641 1.399 . S
C637 C636 1.399 . S
C637 C638 1.376 . S
C638 H625 0.930 . S
C638 C637 1.376 . S
C638 C639 1.388 . S
C639 H626 0.930 . S
C639 C638 1.388 . S
C639 C640 1.390 . S
C640 C639 1.390 . S
C640 C641 1.394 . S
C640 C646 1.465 . S
C641 C636 1.399 . S
C641 C640 1.394 . S
C641 C642 1.516 . S
C642 C641 1.516 . S
C642 C643 1.502 . S
C642 C644 1.561 . S
C642 C645 1.526 . S
C643 H627 0.959 . S
C643 H628 0.959 . S
C643 H629 0.961 . S
C643 C642 1.502 . S
C644 H630 0.960 1_554 S
C644 H631 0.961 . S
C644 H632 0.959 . S
C644 C642 1.561 . S
C645 C642 1.526 . S
C645 C646 1.396 . S
C645 C650 1.390 . S
C646 C640 1.465 . S
C646 C645 1.396 . S
C646 C647 1.399 . S
C647 H633 0.929 . S
C647 C646 1.399 . S
C647 C648 1.385 . S
C648 H634 0.931 . S
C648 C647 1.385 . S
C648 C649 1.396 . S
C649 C648 1.396 . S
C649 C650 1.399 . S
C650 H635 0.930 . S
C650 C645 1.390 . S
C650 C649 1.399 . S
H651 C663 0.930 . S
H652 C665 0.930 . S
H653 C666 0.930 . S
H654 C670 0.959 . S
H655 C670 0.959 . S
H656 C670 0.961 . S
H657 C671 0.960 . S
H658 C671 0.961 . S
H659 C671 0.959 . S
H660 C674 0.929 . S
H661 C675 0.931 . S
H662 C677 0.930 . S
C663 H651 0.930 . S
C663 C664 1.399 . S
C663 C668 1.399 . S
C664 C663 1.399 . S
C664 C665 1.376 . S
C665 H652 0.930 . S
C665 C664 1.376 . S
C665 C666 1.388 . S
C666 H653 0.930 . S
C666 C665 1.388 . S
C666 C667 1.390 . S
C667 C666 1.390 . S
C667 C668 1.394 . S
C667 C673 1.465 . S
C668 C663 1.399 . S
C668 C667 1.394 . S
C668 C669 1.516 . S
C669 C668 1.516 . S
C669 C670 1.502 . S
C669 C671 1.561 . S
C669 C672 1.526 . S
C670 H654 0.959 . S
C670 H655 0.959 . S
C670 H656 0.961 . S
C670 C669 1.502 . S
C671 H657 0.960 . S
C671 H658 0.961 . S
C671 H659 0.959 . S
C671 C669 1.561 . S
C672 C669 1.526 . S
C672 C673 1.396 . S
C672 C677 1.390 . S
C673 C667 1.465 . S
C673 C672 1.396 . S
C673 C674 1.399 . S
C674 H660 0.929 . S
C674 C673 1.399 . S
C674 C675 1.385 . S
C675 H661 0.931 . S
C675 C674 1.385 . S
C675 C676 1.389 . S
C676 C675 1.389 . S
C676 C677 1.387 . S
C677 H662 0.930 . S
C677 C672 1.390 . S
C677 C676 1.387 . S
H678 C690 0.930 . S
H679 C692 0.930 . S
H680 C693 0.930 . S
H681 C697 0.959 . S
H682 C697 0.959 . S
H683 C697 0.961 . S
H684 C698 0.960 . S
H685 C698 0.961 . S
H686 C698 0.959 . S
H687 C701 0.929 . S
H688 C702 0.931 . S
H689 C704 0.930 . S
C690 H678 0.930 . S
C690 C691 1.399 1_655 S
C690 C695 1.399 . S
C691 C690 1.399 1_455 S
C691 C692 1.376 . S
C692 H679 0.930 . S
C692 C691 1.376 . S
C692 C693 1.388 1_455 S
C693 H680 0.930 . S
C693 C692 1.388 1_655 S
C693 C694 1.390 . S
C694 C693 1.390 . S
C694 C695 1.394 . S
C694 C700 1.465 . S
C695 C690 1.399 . S
C695 C694 1.394 . S
C695 C696 1.516 . S
C696 C695 1.516 . S
C696 C697 1.502 . S
C696 C698 1.561 . S
C696 C699 1.526 . S
C697 H681 0.959 . S
C697 H682 0.959 . S
C697 H683 0.961 . S
C697 C696 1.502 . S
C698 H684 0.960 . S
C698 H685 0.961 . S
C698 H686 0.959 . S
C698 C696 1.561 . S
C699 C696 1.526 . S
C699 C700 1.396 . S
C699 C704 1.390 . S
C700 C694 1.465 . S
C700 C699 1.396 . S
C700 C701 1.399 . S
C701 H687 0.929 . S
C701 C700 1.399 . S
C701 C702 1.385 . S
C702 H688 0.931 . S
C702 C701 1.385 . S
C702 C703 1.389 . S
C703 C702 1.389 . S
C703 C704 1.387 . S
C704 H689 0.930 . S
C704 C699 1.390 . S
C704 C703 1.387 . S
H705 C717 0.930 . S
H706 C719 0.930 . S
H707 C720 0.930 . S
H708 C724 0.959 . S
H709 C724 0.959 . S
H710 C724 0.961 . S
H711 C725 0.960 . S
H712 C725 0.961 . S
H713 C725 0.959 . S
H714 C728 0.929 . S
H715 C729 0.931 . S
H716 C731 0.930 . S
C717 H705 0.930 . S
C717 C718 1.399 1_565 S
C717 C722 1.399 . S
C718 C717 1.399 1_545 S
C718 C719 1.376 . S
C719 H706 0.930 . S
C719 C718 1.376 . S
C719 C720 1.388 1_545 S
C720 H707 0.930 . S
C720 C719 1.388 1_565 S
C720 C721 1.390 . S
C721 C720 1.390 . S
C721 C722 1.394 . S
C721 C727 1.465 . S
C722 C717 1.399 . S
C722 C721 1.394 . S
C722 C723 1.516 . S
C723 C722 1.516 . S
C723 C724 1.502 . S
C723 C725 1.561 . S
C723 C726 1.526 . S
C724 H708 0.959 . S
C724 H709 0.959 . S
C724 H710 0.961 . S
C724 C723 1.502 . S
C725 H711 0.960 . S
C725 H712 0.961 . S
C725 H713 0.959 . S
C725 C723 1.561 . S
C726 C723 1.526 . S
C726 C727 1.396 . S
C726 C731 1.390 . S
C727 C721 1.465 . S
C727 C726 1.396 . S
C727 C728 1.399 . S
C728 H714 0.929 . S
C728 C727 1.399 . S
C728 C729 1.385 . S
C729 H715 0.931 . S
C729 C728 1.385 . S
C729 C730 1.389 . S
C730 C729 1.389 . S
C730 C731 1.387 . S
C731 H716 0.930 . S
C731 C726 1.390 . S
C731 C730 1.387 . S
H732 C744 0.930 . S
H733 C746 0.930 1_556 S
H734 C747 0.930 . S
H735 C751 0.959 . S
H736 C751 0.959 . S
H737 C751 0.961 . S
H738 C752 0.960 . S
H739 C752 0.961 . S
H740 C752 0.959 . S
H741 C755 0.929 . S
H742 C756 0.931 . S
H743 C758 0.930 . S
C744 H732 0.930 . S
C744 C745 1.399 . S
C744 C749 1.399 . S
C745 C744 1.399 . S
C745 C746 1.376 . S
C746 H733 0.930 1_554 S
C746 C745 1.376 . S
C746 C747 1.388 1_554 S
C747 H734 0.930 . S
C747 C746 1.388 1_556 S
C747 C748 1.390 1_556 S
C748 C747 1.390 1_554 S
C748 C749 1.394 . S
C748 C754 1.465 . S
C749 C744 1.399 . S
C749 C748 1.394 . S
C749 C750 1.516 . S
C750 C749 1.516 . S
C750 C751 1.502 . S
C750 C752 1.561 . S
C750 C753 1.526 . S
C751 H735 0.959 . S
C751 H736 0.959 . S
C751 H737 0.961 . S
C751 C750 1.502 . S
C752 H738 0.960 . S
C752 H739 0.961 . S
C752 H740 0.959 . S
C752 C750 1.561 . S
C753 C750 1.526 . S
C753 C754 1.396 . S
C753 C758 1.390 . S
C754 C748 1.465 . S
C754 C753 1.396 . S
C754 C755 1.399 1_554 S
C755 H741 0.929 . S
C755 C754 1.399 1_556 S
C755 C756 1.385 . S
C756 H742 0.931 . S
C756 C755 1.385 . S
C756 C757 1.389 1_556 S
C757 C756 1.389 1_554 S
C757 C758 1.387 . S
C758 H743 0.930 . S
C758 C753 1.390 . S
C758 C757 1.387 . S
H759 C771 0.930 1_655 S
H760 C773 0.930 . S
H761 C774 0.930 . S
H762 C778 0.959 . S
H763 C778 0.959 . S
H764 C778 0.961 . S
H765 C779 0.960 . S
H766 C779 0.961 . S
H767 C779 0.959 . S
H768 C782 0.929 . S
H769 C783 0.931 . S
H770 C785 0.930 . S
C771 H759 0.930 1_455 S
C771 C772 1.399 . S
C771 C776 1.399 . S
C772 C771 1.399 . S
C772 C773 1.376 . S
C773 H760 0.930 . S
C773 C772 1.376 . S
C773 C774 1.388 . S
C774 H761 0.930 . S
C774 C773 1.388 . S
C774 C775 1.390 . S
C775 C774 1.390 . S
C775 C776 1.394 . S
C775 C781 1.465 . S
C776 C771 1.399 . S
C776 C775 1.394 . S
C776 C777 1.516 . S
C777 C776 1.516 . S
C777 C778 1.502 . S
C777 C779 1.561 . S
C777 C780 1.526 . S
C778 H762 0.959 . S
C778 H763 0.959 . S
C778 H764 0.961 . S
C778 C777 1.502 . S
C779 H765 0.960 . S
C779 H766 0.961 . S
C779 H767 0.959 . S
C779 C777 1.561 . S
C780 C777 1.526 . S
C780 C781 1.396 . S
C780 C785 1.390 . S
C781 C775 1.465 . S
C781 C780 1.396 . S
C781 C782 1.399 . S
C782 H768 0.929 . S
C782 C781 1.399 . S
C782 C783 1.385 . S
C783 H769 0.931 . S
C783 C782 1.385 . S
C783 C784 1.389 . S
C784 C783 1.389 . S
C784 C785 1.387 . S
C785 H770 0.930 . S
C785 C780 1.390 . S
C785 C784 1.387 . S
H786 C798 0.930 . S
H787 C800 0.930 . S
H788 C801 0.930 . S
H789 C805 0.959 . S
H790 C805 0.959 . S
H791 C805 0.961 . S
H792 C806 0.960 . S
H793 C806 0.961 . S
H794 C806 0.959 . S
H795 C809 0.929 . S
H796 C810 0.931 . S
H797 C812 0.930 . S
C798 H786 0.930 . S
C798 C799 1.399 1_545 S
C798 C803 1.399 . S
C799 C798 1.399 1_565 S
C799 C800 1.376 . S
C800 H787 0.930 . S
C800 C799 1.376 . S
C800 C801 1.388 1_565 S
C801 H788 0.930 . S
C801 C800 1.388 1_545 S
C801 C802 1.390 . S
C802 C801 1.390 . S
C802 C803 1.394 . S
C802 C808 1.465 . S
C803 C798 1.399 . S
C803 C802 1.394 . S
C803 C804 1.516 . S
C804 C803 1.516 . S
C804 C805 1.502 . S
C804 C806 1.561 . S
C804 C807 1.526 . S
C805 H789 0.959 . S
C805 H790 0.959 . S
C805 H791 0.961 . S
C805 C804 1.502 . S
C806 H792 0.960 . S
C806 H793 0.961 . S
C806 H794 0.959 . S
C806 C804 1.561 . S
C807 C804 1.526 . S
C807 C808 1.396 . S
C807 C812 1.390 . S
C808 C802 1.465 . S
C808 C807 1.396 . S
C808 C809 1.399 . S
C809 H795 0.929 . S
C809 C808 1.399 . S
C809 C810 1.385 . S
C810 H796 0.931 . S
C810 C809 1.385 . S
C810 C811 1.389 . S
C811 C810 1.389 . S
C811 C812 1.387 . S
C812 H797 0.930 . S
C812 C807 1.390 . S
C812 C811 1.387 . S
H813 C825 0.930 . S
H814 C827 0.930 . S
H815 C828 0.930 . S
H816 C832 0.959 . S
H817 C832 0.959 . S
H818 C832 0.961 . S
H819 C833 0.960 . S
H820 C833 0.961 . S
H821 C833 0.959 . S
H822 C836 0.929 . S
H823 C837 0.931 . S
H824 C839 0.930 . S
C825 H813 0.930 . S
C825 C826 1.399 . S
C825 C830 1.399 . S
C826 C825 1.399 . S
C826 C827 1.376 . S
C827 H814 0.930 . S
C827 C826 1.376 . S
C827 C828 1.388 . S
C828 H815 0.930 . S
C828 C827 1.388 . S
C828 C829 1.390 . S
C829 C828 1.390 . S
C829 C830 1.394 . S
C829 C835 1.465 . S
C830 C825 1.399 . S
C830 C829 1.394 . S
C830 C831 1.516 . S
C831 C830 1.516 . S
C831 C832 1.502 . S
C831 C833 1.561 . S
C831 C834 1.526 . S
C832 H816 0.959 . S
C832 H817 0.959 . S
C832 H818 0.961 . S
C832 C831 1.502 . S
C833 H819 0.960 . S
C833 H820 0.961 . S
C833 H821 0.959 . S
C833 C831 1.561 . S
C834 C831 1.526 . S
C834 C835 1.396 . S
C834 C839 1.390 . S
C835 C829 1.465 . S
C835 C834 1.396 . S
C835 C836 1.399 . S
C836 H822 0.929 . S
C836 C835 1.399 . S
C836 C837 1.385 . S
C837 H823 0.931 . S
C837 C836 1.385 . S
C837 C838 1.389 . S
C838 C837 1.389 . S
C838 C839 1.387 . S
C839 H824 0.930 . S
C839 C834 1.390 . S
C839 C838 1.387 . S
H840 C852 0.930 . S
H841 C854 0.930 . S
H842 C855 0.930 . S
H843 C859 0.959 . S
H844 C859 0.959 . S
H845 C859 0.961 . S
H846 C860 0.960 . S
H847 C860 0.961 . S
H848 C860 0.959 . S
H849 C863 0.929 . S
H850 C864 0.931 . S
H851 C866 0.930 . S
C852 H840 0.930 . S
C852 C853 1.399 . S
C852 C857 1.399 . S
C853 C852 1.399 . S
C853 C854 1.376 . S
C854 H841 0.930 . S
C854 C853 1.376 . S
C854 C855 1.388 . S
C855 H842 0.930 . S
C855 C854 1.388 . S
C855 C856 1.390 . S
C856 C855 1.390 . S
C856 C857 1.394 . S
C856 C862 1.465 . S
C857 C852 1.399 . S
C857 C856 1.394 . S
C857 C858 1.516 . S
C858 C857 1.516 . S
C858 C859 1.502 . S
C858 C860 1.561 . S
C858 C861 1.526 . S
C859 H843 0.959 . S
C859 H844 0.959 . S
C859 H845 0.961 . S
C859 C858 1.502 . S
C860 H846 0.960 . S
C860 H847 0.961 . S
C860 H848 0.959 . S
C860 C858 1.561 . S
C861 C858 1.526 . S
C861 C862 1.396 . S
C861 C866 1.390 . S
C862 C856 1.465 . S
C862 C861 1.396 . S
C862 C863 1.399 . S
C863 H849 0.929 . S
C863 C862 1.399 . S
C863 C864 1.385 . S
C864 H850 0.931 . S
C864 C863 1.385 . S
C864 C865 1.389 . S
C865 C864 1.389 . S
C865 C866 1.387 . S
C866 H851 0.930 . S
C866 C861 1.390 . S
C866 C865 1.387 . S
H867 C879 0.933 . S
H868 C881 0.930 . S
H869 C882 0.930 . S
H870 C886 0.959 . S
H871 C886 0.959 . S
H872 C886 0.961 . S
H873 C887 0.960 . S
H874 C887 0.961 1_554 S
H875 C887 0.959 . S
H876 C890 0.929 . S
H877 C891 0.931 . S
H878 C893 0.930 . S
C879 H867 0.933 . S
C879 C880 1.399 . S
C879 C884 1.399 . S
C880 C879 1.399 . S
C880 C881 1.376 . S
C881 H868 0.930 . S
C881 C880 1.376 . S
C881 C882 1.388 . S
C882 H869 0.930 . S
C882 C881 1.388 . S
C882 C883 1.390 . S
C883 C882 1.390 . S
C883 C884 1.394 . S
C883 C889 1.465 . S
C884 C879 1.399 . S
C884 C883 1.394 . S
C884 C885 1.516 . S
C885 C884 1.516 . S
C885 C886 1.502 . S
C885 C887 1.561 . S
C885 C888 1.526 . S
C886 H870 0.959 . S
C886 H871 0.959 . S
C886 H872 0.961 . S
C886 C885 1.502 . S
C887 H873 0.960 . S
C887 H874 0.961 1_556 S
C887 H875 0.959 . S
C887 C885 1.561 . S
C888 C885 1.526 . S
C888 C889 1.396 . S
C888 C893 1.390 . S
C889 C883 1.465 . S
C889 C888 1.396 . S
C889 C890 1.399 . S
C890 H876 0.929 . S
C890 C889 1.399 . S
C890 C891 1.385 . S
C891 H877 0.931 . S
C891 C890 1.385 . S
C891 C892 1.389 . S
C892 C891 1.389 . S
C892 C893 1.387 . S
C893 H878 0.930 . S
C893 C888 1.390 . S
C893 C892 1.387 . S
H894 C906 0.930 . S
H895 C908 0.930 . S
H896 C909 0.930 . S
H897 C913 0.959 . S
H898 C913 0.959 . S
H899 C913 0.961 . S
H900 C914 0.960 . S
H901 C914 0.961 . S
H902 C914 0.959 . S
H903 C917 0.929 . S
H904 C918 0.931 . S
H905 C920 0.930 . S
C906 H894 0.930 . S
C906 C907 1.399 . S
C906 C911 1.399 . S
C907 C906 1.399 . S
C907 C908 1.376 . S
C908 H895 0.930 . S
C908 C907 1.376 . S
C908 C909 1.388 . S
C909 H896 0.930 . S
C909 C908 1.388 . S
C909 C910 1.390 . S
C910 C909 1.390 . S
C910 C911 1.394 . S
C910 C916 1.465 . S
C911 C906 1.399 . S
C911 C910 1.394 . S
C911 C912 1.516 . S
C912 C911 1.516 . S
C912 C913 1.502 . S
C912 C914 1.561 . S
C912 C915 1.526 . S
C913 H897 0.959 . S
C913 H898 0.959 . S
C913 H899 0.961 . S
C913 C912 1.502 . S
C914 H900 0.960 . S
C914 H901 0.961 . S
C914 H902 0.959 . S
C914 C912 1.561 . S
C915 C912 1.526 . S
C915 C916 1.396 . S
C915 C920 1.390 . S
C916 C910 1.465 . S
C916 C915 1.396 . S
C916 C917 1.399 . S
C917 H903 0.929 . S
C917 C916 1.399 . S
C917 C918 1.385 . S
C918 H904 0.931 . S
C918 C917 1.385 . S
C918 C919 1.389 . S
C919 C918 1.389 . S
C919 C920 1.387 . S
C920 H905 0.930 . S
C920 C915 1.390 . S
C920 C919 1.387 . S
H921 C933 0.930 . S
H922 C935 0.930 . S
H923 C936 0.930 . S
H924 C940 0.959 . S
H925 C940 0.959 . S
H926 C940 0.961 . S
H927 C941 0.960 . S
H928 C941 0.961 . S
H929 C941 0.959 1_455 S
H930 C944 0.929 . S
H931 C945 0.931 . S
H932 C947 0.930 . S
C933 H921 0.930 . S
C933 C934 1.399 . S
C933 C938 1.399 . S
C934 C933 1.399 . S
C934 C935 1.376 . S
C935 H922 0.930 . S
C935 C934 1.376 . S
C935 C936 1.388 1_655 S
C936 H923 0.930 . S
C936 C935 1.388 1_455 S
C936 C937 1.390 . S
C937 C936 1.390 . S
C937 C938 1.394 1_455 S
C937 C943 1.465 . S
C938 C933 1.399 . S
C938 C937 1.394 1_655 S
C938 C939 1.516 . S
C939 C938 1.516 . S
C939 C940 1.502 . S
C939 C941 1.561 . S
C939 C942 1.526 1_655 S
C940 H924 0.959 . S
C940 H925 0.959 . S
C940 H926 0.961 . S
C940 C939 1.502 . S
C941 H927 0.960 . S
C941 H928 0.961 . S
C941 H929 0.959 1_655 S
C941 C939 1.561 . S
C942 C939 1.526 1_455 S
C942 C943 1.396 . S
C942 C947 1.390 . S
C943 C937 1.465 . S
C943 C942 1.396 . S
C943 C944 1.399 . S
C944 H930 0.929 . S
C944 C943 1.399 . S
C944 C945 1.385 . S
C945 H931 0.931 . S
C945 C944 1.385 . S
C945 C946 1.389 . S
C946 C945 1.389 . S
C946 C947 1.387 . S
C947 H932 0.930 . S
C947 C942 1.390 . S
C947 C946 1.387 . S
H948 C960 0.930 1_545 S
H949 C962 0.930 . S
H950 C963 0.930 . S
H951 C967 0.959 . S
H952 C967 0.959 . S
H953 C967 0.961 . S
H954 C968 0.960 . S
H955 C968 0.961 . S
H956 C968 0.959 . S
H957 C971 0.929 . S
H958 C972 0.934 . S
H959 C974 0.930 . S
C960 H948 0.930 1_565 S
C960 C961 1.399 . S
C960 C965 1.399 . S
C961 C960 1.399 . S
C961 C962 1.376 . S
C962 H949 0.930 . S
C962 C961 1.376 . S
C962 C963 1.388 . S
C963 H950 0.930 . S
C963 C962 1.388 . S
C963 C964 1.390 . S
C964 C963 1.390 . S
C964 C965 1.394 . S
C964 C970 1.465 . S
C965 C960 1.399 . S
C965 C964 1.394 . S
C965 C966 1.516 1_565 S
C966 C965 1.516 1_545 S
C966 C967 1.502 . S
C966 C968 1.561 . S
C966 C969 1.526 . S
C967 H951 0.959 . S
C967 H952 0.959 . S
C967 H953 0.961 . S
C967 C966 1.502 . S
C968 H954 0.960 . S
C968 H955 0.961 . S
C968 H956 0.959 . S
C968 C966 1.561 . S
C969 C966 1.526 . S
C969 C970 1.396 1_545 S
C969 C974 1.390 . S
C970 C964 1.465 . S
C970 C969 1.396 1_565 S
C970 C971 1.399 . S
C971 H957 0.929 . S
C971 C970 1.399 . S
C971 C972 1.385 1_565 S
C972 H958 0.934 . S
C972 C971 1.385 1_545 S
C972 C973 1.389 . S
C973 C972 1.389 . S
C973 C974 1.387 . S
C974 H959 0.930 . S
C974 C969 1.390 . S
C974 C973 1.387 . S
H975 C987 0.930 . S
H976 C989 0.930 . S
H977 C990 0.930 . S
H978 C994 0.959 . S
H979 C994 0.959 . S
H980 C994 0.961 . S
H981 C995 0.960 . S
H982 C995 0.961 . S
H983 C995 0.959 . S
H984 C998 0.929 . S
H985 C999 0.931 . S
H986 C1001 0.930 . S
C987 H975 0.930 . S
C987 C988 1.399 . S
C987 C992 1.399 . S
C988 C987 1.399 . S
C988 C989 1.376 . S
C989 H976 0.930 . S
C989 C988 1.376 . S
C989 C990 1.388 . S
C990 H977 0.930 . S
C990 C989 1.388 . S
C990 C991 1.390 . S
C991 C990 1.390 . S
C991 C992 1.394 . S
C991 C997 1.465 . S
C992 C987 1.399 . S
C992 C991 1.394 . S
C992 C993 1.516 . S
C993 C992 1.516 . S
C993 C994 1.502 . S
C993 C995 1.561 . S
C993 C996 1.526 . S
C994 H978 0.959 . S
C994 H979 0.959 . S
C994 H980 0.961 . S
C994 C993 1.502 . S
C995 H981 0.960 . S
C995 H982 0.961 . S
C995 H983 0.959 . S
C995 C993 1.561 . S
C996 C993 1.526 . S
C996 C997 1.396 . S
C996 C1001 1.390 . S
C997 C991 1.465 . S
C997 C996 1.396 . S
C997 C998 1.399 . S
C998 H984 0.929 . S
C998 C997 1.399 . S
C998 C999 1.385 . S
C999 H985 0.931 . S
C999 C998 1.385 . S
C999 C1000 1.389 . S
C1000 C999 1.389 . S
C1000 C1001 1.387 . S
C1001 H986 0.930 . S
C1001 C996 1.390 . S
C1001 C1000 1.387 . S
H1002 C1014 0.930 . S
H1003 C1016 0.930 . S
H1004 C1017 0.930 . S
H1005 C1021 0.959 . S
H1006 C1021 0.959 . S
H1007 C1021 0.961 . S
H1008 C1022 0.969 . S
H1009 C1022 0.955 1_655 S
H1010 C1022 0.972 . S
H1011 C1025 0.929 . S
H1012 C1026 0.931 . S
H1013 C1028 0.930 . S
C1014 H1002 0.930 . S
C1014 C1015 1.399 . S
C1014 C1019 1.399 . S
C1015 C1014 1.399 . S
C1015 C1016 1.376 . S
C1016 H1003 0.930 . S
C1016 C1015 1.376 . S
C1016 C1017 1.388 . S
C1017 H1004 0.930 . S
C1017 C1016 1.388 . S
C1017 C1018 1.390 . S
C1018 C1017 1.390 . S
C1018 C1019 1.394 . S
C1018 C1024 1.465 . S
C1019 C1014 1.399 . S
C1019 C1018 1.394 . S
C1019 C1020 1.516 1_455 S
C1020 C1019 1.516 1_655 S
C1020 C1021 1.502 . S
C1020 C1022 1.546 1_655 S
C1020 C1023 1.526 . S
C1021 H1005 0.959 . S
C1021 H1006 0.959 . S
C1021 H1007 0.961 . S
C1021 C1020 1.502 . S
C1022 H1008 0.969 . S
C1022 H1009 0.955 1_455 S
C1022 H1010 0.972 . S
C1022 C1020 1.546 1_455 S
C1023 C1020 1.526 . S
C1023 C1024 1.396 1_655 S
C1023 C1028 1.390 . S
C1024 C1018 1.465 . S
C1024 C1023 1.396 1_455 S
C1024 C1025 1.399 . S
C1025 H1011 0.929 . S
C1025 C1024 1.399 . S
C1025 C1026 1.385 1_455 S
C1026 H1012 0.931 . S
C1026 C1025 1.385 1_655 S
C1026 C1027 1.389 . S
C1027 C1026 1.389 . S
C1027 C1028 1.387 . S
C1028 H1013 0.930 . S
C1028 C1023 1.390 . S
C1028 C1027 1.387 . S
H1029 C1041 0.930 1_545 S
H1030 C1043 0.930 . S
H1031 C1044 0.930 1_556 S
H1032 C1048 0.959 . S
H1033 C1048 0.959 . S
H1034 C1048 0.961 . S
H1035 C1049 0.960 . S
H1036 C1049 0.961 . S
H1037 C1049 0.959 . S
H1038 C1052 0.929 . S
H1039 C1053 0.931 1_565 S
H1040 C1055 0.930 . S
C1041 H1029 0.930 1_565 S
C1041 C1042 1.399 . S
C1041 C1046 1.408 . S
C1042 C1041 1.399 . S
C1042 C1043 1.376 . S
C1043 H1030 0.930 . S
C1043 C1042 1.376 . S
C1043 C1044 1.388 . S
C1044 H1031 0.930 1_554 S
C1044 C1043 1.388 . S
C1044 C1045 1.390 . S
C1045 C1044 1.390 . S
C1045 C1046 1.412 . S
C1045 C1051 1.465 1_554 S
C1046 C1041 1.408 . S
C1046 C1045 1.412 . S
C1046 C1047 1.492 1_565 S
C1047 C1046 1.492 1_545 S
C1047 C1048 1.502 . S
C1047 C1049 1.561 . S
C1047 C1050 1.526 1_554 S
C1048 H1032 0.959 . S
C1048 H1033 0.959 . S
C1048 H1034 0.961 . S
C1048 C1047 1.502 . S
C1049 H1035 0.960 . S
C1049 H1036 0.961 . S
C1049 H1037 0.959 . S
C1049 C1047 1.561 . S
C1050 C1047 1.526 1_556 S
C1050 C1051 1.396 1_545 S
C1050 C1055 1.390 . S
C1051 C1045 1.465 1_556 S
C1051 C1050 1.396 1_565 S
C1051 C1052 1.399 . S
C1052 H1038 0.929 . S
C1052 C1051 1.399 . S
C1052 C1053 1.385 1_565 S
C1053 H1039 0.931 1_545 S
C1053 C1052 1.385 1_545 S
C1053 C1054 1.389 . S
C1054 C1053 1.389 . S
C1054 C1055 1.387 . S
C1055 H1040 0.930 . S
C1055 C1050 1.390 . S
C1055 C1054 1.387 . S
H1056 C1068 0.930 . S
H1057 C1070 0.930 . S
H1058 C1071 0.930 . S
H1059 C1075 0.959 . S
H1060 C1075 0.959 . S
H1061 C1075 0.961 . S
H1062 C1076 0.960 . S
H1063 C1076 0.961 . S
H1064 C1076 0.959 . S
H1065 C1079 0.929 . S
H1066 C1080 0.931 . S
H1067 C1082 0.930 . S
C1068 H1056 0.930 . S
C1068 C1069 1.399 . S
C1068 C1073 1.399 . S
C1069 C1068 1.399 . S
C1069 C1070 1.376 . S
C1070 H1057 0.930 . S
C1070 C1069 1.376 . S
C1070 C1071 1.388 . S
C1071 H1058 0.930 . S
C1071 C1070 1.388 . S
C1071 C1072 1.390 . S
C1072 C1071 1.390 . S
C1072 C1073 1.394 . S
C1072 C1078 1.465 . S
C1073 C1068 1.399 . S
C1073 C1072 1.394 . S
C1073 C1074 1.516 . S
C1074 C1073 1.516 . S
C1074 C1075 1.502 . S
C1074 C1076 1.561 . S
C1074 C1077 1.526 . S
C1075 H1059 0.959 . S
C1075 H1060 0.959 . S
C1075 H1061 0.961 . S
C1075 C1074 1.502 . S
C1076 H1062 0.960 . S
C1076 H1063 0.961 . S
C1076 H1064 0.959 . S
C1076 C1074 1.561 . S
C1077 C1074 1.526 . S
C1077 C1078 1.396 . S
C1077 C1082 1.390 . S
C1078 C1072 1.465 . S
C1078 C1077 1.396 . S
C1078 C1079 1.399 . S
C1079 H1065 0.929 . S
C1079 C1078 1.399 . S
C1079 C1080 1.385 . S
C1080 H1066 0.931 . S
C1080 C1079 1.385 . S
C1080 C1081 1.389 . S
C1081 C1080 1.389 . S
C1081 C1082 1.387 . S
C1082 H1067 0.930 . S
C1082 C1077 1.390 . S
C1082 C1081 1.387 . S
H1083 C1095 0.930 . S
H1084 C1097 0.930 . S
H1085 C1098 0.930 . S
H1086 C1102 0.959 1_554 S
H1087 C1102 0.959 . S
H1088 C1102 0.961 . S
H1089 C1103 0.960 . S
H1090 C1103 0.961 . S
H1091 C1103 0.959 . S
H1092 C1106 0.929 . S
H1093 C1107 0.931 . S
H1094 C1109 0.930 1_556 S
C1095 H1083 0.930 . S
C1095 C1096 1.399 . S
C1095 C1100 1.399 . S
C1096 C1095 1.399 . S
C1096 C1097 1.376 . S
C1097 H1084 0.930 . S
C1097 C1096 1.376 . S
C1097 C1098 1.388 . S
C1098 H1085 0.930 . S
C1098 C1097 1.388 . S
C1098 C1099 1.390 . S
C1099 C1098 1.390 . S
C1099 C1100 1.394 . S
C1099 C1105 1.465 . S
C1100 C1095 1.399 . S
C1100 C1099 1.394 . S
C1100 C1101 1.516 . S
C1101 C1100 1.516 . S
C1101 C1102 1.502 1_554 S
C1101 C1103 1.561 1_554 S
C1101 C1104 1.526 . S
C1102 H1086 0.959 1_556 S
C1102 H1087 0.959 . S
C1102 H1088 0.961 . S
C1102 C1101 1.502 1_556 S
C1103 H1089 0.960 . S
C1103 H1090 0.961 . S
C1103 H1091 0.959 . S
C1103 C1101 1.561 1_556 S
C1104 C1101 1.526 . S
C1104 C1105 1.396 . S
C1104 C1109 1.390 . S
C1105 C1099 1.465 . S
C1105 C1104 1.396 . S
C1105 C1106 1.399 . S
C1106 H1092 0.929 . S
C1106 C1105 1.399 . S
C1106 C1107 1.385 . S
C1107 H1093 0.931 . S
C1107 C1106 1.385 . S
C1107 C1108 1.389 . S
C1108 C1107 1.389 . S
C1108 C1109 1.387 . S
C1109 H1094 0.930 1_554 S
C1109 C1104 1.390 . S
C1109 C1108 1.387 . S
H1110 C1122 0.930 . S
H1111 C1124 0.930 . S
H1112 C1125 0.930 . S
H1113 C1129 0.959 . S
H1114 C1129 0.959 . S
H1115 C1129 0.961 . S
H1116 C1130 0.960 . S
H1117 C1130 0.961 . S
H1118 C1130 0.959 . S
H1119 C1133 0.929 . S
H1120 C1134 0.931 . S
H1121 C1136 0.930 . S
C1122 H1110 0.930 . S
C1122 C1123 1.399 . S
C1122 C1127 1.399 . S
C1123 C1122 1.399 . S
C1123 C1124 1.376 . S
C1124 H1111 0.930 . S
C1124 C1123 1.376 . S
C1124 C1125 1.388 . S
C1125 H1112 0.930 . S
C1125 C1124 1.388 . S
C1125 C1126 1.390 . S
C1126 C1125 1.390 . S
C1126 C1127 1.394 . S
C1126 C1132 1.465 . S
C1127 C1122 1.399 . S
C1127 C1126 1.394 . S
C1127 C1128 1.516 . S
C1128 C1127 1.516 . S
C1128 C1129 1.502 . S
C1128 C1130 1.561 . S
C1128 C1131 1.526 . S
C1129 H1113 0.959 . S
C1129 H1114 0.959 . S
C1129 H1115 0.961 . S
C1129 C1128 1.502 . S
C1130 H1116 0.960 . S
C1130 H1117 0.961 . S
C1130 H1118 0.959 . S
C1130 C1128 1.561 . S
C1131 C1128 1.526 . S
C1131 C1132 1.396 . S
C1131 C1136 1.390 . S
C1132 C1126 1.465 . S
C1132 C1131 1.396 . S
C1132 C1133 1.399 . S
C1133 H1119 0.929 . S
C1133 C1132 1.399 . S
C1133 C1134 1.385 . S
C1134 H1120 0.931 . S
C1134 C1133 1.385 . S
C1134 C1135 1.389 . S
C1135 C1134 1.389 . S
C1135 C1136 1.387 . S
C1136 H1121 0.930 . S
C1136 C1131 1.390 . S
C1136 C1135 1.387 . S
H1137 C1149 0.930 . S
H1138 C1151 0.930 . S
H1139 C1152 0.930 . S
H1140 C1156 0.959 . S
H1141 C1156 0.959 . S
H1142 C1156 0.961 . S
H1143 C1157 0.960 . S
H1144 C1157 0.961 . S
H1145 C1157 0.959 . S
H1146 C1160 0.929 . S
H1147 C1161 0.931 . S
H1148 C1163 0.930 . S
C1149 H1137 0.930 . S
C1149 C1150 1.399 . S
C1149 C1154 1.399 . S
C1150 C1149 1.399 . S
C1150 C1151 1.376 . S
C1151 H1138 0.930 . S
C1151 C1150 1.376 . S
C1151 C1152 1.388 . S
C1152 H1139 0.930 . S
C1152 C1151 1.388 . S
C1152 C1153 1.390 . S
C1153 C1152 1.390 . S
C1153 C1154 1.394 . S
C1153 C1159 1.465 . S
C1154 C1149 1.399 . S
C1154 C1153 1.394 . S
C1154 C1155 1.516 . S
C1155 C1154 1.516 . S
C1155 C1156 1.502 . S
C1155 C1157 1.561 . S
C1155 C1158 1.526 . S
C1156 H1140 0.959 . S
C1156 H1141 0.959 . S
C1156 H1142 0.961 . S
C1156 C1155 1.502 . S
C1157 H1143 0.960 . S
C1157 H1144 0.961 . S
C1157 H1145 0.959 . S
C1157 C1155 1.561 . S
C1158 C1155 1.526 . S
C1158 C1159 1.396 . S
C1158 C1163 1.390 . S
C1159 C1153 1.465 . S
C1159 C1158 1.396 . S
C1159 C1160 1.399 . S
C1160 H1146 0.929 . S
C1160 C1159 1.399 . S
C1160 C1161 1.385 . S
C1161 H1147 0.931 . S
C1161 C1160 1.385 . S
C1161 C1162 1.389 . S
C1162 C1161 1.389 . S
C1162 C1163 1.387 . S
C1163 H1148 0.930 . S
C1163 C1158 1.390 . S
C1163 C1162 1.387 . S
H1164 C1176 0.930 . S
H1165 C1178 0.930 . S
H1166 C1179 0.930 . S
H1167 C1183 0.959 . S
H1168 C1183 0.959 . S
H1169 C1183 0.961 . S
H1170 C1184 0.960 . S
H1171 C1184 0.961 . S
H1172 C1184 0.959 . S
H1173 C1187 0.929 . S
H1174 C1188 0.931 . S
H1175 C1190 0.930 . S
C1176 H1164 0.930 . S
C1176 C1177 1.399 . S
C1176 C1181 1.399 . S
C1177 C1176 1.399 . S
C1177 C1178 1.376 . S
C1178 H1165 0.930 . S
C1178 C1177 1.376 . S
C1178 C1179 1.388 . S
C1179 H1166 0.930 . S
C1179 C1178 1.388 . S
C1179 C1180 1.390 . S
C1180 C1179 1.390 . S
C1180 C1181 1.394 . S
C1180 C1186 1.465 . S
C1181 C1176 1.399 . S
C1181 C1180 1.394 . S
C1181 C1182 1.516 . S
C1182 C1181 1.516 . S
C1182 C1183 1.502 . S
C1182 C1184 1.561 . S
C1182 C1185 1.526 . S
C1183 H1167 0.959 . S
C1183 H1168 0.959 . S
C1183 H1169 0.961 . S
C1183 C1182 1.502 . S
C1184 H1170 0.960 . S
C1184 H1171 0.961 . S
C1184 H1172 0.959 . S
C1184 C1182 1.561 . S
C1185 C1182 1.526 . S
C1185 C1186 1.396 . S
C1185 C1190 1.390 . S
C1186 C1180 1.465 . S
C1186 C1185 1.396 . S
C1186 C1187 1.399 . S
C1187 H1173 0.929 . S
C1187 C1186 1.399 . S
C1187 C1188 1.385 . S
C1188 H1174 0.931 . S
C1188 C1187 1.385 . S
C1188 C1189 1.389 . S
C1189 C1188 1.389 . S
C1189 C1190 1.387 . S
C1190 H1175 0.930 . S
C1190 C1185 1.390 . S
C1190 C1189 1.387 . S
H1191 C1203 0.930 . S
H1192 C1205 0.930 . S
H1193 C1206 0.930 . S
H1194 C1210 0.959 . S
H1195 C1210 0.959 . S
H1196 C1210 0.961 . S
H1197 C1211 0.960 . S
H1198 C1211 0.961 . S
H1199 C1211 0.959 . S
H1200 C1214 0.929 . S
H1201 C1215 0.931 . S
H1202 C1217 0.930 . S
C1203 H1191 0.930 . S
C1203 C1204 1.399 . S
C1203 C1208 1.399 . S
C1204 C1203 1.399 . S
C1204 C1205 1.376 . S
C1205 H1192 0.930 . S
C1205 C1204 1.376 . S
C1205 C1206 1.388 . S
C1206 H1193 0.930 . S
C1206 C1205 1.388 . S
C1206 C1207 1.390 . S
C1207 C1206 1.390 . S
C1207 C1208 1.394 . S
C1207 C1213 1.465 . S
C1208 C1203 1.399 . S
C1208 C1207 1.394 . S
C1208 C1209 1.516 . S
C1209 C1208 1.516 . S
C1209 C1210 1.502 . S
C1209 C1211 1.561 . S
C1209 C1212 1.526 . S
C1210 H1194 0.959 . S
C1210 H1195 0.959 . S
C1210 H1196 0.961 . S
C1210 C1209 1.502 . S
C1211 H1197 0.960 . S
C1211 H1198 0.961 . S
C1211 H1199 0.959 . S
C1211 C1209 1.561 . S
C1212 C1209 1.526 . S
C1212 C1213 1.396 . S
C1212 C1217 1.390 . S
C1213 C1207 1.465 . S
C1213 C1212 1.396 . S
C1213 C1214 1.399 . S
C1214 H1200 0.929 . S
C1214 C1213 1.399 . S
C1214 C1215 1.385 . S
C1215 H1201 0.931 . S
C1215 C1214 1.385 . S
C1215 C1216 1.389 . S
C1216 C1215 1.389 . S
C1216 C1217 1.387 . S
C1217 H1202 0.930 . S
C1217 C1212 1.390 . S
C1217 C1216 1.387 . S
C421 C349 0.380 . S
C433 C9 0.335 . S
C448 C43 0.539 . S
C460 C383 0.511 . S
C475 C77 0.497 . S
C487 C213 0.491 . S
C502 C111 0.228 . S
C514 C247 0.244 . S
C529 C145 0.538 . S
C541 C281 0.539 . S
C556 C179 0.461 . S
C568 C315 0.447 . S
C583 C5 1.813 . S
C595 C190 1.805 . S
C610 C20 1.848 . S
C622 C39 1.786 1_456 S
C637 C54 1.838 . S
C649 C73 1.775 1_545 S
C664 C107 1.759 . S
C676 C88 1.808 . S
C691 C141 1.970 . S
C703 C122 2.015 . S
C718 C175 1.909 . S
C730 C156 1.910 . S
C745 C258 1.804 . S
C757 C209 1.724 1_554 S
C772 C243 1.784 1_455 S
C784 C292 1.752 . S
C799 C277 1.900 . S
C811 C326 1.910 . S
C826 C311 1.935 . S
C838 C360 1.983 . S
C853 C345 1.763 1_655 S
C865 C394 1.808 . S
C880 C379 1.807 1_565 S
C892 C224 1.833 . S
C907 C2 1.368 . S
C919 C308 1.355 . S
C934 C36 1.684 . S
C946 C342 1.654 . S
C961 C70 1.567 . S
C973 C376 1.596 . S
C988 C104 1.646 . S
C1000 C206 1.644 . S
C1015 C138 1.314 . S
C1027 C240 1.346 . S
C1042 C274 1.460 . S
C1054 C172 1.506 . S
C1069 C237 1.103 . S
C1081 C33 1.095 . S
C1096 C67 1.089 . S
C1108 C271 1.146 . S
C1123 C101 1.215 . S
C1135 C305 1.134 . S
C1150 C339 1.237 . S
C1162 C135 1.320 . S
C1177 C169 1.302 . S
C1189 C373 1.226 . S
C1204 C407 1.133 . S
C1216 C203 1.184 . S
