# Generated by pormake.
# Topology vck, (7)-cn, num edge types: 1
# Building blocks:
#     Node 0, Type 0, BuildingBlock: NUHQUE_clean_sbu_2, # of connection points: 7
#     Node 1, Type 0, BuildingBlock: NUHQUE_clean_sbu_2, # of connection points: 7
#     Node 2, Type 0, BuildingBlock: NUHQUE_clean_sbu_2, # of connection points: 7
#     Node 3, Type 0, BuildingBlock: NUHQUE_clean_sbu_2, # of connection points: 7
#     Node 4, Type 0, BuildingBlock: NUHQUE_clean_sbu_2, # of connection points: 7
#     Node 5, Type 0, BuildingBlock: NUHQUE_clean_sbu_2, # of connection points: 7
#     Node 6, Type 0, BuildingBlock: NUHQUE_clean_sbu_2, # of connection points: 7
#     Node 7, Type 0, BuildingBlock: NUHQUE_clean_sbu_2, # of connection points: 7
#     Node 8, Type 0, BuildingBlock: NUHQUE_clean_sbu_2, # of connection points: 7
#     Node 9, Type 0, BuildingBlock: NUHQUE_clean_sbu_2, # of connection points: 7
#     Node 10, Type 0, BuildingBlock: NUHQUE_clean_sbu_2, # of connection points: 7
#     Node 11, Type 0, BuildingBlock: NUHQUE_clean_sbu_2, # of connection points: 7
#     Node 12, Type 0, BuildingBlock: NUHQUE_clean_sbu_2, # of connection points: 7
#     Node 13, Type 0, BuildingBlock: NUHQUE_clean_sbu_2, # of connection points: 7
#     Node 14, Type 0, BuildingBlock: NUHQUE_clean_sbu_2, # of connection points: 7
#     Node 15, Type 0, BuildingBlock: NUHQUE_clean_sbu_2, # of connection points: 7
#     Edge 16, Type (0, 0), BuildingBlock: AJUNOK_clean_linker_0, # of connection points: 2
#     Edge 17, Type (0, 0), BuildingBlock: AJUNOK_clean_linker_0, # of connection points: 2
#     Edge 18, Type (0, 0), BuildingBlock: AJUNOK_clean_linker_0, # of connection points: 2
#     Edge 19, Type (0, 0), BuildingBlock: AJUNOK_clean_linker_0, # of connection points: 2
#     Edge 20, Type (0, 0), BuildingBlock: AJUNOK_clean_linker_0, # of connection points: 2
#     Edge 21, Type (0, 0), BuildingBlock: AJUNOK_clean_linker_0, # of connection points: 2
#     Edge 22, Type (0, 0), BuildingBlock: AJUNOK_clean_linker_0, # of connection points: 2
#     Edge 23, Type (0, 0), BuildingBlock: AJUNOK_clean_linker_0, # of connection points: 2
#     Edge 24, Type (0, 0), BuildingBlock: AJUNOK_clean_linker_0, # of connection points: 2
#     Edge 25, Type (0, 0), BuildingBlock: AJUNOK_clean_linker_0, # of connection points: 2
#     Edge 26, Type (0, 0), BuildingBlock: AJUNOK_clean_linker_0, # of connection points: 2
#     Edge 27, Type (0, 0), BuildingBlock: AJUNOK_clean_linker_0, # of connection points: 2
#     Edge 28, Type (0, 0), BuildingBlock: AJUNOK_clean_linker_0, # of connection points: 2
#     Edge 29, Type (0, 0), BuildingBlock: AJUNOK_clean_linker_0, # of connection points: 2
#     Edge 30, Type (0, 0), BuildingBlock: AJUNOK_clean_linker_0, # of connection points: 2
#     Edge 31, Type (0, 0), BuildingBlock: AJUNOK_clean_linker_0, # of connection points: 2
#     Edge 32, Type (0, 0), BuildingBlock: AJUNOK_clean_linker_0, # of connection points: 2
#     Edge 33, Type (0, 0), BuildingBlock: AJUNOK_clean_linker_0, # of connection points: 2
#     Edge 34, Type (0, 0), BuildingBlock: AJUNOK_clean_linker_0, # of connection points: 2
#     Edge 35, Type (0, 0), BuildingBlock: AJUNOK_clean_linker_0, # of connection points: 2
#     Edge 36, Type (0, 0), BuildingBlock: AJUNOK_clean_linker_0, # of connection points: 2
#     Edge 37, Type (0, 0), BuildingBlock: AJUNOK_clean_linker_0, # of connection points: 2
#     Edge 38, Type (0, 0), BuildingBlock: AJUNOK_clean_linker_0, # of connection points: 2
#     Edge 39, Type (0, 0), BuildingBlock: AJUNOK_clean_linker_0, # of connection points: 2
#     Edge 40, Type (0, 0), BuildingBlock: AJUNOK_clean_linker_0, # of connection points: 2
#     Edge 41, Type (0, 0), BuildingBlock: AJUNOK_clean_linker_0, # of connection points: 2
#     Edge 42, Type (0, 0), BuildingBlock: AJUNOK_clean_linker_0, # of connection points: 2
#     Edge 43, Type (0, 0), BuildingBlock: AJUNOK_clean_linker_0, # of connection points: 2
#     Edge 44, Type (0, 0), BuildingBlock: AJUNOK_clean_linker_0, # of connection points: 2
#     Edge 45, Type (0, 0), BuildingBlock: AJUNOK_clean_linker_0, # of connection points: 2
#     Edge 46, Type (0, 0), BuildingBlock: AJUNOK_clean_linker_0, # of connection points: 2
#     Edge 47, Type (0, 0), BuildingBlock: AJUNOK_clean_linker_0, # of connection points: 2
#     Edge 48, Type (0, 0), BuildingBlock: AJUNOK_clean_linker_0, # of connection points: 2
#     Edge 49, Type (0, 0), BuildingBlock: AJUNOK_clean_linker_0, # of connection points: 2
#     Edge 50, Type (0, 0), BuildingBlock: AJUNOK_clean_linker_0, # of connection points: 2
#     Edge 51, Type (0, 0), BuildingBlock: AJUNOK_clean_linker_0, # of connection points: 2
#     Edge 52, Type (0, 0), BuildingBlock: AJUNOK_clean_linker_0, # of connection points: 2
#     Edge 53, Type (0, 0), BuildingBlock: AJUNOK_clean_linker_0, # of connection points: 2
#     Edge 54, Type (0, 0), BuildingBlock: AJUNOK_clean_linker_0, # of connection points: 2
#     Edge 55, Type (0, 0), BuildingBlock: AJUNOK_clean_linker_0, # of connection points: 2
#     Edge 56, Type (0, 0), BuildingBlock: AJUNOK_clean_linker_0, # of connection points: 2
#     Edge 57, Type (0, 0), BuildingBlock: AJUNOK_clean_linker_0, # of connection points: 2
#     Edge 58, Type (0, 0), BuildingBlock: AJUNOK_clean_linker_0, # of connection points: 2
#     Edge 59, Type (0, 0), BuildingBlock: AJUNOK_clean_linker_0, # of connection points: 2
#     Edge 60, Type (0, 0), BuildingBlock: AJUNOK_clean_linker_0, # of connection points: 2
#     Edge 61, Type (0, 0), BuildingBlock: AJUNOK_clean_linker_0, # of connection points: 2
#     Edge 62, Type (0, 0), BuildingBlock: AJUNOK_clean_linker_0, # of connection points: 2
#     Edge 63, Type (0, 0), BuildingBlock: AJUNOK_clean_linker_0, # of connection points: 2
#     Edge 64, Type (0, 0), BuildingBlock: AJUNOK_clean_linker_0, # of connection points: 2
#     Edge 65, Type (0, 0), BuildingBlock: AJUNOK_clean_linker_0, # of connection points: 2
#     Edge 66, Type (0, 0), BuildingBlock: AJUNOK_clean_linker_0, # of connection points: 2
#     Edge 67, Type (0, 0), BuildingBlock: AJUNOK_clean_linker_0, # of connection points: 2
#     Edge 68, Type (0, 0), BuildingBlock: AJUNOK_clean_linker_0, # of connection points: 2
#     Edge 69, Type (0, 0), BuildingBlock: AJUNOK_clean_linker_0, # of connection points: 2
#     Edge 70, Type (0, 0), BuildingBlock: AJUNOK_clean_linker_0, # of connection points: 2
#     Edge 71, Type (0, 0), BuildingBlock: AJUNOK_clean_linker_0, # of connection points: 2
# Relax obj value: 0.173
# Max RMSD: 0.195
# Mean RMSD: 0.195
data_MOF--net-vck--node1-NUHQUE_clean_sbu_2--edge1-AJUNOK_clean_linker_0
_symmetry_space_group_name_H-M    P1
_symmetry_Int_Tables_number       1
_symmetry_cell_setting            triclinic
loop_
_symmetry_equiv_pos_as_xyz
'x, y, z'
_cell_length_a     58.10146
_cell_length_b     36.956705
_cell_length_c     16.854991
_cell_angle_alpha  90.033542
_cell_angle_beta   90.140191
_cell_angle_gamma 90.627623
loop_
_atom_site_label
_atom_site_type_symbol
_atom_site_fract_x
_atom_site_fract_y
_atom_site_fract_z
_atom_type_partial_charge
O0 O 0.54 0.20401 0.17921 0.0
Tb1 Tb 0.54729 0.14666 0.18404 0.0
Eu2 Eu 0.57311 0.10893 0.97534 0.0
C3 C 0.54235 0.22449 0.24277 0.0
O4 O 0.55111 0.21037 0.30747 0.0
C5 C 0.59305 0.15801 0.09954 0.0
O6 O 0.59643 0.06354 0.94217 0.0
C7 C 0.54801 0.1311 0.86 0.0
C8 C 0.5876 0.03221 0.92007 0.0
O9 O 0.56513 0.02872 0.91426 0.0
C10 C 0.53168 0.08158 0.08364 0.0
C11 C 0.53385 0.14289 0.79269 0.0
C12 C 0.52135 0.17524 0.79616 0.0
C13 C 0.50928 0.18735 0.72906 0.0
C14 C 0.50934 0.16663 0.65969 0.0
C15 C 0.52215 0.13482 0.65529 0.0
C16 C 0.5342 0.12288 0.72203 0.0
O17 O 0.58039 0.13371 0.13597 0.0
O18 O 0.59556 0.15329 0.02353 0.0
O19 O 0.56004 0.13048 0.30025 0.0
O20 O 0.52438 0.12509 0.27494 0.0
C21 C 0.54021 0.12017 0.32823 0.0
O22 O 0.55245 0.07352 0.05859 0.0
O23 O 0.52626 0.11509 0.10182 0.0
O24 O 0.56668 0.1119 0.84897 0.0
O25 O 0.54297 0.13869 0.93422 0.0
H26 H 0.52179 0.19168 0.84945 0.0
H27 H 0.50109 0.17709 0.60674 0.0
H28 H 0.54454 0.0987 0.71778 0.0
O29 O 0.47188 0.84845 0.23109 0.0
Tb30 Tb 0.45138 0.89559 0.20453 0.0
Eu31 Eu 0.41855 0.92809 0.02605 0.0
C32 C 0.48495 0.83262 0.17845 0.0
O33 O 0.48679 0.8467 0.10714 0.0
C34 C 0.40479 0.86435 0.14116 0.0
O35 O 0.39647 0.97297 0.97846 0.0
C36 C 0.43125 0.88886 0.90579 0.0
C37 C 0.39388 1.00392 1.01585 0.0
O38 O 0.40316 1.00825 0.08639 0.0
C39 C 0.46477 0.96352 0.10179 0.0
C40 C 0.44213 0.88337 0.82681 0.0
C41 C 0.45666 0.85336 0.81835 0.0
C42 C 0.46542 0.84368 0.74389 0.0
C43 C 0.45961 0.86431 0.67745 0.0
C44 C 0.44535 0.89445 0.68349 0.0
C45 C 0.43634 0.90396 0.7585 0.0
O46 O 0.42678 0.85789 0.15161 0.0
O47 O 0.39784 0.89585 0.1145 0.0
O48 O 0.46338 0.91057 0.32273 0.0
O49 O 0.42782 0.9159 0.297 0.0
C50 C 0.44359 0.91944 0.35225 0.0
O51 O 0.44413 0.96899 0.07242 0.0
O52 O 0.47142 0.93179 0.12844 0.0
O53 O 0.41148 0.9057 0.90921 0.0
O54 O 0.44416 0.89323 0.96967 0.0
H55 H 0.4607 0.83688 0.86966 0.0
H56 H 0.4657 0.85617 0.61936 0.0
H57 H 0.4248 0.92667 0.76332 0.0
O58 O 0.70328 0.44601 0.4331 0.0
Tb59 Tb 0.68728 0.39336 0.45435 0.0
Eu60 Eu 0.65779 0.36218 0.24182 0.0
C61 C 0.70237 0.47251 0.48519 0.0
O62 O 0.68923 0.46863 0.54796 0.0
C63 C 0.63973 0.40486 0.3779 0.0
O64 O 0.63779 0.31554 0.18982 0.0
C65 C 0.68195 0.3968 0.13727 0.0
C66 C 0.62857 0.29149 0.23796 0.0
O67 O 0.63046 0.29659 0.31485 0.0
C68 C 0.70061 0.3291 0.34038 0.0
C69 C 0.69833 0.39516 0.07095 0.0
C70 C 0.71631 0.42087 0.06885 0.0
C71 C 0.72938 0.42586 0.9997 0.0
C72 C 0.72502 0.40358 0.93408 0.0
C73 C 0.70694 0.37826 0.93474 0.0
C74 C 0.69369 0.37381 1.0035 0.0
O75 O 0.65392 0.38082 0.40619 0.0
O76 O 0.63464 0.40112 0.30329 0.0
O77 O 0.67454 0.39684 0.57557 0.0
O78 O 0.70223 0.36162 0.55057 0.0
C79 C 0.68857 0.37336 0.60567 0.0
O80 O 0.67877 0.32452 0.32016 0.0
O81 O 0.70801 0.35801 0.37963 0.0
O82 O 0.66087 0.38485 0.12428 0.0
O83 O 0.68958 0.39064 0.20954 0.0
H84 H 0.71895 0.43895 0.11886 0.0
H85 H 0.73381 0.40906 0.87856 0.0
H86 H 0.67887 0.35574 1.0022 0.0
O87 O 0.27897 0.58441 0.40455 0.0
Tb88 Tb 0.29201 0.63856 0.43242 0.0
Eu89 Eu 0.32109 0.67071 0.24605 0.0
C90 C 0.28354 0.55647 0.45043 0.0
O91 O 0.29943 0.56014 0.50557 0.0
C92 C 0.34017 0.61451 0.37555 0.0
O93 O 0.34833 0.71278 0.21978 0.0
C94 C 0.30287 0.64257 0.11968 0.0
C95 C 0.34146 0.74234 0.18367 0.0
O96 O 0.31989 0.744 0.16088 0.0
C97 C 0.27554 0.70249 0.32668 0.0
C98 C 0.28404 0.63887 0.06112 0.0
C99 C 0.2682 0.61047 0.0738 0.0
C100 C 0.25342 0.59929 1.01366 0.0
C101 C 0.25168 0.61994 0.94496 0.0
C102 C 0.2692 0.64488 0.92567 0.0
C103 C 0.28509 0.65534 0.98528 0.0
O104 O 0.32923 0.63404 0.42802 0.0
O105 O 0.34065 0.6245 0.30086 0.0
O106 O 0.27598 0.62322 0.54339 0.0
O107 O 0.29358 0.67358 0.53875 0.0
C108 C 0.28212 0.65142 0.58424 0.0
O109 O 0.2967 0.70998 0.30412 0.0
O110 O 0.26989 0.67096 0.3572 0.0
O111 O 0.31787 0.66937 0.11581 0.0
O112 O 0.29833 0.63186 0.19245 0.0
H113 H 0.26956 0.59349 0.12609 0.0
H114 H 0.23989 0.61064 0.89904 0.0
H115 H 0.29936 0.6732 0.97057 0.0
O116 O 0.51208 0.68264 0.71678 0.0
Tb117 Tb 0.53334 0.63524 0.6984 0.0
Eu118 Eu 0.57011 0.60206 0.52475 0.0
C119 C 0.5125 0.71034 0.66787 0.0
O120 O 0.5238 0.70795 0.60074 0.0
C121 C 0.58169 0.66241 0.65118 0.0
O122 O 0.59367 0.55745 0.48481 0.0
C123 C 0.55919 0.64092 0.40154 0.0
C124 C 0.59816 0.52927 0.52977 0.0
O125 O 0.5895 0.52787 0.60162 0.0
C126 C 0.52198 0.56629 0.59264 0.0
C127 C 0.54883 0.64948 0.32279 0.0
C128 C 0.53755 0.68287 0.31518 0.0
C129 C 0.52954 0.69492 0.24111 0.0
C130 C 0.53252 0.6729 0.17449 0.0
C131 C 0.54392 0.63984 0.17947 0.0
C132 C 0.55224 0.62798 0.25394 0.0
O133 O 0.55968 0.66863 0.64308 0.0
O134 O 0.59082 0.63473 0.61419 0.0
O135 O 0.52104 0.62143 0.81703 0.0
O136 O 0.55662 0.61621 0.79328 0.0
C137 C 0.54078 0.61293 0.84786 0.0
O138 O 0.54309 0.56135 0.56591 0.0
O139 O 0.51477 0.5974 0.62132 0.0
O140 O 0.5775 0.62046 0.40484 0.0
O141 O 0.54648 0.63984 0.46625 0.0
H142 H 0.53594 0.70027 0.36664 0.0
H143 H 0.52608 0.6818 0.11729 0.0
H144 H 0.56144 0.60272 0.25797 0.0
O145 O 0.44901 0.33401 0.66763 0.0
Tb146 Tb 0.43298 0.38536 0.69214 0.0
Eu147 Eu 0.41372 0.41129 0.48977 0.0
C148 C 0.4704 0.33028 0.69169 0.0
O149 O 0.48122 0.35876 0.72075 0.0
C150 C 0.38759 0.36073 0.61589 0.0
O151 O 0.39166 0.45638 0.44076 0.0
C152 C 0.43904 0.38256 0.38079 0.0
C153 C 0.38414 0.48203 0.48824 0.0
O154 O 0.38782 0.47882 0.56485 0.0
C155 C 0.4539 0.44854 0.59172 0.0
C156 C 0.45628 0.38502 0.3165 0.0
C157 C 0.4759 0.36304 0.32128 0.0
C158 C 0.49007 0.35787 0.25469 0.0
C159 C 0.48516 0.37685 0.18473 0.0
C160 C 0.4648 0.3964 0.17721 0.0
C161 C 0.45076 0.40147 0.24366 0.0
O162 O 0.39625 0.38361 0.66776 0.0
O163 O 0.39223 0.36541 0.54051 0.0
O164 O 0.43493 0.36309 0.81089 0.0
O165 O 0.4379 0.42002 0.79709 0.0
C166 C 0.4377 0.39355 0.84811 0.0
O167 O 0.4337 0.45395 0.55872 0.0
O168 O 0.45841 0.41818 0.62892 0.0
O169 O 0.41829 0.39521 0.36752 0.0
O170 O 0.44586 0.38544 0.45514 0.0
H171 H 0.47867 0.34704 0.37425 0.0
H172 H 0.49539 0.37203 0.13205 0.0
H173 H 0.43443 0.41494 0.2361 0.0
O174 O 0.72091 0.92072 0.96883 0.0
Tb175 Tb 0.69374 0.88028 0.95143 0.0
Eu176 Eu 0.66523 0.85655 0.7555 0.0
C177 C 0.72934 0.94043 0.91065 0.0
O178 O 0.72314 0.93317 0.83729 0.0
C179 C 0.65018 0.9117 0.88051 0.0
O180 O 0.64873 0.80289 0.72204 0.0
C181 C 0.66416 0.90174 0.63785 0.0
C182 C 0.63348 0.78733 0.76888 0.0
O183 O 0.62855 0.80309 0.8365 0.0
C184 C 0.70938 0.81904 0.83099 0.0
C185 C 0.67383 0.90886 0.55825 0.0
C186 C 0.68928 0.93819 0.54745 0.0
C187 C 0.69757 0.94683 0.47146 0.0
C188 C 0.68959 0.92686 0.40643 0.0
C189 C 0.67469 0.89736 0.41629 0.0
C190 C 0.66678 0.88816 0.49196 0.0
O191 O 0.67208 0.9188 0.89134 0.0
O192 O 0.64395 0.87973 0.854 0.0
O193 O 0.70082 0.86791 0.07469 0.0
O194 O 0.6659 0.87163 0.03755 0.0
C195 C 0.67953 0.86493 0.09714 0.0
O196 O 0.70119 0.83476 0.76716 0.0
O197 O 0.70323 0.82807 0.90315 0.0
O198 O 0.64973 0.87429 0.64524 0.0
O199 O 0.67804 0.90578 0.69911 0.0
H200 H 0.69486 0.95421 0.598 0.0
H201 H 0.69516 0.93406 0.34702 0.0
H202 H 0.65514 0.86526 0.49866 0.0
O203 O 0.2855 0.11168 0.9068 0.0
Tb204 Tb 0.30194 0.16289 0.93952 0.0
Eu205 Eu 0.31026 0.1563 0.73372 0.0
C206 C 0.28944 0.08416 0.95463 0.0
O207 O 0.30465 0.08885 1.01165 0.0
C208 C 0.343 0.1233 0.87483 0.0
O209 O 0.33161 0.20421 0.68772 0.0
C210 C 0.29613 0.11396 0.6204 0.0
C211 C 0.33917 0.23066 0.73412 0.0
O212 O 0.33551 0.22821 0.81076 0.0
C213 C 0.27953 0.21541 0.82208 0.0
C214 C 0.28113 0.10883 0.55042 0.0
C215 C 0.26582 0.07906 0.54821 0.0
C216 C 0.25374 0.07049 0.47839 0.0
C217 C 0.25712 0.09158 0.41044 0.0
C218 C 0.27264 0.12096 0.41138 0.0
C219 C 0.28414 0.13004 0.48207 0.0
O220 O 0.33765 0.15001 0.92199 0.0
O221 O 0.33205 0.11857 0.80734 0.0
O222 O 0.27816 0.16512 0.03936 0.0
O223 O 0.31403 0.16894 0.06158 0.0
C224 C 0.29379 0.16812 0.09425 0.0
O225 O 0.2795 0.18982 0.76794 0.0
O226 O 0.29314 0.21359 0.88403 0.0
O227 O 0.3141 0.13575 0.61398 0.0
O228 O 0.28634 0.11487 0.69056 0.0
H229 H 0.26394 0.06176 0.59981 0.0
H230 H 0.2486 0.0838 0.35559 0.0
H231 H 0.29617 0.15265 0.48263 0.0
O232 O 0.01655 0.18259 0.72518 0.0
Tb233 Tb 0.03852 0.13718 0.69845 0.0
Eu234 Eu 0.06951 0.1086 0.51103 0.0
C235 C 0.00424 0.19907 0.67117 0.0
O236 O 0.00394 0.18643 0.59827 0.0
C237 C 0.083 0.16853 0.6323 0.0
O238 O 0.09103 0.06137 0.47141 0.0
C239 C 0.06295 0.15172 0.39144 0.0
C240 C 0.08953 0.02958 0.50641 0.0
O241 O 0.07607 0.02598 0.56845 0.0
C242 C 0.02142 0.07151 0.58287 0.0
C243 C 0.05254 0.1573 0.31192 0.0
C244 C 0.03682 0.18574 0.30218 0.0
C245 C 0.02851 0.19492 0.22655 0.0
C246 C 0.0363 0.17574 0.16053 0.0
C247 C 0.05171 0.1472 0.16864 0.0
C248 C 0.05988 0.13781 0.24437 0.0
O249 O 0.06081 0.17405 0.63416 0.0
O250 O 0.09065 0.13783 0.60399 0.0
O251 O 0.03078 0.12514 0.82159 0.0
O252 O 0.06551 0.12124 0.78346 0.0
C253 C 0.0516 0.11787 0.84391 0.0
O254 O 0.03868 0.07205 0.53199 0.0
O255 O 0.01849 0.09441 0.642 0.0
O256 O 0.08055 0.12984 0.39716 0.0
O257 O 0.04935 0.15092 0.4539 0.0
H258 H 0.03139 0.20123 0.35336 0.0
H259 H 0.0307 0.1835 0.10153 0.0
H260 H 0.07216 0.1161 0.25015 0.0
O261 O 0.9518 0.83986 0.68849 0.0
Tb262 Tb 0.93665 0.8932 0.69171 0.0
Eu263 Eu 0.9125 0.92307 0.46703 0.0
C264 C 0.9445 0.81329 0.73414 0.0
O265 O 0.92561 0.81704 0.77571 0.0
C266 C 0.89233 0.87817 0.59894 0.0
O267 O 0.88977 0.96662 0.41708 0.0
C268 C 0.93699 0.88947 0.36288 0.0
C269 C 0.89605 1.00092 0.41402 0.0
O270 O 0.91704 1.01022 0.43543 0.0
C271 C 0.95474 0.95362 0.5741 0.0
C272 C 0.95378 0.89037 0.2978 0.0
C273 C 0.96939 0.86171 0.29169 0.0
C274 C 0.98097 0.85532 0.22019 0.0
C275 C 0.97753 0.87858 0.15596 0.0
C276 C 0.96183 0.90701 0.16113 0.0
C277 C 0.9506 0.91366 0.23301 0.0
O278 O 0.90475 0.90347 0.63294 0.0
O279 O 0.88911 0.88214 0.52327 0.0
O280 O 0.92229 0.8952 0.81088 0.0
O281 O 0.95154 0.9278 0.78362 0.0
C282 C 0.93703 0.91871 0.83886 0.0
O283 O 0.93393 0.96023 0.54616 0.0
O284 O 0.95981 0.92458 0.61619 0.0
O285 O 0.91642 0.90244 0.34829 0.0
O286 O 0.94415 0.89468 0.43606 0.0
H287 H 0.9707 0.84222 0.33955 0.0
H288 H 0.98518 0.87204 0.09912 0.0
H289 H 0.93763 0.9345 0.23551 0.0
O290 O 0.2119 0.43624 0.98501 0.0
Tb291 Tb 0.19379 0.38919 0.94215 0.0
Eu292 Eu 0.16416 0.36429 0.75807 0.0
C293 C 0.22912 0.45104 0.94692 0.0
O294 O 0.23667 0.43587 0.88162 0.0
C295 C 0.15082 0.42799 0.87516 0.0
O296 O 0.13884 0.31928 0.73143 0.0
C297 C 0.1758 0.40026 0.63095 0.0
C298 C 0.14479 0.29152 0.68738 0.0
O299 O 0.16532 0.29154 0.655 0.0
C300 C 0.21151 0.32998 0.82461 0.0
C301 C 0.18918 0.40268 0.55557 0.0
C302 C 0.20683 0.42911 0.54922 0.0
C303 C 0.21801 0.43564 0.47649 0.0
C304 C 0.21204 0.41436 0.41067 0.0
C305 C 0.19421 0.38855 0.41447 0.0
C306 C 0.18266 0.38285 0.48693 0.0
O307 O 0.17284 0.43124 0.89043 0.0
O308 O 0.14265 0.39867 0.84032 0.0
O309 O 0.20612 0.37013 0.05585 0.0
O310 O 0.17013 0.36658 0.03208 0.0
C311 C 0.18623 0.36117 0.08547 0.0
O312 O 0.19096 0.32362 0.79428 0.0
O313 O 0.21656 0.35968 0.86418 0.0
O314 O 0.15793 0.37815 0.63431 0.0
O315 O 0.18685 0.40341 0.69909 0.0
H316 H 0.21113 0.44587 0.60008 0.0
H317 H 0.22087 0.41874 0.35479 0.0
H318 H 0.16851 0.36355 0.48926 0.0
O319 O 0.77183 0.58855 0.94101 0.0
Tb320 Tb 0.79137 0.63791 0.91773 0.0
Eu321 Eu 0.82393 0.67563 0.73914 0.0
C322 C 0.77492 0.55817 0.90199 0.0
O323 O 0.78766 0.55789 0.83782 0.0
C324 C 0.84056 0.6166 0.86155 0.0
O325 O 0.84641 0.72149 0.69559 0.0
C326 C 0.81103 0.63551 0.619 0.0
C327 C 0.85222 0.7491 0.74106 0.0
O328 O 0.845 0.74974 0.81486 0.0
C329 C 0.77653 0.70436 0.81362 0.0
C330 C 0.79675 0.63062 0.54572 0.0
C331 C 0.77913 0.60408 0.54646 0.0
C332 C 0.767 0.59487 0.47694 0.0
C333 C 0.77193 0.61357 0.40662 0.0
C334 C 0.78957 0.63972 0.40316 0.0
C335 C 0.80221 0.64798 0.47282 0.0
O336 O 0.81881 0.60695 0.86416 0.0
O337 O 0.84689 0.64674 0.82604 0.0
O338 O 0.77686 0.65363 0.03182 0.0
O339 O 0.81294 0.65815 0.01713 0.0
C340 C 0.79602 0.66213 0.06738 0.0
O341 O 0.79681 0.71328 0.78455 0.0
O342 O 0.77137 0.67127 0.83693 0.0
O343 O 0.82879 0.65782 0.61701 0.0
O344 O 0.80087 0.63432 0.68887 0.0
H345 H 0.7756 0.5892 0.6006 0.0
H346 H 0.76233 0.60696 0.35314 0.0
H347 H 0.81626 0.66744 0.46988 0.0
O348 O 0.04009 0.70398 0.18854 0.0
Tb349 Tb 0.04925 0.64765 0.20029 0.0
Eu350 Eu 0.07131 0.62152 1.00788 0.0
C351 C 0.01906 0.71278 0.16853 0.0
O352 O 0.0045 0.68713 0.14705 0.0
C353 C 0.09455 0.67841 0.12932 0.0
O354 O 0.09738 0.58025 0.97055 0.0
C355 C 0.04509 0.63842 0.89069 0.0
C356 C 0.09014 0.55009 0.93637 0.0
O357 O 0.06806 0.54621 0.92099 0.0
C358 C 0.03387 0.58127 0.10413 0.0
C359 C 0.03026 0.64772 0.82285 0.0
C360 C 0.01384 0.67518 0.83008 0.0
C361 C 0.0014 0.68653 0.76338 0.0
C362 C 0.00536 0.67039 0.68977 0.0
C363 C 0.02181 0.64312 0.68118 0.0
C364 C 0.03393 0.63144 0.74856 0.0
O365 O 0.08608 0.65853 0.18716 0.0
O366 O 0.08901 0.67207 0.0549 0.0
O367 O 0.02847 0.65109 0.30711 0.0
O368 O 0.05816 0.61792 0.30852 0.0
C369 C 0.04078 0.62936 0.34976 0.0
O370 O 0.05507 0.57707 0.08073 0.0
O371 O 0.02715 0.61334 0.12682 0.0
O372 O 0.06623 0.62686 0.88061 0.0
O373 O 0.03815 0.64101 0.96481 0.0
H374 H 0.01147 0.68882 0.8864 0.0
H375 H -0.00344 0.68091 0.63798 0.0
H376 H 0.04658 0.61026 0.74299 0.0
O377 O 0.97351 0.34877 0.20569 0.0
Tb378 Tb 0.95127 0.39505 0.19 0.0
Eu379 Eu 0.91926 0.42811 0.017 0.0
C380 C 0.97372 0.3216 0.15544 0.0
O381 O 0.96161 0.32345 0.08971 0.0
C382 C 0.90261 0.3662 0.13386 0.0
O383 O 0.89613 0.47395 0.98379 0.0
C384 C 0.92827 0.38942 0.89207 0.0
C385 C 0.90373 0.5004 0.93836 0.0
O386 O 0.92474 0.49886 0.91012 0.0
C387 C 0.96668 0.46291 0.08647 0.0
C388 C 0.93884 0.38107 0.81385 0.0
C389 C 0.95 0.34762 0.80621 0.0
C390 C 0.95852 0.33598 0.73265 0.0
C391 C 0.95596 0.35843 0.66645 0.0
C392 C 0.94445 0.39143 0.67136 0.0
C393 C 0.93575 0.40289 0.74539 0.0
O394 O 0.92422 0.35806 0.14825 0.0
O395 O 0.89706 0.39786 0.10453 0.0
O396 O 0.93009 0.41898 0.28527 0.0
O397 O 0.96443 0.4038 0.3098 0.0
C398 C 0.94595 0.4174 0.34035 0.0
O399 O 0.9462 0.46852 0.056 0.0
O400 O 0.97245 0.4316 0.11781 0.0
O401 O 0.91124 0.41246 0.89551 0.0
O402 O 0.94066 0.38777 0.95771 0.0
H403 H 0.95116 0.3299 0.85728 0.0
H404 H 0.96277 0.34992 0.60958 0.0
H405 H 0.92654 0.42815 0.74935 0.0
O406 O 0.20062 0.91279 0.41718 0.0
Tb407 Tb 0.18199 0.86305 0.44469 0.0
Eu408 Eu 0.17674 0.8773 0.24375 0.0
C409 C 0.19585 0.94167 0.45973 0.0
O410 O 0.1787 0.93994 0.51029 0.0
C411 C 0.14383 0.91013 0.38129 0.0
O412 O 0.1506 0.83203 0.21896 0.0
C413 C 0.18798 0.91452 0.11846 0.0
C414 C 0.15712 0.79937 0.19697 0.0
O415 O 0.17913 0.79305 0.18762 0.0
C416 C 0.20641 0.81585 0.32605 0.0
C417 C 0.20313 0.91803 0.04816 0.0
C418 C 0.21849 0.94775 0.04244 0.0
C419 C 0.23073 0.95468 0.97187 0.0
C420 C 0.22785 0.93092 0.90764 0.0
C421 C 0.21244 0.90143 0.91208 0.0
C422 C 0.20024 0.89503 0.98245 0.0
O423 O 0.14726 0.88116 0.42433 0.0
O424 O 0.15708 0.91711 0.31981 0.0
O425 O 0.17043 0.85378 0.5666 0.0
O426 O 0.20618 0.85768 0.54268 0.0
C427 C 0.19092 0.85316 0.59797 0.0
O428 O 0.20774 0.84405 0.2786 0.0
O429 O 0.19043 0.81444 0.38066 0.0
O430 O 0.17193 0.88911 0.11848 0.0
O431 O 0.19719 0.9202 0.18871 0.0
H432 H 0.22013 0.96647 0.09175 0.0
H433 H 0.23699 0.93617 0.8528 0.0
H434 H 0.18791 0.87282 0.9847 0.0
O435 O 0.75726 0.09749 0.43801 0.0
Tb436 Tb 0.78059 0.1428 0.41869 0.0
Eu437 Eu 0.81373 0.17795 0.24813 0.0
C438 C 0.75576 0.06984 0.38934 0.0
O439 O 0.76737 0.07036 0.32259 0.0
C440 C 0.82815 0.11348 0.35967 0.0
O441 O 0.83989 0.22166 0.21945 0.0
C442 C 0.80358 0.13921 0.12321 0.0
C443 C 0.83366 0.2517 0.18374 0.0
O444 O 0.81204 0.25523 0.1625 0.0
C445 C 0.76637 0.21092 0.3169 0.0
C446 C 0.79354 0.1277 0.04533 0.0
C447 C 0.78352 0.09275 0.03931 0.0
C448 C 0.77591 0.07895 0.96565 0.0
C449 C 0.77746 0.10126 0.89863 0.0
C450 C 0.78796 0.1355 0.90197 0.0
C451 C 0.79614 0.14878 0.9755 0.0
O452 O 0.80632 0.10572 0.3726 0.0
O453 O 0.83473 0.14572 0.33524 0.0
O454 O 0.76766 0.15252 0.53802 0.0
O455 O 0.80267 0.1649 0.51495 0.0
C456 C 0.78673 0.16417 0.56971 0.0
O457 O 0.78713 0.21792 0.28938 0.0
O458 O 0.76033 0.17877 0.34387 0.0
O459 O 0.82007 0.16383 0.12493 0.0
O460 O 0.7919 0.13647 0.18999 0.0
H461 H 0.78246 0.07575 0.09161 0.0
H462 H 0.77073 0.09171 0.84222 0.0
H463 H 0.80455 0.17506 0.97809 0.0
C464 C 0.51729 0.27116 0.18169 0.0
C465 C 0.53174 0.26087 0.24454 0.0
C466 C 0.50458 0.30296 0.18506 0.0
C467 C 0.50596 0.32647 0.25087 0.0
H468 H 0.51495 0.25379 0.13043 0.0
H469 H 0.4928 0.30827 0.13665 0.0
S470 S 0.543 0.31405 0.42808 0.0
N471 N 0.54784 0.27794 0.37302 0.0
N472 N 0.52421 0.33844 0.37821 0.0
C473 C 0.52105 0.31738 0.3129 0.0
C474 C 0.53393 0.28457 0.30987 0.0
C475 C 0.51478 0.78603 0.15061 0.0
C476 C 0.49682 0.79847 0.19883 0.0
C477 C 0.52567 0.75318 0.16648 0.0
C478 C 0.51891 0.73112 0.23072 0.0
H479 H 0.52047 0.8017 0.09988 0.0
H480 H 0.53943 0.74483 0.12747 0.0
S481 S 0.47266 0.75108 0.37501 0.0
N482 N 0.4729 0.78621 0.31454 0.0
N483 N 0.49308 0.72406 0.34288 0.0
C484 C 0.50122 0.74342 0.28021 0.0
C485 C 0.49022 0.77711 0.26452 0.0
C486 C 0.71691 0.53278 0.53463 0.0
C487 C 0.71799 0.50465 0.47819 0.0
C488 C 0.73268 0.56189 0.53377 0.0
C489 C 0.75011 0.56418 0.47622 0.0
H490 H 0.70397 0.53216 0.58075 0.0
H491 H 0.73121 0.58279 0.57851 0.0
S492 S 0.7609 0.49758 0.31583 0.0
N493 N 0.73818 0.48125 0.36285 0.0
N494 N 0.76787 0.5355 0.3622 0.0
C495 C 0.75132 0.53646 0.41905 0.0
C496 C 0.73525 0.50688 0.41973 0.0
C497 C 0.26942 0.49871 0.51345 0.0
C498 C 0.26789 0.52417 0.45128 0.0
C499 C 0.25328 0.47032 0.52145 0.0
C500 C 0.23503 0.46596 0.46727 0.0
H501 H 0.28291 0.5011 0.55768 0.0
H502 H 0.25514 0.45159 0.5704 0.0
S503 S 0.22314 0.52477 0.29343 0.0
N504 N 0.24662 0.54248 0.33366 0.0
N505 N 0.21623 0.48969 0.34939 0.0
C506 C 0.23342 0.49089 0.40423 0.0
C507 C 0.24985 0.51977 0.39602 0.0
C508 C 0.47111 0.77692 0.76092 0.0
C509 C 0.47925 0.8105 0.73262 0.0
C510 C 0.48216 0.74459 0.74076 0.0
C511 C 0.50153 0.74472 0.69079 0.0
H512 H 0.4556 0.77548 0.79635 0.0
H513 H 0.47506 0.71925 0.76245 0.0
S514 S 0.53158 0.82595 0.61097 0.0
N515 N 0.50938 0.84222 0.65986 0.0
N516 N 0.52979 0.78154 0.62045 0.0
C517 C 0.51042 0.77824 0.66508 0.0
C518 C 0.49938 0.81109 0.68644 0.0
C519 C 0.46671 0.26273 0.69558 0.0
C520 C 0.48076 0.29399 0.69906 0.0
C521 C 0.47588 0.22826 0.70824 0.0
C522 C 0.49935 0.22392 0.72566 0.0
H523 H 0.44844 0.26485 0.68377 0.0
H524 H 0.46461 0.2048 0.7039 0.0
S525 S 0.54389 0.29629 0.73461 0.0
N526 N 0.5197 0.31786 0.71648 0.0
N527 N 0.53673 0.25302 0.74084 0.0
C528 C 0.51364 0.25472 0.72833 0.0
C529 C 0.5044 0.28977 0.71484 0.0
C530 C 0.73873 0.99412 0.99686 0.0
C531 C 0.74333 0.97334 0.92865 0.0
C532 C 0.74992 0.02758 1.01037 0.0
C533 C 0.76637 0.04129 0.95669 0.0
H534 H 0.72562 0.98528 0.03838 0.0
H535 H 0.74494 0.04343 0.06148 0.0
S536 S 0.78752 0.99397 0.77663 0.0
N537 N 0.76706 0.96703 0.81137 0.0
N538 N 0.78896 0.02859 0.83845 0.0
C539 C 0.77223 0.01939 0.89119 0.0
C540 C 0.76048 0.98583 0.87667 0.0
C541 C 0.26223 0.99541 0.02322 0.0
C542 C 0.24587 0.98742 0.96412 0.0
C543 C 0.27659 0.02607 0.01791 0.0
C544 C 0.2751 0.05043 0.95365 0.0
H545 H 0.26402 0.97771 0.07404 0.0
H546 H 0.2887 0.03095 0.06579 0.0
S547 S 0.23516 0.04169 0.78237 0.0
N548 N 0.22902 1.00631 0.8386 0.0
N549 N 0.25609 0.06384 0.82861 0.0
C550 C 0.25898 0.04256 0.89351 0.0
C551 C 0.24438 1.01114 0.89873 0.0
C552 C 0.96366 0.27855 0.65557 0.0
C553 C 0.96932 0.29984 0.72244 0.0
C554 C 0.97479 0.24588 0.64016 0.0
C555 C 0.99182 0.23271 0.6916 0.0
H556 H 0.95061 0.28738 0.61409 0.0
H557 H 0.97004 0.23092 0.5872 0.0
S558 S 0.01252 0.27731 0.87671 0.0
N559 N -0.00702 0.30507 0.84113 0.0
N560 N 0.01334 0.24301 0.814 0.0
C561 C -0.00285 0.25306 0.76025 0.0
C562 C 0.98601 0.28668 0.77532 0.0
C563 C 0.96277 0.7158 0.7632 0.0
C564 C 0.98689 0.71898 0.76604 0.0
C565 C 0.94899 0.74658 0.75436 0.0
C566 C 0.95902 0.78117 0.74555 0.0
H567 H 0.95459 0.68935 0.76632 0.0
H568 H 0.93046 0.74318 0.75195 0.0
S569 S 0.02144 0.80346 0.75167 0.0
N570 N 0.02019 0.75906 0.76227 0.0
N571 N -0.00551 0.81679 0.74367 0.0
C572 C 0.98313 0.78454 0.74936 0.0
C573 C -0.00296 0.75342 0.76006 0.0
C574 C 0.22876 0.54458 0.03844 0.0
C575 C 0.24857 0.56036 1.00608 0.0
C576 C 0.22339 0.50823 0.0227 0.0
C577 C 0.23721 0.48722 0.97192 0.0
H578 H 0.2172 0.56051 0.07428 0.0
H579 H 0.20783 0.49696 0.04823 0.0
S580 S 0.29321 0.51514 0.8856 0.0
N581 N 0.28411 0.5513 0.93321 0.0
N582 N 0.27307 0.48384 0.89844 0.0
C583 C 0.25779 0.50234 0.94349 0.0
C584 C 0.26367 0.53879 0.96185 0.0
C585 C 0.74456 0.52503 0.97813 0.0
C586 C 0.76482 0.52416 0.93282 0.0
C587 C 0.73403 0.49302 1.00473 0.0
C588 C 0.74357 0.45902 0.98793 0.0
H589 H 0.73625 0.55052 0.99045 0.0
H590 H 0.71763 0.4949 0.03483 0.0
S591 S 0.79865 0.44256 0.88396 0.0
N592 N 0.79553 0.48689 0.88043 0.0
N593 N 0.77594 0.42673 0.932 0.0
C594 C 0.76469 0.458 0.94752 0.0
C595 C 0.77525 0.49055 0.91947 0.0
C596 C 0.99124 0.7617 0.13784 0.0
C597 C 0.01099 0.75034 0.1787 0.0
C598 C 0.98204 0.79602 0.15079 0.0
C599 C -0.00795 0.82009 0.20593 0.0
H600 H 0.98266 0.74382 0.09594 0.0
H601 H 0.96664 0.80354 0.11864 0.0
S602 S 0.04399 0.804 0.32781 0.0
N603 N 0.04057 0.76642 0.27573 0.0
N604 N 0.02278 0.8308 0.30091 0.0
C605 C 0.01185 0.80939 0.24682 0.0
C606 C 0.0215 0.77458 0.23278 0.0
C607 C 0.00538 0.29065 0.22889 0.0
C608 C 0.98682 0.28865 0.1751 0.0
C609 C 0.01827 0.25994 0.24779 0.0
C610 C 0.01291 0.22603 0.21423 0.0
H611 H 0.01037 0.31632 0.2552 0.0
H612 H 0.03299 0.26305 0.28686 0.0
S613 S 0.96406 0.20533 0.0786 0.0
N614 N 0.96259 0.24938 0.09366 0.0
N615 N 0.98638 0.19156 0.13086 0.0
C616 C -0.00627 0.22336 0.16327 0.0
C617 C 0.98081 0.25468 0.14321 0.0
C618 C 0.20134 1.00839 0.47666 0.0
C619 C 0.21078 0.9744 0.4587 0.0
C620 C 0.21533 0.03949 0.48308 0.0
C621 C 0.23925 0.03745 0.47332 0.0
H622 H 0.18298 1.01097 0.48595 0.0
H623 H 0.20743 0.06522 0.49628 0.0
S624 S 0.27268 0.95524 0.42833 0.0
N625 N 0.24569 0.94078 0.43218 0.0
N626 N 0.27193 0.99922 0.44562 0.0
C627 C 0.24895 1.00382 0.45553 0.0
C628 C 0.23471 0.97226 0.44778 0.0
C629 C 0.70993 1.01162 0.48871 0.0
C630 C 0.71411 0.97705 0.45752 0.0
C631 C 0.72364 0.04146 0.46683 0.0
C632 C 0.74178 0.03784 0.41216 0.0
H633 H 0.69549 1.0159 0.52804 0.0
H634 H 0.71958 0.06772 0.49135 0.0
S635 S 0.76152 0.95218 0.32134 0.0
N636 N 0.73928 0.94014 0.3764 0.0
N637 N 0.76424 0.99641 0.3323 0.0
C638 C 0.74659 1.00319 0.38273 0.0
C639 C 0.733 0.97275 0.40632 0.0
C640 C 0.5494 0.11951 0.54824 0.0
C641 C 0.52668 0.11916 0.57664 0.0
C642 C 0.55386 0.11636 0.46716 0.0
C643 C 0.53573 0.11277 0.41237 0.0
H644 H 0.56366 0.12556 0.58784 0.0
H645 H 0.57146 0.11967 0.447 0.0
S646 S 0.47371 0.10207 0.45943 0.0
N647 N 0.48628 0.10885 0.54626 0.0
N648 N 0.49462 0.10262 0.39316 0.0
C649 C 0.51319 0.10817 0.44098 0.0
C650 C 0.50866 0.11151 0.52355 0.0
C651 C 0.4587 0.93594 0.48612 0.0
C652 C 0.43998 0.92425 0.43913 0.0
C653 C 0.45884 0.93101 0.56877 0.0
C654 C 0.44035 0.91386 0.60797 0.0
H655 H 0.47413 0.94654 0.45817 0.0
H656 H 0.4745 0.93737 0.60117 0.0
S657 S 0.38604 0.88215 0.51392 0.0
N658 N 0.40134 0.89845 0.43924 0.0
N659 N 0.40189 0.88838 0.59446 0.0
C660 C 0.42068 0.90503 0.56278 0.0
C661 C 0.42042 0.91042 0.47836 0.0
C662 C 0.67466 0.38078 0.74379 0.0
C663 C 0.6905 0.36541 0.69104 0.0
C664 C 0.67863 0.38049 0.82566 0.0
C665 C 0.69866 0.36506 0.85715 0.0
H666 H 0.65988 0.39528 0.72154 0.0
H667 H 0.66712 0.3955 0.86365 0.0
S668 S 0.74324 0.31554 0.74586 0.0
N669 N 0.72511 0.32948 0.67694 0.0
N670 N 0.73281 0.32981 0.83129 0.0
C671 C 0.71342 0.34652 0.80589 0.0
C672 C 0.70929 0.34649 0.7225 0.0
C673 C 0.27616 0.61984 0.7101 0.0
C674 C 0.28004 0.65281 0.67137 0.0
C675 C 0.27368 0.61815 0.79172 0.0
C676 C 0.27431 0.64944 0.83952 0.0
H677 H 0.27508 0.59466 0.67717 0.0
H678 H 0.27075 0.59169 0.81713 0.0
S679 S 0.28541 0.74279 0.76762 0.0
N680 N 0.28592 0.71775 0.68624 0.0
N681 N 0.28033 0.71467 0.84204 0.0
C682 C 0.27895 0.68279 0.80221 0.0
C683 C 0.28192 0.68447 0.71762 0.0
C684 C 0.56565 0.62849 0.05404 0.0
C685 C 0.54684 0.61982 0.10346 0.0
C686 C 0.56461 0.6228 0.97123 0.0
C687 C 0.54452 0.60888 0.93492 0.0
H688 H 0.58043 0.64276 0.07851 0.0
H689 H 0.57878 0.6324 0.93497 0.0
S690 S 0.49176 0.57763 0.03907 0.0
N691 N 0.50864 0.59307 0.11075 0.0
N692 N 0.50649 0.58274 0.95604 0.0
C693 C 0.52641 0.5974 0.98451 0.0
C694 C 0.52762 0.60277 0.06851 0.0
C695 C 0.45755 0.42926 0.04884 0.0
C696 C 0.45471 0.39858 0.0971 0.0
C697 C 0.45096 0.42825 0.96838 0.0
C698 C 0.44177 0.39637 0.93434 0.0
H699 H 0.46559 0.45354 0.07259 0.0
H700 H 0.45399 0.45197 0.932 0.0
S701 S 0.43017 0.30956 0.03834 0.0
N702 N 0.44128 0.33638 0.10709 0.0
N703 N 0.42923 0.33414 0.9567 0.0
C704 C 0.43819 0.36607 0.98331 0.0
C705 C 0.44461 0.36727 0.06459 0.0
C706 C 0.65275 0.88923 0.29161 0.0
C707 C 0.6692 0.87593 0.34519 0.0
C708 C 0.65439 0.88179 0.21018 0.0
C709 C 0.67281 0.8615 0.18075 0.0
H710 H 0.64015 0.90864 0.31146 0.0
H711 H 0.64279 0.89527 0.16969 0.0
S712 S 0.71754 0.81519 0.29892 0.0
N713 N 0.70205 0.83708 0.36512 0.0
N714 N 0.70543 0.82344 0.21211 0.0
C715 C 0.68765 0.84465 0.23482 0.0
C716 C 0.68574 0.85177 0.31741 0.0
C717 C 0.26651 0.16205 0.20696 0.0
C718 C 0.28933 0.16276 0.17943 0.0
C719 C 0.26131 0.1504 0.28394 0.0
C720 C 0.27875 0.13904 0.33587 0.0
H721 H 0.25246 0.16909 0.16772 0.0
H722 H 0.24344 0.14899 0.302 0.0
S723 S 0.34137 0.13707 0.29321 0.0
N724 N 0.32963 0.1528 0.21107 0.0
N725 N 0.31982 0.1302 0.35524 0.0
C726 C 0.30175 0.14121 0.31024 0.0
C727 C 0.30706 0.15328 0.23204 0.0
C728 C 0.04286 0.10344 0.06175 0.0
C729 C 0.05853 0.1284 0.09501 0.0
C730 C 0.04248 0.09689 0.97981 0.0
C731 C 0.05792 0.11473 0.92851 0.0
H732 H 0.02924 0.09193 0.09796 0.0
H733 H 0.02872 0.08015 0.95567 0.0
S734 S 0.10399 0.17936 0.98759 0.0
N735 N 0.09115 0.16851 0.07182 0.0
N736 N 0.09081 0.1555 0.91773 0.0
C737 C 0.0752 0.1368 0.96198 0.0
C738 C 0.0754 0.14384 0.04546 0.0
C739 C 0.96814 0.93679 0.03049 0.0
C740 C 0.95284 0.92184 0.08621 0.0
C741 C 0.96194 0.9393 0.95037 0.0
C742 C 0.94043 0.92627 0.92374 0.0
H743 H 0.98559 0.94383 0.04788 0.0
H744 H 0.97481 0.94852 0.90836 0.0
S745 S 0.89308 0.88989 0.04818 0.0
N746 N 0.91433 0.89808 0.11111 0.0
N747 N 0.90275 0.90261 0.96037 0.0
C748 C 0.92422 0.91463 0.97999 0.0
C749 C 0.93042 0.91245 0.06153 0.0
C750 C 0.20179 0.34323 0.21669 0.0
C751 C 0.18319 0.3567 0.17238 0.0
C752 C 0.20384 0.34989 0.29839 0.0
C753 C 0.18736 0.37035 0.33909 0.0
H754 H 0.21591 0.33005 0.18678 0.0
H755 H 0.21945 0.34175 0.32849 0.0
S756 S 0.13403 0.40806 0.25289 0.0
N757 N 0.14674 0.38818 0.17711 0.0
N758 N 0.1507 0.40094 0.3308 0.0
C759 C 0.1676 0.38102 0.29723 0.0
C760 C 0.16545 0.37409 0.21375 0.0
C761 C 0.81433 0.64483 0.28094 0.0
C762 C 0.79481 0.65586 0.32385 0.0
C763 C 0.81585 0.65014 0.19801 0.0
C764 C 0.79778 0.66627 0.15522 0.0
H765 H 0.82761 0.62947 0.31046 0.0
H766 H 0.83033 0.63883 0.16656 0.0
S767 S 0.74476 0.70479 0.24172 0.0
N768 N 0.75852 0.68758 0.31857 0.0
N769 N 0.76119 0.69711 0.1638 0.0
C770 C 0.77916 0.67997 0.19862 0.0
C771 C 0.77772 0.67488 0.2826 0.0
C772 C 0.01429 0.62202 0.46334 0.0
C773 C 0.03694 0.62351 0.4349 0.0
C774 C 0.00969 0.62475 0.5445 0.0
C775 C 0.02756 0.63032 0.59995 0.0
H776 H -5e-05 0.62036 0.42222 0.0
H777 H 0.99189 0.62478 0.56347 0.0
S778 S 0.09012 0.63323 0.55472 0.0
N779 N 0.07758 0.62721 0.46761 0.0
N780 N 0.06906 0.63455 0.62025 0.0
C781 C 0.05045 0.62941 0.5724 0.0
C782 C 0.05511 0.62558 0.48966 0.0
C783 C 0.92256 0.41144 0.46547 0.0
C784 C 0.94297 0.42263 0.42729 0.0
C785 C 0.92203 0.40578 0.54836 0.0
C786 C 0.94174 0.41181 0.59575 0.0
H787 H 0.90763 0.40371 0.43052 0.0
H788 H 0.90682 0.39344 0.57429 0.0
S789 S -0.00192 0.44709 0.52611 0.0
N790 N 0.98236 0.44386 0.44458 0.0
N791 N 0.98117 0.43383 0.59941 0.0
C792 C 0.96138 0.42655 0.55903 0.0
C793 C 0.96204 0.43179 0.47504 0.0
C794 C 0.18387 0.87907 0.81245 0.0
C795 C 0.20682 0.88079 0.8392 0.0
C796 C 0.17854 0.86704 0.73568 0.0
C797 C 0.19602 0.85653 0.68329 0.0
H798 H 0.17011 0.88945 0.84897 0.0
H799 H 0.16085 0.86846 0.7156 0.0
S800 S 0.25818 0.84922 0.73043 0.0
N801 N 0.24663 0.86583 0.81196 0.0
N802 N 0.23669 0.84353 0.66714 0.0
C803 C 0.21874 0.85507 0.71175 0.0
C804 C 0.22414 0.86719 0.78991 0.0
C805 C 0.77064 0.16759 0.78688 0.0
C806 C 0.79056 0.15523 0.82537 0.0
C807 C 0.77028 0.17367 0.70458 0.0
C808 C 0.78982 0.1677 0.65722 0.0
H809 H 0.75467 0.1696 0.81955 0.0
H810 H 0.75406 0.18071 0.67706 0.0
S811 S 0.84692 0.13851 0.73034 0.0
N812 N 0.83081 0.13977 0.81094 0.0
N813 N 0.83027 0.1517 0.65639 0.0
C814 C 0.8104 0.15828 0.69588 0.0
C815 C 0.81071 0.15186 0.77992 0.0
C816 C 0.52116 1.01572 0.08632 0.0
C817 C 0.51424 0.05212 0.09064 0.0
C818 C 0.50514 0.9872 0.09131 0.0
C819 C 0.48152 0.99393 0.09954 0.0
H820 H 0.53915 1.00905 0.07905 0.0
H821 H 0.51129 0.95969 0.08712 0.0
S822 S 0.45434 0.08405 0.1172 0.0
N823 N 0.48204 0.09311 0.10646 0.0
N824 N 0.45199 0.03952 0.11501 0.0
C825 C 0.47434 0.0301 0.10488 0.0
C826 C 0.49067 0.05917 0.10073 0.0
C827 C 0.74073 0.30515 0.32888 0.0
C828 C 0.71682 0.29845 0.33031 0.0
C829 C 0.75652 0.27681 0.32197 0.0
C830 C 0.74911 0.24045 0.31766 0.0
H831 H 0.74736 0.33259 0.33322 0.0
H832 H 0.77472 0.28347 0.32216 0.0
S833 S 0.68833 0.20812 0.31637 0.0
N834 N 0.6865 0.25252 0.3242 0.0
N835 N 0.71612 0.19938 0.31272 0.0
C836 C 0.72524 0.23333 0.31796 0.0
C837 C 0.70913 0.26225 0.32376 0.0
C838 C 0.2399 0.73129 0.37891 0.0
C839 C 0.25775 0.73097 0.32275 0.0
C840 C 0.22329 0.75852 0.37869 0.0
C841 C 0.2237 0.7865 0.32188 0.0
H842 H 0.239 0.71075 0.42468 0.0
H843 H 0.2102 0.75777 0.42432 0.0
S844 S 0.26557 0.79584 0.15674 0.0
N845 N 0.27395 0.75954 0.20546 0.0
N846 N 0.24279 0.8107 0.2046 0.0
C847 C 0.24109 0.78588 0.26383 0.0
C848 C 0.2581 0.75818 0.26445 0.0
C849 C 0.46499 0.51426 0.58401 0.0
C850 C 0.47167 0.47785 0.58939 0.0
C851 C 0.48135 0.54255 0.58454 0.0
C852 C 0.50513 0.53562 0.58865 0.0
H853 H 0.44693 0.52109 0.58104 0.0
H854 H 0.47526 0.57011 0.58154 0.0
S855 S 0.53176 0.44484 0.59979 0.0
N856 N 0.5038 0.43633 0.5969 0.0
N857 N 0.53451 0.48933 0.59629 0.0
C858 C 0.51208 0.49926 0.59209 0.0
C859 C 0.49539 0.47046 0.59299 0.0
C860 C 0.75892 0.76123 0.76128 0.0
C861 C 0.75836 0.73207 0.81509 0.0
C862 C 0.74243 0.78868 0.76445 0.0
C863 C 0.72518 0.78828 0.82269 0.0
H864 H 0.77225 0.76299 0.71659 0.0
H865 H 0.74367 0.81096 0.72286 0.0
S866 S 0.71567 0.71749 0.97573 0.0
N867 N 0.73856 0.70398 0.9266 0.0
N868 N 0.70787 0.75568 0.93324 0.0
C869 C 0.72416 0.75896 0.87582 0.0
C870 C 0.74067 0.73081 0.87183 0.0
C871 C 0.26291 0.27235 0.8767 0.0
C872 C 0.26284 0.24555 0.81724 0.0
C873 C 0.24661 0.29994 0.8772 0.0
C874 C 0.22941 0.30185 0.81859 0.0
H875 H 0.27545 0.27185 0.92434 0.0
H876 H 0.24717 0.31935 0.92538 0.0
S877 S 0.22269 0.24053 0.64547 0.0
N878 N 0.24484 0.22421 0.69489 0.0
N879 N 0.21416 0.27611 0.69634 0.0
C880 C 0.22947 0.27597 0.75739 0.0
C881 C 0.2462 0.24788 0.7565 0.0
C882 C 0.98127 0.99556 0.64583 0.0
C883 C 0.97183 0.98335 0.57378 0.0
C884 C -0.0029 0.02439 0.64775 0.0
C885 C 0.00452 0.04141 0.57751 0.0
H886 H 0.9761 0.98316 0.70131 0.0
H887 H 0.00382 0.0331 0.70476 0.0
S888 S 0.98542 0.01853 0.37335 0.0
N889 N 0.97096 0.99 0.43052 0.0
N890 N 0.0015 0.04349 0.43369 0.0
C891 C -0.00447 0.02897 0.50484 0.0
C892 C 0.97892 1.00015 0.50312 0.0
C893 C 0.00659 0.48745 0.11345 0.0
C894 C 0.984 0.49312 0.08542 0.0
C895 C 0.02282 0.5159 0.11755 0.0
C896 C 0.01698 0.55127 0.0953 0.0
H897 H 0.01181 0.4609 0.13328 0.0
H898 H 0.03987 0.51035 0.14037 0.0
S899 S 0.96124 0.58062 1.0111 0.0
N900 N 0.95744 0.53711 0.02963 0.0
N901 N 0.98785 0.59022 0.03911 0.0
C902 C -0.0052 0.55732 0.06538 0.0
C903 C 0.97835 0.52836 0.05994 0.0
C904 C 0.62614 1.00378 0.92951 0.0
C905 C 0.60285 1.00087 0.90752 0.0
C906 C 0.64104 0.97467 0.92098 0.0
C907 C 0.63339 0.94131 0.88971 0.0
H908 H 0.63301 0.02869 0.95438 0.0
H909 H 0.65878 0.97853 0.93938 0.0
S910 S 0.57405 0.91966 0.82111 0.0
N911 N 0.57276 0.962 0.85197 0.0
N912 N 0.60093 0.90714 0.83554 0.0
C913 C 0.61014 0.93791 0.86707 0.0
C914 C 0.59485 0.96771 0.876 0.0
C915 C 0.38141 0.06878 1.01256 0.0
C916 C 0.38137 0.03417 0.97743 0.0
C917 C 0.36969 0.09777 0.97766 0.0
C918 C 0.35749 0.09345 0.90591 0.0
H919 H 0.39048 0.07361 0.06786 0.0
H920 H 0.36993 0.12363 1.00794 0.0
S921 S 0.35198 1.00815 0.78951 0.0
N922 N 0.36807 0.99729 0.86645 0.0
N923 N 0.34627 0.05146 0.80068 0.0
C924 C 0.35763 0.05904 0.86946 0.0
C925 C 0.36947 0.02952 0.90524 0.0
C926 C 0.6129 0.25543 0.12419 0.0
C927 C 0.61781 0.25798 0.2058 0.0
C928 C 0.60438 0.22325 0.09077 0.0
C929 C 0.6004 0.19234 0.1376 0.0
H930 H 0.61594 0.27833 0.08536 0.0
H931 H 0.60113 0.22255 0.02747 0.0
S932 S 0.61086 0.18431 0.35396 0.0
N933 N 0.61796 0.22658 0.33282 0.0
N934 N 0.60245 0.16596 0.26926 0.0
C935 C 0.60494 0.19456 0.21933 0.0
C936 C 0.6135 0.22741 0.25363 0.0
C937 C 0.39576 0.80049 0.18091 0.0
C938 C 0.38803 0.8341 0.15226 0.0
C939 C 0.38065 0.77102 0.1906 0.0
C940 C 0.35716 0.77382 0.17187 0.0
H941 H 0.4137 0.7967 0.19609 0.0
H942 H 0.38751 0.74583 0.2128 0.0
S943 S 0.32787 0.85598 0.09642 0.0
N944 N 0.35507 0.86849 0.10644 0.0
N945 N 0.32671 0.81324 0.12444 0.0
C946 C 0.34911 0.80731 0.14354 0.0
C947 C 0.3645 0.83739 0.13389 0.0
C948 C 0.62952 0.47013 0.38145 0.0
C949 C 0.63218 0.43723 0.42208 0.0
C950 C 0.61938 0.50005 0.41796 0.0
C951 C 0.61116 0.49822 0.49644 0.0
H952 H 0.63488 0.47256 0.32014 0.0
H953 H 0.61737 0.52447 0.38323 0.0
S954 S 0.61409 0.41786 0.62848 0.0
N955 N 0.62595 0.40434 0.54476 0.0
N956 N 0.60702 0.46054 0.61427 0.0
C957 C 0.61434 0.46565 0.53855 0.0
C958 C 0.62481 0.43518 0.50117 0.0
C959 C 0.35558 0.57443 0.48319 0.0
C960 C 0.35264 0.58145 0.40174 0.0
C961 C 0.36559 0.54226 0.51004 0.0
C962 C 0.37305 0.51541 0.45681 0.0
H963 H 0.34993 0.59382 0.52705 0.0
H964 H 0.3674 0.5385 0.57346 0.0
S965 S 0.369 0.51995 0.23707 0.0
N966 N 0.35787 0.55841 0.26769 0.0
N967 N 0.37668 0.49811 0.31817 0.0
C968 C 0.37026 0.52202 0.37507 0.0
C969 C 0.36012 0.55493 0.3476 0.0
C970 C 0.62945 0.73264 0.68024 0.0
C971 C 0.62111 0.75365 0.74374 0.0
C972 C 0.61733 0.70188 0.6527 0.0
C973 C 0.59622 0.69141 0.6868 0.0
H974 H 0.64533 0.74026 0.65082 0.0
H975 H 0.62405 0.68714 0.60241 0.0
S976 S 0.56733 0.73556 0.85676 0.0
N977 N 0.59079 0.76025 0.84212 0.0
N978 N 0.56802 0.70318 0.78942 0.0
C979 C 0.58801 0.71152 0.75142 0.0
C980 C 0.60044 0.74241 0.78017 0.0
C981 C 0.36765 0.32454 0.72311 0.0
C982 C 0.37415 0.32806 0.64299 0.0
C983 C 0.35639 0.29319 0.75142 0.0
C984 C 0.35112 0.26362 0.7012 0.0
H985 H 0.37142 0.34611 0.76485 0.0
H986 H 0.35184 0.29221 0.81366 0.0
S987 S 0.36478 0.25842 0.48633 0.0
N988 N 0.37457 0.29864 0.51367 0.0
N989 N 0.35355 0.24005 0.56686 0.0
C990 C 0.35743 0.26677 0.62081 0.0
C991 C 0.36887 0.2988 0.59182 0.0
C992 C 0.12925 0.97372 0.37666 0.0
C993 C 0.1284 0.93904 0.41135 0.0
C994 C 0.11663 1.00258 0.4077 0.0
C995 C 0.1025 0.99815 0.47478 0.0
H996 H 0.14015 0.97903 0.32586 0.0
H997 H 0.11819 0.02869 0.37895 0.0
S998 S 0.09319 0.9124 0.58595 0.0
N999 N 0.1115 0.90166 0.51526 0.0
N1000 N 0.08778 0.95578 0.57345 0.0
C1001 C 0.10107 0.96343 0.50924 0.0
C1002 C 0.11398 0.93397 0.47759 0.0
C1003 C 0.88481 0.06617 0.40088 0.0
C1004 C 0.87892 0.02919 0.394 0.0
C1005 C 0.86844 0.0933 0.38822 0.0
C1006 C 0.84548 0.08453 0.36896 0.0
H1007 H 0.90211 0.07436 0.41762 0.0
H1008 H 0.87371 0.12131 0.39557 0.0
S1009 S 0.82168 0.99212 0.33553 0.0
N1010 N 0.84877 0.98554 0.36046 0.0
N1011 N 0.8181 0.03633 0.33765 0.0
C1012 C 0.83951 0.04776 0.35951 0.0
C1013 C 0.8562 0.02018 0.37168 0.0
C1014 C 0.12123 0.2002 0.61795 0.0
C1015 C 0.09898 0.19902 0.65053 0.0
C1016 C 0.13586 0.2302 0.63015 0.0
C1017 C 0.1289 0.2601 0.67587 0.0
H1018 H 0.12724 0.17819 0.58124 0.0
H1019 H 0.15274 0.22993 0.603 0.0
S1020 S 0.07287 0.26889 0.7796 0.0
N1021 N 0.07112 0.2294 0.73421 0.0
N1022 N 0.0985 0.28557 0.75718 0.0
C1023 C 0.10687 0.25876 0.7105 0.0
C1024 C 0.09197 0.2283 0.69785 0.0
C1025 C 0.86755 0.81294 0.751 0.0
C1026 C 0.86513 0.78051 0.70734 0.0
C1027 C 0.87756 0.84411 0.71713 0.0
C1028 C 0.88545 0.84397 0.63842 0.0
H1029 H 0.86098 0.81472 0.81094 0.0
H1030 H 0.87818 0.86886 0.75158 0.0
S1031 S 0.88605 0.7651 0.50206 0.0
N1032 N 0.87368 0.74959 0.58342 0.0
N1033 N 0.89225 0.80799 0.52023 0.0
C1034 C 0.88424 0.81134 0.59559 0.0
C1035 C 0.87418 0.77965 0.62995 0.0
C1036 C 0.09833 0.48914 0.87734 0.0
C1037 C 0.10612 0.51986 0.91968 0.0
C1038 C 0.11277 0.45957 0.86337 0.0
C1039 C 0.13563 0.45943 0.89121 0.0
H1040 H 0.08088 0.48778 0.85475 0.0
H1041 H 0.10593 0.43672 0.8303 0.0
S1042 S 0.16422 0.53302 1.00727 0.0
N1043 N 0.13808 0.54807 0.99022 0.0
N1044 N 0.16518 0.49283 0.96477 0.0
C1045 C 0.14359 0.49003 0.9339 0.0
C1046 C 0.12889 0.52012 0.94783 0.0
C1047 C 0.85024 0.55761 0.92376 0.0
C1048 C 0.85778 0.5889 0.88327 0.0
C1049 C 0.86527 0.52949 0.94142 0.0
C1050 C 0.88857 0.53126 0.91945 0.0
H1051 H 0.83244 0.55446 0.94167 0.0
H1052 H 0.85838 0.50596 0.97189 0.0
S1053 S 0.91751 0.60797 0.81615 0.0
N1054 N 0.89045 0.62061 0.82433 0.0
N1055 N 0.9188 0.56755 0.85751 0.0
C1056 C 0.89656 0.56266 0.88033 0.0
C1057 C 0.88118 0.59154 0.86246 0.0
C1058 C 0.14604 0.73359 0.20334 0.0
C1059 C 0.14021 0.7694 0.18311 0.0
C1060 C 0.13102 0.70429 0.18751 0.0
C1061 C 0.10994 0.70955 0.1484 0.0
H1062 H 0.16236 0.72816 0.23195 0.0
H1063 H 0.13616 0.67726 0.20431 0.0
S1064 S 0.08618 0.79758 0.08437 0.0
N1065 N 0.11134 0.80829 0.12445 0.0
N1066 N 0.08364 0.75313 0.09171 0.0
C1067 C 0.10382 0.7451 0.12824 0.0
C1068 C 0.11879 0.77505 0.14641 0.0
C1069 C 0.874 0.27653 0.19004 0.0
C1070 C 0.85074 0.2814 0.16962 0.0
C1071 C 0.89047 0.30406 0.17851 0.0
C1072 C 0.88447 0.33785 0.14618 0.0
H1073 H 0.87966 0.25117 0.21522 0.0
H1074 H 0.90811 0.29863 0.19527 0.0
S1075 S 0.82576 0.36466 0.08242 0.0
N1076 N 0.8225 0.32285 0.11515 0.0
N1077 N 0.85336 0.37449 0.09362 0.0
C1078 C 0.86122 0.34316 0.12544 0.0
C1079 C 0.84442 0.31502 0.13705 0.0
loop_
_geom_bond_atom_site_label_1
_geom_bond_atom_site_label_2
_geom_bond_distance
_geom_bond_site_symmetry_2
_ccdc_geom_bond_type
O0 Tb1 2.292 . S
O0 C3 1.255 . S
Tb1 O0 2.292 . S
Tb1 O17 2.326 . S
Tb1 O19 2.500 . S
Tb1 O20 2.473 . S
Tb1 O23 2.324 . S
Eu2 O6 2.292 . S
Eu2 C7 2.852 . S
Eu2 O18 2.324 1_556 S
Eu2 O22 2.326 . S
Eu2 O24 2.500 . S
Eu2 O25 2.473 . S
C3 O0 1.255 . S
C3 O4 1.247 . S
O4 C3 1.247 . S
C5 O17 1.242 . S
C5 O18 1.258 . S
O6 Eu2 2.292 . S
O6 C8 1.255 . S
C7 Eu2 2.852 . S
C7 C11 1.503 . S
C7 O24 1.273 . S
C7 O25 1.257 . S
C8 O6 1.255 . S
C8 O9 1.247 1_556 S
O9 C8 1.247 1_554 S
C10 O22 1.242 1_554 S
C10 O23 1.258 . S
C11 C7 1.503 . S
C11 C12 1.379 . S
C11 C16 1.392 . S
C12 C11 1.379 . S
C12 C13 1.404 . S
C12 H26 0.929 . S
C13 C12 1.404 . S
C13 C14 1.389 . S
C14 C13 1.389 . S
C14 C15 1.399 . S
C14 H27 0.931 . S
C15 C14 1.399 . S
C15 C16 1.390 . S
C16 C11 1.392 . S
C16 C15 1.390 . S
C16 H28 0.929 . S
O17 Tb1 2.326 . S
O17 C5 1.242 . S
O18 Eu2 2.324 1_554 S
O18 C5 1.258 . S
O19 Tb1 2.500 . S
O19 C21 1.273 . S
O20 Tb1 2.473 . S
O20 C21 1.257 . S
C21 O19 1.273 . S
C21 O20 1.257 . S
O22 Eu2 2.326 . S
O22 C10 1.242 1_556 S
O23 Tb1 2.324 . S
O23 C10 1.258 . S
O24 Eu2 2.500 . S
O24 C7 1.273 . S
O25 Eu2 2.473 . S
O25 C7 1.257 . S
H26 C12 0.929 . S
H27 C14 0.931 . S
H28 C16 0.929 . S
O29 Tb30 2.292 . S
O29 C32 1.255 . S
Tb30 O29 2.292 . S
Tb30 O46 2.326 . S
Tb30 O48 2.500 . S
Tb30 O49 2.473 . S
Tb30 O52 2.324 . S
Eu31 O35 2.292 . S
Eu31 C36 2.852 . S
Eu31 O47 2.324 1_556 S
Eu31 O51 2.326 . S
Eu31 O53 2.500 . S
Eu31 O54 2.473 . S
C32 O29 1.255 . S
C32 O33 1.247 . S
O33 C32 1.247 . S
C34 O46 1.242 . S
C34 O47 1.258 . S
O35 Eu31 2.292 . S
O35 C37 1.255 . S
C36 Eu31 2.852 . S
C36 C40 1.503 . S
C36 O53 1.273 . S
C36 O54 1.257 . S
C37 O35 1.255 . S
C37 O38 1.247 1_556 S
O38 C37 1.247 1_554 S
C39 O51 1.242 1_554 S
C39 O52 1.258 . S
C40 C36 1.503 . S
C40 C41 1.379 . S
C40 C45 1.392 . S
C41 C40 1.379 . S
C41 C42 1.404 . S
C41 H55 0.929 . S
C42 C41 1.404 . S
C42 C43 1.389 . S
C43 C42 1.389 . S
C43 C44 1.399 . S
C43 H56 0.931 . S
C44 C43 1.399 . S
C44 C45 1.390 . S
C45 C40 1.392 . S
C45 C44 1.390 . S
C45 H57 0.929 . S
O46 Tb30 2.326 . S
O46 C34 1.242 . S
O47 Eu31 2.324 1_554 S
O47 C34 1.258 . S
O48 Tb30 2.500 . S
O48 C50 1.273 . S
O49 Tb30 2.473 . S
O49 C50 1.257 . S
C50 O48 1.273 . S
C50 O49 1.257 . S
O51 Eu31 2.326 . S
O51 C39 1.242 1_556 S
O52 Tb30 2.324 . S
O52 C39 1.258 . S
O53 Eu31 2.500 . S
O53 C36 1.273 . S
O54 Eu31 2.473 . S
O54 C36 1.257 . S
H55 C41 0.929 . S
H56 C43 0.931 . S
H57 C45 0.929 . S
O58 Tb59 2.292 . S
O58 C61 1.255 . S
Tb59 O58 2.292 . S
Tb59 O75 2.326 . S
Tb59 O77 2.500 . S
Tb59 O78 2.473 . S
Tb59 O81 2.324 . S
Eu60 O64 2.292 . S
Eu60 C65 2.852 . S
Eu60 O76 2.324 . S
Eu60 O80 2.326 . S
Eu60 O82 2.500 . S
Eu60 O83 2.473 . S
C61 O58 1.255 . S
C61 O62 1.247 . S
O62 C61 1.247 . S
C63 O75 1.242 . S
C63 O76 1.258 . S
O64 Eu60 2.292 . S
O64 C66 1.255 . S
C65 Eu60 2.852 . S
C65 C69 1.503 . S
C65 O82 1.273 . S
C65 O83 1.257 . S
C66 O64 1.255 . S
C66 O67 1.247 . S
O67 C66 1.247 . S
C68 O80 1.242 . S
C68 O81 1.258 . S
C69 C65 1.503 . S
C69 C70 1.379 . S
C69 C74 1.392 1_554 S
C70 C69 1.379 . S
C70 C71 1.404 . S
C70 H84 0.929 . S
C71 C70 1.404 . S
C71 C72 1.389 1_554 S
C72 C71 1.389 1_556 S
C72 C73 1.399 . S
C72 H85 0.931 . S
C73 C72 1.399 . S
C73 C74 1.390 . S
C74 C69 1.392 1_556 S
C74 C73 1.390 . S
C74 H86 0.929 . S
O75 Tb59 2.326 . S
O75 C63 1.242 . S
O76 Eu60 2.324 . S
O76 C63 1.258 . S
O77 Tb59 2.500 . S
O77 C79 1.273 . S
O78 Tb59 2.473 . S
O78 C79 1.257 . S
C79 O77 1.273 . S
C79 O78 1.257 . S
O80 Eu60 2.326 . S
O80 C68 1.242 . S
O81 Tb59 2.324 . S
O81 C68 1.258 . S
O82 Eu60 2.500 . S
O82 C65 1.273 . S
O83 Eu60 2.473 . S
O83 C65 1.257 . S
H84 C70 0.929 . S
H85 C72 0.931 . S
H86 C74 0.929 . S
O87 Tb88 2.292 . S
O87 C90 1.255 . S
Tb88 O87 2.292 . S
Tb88 O104 2.326 . S
Tb88 O106 2.500 . S
Tb88 O107 2.473 . S
Tb88 O110 2.324 . S
Eu89 O93 2.292 . S
Eu89 C94 2.852 . S
Eu89 O105 2.324 . S
Eu89 O109 2.326 . S
Eu89 O111 2.500 . S
Eu89 O112 2.473 . S
C90 O87 1.255 . S
C90 O91 1.247 . S
O91 C90 1.247 . S
C92 O104 1.242 . S
C92 O105 1.258 . S
O93 Eu89 2.292 . S
O93 C95 1.255 . S
C94 Eu89 2.852 . S
C94 C98 1.503 . S
C94 O111 1.273 . S
C94 O112 1.257 . S
C95 O93 1.255 . S
C95 O96 1.247 . S
O96 C95 1.247 . S
C97 O109 1.242 . S
C97 O110 1.258 . S
C98 C94 1.503 . S
C98 C99 1.379 . S
C98 C103 1.392 1_554 S
C99 C98 1.379 . S
C99 C100 1.404 . S
C99 H113 0.929 . S
C100 C99 1.404 . S
C100 C101 1.389 1_554 S
C101 C100 1.389 1_556 S
C101 C102 1.399 . S
C101 H114 0.931 . S
C102 C101 1.399 . S
C102 C103 1.390 . S
C103 C98 1.392 1_556 S
C103 C102 1.390 . S
C103 H115 0.929 . S
O104 Tb88 2.326 . S
O104 C92 1.242 . S
O105 Eu89 2.324 . S
O105 C92 1.258 . S
O106 Tb88 2.500 . S
O106 C108 1.273 . S
O107 Tb88 2.473 . S
O107 C108 1.257 . S
C108 O106 1.273 . S
C108 O107 1.257 . S
O109 Eu89 2.326 . S
O109 C97 1.242 . S
O110 Tb88 2.324 . S
O110 C97 1.258 . S
O111 Eu89 2.500 . S
O111 C94 1.273 . S
O112 Eu89 2.473 . S
O112 C94 1.257 . S
H113 C99 0.929 . S
H114 C101 0.931 . S
H115 C103 0.929 . S
O116 Tb117 2.292 . S
O116 C119 1.255 . S
Tb117 O116 2.292 . S
Tb117 O133 2.326 . S
Tb117 O135 2.500 . S
Tb117 O136 2.473 . S
Tb117 O139 2.324 . S
Eu118 O122 2.292 . S
Eu118 C123 2.852 . S
Eu118 O134 2.324 . S
Eu118 O138 2.326 . S
Eu118 O140 2.500 . S
Eu118 O141 2.473 . S
C119 O116 1.255 . S
C119 O120 1.247 . S
O120 C119 1.247 . S
C121 O133 1.242 . S
C121 O134 1.258 . S
O122 Eu118 2.292 . S
O122 C124 1.255 . S
C123 Eu118 2.852 . S
C123 C127 1.503 . S
C123 O140 1.273 . S
C123 O141 1.257 . S
C124 O122 1.255 . S
C124 O125 1.247 . S
O125 C124 1.247 . S
C126 O138 1.242 . S
C126 O139 1.258 . S
C127 C123 1.503 . S
C127 C128 1.379 . S
C127 C132 1.392 . S
C128 C127 1.379 . S
C128 C129 1.404 . S
C128 H142 0.929 . S
C129 C128 1.404 . S
C129 C130 1.389 . S
C130 C129 1.389 . S
C130 C131 1.399 . S
C130 H143 0.931 . S
C131 C130 1.399 . S
C131 C132 1.390 . S
C132 C127 1.392 . S
C132 C131 1.390 . S
C132 H144 0.929 . S
O133 Tb117 2.326 . S
O133 C121 1.242 . S
O134 Eu118 2.324 . S
O134 C121 1.258 . S
O135 Tb117 2.500 . S
O135 C137 1.273 . S
O136 Tb117 2.473 . S
O136 C137 1.257 . S
C137 O135 1.273 . S
C137 O136 1.257 . S
O138 Eu118 2.326 . S
O138 C126 1.242 . S
O139 Tb117 2.324 . S
O139 C126 1.258 . S
O140 Eu118 2.500 . S
O140 C123 1.273 . S
O141 Eu118 2.473 . S
O141 C123 1.257 . S
H142 C128 0.929 . S
H143 C130 0.931 . S
H144 C132 0.929 . S
O145 Tb146 2.292 . S
O145 C148 1.255 . S
Tb146 O145 2.292 . S
Tb146 O162 2.326 . S
Tb146 O164 2.500 . S
Tb146 O165 2.473 . S
Tb146 O168 2.324 . S
Eu147 O151 2.292 . S
Eu147 C152 2.852 . S
Eu147 O163 2.324 . S
Eu147 O167 2.326 . S
Eu147 O169 2.500 . S
Eu147 O170 2.473 . S
C148 O145 1.255 . S
C148 O149 1.247 . S
O149 C148 1.247 . S
C150 O162 1.242 . S
C150 O163 1.258 . S
O151 Eu147 2.292 . S
O151 C153 1.255 . S
C152 Eu147 2.852 . S
C152 C156 1.503 . S
C152 O169 1.273 . S
C152 O170 1.257 . S
C153 O151 1.255 . S
C153 O154 1.247 . S
O154 C153 1.247 . S
C155 O167 1.242 . S
C155 O168 1.258 . S
C156 C152 1.503 . S
C156 C157 1.379 . S
C156 C161 1.392 . S
C157 C156 1.379 . S
C157 C158 1.404 . S
C157 H171 0.929 . S
C158 C157 1.404 . S
C158 C159 1.389 . S
C159 C158 1.389 . S
C159 C160 1.399 . S
C159 H172 0.931 . S
C160 C159 1.399 . S
C160 C161 1.390 . S
C161 C156 1.392 . S
C161 C160 1.390 . S
C161 H173 0.929 . S
O162 Tb146 2.326 . S
O162 C150 1.242 . S
O163 Eu147 2.324 . S
O163 C150 1.258 . S
O164 Tb146 2.500 . S
O164 C166 1.273 . S
O165 Tb146 2.473 . S
O165 C166 1.257 . S
C166 O164 1.273 . S
C166 O165 1.257 . S
O167 Eu147 2.326 . S
O167 C155 1.242 . S
O168 Tb146 2.324 . S
O168 C155 1.258 . S
O169 Eu147 2.500 . S
O169 C152 1.273 . S
O170 Eu147 2.473 . S
O170 C152 1.257 . S
H171 C157 0.929 . S
H172 C159 0.931 . S
H173 C161 0.929 . S
O174 Tb175 2.292 . S
O174 C177 1.255 . S
Tb175 O174 2.292 . S
Tb175 O191 2.326 . S
Tb175 O193 2.500 1_556 S
Tb175 O194 2.473 . S
Tb175 O197 2.324 . S
Eu176 O180 2.292 . S
Eu176 C181 2.852 . S
Eu176 O192 2.324 . S
Eu176 O196 2.326 . S
Eu176 O198 2.500 . S
Eu176 O199 2.473 . S
C177 O174 1.255 . S
C177 O178 1.247 . S
O178 C177 1.247 . S
C179 O191 1.242 . S
C179 O192 1.258 . S
O180 Eu176 2.292 . S
O180 C182 1.255 . S
C181 Eu176 2.852 . S
C181 C185 1.503 . S
C181 O198 1.273 . S
C181 O199 1.257 . S
C182 O180 1.255 . S
C182 O183 1.247 . S
O183 C182 1.247 . S
C184 O196 1.242 . S
C184 O197 1.258 . S
C185 C181 1.503 . S
C185 C186 1.379 . S
C185 C190 1.392 . S
C186 C185 1.379 . S
C186 C187 1.404 . S
C186 H200 0.929 . S
C187 C186 1.404 . S
C187 C188 1.389 . S
C188 C187 1.389 . S
C188 C189 1.399 . S
C188 H201 0.931 . S
C189 C188 1.399 . S
C189 C190 1.390 . S
C190 C185 1.392 . S
C190 C189 1.390 . S
C190 H202 0.929 . S
O191 Tb175 2.326 . S
O191 C179 1.242 . S
O192 Eu176 2.324 . S
O192 C179 1.258 . S
O193 Tb175 2.500 1_554 S
O193 C195 1.273 . S
O194 Tb175 2.473 . S
O194 C195 1.257 1_556 S
C195 O193 1.273 . S
C195 O194 1.257 1_554 S
O196 Eu176 2.326 . S
O196 C184 1.242 . S
O197 Tb175 2.324 . S
O197 C184 1.258 . S
O198 Eu176 2.500 . S
O198 C181 1.273 . S
O199 Eu176 2.473 . S
O199 C181 1.257 . S
H200 C186 0.929 . S
H201 C188 0.931 . S
H202 C190 0.929 . S
O203 Tb204 2.292 . S
O203 C206 1.255 . S
Tb204 O203 2.292 . S
Tb204 O220 2.326 . S
Tb204 O222 2.500 1_556 S
Tb204 O223 2.473 . S
Tb204 O226 2.324 . S
Eu205 O209 2.292 . S
Eu205 C210 2.852 . S
Eu205 O221 2.324 . S
Eu205 O225 2.326 . S
Eu205 O227 2.500 . S
Eu205 O228 2.473 . S
C206 O203 1.255 . S
C206 O207 1.247 . S
O207 C206 1.247 . S
C208 O220 1.242 . S
C208 O221 1.258 . S
O209 Eu205 2.292 . S
O209 C211 1.255 . S
C210 Eu205 2.852 . S
C210 C214 1.503 . S
C210 O227 1.273 . S
C210 O228 1.257 . S
C211 O209 1.255 . S
C211 O212 1.247 . S
O212 C211 1.247 . S
C213 O225 1.242 . S
C213 O226 1.258 . S
C214 C210 1.503 . S
C214 C215 1.379 . S
C214 C219 1.392 . S
C215 C214 1.379 . S
C215 C216 1.404 . S
C215 H229 0.929 . S
C216 C215 1.404 . S
C216 C217 1.389 . S
C217 C216 1.389 . S
C217 C218 1.399 . S
C217 H230 0.931 . S
C218 C217 1.399 . S
C218 C219 1.390 . S
C219 C214 1.392 . S
C219 C218 1.390 . S
C219 H231 0.929 . S
O220 Tb204 2.326 . S
O220 C208 1.242 . S
O221 Eu205 2.324 . S
O221 C208 1.258 . S
O222 Tb204 2.500 1_554 S
O222 C224 1.273 . S
O223 Tb204 2.473 . S
O223 C224 1.257 1_556 S
C224 O222 1.273 . S
C224 O223 1.257 1_554 S
O225 Eu205 2.326 . S
O225 C213 1.242 . S
O226 Tb204 2.324 . S
O226 C213 1.258 . S
O227 Eu205 2.500 . S
O227 C210 1.273 . S
O228 Eu205 2.473 . S
O228 C210 1.257 . S
H229 C215 0.929 . S
H230 C217 0.931 . S
H231 C219 0.929 . S
O232 Tb233 2.292 . S
O232 C235 1.255 . S
Tb233 O232 2.292 . S
Tb233 O249 2.326 . S
Tb233 O251 2.500 . S
Tb233 O252 2.473 . S
Tb233 O255 2.324 . S
Eu234 O238 2.292 . S
Eu234 C239 2.852 . S
Eu234 O250 2.324 . S
Eu234 O254 2.326 . S
Eu234 O256 2.500 . S
Eu234 O257 2.473 . S
C235 O232 1.255 . S
C235 O236 1.247 . S
O236 C235 1.247 . S
C237 O249 1.242 . S
C237 O250 1.258 . S
O238 Eu234 2.292 . S
O238 C240 1.255 . S
C239 Eu234 2.852 . S
C239 C243 1.503 . S
C239 O256 1.273 . S
C239 O257 1.257 . S
C240 O238 1.255 . S
C240 O241 1.247 . S
O241 C240 1.247 . S
C242 O254 1.242 . S
C242 O255 1.258 . S
C243 C239 1.503 . S
C243 C244 1.379 . S
C243 C248 1.392 . S
C244 C243 1.379 . S
C244 C245 1.404 . S
C244 H258 0.929 . S
C245 C244 1.404 . S
C245 C246 1.389 . S
C246 C245 1.389 . S
C246 C247 1.399 . S
C246 H259 0.931 . S
C247 C246 1.399 . S
C247 C248 1.390 . S
C248 C243 1.392 . S
C248 C247 1.390 . S
C248 H260 0.929 . S
O249 Tb233 2.326 . S
O249 C237 1.242 . S
O250 Eu234 2.324 . S
O250 C237 1.258 . S
O251 Tb233 2.500 . S
O251 C253 1.273 . S
O252 Tb233 2.473 . S
O252 C253 1.257 . S
C253 O251 1.273 . S
C253 O252 1.257 . S
O254 Eu234 2.326 . S
O254 C242 1.242 . S
O255 Tb233 2.324 . S
O255 C242 1.258 . S
O256 Eu234 2.500 . S
O256 C239 1.273 . S
O257 Eu234 2.473 . S
O257 C239 1.257 . S
H258 C244 0.929 . S
H259 C246 0.931 . S
H260 C248 0.929 . S
O261 Tb262 2.292 . S
O261 C264 1.255 . S
Tb262 O261 2.292 . S
Tb262 O278 2.326 . S
Tb262 O280 2.500 . S
Tb262 O281 2.473 . S
Tb262 O284 2.324 . S
Eu263 O267 2.292 . S
Eu263 C268 2.852 . S
Eu263 O279 2.324 . S
Eu263 O283 2.326 . S
Eu263 O285 2.500 . S
Eu263 O286 2.473 . S
C264 O261 1.255 . S
C264 O265 1.247 . S
O265 C264 1.247 . S
C266 O278 1.242 . S
C266 O279 1.258 . S
O267 Eu263 2.292 . S
O267 C269 1.255 . S
C268 Eu263 2.852 . S
C268 C272 1.503 . S
C268 O285 1.273 . S
C268 O286 1.257 . S
C269 O267 1.255 . S
C269 O270 1.247 . S
O270 C269 1.247 . S
C271 O283 1.242 . S
C271 O284 1.258 . S
C272 C268 1.503 . S
C272 C273 1.379 . S
C272 C277 1.392 . S
C273 C272 1.379 . S
C273 C274 1.404 . S
C273 H287 0.929 . S
C274 C273 1.404 . S
C274 C275 1.389 . S
C275 C274 1.389 . S
C275 C276 1.399 . S
C275 H288 0.931 . S
C276 C275 1.399 . S
C276 C277 1.390 . S
C277 C272 1.392 . S
C277 C276 1.390 . S
C277 H289 0.929 . S
O278 Tb262 2.326 . S
O278 C266 1.242 . S
O279 Eu263 2.324 . S
O279 C266 1.258 . S
O280 Tb262 2.500 . S
O280 C282 1.273 . S
O281 Tb262 2.473 . S
O281 C282 1.257 . S
C282 O280 1.273 . S
C282 O281 1.257 . S
O283 Eu263 2.326 . S
O283 C271 1.242 . S
O284 Tb262 2.324 . S
O284 C271 1.258 . S
O285 Eu263 2.500 . S
O285 C268 1.273 . S
O286 Eu263 2.473 . S
O286 C268 1.257 . S
H287 C273 0.929 . S
H288 C275 0.931 . S
H289 C277 0.929 . S
O290 Tb291 2.292 . S
O290 C293 1.255 . S
Tb291 O290 2.292 . S
Tb291 O307 2.326 . S
Tb291 O309 2.500 1_556 S
Tb291 O310 2.473 . S
Tb291 O313 2.324 . S
Eu292 O296 2.292 . S
Eu292 C297 2.852 . S
Eu292 O308 2.324 . S
Eu292 O312 2.326 . S
Eu292 O314 2.500 . S
Eu292 O315 2.473 . S
C293 O290 1.255 . S
C293 O294 1.247 . S
O294 C293 1.247 . S
C295 O307 1.242 . S
C295 O308 1.258 . S
O296 Eu292 2.292 . S
O296 C298 1.255 . S
C297 Eu292 2.852 . S
C297 C301 1.503 . S
C297 O314 1.273 . S
C297 O315 1.257 . S
C298 O296 1.255 . S
C298 O299 1.247 . S
O299 C298 1.247 . S
C300 O312 1.242 . S
C300 O313 1.258 . S
C301 C297 1.503 . S
C301 C302 1.379 . S
C301 C306 1.392 . S
C302 C301 1.379 . S
C302 C303 1.404 . S
C302 H316 0.929 . S
C303 C302 1.404 . S
C303 C304 1.389 . S
C304 C303 1.389 . S
C304 C305 1.399 . S
C304 H317 0.931 . S
C305 C304 1.399 . S
C305 C306 1.390 . S
C306 C301 1.392 . S
C306 C305 1.390 . S
C306 H318 0.929 . S
O307 Tb291 2.326 . S
O307 C295 1.242 . S
O308 Eu292 2.324 . S
O308 C295 1.258 . S
O309 Tb291 2.500 1_554 S
O309 C311 1.273 . S
O310 Tb291 2.473 . S
O310 C311 1.257 1_556 S
C311 O309 1.273 . S
C311 O310 1.257 1_554 S
O312 Eu292 2.326 . S
O312 C300 1.242 . S
O313 Tb291 2.324 . S
O313 C300 1.258 . S
O314 Eu292 2.500 . S
O314 C297 1.273 . S
O315 Eu292 2.473 . S
O315 C297 1.257 . S
H316 C302 0.929 . S
H317 C304 0.931 . S
H318 C306 0.929 . S
O319 Tb320 2.292 . S
O319 C322 1.255 . S
Tb320 O319 2.292 . S
Tb320 O336 2.326 . S
Tb320 O338 2.500 1_556 S
Tb320 O339 2.473 . S
Tb320 O342 2.324 . S
Eu321 O325 2.292 . S
Eu321 C326 2.852 . S
Eu321 O337 2.324 . S
Eu321 O341 2.326 . S
Eu321 O343 2.500 . S
Eu321 O344 2.473 . S
C322 O319 1.255 . S
C322 O323 1.247 . S
O323 C322 1.247 . S
C324 O336 1.242 . S
C324 O337 1.258 . S
O325 Eu321 2.292 . S
O325 C327 1.255 . S
C326 Eu321 2.852 . S
C326 C330 1.503 . S
C326 O343 1.273 . S
C326 O344 1.257 . S
C327 O325 1.255 . S
C327 O328 1.247 . S
O328 C327 1.247 . S
C329 O341 1.242 . S
C329 O342 1.258 . S
C330 C326 1.503 . S
C330 C331 1.379 . S
C330 C335 1.392 . S
C331 C330 1.379 . S
C331 C332 1.404 . S
C331 H345 0.929 . S
C332 C331 1.404 . S
C332 C333 1.389 . S
C333 C332 1.389 . S
C333 C334 1.399 . S
C333 H346 0.931 . S
C334 C333 1.399 . S
C334 C335 1.390 . S
C335 C330 1.392 . S
C335 C334 1.390 . S
C335 H347 0.929 . S
O336 Tb320 2.326 . S
O336 C324 1.242 . S
O337 Eu321 2.324 . S
O337 C324 1.258 . S
O338 Tb320 2.500 1_554 S
O338 C340 1.273 . S
O339 Tb320 2.473 . S
O339 C340 1.257 1_556 S
C340 O338 1.273 . S
C340 O339 1.257 1_554 S
O341 Eu321 2.326 . S
O341 C329 1.242 . S
O342 Tb320 2.324 . S
O342 C329 1.258 . S
O343 Eu321 2.500 . S
O343 C326 1.273 . S
O344 Eu321 2.473 . S
O344 C326 1.257 . S
H345 C331 0.929 . S
H346 C333 0.931 . S
H347 C335 0.929 . S
O348 Tb349 2.292 . S
O348 C351 1.255 . S
Tb349 O348 2.292 . S
Tb349 O365 2.326 . S
Tb349 O367 2.500 . S
Tb349 O368 2.473 . S
Tb349 O371 2.324 . S
Eu350 O354 2.292 . S
Eu350 C355 2.852 . S
Eu350 O366 2.324 1_556 S
Eu350 O370 2.326 . S
Eu350 O372 2.500 . S
Eu350 O373 2.473 . S
C351 O348 1.255 . S
C351 O352 1.247 . S
O352 C351 1.247 . S
C353 O365 1.242 . S
C353 O366 1.258 . S
O354 Eu350 2.292 . S
O354 C356 1.255 . S
C355 Eu350 2.852 . S
C355 C359 1.503 . S
C355 O372 1.273 . S
C355 O373 1.257 . S
C356 O354 1.255 . S
C356 O357 1.247 1_556 S
O357 C356 1.247 1_554 S
C358 O370 1.242 1_554 S
C358 O371 1.258 . S
C359 C355 1.503 . S
C359 C360 1.379 . S
C359 C364 1.392 . S
C360 C359 1.379 . S
C360 C361 1.404 . S
C360 H374 0.929 . S
C361 C360 1.404 . S
C361 C362 1.389 . S
C362 C361 1.389 . S
C362 C363 1.399 . S
C362 H375 0.931 . S
C363 C362 1.399 . S
C363 C364 1.390 . S
C364 C359 1.392 . S
C364 C363 1.390 . S
C364 H376 0.929 . S
O365 Tb349 2.326 . S
O365 C353 1.242 . S
O366 Eu350 2.324 1_554 S
O366 C353 1.258 . S
O367 Tb349 2.500 . S
O367 C369 1.273 . S
O368 Tb349 2.473 . S
O368 C369 1.257 . S
C369 O367 1.273 . S
C369 O368 1.257 . S
O370 Eu350 2.326 . S
O370 C358 1.242 1_556 S
O371 Tb349 2.324 . S
O371 C358 1.258 . S
O372 Eu350 2.500 . S
O372 C355 1.273 . S
O373 Eu350 2.473 . S
O373 C355 1.257 . S
H374 C360 0.929 . S
H375 C362 0.931 . S
H376 C364 0.929 . S
O377 Tb378 2.292 . S
O377 C380 1.255 . S
Tb378 O377 2.292 . S
Tb378 O394 2.326 . S
Tb378 O396 2.500 . S
Tb378 O397 2.473 . S
Tb378 O400 2.324 . S
Eu379 O383 2.292 . S
Eu379 C384 2.852 . S
Eu379 O395 2.324 1_556 S
Eu379 O399 2.326 . S
Eu379 O401 2.500 . S
Eu379 O402 2.473 . S
C380 O377 1.255 . S
C380 O381 1.247 . S
O381 C380 1.247 . S
C382 O394 1.242 . S
C382 O395 1.258 . S
O383 Eu379 2.292 . S
O383 C385 1.255 . S
C384 Eu379 2.852 . S
C384 C388 1.503 . S
C384 O401 1.273 . S
C384 O402 1.257 . S
C385 O383 1.255 . S
C385 O386 1.247 1_556 S
O386 C385 1.247 1_554 S
C387 O399 1.242 1_554 S
C387 O400 1.258 . S
C388 C384 1.503 . S
C388 C389 1.379 . S
C388 C393 1.392 . S
C389 C388 1.379 . S
C389 C390 1.404 . S
C389 H403 0.929 . S
C390 C389 1.404 . S
C390 C391 1.389 . S
C391 C390 1.389 . S
C391 C392 1.399 . S
C391 H404 0.931 . S
C392 C391 1.399 . S
C392 C393 1.390 . S
C393 C388 1.392 . S
C393 C392 1.390 . S
C393 H405 0.929 . S
O394 Tb378 2.326 . S
O394 C382 1.242 . S
O395 Eu379 2.324 1_554 S
O395 C382 1.258 . S
O396 Tb378 2.500 . S
O396 C398 1.273 . S
O397 Tb378 2.473 . S
O397 C398 1.257 . S
C398 O396 1.273 . S
C398 O397 1.257 . S
O399 Eu379 2.326 . S
O399 C387 1.242 1_556 S
O400 Tb378 2.324 . S
O400 C387 1.258 . S
O401 Eu379 2.500 . S
O401 C384 1.273 . S
O402 Eu379 2.473 . S
O402 C384 1.257 . S
H403 C389 0.929 . S
H404 C391 0.931 . S
H405 C393 0.929 . S
O406 Tb407 2.292 . S
O406 C409 1.255 . S
Tb407 O406 2.292 . S
Tb407 O423 2.326 . S
Tb407 O425 2.500 . S
Tb407 O426 2.473 . S
Tb407 O429 2.324 . S
Eu408 O412 2.292 . S
Eu408 C413 2.852 . S
Eu408 O424 2.324 . S
Eu408 O428 2.326 . S
Eu408 O430 2.500 . S
Eu408 O431 2.473 . S
C409 O406 1.255 . S
C409 O410 1.247 . S
O410 C409 1.247 . S
C411 O423 1.242 . S
C411 O424 1.258 . S
O412 Eu408 2.292 . S
O412 C414 1.255 . S
C413 Eu408 2.852 . S
C413 C417 1.503 . S
C413 O430 1.273 . S
C413 O431 1.257 . S
C414 O412 1.255 . S
C414 O415 1.247 . S
O415 C414 1.247 . S
C416 O428 1.242 . S
C416 O429 1.258 . S
C417 C413 1.503 . S
C417 C418 1.379 . S
C417 C422 1.392 1_554 S
C418 C417 1.379 . S
C418 C419 1.404 . S
C418 H432 0.929 . S
C419 C418 1.404 . S
C419 C420 1.389 1_554 S
C420 C419 1.389 1_556 S
C420 C421 1.399 . S
C420 H433 0.931 . S
C421 C420 1.399 . S
C421 C422 1.390 . S
C422 C417 1.392 1_556 S
C422 C421 1.390 . S
C422 H434 0.929 . S
O423 Tb407 2.326 . S
O423 C411 1.242 . S
O424 Eu408 2.324 . S
O424 C411 1.258 . S
O425 Tb407 2.500 . S
O425 C427 1.273 . S
O426 Tb407 2.473 . S
O426 C427 1.257 . S
C427 O425 1.273 . S
C427 O426 1.257 . S
O428 Eu408 2.326 . S
O428 C416 1.242 . S
O429 Tb407 2.324 . S
O429 C416 1.258 . S
O430 Eu408 2.500 . S
O430 C413 1.273 . S
O431 Eu408 2.473 . S
O431 C413 1.257 . S
H432 C418 0.929 . S
H433 C420 0.931 . S
H434 C422 0.929 . S
O435 Tb436 2.292 . S
O435 C438 1.255 . S
Tb436 O435 2.292 . S
Tb436 O452 2.326 . S
Tb436 O454 2.500 . S
Tb436 O455 2.473 . S
Tb436 O458 2.324 . S
Eu437 O441 2.292 . S
Eu437 C442 2.852 . S
Eu437 O453 2.324 . S
Eu437 O457 2.326 . S
Eu437 O459 2.500 . S
Eu437 O460 2.473 . S
C438 O435 1.255 . S
C438 O439 1.247 . S
O439 C438 1.247 . S
C440 O452 1.242 . S
C440 O453 1.258 . S
O441 Eu437 2.292 . S
O441 C443 1.255 . S
C442 Eu437 2.852 . S
C442 C446 1.503 . S
C442 O459 1.273 . S
C442 O460 1.257 . S
C443 O441 1.255 . S
C443 O444 1.247 . S
O444 C443 1.247 . S
C445 O457 1.242 . S
C445 O458 1.258 . S
C446 C442 1.503 . S
C446 C447 1.379 . S
C446 C451 1.392 1_554 S
C447 C446 1.379 . S
C447 C448 1.404 . S
C447 H461 0.929 . S
C448 C447 1.404 . S
C448 C449 1.389 1_554 S
C449 C448 1.389 1_556 S
C449 C450 1.399 . S
C449 H462 0.931 . S
C450 C449 1.399 . S
C450 C451 1.390 . S
C451 C446 1.392 1_556 S
C451 C450 1.390 . S
C451 H463 0.929 . S
O452 Tb436 2.326 . S
O452 C440 1.242 . S
O453 Eu437 2.324 . S
O453 C440 1.258 . S
O454 Tb436 2.500 . S
O454 C456 1.273 . S
O455 Tb436 2.473 . S
O455 C456 1.257 . S
C456 O454 1.273 . S
C456 O455 1.257 . S
O457 Eu437 2.326 . S
O457 C445 1.242 . S
O458 Tb436 2.324 . S
O458 C445 1.258 . S
O459 Eu437 2.500 . S
O459 C442 1.273 . S
O460 Eu437 2.473 . S
O460 C442 1.257 . S
H461 C447 0.929 . S
H462 C449 0.931 . S
H463 C451 0.929 . S
C464 C465 1.369 . S
C464 C466 1.419 . S
C464 H468 0.930 . S
C465 C464 1.369 . S
C465 C474 1.429 . S
C466 C464 1.419 . S
C466 C467 1.363 . S
C466 H469 0.929 . S
C467 C466 1.363 . S
C467 C473 1.428 . S
H468 C464 0.930 . S
H469 C466 0.929 . S
S470 N471 1.613 . S
S470 N472 1.610 . S
N471 S470 1.613 . S
N471 C474 1.350 . S
N472 S470 1.610 . S
N472 C473 1.351 . S
C473 C467 1.428 . S
C473 N472 1.351 . S
C473 C474 1.434 . S
C474 C465 1.429 . S
C474 N471 1.350 . S
C474 C473 1.434 . S
C475 C476 1.369 . S
C475 C477 1.419 . S
C475 H479 0.930 . S
C476 C475 1.369 . S
C476 C485 1.429 . S
C477 C475 1.419 . S
C477 C478 1.363 . S
C477 H480 0.929 . S
C478 C477 1.363 . S
C478 C484 1.428 . S
H479 C475 0.930 . S
H480 C477 0.929 . S
S481 N482 1.613 . S
S481 N483 1.610 . S
N482 S481 1.613 . S
N482 C485 1.350 . S
N483 S481 1.610 . S
N483 C484 1.351 . S
C484 C478 1.428 . S
C484 N483 1.351 . S
C484 C485 1.434 . S
C485 C476 1.429 . S
C485 N482 1.350 . S
C485 C484 1.434 . S
C486 C487 1.369 . S
C486 C488 1.419 . S
C486 H490 0.930 . S
C487 C486 1.369 . S
C487 C496 1.429 . S
C488 C486 1.419 . S
C488 C489 1.363 . S
C488 H491 0.929 . S
C489 C488 1.363 . S
C489 C495 1.428 . S
H490 C486 0.930 . S
H491 C488 0.929 . S
S492 N493 1.613 . S
S492 N494 1.610 . S
N493 S492 1.613 . S
N493 C496 1.350 . S
N494 S492 1.610 . S
N494 C495 1.351 . S
C495 C489 1.428 . S
C495 N494 1.351 . S
C495 C496 1.434 . S
C496 C487 1.429 . S
C496 N493 1.350 . S
C496 C495 1.434 . S
C497 C498 1.369 . S
C497 C499 1.419 . S
C497 H501 0.930 . S
C498 C497 1.369 . S
C498 C507 1.429 . S
C499 C497 1.419 . S
C499 C500 1.363 . S
C499 H502 0.929 . S
C500 C499 1.363 . S
C500 C506 1.428 . S
H501 C497 0.930 . S
H502 C499 0.929 . S
S503 N504 1.613 . S
S503 N505 1.610 . S
N504 S503 1.613 . S
N504 C507 1.350 . S
N505 S503 1.610 . S
N505 C506 1.351 . S
C506 C500 1.428 . S
C506 N505 1.351 . S
C506 C507 1.434 . S
C507 C498 1.429 . S
C507 N504 1.350 . S
C507 C506 1.434 . S
C508 C509 1.369 . S
C508 C510 1.419 . S
C508 H512 0.930 . S
C509 C508 1.369 . S
C509 C518 1.429 . S
C510 C508 1.419 . S
C510 C511 1.363 . S
C510 H513 0.929 . S
C511 C510 1.363 . S
C511 C517 1.428 . S
H512 C508 0.930 . S
H513 C510 0.929 . S
S514 N515 1.613 . S
S514 N516 1.610 . S
N515 S514 1.613 . S
N515 C518 1.350 . S
N516 S514 1.610 . S
N516 C517 1.351 . S
C517 C511 1.428 . S
C517 N516 1.351 . S
C517 C518 1.434 . S
C518 C509 1.429 . S
C518 N515 1.350 . S
C518 C517 1.434 . S
C519 C520 1.369 . S
C519 C521 1.419 . S
C519 H523 0.930 . S
C520 C519 1.369 . S
C520 C529 1.429 . S
C521 C519 1.419 . S
C521 C522 1.363 . S
C521 H524 0.929 . S
C522 C521 1.363 . S
C522 C528 1.428 . S
H523 C519 0.930 . S
H524 C521 0.929 . S
S525 N526 1.613 . S
S525 N527 1.610 . S
N526 S525 1.613 . S
N526 C529 1.350 . S
N527 S525 1.610 . S
N527 C528 1.351 . S
C528 C522 1.428 . S
C528 N527 1.351 . S
C528 C529 1.434 . S
C529 C520 1.429 . S
C529 N526 1.350 . S
C529 C528 1.434 . S
C530 C531 1.369 1_554 S
C530 C532 1.419 1_565 S
C530 H534 0.930 . S
C531 C530 1.369 1_556 S
C531 C540 1.429 1_565 S
C532 C530 1.419 1_545 S
C532 C533 1.363 . S
C532 H535 0.929 . S
C533 C532 1.363 . S
C533 C539 1.428 1_554 S
H534 C530 0.930 . S
H535 C532 0.929 . S
S536 N537 1.613 . S
S536 N538 1.610 . S
N537 S536 1.613 . S
N537 C540 1.350 . S
N538 S536 1.610 . S
N538 C539 1.351 . S
C539 C533 1.428 1_556 S
C539 N538 1.351 . S
C539 C540 1.434 . S
C540 C531 1.429 1_545 S
C540 N537 1.350 . S
C540 C539 1.434 . S
C541 C542 1.369 . S
C541 C543 1.419 1_565 S
C541 H545 0.930 . S
C542 C541 1.369 . S
C542 C551 1.429 1_554 S
C543 C541 1.419 1_545 S
C543 C544 1.363 1_554 S
C543 H546 0.929 . S
C544 C543 1.363 1_556 S
C544 C550 1.428 1_545 S
H545 C541 0.930 . S
H546 C543 0.929 . S
S547 N548 1.613 . S
S547 N549 1.610 . S
N548 S547 1.613 . S
N548 C551 1.350 . S
N549 S547 1.610 . S
N549 C550 1.351 . S
C550 C544 1.428 1_565 S
C550 N549 1.351 . S
C550 C551 1.434 . S
C551 C542 1.429 1_556 S
C551 N548 1.350 . S
C551 C550 1.434 . S
C552 C553 1.369 . S
C552 C554 1.419 1_655 S
C552 H556 0.930 . S
C553 C552 1.369 . S
C553 C562 1.429 1_655 S
C554 C552 1.419 1_455 S
C554 C555 1.363 . S
C554 H557 0.929 . S
C555 C554 1.363 . S
C555 C561 1.428 . S
H556 C552 0.930 . S
H557 C554 0.929 . S
S558 N559 1.613 . S
S558 N560 1.610 . S
N559 S558 1.613 . S
N559 C562 1.350 . S
N560 S558 1.610 . S
N560 C561 1.351 . S
C561 C555 1.428 . S
C561 N560 1.351 . S
C561 C562 1.434 . S
C562 C553 1.429 1_455 S
C562 N559 1.350 . S
C562 C561 1.434 . S
C563 C564 1.369 1_655 S
C563 C565 1.419 . S
C563 H567 0.930 . S
C564 C563 1.369 1_455 S
C564 C573 1.429 . S
C565 C563 1.419 . S
C565 C566 1.363 . S
C565 H568 0.929 . S
C566 C565 1.363 . S
C566 C572 1.428 1_655 S
H567 C563 0.930 . S
H568 C565 0.929 . S
S569 N570 1.613 . S
S569 N571 1.610 . S
N570 S569 1.613 . S
N570 C573 1.350 . S
N571 S569 1.610 . S
N571 C572 1.351 . S
C572 C566 1.428 1_455 S
C572 N571 1.351 . S
C572 C573 1.434 . S
C573 C564 1.429 . S
C573 N570 1.350 . S
C573 C572 1.434 . S
C574 C575 1.369 . S
C574 C576 1.419 . S
C574 H578 0.930 . S
C575 C574 1.369 . S
C575 C584 1.429 1_554 S
C576 C574 1.419 . S
C576 C577 1.363 1_554 S
C576 H579 0.929 . S
C577 C576 1.363 1_556 S
C577 C583 1.428 . S
H578 C574 0.930 . S
H579 C576 0.929 . S
S580 N581 1.613 . S
S580 N582 1.610 . S
N581 S580 1.613 . S
N581 C584 1.350 . S
N582 S580 1.610 . S
N582 C583 1.351 . S
C583 C577 1.428 . S
C583 N582 1.351 . S
C583 C584 1.434 . S
C584 C575 1.429 1_556 S
C584 N581 1.350 . S
C584 C583 1.434 . S
C585 C586 1.369 1_554 S
C585 C587 1.419 . S
C585 H589 0.930 . S
C586 C585 1.369 1_556 S
C586 C595 1.429 . S
C587 C585 1.419 . S
C587 C588 1.363 . S
C587 H590 0.929 . S
C588 C587 1.363 . S
C588 C594 1.428 1_554 S
H589 C585 0.930 . S
H590 C587 0.929 . S
S591 N592 1.613 . S
S591 N593 1.610 . S
N592 S591 1.613 . S
N592 C595 1.350 . S
N593 S591 1.610 . S
N593 C594 1.351 . S
C594 C588 1.428 1_556 S
C594 N593 1.351 . S
C594 C595 1.434 . S
C595 C586 1.429 . S
C595 N592 1.350 . S
C595 C594 1.434 . S
C596 C597 1.369 1_655 S
C596 C598 1.419 . S
C596 H600 0.930 . S
C597 C596 1.369 1_455 S
C597 C606 1.429 . S
C598 C596 1.419 . S
C598 C599 1.363 . S
C598 H601 0.929 . S
C599 C598 1.363 . S
C599 C605 1.428 1_655 S
H600 C596 0.930 . S
H601 C598 0.929 . S
S602 N603 1.613 . S
S602 N604 1.610 . S
N603 S602 1.613 . S
N603 C606 1.350 . S
N604 S602 1.610 . S
N604 C605 1.351 . S
C605 C599 1.428 1_455 S
C605 N604 1.351 . S
C605 C606 1.434 . S
C606 C597 1.429 . S
C606 N603 1.350 . S
C606 C605 1.434 . S
C607 C608 1.369 . S
C607 C609 1.419 1_655 S
C607 H611 0.930 . S
C608 C607 1.369 . S
C608 C617 1.429 . S
C609 C607 1.419 1_455 S
C609 C610 1.363 . S
C609 H612 0.929 . S
C610 C609 1.363 . S
C610 C616 1.428 1_455 S
H611 C607 0.930 . S
H612 C609 0.929 . S
S613 N614 1.613 . S
S613 N615 1.610 . S
N614 S613 1.613 . S
N614 C617 1.350 . S
N615 S613 1.610 . S
N615 C616 1.351 . S
C616 C610 1.428 1_655 S
C616 N615 1.351 . S
C616 C617 1.434 . S
C617 C608 1.429 . S
C617 N614 1.350 . S
C617 C616 1.434 . S
C618 C619 1.369 1_545 S
C618 C620 1.419 . S
C618 H622 0.930 . S
C619 C618 1.369 1_565 S
C619 C628 1.429 . S
C620 C618 1.419 . S
C620 C621 1.363 . S
C620 H623 0.929 . S
C621 C620 1.363 . S
C621 C627 1.428 . S
H622 C618 0.930 . S
H623 C620 0.929 . S
S624 N625 1.613 . S
S624 N626 1.610 1_565 S
N625 S624 1.613 . S
N625 C628 1.350 . S
N626 S624 1.610 1_545 S
N626 C627 1.351 . S
C627 C621 1.428 . S
C627 N626 1.351 . S
C627 C628 1.434 1_545 S
C628 C619 1.429 . S
C628 N625 1.350 . S
C628 C627 1.434 1_565 S
C629 C630 1.369 . S
C629 C631 1.419 1_565 S
C629 H633 0.930 . S
C630 C629 1.369 . S
C630 C639 1.429 . S
C631 C629 1.419 1_545 S
C631 C632 1.363 . S
C631 H634 0.929 . S
C632 C631 1.363 . S
C632 C638 1.428 1_545 S
H633 C629 0.930 . S
H634 C631 0.929 . S
S635 N636 1.613 . S
S635 N637 1.610 . S
N636 S635 1.613 . S
N636 C639 1.350 . S
N637 S635 1.610 . S
N637 C638 1.351 . S
C638 C632 1.428 1_565 S
C638 N637 1.351 . S
C638 C639 1.434 . S
C639 C630 1.429 . S
C639 N636 1.350 . S
C639 C638 1.434 . S
C640 C641 1.369 . S
C640 C642 1.419 . S
C640 H644 0.930 . S
C641 C640 1.369 . S
C641 C650 1.429 . S
C642 C640 1.419 . S
C642 C643 1.363 . S
C642 H645 0.929 . S
C643 C642 1.363 . S
C643 C649 1.428 . S
H644 C640 0.930 . S
H645 C642 0.929 . S
S646 N647 1.613 . S
S646 N648 1.610 . S
N647 S646 1.613 . S
N647 C650 1.350 . S
N648 S646 1.610 . S
N648 C649 1.351 . S
C649 C643 1.428 . S
C649 N648 1.351 . S
C649 C650 1.434 . S
C650 C641 1.429 . S
C650 N647 1.350 . S
C650 C649 1.434 . S
C651 C652 1.369 . S
C651 C653 1.419 . S
C651 H655 0.930 . S
C652 C651 1.369 . S
C652 C661 1.429 . S
C653 C651 1.419 . S
C653 C654 1.363 . S
C653 H656 0.929 . S
C654 C653 1.363 . S
C654 C660 1.428 . S
H655 C651 0.930 . S
H656 C653 0.929 . S
S657 N658 1.613 . S
S657 N659 1.610 . S
N658 S657 1.613 . S
N658 C661 1.350 . S
N659 S657 1.610 . S
N659 C660 1.351 . S
C660 C654 1.428 . S
C660 N659 1.351 . S
C660 C661 1.434 . S
C661 C652 1.429 . S
C661 N658 1.350 . S
C661 C660 1.434 . S
C662 C663 1.369 . S
C662 C664 1.419 . S
C662 H666 0.930 . S
C663 C662 1.369 . S
C663 C672 1.429 . S
C664 C662 1.419 . S
C664 C665 1.363 . S
C664 H667 0.929 . S
C665 C664 1.363 . S
C665 C671 1.428 . S
H666 C662 0.930 . S
H667 C664 0.929 . S
S668 N669 1.613 . S
S668 N670 1.610 . S
N669 S668 1.613 . S
N669 C672 1.350 . S
N670 S668 1.610 . S
N670 C671 1.351 . S
C671 C665 1.428 . S
C671 N670 1.351 . S
C671 C672 1.434 . S
C672 C663 1.429 . S
C672 N669 1.350 . S
C672 C671 1.434 . S
C673 C674 1.369 . S
C673 C675 1.419 . S
C673 H677 0.930 . S
C674 C673 1.369 . S
C674 C683 1.429 . S
C675 C673 1.419 . S
C675 C676 1.363 . S
C675 H678 0.929 . S
C676 C675 1.363 . S
C676 C682 1.428 . S
H677 C673 0.930 . S
H678 C675 0.929 . S
S679 N680 1.613 . S
S679 N681 1.610 . S
N680 S679 1.613 . S
N680 C683 1.350 . S
N681 S679 1.610 . S
N681 C682 1.351 . S
C682 C676 1.428 . S
C682 N681 1.351 . S
C682 C683 1.434 . S
C683 C674 1.429 . S
C683 N680 1.350 . S
C683 C682 1.434 . S
C684 C685 1.369 . S
C684 C686 1.419 1_554 S
C684 H688 0.930 . S
C685 C684 1.369 . S
C685 C694 1.429 . S
C686 C684 1.419 1_556 S
C686 C687 1.363 . S
C686 H689 0.929 . S
C687 C686 1.363 . S
C687 C693 1.428 . S
H688 C684 0.930 . S
H689 C686 0.929 . S
S690 N691 1.613 1_556 S
S690 N692 1.610 . S
N691 S690 1.613 1_554 S
N691 C694 1.350 . S
N692 S690 1.610 . S
N692 C693 1.351 . S
C693 C687 1.428 . S
C693 N692 1.351 . S
C693 C694 1.434 1_556 S
C694 C685 1.429 . S
C694 N691 1.350 . S
C694 C693 1.434 1_554 S
C695 C696 1.369 . S
C695 C697 1.419 1_554 S
C695 H699 0.930 . S
C696 C695 1.369 . S
C696 C705 1.429 1_554 S
C697 C695 1.419 1_556 S
C697 C698 1.363 . S
C697 H700 0.929 . S
C698 C697 1.363 . S
C698 C704 1.428 . S
H699 C695 0.930 . S
H700 C697 0.929 . S
S701 N702 1.613 . S
S701 N703 1.610 . S
N702 S701 1.613 . S
N702 C705 1.350 . S
N703 S701 1.610 . S
N703 C704 1.351 . S
C704 C698 1.428 . S
C704 N703 1.351 . S
C704 C705 1.434 . S
C705 C696 1.429 1_556 S
C705 N702 1.350 . S
C705 C704 1.434 . S
C706 C707 1.369 . S
C706 C708 1.419 . S
C706 H710 0.930 . S
C707 C706 1.369 . S
C707 C716 1.429 . S
C708 C706 1.419 . S
C708 C709 1.363 . S
C708 H711 0.929 . S
C709 C708 1.363 . S
C709 C715 1.428 . S
H710 C706 0.930 . S
H711 C708 0.929 . S
S712 N713 1.613 . S
S712 N714 1.610 . S
N713 S712 1.613 . S
N713 C716 1.350 . S
N714 S712 1.610 . S
N714 C715 1.351 . S
C715 C709 1.428 . S
C715 N714 1.351 . S
C715 C716 1.434 . S
C716 C707 1.429 . S
C716 N713 1.350 . S
C716 C715 1.434 . S
C717 C718 1.369 . S
C717 C719 1.419 . S
C717 H721 0.930 . S
C718 C717 1.369 . S
C718 C727 1.429 . S
C719 C717 1.419 . S
C719 C720 1.363 . S
C719 H722 0.929 . S
C720 C719 1.363 . S
C720 C726 1.428 . S
H721 C717 0.930 . S
H722 C719 0.929 . S
S723 N724 1.613 . S
S723 N725 1.610 . S
N724 S723 1.613 . S
N724 C727 1.350 . S
N725 S723 1.610 . S
N725 C726 1.351 . S
C726 C720 1.428 . S
C726 N725 1.351 . S
C726 C727 1.434 . S
C727 C718 1.429 . S
C727 N724 1.350 . S
C727 C726 1.434 . S
C728 C729 1.369 . S
C728 C730 1.419 1_554 S
C728 H732 0.930 . S
C729 C728 1.369 . S
C729 C738 1.437 . S
C730 C728 1.419 1_556 S
C730 C731 1.363 . S
C730 H733 0.929 . S
C731 C730 1.363 . S
C731 C737 1.428 . S
H732 C728 0.930 . S
H733 C730 0.929 . S
S734 N735 1.613 1_556 S
S734 N736 1.610 . S
N735 S734 1.613 1_554 S
N735 C738 1.353 . S
N736 S734 1.610 . S
N736 C737 1.351 . S
C737 C731 1.428 . S
C737 N736 1.351 . S
C737 C738 1.421 1_556 S
C738 C729 1.437 . S
C738 N735 1.353 . S
C738 C737 1.421 1_554 S
C739 C740 1.369 . S
C739 C741 1.419 1_554 S
C739 H743 0.930 . S
C740 C739 1.369 . S
C740 C749 1.429 . S
C741 C739 1.419 1_556 S
C741 C742 1.363 . S
C741 H744 0.929 . S
C742 C741 1.363 . S
C742 C748 1.428 . S
H743 C739 0.930 . S
H744 C741 0.929 . S
S745 N746 1.619 . S
S745 N747 1.603 1_554 S
N746 S745 1.619 . S
N746 C749 1.350 . S
N747 S745 1.603 1_556 S
N747 C748 1.351 . S
C748 C742 1.428 . S
C748 N747 1.351 . S
C748 C749 1.434 1_556 S
C749 C740 1.429 . S
C749 N746 1.350 . S
C749 C748 1.434 1_554 S
C750 C751 1.369 . S
C750 C752 1.419 . S
C750 H754 0.930 . S
C751 C750 1.369 . S
C751 C760 1.429 . S
C752 C750 1.419 . S
C752 C753 1.363 . S
C752 H755 0.929 . S
C753 C752 1.363 . S
C753 C759 1.428 . S
H754 C750 0.930 . S
H755 C752 0.929 . S
S756 N757 1.613 . S
S756 N758 1.610 . S
N757 S756 1.613 . S
N757 C760 1.350 . S
N758 S756 1.610 . S
N758 C759 1.351 . S
C759 C753 1.428 . S
C759 N758 1.351 . S
C759 C760 1.434 . S
C760 C751 1.429 . S
C760 N757 1.350 . S
C760 C759 1.434 . S
C761 C762 1.369 . S
C761 C763 1.419 . S
C761 H765 0.930 . S
C762 C761 1.369 . S
C762 C771 1.429 . S
C763 C761 1.419 . S
C763 C764 1.363 . S
C763 H766 0.929 . S
C764 C763 1.363 . S
C764 C770 1.428 . S
H765 C761 0.930 . S
H766 C763 0.929 . S
S767 N768 1.613 . S
S767 N769 1.610 . S
N768 S767 1.613 . S
N768 C771 1.350 . S
N769 S767 1.610 . S
N769 C770 1.351 . S
C770 C764 1.428 . S
C770 N769 1.351 . S
C770 C771 1.434 . S
C771 C762 1.429 . S
C771 N768 1.350 . S
C771 C770 1.434 . S
C772 C773 1.369 . S
C772 C774 1.419 . S
C772 H776 0.930 . S
C773 C772 1.369 . S
C773 C782 1.429 . S
C774 C772 1.419 . S
C774 C775 1.363 . S
C774 H777 0.929 . S
C775 C774 1.363 . S
C775 C781 1.428 . S
H776 C772 0.930 . S
H777 C774 0.929 . S
S778 N779 1.613 . S
S778 N780 1.610 . S
N779 S778 1.613 . S
N779 C782 1.350 . S
N780 S778 1.610 . S
N780 C781 1.351 . S
C781 C775 1.428 . S
C781 N780 1.351 . S
C781 C782 1.434 . S
C782 C773 1.429 . S
C782 N779 1.350 . S
C782 C781 1.434 . S
C783 C784 1.369 . S
C783 C785 1.419 . S
C783 H787 0.930 . S
C784 C783 1.369 . S
C784 C793 1.429 . S
C785 C783 1.419 . S
C785 C786 1.363 . S
C785 H788 0.929 . S
C786 C785 1.363 . S
C786 C792 1.428 . S
H787 C783 0.930 . S
H788 C785 0.929 . S
S789 N790 1.613 1_455 S
S789 N791 1.610 . S
N790 S789 1.613 1_655 S
N790 C793 1.350 . S
N791 S789 1.610 . S
N791 C792 1.351 1_455 S
C792 C786 1.428 . S
C792 N791 1.351 1_655 S
C792 C793 1.434 . S
C793 C784 1.429 . S
C793 N790 1.350 . S
C793 C792 1.434 . S
C794 C795 1.369 . S
C794 C796 1.419 . S
C794 H798 0.930 . S
C795 C794 1.369 . S
C795 C804 1.429 . S
C796 C794 1.419 . S
C796 C797 1.363 . S
C796 H799 0.929 . S
C797 C796 1.363 . S
C797 C803 1.428 . S
H798 C794 0.930 . S
H799 C796 0.929 . S
S800 N801 1.613 . S
S800 N802 1.610 . S
N801 S800 1.613 . S
N801 C804 1.350 . S
N802 S800 1.610 . S
N802 C803 1.351 . S
C803 C797 1.428 . S
C803 N802 1.351 . S
C803 C804 1.434 . S
C804 C795 1.429 . S
C804 N801 1.350 . S
C804 C803 1.434 . S
C805 C806 1.369 . S
C805 C807 1.419 . S
C805 H809 0.930 . S
C806 C805 1.369 . S
C806 C815 1.429 . S
C807 C805 1.419 . S
C807 C808 1.363 . S
C807 H810 0.929 . S
C808 C807 1.363 . S
C808 C814 1.428 . S
H809 C805 0.930 . S
H810 C807 0.929 . S
S811 N812 1.613 . S
S811 N813 1.610 . S
N812 S811 1.613 . S
N812 C815 1.350 . S
N813 S811 1.610 . S
N813 C814 1.351 . S
C814 C808 1.428 . S
C814 N813 1.351 . S
C814 C815 1.434 . S
C815 C806 1.429 . S
C815 N812 1.350 . S
C815 C814 1.434 . S
C816 C817 1.369 1_566 S
C816 C818 1.419 . S
C816 H820 0.930 . S
C817 C816 1.369 1_544 S
C817 C826 1.429 . S
C818 C816 1.419 . S
C818 C819 1.363 1_556 S
C818 H821 0.929 . S
C819 C818 1.363 1_554 S
C819 C825 1.428 1_565 S
H820 C816 0.930 . S
H821 C818 0.929 . S
S822 N823 1.613 . S
S822 N824 1.610 . S
N823 S822 1.613 . S
N823 C826 1.350 . S
N824 S822 1.610 . S
N824 C825 1.351 . S
C825 C819 1.428 1_545 S
C825 N824 1.351 . S
C825 C826 1.434 . S
C826 C817 1.429 . S
C826 N823 1.350 . S
C826 C825 1.434 . S
C827 C828 1.369 . S
C827 C829 1.419 . S
C827 H831 0.930 . S
C828 C827 1.369 . S
C828 C837 1.429 . S
C829 C827 1.419 . S
C829 C830 1.363 . S
C829 H832 0.929 . S
C830 C829 1.363 . S
C830 C836 1.428 . S
H831 C827 0.930 . S
H832 C829 0.929 . S
S833 N834 1.613 . S
S833 N835 1.610 . S
N834 S833 1.613 . S
N834 C837 1.350 . S
N835 S833 1.610 . S
N835 C836 1.351 . S
C836 C830 1.428 . S
C836 N835 1.351 . S
C836 C837 1.434 . S
C837 C828 1.429 . S
C837 N834 1.350 . S
C837 C836 1.434 . S
C838 C839 1.369 . S
C838 C840 1.419 . S
C838 H842 0.930 . S
C839 C838 1.369 . S
C839 C848 1.429 . S
C840 C838 1.419 . S
C840 C841 1.363 . S
C840 H843 0.929 . S
C841 C840 1.363 . S
C841 C847 1.428 . S
H842 C838 0.930 . S
H843 C840 0.929 . S
S844 N845 1.613 . S
S844 N846 1.610 . S
N845 S844 1.613 . S
N845 C848 1.350 . S
N846 S844 1.610 . S
N846 C847 1.351 . S
C847 C841 1.428 . S
C847 N846 1.351 . S
C847 C848 1.434 . S
C848 C839 1.429 . S
C848 N845 1.350 . S
C848 C847 1.434 . S
C849 C850 1.369 . S
C849 C851 1.419 . S
C849 H853 0.930 . S
C850 C849 1.369 . S
C850 C859 1.429 . S
C851 C849 1.419 . S
C851 C852 1.363 . S
C851 H854 0.929 . S
C852 C851 1.363 . S
C852 C858 1.428 . S
H853 C849 0.930 . S
H854 C851 0.929 . S
S855 N856 1.613 . S
S855 N857 1.610 . S
N856 S855 1.613 . S
N856 C859 1.350 . S
N857 S855 1.610 . S
N857 C858 1.351 . S
C858 C852 1.428 . S
C858 N857 1.351 . S
C858 C859 1.434 . S
C859 C850 1.429 . S
C859 N856 1.350 . S
C859 C858 1.434 . S
C860 C861 1.369 . S
C860 C862 1.419 . S
C860 H864 0.930 . S
C861 C860 1.369 . S
C861 C870 1.429 . S
C862 C860 1.419 . S
C862 C863 1.363 . S
C862 H865 0.929 . S
C863 C862 1.363 . S
C863 C869 1.428 . S
H864 C860 0.930 . S
H865 C862 0.929 . S
S866 N867 1.613 . S
S866 N868 1.610 . S
N867 S866 1.613 . S
N867 C870 1.350 . S
N868 S866 1.610 . S
N868 C869 1.351 . S
C869 C863 1.428 . S
C869 N868 1.351 . S
C869 C870 1.434 . S
C870 C861 1.429 . S
C870 N867 1.350 . S
C870 C869 1.434 . S
C871 C872 1.369 . S
C871 C873 1.419 . S
C871 H875 0.930 . S
C872 C871 1.369 . S
C872 C881 1.429 . S
C873 C871 1.419 . S
C873 C874 1.363 . S
C873 H876 0.929 . S
C874 C873 1.363 . S
C874 C880 1.428 . S
H875 C871 0.930 . S
H876 C873 0.929 . S
S877 N878 1.613 . S
S877 N879 1.610 . S
N878 S877 1.613 . S
N878 C881 1.350 . S
N879 S877 1.610 . S
N879 C880 1.351 . S
C880 C874 1.428 . S
C880 N879 1.351 . S
C880 C881 1.434 . S
C881 C872 1.429 . S
C881 N878 1.350 . S
C881 C880 1.434 . S
C882 C883 1.369 . S
C882 C884 1.419 1_665 S
C882 H886 0.930 . S
C883 C882 1.369 . S
C883 C892 1.429 . S
C884 C882 1.419 1_445 S
C884 C885 1.363 . S
C884 H887 0.929 . S
C885 C884 1.363 . S
C885 C891 1.428 . S
H886 C882 0.930 . S
H887 C884 0.929 . S
S888 N889 1.613 1_455 S
S888 N890 1.610 1_565 S
N889 S888 1.613 1_655 S
N889 C892 1.350 . S
N890 S888 1.610 1_545 S
N890 C891 1.351 . S
C891 C885 1.428 . S
C891 N890 1.351 . S
C891 C892 1.434 1_445 S
C892 C883 1.429 . S
C892 N889 1.350 . S
C892 C891 1.434 1_665 S
C893 C894 1.369 1_455 S
C893 C895 1.419 . S
C893 H897 0.930 . S
C894 C893 1.369 1_655 S
C894 C903 1.429 1_554 S
C895 C893 1.419 . S
C895 C896 1.363 . S
C895 H898 0.929 . S
C896 C895 1.363 . S
C896 C902 1.428 1_454 S
H897 C893 0.930 . S
H898 C895 0.929 . S
S899 N900 1.613 . S
S899 N901 1.610 . S
N900 S899 1.613 . S
N900 C903 1.350 . S
N901 S899 1.610 . S
N901 C902 1.351 . S
C902 C896 1.428 1_656 S
C902 N901 1.351 . S
C902 C903 1.434 . S
C903 C894 1.429 1_556 S
C903 N900 1.350 . S
C903 C902 1.434 . S
C904 C905 1.369 . S
C904 C906 1.419 . S
C904 H908 0.934 1_556 S
C905 C904 1.369 . S
C905 C914 1.429 . S
C906 C904 1.419 . S
C906 C907 1.363 . S
C906 H909 0.929 . S
C907 C906 1.363 . S
C907 C913 1.428 . S
H908 C904 0.934 1_554 S
H909 C906 0.929 . S
S910 N911 1.613 . S
S910 N912 1.610 . S
N911 S910 1.613 . S
N911 C914 1.350 . S
N912 S910 1.610 . S
N912 C913 1.351 . S
C913 C907 1.428 . S
C913 N912 1.351 . S
C913 C914 1.434 . S
C914 C905 1.429 . S
C914 N911 1.350 . S
C914 C913 1.434 . S
C915 C916 1.369 . S
C915 C917 1.419 . S
C915 H919 0.930 . S
C916 C915 1.369 . S
C916 C925 1.429 . S
C917 C915 1.419 . S
C917 C918 1.363 . S
C917 H920 0.929 . S
C918 C917 1.363 . S
C918 C924 1.428 . S
H919 C915 0.930 . S
H920 C917 0.929 . S
S921 N922 1.613 . S
S921 N923 1.610 1_565 S
N922 S921 1.613 . S
N922 C925 1.350 1_565 S
N923 S921 1.610 1_545 S
N923 C924 1.351 . S
C924 C918 1.428 . S
C924 N923 1.351 . S
C924 C925 1.434 . S
C925 C916 1.429 . S
C925 N922 1.350 1_545 S
C925 C924 1.434 . S
C926 C927 1.369 . S
C926 C928 1.419 . S
C926 H930 0.930 . S
C927 C926 1.369 . S
C927 C936 1.429 . S
C928 C926 1.419 . S
C928 C929 1.363 . S
C928 H931 0.929 . S
C929 C928 1.363 . S
C929 C935 1.428 . S
H930 C926 0.930 . S
H931 C928 0.929 . S
S932 N933 1.613 . S
S932 N934 1.610 . S
N933 S932 1.613 . S
N933 C936 1.350 . S
N934 S932 1.610 . S
N934 C935 1.351 . S
C935 C929 1.428 . S
C935 N934 1.351 . S
C935 C936 1.434 . S
C936 C927 1.429 . S
C936 N933 1.350 . S
C936 C935 1.434 . S
C937 C938 1.369 . S
C937 C939 1.419 . S
C937 H941 0.930 . S
C938 C937 1.369 . S
C938 C947 1.429 . S
C939 C937 1.419 . S
C939 C940 1.363 . S
C939 H942 0.929 . S
C940 C939 1.363 . S
C940 C946 1.428 . S
H941 C937 0.930 . S
H942 C939 0.929 . S
S943 N944 1.613 . S
S943 N945 1.610 . S
N944 S943 1.613 . S
N944 C947 1.350 . S
N945 S943 1.610 . S
N945 C946 1.351 . S
C946 C940 1.428 . S
C946 N945 1.351 . S
C946 C947 1.434 . S
C947 C938 1.429 . S
C947 N944 1.350 . S
C947 C946 1.434 . S
C948 C949 1.369 . S
C948 C950 1.419 . S
C948 H952 0.930 . S
C949 C948 1.369 . S
C949 C958 1.429 . S
C950 C948 1.419 . S
C950 C951 1.363 . S
C950 H953 0.929 . S
C951 C950 1.363 . S
C951 C957 1.428 . S
H952 C948 0.930 . S
H953 C950 0.929 . S
S954 N955 1.613 . S
S954 N956 1.610 . S
N955 S954 1.613 . S
N955 C958 1.350 . S
N956 S954 1.610 . S
N956 C957 1.351 . S
C957 C951 1.428 . S
C957 N956 1.351 . S
C957 C958 1.434 . S
C958 C949 1.429 . S
C958 N955 1.350 . S
C958 C957 1.434 . S
C959 C960 1.369 . S
C959 C961 1.419 . S
C959 H963 0.930 . S
C960 C959 1.369 . S
C960 C969 1.429 . S
C961 C959 1.419 . S
C961 C962 1.363 . S
C961 H964 0.929 . S
C962 C961 1.363 . S
C962 C968 1.428 . S
H963 C959 0.930 . S
H964 C961 0.929 . S
S965 N966 1.613 . S
S965 N967 1.610 . S
N966 S965 1.613 . S
N966 C969 1.350 . S
N967 S965 1.610 . S
N967 C968 1.351 . S
C968 C962 1.428 . S
C968 N967 1.351 . S
C968 C969 1.434 . S
C969 C960 1.429 . S
C969 N966 1.350 . S
C969 C968 1.434 . S
C970 C971 1.369 . S
C970 C972 1.419 . S
C970 H974 0.930 . S
C971 C970 1.369 . S
C971 C980 1.429 . S
C972 C970 1.419 . S
C972 C973 1.363 . S
C972 H975 0.929 . S
C973 C972 1.363 . S
C973 C979 1.428 . S
H974 C970 0.930 . S
H975 C972 0.929 . S
S976 N977 1.613 . S
S976 N978 1.610 . S
N977 S976 1.613 . S
N977 C980 1.350 . S
N978 S976 1.610 . S
N978 C979 1.351 . S
C979 C973 1.428 . S
C979 N978 1.351 . S
C979 C980 1.434 . S
C980 C971 1.429 . S
C980 N977 1.350 . S
C980 C979 1.434 . S
C981 C982 1.369 . S
C981 C983 1.419 . S
C981 H985 0.930 . S
C982 C981 1.369 . S
C982 C991 1.429 . S
C983 C981 1.419 . S
C983 C984 1.363 . S
C983 H986 0.929 . S
C984 C983 1.363 . S
C984 C990 1.428 . S
H985 C981 0.930 . S
H986 C983 0.929 . S
S987 N988 1.613 . S
S987 N989 1.610 . S
N988 S987 1.613 . S
N988 C991 1.350 . S
N989 S987 1.610 . S
N989 C990 1.351 . S
C990 C984 1.428 . S
C990 N989 1.351 . S
C990 C991 1.434 . S
C991 C982 1.429 . S
C991 N988 1.350 . S
C991 C990 1.434 . S
C992 C993 1.369 . S
C992 C994 1.419 . S
C992 H996 0.930 . S
C993 C992 1.369 . S
C993 C1002 1.429 . S
C994 C992 1.419 . S
C994 C995 1.363 . S
C994 H997 0.929 1_565 S
C995 C994 1.363 . S
C995 C1001 1.428 . S
H996 C992 0.930 . S
H997 C994 0.929 1_545 S
S998 N999 1.613 . S
S998 N1000 1.610 . S
N999 S998 1.613 . S
N999 C1002 1.350 . S
N1000 S998 1.610 . S
N1000 C1001 1.351 . S
C1001 C995 1.428 . S
C1001 N1000 1.351 . S
C1001 C1002 1.434 . S
C1002 C993 1.429 . S
C1002 N999 1.350 . S
C1002 C1001 1.434 . S
C1003 C1004 1.369 . S
C1003 C1005 1.419 . S
C1003 H1007 0.930 . S
C1004 C1003 1.369 . S
C1004 C1013 1.429 . S
C1005 C1003 1.419 . S
C1005 C1006 1.363 . S
C1005 H1008 0.929 . S
C1006 C1005 1.363 . S
C1006 C1012 1.428 . S
H1007 C1003 0.930 . S
H1008 C1005 0.929 . S
S1009 N1010 1.613 . S
S1009 N1011 1.610 1_565 S
N1010 S1009 1.613 . S
N1010 C1013 1.350 1_565 S
N1011 S1009 1.610 1_545 S
N1011 C1012 1.351 . S
C1012 C1006 1.428 . S
C1012 N1011 1.351 . S
C1012 C1013 1.434 . S
C1013 C1004 1.429 . S
C1013 N1010 1.350 1_545 S
C1013 C1012 1.434 . S
C1014 C1015 1.369 . S
C1014 C1016 1.419 . S
C1014 H1018 0.930 . S
C1015 C1014 1.369 . S
C1015 C1024 1.429 . S
C1016 C1014 1.419 . S
C1016 C1017 1.363 . S
C1016 H1019 0.929 . S
C1017 C1016 1.363 . S
C1017 C1023 1.428 . S
H1018 C1014 0.930 . S
H1019 C1016 0.929 . S
S1020 N1021 1.613 . S
S1020 N1022 1.610 . S
N1021 S1020 1.613 . S
N1021 C1024 1.350 . S
N1022 S1020 1.610 . S
N1022 C1023 1.351 . S
C1023 C1017 1.428 . S
C1023 N1022 1.351 . S
C1023 C1024 1.434 . S
C1024 C1015 1.429 . S
C1024 N1021 1.350 . S
C1024 C1023 1.434 . S
C1025 C1026 1.369 . S
C1025 C1027 1.419 . S
C1025 H1029 0.930 . S
C1026 C1025 1.369 . S
C1026 C1035 1.429 . S
C1027 C1025 1.419 . S
C1027 C1028 1.363 . S
C1027 H1030 0.929 . S
C1028 C1027 1.363 . S
C1028 C1034 1.428 . S
H1029 C1025 0.930 . S
H1030 C1027 0.929 . S
S1031 N1032 1.613 . S
S1031 N1033 1.610 . S
N1032 S1031 1.613 . S
N1032 C1035 1.350 . S
N1033 S1031 1.610 . S
N1033 C1034 1.351 . S
C1034 C1028 1.428 . S
C1034 N1033 1.351 . S
C1034 C1035 1.434 . S
C1035 C1026 1.429 . S
C1035 N1032 1.350 . S
C1035 C1034 1.434 . S
C1036 C1037 1.369 . S
C1036 C1038 1.419 . S
C1036 H1040 0.930 . S
C1037 C1036 1.369 . S
C1037 C1046 1.429 . S
C1038 C1036 1.419 . S
C1038 C1039 1.363 . S
C1038 H1041 0.929 . S
C1039 C1038 1.363 . S
C1039 C1045 1.428 . S
H1040 C1036 0.930 . S
H1041 C1038 0.929 . S
S1042 N1043 1.613 . S
S1042 N1044 1.610 1_554 S
N1043 S1042 1.613 . S
N1043 C1046 1.350 1_554 S
N1044 S1042 1.610 1_556 S
N1044 C1045 1.351 . S
C1045 C1039 1.428 . S
C1045 N1044 1.351 . S
C1045 C1046 1.434 . S
C1046 C1037 1.429 . S
C1046 N1043 1.350 1_556 S
C1046 C1045 1.434 . S
C1047 C1048 1.369 . S
C1047 C1049 1.419 . S
C1047 H1051 0.930 . S
C1048 C1047 1.369 . S
C1048 C1057 1.429 . S
C1049 C1047 1.419 . S
C1049 C1050 1.363 . S
C1049 H1052 0.929 . S
C1050 C1049 1.363 . S
C1050 C1056 1.428 . S
H1051 C1047 0.930 . S
H1052 C1049 0.929 . S
S1053 N1054 1.613 . S
S1053 N1055 1.610 . S
N1054 S1053 1.613 . S
N1054 C1057 1.350 . S
N1055 S1053 1.610 . S
N1055 C1056 1.351 . S
C1056 C1050 1.428 . S
C1056 N1055 1.351 . S
C1056 C1057 1.434 . S
C1057 C1048 1.429 . S
C1057 N1054 1.350 . S
C1057 C1056 1.434 . S
C1058 C1059 1.369 . S
C1058 C1060 1.419 . S
C1058 H1062 0.930 . S
C1059 C1058 1.369 . S
C1059 C1068 1.429 . S
C1060 C1058 1.419 . S
C1060 C1061 1.363 . S
C1060 H1063 0.929 . S
C1061 C1060 1.363 . S
C1061 C1067 1.428 . S
H1062 C1058 0.930 . S
H1063 C1060 0.929 . S
S1064 N1065 1.613 . S
S1064 N1066 1.610 . S
N1065 S1064 1.613 . S
N1065 C1068 1.350 . S
N1066 S1064 1.610 . S
N1066 C1067 1.351 . S
C1067 C1061 1.428 . S
C1067 N1066 1.351 . S
C1067 C1068 1.434 . S
C1068 C1059 1.429 . S
C1068 N1065 1.350 . S
C1068 C1067 1.434 . S
C1069 C1070 1.369 . S
C1069 C1071 1.419 . S
C1069 H1073 0.930 . S
C1070 C1069 1.369 . S
C1070 C1079 1.429 . S
C1071 C1069 1.419 . S
C1071 C1072 1.363 . S
C1071 H1074 0.929 . S
C1072 C1071 1.363 . S
C1072 C1078 1.428 . S
H1073 C1069 0.930 . S
H1074 C1071 0.929 . S
S1075 N1076 1.613 . S
S1075 N1077 1.610 . S
N1076 S1075 1.613 . S
N1076 C1079 1.350 . S
N1077 S1075 1.610 . S
N1077 C1078 1.351 . S
C1078 C1072 1.428 . S
C1078 N1077 1.351 . S
C1078 C1079 1.434 . S
C1079 C1070 1.429 . S
C1079 N1076 1.350 . S
C1079 C1078 1.434 . S
C465 C3 1.100 . S
C467 C158 1.082 . S
C476 C32 1.098 . S
C478 C129 1.080 . S
C487 C61 1.090 . S
C489 C332 1.073 . S
C498 C90 1.090 . S
C500 C303 1.073 . S
C509 C42 1.079 . S
C511 C119 1.095 . S
C520 C148 1.091 . S
C522 C13 1.073 . S
C531 C177 1.090 . S
C533 C448 1.073 . S
C542 C419 1.075 . S
C544 C206 1.092 . S
C553 C390 1.084 . S
C555 C235 1.099 . S
C564 C361 1.077 . S
C566 C264 1.097 . S
C575 C100 1.071 . S
C577 C293 1.091 . S
C586 C322 1.091 . S
C588 C71 1.075 . S
C597 C351 1.100 . S
C599 C274 1.082 . S
C608 C380 1.092 . S
C610 C245 1.076 . S
C619 C409 1.095 . S
C621 C216 1.075 . S
C630 C187 1.076 . S
C632 C438 1.092 . S
C641 C15 2.168 . S
C643 C21 1.936 . S
C652 C50 1.942 . S
C654 C44 2.164 . S
C663 C79 1.942 . S
C665 C73 2.165 . S
C674 C108 1.942 . S
C676 C102 2.165 . S
C685 C131 2.168 . S
C687 C137 1.937 . S
C696 C160 2.167 . S
C698 C166 1.931 . S
C707 C189 2.168 . S
C709 C195 1.932 . S
C718 C224 1.934 . S
C720 C218 2.163 . S
C729 C247 2.164 . S
C731 C253 1.933 . S
C740 C276 2.162 . S
C742 C282 1.937 . S
C751 C311 1.935 . S
C753 C305 2.163 . S
C762 C334 2.168 . S
C764 C340 1.938 . S
C773 C369 1.940 . S
C775 C363 2.163 . S
C784 C398 1.930 . S
C786 C392 2.166 . S
C795 C421 2.164 . S
C797 C427 1.932 . S
C806 C450 2.162 . S
C808 C456 1.935 . S
C817 C10 1.711 . S
C819 C39 1.714 . S
C828 C68 1.715 . S
C830 C445 1.712 . S
C839 C97 1.718 . S
C841 C416 1.714 . S
C850 C155 1.711 . S
C852 C126 1.714 . S
C861 C329 1.713 . S
C863 C184 1.717 . S
C872 C213 1.719 . S
C874 C300 1.718 . S
C883 C271 1.717 . S
C885 C242 1.719 . S
C894 C387 1.720 . S
C896 C358 1.717 . S
C905 C8 1.530 1_565 S
C907 C179 1.561 . S
C916 C37 1.524 1_545 S
C918 C208 1.566 . S
C927 C66 1.527 . S
C929 C5 1.561 . S
C938 C34 1.560 . S
C940 C95 1.527 . S
C949 C63 1.561 . S
C951 C124 1.527 . S
C960 C92 1.564 . S
C962 C153 1.526 . S
C971 C182 1.519 . S
C973 C121 1.567 . S
C982 C150 1.565 . S
C984 C211 1.524 . S
C993 C411 1.560 . S
C995 C240 1.528 1_565 S
C1004 C269 1.524 1_545 S
C1006 C440 1.566 . S
C1015 C237 1.569 . S
C1017 C298 1.520 . S
C1026 C327 1.519 . S
C1028 C266 1.568 . S
C1037 C356 1.520 . S
C1039 C295 1.568 . S
C1048 C324 1.560 . S
C1050 C385 1.529 . S
C1059 C414 1.519 . S
C1061 C353 1.567 . S
C1070 C443 1.529 . S
C1072 C382 1.561 . S
