# Generated by pormake.
# Topology uot, (4)-cn, num edge types: 1
# Building blocks:
#     Node 0, Type 0, BuildingBlock: NAHDIM_clean_sbu_0, # of connection points: 4
#     Node 1, Type 0, BuildingBlock: NAHDIM_clean_sbu_0, # of connection points: 4
#     Node 2, Type 0, BuildingBlock: NAHDIM_clean_sbu_0, # of connection points: 4
#     Node 3, Type 0, BuildingBlock: NAHDIM_clean_sbu_0, # of connection points: 4
#     Node 4, Type 0, BuildingBlock: NAHDIM_clean_sbu_0, # of connection points: 4
#     Node 5, Type 0, BuildingBlock: NAHDIM_clean_sbu_0, # of connection points: 4
#     Node 6, Type 0, BuildingBlock: NAHDIM_clean_sbu_0, # of connection points: 4
#     Node 7, Type 0, BuildingBlock: NAHDIM_clean_sbu_0, # of connection points: 4
#     Node 8, Type 0, BuildingBlock: NAHDIM_clean_sbu_0, # of connection points: 4
#     Node 9, Type 0, BuildingBlock: NAHDIM_clean_sbu_0, # of connection points: 4
#     Node 10, Type 0, BuildingBlock: NAHDIM_clean_sbu_0, # of connection points: 4
#     Node 11, Type 0, BuildingBlock: NAHDIM_clean_sbu_0, # of connection points: 4
#     Node 12, Type 0, BuildingBlock: NAHDIM_clean_sbu_0, # of connection points: 4
#     Node 13, Type 0, BuildingBlock: NAHDIM_clean_sbu_0, # of connection points: 4
#     Node 14, Type 0, BuildingBlock: NAHDIM_clean_sbu_0, # of connection points: 4
#     Node 15, Type 0, BuildingBlock: NAHDIM_clean_sbu_0, # of connection points: 4
#     Edge 16, Type (0, 0), BuildingBlock: ZUJKAS_clean_linker_0, # of connection points: 2
#     Edge 17, Type (0, 0), BuildingBlock: ZUJKAS_clean_linker_0, # of connection points: 2
#     Edge 18, Type (0, 0), BuildingBlock: ZUJKAS_clean_linker_0, # of connection points: 2
#     Edge 19, Type (0, 0), BuildingBlock: ZUJKAS_clean_linker_0, # of connection points: 2
#     Edge 20, Type (0, 0), BuildingBlock: ZUJKAS_clean_linker_0, # of connection points: 2
#     Edge 21, Type (0, 0), BuildingBlock: ZUJKAS_clean_linker_0, # of connection points: 2
#     Edge 22, Type (0, 0), BuildingBlock: ZUJKAS_clean_linker_0, # of connection points: 2
#     Edge 23, Type (0, 0), BuildingBlock: ZUJKAS_clean_linker_0, # of connection points: 2
#     Edge 24, Type (0, 0), BuildingBlock: ZUJKAS_clean_linker_0, # of connection points: 2
#     Edge 25, Type (0, 0), BuildingBlock: ZUJKAS_clean_linker_0, # of connection points: 2
#     Edge 26, Type (0, 0), BuildingBlock: ZUJKAS_clean_linker_0, # of connection points: 2
#     Edge 27, Type (0, 0), BuildingBlock: ZUJKAS_clean_linker_0, # of connection points: 2
#     Edge 28, Type (0, 0), BuildingBlock: ZUJKAS_clean_linker_0, # of connection points: 2
#     Edge 29, Type (0, 0), BuildingBlock: ZUJKAS_clean_linker_0, # of connection points: 2
#     Edge 30, Type (0, 0), BuildingBlock: ZUJKAS_clean_linker_0, # of connection points: 2
#     Edge 31, Type (0, 0), BuildingBlock: ZUJKAS_clean_linker_0, # of connection points: 2
#     Edge 32, Type (0, 0), BuildingBlock: ZUJKAS_clean_linker_0, # of connection points: 2
#     Edge 33, Type (0, 0), BuildingBlock: ZUJKAS_clean_linker_0, # of connection points: 2
#     Edge 34, Type (0, 0), BuildingBlock: ZUJKAS_clean_linker_0, # of connection points: 2
#     Edge 35, Type (0, 0), BuildingBlock: ZUJKAS_clean_linker_0, # of connection points: 2
#     Edge 36, Type (0, 0), BuildingBlock: ZUJKAS_clean_linker_0, # of connection points: 2
#     Edge 37, Type (0, 0), BuildingBlock: ZUJKAS_clean_linker_0, # of connection points: 2
#     Edge 38, Type (0, 0), BuildingBlock: ZUJKAS_clean_linker_0, # of connection points: 2
#     Edge 39, Type (0, 0), BuildingBlock: ZUJKAS_clean_linker_0, # of connection points: 2
#     Edge 40, Type (0, 0), BuildingBlock: ZUJKAS_clean_linker_0, # of connection points: 2
#     Edge 41, Type (0, 0), BuildingBlock: ZUJKAS_clean_linker_0, # of connection points: 2
#     Edge 42, Type (0, 0), BuildingBlock: ZUJKAS_clean_linker_0, # of connection points: 2
#     Edge 43, Type (0, 0), BuildingBlock: ZUJKAS_clean_linker_0, # of connection points: 2
#     Edge 44, Type (0, 0), BuildingBlock: ZUJKAS_clean_linker_0, # of connection points: 2
#     Edge 45, Type (0, 0), BuildingBlock: ZUJKAS_clean_linker_0, # of connection points: 2
#     Edge 46, Type (0, 0), BuildingBlock: ZUJKAS_clean_linker_0, # of connection points: 2
#     Edge 47, Type (0, 0), BuildingBlock: ZUJKAS_clean_linker_0, # of connection points: 2
# Relax obj value: 0.173
# Max RMSD: 0.206
# Mean RMSD: 0.206
data_MOF--net-uot--node1-NAHDIM_clean_sbu_0--edge1-ZUJKAS_clean_linker_0
_symmetry_space_group_name_H-M    P1
_symmetry_Int_Tables_number       1
_symmetry_cell_setting            triclinic
loop_
_symmetry_equiv_pos_as_xyz
'x, y, z'
_cell_length_a     56.731678
_cell_length_b     56.729941
_cell_length_c     50.897854
_cell_angle_alpha  90.007398
_cell_angle_beta   90.006164
_cell_angle_gamma 89.982666
loop_
_atom_site_label
_atom_site_type_symbol
_atom_site_fract_x
_atom_site_fract_y
_atom_site_fract_z
_atom_type_partial_charge
C0 C 0.26046 0.4307 0.30895 0.0
O1 O 0.2464 0.42467 0.32833 0.0
O2 O 0.19815 0.43972 0.29938 0.0
Zn3 Zn 0.22418 0.46349 0.30493 0.0
O4 O 0.22565 0.4725 0.3431 0.0
C5 C 0.20871 0.49099 0.26051 0.0
O6 O 0.20632 0.4701 0.24967 0.0
O7 O 0.25489 0.44827 0.29476 0.0
C8 C 0.21034 0.48617 0.35309 0.0
O9 O 0.19366 0.49485 0.338 0.0
C10 C 0.1878 0.42908 0.3181 0.0
O11 O 0.19395 0.43363 0.34245 0.0
O12 O 0.21701 0.49246 0.28363 0.0
C13 C 0.42727 0.7383 0.68877 0.0
O14 O 0.42005 0.75222 0.66978 0.0
O15 O 0.43758 0.80152 0.69706 0.0
Zn16 Zn 0.46042 0.77475 0.69105 0.0
O17 O 0.46867 0.77304 0.65274 0.0
C18 C 0.48855 0.7921 0.73354 0.0
O19 O 0.46768 0.79704 0.74328 0.0
O20 O 0.44539 0.74417 0.70189 0.0
C21 C 0.47978 0.78981 0.64179 0.0
O22 O 0.48605 0.80814 0.65594 0.0
C23 C 0.42473 0.81054 0.67922 0.0
O24 O 0.42574 0.80207 0.65523 0.0
O25 O 0.48988 0.78147 0.71162 0.0
C26 C 0.741 0.55857 0.2838 0.0
O27 O 0.75993 0.5651 0.27084 0.0
O28 O 0.79995 0.5543 0.30361 0.0
Zn29 Zn 0.77471 0.5308 0.31265 0.0
O30 O 0.77516 0.52567 0.35167 0.0
C31 C 0.78762 0.49962 0.27045 0.0
O32 O 0.78585 0.51898 0.25643 0.0
O33 O 0.74293 0.54334 0.30199 0.0
C34 C 0.79376 0.51772 0.36238 0.0
O35 O 0.81207 0.51279 0.34756 0.0
C36 C 0.80386 0.57241 0.31764 0.0
O37 O 0.79089 0.57614 0.33862 0.0
O38 O 0.78265 0.5003 0.29477 0.0
C39 C 0.57036 0.25688 0.68477 0.0
O40 O 0.57968 0.24007 0.67036 0.0
O41 O 0.55779 0.19712 0.69174 0.0
Zn42 Zn 0.53466 0.22321 0.68358 0.0
O43 O 0.52807 0.22336 0.64473 0.0
C44 C 0.5027 0.21568 0.7275 0.0
O45 O 0.52155 0.21941 0.74191 0.0
O46 O 0.5496 0.25409 0.69361 0.0
C47 C 0.52146 0.20454 0.63336 0.0
O48 O 0.51908 0.18521 0.6473 0.0
C49 C 0.55156 0.17676 0.69954 0.0
O50 O 0.52905 0.1721 0.70256 0.0
O51 O 0.50423 0.21733 0.70267 0.0
C52 C 0.25811 0.56095 0.7137 0.0
O53 O 0.23853 0.56813 0.72491 0.0
O54 O 0.20008 0.55559 0.69123 0.0
Zn55 Zn 0.22594 0.5324 0.68351 0.0
O56 O 0.22722 0.52754 0.6445 0.0
C57 C 0.21581 0.50023 0.72578 0.0
O58 O 0.22136 0.5185 0.74038 0.0
O59 O 0.25712 0.5451 0.69607 0.0
C60 C 0.20861 0.52113 0.63261 0.0
O61 O 0.18929 0.51756 0.64628 0.0
C62 C 0.19907 0.57571 0.68032 0.0
O63 O 0.21554 0.58179 0.66348 0.0
O64 O 0.21742 0.50188 0.70095 0.0
C65 C 0.57426 0.73938 0.31081 0.0
O66 O 0.58377 0.75548 0.32603 0.0
O67 O 0.56001 0.80038 0.30632 0.0
Zn68 Zn 0.53819 0.77304 0.31359 0.0
O69 O 0.53132 0.77143 0.35225 0.0
C70 C 0.50835 0.78831 0.27158 0.0
O71 O 0.52877 0.79123 0.25983 0.0
O72 O 0.55354 0.74274 0.3021 0.0
C73 C 0.51927 0.78767 0.36298 0.0
O74 O 0.51138 0.80509 0.34841 0.0
C75 C 0.57237 0.81058 0.32379 0.0
O76 O 0.5716 0.80296 0.34814 0.0
O77 O 0.50791 0.77939 0.29446 0.0
C78 C 0.74103 0.43451 0.71673 0.0
O79 O 0.75968 0.42739 0.72981 0.0
O80 O 0.8002 0.43901 0.69818 0.0
Zn81 Zn 0.77537 0.46337 0.69022 0.0
O82 O 0.77613 0.47039 0.65156 0.0
C83 C 0.78903 0.49243 0.73412 0.0
O84 O 0.78906 0.47214 0.74658 0.0
O85 O 0.74336 0.45051 0.69944 0.0
C86 C 0.7939 0.48053 0.64142 0.0
O87 O 0.81156 0.48671 0.65663 0.0
C88 C 0.8052 0.42271 0.68197 0.0
O89 O 0.79394 0.42174 0.65943 0.0
O90 O 0.78294 0.493 0.71011 0.0
C91 C 0.44903 0.26969 0.30727 0.0
O92 O 0.46088 0.26904 0.32944 0.0
O93 O 0.43978 0.1943 0.29627 0.0
Zn94 Zn 0.46223 0.22055 0.30506 0.0
O95 O 0.46773 0.22103 0.34411 0.0
C96 C 0.49543 0.21415 0.26237 0.0
O97 O 0.47733 0.21982 0.24756 0.0
O98 O 0.44791 0.25123 0.29317 0.0
C99 C 0.47149 0.20197 0.35653 0.0
O100 O 0.47156 0.18194 0.34357 0.0
C101 C 0.42084 0.19125 0.30916 0.0
O102 O 0.41577 0.20567 0.32856 0.0
O103 O 0.49305 0.21403 0.28718 0.0
C104 C 0.76283 0.93025 0.81912 0.0
O105 O 0.74855 0.92489 0.83855 0.0
O106 O 0.70058 0.93565 0.80488 0.0
Zn107 Zn 0.72512 0.96053 0.81167 0.0
O108 O 0.72431 0.96883 0.85014 0.0
C109 C 0.70562 0.98805 0.76924 0.0
O110 O 0.70014 0.96715 0.75993 0.0
O111 O 0.75682 0.94652 0.8033 0.0
C112 C 0.7131 0.98646 0.85916 0.0
O113 O 0.7017 0.00035 0.84287 0.0
C114 C 0.67977 0.9377 0.81381 0.0
O115 O 0.67425 0.95642 0.8277 0.0
O116 O 0.71752 0.98944 0.79034 0.0
C117 C 0.93337 0.23811 0.18904 0.0
O118 O 0.92574 0.25389 0.17218 0.0
O119 O 0.94516 0.29869 0.19857 0.0
Zn120 Zn 0.96804 0.27243 0.19044 0.0
O121 O 0.97517 0.27169 0.15179 0.0
C122 C 0.99773 0.28383 0.23446 0.0
O123 O 0.97761 0.28329 0.24723 0.0
O124 O 0.95287 0.24174 0.20063 0.0
C125 C 0.98739 0.28781 0.1411 0.0
O126 O 0.9956 0.30506 0.1557 0.0
C127 C 0.93393 0.31032 0.18125 0.0
O128 O 0.93714 0.30544 0.15629 0.0
O129 O 0.99799 0.27869 0.21017 0.0
C130 C 0.23402 0.06421 0.81498 0.0
O131 O 0.24492 0.06808 0.83735 0.0
O132 O 0.30003 0.06236 0.80016 0.0
Zn133 Zn 0.27547 0.03759 0.80764 0.0
O134 O 0.27586 0.02947 0.84622 0.0
C135 C 0.29217 0.01055 0.76356 0.0
O136 O 0.29514 0.03161 0.75334 0.0
O137 O 0.24369 0.05083 0.7981 0.0
C138 C 0.28347 0.01009 0.85542 0.0
O139 O 0.29151 0.99393 0.83927 0.0
C140 C 0.31131 0.07347 0.81785 0.0
O141 O 0.30697 0.06898 0.8427 0.0
O142 O 0.28313 0.00874 0.78631 0.0
C143 C 0.05574 0.76212 0.17842 0.0
O144 O 0.05542 0.7545 0.15405 0.0
O145 O 0.0541 0.69269 0.19356 0.0
Zn146 Zn 0.03106 0.7188 0.186 0.0
O147 O 0.02322 0.71847 0.14745 0.0
C148 C 0.0019 0.70646 0.23025 0.0
O149 O 0.02225 0.70596 0.24257 0.0
O150 O 0.04579 0.74988 0.19616 0.0
C151 C 0.0181 0.69933 0.13583 0.0
O152 O 0.01753 0.67965 0.14942 0.0
C153 C 0.0716 0.68859 0.17865 0.0
O154 O 0.07495 0.70192 0.15787 0.0
O155 O 0.00136 0.71237 0.20619 0.0
C156 C 0.76355 0.05999 0.18112 0.0
O157 O 0.75512 0.06073 0.15709 0.0
O158 O 0.69535 0.06173 0.19453 0.0
Zn159 Zn 0.71988 0.03662 0.18875 0.0
O160 O 0.72015 0.02732 0.15065 0.0
C161 C 0.70155 0.01066 0.23264 0.0
O162 O 0.69821 0.03197 0.24204 0.0
O163 O 0.75157 0.04983 0.19892 0.0
C164 C 0.7014 0.02208 0.13834 0.0
O165 O 0.6812 0.02211 0.15098 0.0
C166 C 0.69046 0.07747 0.17761 0.0
O167 O 0.70178 0.07768 0.1551 0.0
O168 O 0.71138 0.00826 0.21036 0.0
C169 C 0.06922 0.2441 0.80361 0.0
O170 O 0.08006 0.26109 0.81631 0.0
O171 O 0.05573 0.30384 0.80163 0.0
Zn172 Zn 0.03317 0.2773 0.81007 0.0
O173 O 0.02773 0.27556 0.84903 0.0
C174 C -0.00074 0.28387 0.76776 0.0
O175 O 0.01685 0.27767 0.75245 0.0
O176 O 0.04753 0.24662 0.798 0.0
C177 C 0.01556 0.29128 0.86054 0.0
O178 O 0.00652 0.30855 0.8466 0.0
C179 C 0.06778 0.31454 0.81901 0.0
O180 O 0.06548 0.30854 0.8438 0.0
O181 O 0.00224 0.28412 0.79249 0.0
C182 C 0.24063 0.92351 0.18961 0.0
O183 O 0.25749 0.9137 0.17569 0.0
O184 O 0.29995 0.93623 0.19451 0.0
Zn185 Zn 0.27401 0.95919 0.18604 0.0
O186 O 0.27332 0.96397 0.1469 0.0
C187 C 0.28606 0.99074 0.22836 0.0
O188 O 0.28579 0.97116 0.24214 0.0
O189 O 0.24325 0.94468 0.19726 0.0
C190 C 0.28624 0.97922 0.13566 0.0
O191 O 0.30017 0.99252 0.15 0.0
C192 C 0.32151 0.9422 0.19527 0.0
O193 O 0.3273 0.96423 0.19063 0.0
O194 O 0.2806 0.98999 0.20416 0.0
C195 C 0.95316 0.76759 0.81133 0.0
O196 O 0.96698 0.76703 0.83203 0.0
O197 O 0.94499 0.69229 0.79992 0.0
Zn198 Zn 0.9676 0.71894 0.80649 0.0
O199 O 0.976 0.71878 0.84491 0.0
C200 C 0.9964 0.70168 0.76421 0.0
O201 O 0.97608 0.69338 0.75599 0.0
O202 O 0.95136 0.74932 0.79702 0.0
C203 C 0.97989 0.6994 0.85667 0.0
O204 O 0.97881 0.67962 0.84329 0.0
C205 C 0.92656 0.68975 0.81383 0.0
O206 O 0.92219 0.70496 0.83268 0.0
O207 O 0.99703 0.71392 0.78512 0.0
H208 H 0.29396 0.43792 0.27073 0.0
H209 H 0.32895 0.41366 0.26188 0.0
H210 H 0.31049 0.36806 0.32643 0.0
H211 H 0.27567 0.39187 0.33529 0.0
H212 H 0.36732 0.40195 0.29588 0.0
H213 H 0.3183 0.3227 0.26384 0.0
H214 H 0.30487 0.35153 0.26563 0.0
H215 H 0.30798 0.33384 0.29478 0.0
C216 C 0.29737 0.4227 0.28299 0.0
C217 C 0.28196 0.41673 0.30361 0.0
C218 C 0.31734 0.4089 0.27792 0.0
C219 C 0.32202 0.38887 0.29322 0.0
C220 C 0.30691 0.38318 0.31406 0.0
H221 H 0.43941 0.3078 0.3382 0.0
H222 H 0.41109 0.33916 0.32962 0.0
C223 C 0.28706 0.39691 0.31917 0.0
C224 C 0.34281 0.37383 0.28801 0.0
H225 H 0.35817 0.31644 0.2782 0.0
C226 C 0.36542 0.38333 0.29153 0.0
C227 C 0.3403 0.34969 0.28177 0.0
C228 C 0.31656 0.33888 0.27601 0.0
C229 C 0.38554 0.3689 0.29072 0.0
C230 C 0.38282 0.34434 0.28679 0.0
C231 C 0.3603 0.33521 0.28151 0.0
C232 C 0.40251 0.32741 0.29027 0.0
C233 C 0.40942 0.38008 0.29447 0.0
C234 C 0.4071 0.31021 0.27109 0.0
C235 C 0.42301 0.29195 0.27615 0.0
C236 C 0.43465 0.29058 0.3005 0.0
C237 C 0.43085 0.30841 0.31919 0.0
C238 C 0.41478 0.32652 0.31422 0.0
H239 H 0.40946 0.39862 0.28745 0.0
H240 H 0.41378 0.38031 0.31572 0.0
H241 H 0.4234 0.37017 0.28391 0.0
H242 H 0.39776 0.31048 0.25253 0.0
H243 H 0.42563 0.27853 0.2613 0.0
H244 H 0.43922 0.70314 0.72344 0.0
H245 H 0.41746 0.66656 0.73209 0.0
H246 H 0.36418 0.68773 0.67643 0.0
H247 H 0.38587 0.7238 0.66729 0.0
H248 H 0.37314 0.65971 0.75113 0.0
H249 H 0.37937 0.6219 0.65157 0.0
H250 H 0.3975 0.64629 0.66209 0.0
H251 H 0.36801 0.65135 0.65014 0.0
C252 C 0.42293 0.69989 0.71295 0.0
C253 C 0.41436 0.71627 0.69452 0.0
C254 C 0.41055 0.67901 0.71791 0.0
C255 C 0.3895 0.67419 0.70445 0.0
C256 C 0.38075 0.69075 0.68646 0.0
H257 H 0.26393 0.60351 0.73758 0.0
H258 H 0.29968 0.62712 0.73938 0.0
C259 C 0.39311 0.71147 0.68139 0.0
C260 C 0.3759 0.65242 0.70969 0.0
H261 H 0.34632 0.60866 0.6779 0.0
C262 C 0.36764 0.64821 0.73525 0.0
C263 C 0.36928 0.63699 0.68916 0.0
C264 C 0.37925 0.63921 0.66178 0.0
C265 C 0.35142 0.63009 0.74038 0.0
C266 C 0.3428 0.61633 0.71924 0.0
C267 C 0.35255 0.61939 0.69411 0.0
C268 C 0.32213 0.60047 0.72191 0.0
C269 C 0.34344 0.6262 0.76831 0.0
C270 C 0.32265 0.57761 0.71128 0.0
C271 C 0.30199 0.56426 0.70961 0.0
C272 C 0.28049 0.57347 0.71872 0.0
C273 C 0.28024 0.59583 0.73058 0.0
C274 C 0.30079 0.6093 0.73187 0.0
H275 H 0.35774 0.63061 0.78239 0.0
H276 H 0.32835 0.63804 0.77262 0.0
H277 H 0.33787 0.60769 0.77169 0.0
H278 H 0.33886 0.57045 0.70337 0.0
H279 H 0.30273 0.54704 0.70046 0.0
H280 H 0.55864 0.69999 0.2846 0.0
H281 H 0.58065 0.66341 0.2765 0.0
H282 H 0.64162 0.69336 0.31451 0.0
H283 H 0.61986 0.72956 0.32301 0.0
H284 H 0.62289 0.65528 0.24924 0.0
H285 H 0.63193 0.63152 0.35408 0.0
H286 H 0.61128 0.65351 0.34275 0.0
H287 H 0.64178 0.66103 0.34784 0.0
C288 C 0.57673 0.69874 0.29122 0.0
C289 C 0.58744 0.71757 0.3047 0.0
C290 C 0.58925 0.67786 0.28657 0.0
C291 C 0.61257 0.67554 0.29542 0.0
C292 C 0.62344 0.69458 0.30813 0.0
H293 H 0.73334 0.59838 0.25495 0.0
H294 H 0.69805 0.62283 0.25469 0.0
C295 C 0.61099 0.71532 0.31286 0.0
C296 C 0.62593 0.65343 0.29138 0.0
H297 H 0.6599 0.61381 0.32449 0.0
C298 C 0.63067 0.64589 0.26566 0.0
C299 C 0.63555 0.64085 0.31282 0.0
C300 C 0.62966 0.64699 0.34092 0.0
C301 C 0.64618 0.62707 0.26081 0.0
C302 C 0.65754 0.61594 0.28225 0.0
C303 C 0.65145 0.62247 0.30798 0.0
C304 C 0.67733 0.59913 0.27876 0.0
C305 C 0.65048 0.61958 0.23279 0.0
C306 C 0.67754 0.57761 0.29239 0.0
C307 C 0.69792 0.56377 0.293 0.0
C308 C 0.71846 0.57121 0.27995 0.0
C309 C 0.7178 0.5921 0.26514 0.0
C310 C 0.69751 0.60603 0.26475 0.0
H311 H 0.63472 0.62298 0.22039 0.0
H312 H 0.66527 0.63002 0.22457 0.0
H313 H 0.65504 0.60058 0.23148 0.0
H314 H 0.66222 0.57198 0.30343 0.0
H315 H 0.69783 0.5477 0.30449 0.0
H316 H 0.5558 0.29679 0.71078 0.0
H317 H 0.5788 0.33273 0.7189 0.0
H318 H 0.63871 0.30138 0.68017 0.0
H319 H 0.61595 0.26583 0.67162 0.0
H320 H 0.62077 0.33914 0.74627 0.0
H321 H 0.63183 0.36403 0.64203 0.0
H322 H 0.61046 0.34245 0.65262 0.0
H323 H 0.64082 0.33417 0.64785 0.0
C324 C 0.57385 0.29763 0.70393 0.0
C325 C 0.58398 0.27854 0.69034 0.0
C326 C 0.58694 0.31814 0.70859 0.0
C327 C 0.61028 0.31987 0.69965 0.0
C328 C 0.62053 0.30065 0.68663 0.0
H329 H 0.73253 0.39391 0.74388 0.0
H330 H 0.69704 0.36978 0.74251 0.0
C331 C 0.6075 0.28026 0.68189 0.0
C332 C 0.62438 0.34145 0.70422 0.0
H333 H 0.65997 0.38048 0.67235 0.0
C334 C 0.62904 0.3485 0.73013 0.0
C335 C 0.6347 0.35399 0.68315 0.0
C336 C 0.62899 0.34843 0.65485 0.0
C337 C 0.64502 0.36677 0.73555 0.0
C338 C 0.65696 0.37786 0.71449 0.0
C339 C 0.65107 0.37182 0.68856 0.0
C340 C 0.67701 0.39424 0.71864 0.0
C341 C 0.64916 0.37376 0.76377 0.0
C342 C 0.67769 0.41605 0.70562 0.0
C343 C 0.69818 0.42973 0.70598 0.0
C344 C 0.71837 0.42184 0.71938 0.0
C345 C 0.71726 0.40056 0.73346 0.0
C346 C 0.69686 0.3868 0.7329 0.0
H347 H 0.63322 0.37046 0.77592 0.0
H348 H 0.6637 0.36295 0.77197 0.0
H349 H 0.65403 0.39266 0.76548 0.0
H350 H 0.66263 0.4221 0.69439 0.0
H351 H 0.69844 0.44609 0.69501 0.0
H352 H 0.78112 0.89704 0.85177 0.0
H353 H 0.81616 0.87297 0.84509 0.0
H354 H 0.8294 0.9081 0.77142 0.0
H355 H 0.79429 0.93268 0.77812 0.0
H356 H 0.82312 0.84239 0.80294 0.0
H357 H 0.89397 0.90999 0.80912 0.0
H358 H 0.86442 0.9153 0.82093 0.0
H359 H 0.87045 0.91584 0.78633 0.0
C360 C 0.79154 0.89986 0.83422 0.0
C361 C 0.78488 0.91675 0.81543 0.0
C362 C 0.81158 0.88606 0.83045 0.0
C363 C 0.82543 0.88885 0.80787 0.0
C364 C 0.81912 0.90593 0.78918 0.0
H365 H 0.92476 0.77581 0.76884 0.0
H366 H 0.8953 0.807 0.76398 0.0
C367 C 0.79902 0.91986 0.79298 0.0
C368 C 0.84569 0.87286 0.8036 0.0
H369 H 0.9058 0.87078 0.80095 0.0
C370 C 0.8412 0.84858 0.80226 0.0
C371 C 0.86921 0.88106 0.80291 0.0
C372 C 0.87496 0.90695 0.80508 0.0
C373 C 0.85962 0.83216 0.80098 0.0
C374 C 0.88319 0.84031 0.80039 0.0
C375 C 0.88769 0.86464 0.80115 0.0
C376 C 0.90329 0.82367 0.80117 0.0
C377 C 0.85366 0.80622 0.80148 0.0
C378 C 0.91836 0.82348 0.82302 0.0
C379 C 0.93539 0.80586 0.82573 0.0
C380 C 0.93756 0.78806 0.80665 0.0
C381 C 0.92333 0.7891 0.78404 0.0
C382 C 0.90644 0.80685 0.78126 0.0
H383 H 0.83519 0.80303 0.80782 0.0
H384 H 0.85579 0.79879 0.78146 0.0
H385 H 0.86563 0.79651 0.81494 0.0
H386 H 0.91627 0.83637 0.83856 0.0
H387 H 0.94613 0.80563 0.84332 0.0
H388 H 0.78416 0.06601 0.22951 0.0
H389 H 0.81847 0.0906 0.23997 0.0
H390 H 0.82661 0.10736 0.15782 0.0
H391 H 0.7928 0.08271 0.14716 0.0
H392 H 0.86975 0.09889 0.1843 0.0
H393 H 0.81209 0.16296 0.23702 0.0
H394 H 0.81183 0.13291 0.24825 0.0
H395 H 0.80015 0.13999 0.21644 0.0
C396 C 0.79346 0.0747 0.21366 0.0
C397 C 0.78558 0.07265 0.18753 0.0
C398 C 0.813 0.08877 0.21968 0.0
C399 C 0.82483 0.10102 0.19969 0.0
C400 C 0.81769 0.09806 0.17353 0.0
H401 H 0.88991 0.22789 0.1698 0.0
H402 H 0.86629 0.19277 0.17763 0.0
C403 C 0.79826 0.08404 0.1675 0.0
C404 C 0.84348 0.11843 0.20568 0.0
H405 H 0.85094 0.17444 0.22867 0.0
C406 C 0.86589 0.11522 0.19453 0.0
C407 C 0.83824 0.13972 0.21893 0.0
C408 C 0.81427 0.14432 0.23076 0.0
C409 C 0.88277 0.1333 0.19497 0.0
C410 C 0.87705 0.15499 0.20703 0.0
C411 C 0.8552 0.15769 0.21955 0.0
C412 C 0.89178 0.17618 0.20326 0.0
C413 C 0.90595 0.12976 0.181 0.0
C414 C 0.91394 0.17849 0.21523 0.0
C415 C 0.9276 0.19868 0.21079 0.0
C416 C 0.91923 0.21674 0.19428 0.0
C417 C 0.89694 0.21431 0.18254 0.0
C418 C 0.88336 0.19428 0.18705 0.0
H419 H 0.9069 0.11245 0.17083 0.0
H420 H 0.9087 0.14397 0.16631 0.0
H421 H 0.92058 0.13075 0.19543 0.0
H422 H 0.92062 0.16473 0.22797 0.0
H423 H 0.94468 0.20008 0.22015 0.0
H424 H 0.1164 0.23673 0.80709 0.0
H425 H 0.13791 0.20032 0.79925 0.0
H426 H 0.07328 0.16542 0.77742 0.0
H427 H 0.05135 0.2021 0.78542 0.0
H428 H 0.0998 0.14096 0.81493 0.0
H429 H 0.15611 0.1666 0.73125 0.0
H430 H 0.1571 0.18829 0.75686 0.0
H431 H 0.12974 0.18265 0.74004 0.0
C432 C 0.10671 0.22143 0.80034 0.0
C433 C 0.08215 0.22229 0.79692 0.0
C434 C 0.1191 0.20066 0.79563 0.0
C435 C 0.10726 0.1803 0.7873 0.0
C436 C 0.08275 0.18106 0.78356 0.0
H437 H 0.20928 0.06478 0.76861 0.0
H438 H 0.1741 0.08821 0.7584 0.0
C439 C 0.07028 0.20199 0.78813 0.0
C440 C 0.12056 0.15796 0.78498 0.0
H441 H 0.17187 0.13614 0.75999 0.0
C442 C 0.11522 0.13958 0.80243 0.0
C443 C 0.14039 0.15595 0.7683 0.0
C444 C 0.14602 0.17434 0.74785 0.0
C445 C 0.13044 0.12026 0.80534 0.0
C446 C 0.15163 0.11958 0.79071 0.0
C447 C 0.1558 0.13684 0.77151 0.0
C448 C 0.17102 0.10315 0.79736 0.0
C449 C 0.12412 0.10122 0.82478 0.0
C450 C 0.18092 0.10381 0.82261 0.0
C451 C 0.20095 0.09058 0.82846 0.0
C452 C 0.21165 0.07653 0.80911 0.0
C453 C 0.20141 0.07542 0.78396 0.0
C454 C 0.18132 0.08875 0.77809 0.0
H455 H 0.10469 0.09954 0.82682 0.0
H456 H 0.13151 0.08389 0.81886 0.0
H457 H 0.13134 0.10594 0.84435 0.0
H458 H 0.17366 0.11527 0.8376 0.0
H459 H 0.20839 0.09188 0.84801 0.0
H460 H 0.20017 0.93915 0.21376 0.0
H461 H 0.16401 0.91648 0.22195 0.0
H462 H 0.19612 0.85516 0.18689 0.0
H463 H 0.23207 0.87738 0.17888 0.0
H464 H 0.13565 0.89462 0.18458 0.0
H465 H 0.16934 0.82891 0.25523 0.0
H466 H 0.18478 0.85604 0.24816 0.0
H467 H 0.18801 0.83087 0.22688 0.0
C468 C 0.19957 0.92076 0.20807 0.0
C469 C 0.21899 0.91004 0.19569 0.0
C470 C 0.17893 0.90787 0.21277 0.0
C471 C 0.17758 0.88404 0.20547 0.0
C472 C 0.19699 0.87336 0.19328 0.0
H473 H 0.07889 0.79145 0.14485 0.0
H474 H 0.10443 0.82442 0.15592 0.0
C475 C 0.21749 0.88618 0.1885 0.0
C476 C 0.15548 0.87046 0.20863 0.0
H477 H 0.13554 0.81687 0.22919 0.0
C478 C 0.13538 0.87787 0.19486 0.0
C479 C 0.15496 0.84888 0.22251 0.0
C480 C 0.17537 0.84084 0.23927 0.0
C481 C 0.1155 0.86329 0.19274 0.0
C482 C 0.11599 0.8406 0.20429 0.0
C483 C 0.13528 0.83411 0.21997 0.0
C484 C 0.09823 0.82235 0.19783 0.0
C485 C 0.09447 0.87203 0.17745 0.0
C486 C 0.08643 0.80994 0.21775 0.0
C487 C 0.07192 0.79079 0.21147 0.0
C488 C 0.06917 0.78364 0.18518 0.0
C489 C 0.08055 0.7965 0.16529 0.0
C490 C 0.09501 0.81556 0.17157 0.0
H491 H 0.09305 0.89154 0.17856 0.0
H492 H 0.09662 0.86721 0.15645 0.0
H493 H 0.07781 0.86414 0.18479 0.0
H494 H 0.08887 0.81475 0.23817 0.0
H495 H 0.06342 0.78122 0.22726 0.0
H496 H 0.18883 0.49412 0.21162 0.0
H497 H 0.16922 0.52833 0.19213 0.0
H498 H 0.18652 0.56972 0.26056 0.0
H499 H 0.2065 0.53585 0.27992 0.0
H500 H 0.13104 0.5501 0.21244 0.0
H501 H 0.20334 0.61482 0.20194 0.0
H502 H 0.20868 0.58385 0.20757 0.0
H503 H 0.20164 0.60307 0.2346 0.0
C504 C 0.18885 0.51062 0.22231 0.0
C505 C 0.19921 0.51224 0.24735 0.0
C506 C 0.17762 0.53015 0.21115 0.0
C507 C 0.17664 0.55166 0.22474 0.0
C508 C 0.18753 0.55348 0.24942 0.0
H509 H 0.07028 0.65867 0.22068 0.0
H510 H 0.09621 0.62528 0.22964 0.0
C511 C 0.19882 0.53402 0.26055 0.0
C512 C 0.16237 0.5715 0.2144 0.0
H513 H 0.16391 0.6305 0.20127 0.0
C514 C 0.1383 0.56761 0.20966 0.0
C515 C 0.17189 0.59427 0.21047 0.0
C516 C 0.19786 0.59922 0.21364 0.0
C517 C 0.12332 0.58608 0.20215 0.0
C518 C 0.13256 0.60914 0.19984 0.0
C519 C 0.1568 0.61286 0.20344 0.0
C520 C 0.11718 0.62969 0.19447 0.0
C521 C 0.0977 0.58072 0.19684 0.0
C522 C 0.12084 0.64371 0.17213 0.0
C523 C 0.10613 0.66297 0.16703 0.0
C524 C 0.08759 0.66859 0.18428 0.0
C525 C 0.08427 0.65474 0.20689 0.0
C526 C 0.09899 0.63555 0.21197 0.0
H527 H 0.09503 0.56185 0.19182 0.0
H528 H 0.08723 0.58458 0.21474 0.0
H529 H 0.09076 0.59171 0.18052 0.0
H530 H 0.1349 0.63957 0.15848 0.0
H531 H 0.10921 0.67332 0.14949 0.0
H532 H 0.53438 0.7846 0.71908 0.0
H533 H 0.56945 0.80432 0.73628 0.0
H534 H 0.52643 0.84156 0.79251 0.0
H535 H 0.49141 0.82158 0.77587 0.0
H536 H 0.5761 0.85141 0.73425 0.0
H537 H 0.58154 0.82191 0.83776 0.0
H538 H 0.56351 0.80705 0.81367 0.0
H539 H 0.55305 0.83343 0.82949 0.0
C540 C 0.53245 0.79662 0.73547 0.0
C541 C 0.51009 0.80158 0.74606 0.0
C542 C 0.55251 0.80787 0.74527 0.0
C543 C 0.5506 0.82423 0.76585 0.0
C544 C 0.52842 0.82861 0.77704 0.0
H545 H 0.63387 0.93661 0.83008 0.0
H546 H 0.60376 0.90746 0.81878 0.0
C547 C 0.50837 0.81727 0.76736 0.0
C548 C 0.57128 0.83854 0.7737 0.0
H549 H 0.60366 0.85658 0.82658 0.0
C550 C 0.58235 0.85228 0.75437 0.0
C551 C 0.57932 0.83973 0.79999 0.0
C552 C 0.56888 0.82456 0.82137 0.0
C553 C 0.60073 0.86777 0.76074 0.0
C554 C 0.6084 0.86934 0.7871 0.0
C555 C 0.59765 0.85533 0.80639 0.0
C556 C 0.62705 0.88606 0.79505 0.0
C557 C 0.61124 0.88295 0.73939 0.0
C558 C 0.65017 0.8834 0.78576 0.0
C559 C 0.66741 0.90003 0.79211 0.0
C560 C 0.6618 0.91957 0.80795 0.0
C561 C 0.63874 0.92183 0.81775 0.0
C562 C 0.62153 0.90517 0.81139 0.0
H563 H 0.60021 0.88307 0.72135 0.0
H564 H 0.61346 0.90138 0.74631 0.0
H565 H 0.62891 0.87602 0.7341 0.0
H566 H 0.65481 0.86857 0.77338 0.0
H567 H 0.68504 0.89769 0.78438 0.0
H568 H 0.91121 0.34208 0.1497 0.0
H569 H 0.88452 0.37374 0.16326 0.0
H570 H 0.89186 0.35217 0.2441 0.0
H571 H 0.91894 0.3209 0.23086 0.0
H572 H 0.84203 0.37247 0.18924 0.0
H573 H 0.90823 0.42158 0.24774 0.0
H574 H 0.91625 0.39815 0.2255 0.0
H575 H 0.90529 0.39143 0.25782 0.0
C576 C 0.90719 0.34411 0.17038 0.0
C577 C 0.91737 0.32913 0.18924 0.0
C578 C 0.8919 0.36218 0.17807 0.0
C579 C 0.88656 0.36556 0.20472 0.0
C580 C 0.89622 0.35024 0.2235 0.0
H581 H 0.79937 0.45888 0.29589 0.0
H582 H 0.82154 0.4255 0.27828 0.0
C583 C 0.91161 0.33231 0.21587 0.0
C584 C 0.87086 0.38507 0.21296 0.0
H585 H 0.8682 0.43337 0.25284 0.0
C586 C 0.84777 0.38589 0.203 0.0
C587 C 0.87848 0.40264 0.23077 0.0
C588 C 0.90348 0.4036 0.24088 0.0
C589 C 0.8319 0.40349 0.21099 0.0
C590 C 0.83939 0.42062 0.22929 0.0
C591 C 0.86252 0.42 0.23897 0.0
C592 C 0.8236 0.43947 0.23883 0.0
C593 C 0.8071 0.40345 0.20032 0.0
C594 C 0.8172 0.45817 0.2223 0.0
C595 C 0.80462 0.47738 0.23231 0.0
C596 C 0.79829 0.47814 0.25902 0.0
C597 C 0.80396 0.45887 0.27523 0.0
C598 C 0.81664 0.43978 0.26524 0.0
H599 H 0.80299 0.38697 0.18946 0.0
H600 H 0.79419 0.40561 0.21654 0.0
H601 H 0.80486 0.41856 0.1867 0.0
H602 H 0.82268 0.45831 0.20191 0.0
H603 H 0.80052 0.49193 0.21931 0.0
H604 H 0.46207 0.20311 0.70244 0.0
H605 H 0.42828 0.18237 0.72101 0.0
H606 H 0.4601 0.18526 0.79785 0.0
H607 H 0.49416 0.20609 0.77946 0.0
H608 H 0.43541 0.1374 0.74873 0.0
H609 H 0.3889 0.20511 0.80869 0.0
H610 H 0.40802 0.21284 0.78163 0.0
H611 H 0.42042 0.20295 0.8121 0.0
C612 C 0.46177 0.19974 0.72338 0.0
C613 C 0.48091 0.20614 0.73945 0.0
C614 C 0.44243 0.18788 0.73394 0.0
C615 C 0.44171 0.1824 0.76077 0.0
C616 C 0.46025 0.18961 0.77713 0.0
H617 H 0.34222 0.09669 0.85012 0.0
H618 H 0.37404 0.12345 0.83715 0.0
C619 C 0.47971 0.20143 0.76656 0.0
C620 C 0.4227 0.1671 0.77091 0.0
H621 H 0.37382 0.1663 0.81 0.0
C622 C 0.42192 0.14369 0.76212 0.0
C623 C 0.40539 0.17536 0.78859 0.0
C624 C 0.40548 0.20047 0.7983 0.0
C625 C 0.40417 0.12825 0.77047 0.0
C626 C 0.38637 0.13665 0.78755 0.0
C627 C 0.38741 0.15997 0.79677 0.0
C628 C 0.36637 0.12151 0.79557 0.0
C629 C 0.40486 0.10298 0.76119 0.0
C630 C 0.35121 0.11201 0.77654 0.0
C631 C 0.33317 0.09662 0.78382 0.0
C632 C 0.32975 0.09065 0.81036 0.0
C633 C 0.34445 0.10085 0.82951 0.0
C634 C 0.3626 0.11617 0.82215 0.0
H635 H 0.42284 0.09775 0.75479 0.0
H636 H 0.399 0.09073 0.7769 0.0
H637 H 0.39286 0.10092 0.74413 0.0
H638 H 0.35348 0.11634 0.75596 0.0
H639 H 0.32201 0.08929 0.76861 0.0
H640 H 0.19677 0.46226 0.70052 0.0
H641 H 0.17489 0.42963 0.72 0.0
H642 H 0.1888 0.4572 0.79744 0.0
H643 H 0.21032 0.49032 0.77807 0.0
H644 H 0.18659 0.39489 0.75557 0.0
H645 H 0.11717 0.45391 0.79592 0.0
H646 H 0.13895 0.46401 0.77269 0.0
H647 H 0.14658 0.46044 0.80674 0.0
C648 C 0.19537 0.46133 0.72171 0.0
C649 C 0.20504 0.47906 0.73774 0.0
C650 C 0.18286 0.44264 0.73281 0.0
C651 C 0.17981 0.44128 0.76011 0.0
C652 C 0.19047 0.45826 0.77627 0.0
H653 H 0.09373 0.34308 0.85122 0.0
H654 H 0.12244 0.37313 0.8383 0.0
C655 C 0.20288 0.47708 0.76518 0.0
C656 C 0.16474 0.42252 0.77136 0.0
H657 H 0.11336 0.41331 0.80478 0.0
C658 C 0.17063 0.3989 0.76643 0.0
C659 C 0.14389 0.42784 0.78548 0.0
C660 C 0.13609 0.45291 0.79038 0.0
C661 C 0.15614 0.38043 0.77509 0.0
C662 C 0.13514 0.3858 0.78878 0.0
C663 C 0.12952 0.40935 0.79429 0.0
C664 C 0.11822 0.36728 0.79658 0.0
C665 C 0.16335 0.35533 0.76952 0.0
C666 C 0.10616 0.35433 0.77734 0.0
C667 C 0.08966 0.33727 0.78461 0.0
C668 C 0.08495 0.33287 0.81129 0.0
C669 C 0.09701 0.34599 0.83051 0.0
C670 C 0.11341 0.36315 0.8232 0.0
H671 H 0.18239 0.35396 0.76468 0.0
H672 H 0.15952 0.34379 0.78662 0.0
H673 H 0.15314 0.34864 0.75248 0.0
H674 H 0.10935 0.35759 0.75667 0.0
H675 H 0.08066 0.32751 0.76932 0.0
H676 H 0.31566 0.89482 0.20265 0.0
H677 H 0.34585 0.86574 0.21397 0.0
H678 H 0.39882 0.92021 0.21318 0.0
H679 H 0.36879 0.94949 0.20195 0.0
H680 H 0.38893 0.85406 0.1862 0.0
H681 H 0.4044 0.88874 0.28685 0.0
H682 H 0.37856 0.89618 0.26786 0.0
H683 H 0.40622 0.91031 0.26106 0.0
C684 C 0.33373 0.90065 0.20488 0.0
C685 C 0.33981 0.92451 0.20157 0.0
C686 C 0.35094 0.88398 0.21127 0.0
C687 C 0.37445 0.89092 0.21466 0.0
C688 C 0.38067 0.91461 0.21096 0.0
H689 H 0.50378 0.81217 0.22516 0.0
H690 H 0.46955 0.83452 0.21002 0.0
C691 C 0.3635 0.93129 0.20448 0.0
C692 C 0.39247 0.87341 0.22238 0.0
H693 H 0.43086 0.85946 0.27153 0.0
C694 C 0.39806 0.85512 0.20489 0.0
C695 C 0.40403 0.87471 0.24693 0.0
C696 C 0.39792 0.8934 0.26691 0.0
C697 C 0.41546 0.83839 0.21106 0.0
C698 C 0.4276 0.84021 0.23523 0.0
C699 C 0.42156 0.85817 0.25296 0.0
C700 C 0.44714 0.82417 0.24242 0.0
C701 C 0.42061 0.81886 0.19179 0.0
C702 C 0.44582 0.81081 0.26556 0.0
C703 C 0.46538 0.7981 0.27435 0.0
C704 C 0.48669 0.79871 0.26025 0.0
C705 C 0.48763 0.8113 0.23647 0.0
C706 C 0.46804 0.82399 0.22769 0.0
H707 H 0.40577 0.81619 0.17785 0.0
H708 H 0.4365 0.82352 0.18019 0.0
H709 H 0.42415 0.802 0.20215 0.0
H710 H 0.42985 0.81079 0.27724 0.0
H711 H 0.46404 0.78857 0.29273 0.0
H712 H 0.80443 0.49735 0.78481 0.0
H713 H 0.82366 0.53175 0.80438 0.0
H714 H 0.81497 0.56995 0.73175 0.0
H715 H 0.79539 0.53594 0.71224 0.0
H716 H 0.8645 0.5509 0.78768 0.0
H717 H 0.79461 0.6188 0.78494 0.0
H718 H 0.78845 0.58781 0.78069 0.0
H719 H 0.7988 0.60523 0.75346 0.0
C720 C 0.80623 0.51322 0.77315 0.0
C721 C 0.7984 0.51389 0.74695 0.0
C722 C 0.81723 0.53285 0.78437 0.0
C723 C 0.82048 0.55352 0.76965 0.0
C724 C 0.81215 0.55441 0.74371 0.0
H725 H 0.93021 0.65599 0.7758 0.0
H726 H 0.90386 0.62273 0.76795 0.0
C727 C 0.8011 0.53485 0.73251 0.0
C728 C 0.83454 0.57332 0.78039 0.0
H729 H 0.83452 0.63305 0.7886 0.0
C730 C 0.85782 0.56881 0.78825 0.0
C731 C 0.82574 0.59664 0.78148 0.0
C732 C 0.80045 0.60239 0.77495 0.0
C733 C 0.87289 0.58713 0.79598 0.0
C734 C 0.86458 0.61063 0.7953 0.0
C735 C 0.84096 0.61505 0.78872 0.0
C736 C 0.88042 0.63089 0.80025 0.0
C737 C 0.89763 0.58116 0.80461 0.0
C738 C 0.87559 0.64691 0.82055 0.0
C739 C 0.89055 0.6661 0.82499 0.0
C740 C 0.91051 0.66964 0.80907 0.0
C741 C 0.91509 0.6537 0.78854 0.0
C742 C 0.90013 0.63458 0.78412 0.0
H743 H 0.89889 0.56267 0.81168 0.0
H744 H 0.90977 0.58309 0.78765 0.0
H745 H 0.90368 0.59312 0.8205 0.0
H746 H 0.86036 0.64445 0.83308 0.0
H747 H 0.8865 0.67809 0.84092 0.0
H748 H 0.66782 0.08516 0.22414 0.0
H749 H 0.63653 0.11364 0.23321 0.0
H750 H 0.63958 0.13807 0.1531 0.0
H751 H 0.67112 0.10967 0.14375 0.0
H752 H 0.63896 0.16823 0.22033 0.0
H753 H 0.56806 0.11546 0.1723 0.0
H754 H 0.59424 0.1016 0.18532 0.0
H755 H 0.59609 0.11905 0.15607 0.0
C756 C 0.66193 0.09661 0.20842 0.0
C757 C 0.67192 0.09511 0.18319 0.0
C758 C 0.6441 0.11289 0.21368 0.0
C759 C 0.63581 0.12781 0.19379 0.0
C760 C 0.6458 0.1266 0.16864 0.0
H761 H 0.50681 0.21163 0.21008 0.0
H762 H 0.5424 0.19446 0.19066 0.0
C763 C 0.6638 0.1104 0.16338 0.0
C764 C 0.6163 0.14424 0.1995 0.0
H765 H 0.55656 0.14942 0.19529 0.0
C766 C 0.62095 0.16436 0.21462 0.0
C767 C 0.59297 0.13915 0.19173 0.0
C768 C 0.58731 0.11764 0.17549 0.0
C769 C 0.60264 0.17926 0.22287 0.0
C770 C 0.57908 0.17344 0.2164 0.0
C771 C 0.57461 0.15384 0.20028 0.0
C772 C 0.5587 0.18611 0.22796 0.0
C773 C 0.60874 0.20097 0.23857 0.0
C774 C 0.55609 0.18718 0.25535 0.0
C775 C 0.53591 0.19706 0.26647 0.0
C776 C 0.5177 0.20578 0.25043 0.0
C777 C 0.52051 0.20508 0.22298 0.0
C778 C 0.54082 0.19528 0.21185 0.0
H779 H 0.62677 0.20734 0.23382 0.0
H780 H 0.59601 0.21547 0.2349 0.0
H781 H 0.60837 0.19658 0.25981 0.0
H782 H 0.56933 0.17964 0.26818 0.0
H783 H 0.53428 0.19717 0.28768 0.0
H784 H 0.67488 0.99091 0.72798 0.0
H785 H 0.65282 0.02552 0.71355 0.0
H786 H 0.6898 0.06836 0.77012 0.0
H787 H 0.71171 0.03375 0.78503 0.0
H788 H 0.64204 0.07231 0.77419 0.0
H789 H 0.66919 0.08362 0.67039 0.0
H790 H 0.65961 0.0542 0.67778 0.0
H791 H 0.68564 0.06575 0.69334 0.0
C792 C 0.67869 0.00777 0.73701 0.0
C793 C 0.69498 0.00953 0.75775 0.0
C794 C 0.66614 0.02759 0.72861 0.0
C795 C 0.66982 0.04956 0.74059 0.0
C796 C 0.68676 0.05157 0.76056 0.0
H797 H 0.59947 0.18021 0.69423 0.0
H798 H 0.62905 0.15012 0.70439 0.0
C799 C 0.69928 0.03176 0.76902 0.0
C800 C 0.65432 0.06979 0.73423 0.0
H801 H 0.63402 0.1038 0.6837 0.0
C802 C 0.64048 0.07936 0.75445 0.0
C803 C 0.65243 0.07908 0.70852 0.0
C804 C 0.66768 0.0703 0.68631 0.0
C805 C 0.62428 0.09749 0.74953 0.0
C806 C 0.62159 0.10601 0.7236 0.0
C807 C 0.63595 0.09701 0.7035 0.0
C808 C 0.60367 0.12401 0.71698 0.0
C809 C 0.6102 0.1074 0.77213 0.0
C810 C 0.57962 0.11913 0.72035 0.0
C811 C 0.56269 0.13624 0.7146 0.0
C812 C 0.56951 0.15854 0.70525 0.0
C813 C 0.59363 0.16324 0.7015 0.0
C814 C 0.61056 0.14608 0.70723 0.0
H815 H 0.61861 0.1035 0.79136 0.0
H816 H 0.60809 0.12679 0.77022 0.0
H817 H 0.59238 0.09932 0.77214 0.0
H818 H 0.57395 0.10204 0.72743 0.0
H819 H 0.54427 0.13199 0.71757 0.0
H820 H 0.17428 0.41192 0.27023 0.0
H821 H 0.14297 0.38344 0.26102 0.0
H822 H 0.12761 0.37836 0.34376 0.0
H823 H 0.15898 0.40678 0.35329 0.0
H824 H 0.13765 0.33438 0.28581 0.0
H825 H 0.06395 0.39735 0.30397 0.0
H826 H 0.0933 0.40726 0.29575 0.0
H827 H 0.08734 0.39569 0.32784 0.0
C828 C 0.16428 0.40475 0.2865 0.0
C829 C 0.16905 0.41168 0.31249 0.0
C830 C 0.14647 0.38844 0.28119 0.0
C831 C 0.13301 0.37896 0.30171 0.0
C832 C 0.1378 0.38563 0.32768 0.0
H833 H 0.00357 0.29677 0.28588 0.0
H834 H 0.03762 0.31674 0.3053 0.0
C835 C 0.15572 0.40184 0.33306 0.0
C836 C 0.11367 0.3624 0.29575 0.0
H837 H 0.05386 0.35911 0.29049 0.0
C838 C 0.11929 0.33965 0.28699 0.0
C839 C 0.08983 0.36937 0.29759 0.0
C840 C 0.08305 0.39376 0.30667 0.0
C841 C 0.10159 0.32369 0.27961 0.0
C842 C 0.07773 0.33098 0.28038 0.0
C843 C 0.07214 0.35354 0.28992 0.0
C844 C 0.05839 0.31628 0.26964 0.0
C845 C 0.10863 0.2992 0.27112 0.0
C846 C 0.05887 0.30917 0.24325 0.0
C847 C 0.03955 0.29764 0.23216 0.0
C848 C 0.01919 0.2933 0.24715 0.0
C849 C 0.01898 0.29985 0.2738 0.0
C850 C 0.0384 0.31128 0.28492 0.0
H851 H 0.12566 0.29388 0.28012 0.0
H852 H 0.095 0.28602 0.2765 0.0
H853 H 0.11093 0.29892 0.24948 0.0
H854 H 0.07382 0.31337 0.23087 0.0
H855 H 0.04026 0.29296 0.21154 0.0
H856 H 0.31636 0.00867 0.71713 0.0
H857 H 0.33581 0.97437 0.69766 0.0
H858 H 0.30964 0.93063 0.7605 0.0
H859 H 0.28999 0.96471 0.78 0.0
H860 H 0.37065 0.94853 0.723 0.0
H861 H 0.29582 0.89096 0.6949 0.0
H862 H 0.29232 0.92204 0.70162 0.0
H863 H 0.29436 0.90128 0.72822 0.0
C864 C 0.31439 0.99168 0.72657 0.0
C865 C 0.30167 0.98944 0.75016 0.0
C866 C 0.32553 0.97211 0.71542 0.0
C867 C 0.32397 0.94994 0.7275 0.0
C868 C 0.31069 0.94749 0.75059 0.0
H869 H 0.42045 0.83369 0.72606 0.0
H870 H 0.39568 0.86779 0.73592 0.0
C871 C 0.29959 0.96704 0.76179 0.0
C872 C 0.33797 0.92986 0.71741 0.0
H873 H 0.33389 0.87275 0.69673 0.0
C874 C 0.36261 0.93205 0.71697 0.0
C875 C 0.32742 0.90847 0.70937 0.0
C876 C 0.30101 0.90555 0.70827 0.0
C877 C 0.37703 0.91311 0.70958 0.0
C878 C 0.36652 0.89136 0.70278 0.0
C879 C 0.34187 0.8894 0.70225 0.0
C880 C 0.38094 0.87031 0.69682 0.0
C881 C 0.40341 0.91649 0.70921 0.0
C882 C 0.38038 0.86011 0.67173 0.0
C883 C 0.3945 0.84056 0.666 0.0
C884 C 0.40927 0.8308 0.68537 0.0
C885 C 0.40938 0.84082 0.71065 0.0
C886 C 0.39532 0.86037 0.71631 0.0
H887 H 0.40828 0.93544 0.70833 0.0
H888 H 0.41107 0.90896 0.72744 0.0
H889 H 0.41146 0.90727 0.69218 0.0
H890 H 0.36927 0.86749 0.65649 0.0
H891 H 0.39394 0.83321 0.64638 0.0
H892 H 0.81932 0.61098 0.34509 0.0
H893 H 0.85228 0.63701 0.33397 0.0
H894 H 0.86492 0.59689 0.26338 0.0
H895 H 0.83233 0.57063 0.27447 0.0
H896 H 0.90528 0.60488 0.29282 0.0
H897 H 0.85524 0.68793 0.27673 0.0
H898 H 0.85029 0.67371 0.30779 0.0
H899 H 0.84114 0.65942 0.278 0.0
C900 C 0.82902 0.60779 0.32711 0.0
C901 C 0.8232 0.58874 0.31065 0.0
C902 C 0.84776 0.62276 0.32073 0.0
C903 C 0.86084 0.61902 0.29771 0.0
C904 C 0.85499 0.60009 0.28122 0.0
H905 H 0.95793 0.70195 0.20889 0.0
H906 H 0.92372 0.68245 0.22822 0.0
C907 C 0.83634 0.58512 0.28759 0.0
C908 C 0.88123 0.63418 0.29108 0.0
H909 H 0.89677 0.69023 0.27379 0.0
C910 C 0.90347 0.62357 0.2888 0.0
C911 C 0.87871 0.65851 0.28569 0.0
C912 C 0.85505 0.67062 0.28693 0.0
C913 C 0.92326 0.63654 0.28086 0.0
C914 C 0.9208 0.6609 0.27556 0.0
C915 C 0.89861 0.6716 0.27815 0.0
C916 C 0.94073 0.67504 0.26536 0.0
C917 C 0.94643 0.62384 0.27726 0.0
C918 C 0.96138 0.678 0.28018 0.0
C919 C 0.98105 0.68905 0.26914 0.0
C920 C 0.98032 0.69744 0.24314 0.0
C921 C 0.95915 0.69557 0.22891 0.0
C922 C 0.93954 0.68447 0.23993 0.0
H923 H 0.94414 0.6044 0.27668 0.0
H924 H 0.95523 0.62952 0.25882 0.0
H925 H 0.95828 0.62813 0.29393 0.0
H926 H 0.96247 0.67122 0.30003 0.0
H927 H 0.99702 0.6904 0.28071 0.0
H928 H 0.67568 0.00998 0.27797 0.0
H929 H 0.65629 0.97602 0.29819 0.0
H930 H 0.68533 0.9306 0.23845 0.0
H931 H 0.70493 0.96435 0.2182 0.0
H932 H 0.62285 0.94811 0.27283 0.0
H933 H 0.69858 0.89421 0.30664 0.0
H934 H 0.70129 0.92509 0.29848 0.0
H935 H 0.70066 0.90324 0.2729 0.0
C936 C 0.67827 0.99272 0.26936 0.0
C937 C 0.69181 0.98988 0.24644 0.0
C938 C 0.66716 0.97335 0.28094 0.0
C939 C 0.66959 0.95079 0.26997 0.0
C940 C 0.6836 0.94779 0.24751 0.0
H941 H 0.57647 0.83173 0.27578 0.0
H942 H 0.60021 0.86616 0.26438 0.0
C943 C 0.69467 0.96714 0.23588 0.0
C944 C 0.6559 0.93075 0.2806 0.0
H945 H 0.66114 0.87488 0.30482 0.0
C946 C 0.63121 0.93218 0.28008 0.0
C947 C 0.66687 0.91011 0.29024 0.0
C948 C 0.69331 0.90807 0.29237 0.0
C949 C 0.61717 0.91319 0.28814 0.0
C950 C 0.62814 0.89215 0.29662 0.0
C951 C 0.65281 0.89098 0.29802 0.0
C952 C 0.61423 0.871 0.30354 0.0
C953 C 0.5907 0.91577 0.28747 0.0
C954 C 0.61474 0.86201 0.3292 0.0
C955 C 0.60123 0.84228 0.33579 0.0
C956 C 0.58713 0.83112 0.31676 0.0
C957 C 0.58704 0.83996 0.29094 0.0
C958 C 0.60051 0.8597 0.2844 0.0
H959 H 0.58525 0.93459 0.28709 0.0
H960 H 0.58376 0.90718 0.26947 0.0
H961 H 0.58246 0.90712 0.30476 0.0
H962 H 0.62535 0.87046 0.34418 0.0
H963 H 0.60175 0.83586 0.35582 0.0
H964 H 0.82781 0.41655 0.72884 0.0
H965 H 0.85886 0.3881 0.73918 0.0
H966 H 0.85551 0.36087 0.66022 0.0
H967 H 0.82429 0.38921 0.64961 0.0
H968 H 0.85607 0.33382 0.72988 0.0
H969 H 0.92704 0.38236 0.67681 0.0
H970 H 0.90097 0.39716 0.68879 0.0
H971 H 0.89901 0.37804 0.66086 0.0
C972 C 0.83362 0.40451 0.71365 0.0
C973 C 0.82364 0.4052 0.68837 0.0
C974 C 0.85129 0.38824 0.71963 0.0
C975 C 0.85944 0.37254 0.70041 0.0
C976 C 0.84944 0.37296 0.67523 0.0
H977 H 0.9861 0.28524 0.71593 0.0
H978 H 0.9505 0.30318 0.6974 0.0
C979 C 0.83162 0.38914 0.66926 0.0
C980 C 0.87874 0.35604 0.70678 0.0
H981 H 0.93812 0.34865 0.70049 0.0
C982 C 0.87399 0.33686 0.72329 0.0
C983 C 0.90197 0.36001 0.69786 0.0
C984 C 0.90778 0.38052 0.68015 0.0
C985 C 0.89208 0.32173 0.73165 0.0
C986 C 0.91558 0.32639 0.72385 0.0
C987 C 0.92012 0.34511 0.7065 0.0
C988 C 0.93592 0.31337 0.73502 0.0
C989 C 0.8858 0.30095 0.74877 0.0
C990 C 0.93951 0.31307 0.7623 0.0
C991 C 0.95968 0.30273 0.77292 0.0
C992 C 0.97692 0.29277 0.75645 0.0
C993 C 0.97316 0.29274 0.72914 0.0
C994 C 0.95283 0.30299 0.71852 0.0
H995 H 0.86741 0.29506 0.74516 0.0
H996 H 0.89787 0.28585 0.74534 0.0
H997 H 0.8871 0.30623 0.76971 0.0
H998 H 0.92707 0.32155 0.77539 0.0
H999 H 0.96208 0.30322 0.79402 0.0
H1000 H 0.42534 0.15964 0.26899 0.0
H1001 H 0.39935 0.12669 0.25836 0.0
H1002 H 0.35471 0.14454 0.32399 0.0
H1003 H 0.38044 0.17786 0.33458 0.0
H1004 H 0.38818 0.08837 0.28941 0.0
H1005 H 0.30783 0.13925 0.26312 0.0
H1006 H 0.3365 0.15279 0.26605 0.0
H1007 H 0.31985 0.14564 0.295 0.0
C1008 C 0.40993 0.15668 0.28112 0.0
C1009 C 0.40491 0.17144 0.30259 0.0
C1010 C 0.39512 0.13781 0.27502 0.0
C1011 C 0.37496 0.13335 0.29019 0.0
C1012 C 0.36992 0.14796 0.31172 0.0
H1013 H 0.30057 0.99839 0.27896 0.0
H1014 H 0.32028 0.03345 0.29637 0.0
C1015 C 0.38472 0.16691 0.31782 0.0
C1016 C 0.35972 0.11295 0.28374 0.0
H1017 H 0.30437 0.0977 0.26356 0.0
C1018 C 0.36982 0.09037 0.28386 0.0
C1019 C 0.33584 0.1157 0.27633 0.0
C1020 C 0.32434 0.13965 0.27486 0.0
C1021 C 0.35678 0.07045 0.27648 0.0
C1022 C 0.33284 0.07314 0.26928 0.0
C1023 C 0.32266 0.09569 0.26937 0.0
C1024 C 0.31863 0.05293 0.25987 0.0
C1025 C 0.369 0.04681 0.27556 0.0
C1026 C 0.31025 0.05271 0.23395 0.0
C1027 C 0.29882 0.03281 0.224 0.0
C1028 C 0.29555 0.01275 0.23984 0.0
C1029 C 0.30298 0.01346 0.26619 0.0
C1030 C 0.31435 0.03343 0.27614 0.0
H1031 H 0.3885 0.04863 0.27596 0.0
H1032 H 0.36364 0.03624 0.29289 0.0
H1033 H 0.36395 0.03691 0.25759 0.0
H1034 H 0.31329 0.06763 0.22111 0.0
H1035 H 0.29325 0.0329 0.20365 0.0
H1036 H 0.193 0.62125 0.66359 0.0
H1037 H 0.16116 0.64843 0.67559 0.0
H1038 H 0.1294 0.59427 0.72335 0.0
H1039 H 0.1612 0.56724 0.71192 0.0
H1040 H 0.11312 0.645 0.6681 0.0
H1041 H 0.13385 0.64935 0.77416 0.0
H1042 H 0.15414 0.63735 0.75034 0.0
H1043 H 0.13046 0.61954 0.76303 0.0
C1044 C 0.17927 0.61517 0.67672 0.0
C1045 C 0.17973 0.59214 0.68698 0.0
C1046 C 0.16111 0.63071 0.68353 0.0
C1047 C 0.1432 0.6235 0.70076 0.0
C1048 C 0.14338 0.60039 0.71055 0.0
H1049 H 0.00211 0.66811 0.72634 0.0
H1050 H 0.03907 0.65296 0.7087 0.0
C1051 C 0.16151 0.58491 0.70386 0.0
C1052 C 0.12396 0.63981 0.70825 0.0
H1053 H 0.09496 0.66167 0.76161 0.0
C1054 C 0.1093 0.64896 0.68851 0.0
C1055 C 0.11933 0.6454 0.73483 0.0
C1056 C 0.13544 0.63761 0.75678 0.0
C1057 C 0.08935 0.6625 0.69478 0.0
C1058 C 0.08369 0.66649 0.72151 0.0
C1059 C 0.0991 0.6584 0.74112 0.0
C1060 C 0.06122 0.67762 0.72982 0.0
C1061 C 0.07452 0.67224 0.67271 0.0
C1062 C 0.0613 0.69639 0.74782 0.0
C1063 C 0.04016 0.70481 0.75835 0.0
C1064 C 0.01854 0.69464 0.75102 0.0
C1065 C 0.01845 0.67645 0.73227 0.0
C1066 C 0.03959 0.66788 0.72197 0.0
H1067 H 0.08525 0.67508 0.65473 0.0
H1068 H 0.06047 0.65937 0.66775 0.0
H1069 H 0.06609 0.68918 0.67829 0.0
H1070 H 0.07778 0.70411 0.75425 0.0
H1071 H 0.04081 0.71889 0.7727 0.0
H1072 H 0.24498 0.5289 0.59839 0.0
H1073 H 0.24474 0.52394 0.55066 0.0
H1074 H 0.17215 0.50161 0.55375 0.0
H1075 H 0.17222 0.50633 0.60152 0.0
H1076 H 0.20161 0.47236 0.5231 0.0
H1077 H 0.21138 0.56684 0.49666 0.0
H1078 H 0.23306 0.556 0.51939 0.0
H1079 H 0.20263 0.55725 0.52906 0.0
C1080 C 0.22893 0.52298 0.58894 0.0
C1081 C 0.20859 0.51807 0.60375 0.0
C1082 C 0.2288 0.52029 0.56165 0.0
C1083 C 0.20833 0.51274 0.5487 0.0
C1084 C 0.18808 0.5076 0.56342 0.0
H1085 H 0.17996 0.51409 0.38094 0.0
H1086 H 0.17928 0.52053 0.42849 0.0
C1087 C 0.18816 0.51032 0.5907 0.0
C1088 C 0.2082 0.50961 0.51985 0.0
H1089 H 0.21491 0.53912 0.46188 0.0
C1090 C 0.20444 0.48694 0.50968 0.0
C1091 C 0.21163 0.52875 0.50247 0.0
C1092 C 0.2147 0.55364 0.51236 0.0
C1093 C 0.20445 0.4828 0.48252 0.0
C1094 C 0.20863 0.50181 0.46516 0.0
C1095 C 0.21194 0.52457 0.4753 0.0
C1096 C 0.20952 0.4984 0.43637 0.0
C1097 C 0.19972 0.45819 0.47259 0.0
C1098 C 0.22703 0.48418 0.42509 0.0
C1099 C 0.22749 0.48047 0.39797 0.0
C1100 C 0.21048 0.491 0.38164 0.0
C1101 C 0.19327 0.50566 0.39297 0.0
C1102 C 0.19285 0.50938 0.42012 0.0
H1103 H 0.19123 0.44702 0.48783 0.0
H1104 H 0.18822 0.45857 0.45494 0.0
H1105 H 0.21666 0.44978 0.46702 0.0
H1106 H 0.24031 0.4759 0.43729 0.0
H1107 H 0.24106 0.46917 0.38987 0.0
H1108 H 0.53381 0.7547 0.39867 0.0
H1109 H 0.52686 0.75452 0.44609 0.0
H1110 H 0.48839 0.81984 0.43961 0.0
H1111 H 0.49498 0.82006 0.39213 0.0
H1112 H 0.54026 0.78853 0.48306 0.0
H1113 H 0.4431 0.77691 0.48047 0.0
H1114 H 0.46161 0.77162 0.45222 0.0
H1115 H 0.45377 0.80123 0.46127 0.0
C1116 C 0.52375 0.76897 0.40729 0.0
C1117 C 0.51484 0.78735 0.39161 0.0
C1118 C 0.51984 0.76885 0.43438 0.0
C1119 C 0.50687 0.787 0.44626 0.0
C1120 C 0.49807 0.80544 0.43072 0.0
H1121 H 0.50191 0.82322 0.61191 0.0
H1122 H 0.50907 0.82227 0.56453 0.0
C1123 C 0.50196 0.80558 0.40362 0.0
C1124 C 0.50303 0.78691 0.47501 0.0
H1125 H 0.46013 0.78556 0.52198 0.0
C1126 C 0.52276 0.78781 0.49162 0.0
C1127 C 0.48019 0.7857 0.48603 0.0
C1128 C 0.45844 0.78359 0.46912 0.0
C1129 C 0.52023 0.7879 0.51904 0.0
C1130 C 0.49735 0.7874 0.53004 0.0
C1131 C 0.47764 0.78614 0.51344 0.0
C1132 C 0.49344 0.78786 0.55878 0.0
C1133 C 0.54205 0.78815 0.53598 0.0
C1134 C 0.4819 0.76902 0.57113 0.0
C1135 C 0.47766 0.76956 0.59814 0.0
C1136 C 0.48479 0.78903 0.61329 0.0
C1137 C 0.49632 0.80791 0.60084 0.0
C1138 C 0.50054 0.80735 0.57379 0.0
H1139 H 0.55794 0.78254 0.52484 0.0
H1140 H 0.54514 0.80634 0.54325 0.0
H1141 H 0.53992 0.77641 0.55328 0.0
H1142 H 0.4762 0.75387 0.55983 0.0
H1143 H 0.46868 0.75475 0.6071 0.0
H1144 H 0.75997 0.52847 0.39878 0.0
H1145 H 0.7619 0.52281 0.44635 0.0
H1146 H 0.8318 0.49372 0.43879 0.0
H1147 H 0.83002 0.49917 0.39113 0.0
H1148 H 0.8007 0.46684 0.47064 0.0
H1149 H 0.80183 0.56134 0.4991 0.0
H1150 H 0.77832 0.55329 0.47721 0.0
H1151 H 0.80835 0.55144 0.46616 0.0
C1152 C 0.77579 0.52092 0.40721 0.0
C1153 C 0.79487 0.51432 0.39117 0.0
C1154 C 0.77691 0.51783 0.43441 0.0
C1155 C 0.79712 0.50816 0.44606 0.0
C1156 C 0.8161 0.50135 0.43013 0.0
H1157 H 0.82813 0.50369 0.61372 0.0
H1158 H 0.82989 0.51007 0.56617 0.0
C1159 C 0.81505 0.50449 0.40292 0.0
C1160 C 0.79815 0.50453 0.47481 0.0
H1161 H 0.79607 0.53355 0.53353 0.0
C1162 C 0.79982 0.48141 0.48442 0.0
C1163 C 0.79728 0.52361 0.49266 0.0
C1164 C 0.79656 0.54885 0.48334 0.0
C1165 C 0.8 0.47682 0.5115 0.0
C1166 C 0.79823 0.49584 0.52934 0.0
C1167 C 0.79721 0.519 0.51975 0.0
C1168 C 0.79711 0.49202 0.55805 0.0
C1169 C 0.80222 0.45167 0.52083 0.0
C1170 C 0.77792 0.48005 0.56917 0.0
C1171 C 0.77682 0.47644 0.59628 0.0
C1172 C 0.79488 0.48477 0.61277 0.0
C1173 C 0.81397 0.49699 0.60156 0.0
C1174 C 0.81501 0.50067 0.57443 0.0
H1175 H 0.80916 0.43991 0.50518 0.0
H1176 H 0.81401 0.45051 0.5382 0.0
H1177 H 0.78457 0.44507 0.52669 0.0
H1178 H 0.76374 0.4736 0.55686 0.0
H1179 H 0.76184 0.46703 0.60427 0.0
H1180 H 0.47666 0.16433 0.38957 0.0
H1181 H 0.48432 0.1651 0.43684 0.0
H1182 H 0.48481 0.24111 0.43538 0.0
H1183 H 0.47666 0.24054 0.38824 0.0
H1184 H 0.52207 0.18378 0.46309 0.0
H1185 H 0.43946 0.22757 0.49509 0.0
H1186 H 0.44315 0.21552 0.46252 0.0
H1187 H 0.45541 0.24384 0.47064 0.0
C1188 C 0.47825 0.18122 0.39932 0.0
C1189 C 0.47593 0.20238 0.38517 0.0
C1190 C 0.48264 0.18162 0.42633 0.0
C1191 C 0.48475 0.20316 0.43969 0.0
C1192 C 0.48267 0.2243 0.42558 0.0
H1193 H 0.5209 0.24208 0.59957 0.0
H1194 H 0.51239 0.24155 0.5524 0.0
C1195 C 0.47816 0.22393 0.3986 0.0
C1196 C 0.48992 0.20346 0.46823 0.0
H1197 H 0.46953 0.22338 0.52734 0.0
C1198 C 0.51052 0.19232 0.47716 0.0
C1199 C 0.47481 0.21463 0.48653 0.0
C1200 C 0.45186 0.22588 0.47829 0.0
C1201 C 0.51661 0.19237 0.50387 0.0
C1202 C 0.5016 0.20367 0.52209 0.0
C1203 C 0.48102 0.21482 0.51322 0.0
C1204 C 0.50684 0.20388 0.55054 0.0
C1205 C 0.53925 0.18068 0.5124 0.0
C1206 C 0.50628 0.18288 0.56504 0.0
C1207 C 0.51103 0.18311 0.59197 0.0
C1208 C 0.51644 0.20436 0.60485 0.0
C1209 C 0.51688 0.2254 0.59023 0.0
C1210 C 0.512 0.22516 0.56331 0.0
H1211 H 0.55118 0.17721 0.49552 0.0
H1212 H 0.5487 0.19178 0.52696 0.0
H1213 H 0.5351 0.16357 0.52191 0.0
H1214 H 0.502 0.16633 0.55554 0.0
H1215 H 0.51048 0.16661 0.60265 0.0
H1216 H 0.66452 0.0126 0.10527 0.0
H1217 H 0.66611 0.00628 0.05774 0.0
H1218 H 0.74168 0.0144 0.05936 0.0
H1219 H 0.74027 0.02105 0.10674 0.0
H1220 H 0.71983 0.04085 0.02028 0.0
H1221 H 0.68977 0.94768 0.0185 0.0
H1222 H 0.67047 0.96753 0.03566 0.0
H1223 H 0.69958 0.96207 0.0482 0.0
C1224 C 0.6815 0.01288 0.09555 0.0
C1225 C 0.70228 0.01726 0.1098 0.0
C1226 C 0.68238 0.00916 0.06841 0.0
C1227 C 0.70404 0.0096 0.05512 0.0
C1228 C 0.72479 0.01392 0.06929 0.0
H1229 H 0.73547 0.96164 0.89782 0.0
H1230 H 0.7333 0.96809 0.94522 0.0
C1231 C 0.72394 0.01767 0.09638 0.0
C1232 C 0.70512 0.00629 0.02631 0.0
H1233 H 0.6937 0.96683 0.97733 0.0
C1234 C 0.71414 0.02467 0.01085 0.0
C1235 C 0.69791 0.98506 0.01418 0.0
C1236 C 0.68908 0.96435 0.02996 0.0
C1237 C 0.71601 0.02247 0.98348 0.0
C1238 C 0.70829 0.00145 0.97128 0.0
C1239 C 0.69942 0.98299 0.98676 0.0
C1240 C 0.70977 0.998 0.94251 0.0
C1241 C 0.72669 0.04244 0.96794 0.0
C1242 C 0.69714 0.01263 0.92531 0.0
C1243 C 0.69841 0.00907 0.89817 0.0
C1244 C 0.71219 0.99068 0.88781 0.0
C1245 C 0.72473 0.976 0.90515 0.0
C1246 C 0.72349 0.97961 0.93224 0.0
H1247 H 0.73699 0.05458 0.98065 0.0
H1248 H 0.7384 0.03564 0.95219 0.0
H1249 H 0.71237 0.05278 0.95856 0.0
H1250 H 0.68609 0.02665 0.93288 0.0
H1251 H 0.68841 0.02059 0.88537 0.0
H1252 H 0.03161 0.25782 0.89482 0.0
H1253 H 0.02663 0.2569 0.94251 0.0
H1254 H 0.98794 0.32229 0.93929 0.0
H1255 H 0.99251 0.32321 0.89152 0.0
H1256 H 0.04153 0.28966 0.97945 0.0
H1257 H 0.94426 0.27928 0.98157 0.0
H1258 H 0.96147 0.27462 0.9522 0.0
H1259 H 0.9543 0.30403 0.96265 0.0
C1260 C 0.02192 0.27195 0.90421 0.0
C1261 C 0.01234 0.29054 0.88936 0.0
C1262 C 0.01913 0.27141 0.93147 0.0
C1263 C 0.00666 0.28935 0.94435 0.0
C1264 C 0.99723 0.30802 0.92964 0.0
H1265 H 0.00969 0.32123 0.11137 0.0
H1266 H 0.01494 0.32145 0.06367 0.0
C1267 C -4e-05 0.30857 0.90236 0.0
C1268 C 0.00399 0.28876 0.97327 0.0
H1269 H 0.96307 0.28697 0.02236 0.0
C1270 C 0.0244 0.28901 0.98887 0.0
C1271 C 0.98161 0.28763 0.98543 0.0
C1272 C 0.95915 0.28615 0.96964 0.0
C1273 C 0.02301 0.28845 0.01639 0.0
C1274 C 0.0006 0.28803 0.02856 0.0
C1275 C 0.98022 0.28749 0.01295 0.0
C1276 C 0.99787 0.28779 0.05748 0.0
C1277 C 0.04553 0.28788 0.03215 0.0
C1278 C 0.98613 0.26901 0.06973 0.0
C1279 C 0.98293 0.26892 0.09692 0.0
C1280 C 0.99136 0.28766 0.11238 0.0
C1281 C 0.00313 0.30645 0.10005 0.0
C1282 C 0.00626 0.30656 0.07281 0.0
H1283 H 0.06077 0.28207 0.02006 0.0
H1284 H 0.04939 0.30586 0.03958 0.0
H1285 H 0.04387 0.2759 0.04931 0.0
H1286 H 0.97945 0.25441 0.05821 0.0
H1287 H 0.97375 0.25419 0.10579 0.0
H1288 H 0.29572 0.96981 0.8817 0.0
H1289 H 0.29539 0.96319 0.92922 0.0
H1290 H 0.27134 0.03447 0.94151 0.0
H1291 H 0.2712 0.04114 0.89412 0.0
H1292 H 0.32019 0.98635 0.96801 0.0
H1293 H 0.22397 0.9961 0.98374 0.0
H1294 H 0.23673 0.99235 0.95153 0.0
H1295 H 0.23704 0.02078 0.96718 0.0
C1296 C 0.29025 0.98404 0.8945 0.0
C1297 C 0.28335 0.00595 0.88412 0.0
C1298 C 0.29009 0.98023 0.92164 0.0
C1299 C 0.28297 0.99821 0.93884 0.0
C1300 C 0.27636 0.02018 0.92855 0.0
H1301 H 0.311 0.0105 0.1055 0.0
H1302 H 0.31041 0.01435 0.05766 0.0
C1303 C 0.27643 0.02399 0.90145 0.0
C1304 C 0.28306 0.99424 0.96759 0.0
H1305 H 0.24805 0.99577 0.0221 0.0
C1306 C 0.30441 0.98827 0.97984 0.0
C1307 C 0.26237 0.99645 0.9829 0.0
C1308 C 0.23868 0.00154 0.97067 0.0
C1309 C 0.30574 0.98499 0.00713 0.0
C1310 C 0.28525 0.98818 0.02256 0.0
C1311 C 0.26379 0.9936 0.01024 0.0
C1312 C 0.28564 0.98587 0.05153 0.0
C1313 C 0.32899 0.97787 0.01914 0.0
C1314 C 0.27144 0.96899 0.06397 0.0
C1315 C 0.27158 0.96687 0.09131 0.0
C1316 C 0.28587 0.98167 0.10673 0.0
C1317 C 0.2999 0.99874 0.0942 0.0
C1318 C 0.29971 0.00086 0.06685 0.0
H1319 H 0.34103 0.97002 0.00431 0.0
H1320 H 0.33774 0.9937 0.02743 0.0
H1321 H 0.32638 0.96496 0.03528 0.0
H1322 H 0.26035 0.95734 0.05248 0.0
H1323 H 0.26054 0.95357 0.10033 0.0
H1324 H 0.98651 0.73713 0.8893 0.0
H1325 H 0.99371 0.73648 0.93667 0.0
H1326 H 0.99067 0.66052 0.93612 0.0
H1327 H 0.98397 0.66095 0.8887 0.0
H1328 H 0.96528 0.71875 0.97547 0.0
H1329 H 0.05159 0.67267 0.97565 0.0
H1330 H 0.03878 0.68487 0.94617 0.0
H1331 H 0.02878 0.65694 0.95864 0.0
C1332 C 0.98756 0.72026 0.89922 0.0
C1333 C 0.98478 0.69907 0.88521 0.0
C1334 C 0.99165 0.71994 0.92628 0.0
C1335 C 0.99308 0.69845 0.93984 0.0
C1336 C 0.99019 0.67728 0.92595 0.0
H1337 H 0.00862 0.66129 0.10451 0.0
H1338 H 0.00178 0.66113 0.05702 0.0
C1339 C 0.98623 0.67757 0.89886 0.0
C1340 C 0.99668 0.69827 0.96867 0.0
H1341 H 0.03312 0.67809 0.01712 0.0
C1342 C 0.98017 0.70996 0.98458 0.0
C1343 C 0.01609 0.68673 0.98048 0.0
C1344 C 0.03495 0.67478 0.96437 0.0
C1345 C 0.9824 0.71018 0.01203 0.0
C1346 C 0.00178 0.69863 0.02381 0.0
C1347 C 0.01824 0.68686 0.00796 0.0
C1348 C 0.0055 0.69886 0.05257 0.0
C1349 C 0.96379 0.72242 0.02824 0.0
C1350 C 0.01004 0.72013 0.06568 0.0
C1351 C 0.01396 0.7203 0.09277 0.0
C1352 C 0.0135 0.69917 0.10722 0.0
C1353 C 0.00902 0.67788 0.09398 0.0
C1354 C 0.00514 0.67773 0.06686 0.0
H1355 H 0.94734 0.72539 0.01685 0.0
H1356 H 0.95947 0.71201 0.04607 0.0
H1357 H 0.97056 0.73984 0.03466 0.0
H1358 H 0.01079 0.73657 0.0549 0.0
H1359 H 0.0175 0.73699 0.10233 0.0
loop_
_geom_bond_atom_site_label_1
_geom_bond_atom_site_label_2
_geom_bond_distance
_geom_bond_site_symmetry_2
_ccdc_geom_bond_type
C0 O1 1.160 . S
C0 O7 1.185 . S
O1 C0 1.160 . S
O2 Zn3 1.899 . S
O2 C10 1.284 . S
Zn3 O2 1.899 . S
Zn3 O4 2.032 . S
Zn3 O7 2.086 . S
Zn3 O12 1.977 . S
O4 Zn3 2.032 . S
O4 C8 1.278 . S
C5 O6 1.203 . S
C5 O12 1.267 . S
O6 C5 1.203 . S
O7 C0 1.185 . S
O7 Zn3 2.086 . S
C8 O4 1.278 . S
C8 O9 1.211 . S
O9 C8 1.211 . S
C10 O2 1.284 . S
C10 O11 1.273 . S
O11 C10 1.273 . S
O12 Zn3 1.977 . S
O12 C5 1.267 . S
C13 O14 1.160 . S
C13 O20 1.185 . S
O14 C13 1.160 . S
O15 Zn16 1.899 . S
O15 C23 1.284 . S
Zn16 O15 1.899 . S
Zn16 O17 2.032 . S
Zn16 O20 2.086 . S
Zn16 O25 1.977 . S
O17 Zn16 2.032 . S
O17 C21 1.278 . S
C18 O19 1.203 . S
C18 O25 1.267 . S
O19 C18 1.203 . S
O20 C13 1.185 . S
O20 Zn16 2.086 . S
C21 O17 1.278 . S
C21 O22 1.211 . S
O22 C21 1.211 . S
C23 O15 1.284 . S
C23 O24 1.273 . S
O24 C23 1.273 . S
O25 Zn16 1.977 . S
O25 C18 1.267 . S
C26 O27 1.160 . S
C26 O33 1.185 . S
O27 C26 1.160 . S
O28 Zn29 1.899 . S
O28 C36 1.284 . S
Zn29 O28 1.899 . S
Zn29 O30 2.032 . S
Zn29 O33 2.086 . S
Zn29 O38 1.977 . S
O30 Zn29 2.032 . S
O30 C34 1.278 . S
C31 O32 1.203 . S
C31 O38 1.267 . S
O32 C31 1.203 . S
O33 C26 1.185 . S
O33 Zn29 2.086 . S
C34 O30 1.278 . S
C34 O35 1.211 . S
O35 C34 1.211 . S
C36 O28 1.284 . S
C36 O37 1.273 . S
O37 C36 1.273 . S
O38 Zn29 1.977 . S
O38 C31 1.267 . S
C39 O40 1.160 . S
C39 O46 1.185 . S
O40 C39 1.160 . S
O41 Zn42 1.899 . S
O41 C49 1.284 . S
Zn42 O41 1.899 . S
Zn42 O43 2.032 . S
Zn42 O46 2.086 . S
Zn42 O51 1.977 . S
O43 Zn42 2.032 . S
O43 C47 1.278 . S
C44 O45 1.203 . S
C44 O51 1.267 . S
O45 C44 1.203 . S
O46 C39 1.185 . S
O46 Zn42 2.086 . S
C47 O43 1.278 . S
C47 O48 1.211 . S
O48 C47 1.211 . S
C49 O41 1.284 . S
C49 O50 1.273 . S
O50 C49 1.273 . S
O51 Zn42 1.977 . S
O51 C44 1.267 . S
C52 O53 1.160 . S
C52 O59 1.185 . S
O53 C52 1.160 . S
O54 Zn55 1.899 . S
O54 C62 1.284 . S
Zn55 O54 1.899 . S
Zn55 O56 2.032 . S
Zn55 O59 2.086 . S
Zn55 O64 1.977 . S
O56 Zn55 2.032 . S
O56 C60 1.278 . S
C57 O58 1.203 . S
C57 O64 1.267 . S
O58 C57 1.203 . S
O59 C52 1.185 . S
O59 Zn55 2.086 . S
C60 O56 1.278 . S
C60 O61 1.211 . S
O61 C60 1.211 . S
C62 O54 1.284 . S
C62 O63 1.273 . S
O63 C62 1.273 . S
O64 Zn55 1.977 . S
O64 C57 1.267 . S
C65 O66 1.160 . S
C65 O72 1.185 . S
O66 C65 1.160 . S
O67 Zn68 1.899 . S
O67 C75 1.284 . S
Zn68 O67 1.899 . S
Zn68 O69 2.032 . S
Zn68 O72 2.086 . S
Zn68 O77 1.977 . S
O69 Zn68 2.032 . S
O69 C73 1.278 . S
C70 O71 1.203 . S
C70 O77 1.267 . S
O71 C70 1.203 . S
O72 C65 1.185 . S
O72 Zn68 2.086 . S
C73 O69 1.278 . S
C73 O74 1.211 . S
O74 C73 1.211 . S
C75 O67 1.284 . S
C75 O76 1.273 . S
O76 C75 1.273 . S
O77 Zn68 1.977 . S
O77 C70 1.267 . S
C78 O79 1.160 . S
C78 O85 1.185 . S
O79 C78 1.160 . S
O80 Zn81 1.899 . S
O80 C88 1.284 . S
Zn81 O80 1.899 . S
Zn81 O82 2.032 . S
Zn81 O85 2.086 . S
Zn81 O90 1.977 . S
O82 Zn81 2.032 . S
O82 C86 1.278 . S
C83 O84 1.203 . S
C83 O90 1.267 . S
O84 C83 1.203 . S
O85 C78 1.185 . S
O85 Zn81 2.086 . S
C86 O82 1.278 . S
C86 O87 1.211 . S
O87 C86 1.211 . S
C88 O80 1.284 . S
C88 O89 1.273 . S
O89 C88 1.273 . S
O90 Zn81 1.977 . S
O90 C83 1.267 . S
C91 O92 1.160 . S
C91 O98 1.185 . S
O92 C91 1.160 . S
O93 Zn94 1.899 . S
O93 C101 1.284 . S
Zn94 O93 1.899 . S
Zn94 O95 2.032 . S
Zn94 O98 2.086 . S
Zn94 O103 1.977 . S
O95 Zn94 2.032 . S
O95 C99 1.278 . S
C96 O97 1.203 . S
C96 O103 1.267 . S
O97 C96 1.203 . S
O98 C91 1.185 . S
O98 Zn94 2.086 . S
C99 O95 1.278 . S
C99 O100 1.211 . S
O100 C99 1.211 . S
C101 O93 1.284 . S
C101 O102 1.273 . S
O102 C101 1.273 . S
O103 Zn94 1.977 . S
O103 C96 1.267 . S
C104 O105 1.160 . S
C104 O111 1.185 . S
O105 C104 1.160 . S
O106 Zn107 1.899 . S
O106 C114 1.284 . S
Zn107 O106 1.899 . S
Zn107 O108 2.032 . S
Zn107 O111 2.086 . S
Zn107 O116 1.977 . S
O108 Zn107 2.032 . S
O108 C112 1.278 . S
C109 O110 1.203 . S
C109 O116 1.267 . S
O110 C109 1.203 . S
O111 C104 1.185 . S
O111 Zn107 2.086 . S
C112 O108 1.278 . S
C112 O113 1.211 . S
O113 C112 1.211 . S
C114 O106 1.284 . S
C114 O115 1.273 . S
O115 C114 1.273 . S
O116 Zn107 1.977 . S
O116 C109 1.267 . S
C117 O118 1.160 . S
C117 O124 1.185 . S
O118 C117 1.160 . S
O119 Zn120 1.899 . S
O119 C127 1.284 . S
Zn120 O119 1.899 . S
Zn120 O121 2.032 . S
Zn120 O124 2.086 . S
Zn120 O129 1.977 . S
O121 Zn120 2.032 . S
O121 C125 1.278 . S
C122 O123 1.203 . S
C122 O129 1.267 . S
O123 C122 1.203 . S
O124 C117 1.185 . S
O124 Zn120 2.086 . S
C125 O121 1.278 . S
C125 O126 1.211 . S
O126 C125 1.211 . S
C127 O119 1.284 . S
C127 O128 1.273 . S
O128 C127 1.273 . S
O129 Zn120 1.977 . S
O129 C122 1.267 . S
C130 O131 1.160 . S
C130 O137 1.185 . S
O131 C130 1.160 . S
O132 Zn133 1.899 . S
O132 C140 1.284 . S
Zn133 O132 1.899 . S
Zn133 O134 2.032 . S
Zn133 O137 2.086 . S
Zn133 O142 1.977 . S
O134 Zn133 2.032 . S
O134 C138 1.278 . S
C135 O136 1.203 . S
C135 O142 1.267 . S
O136 C135 1.203 . S
O137 C130 1.185 . S
O137 Zn133 2.086 . S
C138 O134 1.278 . S
C138 O139 1.211 . S
O139 C138 1.211 . S
C140 O132 1.284 . S
C140 O141 1.273 . S
O141 C140 1.273 . S
O142 Zn133 1.977 . S
O142 C135 1.267 . S
C143 O144 1.160 . S
C143 O150 1.185 . S
O144 C143 1.160 . S
O145 Zn146 1.899 . S
O145 C153 1.284 . S
Zn146 O145 1.899 . S
Zn146 O147 2.032 . S
Zn146 O150 2.086 . S
Zn146 O155 1.977 . S
O147 Zn146 2.032 . S
O147 C151 1.278 . S
C148 O149 1.203 . S
C148 O155 1.267 . S
O149 C148 1.203 . S
O150 C143 1.185 . S
O150 Zn146 2.086 . S
C151 O147 1.278 . S
C151 O152 1.211 . S
O152 C151 1.211 . S
C153 O145 1.284 . S
C153 O154 1.273 . S
O154 C153 1.273 . S
O155 Zn146 1.977 . S
O155 C148 1.267 . S
C156 O157 1.160 . S
C156 O163 1.185 . S
O157 C156 1.160 . S
O158 Zn159 1.899 . S
O158 C166 1.284 . S
Zn159 O158 1.899 . S
Zn159 O160 2.032 . S
Zn159 O163 2.086 . S
Zn159 O168 1.977 . S
O160 Zn159 2.032 . S
O160 C164 1.278 . S
C161 O162 1.203 . S
C161 O168 1.267 . S
O162 C161 1.203 . S
O163 C156 1.185 . S
O163 Zn159 2.086 . S
C164 O160 1.278 . S
C164 O165 1.211 . S
O165 C164 1.211 . S
C166 O158 1.284 . S
C166 O167 1.273 . S
O167 C166 1.273 . S
O168 Zn159 1.977 . S
O168 C161 1.267 . S
C169 O170 1.160 . S
C169 O176 1.185 . S
O170 C169 1.160 . S
O171 Zn172 1.899 . S
O171 C179 1.284 . S
Zn172 O171 1.899 . S
Zn172 O173 2.032 . S
Zn172 O176 2.086 . S
Zn172 O181 1.977 . S
O173 Zn172 2.032 . S
O173 C177 1.278 . S
C174 O175 1.203 . S
C174 O181 1.267 . S
O175 C174 1.203 . S
O176 C169 1.185 . S
O176 Zn172 2.086 . S
C177 O173 1.278 . S
C177 O178 1.211 . S
O178 C177 1.211 . S
C179 O171 1.284 . S
C179 O180 1.273 . S
O180 C179 1.273 . S
O181 Zn172 1.977 . S
O181 C174 1.267 . S
C182 O183 1.160 . S
C182 O189 1.185 . S
O183 C182 1.160 . S
O184 Zn185 1.899 . S
O184 C192 1.284 . S
Zn185 O184 1.899 . S
Zn185 O186 2.032 . S
Zn185 O189 2.086 . S
Zn185 O194 1.977 . S
O186 Zn185 2.032 . S
O186 C190 1.278 . S
C187 O188 1.203 . S
C187 O194 1.267 . S
O188 C187 1.203 . S
O189 C182 1.185 . S
O189 Zn185 2.086 . S
C190 O186 1.278 . S
C190 O191 1.211 . S
O191 C190 1.211 . S
C192 O184 1.284 . S
C192 O193 1.273 . S
O193 C192 1.273 . S
O194 Zn185 1.977 . S
O194 C187 1.267 . S
C195 O196 1.160 . S
C195 O202 1.185 . S
O196 C195 1.160 . S
O197 Zn198 1.899 . S
O197 C205 1.284 . S
Zn198 O197 1.899 . S
Zn198 O199 2.032 . S
Zn198 O202 2.086 . S
Zn198 O207 1.977 . S
O199 Zn198 2.032 . S
O199 C203 1.278 . S
C200 O201 1.203 . S
C200 O207 1.267 . S
O201 C200 1.203 . S
O202 C195 1.185 . S
O202 Zn198 2.086 . S
C203 O199 1.278 . S
C203 O204 1.211 . S
O204 C203 1.211 . S
C205 O197 1.284 . S
C205 O206 1.273 . S
O206 C205 1.273 . S
O207 Zn198 1.977 . S
O207 C200 1.267 . S
H208 C216 0.929 . S
H209 C218 0.930 . S
H210 C220 0.930 . S
H211 C223 0.929 . S
H212 C226 0.930 . S
H213 C228 0.960 . S
H214 C228 0.960 . S
H215 C228 0.960 . S
C216 H208 0.929 . S
C216 C217 1.377 . S
C216 C218 1.384 . S
C217 C216 1.377 . S
C217 C223 1.390 . S
C218 H209 0.930 . S
C218 C216 1.384 . S
C218 C219 1.372 . S
C219 C218 1.372 . S
C219 C220 1.400 . S
C219 C224 1.490 . S
C220 H210 0.930 . S
C220 C219 1.400 . S
C220 C223 1.386 . S
H221 C237 0.930 . S
H222 C238 0.931 . S
C223 H211 0.929 . S
C223 C217 1.390 . S
C223 C220 1.386 . S
C224 C219 1.490 . S
C224 C226 1.395 . S
C224 C227 1.403 . S
H225 C231 0.930 . S
C226 H212 0.930 . S
C226 C224 1.395 . S
C226 C229 1.403 . S
C227 C224 1.403 . S
C227 C228 1.524 . S
C227 C231 1.400 . S
C228 H213 0.960 . S
C228 H214 0.960 . S
C228 H215 0.960 . S
C228 C227 1.524 . S
C229 C226 1.403 . S
C229 C230 1.392 . S
C229 C233 1.495 . S
C230 C229 1.392 . S
C230 C231 1.385 . S
C230 C232 1.478 . S
C231 H225 0.930 . S
C231 C227 1.400 . S
C231 C230 1.385 . S
C232 C230 1.478 . S
C232 C234 1.381 . S
C232 C238 1.383 . S
C233 C229 1.495 . S
C233 H239 0.959 . S
C233 H240 0.961 . S
C233 H241 0.960 . S
C234 C232 1.381 . S
C234 C235 1.394 . S
C234 H242 0.930 . S
C235 C234 1.394 . S
C235 C236 1.383 . S
C235 H243 0.929 . S
C236 C235 1.383 . S
C236 C237 1.377 . S
C237 H221 0.930 . S
C237 C236 1.377 . S
C237 C238 1.379 . S
C238 H222 0.931 . S
C238 C232 1.383 . S
C238 C237 1.379 . S
H239 C233 0.959 . S
H240 C233 0.961 . S
H241 C233 0.960 . S
H242 C234 0.930 . S
H243 C235 0.929 . S
H244 C252 0.929 . S
H245 C254 0.930 . S
H246 C256 0.930 . S
H247 C259 0.929 . S
H248 C262 0.930 . S
H249 C264 0.960 . S
H250 C264 0.960 . S
H251 C264 0.960 . S
C252 H244 0.929 . S
C252 C253 1.377 . S
C252 C254 1.384 . S
C253 C252 1.377 . S
C253 C259 1.390 . S
C254 H245 0.930 . S
C254 C252 1.384 . S
C254 C255 1.372 . S
C255 C254 1.372 . S
C255 C256 1.400 . S
C255 C260 1.490 . S
C256 H246 0.930 . S
C256 C255 1.400 . S
C256 C259 1.386 . S
H257 C273 0.930 . S
H258 C274 0.931 . S
C259 H247 0.929 . S
C259 C253 1.390 . S
C259 C256 1.386 . S
C260 C255 1.490 . S
C260 C262 1.395 . S
C260 C263 1.403 . S
H261 C267 0.930 . S
C262 H248 0.930 . S
C262 C260 1.395 . S
C262 C265 1.403 . S
C263 C260 1.403 . S
C263 C264 1.524 . S
C263 C267 1.400 . S
C264 H249 0.960 . S
C264 H250 0.960 . S
C264 H251 0.960 . S
C264 C263 1.524 . S
C265 C262 1.403 . S
C265 C266 1.392 . S
C265 C269 1.495 . S
C266 C265 1.392 . S
C266 C267 1.385 . S
C266 C268 1.478 . S
C267 H261 0.930 . S
C267 C263 1.400 . S
C267 C266 1.385 . S
C268 C266 1.478 . S
C268 C270 1.381 . S
C268 C274 1.383 . S
C269 C265 1.495 . S
C269 H275 0.959 . S
C269 H276 0.961 . S
C269 H277 0.960 . S
C270 C268 1.381 . S
C270 C271 1.394 . S
C270 H278 0.930 . S
C271 C270 1.394 . S
C271 C272 1.383 . S
C271 H279 0.929 . S
C272 C271 1.383 . S
C272 C273 1.377 . S
C273 H257 0.930 . S
C273 C272 1.377 . S
C273 C274 1.379 . S
C274 H258 0.931 . S
C274 C268 1.383 . S
C274 C273 1.379 . S
H275 C269 0.959 . S
H276 C269 0.961 . S
H277 C269 0.960 . S
H278 C270 0.930 . S
H279 C271 0.929 . S
H280 C288 0.929 . S
H281 C290 0.930 . S
H282 C292 0.930 . S
H283 C295 0.929 . S
H284 C298 0.930 . S
H285 C300 0.960 . S
H286 C300 0.960 . S
H287 C300 0.960 . S
C288 H280 0.929 . S
C288 C289 1.377 . S
C288 C290 1.384 . S
C289 C288 1.377 . S
C289 C295 1.390 . S
C290 H281 0.930 . S
C290 C288 1.384 . S
C290 C291 1.372 . S
C291 C290 1.372 . S
C291 C292 1.400 . S
C291 C296 1.490 . S
C292 H282 0.930 . S
C292 C291 1.400 . S
C292 C295 1.386 . S
H293 C309 0.930 . S
H294 C310 0.931 . S
C295 H283 0.929 . S
C295 C289 1.390 . S
C295 C292 1.386 . S
C296 C291 1.490 . S
C296 C298 1.395 . S
C296 C299 1.403 . S
H297 C303 0.930 . S
C298 H284 0.930 . S
C298 C296 1.395 . S
C298 C301 1.403 . S
C299 C296 1.403 . S
C299 C300 1.524 . S
C299 C303 1.400 . S
C300 H285 0.960 . S
C300 H286 0.960 . S
C300 H287 0.960 . S
C300 C299 1.524 . S
C301 C298 1.403 . S
C301 C302 1.392 . S
C301 C305 1.495 . S
C302 C301 1.392 . S
C302 C303 1.385 . S
C302 C304 1.478 . S
C303 H297 0.930 . S
C303 C299 1.400 . S
C303 C302 1.385 . S
C304 C302 1.478 . S
C304 C306 1.381 . S
C304 C310 1.383 . S
C305 C301 1.495 . S
C305 H311 0.959 . S
C305 H312 0.961 . S
C305 H313 0.960 . S
C306 C304 1.381 . S
C306 C307 1.394 . S
C306 H314 0.930 . S
C307 C306 1.394 . S
C307 C308 1.383 . S
C307 H315 0.929 . S
C308 C307 1.383 . S
C308 C309 1.377 . S
C309 H293 0.930 . S
C309 C308 1.377 . S
C309 C310 1.379 . S
C310 H294 0.931 . S
C310 C304 1.383 . S
C310 C309 1.379 . S
H311 C305 0.959 . S
H312 C305 0.961 . S
H313 C305 0.960 . S
H314 C306 0.930 . S
H315 C307 0.929 . S
H316 C324 0.929 . S
H317 C326 0.930 . S
H318 C328 0.930 . S
H319 C331 0.929 . S
H320 C334 0.930 . S
H321 C336 0.960 . S
H322 C336 0.960 . S
H323 C336 0.960 . S
C324 H316 0.929 . S
C324 C325 1.377 . S
C324 C326 1.384 . S
C325 C324 1.377 . S
C325 C331 1.390 . S
C326 H317 0.930 . S
C326 C324 1.384 . S
C326 C327 1.372 . S
C327 C326 1.372 . S
C327 C328 1.400 . S
C327 C332 1.490 . S
C328 H318 0.930 . S
C328 C327 1.400 . S
C328 C331 1.386 . S
H329 C345 0.930 . S
H330 C346 0.931 . S
C331 H319 0.929 . S
C331 C325 1.390 . S
C331 C328 1.386 . S
C332 C327 1.490 . S
C332 C334 1.395 . S
C332 C335 1.403 . S
H333 C339 0.930 . S
C334 H320 0.930 . S
C334 C332 1.395 . S
C334 C337 1.403 . S
C335 C332 1.403 . S
C335 C336 1.524 . S
C335 C339 1.400 . S
C336 H321 0.960 . S
C336 H322 0.960 . S
C336 H323 0.960 . S
C336 C335 1.524 . S
C337 C334 1.403 . S
C337 C338 1.392 . S
C337 C341 1.495 . S
C338 C337 1.392 . S
C338 C339 1.385 . S
C338 C340 1.478 . S
C339 H333 0.930 . S
C339 C335 1.400 . S
C339 C338 1.385 . S
C340 C338 1.478 . S
C340 C342 1.381 . S
C340 C346 1.383 . S
C341 C337 1.495 . S
C341 H347 0.959 . S
C341 H348 0.961 . S
C341 H349 0.960 . S
C342 C340 1.381 . S
C342 C343 1.394 . S
C342 H350 0.930 . S
C343 C342 1.394 . S
C343 C344 1.383 . S
C343 H351 0.929 . S
C344 C343 1.383 . S
C344 C345 1.377 . S
C345 H329 0.930 . S
C345 C344 1.377 . S
C345 C346 1.379 . S
C346 H330 0.931 . S
C346 C340 1.383 . S
C346 C345 1.379 . S
H347 C341 0.959 . S
H348 C341 0.961 . S
H349 C341 0.960 . S
H350 C342 0.930 . S
H351 C343 0.929 . S
H352 C360 0.929 . S
H353 C362 0.930 . S
H354 C364 0.930 . S
H355 C367 0.929 . S
H356 C370 0.930 . S
H357 C372 0.960 . S
H358 C372 0.960 . S
H359 C372 0.960 . S
C360 H352 0.929 . S
C360 C361 1.377 . S
C360 C362 1.384 . S
C361 C360 1.377 . S
C361 C367 1.390 . S
C362 H353 0.930 . S
C362 C360 1.384 . S
C362 C363 1.372 . S
C363 C362 1.372 . S
C363 C364 1.400 . S
C363 C368 1.490 . S
C364 H354 0.930 . S
C364 C363 1.400 . S
C364 C367 1.386 . S
H365 C381 0.930 . S
H366 C382 0.931 . S
C367 H355 0.929 . S
C367 C361 1.390 . S
C367 C364 1.386 . S
C368 C363 1.490 . S
C368 C370 1.395 . S
C368 C371 1.403 . S
H369 C375 0.930 . S
C370 H356 0.930 . S
C370 C368 1.395 . S
C370 C373 1.403 . S
C371 C368 1.403 . S
C371 C372 1.524 . S
C371 C375 1.400 . S
C372 H357 0.960 . S
C372 H358 0.960 . S
C372 H359 0.960 . S
C372 C371 1.524 . S
C373 C370 1.403 . S
C373 C374 1.392 . S
C373 C377 1.495 . S
C374 C373 1.392 . S
C374 C375 1.385 . S
C374 C376 1.478 . S
C375 H369 0.930 . S
C375 C371 1.400 . S
C375 C374 1.385 . S
C376 C374 1.478 . S
C376 C378 1.381 . S
C376 C382 1.383 . S
C377 C373 1.495 . S
C377 H383 0.959 . S
C377 H384 0.961 . S
C377 H385 0.960 . S
C378 C376 1.381 . S
C378 C379 1.394 . S
C378 H386 0.930 . S
C379 C378 1.394 . S
C379 C380 1.383 . S
C379 H387 0.929 . S
C380 C379 1.383 . S
C380 C381 1.377 . S
C381 H365 0.930 . S
C381 C380 1.377 . S
C381 C382 1.379 . S
C382 H366 0.931 . S
C382 C376 1.383 . S
C382 C381 1.379 . S
H383 C377 0.959 . S
H384 C377 0.961 . S
H385 C377 0.960 . S
H386 C378 0.930 . S
H387 C379 0.929 . S
H388 C396 0.929 . S
H389 C398 0.930 . S
H390 C400 0.930 . S
H391 C403 0.929 . S
H392 C406 0.930 . S
H393 C408 0.960 . S
H394 C408 0.960 . S
H395 C408 0.960 . S
C396 H388 0.929 . S
C396 C397 1.377 . S
C396 C398 1.384 . S
C397 C396 1.377 . S
C397 C403 1.390 . S
C398 H389 0.930 . S
C398 C396 1.384 . S
C398 C399 1.372 . S
C399 C398 1.372 . S
C399 C400 1.400 . S
C399 C404 1.490 . S
C400 H390 0.930 . S
C400 C399 1.400 . S
C400 C403 1.386 . S
H401 C417 0.930 . S
H402 C418 0.931 . S
C403 H391 0.929 . S
C403 C397 1.390 . S
C403 C400 1.386 . S
C404 C399 1.490 . S
C404 C406 1.395 . S
C404 C407 1.403 . S
H405 C411 0.930 . S
C406 H392 0.930 . S
C406 C404 1.395 . S
C406 C409 1.403 . S
C407 C404 1.403 . S
C407 C408 1.524 . S
C407 C411 1.400 . S
C408 H393 0.960 . S
C408 H394 0.960 . S
C408 H395 0.960 . S
C408 C407 1.524 . S
C409 C406 1.403 . S
C409 C410 1.392 . S
C409 C413 1.495 . S
C410 C409 1.392 . S
C410 C411 1.385 . S
C410 C412 1.478 . S
C411 H405 0.930 . S
C411 C407 1.400 . S
C411 C410 1.385 . S
C412 C410 1.478 . S
C412 C414 1.381 . S
C412 C418 1.383 . S
C413 C409 1.495 . S
C413 H419 0.959 . S
C413 H420 0.961 . S
C413 H421 0.960 . S
C414 C412 1.381 . S
C414 C415 1.394 . S
C414 H422 0.930 . S
C415 C414 1.394 . S
C415 C416 1.383 . S
C415 H423 0.929 . S
C416 C415 1.383 . S
C416 C417 1.377 . S
C417 H401 0.930 . S
C417 C416 1.377 . S
C417 C418 1.379 . S
C418 H402 0.931 . S
C418 C412 1.383 . S
C418 C417 1.379 . S
H419 C413 0.959 . S
H420 C413 0.961 . S
H421 C413 0.960 . S
H422 C414 0.930 . S
H423 C415 0.929 . S
H424 C432 0.929 . S
H425 C434 0.930 . S
H426 C436 0.930 . S
H427 C439 0.929 . S
H428 C442 0.930 . S
H429 C444 0.960 . S
H430 C444 0.960 . S
H431 C444 0.960 . S
C432 H424 0.929 . S
C432 C433 1.377 . S
C432 C434 1.384 . S
C433 C432 1.377 . S
C433 C439 1.390 . S
C434 H425 0.930 . S
C434 C432 1.384 . S
C434 C435 1.372 . S
C435 C434 1.372 . S
C435 C436 1.400 . S
C435 C440 1.490 . S
C436 H426 0.930 . S
C436 C435 1.400 . S
C436 C439 1.386 . S
H437 C453 0.930 . S
H438 C454 0.931 . S
C439 H427 0.929 . S
C439 C433 1.390 . S
C439 C436 1.386 . S
C440 C435 1.490 . S
C440 C442 1.395 . S
C440 C443 1.403 . S
H441 C447 0.930 . S
C442 H428 0.930 . S
C442 C440 1.395 . S
C442 C445 1.403 . S
C443 C440 1.403 . S
C443 C444 1.524 . S
C443 C447 1.400 . S
C444 H429 0.960 . S
C444 H430 0.960 . S
C444 H431 0.960 . S
C444 C443 1.524 . S
C445 C442 1.403 . S
C445 C446 1.392 . S
C445 C449 1.495 . S
C446 C445 1.392 . S
C446 C447 1.385 . S
C446 C448 1.478 . S
C447 H441 0.930 . S
C447 C443 1.400 . S
C447 C446 1.385 . S
C448 C446 1.478 . S
C448 C450 1.381 . S
C448 C454 1.383 . S
C449 C445 1.495 . S
C449 H455 0.959 . S
C449 H456 0.961 . S
C449 H457 0.960 . S
C450 C448 1.381 . S
C450 C451 1.394 . S
C450 H458 0.930 . S
C451 C450 1.394 . S
C451 C452 1.383 . S
C451 H459 0.929 . S
C452 C451 1.383 . S
C452 C453 1.377 . S
C453 H437 0.930 . S
C453 C452 1.377 . S
C453 C454 1.379 . S
C454 H438 0.931 . S
C454 C448 1.383 . S
C454 C453 1.379 . S
H455 C449 0.959 . S
H456 C449 0.961 . S
H457 C449 0.960 . S
H458 C450 0.930 . S
H459 C451 0.929 . S
H460 C468 0.929 . S
H461 C470 0.930 . S
H462 C472 0.930 . S
H463 C475 0.929 . S
H464 C478 0.930 . S
H465 C480 0.960 . S
H466 C480 0.960 . S
H467 C480 0.960 . S
C468 H460 0.929 . S
C468 C469 1.377 . S
C468 C470 1.384 . S
C469 C468 1.377 . S
C469 C475 1.390 . S
C470 H461 0.930 . S
C470 C468 1.384 . S
C470 C471 1.372 . S
C471 C470 1.372 . S
C471 C472 1.400 . S
C471 C476 1.490 . S
C472 H462 0.930 . S
C472 C471 1.400 . S
C472 C475 1.386 . S
H473 C489 0.930 . S
H474 C490 0.931 . S
C475 H463 0.929 . S
C475 C469 1.390 . S
C475 C472 1.386 . S
C476 C471 1.490 . S
C476 C478 1.395 . S
C476 C479 1.403 . S
H477 C483 0.930 . S
C478 H464 0.930 . S
C478 C476 1.395 . S
C478 C481 1.403 . S
C479 C476 1.403 . S
C479 C480 1.524 . S
C479 C483 1.400 . S
C480 H465 0.960 . S
C480 H466 0.960 . S
C480 H467 0.960 . S
C480 C479 1.524 . S
C481 C478 1.403 . S
C481 C482 1.392 . S
C481 C485 1.495 . S
C482 C481 1.392 . S
C482 C483 1.385 . S
C482 C484 1.478 . S
C483 H477 0.930 . S
C483 C479 1.400 . S
C483 C482 1.385 . S
C484 C482 1.478 . S
C484 C486 1.381 . S
C484 C490 1.383 . S
C485 C481 1.495 . S
C485 H491 0.959 . S
C485 H492 0.961 . S
C485 H493 0.960 . S
C486 C484 1.381 . S
C486 C487 1.394 . S
C486 H494 0.930 . S
C487 C486 1.394 . S
C487 C488 1.383 . S
C487 H495 0.929 . S
C488 C487 1.383 . S
C488 C489 1.377 . S
C489 H473 0.930 . S
C489 C488 1.377 . S
C489 C490 1.379 . S
C490 H474 0.931 . S
C490 C484 1.383 . S
C490 C489 1.379 . S
H491 C485 0.959 . S
H492 C485 0.961 . S
H493 C485 0.960 . S
H494 C486 0.930 . S
H495 C487 0.929 . S
H496 C504 0.929 . S
H497 C506 0.930 . S
H498 C508 0.930 . S
H499 C511 0.929 . S
H500 C514 0.930 . S
H501 C516 0.960 . S
H502 C516 0.960 . S
H503 C516 0.960 . S
C504 H496 0.929 . S
C504 C505 1.377 . S
C504 C506 1.384 . S
C505 C504 1.377 . S
C505 C511 1.390 . S
C506 H497 0.930 . S
C506 C504 1.384 . S
C506 C507 1.372 . S
C507 C506 1.372 . S
C507 C508 1.400 . S
C507 C512 1.490 . S
C508 H498 0.930 . S
C508 C507 1.400 . S
C508 C511 1.386 . S
H509 C525 0.930 . S
H510 C526 0.931 . S
C511 H499 0.929 . S
C511 C505 1.390 . S
C511 C508 1.386 . S
C512 C507 1.490 . S
C512 C514 1.395 . S
C512 C515 1.403 . S
H513 C519 0.930 . S
C514 H500 0.930 . S
C514 C512 1.395 . S
C514 C517 1.403 . S
C515 C512 1.403 . S
C515 C516 1.524 . S
C515 C519 1.400 . S
C516 H501 0.960 . S
C516 H502 0.960 . S
C516 H503 0.960 . S
C516 C515 1.524 . S
C517 C514 1.403 . S
C517 C518 1.392 . S
C517 C521 1.495 . S
C518 C517 1.392 . S
C518 C519 1.385 . S
C518 C520 1.478 . S
C519 H513 0.930 . S
C519 C515 1.400 . S
C519 C518 1.385 . S
C520 C518 1.478 . S
C520 C522 1.381 . S
C520 C526 1.383 . S
C521 C517 1.495 . S
C521 H527 0.959 . S
C521 H528 0.961 . S
C521 H529 0.960 . S
C522 C520 1.381 . S
C522 C523 1.394 . S
C522 H530 0.930 . S
C523 C522 1.394 . S
C523 C524 1.383 . S
C523 H531 0.929 . S
C524 C523 1.383 . S
C524 C525 1.377 . S
C525 H509 0.930 . S
C525 C524 1.377 . S
C525 C526 1.379 . S
C526 H510 0.931 . S
C526 C520 1.383 . S
C526 C525 1.379 . S
H527 C521 0.959 . S
H528 C521 0.961 . S
H529 C521 0.960 . S
H530 C522 0.930 . S
H531 C523 0.929 . S
H532 C540 0.929 . S
H533 C542 0.930 . S
H534 C544 0.930 . S
H535 C547 0.929 . S
H536 C550 0.930 . S
H537 C552 0.960 . S
H538 C552 0.960 . S
H539 C552 0.960 . S
C540 H532 0.929 . S
C540 C541 1.377 . S
C540 C542 1.384 . S
C541 C540 1.377 . S
C541 C547 1.390 . S
C542 H533 0.930 . S
C542 C540 1.384 . S
C542 C543 1.372 . S
C543 C542 1.372 . S
C543 C544 1.400 . S
C543 C548 1.490 . S
C544 H534 0.930 . S
C544 C543 1.400 . S
C544 C547 1.386 . S
H545 C561 0.930 . S
H546 C562 0.931 . S
C547 H535 0.929 . S
C547 C541 1.390 . S
C547 C544 1.386 . S
C548 C543 1.490 . S
C548 C550 1.395 . S
C548 C551 1.403 . S
H549 C555 0.930 . S
C550 H536 0.930 . S
C550 C548 1.395 . S
C550 C553 1.403 . S
C551 C548 1.403 . S
C551 C552 1.524 . S
C551 C555 1.400 . S
C552 H537 0.960 . S
C552 H538 0.960 . S
C552 H539 0.960 . S
C552 C551 1.524 . S
C553 C550 1.403 . S
C553 C554 1.392 . S
C553 C557 1.495 . S
C554 C553 1.392 . S
C554 C555 1.385 . S
C554 C556 1.478 . S
C555 H549 0.930 . S
C555 C551 1.400 . S
C555 C554 1.385 . S
C556 C554 1.478 . S
C556 C558 1.381 . S
C556 C562 1.383 . S
C557 C553 1.495 . S
C557 H563 0.959 . S
C557 H564 0.961 . S
C557 H565 0.960 . S
C558 C556 1.381 . S
C558 C559 1.394 . S
C558 H566 0.930 . S
C559 C558 1.394 . S
C559 C560 1.383 . S
C559 H567 0.929 . S
C560 C559 1.383 . S
C560 C561 1.377 . S
C561 H545 0.930 . S
C561 C560 1.377 . S
C561 C562 1.379 . S
C562 H546 0.931 . S
C562 C556 1.383 . S
C562 C561 1.379 . S
H563 C557 0.959 . S
H564 C557 0.961 . S
H565 C557 0.960 . S
H566 C558 0.930 . S
H567 C559 0.929 . S
H568 C576 0.929 . S
H569 C578 0.930 . S
H570 C580 0.930 . S
H571 C583 0.929 . S
H572 C586 0.930 . S
H573 C588 0.960 . S
H574 C588 0.960 . S
H575 C588 0.960 . S
C576 H568 0.929 . S
C576 C577 1.377 . S
C576 C578 1.384 . S
C577 C576 1.377 . S
C577 C583 1.390 . S
C578 H569 0.930 . S
C578 C576 1.384 . S
C578 C579 1.372 . S
C579 C578 1.372 . S
C579 C580 1.400 . S
C579 C584 1.490 . S
C580 H570 0.930 . S
C580 C579 1.400 . S
C580 C583 1.386 . S
H581 C597 0.930 . S
H582 C598 0.931 . S
C583 H571 0.929 . S
C583 C577 1.390 . S
C583 C580 1.386 . S
C584 C579 1.490 . S
C584 C586 1.395 . S
C584 C587 1.403 . S
H585 C591 0.930 . S
C586 H572 0.930 . S
C586 C584 1.395 . S
C586 C589 1.403 . S
C587 C584 1.403 . S
C587 C588 1.524 . S
C587 C591 1.400 . S
C588 H573 0.960 . S
C588 H574 0.960 . S
C588 H575 0.960 . S
C588 C587 1.524 . S
C589 C586 1.403 . S
C589 C590 1.392 . S
C589 C593 1.495 . S
C590 C589 1.392 . S
C590 C591 1.385 . S
C590 C592 1.478 . S
C591 H585 0.930 . S
C591 C587 1.400 . S
C591 C590 1.385 . S
C592 C590 1.478 . S
C592 C594 1.381 . S
C592 C598 1.383 . S
C593 C589 1.495 . S
C593 H599 0.959 . S
C593 H600 0.961 . S
C593 H601 0.960 . S
C594 C592 1.381 . S
C594 C595 1.394 . S
C594 H602 0.930 . S
C595 C594 1.394 . S
C595 C596 1.383 . S
C595 H603 0.929 . S
C596 C595 1.383 . S
C596 C597 1.377 . S
C597 H581 0.930 . S
C597 C596 1.377 . S
C597 C598 1.379 . S
C598 H582 0.931 . S
C598 C592 1.383 . S
C598 C597 1.379 . S
H599 C593 0.959 . S
H600 C593 0.961 . S
H601 C593 0.960 . S
H602 C594 0.930 . S
H603 C595 0.929 . S
H604 C612 0.929 . S
H605 C614 0.930 . S
H606 C616 0.930 . S
H607 C619 0.929 . S
H608 C622 0.930 . S
H609 C624 0.960 . S
H610 C624 0.960 . S
H611 C624 0.960 . S
C612 H604 0.929 . S
C612 C613 1.377 . S
C612 C614 1.384 . S
C613 C612 1.377 . S
C613 C619 1.390 . S
C614 H605 0.930 . S
C614 C612 1.384 . S
C614 C615 1.372 . S
C615 C614 1.372 . S
C615 C616 1.400 . S
C615 C620 1.490 . S
C616 H606 0.930 . S
C616 C615 1.400 . S
C616 C619 1.386 . S
H617 C633 0.930 . S
H618 C634 0.931 . S
C619 H607 0.929 . S
C619 C613 1.390 . S
C619 C616 1.386 . S
C620 C615 1.490 . S
C620 C622 1.395 . S
C620 C623 1.403 . S
H621 C627 0.930 . S
C622 H608 0.930 . S
C622 C620 1.395 . S
C622 C625 1.403 . S
C623 C620 1.403 . S
C623 C624 1.524 . S
C623 C627 1.400 . S
C624 H609 0.960 . S
C624 H610 0.960 . S
C624 H611 0.960 . S
C624 C623 1.524 . S
C625 C622 1.403 . S
C625 C626 1.392 . S
C625 C629 1.495 . S
C626 C625 1.392 . S
C626 C627 1.385 . S
C626 C628 1.478 . S
C627 H621 0.930 . S
C627 C623 1.400 . S
C627 C626 1.385 . S
C628 C626 1.478 . S
C628 C630 1.381 . S
C628 C634 1.383 . S
C629 C625 1.495 . S
C629 H635 0.959 . S
C629 H636 0.961 . S
C629 H637 0.960 . S
C630 C628 1.381 . S
C630 C631 1.394 . S
C630 H638 0.930 . S
C631 C630 1.394 . S
C631 C632 1.383 . S
C631 H639 0.929 . S
C632 C631 1.383 . S
C632 C633 1.377 . S
C633 H617 0.930 . S
C633 C632 1.377 . S
C633 C634 1.379 . S
C634 H618 0.931 . S
C634 C628 1.383 . S
C634 C633 1.379 . S
H635 C629 0.959 . S
H636 C629 0.961 . S
H637 C629 0.960 . S
H638 C630 0.930 . S
H639 C631 0.929 . S
H640 C648 0.929 . S
H641 C650 0.930 . S
H642 C652 0.930 . S
H643 C655 0.929 . S
H644 C658 0.930 . S
H645 C660 0.960 . S
H646 C660 0.960 . S
H647 C660 0.960 . S
C648 H640 0.929 . S
C648 C649 1.377 . S
C648 C650 1.384 . S
C649 C648 1.377 . S
C649 C655 1.390 . S
C650 H641 0.930 . S
C650 C648 1.384 . S
C650 C651 1.372 . S
C651 C650 1.372 . S
C651 C652 1.400 . S
C651 C656 1.490 . S
C652 H642 0.930 . S
C652 C651 1.400 . S
C652 C655 1.386 . S
H653 C669 0.930 . S
H654 C670 0.931 . S
C655 H643 0.929 . S
C655 C649 1.390 . S
C655 C652 1.386 . S
C656 C651 1.490 . S
C656 C658 1.395 . S
C656 C659 1.403 . S
H657 C663 0.930 . S
C658 H644 0.930 . S
C658 C656 1.395 . S
C658 C661 1.403 . S
C659 C656 1.403 . S
C659 C660 1.524 . S
C659 C663 1.400 . S
C660 H645 0.960 . S
C660 H646 0.960 . S
C660 H647 0.960 . S
C660 C659 1.524 . S
C661 C658 1.403 . S
C661 C662 1.392 . S
C661 C665 1.495 . S
C662 C661 1.392 . S
C662 C663 1.385 . S
C662 C664 1.478 . S
C663 H657 0.930 . S
C663 C659 1.400 . S
C663 C662 1.385 . S
C664 C662 1.478 . S
C664 C666 1.381 . S
C664 C670 1.383 . S
C665 C661 1.495 . S
C665 H671 0.959 . S
C665 H672 0.961 . S
C665 H673 0.960 . S
C666 C664 1.381 . S
C666 C667 1.394 . S
C666 H674 0.930 . S
C667 C666 1.394 . S
C667 C668 1.383 . S
C667 H675 0.929 . S
C668 C667 1.383 . S
C668 C669 1.377 . S
C669 H653 0.930 . S
C669 C668 1.377 . S
C669 C670 1.379 . S
C670 H654 0.931 . S
C670 C664 1.383 . S
C670 C669 1.379 . S
H671 C665 0.959 . S
H672 C665 0.961 . S
H673 C665 0.960 . S
H674 C666 0.930 . S
H675 C667 0.929 . S
H676 C684 0.929 . S
H677 C686 0.930 . S
H678 C688 0.930 . S
H679 C691 0.929 . S
H680 C694 0.930 . S
H681 C696 0.960 . S
H682 C696 0.960 . S
H683 C696 0.960 . S
C684 H676 0.929 . S
C684 C685 1.377 . S
C684 C686 1.384 . S
C685 C684 1.377 . S
C685 C691 1.390 . S
C686 H677 0.930 . S
C686 C684 1.384 . S
C686 C687 1.372 . S
C687 C686 1.372 . S
C687 C688 1.400 . S
C687 C692 1.490 . S
C688 H678 0.930 . S
C688 C687 1.400 . S
C688 C691 1.386 . S
H689 C705 0.930 . S
H690 C706 0.931 . S
C691 H679 0.929 . S
C691 C685 1.390 . S
C691 C688 1.386 . S
C692 C687 1.490 . S
C692 C694 1.395 . S
C692 C695 1.403 . S
H693 C699 0.930 . S
C694 H680 0.930 . S
C694 C692 1.395 . S
C694 C697 1.403 . S
C695 C692 1.403 . S
C695 C696 1.524 . S
C695 C699 1.400 . S
C696 H681 0.960 . S
C696 H682 0.960 . S
C696 H683 0.960 . S
C696 C695 1.524 . S
C697 C694 1.403 . S
C697 C698 1.392 . S
C697 C701 1.495 . S
C698 C697 1.392 . S
C698 C699 1.385 . S
C698 C700 1.478 . S
C699 H693 0.930 . S
C699 C695 1.400 . S
C699 C698 1.385 . S
C700 C698 1.478 . S
C700 C702 1.381 . S
C700 C706 1.383 . S
C701 C697 1.495 . S
C701 H707 0.959 . S
C701 H708 0.961 . S
C701 H709 0.960 . S
C702 C700 1.381 . S
C702 C703 1.394 . S
C702 H710 0.930 . S
C703 C702 1.394 . S
C703 C704 1.383 . S
C703 H711 0.929 . S
C704 C703 1.383 . S
C704 C705 1.377 . S
C705 H689 0.930 . S
C705 C704 1.377 . S
C705 C706 1.379 . S
C706 H690 0.931 . S
C706 C700 1.383 . S
C706 C705 1.379 . S
H707 C701 0.959 . S
H708 C701 0.961 . S
H709 C701 0.960 . S
H710 C702 0.930 . S
H711 C703 0.929 . S
H712 C720 0.929 . S
H713 C722 0.930 . S
H714 C724 0.930 . S
H715 C727 0.929 . S
H716 C730 0.930 . S
H717 C732 0.960 . S
H718 C732 0.960 . S
H719 C732 0.960 . S
C720 H712 0.929 . S
C720 C721 1.377 . S
C720 C722 1.384 . S
C721 C720 1.377 . S
C721 C727 1.390 . S
C722 H713 0.930 . S
C722 C720 1.384 . S
C722 C723 1.372 . S
C723 C722 1.372 . S
C723 C724 1.400 . S
C723 C728 1.490 . S
C724 H714 0.930 . S
C724 C723 1.400 . S
C724 C727 1.386 . S
H725 C741 0.930 . S
H726 C742 0.931 . S
C727 H715 0.929 . S
C727 C721 1.390 . S
C727 C724 1.386 . S
C728 C723 1.490 . S
C728 C730 1.395 . S
C728 C731 1.403 . S
H729 C735 0.930 . S
C730 H716 0.930 . S
C730 C728 1.395 . S
C730 C733 1.403 . S
C731 C728 1.403 . S
C731 C732 1.524 . S
C731 C735 1.400 . S
C732 H717 0.960 . S
C732 H718 0.960 . S
C732 H719 0.960 . S
C732 C731 1.524 . S
C733 C730 1.403 . S
C733 C734 1.392 . S
C733 C737 1.495 . S
C734 C733 1.392 . S
C734 C735 1.385 . S
C734 C736 1.478 . S
C735 H729 0.930 . S
C735 C731 1.400 . S
C735 C734 1.385 . S
C736 C734 1.478 . S
C736 C738 1.381 . S
C736 C742 1.383 . S
C737 C733 1.495 . S
C737 H743 0.959 . S
C737 H744 0.961 . S
C737 H745 0.960 . S
C738 C736 1.381 . S
C738 C739 1.394 . S
C738 H746 0.930 . S
C739 C738 1.394 . S
C739 C740 1.383 . S
C739 H747 0.929 . S
C740 C739 1.383 . S
C740 C741 1.377 . S
C741 H725 0.930 . S
C741 C740 1.377 . S
C741 C742 1.379 . S
C742 H726 0.931 . S
C742 C736 1.383 . S
C742 C741 1.379 . S
H743 C737 0.959 . S
H744 C737 0.961 . S
H745 C737 0.960 . S
H746 C738 0.930 . S
H747 C739 0.929 . S
H748 C756 0.929 . S
H749 C758 0.930 . S
H750 C760 0.930 . S
H751 C763 0.929 . S
H752 C766 0.930 . S
H753 C768 0.960 . S
H754 C768 0.960 . S
H755 C768 0.960 . S
C756 H748 0.929 . S
C756 C757 1.377 . S
C756 C758 1.384 . S
C757 C756 1.377 . S
C757 C763 1.390 . S
C758 H749 0.930 . S
C758 C756 1.384 . S
C758 C759 1.372 . S
C759 C758 1.372 . S
C759 C760 1.400 . S
C759 C764 1.490 . S
C760 H750 0.930 . S
C760 C759 1.400 . S
C760 C763 1.386 . S
H761 C777 0.930 . S
H762 C778 0.931 . S
C763 H751 0.929 . S
C763 C757 1.390 . S
C763 C760 1.386 . S
C764 C759 1.490 . S
C764 C766 1.395 . S
C764 C767 1.403 . S
H765 C771 0.930 . S
C766 H752 0.930 . S
C766 C764 1.395 . S
C766 C769 1.403 . S
C767 C764 1.403 . S
C767 C768 1.524 . S
C767 C771 1.400 . S
C768 H753 0.960 . S
C768 H754 0.960 . S
C768 H755 0.960 . S
C768 C767 1.524 . S
C769 C766 1.403 . S
C769 C770 1.392 . S
C769 C773 1.495 . S
C770 C769 1.392 . S
C770 C771 1.385 . S
C770 C772 1.478 . S
C771 H765 0.930 . S
C771 C767 1.400 . S
C771 C770 1.385 . S
C772 C770 1.478 . S
C772 C774 1.381 . S
C772 C778 1.383 . S
C773 C769 1.495 . S
C773 H779 0.959 . S
C773 H780 0.961 . S
C773 H781 0.960 . S
C774 C772 1.381 . S
C774 C775 1.394 . S
C774 H782 0.930 . S
C775 C774 1.394 . S
C775 C776 1.383 . S
C775 H783 0.929 . S
C776 C775 1.383 . S
C776 C777 1.377 . S
C777 H761 0.930 . S
C777 C776 1.377 . S
C777 C778 1.379 . S
C778 H762 0.931 . S
C778 C772 1.383 . S
C778 C777 1.379 . S
H779 C773 0.959 . S
H780 C773 0.961 . S
H781 C773 0.960 . S
H782 C774 0.930 . S
H783 C775 0.929 . S
H784 C792 0.929 1_565 S
H785 C794 0.930 . S
H786 C796 0.930 . S
H787 C799 0.929 . S
H788 C802 0.930 . S
H789 C804 0.960 . S
H790 C804 0.960 . S
H791 C804 0.960 . S
C792 H784 0.929 1_545 S
C792 C793 1.377 . S
C792 C794 1.384 . S
C793 C792 1.377 . S
C793 C799 1.390 . S
C794 H785 0.930 . S
C794 C792 1.384 . S
C794 C795 1.372 . S
C795 C794 1.372 . S
C795 C796 1.400 . S
C795 C800 1.490 . S
C796 H786 0.930 . S
C796 C795 1.400 . S
C796 C799 1.386 . S
H797 C813 0.930 . S
H798 C814 0.931 . S
C799 H787 0.929 . S
C799 C793 1.390 . S
C799 C796 1.386 . S
C800 C795 1.490 . S
C800 C802 1.395 . S
C800 C803 1.403 . S
H801 C807 0.930 . S
C802 H788 0.930 . S
C802 C800 1.395 . S
C802 C805 1.403 . S
C803 C800 1.403 . S
C803 C804 1.524 . S
C803 C807 1.400 . S
C804 H789 0.960 . S
C804 H790 0.960 . S
C804 H791 0.960 . S
C804 C803 1.524 . S
C805 C802 1.403 . S
C805 C806 1.392 . S
C805 C809 1.495 . S
C806 C805 1.392 . S
C806 C807 1.385 . S
C806 C808 1.478 . S
C807 H801 0.930 . S
C807 C803 1.400 . S
C807 C806 1.385 . S
C808 C806 1.478 . S
C808 C810 1.381 . S
C808 C814 1.383 . S
C809 C805 1.495 . S
C809 H815 0.959 . S
C809 H816 0.961 . S
C809 H817 0.960 . S
C810 C808 1.381 . S
C810 C811 1.394 . S
C810 H818 0.930 . S
C811 C810 1.394 . S
C811 C812 1.383 . S
C811 H819 0.929 . S
C812 C811 1.383 . S
C812 C813 1.377 . S
C813 H797 0.930 . S
C813 C812 1.377 . S
C813 C814 1.379 . S
C814 H798 0.931 . S
C814 C808 1.383 . S
C814 C813 1.379 . S
H815 C809 0.959 . S
H816 C809 0.961 . S
H817 C809 0.960 . S
H818 C810 0.930 . S
H819 C811 0.929 . S
H820 C828 0.929 . S
H821 C830 0.930 . S
H822 C832 0.930 . S
H823 C835 0.929 . S
H824 C838 0.930 . S
H825 C840 0.960 . S
H826 C840 0.960 . S
H827 C840 0.960 . S
C828 H820 0.929 . S
C828 C829 1.377 . S
C828 C830 1.384 . S
C829 C828 1.377 . S
C829 C835 1.390 . S
C830 H821 0.930 . S
C830 C828 1.384 . S
C830 C831 1.372 . S
C831 C830 1.372 . S
C831 C832 1.400 . S
C831 C836 1.490 . S
C832 H822 0.930 . S
C832 C831 1.400 . S
C832 C835 1.386 . S
H833 C849 0.930 . S
H834 C850 0.931 . S
C835 H823 0.929 . S
C835 C829 1.390 . S
C835 C832 1.386 . S
C836 C831 1.490 . S
C836 C838 1.395 . S
C836 C839 1.403 . S
H837 C843 0.930 . S
C838 H824 0.930 . S
C838 C836 1.395 . S
C838 C841 1.403 . S
C839 C836 1.403 . S
C839 C840 1.524 . S
C839 C843 1.400 . S
C840 H825 0.960 . S
C840 H826 0.960 . S
C840 H827 0.960 . S
C840 C839 1.524 . S
C841 C838 1.403 . S
C841 C842 1.392 . S
C841 C845 1.495 . S
C842 C841 1.392 . S
C842 C843 1.385 . S
C842 C844 1.478 . S
C843 H837 0.930 . S
C843 C839 1.400 . S
C843 C842 1.385 . S
C844 C842 1.478 . S
C844 C846 1.381 . S
C844 C850 1.383 . S
C845 C841 1.495 . S
C845 H851 0.959 . S
C845 H852 0.961 . S
C845 H853 0.960 . S
C846 C844 1.381 . S
C846 C847 1.394 . S
C846 H854 0.930 . S
C847 C846 1.394 . S
C847 C848 1.383 . S
C847 H855 0.929 . S
C848 C847 1.383 . S
C848 C849 1.377 . S
C849 H833 0.930 . S
C849 C848 1.377 . S
C849 C850 1.379 . S
C850 H834 0.931 . S
C850 C844 1.383 . S
C850 C849 1.379 . S
H851 C845 0.959 . S
H852 C845 0.961 . S
H853 C845 0.960 . S
H854 C846 0.930 . S
H855 C847 0.929 . S
H856 C864 0.929 1_545 S
H857 C866 0.930 . S
H858 C868 0.930 . S
H859 C871 0.929 . S
H860 C874 0.930 . S
H861 C876 0.960 . S
H862 C876 0.960 . S
H863 C876 0.960 . S
C864 H856 0.929 1_565 S
C864 C865 1.377 . S
C864 C866 1.384 . S
C865 C864 1.377 . S
C865 C871 1.390 . S
C866 H857 0.930 . S
C866 C864 1.384 . S
C866 C867 1.372 . S
C867 C866 1.372 . S
C867 C868 1.400 . S
C867 C872 1.490 . S
C868 H858 0.930 . S
C868 C867 1.400 . S
C868 C871 1.386 . S
H869 C885 0.930 . S
H870 C886 0.931 . S
C871 H859 0.929 . S
C871 C865 1.390 . S
C871 C868 1.386 . S
C872 C867 1.490 . S
C872 C874 1.395 . S
C872 C875 1.403 . S
H873 C879 0.930 . S
C874 H860 0.930 . S
C874 C872 1.395 . S
C874 C877 1.403 . S
C875 C872 1.403 . S
C875 C876 1.524 . S
C875 C879 1.400 . S
C876 H861 0.960 . S
C876 H862 0.960 . S
C876 H863 0.960 . S
C876 C875 1.524 . S
C877 C874 1.403 . S
C877 C878 1.392 . S
C877 C881 1.495 . S
C878 C877 1.392 . S
C878 C879 1.385 . S
C878 C880 1.478 . S
C879 H873 0.930 . S
C879 C875 1.400 . S
C879 C878 1.385 . S
C880 C878 1.478 . S
C880 C882 1.381 . S
C880 C886 1.383 . S
C881 C877 1.495 . S
C881 H887 0.959 . S
C881 H888 0.961 . S
C881 H889 0.960 . S
C882 C880 1.381 . S
C882 C883 1.394 . S
C882 H890 0.930 . S
C883 C882 1.394 . S
C883 C884 1.383 . S
C883 H891 0.929 . S
C884 C883 1.383 . S
C884 C885 1.377 . S
C885 H869 0.930 . S
C885 C884 1.377 . S
C885 C886 1.379 . S
C886 H870 0.931 . S
C886 C880 1.383 . S
C886 C885 1.379 . S
H887 C881 0.959 . S
H888 C881 0.961 . S
H889 C881 0.960 . S
H890 C882 0.930 . S
H891 C883 0.929 . S
H892 C900 0.929 . S
H893 C902 0.930 . S
H894 C904 0.930 . S
H895 C907 0.929 . S
H896 C910 0.930 . S
H897 C912 0.960 . S
H898 C912 0.960 . S
H899 C912 0.960 . S
C900 H892 0.929 . S
C900 C901 1.377 . S
C900 C902 1.384 . S
C901 C900 1.377 . S
C901 C907 1.390 . S
C902 H893 0.930 . S
C902 C900 1.384 . S
C902 C903 1.372 . S
C903 C902 1.372 . S
C903 C904 1.400 . S
C903 C908 1.490 . S
C904 H894 0.930 . S
C904 C903 1.400 . S
C904 C907 1.386 . S
H905 C921 0.930 . S
H906 C922 0.931 . S
C907 H895 0.929 . S
C907 C901 1.390 . S
C907 C904 1.386 . S
C908 C903 1.490 . S
C908 C910 1.395 . S
C908 C911 1.403 . S
H909 C915 0.930 . S
C910 H896 0.930 . S
C910 C908 1.395 . S
C910 C913 1.403 . S
C911 C908 1.403 . S
C911 C912 1.524 . S
C911 C915 1.400 . S
C912 H897 0.960 . S
C912 H898 0.960 . S
C912 H899 0.960 . S
C912 C911 1.524 . S
C913 C910 1.403 . S
C913 C914 1.392 . S
C913 C917 1.495 . S
C914 C913 1.392 . S
C914 C915 1.385 . S
C914 C916 1.478 . S
C915 H909 0.930 . S
C915 C911 1.400 . S
C915 C914 1.385 . S
C916 C914 1.478 . S
C916 C918 1.381 . S
C916 C922 1.383 . S
C917 C913 1.495 . S
C917 H923 0.959 . S
C917 H924 0.961 . S
C917 H925 0.960 . S
C918 C916 1.381 . S
C918 C919 1.394 . S
C918 H926 0.930 . S
C919 C918 1.394 . S
C919 C920 1.383 . S
C919 H927 0.929 1_655 S
C920 C919 1.383 . S
C920 C921 1.377 . S
C921 H905 0.930 . S
C921 C920 1.377 . S
C921 C922 1.379 . S
C922 H906 0.931 . S
C922 C916 1.383 . S
C922 C921 1.379 . S
H923 C917 0.959 . S
H924 C917 0.961 . S
H925 C917 0.960 . S
H926 C918 0.930 . S
H927 C919 0.929 1_455 S
H928 C936 0.929 1_545 S
H929 C938 0.930 . S
H930 C940 0.930 . S
H931 C943 0.929 . S
H932 C946 0.930 . S
H933 C948 0.960 . S
H934 C948 0.960 . S
H935 C948 0.960 . S
C936 H928 0.929 1_565 S
C936 C937 1.377 . S
C936 C938 1.384 . S
C937 C936 1.377 . S
C937 C943 1.390 . S
C938 H929 0.930 . S
C938 C936 1.384 . S
C938 C939 1.372 . S
C939 C938 1.372 . S
C939 C940 1.400 . S
C939 C944 1.490 . S
C940 H930 0.930 . S
C940 C939 1.400 . S
C940 C943 1.386 . S
H941 C957 0.930 . S
H942 C958 0.931 . S
C943 H931 0.929 . S
C943 C937 1.390 . S
C943 C940 1.386 . S
C944 C939 1.490 . S
C944 C946 1.395 . S
C944 C947 1.403 . S
H945 C951 0.930 . S
C946 H932 0.930 . S
C946 C944 1.395 . S
C946 C949 1.403 . S
C947 C944 1.403 . S
C947 C948 1.524 . S
C947 C951 1.400 . S
C948 H933 0.960 . S
C948 H934 0.960 . S
C948 H935 0.960 . S
C948 C947 1.524 . S
C949 C946 1.403 . S
C949 C950 1.392 . S
C949 C953 1.495 . S
C950 C949 1.392 . S
C950 C951 1.385 . S
C950 C952 1.478 . S
C951 H945 0.930 . S
C951 C947 1.400 . S
C951 C950 1.385 . S
C952 C950 1.478 . S
C952 C954 1.381 . S
C952 C958 1.383 . S
C953 C949 1.495 . S
C953 H959 0.959 . S
C953 H960 0.961 . S
C953 H961 0.960 . S
C954 C952 1.381 . S
C954 C955 1.394 . S
C954 H962 0.930 . S
C955 C954 1.394 . S
C955 C956 1.383 . S
C955 H963 0.929 . S
C956 C955 1.383 . S
C956 C957 1.377 . S
C957 H941 0.930 . S
C957 C956 1.377 . S
C957 C958 1.379 . S
C958 H942 0.931 . S
C958 C952 1.383 . S
C958 C957 1.379 . S
H959 C953 0.959 . S
H960 C953 0.961 . S
H961 C953 0.960 . S
H962 C954 0.930 . S
H963 C955 0.929 . S
H964 C972 0.929 . S
H965 C974 0.930 . S
H966 C976 0.930 . S
H967 C979 0.929 . S
H968 C982 0.930 . S
H969 C984 0.960 . S
H970 C984 0.960 . S
H971 C984 0.960 . S
C972 H964 0.929 . S
C972 C973 1.377 . S
C972 C974 1.384 . S
C973 C972 1.377 . S
C973 C979 1.390 . S
C974 H965 0.930 . S
C974 C972 1.384 . S
C974 C975 1.372 . S
C975 C974 1.372 . S
C975 C976 1.400 . S
C975 C980 1.490 . S
C976 H966 0.930 . S
C976 C975 1.400 . S
C976 C979 1.386 . S
H977 C993 0.930 . S
H978 C994 0.931 . S
C979 H967 0.929 . S
C979 C973 1.390 . S
C979 C976 1.386 . S
C980 C975 1.490 . S
C980 C982 1.395 . S
C980 C983 1.403 . S
H981 C987 0.930 . S
C982 H968 0.930 . S
C982 C980 1.395 . S
C982 C985 1.403 . S
C983 C980 1.403 . S
C983 C984 1.524 . S
C983 C987 1.400 . S
C984 H969 0.960 . S
C984 H970 0.960 . S
C984 H971 0.960 . S
C984 C983 1.524 . S
C985 C982 1.403 . S
C985 C986 1.392 . S
C985 C989 1.495 . S
C986 C985 1.392 . S
C986 C987 1.385 . S
C986 C988 1.478 . S
C987 H981 0.930 . S
C987 C983 1.400 . S
C987 C986 1.385 . S
C988 C986 1.478 . S
C988 C990 1.381 . S
C988 C994 1.383 . S
C989 C985 1.495 . S
C989 H995 0.959 . S
C989 H996 0.961 . S
C989 H997 0.960 . S
C990 C988 1.381 . S
C990 C991 1.394 . S
C990 H998 0.930 . S
C991 C990 1.394 . S
C991 C992 1.383 . S
C991 H999 0.929 1_655 S
C992 C991 1.383 . S
C992 C993 1.377 . S
C993 H977 0.930 . S
C993 C992 1.377 . S
C993 C994 1.379 . S
C994 H978 0.931 . S
C994 C988 1.383 . S
C994 C993 1.379 . S
H995 C989 0.959 . S
H996 C989 0.961 . S
H997 C989 0.960 . S
H998 C990 0.930 . S
H999 C991 0.929 1_455 S
H1000 C1008 0.929 . S
H1001 C1010 0.930 . S
H1002 C1012 0.930 . S
H1003 C1015 0.929 . S
H1004 C1018 0.930 . S
H1005 C1020 0.960 . S
H1006 C1020 0.960 . S
H1007 C1020 0.960 . S
C1008 H1000 0.929 . S
C1008 C1009 1.377 . S
C1008 C1010 1.384 . S
C1009 C1008 1.377 . S
C1009 C1015 1.390 . S
C1010 H1001 0.930 . S
C1010 C1008 1.384 . S
C1010 C1011 1.372 . S
C1011 C1010 1.372 . S
C1011 C1012 1.400 . S
C1011 C1016 1.490 . S
C1012 H1002 0.930 . S
C1012 C1011 1.400 . S
C1012 C1015 1.386 . S
H1013 C1029 0.930 . S
H1014 C1030 0.931 . S
C1015 H1003 0.929 . S
C1015 C1009 1.390 . S
C1015 C1012 1.386 . S
C1016 C1011 1.490 . S
C1016 C1018 1.395 . S
C1016 C1019 1.403 . S
H1017 C1023 0.930 . S
C1018 H1004 0.930 . S
C1018 C1016 1.395 . S
C1018 C1021 1.403 . S
C1019 C1016 1.403 . S
C1019 C1020 1.524 . S
C1019 C1023 1.400 . S
C1020 H1005 0.960 . S
C1020 H1006 0.960 . S
C1020 H1007 0.960 . S
C1020 C1019 1.524 . S
C1021 C1018 1.403 . S
C1021 C1022 1.392 . S
C1021 C1025 1.495 . S
C1022 C1021 1.392 . S
C1022 C1023 1.385 . S
C1022 C1024 1.478 . S
C1023 H1017 0.930 . S
C1023 C1019 1.400 . S
C1023 C1022 1.385 . S
C1024 C1022 1.478 . S
C1024 C1026 1.381 . S
C1024 C1030 1.383 . S
C1025 C1021 1.495 . S
C1025 H1031 0.959 . S
C1025 H1032 0.961 . S
C1025 H1033 0.960 . S
C1026 C1024 1.381 . S
C1026 C1027 1.394 . S
C1026 H1034 0.930 . S
C1027 C1026 1.394 . S
C1027 C1028 1.383 . S
C1027 H1035 0.929 . S
C1028 C1027 1.383 . S
C1028 C1029 1.377 . S
C1029 H1013 0.930 . S
C1029 C1028 1.377 . S
C1029 C1030 1.379 . S
C1030 H1014 0.931 . S
C1030 C1024 1.383 . S
C1030 C1029 1.379 . S
H1031 C1025 0.959 . S
H1032 C1025 0.961 . S
H1033 C1025 0.960 . S
H1034 C1026 0.930 . S
H1035 C1027 0.929 . S
H1036 C1044 0.929 . S
H1037 C1046 0.930 . S
H1038 C1048 0.930 . S
H1039 C1051 0.929 . S
H1040 C1054 0.930 . S
H1041 C1056 0.960 . S
H1042 C1056 0.960 . S
H1043 C1056 0.960 . S
C1044 H1036 0.929 . S
C1044 C1045 1.377 . S
C1044 C1046 1.384 . S
C1045 C1044 1.377 . S
C1045 C1051 1.390 . S
C1046 H1037 0.930 . S
C1046 C1044 1.384 . S
C1046 C1047 1.372 . S
C1047 C1046 1.372 . S
C1047 C1048 1.400 . S
C1047 C1052 1.490 . S
C1048 H1038 0.930 . S
C1048 C1047 1.400 . S
C1048 C1051 1.386 . S
H1049 C1065 0.930 1_655 S
H1050 C1066 0.931 . S
C1051 H1039 0.929 . S
C1051 C1045 1.390 . S
C1051 C1048 1.386 . S
C1052 C1047 1.490 . S
C1052 C1054 1.395 . S
C1052 C1055 1.403 . S
H1053 C1059 0.930 . S
C1054 H1040 0.930 . S
C1054 C1052 1.395 . S
C1054 C1057 1.403 . S
C1055 C1052 1.403 . S
C1055 C1056 1.524 . S
C1055 C1059 1.400 . S
C1056 H1041 0.960 . S
C1056 H1042 0.960 . S
C1056 H1043 0.960 . S
C1056 C1055 1.524 . S
C1057 C1054 1.403 . S
C1057 C1058 1.392 . S
C1057 C1061 1.495 . S
C1058 C1057 1.392 . S
C1058 C1059 1.385 . S
C1058 C1060 1.478 . S
C1059 H1053 0.930 . S
C1059 C1055 1.400 . S
C1059 C1058 1.385 . S
C1060 C1058 1.478 . S
C1060 C1062 1.381 . S
C1060 C1066 1.383 . S
C1061 C1057 1.495 . S
C1061 H1067 0.959 . S
C1061 H1068 0.961 . S
C1061 H1069 0.960 . S
C1062 C1060 1.381 . S
C1062 C1063 1.394 . S
C1062 H1070 0.930 . S
C1063 C1062 1.394 . S
C1063 C1064 1.383 . S
C1063 H1071 0.929 . S
C1064 C1063 1.383 . S
C1064 C1065 1.377 . S
C1065 H1049 0.930 1_455 S
C1065 C1064 1.377 . S
C1065 C1066 1.379 . S
C1066 H1050 0.931 . S
C1066 C1060 1.383 . S
C1066 C1065 1.379 . S
H1067 C1061 0.959 . S
H1068 C1061 0.961 . S
H1069 C1061 0.960 . S
H1070 C1062 0.930 . S
H1071 C1063 0.929 . S
H1072 C1080 0.929 . S
H1073 C1082 0.930 . S
H1074 C1084 0.930 . S
H1075 C1087 0.929 . S
H1076 C1090 0.930 . S
H1077 C1092 0.960 . S
H1078 C1092 0.960 . S
H1079 C1092 0.960 . S
C1080 H1072 0.929 . S
C1080 C1081 1.377 . S
C1080 C1082 1.384 . S
C1081 C1080 1.377 . S
C1081 C1087 1.390 . S
C1082 H1073 0.930 . S
C1082 C1080 1.384 . S
C1082 C1083 1.372 . S
C1083 C1082 1.372 . S
C1083 C1084 1.400 . S
C1083 C1088 1.490 . S
C1084 H1074 0.930 . S
C1084 C1083 1.400 . S
C1084 C1087 1.386 . S
H1085 C1101 0.930 . S
H1086 C1102 0.931 . S
C1087 H1075 0.929 . S
C1087 C1081 1.390 . S
C1087 C1084 1.386 . S
C1088 C1083 1.490 . S
C1088 C1090 1.395 . S
C1088 C1091 1.403 . S
H1089 C1095 0.930 . S
C1090 H1076 0.930 . S
C1090 C1088 1.395 . S
C1090 C1093 1.403 . S
C1091 C1088 1.403 . S
C1091 C1092 1.524 . S
C1091 C1095 1.400 . S
C1092 H1077 0.960 . S
C1092 H1078 0.960 . S
C1092 H1079 0.960 . S
C1092 C1091 1.524 . S
C1093 C1090 1.403 . S
C1093 C1094 1.392 . S
C1093 C1097 1.495 . S
C1094 C1093 1.392 . S
C1094 C1095 1.385 . S
C1094 C1096 1.478 . S
C1095 H1089 0.930 . S
C1095 C1091 1.400 . S
C1095 C1094 1.385 . S
C1096 C1094 1.478 . S
C1096 C1098 1.381 . S
C1096 C1102 1.383 . S
C1097 C1093 1.495 . S
C1097 H1103 0.959 . S
C1097 H1104 0.961 . S
C1097 H1105 0.960 . S
C1098 C1096 1.381 . S
C1098 C1099 1.394 . S
C1098 H1106 0.930 . S
C1099 C1098 1.394 . S
C1099 C1100 1.383 . S
C1099 H1107 0.929 . S
C1100 C1099 1.383 . S
C1100 C1101 1.377 . S
C1101 H1085 0.930 . S
C1101 C1100 1.377 . S
C1101 C1102 1.379 . S
C1102 H1086 0.931 . S
C1102 C1096 1.383 . S
C1102 C1101 1.379 . S
H1103 C1097 0.959 . S
H1104 C1097 0.961 . S
H1105 C1097 0.960 . S
H1106 C1098 0.930 . S
H1107 C1099 0.929 . S
H1108 C1116 0.929 . S
H1109 C1118 0.930 . S
H1110 C1120 0.930 . S
H1111 C1123 0.929 . S
H1112 C1126 0.930 . S
H1113 C1128 0.960 . S
H1114 C1128 0.960 . S
H1115 C1128 0.960 . S
C1116 H1108 0.929 . S
C1116 C1117 1.377 . S
C1116 C1118 1.384 . S
C1117 C1116 1.377 . S
C1117 C1123 1.390 . S
C1118 H1109 0.930 . S
C1118 C1116 1.384 . S
C1118 C1119 1.372 . S
C1119 C1118 1.372 . S
C1119 C1120 1.400 . S
C1119 C1124 1.490 . S
C1120 H1110 0.930 . S
C1120 C1119 1.400 . S
C1120 C1123 1.386 . S
H1121 C1137 0.930 . S
H1122 C1138 0.931 . S
C1123 H1111 0.929 . S
C1123 C1117 1.390 . S
C1123 C1120 1.386 . S
C1124 C1119 1.490 . S
C1124 C1126 1.395 . S
C1124 C1127 1.403 . S
H1125 C1131 0.930 . S
C1126 H1112 0.930 . S
C1126 C1124 1.395 . S
C1126 C1129 1.403 . S
C1127 C1124 1.403 . S
C1127 C1128 1.524 . S
C1127 C1131 1.400 . S
C1128 H1113 0.960 . S
C1128 H1114 0.960 . S
C1128 H1115 0.960 . S
C1128 C1127 1.524 . S
C1129 C1126 1.403 . S
C1129 C1130 1.392 . S
C1129 C1133 1.495 . S
C1130 C1129 1.392 . S
C1130 C1131 1.385 . S
C1130 C1132 1.478 . S
C1131 H1125 0.930 . S
C1131 C1127 1.400 . S
C1131 C1130 1.385 . S
C1132 C1130 1.478 . S
C1132 C1134 1.381 . S
C1132 C1138 1.383 . S
C1133 C1129 1.495 . S
C1133 H1139 0.959 . S
C1133 H1140 0.961 . S
C1133 H1141 0.960 . S
C1134 C1132 1.381 . S
C1134 C1135 1.394 . S
C1134 H1142 0.930 . S
C1135 C1134 1.394 . S
C1135 C1136 1.383 . S
C1135 H1143 0.929 . S
C1136 C1135 1.383 . S
C1136 C1137 1.377 . S
C1137 H1121 0.930 . S
C1137 C1136 1.377 . S
C1137 C1138 1.379 . S
C1138 H1122 0.931 . S
C1138 C1132 1.383 . S
C1138 C1137 1.379 . S
H1139 C1133 0.959 . S
H1140 C1133 0.961 . S
H1141 C1133 0.960 . S
H1142 C1134 0.930 . S
H1143 C1135 0.929 . S
H1144 C1152 0.929 . S
H1145 C1154 0.930 . S
H1146 C1156 0.930 . S
H1147 C1159 0.929 . S
H1148 C1162 0.930 . S
H1149 C1164 0.960 . S
H1150 C1164 0.960 . S
H1151 C1164 0.960 . S
C1152 H1144 0.929 . S
C1152 C1153 1.377 . S
C1152 C1154 1.384 . S
C1153 C1152 1.377 . S
C1153 C1159 1.390 . S
C1154 H1145 0.930 . S
C1154 C1152 1.384 . S
C1154 C1155 1.372 . S
C1155 C1154 1.372 . S
C1155 C1156 1.400 . S
C1155 C1160 1.490 . S
C1156 H1146 0.930 . S
C1156 C1155 1.400 . S
C1156 C1159 1.386 . S
H1157 C1173 0.930 . S
H1158 C1174 0.931 . S
C1159 H1147 0.929 . S
C1159 C1153 1.390 . S
C1159 C1156 1.386 . S
C1160 C1155 1.490 . S
C1160 C1162 1.395 . S
C1160 C1163 1.403 . S
H1161 C1167 0.930 . S
C1162 H1148 0.930 . S
C1162 C1160 1.395 . S
C1162 C1165 1.403 . S
C1163 C1160 1.403 . S
C1163 C1164 1.524 . S
C1163 C1167 1.400 . S
C1164 H1149 0.960 . S
C1164 H1150 0.960 . S
C1164 H1151 0.960 . S
C1164 C1163 1.524 . S
C1165 C1162 1.403 . S
C1165 C1166 1.392 . S
C1165 C1169 1.495 . S
C1166 C1165 1.392 . S
C1166 C1167 1.385 . S
C1166 C1168 1.478 . S
C1167 H1161 0.930 . S
C1167 C1163 1.400 . S
C1167 C1166 1.385 . S
C1168 C1166 1.478 . S
C1168 C1170 1.381 . S
C1168 C1174 1.383 . S
C1169 C1165 1.495 . S
C1169 H1175 0.959 . S
C1169 H1176 0.961 . S
C1169 H1177 0.960 . S
C1170 C1168 1.381 . S
C1170 C1171 1.394 . S
C1170 H1178 0.930 . S
C1171 C1170 1.394 . S
C1171 C1172 1.383 . S
C1171 H1179 0.929 . S
C1172 C1171 1.383 . S
C1172 C1173 1.377 . S
C1173 H1157 0.930 . S
C1173 C1172 1.377 . S
C1173 C1174 1.379 . S
C1174 H1158 0.931 . S
C1174 C1168 1.383 . S
C1174 C1173 1.379 . S
H1175 C1169 0.959 . S
H1176 C1169 0.961 . S
H1177 C1169 0.960 . S
H1178 C1170 0.930 . S
H1179 C1171 0.929 . S
H1180 C1188 0.929 . S
H1181 C1190 0.930 . S
H1182 C1192 0.930 . S
H1183 C1195 0.929 . S
H1184 C1198 0.930 . S
H1185 C1200 0.960 . S
H1186 C1200 0.960 . S
H1187 C1200 0.960 . S
C1188 H1180 0.929 . S
C1188 C1189 1.377 . S
C1188 C1190 1.384 . S
C1189 C1188 1.377 . S
C1189 C1195 1.390 . S
C1190 H1181 0.930 . S
C1190 C1188 1.384 . S
C1190 C1191 1.372 . S
C1191 C1190 1.372 . S
C1191 C1192 1.400 . S
C1191 C1196 1.490 . S
C1192 H1182 0.930 . S
C1192 C1191 1.400 . S
C1192 C1195 1.386 . S
H1193 C1209 0.930 . S
H1194 C1210 0.931 . S
C1195 H1183 0.929 . S
C1195 C1189 1.390 . S
C1195 C1192 1.386 . S
C1196 C1191 1.490 . S
C1196 C1198 1.395 . S
C1196 C1199 1.403 . S
H1197 C1203 0.930 . S
C1198 H1184 0.930 . S
C1198 C1196 1.395 . S
C1198 C1201 1.403 . S
C1199 C1196 1.403 . S
C1199 C1200 1.524 . S
C1199 C1203 1.400 . S
C1200 H1185 0.960 . S
C1200 H1186 0.960 . S
C1200 H1187 0.960 . S
C1200 C1199 1.524 . S
C1201 C1198 1.403 . S
C1201 C1202 1.392 . S
C1201 C1205 1.495 . S
C1202 C1201 1.392 . S
C1202 C1203 1.385 . S
C1202 C1204 1.478 . S
C1203 H1197 0.930 . S
C1203 C1199 1.400 . S
C1203 C1202 1.385 . S
C1204 C1202 1.478 . S
C1204 C1206 1.381 . S
C1204 C1210 1.383 . S
C1205 C1201 1.495 . S
C1205 H1211 0.959 . S
C1205 H1212 0.961 . S
C1205 H1213 0.960 . S
C1206 C1204 1.381 . S
C1206 C1207 1.394 . S
C1206 H1214 0.930 . S
C1207 C1206 1.394 . S
C1207 C1208 1.383 . S
C1207 H1215 0.929 . S
C1208 C1207 1.383 . S
C1208 C1209 1.377 . S
C1209 H1193 0.930 . S
C1209 C1208 1.377 . S
C1209 C1210 1.379 . S
C1210 H1194 0.931 . S
C1210 C1204 1.383 . S
C1210 C1209 1.379 . S
H1211 C1205 0.959 . S
H1212 C1205 0.961 . S
H1213 C1205 0.960 . S
H1214 C1206 0.930 . S
H1215 C1207 0.929 . S
H1216 C1224 0.929 . S
H1217 C1226 0.930 . S
H1218 C1228 0.930 1_565 S
H1219 C1231 0.929 . S
H1220 C1234 0.930 . S
H1221 C1236 0.960 . S
H1222 C1236 0.960 . S
H1223 C1236 0.960 . S
C1224 H1216 0.929 . S
C1224 C1225 1.377 . S
C1224 C1226 1.384 . S
C1225 C1224 1.377 . S
C1225 C1231 1.390 . S
C1226 H1217 0.930 . S
C1226 C1224 1.384 . S
C1226 C1227 1.372 . S
C1227 C1226 1.372 . S
C1227 C1228 1.400 . S
C1227 C1232 1.490 . S
C1228 H1218 0.930 1_545 S
C1228 C1227 1.400 . S
C1228 C1231 1.386 . S
H1229 C1245 0.930 . S
H1230 C1246 0.931 . S
C1231 H1219 0.929 . S
C1231 C1225 1.390 . S
C1231 C1228 1.386 . S
C1232 C1227 1.490 . S
C1232 C1234 1.395 . S
C1232 C1235 1.403 1_545 S
H1233 C1239 0.930 . S
C1234 H1220 0.930 . S
C1234 C1232 1.395 . S
C1234 C1237 1.403 1_554 S
C1235 C1232 1.403 1_565 S
C1235 C1236 1.524 . S
C1235 C1239 1.400 1_554 S
C1236 H1221 0.960 . S
C1236 H1222 0.960 . S
C1236 H1223 0.960 . S
C1236 C1235 1.524 . S
C1237 C1234 1.403 1_556 S
C1237 C1238 1.392 1_545 S
C1237 C1241 1.495 . S
C1238 C1237 1.392 1_565 S
C1238 C1239 1.385 . S
C1238 C1240 1.478 . S
C1239 H1233 0.930 . S
C1239 C1235 1.400 1_556 S
C1239 C1238 1.385 . S
C1240 C1238 1.478 . S
C1240 C1242 1.381 . S
C1240 C1246 1.383 . S
C1241 C1237 1.495 . S
C1241 H1247 0.959 . S
C1241 H1248 0.961 . S
C1241 H1249 0.960 . S
C1242 C1240 1.381 . S
C1242 C1243 1.394 . S
C1242 H1250 0.930 1_565 S
C1243 C1242 1.394 . S
C1243 C1244 1.383 . S
C1243 H1251 0.929 . S
C1244 C1243 1.383 . S
C1244 C1245 1.377 . S
C1245 H1229 0.930 . S
C1245 C1244 1.377 . S
C1245 C1246 1.379 . S
C1246 H1230 0.931 . S
C1246 C1240 1.383 . S
C1246 C1245 1.379 . S
H1247 C1241 0.959 . S
H1248 C1241 0.961 . S
H1249 C1241 0.960 . S
H1250 C1242 0.930 1_545 S
H1251 C1243 0.929 . S
H1252 C1260 0.929 . S
H1253 C1262 0.930 . S
H1254 C1264 0.930 1_655 S
H1255 C1267 0.929 . S
H1256 C1270 0.930 . S
H1257 C1272 0.960 . S
H1258 C1272 0.960 . S
H1259 C1272 0.960 . S
C1260 H1252 0.929 . S
C1260 C1261 1.377 . S
C1260 C1262 1.384 . S
C1261 C1260 1.377 . S
C1261 C1267 1.390 . S
C1262 H1253 0.930 . S
C1262 C1260 1.384 . S
C1262 C1263 1.372 . S
C1263 C1262 1.372 . S
C1263 C1264 1.400 . S
C1263 C1268 1.490 . S
C1264 H1254 0.930 1_455 S
C1264 C1263 1.400 . S
C1264 C1267 1.386 . S
H1265 C1281 0.930 . S
H1266 C1282 0.931 . S
C1267 H1255 0.929 . S
C1267 C1261 1.390 . S
C1267 C1264 1.386 . S
C1268 C1263 1.490 . S
C1268 C1270 1.395 . S
C1268 C1271 1.403 1_455 S
H1269 C1275 0.930 . S
C1270 H1256 0.930 . S
C1270 C1268 1.395 . S
C1270 C1273 1.403 1_556 S
C1271 C1268 1.403 1_655 S
C1271 C1272 1.524 . S
C1271 C1275 1.400 1_556 S
C1272 H1257 0.960 . S
C1272 H1258 0.960 . S
C1272 H1259 0.960 . S
C1272 C1271 1.524 . S
C1273 C1270 1.403 1_554 S
C1273 C1274 1.392 1_455 S
C1273 C1277 1.495 . S
C1274 C1273 1.392 1_655 S
C1274 C1275 1.385 . S
C1274 C1276 1.478 . S
C1275 H1269 0.930 . S
C1275 C1271 1.400 1_554 S
C1275 C1274 1.385 . S
C1276 C1274 1.478 . S
C1276 C1278 1.381 . S
C1276 C1282 1.383 . S
C1277 C1273 1.495 . S
C1277 H1283 0.959 . S
C1277 H1284 0.961 . S
C1277 H1285 0.960 . S
C1278 C1276 1.381 . S
C1278 C1279 1.394 . S
C1278 H1286 0.930 1_655 S
C1279 C1278 1.394 . S
C1279 C1280 1.383 . S
C1279 H1287 0.929 . S
C1280 C1279 1.383 . S
C1280 C1281 1.377 . S
C1281 H1265 0.930 . S
C1281 C1280 1.377 . S
C1281 C1282 1.379 . S
C1282 H1266 0.931 . S
C1282 C1276 1.383 . S
C1282 C1281 1.379 . S
H1283 C1277 0.959 . S
H1284 C1277 0.961 . S
H1285 C1277 0.960 . S
H1286 C1278 0.930 1_455 S
H1287 C1279 0.929 . S
H1288 C1296 0.921 1_565 S
H1289 C1298 0.930 1_565 S
H1290 C1300 0.930 . S
H1291 C1303 0.929 . S
H1292 C1306 0.930 . S
H1293 C1308 0.961 1_554 S
H1294 C1308 0.960 . S
H1295 C1308 0.960 . S
C1296 H1288 0.921 1_545 S
C1296 C1297 1.377 . S
C1296 C1298 1.384 . S
C1297 C1296 1.377 . S
C1297 C1303 1.390 . S
C1298 H1289 0.930 1_545 S
C1298 C1296 1.384 . S
C1298 C1299 1.372 . S
C1299 C1298 1.372 . S
C1299 C1300 1.400 . S
C1299 C1304 1.490 . S
C1300 H1290 0.930 . S
C1300 C1299 1.400 . S
C1300 C1303 1.386 . S
H1301 C1317 0.944 . S
H1302 C1318 0.931 1_545 S
C1303 H1291 0.929 . S
C1303 C1297 1.390 . S
C1303 C1300 1.386 . S
C1304 C1299 1.490 . S
C1304 C1306 1.395 1_545 S
C1304 C1307 1.403 . S
H1305 C1311 0.930 . S
C1306 H1292 0.930 . S
C1306 C1304 1.395 1_565 S
C1306 C1309 1.403 1_556 S
C1307 C1304 1.403 . S
C1307 C1308 1.524 . S
C1307 C1311 1.400 1_556 S
C1308 H1293 0.961 1_556 S
C1308 H1294 0.960 . S
C1308 H1295 0.960 . S
C1308 C1307 1.524 . S
C1309 C1306 1.403 1_554 S
C1309 C1310 1.392 . S
C1309 C1313 1.495 . S
C1310 C1309 1.392 . S
C1310 C1311 1.385 1_565 S
C1310 C1312 1.478 . S
C1311 H1305 0.930 . S
C1311 C1307 1.400 1_554 S
C1311 C1310 1.385 1_545 S
C1312 C1310 1.478 . S
C1312 C1314 1.381 . S
C1312 C1318 1.383 . S
C1313 C1309 1.495 . S
C1313 H1319 0.959 1_554 S
C1313 H1320 0.961 . S
C1313 H1321 0.960 . S
C1314 C1312 1.381 . S
C1314 C1315 1.394 . S
C1314 H1322 0.930 . S
C1315 C1314 1.394 . S
C1315 C1316 1.383 . S
C1315 H1323 0.929 . S
C1316 C1315 1.383 . S
C1316 C1317 1.377 . S
C1317 H1301 0.944 . S
C1317 C1316 1.377 . S
C1317 C1318 1.379 . S
C1318 H1302 0.931 1_565 S
C1318 C1312 1.383 . S
C1318 C1317 1.379 . S
H1319 C1313 0.959 1_556 S
H1320 C1313 0.961 . S
H1321 C1313 0.960 . S
H1322 C1314 0.930 . S
H1323 C1315 0.929 . S
H1324 C1332 0.929 . S
H1325 C1334 0.930 . S
H1326 C1336 0.930 . S
H1327 C1339 0.929 . S
H1328 C1342 0.930 . S
H1329 C1344 0.960 . S
H1330 C1344 0.960 . S
H1331 C1344 0.960 . S
C1332 H1324 0.929 . S
C1332 C1333 1.377 . S
C1332 C1334 1.384 . S
C1333 C1332 1.377 . S
C1333 C1339 1.390 . S
C1334 H1325 0.930 . S
C1334 C1332 1.384 . S
C1334 C1335 1.372 . S
C1335 C1334 1.372 . S
C1335 C1336 1.400 . S
C1335 C1340 1.490 . S
C1336 H1326 0.930 . S
C1336 C1335 1.400 . S
C1336 C1339 1.386 . S
H1337 C1353 0.930 . S
H1338 C1354 0.930 1_655 S
C1339 H1327 0.929 . S
C1339 C1333 1.390 . S
C1339 C1336 1.386 . S
C1340 C1335 1.490 . S
C1340 C1342 1.395 . S
C1340 C1343 1.403 1_655 S
H1341 C1347 0.930 . S
C1342 H1328 0.930 . S
C1342 C1340 1.395 . S
C1342 C1345 1.403 1_556 S
C1343 C1340 1.403 1_455 S
C1343 C1344 1.524 . S
C1343 C1347 1.400 1_556 S
C1344 H1329 0.960 . S
C1344 H1330 0.960 . S
C1344 H1331 0.960 . S
C1344 C1343 1.524 . S
C1345 C1342 1.403 1_554 S
C1345 C1346 1.392 1_655 S
C1345 C1349 1.495 . S
C1346 C1345 1.392 1_455 S
C1346 C1347 1.385 . S
C1346 C1348 1.478 . S
C1347 H1341 0.930 . S
C1347 C1343 1.400 1_554 S
C1347 C1346 1.385 . S
C1348 C1346 1.478 . S
C1348 C1350 1.381 . S
C1348 C1354 1.383 . S
C1349 C1345 1.495 . S
C1349 H1355 0.959 . S
C1349 H1356 0.961 . S
C1349 H1357 0.960 . S
C1350 C1348 1.381 . S
C1350 C1351 1.394 . S
C1350 H1358 0.930 . S
C1351 C1350 1.394 . S
C1351 C1352 1.383 . S
C1351 H1359 0.929 . S
C1352 C1351 1.383 . S
C1352 C1353 1.377 . S
C1353 H1337 0.930 . S
C1353 C1352 1.377 . S
C1353 C1354 1.379 . S
C1354 H1338 0.930 1_455 S
C1354 C1348 1.383 . S
C1354 C1353 1.379 . S
H1355 C1349 0.959 . S
H1356 C1349 0.961 . S
H1357 C1349 0.960 . S
H1358 C1350 0.930 . S
H1359 C1351 0.929 . S
C217 C0 1.020 . S
C236 C91 1.060 . S
C253 C13 1.030 . S
C272 C52 1.012 . S
C289 C65 1.023 . S
C308 C26 1.053 . S
C325 C39 1.025 . S
C344 C78 1.049 . S
C361 C104 1.029 . S
C380 C195 0.982 . S
C397 C156 1.025 . S
C416 C117 1.046 . S
C433 C169 1.013 . S
C452 C130 1.043 . S
C469 C182 1.023 . S
C488 C143 1.054 . S
C505 C5 1.014 . S
C524 C153 1.071 . S
C541 C18 1.015 . S
C560 C114 1.086 . S
C577 C127 1.075 . S
C596 C31 1.053 . S
C613 C44 1.010 . S
C632 C140 1.074 . S
C649 C57 0.995 . S
C668 C179 1.086 . S
C685 C192 1.079 . S
C704 C70 1.044 . S
C721 C83 1.014 . S
C740 C205 1.071 . S
C757 C166 1.076 . S
C776 C96 1.007 . S
C793 C109 1.000 1_545 S
C812 C49 1.084 . S
C829 C10 1.078 . S
C848 C122 1.045 1_455 S
C865 C135 1.006 1_565 S
C884 C23 1.080 . S
C901 C36 1.075 . S
C920 C148 0.955 1_655 S
C937 C161 1.005 1_565 S
C956 C75 1.080 . S
C973 C88 1.075 . S
C992 C174 1.002 1_655 S
C1009 C101 1.079 . S
C1028 C187 0.964 1_545 S
C1045 C62 1.078 . S
C1064 C200 1.009 1_455 S
C1081 C60 1.551 . S
C1100 C8 1.567 . S
C1117 C73 1.546 . S
C1136 C21 1.523 . S
C1153 C34 1.550 . S
C1172 C86 1.564 . S
C1189 C99 1.552 . S
C1208 C47 1.559 . S
C1225 C164 1.547 . S
C1244 C112 1.528 . S
C1261 C177 1.548 . S
C1280 C125 1.521 . S
C1297 C138 1.546 . S
C1316 C190 1.549 . S
C1333 C203 1.543 . S
C1352 C151 1.533 . S
