# Generated by pormake.
# Topology snl, (6)-cn, num edge types: 1
# Building blocks:
#     Node 0, Type 0, BuildingBlock: CUKXOW_clean_sbu_0, # of connection points: 6
#     Node 1, Type 0, BuildingBlock: CUKXOW_clean_sbu_0, # of connection points: 6
#     Node 2, Type 0, BuildingBlock: CUKXOW_clean_sbu_0, # of connection points: 6
#     Node 3, Type 0, BuildingBlock: CUKXOW_clean_sbu_0, # of connection points: 6
#     Node 4, Type 0, BuildingBlock: CUKXOW_clean_sbu_0, # of connection points: 6
#     Node 5, Type 0, BuildingBlock: CUKXOW_clean_sbu_0, # of connection points: 6
#     Node 6, Type 0, BuildingBlock: CUKXOW_clean_sbu_0, # of connection points: 6
#     Node 7, Type 0, BuildingBlock: CUKXOW_clean_sbu_0, # of connection points: 6
#     Node 8, Type 0, BuildingBlock: CUKXOW_clean_sbu_0, # of connection points: 6
#     Node 9, Type 0, BuildingBlock: CUKXOW_clean_sbu_0, # of connection points: 6
#     Node 10, Type 0, BuildingBlock: CUKXOW_clean_sbu_0, # of connection points: 6
#     Node 11, Type 0, BuildingBlock: CUKXOW_clean_sbu_0, # of connection points: 6
#     Node 12, Type 0, BuildingBlock: CUKXOW_clean_sbu_0, # of connection points: 6
#     Node 13, Type 0, BuildingBlock: CUKXOW_clean_sbu_0, # of connection points: 6
#     Node 14, Type 0, BuildingBlock: CUKXOW_clean_sbu_0, # of connection points: 6
#     Node 15, Type 0, BuildingBlock: CUKXOW_clean_sbu_0, # of connection points: 6
#     Edge 16, Type (0, 0), BuildingBlock: AJUNOK_clean_linker_0, # of connection points: 2
#     Edge 17, Type (0, 0), BuildingBlock: AJUNOK_clean_linker_0, # of connection points: 2
#     Edge 18, Type (0, 0), BuildingBlock: AJUNOK_clean_linker_0, # of connection points: 2
#     Edge 19, Type (0, 0), BuildingBlock: AJUNOK_clean_linker_0, # of connection points: 2
#     Edge 20, Type (0, 0), BuildingBlock: AJUNOK_clean_linker_0, # of connection points: 2
#     Edge 21, Type (0, 0), BuildingBlock: AJUNOK_clean_linker_0, # of connection points: 2
#     Edge 22, Type (0, 0), BuildingBlock: AJUNOK_clean_linker_0, # of connection points: 2
#     Edge 23, Type (0, 0), BuildingBlock: AJUNOK_clean_linker_0, # of connection points: 2
#     Edge 24, Type (0, 0), BuildingBlock: AJUNOK_clean_linker_0, # of connection points: 2
#     Edge 25, Type (0, 0), BuildingBlock: AJUNOK_clean_linker_0, # of connection points: 2
#     Edge 26, Type (0, 0), BuildingBlock: AJUNOK_clean_linker_0, # of connection points: 2
#     Edge 27, Type (0, 0), BuildingBlock: AJUNOK_clean_linker_0, # of connection points: 2
#     Edge 28, Type (0, 0), BuildingBlock: AJUNOK_clean_linker_0, # of connection points: 2
#     Edge 29, Type (0, 0), BuildingBlock: AJUNOK_clean_linker_0, # of connection points: 2
#     Edge 30, Type (0, 0), BuildingBlock: AJUNOK_clean_linker_0, # of connection points: 2
#     Edge 31, Type (0, 0), BuildingBlock: AJUNOK_clean_linker_0, # of connection points: 2
#     Edge 32, Type (0, 0), BuildingBlock: AJUNOK_clean_linker_0, # of connection points: 2
#     Edge 33, Type (0, 0), BuildingBlock: AJUNOK_clean_linker_0, # of connection points: 2
#     Edge 34, Type (0, 0), BuildingBlock: AJUNOK_clean_linker_0, # of connection points: 2
#     Edge 35, Type (0, 0), BuildingBlock: AJUNOK_clean_linker_0, # of connection points: 2
#     Edge 36, Type (0, 0), BuildingBlock: AJUNOK_clean_linker_0, # of connection points: 2
#     Edge 37, Type (0, 0), BuildingBlock: AJUNOK_clean_linker_0, # of connection points: 2
#     Edge 38, Type (0, 0), BuildingBlock: AJUNOK_clean_linker_0, # of connection points: 2
#     Edge 39, Type (0, 0), BuildingBlock: AJUNOK_clean_linker_0, # of connection points: 2
#     Edge 40, Type (0, 0), BuildingBlock: AJUNOK_clean_linker_0, # of connection points: 2
#     Edge 41, Type (0, 0), BuildingBlock: AJUNOK_clean_linker_0, # of connection points: 2
#     Edge 42, Type (0, 0), BuildingBlock: AJUNOK_clean_linker_0, # of connection points: 2
#     Edge 43, Type (0, 0), BuildingBlock: AJUNOK_clean_linker_0, # of connection points: 2
#     Edge 44, Type (0, 0), BuildingBlock: AJUNOK_clean_linker_0, # of connection points: 2
#     Edge 45, Type (0, 0), BuildingBlock: AJUNOK_clean_linker_0, # of connection points: 2
#     Edge 46, Type (0, 0), BuildingBlock: AJUNOK_clean_linker_0, # of connection points: 2
#     Edge 47, Type (0, 0), BuildingBlock: AJUNOK_clean_linker_0, # of connection points: 2
#     Edge 48, Type (0, 0), BuildingBlock: AJUNOK_clean_linker_0, # of connection points: 2
#     Edge 49, Type (0, 0), BuildingBlock: AJUNOK_clean_linker_0, # of connection points: 2
#     Edge 50, Type (0, 0), BuildingBlock: AJUNOK_clean_linker_0, # of connection points: 2
#     Edge 51, Type (0, 0), BuildingBlock: AJUNOK_clean_linker_0, # of connection points: 2
#     Edge 52, Type (0, 0), BuildingBlock: AJUNOK_clean_linker_0, # of connection points: 2
#     Edge 53, Type (0, 0), BuildingBlock: AJUNOK_clean_linker_0, # of connection points: 2
#     Edge 54, Type (0, 0), BuildingBlock: AJUNOK_clean_linker_0, # of connection points: 2
#     Edge 55, Type (0, 0), BuildingBlock: AJUNOK_clean_linker_0, # of connection points: 2
#     Edge 56, Type (0, 0), BuildingBlock: AJUNOK_clean_linker_0, # of connection points: 2
#     Edge 57, Type (0, 0), BuildingBlock: AJUNOK_clean_linker_0, # of connection points: 2
#     Edge 58, Type (0, 0), BuildingBlock: AJUNOK_clean_linker_0, # of connection points: 2
#     Edge 59, Type (0, 0), BuildingBlock: AJUNOK_clean_linker_0, # of connection points: 2
#     Edge 60, Type (0, 0), BuildingBlock: AJUNOK_clean_linker_0, # of connection points: 2
#     Edge 61, Type (0, 0), BuildingBlock: AJUNOK_clean_linker_0, # of connection points: 2
#     Edge 62, Type (0, 0), BuildingBlock: AJUNOK_clean_linker_0, # of connection points: 2
#     Edge 63, Type (0, 0), BuildingBlock: AJUNOK_clean_linker_0, # of connection points: 2
# Relax obj value: 0.197
# Max RMSD: 0.289
# Mean RMSD: 0.226
data_MOF--net-snl--node1-CUKXOW_clean_sbu_0--edge1-AJUNOK_clean_linker_0
_symmetry_space_group_name_H-M    P1
_symmetry_Int_Tables_number       1
_symmetry_cell_setting            triclinic
loop_
_symmetry_equiv_pos_as_xyz
'x, y, z'
_cell_length_a     51.28979
_cell_length_b     48.826522
_cell_length_c     10.481781
_cell_angle_alpha  94.183217
_cell_angle_beta   94.551387
_cell_angle_gamma 90.053569
loop_
_atom_site_label
_atom_site_type_symbol
_atom_site_fract_x
_atom_site_fract_y
_atom_site_fract_z
_atom_type_partial_charge
Tb0 Tb 0.11555 0.62429 0.16614 0.0
C1 C 0.14644 0.6771 0.25868 0.0
Tb2 Tb 0.17233 0.61942 0.21423 0.0
O3 O 0.11048 0.63709 0.36732 0.0
O4 O 0.14035 0.61025 0.32175 0.0
O5 O 0.12539 0.66721 0.18997 0.0
C6 C 0.2223 0.61533 0.29731 0.0
O7 O 0.16674 0.66157 0.29024 0.0
C8 C 0.15659 0.61816 0.96684 0.0
C9 C 0.14157 0.56673 0.12617 0.0
O10 O 0.21332 0.63008 0.2059 0.0
O11 O 0.20304 0.60371 0.3455 0.0
O12 O 0.17677 0.60541 1.01437 0.0
O13 O 0.14738 0.63297 0.05673 0.0
O14 O 0.1624 0.57651 0.19627 0.0
O15 O 0.12195 0.58254 0.08922 0.0
C16 C 0.06579 0.62305 0.07319 0.0
O17 O 0.07627 0.60717 0.15639 0.0
O18 O 0.08331 0.63996 0.0423 0.0
C19 C 0.13088 0.62434 0.4131 0.0
Tb20 Tb 0.59415 0.88074 0.42285 0.0
C21 C 0.6219 0.82132 0.4205 0.0
Tb22 Tb 0.65322 0.87746 0.42685 0.0
O23 O 0.59164 0.89512 0.22869 0.0
O24 O 0.6216 0.86975 0.28375 0.0
O25 O 0.60056 0.83598 0.4453 0.0
C26 C 0.70392 0.87857 0.36793 0.0
O27 O 0.64401 0.83356 0.39634 0.0
C28 C 0.63466 0.87135 0.65211 0.0
C29 C 0.62713 0.93608 0.47298 0.0
O30 O 0.69539 0.88531 0.47931 0.0
O31 O 0.68377 0.87142 0.28963 0.0
O32 O 0.65611 0.86044 0.6143 0.0
O33 O 0.62569 0.88704 0.56814 0.0
O34 O 0.64706 0.92237 0.42535 0.0
O35 O 0.60587 0.92261 0.50058 0.0
C36 C 0.54119 0.88213 0.44086 0.0
O37 O 0.55615 0.90239 0.41955 0.0
O38 O 0.55631 0.86103 0.45622 0.0
C39 C 0.6131 0.88413 0.1947 0.0
Tb40 Tb 0.42163 0.35697 0.69019 0.0
C41 C 0.38674 0.30418 0.70147 0.0
Tb42 Tb 0.35979 0.36174 0.69703 0.0
O43 O 0.43122 0.35647 0.90096 0.0
O44 O 0.39358 0.35997 0.82528 0.0
O45 O 0.4086 0.31411 0.66031 0.0
C46 C 0.3115 0.36637 0.76585 0.0
O47 O 0.36756 0.31992 0.74168 0.0
C48 C 0.37455 0.35937 0.4566 0.0
C49 C 0.39282 0.41474 0.69041 0.0
O50 O 0.32017 0.34581 0.69623 0.0
O51 O 0.33015 0.38413 0.79849 0.0
O52 O 0.35052 0.36148 0.48646 0.0
O53 O 0.38808 0.3589 0.56196 0.0
O54 O 0.3713 0.4042 0.72886 0.0
O55 O 0.41262 0.39948 0.65266 0.0
C56 C 0.46919 0.36098 0.60922 0.0
O57 O 0.45733 0.37995 0.67479 0.0
O58 O 0.45455 0.33899 0.59175 0.0
C59 C 0.4071 0.35871 0.93049 0.0
Tb60 Tb 0.88504 0.16558 0.94295 0.0
C61 C 0.94113 0.13689 0.94055 0.0
Tb62 Tb 0.8901 0.09915 0.95077 0.0
O63 O 0.88469 0.17411 0.15305 0.0
O64 O 0.88834 0.13501 0.07798 0.0
O65 O 0.92612 0.15775 0.90351 0.0
C66 C 0.89403 0.04705 1.0298 0.0
O67 O 0.93104 0.11423 0.98335 0.0
C68 C 0.88757 0.11539 0.71155 0.0
C69 C 0.83355 0.12683 0.90098 0.0
O70 O 0.91005 0.05904 0.96097 0.0
O71 O 0.87589 0.0648 0.05621 0.0
O72 O 0.8891 0.0899 0.74017 0.0
O73 O 0.8871 0.12958 0.81718 0.0
O74 O 0.84724 0.1047 0.93366 0.0
O75 O 0.84462 0.15123 0.88838 0.0
C76 C 0.87983 0.2199 0.90016 0.0
O77 O 0.86129 0.20142 0.88654 0.0
O78 O 0.90152 0.20729 0.93161 0.0
C79 C 0.88709 0.14898 0.18338 0.0
Tb80 Tb 0.10095 0.39715 0.96362 0.0
C81 C 0.12303 0.33917 0.91504 0.0
Tb82 Tb 0.15719 0.39368 0.95798 0.0
O83 O 0.09414 0.38304 0.76144 0.0
O84 O 0.12734 0.40656 0.8236 0.0
O85 O 0.10218 0.35301 0.94715 0.0
C86 C 0.20566 0.38392 0.89626 0.0
O87 O 0.14601 0.35107 0.9084 0.0
C88 C 0.14187 0.39625 0.19398 0.0
C89 C 0.13449 0.45063 0.99426 0.0
O90 O 0.19933 0.40004 0.9922 0.0
O91 O 0.18474 0.37352 0.83423 0.0
O92 O 0.16377 0.40608 0.16348 0.0
O93 O 0.13084 0.38338 0.09545 0.0
O94 O 0.15234 0.4368 0.93322 0.0
O95 O 0.1143 0.43803 0.03478 0.0
C96 C 0.05315 0.40813 1.03111 0.0
O97 O 0.06382 0.41825 0.93681 0.0
O98 O 0.06917 0.39131 0.08574 0.0
C99 C 0.11596 0.3927 0.72817 0.0
Tb100 Tb 0.92523 0.87168 0.16842 0.0
C101 C 0.8921 0.81563 0.14812 0.0
Tb102 Tb 0.86358 0.87438 0.16826 0.0
O103 O 0.93395 0.87575 0.37976 0.0
O104 O 0.89649 0.87543 0.30229 0.0
O105 O 0.91416 0.82815 0.12325 0.0
C106 C 0.81355 0.87538 0.2358 0.0
O107 O 0.87103 0.82986 0.18126 0.0
C108 C 0.88188 0.87803 0.94061 0.0
C109 C 0.89598 0.92956 0.14551 0.0
O110 O 0.8221 0.86117 0.13786 0.0
O111 O 0.83334 0.88881 0.29583 0.0
O112 O 0.85901 0.88652 0.97116 0.0
O113 O 0.89196 0.86474 1.03169 0.0
O114 O 0.87419 0.91851 0.18243 0.0
O115 O 0.91705 0.91443 0.12347 0.0
C116 C 0.97704 0.86912 0.13261 0.0
O117 O 0.96133 0.88909 0.10357 0.0
O118 O 0.96311 0.85008 0.17554 0.0
C119 C 0.90992 0.87636 0.40845 0.0
Tb120 Tb 0.38148 0.64305 0.48352 0.0
C121 C 0.43667 0.61851 0.54392 0.0
Tb122 Tb 0.38747 0.57822 0.49311 0.0
O123 O 0.37847 0.65266 0.69208 0.0
O124 O 0.38322 0.61333 0.61843 0.0
O125 O 0.42321 0.63925 0.49847 0.0
C126 C 0.3915 0.52884 0.58077 0.0
O127 O 0.42632 0.59419 0.56181 0.0
C128 C 0.387 0.59383 0.25287 0.0
C129 C 0.33253 0.60374 0.42337 0.0
O130 O 0.40757 0.53921 0.50727 0.0
O131 O 0.37303 0.54624 0.60412 0.0
O132 O 0.38928 0.5685 0.28294 0.0
O133 O 0.38562 0.60788 0.35804 0.0
O134 O 0.34497 0.58251 0.47198 0.0
O135 O 0.34402 0.62723 0.40485 0.0
C136 C 0.3767 0.69185 0.39313 0.0
O137 O 0.35934 0.68015 0.45504 0.0
O138 O 0.39712 0.67631 0.38448 0.0
C139 C 0.38087 0.62736 0.72255 0.0
Tb140 Tb 0.60831 0.11472 0.62461 0.0
C141 C 0.63894 0.17038 0.63496 0.0
Tb142 Tb 0.66922 0.1127 0.66244 0.0
O143 O 0.60764 0.13271 0.82154 0.0
O144 O 0.63736 0.10614 0.77657 0.0
O145 O 0.61751 0.15669 0.5886 0.0
C146 C 0.71966 0.11505 0.76641 0.0
O147 O 0.66034 0.15752 0.68114 0.0
C148 C 0.65477 0.11499 0.41549 0.0
C149 C 0.63628 0.05679 0.59371 0.0
O150 O 0.70145 0.13293 0.78841 0.0
O151 O 0.70905 0.09532 0.68935 0.0
O152 O 0.67882 0.11389 0.46313 0.0
O153 O 0.64036 0.115 0.5081 0.0
O154 O 0.65863 0.06826 0.6482 0.0
O155 O 0.61539 0.0718 0.56198 0.0
C156 C 0.55554 0.11237 0.58524 0.0
O157 O 0.57019 0.09619 0.65273 0.0
O158 O 0.57085 0.12906 0.53427 0.0
C159 C 0.62912 0.12182 0.86558 0.0
Tb160 Tb 0.83705 0.3986 0.92305 0.0
C161 C 0.86308 0.45686 0.97355 0.0
Tb162 Tb 0.89305 0.40063 0.96746 0.0
O163 O 0.82999 0.4119 0.12012 0.0
O164 O 0.86317 0.38925 0.08331 0.0
O165 O 0.84347 0.44293 0.90835 0.0
C166 C 0.94278 0.41151 0.04358 0.0
O167 O 0.88323 0.44339 1.02489 0.0
C168 C 0.87632 0.39567 0.72189 0.0
C169 C 0.86891 0.34133 0.92627 0.0
O170 O 0.92976 0.42114 0.9464 0.0
O171 O 0.92786 0.39524 0.0983 0.0
O172 O 0.89733 0.3843 0.76975 0.0
O173 O 0.86668 0.4104 0.80992 0.0
O174 O 0.89032 0.35592 0.9646 0.0
O175 O 0.84612 0.35384 0.90051 0.0
C176 C 0.78892 0.39211 0.81082 0.0
O177 O 0.79543 0.40815 0.91207 0.0
O178 O 0.80938 0.37928 0.77374 0.0
C179 C 0.85198 0.40297 0.17001 0.0
Tb180 Tb 0.3303 0.13518 0.72508 0.0
C181 C 0.35821 0.07737 0.7031 0.0
Tb182 Tb 0.39358 0.12928 0.71809 0.0
O183 O 0.32175 0.13607 0.5142 0.0
O184 O 0.35899 0.13065 0.5915 0.0
O185 O 0.33834 0.09162 0.74818 0.0
C186 C 0.44362 0.12362 0.65603 0.0
O187 O 0.37933 0.08854 0.66317 0.0
C188 C 0.37812 0.13298 0.95854 0.0
C189 C 0.36719 0.1871 0.70665 0.0
O190 O 0.42829 0.10396 0.68292 0.0
O191 O 0.43052 0.14642 0.66214 0.0
O192 O 0.40216 0.13095 0.92884 0.0
O193 O 0.36459 0.13337 0.85283 0.0
O194 O 0.3868 0.17107 0.67477 0.0
O195 O 0.34492 0.17787 0.74742 0.0
C196 C 0.27997 0.13714 0.79292 0.0
O197 O 0.29695 0.15725 0.80835 0.0
O198 O 0.29172 0.11594 0.74215 0.0
C199 C 0.34581 0.13269 0.48557 0.0
Tb200 Tb 0.65564 0.64316 0.45128 0.0
C201 C 0.62664 0.58555 0.45656 0.0
Tb202 Tb 0.59432 0.64165 0.45465 0.0
O203 O 0.66564 0.64504 0.6623 0.0
O204 O 0.62767 0.64314 0.5861 0.0
O205 O 0.64743 0.59873 0.42222 0.0
C206 C 0.54625 0.63523 0.52162 0.0
O207 O 0.60544 0.59907 0.49081 0.0
C208 C 0.6089 0.64064 0.21518 0.0
C209 C 0.62263 0.69943 0.4426 0.0
O210 O 0.55946 0.6169 0.45924 0.0
O211 O 0.56007 0.65762 0.5466 0.0
O212 O 0.58476 0.64059 0.24417 0.0
O213 O 0.62247 0.64134 0.32065 0.0
O214 O 0.60137 0.68652 0.47502 0.0
O215 O 0.64441 0.68582 0.41623 0.0
C216 C 0.70211 0.64097 0.35863 0.0
O217 O 0.69137 0.66323 0.4048 0.0
O218 O 0.68685 0.62011 0.3659 0.0
C219 C 0.64145 0.64395 0.69131 0.0
Tb220 Tb 0.14634 0.90636 0.23946 0.0
C221 C 0.20103 0.87818 0.25661 0.0
Tb222 Tb 0.14797 0.84442 0.24447 0.0
O223 O 0.15808 0.91369 0.44404 0.0
O224 O 0.13879 0.87763 0.37739 0.0
O225 O 0.18726 0.89835 0.20658 0.0
C226 C 0.14735 0.79384 0.32047 0.0
O227 O 0.18923 0.8563 0.29544 0.0
C228 C 0.15109 0.85812 1.00417 0.0
C229 C 0.09257 0.87302 0.1993 0.0
O230 O 0.16743 0.81026 0.33695 0.0
O231 O 0.12805 0.80586 0.26091 0.0
O232 O 0.15094 0.83298 0.03657 0.0
O233 O 0.14971 0.87296 0.10635 0.0
O234 O 0.10534 0.85096 0.23749 0.0
O235 O 0.1052 0.89609 0.18315 0.0
C236 C 0.13775 0.95651 0.16692 0.0
O237 O 0.11996 0.93828 0.17678 0.0
O238 O 0.16057 0.94687 0.20065 0.0
C239 C 0.15135 0.88957 0.47447 0.0
Tb240 Tb 0.84812 0.63968 0.05214 0.0
C241 C 0.86958 0.57845 1.01237 0.0
Tb242 Tb 0.90369 0.63235 0.0485 0.0
O243 O 0.84309 0.65423 0.86047 0.0
O244 O 0.87249 0.62622 0.90309 0.0
O245 O 0.84992 0.5942 0.04792 0.0
C246 C 0.9542 0.62798 1.00989 0.0
O247 O 0.89188 0.58989 0.98686 0.0
C248 C 0.88675 0.63089 0.28043 0.0
C249 C 0.88258 0.69374 0.08312 0.0
O250 O 0.9418 0.6144 0.0873 0.0
O251 O 0.93821 0.64471 0.95341 0.0
O252 O 0.90636 0.61708 0.24101 0.0
O253 O 0.87921 0.64651 0.19488 0.0
O254 O 0.90215 0.67777 0.04716 0.0
O255 O 0.86013 0.68246 0.10842 0.0
C256 C 0.80027 0.63765 0.12946 0.0
O257 O 0.80788 0.65449 0.04974 0.0
O258 O 0.81943 0.62206 0.16501 0.0
C259 C 0.86347 0.64184 0.81936 0.0
Tb260 Tb 0.11088 0.11024 0.88139 0.0
C261 C 0.16648 0.13957 0.86713 0.0
Tb262 Tb 0.11209 0.16872 0.89122 0.0
O263 O 0.09483 0.10572 0.68164 0.0
O264 O 0.11975 0.13834 0.74527 0.0
O265 O 0.15401 0.11674 0.89005 0.0
C266 C 0.1122 0.2223 0.87177 0.0
O267 O 0.1529 0.16214 0.84665 0.0
C268 C 0.11848 0.14918 0.11976 0.0
C269 C 0.05625 0.13977 0.89563 0.0
O270 O 0.12398 0.20962 0.96288 0.0
O271 O 0.09929 0.20496 0.79042 0.0
O272 O 0.13023 0.17059 0.08682 0.0
O273 O 0.10286 0.14047 1.02711 0.0
O274 O 0.06894 0.16248 0.8717 0.0
O275 O 0.06959 0.11703 0.91796 0.0
C276 C 0.12003 0.06051 0.95615 0.0
O277 O 0.10415 0.06601 0.85886 0.0
O278 O 0.13066 0.08285 1.01039 0.0
C279 C 0.10506 0.12843 0.65112 0.0
Tb280 Tb 0.62778 0.41054 0.53445 0.0
C281 C 0.68263 0.38241 0.59287 0.0
Tb282 Tb 0.63291 0.34384 0.5412 0.0
O283 O 0.62641 0.41918 0.7434 0.0
O284 O 0.63003 0.37978 0.66799 0.0
O285 O 0.6699 0.40398 0.5488 0.0
C286 C 0.63592 0.29065 0.60123 0.0
O287 O 0.67144 0.35874 0.61325 0.0
C288 C 0.63167 0.36075 0.30213 0.0
C289 C 0.57768 0.37207 0.51238 0.0
O290 O 0.6551 0.30553 0.56952 0.0
O291 O 0.61525 0.30612 0.60233 0.0
O292 O 0.63384 0.33539 0.33065 0.0
O293 O 0.63051 0.37462 0.40785 0.0
O294 O 0.59159 0.3512 0.55539 0.0
O295 O 0.58821 0.39509 0.47705 0.0
C296 C 0.62609 0.46433 0.47983 0.0
O297 O 0.60797 0.45078 0.52919 0.0
O298 O 0.64478 0.44705 0.45604 0.0
C299 C 0.62837 0.39389 0.77302 0.0
Tb300 Tb 0.37034 0.91741 0.38616 0.0
C301 C 0.31644 0.88504 0.31957 0.0
Tb302 Tb 0.37112 0.85542 0.34135 0.0
O303 O 0.37318 0.92933 0.18748 0.0
O304 O 0.37283 0.88884 0.22837 0.0
O305 O 0.32828 0.90746 0.37655 0.0
C306 C 0.36549 0.8025 0.27006 0.0
O307 O 0.32998 0.86314 0.28248 0.0
C308 C 0.37687 0.87409 0.58598 0.0
C309 C 0.42542 0.88606 0.38403 0.0
O310 O 0.35094 0.8166 0.34572 0.0
O311 O 0.38327 0.81838 0.23303 0.0
O312 O 0.38661 0.85143 0.53948 0.0
O313 O 0.36253 0.88395 0.49698 0.0
O314 O 0.41264 0.86385 0.33142 0.0
O315 O 0.41277 0.90879 0.42207 0.0
C316 C 0.36548 0.9662 0.51005 0.0
O317 O 0.38382 0.94869 0.53666 0.0
O318 O 0.35068 0.95667 0.41087 0.0
C319 C 0.37387 0.90421 0.13745 0.0
C320 C 0.13222 0.63886 0.77767 0.0
C321 C 0.14962 0.61913 0.82579 0.0
C322 C 0.12643 0.64037 0.64441 0.0
C323 C 0.13773 0.62219 0.55353 0.0
H324 H 0.1232 0.65345 0.84326 0.0
H325 H 0.11306 0.65607 0.61232 0.0
S326 S 0.18308 0.56545 0.62955 0.0
N327 N 0.17719 0.58016 0.77114 0.0
N328 N 0.16617 0.58296 0.52266 0.0
C329 C 0.15479 0.60209 0.60056 0.0
C330 C 0.16072 0.60056 0.73594 0.0
C331 C 0.60712 0.89726 0.96689 0.0
C332 C 0.61932 0.88042 0.05759 0.0
C333 C 0.61164 0.89387 0.83583 0.0
C334 C 0.62864 0.87351 0.78967 0.0
H335 H 0.59393 0.91332 0.99744 0.0
H336 H 0.60199 0.90758 0.77062 0.0
S337 S 0.66437 0.82294 0.98542 0.0
N338 N 0.64828 0.84178 0.08993 0.0
N339 N 0.65704 0.83558 0.84516 0.0
C340 C 0.64071 0.85629 0.87903 0.0
C341 C 0.63604 0.85971 1.0124 0.0
C342 C 0.40927 0.36224 0.29818 0.0
C343 C 0.38302 0.35831 0.3228 0.0
C344 C 0.41675 0.36234 0.17119 0.0
C345 C 0.39831 0.35856 0.06353 0.0
H346 H 0.42409 0.36561 0.37734 0.0
H347 H 0.43718 0.36564 0.15735 0.0
S348 S 0.32749 0.34488 0.0759 0.0
N349 N 0.33878 0.34901 0.22796 0.0
N350 N 0.35294 0.34892 0.99187 0.0
C351 C 0.37216 0.35402 0.08725 0.0
C352 C 0.36453 0.35397 0.216 0.0
C353 C 0.88888 0.10493 0.473 0.0
C354 C 0.88722 0.12457 0.5782 0.0
C355 C 0.88896 0.11263 0.34564 0.0
C356 C 0.88726 0.14032 0.31789 0.0
H357 H 0.89024 0.0833 0.48909 0.0
H358 H 0.8904 0.09681 0.26878 0.0
S359 S 0.88282 0.19986 0.55842 0.0
N360 N 0.88413 0.1729 0.64498 0.0
N361 N 0.88406 0.18755 0.40809 0.0
C362 C 0.88564 0.16015 0.42255 0.0
C363 C 0.88566 0.15226 0.55181 0.0
C364 C 0.14879 0.41079 0.4296 0.0
C365 C 0.13491 0.3947 0.32912 0.0
C366 C 0.14288 0.40985 0.55833 0.0
C367 C 0.12274 0.39283 0.59209 0.0
H368 H 0.16433 0.42441 0.40863 0.0
H369 H 0.15401 0.42277 0.63168 0.0
S370 S 0.08164 0.34521 0.36709 0.0
N371 N 0.10098 0.36018 0.27406 0.0
N372 N 0.08965 0.35858 0.51426 0.0
C373 C 0.10899 0.37632 0.49277 0.0
C374 C 0.11508 0.37723 0.36192 0.0
C375 C 0.91414 0.88369 0.77522 0.0
C376 C 0.88918 0.87578 0.80537 0.0
C377 C 0.92027 0.88414 0.64651 0.0
C378 C 0.90178 0.87651 0.54254 0.0
H379 H 0.92883 0.89026 0.85137 0.0
H380 H 0.93973 0.8907 0.62835 0.0
S381 S 0.83489 0.85018 0.5716 0.0
N382 N 0.84642 0.85815 0.72136 0.0
N383 N 0.85845 0.85773 0.48109 0.0
C384 C 0.87711 0.86752 0.572 0.0
C385 C 0.8707 0.86749 0.70288 0.0
C386 C 0.39173 0.59279 0.88856 0.0
C387 C 0.38138 0.61829 0.85635 0.0
C388 C 0.39349 0.58526 1.0168 0.0
C389 C 0.3851 0.6029 0.11845 0.0
H390 H 0.39893 0.57875 0.81479 0.0
H391 H 0.40177 0.56546 0.03662 0.0
S392 S 0.35349 0.67046 0.0819 0.0
N393 N 0.36079 0.66026 0.93556 0.0
N394 N 0.36392 0.64601 0.17381 0.0
C395 C 0.37408 0.62806 0.08639 0.0
C396 C 0.37228 0.63574 0.95631 0.0
C397 C 0.61858 0.12987 0.09595 0.0
C398 C 0.63582 0.11958 1.00532 0.0
C399 C 0.62407 0.12744 0.22861 0.0
C400 C 0.64724 0.1151 0.2756 0.0
H401 H 0.60061 0.13984 0.06424 0.0
H402 H 0.61048 0.13594 0.29474 0.0
S403 S 0.69845 0.08413 0.07914 0.0
N404 N 0.67647 0.09572 0.97293 0.0
N405 N 0.68726 0.09183 0.2207 0.0
C406 C 0.6645 0.10456 0.18592 0.0
C407 C 0.65869 0.10663 0.0513 0.0
C408 C 0.8795 0.38624 0.35845 0.0
C409 C 0.85804 0.40146 0.31086 0.0
C410 C 0.88508 0.38423 0.49123 0.0
C411 C 0.8695 0.39745 0.58182 0.0
H412 H 0.89206 0.3757 0.29272 0.0
H413 H 0.90185 0.37231 0.52304 0.0
S414 S 0.81094 0.43976 0.50759 0.0
N415 N 0.82107 0.42998 0.36583 0.0
N416 N 0.83157 0.42615 0.6138 0.0
C417 C 0.84797 0.41268 0.53546 0.0
C418 C 0.84228 0.41472 0.40055 0.0
C419 C 0.33609 0.13555 0.24693 0.0
C420 C 0.35468 0.13289 0.35256 0.0
C421 C 0.34347 0.13568 0.11975 0.0
C422 C 0.36982 0.13328 0.09275 0.0
H423 H 0.31553 0.13747 0.26243 0.0
H424 H 0.32845 0.13763 0.04234 0.0
S425 S 0.42617 0.12568 0.33342 0.0
N426 N 0.40055 0.12757 0.41947 0.0
N427 N 0.41458 0.12815 0.18341 0.0
C428 C 0.38856 0.1307 0.1976 0.0
C429 C 0.381 0.13041 0.32647 0.0
C430 C 0.64324 0.64764 0.05881 0.0
C431 C 0.61749 0.64073 0.08215 0.0
C432 C 0.65071 0.64872 0.93227 0.0
C433 C 0.63278 0.64292 0.82404 0.0
H434 H 0.65761 0.65258 0.13859 0.0
H435 H 0.67071 0.65431 0.91922 0.0
S436 S 0.56375 0.62111 0.8336 0.0
N437 N 0.5745 0.62646 0.98593 0.0
N438 N 0.58867 0.62811 0.7506 0.0
C439 C 0.60722 0.63538 0.84665 0.0
C440 C 0.59958 0.63438 0.97487 0.0
C441 C 0.14627 0.85466 0.63727 0.0
C442 C 0.15094 0.88194 0.60986 0.0
C443 C 0.14647 0.84722 0.76491 0.0
C444 C 0.15088 0.8668 0.87038 0.0
H445 H 0.14274 0.83889 0.55964 0.0
H446 H 0.14302 0.8259 0.78099 0.0
S447 S 0.16341 0.94112 0.85122 0.0
N448 N 0.1599 0.92869 0.70006 0.0
N449 N 0.15966 0.9147 0.93793 0.0
C450 C 0.15521 0.89416 0.84421 0.0
C451 C 0.15542 0.9017 0.71464 0.0
C452 C 0.88897 0.62187 0.63967 0.0
C453 C 0.86923 0.63952 0.68184 0.0
C454 C 0.8943 0.61906 0.50969 0.0
C455 C 0.8802 0.63386 0.41665 0.0
H456 H 0.90038 0.61007 0.70748 0.0
H457 H 0.90971 0.60522 0.48212 0.0
S458 S 0.82631 0.68259 0.47632 0.0
N459 N 0.83538 0.67195 0.61902 0.0
N460 N 0.84546 0.66661 0.37604 0.0
C461 C 0.8604 0.65152 0.45744 0.0
C462 C 0.85493 0.65439 0.58959 0.0
C463 C 0.09484 0.11866 0.41414 0.0
C464 C 0.10817 0.13457 0.51655 0.0
C465 C 0.09855 0.12319 0.28591 0.0
C466 C 0.11579 0.14372 0.25542 0.0
H467 H 0.08151 0.1025 0.43305 0.0
H468 H 0.08776 0.11056 0.21021 0.0
S469 S 0.15545 0.19103 0.48811 0.0
N470 N 0.1391 0.1719 0.5782 0.0
N471 N 0.14649 0.17999 0.33848 0.0
C472 C 0.12932 0.15969 0.35694 0.0
C473 C 0.12534 0.15527 0.48714 0.0
C474 C 0.63541 0.3507 0.06509 0.0
C475 C 0.63063 0.36986 0.16853 0.0
C476 C 0.63441 0.3582 0.93711 0.0
C477 C 0.62859 0.38522 0.90723 0.0
H478 H 0.64009 0.32964 0.08312 0.0
H479 H 0.63844 0.34282 0.86154 0.0
S480 S 0.61305 0.44285 0.14109 0.0
N481 N 0.61875 0.41665 0.2302 0.0
N482 N 0.61711 0.43103 0.99242 0.0
C483 C 0.62346 0.40446 1.00976 0.0
C484 C 0.62442 0.39675 0.13951 0.0
C485 C 0.36479 0.91367 0.90515 0.0
C486 C 0.37465 0.89595 0.99779 0.0
C487 C 0.3653 0.90651 0.77242 0.0
C488 C 0.37631 0.88163 0.72684 0.0
H489 H 0.35628 0.93314 0.93544 0.0
H490 H 0.35709 0.92062 0.70524 0.0
S491 S 0.40601 0.82868 0.93028 0.0
N492 N 0.39624 0.8528 0.0342 0.0
N493 N 0.39792 0.83951 0.78694 0.0
C494 C 0.38661 0.86396 0.81897 0.0
C495 C 0.38559 0.87105 0.95367 0.0
C496 C 0.17084 0.72105 0.31534 0.0
C497 C 0.14702 0.70646 0.30007 0.0
C498 C 0.17114 0.74975 0.33371 0.0
C499 C 0.14762 0.7644 0.3374 0.0
H500 H 0.18918 0.71044 0.30507 0.0
H501 H 0.18965 0.76053 0.33577 0.0
S502 S 0.08075 0.73534 0.33147 0.0
N503 N 0.09982 0.70841 0.3118 0.0
N504 N 0.10045 0.76233 0.34521 0.0
C505 C 0.12398 0.74989 0.3347 0.0
C506 C 0.12365 0.72083 0.3161 0.0
C507 C 0.49815 0.90784 0.42771 0.0
C508 C 0.51171 0.88271 0.43377 0.0
C509 C 0.47047 0.9089 0.41398 0.0
C510 C 0.45494 0.88484 0.403 0.0
H511 H 0.50905 0.92695 0.43293 0.0
H512 H 0.46121 0.92877 0.40931 0.0
S513 S 0.48063 0.81373 0.41734 0.0
N514 N 0.50718 0.83322 0.43167 0.0
N515 N 0.45571 0.83498 0.40385 0.0
C516 C 0.46833 0.85958 0.4103 0.0
C517 C 0.49646 0.85858 0.42619 0.0
C518 C 0.36342 0.26413 0.77613 0.0
C519 C 0.38264 0.27421 0.70194 0.0
C520 C 0.35793 0.23602 0.77455 0.0
C521 C 0.37147 0.21687 0.69893 0.0
H522 H 0.35255 0.27805 0.83703 0.0
H523 H 0.34338 0.22926 0.83511 0.0
S524 S 0.42232 0.23264 0.47994 0.0
N525 N 0.41438 0.26284 0.54653 0.0
N526 N 0.40405 0.21003 0.54207 0.0
C527 C 0.39043 0.22669 0.62231 0.0
C528 C 0.39607 0.25532 0.62447 0.0
C529 C 0.98661 0.11564 0.95274 0.0
C530 C 0.97052 0.13854 0.93029 0.0
C531 C 0.01391 0.11628 0.94081 0.0
C532 C 0.02686 0.1399 0.90609 0.0
H533 H 0.97808 0.09677 0.97912 0.0
H534 H 0.02495 0.0979 0.95936 0.0
S535 S 0.99428 0.20587 0.83804 0.0
N536 N 0.97017 0.18592 0.87216 0.0
N537 N 0.02097 0.18708 0.85041 0.0
C538 C 0.01107 0.16304 0.88391 0.0
C539 C 0.9832 0.16238 0.89574 0.0
C540 C 0.09678 0.29693 0.84712 0.0
C541 C 0.12101 0.30931 0.89039 0.0
C542 C 0.09415 0.26831 0.83168 0.0
C543 C 0.11561 0.25159 0.86146 0.0
H544 H 0.07967 0.3094 0.82731 0.0
H545 H 0.07508 0.25929 0.80321 0.0
S546 S 0.18351 0.27366 0.96805 0.0
N547 N 0.16713 0.30249 0.95424 0.0
N548 N 0.162 0.2488 0.9268 0.0
C549 C 0.14009 0.26364 0.8992 0.0
C550 C 0.14287 0.29257 0.91331 0.0
C551 C 0.04885 0.848 0.19179 0.0
C552 C 0.06307 0.87215 0.17586 0.0
C553 C 0.02123 0.84695 0.17414 0.0
C554 C 0.00641 0.86992 0.13881 0.0
H555 H 0.05907 0.82971 0.21977 0.0
H556 H 0.01138 0.82801 0.19018 0.0
S557 S 0.0334 0.93819 0.08342 0.0
N558 N 0.05948 0.91974 0.12093 0.0
N559 N 0.00809 0.91749 0.0875 0.0
C560 C 0.02026 0.89402 0.12036 0.0
C561 C 0.04835 0.8952 0.13892 0.0
C562 C 0.34912 0.73186 0.34866 0.0
C563 C 0.37307 0.71837 0.3383 0.0
C564 C 0.3459 0.75858 0.31251 0.0
C565 C 0.36657 0.77259 0.26529 0.0
H566 H 0.3331 0.72223 0.39045 0.0
H567 H 0.3277 0.76895 0.32988 0.0
S568 S 0.43159 0.74448 0.1986 0.0
N569 N 0.41657 0.71933 0.2612 0.0
N570 N 0.41053 0.77002 0.19351 0.0
C571 C 0.38977 0.75847 0.24283 0.0
C572 C 0.39307 0.73116 0.27992 0.0
C573 C 0.51209 0.09344 0.63507 0.0
C574 C 0.5265 0.11469 0.58875 0.0
C575 C 0.48522 0.09621 0.65287 0.0
C576 C 0.47167 0.12056 0.62759 0.0
H577 H 0.52176 0.07461 0.65985 0.0
H578 H 0.47517 0.07936 0.6902 0.0
S579 S 0.5 0.18216 0.50139 0.0
N580 N 0.52477 0.16065 0.51384 0.0
N581 N 0.47466 0.16607 0.55004 0.0
C582 C 0.48571 0.14179 0.57907 0.0
C583 C 0.51297 0.13879 0.55888 0.0
C584 C 0.89807 0.26844 0.92925 0.0
C585 C 0.87648 0.25064 0.89802 0.0
C586 C 0.89535 0.29734 0.93715 0.0
C587 C 0.87087 0.31019 0.91413 0.0
H588 H 0.91733 0.25999 0.94977 0.0
H589 H 0.91278 0.3097 0.96259 0.0
S590 S 0.80799 0.27294 0.82507 0.0
N591 N 0.82965 0.24817 0.84141 0.0
N592 N 0.82451 0.30205 0.85539 0.0
C593 C 0.84912 0.29255 0.88072 0.0
C594 C 0.85192 0.26304 0.87293 0.0
C595 C 0.60103 0.77578 0.46959 0.0
C596 C 0.62167 0.79013 0.42142 0.0
C597 C 0.60131 0.74677 0.47545 0.0
C598 C 0.62224 0.73045 0.43353 0.0
H599 H 0.58458 0.78707 0.50481 0.0
H600 H 0.58499 0.73712 0.51458 0.0
S601 S 0.68049 0.75734 0.29083 0.0
N602 N 0.66321 0.78498 0.3252 0.0
N603 N 0.66374 0.73142 0.33635 0.0
C604 C 0.64274 0.74455 0.38296 0.0
C605 C 0.64245 0.77396 0.37691 0.0
C606 C 0.86489 0.74157 0.13669 0.0
C607 C 0.88588 0.72472 0.10056 0.0
C608 C 0.86714 0.77054 0.15245 0.0
C609 C 0.89051 0.78446 0.13314 0.0
H610 H 0.84633 0.73236 0.15269 0.0
H611 H 0.85019 0.78211 0.1796 0.0
S612 S 0.95182 0.75024 0.0404 0.0
N613 N 0.93118 0.72455 0.04784 0.0
N614 N 0.93546 0.77844 0.07734 0.0
C615 C 0.91178 0.76783 0.09796 0.0
C616 C 0.90946 0.73828 0.08178 0.0
C617 C 0.66137 0.21696 0.6308 0.0
C618 C 0.63835 0.20129 0.63474 0.0
C619 C 0.66055 0.24578 0.62189 0.0
C620 C 0.63672 0.26033 0.6188 0.0
H621 H 0.68014 0.20682 0.63112 0.0
H622 H 0.67875 0.25672 0.61604 0.0
S623 S 0.57096 0.22955 0.63584 0.0
N624 N 0.59101 0.20317 0.64084 0.0
N625 N 0.58966 0.25672 0.62598 0.0
C626 C 0.61371 0.24503 0.62672 0.0
C627 C 0.61447 0.21577 0.63416 0.0
C628 C 0.98408 0.43247 0.99487 0.0
C629 C 0.97112 0.41458 0.06805 0.0
C630 C 0.0111 0.43143 0.99035 0.0
C631 C 0.02596 0.41254 0.05928 0.0
H632 H 0.97316 0.44626 0.93444 0.0
H633 H 0.02018 0.44449 0.92701 0.0
S634 S 1.00182 0.36494 0.2841 0.0
N635 N 0.97526 0.38017 0.2248 0.0
N636 N 0.0265 0.37832 0.21708 0.0
C637 C 0.0136 0.3964 0.1426 0.0
C638 C 0.98595 0.39741 0.14693 0.0
C639 C 0.48158 0.60019 0.53841 0.0
C640 C 0.46505 0.62234 0.56573 0.0
C641 C 0.50828 0.60451 0.53077 0.0
C642 C 0.51923 0.63102 0.55157 0.0
H643 H 0.47365 0.57971 0.51452 0.0
H644 H 0.5202 0.5871 0.50296 0.0
S645 S 0.48495 0.69495 0.64911 0.0
N646 N 0.46186 0.67108 0.6305 0.0
N647 N 0.51234 0.67908 0.6168 0.0
C648 C 0.50335 0.65294 0.58986 0.0
C649 C 0.4761 0.64861 0.59667 0.0
C650 C 0.51075 0.34105 0.53676 0.0
C651 C 0.49562 0.3642 0.56648 0.0
C652 C 0.53705 0.34388 0.51246 0.0
C653 C 0.54898 0.36998 0.51512 0.0
H654 H 0.50259 0.3206 0.53804 0.0
H655 H 0.54834 0.32541 0.49548 0.0
S656 S 0.51654 0.43713 0.57304 0.0
N657 N 0.49351 0.4141 0.58628 0.0
N658 N 0.54285 0.41944 0.53944 0.0
C659 C 0.53349 0.39333 0.53653 0.0
C660 C 0.50682 0.39042 0.56279 0.0
C661 C 0.02224 0.60161 0.06663 0.0
C662 C 0.03775 0.62321 1.03315 0.0
C663 C 0.99508 0.6028 0.05063 0.0
C664 C 0.98246 0.62564 1.00053 0.0
H665 H 0.03107 0.58409 0.11057 0.0
H666 H 0.9839 0.58615 0.08291 0.0
S667 S 0.01425 0.68623 0.88465 0.0
N668 N 0.03881 0.66705 0.93691 0.0
N669 N 0.98726 0.66928 0.90688 0.0
C670 C 0.99765 0.64657 0.95821 0.0
C671 C 0.02551 0.64537 0.97462 0.0
C672 C 0.11596 0.52408 0.07064 0.0
C673 C 0.14032 0.53746 0.08641 0.0
C674 C 0.11429 0.4959 0.03864 0.0
C675 C 0.13689 0.4804 1.01925 0.0
H676 H 0.09813 0.53529 0.08633 0.0
H677 H 0.09515 0.4862 1.02974 0.0
S678 S 0.20516 0.50642 0.03996 0.0
N679 N 0.18739 0.53375 0.07435 0.0
N680 N 0.18423 0.48055 1.01267 0.0
C681 C 0.16131 0.49372 1.03042 0.0
C682 C 0.16304 0.52238 0.06474 0.0
C683 C 0.73914 0.86483 0.22037 0.0
C684 C 0.73196 0.87822 0.33609 0.0
C685 C 0.76546 0.86381 0.18932 0.0
C686 C 0.78577 0.87647 0.27164 0.0
H687 H 0.72432 0.8548 0.15348 0.0
H688 H 0.76988 0.85311 0.09948 0.0
S689 S 0.77747 0.91477 0.58505 0.0
N690 N 0.74755 0.90452 0.53307 0.0
N691 N 0.79655 0.90327 0.47354 0.0
C692 C 0.77879 0.89017 0.38696 0.0
C693 C 0.75207 0.89086 0.41943 0.0
C694 C 0.41269 0.45542 0.60407 0.0
C695 C 0.39376 0.44461 0.67695 0.0
C696 C 0.41228 0.48301 0.57699 0.0
C697 C 0.39298 0.50077 0.62197 0.0
H698 H 0.42746 0.44235 0.5636 0.0
H699 H 0.42675 0.49023 0.51718 0.0
S700 S 0.34097 0.4838 0.83007 0.0
N701 N 0.3566 0.45465 0.80383 0.0
N702 N 0.35588 0.50655 0.75178 0.0
C703 C 0.37474 0.49072 0.70025 0.0
C704 C 0.37512 0.4626 0.72806 0.0
C705 C 0.79264 0.09839 0.83032 0.0
C706 C 0.80426 0.12402 0.87318 0.0
C707 C 0.7654 0.09559 0.79761 0.0
C708 C 0.74833 0.11813 0.80894 0.0
H709 H 0.80476 0.08038 0.81872 0.0
H710 H 0.75767 0.07556 0.76247 0.0
S711 S 0.76824 0.18953 0.92194 0.0
N712 N 0.79596 0.17233 0.92763 0.0
N713 N 0.74517 0.1669 0.86974 0.0
C714 C 0.75955 0.1437 0.85474 0.0
C715 C 0.78731 0.14668 0.88571 0.0
C716 C 0.88949 0.53096 1.00555 0.0
C717 C 0.86692 0.5475 1.00044 0.0
C718 C 0.88794 0.50199 0.99831 0.0
C719 C 0.86374 0.48787 0.98271 0.0
H720 H 0.9087 0.54046 1.01717 0.0
H721 H 0.90603 0.49054 1.00346 0.0
S722 S 0.79853 0.52105 0.96342 0.0
N723 N 0.81935 0.54715 0.98016 0.0
N724 N 0.81651 0.49299 0.96265 0.0
C725 C 0.84096 0.50407 0.97619 0.0
C726 C 0.84252 0.53368 0.98624 0.0
C727 C 0.20921 0.11452 0.8322 0.0
C728 C 0.19568 0.13941 0.85376 0.0
C729 C 0.23629 0.11401 0.81396 0.0
C730 C 0.25141 0.13832 0.81866 0.0
H731 H 0.19871 0.09517 0.82674 0.0
H732 H 0.24545 0.0943 0.79546 0.0
S733 S 0.22613 0.20899 0.87714 0.0
N734 N 0.20015 0.18916 0.88114 0.0
N735 N 0.25066 0.18805 0.84973 0.0
C736 C 0.23831 0.1633 0.84281 0.0
C737 C 0.21066 0.16387 0.85947 0.0
C738 C 0.60555 0.54024 0.50025 0.0
C739 C 0.62695 0.55446 0.45815 0.0
C740 C 0.60529 0.51134 0.50449 0.0
C741 C 0.62637 0.49494 0.46662 0.0
H742 H 0.58875 0.55154 0.53149 0.0
H743 H 0.58842 0.50178 0.53925 0.0
S744 S 0.68709 0.52111 0.3455 0.0
N745 N 0.66983 0.54906 0.3753 0.0
N746 N 0.66919 0.49521 0.38336 0.0
C747 C 0.64777 0.50869 0.42284 0.0
C748 C 0.6481 0.53818 0.41865 0.0
C749 C 0.27366 0.85839 0.28975 0.0
C750 C 0.28702 0.88388 0.30128 0.0
C751 C 0.24606 0.85671 0.27635 0.0
C752 C 0.23042 0.8804 0.27088 0.0
H753 H 0.28462 0.83947 0.29319 0.0
H754 H 0.23692 0.83659 0.26905 0.0
S755 S 0.25541 0.95226 0.29494 0.0
N756 N 0.28211 0.93344 0.30616 0.0
N757 N 0.23066 0.93031 0.27832 0.0
C758 C 0.24352 0.90601 0.28089 0.0
C759 C 0.2716 0.90774 0.29684 0.0
C760 C 0.65372 0.98064 0.51474 0.0
C761 C 0.62926 0.96686 0.50414 0.0
C762 C 0.65604 0.00936 0.54626 0.0
C763 C 0.63397 0.02592 0.56653 0.0
H764 H 0.67137 0.9691 0.4996 0.0
H765 H 0.6753 0.01872 0.55255 0.0
S766 S 0.56531 1.00034 0.55199 0.0
N767 N 0.58249 0.97254 0.5187 0.0
N768 N 0.58671 0.02582 0.57554 0.0
C769 C 0.60942 0.01236 0.55632 0.0
C770 C 0.60711 0.98317 0.52596 0.0
C771 C 0.25285 0.39541 0.92074 0.0
C772 C 0.23243 0.37846 0.86341 0.0
C773 C 0.27852 0.39115 0.88905 0.0
C774 C 0.28454 0.36961 0.80031 0.0
H775 H 0.24894 0.41234 0.98917 0.0
H776 H 0.29371 0.40489 0.93413 0.0
S777 S 0.23812 0.31868 0.62835 0.0
N778 N 0.2198 0.33891 0.71682 0.0
N779 N 0.26829 0.33062 0.65824 0.0
C780 C 0.26438 0.35213 0.74427 0.0
C781 C 0.23818 0.35666 0.77555 0.0
C782 C 0.87531 0.97729 0.1502 0.0
C783 C 0.89643 0.95989 0.12119 0.0
C784 C 0.87486 0.00534 0.123 0.0
C785 C 0.8954 0.0175 0.06443 0.0
H786 H 0.85876 0.96917 0.19367 0.0
H787 H 0.85802 0.01751 0.14649 0.0
S788 S 0.95565 0.98179 0.97009 0.0
N789 N 0.93883 0.95782 1.03147 0.0
N790 N 0.93775 0.00983 0.98044 0.0
C791 C 0.91673 1.00053 0.0361 0.0
C792 C 0.91731 0.97205 0.06433 0.0
C793 C 0.26839 0.62162 0.2554 0.0
C794 C 0.25011 0.61019 0.32903 0.0
C795 C 0.29504 0.61769 0.2823 0.0
C796 C 0.30446 0.60231 0.38438 0.0
H797 H 0.26214 0.63404 0.17717 0.0
H798 H 0.30844 0.62751 0.22462 0.0
S799 S 0.2645 0.56637 0.60031 0.0
N800 N 0.24291 0.58134 0.50305 0.0
N801 N 0.29355 0.57429 0.55521 0.0
C802 C 0.28643 0.58968 0.45547 0.0
C803 C 0.25907 0.59366 0.42772 0.0
C804 C 0.33914 0.00815 0.55011 0.0
C805 C 0.36182 0.9929 0.57978 0.0
C806 C 0.33656 0.03511 0.60265 0.0
C807 C 0.35672 0.04748 0.68515 0.0
H808 H 0.3238 0.99968 0.48149 0.0
H809 H 0.31975 0.04696 0.57062 0.0
S810 S 0.41823 0.0152 0.8065 0.0
N811 N 0.40329 0.99106 0.70851 0.0
N812 N 0.39865 0.04202 0.80499 0.0
C813 C 0.37854 0.03182 0.7229 0.0
C814 C 0.38106 1.00436 0.67066 0.0
C815 C 0.76088 0.66244 0.1954 0.0
C816 C 0.77476 0.63779 0.18193 0.0
C817 C 0.73743 0.66342 0.25503 0.0
C818 C 0.72703 0.63964 0.2999 0.0
H819 H 0.7685 0.68118 0.16273 0.0
H820 H 0.72729 0.68283 0.26498 0.0
S821 S 0.75558 0.56985 0.28164 0.0
N822 N 0.77653 0.58908 0.2155 0.0
N823 N 0.73192 0.59068 0.32414 0.0
C824 C 0.7405 0.61476 0.28438 0.0
C825 C 0.76458 0.6139 0.22616 0.0
C826 C 0.14669 0.02947 0.08793 0.0
C827 C 0.12457 0.03349 1.00357 0.0
C828 C 0.151 1.00424 0.14004 0.0
C829 C 0.13299 0.98267 0.11134 0.0
H830 H 0.16075 0.0459 0.11383 0.0
H831 H 0.16828 1.00174 0.20456 0.0
S832 S 0.07262 0.98262 0.89176 0.0
N833 N 0.08502 0.01379 0.88984 0.0
N834 N 0.09285 0.9663 0.99013 0.0
C835 C 0.11093 0.98633 1.0262 0.0
C836 C 0.1068 0.01184 0.97136 0.0
C837 C 0.71931 0.40956 0.70684 0.0
C838 C 0.71048 0.38559 0.6342 0.0
C839 C 0.74493 0.41151 0.76331 0.0
C840 C 0.76257 0.38981 0.74616 0.0
H841 H 0.70605 0.42642 0.72484 0.0
H842 H 0.7509 0.43004 0.82154 0.0
S843 S 0.74941 0.32354 0.55644 0.0
N844 N 0.72141 0.34019 0.54348 0.0
N845 N 0.77 0.34427 0.64636 0.0
C846 C 0.75432 0.36622 0.66919 0.0
C847 C 0.72808 0.36399 0.61405 0.0
loop_
_geom_bond_atom_site_label_1
_geom_bond_atom_site_label_2
_geom_bond_distance
_geom_bond_site_symmetry_2
_ccdc_geom_bond_type
Tb0 O3 2.453 . S
Tb0 O4 2.596 . S
Tb0 O5 2.374 . S
Tb0 O13 2.349 . S
Tb0 O15 2.353 . S
Tb0 O17 2.427 . S
Tb0 O18 2.513 . S
C1 O5 1.251 . S
C1 O7 1.263 . S
Tb2 O4 2.343 . S
Tb2 O7 2.353 . S
Tb2 O10 2.427 . S
Tb2 O11 2.513 . S
Tb2 O12 2.453 1_554 S
Tb2 O13 2.598 . S
Tb2 O14 2.374 . S
O3 Tb0 2.453 . S
O3 C19 1.245 . S
O4 Tb0 2.596 . S
O4 Tb2 2.343 . S
O4 C19 1.259 . S
O5 Tb0 2.374 . S
O5 C1 1.251 . S
C6 O10 1.275 . S
C6 O11 1.246 . S
O7 C1 1.263 . S
O7 Tb2 2.353 . S
C8 O12 1.245 . S
C8 O13 1.252 1_556 S
C9 O14 1.250 . S
C9 O15 1.263 . S
O10 Tb2 2.427 . S
O10 C6 1.275 . S
O11 Tb2 2.513 . S
O11 C6 1.246 . S
O12 Tb2 2.453 1_556 S
O12 C8 1.245 . S
O13 Tb0 2.349 . S
O13 Tb2 2.598 . S
O13 C8 1.252 1_554 S
O14 Tb2 2.374 . S
O14 C9 1.250 . S
O15 Tb0 2.353 . S
O15 C9 1.263 . S
C16 O17 1.275 1_556 S
C16 O18 1.246 1_556 S
O17 Tb0 2.427 . S
O17 C16 1.275 1_554 S
O18 Tb0 2.513 . S
O18 C16 1.246 1_554 S
C19 O3 1.245 . S
C19 O4 1.259 . S
Tb20 O23 2.453 . S
Tb20 O24 2.596 . S
Tb20 O25 2.374 . S
Tb20 O33 2.343 . S
Tb20 O35 2.353 . S
Tb20 O37 2.427 . S
Tb20 O38 2.513 . S
C21 O25 1.251 . S
C21 O27 1.263 . S
Tb22 O24 2.343 . S
Tb22 O27 2.353 . S
Tb22 O30 2.427 . S
Tb22 O31 2.513 . S
Tb22 O32 2.453 . S
Tb22 O33 2.596 . S
Tb22 O34 2.374 . S
O23 Tb20 2.453 . S
O23 C39 1.245 . S
O24 Tb20 2.596 . S
O24 Tb22 2.343 . S
O24 C39 1.259 . S
O25 Tb20 2.374 . S
O25 C21 1.251 . S
C26 O30 1.275 . S
C26 O31 1.246 . S
O27 C21 1.263 . S
O27 Tb22 2.353 . S
C28 O32 1.245 . S
C28 O33 1.259 . S
C29 O34 1.250 . S
C29 O35 1.263 . S
O30 Tb22 2.427 . S
O30 C26 1.275 . S
O31 Tb22 2.513 . S
O31 C26 1.246 . S
O32 Tb22 2.453 . S
O32 C28 1.245 . S
O33 Tb20 2.343 . S
O33 Tb22 2.596 . S
O33 C28 1.259 . S
O34 Tb22 2.374 . S
O34 C29 1.250 . S
O35 Tb20 2.353 . S
O35 C29 1.263 . S
C36 O37 1.275 . S
C36 O38 1.246 . S
O37 Tb20 2.427 . S
O37 C36 1.275 . S
O38 Tb20 2.513 . S
O38 C36 1.246 . S
C39 O23 1.245 . S
C39 O24 1.259 . S
Tb40 O43 2.453 . S
Tb40 O44 2.596 . S
Tb40 O45 2.374 . S
Tb40 O53 2.343 . S
Tb40 O55 2.353 . S
Tb40 O57 2.427 . S
Tb40 O58 2.513 . S
C41 O45 1.251 . S
C41 O47 1.263 . S
Tb42 O44 2.343 . S
Tb42 O47 2.353 . S
Tb42 O50 2.427 . S
Tb42 O51 2.513 . S
Tb42 O52 2.453 . S
Tb42 O53 2.596 . S
Tb42 O54 2.374 . S
O43 Tb40 2.453 . S
O43 C59 1.245 . S
O44 Tb40 2.596 . S
O44 Tb42 2.343 . S
O44 C59 1.259 . S
O45 Tb40 2.374 . S
O45 C41 1.251 . S
C46 O50 1.275 . S
C46 O51 1.246 . S
O47 C41 1.263 . S
O47 Tb42 2.353 . S
C48 O52 1.245 . S
C48 O53 1.259 . S
C49 O54 1.250 . S
C49 O55 1.263 . S
O50 Tb42 2.427 . S
O50 C46 1.275 . S
O51 Tb42 2.513 . S
O51 C46 1.246 . S
O52 Tb42 2.453 . S
O52 C48 1.245 . S
O53 Tb40 2.343 . S
O53 Tb42 2.596 . S
O53 C48 1.259 . S
O54 Tb42 2.374 . S
O54 C49 1.250 . S
O55 Tb40 2.353 . S
O55 C49 1.263 . S
C56 O57 1.275 . S
C56 O58 1.246 . S
O57 Tb40 2.427 . S
O57 C56 1.275 . S
O58 Tb40 2.513 . S
O58 C56 1.246 . S
C59 O43 1.245 . S
C59 O44 1.259 . S
Tb60 O63 2.453 1_556 S
Tb60 O64 2.596 1_556 S
Tb60 O65 2.374 . S
Tb60 O73 2.343 . S
Tb60 O75 2.353 . S
Tb60 O77 2.427 . S
Tb60 O78 2.513 . S
C61 O65 1.251 . S
C61 O67 1.263 . S
Tb62 O64 2.343 1_556 S
Tb62 O67 2.353 . S
Tb62 O70 2.427 . S
Tb62 O71 2.513 . S
Tb62 O72 2.453 . S
Tb62 O73 2.596 . S
Tb62 O74 2.374 . S
O63 Tb60 2.453 1_554 S
O63 C79 1.245 . S
O64 Tb60 2.596 1_554 S
O64 Tb62 2.343 1_554 S
O64 C79 1.259 . S
O65 Tb60 2.374 . S
O65 C61 1.251 . S
C66 O70 1.275 1_554 S
C66 O71 1.246 1_554 S
O67 C61 1.263 . S
O67 Tb62 2.353 . S
C68 O72 1.245 . S
C68 O73 1.259 . S
C69 O74 1.250 . S
C69 O75 1.263 . S
O70 Tb62 2.427 . S
O70 C66 1.275 1_556 S
O71 Tb62 2.513 . S
O71 C66 1.246 1_556 S
O72 Tb62 2.453 . S
O72 C68 1.245 . S
O73 Tb60 2.343 . S
O73 Tb62 2.596 . S
O73 C68 1.259 . S
O74 Tb62 2.374 . S
O74 C69 1.250 . S
O75 Tb60 2.353 . S
O75 C69 1.263 . S
C76 O77 1.275 . S
C76 O78 1.246 . S
O77 Tb60 2.427 . S
O77 C76 1.275 . S
O78 Tb60 2.513 . S
O78 C76 1.246 . S
C79 O63 1.245 . S
C79 O64 1.259 . S
Tb80 O83 2.453 . S
Tb80 O84 2.596 . S
Tb80 O85 2.374 . S
Tb80 O93 2.343 1_556 S
Tb80 O95 2.353 . S
Tb80 O97 2.427 1_556 S
Tb80 O98 2.513 1_556 S
C81 O85 1.251 . S
C81 O87 1.263 . S
Tb82 O84 2.343 1_554 S
Tb82 O87 2.353 1_554 S
Tb82 O90 2.427 1_554 S
Tb82 O91 2.513 1_554 S
Tb82 O92 2.453 . S
Tb82 O93 2.596 . S
Tb82 O94 2.374 . S
O83 Tb80 2.453 . S
O83 C99 1.245 . S
O84 Tb80 2.596 . S
O84 Tb82 2.343 1_556 S
O84 C99 1.259 . S
O85 Tb80 2.374 . S
O85 C81 1.251 . S
C86 O90 1.275 . S
C86 O91 1.246 . S
O87 C81 1.263 . S
O87 Tb82 2.353 1_556 S
C88 O92 1.245 . S
C88 O93 1.259 . S
C89 O94 1.250 1_556 S
C89 O95 1.263 . S
O90 Tb82 2.427 1_556 S
O90 C86 1.275 . S
O91 Tb82 2.513 1_556 S
O91 C86 1.246 . S
O92 Tb82 2.453 . S
O92 C88 1.245 . S
O93 Tb80 2.343 1_554 S
O93 Tb82 2.596 . S
O93 C88 1.259 . S
O94 Tb82 2.374 . S
O94 C89 1.250 1_554 S
O95 Tb80 2.353 . S
O95 C89 1.263 . S
C96 O97 1.275 . S
C96 O98 1.246 . S
O97 Tb80 2.427 1_554 S
O97 C96 1.275 . S
O98 Tb80 2.513 1_554 S
O98 C96 1.246 . S
C99 O83 1.245 . S
C99 O84 1.259 . S
Tb100 O103 2.453 . S
Tb100 O104 2.596 . S
Tb100 O105 2.374 . S
Tb100 O113 2.344 . S
Tb100 O115 2.353 . S
Tb100 O117 2.427 . S
Tb100 O118 2.513 . S
C101 O105 1.251 . S
C101 O107 1.263 . S
Tb102 O104 2.343 . S
Tb102 O107 2.353 . S
Tb102 O110 2.427 . S
Tb102 O111 2.513 . S
Tb102 O112 2.453 1_554 S
Tb102 O113 2.596 . S
Tb102 O114 2.374 . S
O103 Tb100 2.453 . S
O103 C119 1.245 . S
O104 Tb100 2.596 . S
O104 Tb102 2.343 . S
O104 C119 1.259 . S
O105 Tb100 2.374 . S
O105 C101 1.251 . S
C106 O110 1.275 . S
C106 O111 1.246 . S
O107 C101 1.263 . S
O107 Tb102 2.353 . S
C108 O112 1.245 . S
C108 O113 1.259 1_556 S
C109 O114 1.250 . S
C109 O115 1.263 . S
O110 Tb102 2.427 . S
O110 C106 1.275 . S
O111 Tb102 2.513 . S
O111 C106 1.246 . S
O112 Tb102 2.453 1_556 S
O112 C108 1.245 . S
O113 Tb100 2.344 . S
O113 Tb102 2.596 . S
O113 C108 1.259 1_554 S
O114 Tb102 2.374 . S
O114 C109 1.250 . S
O115 Tb100 2.353 . S
O115 C109 1.263 . S
C116 O117 1.275 . S
C116 O118 1.246 . S
O117 Tb100 2.427 . S
O117 C116 1.275 . S
O118 Tb100 2.513 . S
O118 C116 1.246 . S
C119 O103 1.245 . S
C119 O104 1.259 . S
Tb120 O123 2.453 . S
Tb120 O124 2.596 . S
Tb120 O125 2.374 . S
Tb120 O133 2.343 . S
Tb120 O135 2.353 . S
Tb120 O137 2.427 . S
Tb120 O138 2.513 . S
C121 O125 1.251 . S
C121 O127 1.263 . S
Tb122 O124 2.343 . S
Tb122 O127 2.353 . S
Tb122 O130 2.427 . S
Tb122 O131 2.513 . S
Tb122 O132 2.453 . S
Tb122 O133 2.596 . S
Tb122 O134 2.374 . S
O123 Tb120 2.453 . S
O123 C139 1.245 . S
O124 Tb120 2.596 . S
O124 Tb122 2.343 . S
O124 C139 1.259 . S
O125 Tb120 2.374 . S
O125 C121 1.251 . S
C126 O130 1.275 . S
C126 O131 1.246 . S
O127 C121 1.263 . S
O127 Tb122 2.353 . S
C128 O132 1.245 . S
C128 O133 1.259 . S
C129 O134 1.250 . S
C129 O135 1.263 . S
O130 Tb122 2.427 . S
O130 C126 1.275 . S
O131 Tb122 2.513 . S
O131 C126 1.246 . S
O132 Tb122 2.453 . S
O132 C128 1.245 . S
O133 Tb120 2.343 . S
O133 Tb122 2.596 . S
O133 C128 1.259 . S
O134 Tb122 2.374 . S
O134 C129 1.250 . S
O135 Tb120 2.353 . S
O135 C129 1.263 . S
C136 O137 1.275 . S
C136 O138 1.246 . S
O137 Tb120 2.427 . S
O137 C136 1.275 . S
O138 Tb120 2.513 . S
O138 C136 1.246 . S
C139 O123 1.245 . S
C139 O124 1.259 . S
Tb140 O143 2.453 . S
Tb140 O144 2.596 . S
Tb140 O145 2.374 . S
Tb140 O153 2.343 . S
Tb140 O155 2.353 . S
Tb140 O157 2.427 . S
Tb140 O158 2.513 . S
C141 O145 1.251 . S
C141 O147 1.263 . S
Tb142 O144 2.343 . S
Tb142 O147 2.353 . S
Tb142 O150 2.427 . S
Tb142 O151 2.513 . S
Tb142 O152 2.453 . S
Tb142 O153 2.596 . S
Tb142 O154 2.374 . S
O143 Tb140 2.453 . S
O143 C159 1.245 . S
O144 Tb140 2.596 . S
O144 Tb142 2.343 . S
O144 C159 1.259 . S
O145 Tb140 2.374 . S
O145 C141 1.251 . S
C146 O150 1.275 . S
C146 O151 1.246 . S
O147 C141 1.263 . S
O147 Tb142 2.353 . S
C148 O152 1.245 . S
C148 O153 1.259 . S
C149 O154 1.250 . S
C149 O155 1.263 . S
O150 Tb142 2.427 . S
O150 C146 1.275 . S
O151 Tb142 2.513 . S
O151 C146 1.246 . S
O152 Tb142 2.453 . S
O152 C148 1.245 . S
O153 Tb140 2.343 . S
O153 Tb142 2.596 . S
O153 C148 1.259 . S
O154 Tb142 2.374 . S
O154 C149 1.250 . S
O155 Tb140 2.353 . S
O155 C149 1.263 . S
C156 O157 1.275 . S
C156 O158 1.246 . S
O157 Tb140 2.427 . S
O157 C156 1.275 . S
O158 Tb140 2.513 . S
O158 C156 1.246 . S
C159 O143 1.245 . S
C159 O144 1.259 . S
Tb160 O163 2.453 1_556 S
Tb160 O164 2.596 . S
Tb160 O165 2.374 . S
Tb160 O173 2.343 . S
Tb160 O175 2.353 . S
Tb160 O177 2.427 . S
Tb160 O178 2.513 . S
C161 O165 1.251 . S
C161 O167 1.263 . S
Tb162 O164 2.343 . S
Tb162 O167 2.353 . S
Tb162 O170 2.427 . S
Tb162 O171 2.513 . S
Tb162 O172 2.453 . S
Tb162 O173 2.596 . S
Tb162 O174 2.374 . S
O163 Tb160 2.453 1_554 S
O163 C179 1.245 . S
O164 Tb160 2.596 . S
O164 Tb162 2.343 . S
O164 C179 1.259 1_556 S
O165 Tb160 2.374 . S
O165 C161 1.251 . S
C166 O170 1.275 1_554 S
C166 O171 1.246 1_554 S
O167 C161 1.263 . S
O167 Tb162 2.353 . S
C168 O172 1.245 . S
C168 O173 1.259 . S
C169 O174 1.250 . S
C169 O175 1.263 . S
O170 Tb162 2.427 . S
O170 C166 1.275 1_556 S
O171 Tb162 2.513 . S
O171 C166 1.246 1_556 S
O172 Tb162 2.453 . S
O172 C168 1.245 . S
O173 Tb160 2.343 . S
O173 Tb162 2.596 . S
O173 C168 1.259 . S
O174 Tb162 2.374 . S
O174 C169 1.250 . S
O175 Tb160 2.353 . S
O175 C169 1.263 . S
C176 O177 1.275 . S
C176 O178 1.246 . S
O177 Tb160 2.427 . S
O177 C176 1.275 . S
O178 Tb160 2.513 . S
O178 C176 1.246 . S
C179 O163 1.245 . S
C179 O164 1.259 1_554 S
Tb180 O183 2.453 . S
Tb180 O184 2.596 . S
Tb180 O185 2.374 . S
Tb180 O193 2.343 . S
Tb180 O195 2.353 . S
Tb180 O197 2.427 . S
Tb180 O198 2.513 . S
C181 O185 1.251 . S
C181 O187 1.263 . S
Tb182 O184 2.343 . S
Tb182 O187 2.353 . S
Tb182 O190 2.427 . S
Tb182 O191 2.513 . S
Tb182 O192 2.453 . S
Tb182 O193 2.596 . S
Tb182 O194 2.374 . S
O183 Tb180 2.453 . S
O183 C199 1.245 . S
O184 Tb180 2.596 . S
O184 Tb182 2.343 . S
O184 C199 1.259 . S
O185 Tb180 2.374 . S
O185 C181 1.251 . S
C186 O190 1.275 . S
C186 O191 1.246 . S
O187 C181 1.263 . S
O187 Tb182 2.353 . S
C188 O192 1.245 . S
C188 O193 1.259 . S
C189 O194 1.250 . S
C189 O195 1.263 . S
O190 Tb182 2.427 . S
O190 C186 1.275 . S
O191 Tb182 2.513 . S
O191 C186 1.246 . S
O192 Tb182 2.453 . S
O192 C188 1.245 . S
O193 Tb180 2.343 . S
O193 Tb182 2.596 . S
O193 C188 1.259 . S
O194 Tb182 2.374 . S
O194 C189 1.250 . S
O195 Tb180 2.353 . S
O195 C189 1.263 . S
C196 O197 1.275 . S
C196 O198 1.246 . S
O197 Tb180 2.427 . S
O197 C196 1.275 . S
O198 Tb180 2.513 . S
O198 C196 1.246 . S
C199 O183 1.245 . S
C199 O184 1.259 . S
Tb200 O203 2.453 . S
Tb200 O204 2.596 . S
Tb200 O205 2.374 . S
Tb200 O213 2.343 . S
Tb200 O215 2.353 . S
Tb200 O217 2.427 . S
Tb200 O218 2.513 . S
C201 O205 1.251 . S
C201 O207 1.263 . S
Tb202 O204 2.343 . S
Tb202 O207 2.353 . S
Tb202 O210 2.427 . S
Tb202 O211 2.513 . S
Tb202 O212 2.453 . S
Tb202 O213 2.596 . S
Tb202 O214 2.374 . S
O203 Tb200 2.453 . S
O203 C219 1.245 . S
O204 Tb200 2.596 . S
O204 Tb202 2.343 . S
O204 C219 1.259 . S
O205 Tb200 2.374 . S
O205 C201 1.251 . S
C206 O210 1.275 . S
C206 O211 1.246 . S
O207 C201 1.263 . S
O207 Tb202 2.353 . S
C208 O212 1.245 . S
C208 O213 1.259 . S
C209 O214 1.250 . S
C209 O215 1.263 . S
O210 Tb202 2.427 . S
O210 C206 1.275 . S
O211 Tb202 2.513 . S
O211 C206 1.246 . S
O212 Tb202 2.453 . S
O212 C208 1.245 . S
O213 Tb200 2.343 . S
O213 Tb202 2.596 . S
O213 C208 1.259 . S
O214 Tb202 2.374 . S
O214 C209 1.250 . S
O215 Tb200 2.353 . S
O215 C209 1.263 . S
C216 O217 1.275 . S
C216 O218 1.246 . S
O217 Tb200 2.427 . S
O217 C216 1.275 . S
O218 Tb200 2.513 . S
O218 C216 1.246 . S
C219 O203 1.245 . S
C219 O204 1.259 . S
Tb220 O223 2.453 . S
Tb220 O224 2.596 . S
Tb220 O225 2.374 . S
Tb220 O233 2.343 . S
Tb220 O235 2.353 . S
Tb220 O237 2.427 . S
Tb220 O238 2.513 . S
C221 O225 1.251 . S
C221 O227 1.263 . S
Tb222 O224 2.343 . S
Tb222 O227 2.353 . S
Tb222 O230 2.427 . S
Tb222 O231 2.513 . S
Tb222 O232 2.453 1_554 S
Tb222 O233 2.596 . S
Tb222 O234 2.374 . S
O223 Tb220 2.453 . S
O223 C239 1.245 . S
O224 Tb220 2.596 . S
O224 Tb222 2.343 . S
O224 C239 1.259 . S
O225 Tb220 2.374 . S
O225 C221 1.251 . S
C226 O230 1.275 . S
C226 O231 1.246 . S
O227 C221 1.263 . S
O227 Tb222 2.353 . S
C228 O232 1.245 . S
C228 O233 1.259 1_556 S
C229 O234 1.250 . S
C229 O235 1.263 . S
O230 Tb222 2.427 . S
O230 C226 1.275 . S
O231 Tb222 2.513 . S
O231 C226 1.246 . S
O232 Tb222 2.453 1_556 S
O232 C228 1.245 . S
O233 Tb220 2.343 . S
O233 Tb222 2.596 . S
O233 C228 1.259 1_554 S
O234 Tb222 2.374 . S
O234 C229 1.250 . S
O235 Tb220 2.353 . S
O235 C229 1.263 . S
C236 O237 1.275 . S
C236 O238 1.246 . S
O237 Tb220 2.427 . S
O237 C236 1.275 . S
O238 Tb220 2.513 . S
O238 C236 1.246 . S
C239 O223 1.245 . S
C239 O224 1.259 . S
Tb240 O243 2.453 . S
Tb240 O244 2.596 . S
Tb240 O245 2.374 . S
Tb240 O253 2.343 1_556 S
Tb240 O255 2.353 . S
Tb240 O257 2.427 1_556 S
Tb240 O258 2.513 1_556 S
C241 O245 1.251 . S
C241 O247 1.263 1_556 S
Tb242 O244 2.343 1_554 S
Tb242 O247 2.353 . S
Tb242 O250 2.427 1_554 S
Tb242 O251 2.513 1_554 S
Tb242 O252 2.453 . S
Tb242 O253 2.596 . S
Tb242 O254 2.374 . S
O243 Tb240 2.453 . S
O243 C259 1.245 . S
O244 Tb240 2.596 . S
O244 Tb242 2.343 1_556 S
O244 C259 1.259 . S
O245 Tb240 2.374 . S
O245 C241 1.251 . S
C246 O250 1.275 . S
C246 O251 1.246 . S
O247 C241 1.263 1_554 S
O247 Tb242 2.353 . S
C248 O252 1.245 . S
C248 O253 1.259 . S
C249 O254 1.250 . S
C249 O255 1.263 1_554 S
O250 Tb242 2.427 1_556 S
O250 C246 1.275 . S
O251 Tb242 2.513 1_556 S
O251 C246 1.246 . S
O252 Tb242 2.453 . S
O252 C248 1.245 . S
O253 Tb240 2.343 1_554 S
O253 Tb242 2.596 . S
O253 C248 1.259 . S
O254 Tb242 2.374 . S
O254 C249 1.250 . S
O255 Tb240 2.353 . S
O255 C249 1.263 1_556 S
C256 O257 1.275 . S
C256 O258 1.246 . S
O257 Tb240 2.427 1_554 S
O257 C256 1.275 . S
O258 Tb240 2.513 1_554 S
O258 C256 1.246 . S
C259 O243 1.245 . S
C259 O244 1.259 . S
Tb260 O263 2.453 . S
Tb260 O264 2.596 . S
Tb260 O265 2.374 . S
Tb260 O273 2.343 1_556 S
Tb260 O275 2.353 . S
Tb260 O277 2.427 . S
Tb260 O278 2.513 . S
C261 O265 1.251 . S
C261 O267 1.263 . S
Tb262 O264 2.343 . S
Tb262 O267 2.353 . S
Tb262 O270 2.427 . S
Tb262 O271 2.513 . S
Tb262 O272 2.453 1_556 S
Tb262 O273 2.596 1_556 S
Tb262 O274 2.374 . S
O263 Tb260 2.453 . S
O263 C279 1.245 . S
O264 Tb260 2.596 . S
O264 Tb262 2.343 . S
O264 C279 1.259 . S
O265 Tb260 2.374 . S
O265 C261 1.251 . S
C266 O270 1.275 . S
C266 O271 1.246 . S
O267 C261 1.263 . S
O267 Tb262 2.353 . S
C268 O272 1.245 . S
C268 O273 1.259 . S
C269 O274 1.250 . S
C269 O275 1.263 . S
O270 Tb262 2.427 . S
O270 C266 1.275 . S
O271 Tb262 2.513 . S
O271 C266 1.246 . S
O272 Tb262 2.453 1_554 S
O272 C268 1.245 . S
O273 Tb260 2.343 1_554 S
O273 Tb262 2.596 1_554 S
O273 C268 1.259 . S
O274 Tb262 2.374 . S
O274 C269 1.250 . S
O275 Tb260 2.353 . S
O275 C269 1.263 . S
C276 O277 1.275 . S
C276 O278 1.246 . S
O277 Tb260 2.427 . S
O277 C276 1.275 . S
O278 Tb260 2.513 . S
O278 C276 1.246 . S
C279 O263 1.245 . S
C279 O264 1.259 . S
Tb280 O283 2.453 . S
Tb280 O284 2.596 . S
Tb280 O285 2.374 . S
Tb280 O293 2.343 . S
Tb280 O295 2.353 . S
Tb280 O297 2.427 . S
Tb280 O298 2.513 . S
C281 O285 1.251 . S
C281 O287 1.263 . S
Tb282 O284 2.343 . S
Tb282 O287 2.353 . S
Tb282 O290 2.427 . S
Tb282 O291 2.513 . S
Tb282 O292 2.453 . S
Tb282 O293 2.596 . S
Tb282 O294 2.374 . S
O283 Tb280 2.453 . S
O283 C299 1.245 . S
O284 Tb280 2.596 . S
O284 Tb282 2.343 . S
O284 C299 1.259 . S
O285 Tb280 2.374 . S
O285 C281 1.251 . S
C286 O290 1.275 . S
C286 O291 1.246 . S
O287 C281 1.263 . S
O287 Tb282 2.353 . S
C288 O292 1.245 . S
C288 O293 1.259 . S
C289 O294 1.250 . S
C289 O295 1.263 . S
O290 Tb282 2.427 . S
O290 C286 1.275 . S
O291 Tb282 2.513 . S
O291 C286 1.246 . S
O292 Tb282 2.453 . S
O292 C288 1.245 . S
O293 Tb280 2.343 . S
O293 Tb282 2.596 . S
O293 C288 1.259 . S
O294 Tb282 2.374 . S
O294 C289 1.250 . S
O295 Tb280 2.353 . S
O295 C289 1.263 . S
C296 O297 1.275 . S
C296 O298 1.246 . S
O297 Tb280 2.427 . S
O297 C296 1.275 . S
O298 Tb280 2.513 . S
O298 C296 1.246 . S
C299 O283 1.245 . S
C299 O284 1.259 . S
Tb300 O303 2.453 . S
Tb300 O304 2.596 . S
Tb300 O305 2.374 . S
Tb300 O313 2.343 . S
Tb300 O315 2.353 . S
Tb300 O317 2.427 . S
Tb300 O318 2.513 . S
C301 O305 1.251 . S
C301 O307 1.263 . S
Tb302 O304 2.343 . S
Tb302 O307 2.353 . S
Tb302 O310 2.427 . S
Tb302 O311 2.513 . S
Tb302 O312 2.453 . S
Tb302 O313 2.596 . S
Tb302 O314 2.374 . S
O303 Tb300 2.453 . S
O303 C319 1.245 . S
O304 Tb300 2.596 . S
O304 Tb302 2.343 . S
O304 C319 1.259 . S
O305 Tb300 2.374 . S
O305 C301 1.251 . S
C306 O310 1.275 . S
C306 O311 1.246 . S
O307 C301 1.263 . S
O307 Tb302 2.353 . S
C308 O312 1.245 . S
C308 O313 1.259 . S
C309 O314 1.250 . S
C309 O315 1.263 . S
O310 Tb302 2.427 . S
O310 C306 1.275 . S
O311 Tb302 2.513 . S
O311 C306 1.246 . S
O312 Tb302 2.453 . S
O312 C308 1.245 . S
O313 Tb300 2.343 . S
O313 Tb302 2.596 . S
O313 C308 1.259 . S
O314 Tb302 2.374 . S
O314 C309 1.250 . S
O315 Tb300 2.353 . S
O315 C309 1.263 . S
C316 O317 1.275 . S
C316 O318 1.246 . S
O317 Tb300 2.427 . S
O317 C316 1.275 . S
O318 Tb300 2.513 . S
O318 C316 1.246 . S
C319 O303 1.245 . S
C319 O304 1.259 . S
C320 C321 1.369 . S
C320 C322 1.419 . S
C320 H324 0.930 . S
C321 C320 1.369 . S
C321 C330 1.429 . S
C322 C320 1.419 . S
C322 C323 1.363 . S
C322 H325 0.929 . S
C323 C322 1.363 . S
C323 C329 1.428 . S
H324 C320 0.930 . S
H325 C322 0.929 . S
S326 N327 1.613 . S
S326 N328 1.610 . S
N327 S326 1.613 . S
N327 C330 1.350 . S
N328 S326 1.610 . S
N328 C329 1.351 . S
C329 C323 1.428 . S
C329 N328 1.351 . S
C329 C330 1.434 . S
C330 C321 1.429 . S
C330 N327 1.350 . S
C330 C329 1.434 . S
C331 C332 1.369 . S
C331 C333 1.419 1_554 S
C331 H335 0.930 . S
C332 C331 1.369 . S
C332 C341 1.429 1_554 S
C333 C331 1.419 1_556 S
C333 C334 1.363 . S
C333 H336 0.929 . S
C334 C333 1.363 . S
C334 C340 1.428 . S
H335 C331 0.930 . S
H336 C333 0.929 . S
S337 N338 1.613 1_556 S
S337 N339 1.610 . S
N338 S337 1.613 1_554 S
N338 C341 1.350 1_554 S
N339 S337 1.610 . S
N339 C340 1.351 . S
C340 C334 1.428 . S
C340 N339 1.351 . S
C340 C341 1.434 . S
C341 C332 1.429 1_556 S
C341 N338 1.350 1_556 S
C341 C340 1.434 . S
C342 C343 1.369 . S
C342 C344 1.419 . S
C342 H346 0.930 . S
C343 C342 1.369 . S
C343 C352 1.429 . S
C344 C342 1.419 . S
C344 C345 1.363 1_554 S
C344 H347 0.929 1_554 S
C345 C344 1.363 1_556 S
C345 C351 1.428 1_556 S
H346 C342 0.930 . S
H347 C344 0.929 1_556 S
S348 N349 1.613 . S
S348 N350 1.610 . S
N349 S348 1.613 . S
N349 C352 1.350 . S
N350 S348 1.610 . S
N350 C351 1.351 . S
C351 C345 1.428 1_554 S
C351 N350 1.351 . S
C351 C352 1.434 . S
C352 C343 1.429 . S
C352 N349 1.350 . S
C352 C351 1.434 . S
C353 C354 1.369 . S
C353 C355 1.419 . S
C353 H357 0.930 . S
C354 C353 1.369 . S
C354 C363 1.429 . S
C355 C353 1.419 . S
C355 C356 1.363 . S
C355 H358 0.929 . S
C356 C355 1.363 . S
C356 C362 1.428 . S
H357 C353 0.930 . S
H358 C355 0.929 . S
S359 N360 1.613 . S
S359 N361 1.610 . S
N360 S359 1.613 . S
N360 C363 1.350 . S
N361 S359 1.610 . S
N361 C362 1.351 . S
C362 C356 1.428 . S
C362 N361 1.351 . S
C362 C363 1.434 . S
C363 C354 1.429 . S
C363 N360 1.350 . S
C363 C362 1.434 . S
C364 C365 1.369 . S
C364 C366 1.419 . S
C364 H368 0.930 . S
C365 C364 1.369 . S
C365 C374 1.429 . S
C366 C364 1.419 . S
C366 C367 1.363 . S
C366 H369 0.929 . S
C367 C366 1.363 . S
C367 C373 1.428 . S
H368 C364 0.930 . S
H369 C366 0.929 . S
S370 N371 1.613 . S
S370 N372 1.610 . S
N371 S370 1.613 . S
N371 C374 1.350 . S
N372 S370 1.610 . S
N372 C373 1.351 . S
C373 C367 1.428 . S
C373 N372 1.351 . S
C373 C374 1.434 . S
C374 C365 1.429 . S
C374 N371 1.350 . S
C374 C373 1.434 . S
C375 C376 1.369 . S
C375 C377 1.419 . S
C375 H379 0.930 . S
C376 C375 1.369 . S
C376 C385 1.429 . S
C377 C375 1.419 . S
C377 C378 1.363 . S
C377 H380 0.929 . S
C378 C377 1.363 . S
C378 C384 1.428 . S
H379 C375 0.930 . S
H380 C377 0.929 . S
S381 N382 1.613 . S
S381 N383 1.610 . S
N382 S381 1.613 . S
N382 C385 1.350 . S
N383 S381 1.610 . S
N383 C384 1.351 . S
C384 C378 1.428 . S
C384 N383 1.351 . S
C384 C385 1.434 . S
C385 C376 1.429 . S
C385 N382 1.350 . S
C385 C384 1.434 . S
C386 C387 1.369 . S
C386 C388 1.419 . S
C386 H390 0.930 . S
C387 C386 1.369 . S
C387 C396 1.429 . S
C388 C386 1.419 . S
C388 C389 1.363 1_556 S
C388 H391 0.929 . S
C389 C388 1.363 1_554 S
C389 C395 1.428 1_554 S
H390 C386 0.930 . S
H391 C388 0.929 . S
S392 N393 1.613 . S
S392 N394 1.610 1_556 S
N393 S392 1.613 . S
N393 C396 1.350 . S
N394 S392 1.610 1_554 S
N394 C395 1.351 1_554 S
C395 C389 1.428 1_556 S
C395 N394 1.351 1_556 S
C395 C396 1.434 . S
C396 C387 1.429 . S
C396 N393 1.350 . S
C396 C395 1.434 . S
C397 C398 1.369 . S
C397 C399 1.419 . S
C397 H401 0.930 . S
C398 C397 1.369 . S
C398 C407 1.429 . S
C399 C397 1.419 . S
C399 C400 1.363 . S
C399 H402 0.929 . S
C400 C399 1.363 . S
C400 C406 1.428 . S
H401 C397 0.930 . S
H402 C399 0.929 . S
S403 N404 1.614 . S
S403 N405 1.609 1_556 S
N404 S403 1.614 . S
N404 C407 1.350 1_556 S
N405 S403 1.609 1_554 S
N405 C406 1.351 . S
C406 C400 1.428 . S
C406 N405 1.351 . S
C406 C407 1.434 . S
C407 C398 1.429 . S
C407 N404 1.350 1_554 S
C407 C406 1.434 . S
C408 C409 1.369 . S
C408 C410 1.419 . S
C408 H412 0.930 . S
C409 C408 1.369 . S
C409 C418 1.429 . S
C410 C408 1.419 . S
C410 C411 1.363 . S
C410 H413 0.929 . S
C411 C410 1.363 . S
C411 C417 1.428 . S
H412 C408 0.930 . S
H413 C410 0.929 . S
S414 N415 1.613 . S
S414 N416 1.610 . S
N415 S414 1.613 . S
N415 C418 1.350 . S
N416 S414 1.610 . S
N416 C417 1.351 . S
C417 C411 1.428 . S
C417 N416 1.351 . S
C417 C418 1.434 . S
C418 C409 1.429 . S
C418 N415 1.350 . S
C418 C417 1.434 . S
C419 C420 1.369 . S
C419 C421 1.419 . S
C419 H423 0.930 . S
C420 C419 1.369 . S
C420 C429 1.429 . S
C421 C419 1.419 . S
C421 C422 1.363 . S
C421 H424 0.929 . S
C422 C421 1.363 . S
C422 C428 1.428 . S
H423 C419 0.930 . S
H424 C421 0.929 . S
S425 N426 1.613 . S
S425 N427 1.610 . S
N426 S425 1.613 . S
N426 C429 1.350 . S
N427 S425 1.610 . S
N427 C428 1.351 . S
C428 C422 1.428 . S
C428 N427 1.351 . S
C428 C429 1.434 . S
C429 C420 1.429 . S
C429 N426 1.350 . S
C429 C428 1.434 . S
C430 C431 1.369 1_556 S
C430 C432 1.419 . S
C430 H434 0.930 . S
C431 C430 1.369 1_554 S
C431 C440 1.429 1_554 S
C432 C430 1.419 . S
C432 C433 1.363 . S
C432 H435 0.929 . S
C433 C432 1.363 . S
C433 C439 1.428 . S
H434 C430 0.930 . S
H435 C432 0.929 . S
S436 N437 1.613 1_556 S
S436 N438 1.610 . S
N437 S436 1.613 1_554 S
N437 C440 1.350 1_554 S
N438 S436 1.610 . S
N438 C439 1.351 . S
C439 C433 1.428 . S
C439 N438 1.351 . S
C439 C440 1.434 . S
C440 C431 1.429 1_556 S
C440 N437 1.350 1_556 S
C440 C439 1.434 . S
C441 C442 1.369 . S
C441 C443 1.419 . S
C441 H445 0.930 . S
C442 C441 1.369 . S
C442 C451 1.429 . S
C443 C441 1.419 . S
C443 C444 1.363 . S
C443 H446 0.929 . S
C444 C443 1.363 . S
C444 C450 1.428 . S
H445 C441 0.930 . S
H446 C443 0.929 . S
S447 N448 1.613 . S
S447 N449 1.610 . S
N448 S447 1.613 . S
N448 C451 1.350 . S
N449 S447 1.610 . S
N449 C450 1.351 . S
C450 C444 1.428 . S
C450 N449 1.351 . S
C450 C451 1.434 . S
C451 C442 1.429 . S
C451 N448 1.350 . S
C451 C450 1.434 . S
C452 C453 1.369 . S
C452 C454 1.419 . S
C452 H456 0.930 . S
C453 C452 1.369 . S
C453 C462 1.429 . S
C454 C452 1.419 . S
C454 C455 1.363 . S
C454 H457 0.929 . S
C455 C454 1.363 . S
C455 C461 1.428 . S
H456 C452 0.930 . S
H457 C454 0.929 . S
S458 N459 1.613 . S
S458 N460 1.610 . S
N459 S458 1.613 . S
N459 C462 1.350 . S
N460 S458 1.610 . S
N460 C461 1.351 . S
C461 C455 1.428 . S
C461 N460 1.351 . S
C461 C462 1.434 . S
C462 C453 1.429 . S
C462 N459 1.350 . S
C462 C461 1.434 . S
C463 C464 1.369 . S
C463 C465 1.419 . S
C463 H467 0.930 . S
C464 C463 1.369 . S
C464 C473 1.429 . S
C465 C463 1.419 . S
C465 C466 1.363 . S
C465 H468 0.929 . S
C466 C465 1.363 . S
C466 C472 1.428 . S
H467 C463 0.930 . S
H468 C465 0.929 . S
S469 N470 1.613 . S
S469 N471 1.610 . S
N470 S469 1.613 . S
N470 C473 1.350 . S
N471 S469 1.610 . S
N471 C472 1.351 . S
C472 C466 1.428 . S
C472 N471 1.351 . S
C472 C473 1.434 . S
C473 C464 1.429 . S
C473 N470 1.350 . S
C473 C472 1.434 . S
C474 C475 1.369 . S
C474 C476 1.419 . S
C474 H478 0.930 . S
C475 C474 1.369 . S
C475 C484 1.429 . S
C476 C474 1.419 . S
C476 C477 1.363 1_554 S
C476 H479 0.929 1_554 S
C477 C476 1.363 1_556 S
C477 C483 1.428 . S
H478 C474 0.930 . S
H479 C476 0.929 1_556 S
S480 N481 1.613 1_556 S
S480 N482 1.610 . S
N481 S480 1.613 1_554 S
N481 C484 1.350 . S
N482 S480 1.610 . S
N482 C483 1.351 . S
C483 C477 1.428 . S
C483 N482 1.351 . S
C483 C484 1.434 1_556 S
C484 C475 1.429 . S
C484 N481 1.350 . S
C484 C483 1.434 1_554 S
C485 C486 1.369 1_556 S
C485 C487 1.419 . S
C485 H489 0.930 1_556 S
C486 C485 1.369 1_554 S
C486 C495 1.429 1_554 S
C487 C485 1.419 . S
C487 C488 1.363 . S
C487 H490 0.929 . S
C488 C487 1.363 . S
C488 C494 1.428 . S
H489 C485 0.930 1_554 S
H490 C487 0.929 . S
S491 N492 1.613 . S
S491 N493 1.610 . S
N492 S491 1.613 . S
N492 C495 1.350 . S
N493 S491 1.610 . S
N493 C494 1.351 . S
C494 C488 1.428 . S
C494 N493 1.351 . S
C494 C495 1.434 . S
C495 C486 1.429 1_556 S
C495 N492 1.350 . S
C495 C494 1.434 . S
C496 C497 1.369 . S
C496 C498 1.419 . S
C496 H500 0.930 . S
C497 C496 1.369 . S
C497 C506 1.429 . S
C498 C496 1.419 . S
C498 C499 1.363 . S
C498 H501 0.929 . S
C499 C498 1.363 . S
C499 C505 1.428 . S
H500 C496 0.930 . S
H501 C498 0.929 . S
S502 N503 1.613 . S
S502 N504 1.610 . S
N503 S502 1.613 . S
N503 C506 1.350 . S
N504 S502 1.610 . S
N504 C505 1.351 . S
C505 C499 1.428 . S
C505 N504 1.351 . S
C505 C506 1.434 . S
C506 C497 1.429 . S
C506 N503 1.350 . S
C506 C505 1.434 . S
C507 C508 1.369 . S
C507 C509 1.419 . S
C507 H511 0.930 . S
C508 C507 1.369 . S
C508 C517 1.429 . S
C509 C507 1.419 . S
C509 C510 1.363 . S
C509 H512 0.929 . S
C510 C509 1.363 . S
C510 C516 1.428 . S
H511 C507 0.930 . S
H512 C509 0.929 . S
S513 N514 1.613 . S
S513 N515 1.610 . S
N514 S513 1.613 . S
N514 C517 1.350 . S
N515 S513 1.610 . S
N515 C516 1.351 . S
C516 C510 1.428 . S
C516 N515 1.351 . S
C516 C517 1.434 . S
C517 C508 1.429 . S
C517 N514 1.350 . S
C517 C516 1.434 . S
C518 C519 1.369 . S
C518 C520 1.419 . S
C518 H522 0.930 . S
C519 C518 1.369 . S
C519 C528 1.429 . S
C520 C518 1.419 . S
C520 C521 1.363 . S
C520 H523 0.929 . S
C521 C520 1.363 . S
C521 C527 1.428 . S
H522 C518 0.930 . S
H523 C520 0.929 . S
S524 N525 1.613 . S
S524 N526 1.610 . S
N525 S524 1.613 . S
N525 C528 1.350 . S
N526 S524 1.610 . S
N526 C527 1.351 . S
C527 C521 1.428 . S
C527 N526 1.351 . S
C527 C528 1.434 . S
C528 C519 1.429 . S
C528 N525 1.350 . S
C528 C527 1.434 . S
C529 C530 1.369 . S
C529 C531 1.419 1_655 S
C529 H533 0.930 . S
C530 C529 1.369 . S
C530 C539 1.429 1_556 S
C531 C529 1.419 1_455 S
C531 C532 1.363 . S
C531 H534 0.929 . S
C532 C531 1.363 . S
C532 C538 1.428 1_556 S
H533 C529 0.930 . S
H534 C531 0.929 . S
S535 N536 1.613 1_455 S
S535 N537 1.610 . S
N536 S535 1.613 1_655 S
N536 C539 1.350 . S
N537 S535 1.610 . S
N537 C538 1.351 . S
C538 C532 1.428 1_554 S
C538 N537 1.351 . S
C538 C539 1.434 1_455 S
C539 C530 1.429 1_554 S
C539 N536 1.350 . S
C539 C538 1.434 1_655 S
C540 C541 1.369 . S
C540 C542 1.419 . S
C540 H544 0.930 . S
C541 C540 1.369 . S
C541 C550 1.429 . S
C542 C540 1.419 . S
C542 C543 1.363 . S
C542 H545 0.929 . S
C543 C542 1.363 . S
C543 C549 1.428 . S
H544 C540 0.930 . S
H545 C542 0.929 . S
S546 N547 1.613 . S
S546 N548 1.610 1_554 S
N547 S546 1.613 . S
N547 C550 1.350 1_554 S
N548 S546 1.610 1_556 S
N548 C549 1.351 . S
C549 C543 1.428 . S
C549 N548 1.351 . S
C549 C550 1.434 . S
C550 C541 1.429 . S
C550 N547 1.350 1_556 S
C550 C549 1.434 . S
C551 C552 1.369 1_556 S
C551 C553 1.419 . S
C551 H555 0.930 . S
C552 C551 1.369 1_554 S
C552 C561 1.429 . S
C553 C551 1.419 . S
C553 C554 1.363 1_456 S
C553 H556 0.929 . S
C554 C553 1.363 1_654 S
C554 C560 1.428 1_655 S
H555 C551 0.930 . S
H556 C553 0.929 . S
S557 N558 1.613 . S
S557 N559 1.610 1_455 S
N558 S557 1.613 . S
N558 C561 1.350 . S
N559 S557 1.610 1_655 S
N559 C560 1.351 1_655 S
C560 C554 1.428 1_455 S
C560 N559 1.351 1_455 S
C560 C561 1.434 . S
C561 C552 1.429 . S
C561 N558 1.350 . S
C561 C560 1.434 . S
C562 C563 1.369 . S
C562 C564 1.419 . S
C562 H566 0.930 . S
C563 C562 1.369 . S
C563 C572 1.429 . S
C564 C562 1.419 . S
C564 C565 1.363 . S
C564 H567 0.929 . S
C565 C564 1.363 . S
C565 C571 1.428 . S
H566 C562 0.930 . S
H567 C564 0.929 . S
S568 N569 1.613 . S
S568 N570 1.610 . S
N569 S568 1.613 . S
N569 C572 1.350 . S
N570 S568 1.610 . S
N570 C571 1.351 . S
C571 C565 1.428 . S
C571 N570 1.351 . S
C571 C572 1.434 . S
C572 C563 1.429 . S
C572 N569 1.350 . S
C572 C571 1.434 . S
C573 C574 1.369 . S
C573 C575 1.419 . S
C573 H577 0.930 . S
C574 C573 1.369 . S
C574 C583 1.429 . S
C575 C573 1.419 . S
C575 C576 1.363 . S
C575 H578 0.929 . S
C576 C575 1.363 . S
C576 C582 1.428 . S
H577 C573 0.930 . S
H578 C575 0.929 . S
S579 N580 1.613 . S
S579 N581 1.610 . S
N580 S579 1.613 . S
N580 C583 1.350 . S
N581 S579 1.610 . S
N581 C582 1.351 . S
C582 C576 1.428 . S
C582 N581 1.351 . S
C582 C583 1.434 . S
C583 C574 1.429 . S
C583 N580 1.350 . S
C583 C582 1.434 . S
C584 C585 1.369 . S
C584 C586 1.419 . S
C584 H588 0.930 . S
C585 C584 1.369 . S
C585 C594 1.429 . S
C586 C584 1.419 . S
C586 C587 1.363 . S
C586 H589 0.929 . S
C587 C586 1.363 . S
C587 C593 1.428 . S
H588 C584 0.930 . S
H589 C586 0.929 . S
S590 N591 1.613 1_554 S
S590 N592 1.610 1_554 S
N591 S590 1.613 1_556 S
N591 C594 1.350 . S
N592 S590 1.610 1_556 S
N592 C593 1.351 . S
C593 C587 1.428 . S
C593 N592 1.351 . S
C593 C594 1.434 . S
C594 C585 1.429 . S
C594 N591 1.350 . S
C594 C593 1.434 . S
C595 C596 1.369 . S
C595 C597 1.419 . S
C595 H599 0.930 . S
C596 C595 1.369 . S
C596 C605 1.429 . S
C597 C595 1.419 . S
C597 C598 1.363 . S
C597 H600 0.929 . S
C598 C597 1.363 . S
C598 C604 1.428 . S
H599 C595 0.930 . S
H600 C597 0.929 . S
S601 N602 1.613 . S
S601 N603 1.610 . S
N602 S601 1.613 . S
N602 C605 1.350 . S
N603 S601 1.610 . S
N603 C604 1.351 . S
C604 C598 1.428 . S
C604 N603 1.351 . S
C604 C605 1.434 . S
C605 C596 1.429 . S
C605 N602 1.350 . S
C605 C604 1.434 . S
C606 C607 1.369 . S
C606 C608 1.419 . S
C606 H610 0.930 . S
C607 C606 1.369 . S
C607 C616 1.429 . S
C608 C606 1.419 . S
C608 C609 1.363 . S
C608 H611 0.929 . S
C609 C608 1.363 . S
C609 C615 1.428 . S
H610 C606 0.930 . S
H611 C608 0.929 . S
S612 N613 1.613 . S
S612 N614 1.610 . S
N613 S612 1.613 . S
N613 C616 1.350 . S
N614 S612 1.610 . S
N614 C615 1.351 . S
C615 C609 1.428 . S
C615 N614 1.351 . S
C615 C616 1.434 . S
C616 C607 1.429 . S
C616 N613 1.350 . S
C616 C615 1.434 . S
C617 C618 1.369 . S
C617 C619 1.419 . S
C617 H621 0.930 . S
C618 C617 1.369 . S
C618 C627 1.429 . S
C619 C617 1.419 . S
C619 C620 1.363 . S
C619 H622 0.929 . S
C620 C619 1.363 . S
C620 C626 1.428 . S
H621 C617 0.930 . S
H622 C619 0.929 . S
S623 N624 1.613 . S
S623 N625 1.610 . S
N624 S623 1.613 . S
N624 C627 1.350 . S
N625 S623 1.610 . S
N625 C626 1.351 . S
C626 C620 1.428 . S
C626 N625 1.351 . S
C626 C627 1.434 . S
C627 C618 1.429 . S
C627 N624 1.350 . S
C627 C626 1.434 . S
C628 C629 1.369 . S
C628 C630 1.419 1_655 S
C628 H632 0.930 . S
C629 C628 1.369 . S
C629 C638 1.429 . S
C630 C628 1.419 1_455 S
C630 C631 1.363 . S
C630 H633 0.929 . S
C631 C630 1.363 . S
C631 C637 1.428 . S
H632 C628 0.930 . S
H633 C630 0.929 . S
S634 N635 1.613 . S
S634 N636 1.610 1_655 S
N635 S634 1.613 . S
N635 C638 1.350 . S
N636 S634 1.610 1_455 S
N636 C637 1.351 . S
C637 C631 1.428 . S
C637 N636 1.351 . S
C637 C638 1.434 1_455 S
C638 C629 1.429 . S
C638 N635 1.350 . S
C638 C637 1.434 1_655 S
C639 C640 1.369 . S
C639 C641 1.419 . S
C639 H643 0.930 . S
C640 C639 1.369 . S
C640 C649 1.429 . S
C641 C639 1.419 . S
C641 C642 1.363 . S
C641 H644 0.929 . S
C642 C641 1.363 . S
C642 C648 1.428 . S
H643 C639 0.930 . S
H644 C641 0.929 . S
S645 N646 1.613 . S
S645 N647 1.610 . S
N646 S645 1.613 . S
N646 C649 1.350 . S
N647 S645 1.610 . S
N647 C648 1.351 . S
C648 C642 1.428 . S
C648 N647 1.351 . S
C648 C649 1.434 . S
C649 C640 1.429 . S
C649 N646 1.350 . S
C649 C648 1.434 . S
C650 C651 1.369 . S
C650 C652 1.419 . S
C650 H654 0.930 . S
C651 C650 1.369 . S
C651 C660 1.429 . S
C652 C650 1.419 . S
C652 C653 1.363 . S
C652 H655 0.929 . S
C653 C652 1.363 . S
C653 C659 1.428 . S
H654 C650 0.930 . S
H655 C652 0.929 . S
S656 N657 1.613 . S
S656 N658 1.610 . S
N657 S656 1.613 . S
N657 C660 1.350 . S
N658 S656 1.610 . S
N658 C659 1.351 . S
C659 C653 1.428 . S
C659 N658 1.351 . S
C659 C660 1.434 . S
C660 C651 1.429 . S
C660 N657 1.350 . S
C660 C659 1.434 . S
C661 C662 1.369 . S
C661 C663 1.419 1_455 S
C661 H665 0.930 . S
C662 C661 1.369 . S
C662 C671 1.429 1_556 S
C663 C661 1.419 1_655 S
C663 C664 1.363 . S
C663 H666 0.929 . S
C664 C663 1.363 . S
C664 C670 1.428 . S
H665 C661 0.930 . S
H666 C663 0.929 . S
S667 N668 1.613 . S
S667 N669 1.610 1_455 S
N668 S667 1.613 . S
N668 C671 1.350 . S
N669 S667 1.610 1_655 S
N669 C670 1.351 1_554 S
C670 C664 1.428 . S
C670 N669 1.351 1_556 S
C670 C671 1.434 1_656 S
C671 C662 1.429 1_554 S
C671 N668 1.350 . S
C671 C670 1.434 1_454 S
C672 C673 1.369 . S
C672 C674 1.419 . S
C672 H676 0.930 . S
C673 C672 1.369 . S
C673 C682 1.429 1_554 S
C674 C672 1.419 . S
C674 C675 1.363 . S
C674 H677 0.929 . S
C675 C674 1.363 . S
C675 C681 1.428 1_554 S
H676 C672 0.930 . S
H677 C674 0.929 . S
S678 N679 1.613 . S
S678 N680 1.610 . S
N679 S678 1.613 . S
N679 C682 1.350 . S
N680 S678 1.610 . S
N680 C681 1.351 . S
C681 C675 1.428 1_556 S
C681 N680 1.351 . S
C681 C682 1.434 . S
C682 C673 1.429 1_556 S
C682 N679 1.350 . S
C682 C681 1.434 . S
C683 C684 1.369 . S
C683 C685 1.419 . S
C683 H687 0.930 . S
C684 C683 1.369 . S
C684 C693 1.429 . S
C685 C683 1.419 . S
C685 C686 1.363 . S
C685 H688 0.929 . S
C686 C685 1.363 . S
C686 C692 1.428 . S
H687 C683 0.930 . S
H688 C685 0.929 . S
S689 N690 1.613 . S
S689 N691 1.610 . S
N690 S689 1.613 . S
N690 C693 1.350 . S
N691 S689 1.610 . S
N691 C692 1.351 . S
C692 C686 1.428 . S
C692 N691 1.351 . S
C692 C693 1.434 . S
C693 C684 1.429 . S
C693 N690 1.350 . S
C693 C692 1.434 . S
C694 C695 1.369 . S
C694 C696 1.419 . S
C694 H698 0.930 . S
C695 C694 1.369 . S
C695 C704 1.429 . S
C696 C694 1.419 . S
C696 C697 1.363 . S
C696 H699 0.929 . S
C697 C696 1.363 . S
C697 C703 1.428 . S
H698 C694 0.930 . S
H699 C696 0.929 . S
S700 N701 1.613 . S
S700 N702 1.610 . S
N701 S700 1.613 . S
N701 C704 1.350 . S
N702 S700 1.610 . S
N702 C703 1.351 . S
C703 C697 1.428 . S
C703 N702 1.351 . S
C703 C704 1.434 . S
C704 C695 1.429 . S
C704 N701 1.350 . S
C704 C703 1.434 . S
C705 C706 1.369 . S
C705 C707 1.419 . S
C705 H709 0.930 . S
C706 C705 1.369 . S
C706 C715 1.429 . S
C707 C705 1.419 . S
C707 C708 1.363 . S
C707 H710 0.929 . S
C708 C707 1.363 . S
C708 C714 1.428 . S
H709 C705 0.930 . S
H710 C707 0.929 . S
S711 N712 1.613 . S
S711 N713 1.610 . S
N712 S711 1.613 . S
N712 C715 1.350 1_554 S
N713 S711 1.610 . S
N713 C714 1.351 1_554 S
C714 C708 1.428 . S
C714 N713 1.351 1_556 S
C714 C715 1.434 . S
C715 C706 1.429 . S
C715 N712 1.350 1_556 S
C715 C714 1.434 . S
C716 C717 1.369 . S
C716 C718 1.419 . S
C716 H720 0.930 . S
C717 C716 1.369 . S
C717 C726 1.429 . S
C718 C716 1.419 . S
C718 C719 1.363 . S
C718 H721 0.929 . S
C719 C718 1.363 . S
C719 C725 1.428 . S
H720 C716 0.930 . S
H721 C718 0.929 . S
S722 N723 1.613 . S
S722 N724 1.610 . S
N723 S722 1.613 . S
N723 C726 1.350 . S
N724 S722 1.610 . S
N724 C725 1.351 . S
C725 C719 1.428 . S
C725 N724 1.351 . S
C725 C726 1.434 . S
C726 C717 1.429 . S
C726 N723 1.350 . S
C726 C725 1.434 . S
C727 C728 1.369 . S
C727 C729 1.419 . S
C727 H731 0.930 . S
C728 C727 1.369 . S
C728 C737 1.429 . S
C729 C727 1.419 . S
C729 C730 1.363 . S
C729 H732 0.929 . S
C730 C729 1.363 . S
C730 C736 1.428 . S
H731 C727 0.930 . S
H732 C729 0.929 . S
S733 N734 1.613 . S
S733 N735 1.610 1_554 S
N734 S733 1.613 . S
N734 C737 1.350 1_554 S
N735 S733 1.610 1_556 S
N735 C736 1.351 . S
C736 C730 1.428 . S
C736 N735 1.351 . S
C736 C737 1.434 . S
C737 C728 1.429 . S
C737 N734 1.350 1_556 S
C737 C736 1.434 . S
C738 C739 1.369 . S
C738 C740 1.419 . S
C738 H742 0.930 . S
C739 C738 1.369 . S
C739 C748 1.429 . S
C740 C738 1.419 . S
C740 C741 1.363 . S
C740 H743 0.929 . S
C741 C740 1.363 . S
C741 C747 1.428 . S
H742 C738 0.930 . S
H743 C740 0.929 . S
S744 N745 1.613 . S
S744 N746 1.610 . S
N745 S744 1.613 . S
N745 C748 1.350 . S
N746 S744 1.610 . S
N746 C747 1.351 . S
C747 C741 1.428 . S
C747 N746 1.351 . S
C747 C748 1.434 . S
C748 C739 1.429 . S
C748 N745 1.350 . S
C748 C747 1.434 . S
C749 C750 1.369 . S
C749 C751 1.419 . S
C749 H753 0.930 . S
C750 C749 1.369 . S
C750 C759 1.429 . S
C751 C749 1.419 . S
C751 C752 1.363 . S
C751 H754 0.929 . S
C752 C751 1.363 . S
C752 C758 1.428 . S
H753 C749 0.930 . S
H754 C751 0.929 . S
S755 N756 1.613 1_556 S
S755 N757 1.610 1_556 S
N756 S755 1.613 1_554 S
N756 C759 1.350 . S
N757 S755 1.610 1_554 S
N757 C758 1.351 . S
C758 C752 1.428 . S
C758 N757 1.351 . S
C758 C759 1.434 . S
C759 C750 1.429 . S
C759 N756 1.350 . S
C759 C758 1.434 . S
C760 C761 1.369 . S
C760 C762 1.419 1_565 S
C760 H764 0.930 . S
C761 C760 1.369 . S
C761 C770 1.429 . S
C762 C760 1.419 1_545 S
C762 C763 1.363 . S
C762 H765 0.929 . S
C763 C762 1.363 . S
C763 C769 1.428 . S
H764 C760 0.930 . S
H765 C762 0.929 . S
S766 N767 1.613 1_545 S
S766 N768 1.610 . S
N767 S766 1.613 1_565 S
N767 C770 1.350 . S
N768 S766 1.610 . S
N768 C769 1.351 . S
C769 C763 1.428 . S
C769 N768 1.351 . S
C769 C770 1.434 1_545 S
C770 C761 1.429 . S
C770 N767 1.350 . S
C770 C769 1.434 1_565 S
C771 C772 1.369 . S
C771 C773 1.419 . S
C771 H775 0.930 . S
C772 C771 1.369 . S
C772 C781 1.429 . S
C773 C771 1.419 . S
C773 C774 1.363 . S
C773 H776 0.929 . S
C774 C773 1.363 . S
C774 C780 1.428 . S
H775 C771 0.930 . S
H776 C773 0.929 . S
S777 N778 1.613 . S
S777 N779 1.610 . S
N778 S777 1.613 . S
N778 C781 1.350 . S
N779 S777 1.610 . S
N779 C780 1.351 . S
C780 C774 1.428 . S
C780 N779 1.351 . S
C780 C781 1.434 . S
C781 C772 1.429 . S
C781 N778 1.350 . S
C781 C780 1.434 . S
C782 C783 1.369 . S
C782 C784 1.419 1_565 S
C782 H786 0.930 . S
C783 C782 1.369 . S
C783 C792 1.429 1_554 S
C784 C782 1.419 1_545 S
C784 C785 1.363 . S
C784 H787 0.929 . S
C785 C784 1.363 . S
C785 C791 1.428 1_544 S
H786 C782 0.930 . S
H787 C784 0.929 . S
S788 N789 1.613 . S
S788 N790 1.578 1_565 S
N789 S788 1.613 . S
N789 C792 1.350 . S
N790 S788 1.578 1_545 S
N790 C791 1.340 1_545 S
C791 C785 1.428 1_566 S
C791 N790 1.340 1_565 S
C791 C792 1.434 . S
C792 C783 1.429 1_556 S
C792 N789 1.350 . S
C792 C791 1.434 . S
C793 C794 1.369 . S
C793 C795 1.419 . S
C793 H797 0.930 . S
C794 C793 1.369 . S
C794 C803 1.429 . S
C795 C793 1.419 . S
C795 C796 1.363 . S
C795 H798 0.929 . S
C796 C795 1.363 . S
C796 C802 1.428 . S
H797 C793 0.930 . S
H798 C795 0.929 . S
S799 N800 1.613 . S
S799 N801 1.610 . S
N800 S799 1.613 . S
N800 C803 1.350 . S
N801 S799 1.610 . S
N801 C802 1.351 . S
C802 C796 1.428 . S
C802 N801 1.351 . S
C802 C803 1.434 . S
C803 C794 1.429 . S
C803 N800 1.350 . S
C803 C802 1.434 . S
C804 C805 1.369 1_545 S
C804 C806 1.419 . S
C804 H808 0.930 1_545 S
C805 C804 1.369 1_565 S
C805 C814 1.429 1_565 S
C806 C804 1.419 . S
C806 C807 1.363 . S
C806 H809 0.929 . S
C807 C806 1.363 . S
C807 C813 1.428 . S
H808 C804 0.930 1_565 S
H809 C806 0.929 . S
S810 N811 1.613 . S
S810 N812 1.610 . S
N811 S810 1.613 . S
N811 C814 1.350 . S
N812 S810 1.610 . S
N812 C813 1.351 . S
C813 C807 1.428 . S
C813 N812 1.351 . S
C813 C814 1.434 . S
C814 C805 1.429 1_545 S
C814 N811 1.350 . S
C814 C813 1.434 . S
C815 C816 1.369 . S
C815 C817 1.419 . S
C815 H819 0.930 . S
C816 C815 1.369 . S
C816 C825 1.429 . S
C817 C815 1.419 . S
C817 C818 1.363 . S
C817 H820 0.929 . S
C818 C817 1.363 . S
C818 C824 1.428 . S
H819 C815 0.930 . S
H820 C817 0.929 . S
S821 N822 1.613 . S
S821 N823 1.610 . S
N822 S821 1.613 . S
N822 C825 1.350 . S
N823 S821 1.610 . S
N823 C824 1.351 . S
C824 C818 1.428 . S
C824 N823 1.351 . S
C824 C825 1.434 . S
C825 C816 1.429 . S
C825 N822 1.350 . S
C825 C824 1.434 . S
C826 C827 1.369 . S
C826 C828 1.419 1_545 S
C826 H830 0.930 1_554 S
C827 C826 1.369 . S
C827 C836 1.429 . S
C828 C826 1.419 1_565 S
C828 C829 1.363 . S
C828 H831 0.928 1_554 S
C829 C828 1.363 . S
C829 C835 1.428 . S
H830 C826 0.930 1_556 S
H831 C828 0.928 1_556 S
S832 N833 1.613 1_565 S
S832 N834 1.610 . S
N833 S832 1.613 1_545 S
N833 C836 1.350 . S
N834 S832 1.610 . S
N834 C835 1.351 . S
C835 C829 1.428 . S
C835 N834 1.351 . S
C835 C836 1.434 1_565 S
C836 C827 1.429 . S
C836 N833 1.350 . S
C836 C835 1.434 1_545 S
C837 C838 1.369 . S
C837 C839 1.419 . S
C837 H841 0.930 . S
C838 C837 1.369 . S
C838 C847 1.429 . S
C839 C837 1.419 . S
C839 C840 1.363 . S
C839 H842 0.929 . S
C840 C839 1.363 . S
C840 C846 1.428 . S
H841 C837 0.930 . S
H842 C839 0.929 . S
S843 N844 1.613 . S
S843 N845 1.610 . S
N844 S843 1.613 . S
N844 C847 1.350 . S
N845 S843 1.610 . S
N845 C846 1.351 . S
C846 C840 1.428 . S
C846 N845 1.351 . S
C846 C847 1.434 . S
C847 C838 1.429 . S
C847 N844 1.350 . S
C847 C846 1.434 . S
C321 C8 1.683 . S
C323 C19 1.694 . S
C332 C39 1.664 . S
C334 C28 1.657 . S
C343 C48 1.631 . S
C345 C59 1.641 . S
C354 C68 1.667 . S
C356 C79 1.659 . S
C365 C88 1.669 . S
C367 C99 1.659 . S
C376 C108 1.646 . S
C378 C119 1.655 . S
C387 C139 1.667 . S
C389 C128 1.664 . S
C398 C159 1.715 1_554 S
C400 C148 1.727 . S
C409 C179 1.708 . S
C411 C168 1.696 . S
C420 C199 1.664 . S
C422 C188 1.664 1_554 S
C431 C208 1.634 . S
C433 C219 1.641 . S
C442 C239 1.656 . S
C444 C228 1.667 . S
C453 C259 1.661 . S
C455 C248 1.665 . S
C464 C279 1.659 . S
C466 C268 1.650 . S
C475 C288 1.666 . S
C477 C299 1.660 . S
C486 C319 1.720 . S
C488 C308 1.708 . S
C497 C1 1.609 . S
C499 C226 1.451 . S
C508 C36 1.787 . S
C510 C309 1.936 . S
C519 C41 1.623 . S
C521 C189 1.553 . S
C530 C61 1.938 . S
C532 C269 1.998 . S
C541 C81 1.601 . S
C543 C266 1.434 . S
C552 C229 1.931 . S
C554 C116 1.756 . S
C563 C136 1.448 . S
C565 C306 1.362 . S
C574 C156 1.663 . S
C576 C186 1.761 . S
C585 C76 1.701 . S
C587 C169 1.785 . S
C596 C21 1.884 . S
C598 C209 1.887 . S
C607 C249 1.788 . S
C609 C101 1.766 . S
C618 C141 1.617 . S
C620 C286 1.585 . S
C629 C166 1.493 . S
C631 C96 1.487 . S
C640 C121 1.581 . S
C642 C206 1.503 . S
C651 C56 1.617 . S
C653 C289 1.667 . S
C662 C16 1.635 . S
C664 C246 1.580 . S
C673 C9 1.323 . S
C675 C89 1.316 1_554 S
C684 C26 1.626 . S
C686 C106 1.633 . S
C695 C49 1.368 . S
C697 C126 1.337 . S
C706 C69 1.694 . S
C708 C146 1.644 . S
C717 C241 1.655 . S
C719 C161 1.665 . S
C728 C261 1.718 . S
C730 C196 1.675 . S
C739 C201 1.679 . S
C741 C296 1.619 . S
C750 C301 1.721 . S
C752 C221 1.707 . S
C761 C29 1.707 . S
C763 C149 1.720 . S
C772 C86 1.372 . S
C774 C46 1.352 . S
C783 C109 1.736 . S
C785 C66 1.675 . S
C794 C6 1.337 . S
C796 C129 1.396 . S
C805 C316 1.348 . S
C807 C181 1.404 . S
C816 C256 1.419 . S
C818 C216 1.413 . S
C827 C276 1.373 1_554 S
C829 C236 1.369 . S
C838 C281 1.436 . S
C840 C176 1.396 . S
