# Generated by pormake.
# Topology uov, (4)-cn, num edge types: 1
# Building blocks:
#     Node 0, Type 0, BuildingBlock: ICAMEG_clean_sbu_1, # of connection points: 4
#     Node 1, Type 0, BuildingBlock: ICAMEG_clean_sbu_1, # of connection points: 4
#     Node 2, Type 0, BuildingBlock: ICAMEG_clean_sbu_1, # of connection points: 4
#     Node 3, Type 0, BuildingBlock: ICAMEG_clean_sbu_1, # of connection points: 4
#     Node 4, Type 0, BuildingBlock: ICAMEG_clean_sbu_1, # of connection points: 4
#     Node 5, Type 0, BuildingBlock: ICAMEG_clean_sbu_1, # of connection points: 4
#     Node 6, Type 0, BuildingBlock: ICAMEG_clean_sbu_1, # of connection points: 4
#     Node 7, Type 0, BuildingBlock: ICAMEG_clean_sbu_1, # of connection points: 4
#     Edge 8, Type (0, 0), BuildingBlock: XIVTED_clean_linker_0, # of connection points: 2
#     Edge 9, Type (0, 0), BuildingBlock: XIVTED_clean_linker_0, # of connection points: 2
#     Edge 10, Type (0, 0), BuildingBlock: XIVTED_clean_linker_0, # of connection points: 2
#     Edge 11, Type (0, 0), BuildingBlock: XIVTED_clean_linker_0, # of connection points: 2
#     Edge 12, Type (0, 0), BuildingBlock: XIVTED_clean_linker_0, # of connection points: 2
#     Edge 13, Type (0, 0), BuildingBlock: XIVTED_clean_linker_0, # of connection points: 2
#     Edge 14, Type (0, 0), BuildingBlock: XIVTED_clean_linker_0, # of connection points: 2
#     Edge 15, Type (0, 0), BuildingBlock: XIVTED_clean_linker_0, # of connection points: 2
#     Edge 16, Type (0, 0), BuildingBlock: XIVTED_clean_linker_0, # of connection points: 2
#     Edge 17, Type (0, 0), BuildingBlock: XIVTED_clean_linker_0, # of connection points: 2
#     Edge 18, Type (0, 0), BuildingBlock: XIVTED_clean_linker_0, # of connection points: 2
#     Edge 19, Type (0, 0), BuildingBlock: XIVTED_clean_linker_0, # of connection points: 2
#     Edge 20, Type (0, 0), BuildingBlock: XIVTED_clean_linker_0, # of connection points: 2
#     Edge 21, Type (0, 0), BuildingBlock: XIVTED_clean_linker_0, # of connection points: 2
#     Edge 22, Type (0, 0), BuildingBlock: XIVTED_clean_linker_0, # of connection points: 2
#     Edge 23, Type (0, 0), BuildingBlock: XIVTED_clean_linker_0, # of connection points: 2
# Relax obj value: 0.050
# Max RMSD: 0.045
# Mean RMSD: 0.045
data_MOF--net-uov--node1-ICAMEG_clean_sbu_1--edge1-XIVTED_clean_linker_0
_symmetry_space_group_name_H-M    P1
_symmetry_Int_Tables_number       1
_symmetry_cell_setting            triclinic
loop_
_symmetry_equiv_pos_as_xyz
'x, y, z'
_cell_length_a     31.963305
_cell_length_b     31.977445
_cell_length_c     47.427987
_cell_angle_alpha  90.013776
_cell_angle_beta   89.992638
_cell_angle_gamma 90.007478
loop_
_atom_site_label
_atom_site_type_symbol
_atom_site_fract_x
_atom_site_fract_y
_atom_site_fract_z
_atom_type_partial_charge
Co0 Co 0.06702 0.21819 0.60935 0.0
Co1 Co 0.11348 0.29017 0.56438 0.0
O2 O 0.09394 0.27207 0.60172 0.0
C3 C 0.13812 0.22183 0.65056 0.0
O4 O 0.16057 0.24417 0.63296 0.0
C5 C 0.05244 0.35451 0.582 0.0
O6 O 0.03011 0.32448 0.59331 0.0
O7 O 0.06123 0.27047 0.54553 0.0
O8 O 0.03154 0.22437 0.57517 0.0
H9 H 0.14274 0.27313 0.46091 0.0
H10 H 0.06987 0.28327 0.65382 0.0
O11 O 0.10128 0.21012 0.64412 0.0
H12 H 0.91996 0.25494 0.63839 0.0
H13 H 0.0017 0.10767 0.67097 0.0
H14 H 0.04284 0.14563 0.57408 0.0
H15 H 0.97371 0.21626 0.6117 0.0
H16 H 0.03449 0.17594 0.6611 0.0
O17 O 0.08698 0.34642 0.56977 0.0
H18 H 0.11796 0.25085 0.50781 0.0
H19 H 0.15112 0.36893 0.54222 0.0
H20 H 0.00982 0.07715 0.58298 0.0
H21 H 0.01721 0.32234 0.68123 0.0
H22 H 0.98905 0.05778 0.63173 0.0
H23 H 0.94163 0.30839 0.67349 0.0
O24 O 0.1104 0.18759 0.58715 0.0
H25 H 0.19633 0.36761 0.63774 0.0
H26 H 0.20452 0.27874 0.55292 0.0
H27 H 0.26958 0.30232 0.57592 0.0
H28 H 0.26573 0.34717 0.61861 0.0
H29 H 0.13204 0.34296 0.61424 0.0
H30 H 0.17594 0.39262 0.49563 0.0
H31 H 0.17198 0.34449 0.4546 0.0
O32 O 0.13972 0.23459 0.55796 0.0
C33 C 0.03235 0.24482 0.55216 0.0
C34 C 0.14474 0.29434 0.47864 0.0
C35 C 0.16333 0.36143 0.49813 0.0
N36 N 0.13336 0.30845 0.52776 0.0
C37 C 0.13086 0.28187 0.50527 0.0
C38 C 0.14914 0.34787 0.52444 0.0
C39 C 0.16111 0.3344 0.47511 0.0
C40 C 0.03706 0.27674 0.65053 0.0
N41 N 0.02487 0.24754 0.63116 0.0
C42 C 0.00737 0.29909 0.66603 0.0
C43 C 0.96497 0.29129 0.66164 0.0
C44 C 0.95279 0.26135 0.64193 0.0
C45 C 0.98335 0.23967 0.62678 0.0
C46 C 0.01054 0.11578 0.64963 0.0
C47 C 0.03362 0.13753 0.59532 0.0
C48 C 0.0292 0.15436 0.64392 0.0
N49 N 0.04031 0.16487 0.617 0.0
C50 C 0.01505 0.09867 0.60024 0.0
C51 C 0.00344 0.08781 0.6276 0.0
C52 C 0.13609 0.19759 0.56767 0.0
C53 C 0.19842 0.34818 0.6191 0.0
C54 C 0.20258 0.29809 0.57156 0.0
C55 C 0.23953 0.31145 0.58445 0.0
C56 C 0.23735 0.33664 0.60838 0.0
N57 N 0.16453 0.30961 0.58218 0.0
C58 C 0.16213 0.33429 0.60564 0.0
Co59 Co 0.21511 0.93388 0.3912 0.0
Co60 Co 0.28874 0.88629 0.43429 0.0
O61 O 0.26929 0.90694 0.39758 0.0
C62 C 0.21688 0.86454 0.34876 0.0
O63 O 0.23556 0.83987 0.36695 0.0
C64 C 0.35286 0.94707 0.41626 0.0
O65 O 0.32234 0.97031 0.40648 0.0
O66 O 0.27074 0.93841 0.45399 0.0
O67 O 0.22159 0.9674 0.42629 0.0
H68 H 0.27625 0.85527 0.53782 0.0
H69 H 0.27955 0.93435 0.34624 0.0
O70 O 0.20715 0.90183 0.35549 0.0
H71 H 0.2499 0.08285 0.36587 0.0
H72 H 0.10297 0.00204 0.33235 0.0
H73 H 0.14281 0.95487 0.42763 0.0
H74 H 0.21209 0.02718 0.39129 0.0
H75 H 0.17181 0.96954 0.3408 0.0
O76 O 0.34516 0.91201 0.42789 0.0
H77 H 0.25213 0.88138 0.49167 0.0
H78 H 0.36787 0.84687 0.45433 0.0
H79 H 0.07377 0.98755 0.42017 0.0
H80 H 0.31773 0.98898 0.32005 0.0
H81 H 0.05345 0.01132 0.37224 0.0
H82 H 0.30314 0.06385 0.32992 0.0
O83 O 0.18533 0.88897 0.41251 0.0
H84 H 0.36052 0.80378 0.3582 0.0
H85 H 0.27645 0.79525 0.44522 0.0
H86 H 0.2975 0.73034 0.42096 0.0
H87 H 0.3399 0.73437 0.37715 0.0
H88 H 0.33848 0.86793 0.38301 0.0
H89 H 0.39339 0.82069 0.50013 0.0
H90 H 0.34737 0.82466 0.54226 0.0
O91 O 0.233 0.86082 0.44174 0.0
C92 C 0.2438 0.96664 0.44857 0.0
C93 C 0.29656 0.85326 0.51961 0.0
C94 C 0.36232 0.8339 0.49846 0.0
N95 N 0.30844 0.86537 0.4703 0.0
C96 C 0.28303 0.86789 0.49341 0.0
C97 C 0.34773 0.84885 0.4726 0.0
C98 C 0.33648 0.83612 0.52208 0.0
C99 C 0.27275 0.96686 0.35047 0.0
N100 N 0.24372 0.97757 0.37035 0.0
C101 C 0.29459 0.99765 0.33565 0.0
C102 C 0.28643 0.03966 0.34123 0.0
C103 C 0.25661 0.05034 0.36142 0.0
C104 C 0.23545 0.0187 0.37586 0.0
C105 C 0.11147 0.99183 0.35334 0.0
C106 C 0.13428 0.96538 0.40674 0.0
C107 C 0.15037 0.97329 0.35824 0.0
N108 N 0.16139 0.96048 0.38471 0.0
C109 C 0.09511 0.98376 0.40264 0.0
C110 C 0.08371 0.99706 0.37573 0.0
C111 C 0.19584 0.86379 0.43216 0.0
C112 C 0.34215 0.80162 0.37732 0.0
C113 C 0.29479 0.79727 0.42611 0.0
C114 C 0.3067 0.7604 0.41251 0.0
C115 C 0.33052 0.76268 0.38794 0.0
N116 N 0.30641 0.83533 0.41559 0.0
C117 C 0.32974 0.83783 0.39152 0.0
Co118 Co 0.93277 0.78483 0.61081 0.0
Co119 Co 0.88525 0.71238 0.56673 0.0
O120 O 0.90544 0.73102 0.60375 0.0
C121 C 0.86086 0.78371 0.65104 0.0
O122 O 0.83818 0.76314 0.63261 0.0
C123 C 0.94634 0.64816 0.58442 0.0
O124 O 0.96885 0.67832 0.59541 0.0
O125 O 0.93728 0.73161 0.54738 0.0
O126 O 0.96805 0.77768 0.57657 0.0
H127 H 0.85456 0.72766 0.46333 0.0
H128 H 0.92954 0.72089 0.65597 0.0
O129 O 0.89853 0.79372 0.64552 0.0
H130 H 0.07963 0.74733 0.63982 0.0
H131 H 0.99896 0.89607 0.67141 0.0
H132 H 0.95745 0.85649 0.57488 0.0
H133 H 0.0261 0.78592 0.61289 0.0
H134 H 0.96563 0.82786 0.66215 0.0
O135 O 0.91166 0.65612 0.57234 0.0
H136 H 0.88013 0.75068 0.50988 0.0
H137 H 0.84693 0.6334 0.54546 0.0
H138 H 0.991 0.92489 0.58316 0.0
H139 H 0.98198 0.68191 0.68362 0.0
H140 H 0.01195 0.94507 0.63173 0.0
H141 H 0.05764 0.69491 0.67552 0.0
O142 O 0.88958 0.8153 0.58842 0.0
H143 H 0.80333 0.63713 0.64156 0.0
H144 H 0.79407 0.72377 0.55578 0.0
H145 H 0.7293 0.70109 0.57957 0.0
H146 H 0.7337 0.65739 0.62276 0.0
H147 H 0.86732 0.66082 0.61724 0.0
H148 H 0.82131 0.60898 0.49924 0.0
H149 H 0.82489 0.65633 0.45779 0.0
O150 O 0.85908 0.76793 0.56006 0.0
C151 C 0.96658 0.757 0.55364 0.0
C152 C 0.85272 0.70678 0.48125 0.0
C153 C 0.8341 0.64015 0.50139 0.0
N154 N 0.86474 0.69353 0.53039 0.0
C155 C 0.86704 0.71968 0.50767 0.0
C156 C 0.84874 0.65412 0.5275 0.0
C157 C 0.83611 0.66674 0.47815 0.0
C158 C 0.96239 0.72699 0.65252 0.0
N159 N 0.97475 0.75561 0.63282 0.0
C160 C 0.99195 0.7047 0.66816 0.0
C161 C 0.0344 0.71197 0.66357 0.0
C162 C 0.04675 0.74134 0.64352 0.0
C163 C 0.01632 0.76297 0.62824 0.0
C164 C 0.99004 0.8876 0.65015 0.0
C165 C 0.96676 0.86494 0.59604 0.0
C166 C 0.97108 0.84906 0.64478 0.0
N167 N 0.95988 0.83809 0.61796 0.0
C168 C 0.98562 0.90375 0.60061 0.0
C169 C 0.99733 0.91508 0.62787 0.0
C170 C 0.86335 0.80512 0.56933 0.0
C171 C 0.801 0.65606 0.62271 0.0
C172 C 0.79624 0.70487 0.57461 0.0
C173 C 0.75946 0.69204 0.58795 0.0
C174 C 0.76195 0.66749 0.61217 0.0
N175 N 0.83442 0.69345 0.58505 0.0
C176 C 0.83712 0.6694 0.60879 0.0
Co177 Co 0.78449 0.06338 0.38948 0.0
Co178 Co 0.71196 0.11284 0.43259 0.0
O179 O 0.73095 0.09169 0.39584 0.0
C180 C 0.78472 0.13355 0.34773 0.0
O181 O 0.7636 0.15732 0.36523 0.0
C182 C 0.64678 0.05267 0.41494 0.0
O183 O 0.67662 0.02943 0.40425 0.0
O184 O 0.72971 0.06078 0.45248 0.0
O185 O 0.77627 0.02923 0.42404 0.0
H186 H 0.72577 0.14477 0.53592 0.0
H187 H 0.72117 0.06612 0.34388 0.0
O188 O 0.79448 0.09626 0.35437 0.0
H189 H 0.74545 0.91627 0.36211 0.0
H190 H 0.89578 0.99375 0.33066 0.0
H191 H 0.85527 0.03891 0.42627 0.0
H192 H 0.78437 0.97004 0.38862 0.0
H193 H 0.82785 0.02821 0.33893 0.0
O194 O 0.65527 0.08746 0.4267 0.0
H195 H 0.7492 0.118 0.48977 0.0
H196 H 0.63338 0.15316 0.45284 0.0
H197 H 0.92337 0.00424 0.41897 0.0
H198 H 0.68191 0.0134 0.31663 0.0
H199 H 0.94403 0.98147 0.37087 0.0
H200 H 0.69383 0.93786 0.32578 0.0
O201 O 0.81527 0.10681 0.41153 0.0
H202 H 0.63953 0.19496 0.35663 0.0
H203 H 0.72512 0.20391 0.44294 0.0
H204 H 0.7041 0.26869 0.41853 0.0
H205 H 0.66092 0.26445 0.37508 0.0
H206 H 0.66158 0.13095 0.38157 0.0
H207 H 0.60855 0.17999 0.49865 0.0
H208 H 0.65496 0.17603 0.54057 0.0
O209 O 0.76794 0.13798 0.4396 0.0
C210 C 0.75492 0.03117 0.44665 0.0
C211 C 0.7053 0.14679 0.51779 0.0
C212 C 0.63949 0.16651 0.49688 0.0
N213 N 0.69282 0.13431 0.4686 0.0
C214 C 0.71844 0.13179 0.49159 0.0
C215 C 0.65369 0.15119 0.47101 0.0
C216 C 0.66555 0.16429 0.52039 0.0
C217 C 0.7268 0.03331 0.34779 0.0
N218 N 0.755 0.02117 0.36783 0.0
C219 C 0.70436 0.0036 0.33238 0.0
C220 C 0.71102 0.96122 0.33755 0.0
C221 C 0.73994 0.94908 0.35796 0.0
C222 C 0.76176 0.97967 0.37299 0.0
C223 C 0.88711 0.00347 0.35172 0.0
C224 C 0.86392 0.02881 0.40531 0.0
C225 C 0.84872 0.02308 0.35653 0.0
N226 N 0.83749 0.03531 0.3831 0.0
C227 C 0.90257 0.00931 0.40129 0.0
C228 C 0.91416 0.99657 0.37429 0.0
C229 C 0.80519 0.13325 0.43052 0.0
C230 C 0.65824 0.19722 0.37559 0.0
C231 C 0.70646 0.20181 0.42398 0.0
C232 C 0.69457 0.2386 0.4103 0.0
C233 C 0.67031 0.2362 0.38593 0.0
N234 N 0.69442 0.1637 0.41374 0.0
C235 C 0.67066 0.16109 0.38986 0.0
Co236 Co 0.94338 0.21846 0.11097 0.0
Co237 Co 0.88622 0.28363 0.06724 0.0
O238 O 0.91144 0.26915 0.10351 0.0
C239 C 0.87484 0.217 0.15342 0.0
O240 O 0.84885 0.23065 0.13406 0.0
C241 C 0.9467 0.3507 0.07865 0.0
O242 O 0.97314 0.32069 0.08478 0.0
O243 O 0.93722 0.26617 0.04571 0.0
O244 O 0.97446 0.22517 0.07497 0.0
H245 H 0.84506 0.26021 0.9662 0.0
H246 H 0.93977 0.28617 0.15361 0.0
O247 O 0.91316 0.21061 0.14747 0.0
H248 H 0.08949 0.26896 0.13137 0.0
H249 H 0.02307 0.1176 0.17233 0.0
H250 H 0.97059 0.14608 0.07646 0.0
H251 H 0.03648 0.22411 0.10869 0.0
H252 H 0.98384 0.18228 0.16216 0.0
O253 O 0.90958 0.34173 0.07085 0.0
H254 H 0.877 0.2415 0.01183 0.0
H255 H 0.84137 0.35897 0.04604 0.0
H256 H 0.00995 0.08115 0.08564 0.0
H257 H 0.99174 0.33144 0.177 0.0
H258 H 0.03644 0.06654 0.13388 0.0
H259 H 0.0672 0.32308 0.16582 0.0
O260 O 0.90077 0.18334 0.09144 0.0
H261 H 0.80737 0.35755 0.14421 0.0
H262 H 0.79514 0.26601 0.06093 0.0
H263 H 0.73159 0.28569 0.08728 0.0
H264 H 0.73748 0.33184 0.12923 0.0
H265 H 0.87014 0.33679 0.11739 0.0
H266 H 0.80933 0.37911 0.00071 0.0
H267 H 0.81092 0.32946 0.96043 0.0
O268 O 0.86324 0.22585 0.06324 0.0
C269 C 0.96886 0.24336 0.05139 0.0
C270 C 0.84406 0.28206 0.98361 0.0
C271 C 0.82406 0.34882 0.00297 0.0
N272 N 0.86078 0.299 0.03161 0.0
C273 C 0.86199 0.2716 0.00952 0.0
C274 C 0.84233 0.33729 0.02857 0.0
C275 C 0.82494 0.32094 0.98038 0.0
C276 C 0.97258 0.2821 0.14884 0.0
N277 N 0.98509 0.25248 0.12986 0.0
C278 C 0.00185 0.30792 0.16207 0.0
C279 C 0.04418 0.30325 0.15576 0.0
C280 C 0.0567 0.27292 0.13642 0.0
C281 C 0.02654 0.24769 0.12358 0.0
C282 C 0.01171 0.12361 0.15122 0.0
C283 C 0.98223 0.14006 0.09747 0.0
C284 C 0.98937 0.16013 0.14536 0.0
N285 N 0.97506 0.16801 0.11872 0.0
C286 C 0.0044 0.10319 0.10256 0.0
C287 C 0.01922 0.095 0.12963 0.0
C288 C 0.87196 0.18984 0.0733 0.0
C289 C 0.80438 0.33751 0.12593 0.0
C290 C 0.79797 0.28598 0.07921 0.0
C291 C 0.76186 0.29711 0.09401 0.0
C292 C 0.76519 0.32303 0.11753 0.0
N293 N 0.83629 0.30036 0.08755 0.0
C294 C 0.8398 0.32579 0.11059 0.0
Co295 Co 0.21414 0.06209 0.88803 0.0
Co296 Co 0.28511 0.11158 0.93214 0.0
O297 O 0.26781 0.08951 0.89535 0.0
C298 C 0.21715 0.13071 0.84534 0.0
O299 O 0.23218 0.15637 0.86444 0.0
C300 C 0.35103 0.0512 0.91632 0.0
O301 O 0.3215 0.02719 0.90601 0.0
O302 O 0.26648 0.05989 0.95212 0.0
O303 O 0.21877 0.02975 0.92378 0.0
H304 H 0.26676 0.14596 0.03479 0.0
H305 H 0.28108 0.06053 0.84475 0.0
O306 O 0.2084 0.09305 0.8517 0.0
H307 H 0.25063 0.91253 0.86552 0.0
H308 H 0.10555 0.99195 0.82721 0.0
H309 H 0.13997 0.04167 0.92287 0.0
H310 H 0.21136 0.96883 0.88927 0.0
H311 H 0.17377 0.02497 0.837 0.0
O312 O 0.34208 0.08632 0.92746 0.0
H313 H 0.24533 0.11818 0.98847 0.0
H314 H 0.36283 0.1523 0.95352 0.0
H315 H 0.07151 0.00849 0.91407 0.0
H316 H 0.32073 0.00527 0.82021 0.0
H317 H 0.05391 0.98343 0.86594 0.0
H318 H 0.30573 0.93065 0.83065 0.0
O319 O 0.18291 0.10747 0.90792 0.0
H320 H 0.35961 0.19222 0.85634 0.0
H321 H 0.27184 0.20286 0.94156 0.0
H322 H 0.29346 0.26716 0.91681 0.0
H323 H 0.33773 0.26206 0.8739 0.0
H324 H 0.33697 0.1287 0.88162 0.0
H325 H 0.38567 0.18014 0.99953 0.0
H326 H 0.3374 0.17721 0.04054 0.0
O327 O 0.22886 0.1368 0.93784 0.0
C328 C 0.23991 0.03134 0.94653 0.0
C329 C 0.28803 0.14752 0.01706 0.0
C330 C 0.35479 0.16665 0.99728 0.0
N331 N 0.30269 0.13386 0.96828 0.0
C332 C 0.27604 0.13193 0.99077 0.0
C333 C 0.34172 0.15075 0.9713 0.0
C334 C 0.32769 0.16501 0.02028 0.0
C335 C 0.27413 0.02813 0.84924 0.0
N336 N 0.24407 0.0179 0.86853 0.0
C337 C 0.29679 0.99697 0.83535 0.0
C338 C 0.28841 0.95512 0.84125 0.0
C339 C 0.25754 0.94493 0.86084 0.0
C340 C 0.23557 0.97692 0.87435 0.0
C341 C 0.11287 0.00271 0.84828 0.0
C342 C 0.13264 0.03058 0.90191 0.0
C343 C 0.1514 0.02155 0.85393 0.0
N344 N 0.16092 0.03506 0.88051 0.0
C345 C 0.09379 0.01193 0.89704 0.0
C346 C 0.08392 0.99792 0.87002 0.0
C347 C 0.19226 0.13335 0.92743 0.0
C348 C 0.34042 0.19485 0.87506 0.0
C349 C 0.291 0.20039 0.92286 0.0
C350 C 0.30322 0.2369 0.90897 0.0
C351 C 0.32808 0.23402 0.8849 0.0
N352 N 0.30331 0.16208 0.91311 0.0
C353 C 0.32765 0.15901 0.88953 0.0
Co354 Co 0.06155 0.78523 0.11053 0.0
Co355 Co 0.10952 0.71149 0.06788 0.0
O356 O 0.08855 0.73112 0.10437 0.0
C357 C 0.13109 0.78351 0.15277 0.0
O358 O 0.15515 0.76353 0.13485 0.0
C359 C 0.0471 0.64757 0.0834 0.0
O360 O 0.02142 0.67845 0.08916 0.0
O361 O 0.05735 0.7291 0.04796 0.0
O362 O 0.02784 0.77811 0.07558 0.0
H363 H 0.14076 0.72227 0.96429 0.0
H364 H 0.06166 0.72041 0.15518 0.0
O365 O 0.09392 0.79377 0.14607 0.0
H366 H 0.91286 0.75074 0.13694 0.0
H367 H 0.99396 0.89793 0.16918 0.0
H368 H 0.03955 0.85682 0.07378 0.0
H369 H 0.96824 0.78862 0.11125 0.0
H370 H 0.02666 0.82915 0.16093 0.0
O371 O 0.08419 0.65518 0.07501 0.0
H372 H 0.11446 0.74711 0.01022 0.0
H373 H 0.14924 0.63218 0.04848 0.0
H374 H 0.00662 0.92577 0.08104 0.0
H375 H 0.00735 0.68209 0.1816 0.0
H376 H 0.98363 0.94673 0.12904 0.0
H377 H 0.93232 0.69707 0.17245 0.0
O378 O 0.1062 0.815 0.08896 0.0
H379 H 0.19233 0.6406 0.1442 0.0
H380 H 0.20055 0.72418 0.057 0.0
H381 H 0.26557 0.70353 0.08128 0.0
H382 H 0.2617 0.66135 0.12518 0.0
H383 H 0.12806 0.66229 0.11939 0.0
H384 H 0.17561 0.60595 0.0029 0.0
H385 H 0.1716 0.6512 0.96042 0.0
O386 O 0.13475 0.76718 0.06004 0.0
C387 C 0.0288 0.75579 0.05333 0.0
C388 C 0.1428 0.7023 0.98266 0.0
C389 C 0.16231 0.637 0.00433 0.0
N390 N 0.13061 0.69125 0.03204 0.0
C391 C 0.12806 0.71625 0.00874 0.0
C392 C 0.14725 0.65199 0.03006 0.0
C393 C 0.16006 0.66241 0.9805 0.0
C394 C 0.02908 0.72727 0.15121 0.0
N395 N 0.01811 0.75661 0.13162 0.0
C396 C 0.99847 0.7054 0.16618 0.0
C397 C 0.95638 0.71379 0.16101 0.0
C398 C 0.94543 0.74386 0.14107 0.0
C399 C 0.97691 0.76507 0.12649 0.0
C400 C 0.0038 0.88914 0.14816 0.0
C401 C 0.02935 0.86561 0.09469 0.0
C402 C 0.02244 0.85027 0.14337 0.0
N403 N 0.03478 0.83889 0.11686 0.0
C404 C 0.01084 0.90473 0.09869 0.0
C405 C 0.99799 0.91649 0.12563 0.0
C406 C 0.13151 0.80443 0.06939 0.0
C407 C 0.19442 0.65889 0.12505 0.0
C408 C 0.1986 0.706 0.07616 0.0
C409 C 0.23553 0.69429 0.08978 0.0
C410 C 0.23333 0.6706 0.11439 0.0
N411 N 0.16056 0.69434 0.08673 0.0
C412 C 0.15815 0.67111 0.11085 0.0
Co413 Co 0.78793 0.93207 0.89209 0.0
Co414 Co 0.71094 0.89056 0.9342 0.0
O415 O 0.73103 0.91099 0.89771 0.0
C416 C 0.77787 0.87055 0.84564 0.0
O417 O 0.76285 0.84368 0.86396 0.0
C418 C 0.64692 0.95146 0.91611 0.0
O419 O 0.67746 0.97542 0.90717 0.0
O420 O 0.72871 0.94329 0.95297 0.0
O421 O 0.78881 0.95795 0.93052 0.0
H422 H 0.7213 0.86261 0.03821 0.0
H423 H 0.72371 0.95096 0.8488 0.0
O424 O 0.78893 0.90696 0.85354 0.0
H425 H 0.7713 0.08821 0.88373 0.0
H426 H 0.90446 0.99716 0.83564 0.0
H427 H 0.86485 0.93528 0.92704 0.0
H428 H 0.80176 0.02311 0.90255 0.0
H429 H 0.83248 0.97211 0.84382 0.0
O430 O 0.65467 0.91601 0.92713 0.0
H431 H 0.74632 0.88746 0.99195 0.0
H432 H 0.6315 0.85139 0.95399 0.0
H433 H 0.93707 0.9602 0.91983 0.0
H434 H 0.69284 0.01531 0.8291 0.0
H435 H 0.9573 0.99139 0.87385 0.0
H436 H 0.7165 0.08456 0.84667 0.0
O437 O 0.812 0.87991 0.90793 0.0
H438 H 0.64081 0.80659 0.85819 0.0
H439 H 0.72244 0.79967 0.94629 0.0
H440 H 0.70171 0.7343 0.92247 0.0
H441 H 0.66052 0.73752 0.87812 0.0
H442 H 0.66253 0.87121 0.88259 0.0
H443 H 0.60509 0.82647 0.99989 0.0
H444 H 0.6502 0.83185 0.04238 0.0
O445 O 0.76671 0.86473 0.94259 0.0
C446 C 0.76305 0.96323 0.95074 0.0
C447 C 0.7014 0.85996 0.01983 0.0
C448 C 0.63616 0.83973 0.99833 0.0
N449 N 0.69054 0.87054 0.97026 0.0
C450 C 0.71544 0.87387 0.99357 0.0
C451 C 0.65125 0.85396 0.97241 0.0
C452 C 0.66149 0.84275 0.02216 0.0
C453 C 0.73453 0.98098 0.85631 0.0
N454 N 0.76456 0.98325 0.87676 0.0
C455 C 0.71677 0.01731 0.84518 0.0
C456 C 0.73001 0.05615 0.85509 0.0
C457 C 0.76071 0.05822 0.87591 0.0
C458 C 0.77773 0.02123 0.88657 0.0
C459 C 0.89601 0.98371 0.85579 0.0
C460 C 0.87331 0.94908 0.90704 0.0
C461 C 0.85532 0.9694 0.86053 0.0
N462 N 0.84437 0.95253 0.88596 0.0
C463 C 0.9143 0.96302 0.90305 0.0
C464 C 0.92564 0.98048 0.87724 0.0
C465 C 0.80187 0.86003 0.93019 0.0
C466 C 0.65865 0.80478 0.87754 0.0
C467 C 0.70465 0.80133 0.92694 0.0
C468 C 0.69291 0.76421 0.91359 0.0
C469 C 0.66977 0.76604 0.88871 0.0
N470 N 0.69355 0.8392 0.91588 0.0
C471 C 0.67088 0.84125 0.8915 0.0
H472 H 0.99001 0.60961 0.62655 0.0
H473 H 0.06053 0.41359 0.54116 0.0
H474 H 0.93775 0.58864 0.54389 0.0
H475 H 0.00979 0.39368 0.62438 0.0
H476 H 0.03367 0.4856 0.54219 0.0
H477 H 0.01543 0.5368 0.62689 0.0
C478 C 0.98408 0.5897 0.6085 0.0
C479 C 0.96176 0.60482 0.58518 0.0
C480 C 0.02862 0.46534 0.56018 0.0
C481 C 0.99141 0.52287 0.5852 0.0
C482 C 0.04397 0.42454 0.55969 0.0
C483 C 0.03709 0.39788 0.58269 0.0
C484 C 0.00759 0.47983 0.5842 0.0
C485 C 0.01537 0.41336 0.60618 0.0
C486 C 0.99834 0.54839 0.60878 0.0
C487 C 0.95466 0.57793 0.56231 0.0
N488 N 0.00173 0.45367 0.60651 0.0
N489 N 0.96999 0.53831 0.5627 0.0
H490 H 0.58796 0.06269 0.45576 0.0
H491 H 0.38976 0.99165 0.3739 0.0
H492 H 0.60701 0.0088 0.37336 0.0
H493 H 0.41416 0.93705 0.45542 0.0
H494 H 0.46261 0.01702 0.37247 0.0
H495 H 0.5159 0.03582 0.45555 0.0
C496 C 0.5768 0.04549 0.43757 0.0
C497 C 0.60324 0.03771 0.41457 0.0
C498 C 0.45176 0.99941 0.39056 0.0
C499 C 0.52125 0.00817 0.41399 0.0
C500 C 0.41045 0.98516 0.39146 0.0
C501 C 0.39627 0.96223 0.41479 0.0
C502 C 0.47824 0.99185 0.41356 0.0
C503 C 0.42413 0.95444 0.43702 0.0
C504 C 0.53597 0.03013 0.43754 0.0
C505 C 0.58749 0.01513 0.39153 0.0
N506 N 0.46374 0.9698 0.43607 0.0
N507 N 0.54716 0.00148 0.39164 0.0
H508 H 0.89877 0.4216 0.07396 0.0
H509 H 0.09429 0.57643 0.0809 0.0
H510 H 0.02559 0.38022 0.08829 0.0
H511 H 0.96672 0.61895 0.08953 0.0
H512 H 0.06944 0.50427 0.08113 0.0
H513 H 0.92274 0.49423 0.07701 0.0
C514 C 0.93162 0.42777 0.07774 0.0
C515 C 0.96025 0.39479 0.08076 0.0
C516 C 0.04688 0.52936 0.08313 0.0
C517 C 0.98782 0.47767 0.08417 0.0
C518 C 0.06103 0.57059 0.08295 0.0
C519 C 0.03251 0.60379 0.08512 0.0
C520 C 0.00383 0.52116 0.08517 0.0
C521 C 0.9898 0.59431 0.08783 0.0
C522 C 0.94523 0.4692 0.07958 0.0
C523 C 0.00241 0.40461 0.08577 0.0
N524 N 0.9767 0.55384 0.08756 0.0
N525 N 0.01493 0.44513 0.08715 0.0
H526 H 0.41029 0.06343 0.95658 0.0
H527 H 0.60957 0.99737 0.8745 0.0
H528 H 0.39105 0.00736 0.87487 0.0
H529 H 0.58579 0.9394 0.95505 0.0
H530 H 0.53626 0.02156 0.87339 0.0
H531 H 0.48307 0.03851 0.95591 0.0
C532 C 0.42155 0.04614 0.93845 0.0
C533 C 0.39485 0.03714 0.9158 0.0
C534 C 0.54738 0.00351 0.8912 0.0
C535 C 0.47762 0.00994 0.91465 0.0
C536 C 0.58894 0.98993 0.89193 0.0
C537 C 0.6034 0.96633 0.91486 0.0
C538 C 0.52095 0.9946 0.91402 0.0
C539 C 0.57561 0.95732 0.93693 0.0
C540 C 0.46278 0.03193 0.93815 0.0
C541 C 0.41075 0.01456 0.8928 0.0
N542 N 0.53576 0.97201 0.93618 0.0
N543 N 0.45145 0.00205 0.89263 0.0
H544 H 0.23725 0.96123 0.5061 0.0
H545 H 0.18958 0.20531 0.52293 0.0
H546 H 0.23514 0.04926 0.43729 0.0
H547 H 0.13949 0.11352 0.58068 0.0
H548 H 0.22339 0.14941 0.49666 0.0
H549 H 0.21764 0.01816 0.53859 0.0
C550 C 0.23331 0.99263 0.49796 0.0
C551 C 0.23732 0.00068 0.46901 0.0
C552 C 0.20531 0.14156 0.51524 0.0
C553 C 0.21553 0.0654 0.50575 0.0
C554 C 0.18599 0.17348 0.53035 0.0
C555 C 0.16101 0.16418 0.55392 0.0
C556 C 0.20003 0.0999 0.52373 0.0
C557 C 0.15807 0.12218 0.56251 0.0
C558 C 0.22193 0.0249 0.5164 0.0
C559 C 0.2317 0.04171 0.4594 0.0
N560 N 0.17711 0.09149 0.54729 0.0
N561 N 0.22111 0.07252 0.4777 0.0
H562 H 0.20453 0.81226 0.47784 0.0
H563 H 0.96164 0.76016 0.49593 0.0
H564 H 0.1117 0.85865 0.41943 0.0
H565 H 0.04886 0.77004 0.56499 0.0
H566 H 0.01817 0.77963 0.46314 0.0
H567 H 0.14916 0.77914 0.50504 0.0
C568 C 0.17259 0.81515 0.47046 0.0
C569 C 0.16283 0.83893 0.44642 0.0
C570 C 0.02482 0.77709 0.48546 0.0
C571 C 0.0992 0.80065 0.47767 0.0
C572 C 0.99279 0.76579 0.5041 0.0
C573 C 0.00065 0.76389 0.53319 0.0
C574 C 0.06499 0.7855 0.49605 0.0
C575 C 0.04139 0.77169 0.54277 0.0
C576 C 0.14099 0.79625 0.48612 0.0
C577 C 0.12071 0.84101 0.43793 0.0
N578 N 0.07202 0.7821 0.52426 0.0
N579 N 0.09034 0.82232 0.45366 0.0
H580 H 0.76105 0.94831 0.4355 0.0
H581 H 0.86077 0.88927 0.58196 0.0
H582 H 0.76293 0.03682 0.50406 0.0
H583 H 0.80941 0.7973 0.52485 0.0
H584 H 0.82607 0.94433 0.55465 0.0
H585 H 0.77986 0.89273 0.46832 0.0
C586 C 0.76512 0.95589 0.45758 0.0
C587 C 0.76074 0.9971 0.46713 0.0
C588 C 0.82199 0.912 0.54844 0.0
C589 C 0.78287 0.93383 0.5048 0.0
C590 C 0.84185 0.88054 0.56395 0.0
C591 C 0.83853 0.83851 0.55553 0.0
C592 C 0.7992 0.90137 0.52416 0.0
C593 C 0.81336 0.82917 0.53206 0.0
C594 C 0.77566 0.92417 0.47634 0.0
C595 C 0.76593 0.0053 0.49598 0.0
N596 N 0.79521 0.86035 0.51702 0.0
N597 N 0.77748 0.97398 0.51382 0.0
H598 H 0.88933 0.13622 0.41763 0.0
H599 H 0.95015 0.23414 0.5644 0.0
H600 H 0.79773 0.18606 0.47564 0.0
H601 H 0.0365 0.23763 0.4946 0.0
H602 H 0.89437 0.21373 0.53214 0.0
H603 H 0.94457 0.17077 0.44496 0.0
C604 C 0.88071 0.15475 0.43585 0.0
C605 C 0.83873 0.15777 0.44447 0.0
C606 C 0.92537 0.2194 0.52375 0.0
C607 C 0.90179 0.19684 0.47588 0.0
C608 C 0.95724 0.23085 0.54219 0.0
C609 C 0.99792 0.23733 0.53212 0.0
C610 C 0.93438 0.21341 0.49507 0.0
C611 C 0.0054 0.23304 0.5031 0.0
C612 C 0.91227 0.17451 0.45137 0.0
C613 C 0.82955 0.18239 0.46823 0.0
N614 N 0.974 0.22064 0.48557 0.0
N615 N 0.86082 0.20043 0.48327 0.0
H616 H 0.71219 0.01766 0.97945 0.0
H617 H 0.89703 0.10809 0.07439 0.0
H618 H 0.84047 0.97728 0.97206 0.0
H619 H 0.79774 0.18787 0.04403 0.0
H620 H 0.86672 0.04984 0.04807 0.0
H621 H 0.73447 0.07109 0.01384 0.0
C622 C 0.74486 0.01974 0.98536 0.0
C623 C 0.77467 0.99342 0.97285 0.0
C624 C 0.85134 0.08001 0.04753 0.0
C625 C 0.79992 0.05323 0.01222 0.0
C626 C 0.86844 0.11326 0.06265 0.0
C627 C 0.85017 0.15313 0.06118 0.0
C628 C 0.81531 0.0864 0.03124 0.0
C629 C 0.81309 0.15779 0.04554 0.0
C630 C 0.75749 0.05017 0.0048 0.0
C631 C 0.81664 0.99733 0.98103 0.0
N632 N 0.7969 0.12481 0.03106 0.0
N633 N 0.82801 0.02658 0.00029 0.0
H634 H 0.10751 0.13221 0.9161 0.0
H635 H 0.05264 0.24462 0.05947 0.0
H636 H 0.19985 0.19204 0.96905 0.0
H637 H 0.95931 0.22795 0.99484 0.0
H638 H 0.10685 0.22564 0.0257 0.0
H639 H 0.05229 0.16733 0.94312 0.0
C640 C 0.11628 0.15314 0.93306 0.0
C641 C 0.1585 0.15864 0.9405 0.0
C642 C 0.07463 0.2266 0.01868 0.0
C643 C 0.0955 0.19846 0.97156 0.0
C644 C 0.04369 0.23728 0.03801 0.0
C645 C 0.00158 0.23754 0.0299 0.0
C646 C 0.06337 0.21512 0.99112 0.0
C647 C 0.99158 0.22818 0.00179 0.0
C648 C 0.08471 0.17318 0.94845 0.0
C649 C 0.16786 0.18628 0.96266 0.0
N650 N 0.02227 0.21659 0.98343 0.0
N651 N 0.13666 0.20463 0.97757 0.0
H652 H 0.18425 0.79527 0.02436 0.0
H653 H 0.23381 0.03834 0.00406 0.0
H654 H 0.13535 0.8889 0.08125 0.0
H655 H 0.22893 0.9486 0.93629 0.0
H656 H 0.2137 0.98261 0.03733 0.0
H657 H 0.21763 0.85029 0.99703 0.0
C658 C 0.18084 0.82733 0.03138 0.0
C659 C 0.15632 0.83738 0.05502 0.0
C660 C 0.21744 0.97524 0.01519 0.0
C661 C 0.19486 0.90067 0.02361 0.0
C662 C 0.2291 0.00683 0.99629 0.0
C663 C 0.23255 0.99799 0.9674 0.0
C664 C 0.21024 0.93458 0.00506 0.0
C665 C 0.22596 0.95682 0.95831 0.0
C666 C 0.1999 0.85875 0.01565 0.0
C667 C 0.15359 0.87966 0.06305 0.0
N668 N 0.21517 0.92667 0.97705 0.0
N669 N 0.17241 0.90985 0.04725 0.0
H670 H 0.88355 0.84607 0.91409 0.0
H671 H 0.94673 0.76641 0.06567 0.0
H672 H 0.79358 0.81435 0.97866 0.0
H673 H 0.03189 0.7572 0.99546 0.0
H674 H 0.89016 0.78281 0.03319 0.0
H675 H 0.93818 0.81187 0.94197 0.0
C676 C 0.87506 0.83137 0.93386 0.0
C677 C 0.83389 0.83371 0.9442 0.0
C678 C 0.92105 0.7768 0.02473 0.0
C679 C 0.89639 0.79497 0.97624 0.0
C680 C 0.95343 0.76773 0.04333 0.0
C681 C 0.99405 0.76102 0.03323 0.0
C682 C 0.92941 0.78004 0.99576 0.0
C683 C 0.0009 0.76228 0.00402 0.0
C684 C 0.90632 0.81185 0.94975 0.0
C685 C 0.82487 0.81391 0.96992 0.0
N686 N 0.96896 0.77237 0.98625 0.0
N687 N 0.85594 0.79596 0.98519 0.0
H688 H 0.2006 0.25878 0.68229 0.0
H689 H 0.18175 0.08577 0.80297 0.0
H690 H 0.11313 0.15592 0.68208 0.0
H691 H 0.23534 0.20704 0.82054 0.0
H692 H 0.1671 0.10794 0.75523 0.0
H693 H 0.22358 0.23745 0.72989 0.0
C694 C 0.18654 0.23163 0.69213 0.0
C695 C 0.15482 0.20916 0.67831 0.0
C696 C 0.18204 0.12986 0.76945 0.0
C697 C 0.18092 0.1847 0.73214 0.0
C698 C 0.19053 0.11718 0.79684 0.0
C699 C 0.20947 0.14471 0.81602 0.0
C700 C 0.19258 0.17044 0.76081 0.0
C701 C 0.22034 0.18493 0.80651 0.0
C702 C 0.19944 0.21969 0.71924 0.0
C703 C 0.13742 0.1744 0.69198 0.0
N704 N 0.21166 0.19671 0.77948 0.0
N705 N 0.15076 0.16327 0.718 0.0
H706 H 0.09817 0.84177 0.18781 0.0
H707 H 0.24327 0.79314 0.32084 0.0
H708 H 0.19798 0.75112 0.18269 0.0
H709 H 0.16645 0.90324 0.31088 0.0
H710 H 0.2247 0.77212 0.27237 0.0
H711 H 0.12016 0.85948 0.23516 0.0
C712 C 0.12483 0.8255 0.19667 0.0
C713 C 0.14624 0.79485 0.18122 0.0
C714 C 0.21216 0.80089 0.28094 0.0
C715 C 0.17179 0.81515 0.23594 0.0
C716 C 0.22253 0.81278 0.30857 0.0
C717 C 0.20638 0.85 0.31998 0.0
C718 C 0.18515 0.82623 0.26495 0.0
C719 C 0.17983 0.87438 0.3031 0.0
C720 C 0.13751 0.83578 0.22378 0.0
C721 C 0.18076 0.77511 0.19386 0.0
N722 N 0.17004 0.862 0.27663 0.0
N723 N 0.19242 0.78544 0.22066 0.0
H724 H 0.79518 0.74889 0.68065 0.0
H725 H 0.81305 0.91771 0.80417 0.0
H726 H 0.88689 0.84786 0.68394 0.0
H727 H 0.7577 0.79641 0.8189 0.0
H728 H 0.82836 0.89722 0.75602 0.0
H729 H 0.77016 0.77022 0.72774 0.0
C730 C 0.80976 0.77521 0.69115 0.0
C731 C 0.84327 0.79653 0.6785 0.0
C732 C 0.81278 0.87504 0.76972 0.0
C733 C 0.81475 0.82111 0.73173 0.0
C734 C 0.80391 0.88674 0.79729 0.0
C735 C 0.78448 0.85855 0.81581 0.0
C736 C 0.80205 0.83487 0.76029 0.0
C737 C 0.77308 0.81898 0.80541 0.0
C738 C 0.79565 0.78717 0.71797 0.0
C739 C 0.86123 0.83029 0.69298 0.0
N740 N 0.78218 0.80818 0.77828 0.0
N741 N 0.84668 0.84154 0.71871 0.0
H742 H 0.84849 0.10403 0.31586 0.0
H743 H 0.79942 0.2375 0.17825 0.0
H744 H 0.75176 0.19823 0.31613 0.0
H745 H 0.9172 0.176 0.19471 0.0
H746 H 0.77694 0.22038 0.22657 0.0
H747 H 0.86956 0.12654 0.26914 0.0
C748 C 0.83164 0.12959 0.30606 0.0
C749 C 0.79824 0.14926 0.3199 0.0
C750 C 0.80774 0.21094 0.2195 0.0
C751 C 0.82227 0.17521 0.26602 0.0
C752 C 0.82049 0.22047 0.19196 0.0
C753 C 0.86018 0.20799 0.18237 0.0
C754 C 0.8347 0.18836 0.23726 0.0
C755 C 0.88634 0.18627 0.20106 0.0
C756 C 0.84384 0.14256 0.27937 0.0
C757 C 0.77781 0.1824 0.30619 0.0
N758 N 0.87303 0.17697 0.22744 0.0
N759 N 0.78994 0.1942 0.27978 0.0
loop_
_geom_bond_atom_site_label_1
_geom_bond_atom_site_label_2
_geom_bond_distance
_geom_bond_site_symmetry_2
_ccdc_geom_bond_type
Co0 O2 2.143 . S
Co0 O8 2.074 . S
Co0 O11 2.093 . S
Co0 O24 2.097 . S
Co0 N41 2.151 . S
Co0 N49 2.214 . S
Co1 O2 2.160 . S
Co1 O7 2.058 . S
Co1 O17 2.057 . S
Co1 O32 2.037 . S
Co1 N36 2.145 . S
Co1 N57 2.257 . S
O2 Co0 2.143 . S
O2 Co1 2.160 . S
C3 O4 1.278 . S
C3 O11 1.224 . S
O4 C3 1.278 . S
C5 O6 1.245 . S
C5 O17 1.232 . S
O6 C5 1.245 . S
O7 Co1 2.058 . S
O7 C33 1.269 . S
O8 Co0 2.074 . S
O8 C33 1.257 . S
H9 C34 0.930 . S
H10 C40 0.930 . S
O11 Co0 2.093 . S
O11 C3 1.224 . S
H12 C44 0.929 . S
H13 C46 0.930 . S
H14 C47 0.930 . S
H15 C45 0.929 . S
H16 C48 0.928 . S
O17 Co1 2.057 . S
O17 C5 1.232 . S
H18 C37 0.929 . S
H19 C38 0.929 . S
H20 C50 0.931 . S
H21 C42 0.929 . S
H22 C51 0.930 . S
H23 C43 0.931 . S
O24 Co0 2.097 . S
O24 C52 1.214 . S
H25 C53 0.929 . S
H26 C54 0.929 . S
H27 C55 0.930 . S
H28 C56 0.929 . S
H29 C58 0.930 . S
H30 C35 0.930 . S
H31 C39 0.930 . S
O32 Co1 2.037 . S
O32 C52 1.234 . S
C33 O7 1.269 . S
C33 O8 1.257 . S
C34 H9 0.930 . S
C34 C37 1.388 . S
C34 C39 1.418 . S
C35 H30 0.930 . S
C35 C38 1.404 . S
C35 C39 1.353 . S
N36 Co1 2.145 . S
N36 C37 1.397 . S
N36 C38 1.334 . S
C37 H18 0.929 . S
C37 C34 1.388 . S
C37 N36 1.397 . S
C38 H19 0.929 . S
C38 C35 1.404 . S
C38 N36 1.334 . S
C39 H31 0.930 . S
C39 C34 1.418 . S
C39 C35 1.353 . S
C40 H10 0.930 . S
C40 N41 1.330 . S
C40 C42 1.446 1_455 S
N41 Co0 2.151 . S
N41 C40 1.330 . S
N41 C45 1.418 1_455 S
C42 H21 0.929 . S
C42 C40 1.446 1_655 S
C42 C43 1.332 . S
C43 H23 0.931 . S
C43 C42 1.332 . S
C43 C44 1.267 . S
C44 H12 0.929 . S
C44 C43 1.267 . S
C44 C45 1.251 . S
C45 H15 0.929 . S
C45 N41 1.418 1_655 S
C45 C44 1.251 . S
C46 H13 0.930 . S
C46 C48 1.406 . S
C46 C51 1.261 . S
C47 H14 0.930 . S
C47 N49 1.325 . S
C47 C50 1.357 . S
C48 H16 0.928 . S
C48 C46 1.406 . S
C48 N49 1.261 . S
N49 Co0 2.214 . S
N49 C47 1.325 . S
N49 C48 1.261 . S
C50 H20 0.931 . S
C50 C47 1.357 . S
C50 C51 1.312 . S
C51 H22 0.930 . S
C51 C46 1.261 . S
C51 C50 1.312 . S
C52 O24 1.214 . S
C52 O32 1.234 . S
C53 H25 0.929 . S
C53 C56 1.391 . S
C53 C58 1.391 . S
C54 H26 0.929 . S
C54 C55 1.390 . S
C54 N57 1.391 . S
C55 H27 0.930 . S
C55 C54 1.390 . S
C55 C56 1.392 . S
C56 H28 0.929 . S
C56 C53 1.391 . S
C56 C55 1.392 . S
N57 Co1 2.257 . S
N57 C54 1.391 . S
N57 C58 1.388 . S
C58 H29 0.930 . S
C58 C53 1.391 . S
C58 N57 1.388 . S
Co59 O61 2.143 . S
Co59 O67 2.074 . S
Co59 O70 2.093 . S
Co59 O83 2.097 . S
Co59 N100 2.151 . S
Co59 N108 2.214 . S
Co60 O61 2.160 . S
Co60 O66 2.058 . S
Co60 O76 2.057 . S
Co60 O91 2.037 . S
Co60 N95 2.145 . S
Co60 N116 2.257 . S
O61 Co59 2.143 . S
O61 Co60 2.160 . S
C62 O63 1.278 . S
C62 O70 1.224 . S
O63 C62 1.278 . S
C64 O65 1.245 . S
C64 O76 1.232 . S
O65 C64 1.245 . S
O66 Co60 2.058 . S
O66 C92 1.269 . S
O67 Co59 2.074 . S
O67 C92 1.257 . S
H68 C93 0.930 . S
H69 C99 0.930 . S
O70 Co59 2.093 . S
O70 C62 1.224 . S
H71 C103 0.929 . S
H72 C105 0.930 . S
H73 C106 0.930 . S
H74 C104 0.929 . S
H75 C107 0.928 . S
O76 Co60 2.057 . S
O76 C64 1.232 . S
H77 C96 0.929 . S
H78 C97 0.929 . S
H79 C109 0.931 . S
H80 C101 0.929 . S
H81 C110 0.930 . S
H82 C102 0.931 . S
O83 Co59 2.097 . S
O83 C111 1.214 . S
H84 C112 0.929 . S
H85 C113 0.929 . S
H86 C114 0.930 . S
H87 C115 0.929 . S
H88 C117 0.930 . S
H89 C94 0.930 . S
H90 C98 0.930 . S
O91 Co60 2.037 . S
O91 C111 1.234 . S
C92 O66 1.269 . S
C92 O67 1.257 . S
C93 H68 0.930 . S
C93 C96 1.388 . S
C93 C98 1.418 . S
C94 H89 0.930 . S
C94 C97 1.404 . S
C94 C98 1.353 . S
N95 Co60 2.145 . S
N95 C96 1.397 . S
N95 C97 1.334 . S
C96 H77 0.929 . S
C96 C93 1.388 . S
C96 N95 1.397 . S
C97 H78 0.929 . S
C97 C94 1.404 . S
C97 N95 1.334 . S
C98 H90 0.930 . S
C98 C93 1.418 . S
C98 C94 1.353 . S
C99 H69 0.930 . S
C99 N100 1.330 . S
C99 C101 1.446 1_565 S
N100 Co59 2.151 . S
N100 C99 1.330 . S
N100 C104 1.418 1_565 S
C101 H80 0.929 . S
C101 C99 1.446 1_545 S
C101 C102 1.332 . S
C102 H82 0.931 . S
C102 C101 1.332 . S
C102 C103 1.267 . S
C103 H71 0.929 . S
C103 C102 1.267 . S
C103 C104 1.251 . S
C104 H74 0.929 . S
C104 N100 1.418 1_545 S
C104 C103 1.251 . S
C105 H72 0.930 . S
C105 C107 1.406 . S
C105 C110 1.261 . S
C106 H73 0.930 . S
C106 N108 1.325 . S
C106 C109 1.357 . S
C107 H75 0.928 . S
C107 C105 1.406 . S
C107 N108 1.261 . S
N108 Co59 2.214 . S
N108 C106 1.325 . S
N108 C107 1.261 . S
C109 H79 0.931 . S
C109 C106 1.357 . S
C109 C110 1.312 . S
C110 H81 0.930 . S
C110 C105 1.261 . S
C110 C109 1.312 . S
C111 O83 1.214 . S
C111 O91 1.234 . S
C112 H84 0.929 . S
C112 C115 1.391 . S
C112 C117 1.391 . S
C113 H85 0.929 . S
C113 C114 1.390 . S
C113 N116 1.391 . S
C114 H86 0.930 . S
C114 C113 1.390 . S
C114 C115 1.392 . S
C115 H87 0.929 . S
C115 C112 1.391 . S
C115 C114 1.392 . S
N116 Co60 2.257 . S
N116 C113 1.391 . S
N116 C117 1.388 . S
C117 H88 0.930 . S
C117 C112 1.391 . S
C117 N116 1.388 . S
Co118 O120 2.143 . S
Co118 O126 2.074 . S
Co118 O129 2.093 . S
Co118 O142 2.097 . S
Co118 N159 2.151 . S
Co118 N167 2.214 . S
Co119 O120 2.160 . S
Co119 O125 2.058 . S
Co119 O135 2.057 . S
Co119 O150 2.037 . S
Co119 N154 2.145 . S
Co119 N175 2.257 . S
O120 Co118 2.143 . S
O120 Co119 2.160 . S
C121 O122 1.278 . S
C121 O129 1.224 . S
O122 C121 1.278 . S
C123 O124 1.245 . S
C123 O135 1.232 . S
O124 C123 1.245 . S
O125 Co119 2.058 . S
O125 C151 1.269 . S
O126 Co118 2.074 . S
O126 C151 1.257 . S
H127 C152 0.930 . S
H128 C158 0.930 . S
O129 Co118 2.093 . S
O129 C121 1.224 . S
H130 C162 0.929 . S
H131 C164 0.930 . S
H132 C165 0.930 . S
H133 C163 0.929 . S
H134 C166 0.928 . S
O135 Co119 2.057 . S
O135 C123 1.232 . S
H136 C155 0.929 . S
H137 C156 0.929 . S
H138 C168 0.931 . S
H139 C160 0.929 . S
H140 C169 0.930 . S
H141 C161 0.931 . S
O142 Co118 2.097 . S
O142 C170 1.214 . S
H143 C171 0.929 . S
H144 C172 0.929 . S
H145 C173 0.930 . S
H146 C174 0.929 . S
H147 C176 0.930 . S
H148 C153 0.930 . S
H149 C157 0.930 . S
O150 Co119 2.037 . S
O150 C170 1.234 . S
C151 O125 1.269 . S
C151 O126 1.257 . S
C152 H127 0.930 . S
C152 C155 1.388 . S
C152 C157 1.418 . S
C153 H148 0.930 . S
C153 C156 1.404 . S
C153 C157 1.353 . S
N154 Co119 2.145 . S
N154 C155 1.397 . S
N154 C156 1.334 . S
C155 H136 0.929 . S
C155 C152 1.388 . S
C155 N154 1.397 . S
C156 H137 0.929 . S
C156 C153 1.404 . S
C156 N154 1.334 . S
C157 H149 0.930 . S
C157 C152 1.418 . S
C157 C153 1.353 . S
C158 H128 0.930 . S
C158 N159 1.330 . S
C158 C160 1.446 1_655 S
N159 Co118 2.151 . S
N159 C158 1.330 . S
N159 C163 1.418 1_655 S
C160 H139 0.929 . S
C160 C158 1.446 1_455 S
C160 C161 1.332 . S
C161 H141 0.931 . S
C161 C160 1.332 . S
C161 C162 1.267 . S
C162 H130 0.929 . S
C162 C161 1.267 . S
C162 C163 1.251 . S
C163 H133 0.929 . S
C163 N159 1.418 1_455 S
C163 C162 1.251 . S
C164 H131 0.930 . S
C164 C166 1.406 . S
C164 C169 1.261 . S
C165 H132 0.930 . S
C165 N167 1.325 . S
C165 C168 1.357 . S
C166 H134 0.928 . S
C166 C164 1.406 . S
C166 N167 1.261 . S
N167 Co118 2.214 . S
N167 C165 1.325 . S
N167 C166 1.261 . S
C168 H138 0.931 . S
C168 C165 1.357 . S
C168 C169 1.312 . S
C169 H140 0.930 . S
C169 C164 1.261 . S
C169 C168 1.312 . S
C170 O142 1.214 . S
C170 O150 1.234 . S
C171 H143 0.929 . S
C171 C174 1.391 . S
C171 C176 1.391 . S
C172 H144 0.929 . S
C172 C173 1.390 . S
C172 N175 1.391 . S
C173 H145 0.930 . S
C173 C172 1.390 . S
C173 C174 1.392 . S
C174 H146 0.929 . S
C174 C171 1.391 . S
C174 C173 1.392 . S
N175 Co119 2.257 . S
N175 C172 1.391 . S
N175 C176 1.388 . S
C176 H147 0.930 . S
C176 C171 1.391 . S
C176 N175 1.388 . S
Co177 O179 2.143 . S
Co177 O185 2.074 . S
Co177 O188 2.093 . S
Co177 O201 2.097 . S
Co177 N218 2.151 . S
Co177 N226 2.214 . S
Co178 O179 2.160 . S
Co178 O184 2.058 . S
Co178 O194 2.057 . S
Co178 O209 2.037 . S
Co178 N213 2.145 . S
Co178 N234 2.257 . S
O179 Co177 2.143 . S
O179 Co178 2.160 . S
C180 O181 1.278 . S
C180 O188 1.224 . S
O181 C180 1.278 . S
C182 O183 1.245 . S
C182 O194 1.232 . S
O183 C182 1.245 . S
O184 Co178 2.058 . S
O184 C210 1.269 . S
O185 Co177 2.074 . S
O185 C210 1.257 . S
H186 C211 0.930 . S
H187 C217 0.930 . S
O188 Co177 2.093 . S
O188 C180 1.224 . S
H189 C221 0.929 . S
H190 C223 0.930 . S
H191 C224 0.930 . S
H192 C222 0.929 . S
H193 C225 0.928 . S
O194 Co178 2.057 . S
O194 C182 1.232 . S
H195 C214 0.929 . S
H196 C215 0.929 . S
H197 C227 0.931 . S
H198 C219 0.929 . S
H199 C228 0.930 . S
H200 C220 0.931 . S
O201 Co177 2.097 . S
O201 C229 1.214 . S
H202 C230 0.929 . S
H203 C231 0.929 . S
H204 C232 0.930 . S
H205 C233 0.929 . S
H206 C235 0.930 . S
H207 C212 0.930 . S
H208 C216 0.930 . S
O209 Co178 2.037 . S
O209 C229 1.234 . S
C210 O184 1.269 . S
C210 O185 1.257 . S
C211 H186 0.930 . S
C211 C214 1.388 . S
C211 C216 1.418 . S
C212 H207 0.930 . S
C212 C215 1.404 . S
C212 C216 1.353 . S
N213 Co178 2.145 . S
N213 C214 1.397 . S
N213 C215 1.334 . S
C214 H195 0.929 . S
C214 C211 1.388 . S
C214 N213 1.397 . S
C215 H196 0.929 . S
C215 C212 1.404 . S
C215 N213 1.334 . S
C216 H208 0.930 . S
C216 C211 1.418 . S
C216 C212 1.353 . S
C217 H187 0.930 . S
C217 N218 1.330 . S
C217 C219 1.446 1_545 S
N218 Co177 2.151 . S
N218 C217 1.330 . S
N218 C222 1.418 1_545 S
C219 H198 0.929 . S
C219 C217 1.446 1_565 S
C219 C220 1.332 . S
C220 H200 0.931 . S
C220 C219 1.332 . S
C220 C221 1.267 . S
C221 H189 0.929 . S
C221 C220 1.267 . S
C221 C222 1.251 . S
C222 H192 0.929 . S
C222 N218 1.418 1_565 S
C222 C221 1.251 . S
C223 H190 0.930 . S
C223 C225 1.406 . S
C223 C228 1.261 . S
C224 H191 0.930 . S
C224 N226 1.325 . S
C224 C227 1.357 . S
C225 H193 0.928 . S
C225 C223 1.406 . S
C225 N226 1.261 . S
N226 Co177 2.214 . S
N226 C224 1.325 . S
N226 C225 1.261 . S
C227 H197 0.931 . S
C227 C224 1.357 . S
C227 C228 1.312 . S
C228 H199 0.930 . S
C228 C223 1.261 . S
C228 C227 1.312 . S
C229 O201 1.214 . S
C229 O209 1.234 . S
C230 H202 0.929 . S
C230 C233 1.391 . S
C230 C235 1.391 . S
C231 H203 0.929 . S
C231 C232 1.390 . S
C231 N234 1.391 . S
C232 H204 0.930 . S
C232 C231 1.390 . S
C232 C233 1.392 . S
C233 H205 0.929 . S
C233 C230 1.391 . S
C233 C232 1.392 . S
N234 Co178 2.257 . S
N234 C231 1.391 . S
N234 C235 1.388 . S
C235 H206 0.930 . S
C235 C230 1.391 . S
C235 N234 1.388 . S
Co236 O238 2.143 . S
Co236 O244 2.074 . S
Co236 O247 2.093 . S
Co236 O260 2.097 . S
Co236 N277 2.151 . S
Co236 N285 2.214 . S
Co237 O238 2.160 . S
Co237 O243 2.058 . S
Co237 O253 2.057 . S
Co237 O268 2.037 . S
Co237 N272 2.145 . S
Co237 N293 2.257 . S
O238 Co236 2.143 . S
O238 Co237 2.160 . S
C239 O240 1.278 . S
C239 O247 1.224 . S
O240 C239 1.278 . S
C241 O242 1.245 . S
C241 O253 1.232 . S
O242 C241 1.245 . S
O243 Co237 2.058 . S
O243 C269 1.269 . S
O244 Co236 2.074 . S
O244 C269 1.257 . S
H245 C270 0.930 . S
H246 C276 0.930 . S
O247 Co236 2.093 . S
O247 C239 1.224 . S
H248 C280 0.929 . S
H249 C282 0.930 . S
H250 C283 0.930 . S
H251 C281 0.929 . S
H252 C284 0.928 . S
O253 Co237 2.057 . S
O253 C241 1.232 . S
H254 C273 0.929 . S
H255 C274 0.929 . S
H256 C286 0.931 . S
H257 C278 0.929 . S
H258 C287 0.930 . S
H259 C279 0.931 . S
O260 Co236 2.097 . S
O260 C288 1.214 . S
H261 C289 0.929 . S
H262 C290 0.929 . S
H263 C291 0.930 . S
H264 C292 0.929 . S
H265 C294 0.930 . S
H266 C271 0.930 . S
H267 C275 0.930 . S
O268 Co237 2.037 . S
O268 C288 1.234 . S
C269 O243 1.269 . S
C269 O244 1.257 . S
C270 H245 0.930 . S
C270 C273 1.388 . S
C270 C275 1.418 . S
C271 H266 0.930 . S
C271 C274 1.404 1_556 S
C271 C275 1.353 . S
N272 Co237 2.145 . S
N272 C273 1.397 1_554 S
N272 C274 1.334 . S
C273 H254 0.929 . S
C273 C270 1.388 . S
C273 N272 1.397 1_556 S
C274 H255 0.929 . S
C274 C271 1.404 1_554 S
C274 N272 1.334 . S
C275 H267 0.930 . S
C275 C270 1.418 . S
C275 C271 1.353 . S
C276 H246 0.930 . S
C276 N277 1.330 . S
C276 C278 1.446 1_655 S
N277 Co236 2.151 . S
N277 C276 1.330 . S
N277 C281 1.418 1_655 S
C278 H257 0.929 . S
C278 C276 1.446 1_455 S
C278 C279 1.332 . S
C279 H259 0.931 . S
C279 C278 1.332 . S
C279 C280 1.267 . S
C280 H248 0.929 . S
C280 C279 1.267 . S
C280 C281 1.251 . S
C281 H251 0.929 . S
C281 N277 1.418 1_455 S
C281 C280 1.251 . S
C282 H249 0.930 . S
C282 C284 1.406 . S
C282 C287 1.261 . S
C283 H250 0.930 . S
C283 N285 1.325 . S
C283 C286 1.357 . S
C284 H252 0.928 . S
C284 C282 1.406 . S
C284 N285 1.261 . S
N285 Co236 2.214 . S
N285 C283 1.325 . S
N285 C284 1.261 . S
C286 H256 0.931 . S
C286 C283 1.357 . S
C286 C287 1.312 . S
C287 H258 0.930 . S
C287 C282 1.261 . S
C287 C286 1.312 . S
C288 O260 1.214 . S
C288 O268 1.234 . S
C289 H261 0.929 . S
C289 C292 1.391 . S
C289 C294 1.391 . S
C290 H262 0.929 . S
C290 C291 1.390 . S
C290 N293 1.391 . S
C291 H263 0.930 . S
C291 C290 1.390 . S
C291 C292 1.392 . S
C292 H264 0.929 . S
C292 C289 1.391 . S
C292 C291 1.392 . S
N293 Co237 2.257 . S
N293 C290 1.391 . S
N293 C294 1.388 . S
C294 H265 0.930 . S
C294 C289 1.391 . S
C294 N293 1.388 . S
Co295 O297 2.143 . S
Co295 O303 2.074 . S
Co295 O306 2.093 . S
Co295 O319 2.097 . S
Co295 N336 2.151 . S
Co295 N344 2.214 . S
Co296 O297 2.160 . S
Co296 O302 2.058 . S
Co296 O312 2.057 . S
Co296 O327 2.037 . S
Co296 N331 2.145 . S
Co296 N352 2.257 . S
O297 Co295 2.143 . S
O297 Co296 2.160 . S
C298 O299 1.278 . S
C298 O306 1.224 . S
O299 C298 1.278 . S
C300 O301 1.245 . S
C300 O312 1.232 . S
O301 C300 1.245 . S
O302 Co296 2.058 . S
O302 C328 1.269 . S
O303 Co295 2.074 . S
O303 C328 1.257 . S
H304 C329 0.930 . S
H305 C335 0.930 . S
O306 Co295 2.093 . S
O306 C298 1.224 . S
H307 C339 0.929 . S
H308 C341 0.930 . S
H309 C342 0.930 . S
H310 C340 0.929 . S
H311 C343 0.928 . S
O312 Co296 2.057 . S
O312 C300 1.232 . S
H313 C332 0.929 . S
H314 C333 0.929 . S
H315 C345 0.931 . S
H316 C337 0.929 . S
H317 C346 0.930 . S
H318 C338 0.931 . S
O319 Co295 2.097 . S
O319 C347 1.214 . S
H320 C348 0.929 . S
H321 C349 0.929 . S
H322 C350 0.930 . S
H323 C351 0.929 . S
H324 C353 0.930 . S
H325 C330 0.930 . S
H326 C334 0.930 . S
O327 Co296 2.037 . S
O327 C347 1.234 . S
C328 O302 1.269 . S
C328 O303 1.257 . S
C329 H304 0.930 . S
C329 C332 1.388 . S
C329 C334 1.418 . S
C330 H325 0.930 . S
C330 C333 1.404 1_554 S
C330 C334 1.353 . S
N331 Co296 2.145 . S
N331 C332 1.397 1_556 S
N331 C333 1.334 . S
C332 H313 0.929 . S
C332 C329 1.388 . S
C332 N331 1.397 1_554 S
C333 H314 0.929 . S
C333 C330 1.404 1_556 S
C333 N331 1.334 . S
C334 H326 0.930 . S
C334 C329 1.418 . S
C334 C330 1.353 . S
C335 H305 0.930 . S
C335 N336 1.330 . S
C335 C337 1.446 1_545 S
N336 Co295 2.151 . S
N336 C335 1.330 . S
N336 C340 1.418 1_545 S
C337 H316 0.929 . S
C337 C335 1.446 1_565 S
C337 C338 1.332 . S
C338 H318 0.931 . S
C338 C337 1.332 . S
C338 C339 1.267 . S
C339 H307 0.929 . S
C339 C338 1.267 . S
C339 C340 1.251 . S
C340 H310 0.929 . S
C340 N336 1.418 1_565 S
C340 C339 1.251 . S
C341 H308 0.930 . S
C341 C343 1.406 . S
C341 C346 1.261 . S
C342 H309 0.930 . S
C342 N344 1.325 . S
C342 C345 1.357 . S
C343 H311 0.928 . S
C343 C341 1.406 . S
C343 N344 1.261 . S
N344 Co295 2.214 . S
N344 C342 1.325 . S
N344 C343 1.261 . S
C345 H315 0.931 . S
C345 C342 1.357 . S
C345 C346 1.312 . S
C346 H317 0.930 . S
C346 C341 1.261 . S
C346 C345 1.312 . S
C347 O319 1.214 . S
C347 O327 1.234 . S
C348 H320 0.929 . S
C348 C351 1.391 . S
C348 C353 1.391 . S
C349 H321 0.929 . S
C349 C350 1.390 . S
C349 N352 1.391 . S
C350 H322 0.930 . S
C350 C349 1.390 . S
C350 C351 1.392 . S
C351 H323 0.929 . S
C351 C348 1.391 . S
C351 C350 1.392 . S
N352 Co296 2.257 . S
N352 C349 1.391 . S
N352 C353 1.388 . S
C353 H324 0.930 . S
C353 C348 1.391 . S
C353 N352 1.388 . S
Co354 O356 2.143 . S
Co354 O362 2.074 . S
Co354 O365 2.093 . S
Co354 O378 2.097 . S
Co354 N395 2.151 . S
Co354 N403 2.214 . S
Co355 O356 2.160 . S
Co355 O361 2.058 . S
Co355 O371 2.057 . S
Co355 O386 2.037 . S
Co355 N390 2.145 . S
Co355 N411 2.257 . S
O356 Co354 2.143 . S
O356 Co355 2.160 . S
C357 O358 1.278 . S
C357 O365 1.224 . S
O358 C357 1.278 . S
C359 O360 1.245 . S
C359 O371 1.232 . S
O360 C359 1.245 . S
O361 Co355 2.058 . S
O361 C387 1.269 . S
O362 Co354 2.074 . S
O362 C387 1.257 . S
H363 C388 0.930 . S
H364 C394 0.930 . S
O365 Co354 2.093 . S
O365 C357 1.224 . S
H366 C398 0.929 . S
H367 C400 0.930 . S
H368 C401 0.930 . S
H369 C399 0.929 . S
H370 C402 0.928 . S
O371 Co355 2.057 . S
O371 C359 1.232 . S
H372 C391 0.929 . S
H373 C392 0.929 . S
H374 C404 0.931 . S
H375 C396 0.929 . S
H376 C405 0.930 . S
H377 C397 0.931 . S
O378 Co354 2.097 . S
O378 C406 1.214 . S
H379 C407 0.929 . S
H380 C408 0.929 . S
H381 C409 0.930 . S
H382 C410 0.929 . S
H383 C412 0.930 . S
H384 C389 0.930 . S
H385 C393 0.930 . S
O386 Co355 2.037 . S
O386 C406 1.234 . S
C387 O361 1.269 . S
C387 O362 1.257 . S
C388 H363 0.930 . S
C388 C391 1.388 . S
C388 C393 1.418 . S
C389 H384 0.930 . S
C389 C392 1.404 1_556 S
C389 C393 1.353 . S
N390 Co355 2.145 . S
N390 C391 1.397 1_554 S
N390 C392 1.334 . S
C391 H372 0.929 . S
C391 C388 1.388 . S
C391 N390 1.397 1_556 S
C392 H373 0.929 . S
C392 C389 1.404 1_554 S
C392 N390 1.334 . S
C393 H385 0.930 . S
C393 C388 1.418 . S
C393 C389 1.353 . S
C394 H364 0.930 . S
C394 N395 1.330 . S
C394 C396 1.446 1_455 S
N395 Co354 2.151 . S
N395 C394 1.330 . S
N395 C399 1.418 1_455 S
C396 H375 0.929 . S
C396 C394 1.446 1_655 S
C396 C397 1.332 . S
C397 H377 0.931 . S
C397 C396 1.332 . S
C397 C398 1.267 . S
C398 H366 0.929 . S
C398 C397 1.267 . S
C398 C399 1.251 . S
C399 H369 0.929 . S
C399 N395 1.418 1_655 S
C399 C398 1.251 . S
C400 H367 0.930 . S
C400 C402 1.406 . S
C400 C405 1.261 . S
C401 H368 0.930 . S
C401 N403 1.325 . S
C401 C404 1.357 . S
C402 H370 0.928 . S
C402 C400 1.406 . S
C402 N403 1.261 . S
N403 Co354 2.214 . S
N403 C401 1.325 . S
N403 C402 1.261 . S
C404 H374 0.931 . S
C404 C401 1.357 . S
C404 C405 1.312 . S
C405 H376 0.930 . S
C405 C400 1.261 . S
C405 C404 1.312 . S
C406 O378 1.214 . S
C406 O386 1.234 . S
C407 H379 0.929 . S
C407 C410 1.391 . S
C407 C412 1.391 . S
C408 H380 0.929 . S
C408 C409 1.390 . S
C408 N411 1.391 . S
C409 H381 0.930 . S
C409 C408 1.390 . S
C409 C410 1.392 . S
C410 H382 0.929 . S
C410 C407 1.391 . S
C410 C409 1.392 . S
N411 Co355 2.257 . S
N411 C408 1.391 . S
N411 C412 1.388 . S
C412 H383 0.930 . S
C412 C407 1.391 . S
C412 N411 1.388 . S
Co413 O415 2.143 . S
Co413 O421 2.074 . S
Co413 O424 2.093 . S
Co413 O437 2.097 . S
Co413 N454 2.151 . S
Co413 N462 2.214 . S
Co414 O415 2.160 . S
Co414 O420 2.058 . S
Co414 O430 2.057 . S
Co414 O445 2.037 . S
Co414 N449 2.145 . S
Co414 N470 2.257 . S
O415 Co413 2.143 . S
O415 Co414 2.160 . S
C416 O417 1.278 . S
C416 O424 1.224 . S
O417 C416 1.278 . S
C418 O419 1.245 . S
C418 O430 1.232 . S
O419 C418 1.245 . S
O420 Co414 2.058 . S
O420 C446 1.269 . S
O421 Co413 2.074 . S
O421 C446 1.257 . S
H422 C447 0.930 . S
H423 C453 0.930 . S
O424 Co413 2.093 . S
O424 C416 1.224 . S
H425 C457 0.929 . S
H426 C459 0.930 . S
H427 C460 0.930 . S
H428 C458 0.929 . S
H429 C461 0.928 . S
O430 Co414 2.057 . S
O430 C418 1.232 . S
H431 C450 0.929 . S
H432 C451 0.929 . S
H433 C463 0.931 . S
H434 C455 0.929 . S
H435 C464 0.930 . S
H436 C456 0.931 . S
O437 Co413 2.097 . S
O437 C465 1.214 . S
H438 C466 0.929 . S
H439 C467 0.929 . S
H440 C468 0.930 . S
H441 C469 0.929 . S
H442 C471 0.930 . S
H443 C448 0.930 . S
H444 C452 0.930 . S
O445 Co414 2.037 . S
O445 C465 1.234 . S
C446 O420 1.269 . S
C446 O421 1.257 . S
C447 H422 0.930 . S
C447 C450 1.388 . S
C447 C452 1.418 . S
C448 H443 0.930 . S
C448 C451 1.404 1_554 S
C448 C452 1.353 . S
N449 Co414 2.145 . S
N449 C450 1.397 1_556 S
N449 C451 1.334 . S
C450 H431 0.929 . S
C450 C447 1.388 . S
C450 N449 1.397 1_554 S
C451 H432 0.929 . S
C451 C448 1.404 1_556 S
C451 N449 1.334 . S
C452 H444 0.930 . S
C452 C447 1.418 . S
C452 C448 1.353 . S
C453 H423 0.930 . S
C453 N454 1.330 . S
C453 C455 1.446 1_565 S
N454 Co413 2.151 . S
N454 C453 1.330 . S
N454 C458 1.418 1_565 S
C455 H434 0.929 . S
C455 C453 1.446 1_545 S
C455 C456 1.332 . S
C456 H436 0.931 . S
C456 C455 1.332 . S
C456 C457 1.267 . S
C457 H425 0.929 . S
C457 C456 1.267 . S
C457 C458 1.251 . S
C458 H428 0.929 . S
C458 N454 1.418 1_545 S
C458 C457 1.251 . S
C459 H426 0.930 . S
C459 C461 1.406 . S
C459 C464 1.261 . S
C460 H427 0.930 . S
C460 N462 1.325 . S
C460 C463 1.357 . S
C461 H429 0.928 . S
C461 C459 1.406 . S
C461 N462 1.261 . S
N462 Co413 2.214 . S
N462 C460 1.325 . S
N462 C461 1.261 . S
C463 H433 0.931 . S
C463 C460 1.357 . S
C463 C464 1.312 . S
C464 H435 0.930 . S
C464 C459 1.261 . S
C464 C463 1.312 . S
C465 O437 1.214 . S
C465 O445 1.234 . S
C466 H438 0.929 . S
C466 C469 1.391 . S
C466 C471 1.391 . S
C467 H439 0.929 . S
C467 C468 1.390 . S
C467 N470 1.391 . S
C468 H440 0.930 . S
C468 C467 1.390 . S
C468 C469 1.392 . S
C469 H441 0.929 . S
C469 C466 1.391 . S
C469 C468 1.392 . S
N470 Co414 2.257 . S
N470 C467 1.391 . S
N470 C471 1.388 . S
C471 H442 0.930 . S
C471 C466 1.391 . S
C471 N470 1.388 . S
H472 C478 0.930 . S
H473 C482 0.930 . S
H474 C487 0.929 . S
H475 C485 0.929 . S
H476 C480 0.929 . S
H477 C486 0.929 . S
C478 H472 0.930 . S
C478 C479 1.367 . S
C478 C486 1.378 . S
C479 C478 1.367 . S
C479 C487 1.433 . S
C480 H476 0.929 . S
C480 C482 1.378 . S
C480 C484 1.350 . S
C481 C484 1.463 1_655 S
C481 C486 1.350 . S
C481 N489 1.427 . S
C482 H473 0.930 . S
C482 C480 1.378 . S
C482 C483 1.367 . S
C483 C482 1.367 . S
C483 C485 1.433 . S
C484 C480 1.350 . S
C484 C481 1.463 1_455 S
C484 N488 1.427 . S
C485 H475 0.929 . S
C485 C483 1.433 . S
C485 N488 1.384 . S
C486 H477 0.929 . S
C486 C478 1.378 . S
C486 C481 1.350 . S
C487 H474 0.929 . S
C487 C479 1.433 . S
C487 N489 1.384 . S
N488 C484 1.427 . S
N488 C485 1.384 . S
N489 C481 1.427 . S
N489 C487 1.384 . S
H490 C496 0.930 . S
H491 C500 0.930 . S
H492 C505 0.929 . S
H493 C503 0.929 . S
H494 C498 0.929 . S
H495 C504 0.929 . S
C496 H490 0.930 . S
C496 C497 1.367 . S
C496 C504 1.378 . S
C497 C496 1.367 . S
C497 C505 1.433 . S
C498 H494 0.929 . S
C498 C500 1.378 . S
C498 C502 1.350 . S
C499 C502 1.463 1_545 S
C499 C504 1.350 . S
C499 N507 1.427 . S
C500 H491 0.930 . S
C500 C498 1.378 . S
C500 C501 1.367 . S
C501 C500 1.367 . S
C501 C503 1.433 . S
C502 C498 1.350 . S
C502 C499 1.463 1_565 S
C502 N506 1.427 . S
C503 H493 0.929 . S
C503 C501 1.433 . S
C503 N506 1.384 . S
C504 H495 0.929 . S
C504 C496 1.378 . S
C504 C499 1.350 . S
C505 H492 0.929 . S
C505 C497 1.433 . S
C505 N507 1.384 . S
N506 C502 1.427 . S
N506 C503 1.384 . S
N507 C499 1.427 . S
N507 C505 1.384 . S
H508 C514 0.930 . S
H509 C518 0.930 . S
H510 C523 0.929 1_455 S
H511 C521 0.929 1_655 S
H512 C516 0.929 . S
H513 C522 0.929 . S
C514 H508 0.930 . S
C514 C515 1.367 . S
C514 C522 1.378 . S
C515 C514 1.367 . S
C515 C523 1.433 . S
C516 H512 0.929 . S
C516 C518 1.378 . S
C516 C520 1.350 . S
C517 C520 1.463 1_655 S
C517 C522 1.350 . S
C517 N525 1.427 1_655 S
C518 H509 0.930 . S
C518 C516 1.378 . S
C518 C519 1.367 . S
C519 C518 1.367 . S
C519 C521 1.433 . S
C520 C516 1.350 . S
C520 C517 1.463 1_455 S
C520 N524 1.427 1_455 S
C521 H511 0.929 1_455 S
C521 C519 1.433 . S
C521 N524 1.384 1_455 S
C522 H513 0.929 . S
C522 C514 1.378 . S
C522 C517 1.350 . S
C523 H510 0.929 1_655 S
C523 C515 1.433 . S
C523 N525 1.384 1_655 S
N524 C520 1.427 1_655 S
N524 C521 1.384 1_655 S
N525 C517 1.427 1_455 S
N525 C523 1.384 1_455 S
H526 C532 0.930 . S
H527 C536 0.930 . S
H528 C541 0.929 . S
H529 C539 0.929 . S
H530 C534 0.929 1_545 S
H531 C540 0.929 1_565 S
C532 H526 0.930 . S
C532 C533 1.367 . S
C532 C540 1.378 . S
C533 C532 1.367 . S
C533 C541 1.433 . S
C534 H530 0.929 1_565 S
C534 C536 1.378 . S
C534 C538 1.350 . S
C535 C538 1.463 1_545 S
C535 C540 1.350 . S
C535 N543 1.427 . S
C536 H527 0.930 . S
C536 C534 1.378 . S
C536 C537 1.367 . S
C537 C536 1.367 . S
C537 C539 1.433 . S
C538 C534 1.350 . S
C538 C535 1.463 1_565 S
C538 N542 1.427 . S
C539 H529 0.929 . S
C539 C537 1.433 . S
C539 N542 1.384 . S
C540 H531 0.929 1_545 S
C540 C532 1.378 . S
C540 C535 1.350 . S
C541 H528 0.929 . S
C541 C533 1.433 . S
C541 N543 1.384 . S
N542 C538 1.427 . S
N542 C539 1.384 . S
N543 C535 1.427 . S
N543 C541 1.384 . S
H544 C550 0.930 1_565 S
H545 C554 0.930 . S
H546 C559 0.929 . S
H547 C557 0.929 . S
H548 C552 0.929 . S
H549 C558 0.929 . S
C550 H544 0.930 1_545 S
C550 C551 1.367 . S
C550 C558 1.378 . S
C551 C550 1.367 . S
C551 C559 1.433 . S
C552 H548 0.929 . S
C552 C554 1.378 . S
C552 C556 1.350 . S
C553 C556 1.463 . S
C553 C558 1.350 . S
C553 N561 1.427 . S
C554 H545 0.930 . S
C554 C552 1.378 . S
C554 C555 1.367 . S
C555 C554 1.367 . S
C555 C557 1.433 . S
C556 C552 1.350 . S
C556 C553 1.463 . S
C556 N560 1.427 . S
C557 H547 0.929 . S
C557 C555 1.433 . S
C557 N560 1.384 . S
C558 H549 0.929 . S
C558 C550 1.378 . S
C558 C553 1.350 . S
C559 H546 0.929 . S
C559 C551 1.433 . S
C559 N561 1.384 . S
N560 C556 1.427 . S
N560 C557 1.384 . S
N561 C553 1.427 . S
N561 C559 1.384 . S
H562 C568 0.930 . S
H563 C572 0.930 . S
H564 C577 0.929 . S
H565 C575 0.929 1_655 S
H566 C570 0.929 . S
H567 C576 0.929 . S
C568 H562 0.930 . S
C568 C569 1.367 . S
C568 C576 1.378 . S
C569 C568 1.367 . S
C569 C577 1.433 . S
C570 H566 0.929 . S
C570 C572 1.378 . S
C570 C574 1.350 . S
C571 C574 1.463 . S
C571 C576 1.350 . S
C571 N579 1.427 . S
C572 H563 0.930 . S
C572 C570 1.378 . S
C572 C573 1.367 . S
C573 C572 1.367 . S
C573 C575 1.433 . S
C574 C570 1.350 . S
C574 C571 1.463 . S
C574 N578 1.427 . S
C575 H565 0.929 1_455 S
C575 C573 1.433 . S
C575 N578 1.384 . S
C576 H567 0.929 . S
C576 C568 1.378 . S
C576 C571 1.350 . S
C577 H564 0.929 . S
C577 C569 1.433 . S
C577 N579 1.384 . S
N578 C574 1.427 . S
N578 C575 1.384 . S
N579 C571 1.427 . S
N579 C577 1.384 . S
H580 C586 0.930 . S
H581 C590 0.930 . S
H582 C595 0.929 1_545 S
H583 C593 0.929 . S
H584 C588 0.929 . S
H585 C594 0.929 . S
C586 H580 0.930 . S
C586 C587 1.367 . S
C586 C594 1.378 . S
C587 C586 1.367 . S
C587 C595 1.433 . S
C588 H584 0.929 . S
C588 C590 1.378 . S
C588 C592 1.350 . S
C589 C592 1.463 . S
C589 C594 1.350 . S
C589 N597 1.427 . S
C590 H581 0.930 . S
C590 C588 1.378 . S
C590 C591 1.367 . S
C591 C590 1.367 . S
C591 C593 1.433 . S
C592 C588 1.350 . S
C592 C589 1.463 . S
C592 N596 1.427 . S
C593 H583 0.929 . S
C593 C591 1.433 . S
C593 N596 1.384 . S
C594 H585 0.929 . S
C594 C586 1.378 . S
C594 C589 1.350 . S
C595 H582 0.929 1_565 S
C595 C587 1.433 . S
C595 N597 1.384 . S
N596 C592 1.427 . S
N596 C593 1.384 . S
N597 C589 1.427 . S
N597 C595 1.384 . S
H598 C604 0.930 . S
H599 C608 0.930 . S
H600 C613 0.929 . S
H601 C611 0.931 . S
H602 C606 0.929 . S
H603 C612 0.929 . S
C604 H598 0.930 . S
C604 C605 1.367 . S
C604 C612 1.378 . S
C605 C604 1.367 . S
C605 C613 1.433 . S
C606 H602 0.929 . S
C606 C608 1.378 . S
C606 C610 1.350 . S
C607 C610 1.463 . S
C607 C612 1.350 . S
C607 N615 1.427 . S
C608 H599 0.930 . S
C608 C606 1.378 . S
C608 C609 1.367 . S
C609 C608 1.367 . S
C609 C611 1.433 1_655 S
C610 C606 1.350 . S
C610 C607 1.463 . S
C610 N614 1.427 . S
C611 H601 0.931 . S
C611 C609 1.433 1_455 S
C611 N614 1.382 1_455 S
C612 H603 0.929 . S
C612 C604 1.378 . S
C612 C607 1.350 . S
C613 H600 0.929 . S
C613 C605 1.433 . S
C613 N615 1.384 . S
N614 C610 1.427 . S
N614 C611 1.382 1_655 S
N615 C607 1.427 . S
N615 C613 1.384 . S
H616 C622 0.930 . S
H617 C626 0.930 . S
H618 C631 0.908 1_565 S
H619 C629 0.929 . S
H620 C624 0.929 . S
H621 C630 0.929 . S
C622 H616 0.930 . S
C622 C623 1.367 . S
C622 C630 1.378 . S
C623 C622 1.367 . S
C623 C631 1.436 . S
C624 H620 0.929 . S
C624 C626 1.378 . S
C624 C628 1.350 . S
C625 C628 1.463 1_556 S
C625 C630 1.350 . S
C625 N633 1.427 . S
C626 H617 0.930 . S
C626 C624 1.378 . S
C626 C627 1.367 . S
C627 C626 1.367 . S
C627 C629 1.433 . S
C628 C624 1.350 . S
C628 C625 1.463 1_554 S
C628 N632 1.427 . S
C629 H619 0.929 . S
C629 C627 1.433 . S
C629 N632 1.384 . S
C630 H621 0.929 . S
C630 C622 1.378 . S
C630 C625 1.350 . S
C631 H618 0.908 1_545 S
C631 C623 1.436 . S
C631 N633 1.403 . S
N632 C628 1.427 . S
N632 C629 1.384 . S
N633 C625 1.427 . S
N633 C631 1.403 . S
H634 C640 0.930 . S
H635 C644 0.930 . S
H636 C649 0.929 . S
H637 C647 0.929 1_655 S
H638 C642 0.929 . S
H639 C648 0.929 . S
C640 H634 0.930 . S
C640 C641 1.367 . S
C640 C648 1.378 . S
C641 C640 1.367 . S
C641 C649 1.433 . S
C642 H638 0.929 . S
C642 C644 1.378 . S
C642 C646 1.350 . S
C643 C646 1.463 1_556 S
C643 C648 1.350 . S
C643 N651 1.427 1_556 S
C644 H635 0.930 . S
C644 C642 1.378 . S
C644 C645 1.367 . S
C645 C644 1.367 . S
C645 C647 1.433 . S
C646 C642 1.350 . S
C646 C643 1.463 1_554 S
C646 N650 1.427 1_554 S
C647 H637 0.929 1_455 S
C647 C645 1.433 . S
C647 N650 1.384 1_554 S
C648 H639 0.929 . S
C648 C640 1.378 . S
C648 C643 1.350 . S
C649 H636 0.929 . S
C649 C641 1.433 . S
C649 N651 1.384 1_556 S
N650 C646 1.427 1_556 S
N650 C647 1.384 1_556 S
N651 C643 1.427 1_554 S
N651 C649 1.384 1_554 S
H652 C658 0.930 . S
H653 C662 0.930 . S
H654 C667 0.929 . S
H655 C665 0.929 . S
H656 C660 0.929 1_554 S
H657 C666 0.929 1_556 S
C658 H652 0.930 . S
C658 C659 1.367 . S
C658 C666 1.378 . S
C659 C658 1.367 . S
C659 C667 1.433 . S
C660 H656 0.929 1_556 S
C660 C662 1.378 . S
C660 C664 1.350 . S
C661 C664 1.463 1_554 S
C661 C666 1.350 . S
C661 N669 1.427 . S
C662 H653 0.930 . S
C662 C660 1.378 . S
C662 C663 1.367 . S
C663 C662 1.367 . S
C663 C665 1.433 . S
C664 C660 1.350 . S
C664 C661 1.463 1_556 S
C664 N668 1.427 . S
C665 H655 0.929 . S
C665 C663 1.433 . S
C665 N668 1.384 . S
C666 H657 0.929 1_554 S
C666 C658 1.378 . S
C666 C661 1.350 . S
C667 H654 0.929 . S
C667 C659 1.433 . S
C667 N669 1.384 . S
N668 C664 1.427 . S
N668 C665 1.384 . S
N669 C661 1.427 . S
N669 C667 1.384 . S
H670 C676 0.930 . S
H671 C680 0.930 . S
H672 C685 0.929 . S
H673 C683 0.929 1_455 S
H674 C678 0.929 . S
H675 C684 0.929 . S
C676 H670 0.930 . S
C676 C677 1.367 . S
C676 C684 1.378 . S
C677 C676 1.367 . S
C677 C685 1.433 . S
C678 H674 0.929 . S
C678 C680 1.378 . S
C678 C682 1.350 . S
C679 C682 1.463 1_556 S
C679 C684 1.350 . S
C679 N687 1.427 1_556 S
C680 H671 0.930 . S
C680 C678 1.378 . S
C680 C681 1.367 . S
C681 C680 1.367 . S
C681 C683 1.433 . S
C682 C678 1.350 . S
C682 C679 1.463 1_554 S
C682 N686 1.427 1_554 S
C683 H673 0.929 1_655 S
C683 C681 1.433 . S
C683 N686 1.384 1_554 S
C684 H675 0.929 . S
C684 C676 1.378 . S
C684 C679 1.350 . S
C685 H672 0.929 . S
C685 C677 1.433 . S
C685 N687 1.384 1_556 S
N686 C682 1.427 1_556 S
N686 C683 1.384 1_556 S
N687 C679 1.427 1_554 S
N687 C685 1.384 1_554 S
H688 C694 0.930 . S
H689 C698 0.930 . S
H690 C703 0.929 . S
H691 C701 0.929 . S
H692 C696 0.929 . S
H693 C702 0.929 . S
C694 H688 0.930 . S
C694 C695 1.367 . S
C694 C702 1.378 . S
C695 C694 1.367 . S
C695 C703 1.433 . S
C696 H692 0.929 . S
C696 C698 1.378 . S
C696 C700 1.350 . S
C697 C700 1.463 . S
C697 C702 1.350 . S
C697 N705 1.427 . S
C698 H689 0.930 . S
C698 C696 1.378 . S
C698 C699 1.367 . S
C699 C698 1.367 . S
C699 C701 1.433 . S
C700 C696 1.350 . S
C700 C697 1.463 . S
C700 N704 1.427 . S
C701 H691 0.929 . S
C701 C699 1.433 . S
C701 N704 1.384 . S
C702 H693 0.929 . S
C702 C694 1.378 . S
C702 C697 1.350 . S
C703 H690 0.929 . S
C703 C695 1.433 . S
C703 N705 1.384 . S
N704 C700 1.427 . S
N704 C701 1.384 . S
N705 C697 1.427 . S
N705 C703 1.384 . S
H706 C712 0.930 . S
H707 C716 0.930 . S
H708 C721 0.929 . S
H709 C719 0.929 . S
H710 C714 0.929 . S
H711 C720 0.929 . S
C712 H706 0.930 . S
C712 C713 1.367 . S
C712 C720 1.378 . S
C713 C712 1.367 . S
C713 C721 1.433 . S
C714 H710 0.929 . S
C714 C716 1.378 . S
C714 C718 1.350 . S
C715 C718 1.463 . S
C715 C720 1.350 . S
C715 N723 1.427 . S
C716 H707 0.930 . S
C716 C714 1.378 . S
C716 C717 1.367 . S
C717 C716 1.367 . S
C717 C719 1.433 . S
C718 C714 1.350 . S
C718 C715 1.463 . S
C718 N722 1.427 . S
C719 H709 0.929 . S
C719 C717 1.433 . S
C719 N722 1.384 . S
C720 H711 0.929 . S
C720 C712 1.378 . S
C720 C715 1.350 . S
C721 H708 0.929 . S
C721 C713 1.433 . S
C721 N723 1.384 . S
N722 C718 1.427 . S
N722 C719 1.384 . S
N723 C715 1.427 . S
N723 C721 1.384 . S
H724 C730 0.930 . S
H725 C734 0.930 . S
H726 C739 0.929 . S
H727 C737 0.929 . S
H728 C732 0.929 . S
H729 C738 0.929 . S
C730 H724 0.930 . S
C730 C731 1.367 . S
C730 C738 1.378 . S
C731 C730 1.367 . S
C731 C739 1.433 . S
C732 H728 0.929 . S
C732 C734 1.378 . S
C732 C736 1.350 . S
C733 C736 1.463 . S
C733 C738 1.350 . S
C733 N741 1.427 . S
C734 H725 0.930 . S
C734 C732 1.378 . S
C734 C735 1.367 . S
C735 C734 1.367 . S
C735 C737 1.433 . S
C736 C732 1.350 . S
C736 C733 1.463 . S
C736 N740 1.427 . S
C737 H727 0.929 . S
C737 C735 1.433 . S
C737 N740 1.384 . S
C738 H729 0.929 . S
C738 C730 1.378 . S
C738 C733 1.350 . S
C739 H726 0.929 . S
C739 C731 1.433 . S
C739 N741 1.384 . S
N740 C736 1.427 . S
N740 C737 1.384 . S
N741 C733 1.427 . S
N741 C739 1.384 . S
H742 C748 0.930 . S
H743 C752 0.930 . S
H744 C757 0.929 . S
H745 C755 0.929 . S
H746 C750 0.929 . S
H747 C756 0.929 . S
C748 H742 0.930 . S
C748 C749 1.367 . S
C748 C756 1.378 . S
C749 C748 1.367 . S
C749 C757 1.433 . S
C750 H746 0.929 . S
C750 C752 1.378 . S
C750 C754 1.350 . S
C751 C754 1.463 . S
C751 C756 1.350 . S
C751 N759 1.427 . S
C752 H743 0.930 . S
C752 C750 1.378 . S
C752 C753 1.367 . S
C753 C752 1.367 . S
C753 C755 1.433 . S
C754 C750 1.350 . S
C754 C751 1.463 . S
C754 N758 1.427 . S
C755 H745 0.929 . S
C755 C753 1.433 . S
C755 N758 1.384 . S
C756 H747 0.929 . S
C756 C748 1.378 . S
C756 C751 1.350 . S
C757 H744 0.929 . S
C757 C749 1.433 . S
C757 N759 1.384 . S
N758 C754 1.427 . S
N758 C755 1.384 . S
N759 C751 1.427 . S
N759 C757 1.384 . S
C479 C123 1.491 . S
C483 C5 1.489 . S
C497 C182 1.487 . S
C501 C64 1.490 . S
C515 C241 1.493 . S
C519 C359 1.493 . S
C533 C300 1.484 . S
C537 C418 1.486 . S
C551 C92 1.369 1_545 S
C555 C52 1.359 . S
C569 C111 1.356 . S
C573 C151 1.370 1_455 S
C587 C210 1.370 1_565 S
C591 C170 1.361 . S
C605 C229 1.358 . S
C609 C33 1.370 1_655 S
C623 C446 1.370 1_545 S
C627 C288 1.355 . S
C641 C347 1.360 . S
C645 C269 1.370 1_455 S
C659 C406 1.357 . S
C663 C328 1.370 1_565 S
C677 C465 1.360 . S
C681 C387 1.370 1_655 S
C695 C3 1.650 . S
C699 C298 1.646 . S
C713 C357 1.643 . S
C717 C62 1.647 . S
C731 C121 1.651 . S
C735 C416 1.648 . S
C749 C180 1.650 . S
C753 C239 1.650 . S
