# Generated by pormake.
# Topology smc, (6)-cn, num edge types: 1
# Building blocks:
#     Node 0, Type 0, BuildingBlock: MIFKUJ_clean_sbu_0, # of connection points: 6
#     Node 1, Type 0, BuildingBlock: MIFKUJ_clean_sbu_0, # of connection points: 6
#     Node 2, Type 0, BuildingBlock: MIFKUJ_clean_sbu_0, # of connection points: 6
#     Node 3, Type 0, BuildingBlock: MIFKUJ_clean_sbu_0, # of connection points: 6
#     Node 4, Type 0, BuildingBlock: MIFKUJ_clean_sbu_0, # of connection points: 6
#     Node 5, Type 0, BuildingBlock: MIFKUJ_clean_sbu_0, # of connection points: 6
#     Node 6, Type 0, BuildingBlock: MIFKUJ_clean_sbu_0, # of connection points: 6
#     Node 7, Type 0, BuildingBlock: MIFKUJ_clean_sbu_0, # of connection points: 6
#     Node 8, Type 0, BuildingBlock: MIFKUJ_clean_sbu_0, # of connection points: 6
#     Edge 9, Type (0, 0), BuildingBlock: EYOCIG_clean_linker_4, # of connection points: 2
#     Edge 10, Type (0, 0), BuildingBlock: EYOCIG_clean_linker_4, # of connection points: 2
#     Edge 11, Type (0, 0), BuildingBlock: EYOCIG_clean_linker_4, # of connection points: 2
#     Edge 12, Type (0, 0), BuildingBlock: EYOCIG_clean_linker_4, # of connection points: 2
#     Edge 13, Type (0, 0), BuildingBlock: EYOCIG_clean_linker_4, # of connection points: 2
#     Edge 14, Type (0, 0), BuildingBlock: EYOCIG_clean_linker_4, # of connection points: 2
#     Edge 15, Type (0, 0), BuildingBlock: EYOCIG_clean_linker_4, # of connection points: 2
#     Edge 16, Type (0, 0), BuildingBlock: EYOCIG_clean_linker_4, # of connection points: 2
#     Edge 17, Type (0, 0), BuildingBlock: EYOCIG_clean_linker_4, # of connection points: 2
#     Edge 18, Type (0, 0), BuildingBlock: EYOCIG_clean_linker_4, # of connection points: 2
#     Edge 19, Type (0, 0), BuildingBlock: EYOCIG_clean_linker_4, # of connection points: 2
#     Edge 20, Type (0, 0), BuildingBlock: EYOCIG_clean_linker_4, # of connection points: 2
#     Edge 21, Type (0, 0), BuildingBlock: EYOCIG_clean_linker_4, # of connection points: 2
#     Edge 22, Type (0, 0), BuildingBlock: EYOCIG_clean_linker_4, # of connection points: 2
#     Edge 23, Type (0, 0), BuildingBlock: EYOCIG_clean_linker_4, # of connection points: 2
#     Edge 24, Type (0, 0), BuildingBlock: EYOCIG_clean_linker_4, # of connection points: 2
#     Edge 25, Type (0, 0), BuildingBlock: EYOCIG_clean_linker_4, # of connection points: 2
#     Edge 26, Type (0, 0), BuildingBlock: EYOCIG_clean_linker_4, # of connection points: 2
#     Edge 27, Type (0, 0), BuildingBlock: EYOCIG_clean_linker_4, # of connection points: 2
#     Edge 28, Type (0, 0), BuildingBlock: EYOCIG_clean_linker_4, # of connection points: 2
#     Edge 29, Type (0, 0), BuildingBlock: EYOCIG_clean_linker_4, # of connection points: 2
#     Edge 30, Type (0, 0), BuildingBlock: EYOCIG_clean_linker_4, # of connection points: 2
#     Edge 31, Type (0, 0), BuildingBlock: EYOCIG_clean_linker_4, # of connection points: 2
#     Edge 32, Type (0, 0), BuildingBlock: EYOCIG_clean_linker_4, # of connection points: 2
#     Edge 33, Type (0, 0), BuildingBlock: EYOCIG_clean_linker_4, # of connection points: 2
#     Edge 34, Type (0, 0), BuildingBlock: EYOCIG_clean_linker_4, # of connection points: 2
#     Edge 35, Type (0, 0), BuildingBlock: EYOCIG_clean_linker_4, # of connection points: 2
# Relax obj value: 0.192
# Max RMSD: 0.311
# Mean RMSD: 0.303
data_MOF--net-smc--node1-MIFKUJ_clean_sbu_0--edge1-EYOCIG_clean_linker_4
_symmetry_space_group_name_H-M    P1
_symmetry_Int_Tables_number       1
_symmetry_cell_setting            triclinic
loop_
_symmetry_equiv_pos_as_xyz
'x, y, z'
_cell_length_a     29.471689
_cell_length_b     28.417129
_cell_length_c     28.752711
_cell_angle_alpha  91.241475
_cell_angle_beta   91.398486
_cell_angle_gamma 120.19674
loop_
_atom_site_label
_atom_site_type_symbol
_atom_site_fract_x
_atom_site_fract_y
_atom_site_fract_z
_atom_type_partial_charge
Zn0 Zn 0.0537 0.44929 1.00985 0.0
Zn1 Zn 0.92068 0.40687 0.03463 0.0
C2 C 0.1215 0.56433 0.99927 0.0
O3 O 0.14707 0.54739 0.97366 0.0
C4 C 0.83504 0.30436 0.05097 0.0
O5 O 0.83726 0.33188 0.08898 0.0
O6 O 0.11448 0.44169 0.99596 0.0
O7 O 0.0346 0.41483 0.07003 0.0
O8 O 0.96471 0.4164 0.09472 0.0
C9 C 0.14712 0.45266 0.02954 0.0
O10 O 0.13997 0.46935 0.07014 0.0
O11 O 0.07914 0.53018 1.01764 0.0
C12 C 0.84012 0.43225 0.02037 0.0
O13 O 0.82589 0.39633 0.98556 0.0
O14 O 0.87782 0.44128 0.04826 0.0
O15 O 0.94891 0.43714 0.97168 0.0
O16 O 0.00445 0.40961 0.95706 0.0
O17 O 0.87054 0.32691 0.02178 0.0
C18 C 0.00492 0.41162 0.10205 0.0
C19 C 0.96495 0.41305 0.94491 0.0
Zn20 Zn 0.58982 0.52376 0.03831 0.0
Zn21 Zn 0.50233 0.57908 1.01139 0.0
C22 C 0.54413 0.40723 0.04835 0.0
O23 O 0.58791 0.42293 0.07276 0.0
C24 C 0.51682 0.68141 0.99547 0.0
O25 O 0.49154 0.65423 0.95698 0.0
O26 O 0.65938 0.53219 0.05137 0.0
O27 O 0.59934 0.55627 0.97685 0.0
O28 O 0.53851 0.57506 0.95261 0.0
C29 C 0.68122 0.5246 1.01705 0.0
O30 O 0.65605 0.50801 0.97642 0.0
O31 O 0.53466 0.44263 0.03164 0.0
C32 C 0.39804 0.55471 0.02245 0.0
O33 O 0.41985 0.59086 0.05714 0.0
O34 O 0.42594 0.54461 0.99582 0.0
O35 O 0.50404 0.54728 0.07326 0.0
O36 O 0.58446 0.56743 0.09046 0.0
O37 O 0.52985 0.65822 0.02568 0.0
C38 C 0.57882 0.57096 0.94569 0.0
C39 C 0.54456 0.57044 0.10024 0.0
Zn40 Zn 0.38184 0.9146 1.00801 0.0
Zn41 Zn 0.47477 0.06236 0.03707 0.0
C42 C 0.42568 0.84408 0.9979 0.0
O43 O 0.38266 0.81429 0.97213 0.0
C44 C 0.46113 0.1521 0.05333 0.0
O45 O 0.48855 0.15489 0.09096 0.0
O46 O 0.31202 0.85076 0.99297 0.0
O47 O 0.37207 0.93885 0.06951 0.0
O48 O 0.43643 0.01998 0.09562 0.0
C49 C 0.28954 0.82062 0.02649 0.0
O50 O 0.31405 0.83075 0.06735 0.0
O51 O 0.43546 0.88991 1.01523 0.0
C52 C 0.58185 0.14486 0.02351 0.0
O53 O 0.56005 0.15745 0.98931 0.0
O54 O 0.5533 0.10783 0.05101 0.0
O55 O 0.47133 0.02666 0.97402 0.0
O56 O 0.39018 0.96308 0.95725 0.0
O57 O 0.44747 0.11312 0.02383 0.0
C58 C 0.39426 0.97497 0.10159 0.0
C59 C 0.43065 0.0065 0.94717 0.0
Zn60 Zn 0.72702 0.78683 0.34257 0.0
Zn61 Zn 0.59026 0.7468 0.36785 0.0
C62 C 0.79084 0.90203 0.33237 0.0
O63 O 0.81704 0.88631 0.3063 0.0
C64 C 0.50545 0.64297 0.38543 0.0
O65 O 0.50612 0.6705 0.42286 0.0
O66 O 0.79126 0.78219 0.32978 0.0
O67 O 0.70587 0.75145 0.40239 0.0
O68 O 0.63744 0.75686 0.42694 0.0
C69 C 0.82414 0.79306 0.36343 0.0
O70 O 0.81562 0.80734 0.40455 0.0
O71 O 0.74928 0.86687 0.35113 0.0
C72 C 0.50513 0.77078 0.35464 0.0
O73 O 0.49026 0.73457 0.32001 0.0
O74 O 0.54489 0.78124 0.38081 0.0
O75 O 0.61904 0.77313 0.3039 0.0
O76 O 0.67586 0.74641 0.29026 0.0
O77 O 0.5411 0.6662 0.35647 0.0
C78 C 0.6769 0.75047 0.4344 0.0
C79 C 0.63516 0.748 0.27825 0.0
Zn80 Zn 0.1865 0.93349 0.33769 0.0
Zn81 Zn 0.23941 0.84354 0.36283 0.0
C82 C 0.07276 0.88521 0.32838 0.0
O83 O 0.08529 0.92849 0.30434 0.0
C84 C 0.33925 0.85851 0.38455 0.0
O85 O 0.31406 0.83371 0.42146 0.0
O86 O 0.19287 0.00447 0.32621 0.0
O87 O 0.22316 0.94938 0.3988 0.0
O88 O 0.23132 0.88007 0.42215 0.0
C89 C 0.18763 0.02906 0.36101 0.0
O90 O 0.17412 0.00525 0.40095 0.0
O91 O 0.10865 0.87676 0.34423 0.0
C92 C 0.21384 0.73299 0.34987 0.0
O93 O 0.24625 0.75219 0.31565 0.0
O94 O 0.20642 0.76471 0.37606 0.0
O95 O 0.21016 0.84297 0.29794 0.0
O96 O 0.22522 0.92532 0.28628 0.0
O97 O 0.31637 0.87202 0.35435 0.0
C98 C 0.23165 0.92437 0.43027 0.0
C99 C 0.22945 0.88505 0.27375 0.0
Zn100 Zn 0.04861 0.25443 0.34198 0.0
Zn101 Zn 0.14665 0.39386 0.36783 0.0
C102 C 0.09607 0.18843 0.33398 0.0
O103 O 0.05397 0.15761 0.30744 0.0
C104 C 0.12771 0.47912 0.38783 0.0
O105 O 0.15593 0.48264 0.4251 0.0
O106 O 0.97969 0.18875 0.32756 0.0
O107 O 0.03633 0.2831 0.39967 0.0
O108 O 0.1137 0.3508 0.42655 0.0
C109 C 0.95814 0.15851 0.36128 0.0
O110 O -0.01693 0.16974 0.40203 0.0
O111 O 0.10344 0.23289 0.35223 0.0
C112 C 0.25367 0.48141 0.35552 0.0
O113 O 0.23216 0.4957 0.32234 0.0
O114 O 0.22506 0.44204 0.381 0.0
O115 O 0.14151 0.36096 0.30319 0.0
O116 O 0.05823 0.30054 0.29015 0.0
O117 O 0.11513 0.44087 0.35796 0.0
C118 C 0.06629 0.31412 0.43248 0.0
C119 C 0.09964 0.34149 0.27785 0.0
Zn120 Zn 0.39521 0.12487 0.6771 0.0
Zn121 Zn 0.26154 0.08168 0.70157 0.0
C122 C 0.46158 0.24022 0.66906 0.0
O123 O 0.48712 0.22461 0.64196 0.0
C124 C 0.17684 0.97978 0.71871 0.0
O125 O 0.18046 0.00797 0.75672 0.0
O126 O 0.45561 0.1171 0.66311 0.0
O127 O 0.37329 0.08526 0.7349 0.0
O128 O 0.30631 0.09141 0.7612 0.0
C129 C 0.48653 0.12607 0.69763 0.0
O130 O 0.47878 0.14304 0.73783 0.0
O131 O 0.41997 0.20508 0.68773 0.0
C132 C 0.17948 0.10511 0.68812 0.0
O133 O 0.16626 0.07009 0.65275 0.0
O134 O 0.21772 0.115 0.71569 0.0
O135 O 0.29088 0.11335 0.63951 0.0
O136 O 0.34801 0.08836 0.62372 0.0
O137 O 0.21144 0.00169 0.68862 0.0
C138 C 0.34501 0.08382 0.76757 0.0
C139 C 0.30766 0.09037 0.6123 0.0
Zn140 Zn 0.92586 0.19469 0.70562 0.0
Zn141 Zn 0.83826 0.24893 0.67835 0.0
C142 C 0.88076 0.07859 0.71487 0.0
O143 O 0.92438 0.09461 0.73963 0.0
C144 C 0.85403 0.3522 0.66326 0.0
O145 O 0.82821 0.32539 0.62482 0.0
O146 O -0.005 0.20254 0.71919 0.0
O147 O 0.93598 0.22834 0.64472 0.0
O148 O 0.87287 0.24335 0.61948 0.0
C149 C 0.01698 0.19478 0.68508 0.0
O150 O -0.00735 0.17967 0.64402 0.0
O151 O 0.87104 0.11373 0.69796 0.0
C152 C 0.73507 0.22454 0.69112 0.0
O153 O 0.75763 0.26051 0.72584 0.0
O154 O 0.76233 0.2152 0.66314 0.0
O155 O 0.83888 0.21464 0.73891 0.0
O156 O 0.91927 0.23663 0.75819 0.0
O157 O 0.86682 0.3284 0.69312 0.0
C158 C 0.91435 0.24134 0.6132 0.0
C159 C 0.87836 0.23802 0.76702 0.0
Zn160 Zn 0.72216 0.58774 0.67404 0.0
Zn161 Zn 0.81545 0.7357 0.70243 0.0
C162 C 0.76656 0.5177 0.66593 0.0
O163 O 0.72402 0.48806 0.63955 0.0
C164 C 0.80018 0.8243 0.72043 0.0
O165 O 0.82813 0.82742 0.75779 0.0
O166 O 0.65208 0.52339 0.66062 0.0
O167 O 0.71127 0.61439 0.73382 0.0
O168 O 0.77854 0.69343 0.76048 0.0
C169 C 0.63016 0.49493 0.6952 0.0
O170 O 0.6557 0.50632 0.73564 0.0
O171 O 0.77597 0.56343 0.68321 0.0
C172 C 0.92317 0.81917 0.69135 0.0
O173 O 0.90255 0.8326 0.65678 0.0
O174 O 0.89367 0.78108 0.71753 0.0
O175 O 0.81087 0.70024 0.63903 0.0
O176 O 0.73027 0.63497 0.62233 0.0
O177 O 0.78711 0.78578 0.69059 0.0
C178 C 0.73477 0.65019 0.76592 0.0
C179 C 0.76982 0.67938 0.61251 0.0
C180 C 0.29564 0.49445 1.0161 0.0
C181 C 0.34252 0.52145 1.01827 0.0
C182 C 0.24116 0.46978 1.01671 0.0
C183 C 0.19726 0.46072 1.02003 0.0
C184 C 0.48606 0.80142 1.01134 0.0
C185 C 0.46077 0.82381 1.00694 0.0
C186 C 0.50766 0.76705 1.01211 0.0
C187 C 0.51493 0.72914 1.00861 0.0
C188 C 0.2034 0.72633 1.01406 0.0
C189 C 0.2426 0.77002 1.01768 0.0
C190 C 0.16659 0.67047 1.01078 0.0
C191 C 0.14302 0.62159 1.00747 0.0
C192 C 0.46415 0.24404 0.03686 0.0
C193 C 0.45957 0.1997 0.04044 0.0
C194 C 0.48344 0.3007 0.03671 0.0
C195 C 0.50817 0.34985 0.03995 0.0
C196 C 0.6852 0.19095 0.02843 0.0
C197 C 0.63797 0.16934 0.02691 0.0
C198 C 0.74049 0.22243 0.03128 0.0
C199 C 0.7855 0.25843 0.03622 0.0
C200 C 0.79671 0.49288 0.02585 0.0
C201 C 0.81711 0.46565 0.02402 0.0
C202 C 0.76448 0.51566 0.02649 0.0
C203 C 0.72686 0.52104 0.02503 0.0
C204 C 0.91795 0.80636 0.35002 0.0
C205 C 0.87465 0.79976 0.35476 0.0
C206 C 0.97187 0.82549 0.34444 0.0
C207 C 0.0186 0.84996 0.33896 0.0
C208 C 0.16011 0.15091 0.34748 0.0
C209 C 0.13295 0.17091 0.34302 0.0
C210 C 0.18065 0.11625 0.35136 0.0
C211 C 0.18439 0.07644 0.3541 0.0
C212 C 0.87195 0.06383 0.34888 0.0
C213 C 0.91121 0.10754 0.35295 0.0
C214 C 0.83479 0.00799 0.34495 0.0
C215 C 0.81145 0.95908 0.34134 0.0
C216 C 0.15771 0.62746 0.36045 0.0
C217 C 0.18338 0.67567 0.35559 0.0
C218 C 0.13485 0.57145 0.367 0.0
C219 C 0.12866 0.52709 0.37319 0.0
C220 C 0.35697 0.52751 0.36184 0.0
C221 C 0.30977 0.50601 0.35947 0.0
C222 C 0.41221 0.55914 0.3654 0.0
C223 C 0.45685 0.59592 0.37046 0.0
C224 C 0.41981 0.8459 0.36759 0.0
C225 C 0.38382 0.85418 0.37201 0.0
C226 C 0.45368 0.82435 0.36398 0.0
C227 C 0.47815 0.80083 0.36087 0.0
C228 C 0.63309 0.16169 0.68755 0.0
C229 C 0.67977 0.19005 0.68865 0.0
C230 C 0.57876 0.1374 0.68792 0.0
C231 C 0.53576 0.13108 0.68992 0.0
C232 C 0.84714 0.43923 0.68025 0.0
C233 C 0.85345 0.40066 0.67662 0.0
C234 C 0.82647 0.4745 0.6797 0.0
C235 C 0.80163 0.49742 0.67537 0.0
C236 C 0.54236 0.4017 0.6856 0.0
C237 C 0.58233 0.44477 0.6882 0.0
C238 C 0.50524 0.34595 0.68243 0.0
C239 C 0.4822 0.29713 0.67845 0.0
C240 C 0.80169 0.91553 0.70431 0.0
C241 C 0.79784 0.87154 0.70784 0.0
C242 C 0.82054 0.97205 0.70382 0.0
C243 C 0.84502 0.02118 0.70674 0.0
C244 C 0.02646 0.8658 0.69885 0.0
C245 C 0.97921 0.84371 0.6964 0.0
C246 C 0.08174 0.89763 0.70145 0.0
C247 C 0.12681 0.93372 0.70536 0.0
C248 C 0.13181 0.16147 0.69565 0.0
C249 C 0.15427 0.1363 0.69303 0.0
C250 C 0.09865 0.18318 0.69605 0.0
C251 C 0.06162 0.18954 0.69361 0.0
C252 C 0.07341 0.38698 0.21286 0.0
C253 C 0.09292 0.37225 0.24228 0.0
C254 C 0.04361 0.39739 0.17969 0.0
C255 C 0.02035 0.40388 0.14765 0.0
C256 C 0.5825 0.68137 0.20636 0.0
C257 C 0.60327 0.71306 0.23937 0.0
C258 C 0.56219 0.64144 0.16922 0.0
C259 C 0.54997 0.60823 0.1373 0.0
C260 C 0.33913 0.94021 0.17672 0.0
C261 C 0.36883 0.96194 0.14555 0.0
C262 C 0.29993 0.91248 0.20967 0.0
C263 C 0.26702 0.89413 0.23885 0.0
C264 C 0.40784 0.05305 0.87997 0.0
C265 C 0.42452 0.03711 0.91091 0.0
C266 C 0.38137 0.06583 0.84514 0.0
C267 C 0.35999 0.07436 0.81274 0.0
C268 C 0.91252 0.34785 0.87264 0.0
C269 C 0.93293 0.3791 0.90586 0.0
C270 C 0.89304 0.30822 0.83545 0.0
C271 C 0.88189 0.27523 0.80363 0.0
C272 C 0.6769 0.62397 0.83937 0.0
C273 C 0.70765 0.64097 0.80854 0.0
C274 C 0.63726 0.60351 0.87246 0.0
C275 C 0.60703 0.58954 0.90371 0.0
C276 C 0.71491 0.73647 0.51297 0.0
C277 C 0.69235 0.7432 0.48034 0.0
C278 C 0.74322 0.72527 0.54734 0.0
C279 C 0.76173 0.70998 0.57735 0.0
C280 C 0.24744 0.97832 0.50945 0.0
C281 C 0.2409 0.9486 0.47627 0.0
C282 C 0.25869 0.01871 0.54448 0.0
C283 C 0.27506 0.05316 0.57546 0.0
C284 C 0.97239 0.27271 0.54012 0.0
C285 C 0.94187 0.25915 0.57099 0.0
C286 C 0.01239 0.29189 0.50759 0.0
C287 C 0.04292 0.30717 0.47668 0.0
loop_
_geom_bond_atom_site_label_1
_geom_bond_atom_site_label_2
_geom_bond_distance
_geom_bond_site_symmetry_2
_ccdc_geom_bond_type
Zn0 O6 1.969 . S
Zn0 O7 1.965 1_556 S
Zn0 O11 2.024 1_556 S
Zn0 O16 1.969 . S
Zn1 O8 1.969 . S
Zn1 O14 1.969 . S
Zn1 O15 1.965 1_554 S
Zn1 O17 2.024 1_554 S
C2 O3 1.229 . S
C2 O11 1.058 1_556 S
O3 C2 1.229 . S
C4 O5 1.229 . S
C4 O17 1.058 1_554 S
O5 C4 1.229 . S
O6 Zn0 1.969 . S
O6 C9 1.267 1_556 S
O7 Zn0 1.965 1_554 S
O7 C18 1.260 . S
O8 Zn1 1.969 . S
O8 C18 1.258 1_655 S
C9 O6 1.267 1_554 S
C9 O10 1.228 . S
O10 C9 1.228 . S
O11 Zn0 2.024 1_554 S
O11 C2 1.058 1_554 S
C12 O13 1.228 1_554 S
C12 O14 1.267 . S
O13 C12 1.228 1_556 S
O14 Zn1 1.969 . S
O14 C12 1.267 . S
O15 Zn1 1.965 1_556 S
O15 C19 1.260 . S
O16 Zn0 1.969 . S
O16 C19 1.258 1_455 S
O17 Zn1 2.024 1_556 S
O17 C4 1.058 1_556 S
C18 O7 1.260 . S
C18 O8 1.258 1_455 S
C19 O15 1.260 . S
C19 O16 1.258 1_655 S
Zn20 O26 1.969 . S
Zn20 O27 1.965 1_554 S
Zn20 O31 2.024 1_554 S
Zn20 O36 1.969 . S
Zn21 O28 1.969 . S
Zn21 O34 1.969 . S
Zn21 O35 1.965 1_556 S
Zn21 O37 2.024 1_556 S
C22 O23 1.229 . S
C22 O31 1.058 1_554 S
O23 C22 1.229 . S
C24 O25 1.229 . S
C24 O37 1.058 1_556 S
O25 C24 1.229 . S
O26 Zn20 1.969 . S
O26 C29 1.263 1_554 S
O27 Zn20 1.965 1_556 S
O27 C38 1.260 . S
O28 Zn21 1.969 . S
O28 C38 1.258 . S
C29 O26 1.263 1_556 S
C29 O30 1.234 . S
O30 C29 1.234 . S
O31 Zn20 2.024 1_556 S
O31 C22 1.058 1_556 S
C32 O33 1.228 . S
C32 O34 1.267 1_554 S
O33 C32 1.228 . S
O34 Zn21 1.969 . S
O34 C32 1.267 1_556 S
O35 Zn21 1.965 1_554 S
O35 C39 1.260 . S
O36 Zn20 1.969 . S
O36 C39 1.258 . S
O37 Zn21 2.024 1_554 S
O37 C24 1.058 1_554 S
C38 O27 1.260 . S
C38 O28 1.258 . S
C39 O35 1.260 . S
C39 O36 1.258 . S
Zn40 O46 1.969 . S
Zn40 O47 1.965 1_556 S
Zn40 O51 2.024 1_556 S
Zn40 O56 1.969 . S
Zn41 O48 1.969 . S
Zn41 O54 1.969 . S
Zn41 O55 1.965 1_554 S
Zn41 O57 2.024 1_554 S
C42 O43 1.229 . S
C42 O51 1.058 1_556 S
O43 C42 1.229 . S
C44 O45 1.229 . S
C44 O57 1.058 1_554 S
O45 C44 1.229 . S
O46 Zn40 1.969 . S
O46 C49 1.267 1_556 S
O47 Zn40 1.965 1_554 S
O47 C58 1.260 . S
O48 Zn41 1.969 . S
O48 C58 1.258 1_545 S
C49 O46 1.267 1_554 S
C49 O50 1.228 . S
O50 C49 1.228 . S
O51 Zn40 2.024 1_554 S
O51 C42 1.058 1_554 S
C52 O53 1.228 1_554 S
C52 O54 1.267 . S
O53 C52 1.228 1_556 S
O54 Zn41 1.969 . S
O54 C52 1.267 . S
O55 Zn41 1.965 1_556 S
O55 C59 1.260 . S
O56 Zn40 1.969 . S
O56 C59 1.258 1_565 S
O57 Zn41 2.024 1_556 S
O57 C44 1.058 1_556 S
C58 O47 1.260 . S
C58 O48 1.258 1_565 S
C59 O55 1.260 . S
C59 O56 1.258 1_545 S
Zn60 O66 1.969 . S
Zn60 O67 1.965 . S
Zn60 O71 2.024 . S
Zn60 O76 1.969 . S
Zn61 O68 1.969 . S
Zn61 O74 1.969 . S
Zn61 O75 1.965 . S
Zn61 O77 2.024 . S
C62 O63 1.229 . S
C62 O71 1.058 . S
O63 C62 1.229 . S
C64 O65 1.229 . S
C64 O77 1.058 . S
O65 C64 1.229 . S
O66 Zn60 1.969 . S
O66 C69 1.267 . S
O67 Zn60 1.965 . S
O67 C78 1.260 . S
O68 Zn61 1.969 . S
O68 C78 1.258 . S
C69 O66 1.267 . S
C69 O70 1.228 . S
O70 C69 1.228 . S
O71 Zn60 2.024 . S
O71 C62 1.058 . S
C72 O73 1.228 . S
C72 O74 1.267 . S
O73 C72 1.228 . S
O74 Zn61 1.969 . S
O74 C72 1.267 . S
O75 Zn61 1.965 . S
O75 C79 1.260 . S
O76 Zn60 1.969 . S
O76 C79 1.258 . S
O77 Zn61 2.024 . S
O77 C64 1.058 . S
C78 O67 1.260 . S
C78 O68 1.258 . S
C79 O75 1.260 . S
C79 O76 1.258 . S
Zn80 O86 1.969 1_565 S
Zn80 O87 1.965 . S
Zn80 O91 2.024 . S
Zn80 O96 1.969 . S
Zn81 O88 1.969 . S
Zn81 O94 1.969 . S
Zn81 O95 1.965 . S
Zn81 O97 2.024 . S
C82 O83 1.229 . S
C82 O91 1.058 . S
O83 C82 1.229 . S
C84 O85 1.229 . S
C84 O97 1.058 . S
O85 C84 1.229 . S
O86 Zn80 1.969 1_545 S
O86 C89 1.267 . S
O87 Zn80 1.965 . S
O87 C98 1.260 . S
O88 Zn81 1.969 . S
O88 C98 1.258 . S
C89 O86 1.267 . S
C89 O90 1.228 . S
O90 C89 1.228 . S
O91 Zn80 2.024 . S
O91 C82 1.058 . S
C92 O93 1.228 . S
C92 O94 1.267 . S
O93 C92 1.228 . S
O94 Zn81 1.969 . S
O94 C92 1.267 . S
O95 Zn81 1.965 . S
O95 C99 1.260 . S
O96 Zn80 1.969 . S
O96 C99 1.258 . S
O97 Zn81 2.024 . S
O97 C84 1.058 . S
C98 O87 1.260 . S
C98 O88 1.258 . S
C99 O95 1.260 . S
C99 O96 1.258 . S
Zn100 O106 1.969 1_455 S
Zn100 O107 1.965 . S
Zn100 O111 2.024 . S
Zn100 O116 1.969 . S
Zn101 O108 1.969 . S
Zn101 O114 1.969 . S
Zn101 O115 1.965 . S
Zn101 O117 2.024 . S
C102 O103 1.229 . S
C102 O111 1.058 . S
O103 C102 1.229 . S
C104 O105 1.229 . S
C104 O117 1.058 . S
O105 C104 1.229 . S
O106 Zn100 1.969 1_655 S
O106 C109 1.267 . S
O107 Zn100 1.965 . S
O107 C118 1.260 . S
O108 Zn101 1.969 . S
O108 C118 1.258 . S
C109 O106 1.267 . S
C109 O110 1.228 . S
O110 C109 1.228 . S
O111 Zn100 2.024 . S
O111 C102 1.058 . S
C112 O113 1.228 . S
C112 O114 1.267 . S
O113 C112 1.228 . S
O114 Zn101 1.969 . S
O114 C112 1.267 . S
O115 Zn101 1.965 . S
O115 C119 1.260 . S
O116 Zn100 1.969 . S
O116 C119 1.258 . S
O117 Zn101 2.024 . S
O117 C104 1.058 . S
C118 O107 1.260 . S
C118 O108 1.258 . S
C119 O115 1.260 . S
C119 O116 1.258 . S
Zn120 O126 1.969 . S
Zn120 O127 1.965 . S
Zn120 O131 2.024 . S
Zn120 O136 1.969 . S
Zn121 O128 1.969 . S
Zn121 O134 1.969 . S
Zn121 O135 1.965 . S
Zn121 O137 2.024 . S
C122 O123 1.229 . S
C122 O131 1.058 . S
O123 C122 1.229 . S
C124 O125 1.229 1_565 S
C124 O137 1.058 1_565 S
O125 C124 1.229 1_545 S
O126 Zn120 1.969 . S
O126 C129 1.267 . S
O127 Zn120 1.965 . S
O127 C138 1.260 . S
O128 Zn121 1.969 . S
O128 C138 1.258 . S
C129 O126 1.267 . S
C129 O130 1.228 . S
O130 C129 1.228 . S
O131 Zn120 2.024 . S
O131 C122 1.058 . S
C132 O133 1.228 . S
C132 O134 1.267 . S
O133 C132 1.228 . S
O134 Zn121 1.969 . S
O134 C132 1.267 . S
O135 Zn121 1.965 . S
O135 C139 1.260 . S
O136 Zn120 1.969 . S
O136 C139 1.258 . S
O137 Zn121 2.024 . S
O137 C124 1.058 1_545 S
C138 O127 1.260 . S
C138 O128 1.258 . S
C139 O135 1.260 . S
C139 O136 1.258 . S
Zn140 O146 1.969 1_655 S
Zn140 O147 1.965 . S
Zn140 O151 2.024 . S
Zn140 O156 1.969 . S
Zn141 O148 1.969 . S
Zn141 O154 1.969 . S
Zn141 O155 1.965 . S
Zn141 O157 2.024 . S
C142 O143 1.229 . S
C142 O151 1.058 . S
O143 C142 1.229 . S
C144 O145 1.229 . S
C144 O157 1.058 . S
O145 C144 1.229 . S
O146 Zn140 1.969 1_455 S
O146 C149 1.267 . S
O147 Zn140 1.965 . S
O147 C158 1.260 . S
O148 Zn141 1.969 . S
O148 C158 1.258 . S
C149 O146 1.267 . S
C149 O150 1.228 . S
O150 C149 1.228 . S
O151 Zn140 2.024 . S
O151 C142 1.058 . S
C152 O153 1.228 . S
C152 O154 1.267 . S
O153 C152 1.228 . S
O154 Zn141 1.969 . S
O154 C152 1.267 . S
O155 Zn141 1.965 . S
O155 C159 1.260 . S
O156 Zn140 1.969 . S
O156 C159 1.258 . S
O157 Zn141 2.024 . S
O157 C144 1.058 . S
C158 O147 1.260 . S
C158 O148 1.258 . S
C159 O155 1.260 . S
C159 O156 1.258 . S
Zn160 O166 1.969 . S
Zn160 O167 1.965 . S
Zn160 O171 2.024 . S
Zn160 O176 1.969 . S
Zn161 O168 1.969 . S
Zn161 O174 1.969 . S
Zn161 O175 1.965 . S
Zn161 O177 2.024 . S
C162 O163 1.229 . S
C162 O171 1.058 . S
O163 C162 1.229 . S
C164 O165 1.229 . S
C164 O177 1.058 . S
O165 C164 1.229 . S
O166 Zn160 1.969 . S
O166 C169 1.267 . S
O167 Zn160 1.965 . S
O167 C178 1.260 . S
O168 Zn161 1.969 . S
O168 C178 1.258 . S
C169 O166 1.267 . S
C169 O170 1.228 . S
O170 C169 1.228 . S
O171 Zn160 2.024 . S
O171 C162 1.058 . S
C172 O173 1.228 . S
C172 O174 1.267 . S
O173 C172 1.228 . S
O174 Zn161 1.969 . S
O174 C172 1.267 . S
O175 Zn161 1.965 . S
O175 C179 1.260 . S
O176 Zn160 1.969 . S
O176 C179 1.258 . S
O177 Zn161 2.024 . S
O177 C164 1.058 . S
C178 O167 1.260 . S
C178 O168 1.258 . S
C179 O175 1.260 . S
C179 O176 1.258 . S
C180 C181 1.170 . S
C180 C182 1.382 . S
C181 C180 1.170 . S
C182 C180 1.382 . S
C182 C183 1.168 1_556 S
C183 C182 1.168 1_554 S
C184 C185 1.170 . S
C184 C186 1.380 . S
C185 C184 1.170 . S
C186 C184 1.380 . S
C186 C187 1.170 . S
C187 C186 1.170 . S
C188 C189 1.170 . S
C188 C190 1.380 . S
C189 C188 1.170 . S
C190 C188 1.380 . S
C190 C191 1.170 . S
C191 C190 1.170 . S
C192 C193 1.170 . S
C192 C194 1.380 . S
C193 C192 1.170 . S
C194 C192 1.380 . S
C194 C195 1.170 . S
C195 C194 1.170 . S
C196 C197 1.170 . S
C196 C198 1.380 . S
C197 C196 1.170 . S
C198 C196 1.380 . S
C198 C199 1.170 . S
C199 C198 1.170 . S
C200 C201 1.170 . S
C200 C202 1.380 . S
C201 C200 1.170 . S
C202 C200 1.380 . S
C202 C203 1.170 . S
C203 C202 1.170 . S
C204 C205 1.170 . S
C204 C206 1.380 . S
C205 C204 1.170 . S
C206 C204 1.380 . S
C206 C207 1.170 1_655 S
C207 C206 1.170 1_455 S
C208 C209 1.170 . S
C208 C210 1.380 . S
C209 C208 1.170 . S
C210 C208 1.380 . S
C210 C211 1.170 . S
C211 C210 1.170 . S
C212 C213 1.170 . S
C212 C214 1.380 . S
C213 C212 1.170 . S
C214 C212 1.380 . S
C214 C215 1.170 1_545 S
C215 C214 1.170 1_565 S
C216 C217 1.170 . S
C216 C218 1.380 . S
C217 C216 1.170 . S
C218 C216 1.380 . S
C218 C219 1.170 . S
C219 C218 1.170 . S
C220 C221 1.170 . S
C220 C222 1.380 . S
C221 C220 1.170 . S
C222 C220 1.380 . S
C222 C223 1.170 . S
C223 C222 1.170 . S
C224 C225 1.170 . S
C224 C226 1.380 . S
C225 C224 1.170 . S
C226 C224 1.380 . S
C226 C227 1.170 . S
C227 C226 1.170 . S
C228 C229 1.170 . S
C228 C230 1.380 . S
C229 C228 1.170 . S
C230 C228 1.380 . S
C230 C231 1.170 . S
C231 C230 1.170 . S
C232 C233 1.170 . S
C232 C234 1.380 . S
C233 C232 1.170 . S
C234 C232 1.380 . S
C234 C235 1.170 . S
C235 C234 1.170 . S
C236 C237 1.170 . S
C236 C238 1.380 . S
C237 C236 1.170 . S
C238 C236 1.380 . S
C238 C239 1.170 . S
C239 C238 1.170 . S
C240 C241 1.170 . S
C240 C242 1.380 . S
C241 C240 1.170 . S
C242 C240 1.380 . S
C242 C243 1.170 1_565 S
C243 C242 1.170 1_545 S
C244 C245 1.170 . S
C244 C246 1.380 . S
C245 C244 1.170 . S
C246 C244 1.380 . S
C246 C247 1.170 . S
C247 C246 1.170 . S
C248 C249 1.170 . S
C248 C250 1.380 . S
C249 C248 1.170 . S
C250 C248 1.380 . S
C250 C251 1.170 . S
C251 C250 1.170 . S
C252 C253 1.170 . S
C252 C254 1.380 . S
C253 C252 1.170 . S
C254 C252 1.380 . S
C254 C255 1.170 . S
C255 C254 1.170 . S
C256 C257 1.170 . S
C256 C258 1.380 . S
C257 C256 1.170 . S
C258 C256 1.380 . S
C258 C259 1.170 . S
C259 C258 1.170 . S
C260 C261 1.170 . S
C260 C262 1.380 . S
C261 C260 1.170 . S
C262 C260 1.380 . S
C262 C263 1.170 . S
C263 C262 1.170 . S
C264 C265 1.170 . S
C264 C266 1.380 . S
C265 C264 1.170 . S
C266 C264 1.380 . S
C266 C267 1.170 . S
C267 C266 1.170 . S
C268 C269 1.170 . S
C268 C270 1.380 . S
C269 C268 1.170 . S
C270 C268 1.380 . S
C270 C271 1.170 . S
C271 C270 1.170 . S
C272 C273 1.170 . S
C272 C274 1.380 . S
C273 C272 1.170 . S
C274 C272 1.380 . S
C274 C275 1.170 . S
C275 C274 1.170 . S
C276 C277 1.170 . S
C276 C278 1.380 . S
C277 C276 1.170 . S
C278 C276 1.380 . S
C278 C279 1.170 . S
C279 C278 1.170 . S
C280 C281 1.170 . S
C280 C282 1.380 1_565 S
C281 C280 1.170 . S
C282 C280 1.380 1_545 S
C282 C283 1.170 . S
C283 C282 1.170 . S
C284 C285 1.170 . S
C284 C286 1.380 1_655 S
C285 C284 1.170 . S
C286 C284 1.380 1_455 S
C286 C287 1.170 . S
C287 C286 1.170 . S
C181 C32 1.329 1_556 S
C183 C9 1.119 . S
C185 C42 1.537 . S
C187 C24 1.255 . S
C189 C49 1.169 1_556 S
C191 C2 1.340 . S
C193 C44 1.348 . S
C195 C22 1.576 . S
C197 C52 1.509 . S
C199 C4 1.227 . S
C201 C12 1.300 . S
C203 C29 1.175 1_554 S
C205 C69 1.403 . S
C207 C82 1.559 . S
C209 C102 1.305 . S
C211 C89 1.177 . S
C213 C109 1.224 . S
C215 C62 1.363 . S
C217 C92 1.341 . S
C219 C104 1.062 . S
C221 C112 1.490 . S
C223 C64 1.245 . S
C225 C84 1.251 . S
C227 C72 1.563 . S
C229 C152 1.268 . S
C231 C129 1.146 . S
C233 C144 1.279 . S
C235 C162 1.532 . S
C237 C169 1.224 . S
C239 C122 1.342 . S
C241 C164 1.318 . S
C243 C142 1.536 . S
C245 C172 1.507 1_455 S
C247 C124 1.180 . S
C249 C132 1.304 . S
C251 C149 1.104 . S
C253 C119 2.219 . S
C255 C18 2.155 . S
C257 C79 2.236 . S
C259 C39 2.215 . S
C261 C58 2.271 . S
C263 C99 2.341 . S
C265 C59 2.255 . S
C267 C138 2.144 . S
C269 C19 2.187 . S
C271 C159 2.172 . S
C273 C178 2.195 . S
C275 C38 2.219 . S
C277 C78 2.187 . S
C279 C179 2.250 . S
C281 C98 2.075 . S
C283 C139 2.139 . S
C285 C158 2.148 . S
C287 C118 2.137 . S
