# Generated by pormake.
# Topology wir, (6)-cn, num edge types: 1
# Building blocks:
#     Node 0, Type 0, BuildingBlock: BETDAH_clean_sbu_0, # of connection points: 6
#     Node 1, Type 0, BuildingBlock: BETDAH_clean_sbu_0, # of connection points: 6
#     Node 2, Type 0, BuildingBlock: BETDAH_clean_sbu_0, # of connection points: 6
#     Node 3, Type 0, BuildingBlock: BETDAH_clean_sbu_0, # of connection points: 6
#     Node 4, Type 0, BuildingBlock: BETDAH_clean_sbu_0, # of connection points: 6
#     Node 5, Type 0, BuildingBlock: BETDAH_clean_sbu_0, # of connection points: 6
#     Node 6, Type 0, BuildingBlock: BETDAH_clean_sbu_0, # of connection points: 6
#     Node 7, Type 0, BuildingBlock: BETDAH_clean_sbu_0, # of connection points: 6
#     Node 8, Type 0, BuildingBlock: BETDAH_clean_sbu_0, # of connection points: 6
#     Node 9, Type 0, BuildingBlock: BETDAH_clean_sbu_0, # of connection points: 6
#     Node 10, Type 0, BuildingBlock: BETDAH_clean_sbu_0, # of connection points: 6
#     Node 11, Type 0, BuildingBlock: BETDAH_clean_sbu_0, # of connection points: 6
#     Node 12, Type 0, BuildingBlock: BETDAH_clean_sbu_0, # of connection points: 6
#     Node 13, Type 0, BuildingBlock: BETDAH_clean_sbu_0, # of connection points: 6
#     Node 14, Type 0, BuildingBlock: BETDAH_clean_sbu_0, # of connection points: 6
#     Node 15, Type 0, BuildingBlock: BETDAH_clean_sbu_0, # of connection points: 6
#     Node 16, Type 0, BuildingBlock: BETDAH_clean_sbu_0, # of connection points: 6
#     Node 17, Type 0, BuildingBlock: BETDAH_clean_sbu_0, # of connection points: 6
#     Node 18, Type 0, BuildingBlock: BETDAH_clean_sbu_0, # of connection points: 6
#     Node 19, Type 0, BuildingBlock: BETDAH_clean_sbu_0, # of connection points: 6
#     Node 20, Type 0, BuildingBlock: BETDAH_clean_sbu_0, # of connection points: 6
#     Node 21, Type 0, BuildingBlock: BETDAH_clean_sbu_0, # of connection points: 6
#     Node 22, Type 0, BuildingBlock: BETDAH_clean_sbu_0, # of connection points: 6
#     Node 23, Type 0, BuildingBlock: BETDAH_clean_sbu_0, # of connection points: 6
#     Node 24, Type 0, BuildingBlock: BETDAH_clean_sbu_0, # of connection points: 6
#     Node 25, Type 0, BuildingBlock: BETDAH_clean_sbu_0, # of connection points: 6
#     Node 26, Type 0, BuildingBlock: BETDAH_clean_sbu_0, # of connection points: 6
#     Node 27, Type 0, BuildingBlock: BETDAH_clean_sbu_0, # of connection points: 6
#     Node 28, Type 0, BuildingBlock: BETDAH_clean_sbu_0, # of connection points: 6
#     Node 29, Type 0, BuildingBlock: BETDAH_clean_sbu_0, # of connection points: 6
#     Node 30, Type 0, BuildingBlock: BETDAH_clean_sbu_0, # of connection points: 6
#     Node 31, Type 0, BuildingBlock: BETDAH_clean_sbu_0, # of connection points: 6
#     Edge 32, Type (0, 0), BuildingBlock: KIFKEQ_clean_linker_1, # of connection points: 2
#     Edge 33, Type (0, 0), BuildingBlock: KIFKEQ_clean_linker_1, # of connection points: 2
#     Edge 34, Type (0, 0), BuildingBlock: KIFKEQ_clean_linker_1, # of connection points: 2
#     Edge 35, Type (0, 0), BuildingBlock: KIFKEQ_clean_linker_1, # of connection points: 2
#     Edge 36, Type (0, 0), BuildingBlock: KIFKEQ_clean_linker_1, # of connection points: 2
#     Edge 37, Type (0, 0), BuildingBlock: KIFKEQ_clean_linker_1, # of connection points: 2
#     Edge 38, Type (0, 0), BuildingBlock: KIFKEQ_clean_linker_1, # of connection points: 2
#     Edge 39, Type (0, 0), BuildingBlock: KIFKEQ_clean_linker_1, # of connection points: 2
#     Edge 40, Type (0, 0), BuildingBlock: KIFKEQ_clean_linker_1, # of connection points: 2
#     Edge 41, Type (0, 0), BuildingBlock: KIFKEQ_clean_linker_1, # of connection points: 2
#     Edge 42, Type (0, 0), BuildingBlock: KIFKEQ_clean_linker_1, # of connection points: 2
#     Edge 43, Type (0, 0), BuildingBlock: KIFKEQ_clean_linker_1, # of connection points: 2
#     Edge 44, Type (0, 0), BuildingBlock: KIFKEQ_clean_linker_1, # of connection points: 2
#     Edge 45, Type (0, 0), BuildingBlock: KIFKEQ_clean_linker_1, # of connection points: 2
#     Edge 46, Type (0, 0), BuildingBlock: KIFKEQ_clean_linker_1, # of connection points: 2
#     Edge 47, Type (0, 0), BuildingBlock: KIFKEQ_clean_linker_1, # of connection points: 2
#     Edge 48, Type (0, 0), BuildingBlock: KIFKEQ_clean_linker_1, # of connection points: 2
#     Edge 49, Type (0, 0), BuildingBlock: KIFKEQ_clean_linker_1, # of connection points: 2
#     Edge 50, Type (0, 0), BuildingBlock: KIFKEQ_clean_linker_1, # of connection points: 2
#     Edge 51, Type (0, 0), BuildingBlock: KIFKEQ_clean_linker_1, # of connection points: 2
#     Edge 52, Type (0, 0), BuildingBlock: KIFKEQ_clean_linker_1, # of connection points: 2
#     Edge 53, Type (0, 0), BuildingBlock: KIFKEQ_clean_linker_1, # of connection points: 2
#     Edge 54, Type (0, 0), BuildingBlock: KIFKEQ_clean_linker_1, # of connection points: 2
#     Edge 55, Type (0, 0), BuildingBlock: KIFKEQ_clean_linker_1, # of connection points: 2
#     Edge 56, Type (0, 0), BuildingBlock: KIFKEQ_clean_linker_1, # of connection points: 2
#     Edge 57, Type (0, 0), BuildingBlock: KIFKEQ_clean_linker_1, # of connection points: 2
#     Edge 58, Type (0, 0), BuildingBlock: KIFKEQ_clean_linker_1, # of connection points: 2
#     Edge 59, Type (0, 0), BuildingBlock: KIFKEQ_clean_linker_1, # of connection points: 2
#     Edge 60, Type (0, 0), BuildingBlock: KIFKEQ_clean_linker_1, # of connection points: 2
#     Edge 61, Type (0, 0), BuildingBlock: KIFKEQ_clean_linker_1, # of connection points: 2
#     Edge 62, Type (0, 0), BuildingBlock: KIFKEQ_clean_linker_1, # of connection points: 2
#     Edge 63, Type (0, 0), BuildingBlock: KIFKEQ_clean_linker_1, # of connection points: 2
#     Edge 64, Type (0, 0), BuildingBlock: KIFKEQ_clean_linker_1, # of connection points: 2
#     Edge 65, Type (0, 0), BuildingBlock: KIFKEQ_clean_linker_1, # of connection points: 2
#     Edge 66, Type (0, 0), BuildingBlock: KIFKEQ_clean_linker_1, # of connection points: 2
#     Edge 67, Type (0, 0), BuildingBlock: KIFKEQ_clean_linker_1, # of connection points: 2
#     Edge 68, Type (0, 0), BuildingBlock: KIFKEQ_clean_linker_1, # of connection points: 2
#     Edge 69, Type (0, 0), BuildingBlock: KIFKEQ_clean_linker_1, # of connection points: 2
#     Edge 70, Type (0, 0), BuildingBlock: KIFKEQ_clean_linker_1, # of connection points: 2
#     Edge 71, Type (0, 0), BuildingBlock: KIFKEQ_clean_linker_1, # of connection points: 2
#     Edge 72, Type (0, 0), BuildingBlock: KIFKEQ_clean_linker_1, # of connection points: 2
#     Edge 73, Type (0, 0), BuildingBlock: KIFKEQ_clean_linker_1, # of connection points: 2
#     Edge 74, Type (0, 0), BuildingBlock: KIFKEQ_clean_linker_1, # of connection points: 2
#     Edge 75, Type (0, 0), BuildingBlock: KIFKEQ_clean_linker_1, # of connection points: 2
#     Edge 76, Type (0, 0), BuildingBlock: KIFKEQ_clean_linker_1, # of connection points: 2
#     Edge 77, Type (0, 0), BuildingBlock: KIFKEQ_clean_linker_1, # of connection points: 2
#     Edge 78, Type (0, 0), BuildingBlock: KIFKEQ_clean_linker_1, # of connection points: 2
#     Edge 79, Type (0, 0), BuildingBlock: KIFKEQ_clean_linker_1, # of connection points: 2
#     Edge 80, Type (0, 0), BuildingBlock: KIFKEQ_clean_linker_1, # of connection points: 2
#     Edge 81, Type (0, 0), BuildingBlock: KIFKEQ_clean_linker_1, # of connection points: 2
#     Edge 82, Type (0, 0), BuildingBlock: KIFKEQ_clean_linker_1, # of connection points: 2
#     Edge 83, Type (0, 0), BuildingBlock: KIFKEQ_clean_linker_1, # of connection points: 2
#     Edge 84, Type (0, 0), BuildingBlock: KIFKEQ_clean_linker_1, # of connection points: 2
#     Edge 85, Type (0, 0), BuildingBlock: KIFKEQ_clean_linker_1, # of connection points: 2
#     Edge 86, Type (0, 0), BuildingBlock: KIFKEQ_clean_linker_1, # of connection points: 2
#     Edge 87, Type (0, 0), BuildingBlock: KIFKEQ_clean_linker_1, # of connection points: 2
#     Edge 88, Type (0, 0), BuildingBlock: KIFKEQ_clean_linker_1, # of connection points: 2
#     Edge 89, Type (0, 0), BuildingBlock: KIFKEQ_clean_linker_1, # of connection points: 2
#     Edge 90, Type (0, 0), BuildingBlock: KIFKEQ_clean_linker_1, # of connection points: 2
#     Edge 91, Type (0, 0), BuildingBlock: KIFKEQ_clean_linker_1, # of connection points: 2
#     Edge 92, Type (0, 0), BuildingBlock: KIFKEQ_clean_linker_1, # of connection points: 2
#     Edge 93, Type (0, 0), BuildingBlock: KIFKEQ_clean_linker_1, # of connection points: 2
#     Edge 94, Type (0, 0), BuildingBlock: KIFKEQ_clean_linker_1, # of connection points: 2
#     Edge 95, Type (0, 0), BuildingBlock: KIFKEQ_clean_linker_1, # of connection points: 2
#     Edge 96, Type (0, 0), BuildingBlock: KIFKEQ_clean_linker_1, # of connection points: 2
#     Edge 97, Type (0, 0), BuildingBlock: KIFKEQ_clean_linker_1, # of connection points: 2
#     Edge 98, Type (0, 0), BuildingBlock: KIFKEQ_clean_linker_1, # of connection points: 2
#     Edge 99, Type (0, 0), BuildingBlock: KIFKEQ_clean_linker_1, # of connection points: 2
#     Edge 100, Type (0, 0), BuildingBlock: KIFKEQ_clean_linker_1, # of connection points: 2
#     Edge 101, Type (0, 0), BuildingBlock: KIFKEQ_clean_linker_1, # of connection points: 2
#     Edge 102, Type (0, 0), BuildingBlock: KIFKEQ_clean_linker_1, # of connection points: 2
#     Edge 103, Type (0, 0), BuildingBlock: KIFKEQ_clean_linker_1, # of connection points: 2
#     Edge 104, Type (0, 0), BuildingBlock: KIFKEQ_clean_linker_1, # of connection points: 2
#     Edge 105, Type (0, 0), BuildingBlock: KIFKEQ_clean_linker_1, # of connection points: 2
#     Edge 106, Type (0, 0), BuildingBlock: KIFKEQ_clean_linker_1, # of connection points: 2
#     Edge 107, Type (0, 0), BuildingBlock: KIFKEQ_clean_linker_1, # of connection points: 2
#     Edge 108, Type (0, 0), BuildingBlock: KIFKEQ_clean_linker_1, # of connection points: 2
#     Edge 109, Type (0, 0), BuildingBlock: KIFKEQ_clean_linker_1, # of connection points: 2
#     Edge 110, Type (0, 0), BuildingBlock: KIFKEQ_clean_linker_1, # of connection points: 2
#     Edge 111, Type (0, 0), BuildingBlock: KIFKEQ_clean_linker_1, # of connection points: 2
#     Edge 112, Type (0, 0), BuildingBlock: KIFKEQ_clean_linker_1, # of connection points: 2
#     Edge 113, Type (0, 0), BuildingBlock: KIFKEQ_clean_linker_1, # of connection points: 2
#     Edge 114, Type (0, 0), BuildingBlock: KIFKEQ_clean_linker_1, # of connection points: 2
#     Edge 115, Type (0, 0), BuildingBlock: KIFKEQ_clean_linker_1, # of connection points: 2
#     Edge 116, Type (0, 0), BuildingBlock: KIFKEQ_clean_linker_1, # of connection points: 2
#     Edge 117, Type (0, 0), BuildingBlock: KIFKEQ_clean_linker_1, # of connection points: 2
#     Edge 118, Type (0, 0), BuildingBlock: KIFKEQ_clean_linker_1, # of connection points: 2
#     Edge 119, Type (0, 0), BuildingBlock: KIFKEQ_clean_linker_1, # of connection points: 2
#     Edge 120, Type (0, 0), BuildingBlock: KIFKEQ_clean_linker_1, # of connection points: 2
#     Edge 121, Type (0, 0), BuildingBlock: KIFKEQ_clean_linker_1, # of connection points: 2
#     Edge 122, Type (0, 0), BuildingBlock: KIFKEQ_clean_linker_1, # of connection points: 2
#     Edge 123, Type (0, 0), BuildingBlock: KIFKEQ_clean_linker_1, # of connection points: 2
#     Edge 124, Type (0, 0), BuildingBlock: KIFKEQ_clean_linker_1, # of connection points: 2
#     Edge 125, Type (0, 0), BuildingBlock: KIFKEQ_clean_linker_1, # of connection points: 2
#     Edge 126, Type (0, 0), BuildingBlock: KIFKEQ_clean_linker_1, # of connection points: 2
#     Edge 127, Type (0, 0), BuildingBlock: KIFKEQ_clean_linker_1, # of connection points: 2
# Relax obj value: 0.438
# Max RMSD: 0.206
# Mean RMSD: 0.206
data_MOF--net-wir--node1-BETDAH_clean_sbu_0--edge1-KIFKEQ_clean_linker_1
_symmetry_space_group_name_H-M    P1
_symmetry_Int_Tables_number       1
_symmetry_cell_setting            triclinic
loop_
_symmetry_equiv_pos_as_xyz
'x, y, z'
_cell_length_a     40.385051
_cell_length_b     40.316776
_cell_length_c     111.85779
_cell_angle_alpha  90.04405
_cell_angle_beta   89.969541
_cell_angle_gamma 89.876771
loop_
_atom_site_label
_atom_site_type_symbol
_atom_site_fract_x
_atom_site_fract_y
_atom_site_fract_z
_atom_type_partial_charge
Ho0 Ho 0.23869 0.21422 0.38498 0.0
Ho1 Ho 0.21509 0.18597 0.37842 0.0
C2 C 0.18348 0.18449 0.40115 0.0
C3 C 0.26076 0.27191 0.39129 0.0
C4 C 0.24327 0.30349 0.39186 0.0
C5 C 0.21496 0.30837 0.38478 0.0
C6 C 0.19257 0.33338 0.38763 0.0
C7 C 0.19842 0.3538 0.39754 0.0
C8 C 0.22847 0.35101 0.40382 0.0
C9 C 0.25077 0.32581 0.40101 0.0
C10 C 0.2752 0.16447 0.39933 0.0
C11 C 0.24397 0.22527 0.35638 0.0
C12 C 0.23755 0.14131 0.36442 0.0
C13 C 0.24986 0.14307 0.35212 0.0
C14 C 0.28208 0.15486 0.34988 0.0
C15 C 0.29407 0.15673 0.33831 0.0
C16 C 0.27465 0.1456 0.32879 0.0
C17 C 0.24192 0.13517 0.33093 0.0
C18 C 0.22958 0.13398 0.34253 0.0
C19 C 0.15372 0.21867 0.37886 0.0
O20 O 0.19962 0.21238 0.39957 0.0
O21 O 0.18715 0.16249 0.39278 0.0
O22 O 0.25011 0.2499 0.39882 0.0
O23 O 0.26466 0.2596 0.38066 0.0
O24 O 0.28661 0.19039 0.39376 0.0
O25 O 0.24449 0.16468 0.39544 0.0
O26 O 0.21465 0.21635 0.36022 0.0
O27 O 0.26409 0.22032 0.36555 0.0
O28 O 0.2056 0.14554 0.36614 0.0
O29 O 0.25599 0.15721 0.37217 0.0
O30 O 0.1586 0.18674 0.37734 0.0
O31 O 0.1835 0.23239 0.38006 0.0
H32 H 0.20888 0.29139 0.37762 0.0
H33 H 0.16956 0.33517 0.3827 0.0
H34 H 0.23329 0.36615 0.41164 0.0
H35 H 0.2724 0.32211 0.40658 0.0
H36 H 0.29842 0.1623 0.35707 0.0
H37 H 0.31927 0.16499 0.33687 0.0
H38 H 0.22657 0.12576 0.32375 0.0
H39 H 0.20465 0.125 0.34403 0.0
Ho40 Ho 0.07884 0.98864 0.63318 0.0
Ho41 Ho 0.1075 0.96428 0.62687 0.0
C42 C 0.10596 0.93248 0.64961 0.0
C43 C 1.02149 1.01158 0.63954 0.0
C44 C 0.9904 0.99362 0.6407 0.0
C45 C 0.9851 0.96515 0.63372 0.0
C46 C 0.9614 0.94209 0.63712 0.0
C47 C 0.94274 0.94739 0.64749 0.0
C48 C 0.94564 0.97752 0.65373 0.0
C49 C 0.96955 1.00054 0.65036 0.0
C50 C 0.12909 1.02445 0.64743 0.0
C51 C 0.07017 0.99497 0.60464 0.0
C52 C 0.15519 0.98441 0.61384 0.0
C53 C 0.15987 0.99633 0.60164 0.0
C54 C 0.14766 0.02774 0.59827 0.0
C55 C 0.16001 0.04338 0.58819 0.0
C56 C 0.18426 0.02763 0.58135 0.0
C57 C 0.19333 0.9947 0.58381 0.0
C58 C 0.18131 0.97913 0.594 0.0
C59 C 0.074 0.90342 0.62688 0.0
O60 O 0.07862 0.94935 0.64776 0.0
O61 O 0.12884 0.93594 0.64157 0.0
O62 O 0.04414 1.00247 0.64708 0.0
O63 O 0.0331 1.01393 0.62875 0.0
O64 O 0.10509 0.03669 0.64101 0.0
O65 O 0.12695 0.99316 0.6443 0.0
O66 O 0.07889 0.96538 0.60834 0.0
O67 O 0.07413 1.01477 0.61394 0.0
O68 O 0.14934 0.9527 0.61546 0.0
O69 O 0.13753 1.00403 0.6207 0.0
O70 O 0.106 0.90777 0.62568 0.0
O71 O 0.06061 0.93352 0.62795 0.0
H72 H 1.00097 0.95939 0.62619 0.0
H73 H 0.95945 0.91899 0.63222 0.0
H74 H 0.93178 0.98184 0.66189 0.0
H75 H 0.97362 1.02225 0.65589 0.0
H76 H 0.13089 0.04164 0.60394 0.0
H77 H 0.15314 0.06891 0.58642 0.0
H78 H 0.2125 0.98245 0.57864 0.0
H79 H 0.19097 0.95497 0.59645 0.0
Ho80 Ho 0.31322 0.82253 0.88444 0.0
Ho81 Ho 0.33604 0.85405 0.88 0.0
C82 C 0.35972 0.83565 0.90417 0.0
C83 C 0.27947 0.77043 0.88991 0.0
C84 C 0.29115 0.73628 0.88965 0.0
C85 C 0.31967 0.72877 0.88298 0.0
C86 C 0.33894 0.70139 0.88597 0.0
C87 C 0.33007 0.68159 0.89576 0.0
C88 C 0.29931 0.68688 0.90141 0.0
C89 C 0.27997 0.71423 0.89837 0.0
C90 C 0.28764 0.87461 0.90469 0.0
C91 C 0.30945 0.81669 0.856 0.0
C92 C 0.33266 0.91132 0.87035 0.0
C93 C 0.33922 0.93508 0.8609 0.0
C94 C 0.31242 0.94562 0.8539 0.0
C95 C 0.31367 0.97608 0.8482 0.0
C96 C 0.34179 0.99603 0.84943 0.0
C97 C 0.36995 0.98392 0.85529 0.0
C98 C 0.36866 0.95348 0.86105 0.0
C99 C 0.39817 0.82048 0.87996 0.0
O100 O 0.34716 0.80928 0.89939 0.0
O101 O 0.35533 0.86298 0.8983 0.0
O102 O 0.29486 0.78854 0.89775 0.0
O103 O 0.27719 0.78509 0.87958 0.0
O104 O 0.28808 0.86927 0.89285 0.0
O105 O 0.28923 0.86792 0.89283 0.0
O106 O 0.33624 0.83202 0.85995 0.0
O107 O 0.28991 0.81314 0.86527 0.0
O108 O 0.35684 0.90241 0.87741 0.0
O109 O 0.31059 0.88818 0.86844 0.0
O110 O 0.3929 0.85216 0.88137 0.0
O111 O 0.36835 0.80732 0.87866 0.0
H112 H 0.32892 0.74591 0.87631 0.0
H113 H 0.36241 0.69775 0.88145 0.0
H114 H 0.29195 0.67235 0.9091 0.0
H115 H 0.25829 0.72005 0.9037 0.0
H116 H 0.28938 0.93188 0.85373 0.0
H117 H 0.292 0.98495 0.84346 0.0
H118 H 0.39192 0.99909 0.85621 0.0
H119 H 0.38959 0.94589 0.86646 0.0
Ho120 Ho 0.46309 0.05911 0.13352 0.0
Ho121 Ho 0.43442 0.08351 0.12729 0.0
C122 C 0.43675 0.11424 0.1503 0.0
C123 C 0.52032 0.03545 0.13962 0.0
C124 C 0.55188 0.05224 0.14111 0.0
C125 C 0.55759 0.0824 0.1352 0.0
C126 C 0.58315 0.103 0.1389 0.0
C127 C 0.60323 0.09355 0.14852 0.0
C128 C 0.59926 0.06198 0.15369 0.0
C129 C 0.57359 0.04144 0.15 0.0
C130 C 0.41316 1.02302 0.14783 0.0
C131 C 0.47361 0.0543 0.10517 0.0
C132 C 0.38951 0.06381 0.11295 0.0
C133 C 0.393 0.05563 0.10023 0.0
C134 C 0.40125 1.023 0.09687 0.0
C135 C 0.41073 1.01586 0.08521 0.0
C136 C 0.41073 0.04086 0.0765 0.0
C137 C 0.40205 0.07348 0.07987 0.0
C138 C 0.39345 0.08079 0.09161 0.0
C139 C 0.4677 0.14444 0.12747 0.0
O140 O 0.46434 0.09822 0.14806 0.0
O141 O 0.41334 0.1104 0.14246 0.0
O142 O 0.49779 0.04439 0.14726 0.0
O143 O 0.50893 0.03448 0.12877 0.0
O144 O 0.43827 1.01118 0.14189 0.0
O145 O 0.41404 0.05406 0.14432 0.0
O146 O 0.46542 0.08373 0.10921 0.0
O147 O 0.46818 0.03378 0.11415 0.0
O148 O 0.39261 0.09518 0.11598 0.0
O149 O 0.40577 0.0436 0.12002 0.0
O150 O 0.4357 0.14003 0.12624 0.0
O151 O 0.48117 0.11441 0.12853 0.0
H152 H 0.54103 0.09105 0.12827 0.0
H153 H 0.5858 0.12721 0.13481 0.0
H154 H 0.61402 0.05435 0.1613 0.0
H155 H 0.5692 1.01836 0.1547 0.0
H156 H 0.4015 1.00307 0.10336 0.0
H157 H 0.41742 0.99059 0.08296 0.0
H158 H 0.40057 0.09334 0.07339 0.0
H159 H 0.38743 0.10619 0.09393 0.0
Ho160 Ho 0.23415 0.82895 0.2349 0.0
Ho161 Ho 0.20861 0.85844 0.24059 0.0
C162 C 0.1808 0.84782 0.21687 0.0
C163 C 0.25945 0.77166 0.22986 0.0
C164 C 0.24258 0.73983 0.22948 0.0
C165 C 0.21297 0.73584 0.23591 0.0
C166 C 0.19169 0.70991 0.23318 0.0
C167 C 0.20004 0.68753 0.2241 0.0
C168 C 0.23109 0.68979 0.21845 0.0
C169 C 0.25224 0.71602 0.2211 0.0
C170 C 0.26951 0.87947 0.22044 0.0
C171 C 0.23867 0.82144 0.2633 0.0
C172 C 0.22297 0.91115 0.25179 0.0
C173 C 0.23136 0.93259 0.2617 0.0
C174 C 0.25865 0.92524 0.269 0.0
C175 C 0.27429 0.95061 0.27522 0.0
C176 C 0.26252 0.98323 0.2742 0.0
C177 C 0.23323 0.98972 0.26788 0.0
C178 C 0.21773 0.96446 0.26164 0.0
C179 C 0.14827 0.82517 0.24068 0.0
O180 O 0.19722 0.82139 0.22007 0.0
O181 O 0.18374 0.87322 0.22392 0.0
O182 O 0.24955 0.79258 0.22179 0.0
O183 O 0.26134 0.78522 0.24038 0.0
O184 O 0.28174 0.85568 0.22695 0.0
O185 O 0.23823 0.87697 0.22341 0.0
O186 O 0.20938 0.8303 0.25932 0.0
O187 O 0.25913 0.82524 0.25424 0.0
O188 O 0.19211 0.9037 0.2493 0.0
O189 O 0.2452 0.88915 0.24846 0.0
O190 O 0.15243 0.85729 0.24125 0.0
O191 O 0.17835 0.81158 0.24017 0.0
H192 H 0.20519 0.75401 0.24246 0.0
H193 H 0.16779 0.70864 0.23757 0.0
H194 H 0.23774 0.67309 0.21124 0.0
H195 H 0.27484 0.71907 0.21599 0.0
H196 H 0.26951 0.90064 0.26911 0.0
H197 H 0.29667 0.9451 0.28018 0.0
H198 H 0.22316 1.01461 0.26732 0.0
H199 H 0.1968 0.97044 0.25596 0.0
Ho200 Ho 0.46923 0.98465 0.4867 0.0
Ho201 Ho 0.44121 0.95985 0.4926 0.0
C202 C 0.44652 0.92785 0.47007 0.0
C203 C 0.52618 1.00936 0.48094 0.0
C204 C 0.55791 0.99248 0.47975 0.0
C205 C 0.56373 0.96316 0.48621 0.0
C206 C 0.58884 0.94164 0.48269 0.0
C207 C 0.60833 0.94925 0.47271 0.0
C208 C 0.60449 0.98016 0.46702 0.0
C209 C 0.57928 1.00165 0.47052 0.0
C210 C 0.41891 1.01967 0.47206 0.0
C211 C 0.47823 0.98893 0.51511 0.0
C212 C 0.39401 0.98093 0.50577 0.0
C213 C 0.39153 0.994 0.51795 0.0
C214 C 0.40455 1.02553 0.52068 0.0
C215 C 0.39616 0.04121 0.53128 0.0
C216 C 0.37439 1.02579 0.53919 0.0
C217 C 0.3643 0.99292 0.53713 0.0
C218 C 0.37276 0.97711 0.52649 0.0
C219 C 0.47494 0.89917 0.49283 0.0
O220 O 0.47294 0.94559 0.47225 0.0
O221 O 0.42221 0.93089 0.4776 0.0
O222 O 0.50419 1.00018 0.47317 0.0
O223 O 0.51407 1.01055 0.49169 0.0
O224 O 0.44238 0.03219 0.47865 0.0
O225 O 0.42156 0.98834 0.47515 0.0
O226 O 0.47079 0.95953 0.51094 0.0
O227 O 0.47295 1.00957 0.50616 0.0
O228 O 0.39981 0.94909 0.50436 0.0
O229 O 0.4107 0.99984 0.49842 0.0
O230 O 0.44279 0.90339 0.49385 0.0
O231 O 0.48818 0.92934 0.49178 0.0
H232 H 0.5474 0.95569 0.49339 0.0
H233 H 0.59138 0.91797 0.48719 0.0
H234 H 0.6188 0.9864 0.45915 0.0
H235 H 0.57479 1.02402 0.4654 0.0
H236 H 0.41917 0.0394 0.51431 0.0
H237 H 0.40388 0.06663 0.53272 0.0
H238 H 0.347 0.98083 0.54311 0.0
H239 H 0.36256 0.95284 0.52457 0.0
Ho240 Ho 0.30797 0.21904 0.7344 0.0
Ho241 Ho 0.33301 0.18929 0.74137 0.0
C242 C 0.35636 0.19075 0.71679 0.0
C243 C 0.2834 0.27754 0.73096 0.0
C244 C 0.3003 0.30943 0.7308 0.0
C245 C 0.32965 0.31351 0.73737 0.0
C246 C 0.35163 0.33874 0.73441 0.0
C247 C 0.3445 0.36 0.72484 0.0
C248 C 0.31349 0.35792 0.71914 0.0
C249 C 0.29153 0.33269 0.72211 0.0
C250 C 0.27257 0.17149 0.71913 0.0
C251 C 0.29971 0.22801 0.76275 0.0
C252 C 0.32918 0.14139 0.7563 0.0
C253 C 0.33093 0.1416 0.76921 0.0
C254 C 0.30815 0.12265 0.77559 0.0
C255 C 0.30453 0.12755 0.7878 0.0
C256 C 0.32333 0.15194 0.79375 0.0
C257 C 0.34628 0.17073 0.78723 0.0
C258 C 0.35032 0.16534 0.77507 0.0
C259 C 0.39383 0.22334 0.73931 0.0
O260 O 0.34571 0.22023 0.71964 0.0
O261 O 0.35027 0.16777 0.72452 0.0
O262 O 0.29229 0.25778 0.72234 0.0
O263 O 0.28233 0.26244 0.74123 0.0
O264 O 0.26967 0.2034 0.71977 0.0
O265 O 0.29428 0.16537 0.72773 0.0
O266 O 0.32979 0.22238 0.75888 0.0
O267 O 0.28034 0.22082 0.75354 0.0
O268 O 0.35648 0.1485 0.75056 0.0
O269 O 0.30322 0.15727 0.75227 0.0
O270 O 0.38957 0.19141 0.74033 0.0
O271 O 0.36364 0.23646 0.73898 0.0
H272 H 0.3369 0.29566 0.74411 0.0
H273 H 0.3753 0.33994 0.73894 0.0
H274 H 0.30753 0.37359 0.71157 0.0
H275 H 0.26917 0.32955 0.71687 0.0
H276 H 0.29263 0.10465 0.77108 0.0
H277 H 0.28751 0.11158 0.79255 0.0
H278 H 0.36119 0.18959 0.79151 0.0
H279 H 0.36778 0.18055 0.77019 0.0
Ho280 Ho 0.08259 0.05925 0.98847 0.0
Ho281 Ho 0.11274 0.08465 0.99499 0.0
C282 C 0.10974 0.10418 0.96983 0.0
C283 C 0.0258 0.03088 0.98535 0.0
C284 C 0.99883 0.04295 0.97778 0.0
C285 C 0.9716 0.05869 0.98321 0.0
C286 C 0.95298 0.08165 0.97679 0.0
C287 C 0.96137 0.08863 0.96492 0.0
C288 C 0.98576 0.06989 0.95909 0.0
C289 C 1.00433 0.04703 0.96546 0.0
C290 C 0.13134 1.02645 0.97277 0.0
C291 C 0.07454 0.05268 1.01678 0.0
C292 C 0.16258 0.09025 1.00872 0.0
C293 C 0.19096 0.09343 1.01655 0.0
C294 C 0.19479 0.07095 1.02596 0.0
C295 C 0.22532 0.0676 1.03145 0.0
C296 C 0.25223 0.08687 1.02762 0.0
C297 C 0.24746 0.11158 1.01897 0.0
C298 C 0.21683 0.11488 1.01344 0.0
C299 C 0.0783 0.1455 0.99198 0.0
O300 O 0.08009 0.09549 0.97319 0.0
O301 O 0.13299 0.09704 0.97735 0.0
O302 O 0.05261 1.02162 0.97989 0.0
O303 O 0.03245 0.04996 0.99439 0.0
O304 O 0.10078 0.03466 0.97057 0.0
O305 O 0.13457 0.03768 0.98399 0.0
O306 O 0.08094 0.08259 1.01282 0.0
O307 O 0.08145 0.03261 1.00771 0.0
O308 O 0.15534 0.11257 1.00071 0.0
O309 O 0.14262 0.06484 1.00928 0.0
O310 O 0.11007 0.14105 0.99269 0.0
O311 O 0.06531 0.11535 0.99225 0.0
H312 H 0.96692 0.05583 0.99269 0.0
H313 H 0.9339 0.09576 0.98134 0.0
H314 H 0.99186 0.07447 0.9498 0.0
H315 H 1.0249 0.03504 0.96097 0.0
H316 H 0.17496 0.05428 1.02849 0.0
H317 H 0.22841 0.04817 1.03805 0.0
H318 H 0.26784 0.12699 1.01603 0.0
H319 H 0.21419 0.13245 1.00618 0.0
Ho320 Ho 0.83739 0.85067 0.73969 0.0
Ho321 Ho 0.81155 0.82089 0.73471 0.0
C322 C 0.80895 0.8142 0.76301 0.0
C323 C 0.82544 0.90184 0.75224 0.0
C324 C 0.82898 0.90856 0.7649 0.0
C325 C 0.80488 0.92767 0.77057 0.0
C326 C 0.81098 0.94004 0.78192 0.0
C327 C 0.84158 0.93377 0.78751 0.0
C328 C 0.86356 0.91072 0.78248 0.0
C329 C 0.85723 0.89803 0.77116 0.0
C330 C 0.89773 0.81677 0.74029 0.0
C331 C 0.86503 0.83759 0.71626 0.0
C332 C 0.78639 0.76368 0.72955 0.0
C333 C 0.80427 0.7323 0.72853 0.0
C334 C 0.8332 0.72742 0.73529 0.0
C335 C 0.85585 0.70303 0.73203 0.0
C336 C 0.84983 0.68324 0.72197 0.0
C337 C 0.81943 0.68614 0.7159 0.0
C338 C 0.79679 0.71067 0.71915 0.0
C339 C 0.77573 0.87215 0.72055 0.0
O340 O 0.8379 0.82303 0.75862 0.0
O341 O 0.78774 0.81731 0.75417 0.0
O342 O 0.85323 0.89775 0.74635 0.0
O343 O 0.80219 0.88051 0.74948 0.0
O344 O 0.89364 0.84893 0.74037 0.0
O345 O 0.86751 0.8035 0.74006 0.0
O346 O 0.8479 0.81195 0.71974 0.0
O347 O 0.86271 0.86381 0.72295 0.0
O348 O 0.79445 0.78546 0.72153 0.0
O349 O 0.78541 0.77654 0.7402 0.0
O350 O 0.76373 0.85088 0.7282 0.0
O351 O 0.80721 0.86709 0.72243 0.0
H352 H 0.78259 0.93516 0.76589 0.0
H353 H 0.79353 0.9578 0.78557 0.0
H354 H 0.8871 0.90537 0.78671 0.0
H355 H 0.87559 0.8822 0.76697 0.0
H356 H 0.83955 0.744 0.74255 0.0
H357 H 0.8791 0.70122 0.73681 0.0
H358 H 0.81444 0.67155 0.70796 0.0
H359 H 0.77483 0.71446 0.71376 0.0
Ho360 Ho 0.94323 0.08389 0.49008 0.0
Ho361 Ho 0.97354 0.06113 0.48524 0.0
C362 C 0.98135 0.05634 0.51354 0.0
C363 C 0.89028 0.08449 0.50248 0.0
C364 C 0.88108 0.09618 0.51434 0.0
C365 C 0.88926 0.0776 0.52455 0.0
C366 C 0.87084 0.08171 0.53493 0.0
C367 C 0.84403 0.10384 0.53492 0.0
C368 C 0.841 0.1272 0.5257 0.0
C369 C 0.85914 0.12295 0.51529 0.0
C370 C 0.97696 0.1458 0.48946 0.0
C371 C 0.95488 0.10702 0.46558 0.0
C372 C 1.02519 0.02722 0.47908 0.0
C373 C 0.0595 0.03805 0.47912 0.0
C374 C 0.06803 0.06626 0.4858 0.0
C375 C 0.09612 0.08434 0.48283 0.0
C376 C 0.11556 0.07464 0.47303 0.0
C377 C 0.10906 0.04415 0.46734 0.0
C378 C 0.08103 1.02597 0.47037 0.0
C379 C 0.92371 0.03214 0.46559 0.0
O380 O 0.96744 0.08397 0.5097 0.0
O381 O 0.98319 0.03667 0.50423 0.0
O382 O 0.89701 0.10729 0.49458 0.0
O383 O 0.91013 0.05881 0.50203 0.0
O384 O 0.94539 0.14064 0.48809 0.0
O385 O 0.99004 0.11591 0.49085 0.0
O386 O 0.98255 0.09529 0.46975 0.0
O387 O 0.92913 0.10217 0.47223 0.0
O388 O 1.00684 0.04343 0.47154 0.0
O389 O 1.01126 1.02471 0.48952 0.0
O390 O 0.92639 0.03626 0.47741 0.0
O391 O 0.92755 0.03712 0.47749 0.0
H392 H 0.90701 0.05744 0.52416 0.0
H393 H 0.87383 0.06391 0.54211 0.0
H394 H 0.82073 0.14486 0.5256 0.0
H395 H 0.85314 0.13809 0.50758 0.0
H396 H 0.05133 0.07614 0.49251 0.0
H397 H 0.10068 0.10764 0.48737 0.0
H398 H 0.1233 0.03621 0.45964 0.0
H399 H 0.07442 1.00449 0.46506 0.0
Ho400 Ho 0.71136 0.19168 0.24374 0.0
Ho401 Ho 0.73573 0.2207 0.23751 0.0
C402 C 0.74262 0.23 0.2658 0.0
C403 C 0.72799 0.14314 0.25717 0.0
C404 C 0.73759 0.14084 0.26963 0.0
C405 C 0.76636 0.12315 0.27229 0.0
C406 C 0.7802 0.12529 0.28359 0.0
C407 C 0.76559 0.14545 0.29246 0.0
C408 C 0.73678 0.16343 0.28966 0.0
C409 C 0.72258 0.16075 0.27837 0.0
C410 C 0.64999 0.22445 0.24329 0.0
C411 C 0.68158 0.1946 0.22045 0.0
C412 C 0.75734 0.27902 0.23181 0.0
C413 C 0.73868 0.30966 0.23012 0.0
C414 C 0.70839 0.31411 0.23611 0.0
C415 C 0.68645 0.33866 0.23242 0.0
C416 C 0.6948 0.35929 0.22284 0.0
C417 C 0.72622 0.35651 0.21749 0.0
C418 C 0.74803 0.33166 0.22109 0.0
C419 C 0.7725 0.1712 0.22307 0.0
O420 O 0.71287 0.22342 0.26173 0.0
O421 O 0.76254 0.22352 0.25671 0.0
O422 O 0.69697 0.15012 0.25477 0.0
O423 O 0.74925 0.16027 0.25086 0.0
O424 O 0.65481 0.19246 0.24437 0.0
O425 O 0.67991 0.23811 0.24248 0.0
O426 O 0.69757 0.22213 0.22267 0.0
O427 O 0.68519 0.17129 0.22832 0.0
O428 O 0.75082 0.25606 0.22403 0.0
O429 O 0.75782 0.26749 0.24265 0.0
O430 O 0.78389 0.19671 0.22891 0.0
O431 O 0.74154 0.17168 0.2267 0.0
H432 H 0.77846 0.10807 0.26554 0.0
H433 H 0.80162 0.10994 0.28543 0.0
H434 H 0.72478 0.17894 0.29628 0.0
H435 H 0.70041 0.17486 0.2764 0.0
H436 H 0.70084 0.29749 0.24318 0.0
H437 H 0.66233 0.34044 0.23662 0.0
H438 H 0.73291 0.37184 0.20991 0.0
H439 H 0.77116 0.32826 0.21632 0.0
Ho440 Ho 0.59924 0.9661 0.99125 0.0
Ho441 Ho 0.57023 0.9907 0.98522 0.0
C442 C 0.56149 0.99568 1.01371 0.0
C443 C 0.64783 0.9864 1.00383 0.0
C444 C 0.65229 0.99688 1.0161 0.0
C445 C 0.67053 1.02568 1.01808 0.0
C446 C 0.67403 0.03791 1.02957 0.0
C447 C 0.65926 1.02142 1.03929 0.0
C448 C 0.63886 0.99387 1.03712 0.0
C449 C 0.63578 0.98133 1.02557 0.0
C450 C 0.56598 0.90514 0.99163 0.0
C451 C 0.59376 0.93397 0.96865 0.0
C452 C 0.51282 1.01404 0.9792 0.0
C453 C 0.48163 0.99602 0.97836 0.0
C454 C 0.47658 0.96806 0.98562 0.0
C455 C 0.45277 0.94473 0.98256 0.0
C456 C 0.43376 0.94917 0.97222 0.0
C457 C 0.43645 0.97883 0.96568 0.0
C458 C 0.46045 1.00214 0.96872 0.0
C459 C 0.62079 1.02609 0.97082 0.0
O460 O 0.57014 0.9663 1.00973 0.0
O461 O 0.56563 1.01605 1.0046 0.0
O462 O 0.64263 0.95474 1.00176 0.0
O463 O 0.62833 1.00637 0.99784 0.0
O464 O 0.59803 0.90963 0.99263 0.0
O465 O 0.55244 0.93525 0.9906 0.0
O466 O 0.56713 0.95155 0.97076 0.0
O467 O 0.61802 0.93739 0.97615 0.0
O468 O 0.53502 1.00462 0.97151 0.0
O469 O 0.52508 1.01682 0.98988 0.0
O470 O 0.59709 0.03845 0.97738 0.0
O471 O 0.61807 0.99471 0.97378 0.0
H472 H 0.68265 0.03837 1.01074 0.0
H473 H 0.69048 0.05879 1.03084 0.0
H474 H 0.62707 0.98081 1.04443 0.0
H475 H 0.62098 0.95936 1.02411 0.0
H476 H 0.49276 0.96284 0.99311 0.0
H477 H 0.45102 0.92202 0.98769 0.0
H478 H 0.42235 0.98252 0.95755 0.0
H479 H 0.46432 1.0234 0.96297 0.0
Ho480 Ho 0.82677 0.19254 0.87852 0.0
Ho481 Ho 0.80123 0.22186 0.88433 0.0
C482 C 0.79796 0.23156 0.85607 0.0
C483 C 0.81688 0.14432 0.86434 0.0
C484 C 0.82188 0.14338 0.85151 0.0
C485 C 0.79993 0.12561 0.84437 0.0
C486 C 0.80657 0.12191 0.83227 0.0
C487 C 0.83546 0.13581 0.82728 0.0
C488 C 0.85507 0.15702 0.8342 0.0
C489 C 0.84845 0.1606 0.8463 0.0
C490 C 0.88742 0.22627 0.87856 0.0
C491 C 0.85474 0.2014 0.90201 0.0
C492 C 0.77664 0.27927 0.88966 0.0
C493 C 0.79386 0.3108 0.89089 0.0
C494 C 0.82342 0.31612 0.88456 0.0
C495 C 0.84522 0.34076 0.8882 0.0
C496 C 0.8377 0.36024 0.89822 0.0
C497 C 0.80661 0.35694 0.90379 0.0
C498 C 0.78482 0.33225 0.90014 0.0
C499 C 0.76512 0.17137 0.89859 0.0
O500 O 0.82715 0.22375 0.86042 0.0
O501 O 0.77688 0.22625 0.86486 0.0
O502 O 0.84399 0.14713 0.87069 0.0
O503 O 0.7927 0.16377 0.86785 0.0
O504 O 0.88313 0.19426 0.87773 0.0
O505 O 0.85723 0.23959 0.87936 0.0
O506 O 0.83852 0.22815 0.89908 0.0
O507 O 0.85147 0.17616 0.89493 0.0
O508 O 0.78498 0.25732 0.89761 0.0
O509 O 0.77595 0.26686 0.87894 0.0
O510 O 0.75346 0.19669 0.89272 0.0
O511 O 0.79613 0.17238 0.89513 0.0
H512 H 0.77883 0.11304 0.84827 0.0
H513 H 0.79104 0.10518 0.82719 0.0
H514 H 0.8773 0.16803 0.83052 0.0
H515 H 0.86518 0.17531 0.85169 0.0
H516 H 0.83086 0.29967 0.87738 0.0
H517 H 0.86899 0.34292 0.88377 0.0
H518 H 0.8004 0.37123 0.91169 0.0
H519 H 0.76229 0.32813 0.90519 0.0
Ho520 Ho 0.60726 0.07584 0.62771 0.0
Ho521 Ho 0.57755 0.05147 0.6347 0.0
C522 C 0.56732 0.04509 0.60639 0.0
C523 C 0.65235 0.07011 0.61186 0.0
C524 C 0.6489 0.07039 0.59884 0.0
C525 C 0.6365 0.04236 0.59283 0.0
C526 C 0.63283 0.0426 0.58052 0.0
C527 C 0.64388 0.06987 0.57391 0.0
C528 C 0.65377 0.09887 0.57998 0.0
C529 C 0.65627 0.09907 0.59237 0.0
C530 C 0.57446 0.13736 0.6297 0.0
C531 C 0.60421 0.10097 0.65186 0.0
C532 C 0.51972 1.02566 0.6381 0.0
C533 C 0.48792 0.04274 0.63873 0.0
C534 C 0.48394 0.07331 0.63288 0.0
C535 C 0.4587 0.09485 0.63631 0.0
C536 C 0.43721 0.08598 0.6456 0.0
C537 C 0.43942 0.05409 0.65065 0.0
C538 C 0.46475 0.03261 0.64724 0.0
C539 C 0.62564 1.01734 0.65018 0.0
O540 O 0.57381 0.07484 0.61038 0.0
O541 O 0.57443 1.02493 0.6154 0.0
O542 O 0.64675 0.09815 0.61743 0.0
O543 O 0.63871 0.04463 0.61712 0.0
O544 O 0.60635 0.1325 0.62869 0.0
O545 O 0.56075 0.10744 0.63019 0.0
O546 O 0.57501 0.09055 0.6488 0.0
O547 O 0.62815 0.09413 0.64456 0.0
O548 O 0.53979 0.03348 0.64671 0.0
O549 O 0.5344 1.02584 0.62776 0.0
O550 O 0.59376 1.01921 0.65107 0.0
O551 O 0.63105 0.03398 0.64016 0.0
H552 H 0.63017 1.01983 0.59757 0.0
H553 H 0.62467 1.02015 0.57608 0.0
H554 H 0.66282 0.12035 0.5752 0.0
H555 H 0.66538 0.12113 0.59681 0.0
H556 H 0.50176 0.08164 0.62631 0.0
H557 H 0.45743 0.11929 0.63231 0.0
H558 H 0.42356 0.04687 0.65801 0.0
H559 H 0.46788 1.00936 0.65197 0.0
Ho560 Ho 0.71158 0.8583 0.3779 0.0
Ho561 Ho 0.73667 0.82916 0.38331 0.0
C562 C 0.74141 0.82204 0.35485 0.0
C563 C 0.73048 0.90919 0.3663 0.0
C564 C 0.7392 0.92072 0.35436 0.0
C565 C 0.77232 0.91831 0.35053 0.0
C566 C 0.7839 0.93914 0.3416 0.0
C567 C 0.76242 0.96224 0.33643 0.0
C568 C 0.72842 0.96126 0.33905 0.0
C569 C 0.71686 0.94067 0.34807 0.0
C570 C 0.65098 0.82482 0.37722 0.0
C571 C 0.68091 0.84921 0.4008 0.0
C572 C 0.76241 0.77272 0.38935 0.0
C573 C 0.74558 0.74131 0.39115 0.0
C574 C 0.71454 0.73625 0.38581 0.0
C575 C 0.69423 0.71077 0.38972 0.0
C576 C 0.70496 0.68986 0.39891 0.0
C577 C 0.73709 0.69331 0.40359 0.0
C578 C 0.7573 0.71912 0.39975 0.0
C579 C 0.77159 0.88062 0.39761 0.0
O580 O 0.7123 0.83188 0.35879 0.0
O581 O 0.7617 0.82429 0.36402 0.0
O582 O 0.69914 0.90392 0.36884 0.0
O583 O 0.75095 0.88755 0.37099 0.0
O584 O 0.65523 0.85701 0.37668 0.0
O585 O 0.68115 0.81135 0.3779 0.0
O586 O 0.69797 0.82283 0.3978 0.0
O587 O 0.68431 0.8746 0.39378 0.0
O588 O 0.75426 0.79553 0.39698 0.0
O589 O 0.76212 0.78378 0.37846 0.0
O590 O 0.78401 0.86007 0.38975 0.0
O591 O 0.74018 0.87481 0.3957 0.0
H592 H 0.79013 0.90291 0.35519 0.0
H593 H 0.81017 0.93954 0.33961 0.0
H594 H 0.71144 0.9791 0.33518 0.0
H595 H 0.69127 0.94291 0.35087 0.0
H596 H 0.70515 0.75318 0.37912 0.0
H597 H 0.66947 0.70855 0.38607 0.0
H598 H 0.74556 0.67776 0.41088 0.0
H599 H 0.78102 0.72307 0.40404 0.0
Ho600 Ho 0.94103 0.96696 0.1299 0.0
Ho601 Ho 0.96943 0.99105 0.13633 0.0
C602 C 0.97988 0.99543 0.10765 0.0
C603 C 0.89379 0.98548 0.11641 0.0
C604 C 0.88799 0.9928 0.10382 0.0
C605 C 0.8935 1.02503 0.09945 0.0
C606 C 0.87841 0.03522 0.08893 0.0
C607 C 0.85767 1.0133 0.08278 0.0
C608 C 0.85645 0.97977 0.08618 0.0
C609 C 0.87136 0.96961 0.09672 0.0
C610 C 0.97405 0.90582 0.1302 0.0
C611 C 0.94195 0.93654 0.1531 0.0
C612 C 0.02681 1.01426 0.1423 0.0
C613 C 0.05872 0.99739 0.14215 0.0
C614 C 0.06323 0.96971 0.13468 0.0
C615 C 0.08871 0.94734 0.13694 0.0
C616 C 0.10993 0.95254 0.14666 0.0
C617 C 0.10749 0.98217 0.15328 0.0
C618 C 0.08186 1.00445 0.15105 0.0
C619 C 0.91903 0.02754 0.15053 0.0
O620 O 0.97035 0.96625 0.11149 0.0
O621 O 0.97585 1.01576 0.11683 0.0
O622 O 0.89817 0.95431 0.11945 0.0
O623 O 0.91306 1.00642 0.12209 0.0
O624 O 0.94215 0.9105 0.12891 0.0
O625 O 0.98765 0.93573 0.13125 0.0
O626 O 0.96951 0.95291 0.15127 0.0
O627 O 0.91952 0.93996 0.1449 0.0
O628 O 1.00584 1.00215 0.14993 0.0
O629 O 1.01339 1.01914 0.1319 0.0
O630 O 0.94466 0.0391 0.14484 0.0
O631 O 0.9199 0.99663 0.14685 0.0
H632 H 0.90669 0.04335 0.10468 0.0
H633 H 0.87978 0.0611 0.08637 0.0
H634 H 0.84046 0.96237 0.08159 0.0
H635 H 0.86705 0.94457 0.09987 0.0
H636 H 0.04556 0.96396 0.12771 0.0
H637 H 0.09014 0.92469 0.13174 0.0
H638 H 0.1232 0.98655 0.16097 0.0
H639 H 0.07847 1.02558 0.15692 0.0
Ho640 Ho 0.74443 0.71639 0.8823 0.0
Ho641 Ho 0.72013 0.68878 0.87597 0.0
C642 C 0.69684 0.68919 0.90047 0.0
C643 C 0.77266 0.77374 0.88449 0.0
C644 C 0.76409 0.80028 0.89284 0.0
C645 C 0.74901 0.829 0.88827 0.0
C646 C 0.72725 0.84711 0.89539 0.0
C647 C 0.72102 0.83672 0.90711 0.0
C648 C 0.73989 0.81115 0.91217 0.0
C649 C 0.76142 0.79298 0.90507 0.0
C650 C 0.77628 0.6702 0.899 0.0
C651 C 0.75235 0.72584 0.85445 0.0
C652 C 0.72752 0.6434 0.86014 0.0
C653 C 0.73664 0.64737 0.84753 0.0
C654 C 0.76965 0.65448 0.84437 0.0
C655 C 0.77821 0.66016 0.83254 0.0
C656 C 0.75449 0.65657 0.82351 0.0
C657 C 0.72111 0.65126 0.82675 0.0
C658 C 0.71231 0.64677 0.83866 0.0
C659 C 0.6583 0.72072 0.8788 0.0
O660 O 0.70996 0.71797 0.89806 0.0
O661 O 0.70013 0.66666 0.8923 0.0
O662 O 0.78463 0.74667 0.88907 0.0
O663 O 0.74947 0.76746 0.87678 0.0
O664 O 0.77154 0.70199 0.90011 0.0
O665 O 0.76238 0.66436 0.88842 0.0
O666 O 0.72258 0.72361 0.85893 0.0
O667 O 0.77167 0.71476 0.86314 0.0
O668 O 0.69829 0.65407 0.8634 0.0
O669 O 0.7507 0.65192 0.86761 0.0
O670 O 0.66344 0.68893 0.87728 0.0
O671 O 0.68811 0.73446 0.87942 0.0
H672 H 0.75082 0.835 0.87885 0.0
H673 H 0.71299 0.86703 0.8914 0.0
H674 H 0.73587 0.80344 0.92134 0.0
H675 H 0.773 0.77117 0.90889 0.0
H676 H 0.7891 0.65573 0.85101 0.0
H677 H 0.80393 0.66481 0.83037 0.0
H678 H 0.70203 0.64779 0.82008 0.0
H679 H 0.68668 0.64181 0.84088 0.0
Ho680 Ho 0.56873 0.4871 0.13285 0.0
Ho681 Ho 0.60185 0.46548 0.12715 0.0
C682 C 0.59436 0.44197 0.15192 0.0
C683 C 0.51615 0.51703 0.14046 0.0
C684 C 0.48285 0.50355 0.1411 0.0
C685 C 0.47568 0.47456 0.13464 0.0
C686 C 0.44973 0.45423 0.1382 0.0
C687 C 0.43094 0.46257 0.14832 0.0
C688 C 0.43595 0.49349 0.1539 0.0
C689 C 0.46189 0.51386 0.15031 0.0
C690 C 0.6213 0.51573 0.15165 0.0
C691 C 0.56181 0.49354 0.10418 0.0
C692 C 0.65733 0.46585 0.11617 0.0
C693 C 0.67321 0.4584 0.10486 0.0
C694 C 0.66487 0.47628 0.09453 0.0
C695 C 0.68853 0.48063 0.08566 0.0
C696 C 0.72021 0.46694 0.08716 0.0
C697 C 0.72613 0.44429 0.09643 0.0
C698 C 0.70261 0.44012 0.10531 0.0
C699 C 0.56763 0.40337 0.12806 0.0
O700 O 0.56521 0.45133 0.14825 0.0
O701 O 0.61852 0.44838 0.14473 0.0
O702 O 0.53684 0.50168 0.1474 0.0
O703 O 0.52808 0.52129 0.12977 0.0
O704 O 0.61557 0.51426 0.13988 0.0
O705 O 0.61433 0.51316 0.13984 0.0
O706 O 0.58047 0.46809 0.10727 0.0
O707 O 0.55534 0.51056 0.11395 0.0
O708 O 0.64767 0.44089 0.12267 0.0
O709 O 0.63715 0.49127 0.11638 0.0
O710 O 0.59916 0.40865 0.12941 0.0
O711 O 0.55467 0.43307 0.12642 0.0
H712 H 0.49205 0.466 0.1276 0.0
H713 H 0.4463 0.43063 0.13374 0.0
H714 H 0.42223 0.5004 0.16185 0.0
H715 H 0.46756 0.53587 0.15548 0.0
H716 H 0.64187 0.49007 0.09394 0.0
H717 H 0.68345 0.49772 0.07841 0.0
H718 H 0.75041 0.43338 0.09773 0.0
H719 H 0.70918 0.42605 0.11322 0.0
Ho720 Ho 0.80865 0.32471 0.3857 0.0
Ho721 Ho 0.83467 0.35345 0.38059 0.0
C722 C 0.86289 0.34102 0.40391 0.0
C723 C 0.78333 0.26732 0.3905 0.0
C724 C 0.80102 0.23574 0.39121 0.0
C725 C 0.82932 0.23071 0.3841 0.0
C726 C 0.85182 0.20581 0.38696 0.0
C727 C 0.84627 0.18563 0.39694 0.0
C728 C 0.81645 0.18876 0.40338 0.0
C729 C 0.79396 0.2138 0.40053 0.0
C730 C 0.77419 0.3756 0.40046 0.0
C731 C 0.80353 0.31683 0.35767 0.0
C732 C 0.82266 0.40437 0.36769 0.0
C733 C 0.82006 0.40686 0.35481 0.0
C734 C 0.79494 0.42628 0.34991 0.0
C735 C 0.7881 0.42416 0.33777 0.0
C736 C 0.80571 0.40174 0.3304 0.0
C737 C 0.83044 0.38183 0.33555 0.0
C738 C 0.83823 0.38514 0.34755 0.0
C739 C 0.89477 0.31918 0.38004 0.0
O740 O 0.84506 0.31565 0.40064 0.0
O741 O 0.86088 0.36699 0.3971 0.0
O742 O 0.79166 0.28863 0.39866 0.0
O743 O 0.78218 0.28077 0.37997 0.0
O744 O 0.76147 0.35418 0.39303 0.0
O745 O 0.80556 0.37089 0.39808 0.0
O746 O 0.83305 0.32214 0.36228 0.0
O747 O 0.78291 0.3237 0.36643 0.0
O748 O 0.85218 0.39784 0.37194 0.0
O749 O 0.79921 0.3861 0.37237 0.0
O750 O 0.89096 0.35139 0.37999 0.0
O751 O 0.86439 0.30622 0.38027 0.0
H752 H 0.83534 0.24749 0.37687 0.0
H753 H 0.87462 0.20383 0.3819 0.0
H754 H 0.81186 0.17386 0.41126 0.0
H755 H 0.77249 0.21765 0.40618 0.0
H756 H 0.78041 0.4428 0.35549 0.0
H757 H 0.76969 0.44096 0.3342 0.0
H758 H 0.84435 0.36409 0.3303 0.0
H759 H 0.85786 0.36993 0.35122 0.0
Ho760 Ho 0.97315 0.55999 0.63287 0.0
Ho761 Ho 0.93885 0.58208 0.62768 0.0
C762 C 0.95507 0.60771 0.65197 0.0
C763 C 1.02529 0.5285 0.63991 0.0
C764 C 0.05887 0.54123 0.64046 0.0
C765 C 0.066 0.57119 0.63462 0.0
C766 C 0.09308 0.59 0.63815 0.0
C767 C 0.11311 0.57909 0.6476 0.0
C768 C 0.10779 0.54746 0.65257 0.0
C769 C 0.08065 0.52864 0.64902 0.0
C770 C 0.91953 0.53364 0.65213 0.0
C771 C 0.97845 0.55478 0.60414 0.0
C772 C 0.88005 0.58154 0.6191 0.0
C773 C 0.85477 0.59426 0.61116 0.0
C774 C 0.83029 0.572 0.60756 0.0
C775 C 0.80031 0.58387 0.6033 0.0
C776 C 0.79468 0.61814 0.60258 0.0
C777 C 0.82024 0.64043 0.60523 0.0
C778 C 0.8503 0.62851 0.60957 0.0
C779 C 0.97309 0.64438 0.62764 0.0
O780 O 0.98256 0.5963 0.64759 0.0
O781 O 0.92871 0.60151 0.6458 0.0
O782 O 1.00523 0.54387 0.64712 0.0
O783 O 1.01287 0.52515 0.62924 0.0
O784 O 0.92632 0.53346 0.6404 0.0
O785 O 0.92757 0.53461 0.64037 0.0
O786 O 0.9582 0.57899 0.60741 0.0
O787 O 0.98681 0.53823 0.61379 0.0
O788 O 0.8897 0.60121 0.62764 0.0
O789 O 0.90338 0.56222 0.61491 0.0
O790 O 0.94146 0.6392 0.62874 0.0
O791 O 0.98616 0.61452 0.62649 0.0
H792 H 0.04896 0.5815 0.62813 0.0
H793 H 0.0967 0.61427 0.63422 0.0
H794 H 0.12249 0.53869 0.66003 0.0
H795 H 0.07499 0.50588 0.65374 0.0
H796 H 0.83343 0.54552 0.60885 0.0
H797 H 0.78111 0.56629 0.60095 0.0
H798 H 0.81634 0.66696 0.60454 0.0
H799 H 0.86905 0.646 0.61242 0.0
Ho800 Ho 0.73866 0.33081 0.73691 0.0
Ho801 Ho 0.71226 0.36029 0.74257 0.0
C802 C 0.69462 0.35241 0.71718 0.0
C803 C 0.77163 0.27558 0.73571 0.0
C804 C 0.76791 0.24807 0.72734 0.0
C805 C 0.75505 0.21811 0.7317 0.0
C806 C 0.73696 0.19768 0.72413 0.0
C807 C 0.73229 0.20704 0.7122 0.0
C808 C 0.74974 0.23399 0.70746 0.0
C809 C 0.76753 0.25453 0.71501 0.0
C810 C 0.77011 0.37813 0.72038 0.0
C811 C 0.74344 0.32486 0.76506 0.0
C812 C 0.70679 0.4115 0.75592 0.0
C813 C 0.69772 0.42226 0.7679 0.0
C814 C 0.71902 0.41574 0.77754 0.0
C815 C 0.72215 0.43921 0.78658 0.0
C816 C 0.70392 0.46879 0.78587 0.0
C817 C 0.67739 0.47113 0.77781 0.0
C818 C 0.67444 0.44785 0.76875 0.0
C819 C 0.65225 0.32526 0.73971 0.0
O820 O 0.70549 0.32386 0.72099 0.0
O821 O 0.69888 0.37692 0.7245 0.0
O822 O 0.78223 0.30337 0.73131 0.0
O823 O 0.74604 0.28012 0.74255 0.0
O824 O 0.76351 0.34682 0.71876 0.0
O825 O 0.75788 0.38285 0.73134 0.0
O826 O 0.71375 0.32917 0.7606 0.0
O827 O 0.76383 0.33296 0.7563 0.0
O828 O 0.68315 0.40176 0.74883 0.0
O829 O 0.73426 0.39458 0.75482 0.0
O830 O 0.6562 0.35725 0.73995 0.0
O831 O 0.68254 0.31251 0.74038 0.0
H832 H 0.75528 0.21273 0.74119 0.0
H833 H 0.72375 0.17676 0.72788 0.0
H834 H 0.74688 0.24101 0.69816 0.0
H835 H 0.77759 0.27727 0.71137 0.0
H836 H 0.73659 0.3954 0.77724 0.0
H837 H 0.74216 0.43663 0.79296 0.0
H838 H 0.66262 0.49353 0.7772 0.0
H839 H 0.65745 0.45285 0.76146 0.0
Ho840 Ho 0.97311 0.48957 0.98546 0.0
Ho841 Ho 0.94435 0.46568 0.99149 0.0
C842 C 0.94666 0.43203 0.96931 0.0
C843 C 0.03005 0.51274 0.97877 0.0
C844 C 0.06139 0.49506 0.97761 0.0
C845 C 0.06696 0.46654 0.98454 0.0
C846 C 0.09099 0.44372 0.98112 0.0
C847 C 0.10973 0.44928 0.97079 0.0
C848 C 0.10651 0.47946 0.9646 0.0
C849 C 0.08226 0.50224 0.96798 0.0
C850 C 0.92252 0.52483 0.97094 0.0
C851 C 0.98161 0.49397 1.01426 0.0
C852 C 0.89855 0.49014 1.00445 0.0
C853 C 0.89852 0.50122 1.01687 0.0
C854 C 0.90037 0.53537 1.01928 0.0
C855 C 0.90125 0.54671 1.03098 0.0
C856 C 0.89886 0.52415 1.04045 0.0
C857 C 0.89956 0.48985 1.03802 0.0
C858 C 0.89942 0.47847 1.02631 0.0
C859 C 0.97786 0.40473 0.99215 0.0
O860 O 0.97391 0.44894 0.97129 0.0
O861 O 0.92307 0.43639 0.97705 0.0
O862 O 1.00738 0.50293 0.97138 0.0
O863 O 1.01863 0.51558 0.98957 0.0
O864 O 0.94498 0.53744 0.97798 0.0
O865 O 0.92619 0.49344 0.97367 0.0
O866 O 0.97141 0.46499 1.01039 0.0
O867 O 0.97927 0.51421 1.00499 0.0
O868 O 0.90074 0.45806 1.00233 0.0
O869 O 0.91766 0.50823 0.9976 0.0
O870 O 0.94581 0.4093 0.99331 0.0
O871 O 0.99134 0.43467 0.99086 0.0
H872 H 0.05106 0.46058 0.99202 0.0
H873 H 0.09316 0.42058 0.98598 0.0
H874 H 0.12041 0.48401 0.95648 0.0
H875 H 0.07798 0.52398 0.9625 0.0
H876 H 0.9005 0.55341 1.01211 0.0
H877 H 0.90098 0.5732 1.03262 0.0
H878 H 0.89735 0.47171 1.04511 0.0
H879 H 0.89897 0.45198 1.02468 0.0
Ho880 Ho 0.80521 0.72662 0.23513 0.0
Ho881 Ho 0.82757 0.69415 0.23996 0.0
C882 C 0.85179 0.70891 0.21564 0.0
C883 C 0.77326 0.77925 0.22881 0.0
C884 C 0.78593 0.813 0.22894 0.0
C885 C 0.81409 0.81995 0.23586 0.0
C886 C 0.83402 0.84691 0.23304 0.0
C887 C 0.82618 0.86693 0.2232 0.0
C888 C 0.79596 0.86198 0.21716 0.0
C889 C 0.77597 0.83504 0.22002 0.0
C890 C 0.77825 0.67497 0.21542 0.0
C891 C 0.80041 0.73249 0.26361 0.0
C892 C 0.82528 0.63816 0.25056 0.0
C893 C 0.83319 0.62167 0.26174 0.0
C894 C 0.80964 0.62137 0.27098 0.0
C895 C 0.80991 0.59575 0.27923 0.0
C896 C 0.83389 0.57082 0.27829 0.0
C897 C 0.86036 0.57408 0.27031 0.0
C898 C 0.85993 0.59948 0.26197 0.0
C899 C 0.88947 0.72761 0.23979 0.0
O900 O 0.8401 0.7363 0.22004 0.0
O901 O 0.84665 0.68241 0.22189 0.0
O902 O 0.78882 0.76015 0.22132 0.0
O903 O 0.76961 0.76533 0.23923 0.0
O904 O 0.77962 0.67981 0.22724 0.0
O905 O 0.78065 0.68104 0.22727 0.0
O906 O 0.82664 0.71565 0.25997 0.0
O907 O 0.78187 0.73765 0.25417 0.0
O908 O 0.84989 0.6468 0.24367 0.0
O909 O 0.80098 0.65965 0.25081 0.0
O910 O 0.88425 0.69603 0.23827 0.0
O911 O 0.8598 0.74092 0.24127 0.0
H912 H 0.82245 0.80278 0.24268 0.0
H913 H 0.85709 0.85024 0.23784 0.0
H914 H 0.78947 0.87664 0.20939 0.0
H915 H 0.75464 0.82958 0.21448 0.0
H916 H 0.78894 0.63851 0.27108 0.0
H917 H 0.78953 0.59349 0.28548 0.0
H918 H 0.87905 0.55487 0.26954 0.0
H919 H 0.87838 0.59939 0.25493 0.0
Ho920 Ho 0.58079 0.55414 0.48828 0.0
Ho921 Ho 0.6118 0.57893 0.49487 0.0
C922 C 0.60894 0.59955 0.47002 0.0
C923 C 0.52286 0.52807 0.48516 0.0
C924 C 0.49437 0.54338 0.47914 0.0
C925 C 0.4754 0.5677 0.48508 0.0
C926 C 0.45667 0.5903 0.47854 0.0
C927 C 0.45675 0.58857 0.46607 0.0
C928 C 0.47253 0.56221 0.46021 0.0
C929 C 0.49094 0.53945 0.46673 0.0
C930 C 0.62861 0.52085 0.4725 0.0
C931 C 0.57345 0.54651 0.51648 0.0
C932 C 0.65946 0.58231 0.50985 0.0
C933 C 0.65759 0.59361 0.52212 0.0
C934 C 0.67471 0.57611 0.53091 0.0
C935 C 0.66895 0.58317 0.54288 0.0
C936 C 0.64583 0.60775 0.54616 0.0
C937 C 0.62853 0.62509 0.5373 0.0
C938 C 0.63432 0.61801 0.52533 0.0
C939 C 0.57744 0.64023 0.49224 0.0
O940 O 0.57915 0.59174 0.47348 0.0
O941 O 0.63231 0.59165 0.47737 0.0
O942 O 0.54813 0.52182 0.47835 0.0
O943 O 0.53201 0.54202 0.49509 0.0
O944 O 0.59765 0.52782 0.47062 0.0
O945 O 0.63287 0.53284 0.4835 0.0
O946 O 0.57946 0.57649 0.51254 0.0
O947 O 0.58018 0.52661 0.50735 0.0
O948 O 0.65444 0.6049 0.50169 0.0
O949 O 0.64286 0.55506 0.50797 0.0
O950 O 0.6093 0.63561 0.49285 0.0
O951 O 0.56436 0.61012 0.49243 0.0
H952 H 0.47725 0.57111 0.49467 0.0
H953 H 0.44431 0.61053 0.48312 0.0
H954 H 0.4723 0.56049 0.45054 0.0
H955 H 0.50492 0.52072 0.46193 0.0
H956 H 0.69206 0.55665 0.52852 0.0
H957 H 0.68331 0.57002 0.54955 0.0
H958 H 0.61076 0.64419 0.53965 0.0
H959 H 0.62009 0.63108 0.51861 0.0
Ho960 Ho 0.32891 0.35655 0.24227 0.0
Ho961 Ho 0.30495 0.32764 0.23642 0.0
C962 C 0.3015 0.31861 0.26519 0.0
C963 C 0.30794 0.40653 0.25396 0.0
C964 C 0.30114 0.42083 0.26562 0.0
C965 C 0.26937 0.43377 0.26755 0.0
C966 C 0.26482 0.4591 0.27581 0.0
C967 C 0.29218 0.47166 0.28202 0.0
C968 C 0.3226 0.45469 0.28155 0.0
C969 C 0.3271 0.42923 0.27333 0.0
C970 C 0.39 0.32327 0.24297 0.0
C971 C 0.36117 0.35144 0.21953 0.0
C972 C 0.27973 0.27135 0.22999 0.0
C973 C 0.29572 0.23912 0.22918 0.0
C974 C 0.3252 0.23345 0.23552 0.0
C975 C 0.34575 0.2072 0.23235 0.0
C976 C 0.33694 0.18642 0.22283 0.0
C977 C 0.30581 0.19028 0.21733 0.0
C978 C 0.28533 0.21665 0.22048 0.0
C979 C 0.26948 0.37903 0.22212 0.0
O980 O 0.32996 0.33039 0.26138 0.0
O981 O 0.28123 0.31993 0.25594 0.0
O982 O 0.33902 0.40315 0.25065 0.0
O983 O 0.28815 0.38274 0.25036 0.0
O984 O 0.38523 0.35531 0.24401 0.0
O985 O 0.36011 0.30966 0.24182 0.0
O986 O 0.34425 0.32443 0.22184 0.0
O987 O 0.35716 0.37549 0.22711 0.0
O988 O 0.29106 0.29309 0.2225 0.0
O989 O 0.27706 0.28342 0.24069 0.0
O990 O 0.25716 0.35752 0.22963 0.0
O991 O 0.30086 0.37412 0.22444 0.0
H992 H 0.24896 0.42718 0.26173 0.0
H993 H 0.24099 0.47144 0.27626 0.0
H994 H 0.3441 0.46375 0.28632 0.0
H995 H 0.35171 0.41904 0.27209 0.0
H996 H 0.33353 0.25068 0.2423 0.0
H997 H 0.36962 0.20471 0.23669 0.0
H998 H 0.29867 0.17499 0.20979 0.0
H999 H 0.26278 0.22102 0.21547 0.0
Ho1000 Ho 0.4339 0.58378 0.99071 0.0
Ho1001 Ho 0.46252 0.55972 0.98482 0.0
C1002 C 0.4716 0.55421 1.01324 0.0
C1003 C 0.38829 0.56077 1.00406 0.0
C1004 C 0.38945 0.55011 1.01655 0.0
C1005 C 0.39322 0.51619 1.01914 0.0
C1006 C 0.3955 0.50546 1.0309 0.0
C1007 C 0.39256 0.52833 1.04027 0.0
C1008 C 0.39139 0.56251 1.03763 0.0
C1009 C 0.38984 0.5733 1.02586 0.0
C1010 C 0.46703 0.64491 0.99126 0.0
C1011 C 0.43591 0.61643 0.9683 0.0
C1012 C 0.51951 0.53615 0.97833 0.0
C1013 C 0.55038 0.55366 0.97629 0.0
C1014 C 0.54946 0.58778 0.97404 0.0
C1015 C 0.57828 0.60461 0.97129 0.0
C1016 C 0.60871 0.58764 0.9709 0.0
C1017 C 0.60985 0.55394 0.97417 0.0
C1018 C 0.58069 0.53695 0.97678 0.0
C1019 C 0.41204 0.52383 0.97059 0.0
O1020 O 0.46231 0.58356 1.00938 0.0
O1021 O 0.46805 0.534 1.00406 0.0
O1022 O 0.39094 0.59269 1.00181 0.0
O1023 O 0.40627 0.54213 0.997 0.0
O1024 O 0.43498 0.64029 0.99225 0.0
O1025 O 0.48063 0.61489 0.99014 0.0
O1026 O 0.4631 0.59943 0.97035 0.0
O1027 O 0.41251 0.61268 0.97614 0.0
O1028 O 0.49586 0.54316 0.9709 0.0
O1029 O 0.5094 0.53675 0.98932 0.0
O1030 O 0.43391 0.51148 0.97796 0.0
O1031 O 0.41618 0.55536 0.97293 0.0
H1032 H 0.39382 0.49779 1.01207 0.0
H1033 H 0.39667 0.47908 1.03268 0.0
H1034 H 0.38874 0.58092 1.04462 0.0
H1035 H 0.3879 0.59965 1.0241 0.0
H1036 H 0.52628 0.60122 0.97388 0.0
H1037 H 0.57607 0.63033 0.96863 0.0
H1038 H 0.63301 0.54036 0.97411 0.0
H1039 H 0.58168 0.5107 0.97882 0.0
Ho1040 Ho 0.21837 0.68478 0.7436 0.0
Ho1041 Ho 0.24305 0.7139 0.73659 0.0
C1042 C 0.25103 0.72474 0.76478 0.0
C1043 C 0.22432 0.6382 0.75898 0.0
C1044 C 0.2239 0.63998 0.77191 0.0
C1045 C 0.24844 0.62324 0.77827 0.0
C1046 C 0.25338 0.63033 0.79028 0.0
C1047 C 0.23418 0.65484 0.79609 0.0
C1048 C 0.20932 0.67122 0.78958 0.0
C1049 C 0.20394 0.66355 0.77765 0.0
C1050 C 0.15703 0.71763 0.7413 0.0
C1051 C 0.19469 0.68419 0.71911 0.0
C1052 C 0.26621 0.77246 0.73229 0.0
C1053 C 0.24893 0.80379 0.73055 0.0
C1054 C 0.21779 0.80885 0.73585 0.0
C1055 C 0.19701 0.83376 0.73164 0.0
C1056 C 0.20716 0.85377 0.72208 0.0
C1057 C 0.23949 0.85045 0.71752 0.0
C1058 C 0.26025 0.82553 0.72175 0.0
C1059 C 0.27947 0.66609 0.72172 0.0
O1060 O 0.22105 0.71948 0.76075 0.0
O1061 O 0.2706 0.7164 0.75574 0.0
O1062 O 0.19638 0.64458 0.75352 0.0
O1063 O 0.24971 0.65361 0.75433 0.0
O1064 O 0.16182 0.68592 0.74284 0.0
O1065 O 0.18692 0.73115 0.74063 0.0
O1066 O 0.20587 0.7137 0.72159 0.0
O1067 O 0.20023 0.66186 0.72715 0.0
O1068 O 0.26028 0.75062 0.72402 0.0
O1069 O 0.26464 0.7598 0.74297 0.0
O1070 O 0.28466 0.69747 0.72325 0.0
O1071 O 0.25523 0.66039 0.72939 0.0
H1072 H 0.26437 0.60533 0.77386 0.0
H1073 H 0.27185 0.61588 0.79497 0.0
H1074 H 0.19398 0.69016 0.79362 0.0
H1075 H 0.18508 0.67712 0.7728 0.0
H1076 H 0.20861 0.79219 0.74267 0.0
H1077 H 0.17224 0.83592 0.73528 0.0
H1078 H 0.24774 0.86511 0.70998 0.0
H1079 H 0.28404 0.82156 0.71748 0.0
Ho1080 Ho 0.10665 0.46715 0.48963 0.0
Ho1081 Ho 0.07704 0.49229 0.4843 0.0
C1082 C 0.07029 0.49635 0.51291 0.0
C1083 C 0.1588 0.48595 0.50039 0.0
C1084 C 0.17345 0.4929 0.51198 0.0
C1085 C 0.17786 0.52617 0.51532 0.0
C1086 C 0.20031 0.53424 0.52421 0.0
C1087 C 0.21861 0.50911 0.52975 0.0
C1088 C 0.21141 0.47567 0.52737 0.0
C1089 C 0.1889 0.46758 0.51848 0.0
C1090 C 0.07359 0.40646 0.49062 0.0
C1091 C 0.09477 0.43657 0.46669 0.0
C1092 C 1.02051 0.51815 0.47862 0.0
C1093 C 0.98891 0.50088 0.47805 0.0
C1094 C 0.98424 0.47258 0.48518 0.0
C1095 C 0.96038 0.44936 0.4821 0.0
C1096 C 0.94094 0.45428 0.4719 0.0
C1097 C 0.94313 0.48432 0.46557 0.0
C1098 C 0.96721 0.50753 0.46862 0.0
C1099 C 0.12841 0.52664 0.46972 0.0
O1100 O 0.0817 0.46765 0.50903 0.0
O1101 O 0.07112 0.51658 0.50368 0.0
O1102 O 0.15384 0.45485 0.49732 0.0
O1103 O 0.13543 0.50655 0.49695 0.0
O1104 O 0.1057 0.41089 0.49115 0.0
O1105 O 0.05988 0.43656 0.48987 0.0
O1106 O 0.06882 0.45382 0.46991 0.0
O1107 O 0.12078 0.43992 0.4734 0.0
O1108 O 0.04198 0.50798 0.4708 0.0
O1109 O 0.03342 0.52057 0.48921 0.0
O1110 O 0.1079 0.53935 0.47752 0.0
O1111 O 0.12257 0.4953 0.47177 0.0
H1112 H 0.16621 0.54616 0.51038 0.0
H1113 H 0.20541 0.56013 0.52604 0.0
H1114 H 0.2255 0.45585 0.53149 0.0
H1115 H 0.18588 0.44175 0.51604 0.0
H1116 H 1.00092 0.46689 0.49247 0.0
H1117 H 0.95909 0.42629 0.48704 0.0
H1118 H 0.92869 0.48835 0.45754 0.0
H1119 H 0.97086 0.52903 0.46296 0.0
Ho1120 Ho 0.33087 0.69033 0.37548 0.0
Ho1121 Ho 0.3054 0.71965 0.38161 0.0
C1122 C 0.29816 0.72683 0.35364 0.0
C1123 C 0.33032 0.64281 0.36032 0.0
C1124 C 0.33102 0.64503 0.34734 0.0
C1125 C 0.30418 0.63195 0.34107 0.0
C1126 C 0.30043 0.6387 0.32901 0.0
C1127 C 0.32385 0.65825 0.32292 0.0
C1128 C 0.35065 0.67163 0.32925 0.0
C1129 C 0.35409 0.66528 0.34144 0.0
C1130 C 0.39176 0.72423 0.37779 0.0
C1131 C 0.35313 0.69685 0.40008 0.0
C1132 C 0.27517 0.77632 0.38361 0.0
C1133 C 0.28612 0.80589 0.39014 0.0
C1134 C 0.30855 0.82785 0.38467 0.0
C1135 C 0.33013 0.84637 0.39168 0.0
C1136 C 0.32885 0.84327 0.4041 0.0
C1137 C 0.30311 0.82566 0.40955 0.0
C1138 C 0.28148 0.80728 0.40258 0.0
C1139 C 0.27419 0.67231 0.39808 0.0
O1140 O 0.32804 0.72363 0.35802 0.0
O1141 O 0.27842 0.71771 0.36248 0.0
O1142 O 0.35708 0.65123 0.36612 0.0
O1143 O 0.30345 0.65563 0.36486 0.0
O1144 O 0.38737 0.69222 0.37707 0.0
O1145 O 0.36156 0.73748 0.37793 0.0
O1146 O 0.34187 0.72549 0.39654 0.0
O1147 O 0.34757 0.67207 0.39299 0.0
O1148 O 0.26837 0.75059 0.39012 0.0
O1149 O 0.29338 0.76817 0.3745 0.0
O1150 O 0.27988 0.70376 0.39955 0.0
O1151 O 0.28683 0.66729 0.38724 0.0
H1152 H 0.28569 0.617 0.34557 0.0
H1153 H 0.28003 0.627 0.32436 0.0
H1154 H 0.36927 0.68624 0.3247 0.0
H1155 H 0.37446 0.67657 0.34623 0.0
H1156 H 0.31212 0.8278 0.37507 0.0
H1157 H 0.34986 0.8602 0.38742 0.0
H1158 H 0.30173 0.82361 0.4192 0.0
H1159 H 0.26386 0.79124 0.40702 0.0
Ho1160 Ho 0.10696 0.58507 0.12821 0.0
Ho1161 Ho 0.07375 0.5602 0.13507 0.0
C1162 C 0.06893 0.55274 0.10619 0.0
C1163 C 0.15931 0.58987 0.11551 0.0
C1164 C 0.17063 0.59915 0.10366 0.0
C1165 C 0.15982 0.58149 0.09357 0.0
C1166 C 0.18108 0.57774 0.08389 0.0
C1167 C 0.21281 0.59175 0.08439 0.0
C1168 C 0.22028 0.61501 0.09333 0.0
C1169 C 0.19918 0.61855 0.10303 0.0
C1170 C 0.07217 0.64596 0.13066 0.0
C1171 C 0.10149 0.605 0.15335 0.0
C1172 C 1.01548 0.53495 0.13816 0.0
C1173 C 0.98422 0.55306 0.139 0.0
C1174 C 0.98102 0.5836 0.13306 0.0
C1175 C 0.95756 0.6066 0.13685 0.0
C1176 C 0.93707 0.5993 0.14659 0.0
C1177 C 0.93791 0.56743 0.15169 0.0
C1178 C 0.96152 0.54442 0.14791 0.0
C1179 C 0.12226 0.52545 0.15039 0.0
O1180 O 0.07966 0.58199 0.10952 0.0
O1181 O 0.07028 0.53349 0.11582 0.0
O1182 O 0.14944 0.61356 0.1226 0.0
O1183 O 0.14174 0.56272 0.11627 0.0
O1184 O 0.10402 0.64136 0.13082 0.0
O1185 O 0.05907 0.61592 0.12981 0.0
O1186 O 0.07175 0.59881 0.1495 0.0
O1187 O 0.1251 0.59592 0.14626 0.0
O1188 O 0.03576 0.5413 0.14685 0.0
O1189 O 0.03026 0.53575 0.12784 0.0
O1190 O 0.0913 0.53205 0.1523 0.0
O1191 O 0.12606 0.53791 0.13943 0.0
H1192 H 0.13728 0.56698 0.0938 0.0
H1193 H 0.17466 0.56028 0.0769 0.0
H1194 H 0.24451 0.62641 0.09384 0.0
H1195 H 0.20752 0.63266 0.11071 0.0
H1196 H 0.99846 0.59089 0.1262 0.0
H1197 H 0.95721 0.63102 0.13281 0.0
H1198 H 0.92263 0.56144 0.15935 0.0
H1199 H 0.96404 0.52119 0.1527 0.0
Ho1200 Ho 0.21042 0.35501 0.87772 0.0
Ho1201 Ho 0.23275 0.32283 0.88226 0.0
C1202 C 0.23806 0.31725 0.85394 0.0
C1203 C 0.21401 0.41196 0.86786 0.0
C1204 C 0.20837 0.43628 0.8585 0.0
C1205 C 0.23537 0.44545 0.85135 0.0
C1206 C 0.23606 0.47663 0.84615 0.0
C1207 C 0.20965 0.49859 0.84798 0.0
C1208 C 0.18093 0.48789 0.85383 0.0
C1209 C 0.18029 0.45674 0.85911 0.0
C1210 C 0.14786 0.3227 0.87802 0.0
C1211 C 0.18696 0.33827 0.90202 0.0
C1212 C 0.2639 0.26969 0.88856 0.0
C1213 C 0.24929 0.23684 0.88951 0.0
C1214 C 0.21841 0.23132 0.88409 0.0
C1215 C 0.19832 0.20556 0.88799 0.0
C1216 C 0.20898 0.18499 0.89732 0.0
C1217 C 0.24121 0.18863 0.90192 0.0
C1218 C 0.26124 0.21463 0.89806 0.0
C1219 C 0.26175 0.37235 0.90223 0.0
O1220 O 0.21112 0.33275 0.85773 0.0
O1221 O 0.25714 0.3133 0.86331 0.0
O1222 O 0.18951 0.40332 0.8748 0.0
O1223 O 0.23616 0.38871 0.86611 0.0
O1224 O 0.15362 0.35427 0.87935 0.0
O1225 O 0.17737 0.30892 0.8766 0.0
O1226 O 0.19801 0.31129 0.89716 0.0
O1227 O 0.19252 0.36533 0.89613 0.0
O1228 O 0.25135 0.29065 0.89613 0.0
O1229 O 0.2656 0.28197 0.87782 0.0
O1230 O 0.25841 0.36935 0.89038 0.0
O1231 O 0.2575 0.36818 0.89032 0.0
H1232 H 0.25736 0.43007 0.85079 0.0
H1233 H 0.25811 0.48443 0.8414 0.0
H1234 H 0.16023 0.50459 0.85522 0.0
H1235 H 0.15923 0.45022 0.86463 0.0
H1236 H 0.20857 0.24868 0.87761 0.0
H1237 H 0.17355 0.20328 0.88437 0.0
H1238 H 0.24975 0.17344 0.90929 0.0
H1239 H 0.28467 0.21906 0.90249 0.0
Ho1240 Ho 0.44295 0.45795 0.62971 0.0
Ho1241 Ho 0.4721 0.48279 0.63559 0.0
C1242 C 0.48146 0.48797 0.60741 0.0
C1243 C 0.39398 0.47414 0.61647 0.0
C1244 C 0.39152 0.48142 0.60383 0.0
C1245 C 0.37379 0.50957 0.60041 0.0
C1246 C 0.37571 0.5209 0.58874 0.0
C1247 C 0.39583 0.5044 0.58031 0.0
C1248 C 0.41401 0.4764 0.58388 0.0
C1249 C 0.41142 0.46464 0.59552 0.0
C1250 C 0.47596 0.39702 0.62975 0.0
C1251 C 0.44911 0.42872 0.65315 0.0
C1252 C 0.52974 0.50669 0.6409 0.0
C1253 C 0.56152 0.48959 0.64126 0.0
C1254 C 0.56576 0.46015 0.6347 0.0
C1255 C 0.59216 0.43912 0.6372 0.0
C1256 C 0.61476 0.44752 0.64618 0.0
C1257 C 0.61209 0.47841 0.65198 0.0
C1258 C 0.58542 0.49931 0.64956 0.0
C1259 C 0.42206 0.51895 0.64994 0.0
O1260 O 0.47444 0.45846 0.61164 0.0
O1261 O 0.47529 0.5085 0.6163 0.0
O1262 O 0.40004 0.4433 0.61951 0.0
O1263 O 0.41215 0.49588 0.62218 0.0
O1264 O 0.44389 0.40152 0.62909 0.0
O1265 O 0.48959 0.42704 0.63031 0.0
O1266 O 0.47606 0.44513 0.65052 0.0
O1267 O 0.42493 0.43197 0.6456 0.0
O1268 O 0.50857 0.4967 0.64885 0.0
O1269 O 0.51645 0.50914 0.63037 0.0
O1270 O 0.44609 0.53093 0.64351 0.0
O1271 O 0.42406 0.48765 0.6469 0.0
H1272 H 0.35877 0.52305 0.60683 0.0
H1273 H 0.36031 0.54181 0.58627 0.0
H1274 H 0.42951 0.46307 0.5776 0.0
H1275 H 0.42552 0.4429 0.59806 0.0
H1276 H 0.54758 0.45239 0.62818 0.0
H1277 H 0.59374 0.41538 0.63268 0.0
H1278 H 0.62893 0.48514 0.65912 0.0
H1279 H 0.58226 0.52183 0.65473 0.0
H1280 H 0.13691 0.33059 0.40202 0.0
H1281 H 0.19911 0.41702 0.40613 0.0
H1282 H 0.09946 0.35208 0.41725 0.0
H1283 H 0.16133 0.43831 0.42143 0.0
H1284 H 0.05849 0.44965 0.44689 0.0
H1285 H 0.07391 0.43363 0.42644 0.0
H1286 H 0.15249 0.37222 0.44044 0.0
H1287 H 0.13759 0.38829 0.46076 0.0
C1288 C 0.14151 0.35509 0.40564 0.0
C1289 C 0.17094 0.37221 0.40301 0.0
C1290 C 0.12005 0.36725 0.41432 0.0
C1291 C 0.12775 0.39667 0.42027 0.0
C1292 C 0.15494 0.41577 0.41668 0.0
C1293 C 0.17654 0.40355 0.40804 0.0
C1294 C 0.07821 0.43176 0.44556 0.0
C1295 C 0.09708 0.42014 0.45522 0.0
C1296 C 0.08706 0.42295 0.43395 0.0
C1297 C 0.11427 0.40211 0.43212 0.0
C1298 C 0.13135 0.38839 0.44183 0.0
C1299 C 0.12279 0.39741 0.45336 0.0
H1300 H 0.97 0.88767 0.65211 0.0
H1301 H 0.88041 0.94516 0.65675 0.0
H1302 H 0.95089 0.84832 0.66712 0.0
H1303 H 0.86121 0.90521 0.6717 0.0
H1304 H 0.8423 0.81031 0.6959 0.0
H1305 H 0.8585 0.82735 0.67566 0.0
H1306 H 0.93701 0.88706 0.69051 0.0
H1307 H 0.92022 0.87106 0.71068 0.0
C1308 C 0.94543 0.89084 0.65584 0.0
C1309 C 0.92649 0.9193 0.65333 0.0
C1310 C 0.93464 0.86836 0.66439 0.0
C1311 C 0.90468 0.8739 0.67029 0.0
C1312 C 0.88416 0.90042 0.66696 0.0
C1313 C 0.89514 0.92322 0.65852 0.0
C1314 C 0.86386 0.82594 0.69473 0.0
C1315 C 0.88035 0.83939 0.70463 0.0
C1316 C 0.87286 0.83573 0.68326 0.0
C1317 C 0.89897 0.85803 0.68175 0.0
C1318 C 0.91708 0.86935 0.69162 0.0
C1319 C 0.9076 0.86026 0.70306 0.0
H1320 H 0.39387 0.69959 0.89987 0.0
H1321 H 0.32328 0.6211 0.90652 0.0
H1322 H 0.42766 0.67995 0.91632 0.0
H1323 H 0.35707 0.60221 0.9233 0.0
H1324 H 0.47608 0.61702 0.94874 0.0
H1325 H 0.45722 0.62466 0.92806 0.0
H1326 H 0.36007 0.65165 0.941 0.0
H1327 H 0.3787 0.64502 0.96148 0.0
C1328 C 0.38645 0.67702 0.90437 0.0
C1329 C 0.35558 0.66212 0.90205 0.0
C1330 C 0.40585 0.66594 0.91382 0.0
C1331 C 0.39444 0.64011 0.92101 0.0
C1332 C 0.36599 0.62238 0.91777 0.0
C1333 C 0.34672 0.63321 0.90824 0.0
C1334 C 0.451 0.62548 0.94712 0.0
C1335 C 0.42861 0.63005 0.95659 0.0
C1336 C 0.44022 0.62928 0.93537 0.0
C1337 C 0.40706 0.63727 0.93315 0.0
C1338 C 0.38552 0.64432 0.94263 0.0
C1339 C 0.39633 0.64108 0.9543 0.0
H1340 H 0.65584 0.13631 0.21349 0.0
H1341 H 0.67687 0.23595 0.20126 0.0
H1342 H 0.64504 0.11925 0.19311 0.0
H1343 H 0.665 0.21858 0.18064 0.0
H1344 H 0.66555 0.08622 0.15743 0.0
H1345 H 0.68841 0.11893 0.17384 0.0
H1346 H 0.60791 0.18886 0.17057 0.0
H1347 H 0.58458 0.15613 0.15438 0.0
C1348 C 0.65754 0.15471 0.20646 0.0
C1349 C 0.66753 0.18731 0.20883 0.0
C1350 C 0.65187 0.14481 0.19482 0.0
C1351 C 0.65552 0.16751 0.18546 0.0
C1352 C 0.66296 0.20075 0.18784 0.0
C1353 C 0.66925 0.21064 0.19955 0.0
C1354 C 0.65361 0.10934 0.15988 0.0
C1355 C 0.62317 0.11844 0.15481 0.0
C1356 C 0.66669 0.12801 0.16917 0.0
C1357 C 0.64951 0.15595 0.17334 0.0
C1358 C 0.62153 0.16751 0.16729 0.0
C1359 C 0.6083 0.14874 0.15804 0.0
H1360 H 0.20403 0.62202 0.21849 0.0
H1361 H 0.13921 0.70733 0.21701 0.0
H1362 H 0.1703 0.59453 0.20336 0.0
H1363 H 0.1061 0.68023 0.20176 0.0
H1364 H 0.16221 0.61178 0.16257 0.0
H1365 H 0.17669 0.6223 0.18307 0.0
H1366 H 0.0731 0.63157 0.1923 0.0
H1367 H 0.05814 0.62038 0.17135 0.0
C1368 C 0.18172 0.63412 0.21534 0.0
C1369 C 0.17434 0.66675 0.21872 0.0
C1370 C 0.16243 0.61848 0.20675 0.0
C1371 C 0.13612 0.63568 0.20135 0.0
C1372 C 0.12612 0.66646 0.2059 0.0
C1373 C 0.14518 0.68198 0.21459 0.0
C1374 C 0.14236 0.61597 0.16892 0.0
C1375 C 0.10903 0.61521 0.16548 0.0
C1376 C 0.15068 0.62138 0.18071 0.0
C1377 C 0.12587 0.62648 0.18927 0.0
C1378 C 0.09245 0.62685 0.18582 0.0
C1379 C 0.084 0.62093 0.17391 0.0
H1380 H 0.68671 0.80787 0.41989 0.0
H1381 H 0.64234 0.89986 0.40794 0.0
H1382 H 0.67504 0.82341 0.44071 0.0
H1383 H 0.63138 0.91523 0.42858 0.0
H1384 H 0.5872 0.8868 0.46807 0.0
H1385 H 0.60745 0.85179 0.45191 0.0
H1386 H 0.68964 0.91821 0.44652 0.0
H1387 H 0.66994 0.95325 0.46288 0.0
C1388 C 0.67364 0.83082 0.42171 0.0
C1389 C 0.66574 0.85299 0.41246 0.0
C1390 C 0.66742 0.83973 0.43353 0.0
C1391 C 0.65335 0.87068 0.436 0.0
C1392 C 0.64292 0.89147 0.42671 0.0
C1393 C 0.64887 0.88256 0.41497 0.0
C1394 C 0.61073 0.89289 0.46397 0.0
C1395 C 0.62693 0.92292 0.46658 0.0
C1396 C 0.62219 0.87281 0.45475 0.0
C1397 C 0.6498 0.88267 0.44816 0.0
C1398 C 0.66838 0.91029 0.4517 0.0
C1399 C 0.65704 0.93033 0.46095 0.0
H1400 H 0.4904 0.4299 0.67241 0.0
H1401 H 0.39353 0.3983 0.66045 0.0
H1402 H 0.47346 0.42022 0.69324 0.0
H1403 H 0.3768 0.38973 0.68104 0.0
H1404 H 0.40669 0.33793 0.72008 0.0
H1405 H 0.44195 0.35845 0.70413 0.0
H1406 H 0.37714 0.44257 0.69947 0.0
H1407 H 0.34195 0.4227 0.7157 0.0
C1408 C 0.46589 0.42027 0.67423 0.0
C1409 C 0.44307 0.41515 0.66495 0.0
C1410 C 0.45621 0.41524 0.68605 0.0
C1411 C 0.4237 0.4055 0.68852 0.0
C1412 C 0.40176 0.39818 0.6792 0.0
C1413 C 0.41148 0.40266 0.66747 0.0
C1414 C 0.40102 0.36191 0.71623 0.0
C1415 C 0.3713 0.37858 0.71898 0.0
C1416 C 0.42127 0.37354 0.7071 0.0
C1417 C 0.41184 0.40173 0.7007 0.0
C1418 C 0.38468 0.42078 0.70445 0.0
C1419 C 0.36455 0.40933 0.71364 0.0
H1420 H 0.9947 0.13803 0.95404 0.0
H1421 H 0.89616 0.10323 0.96228 0.0
H1422 H 0.97147 0.17997 0.94073 0.0
H1423 H 0.87291 0.14524 0.94893 0.0
H1424 H 0.8407 0.22527 0.92395 0.0
H1425 H 0.86935 0.20934 0.94246 0.0
H1426 H 0.94232 0.15611 0.92157 0.0
H1427 H 0.9135 0.17138 0.90331 0.0
C1428 C 0.96803 0.14 0.95319 0.0
C1429 C 0.94699 0.11719 0.95883 0.0
C1430 C 0.95488 0.16413 0.94576 0.0
C1431 C 0.92065 0.16554 0.94392 0.0
C1432 C 0.89941 0.14478 0.95044 0.0
C1433 C 0.91261 0.12063 0.95792 0.0
C1434 C 0.86359 0.21126 0.92343 0.0
C1435 C 0.87525 0.19927 0.91247 0.0
C1436 C 0.87977 0.2022 0.93391 0.0
C1437 C 0.90799 0.18199 0.93329 0.0
C1438 C 0.92095 0.17235 0.92218 0.0
C1439 C 0.90446 0.18077 0.9118 0.0
H1440 H 0.91205 0.70572 0.71796 0.0
H1441 H 0.84849 0.62082 0.71258 0.0
H1442 H 0.94987 0.68467 0.70278 0.0
H1443 H 0.88654 0.60009 0.69729 0.0
H1444 H 0.99365 0.59612 0.67146 0.0
H1445 H 0.97776 0.60906 0.69223 0.0
H1446 H 0.89309 0.66377 0.67927 0.0
H1447 H 0.90866 0.65109 0.65875 0.0
C1448 C 0.90715 0.68161 0.71406 0.0
C1449 C 0.87721 0.66494 0.71631 0.0
C1450 C 0.92889 0.66963 0.70542 0.0
C1451 C 0.92092 0.6409 0.69909 0.0
C1452 C 0.89318 0.62209 0.70232 0.0
C1453 C 0.87136 0.63407 0.71094 0.0
C1454 C 0.97241 0.61192 0.67313 0.0
C1455 C 0.95217 0.62263 0.6637 0.0
C1456 C 0.96325 0.6189 0.6849 0.0
C1457 C 0.93415 0.6368 0.68709 0.0
C1458 C 0.91553 0.64967 0.67762 0.0
C1459 C 0.92451 0.64263 0.66596 0.0
H1460 H 0.17578 0.06529 0.46235 0.0
H1461 H 0.1 0.13917 0.46893 0.0
H1462 H 0.19649 0.09864 0.44574 0.0
H1463 H 0.12126 0.17239 0.45263 0.0
H1464 H 0.16032 0.12431 0.40729 0.0
H1465 H 0.1538 0.10358 0.42748 0.0
H1466 H 0.17268 0.2015 0.4416 0.0
H1467 H 0.18 0.22253 0.42121 0.0
C1468 C 0.16462 0.08928 0.46064 0.0
C1469 C 0.13601 0.09933 0.46678 0.0
C1470 C 0.17644 0.10826 0.45119 0.0
C1471 C 0.15993 0.13755 0.44796 0.0
C1472 C 0.13435 0.14991 0.4551 0.0
C1473 C 0.12233 0.13084 0.46447 0.0
C1474 C 0.16258 0.1416 0.41467 0.0
C1475 C 0.1709 0.17491 0.41279 0.0
C1476 C 0.15951 0.1296 0.42619 0.0
C1477 C 0.16409 0.15088 0.43595 0.0
C1478 C 0.16993 0.18472 0.4341 0.0
C1479 C 0.17354 0.19672 0.42252 0.0
H1480 H 0.65452 0.42702 0.16035 0.0
H1481 H 0.55109 0.43141 0.17047 0.0
H1482 H 0.66975 0.41589 0.18073 0.0
H1483 H 0.56687 0.41902 0.19131 0.0
H1484 H 0.69921 0.42384 0.2161 0.0
H1485 H 0.66498 0.45028 0.20084 0.0
H1486 H 0.59992 0.36547 0.20066 0.0
H1487 H 0.63378 0.33917 0.21599 0.0
C1488 C 0.63492 0.42538 0.16695 0.0
C1489 C 0.60158 0.43031 0.16393 0.0
C1490 C 0.64377 0.41952 0.17865 0.0
C1491 C 0.61947 0.41792 0.18755 0.0
C1492 C 0.58589 0.4211 0.18453 0.0
C1493 C 0.57693 0.42768 0.1727 0.0
C1494 C 0.67671 0.41167 0.2132 0.0
C1495 C 0.66924 0.37948 0.21703 0.0
C1496 C 0.65708 0.42679 0.20458 0.0
C1497 C 0.63021 0.40956 0.19963 0.0
C1498 C 0.62032 0.37924 0.20452 0.0
C1499 C 0.63982 0.36419 0.21322 0.0
H1500 H 0.41944 0.85749 0.91084 0.0
H1501 H 0.3269 0.81863 0.92401 0.0
H1502 H 0.43467 0.87405 0.93112 0.0
H1503 H 0.34148 0.83644 0.94432 0.0
H1504 H 0.3715 0.94649 0.96285 0.0
H1505 H 0.35208 0.90514 0.94846 0.0
H1506 H 0.44091 0.84759 0.95413 0.0
H1507 H 0.46027 0.8885 0.96853 0.0
C1508 C 0.40317 0.85127 0.91821 0.0
C1509 C 0.37257 0.8363 0.91616 0.0
C1510 C 0.41173 0.86067 0.92973 0.0
C1511 C 0.38926 0.85594 0.93916 0.0
C1512 C 0.35925 0.83956 0.93715 0.0
C1513 C 0.35111 0.82928 0.92565 0.0
C1514 C 0.38603 0.92422 0.96141 0.0
C1515 C 0.41726 0.92058 0.96672 0.0
C1516 C 0.37491 0.90057 0.95328 0.0
C1517 C 0.39517 0.87344 0.95035 0.0
C1518 C 0.42491 0.86823 0.95646 0.0
C1519 C 0.43583 0.89159 0.96468 0.0
H1520 H 0.83401 0.42149 0.90848 0.0
H1521 H 0.90017 0.33848 0.90262 0.0
H1522 H 0.86951 0.44052 0.92476 0.0
H1523 H 0.93575 0.35818 0.91865 0.0
H1524 H 0.89124 0.39912 0.96333 0.0
H1525 H 0.87242 0.38847 0.94308 0.0
H1526 H 0.96716 0.41943 0.92916 0.0
H1527 H 0.98619 0.43107 0.94959 0.0
C1528 C 0.85688 0.40831 0.91027 0.0
C1529 C 0.86411 0.37834 0.90445 0.0
C1530 C 0.87714 0.41924 0.91949 0.0
C1531 C 0.90489 0.40046 0.9228 0.0
C1532 C 0.91454 0.37301 0.91603 0.0
C1533 C 0.89416 0.36189 0.90686 0.0
C1534 C 0.90836 0.403 0.95599 0.0
C1535 C 0.9399 0.41639 0.95789 0.0
C1536 C 0.89746 0.39732 0.94447 0.0
C1537 C 0.91821 0.40434 0.93477 0.0
C1538 C 0.95084 0.41464 0.93665 0.0
C1539 C 0.9617 0.42081 0.94825 0.0
H1540 H 0.37363 0.08092 0.65352 0.0
H1541 H 0.45719 0.14772 0.65202 0.0
H1542 H 0.34943 0.11453 0.66946 0.0
H1543 H 0.4327 0.18127 0.6678 0.0
H1544 H 0.37513 0.13012 0.70962 0.0
H1545 H 0.38682 0.11259 0.6894 0.0
H1546 H 0.37819 0.21381 0.67711 0.0
H1547 H 0.3655 0.23177 0.69765 0.0
C1548 C 0.38599 0.10355 0.65621 0.0
C1549 C 0.41738 0.1115 0.6517 0.0
C1550 C 0.37214 0.12276 0.66524 0.0
C1551 C 0.38959 0.15004 0.66978 0.0
C1552 C 0.41883 0.16046 0.66427 0.0
C1553 C 0.43276 0.14121 0.65525 0.0
C1554 C 0.37585 0.14879 0.70266 0.0
C1555 C 0.36909 0.18223 0.70507 0.0
C1556 C 0.38206 0.13865 0.69109 0.0
C1557 C 0.38209 0.16185 0.68179 0.0
C1558 C 0.37739 0.19563 0.68423 0.0
C1559 C 0.37059 0.20583 0.69589 0.0
H1560 H 0.71243 0.62517 0.40508 0.0
H1561 H 0.64482 0.70821 0.40721 0.0
H1562 H 0.68075 0.59657 0.42053 0.0
H1563 H 0.61364 0.67996 0.42274 0.0
H1564 H 0.67001 0.60868 0.46135 0.0
H1565 H 0.6853 0.62228 0.44114 0.0
H1566 H 0.58196 0.62962 0.43134 0.0
H1567 H 0.56622 0.61549 0.45196 0.0
C1568 C 0.69005 0.63659 0.40851 0.0
C1569 C 0.6811 0.66879 0.40512 0.0
C1570 C 0.67196 0.62032 0.41727 0.0
C1571 C 0.64518 0.63644 0.42281 0.0
C1572 C 0.63399 0.667 0.41846 0.0
C1573 C 0.65191 0.68316 0.40962 0.0
C1574 C 0.65041 0.61313 0.45492 0.0
C1575 C 0.61693 0.61102 0.4581 0.0
C1576 C 0.65921 0.62034 0.44331 0.0
C1577 C 0.63469 0.62581 0.43468 0.0
C1578 C 0.60111 0.62471 0.43788 0.0
C1579 C 0.59219 0.61706 0.4496 0.0
H1580 H 0.19058 0.80792 0.19759 0.0
H1581 H 0.14095 0.89722 0.20954 0.0
H1582 H 0.17955 0.82347 0.17673 0.0
H1583 H 0.13033 0.9125 0.18885 0.0
H1584 H 0.08727 0.8902 0.15032 0.0
H1585 H 0.10754 0.85285 0.16573 0.0
H1586 H 0.19291 0.91523 0.17087 0.0
H1587 H 0.17306 0.95273 0.15529 0.0
C1588 C 0.17647 0.83022 0.19575 0.0
C1589 C 0.16675 0.85162 0.20502 0.0
C1590 C 0.17057 0.83914 0.18391 0.0
C1591 C 0.15486 0.86926 0.18144 0.0
C1592 C 0.14292 0.8893 0.19073 0.0
C1593 C 0.14874 0.88046 0.20249 0.0
C1594 C 0.11147 0.89486 0.15413 0.0
C1595 C 0.12851 0.92456 0.15176 0.0
C1596 C 0.12296 0.87342 0.16293 0.0
C1597 C 0.15152 0.88152 0.16931 0.0
C1598 C 0.17096 0.90861 0.16584 0.0
C1599 C 0.15953 0.93006 0.15703 0.0
H1600 H 0.62427 0.87522 0.96801 0.0
H1601 H 0.57286 0.94747 0.94635 0.0
H1602 H 0.64451 0.84786 0.95007 0.0
H1603 H 0.59363 0.92025 0.92821 0.0
H1604 H 0.70338 0.90099 0.9109 0.0
H1605 H 0.65828 0.92058 0.92371 0.0
H1606 H 0.62821 0.8193 0.93004 0.0
H1607 H 0.67315 0.79973 0.91728 0.0
C1608 C 0.61633 0.88429 0.95934 0.0
C1609 C 0.59731 0.91311 0.95832 0.0
C1610 C 0.62764 0.86865 0.94913 0.0
C1611 C 0.6203 0.88209 0.93787 0.0
C1612 C 0.59912 0.90952 0.93686 0.0
C1613 C 0.58724 0.92485 0.94714 0.0
C1614 C 0.68656 0.88313 0.91482 0.0
C1615 C 0.692 0.84904 0.9135 0.0
C1616 C 0.66063 0.89423 0.92196 0.0
C1617 C 0.64005 0.87121 0.92772 0.0
C1618 C 0.6439 0.83725 0.9256 0.0
C1619 C 0.66978 0.82619 0.9185 0.0
H1620 H 0.3972 0.40491 0.21364 0.0
H1621 H 0.35685 0.3138 0.19932 0.0
H1622 H 0.40637 0.4252 0.19348 0.0
H1623 H 0.36722 0.33417 0.17895 0.0
H1624 H 0.37129 0.46887 0.15964 0.0
H1625 H 0.35224 0.43326 0.1759 0.0
H1626 H 0.42977 0.36292 0.16796 0.0
H1627 H 0.4497 0.39859 0.15202 0.0
C1628 C 0.39116 0.38886 0.20617 0.0
C1629 C 0.37591 0.35805 0.20793 0.0
C1630 C 0.39602 0.40064 0.1947 0.0
C1631 C 0.38636 0.38145 0.18488 0.0
C1632 C 0.37408 0.34936 0.18654 0.0
C1633 C 0.36869 0.33765 0.19811 0.0
C1634 C 0.38342 0.4452 0.16105 0.0
C1635 C 0.41219 0.43675 0.15469 0.0
C1636 C 0.37243 0.42486 0.17026 0.0
C1637 C 0.38984 0.39574 0.17302 0.0
C1638 C 0.41593 0.38516 0.16577 0.0
C1639 C 0.42717 0.40563 0.15664 0.0
H1640 H 0.90829 0.15049 0.45914 0.0
H1641 H 0.992 0.0947 0.44573 0.0
H1642 H 0.89171 0.16343 0.43878 0.0
H1643 H 0.97511 0.108 0.42509 0.0
H1644 H 0.84458 0.1227 0.40583 0.0
H1645 H 0.8834 0.10048 0.42056 0.0
H1646 H 0.94775 0.18427 0.41507 0.0
H1647 H 0.90918 0.20679 0.40045 0.0
C1648 C 0.9236 0.14182 0.4518 0.0
C1649 C 0.95119 0.12155 0.45383 0.0
C1650 C 0.91406 0.14904 0.44023 0.0
C1651 C 0.93205 0.13611 0.4306 0.0
C1652 C 0.96106 0.11786 0.43254 0.0
C1653 C 0.97079 0.11066 0.44424 0.0
C1654 C 0.8678 0.13545 0.40733 0.0
C1655 C 0.87377 0.16653 0.40215 0.0
C1656 C 0.89007 0.12261 0.41561 0.0
C1657 C 0.91835 0.14078 0.41871 0.0
C1658 C 0.92635 0.16971 0.41251 0.0
C1659 C 0.90416 0.18255 0.40421 0.0
H1660 H 0.17494 0.56872 0.65668 0.0
H1661 H 0.09729 0.64233 0.65367 0.0
H1662 H 0.19991 0.60085 0.67283 0.0
H1663 H 0.12251 0.67432 0.66962 0.0
H1664 H 0.1759 0.62308 0.71256 0.0
H1665 H 0.1649 0.60379 0.69251 0.0
H1666 H 0.17524 0.70369 0.67905 0.0
H1667 H 0.18708 0.72339 0.6994 0.0
C1668 C 0.16408 0.59238 0.65911 0.0
C1669 C 0.13409 0.60286 0.65405 0.0
C1670 C 0.17834 0.61072 0.66828 0.0
C1671 C 0.16272 0.63966 0.67241 0.0
C1672 C 0.13503 0.65221 0.66643 0.0
C1673 C 0.12069 0.63385 0.65729 0.0
C1674 C 0.1757 0.64107 0.70536 0.0
C1675 C 0.18254 0.67466 0.70741 0.0
C1676 C 0.16994 0.62991 0.69389 0.0
C1677 C 0.17048 0.65222 0.68431 0.0
C1678 C 0.17553 0.68615 0.68637 0.0
C1679 C 0.18183 0.69736 0.69794 0.0
H1680 H 0.63564 0.15883 0.65142 0.0
H1681 H 0.58646 0.08887 0.67458 0.0
H1682 H 0.65731 0.18804 0.66874 0.0
H1683 H 0.60882 0.11788 0.69214 0.0
H1684 H 0.71872 0.14178 0.70854 0.0
H1685 H 0.67464 0.11933 0.69589 0.0
H1686 H 0.64002 0.21873 0.68854 0.0
H1687 H 0.68379 0.24114 0.70114 0.0
C1688 C 0.62865 0.1506 0.6603 0.0
C1689 C 0.60969 0.12207 0.66195 0.0
C1690 C 0.64076 0.16726 0.67014 0.0
C1691 C 0.63433 0.15504 0.68164 0.0
C1692 C 0.61355 0.12763 0.68328 0.0
C1693 C 0.60082 0.11129 0.67337 0.0
C1694 C 0.70125 0.1586 0.70437 0.0
C1695 C 0.70496 0.19297 0.7054 0.0
C1696 C 0.67591 0.14588 0.69735 0.0
C1697 C 0.65421 0.16758 0.69143 0.0
C1698 C 0.6566 0.20182 0.69313 0.0
C1699 C 0.68185 0.21449 0.70011 0.0
H1700 H 0.127 0.36018 0.90849 0.0
H1701 H 0.2197 0.32223 0.92197 0.0
H1702 H 0.11093 0.37654 0.92873 0.0
H1703 H 0.20424 0.33978 0.94225 0.0
H1704 H 0.17203 0.4481 0.96142 0.0
H1705 H 0.19233 0.40804 0.94667 0.0
H1706 H 0.10422 0.3492 0.95157 0.0
H1707 H 0.08399 0.38883 0.96633 0.0
C1708 C 0.14316 0.35418 0.91592 0.0
C1709 C 0.174 0.33945 0.91398 0.0
C1710 C 0.13412 0.36346 0.92741 0.0
C1711 C 0.15634 0.35882 0.93692 0.0
C1712 C 0.18669 0.34283 0.93501 0.0
C1713 C 0.19533 0.33271 0.92353 0.0
C1714 C 0.15783 0.42581 0.95972 0.0
C1715 C 0.12661 0.42141 0.96495 0.0
C1716 C 0.16945 0.40292 0.95139 0.0
C1717 C 0.14967 0.37579 0.94817 0.0
C1718 C 0.11984 0.36985 0.95413 0.0
C1719 C 0.10844 0.39245 0.96256 0.0
H1720 H 0.88397 0.90817 0.15888 0.0
H1721 H 0.97881 0.93712 0.17354 0.0
H1722 H 0.86236 0.90087 0.17891 0.0
H1723 H 0.95696 0.92855 0.19382 0.0
H1724 H 0.81988 0.92799 0.21285 0.0
H1725 H 0.85588 0.94897 0.19703 0.0
H1726 H 0.92659 0.8713 0.20436 0.0
H1727 H 0.89061 0.84959 0.21985 0.0
C1728 C 0.90042 0.91227 0.1664 0.0
C1729 C 0.93291 0.92355 0.16476 0.0
C1730 C 0.88788 0.90861 0.17781 0.0
C1731 C 0.90786 0.91545 0.18773 0.0
C1732 C 0.94116 0.92405 0.18617 0.0
C1733 C 0.95366 0.92837 0.17466 0.0
C1734 C 0.84373 0.91629 0.21142 0.0
C1735 C 0.85215 0.8869 0.21742 0.0
C1736 C 0.86429 0.92835 0.20246 0.0
C1737 C 0.89355 0.91135 0.19958 0.0
C1738 C 0.9042 0.88481 0.20662 0.0
C1739 C 0.88353 0.87251 0.2155 0.0
H1740 H 0.49208 0.62819 0.45166 0.0
H1741 H 0.39317 0.61004 0.46475 0.0
H1742 H 0.47019 0.6674 0.43702 0.0
H1743 H 0.37104 0.64895 0.44991 0.0
H1744 H 0.34453 0.72619 0.42167 0.0
H1745 H 0.37303 0.71021 0.44026 0.0
H1746 H 0.43386 0.64144 0.42021 0.0
H1747 H 0.4054 0.65689 0.40195 0.0
C1748 C 0.46573 0.63338 0.45155 0.0
C1749 C 0.44396 0.61606 0.45902 0.0
C1750 C 0.45336 0.65587 0.44332 0.0
C1751 C 0.41914 0.66089 0.44245 0.0
C1752 C 0.39761 0.6457 0.45063 0.0
C1753 C 0.41008 0.62332 0.45896 0.0
C1754 C 0.36467 0.7084 0.42133 0.0
C1755 C 0.37306 0.6925 0.41063 0.0
C1756 C 0.38074 0.69931 0.43185 0.0
C1757 C 0.40568 0.67507 0.43151 0.0
C1758 C 0.41514 0.66072 0.4206 0.0
C1759 C 0.39876 0.66928 0.41023 0.0
H1760 H 0.33089 0.12369 0.21404 0.0
H1761 H 0.39944 0.20548 0.21735 0.0
H1762 H 0.36353 0.10187 0.19741 0.0
H1763 H 0.43206 0.18324 0.20096 0.0
H1764 H 0.37775 0.13695 0.15792 0.0
H1765 H 0.36151 0.14527 0.17856 0.0
H1766 H 0.46242 0.12928 0.18999 0.0
H1767 H 0.47899 0.12004 0.16913 0.0
C1768 C 0.35378 0.13596 0.21163 0.0
C1769 C 0.36235 0.16646 0.21679 0.0
C1770 C 0.37239 0.12349 0.2022 0.0
C1771 C 0.39976 0.14137 0.19798 0.0
C1772 C 0.4111 0.16912 0.20422 0.0
C1773 C 0.3924 0.18173 0.21361 0.0
C1774 C 0.39664 0.13568 0.16478 0.0
C1775 C 0.42951 0.12755 0.16205 0.0
C1776 C 0.38723 0.13982 0.17657 0.0
C1777 C 0.41067 0.1365 0.18571 0.0
C1778 C 0.44404 0.13098 0.18297 0.0
C1779 C 0.45346 0.12625 0.17112 0.0
H1780 H 0.65164 0.55808 0.9554 0.0
H1781 H 0.62849 0.65275 0.97176 0.0
H1782 H 0.6807 0.58628 0.93954 0.0
H1783 H 0.65529 0.68096 0.95518 0.0
H1784 H 0.6552 0.63947 0.90526 0.0
H1785 H 0.64522 0.61511 0.92471 0.0
H1786 H 0.70257 0.69298 0.94138 0.0
H1787 H 0.7122 0.71784 0.92169 0.0
C1788 C 0.65392 0.58479 0.95596 0.0
C1789 C 0.63675 0.60327 0.96464 0.0
C1790 C 0.67019 0.60094 0.94674 0.0
C1791 C 0.66885 0.63562 0.94598 0.0
C1792 C 0.65623 0.65412 0.95555 0.0
C1793 C 0.64064 0.63793 0.96496 0.0
C1794 C 0.66511 0.65169 0.91312 0.0
C1795 C 0.68445 0.68027 0.91214 0.0
C1796 C 0.66 0.63747 0.92419 0.0
C1797 C 0.6743 0.65162 0.93442 0.0
C1798 C 0.69185 0.68149 0.93354 0.0
C1799 C 0.69689 0.69588 0.92238 0.0
H1800 H 0.21451 0.91576 0.71277 0.0
H1801 H 0.14544 0.83423 0.71559 0.0
H1802 H 0.1825 0.93808 0.69609 0.0
H1803 H 0.1133 0.85714 0.69917 0.0
H1804 H 0.16485 0.90744 0.6563 0.0
H1805 H 0.18242 0.89604 0.67659 0.0
H1806 H 0.08303 0.91384 0.68938 0.0
H1807 H 0.06515 0.9263 0.66887 0.0
C1808 C 0.19177 0.90349 0.71018 0.0
C1809 C 0.18269 0.87312 0.71531 0.0
C1810 C 0.1735 0.91628 0.70073 0.0
C1811 C 0.14589 0.89892 0.69646 0.0
C1812 C 0.13441 0.87089 0.7025 0.0
C1813 C 0.15282 0.85791 0.71189 0.0
C1814 C 0.14655 0.90849 0.66338 0.0
C1815 C 0.11374 0.918 0.66114 0.0
C1816 C 0.15674 0.9025 0.67496 0.0
C1817 C 0.13413 0.90531 0.6844 0.0
C1818 C 0.10077 0.91237 0.68213 0.0
C1819 C 0.09059 0.919 0.67048 0.0
H1820 H 0.96886 0.39479 0.46735 0.0
H1821 H 0.87836 0.45093 0.46289 0.0
H1822 H 0.9498 0.35465 0.45261 0.0
H1823 H 0.85926 0.4102 0.44818 0.0
H1824 H 0.8396 0.31553 0.42446 0.0
H1825 H 0.85607 0.33362 0.44454 0.0
H1826 H 0.93596 0.39052 0.42921 0.0
H1827 H 0.9189 0.37347 0.40918 0.0
C1828 C 0.94413 0.39752 0.46372 0.0
C1829 C 0.92488 0.42581 0.46621 0.0
C1830 C 0.93339 0.37459 0.45532 0.0
C1831 C 0.90317 0.37952 0.44953 0.0
C1832 C 0.88241 0.40589 0.45283 0.0
C1833 C 0.89334 0.42914 0.46113 0.0
C1834 C 0.86152 0.33072 0.4255 0.0
C1835 C 0.87835 0.3431 0.4155 0.0
C1836 C 0.87066 0.34112 0.43688 0.0
C1837 C 0.89725 0.36295 0.43821 0.0
C1838 C 0.91568 0.37315 0.42825 0.0
C1839 C 0.90606 0.36346 0.41689 0.0
H1840 H 0.4748 0.93887 0.44863 0.0
H1841 H 0.40994 0.87289 0.46802 0.0
H1842 H 0.45736 0.91344 0.42977 0.0
H1843 H 0.39277 0.84748 0.44937 0.0
H1844 H 0.36812 0.80164 0.41625 0.0
H1845 H 0.4113 0.81655 0.43051 0.0
H1846 H 0.39646 0.92018 0.4221 0.0
H1847 H 0.35361 0.90504 0.4076 0.0
C1848 C 0.45794 0.91801 0.44883 0.0
C1849 C 0.4433 0.90768 0.45953 0.0
C1850 C 0.448 0.90367 0.43813 0.0
C1851 C 0.42403 0.87861 0.43824 0.0
C1852 C 0.41179 0.86639 0.44912 0.0
C1853 C 0.42131 0.88102 0.45974 0.0
C1854 C 0.37477 0.82752 0.4173 0.0
C1855 C 0.35743 0.85251 0.41123 0.0
C1856 C 0.39956 0.8359 0.42528 0.0
C1857 C 0.40687 0.86933 0.42731 0.0
C1858 C 0.39143 0.89417 0.42048 0.0
C1859 C 0.36675 0.88571 0.41238 0.0
H1860 H 0.91059 0.68171 0.21067 0.0
H1861 H 0.82479 0.7281 0.19484 0.0
H1862 H 0.92958 0.66449 0.19086 0.0
H1863 H 0.84317 0.70976 0.17494 0.0
H1864 H 0.87373 0.60081 0.15509 0.0
H1865 H 0.85237 0.63922 0.17025 0.0
H1866 H 0.94302 0.69542 0.16846 0.0
H1867 H 0.96436 0.6575 0.15332 0.0
C1868 C 0.89662 0.68922 0.20285 0.0
C1869 C 0.86687 0.70667 0.204 0.0
C1870 C 0.9073 0.67941 0.19161 0.0
C1871 C 0.88782 0.68633 0.18153 0.0
C1872 C 0.85862 0.70484 0.18266 0.0
C1873 C 0.84836 0.71546 0.19391 0.0
C1874 C 0.88842 0.62216 0.1576 0.0
C1875 C 0.92051 0.62635 0.15307 0.0
C1876 C 0.8762 0.64412 0.16616 0.0
C1877 C 0.8962 0.67008 0.1703 0.0
C1878 C 0.92723 0.67572 0.16517 0.0
C1879 C 0.93927 0.65409 0.15652 0.0
H1880 H 0.21667 0.12158 0.90525 0.0
H1881 H 0.14778 0.2038 0.9047 0.0
H1882 H 0.18474 0.09601 0.92132 0.0
H1883 H 0.11612 0.17826 0.92072 0.0
H1884 H 0.1708 0.11689 0.9617 0.0
H1885 H 0.18722 0.12795 0.94138 0.0
H1886 H 0.08475 0.12698 0.93026 0.0
H1887 H 0.06785 0.11508 0.95097 0.0
C1888 C 0.19401 0.13342 0.90823 0.0
C1889 C 0.18486 0.16471 0.90388 0.0
C1890 C 0.17575 0.11882 0.91734 0.0
C1891 C 0.14838 0.13555 0.92223 0.0
C1892 C 0.13697 0.16486 0.91695 0.0
C1893 C 0.15517 0.17944 0.90781 0.0
C1894 C 0.15162 0.11899 0.95497 0.0
C1895 C 0.11806 0.11498 0.95781 0.0
C1896 C 0.16111 0.12481 0.94331 0.0
C1897 C 0.13722 0.12712 0.93428 0.0
C1898 C 0.10347 0.12451 0.93713 0.0
C1899 C 0.09387 0.11813 0.9489 0.0
H1900 H 0.68016 0.45293 0.6517 0.0
H1901 H 0.59721 0.38547 0.65277 0.0
H1902 H 0.70844 0.41952 0.66676 0.0
H1903 H 0.62522 0.35255 0.66788 0.0
H1904 H 0.68475 0.41236 0.70755 0.0
H1905 H 0.67644 0.42566 0.68682 0.0
H1906 H 0.67662 0.32137 0.6778 0.0
H1907 H 0.68595 0.30762 0.699 0.0
C1908 C 0.66881 0.43009 0.65471 0.0
C1909 C 0.63646 0.42198 0.65129 0.0
C1910 C 0.68497 0.41094 0.66324 0.0
C1911 C 0.66858 0.38396 0.66851 0.0
C1912 C 0.63836 0.37311 0.66383 0.0
C1913 C 0.62229 0.39209 0.65522 0.0
C1914 C 0.68314 0.39209 0.7012 0.0
C1915 C 0.68596 0.35893 0.7048 0.0
C1916 C 0.67902 0.39979 0.68929 0.0
C1917 C 0.67714 0.37449 0.68074 0.0
C1918 C 0.67891 0.34115 0.6843 0.0
C1919 C 0.68373 0.33336 0.69634 0.0
H1920 H 0.09023 0.18823 0.37713 0.0
H1921 H 0.12704 0.28709 0.38136 0.0
H1922 H 0.0332 0.20898 0.37751 0.0
H1923 H 0.06964 0.30824 0.38169 0.0
H1924 H 0.95839 0.34907 0.37998 0.0
H1925 H 1.01518 0.32801 0.37988 0.0
H1926 H 0.9782 0.2283 0.37973 0.0
H1927 H 0.92081 0.24978 0.37986 0.0
C1928 C 0.08688 0.21473 0.37811 0.0
C1929 C 0.11622 0.23487 0.3791 0.0
C1930 C 0.05271 0.22715 0.37836 0.0
C1931 C 0.04341 0.26145 0.37959 0.0
C1932 C 0.07285 0.28177 0.38063 0.0
C1933 C 0.10724 0.26924 0.38044 0.0
C1934 C 0.96151 0.3224 0.37988 0.0
C1935 C 0.932 0.30233 0.37983 0.0
C1936 C 0.99559 0.30979 0.37986 0.0
C1937 C 1.00469 0.27529 0.37974 0.0
C1938 C 0.9751 0.25494 0.37973 0.0
C1939 C 0.94075 0.26768 0.37981 0.0
H1940 H 0.94309 0.70835 0.62978 0.0
H1941 H 0.04145 0.67065 0.62502 0.0
H1942 H 0.96418 0.76526 0.62972 0.0
H1943 H 0.06289 0.72796 0.62492 0.0
H1944 H 0.10365 0.83958 0.62428 0.0
H1945 H 0.08257 0.78272 0.62445 0.0
H1946 H 0.98414 0.82003 0.63002 0.0
H1947 H 1.00565 0.87732 0.62984 0.0
C1948 C 0.96952 0.71147 0.62864 0.0
C1949 C 0.98934 0.6819 0.62731 0.0
C1950 C 0.98216 0.74559 0.62862 0.0
C1951 C 1.01642 0.75465 0.62727 0.0
C1952 C 0.03646 0.72497 0.62598 0.0
C1953 C 1.02373 0.69064 0.62601 0.0
C1954 C 0.07725 0.83648 0.62551 0.0
C1955 C 0.05747 0.86605 0.62692 0.0
C1956 C 0.06462 0.80238 0.62563 0.0
C1957 C 0.03043 0.79334 0.6272 0.0
C1958 C 1.01048 0.82302 0.62869 0.0
C1959 C 1.02322 0.85734 0.62857 0.0
H1960 H 0.46181 0.85075 0.88224 0.0
H1961 H 0.42522 0.75217 0.87704 0.0
H1962 H 0.51886 0.82997 0.8821 0.0
H1963 H 0.48267 0.73104 0.87688 0.0
H1964 H 0.59462 0.69061 0.87647 0.0
H1965 H 0.53764 0.71147 0.87667 0.0
H1966 H 0.57396 0.81028 0.88208 0.0
H1967 H 0.63139 0.78905 0.88185 0.0
C1968 C 0.46519 0.82433 0.881 0.0
C1969 C 0.43584 0.80435 0.87958 0.0
C1970 C 0.49942 0.81187 0.88093 0.0
C1971 C 0.50887 0.77763 0.87945 0.0
C1972 C 0.47941 0.75746 0.87806 0.0
C1973 C 0.44497 0.77002 0.87813 0.0
C1974 C 0.5913 0.71704 0.87771 0.0
C1975 C 0.62068 0.73696 0.87909 0.0
C1976 C 0.5571 0.72955 0.87784 0.0
C1977 C 0.5477 0.76377 0.87937 0.0
C1978 C 0.57719 0.78389 0.88081 0.0
C1979 C 0.61161 0.77127 0.88067 0.0
H1980 H 0.43808 0.20812 0.12472 0.0
H1981 H 0.53604 0.17053 0.13054 0.0
H1982 H 0.45907 0.26496 0.12485 0.0
H1983 H 0.55746 0.22788 0.13069 0.0
H1984 H 0.59791 0.3398 0.13066 0.0
H1985 H 0.57715 0.28277 0.13063 0.0
H1986 H 0.47852 0.31944 0.12501 0.0
H1987 H 0.49965 0.37683 0.12506 0.0
C1988 C 0.46444 0.21126 0.12601 0.0
C1989 C 0.48422 0.18177 0.1275 0.0
C1990 C 0.47702 0.24534 0.1261 0.0
C1991 C 0.51115 0.25441 0.12774 0.0
C1992 C 0.53115 0.22482 0.12931 0.0
C1993 C 0.51846 0.19049 0.12921 0.0
C1994 C 0.57157 0.33648 0.12935 0.0
C1995 C 0.55162 0.36584 0.12778 0.0
C1996 C 0.55913 0.30231 0.12935 0.0
C1997 C 0.525 0.2931 0.12778 0.0
C1998 C 0.50486 0.32259 0.12625 0.0
C1999 C 0.5174 0.35696 0.12626 0.0
H2000 H 0.9526 0.69669 0.23755 0.0
H2001 H 0.91631 0.7956 0.2427 0.0
H2002 H 1.00966 0.71696 0.23772 0.0
H2003 H 0.97379 0.81626 0.24287 0.0
H2004 H 0.08516 0.8557 0.24279 0.0
H2005 H 0.02823 0.8353 0.24263 0.0
H2006 H 0.06443 0.73582 0.23822 0.0
H2007 H 0.12189 0.75667 0.23839 0.0
C2008 C 0.9561 0.72307 0.23879 0.0
C2009 C 0.92696 0.74338 0.2402 0.0
C2010 C 0.99028 0.73521 0.23888 0.0
C2011 C 0.99969 0.76934 0.24035 0.0
C2012 C 0.97043 0.78987 0.24171 0.0
C2013 C 0.93603 0.77763 0.24164 0.0
C2014 C 0.08178 0.82921 0.24183 0.0
C2015 C 0.11102 0.8089 0.24073 0.0
C2016 C 0.04767 0.817 0.24171 0.0
C2017 C 0.03837 0.78278 0.24045 0.0
C2018 C 0.06772 0.76226 0.23928 0.0
C2019 C 0.1021 0.77458 0.23941 0.0
H2020 H 0.44536 0.8352 0.49437 0.0
H2021 H 0.54382 0.87323 0.49083 0.0
H2022 H 0.46672 0.77835 0.49411 0.0
H2023 H 0.56559 0.81592 0.4906 0.0
H2024 H 0.60725 0.70432 0.49202 0.0
H2025 H 0.58586 0.76119 0.49204 0.0
H2026 H 0.48657 0.72355 0.49238 0.0
H2027 H 0.50832 0.66624 0.49231 0.0
C2028 C 0.4719 0.83217 0.49357 0.0
C2029 C 0.49169 0.86181 0.49273 0.0
C2030 C 0.48469 0.79807 0.49338 0.0
C2031 C 0.51909 0.7891 0.49236 0.0
C2032 C 0.53909 0.81886 0.49148 0.0
C2033 C 0.52618 0.85319 0.49163 0.0
C2034 C 0.58061 0.70734 0.4921 0.0
C2035 C 0.56074 0.67766 0.4922 0.0
C2036 C 0.5678 0.74145 0.4921 0.0
C2037 C 0.53328 0.7504 0.49225 0.0
C2038 C 0.51318 0.72063 0.49231 0.0
C2039 C 0.5261 0.68629 0.49227 0.0
H2040 H 0.58839 0.35517 0.73879 0.0
H2041 H 0.6264 0.256 0.74028 0.0
H2042 H 0.53165 0.33403 0.73863 0.0
H2043 H 0.56917 0.23446 0.74014 0.0
H2044 H 0.45775 0.19355 0.74081 0.0
H2045 H 0.51446 0.21475 0.74084 0.0
H2046 H 0.47694 0.31404 0.73775 0.0
H2047 H 0.41974 0.29242 0.73773 0.0
C2048 C 0.58538 0.32852 0.73909 0.0
C2049 C 0.615 0.3085 0.73957 0.0
C2050 C 0.55134 0.31585 0.73899 0.0
C2051 C 0.54238 0.28134 0.73938 0.0
C2052 C 0.5721 0.26109 0.73984 0.0
C2053 C 0.60639 0.27387 0.73992 0.0
C2054 C 0.46074 0.22015 0.74014 0.0
C2055 C 0.43113 0.24007 0.73931 0.0
C2056 C 0.49478 0.23285 0.74015 0.0
C2057 C 0.50374 0.2673 0.73932 0.0
C2058 C 0.47402 0.28746 0.73846 0.0
C2059 C 0.43974 0.27464 0.73845 0.0
H2060 H 0.10859 0.20914 0.99135 0.0
H2061 H 1.00937 0.17185 0.99225 0.0
H2062 H 0.0877 0.26615 0.99129 0.0
H2063 H 0.9881 0.22933 0.99223 0.0
H2064 H 0.94789 0.34109 0.99412 0.0
H2065 H 0.96884 0.28411 0.99394 0.0
H2066 H 0.06781 0.3209 0.98971 0.0
H2067 H 0.04643 0.37834 0.98987 0.0
C2068 C 0.08198 0.21238 0.99154 0.0
C2069 C 0.06183 0.18291 0.99183 0.0
C2070 C 0.06948 0.24656 0.9915 0.0
C2071 C 0.03505 0.25575 0.99178 0.0
C2072 C 1.01468 0.22618 0.99204 0.0
C2073 C 0.02729 0.19177 0.99205 0.0
C2074 C 0.97437 0.33785 0.99318 0.0
C2075 C 0.99433 0.3673 0.99213 0.0
C2076 C 0.98691 0.30369 0.99304 0.0
C2077 C 1.02119 0.29449 0.99185 0.0
C2078 C 0.04137 0.32405 0.99074 0.0
C2079 C 0.0287 0.35844 0.99084 0.0
H2080 H 0.09368 0.68697 0.74249 0.0
H2081 H 0.13024 0.78624 0.73934 0.0
H2082 H 0.03663 0.70751 0.74218 0.0
H2083 H 0.07273 0.80719 0.73906 0.0
H2084 H 0.96108 0.84721 0.74056 0.0
H2085 H 1.01804 0.82656 0.74062 0.0
H2086 H 0.98174 0.72659 0.74031 0.0
H2087 H 0.92423 0.74766 0.74023 0.0
C2088 C 0.09027 0.71352 0.74173 0.0
C2089 C 0.11954 0.73382 0.741 0.0
C2090 C 0.05607 0.72582 0.74154 0.0
C2091 C 0.04667 0.76015 0.74062 0.0
C2092 C 0.07605 0.78067 0.73985 0.0
C2093 C 0.11048 0.76825 0.74 0.0
C2094 C 0.96441 0.82057 0.74055 0.0
C2095 C 0.93507 0.80026 0.74049 0.0
C2096 C 0.99857 0.80821 0.74056 0.0
C2097 C 1.0079 0.77377 0.74052 0.0
C2098 C 0.97847 0.7532 0.74042 0.0
C2099 C 0.94404 0.76569 0.74037 0.0
H2100 H 0.94614 0.20916 0.48728 0.0
H2101 H 0.045 0.17313 0.49232 0.0
H2102 H 0.96617 0.26641 0.48751 0.0
H2103 H 0.06541 0.23084 0.49256 0.0
H2104 H 0.10424 0.34314 0.49297 0.0
H2105 H 0.08419 0.28594 0.49272 0.0
H2106 H 0.98493 0.32159 0.48777 0.0
H2107 H 1.00538 0.37929 0.48804 0.0
C2108 C 0.97248 0.21273 0.4885 0.0
C2109 C 0.99279 0.1835 0.48984 0.0
C2110 C 0.98449 0.24706 0.48862 0.0
C2111 C 1.01853 0.25672 0.4901 0.0
C2112 C 0.03907 0.22738 0.4914 0.0
C2113 C 0.02696 0.19281 0.49128 0.0
C2114 C 0.07785 0.33962 0.49188 0.0
C2115 C 0.05752 0.36888 0.49068 0.0
C2116 C 0.06585 0.3053 0.49171 0.0
C2117 C 0.03179 0.29567 0.49026 0.0
C2118 C 1.01125 0.32503 0.48899 0.0
C2119 C 1.02336 0.3596 0.48918 0.0
H2120 H 0.5865 0.19373 0.24393 0.0
H2121 H 0.62306 0.29323 0.24216 0.0
H2122 H 0.52943 0.21429 0.24371 0.0
H2123 H 0.56553 0.31419 0.24197 0.0
H2124 H 0.45344 0.35394 0.24422 0.0
H2125 H 0.51053 0.3334 0.24412 0.0
H2126 H 0.47454 0.23361 0.24146 0.0
H2127 H 0.41698 0.25452 0.2415 0.0
C2128 C 0.5831 0.22034 0.24353 0.0
C2129 C 0.61243 0.24066 0.24316 0.0
C2130 C 0.54887 0.23265 0.24336 0.0
C2131 C 0.53942 0.26706 0.24286 0.0
C2132 C 0.56884 0.28761 0.24245 0.0
C2133 C 0.60331 0.27518 0.24255 0.0
C2134 C 0.45686 0.32735 0.24364 0.0
C2135 C 0.42756 0.30704 0.24298 0.0
C2136 C 0.4911 0.31506 0.24355 0.0
C2137 C 0.50058 0.28069 0.24283 0.0
C2138 C 0.47119 0.26015 0.24212 0.0
C2139 C 0.43671 0.27256 0.24215 0.0
H2140 H 0.59651 0.84136 0.99268 0.0
H2141 H 0.49728 0.87836 0.99016 0.0
H2142 H 0.57599 0.78426 0.99248 0.0
H2143 H 0.47637 0.82081 0.98999 0.0
H2144 H 0.43651 0.70869 0.99231 0.0
H2145 H 0.45707 0.76577 0.99224 0.0
H2146 H 0.55674 0.72919 0.9901 0.0
H2147 H 0.53579 0.67163 0.99008 0.0
C2148 C 0.56996 0.83807 0.99213 0.0
C2149 C 0.54971 0.86756 0.99156 0.0
C2150 C 0.55768 0.80381 0.99197 0.0
C2151 C 0.52335 0.79445 0.99126 0.0
C2152 C 0.50288 0.82402 0.99064 0.0
C2153 C 0.51529 0.85852 0.99074 0.0
C2154 C 0.46307 0.71197 0.99184 0.0
C2155 C 0.48331 0.68248 0.99129 0.0
C2156 C 0.47538 0.74622 0.99178 0.0
C2157 C 0.50973 0.75556 0.99121 0.0
C2158 C 0.53021 0.72598 0.99063 0.0
C2159 C 0.51778 0.69149 0.99062 0.0
H2160 H 0.08482 0.35417 0.88056 0.0
H2161 H 0.12007 0.2549 0.87543 0.0
H2162 H 0.02752 0.33433 0.88075 0.0
H2163 H 0.06242 0.23471 0.87561 0.0
H2164 H 0.95061 0.19586 0.87594 0.0
H2165 H 1.00763 0.21605 0.8758 0.0
H2166 H 0.97214 0.31546 0.88092 0.0
H2167 H 0.91452 0.29485 0.88104 0.0
C2168 C 0.08106 0.32779 0.8794 0.0
C2169 C 0.11006 0.30727 0.87788 0.0
C2170 C 0.04672 0.3159 0.87953 0.0
C2171 C 0.03687 0.2818 0.87817 0.0
C2172 C 0.066 0.2611 0.8767 0.0
C2173 C 0.10055 0.27308 0.87657 0.0
C2174 C 0.9541 0.2223 0.87701 0.0
C2175 C 0.92488 0.24258 0.87839 0.0
C2176 C 0.98833 0.2344 0.87694 0.0
C2177 C 0.99796 0.26854 0.87829 0.0
C2178 C 0.96867 0.28907 0.87975 0.0
C2179 C 0.93415 0.27686 0.87981 0.0
H2180 H 0.4453 0.33368 0.629 0.0
H2181 H 0.54466 0.37038 0.63066 0.0
H2182 H 0.46582 0.27657 0.62913 0.0
H2183 H 0.5656 0.31277 0.63075 0.0
H2184 H 0.60525 0.20078 0.62894 0.0
H2185 H 0.58474 0.25793 0.62902 0.0
H2186 H 0.48497 0.2218 0.63089 0.0
H2187 H 0.50587 0.16419 0.63082 0.0
C2188 C 0.47187 0.33027 0.62936 0.0
C2189 C 0.49221 0.35957 0.62973 0.0
C2190 C 0.48415 0.29604 0.62946 0.0
C2191 C 0.5185 0.28667 0.62992 0.0
C2192 C 0.53906 0.31609 0.63032 0.0
C2193 C 0.52667 0.35056 0.63027 0.0
C2194 C 0.57869 0.20421 0.62937 0.0
C2195 C 0.55835 0.17491 0.62982 0.0
C2196 C 0.56641 0.23846 0.62943 0.0
C2197 C 0.53207 0.24786 0.62994 0.0
C2198 C 0.5115 0.21846 0.63043 0.0
C2199 C 0.52389 0.18398 0.6304 0.0
H2200 H 0.58717 0.8551 0.37639 0.0
H2201 H 0.6247 0.75582 0.37837 0.0
H2202 H 0.5303 0.83425 0.37666 0.0
H2203 H 0.56736 0.73458 0.37861 0.0
H2204 H 0.45567 0.69399 0.37746 0.0
H2205 H 0.51251 0.71492 0.37739 0.0
H2206 H 0.47539 0.81468 0.37823 0.0
H2207 H 0.41806 0.79337 0.37831 0.0
C2208 C 0.58404 0.82848 0.37684 0.0
C2209 C 0.61358 0.80832 0.37724 0.0
C2210 C 0.54991 0.81599 0.37703 0.0
C2211 C 0.54076 0.78154 0.37763 0.0
C2212 C 0.57041 0.76117 0.37807 0.0
C2213 C 0.60478 0.77377 0.37792 0.0
C2214 C 0.45877 0.72064 0.37763 0.0
C2215 C 0.42919 0.74077 0.37785 0.0
C2216 C 0.49289 0.73318 0.3776 0.0
C2217 C 0.50202 0.76768 0.37777 0.0
C2218 C 0.47235 0.78805 0.37803 0.0
C2219 C 0.43799 0.7754 0.37809 0.0
H2220 H 0.94357 0.84259 0.12799 0.0
H2221 H 0.04229 0.87888 0.13277 0.0
H2222 H 0.96395 0.78542 0.12816 0.0
H2223 H 0.0631 0.82124 0.13294 0.0
H2224 H 0.10283 0.70928 0.13195 0.0
H2225 H 0.08241 0.76643 0.13194 0.0
H2226 H 0.98271 0.73047 0.12931 0.0
H2227 H 1.00355 0.67283 0.12932 0.0
C2228 C 0.96998 0.83908 0.12906 0.0
C2229 C 0.99019 0.8683 0.13026 0.0
C2230 C 0.98217 0.80482 0.12918 0.0
C2231 C 1.01631 0.79531 0.13053 0.0
C2232 C 0.03674 0.82464 0.13179 0.0
C2233 C 1.02442 0.85915 0.13169 0.0
C2234 C 0.0763 0.71275 0.13134 0.0
C2235 C 0.05597 0.68347 0.1306 0.0
C2236 C 0.06408 0.74701 0.13135 0.0
C2237 C 0.02979 0.75647 0.13059 0.0
C2238 C 1.00922 0.7271 0.12988 0.0
C2239 C 1.02156 0.69259 0.12989 0.0
H2240 H 0.30497 0.24932 0.34567 0.0
H2241 H 0.20433 0.23303 0.33517 0.0
H2242 H 0.31782 0.27005 0.32552 0.0
H2243 H 0.21688 0.25354 0.31502 0.0
H2244 H 0.24184 0.29161 0.27571 0.0
H2245 H 0.22927 0.27075 0.29583 0.0
H2246 H 0.32888 0.29229 0.30678 0.0
H2247 H 0.34118 0.31308 0.28661 0.0
C2248 C 0.28506 0.2499 0.3392 0.0
C2249 C 0.253 0.23867 0.34299 0.0
C2250 C 0.29264 0.26227 0.32718 0.0
C2251 C 0.26904 0.26469 0.31754 0.0
C2252 C 0.23702 0.25316 0.32138 0.0
C2253 C 0.22946 0.24092 0.3334 0.0
C2254 C 0.26151 0.2922 0.28227 0.0
C2255 C 0.29308 0.30504 0.27861 0.0
C2256 C 0.25408 0.27977 0.29429 0.0
C2257 C 0.27739 0.27868 0.30404 0.0
C2258 C 0.30901 0.29158 0.30032 0.0
C2259 C 0.3164 0.30404 0.2883 0.0
H2260 H 0.98165 0.09441 0.53555 0.0
H2261 H 1.01172 0.99802 0.5235 0.0
H2262 H 1.0015 0.08123 0.55578 0.0
H2263 H 0.03156 0.98459 0.54364 0.0
H2264 H 0.06476 0.95662 0.58306 0.0
H2265 H 0.04511 0.97027 0.56291 0.0
H2266 H 1.02523 0.07016 0.57431 0.0
H2267 H 0.04513 0.0562 0.59448 0.0
C2268 C 0.99244 0.07014 0.53699 0.0
C2269 C 0.9942 0.04786 0.527 0.0
C2270 C 1.00432 0.06223 0.54903 0.0
C2271 C 1.01919 0.03111 0.55243 0.0
C2272 C 1.0208 1.00889 0.54236 0.0
C2273 C 1.00902 1.01685 0.53034 0.0
C2274 C 0.05633 0.98173 0.58148 0.0
C2275 C 0.0574 1.00466 0.59128 0.0
C2276 C 0.04463 0.98996 0.56947 0.0
C2277 C 0.03248 1.02206 0.5659 0.0
C2278 C 0.0336 0.04501 0.57578 0.0
C2279 C 0.0455 0.03679 0.58779 0.0
H2280 H 0.25095 0.78832 0.84549 0.0
H2281 H 0.34915 0.81376 0.8343 0.0
H2282 H 0.23833 0.76813 0.82528 0.0
H2283 H 0.33678 0.79329 0.81402 0.0
H2284 H 0.31404 0.73965 0.77633 0.0
H2285 H 0.32738 0.76048 0.79649 0.0
H2286 H 0.22371 0.76347 0.80498 0.0
H2287 H 0.21065 0.74391 0.78475 0.0
C2288 C 0.27036 0.78996 0.83885 0.0
C2289 C 0.30157 0.80373 0.84245 0.0
C2290 C 0.26285 0.77801 0.82678 0.0
C2291 C 0.28586 0.77808 0.81695 0.0
C2292 C 0.31724 0.79168 0.82061 0.0
C2293 C 0.32462 0.804 0.83266 0.0
C2294 C 0.29363 0.7446 0.78235 0.0
C2295 C 0.26065 0.73866 0.77805 0.0
C2296 C 0.3015 0.75705 0.79435 0.0
C2297 C 0.2773 0.7645 0.80345 0.0
C2298 C 0.24435 0.75855 0.79907 0.0
C2299 C 0.23652 0.74678 0.78703 0.0
H2300 H 0.48303 0.0948 0.0843 0.0
H2301 H 0.49499 0.99284 0.09419 0.0
H2302 H 0.50246 0.0821 0.06402 0.0
H2303 H 0.51447 0.9798 0.07391 0.0
H2304 H 0.55437 0.95564 1.03483 0.0
H2305 H 0.53497 0.96831 1.05512 0.0
H2306 H 0.51854 0.06967 1.04478 0.0
H2307 H 0.53823 0.05671 1.02452 0.0
C2308 C 0.48983 0.06938 0.08236 0.0
C2309 C 0.4867 0.04545 0.09178 0.0
C2310 C 0.50135 0.06172 0.07028 0.0
C2311 C 0.51112 0.02924 0.06624 0.0
C2312 C 0.50796 1.00531 0.07573 0.0
C2313 C 0.49638 1.013 0.08783 0.0
C2314 C 0.54673 0.98087 1.03668 0.0
C2315 C 0.54874 1.00457 1.02715 0.0
C2316 C 0.53513 0.98849 1.04877 0.0
C2317 C 0.52413 1.02071 1.05268 0.0
C2318 C 0.52617 0.0444 1.04307 0.0
C2319 C 0.53787 0.03676 1.03099 0.0
H2320 H 0.33883 0.74388 0.33358 0.0
H2321 H 0.23551 0.74271 0.34229 0.0
H2322 H 0.32593 0.7645 0.31351 0.0
H2323 H 0.22227 0.76394 0.32224 0.0
H2324 H 0.19813 0.81031 0.2841 0.0
H2325 H 0.21093 0.78925 0.30416 0.0
H2326 H 0.31314 0.77865 0.29411 0.0
H2327 H 0.30005 0.79986 0.27408 0.0
C2328 C 0.31301 0.74775 0.33139 0.0
C2329 C 0.28878 0.74042 0.34038 0.0
C2330 C 0.30527 0.7601 0.31944 0.0
C2331 C 0.27236 0.76698 0.31519 0.0
C2332 C 0.24811 0.75984 0.32428 0.0
C2333 C 0.25589 0.74713 0.33621 0.0
C2334 C 0.22358 0.80368 0.28598 0.0
C2335 C 0.24749 0.8078 0.27661 0.0
C2336 C 0.23126 0.79105 0.29791 0.0
C2337 C 0.26375 0.78113 0.30181 0.0
C2338 C 0.28766 0.78534 0.29238 0.0
C2339 C 0.27994 0.79794 0.28044 0.0
H2340 H 0.55497 0.08625 0.58603 0.0
H2341 H 0.54872 0.98315 0.59501 0.0
H2342 H 0.53529 0.07419 0.56577 0.0
H2343 H 0.52881 0.97074 0.57474 0.0
H2344 H 0.48991 0.94749 0.53554 0.0
H2345 H 0.50968 0.95952 0.55581 0.0
H2346 H 0.51692 0.06287 0.54679 0.0
H2347 H 0.49699 0.0505 0.52653 0.0
C2348 C 0.54937 0.06068 0.58389 0.0
C2349 C 0.55413 0.03624 0.59304 0.0
C2350 C 0.53769 0.05343 0.57182 0.0
C2351 C 0.5293 1.02086 0.56755 0.0
C2352 C 0.53417 0.99637 0.57677 0.0
C2353 C 0.546 1.00366 0.58885 0.0
C2354 C 0.49557 0.97303 0.53769 0.0
C2355 C 0.49103 0.99747 0.52853 0.0
C2356 C 0.50737 0.98027 0.54976 0.0
C2357 C 0.516 1.0128 0.55402 0.0
C2358 C 0.51133 0.03727 0.54478 0.0
C2359 C 0.49947 0.03 0.53271 0.0
H2360 H 0.23669 0.24578 0.77373 0.0
H2361 H 0.33929 0.24277 0.78336 0.0
H2362 H 0.2227 0.26594 0.79392 0.0
H2363 H 0.32553 0.2618 0.80359 0.0
H2364 H 0.29649 0.28752 0.84382 0.0
H2365 H 0.30991 0.26778 0.82362 0.0
H2366 H 0.21295 0.29657 0.81169 0.0
H2367 H 0.19977 0.31647 0.83197 0.0
C2368 C 0.25676 0.24897 0.78003 0.0
C2369 C 0.28972 0.24129 0.77606 0.0
C2370 C 0.24852 0.26103 0.79204 0.0
C2371 C 0.27226 0.26636 0.80146 0.0
C2372 C 0.3052 0.2586 0.79742 0.0
C2373 C 0.31344 0.24711 0.78538 0.0
C2374 C 0.27759 0.29002 0.83702 0.0
C2375 C 0.2465 0.30457 0.84043 0.0
C2376 C 0.28556 0.27834 0.82497 0.0
C2377 C 0.26322 0.2796 0.81496 0.0
C2378 C 0.23198 0.29404 0.81842 0.0
C2379 C 0.22412 0.306 0.83047 0.0
H2380 H 0.06432 0.09294 1.03763 0.0
H2381 H 0.0522 0.99109 1.02764 0.0
H2382 H 0.04345 0.08064 1.05773 0.0
H2383 H 0.03104 0.97848 1.04775 0.0
H2384 H 0.98861 0.9551 0.08661 0.0
H2385 H 1.0096 0.96732 0.0665 0.0
H2386 H 1.0251 0.0688 0.0768 0.0
H2387 H 1.00395 0.05629 0.0969 0.0
C2388 C 0.05733 0.06758 1.03952 0.0
C2389 C 0.06099 0.04358 1.03011 0.0
C2390 C 0.04486 0.06018 1.0515 0.0
C2391 C 0.03439 0.0279 1.05547 0.0
C2392 C 0.03805 1.00387 1.04599 0.0
C2393 C 0.05071 1.01128 1.034 0.0
C2394 C 0.99634 0.98028 0.0848 0.0
C2395 C 0.99361 1.00412 0.09429 0.0
C2396 C 1.00891 0.98763 0.07281 0.0
C2397 C 1.02023 1.0197 0.06893 0.0
C2398 C 1.01739 0.04358 0.07848 0.0
C2399 C 1.00479 0.0362 0.09048 0.0
H2400 H 0.71146 0.74151 0.83437 0.0
H2401 H 0.81499 0.74013 0.8427 0.0
H2402 H 0.72389 0.76093 0.81411 0.0
H2403 H 0.82779 0.75981 0.82239 0.0
H2404 H 0.85069 0.80395 0.78366 0.0
H2405 H 0.83868 0.78407 0.80397 0.0
H2406 H 0.736 0.77388 0.79461 0.0
H2407 H 0.74829 0.79376 0.77437 0.0
C2408 C 0.73722 0.7453 0.83208 0.0
C2409 C 0.76163 0.73853 0.84106 0.0
C2410 C 0.7447 0.75679 0.82 0.0
C2411 C 0.77751 0.76308 0.81555 0.0
C2412 C 0.80199 0.75623 0.82459 0.0
C2413 C 0.79446 0.74448 0.83668 0.0
C2414 C 0.82531 0.79761 0.78574 0.0
C2415 C 0.80099 0.80137 0.7765 0.0
C2416 C 0.8181 0.78571 0.79783 0.0
C2417 C 0.78572 0.77632 0.80201 0.0
C2418 C 0.76144 0.7802 0.79269 0.0
C2419 C 0.76869 0.79202 0.78061 0.0
H2420 H 0.74133 0.30217 0.34591 0.0
H2421 H 0.84464 0.30082 0.33724 0.0
H2422 H 0.72797 0.28293 0.32563 0.0
H2423 H 0.83156 0.28192 0.3169 0.0
H2424 H 0.80531 0.24575 0.27726 0.0
H2425 H 0.81891 0.26499 0.29755 0.0
H2426 H 0.71559 0.26375 0.30667 0.0
H2427 H 0.7023 0.24477 0.28639 0.0
C2428 C 0.76175 0.29802 0.33981 0.0
C2429 C 0.79467 0.30406 0.34415 0.0
C2430 C 0.75385 0.28653 0.3277 0.0
C2431 C 0.77797 0.27983 0.31849 0.0
C2432 C 0.81094 0.28594 0.32289 0.0
C2433 C 0.81881 0.29724 0.33503 0.0
C2434 C 0.78502 0.24944 0.28345 0.0
C2435 C 0.75208 0.24284 0.27924 0.0
C2436 C 0.79305 0.26089 0.29556 0.0
C2437 C 0.76907 0.267 0.30488 0.0
C2438 C 0.73612 0.2603 0.30059 0.0
C2439 C 0.72812 0.24898 0.28848 0.0
H2440 H 0.70201 0.31122 0.78529 0.0
H2441 H 0.80523 0.30654 0.77656 0.0
H2442 H 0.71389 0.2905 0.80543 0.0
H2443 H 0.81746 0.2856 0.79673 0.0
H2444 H 0.83973 0.24224 0.83554 0.0
H2445 H 0.82812 0.26301 0.81534 0.0
H2446 H 0.72537 0.2739 0.82462 0.0
H2447 H 0.73728 0.25304 0.84478 0.0
C2448 C 0.72759 0.30595 0.78748 0.0
C2449 C 0.75212 0.31159 0.77843 0.0
C2450 C 0.73474 0.2936 0.79949 0.0
C2451 C 0.76728 0.28527 0.80379 0.0
C2452 C 0.79185 0.29089 0.79467 0.0
C2453 C 0.78466 0.30343 0.78266 0.0
C2454 C 0.81441 0.24895 0.83347 0.0
C2455 C 0.78997 0.24508 0.84267 0.0
C2456 C 0.80743 0.26135 0.82144 0.0
C2457 C 0.77518 0.27129 0.81727 0.0
C2458 C 0.75075 0.26727 0.82654 0.0
C2459 C 0.75776 0.25486 0.83857 0.0
H2460 H 0.80069 0.79303 0.34482 0.0
H2461 H 0.70335 0.81999 0.33305 0.0
H2462 H 0.81409 0.77285 0.32465 0.0
H2463 H 0.71651 0.80007 0.31285 0.0
H2464 H 0.74457 0.76765 0.2733 0.0
H2465 H 0.7315 0.78759 0.29347 0.0
H2466 H 0.82376 0.74786 0.30622 0.0
H2467 H 0.8366 0.72793 0.28595 0.0
C2468 C 0.78168 0.79501 0.33804 0.0
C2469 C 0.75038 0.80907 0.34144 0.0
C2470 C 0.78957 0.78293 0.32603 0.0
C2471 C 0.76709 0.78379 0.31604 0.0
C2472 C 0.73578 0.79803 0.31951 0.0
C2473 C 0.72785 0.80989 0.33154 0.0
C2474 C 0.76248 0.7628 0.28028 0.0
C2475 C 0.79216 0.74525 0.2771 0.0
C2476 C 0.75473 0.77462 0.29232 0.0
C2477 C 0.77587 0.77038 0.30256 0.0
C2478 C 0.80569 0.75282 0.29933 0.0
C2479 C 0.81337 0.74086 0.28727 0.0
H2480 H 0.52368 0.5484 0.095 0.0
H2481 H 0.56878 0.4596 0.08153 0.0
H2482 H 0.50349 0.56184 0.07487 0.0
H2483 H 0.5486 0.47276 0.06135 0.0
H2484 H 0.50167 0.49505 1.02303 0.0
H2485 H 0.52194 0.48146 1.04316 0.0
H2486 H 0.49215 0.57806 1.05542 0.0
H2487 H 0.47227 0.59147 1.03524 0.0
C2488 C 0.52966 0.53128 0.08786 0.0
C2489 C 0.54875 0.50235 0.09078 0.0
C2490 C 0.51771 0.53926 0.07585 0.0
C2491 C 0.52333 0.51907 0.06542 0.0
C2492 C 0.54245 0.49004 0.06841 0.0
C2493 C 0.55457 0.48218 0.08041 0.0
C2494 C 0.49918 0.51382 1.02989 0.0
C2495 C 0.48454 0.54497 1.02662 0.0
C2496 C 0.51131 0.50583 1.04188 0.0
C2497 C 0.5098 0.52799 1.05197 0.0
C2498 C 0.49479 0.55907 1.04866 0.0
C2499 C 0.483 0.56715 1.03664 0.0
H2500 H 1.01894 0.50182 0.59489 0.0
H2501 H 0.96943 0.58802 0.58132 0.0
H2502 H 0.03938 0.48882 0.57475 0.0
H2503 H 0.98991 0.57528 0.56111 0.0
H2504 H 0.03752 0.55409 0.52268 0.0
H2505 H 1.01686 0.56726 0.54281 0.0
H2506 H 0.05095 0.47238 0.55526 0.0
H2507 H 0.07132 0.45937 0.53508 0.0
C2508 C 1.01198 0.51845 0.58772 0.0
C2509 C 0.99152 0.54648 0.59065 0.0
C2510 C 1.02411 0.51071 0.5757 0.0
C2511 C 1.01737 0.53029 0.56522 0.0
C2512 C 0.99694 0.55848 0.56819 0.0
C2513 C 0.98463 0.56609 0.58023 0.0
C2514 C 0.04095 0.5356 0.52959 0.0
C2515 C 0.05707 0.5051 0.52634 0.0
C2516 C 0.02856 0.54336 0.54158 0.0
C2517 C 0.03114 0.52159 0.55174 0.0
C2518 C 0.04748 0.49109 0.54846 0.0
C2519 C 0.0596 0.48325 0.53643 0.0
H2520 H 0.06653 0.59074 0.08447 0.0
H2521 H 0.04074 0.49269 0.09584 0.0
H2522 H 0.0471 0.57809 0.06421 0.0
H2523 H 1.02114 0.47974 0.07554 0.0
H2524 H 0.98451 0.45498 1.03588 0.0
H2525 H 1.00365 0.46751 1.05623 0.0
H2526 H 0.02762 0.56665 1.04522 0.0
H2527 H 1.00828 0.55387 1.02491 0.0
C2528 C 0.05678 0.56614 0.08287 0.0
C2529 C 0.05619 0.54334 0.09273 0.0
C2530 C 0.04514 0.55854 0.07077 0.0
C2531 C 0.03145 0.52719 0.0671 0.0
C2532 C 0.03089 0.50433 0.07703 0.0
C2533 C 0.0426 0.51197 0.08915 0.0
C2534 C 0.9938 0.47969 1.03758 0.0
C2535 C 0.99404 0.50278 1.0278 0.0
C2536 C 1.00523 0.48724 1.04972 0.0
C2537 C 1.01836 0.51876 1.05349 0.0
C2538 C 1.01843 0.54188 1.04365 0.0
C2539 C 1.00688 0.53433 1.03152 0.0
H2540 H 0.4945 0.44688 0.58687 0.0
H2541 H 0.50027 0.54981 0.59616 0.0
H2542 H 0.51467 0.45945 0.56668 0.0
H2543 H 0.52072 0.56269 0.57601 0.0
H2544 H 0.56148 0.58694 0.53713 0.0
H2545 H 0.54113 0.57434 0.55726 0.0
H2546 H 0.53275 0.47148 0.54761 0.0
H2547 H 0.5534 0.48441 0.52746 0.0
C2548 C 0.50001 0.47251 0.58482 0.0
C2549 C 0.49485 0.49674 0.59404 0.0
C2550 C 0.51201 0.48008 0.57279 0.0
C2551 C 0.52048 0.51276 0.56863 0.0
C2552 C 0.51531 0.537 0.57793 0.0
C2553 C 0.50312 0.52941 0.58995 0.0
C2554 C 0.55551 0.56136 0.5391 0.0
C2555 C 0.56011 0.53726 0.5298 0.0
C2556 C 0.54332 0.55379 0.5511 0.0
C2557 C 0.53419 0.5212 0.55516 0.0
C2558 C 0.53877 0.49708 0.54577 0.0
C2559 C 0.55109 0.50468 0.53376 0.0
H2560 H 0.26145 0.10059 0.41245 0.0
H2561 H 0.33778 0.17384 0.41242 0.0
H2562 H 0.29204 0.06889 0.42785 0.0
H2563 H 0.36788 0.14278 0.42794 0.0
H2564 H 0.42387 0.08597 0.46114 0.0
H2565 H 0.39309 0.1163 0.44561 0.0
H2566 H 0.32866 0.03313 0.4412 0.0
H2567 H 0.36012 1.00244 0.45663 0.0
C2568 C 0.28466 0.11093 0.41551 0.0
C2569 C 0.29503 0.14202 0.41007 0.0
C2570 C 0.30323 0.09175 0.42483 0.0
C2571 C 0.33473 0.10095 0.43029 0.0
C2572 C 0.34477 0.1322 0.4249 0.0
C2573 C 0.32653 0.15103 0.41548 0.0
C2574 C 0.40327 0.07311 0.45706 0.0
C2575 C 0.39678 0.03958 0.46125 0.0
C2576 C 0.3846 0.0915 0.44763 0.0
C2577 C 0.35603 0.0795 0.441 0.0
C2578 C 0.34933 0.04594 0.44524 0.0
C2579 C 0.36838 0.0273 0.45458 0.0
H2580 H 0.21949 0.18566 0.70221 0.0
H2581 H 0.27606 0.09955 0.71126 0.0
H2582 H 0.18921 0.15386 0.68704 0.0
H2583 H 0.24574 0.06742 0.69589 0.0
H2584 H 0.18385 1.00517 0.66436 0.0
H2585 H 0.21501 0.03577 0.67988 0.0
H2586 H 0.15858 0.12312 0.6722 0.0
H2587 H 0.12781 0.09269 0.65674 0.0
C2588 C 0.22618 0.15978 0.70126 0.0
C2589 C 0.2521 0.14743 0.70911 0.0
C2590 C 0.20786 0.14051 0.69204 0.0
C2591 C 0.21273 0.10573 0.6891 0.0
C2592 C 0.23884 0.0932 0.69693 0.0
C2593 C 0.25715 0.11257 0.70626 0.0
C2594 C 0.17736 0.03096 0.6657 0.0
C2595 C 0.15118 0.04439 0.65818 0.0
C2596 C 0.19618 0.0495 0.6751 0.0
C2597 C 0.1916 0.08421 0.67843 0.0
C2598 C 0.16534 0.09741 0.6709 0.0
C2599 C 0.14668 0.07897 0.66152 0.0
H2600 H 0.12155 1.00609 0.94787 0.0
H2601 H 0.19968 0.99344 0.9732 0.0
H2602 H 0.15359 0.97521 0.9328 0.0
H2603 H 0.2318 0.96209 0.9581 0.0
H2604 H 0.29313 0.89388 0.92906 0.0
H2605 H 0.26106 0.92603 0.94361 0.0
H2606 H 0.18908 0.94745 0.91667 0.0
H2607 H 0.22188 0.91506 0.90189 0.0
C2608 C 0.14559 0.99703 0.95065 0.0
C2609 C 0.15547 1.00457 0.96291 0.0
C2610 C 0.16506 0.97829 0.94146 0.0
C2611 C 0.19775 0.96365 0.94303 0.0
C2612 C 0.20777 0.97112 0.95533 0.0
C2613 C 0.1883 0.99017 0.96453 0.0
C2614 C 0.27066 0.90534 0.92576 0.0
C2615 C 0.26299 0.89978 0.91318 0.0
C2616 C 0.25111 0.9248 0.93465 0.0
C2617 C 0.21998 0.94184 0.93253 0.0
C2618 C 0.21184 0.93639 0.91987 0.0
C2619 C 0.23179 0.9169 0.91085 0.0
H2620 H 0.2528 0.93923 0.20549 0.0
H2621 H 0.33519 0.87332 0.20918 0.0
H2622 H 0.28342 0.97075 0.19008 0.0
H2623 H 0.36542 0.90414 0.19365 0.0
H2624 H 0.42194 0.95939 0.16031 0.0
H2625 H 0.39115 0.92923 0.17586 0.0
H2626 H 0.31935 1.00734 0.177 0.0
H2627 H 0.35081 0.03796 0.16158 0.0
C2628 C 0.27739 0.9305 0.20325 0.0
C2629 C 0.28942 0.90152 0.20967 0.0
C2630 C 0.29596 0.94957 0.19394 0.0
C2631 C 0.32914 0.94224 0.18948 0.0
C2632 C 0.3409 0.91309 0.19587 0.0
C2633 C 0.3226 0.89441 0.20528 0.0
C2634 C 0.39966 0.97111 0.16366 0.0
C2635 C 0.39106 1.0032 0.15859 0.0
C2636 C 0.38101 0.95285 0.17309 0.0
C2637 C 0.35043 0.96354 0.1788 0.0
C2638 C 0.34167 0.99566 0.17369 0.0
C2639 C 0.3607 1.01423 0.16437 0.0
H2640 H 0.7051 0.87885 0.71433 0.0
H2641 H 0.79583 0.91847 0.70086 0.0
H2642 H 0.67397 0.90987 0.69909 0.0
H2643 H 0.76461 0.94973 0.68552 0.0
H2644 H 0.69957 1.00979 0.65426 0.0
H2645 H 0.73233 0.97897 0.66934 0.0
H2646 H 0.64275 0.94258 0.68495 0.0
H2647 H 0.61038 0.97341 0.67007 0.0
C2648 C 0.71941 0.89404 0.70827 0.0
C2649 C 0.75511 0.89403 0.70993 0.0
C2650 C 0.70057 0.91285 0.69903 0.0
C2651 C 0.71445 0.93462 0.68996 0.0
C2652 C 0.75027 0.9346 0.69159 0.0
C2653 C 0.76917 0.91573 0.70087 0.0
C2654 C 0.68593 0.99531 0.66074 0.0
C2655 C 0.65 0.99598 0.65986 0.0
C2656 C 0.70569 0.97673 0.66989 0.0
C2657 C 0.69251 0.95597 0.67947 0.0
C2658 C 0.65667 0.95675 0.67847 0.0
C2659 C 0.63704 0.9754 0.66944 0.0
H2660 H 0.85484 0.99814 0.46834 0.0
H2661 H 0.931 1.00777 0.44204 0.0
H2662 H 0.82126 0.96592 0.45375 0.0
H2663 H 0.8985 0.9753 0.42781 0.0
H2664 H 0.84152 0.89966 0.40077 0.0
H2665 H 0.87253 0.93134 0.41586 0.0
H2666 H 0.78333 0.94628 0.4358 0.0
H2667 H 0.75203 0.91514 0.42043 0.0
C2668 C 0.86567 0.99357 0.45965 0.0
C2669 C 0.89838 1.00741 0.45742 0.0
C2670 C 0.84532 0.97428 0.45077 0.0
C2671 C 0.85488 0.96558 0.43851 0.0
C2672 C 0.88754 0.97924 0.43652 0.0
C2673 C 0.90729 0.99885 0.44519 0.0
C2674 C 0.82743 0.90946 0.40821 0.0
C2675 C 0.79205 0.90279 0.40823 0.0
C2676 C 0.84621 0.92867 0.41737 0.0
C2677 C 0.83277 0.94372 0.42817 0.0
C2678 C 0.79734 0.93673 0.4283 0.0
C2679 C 0.77837 0.91796 0.41899 0.0
H2680 H 0.92641 0.09169 0.16293 0.0
H2681 H 0.85657 1.01231 0.16428 0.0
H2682 H 0.89499 0.12179 0.17838 0.0
H2683 H 0.82454 0.04281 0.17964 0.0
H2684 H 0.75762 0.10953 0.20873 0.0
H2685 H 0.78867 0.07818 0.19334 0.0
H2686 H 0.86778 0.14825 0.19564 0.0
H2687 H 0.83711 0.17901 0.21112 0.0
C2688 C 0.90431 0.07973 0.16627 0.0
C2689 C 0.89637 0.0474 0.16124 0.0
C2690 C 0.88524 0.09798 0.17566 0.0
C2691 C 0.85481 0.08707 0.18141 0.0
C2692 C 0.84669 0.05472 0.17633 0.0
C2693 C 0.86608 0.0362 0.16702 0.0
C2694 C 0.78166 0.11908 0.20622 0.0
C2695 C 0.7927 0.14902 0.21231 0.0
C2696 C 0.80051 0.1001 0.1969 0.0
C2697 C 0.8331 0.10835 0.19209 0.0
C2698 C 0.84384 0.13845 0.19814 0.0
C2699 C 0.82524 0.15711 0.20753 0.0
H2700 H 0.6153 0.09221 0.9598 0.0
H2701 H 0.68045 1.0093 0.95575 0.0
H2702 H 0.64629 0.12268 0.94439 0.0
H2703 H 0.71215 0.04016 0.94044 0.0
H2704 H 0.77964 0.10825 0.91205 0.0
H2705 H 0.74898 0.07641 0.92736 0.0
H2706 H 0.67151 0.1489 0.92669 0.0
H2707 H 0.70169 0.18007 0.91125 0.0
C2708 C 0.63624 0.07953 0.95584 0.0
C2709 C 0.64304 0.0461 0.96011 0.0
C2710 C 0.65504 0.09799 0.94649 0.0
C2711 C 0.68406 0.08621 0.94003 0.0
C2712 C 0.6911 0.05278 0.94435 0.0
C2713 C 0.67191 0.03405 0.95361 0.0
C2714 C 0.75605 0.11824 0.91492 0.0
C2715 C 0.74524 0.14897 0.9093 0.0
C2716 C 0.73744 0.09897 0.92418 0.0
C2717 C 0.70546 0.10776 0.9294 0.0
C2718 C 0.69499 0.13866 0.92384 0.0
C2719 C 0.71328 0.15756 0.91447 0.0
H2720 H 0.81621 0.68702 0.91995 0.0
H2721 H 0.78861 0.5965 0.90278 0.0
H2722 H 0.84727 0.65575 0.9351 0.0
H2723 H 0.81945 0.56486 0.91816 0.0
H2724 H 0.87696 0.50321 0.9511 0.0
H2725 H 0.84581 0.53341 0.93546 0.0
H2726 H 0.88334 0.62537 0.94884 0.0
H2727 H 0.91452 0.59522 0.96431 0.0
C2728 C 0.81619 0.66029 0.91905 0.0
C2729 C 0.79789 0.64667 0.90898 0.0
C2730 C 0.83501 0.64131 0.92827 0.0
C2731 C 0.83823 0.60544 0.92902 0.0
C2732 C 0.81972 0.5916 0.91897 0.0
C2733 C 0.8011 0.61073 0.90962 0.0
C2734 C 0.8792 0.52996 0.95102 0.0
C2735 C 0.90038 0.54467 0.96012 0.0
C2736 C 0.8604 0.54828 0.94154 0.0
C2737 C 0.85968 0.58413 0.93974 0.0
C2738 C 0.88086 0.59866 0.94887 0.0
C2739 C 0.89978 0.58039 0.95826 0.0
H2740 H 0.63049 0.51902 0.17658 0.0
H2741 H 0.67154 0.57314 0.14727 0.0
H2742 H 0.66268 0.55204 0.19078 0.0
H2743 H 0.70456 0.60643 0.16165 0.0
H2744 H 0.77362 0.66762 0.19038 0.0
H2745 H 0.74102 0.63498 0.17617 0.0
H2746 H 0.69063 0.5887 0.20537 0.0
H2747 H 0.72347 0.62213 0.21975 0.0
C2748 C 0.64632 0.53791 0.17278 0.0
C2749 C 0.64603 0.54093 0.15981 0.0
C2750 C 0.66579 0.55791 0.18141 0.0
C2751 C 0.68856 0.5843 0.17846 0.0
C2752 C 0.68867 0.58756 0.1654 0.0
C2753 C 0.66875 0.56747 0.15667 0.0
C2754 C 0.75571 0.6507 0.19419 0.0
C2755 C 0.75359 0.64993 0.20717 0.0
C2756 C 0.73597 0.63097 0.18556 0.0
C2757 C 0.71082 0.60684 0.18852 0.0
C2758 C 0.7085 0.60568 0.2016 0.0
C2759 C 0.72832 0.62584 0.21033 0.0
H2760 H 0.70378 0.38527 0.40659 0.0
H2761 H 0.79587 0.41891 0.42092 0.0
H2762 H 0.67367 0.41623 0.42215 0.0
H2763 H 0.76569 0.44984 0.43665 0.0
H2764 H 0.70204 0.50547 0.46964 0.0
H2765 H 0.73385 0.47486 0.4542 0.0
H2766 H 0.64381 0.45312 0.43569 0.0
H2767 H 0.61245 0.48396 0.45088 0.0
C2768 C 0.71863 0.39908 0.41291 0.0
C2769 C 0.75435 0.39749 0.41134 0.0
C2770 C 0.70039 0.41786 0.42235 0.0
C2771 C 0.71497 0.43786 0.43182 0.0
C2772 C 0.75082 0.43616 0.4303 0.0
C2773 C 0.76912 0.4175 0.42077 0.0
C2774 C 0.68805 0.4943 0.46245 0.0
C2775 C 0.65231 0.49901 0.46267 0.0
C2776 C 0.70727 0.47588 0.45306 0.0
C2777 C 0.69367 0.45912 0.44257 0.0
C2778 C 0.65801 0.46389 0.4429 0.0
C2779 C 0.63899 0.48255 0.45214 0.0
H2780 H 0.79916 0.4478 0.72014 0.0
H2781 H 0.79339 0.36598 0.69593 0.0
H2782 H 0.8302 0.47969 0.70496 0.0
H2783 H 0.82401 0.39779 0.68076 0.0
H2784 H 0.88341 0.46544 0.6497 0.0
H2785 H 0.8514 0.43265 0.66454 0.0
H2786 H 0.86566 0.50896 0.6906 0.0
H2787 H 0.89738 0.54103 0.676 0.0
C2788 C 0.80393 0.43558 0.71169 0.0
C2789 C 0.79156 0.40187 0.71039 0.0
C2790 C 0.82278 0.45488 0.70246 0.0
C2791 C 0.83199 0.44371 0.69046 0.0
C2792 C 0.8194 0.41012 0.6892 0.0
C2793 C 0.80084 0.39081 0.69842 0.0
C2794 C 0.87997 0.47629 0.65847 0.0
C2795 C 0.89489 0.50866 0.66056 0.0
C2796 C 0.86075 0.45638 0.66751 0.0
C2797 C 0.85352 0.46579 0.67993 0.0
C2798 C 0.86842 0.49804 0.68182 0.0
C2799 C 0.88759 0.51756 0.67291 0.0
H2800 H 0.29063 0.42219 0.20148 0.0
H2801 H 0.19877 0.38932 0.21622 0.0
H2802 H 0.2602 0.45318 0.18586 0.0
H2803 H 0.16841 0.42037 0.20076 0.0
H2804 H 0.10658 0.48805 0.172 0.0
H2805 H 0.13813 0.45706 0.18708 0.0
H2806 H 0.22791 0.47895 0.16843 0.0
H2807 H 0.19592 0.50974 0.15311 0.0
C2808 C 0.26388 0.42094 0.20176 0.0
C2809 C 0.24935 0.40106 0.21129 0.0
C2810 C 0.24539 0.43968 0.19228 0.0
C2811 C 0.20948 0.44167 0.19087 0.0
C2812 C 0.19513 0.42182 0.20044 0.0
C2813 C 0.21355 0.40295 0.20983 0.0
C2814 C 0.1331 0.48666 0.17068 0.0
C2815 C 0.14619 0.50328 0.16013 0.0
C2816 C 0.15227 0.46789 0.17986 0.0
C2817 C 0.18797 0.46306 0.18015 0.0
C2818 C 0.20135 0.47994 0.16963 0.0
C2819 C 0.18198 0.4985 0.1603 0.0
H2820 H 0.37596 0.54402 0.94823 0.0
H2821 H 0.39513 0.45351 0.96689 0.0
H2822 H 0.34519 0.51279 0.93274 0.0
H2823 H 0.36372 0.42255 0.95171 0.0
H2824 H 0.28636 0.36437 0.92572 0.0
H2825 H 0.31867 0.39679 0.94004 0.0
H2826 H 0.32734 0.4749 0.91439 0.0
H2827 H 0.29539 0.44139 0.89969 0.0
C2828 C 0.374 0.51746 0.94942 0.0
C2829 C 0.39003 0.50344 0.95993 0.0
C2830 C 0.35548 0.49854 0.94004 0.0
C2831 C 0.34961 0.46286 0.93988 0.0
C2832 C 0.36551 0.44908 0.95044 0.0
C2833 C 0.38454 0.46783 0.95965 0.0
C2834 C 0.29517 0.38823 0.92264 0.0
C2835 C 0.28659 0.39739 0.91046 0.0
C2836 C 0.31464 0.40792 0.93137 0.0
C2837 C 0.32799 0.4408 0.92948 0.0
C2838 C 0.3192 0.45064 0.91728 0.0
C2839 C 0.30012 0.43033 0.90834 0.0
H2840 H 0.36666 0.50029 0.66654 0.0
H2841 H 0.42446 0.58681 0.65949 0.0
H2842 H 0.33551 0.53109 0.68205 0.0
H2843 H 0.39375 0.61743 0.67496 0.0
H2844 H 0.3342 0.67957 0.70545 0.0
H2845 H 0.36434 0.64775 0.69019 0.0
H2846 H 0.30383 0.56317 0.69756 0.0
H2847 H 0.27353 0.59536 0.71295 0.0
C2848 C 0.37353 0.5259 0.66802 0.0
C2849 C 0.40014 0.53903 0.66067 0.0
C2850 C 0.35474 0.54454 0.6774 0.0
C2851 C 0.35987 0.57901 0.68087 0.0
C2852 C 0.3866 0.59191 0.67352 0.0
C2853 C 0.4052 0.57338 0.66414 0.0
C2854 C 0.32657 0.65412 0.70413 0.0
C2855 C 0.29956 0.64223 0.71155 0.0
C2856 C 0.3448 0.63485 0.69487 0.0
C2857 C 0.33879 0.60057 0.69153 0.0
C2858 C 0.31161 0.58854 0.69894 0.0
C2859 C 0.29331 0.60792 0.70827 0.0
H2860 H 0.13996 0.5973 0.46425 0.0
H2861 H 0.1702 0.50501 0.44886 0.0
H2862 H 0.17111 0.62749 0.4488 0.0
H2863 H 0.20135 0.53528 0.43327 0.0
H2864 H 0.25866 0.59894 0.40087 0.0
H2865 H 0.22789 0.56719 0.41622 0.0
H2866 H 0.20674 0.65734 0.43494 0.0
H2867 H 0.23765 0.68867 0.4198 0.0
C2868 C 0.15302 0.58242 0.4577 0.0
C2869 C 0.15039 0.5466 0.45893 0.0
C2870 C 0.17192 0.60071 0.44833 0.0
C2871 C 0.19106 0.58611 0.43863 0.0
C2872 C 0.18839 0.55018 0.43982 0.0
C2873 C 0.16958 0.53182 0.44927 0.0
C2874 C 0.24765 0.61296 0.4081 0.0
C2875 C 0.25258 0.64872 0.40797 0.0
C2876 C 0.2291 0.59378 0.41743 0.0
C2877 C 0.21245 0.60742 0.42795 0.0
C2878 C 0.21744 0.6431 0.4277 0.0
C2879 C 0.23616 0.66211 0.41851 0.0
H2880 H 0.33425 0.11593 0.32567 0.0
H2881 H 0.25017 0.1551 0.30632 0.0
H2882 H 0.34891 0.08194 0.30866 0.0
H2883 H 0.26408 0.11983 0.28945 0.0
H2884 H 0.27755 0.04215 0.26378 0.0
H2885 H 0.29839 0.09161 0.27387 0.0
H2886 H 0.30968 0.03491 0.30644 0.0
H2887 H 0.28879 0.98598 0.29643 0.0
C2888 C 0.31996 0.11878 0.31754 0.0
C2889 C 0.29049 0.1374 0.31736 0.0
C2890 C 0.32837 0.09912 0.30782 0.0
C2891 C 0.30713 0.09763 0.29795 0.0
C2892 C 0.28089 0.12045 0.29699 0.0
C2893 C 0.27264 0.14039 0.30669 0.0
C2894 C 0.28522 0.04031 0.27304 0.0
C2895 C 0.28089 1.01077 0.27949 0.0
C2896 C 0.29748 0.06837 0.27872 0.0
C2897 C 0.30555 0.06704 0.29088 0.0
C2898 C 0.30423 0.03655 0.29698 0.0
C2899 C 0.29195 1.00857 0.29131 0.0
H2900 H 0.22418 0.07496 0.58977 0.0
H2901 H 0.19677 1.02249 0.55763 0.0
H2902 H 0.27538 0.09336 0.58024 0.0
H2903 H 0.24739 0.04192 0.54794 0.0
H2904 H 0.33801 0.07858 0.53286 0.0
H2905 H 0.28901 0.09806 0.54346 0.0
H2906 H 0.31549 0.03724 0.57373 0.0
H2907 H 0.36414 1.0169 0.56298 0.0
C2908 C 0.22822 0.06922 0.58042 0.0
C2909 C 0.20686 0.04766 0.57428 0.0
C2910 C 0.25736 0.07971 0.57503 0.0
C2911 C 0.26475 0.06926 0.56342 0.0
C2912 C 0.24156 0.05079 0.55685 0.0
C2913 C 0.2128 0.03962 0.56233 0.0
C2914 C 0.33443 0.07094 0.54206 0.0
C2915 C 0.35454 0.04631 0.54721 0.0
C2916 C 0.30646 0.0821 0.54806 0.0
C2917 C 0.29896 0.06917 0.55931 0.0
C2918 C 0.32139 0.04789 0.5651 0.0
C2919 C 0.34903 0.03617 0.55899 0.0
H2920 H 0.27026 0.14335 0.80877 0.0
H2921 H 0.37531 0.16428 0.80883 0.0
H2922 H 0.27594 0.11599 0.82785 0.0
H2923 H 0.38 0.14085 0.82852 0.0
H2924 H 0.38595 0.02704 0.83528 0.0
H2925 H 0.38129 0.08232 0.82708 0.0
H2926 H 0.29083 0.09818 0.84718 0.0
H2927 H 0.29523 0.04183 0.85501 0.0
C2928 C 0.2942 0.14372 0.81313 0.0
C2929 C 0.32275 0.1535 0.80691 0.0
C2930 C 0.29737 0.12855 0.82422 0.0
C2931 C 0.32899 0.12454 0.82928 0.0
C2932 C 0.35567 0.14225 0.82447 0.0
C2933 C 0.35282 0.15607 0.81316 0.0
C2934 C 0.36551 0.04269 0.83807 0.0
C2935 C 0.34063 0.03042 0.84549 0.0
C2936 C 0.36298 0.0746 0.83357 0.0
C2937 C 0.3357 0.09488 0.83657 0.0
C2938 C 0.31197 0.08312 0.84468 0.0
C2939 C 0.31432 0.05095 0.84905 0.0
H2940 H 0.27173 0.07245 1.05017 0.0
H2941 H 0.30754 0.08048 1.01383 0.0
H2942 H 0.32452 0.04875 1.05618 0.0
H2943 H 0.36121 0.05764 1.02005 0.0
H2944 H 0.43702 0.0771 1.05787 0.0
H2945 H 0.40501 0.082 1.03959 0.0
H2946 H 0.35705 0.98911 1.04727 0.0
H2947 H 0.38716 0.9848 0.06571 0.0
C2948 C 0.29098 0.06929 1.0435 0.0
C2949 C 0.28564 0.07799 1.03156 0.0
C2950 C 0.32094 0.05548 1.04688 0.0
C2951 C 0.3461 0.05038 1.03838 0.0
C2952 C 0.34164 0.0607 1.02658 0.0
C2953 C 0.31131 0.07422 1.02314 0.0
C2954 C 0.42112 0.0567 1.05532 0.0
C2955 C 0.41234 0.03218 0.06368 0.0
C2956 C 0.40314 0.05933 1.04474 0.0
C2957 C 0.37757 0.03677 1.04255 0.0
C2958 C 0.37629 1.00716 1.04906 0.0
C2959 C 0.39364 1.00487 1.05974 0.0
H2960 H 0.89965 0.96681 0.78597 0.0
H2961 H 0.81023 0.95889 0.80708 0.0
H2962 H 0.90735 1.02347 0.79299 0.0
H2963 H 0.81773 1.01599 0.81382 0.0
H2964 H 0.80533 0.12096 0.80611 0.0
H2965 H 0.8162 0.06807 0.79624 0.0
H2966 H 0.90846 0.05893 0.81538 0.0
H2967 H 0.89758 0.11114 0.82542 0.0
C2968 C 0.88258 0.97652 0.79259 0.0
C2969 C 0.85393 0.95884 0.79586 0.0
C2970 C 0.88674 1.00909 0.79637 0.0
C2971 C 0.86233 1.02389 0.80341 0.0
C2972 C 0.83622 1.00489 0.80803 0.0
C2973 C 0.83226 0.97224 0.80438 0.0
C2974 C 0.82885 0.10868 0.80764 0.0
C2975 C 0.84993 0.1193 0.81682 0.0
C2976 C 0.83486 0.07837 0.80213 0.0
C2977 C 0.8625 0.05949 0.80552 0.0
C2978 C 0.88683 0.07324 0.81284 0.0
C2979 C 0.88068 0.10338 0.81844 0.0
H2980 H 0.64254 0.1125 0.55473 0.0
H2981 H 0.67579 1.01516 0.56574 0.0
H2982 H 0.69141 0.11758 0.54207 0.0
H2983 H 0.72403 1.02051 0.55354 0.0
H2984 H 0.80183 0.14151 0.54821 0.0
H2985 H 0.74412 0.12789 0.55248 0.0
H2986 H 0.75823 0.0308 0.53674 0.0
H2987 H 0.81581 0.04392 0.53298 0.0
C2988 C 0.65914 0.09148 0.55391 0.0
C2989 C 0.65648 0.06441 0.56173 0.0
C2990 C 0.68731 0.09458 0.54684 0.0
C2991 C 0.71217 0.07023 0.54742 0.0
C2992 C 0.70555 0.03999 0.55308 0.0
C2993 C 0.67743 0.03686 0.56006 0.0
C2994 C 0.79265 0.11698 0.54606 0.0
C2995 C 0.81321 0.09352 0.5406 0.0
C2996 C 0.75955 0.10949 0.54813 0.0
C2997 C 0.74659 0.07863 0.54456 0.0
C2998 C 0.76756 0.05479 0.53949 0.0
C2999 C 0.80065 0.06209 0.5376 0.0
H3000 H 0.8098 1.00221 0.34558 0.0
H3001 H 0.74331 0.99047 0.31561 0.0
H3002 H 0.81953 0.06006 0.33989 0.0
H3003 H 0.75301 0.04814 0.31 0.0
H3004 H 0.72607 0.14291 0.31224 0.0
H3005 H 0.73609 0.1015 0.32727 0.0
H3006 H 0.83787 0.09349 0.31603 0.0
H3007 H 0.82872 0.13717 0.30136 0.0
C3008 C 0.79836 1.01167 0.33751 0.0
C3009 C 0.7758 0.99223 0.33096 0.0
C3010 C 0.8036 0.04469 0.33442 0.0
C3011 C 0.78621 0.0582 0.32482 0.0
C3012 C 0.76602 0.03798 0.31765 0.0
C3013 C 0.76078 1.00512 0.32072 0.0
C3014 C 0.75134 0.13463 0.31351 0.0
C3015 C 0.77609 0.14117 0.305 0.0
C3016 C 0.75698 0.11067 0.32217 0.0
C3017 C 0.78719 0.09358 0.32224 0.0
C3018 C 0.81417 0.10614 0.31587 0.0
C3019 C 0.80876 0.13091 0.30742 0.0
H3020 H 0.83521 0.99051 0.06143 0.0
H3021 H 0.81688 0.06376 0.08892 0.0
H3022 H 0.77857 0.99764 1.05427 0.0
H3023 H 0.76041 0.07095 0.08168 0.0
H3024 H 0.67497 0.08078 1.04998 0.0
H3025 H 0.72569 0.08592 0.0617 0.0
H3026 H 0.72604 0.98013 0.06751 0.0
H3027 H 0.6768 0.97457 1.0555 0.0
C3028 C 0.8195 1.00904 0.06559 0.0
C3029 C 0.83016 1.0264 0.07571 0.0
C3030 C 0.78712 1.01274 0.06167 0.0
C3031 C 0.7653 0.03396 0.0678 0.0
C3032 C 0.77696 0.05418 0.077 0.0
C3033 C 0.80935 0.05039 0.08098 0.0
C3034 C 0.68498 0.05888 1.05427 0.0
C3035 C 0.67315 0.02714 1.05127 0.0
C3036 C 0.71401 0.06185 0.0609 0.0
C3037 C 0.73013 0.03316 0.06486 0.0
C3038 C 0.71427 1.00239 0.0641 0.0
C3039 C 0.68563 0.99937 1.05738 0.0
H3040 H 0.72444 0.67081 0.80196 0.0
H3041 H 0.8091 0.62057 0.81722 0.0
H3042 H 0.71801 0.62547 0.78776 0.0
H3043 H 0.8028 0.57624 0.80322 0.0
H3044 H 0.67365 0.52051 0.79705 0.0
H3045 H 0.6962 0.57606 0.79964 0.0
H3046 H 0.79003 0.54324 0.78518 0.0
H3047 H 0.76751 0.48769 0.78264 0.0
C3048 C 0.74295 0.65132 0.8018 0.0
C3049 C 0.76532 0.64767 0.81131 0.0
C3050 C 0.73916 0.62531 0.79372 0.0
C3051 C 0.75864 0.59665 0.795 0.0
C3052 C 0.78682 0.5977 0.80227 0.0
C3053 C 0.79045 0.62354 0.81035 0.0
C3054 C 0.69917 0.52519 0.7946 0.0
C3055 C 0.719 0.49985 0.78991 0.0
C3056 C 0.71184 0.55705 0.79574 0.0
C3057 C 0.74451 0.56406 0.79217 0.0
C3058 C 0.76463 0.5385 0.78778 0.0
C3059 C 0.75196 0.50663 0.78663 0.0
H3060 H 0.9152 0.50244 0.06292 0.0
H3061 H 0.85054 0.56978 1.04388 0.0
H3062 H 0.87287 0.49598 0.0783 0.0
H3063 H 0.80906 0.56344 1.05906 0.0
H3064 H 0.77285 0.43635 0.07684 0.0
H3065 H 0.82417 0.46256 0.07043 0.0
H3066 H 0.78376 0.55894 0.07925 0.0
H3067 H 0.7324 0.53268 0.08565 0.0
C3068 C 0.89292 0.51739 0.0624 0.0
C3069 C 0.88548 0.53532 1.05199 0.0
C3070 C 0.86871 0.51358 0.07114 0.0
C3071 C 0.83745 0.52817 0.06951 0.0
C3072 C 0.8329 0.55168 0.06045 0.0
C3073 C 0.85697 0.55541 1.05173 0.0
C3074 C 0.775 0.46311 0.0773 0.0
C3075 C 0.74871 0.48258 0.08145 0.0
C3076 C 0.80447 0.47806 0.07393 0.0
C3077 C 0.80807 0.51268 0.07473 0.0
C3078 C 0.7816 0.53219 0.07874 0.0
C3079 C 0.7521 0.51723 0.08211 0.0
H3080 H 0.85409 0.39058 0.31346 0.0
H3081 H 0.75075 0.41798 0.31696 0.0
H3082 H 0.85767 0.42171 0.2953 0.0
H3083 H 0.75596 0.45302 0.29955 0.0
H3084 H 0.77994 0.53368 0.27415 0.0
H3085 H 0.76992 0.47708 0.28093 0.0
H3086 H 0.86322 0.47911 0.30005 0.0
H3087 H 0.87352 0.53487 0.29277 0.0
C3088 C 0.83159 0.402 0.31022 0.0
C3089 C 0.80276 0.40418 0.31726 0.0
C3090 C 0.8339 0.42028 0.29977 0.0
C3091 C 0.80802 0.44173 0.29663 0.0
C3092 C 0.77689 0.43767 0.30202 0.0
C3093 C 0.77408 0.41802 0.31218 0.0
C3094 C 0.79808 0.52175 0.27986 0.0
C3095 C 0.82711 0.53831 0.28327 0.0
C3096 C 0.79257 0.48939 0.28357 0.0
C3097 C 0.81594 0.47341 0.29082 0.0
C3098 C 0.84517 0.49022 0.29411 0.0
C3099 C 0.85085 0.52235 0.29024 0.0
H3100 H 0.64116 0.56869 0.5659 0.0
H3101 H 0.64767 0.67084 0.55457 0.0
H3102 H 0.6658 0.58324 0.58486 0.0
H3103 H 0.67037 0.68601 0.57388 0.0
H3104 H 0.78076 0.66219 0.58511 0.0
H3105 H 0.7273 0.67078 0.57586 0.0
H3106 H 0.68122 0.60977 0.603 0.0
H3107 H 0.73545 0.60047 0.61202 0.0
C3108 C 0.6461 0.59459 0.56777 0.0
C3109 C 0.64412 0.61838 0.55868 0.0
C3110 C 0.65992 0.60314 0.57871 0.0
C3111 C 0.67135 0.63567 0.58064 0.0
C3112 C 0.6627 0.66059 0.57245 0.0
C3113 C 0.64945 0.65192 0.56141 0.0
C3114 C 0.75898 0.65171 0.58932 0.0
C3115 C 0.76196 0.63011 0.59902 0.0
C3116 C 0.72817 0.65686 0.58413 0.0
C3117 C 0.69994 0.64058 0.58864 0.0
C3118 C 0.70257 0.62223 0.59925 0.0
C3119 C 0.7335 0.61678 0.60436 0.0
H3120 H 0.37601 0.64197 0.30895 0.0
H3121 H 0.27261 0.66865 0.30721 0.0
H3122 H 0.36705 0.59896 0.29426 0.0
H3123 H 0.2634 0.62467 0.29268 0.0
H3124 H 0.26676 0.52481 0.27026 0.0
H3125 H 0.27796 0.58315 0.27447 0.0
H3126 H 0.33053 0.55474 0.30649 0.0
H3127 H 0.31882 0.4965 0.30248 0.0
C3128 C 0.35186 0.64049 0.30476 0.0
C3129 C 0.32435 0.65661 0.30979 0.0
C3130 C 0.34669 0.61545 0.29644 0.0
C3131 C 0.31426 0.60762 0.293 0.0
C3132 C 0.28851 0.62992 0.2955 0.0
C3133 C 0.29387 0.65528 0.30375 0.0
C3134 C 0.27982 0.53111 0.2784 0.0
C3135 C 0.29196 0.50625 0.28611 0.0
C3136 C 0.28672 0.56435 0.28063 0.0
C3137 C 0.30619 0.57295 0.29046 0.0
C3138 C 0.31655 0.54834 0.29855 0.0
C3139 C 0.30944 0.51521 0.2964 0.0
H3140 H 0.34672 0.4806 1.04427 0.0
H3141 H 0.40835 0.55196 0.06258 0.0
H3142 H 0.30365 0.48898 1.05874 0.0
H3143 H 0.36442 0.5605 0.07723 0.0
H3144 H 0.22409 0.52561 0.08388 0.0
H3145 H 0.27558 0.49793 0.07839 0.0
H3146 H 0.31649 0.5921 0.0674 0.0
H3147 H 0.26495 0.61981 0.07287 0.0
C3148 C 0.35219 0.49635 1.05186 0.0
C3149 C 0.38007 0.51721 1.05195 0.0
C3150 C 0.32715 0.50127 0.06017 0.0
C3151 C 0.33033 0.52657 0.06867 0.0
C3152 C 0.36127 0.54159 0.07044 0.0
C3153 C 0.38644 0.53654 0.06213 0.0
C3154 C 0.24382 0.54025 0.07999 0.0
C3155 C 0.24055 0.57479 0.07856 0.0
C3156 C 0.27343 0.5245 0.07716 0.0
C3157 C 0.30019 0.54309 0.07292 0.0
C3158 C 0.29655 0.57743 0.07113 0.0
C3159 C 0.26694 0.59317 0.07394 0.0
H3160 H 0.28878 0.64687 0.8107 0.0
H3161 H 0.18487 0.67326 0.81197 0.0
H3162 H 0.28319 0.61941 0.82974 0.0
H3163 H 0.18089 0.6504 0.83167 0.0
H3164 H 0.16736 0.53607 0.83514 0.0
H3165 H 0.17538 0.59265 0.82871 0.0
H3166 H 0.26795 0.59681 0.84826 0.0
H3167 H 0.26002 0.53917 0.85431 0.0
C3168 C 0.26515 0.64831 0.81526 0.0
C3169 C 0.23646 0.6588 0.80924 0.0
C3170 C 0.26213 0.63319 0.82638 0.0
C3171 C 0.23067 0.63041 0.83167 0.0
C3172 C 0.20488 0.65037 0.82733 0.0
C3173 C 0.20737 0.66379 0.81594 0.0
C3174 C 0.18907 0.54939 0.83818 0.0
C3175 C 0.21341 0.5335 0.84491 0.0
C3176 C 0.19354 0.58207 0.83472 0.0
C3177 C 0.22233 0.59957 0.83808 0.0
C3178 C 0.24567 0.58404 0.8455 0.0
C3179 C 0.24133 0.55109 0.84883 0.0
H3180 H 0.24062 0.48347 0.55065 0.0
H3181 H 0.26617 0.5518 0.52232 0.0
H3182 H 0.297 0.48714 0.5583 0.0
H3183 H 0.32255 0.55592 0.53021 0.0
H3184 H 0.38835 0.5654 0.56967 0.0
H3185 H 0.34844 0.57265 0.55354 0.0
H3186 H 0.35436 0.46815 0.54559 0.0
H3187 H 0.39224 0.46025 0.56194 0.0
C3188 C 0.25815 0.49971 0.54624 0.0
C3189 C 0.24934 0.51724 0.53595 0.0
C3190 C 0.29028 0.50155 0.55049 0.0
C3191 C 0.31386 0.52098 0.54449 0.0
C3192 C 0.30461 0.54044 0.53474 0.0
C3193 C 0.2724 0.53842 0.53041 0.0
C3194 C 0.38246 0.54429 0.56407 0.0
C3195 C 0.39151 0.51199 0.56754 0.0
C3196 C 0.35988 0.54856 0.5548 0.0
C3197 C 0.3478 0.52062 0.54882 0.0
C3198 C 0.36321 0.48981 0.55036 0.0
C3199 C 0.38514 0.48542 0.55974 0.0
loop_
_geom_bond_atom_site_label_1
_geom_bond_atom_site_label_2
_geom_bond_distance
_geom_bond_site_symmetry_2
_ccdc_geom_bond_type
Ho0 C3 2.811 . S
Ho0 O20 2.322 . S
Ho0 O22 2.378 . S
Ho0 O23 2.524 . S
Ho0 O24 2.381 . S
Ho0 O25 2.669 . S
Ho0 O27 2.346 . S
Ho0 O31 2.305 . S
Ho1 C12 2.811 . S
Ho1 O21 2.346 . S
Ho1 O25 2.305 . S
Ho1 O26 2.322 . S
Ho1 O28 2.378 . S
Ho1 O29 2.524 . S
Ho1 O30 2.381 . S
Ho1 O31 2.669 . S
C2 O20 1.259 . S
C2 O21 1.268 . S
C3 Ho0 2.811 . S
C3 C4 1.488 . S
C3 O22 1.215 . S
C3 O23 1.289 . S
C4 C3 1.488 . S
C4 C5 1.348 . S
C4 C9 1.413 . S
C5 C4 1.348 . S
C5 C6 1.442 . S
C5 H32 0.930 . S
C6 C5 1.442 . S
C6 C7 1.381 . S
C6 H33 0.931 . S
C7 C6 1.381 . S
C7 C8 1.321 . S
C8 C7 1.321 . S
C8 C9 1.403 . S
C8 H34 0.934 . S
C9 C4 1.413 . S
C9 C8 1.403 . S
C9 H35 0.930 . S
C10 O24 1.275 . S
C10 O25 1.256 . S
C11 O26 1.259 . S
C11 O27 1.268 . S
C12 Ho1 2.811 . S
C12 C13 1.488 . S
C12 O28 1.215 . S
C12 O29 1.289 . S
C13 C12 1.488 . S
C13 C14 1.348 . S
C13 C18 1.413 . S
C14 C13 1.348 . S
C14 C15 1.442 . S
C14 H36 0.930 . S
C15 C14 1.442 . S
C15 C16 1.381 . S
C15 H37 0.931 . S
C16 C15 1.381 . S
C16 C17 1.321 . S
C17 C16 1.321 . S
C17 C18 1.403 . S
C17 H38 0.934 . S
C18 C13 1.413 . S
C18 C17 1.403 . S
C18 H39 0.930 . S
C19 O30 1.275 . S
C19 O31 1.256 . S
O20 Ho0 2.322 . S
O20 C2 1.259 . S
O21 Ho1 2.346 . S
O21 C2 1.268 . S
O22 Ho0 2.378 . S
O22 C3 1.215 . S
O23 Ho0 2.524 . S
O23 C3 1.289 . S
O24 Ho0 2.381 . S
O24 C10 1.275 . S
O25 Ho0 2.669 . S
O25 Ho1 2.305 . S
O25 C10 1.256 . S
O26 Ho1 2.322 . S
O26 C11 1.259 . S
O27 Ho0 2.346 . S
O27 C11 1.268 . S
O28 Ho1 2.378 . S
O28 C12 1.215 . S
O29 Ho1 2.524 . S
O29 C12 1.289 . S
O30 Ho1 2.381 . S
O30 C19 1.275 . S
O31 Ho0 2.305 . S
O31 Ho1 2.669 . S
O31 C19 1.256 . S
H32 C5 0.930 . S
H33 C6 0.931 . S
H34 C8 0.934 . S
H35 C9 0.930 . S
H36 C14 0.930 . S
H37 C15 0.931 . S
H38 C17 0.934 . S
H39 C18 0.930 . S
Ho40 C43 2.811 1_455 S
Ho40 O60 2.322 . S
Ho40 O62 2.378 1_455 S
Ho40 O63 2.524 1_455 S
Ho40 O64 2.381 1_565 S
Ho40 O65 2.669 . S
Ho40 O67 2.346 . S
Ho40 O71 2.305 . S
Ho41 C52 2.811 . S
Ho41 O61 2.346 . S
Ho41 O65 2.305 . S
Ho41 O66 2.322 . S
Ho41 O68 2.378 . S
Ho41 O69 2.524 . S
Ho41 O70 2.381 . S
Ho41 O71 2.669 . S
C42 O60 1.259 . S
C42 O61 1.268 . S
C43 Ho40 2.811 1_655 S
C43 C44 1.488 . S
C43 O62 1.215 . S
C43 O63 1.289 . S
C44 C43 1.488 . S
C44 C45 1.348 . S
C44 C49 1.413 . S
C45 C44 1.348 . S
C45 C46 1.442 . S
C45 H72 0.930 . S
C46 C45 1.442 . S
C46 C47 1.381 . S
C46 H73 0.931 . S
C47 C46 1.381 . S
C47 C48 1.321 . S
C48 C47 1.321 . S
C48 C49 1.403 . S
C48 H74 0.934 . S
C49 C44 1.413 . S
C49 C48 1.403 . S
C49 H75 0.930 . S
C50 O64 1.279 . S
C50 O65 1.236 1_545 S
C51 O66 1.259 . S
C51 O67 1.268 . S
C52 Ho41 2.811 . S
C52 C53 1.488 . S
C52 O68 1.215 . S
C52 O69 1.289 . S
C53 C52 1.488 . S
C53 C54 1.348 . S
C53 C58 1.413 . S
C54 C53 1.348 . S
C54 C55 1.442 . S
C54 H76 0.930 1_565 S
C55 C54 1.442 . S
C55 C56 1.381 . S
C55 H77 0.931 1_565 S
C56 C55 1.381 . S
C56 C57 1.321 . S
C57 C56 1.321 . S
C57 C58 1.403 . S
C57 H78 0.934 . S
C58 C53 1.413 . S
C58 C57 1.403 . S
C58 H79 0.930 . S
C59 O70 1.275 . S
C59 O71 1.256 . S
O60 Ho40 2.322 . S
O60 C42 1.259 . S
O61 Ho41 2.346 . S
O61 C42 1.268 . S
O62 Ho40 2.378 1_655 S
O62 C43 1.215 . S
O63 Ho40 2.524 1_655 S
O63 C43 1.289 . S
O64 Ho40 2.381 1_545 S
O64 C50 1.279 . S
O65 Ho40 2.669 . S
O65 Ho41 2.305 . S
O65 C50 1.236 1_565 S
O66 Ho41 2.322 . S
O66 C51 1.259 . S
O67 Ho40 2.346 . S
O67 C51 1.268 . S
O68 Ho41 2.378 . S
O68 C52 1.215 . S
O69 Ho41 2.524 . S
O69 C52 1.289 . S
O70 Ho41 2.381 . S
O70 C59 1.275 . S
O71 Ho40 2.305 . S
O71 Ho41 2.669 . S
O71 C59 1.256 . S
H72 C45 0.930 . S
H73 C46 0.931 . S
H74 C48 0.934 . S
H75 C49 0.930 . S
H76 C54 0.930 1_545 S
H77 C55 0.931 1_545 S
H78 C57 0.934 . S
H79 C58 0.930 . S
Ho80 C83 2.811 . S
Ho80 O100 2.322 . S
Ho80 O102 2.378 . S
Ho80 O103 2.524 . S
Ho80 O104 2.381 . S
Ho80 O105 2.669 . S
Ho80 O107 2.346 . S
Ho80 O111 2.305 . S
Ho81 C92 2.811 . S
Ho81 O101 2.346 . S
Ho81 O105 2.305 . S
Ho81 O106 2.322 . S
Ho81 O108 2.378 . S
Ho81 O109 2.524 . S
Ho81 O110 2.381 . S
Ho81 O111 2.669 . S
C82 O100 1.259 . S
C82 O101 1.268 . S
C83 Ho80 2.811 . S
C83 C84 1.488 . S
C83 O102 1.215 . S
C83 O103 1.289 . S
C84 C83 1.488 . S
C84 C85 1.348 . S
C84 C89 1.413 . S
C85 C84 1.348 . S
C85 C86 1.442 . S
C85 H112 0.930 . S
C86 C85 1.442 . S
C86 C87 1.381 . S
C86 H113 0.931 . S
C87 C86 1.381 . S
C87 C88 1.321 . S
C88 C87 1.321 . S
C88 C89 1.403 . S
C88 H114 0.934 . S
C89 C84 1.413 . S
C89 C88 1.403 . S
C89 H115 0.930 . S
C90 O104 1.275 . S
C90 O105 1.256 . S
C91 O106 1.259 . S
C91 O107 1.268 . S
C92 Ho81 2.811 . S
C92 C93 1.488 . S
C92 O108 1.215 . S
C92 O109 1.289 . S
C93 C92 1.488 . S
C93 C94 1.348 . S
C93 C98 1.413 . S
C94 C93 1.348 . S
C94 C95 1.442 . S
C94 H116 0.930 . S
C95 C94 1.442 . S
C95 C96 1.381 . S
C95 H117 0.931 . S
C96 C95 1.381 . S
C96 C97 1.321 . S
C97 C96 1.321 . S
C97 C98 1.403 . S
C97 H118 0.934 . S
C98 C93 1.413 . S
C98 C97 1.403 . S
C98 H119 0.930 . S
C99 O110 1.275 . S
C99 O111 1.256 . S
O100 Ho80 2.322 . S
O100 C82 1.259 . S
O101 Ho81 2.346 . S
O101 C82 1.268 . S
O102 Ho80 2.378 . S
O102 C83 1.215 . S
O103 Ho80 2.524 . S
O103 C83 1.289 . S
O104 Ho80 2.381 . S
O104 C90 1.275 . S
O105 Ho80 2.669 . S
O105 Ho81 2.305 . S
O105 C90 1.256 . S
O106 Ho81 2.322 . S
O106 C91 1.259 . S
O107 Ho80 2.346 . S
O107 C91 1.268 . S
O108 Ho81 2.378 . S
O108 C92 1.215 . S
O109 Ho81 2.524 . S
O109 C92 1.289 . S
O110 Ho81 2.381 . S
O110 C99 1.275 . S
O111 Ho80 2.305 . S
O111 Ho81 2.669 . S
O111 C99 1.256 . S
H112 C85 0.930 . S
H113 C86 0.931 . S
H114 C88 0.934 . S
H115 C89 0.930 . S
H116 C94 0.930 . S
H117 C95 0.931 . S
H118 C97 0.934 . S
H119 C98 0.930 . S
Ho120 C123 2.811 . S
Ho120 O140 2.322 . S
Ho120 O142 2.378 . S
Ho120 O143 2.524 . S
Ho120 O144 2.381 1_545 S
Ho120 O145 2.669 . S
Ho120 O147 2.346 . S
Ho120 O151 2.305 . S
Ho121 C132 2.811 . S
Ho121 O141 2.346 . S
Ho121 O145 2.305 . S
Ho121 O146 2.322 . S
Ho121 O148 2.378 . S
Ho121 O149 2.524 . S
Ho121 O150 2.381 . S
Ho121 O151 2.669 . S
C122 O140 1.259 . S
C122 O141 1.268 . S
C123 Ho120 2.811 . S
C123 C124 1.488 . S
C123 O142 1.215 . S
C123 O143 1.289 . S
C124 C123 1.488 . S
C124 C125 1.348 . S
C124 C129 1.413 . S
C125 C124 1.348 . S
C125 C126 1.442 . S
C125 H152 0.930 . S
C126 C125 1.442 . S
C126 C127 1.381 . S
C126 H153 0.931 . S
C127 C126 1.381 . S
C127 C128 1.321 . S
C128 C127 1.321 . S
C128 C129 1.403 . S
C128 H154 0.934 . S
C129 C124 1.413 . S
C129 C128 1.403 . S
C129 H155 0.930 . S
C130 O144 1.279 . S
C130 O145 1.236 1_565 S
C131 O146 1.259 . S
C131 O147 1.268 . S
C132 Ho121 2.811 . S
C132 C133 1.488 . S
C132 O148 1.215 . S
C132 O149 1.289 . S
C133 C132 1.488 . S
C133 C134 1.348 . S
C133 C138 1.413 . S
C134 C133 1.348 . S
C134 C135 1.442 . S
C134 H156 0.930 1_545 S
C135 C134 1.442 . S
C135 C136 1.381 . S
C135 H157 0.931 1_545 S
C136 C135 1.381 . S
C136 C137 1.321 . S
C137 C136 1.321 . S
C137 C138 1.403 . S
C137 H158 0.934 . S
C138 C133 1.413 . S
C138 C137 1.403 . S
C138 H159 0.930 . S
C139 O150 1.275 . S
C139 O151 1.256 . S
O140 Ho120 2.322 . S
O140 C122 1.259 . S
O141 Ho121 2.346 . S
O141 C122 1.268 . S
O142 Ho120 2.378 . S
O142 C123 1.215 . S
O143 Ho120 2.524 . S
O143 C123 1.289 . S
O144 Ho120 2.381 1_565 S
O144 C130 1.279 . S
O145 Ho120 2.669 . S
O145 Ho121 2.305 . S
O145 C130 1.236 1_545 S
O146 Ho121 2.322 . S
O146 C131 1.259 . S
O147 Ho120 2.346 . S
O147 C131 1.268 . S
O148 Ho121 2.378 . S
O148 C132 1.215 . S
O149 Ho121 2.524 . S
O149 C132 1.289 . S
O150 Ho121 2.381 . S
O150 C139 1.275 . S
O151 Ho120 2.305 . S
O151 Ho121 2.669 . S
O151 C139 1.256 . S
H152 C125 0.930 . S
H153 C126 0.931 . S
H154 C128 0.934 . S
H155 C129 0.930 . S
H156 C134 0.930 1_565 S
H157 C135 0.931 1_565 S
H158 C137 0.934 . S
H159 C138 0.930 . S
Ho160 C163 2.811 . S
Ho160 O180 2.322 . S
Ho160 O182 2.378 . S
Ho160 O183 2.524 . S
Ho160 O184 2.381 . S
Ho160 O185 2.669 . S
Ho160 O187 2.346 . S
Ho160 O191 2.305 . S
Ho161 C172 2.811 . S
Ho161 O181 2.346 . S
Ho161 O185 2.305 . S
Ho161 O186 2.322 . S
Ho161 O188 2.378 . S
Ho161 O189 2.524 . S
Ho161 O190 2.381 . S
Ho161 O191 2.669 . S
C162 O180 1.259 . S
C162 O181 1.268 . S
C163 Ho160 2.811 . S
C163 C164 1.488 . S
C163 O182 1.215 . S
C163 O183 1.289 . S
C164 C163 1.488 . S
C164 C165 1.348 . S
C164 C169 1.413 . S
C165 C164 1.348 . S
C165 C166 1.442 . S
C165 H192 0.930 . S
C166 C165 1.442 . S
C166 C167 1.381 . S
C166 H193 0.931 . S
C167 C166 1.381 . S
C167 C168 1.321 . S
C168 C167 1.321 . S
C168 C169 1.403 . S
C168 H194 0.934 . S
C169 C164 1.413 . S
C169 C168 1.403 . S
C169 H195 0.930 . S
C170 O184 1.275 . S
C170 O185 1.256 . S
C171 O186 1.259 . S
C171 O187 1.268 . S
C172 Ho161 2.811 . S
C172 C173 1.488 . S
C172 O188 1.215 . S
C172 O189 1.289 . S
C173 C172 1.488 . S
C173 C174 1.348 . S
C173 C178 1.413 . S
C174 C173 1.348 . S
C174 C175 1.442 . S
C174 H196 0.930 . S
C175 C174 1.442 . S
C175 C176 1.381 . S
C175 H197 0.931 . S
C176 C175 1.381 . S
C176 C177 1.321 . S
C177 C176 1.321 . S
C177 C178 1.403 . S
C177 H198 0.934 . S
C178 C173 1.413 . S
C178 C177 1.403 . S
C178 H199 0.930 . S
C179 O190 1.275 . S
C179 O191 1.256 . S
O180 Ho160 2.322 . S
O180 C162 1.259 . S
O181 Ho161 2.346 . S
O181 C162 1.268 . S
O182 Ho160 2.378 . S
O182 C163 1.215 . S
O183 Ho160 2.524 . S
O183 C163 1.289 . S
O184 Ho160 2.381 . S
O184 C170 1.275 . S
O185 Ho160 2.669 . S
O185 Ho161 2.305 . S
O185 C170 1.256 . S
O186 Ho161 2.322 . S
O186 C171 1.259 . S
O187 Ho160 2.346 . S
O187 C171 1.268 . S
O188 Ho161 2.378 . S
O188 C172 1.215 . S
O189 Ho161 2.524 . S
O189 C172 1.289 . S
O190 Ho161 2.381 . S
O190 C179 1.275 . S
O191 Ho160 2.305 . S
O191 Ho161 2.669 . S
O191 C179 1.256 . S
H192 C165 0.930 . S
H193 C166 0.931 . S
H194 C168 0.934 . S
H195 C169 0.930 . S
H196 C174 0.930 . S
H197 C175 0.931 . S
H198 C177 0.934 . S
H199 C178 0.930 . S
Ho200 C203 2.811 . S
Ho200 O220 2.322 . S
Ho200 O222 2.378 . S
Ho200 O223 2.524 . S
Ho200 O224 2.381 1_565 S
Ho200 O225 2.669 . S
Ho200 O227 2.346 . S
Ho200 O231 2.305 . S
Ho201 C212 2.811 . S
Ho201 O221 2.346 . S
Ho201 O225 2.305 . S
Ho201 O226 2.322 . S
Ho201 O228 2.378 . S
Ho201 O229 2.524 . S
Ho201 O230 2.381 . S
Ho201 O231 2.669 . S
C202 O220 1.259 . S
C202 O221 1.268 . S
C203 Ho200 2.811 . S
C203 C204 1.488 . S
C203 O222 1.215 . S
C203 O223 1.289 . S
C204 C203 1.488 . S
C204 C205 1.348 . S
C204 C209 1.413 . S
C205 C204 1.348 . S
C205 C206 1.442 . S
C205 H232 0.930 . S
C206 C205 1.442 . S
C206 C207 1.381 . S
C206 H233 0.931 . S
C207 C206 1.381 . S
C207 C208 1.321 . S
C208 C207 1.321 . S
C208 C209 1.403 . S
C208 H234 0.934 . S
C209 C204 1.413 . S
C209 C208 1.403 . S
C209 H235 0.930 . S
C210 O224 1.279 . S
C210 O225 1.236 1_545 S
C211 O226 1.259 . S
C211 O227 1.268 . S
C212 Ho201 2.811 . S
C212 C213 1.488 . S
C212 O228 1.215 . S
C212 O229 1.289 . S
C213 C212 1.488 . S
C213 C214 1.348 . S
C213 C218 1.413 . S
C214 C213 1.348 . S
C214 C215 1.442 . S
C214 H236 0.930 1_565 S
C215 C214 1.442 . S
C215 C216 1.381 . S
C215 H237 0.931 1_565 S
C216 C215 1.381 . S
C216 C217 1.321 . S
C217 C216 1.321 . S
C217 C218 1.403 . S
C217 H238 0.934 . S
C218 C213 1.413 . S
C218 C217 1.403 . S
C218 H239 0.930 . S
C219 O230 1.275 . S
C219 O231 1.256 . S
O220 Ho200 2.322 . S
O220 C202 1.259 . S
O221 Ho201 2.346 . S
O221 C202 1.268 . S
O222 Ho200 2.378 . S
O222 C203 1.215 . S
O223 Ho200 2.524 . S
O223 C203 1.289 . S
O224 Ho200 2.381 1_545 S
O224 C210 1.279 . S
O225 Ho200 2.669 . S
O225 Ho201 2.305 . S
O225 C210 1.236 1_565 S
O226 Ho201 2.322 . S
O226 C211 1.259 . S
O227 Ho200 2.346 . S
O227 C211 1.268 . S
O228 Ho201 2.378 . S
O228 C212 1.215 . S
O229 Ho201 2.524 . S
O229 C212 1.289 . S
O230 Ho201 2.381 . S
O230 C219 1.275 . S
O231 Ho200 2.305 . S
O231 Ho201 2.669 . S
O231 C219 1.256 . S
H232 C205 0.930 . S
H233 C206 0.931 . S
H234 C208 0.934 . S
H235 C209 0.930 . S
H236 C214 0.930 1_545 S
H237 C215 0.931 1_545 S
H238 C217 0.934 . S
H239 C218 0.930 . S
Ho240 C243 2.811 . S
Ho240 O260 2.322 . S
Ho240 O262 2.378 . S
Ho240 O263 2.524 . S
Ho240 O264 2.381 . S
Ho240 O265 2.669 . S
Ho240 O267 2.346 . S
Ho240 O271 2.305 . S
Ho241 C252 2.811 . S
Ho241 O261 2.346 . S
Ho241 O265 2.305 . S
Ho241 O266 2.322 . S
Ho241 O268 2.378 . S
Ho241 O269 2.524 . S
Ho241 O270 2.381 . S
Ho241 O271 2.669 . S
C242 O260 1.259 . S
C242 O261 1.268 . S
C243 Ho240 2.811 . S
C243 C244 1.488 . S
C243 O262 1.215 . S
C243 O263 1.289 . S
C244 C243 1.488 . S
C244 C245 1.348 . S
C244 C249 1.413 . S
C245 C244 1.348 . S
C245 C246 1.442 . S
C245 H272 0.930 . S
C246 C245 1.442 . S
C246 C247 1.381 . S
C246 H273 0.931 . S
C247 C246 1.381 . S
C247 C248 1.321 . S
C248 C247 1.321 . S
C248 C249 1.403 . S
C248 H274 0.934 . S
C249 C244 1.413 . S
C249 C248 1.403 . S
C249 H275 0.930 . S
C250 O264 1.275 . S
C250 O265 1.256 . S
C251 O266 1.259 . S
C251 O267 1.268 . S
C252 Ho241 2.811 . S
C252 C253 1.488 . S
C252 O268 1.215 . S
C252 O269 1.289 . S
C253 C252 1.488 . S
C253 C254 1.348 . S
C253 C258 1.413 . S
C254 C253 1.348 . S
C254 C255 1.442 . S
C254 H276 0.930 . S
C255 C254 1.442 . S
C255 C256 1.381 . S
C255 H277 0.931 . S
C256 C255 1.381 . S
C256 C257 1.321 . S
C257 C256 1.321 . S
C257 C258 1.403 . S
C257 H278 0.934 . S
C258 C253 1.413 . S
C258 C257 1.403 . S
C258 H279 0.930 . S
C259 O270 1.275 . S
C259 O271 1.256 . S
O260 Ho240 2.322 . S
O260 C242 1.259 . S
O261 Ho241 2.346 . S
O261 C242 1.268 . S
O262 Ho240 2.378 . S
O262 C243 1.215 . S
O263 Ho240 2.524 . S
O263 C243 1.289 . S
O264 Ho240 2.381 . S
O264 C250 1.275 . S
O265 Ho240 2.669 . S
O265 Ho241 2.305 . S
O265 C250 1.256 . S
O266 Ho241 2.322 . S
O266 C251 1.259 . S
O267 Ho240 2.346 . S
O267 C251 1.268 . S
O268 Ho241 2.378 . S
O268 C252 1.215 . S
O269 Ho241 2.524 . S
O269 C252 1.289 . S
O270 Ho241 2.381 . S
O270 C259 1.275 . S
O271 Ho240 2.305 . S
O271 Ho241 2.669 . S
O271 C259 1.256 . S
H272 C245 0.930 . S
H273 C246 0.931 . S
H274 C248 0.934 . S
H275 C249 0.930 . S
H276 C254 0.930 . S
H277 C255 0.931 . S
H278 C257 0.934 . S
H279 C258 0.930 . S
Ho280 C283 2.811 1_455 S
Ho280 O300 2.322 . S
Ho280 O302 2.378 1_455 S
Ho280 O303 2.524 1_455 S
Ho280 O304 2.381 1_545 S
Ho280 O305 2.669 . S
Ho280 O307 2.346 . S
Ho280 O311 2.305 . S
Ho281 C292 2.811 . S
Ho281 O301 2.346 . S
Ho281 O305 2.305 . S
Ho281 O306 2.322 . S
Ho281 O308 2.378 . S
Ho281 O309 2.524 . S
Ho281 O310 2.381 . S
Ho281 O311 2.669 . S
C282 O300 1.259 . S
C282 O301 1.268 . S
C283 Ho280 2.811 1_655 S
C283 C284 1.488 . S
C283 O302 1.215 . S
C283 O303 1.289 . S
C284 C283 1.488 . S
C284 C285 1.348 . S
C284 C289 1.413 . S
C285 C284 1.348 . S
C285 C286 1.442 . S
C285 H312 0.930 . S
C286 C285 1.442 . S
C286 C287 1.381 . S
C286 H313 0.931 . S
C287 C286 1.381 . S
C287 C288 1.321 . S
C288 C287 1.321 . S
C288 C289 1.403 . S
C288 H314 0.934 . S
C289 C284 1.413 . S
C289 C288 1.403 . S
C289 H315 0.930 . S
C290 O304 1.279 . S
C290 O305 1.236 1_565 S
C291 O306 1.259 . S
C291 O307 1.268 . S
C292 Ho281 2.811 . S
C292 C293 1.488 . S
C292 O308 1.215 . S
C292 O309 1.289 . S
C293 C292 1.488 . S
C293 C294 1.348 . S
C293 C298 1.413 . S
C294 C293 1.348 . S
C294 C295 1.442 . S
C294 H316 0.930 1_545 S
C295 C294 1.442 . S
C295 C296 1.381 . S
C295 H317 0.931 1_545 S
C296 C295 1.381 . S
C296 C297 1.321 . S
C297 C296 1.321 . S
C297 C298 1.403 . S
C297 H318 0.934 . S
C298 C293 1.413 . S
C298 C297 1.403 . S
C298 H319 0.930 . S
C299 O310 1.275 . S
C299 O311 1.256 . S
O300 Ho280 2.322 . S
O300 C282 1.259 . S
O301 Ho281 2.346 . S
O301 C282 1.268 . S
O302 Ho280 2.378 1_655 S
O302 C283 1.215 . S
O303 Ho280 2.524 1_655 S
O303 C283 1.289 . S
O304 Ho280 2.381 1_565 S
O304 C290 1.279 . S
O305 Ho280 2.669 . S
O305 Ho281 2.305 . S
O305 C290 1.236 1_545 S
O306 Ho281 2.322 . S
O306 C291 1.259 . S
O307 Ho280 2.346 . S
O307 C291 1.268 . S
O308 Ho281 2.378 . S
O308 C292 1.215 . S
O309 Ho281 2.524 . S
O309 C292 1.289 . S
O310 Ho281 2.381 . S
O310 C299 1.275 . S
O311 Ho280 2.305 . S
O311 Ho281 2.669 . S
O311 C299 1.256 . S
H312 C285 0.930 . S
H313 C286 0.931 . S
H314 C288 0.934 . S
H315 C289 0.930 . S
H316 C294 0.930 1_565 S
H317 C295 0.931 1_565 S
H318 C297 0.934 . S
H319 C298 0.930 . S
Ho320 C323 2.811 . S
Ho320 O340 2.322 . S
Ho320 O342 2.378 . S
Ho320 O343 2.524 . S
Ho320 O344 2.381 . S
Ho320 O345 2.669 . S
Ho320 O347 2.346 . S
Ho320 O351 2.305 . S
Ho321 C332 2.811 . S
Ho321 O341 2.346 . S
Ho321 O345 2.305 . S
Ho321 O346 2.322 . S
Ho321 O348 2.378 . S
Ho321 O349 2.524 . S
Ho321 O350 2.381 . S
Ho321 O351 2.669 . S
C322 O340 1.259 . S
C322 O341 1.268 . S
C323 Ho320 2.811 . S
C323 C324 1.488 . S
C323 O342 1.215 . S
C323 O343 1.289 . S
C324 C323 1.488 . S
C324 C325 1.348 . S
C324 C329 1.413 . S
C325 C324 1.348 . S
C325 C326 1.442 . S
C325 H352 0.930 . S
C326 C325 1.442 . S
C326 C327 1.381 . S
C326 H353 0.931 . S
C327 C326 1.381 . S
C327 C328 1.321 . S
C328 C327 1.321 . S
C328 C329 1.403 . S
C328 H354 0.934 . S
C329 C324 1.413 . S
C329 C328 1.403 . S
C329 H355 0.930 . S
C330 O344 1.275 . S
C330 O345 1.256 . S
C331 O346 1.259 . S
C331 O347 1.268 . S
C332 Ho321 2.811 . S
C332 C333 1.488 . S
C332 O348 1.215 . S
C332 O349 1.289 . S
C333 C332 1.488 . S
C333 C334 1.348 . S
C333 C338 1.413 . S
C334 C333 1.348 . S
C334 C335 1.442 . S
C334 H356 0.930 . S
C335 C334 1.442 . S
C335 C336 1.381 . S
C335 H357 0.931 . S
C336 C335 1.381 . S
C336 C337 1.321 . S
C337 C336 1.321 . S
C337 C338 1.403 . S
C337 H358 0.934 . S
C338 C333 1.413 . S
C338 C337 1.403 . S
C338 H359 0.930 . S
C339 O350 1.275 . S
C339 O351 1.256 . S
O340 Ho320 2.322 . S
O340 C322 1.259 . S
O341 Ho321 2.346 . S
O341 C322 1.268 . S
O342 Ho320 2.378 . S
O342 C323 1.215 . S
O343 Ho320 2.524 . S
O343 C323 1.289 . S
O344 Ho320 2.381 . S
O344 C330 1.275 . S
O345 Ho320 2.669 . S
O345 Ho321 2.305 . S
O345 C330 1.256 . S
O346 Ho321 2.322 . S
O346 C331 1.259 . S
O347 Ho320 2.346 . S
O347 C331 1.268 . S
O348 Ho321 2.378 . S
O348 C332 1.215 . S
O349 Ho321 2.524 . S
O349 C332 1.289 . S
O350 Ho321 2.381 . S
O350 C339 1.275 . S
O351 Ho320 2.305 . S
O351 Ho321 2.669 . S
O351 C339 1.256 . S
H352 C325 0.930 . S
H353 C326 0.931 . S
H354 C328 0.934 . S
H355 C329 0.930 . S
H356 C334 0.930 . S
H357 C335 0.931 . S
H358 C337 0.934 . S
H359 C338 0.930 . S
Ho360 C363 2.811 . S
Ho360 O380 2.322 . S
Ho360 O382 2.378 . S
Ho360 O383 2.524 . S
Ho360 O384 2.381 . S
Ho360 O385 2.669 . S
Ho360 O387 2.346 . S
Ho360 O391 2.305 . S
Ho361 C372 2.811 1_655 S
Ho361 O381 2.346 . S
Ho361 O385 2.305 . S
Ho361 O386 2.322 . S
Ho361 O388 2.378 1_655 S
Ho361 O389 2.524 1_655 S
Ho361 O390 2.381 1_545 S
Ho361 O391 2.669 . S
C362 O380 1.259 . S
C362 O381 1.268 . S
C363 Ho360 2.811 . S
C363 C364 1.488 . S
C363 O382 1.215 . S
C363 O383 1.289 . S
C364 C363 1.488 . S
C364 C365 1.348 . S
C364 C369 1.413 . S
C365 C364 1.348 . S
C365 C366 1.442 . S
C365 H392 0.930 1_545 S
C366 C365 1.442 . S
C366 C367 1.381 . S
C366 H393 0.931 1_545 S
C367 C366 1.381 . S
C367 C368 1.321 . S
C368 C367 1.321 . S
C368 C369 1.403 . S
C368 H394 0.934 . S
C369 C364 1.413 . S
C369 C368 1.403 . S
C369 H395 0.930 . S
C370 O384 1.275 . S
C370 O385 1.256 . S
C371 O386 1.259 . S
C371 O387 1.268 . S
C372 Ho361 2.811 1_455 S
C372 C373 1.488 . S
C372 O388 1.215 . S
C372 O389 1.289 . S
C373 C372 1.488 . S
C373 C374 1.348 . S
C373 C378 1.413 . S
C374 C373 1.348 . S
C374 C375 1.442 . S
C374 H396 0.930 . S
C375 C374 1.442 . S
C375 C376 1.381 . S
C375 H397 0.931 . S
C376 C375 1.381 . S
C376 C377 1.321 . S
C377 C376 1.321 . S
C377 C378 1.403 . S
C377 H398 0.934 . S
C378 C373 1.413 . S
C378 C377 1.403 . S
C378 H399 0.930 . S
C379 O390 1.279 . S
C379 O391 1.236 1_565 S
O380 Ho360 2.322 . S
O380 C362 1.259 . S
O381 Ho361 2.346 . S
O381 C362 1.268 . S
O382 Ho360 2.378 . S
O382 C363 1.215 . S
O383 Ho360 2.524 . S
O383 C363 1.289 . S
O384 Ho360 2.381 . S
O384 C370 1.275 . S
O385 Ho360 2.669 . S
O385 Ho361 2.305 . S
O385 C370 1.256 . S
O386 Ho361 2.322 . S
O386 C371 1.259 . S
O387 Ho360 2.346 . S
O387 C371 1.268 . S
O388 Ho361 2.378 1_455 S
O388 C372 1.215 . S
O389 Ho361 2.524 1_455 S
O389 C372 1.289 . S
O390 Ho361 2.381 1_565 S
O390 C379 1.279 . S
O391 Ho360 2.305 . S
O391 Ho361 2.669 . S
O391 C379 1.236 1_545 S
H392 C365 0.930 1_565 S
H393 C366 0.931 1_565 S
H394 C368 0.934 . S
H395 C369 0.930 . S
H396 C374 0.930 . S
H397 C375 0.931 . S
H398 C377 0.934 . S
H399 C378 0.930 . S
Ho400 C403 2.811 . S
Ho400 O420 2.322 . S
Ho400 O422 2.378 . S
Ho400 O423 2.524 . S
Ho400 O424 2.381 . S
Ho400 O425 2.669 . S
Ho400 O427 2.346 . S
Ho400 O431 2.305 . S
Ho401 C412 2.811 . S
Ho401 O421 2.346 . S
Ho401 O425 2.305 . S
Ho401 O426 2.322 . S
Ho401 O428 2.378 . S
Ho401 O429 2.524 . S
Ho401 O430 2.381 . S
Ho401 O431 2.669 . S
C402 O420 1.259 . S
C402 O421 1.268 . S
C403 Ho400 2.811 . S
C403 C404 1.488 . S
C403 O422 1.215 . S
C403 O423 1.289 . S
C404 C403 1.488 . S
C404 C405 1.348 . S
C404 C409 1.413 . S
C405 C404 1.348 . S
C405 C406 1.442 . S
C405 H432 0.930 . S
C406 C405 1.442 . S
C406 C407 1.381 . S
C406 H433 0.931 . S
C407 C406 1.381 . S
C407 C408 1.321 . S
C408 C407 1.321 . S
C408 C409 1.403 . S
C408 H434 0.934 . S
C409 C404 1.413 . S
C409 C408 1.403 . S
C409 H435 0.930 . S
C410 O424 1.275 . S
C410 O425 1.256 . S
C411 O426 1.259 . S
C411 O427 1.268 . S
C412 Ho401 2.811 . S
C412 C413 1.488 . S
C412 O428 1.215 . S
C412 O429 1.289 . S
C413 C412 1.488 . S
C413 C414 1.348 . S
C413 C418 1.413 . S
C414 C413 1.348 . S
C414 C415 1.442 . S
C414 H436 0.930 . S
C415 C414 1.442 . S
C415 C416 1.381 . S
C415 H437 0.931 . S
C416 C415 1.381 . S
C416 C417 1.321 . S
C417 C416 1.321 . S
C417 C418 1.403 . S
C417 H438 0.934 . S
C418 C413 1.413 . S
C418 C417 1.403 . S
C418 H439 0.930 . S
C419 O430 1.275 . S
C419 O431 1.256 . S
O420 Ho400 2.322 . S
O420 C402 1.259 . S
O421 Ho401 2.346 . S
O421 C402 1.268 . S
O422 Ho400 2.378 . S
O422 C403 1.215 . S
O423 Ho400 2.524 . S
O423 C403 1.289 . S
O424 Ho400 2.381 . S
O424 C410 1.275 . S
O425 Ho400 2.669 . S
O425 Ho401 2.305 . S
O425 C410 1.256 . S
O426 Ho401 2.322 . S
O426 C411 1.259 . S
O427 Ho400 2.346 . S
O427 C411 1.268 . S
O428 Ho401 2.378 . S
O428 C412 1.215 . S
O429 Ho401 2.524 . S
O429 C412 1.289 . S
O430 Ho401 2.381 . S
O430 C419 1.275 . S
O431 Ho400 2.305 . S
O431 Ho401 2.669 . S
O431 C419 1.256 . S
H432 C405 0.930 . S
H433 C406 0.931 . S
H434 C408 0.934 . S
H435 C409 0.930 . S
H436 C414 0.930 . S
H437 C415 0.931 . S
H438 C417 0.934 . S
H439 C418 0.930 . S
Ho440 C443 2.811 . S
Ho440 O460 2.322 . S
Ho440 O462 2.378 . S
Ho440 O463 2.524 . S
Ho440 O464 2.381 . S
Ho440 O465 2.669 . S
Ho440 O467 2.346 . S
Ho440 O471 2.305 . S
Ho441 C452 2.811 . S
Ho441 O461 2.346 . S
Ho441 O465 2.305 . S
Ho441 O466 2.322 . S
Ho441 O468 2.378 . S
Ho441 O469 2.524 . S
Ho441 O470 2.381 1_565 S
Ho441 O471 2.669 . S
C442 O460 1.259 . S
C442 O461 1.268 . S
C443 Ho440 2.811 . S
C443 C444 1.488 . S
C443 O462 1.215 . S
C443 O463 1.289 . S
C444 C443 1.488 . S
C444 C445 1.348 . S
C444 C449 1.413 . S
C445 C444 1.348 . S
C445 C446 1.442 . S
C445 H472 0.930 1_565 S
C446 C445 1.442 . S
C446 C447 1.381 . S
C446 H473 0.931 1_565 S
C447 C446 1.381 . S
C447 C448 1.321 . S
C448 C447 1.321 . S
C448 C449 1.403 . S
C448 H474 0.934 . S
C449 C444 1.413 . S
C449 C448 1.403 . S
C449 H475 0.930 . S
C450 O464 1.275 . S
C450 O465 1.256 . S
C451 O466 1.259 . S
C451 O467 1.268 . S
C452 Ho441 2.811 . S
C452 C453 1.488 . S
C452 O468 1.215 . S
C452 O469 1.289 . S
C453 C452 1.488 . S
C453 C454 1.348 . S
C453 C458 1.413 . S
C454 C453 1.348 . S
C454 C455 1.442 . S
C454 H476 0.930 . S
C455 C454 1.442 . S
C455 C456 1.381 . S
C455 H477 0.931 . S
C456 C455 1.381 . S
C456 C457 1.321 . S
C457 C456 1.321 . S
C457 C458 1.403 . S
C457 H478 0.934 . S
C458 C453 1.413 . S
C458 C457 1.403 . S
C458 H479 0.930 . S
C459 O470 1.279 . S
C459 O471 1.236 1_545 S
O460 Ho440 2.322 . S
O460 C442 1.259 . S
O461 Ho441 2.346 . S
O461 C442 1.268 . S
O462 Ho440 2.378 . S
O462 C443 1.215 . S
O463 Ho440 2.524 . S
O463 C443 1.289 . S
O464 Ho440 2.381 . S
O464 C450 1.275 . S
O465 Ho440 2.669 . S
O465 Ho441 2.305 . S
O465 C450 1.256 . S
O466 Ho441 2.322 . S
O466 C451 1.259 . S
O467 Ho440 2.346 . S
O467 C451 1.268 . S
O468 Ho441 2.378 . S
O468 C452 1.215 . S
O469 Ho441 2.524 . S
O469 C452 1.289 . S
O470 Ho441 2.381 1_545 S
O470 C459 1.279 . S
O471 Ho440 2.305 . S
O471 Ho441 2.669 . S
O471 C459 1.236 1_565 S
H472 C445 0.930 1_545 S
H473 C446 0.931 1_545 S
H474 C448 0.934 . S
H475 C449 0.930 . S
H476 C454 0.930 . S
H477 C455 0.931 . S
H478 C457 0.934 . S
H479 C458 0.930 . S
Ho480 C483 2.811 . S
Ho480 O500 2.322 . S
Ho480 O502 2.378 . S
Ho480 O503 2.524 . S
Ho480 O504 2.381 . S
Ho480 O505 2.669 . S
Ho480 O507 2.346 . S
Ho480 O511 2.305 . S
Ho481 C492 2.811 . S
Ho481 O501 2.346 . S
Ho481 O505 2.305 . S
Ho481 O506 2.322 . S
Ho481 O508 2.378 . S
Ho481 O509 2.524 . S
Ho481 O510 2.381 . S
Ho481 O511 2.669 . S
C482 O500 1.259 . S
C482 O501 1.268 . S
C483 Ho480 2.811 . S
C483 C484 1.488 . S
C483 O502 1.215 . S
C483 O503 1.289 . S
C484 C483 1.488 . S
C484 C485 1.348 . S
C484 C489 1.413 . S
C485 C484 1.348 . S
C485 C486 1.442 . S
C485 H512 0.930 . S
C486 C485 1.442 . S
C486 C487 1.381 . S
C486 H513 0.931 . S
C487 C486 1.381 . S
C487 C488 1.321 . S
C488 C487 1.321 . S
C488 C489 1.403 . S
C488 H514 0.934 . S
C489 C484 1.413 . S
C489 C488 1.403 . S
C489 H515 0.930 . S
C490 O504 1.275 . S
C490 O505 1.256 . S
C491 O506 1.259 . S
C491 O507 1.268 . S
C492 Ho481 2.811 . S
C492 C493 1.488 . S
C492 O508 1.215 . S
C492 O509 1.289 . S
C493 C492 1.488 . S
C493 C494 1.348 . S
C493 C498 1.413 . S
C494 C493 1.348 . S
C494 C495 1.442 . S
C494 H516 0.930 . S
C495 C494 1.442 . S
C495 C496 1.381 . S
C495 H517 0.931 . S
C496 C495 1.381 . S
C496 C497 1.321 . S
C497 C496 1.321 . S
C497 C498 1.403 . S
C497 H518 0.934 . S
C498 C493 1.413 . S
C498 C497 1.403 . S
C498 H519 0.930 . S
C499 O510 1.275 . S
C499 O511 1.256 . S
O500 Ho480 2.322 . S
O500 C482 1.259 . S
O501 Ho481 2.346 . S
O501 C482 1.268 . S
O502 Ho480 2.378 . S
O502 C483 1.215 . S
O503 Ho480 2.524 . S
O503 C483 1.289 . S
O504 Ho480 2.381 . S
O504 C490 1.275 . S
O505 Ho480 2.669 . S
O505 Ho481 2.305 . S
O505 C490 1.256 . S
O506 Ho481 2.322 . S
O506 C491 1.259 . S
O507 Ho480 2.346 . S
O507 C491 1.268 . S
O508 Ho481 2.378 . S
O508 C492 1.215 . S
O509 Ho481 2.524 . S
O509 C492 1.289 . S
O510 Ho481 2.381 . S
O510 C499 1.275 . S
O511 Ho480 2.305 . S
O511 Ho481 2.669 . S
O511 C499 1.256 . S
H512 C485 0.930 . S
H513 C486 0.931 . S
H514 C488 0.934 . S
H515 C489 0.930 . S
H516 C494 0.930 . S
H517 C495 0.931 . S
H518 C497 0.934 . S
H519 C498 0.930 . S
Ho520 C523 2.811 . S
Ho520 O540 2.322 . S
Ho520 O542 2.378 . S
Ho520 O543 2.524 . S
Ho520 O544 2.381 . S
Ho520 O545 2.669 . S
Ho520 O547 2.346 . S
Ho520 O551 2.305 . S
Ho521 C532 2.811 . S
Ho521 O541 2.346 . S
Ho521 O545 2.305 . S
Ho521 O546 2.322 . S
Ho521 O548 2.378 . S
Ho521 O549 2.524 . S
Ho521 O550 2.381 1_545 S
Ho521 O551 2.669 . S
C522 O540 1.259 . S
C522 O541 1.268 . S
C523 Ho520 2.811 . S
C523 C524 1.488 . S
C523 O542 1.215 . S
C523 O543 1.289 . S
C524 C523 1.488 . S
C524 C525 1.348 . S
C524 C529 1.413 . S
C525 C524 1.348 . S
C525 C526 1.442 . S
C525 H552 0.930 1_545 S
C526 C525 1.442 . S
C526 C527 1.381 . S
C526 H553 0.931 1_545 S
C527 C526 1.381 . S
C527 C528 1.321 . S
C528 C527 1.321 . S
C528 C529 1.403 . S
C528 H554 0.934 . S
C529 C524 1.413 . S
C529 C528 1.403 . S
C529 H555 0.930 . S
C530 O544 1.275 . S
C530 O545 1.256 . S
C531 O546 1.259 . S
C531 O547 1.268 . S
C532 Ho521 2.811 . S
C532 C533 1.488 . S
C532 O548 1.215 . S
C532 O549 1.289 . S
C533 C532 1.488 . S
C533 C534 1.348 . S
C533 C538 1.413 . S
C534 C533 1.348 . S
C534 C535 1.442 . S
C534 H556 0.930 . S
C535 C534 1.442 . S
C535 C536 1.381 . S
C535 H557 0.931 . S
C536 C535 1.381 . S
C536 C537 1.321 . S
C537 C536 1.321 . S
C537 C538 1.403 . S
C537 H558 0.934 . S
C538 C533 1.413 . S
C538 C537 1.403 . S
C538 H559 0.930 . S
C539 O550 1.279 . S
C539 O551 1.236 1_565 S
O540 Ho520 2.322 . S
O540 C522 1.259 . S
O541 Ho521 2.346 . S
O541 C522 1.268 . S
O542 Ho520 2.378 . S
O542 C523 1.215 . S
O543 Ho520 2.524 . S
O543 C523 1.289 . S
O544 Ho520 2.381 . S
O544 C530 1.275 . S
O545 Ho520 2.669 . S
O545 Ho521 2.305 . S
O545 C530 1.256 . S
O546 Ho521 2.322 . S
O546 C531 1.259 . S
O547 Ho520 2.346 . S
O547 C531 1.268 . S
O548 Ho521 2.378 . S
O548 C532 1.215 . S
O549 Ho521 2.524 . S
O549 C532 1.289 . S
O550 Ho521 2.381 1_565 S
O550 C539 1.279 . S
O551 Ho520 2.305 . S
O551 Ho521 2.669 . S
O551 C539 1.236 1_545 S
H552 C525 0.930 1_565 S
H553 C526 0.931 1_565 S
H554 C528 0.934 . S
H555 C529 0.930 . S
H556 C534 0.930 . S
H557 C535 0.931 . S
H558 C537 0.934 . S
H559 C538 0.930 . S
Ho560 C563 2.811 . S
Ho560 O580 2.322 . S
Ho560 O582 2.378 . S
Ho560 O583 2.524 . S
Ho560 O584 2.381 . S
Ho560 O585 2.669 . S
Ho560 O587 2.346 . S
Ho560 O591 2.305 . S
Ho561 C572 2.811 . S
Ho561 O581 2.346 . S
Ho561 O585 2.305 . S
Ho561 O586 2.322 . S
Ho561 O588 2.378 . S
Ho561 O589 2.524 . S
Ho561 O590 2.381 . S
Ho561 O591 2.669 . S
C562 O580 1.259 . S
C562 O581 1.268 . S
C563 Ho560 2.811 . S
C563 C564 1.488 . S
C563 O582 1.215 . S
C563 O583 1.289 . S
C564 C563 1.488 . S
C564 C565 1.348 . S
C564 C569 1.413 . S
C565 C564 1.348 . S
C565 C566 1.442 . S
C565 H592 0.930 . S
C566 C565 1.442 . S
C566 C567 1.381 . S
C566 H593 0.931 . S
C567 C566 1.381 . S
C567 C568 1.321 . S
C568 C567 1.321 . S
C568 C569 1.403 . S
C568 H594 0.934 . S
C569 C564 1.413 . S
C569 C568 1.403 . S
C569 H595 0.930 . S
C570 O584 1.275 . S
C570 O585 1.256 . S
C571 O586 1.259 . S
C571 O587 1.268 . S
C572 Ho561 2.811 . S
C572 C573 1.488 . S
C572 O588 1.215 . S
C572 O589 1.289 . S
C573 C572 1.488 . S
C573 C574 1.348 . S
C573 C578 1.413 . S
C574 C573 1.348 . S
C574 C575 1.442 . S
C574 H596 0.930 . S
C575 C574 1.442 . S
C575 C576 1.381 . S
C575 H597 0.931 . S
C576 C575 1.381 . S
C576 C577 1.321 . S
C577 C576 1.321 . S
C577 C578 1.403 . S
C577 H598 0.934 . S
C578 C573 1.413 . S
C578 C577 1.403 . S
C578 H599 0.930 . S
C579 O590 1.275 . S
C579 O591 1.256 . S
O580 Ho560 2.322 . S
O580 C562 1.259 . S
O581 Ho561 2.346 . S
O581 C562 1.268 . S
O582 Ho560 2.378 . S
O582 C563 1.215 . S
O583 Ho560 2.524 . S
O583 C563 1.289 . S
O584 Ho560 2.381 . S
O584 C570 1.275 . S
O585 Ho560 2.669 . S
O585 Ho561 2.305 . S
O585 C570 1.256 . S
O586 Ho561 2.322 . S
O586 C571 1.259 . S
O587 Ho560 2.346 . S
O587 C571 1.268 . S
O588 Ho561 2.378 . S
O588 C572 1.215 . S
O589 Ho561 2.524 . S
O589 C572 1.289 . S
O590 Ho561 2.381 . S
O590 C579 1.275 . S
O591 Ho560 2.305 . S
O591 Ho561 2.669 . S
O591 C579 1.256 . S
H592 C565 0.930 . S
H593 C566 0.931 . S
H594 C568 0.934 . S
H595 C569 0.930 . S
H596 C574 0.930 . S
H597 C575 0.931 . S
H598 C577 0.934 . S
H599 C578 0.930 . S
Ho600 C603 2.811 . S
Ho600 O620 2.322 . S
Ho600 O622 2.378 . S
Ho600 O623 2.524 . S
Ho600 O624 2.381 . S
Ho600 O625 2.669 . S
Ho600 O627 2.346 . S
Ho600 O631 2.305 . S
Ho601 C612 2.811 1_655 S
Ho601 O621 2.346 . S
Ho601 O625 2.305 . S
Ho601 O626 2.322 . S
Ho601 O628 2.378 1_655 S
Ho601 O629 2.524 1_655 S
Ho601 O630 2.381 1_565 S
Ho601 O631 2.669 . S
C602 O620 1.259 . S
C602 O621 1.268 . S
C603 Ho600 2.811 . S
C603 C604 1.488 . S
C603 O622 1.215 . S
C603 O623 1.289 . S
C604 C603 1.488 . S
C604 C605 1.348 . S
C604 C609 1.413 . S
C605 C604 1.348 . S
C605 C606 1.442 . S
C605 H632 0.930 1_565 S
C606 C605 1.442 . S
C606 C607 1.381 . S
C606 H633 0.931 1_565 S
C607 C606 1.381 . S
C607 C608 1.321 . S
C608 C607 1.321 . S
C608 C609 1.403 . S
C608 H634 0.934 . S
C609 C604 1.413 . S
C609 C608 1.403 . S
C609 H635 0.930 . S
C610 O624 1.275 . S
C610 O625 1.256 . S
C611 O626 1.259 . S
C611 O627 1.268 . S
C612 Ho601 2.811 1_455 S
C612 C613 1.488 . S
C612 O628 1.215 . S
C612 O629 1.289 . S
C613 C612 1.488 . S
C613 C614 1.348 . S
C613 C618 1.413 . S
C614 C613 1.348 . S
C614 C615 1.442 . S
C614 H636 0.930 . S
C615 C614 1.442 . S
C615 C616 1.381 . S
C615 H637 0.931 . S
C616 C615 1.381 . S
C616 C617 1.321 . S
C617 C616 1.321 . S
C617 C618 1.403 . S
C617 H638 0.934 . S
C618 C613 1.413 . S
C618 C617 1.403 . S
C618 H639 0.930 . S
C619 O630 1.279 . S
C619 O631 1.236 1_545 S
O620 Ho600 2.322 . S
O620 C602 1.259 . S
O621 Ho601 2.346 . S
O621 C602 1.268 . S
O622 Ho600 2.378 . S
O622 C603 1.215 . S
O623 Ho600 2.524 . S
O623 C603 1.289 . S
O624 Ho600 2.381 . S
O624 C610 1.275 . S
O625 Ho600 2.669 . S
O625 Ho601 2.305 . S
O625 C610 1.256 . S
O626 Ho601 2.322 . S
O626 C611 1.259 . S
O627 Ho600 2.346 . S
O627 C611 1.268 . S
O628 Ho601 2.378 1_455 S
O628 C612 1.215 . S
O629 Ho601 2.524 1_455 S
O629 C612 1.289 . S
O630 Ho601 2.381 1_545 S
O630 C619 1.279 . S
O631 Ho600 2.305 . S
O631 Ho601 2.669 . S
O631 C619 1.236 1_565 S
H632 C605 0.930 1_545 S
H633 C606 0.931 1_545 S
H634 C608 0.934 . S
H635 C609 0.930 . S
H636 C614 0.930 . S
H637 C615 0.931 . S
H638 C617 0.934 . S
H639 C618 0.930 . S
Ho640 C643 2.811 . S
Ho640 O660 2.322 . S
Ho640 O662 2.378 . S
Ho640 O663 2.524 . S
Ho640 O664 2.381 . S
Ho640 O665 2.669 . S
Ho640 O667 2.346 . S
Ho640 O671 2.305 . S
Ho641 C652 2.811 . S
Ho641 O661 2.346 . S
Ho641 O665 2.305 . S
Ho641 O666 2.322 . S
Ho641 O668 2.378 . S
Ho641 O669 2.524 . S
Ho641 O670 2.381 . S
Ho641 O671 2.669 . S
C642 O660 1.259 . S
C642 O661 1.268 . S
C643 Ho640 2.811 . S
C643 C644 1.488 . S
C643 O662 1.215 . S
C643 O663 1.289 . S
C644 C643 1.488 . S
C644 C645 1.348 . S
C644 C649 1.413 . S
C645 C644 1.348 . S
C645 C646 1.442 . S
C645 H672 0.930 . S
C646 C645 1.442 . S
C646 C647 1.381 . S
C646 H673 0.931 . S
C647 C646 1.381 . S
C647 C648 1.321 . S
C648 C647 1.321 . S
C648 C649 1.403 . S
C648 H674 0.934 . S
C649 C644 1.413 . S
C649 C648 1.403 . S
C649 H675 0.930 . S
C650 O664 1.275 . S
C650 O665 1.256 . S
C651 O666 1.259 . S
C651 O667 1.268 . S
C652 Ho641 2.811 . S
C652 C653 1.488 . S
C652 O668 1.215 . S
C652 O669 1.289 . S
C653 C652 1.488 . S
C653 C654 1.348 . S
C653 C658 1.413 . S
C654 C653 1.348 . S
C654 C655 1.442 . S
C654 H676 0.930 . S
C655 C654 1.442 . S
C655 C656 1.381 . S
C655 H677 0.931 . S
C656 C655 1.381 . S
C656 C657 1.321 . S
C657 C656 1.321 . S
C657 C658 1.403 . S
C657 H678 0.934 . S
C658 C653 1.413 . S
C658 C657 1.403 . S
C658 H679 0.930 . S
C659 O670 1.275 . S
C659 O671 1.256 . S
O660 Ho640 2.322 . S
O660 C642 1.259 . S
O661 Ho641 2.346 . S
O661 C642 1.268 . S
O662 Ho640 2.378 . S
O662 C643 1.215 . S
O663 Ho640 2.524 . S
O663 C643 1.289 . S
O664 Ho640 2.381 . S
O664 C650 1.275 . S
O665 Ho640 2.669 . S
O665 Ho641 2.305 . S
O665 C650 1.256 . S
O666 Ho641 2.322 . S
O666 C651 1.259 . S
O667 Ho640 2.346 . S
O667 C651 1.268 . S
O668 Ho641 2.378 . S
O668 C652 1.215 . S
O669 Ho641 2.524 . S
O669 C652 1.289 . S
O670 Ho641 2.381 . S
O670 C659 1.275 . S
O671 Ho640 2.305 . S
O671 Ho641 2.669 . S
O671 C659 1.256 . S
H672 C645 0.930 . S
H673 C646 0.931 . S
H674 C648 0.934 . S
H675 C649 0.930 . S
H676 C654 0.930 . S
H677 C655 0.931 . S
H678 C657 0.934 . S
H679 C658 0.930 . S
Ho680 C683 2.811 . S
Ho680 O700 2.322 . S
Ho680 O702 2.378 . S
Ho680 O703 2.524 . S
Ho680 O704 2.381 . S
Ho680 O705 2.669 . S
Ho680 O707 2.346 . S
Ho680 O711 2.305 . S
Ho681 C692 2.811 . S
Ho681 O701 2.346 . S
Ho681 O705 2.305 . S
Ho681 O706 2.322 . S
Ho681 O708 2.378 . S
Ho681 O709 2.524 . S
Ho681 O710 2.381 . S
Ho681 O711 2.669 . S
C682 O700 1.259 . S
C682 O701 1.268 . S
C683 Ho680 2.811 . S
C683 C684 1.488 . S
C683 O702 1.215 . S
C683 O703 1.289 . S
C684 C683 1.488 . S
C684 C685 1.348 . S
C684 C689 1.413 . S
C685 C684 1.348 . S
C685 C686 1.442 . S
C685 H712 0.930 . S
C686 C685 1.442 . S
C686 C687 1.381 . S
C686 H713 0.931 . S
C687 C686 1.381 . S
C687 C688 1.321 . S
C688 C687 1.321 . S
C688 C689 1.403 . S
C688 H714 0.934 . S
C689 C684 1.413 . S
C689 C688 1.403 . S
C689 H715 0.930 . S
C690 O704 1.275 . S
C690 O705 1.256 . S
C691 O706 1.259 . S
C691 O707 1.268 . S
C692 Ho681 2.811 . S
C692 C693 1.488 . S
C692 O708 1.215 . S
C692 O709 1.289 . S
C693 C692 1.488 . S
C693 C694 1.348 . S
C693 C698 1.413 . S
C694 C693 1.348 . S
C694 C695 1.442 . S
C694 H716 0.930 . S
C695 C694 1.442 . S
C695 C696 1.381 . S
C695 H717 0.931 . S
C696 C695 1.381 . S
C696 C697 1.321 . S
C697 C696 1.321 . S
C697 C698 1.403 . S
C697 H718 0.934 . S
C698 C693 1.413 . S
C698 C697 1.403 . S
C698 H719 0.930 . S
C699 O710 1.275 . S
C699 O711 1.256 . S
O700 Ho680 2.322 . S
O700 C682 1.259 . S
O701 Ho681 2.346 . S
O701 C682 1.268 . S
O702 Ho680 2.378 . S
O702 C683 1.215 . S
O703 Ho680 2.524 . S
O703 C683 1.289 . S
O704 Ho680 2.381 . S
O704 C690 1.275 . S
O705 Ho680 2.669 . S
O705 Ho681 2.305 . S
O705 C690 1.256 . S
O706 Ho681 2.322 . S
O706 C691 1.259 . S
O707 Ho680 2.346 . S
O707 C691 1.268 . S
O708 Ho681 2.378 . S
O708 C692 1.215 . S
O709 Ho681 2.524 . S
O709 C692 1.289 . S
O710 Ho681 2.381 . S
O710 C699 1.275 . S
O711 Ho680 2.305 . S
O711 Ho681 2.669 . S
O711 C699 1.256 . S
H712 C685 0.930 . S
H713 C686 0.931 . S
H714 C688 0.934 . S
H715 C689 0.930 . S
H716 C694 0.930 . S
H717 C695 0.931 . S
H718 C697 0.934 . S
H719 C698 0.930 . S
Ho720 C723 2.811 . S
Ho720 O740 2.322 . S
Ho720 O742 2.378 . S
Ho720 O743 2.524 . S
Ho720 O744 2.381 . S
Ho720 O745 2.669 . S
Ho720 O747 2.346 . S
Ho720 O751 2.305 . S
Ho721 C732 2.811 . S
Ho721 O741 2.346 . S
Ho721 O745 2.305 . S
Ho721 O746 2.322 . S
Ho721 O748 2.378 . S
Ho721 O749 2.524 . S
Ho721 O750 2.381 . S
Ho721 O751 2.669 . S
C722 O740 1.259 . S
C722 O741 1.268 . S
C723 Ho720 2.811 . S
C723 C724 1.488 . S
C723 O742 1.215 . S
C723 O743 1.289 . S
C724 C723 1.488 . S
C724 C725 1.348 . S
C724 C729 1.413 . S
C725 C724 1.348 . S
C725 C726 1.442 . S
C725 H752 0.930 . S
C726 C725 1.442 . S
C726 C727 1.381 . S
C726 H753 0.931 . S
C727 C726 1.381 . S
C727 C728 1.321 . S
C728 C727 1.321 . S
C728 C729 1.403 . S
C728 H754 0.934 . S
C729 C724 1.413 . S
C729 C728 1.403 . S
C729 H755 0.930 . S
C730 O744 1.275 . S
C730 O745 1.256 . S
C731 O746 1.259 . S
C731 O747 1.268 . S
C732 Ho721 2.811 . S
C732 C733 1.488 . S
C732 O748 1.215 . S
C732 O749 1.289 . S
C733 C732 1.488 . S
C733 C734 1.348 . S
C733 C738 1.413 . S
C734 C733 1.348 . S
C734 C735 1.442 . S
C734 H756 0.930 . S
C735 C734 1.442 . S
C735 C736 1.381 . S
C735 H757 0.931 . S
C736 C735 1.381 . S
C736 C737 1.321 . S
C737 C736 1.321 . S
C737 C738 1.403 . S
C737 H758 0.934 . S
C738 C733 1.413 . S
C738 C737 1.403 . S
C738 H759 0.930 . S
C739 O750 1.275 . S
C739 O751 1.256 . S
O740 Ho720 2.322 . S
O740 C722 1.259 . S
O741 Ho721 2.346 . S
O741 C722 1.268 . S
O742 Ho720 2.378 . S
O742 C723 1.215 . S
O743 Ho720 2.524 . S
O743 C723 1.289 . S
O744 Ho720 2.381 . S
O744 C730 1.275 . S
O745 Ho720 2.669 . S
O745 Ho721 2.305 . S
O745 C730 1.256 . S
O746 Ho721 2.322 . S
O746 C731 1.259 . S
O747 Ho720 2.346 . S
O747 C731 1.268 . S
O748 Ho721 2.378 . S
O748 C732 1.215 . S
O749 Ho721 2.524 . S
O749 C732 1.289 . S
O750 Ho721 2.381 . S
O750 C739 1.275 . S
O751 Ho720 2.305 . S
O751 Ho721 2.669 . S
O751 C739 1.256 . S
H752 C725 0.930 . S
H753 C726 0.931 . S
H754 C728 0.934 . S
H755 C729 0.930 . S
H756 C734 0.930 . S
H757 C735 0.931 . S
H758 C737 0.934 . S
H759 C738 0.930 . S
Ho760 C763 2.811 1_655 S
Ho760 O780 2.322 . S
Ho760 O782 2.378 1_655 S
Ho760 O783 2.524 1_655 S
Ho760 O784 2.381 . S
Ho760 O785 2.669 . S
Ho760 O787 2.346 . S
Ho760 O791 2.305 . S
Ho761 C772 2.811 . S
Ho761 O781 2.346 . S
Ho761 O785 2.305 . S
Ho761 O786 2.322 . S
Ho761 O788 2.378 . S
Ho761 O789 2.524 . S
Ho761 O790 2.381 . S
Ho761 O791 2.669 . S
C762 O780 1.259 . S
C762 O781 1.268 . S
C763 Ho760 2.811 1_455 S
C763 C764 1.488 . S
C763 O782 1.215 . S
C763 O783 1.289 . S
C764 C763 1.488 . S
C764 C765 1.348 . S
C764 C769 1.413 . S
C765 C764 1.348 . S
C765 C766 1.442 . S
C765 H792 0.930 . S
C766 C765 1.442 . S
C766 C767 1.381 . S
C766 H793 0.931 . S
C767 C766 1.381 . S
C767 C768 1.321 . S
C768 C767 1.321 . S
C768 C769 1.403 . S
C768 H794 0.934 . S
C769 C764 1.413 . S
C769 C768 1.403 . S
C769 H795 0.930 . S
C770 O784 1.275 . S
C770 O785 1.256 . S
C771 O786 1.259 . S
C771 O787 1.268 . S
C772 Ho761 2.811 . S
C772 C773 1.488 . S
C772 O788 1.215 . S
C772 O789 1.289 . S
C773 C772 1.488 . S
C773 C774 1.348 . S
C773 C778 1.413 . S
C774 C773 1.348 . S
C774 C775 1.442 . S
C774 H796 0.930 . S
C775 C774 1.442 . S
C775 C776 1.381 . S
C775 H797 0.931 . S
C776 C775 1.381 . S
C776 C777 1.321 . S
C777 C776 1.321 . S
C777 C778 1.403 . S
C777 H798 0.934 . S
C778 C773 1.413 . S
C778 C777 1.403 . S
C778 H799 0.930 . S
C779 O790 1.275 . S
C779 O791 1.256 . S
O780 Ho760 2.322 . S
O780 C762 1.259 . S
O781 Ho761 2.346 . S
O781 C762 1.268 . S
O782 Ho760 2.378 1_455 S
O782 C763 1.215 . S
O783 Ho760 2.524 1_455 S
O783 C763 1.289 . S
O784 Ho760 2.381 . S
O784 C770 1.275 . S
O785 Ho760 2.669 . S
O785 Ho761 2.305 . S
O785 C770 1.256 . S
O786 Ho761 2.322 . S
O786 C771 1.259 . S
O787 Ho760 2.346 . S
O787 C771 1.268 . S
O788 Ho761 2.378 . S
O788 C772 1.215 . S
O789 Ho761 2.524 . S
O789 C772 1.289 . S
O790 Ho761 2.381 . S
O790 C779 1.275 . S
O791 Ho760 2.305 . S
O791 Ho761 2.669 . S
O791 C779 1.256 . S
H792 C765 0.930 . S
H793 C766 0.931 . S
H794 C768 0.934 . S
H795 C769 0.930 . S
H796 C774 0.930 . S
H797 C775 0.931 . S
H798 C777 0.934 . S
H799 C778 0.930 . S
Ho800 C803 2.811 . S
Ho800 O820 2.322 . S
Ho800 O822 2.378 . S
Ho800 O823 2.524 . S
Ho800 O824 2.381 . S
Ho800 O825 2.669 . S
Ho800 O827 2.346 . S
Ho800 O831 2.305 . S
Ho801 C812 2.811 . S
Ho801 O821 2.346 . S
Ho801 O825 2.305 . S
Ho801 O826 2.322 . S
Ho801 O828 2.378 . S
Ho801 O829 2.524 . S
Ho801 O830 2.381 . S
Ho801 O831 2.669 . S
C802 O820 1.259 . S
C802 O821 1.268 . S
C803 Ho800 2.811 . S
C803 C804 1.488 . S
C803 O822 1.215 . S
C803 O823 1.289 . S
C804 C803 1.488 . S
C804 C805 1.348 . S
C804 C809 1.413 . S
C805 C804 1.348 . S
C805 C806 1.442 . S
C805 H832 0.930 . S
C806 C805 1.442 . S
C806 C807 1.381 . S
C806 H833 0.931 . S
C807 C806 1.381 . S
C807 C808 1.321 . S
C808 C807 1.321 . S
C808 C809 1.403 . S
C808 H834 0.934 . S
C809 C804 1.413 . S
C809 C808 1.403 . S
C809 H835 0.930 . S
C810 O824 1.275 . S
C810 O825 1.256 . S
C811 O826 1.259 . S
C811 O827 1.268 . S
C812 Ho801 2.811 . S
C812 C813 1.488 . S
C812 O828 1.215 . S
C812 O829 1.289 . S
C813 C812 1.488 . S
C813 C814 1.348 . S
C813 C818 1.413 . S
C814 C813 1.348 . S
C814 C815 1.442 . S
C814 H836 0.930 . S
C815 C814 1.442 . S
C815 C816 1.381 . S
C815 H837 0.931 . S
C816 C815 1.381 . S
C816 C817 1.321 . S
C817 C816 1.321 . S
C817 C818 1.403 . S
C817 H838 0.934 . S
C818 C813 1.413 . S
C818 C817 1.403 . S
C818 H839 0.930 . S
C819 O830 1.275 . S
C819 O831 1.256 . S
O820 Ho800 2.322 . S
O820 C802 1.259 . S
O821 Ho801 2.346 . S
O821 C802 1.268 . S
O822 Ho800 2.378 . S
O822 C803 1.215 . S
O823 Ho800 2.524 . S
O823 C803 1.289 . S
O824 Ho800 2.381 . S
O824 C810 1.275 . S
O825 Ho800 2.669 . S
O825 Ho801 2.305 . S
O825 C810 1.256 . S
O826 Ho801 2.322 . S
O826 C811 1.259 . S
O827 Ho800 2.346 . S
O827 C811 1.268 . S
O828 Ho801 2.378 . S
O828 C812 1.215 . S
O829 Ho801 2.524 . S
O829 C812 1.289 . S
O830 Ho801 2.381 . S
O830 C819 1.275 . S
O831 Ho800 2.305 . S
O831 Ho801 2.669 . S
O831 C819 1.256 . S
H832 C805 0.930 . S
H833 C806 0.931 . S
H834 C808 0.934 . S
H835 C809 0.930 . S
H836 C814 0.930 . S
H837 C815 0.931 . S
H838 C817 0.934 . S
H839 C818 0.930 . S
Ho840 C843 2.811 1_655 S
Ho840 O860 2.322 . S
Ho840 O862 2.378 1_655 S
Ho840 O863 2.524 1_655 S
Ho840 O864 2.381 . S
Ho840 O865 2.669 . S
Ho840 O867 2.346 . S
Ho840 O871 2.305 . S
Ho841 C852 2.811 . S
Ho841 O861 2.346 . S
Ho841 O865 2.305 . S
Ho841 O866 2.322 . S
Ho841 O868 2.378 . S
Ho841 O869 2.524 . S
Ho841 O870 2.381 . S
Ho841 O871 2.669 . S
C842 O860 1.259 . S
C842 O861 1.268 . S
C843 Ho840 2.811 1_455 S
C843 C844 1.488 . S
C843 O862 1.215 . S
C843 O863 1.289 . S
C844 C843 1.488 . S
C844 C845 1.348 . S
C844 C849 1.413 . S
C845 C844 1.348 . S
C845 C846 1.442 . S
C845 H872 0.930 . S
C846 C845 1.442 . S
C846 C847 1.381 . S
C846 H873 0.931 . S
C847 C846 1.381 . S
C847 C848 1.321 . S
C848 C847 1.321 . S
C848 C849 1.403 . S
C848 H874 0.934 . S
C849 C844 1.413 . S
C849 C848 1.403 . S
C849 H875 0.930 . S
C850 O864 1.275 . S
C850 O865 1.256 . S
C851 O866 1.259 . S
C851 O867 1.268 . S
C852 Ho841 2.811 . S
C852 C853 1.488 . S
C852 O868 1.215 . S
C852 O869 1.289 . S
C853 C852 1.488 . S
C853 C854 1.348 . S
C853 C858 1.413 . S
C854 C853 1.348 . S
C854 C855 1.442 . S
C854 H876 0.930 . S
C855 C854 1.442 . S
C855 C856 1.381 . S
C855 H877 0.931 . S
C856 C855 1.381 . S
C856 C857 1.321 . S
C857 C856 1.321 . S
C857 C858 1.403 . S
C857 H878 0.934 . S
C858 C853 1.413 . S
C858 C857 1.403 . S
C858 H879 0.930 . S
C859 O870 1.275 . S
C859 O871 1.256 . S
O860 Ho840 2.322 . S
O860 C842 1.259 . S
O861 Ho841 2.346 . S
O861 C842 1.268 . S
O862 Ho840 2.378 1_455 S
O862 C843 1.215 . S
O863 Ho840 2.524 1_455 S
O863 C843 1.289 . S
O864 Ho840 2.381 . S
O864 C850 1.275 . S
O865 Ho840 2.669 . S
O865 Ho841 2.305 . S
O865 C850 1.256 . S
O866 Ho841 2.322 . S
O866 C851 1.259 . S
O867 Ho840 2.346 . S
O867 C851 1.268 . S
O868 Ho841 2.378 . S
O868 C852 1.215 . S
O869 Ho841 2.524 . S
O869 C852 1.289 . S
O870 Ho841 2.381 . S
O870 C859 1.275 . S
O871 Ho840 2.305 . S
O871 Ho841 2.669 . S
O871 C859 1.256 . S
H872 C845 0.930 . S
H873 C846 0.931 . S
H874 C848 0.934 . S
H875 C849 0.930 . S
H876 C854 0.930 . S
H877 C855 0.931 . S
H878 C857 0.934 . S
H879 C858 0.930 . S
Ho880 C883 2.811 . S
Ho880 O900 2.322 . S
Ho880 O902 2.378 . S
Ho880 O903 2.524 . S
Ho880 O904 2.381 . S
Ho880 O905 2.669 . S
Ho880 O907 2.346 . S
Ho880 O911 2.305 . S
Ho881 C892 2.811 . S
Ho881 O901 2.346 . S
Ho881 O905 2.305 . S
Ho881 O906 2.322 . S
Ho881 O908 2.378 . S
Ho881 O909 2.524 . S
Ho881 O910 2.381 . S
Ho881 O911 2.669 . S
C882 O900 1.259 . S
C882 O901 1.268 . S
C883 Ho880 2.811 . S
C883 C884 1.488 . S
C883 O902 1.215 . S
C883 O903 1.289 . S
C884 C883 1.488 . S
C884 C885 1.348 . S
C884 C889 1.413 . S
C885 C884 1.348 . S
C885 C886 1.442 . S
C885 H912 0.930 . S
C886 C885 1.442 . S
C886 C887 1.381 . S
C886 H913 0.931 . S
C887 C886 1.381 . S
C887 C888 1.321 . S
C888 C887 1.321 . S
C888 C889 1.403 . S
C888 H914 0.934 . S
C889 C884 1.413 . S
C889 C888 1.403 . S
C889 H915 0.930 . S
C890 O904 1.275 . S
C890 O905 1.256 . S
C891 O906 1.259 . S
C891 O907 1.268 . S
C892 Ho881 2.811 . S
C892 C893 1.488 . S
C892 O908 1.215 . S
C892 O909 1.289 . S
C893 C892 1.488 . S
C893 C894 1.348 . S
C893 C898 1.413 . S
C894 C893 1.348 . S
C894 C895 1.442 . S
C894 H916 0.930 . S
C895 C894 1.442 . S
C895 C896 1.381 . S
C895 H917 0.931 . S
C896 C895 1.381 . S
C896 C897 1.321 . S
C897 C896 1.321 . S
C897 C898 1.403 . S
C897 H918 0.934 . S
C898 C893 1.413 . S
C898 C897 1.403 . S
C898 H919 0.930 . S
C899 O910 1.275 . S
C899 O911 1.256 . S
O900 Ho880 2.322 . S
O900 C882 1.259 . S
O901 Ho881 2.346 . S
O901 C882 1.268 . S
O902 Ho880 2.378 . S
O902 C883 1.215 . S
O903 Ho880 2.524 . S
O903 C883 1.289 . S
O904 Ho880 2.381 . S
O904 C890 1.275 . S
O905 Ho880 2.669 . S
O905 Ho881 2.305 . S
O905 C890 1.256 . S
O906 Ho881 2.322 . S
O906 C891 1.259 . S
O907 Ho880 2.346 . S
O907 C891 1.268 . S
O908 Ho881 2.378 . S
O908 C892 1.215 . S
O909 Ho881 2.524 . S
O909 C892 1.289 . S
O910 Ho881 2.381 . S
O910 C899 1.275 . S
O911 Ho880 2.305 . S
O911 Ho881 2.669 . S
O911 C899 1.256 . S
H912 C885 0.930 . S
H913 C886 0.931 . S
H914 C888 0.934 . S
H915 C889 0.930 . S
H916 C894 0.930 . S
H917 C895 0.931 . S
H918 C897 0.934 . S
H919 C898 0.930 . S
Ho920 C923 2.811 . S
Ho920 O940 2.322 . S
Ho920 O942 2.378 . S
Ho920 O943 2.524 . S
Ho920 O944 2.381 . S
Ho920 O945 2.669 . S
Ho920 O947 2.346 . S
Ho920 O951 2.305 . S
Ho921 C932 2.811 . S
Ho921 O941 2.346 . S
Ho921 O945 2.305 . S
Ho921 O946 2.322 . S
Ho921 O948 2.378 . S
Ho921 O949 2.524 . S
Ho921 O950 2.381 . S
Ho921 O951 2.669 . S
C922 O940 1.259 . S
C922 O941 1.268 . S
C923 Ho920 2.811 . S
C923 C924 1.488 . S
C923 O942 1.215 . S
C923 O943 1.289 . S
C924 C923 1.488 . S
C924 C925 1.348 . S
C924 C929 1.413 . S
C925 C924 1.348 . S
C925 C926 1.442 . S
C925 H952 0.930 . S
C926 C925 1.442 . S
C926 C927 1.381 . S
C926 H953 0.931 . S
C927 C926 1.381 . S
C927 C928 1.321 . S
C928 C927 1.321 . S
C928 C929 1.403 . S
C928 H954 0.934 . S
C929 C924 1.413 . S
C929 C928 1.403 . S
C929 H955 0.930 . S
C930 O944 1.275 . S
C930 O945 1.256 . S
C931 O946 1.259 . S
C931 O947 1.268 . S
C932 Ho921 2.811 . S
C932 C933 1.488 . S
C932 O948 1.215 . S
C932 O949 1.289 . S
C933 C932 1.488 . S
C933 C934 1.348 . S
C933 C938 1.413 . S
C934 C933 1.348 . S
C934 C935 1.442 . S
C934 H956 0.930 . S
C935 C934 1.442 . S
C935 C936 1.381 . S
C935 H957 0.931 . S
C936 C935 1.381 . S
C936 C937 1.321 . S
C937 C936 1.321 . S
C937 C938 1.403 . S
C937 H958 0.934 . S
C938 C933 1.413 . S
C938 C937 1.403 . S
C938 H959 0.930 . S
C939 O950 1.275 . S
C939 O951 1.256 . S
O940 Ho920 2.322 . S
O940 C922 1.259 . S
O941 Ho921 2.346 . S
O941 C922 1.268 . S
O942 Ho920 2.378 . S
O942 C923 1.215 . S
O943 Ho920 2.524 . S
O943 C923 1.289 . S
O944 Ho920 2.381 . S
O944 C930 1.275 . S
O945 Ho920 2.669 . S
O945 Ho921 2.305 . S
O945 C930 1.256 . S
O946 Ho921 2.322 . S
O946 C931 1.259 . S
O947 Ho920 2.346 . S
O947 C931 1.268 . S
O948 Ho921 2.378 . S
O948 C932 1.215 . S
O949 Ho921 2.524 . S
O949 C932 1.289 . S
O950 Ho921 2.381 . S
O950 C939 1.275 . S
O951 Ho920 2.305 . S
O951 Ho921 2.669 . S
O951 C939 1.256 . S
H952 C925 0.930 . S
H953 C926 0.931 . S
H954 C928 0.934 . S
H955 C929 0.930 . S
H956 C934 0.930 . S
H957 C935 0.931 . S
H958 C937 0.934 . S
H959 C938 0.930 . S
Ho960 C963 2.811 . S
Ho960 O980 2.322 . S
Ho960 O982 2.378 . S
Ho960 O983 2.524 . S
Ho960 O984 2.381 . S
Ho960 O985 2.669 . S
Ho960 O987 2.346 . S
Ho960 O991 2.305 . S
Ho961 C972 2.811 . S
Ho961 O981 2.346 . S
Ho961 O985 2.305 . S
Ho961 O986 2.322 . S
Ho961 O988 2.378 . S
Ho961 O989 2.524 . S
Ho961 O990 2.381 . S
Ho961 O991 2.669 . S
C962 O980 1.259 . S
C962 O981 1.268 . S
C963 Ho960 2.811 . S
C963 C964 1.488 . S
C963 O982 1.215 . S
C963 O983 1.289 . S
C964 C963 1.488 . S
C964 C965 1.348 . S
C964 C969 1.413 . S
C965 C964 1.348 . S
C965 C966 1.442 . S
C965 H992 0.930 . S
C966 C965 1.442 . S
C966 C967 1.381 . S
C966 H993 0.931 . S
C967 C966 1.381 . S
C967 C968 1.321 . S
C968 C967 1.321 . S
C968 C969 1.403 . S
C968 H994 0.934 . S
C969 C964 1.413 . S
C969 C968 1.403 . S
C969 H995 0.930 . S
C970 O984 1.275 . S
C970 O985 1.256 . S
C971 O986 1.259 . S
C971 O987 1.268 . S
C972 Ho961 2.811 . S
C972 C973 1.488 . S
C972 O988 1.215 . S
C972 O989 1.289 . S
C973 C972 1.488 . S
C973 C974 1.348 . S
C973 C978 1.413 . S
C974 C973 1.348 . S
C974 C975 1.442 . S
C974 H996 0.930 . S
C975 C974 1.442 . S
C975 C976 1.381 . S
C975 H997 0.931 . S
C976 C975 1.381 . S
C976 C977 1.321 . S
C977 C976 1.321 . S
C977 C978 1.403 . S
C977 H998 0.934 . S
C978 C973 1.413 . S
C978 C977 1.403 . S
C978 H999 0.930 . S
C979 O990 1.275 . S
C979 O991 1.256 . S
O980 Ho960 2.322 . S
O980 C962 1.259 . S
O981 Ho961 2.346 . S
O981 C962 1.268 . S
O982 Ho960 2.378 . S
O982 C963 1.215 . S
O983 Ho960 2.524 . S
O983 C963 1.289 . S
O984 Ho960 2.381 . S
O984 C970 1.275 . S
O985 Ho960 2.669 . S
O985 Ho961 2.305 . S
O985 C970 1.256 . S
O986 Ho961 2.322 . S
O986 C971 1.259 . S
O987 Ho960 2.346 . S
O987 C971 1.268 . S
O988 Ho961 2.378 . S
O988 C972 1.215 . S
O989 Ho961 2.524 . S
O989 C972 1.289 . S
O990 Ho961 2.381 . S
O990 C979 1.275 . S
O991 Ho960 2.305 . S
O991 Ho961 2.669 . S
O991 C979 1.256 . S
H992 C965 0.930 . S
H993 C966 0.931 . S
H994 C968 0.934 . S
H995 C969 0.930 . S
H996 C974 0.930 . S
H997 C975 0.931 . S
H998 C977 0.934 . S
H999 C978 0.930 . S
Ho1000 C1003 2.811 . S
Ho1000 O1020 2.322 . S
Ho1000 O1022 2.378 . S
Ho1000 O1023 2.524 . S
Ho1000 O1024 2.381 . S
Ho1000 O1025 2.669 . S
Ho1000 O1027 2.346 . S
Ho1000 O1031 2.305 . S
Ho1001 C1012 2.811 . S
Ho1001 O1021 2.346 . S
Ho1001 O1025 2.305 . S
Ho1001 O1026 2.322 . S
Ho1001 O1028 2.378 . S
Ho1001 O1029 2.524 . S
Ho1001 O1030 2.381 . S
Ho1001 O1031 2.669 . S
C1002 O1020 1.259 . S
C1002 O1021 1.268 . S
C1003 Ho1000 2.811 . S
C1003 C1004 1.488 . S
C1003 O1022 1.215 . S
C1003 O1023 1.289 . S
C1004 C1003 1.488 . S
C1004 C1005 1.348 . S
C1004 C1009 1.413 . S
C1005 C1004 1.348 . S
C1005 C1006 1.442 . S
C1005 H1032 0.930 . S
C1006 C1005 1.442 . S
C1006 C1007 1.381 . S
C1006 H1033 0.931 . S
C1007 C1006 1.381 . S
C1007 C1008 1.321 . S
C1008 C1007 1.321 . S
C1008 C1009 1.403 . S
C1008 H1034 0.934 . S
C1009 C1004 1.413 . S
C1009 C1008 1.403 . S
C1009 H1035 0.930 . S
C1010 O1024 1.275 . S
C1010 O1025 1.256 . S
C1011 O1026 1.259 . S
C1011 O1027 1.268 . S
C1012 Ho1001 2.811 . S
C1012 C1013 1.488 . S
C1012 O1028 1.215 . S
C1012 O1029 1.289 . S
C1013 C1012 1.488 . S
C1013 C1014 1.348 . S
C1013 C1018 1.413 . S
C1014 C1013 1.348 . S
C1014 C1015 1.442 . S
C1014 H1036 0.930 . S
C1015 C1014 1.442 . S
C1015 C1016 1.381 . S
C1015 H1037 0.931 . S
C1016 C1015 1.381 . S
C1016 C1017 1.321 . S
C1017 C1016 1.321 . S
C1017 C1018 1.403 . S
C1017 H1038 0.934 . S
C1018 C1013 1.413 . S
C1018 C1017 1.403 . S
C1018 H1039 0.930 . S
C1019 O1030 1.275 . S
C1019 O1031 1.256 . S
O1020 Ho1000 2.322 . S
O1020 C1002 1.259 . S
O1021 Ho1001 2.346 . S
O1021 C1002 1.268 . S
O1022 Ho1000 2.378 . S
O1022 C1003 1.215 . S
O1023 Ho1000 2.524 . S
O1023 C1003 1.289 . S
O1024 Ho1000 2.381 . S
O1024 C1010 1.275 . S
O1025 Ho1000 2.669 . S
O1025 Ho1001 2.305 . S
O1025 C1010 1.256 . S
O1026 Ho1001 2.322 . S
O1026 C1011 1.259 . S
O1027 Ho1000 2.346 . S
O1027 C1011 1.268 . S
O1028 Ho1001 2.378 . S
O1028 C1012 1.215 . S
O1029 Ho1001 2.524 . S
O1029 C1012 1.289 . S
O1030 Ho1001 2.381 . S
O1030 C1019 1.275 . S
O1031 Ho1000 2.305 . S
O1031 Ho1001 2.669 . S
O1031 C1019 1.256 . S
H1032 C1005 0.930 . S
H1033 C1006 0.931 . S
H1034 C1008 0.934 . S
H1035 C1009 0.930 . S
H1036 C1014 0.930 . S
H1037 C1015 0.931 . S
H1038 C1017 0.934 . S
H1039 C1018 0.930 . S
Ho1040 C1043 2.811 . S
Ho1040 O1060 2.322 . S
Ho1040 O1062 2.378 . S
Ho1040 O1063 2.524 . S
Ho1040 O1064 2.381 . S
Ho1040 O1065 2.669 . S
Ho1040 O1067 2.346 . S
Ho1040 O1071 2.305 . S
Ho1041 C1052 2.811 . S
Ho1041 O1061 2.346 . S
Ho1041 O1065 2.305 . S
Ho1041 O1066 2.322 . S
Ho1041 O1068 2.378 . S
Ho1041 O1069 2.524 . S
Ho1041 O1070 2.381 . S
Ho1041 O1071 2.669 . S
C1042 O1060 1.259 . S
C1042 O1061 1.268 . S
C1043 Ho1040 2.811 . S
C1043 C1044 1.488 . S
C1043 O1062 1.215 . S
C1043 O1063 1.289 . S
C1044 C1043 1.488 . S
C1044 C1045 1.348 . S
C1044 C1049 1.413 . S
C1045 C1044 1.348 . S
C1045 C1046 1.442 . S
C1045 H1072 0.930 . S
C1046 C1045 1.442 . S
C1046 C1047 1.381 . S
C1046 H1073 0.931 . S
C1047 C1046 1.381 . S
C1047 C1048 1.321 . S
C1048 C1047 1.321 . S
C1048 C1049 1.403 . S
C1048 H1074 0.934 . S
C1049 C1044 1.413 . S
C1049 C1048 1.403 . S
C1049 H1075 0.930 . S
C1050 O1064 1.275 . S
C1050 O1065 1.256 . S
C1051 O1066 1.259 . S
C1051 O1067 1.268 . S
C1052 Ho1041 2.811 . S
C1052 C1053 1.488 . S
C1052 O1068 1.215 . S
C1052 O1069 1.289 . S
C1053 C1052 1.488 . S
C1053 C1054 1.348 . S
C1053 C1058 1.413 . S
C1054 C1053 1.348 . S
C1054 C1055 1.442 . S
C1054 H1076 0.930 . S
C1055 C1054 1.442 . S
C1055 C1056 1.381 . S
C1055 H1077 0.931 . S
C1056 C1055 1.381 . S
C1056 C1057 1.321 . S
C1057 C1056 1.321 . S
C1057 C1058 1.403 . S
C1057 H1078 0.934 . S
C1058 C1053 1.413 . S
C1058 C1057 1.403 . S
C1058 H1079 0.930 . S
C1059 O1070 1.275 . S
C1059 O1071 1.256 . S
O1060 Ho1040 2.322 . S
O1060 C1042 1.259 . S
O1061 Ho1041 2.346 . S
O1061 C1042 1.268 . S
O1062 Ho1040 2.378 . S
O1062 C1043 1.215 . S
O1063 Ho1040 2.524 . S
O1063 C1043 1.289 . S
O1064 Ho1040 2.381 . S
O1064 C1050 1.275 . S
O1065 Ho1040 2.669 . S
O1065 Ho1041 2.305 . S
O1065 C1050 1.256 . S
O1066 Ho1041 2.322 . S
O1066 C1051 1.259 . S
O1067 Ho1040 2.346 . S
O1067 C1051 1.268 . S
O1068 Ho1041 2.378 . S
O1068 C1052 1.215 . S
O1069 Ho1041 2.524 . S
O1069 C1052 1.289 . S
O1070 Ho1041 2.381 . S
O1070 C1059 1.275 . S
O1071 Ho1040 2.305 . S
O1071 Ho1041 2.669 . S
O1071 C1059 1.256 . S
H1072 C1045 0.930 . S
H1073 C1046 0.931 . S
H1074 C1048 0.934 . S
H1075 C1049 0.930 . S
H1076 C1054 0.930 . S
H1077 C1055 0.931 . S
H1078 C1057 0.934 . S
H1079 C1058 0.930 . S
Ho1080 C1083 2.811 . S
Ho1080 O1100 2.322 . S
Ho1080 O1102 2.378 . S
Ho1080 O1103 2.524 . S
Ho1080 O1104 2.381 . S
Ho1080 O1105 2.669 . S
Ho1080 O1107 2.346 . S
Ho1080 O1111 2.305 . S
Ho1081 C1092 2.811 1_455 S
Ho1081 O1101 2.346 . S
Ho1081 O1105 2.305 . S
Ho1081 O1106 2.322 . S
Ho1081 O1108 2.378 1_455 S
Ho1081 O1109 2.524 1_455 S
Ho1081 O1110 2.381 . S
Ho1081 O1111 2.669 . S
C1082 O1100 1.259 . S
C1082 O1101 1.268 . S
C1083 Ho1080 2.811 . S
C1083 C1084 1.488 . S
C1083 O1102 1.215 . S
C1083 O1103 1.289 . S
C1084 C1083 1.488 . S
C1084 C1085 1.348 . S
C1084 C1089 1.413 . S
C1085 C1084 1.348 . S
C1085 C1086 1.442 . S
C1085 H1112 0.930 . S
C1086 C1085 1.442 . S
C1086 C1087 1.381 . S
C1086 H1113 0.931 . S
C1087 C1086 1.381 . S
C1087 C1088 1.321 . S
C1088 C1087 1.321 . S
C1088 C1089 1.403 . S
C1088 H1114 0.934 . S
C1089 C1084 1.413 . S
C1089 C1088 1.403 . S
C1089 H1115 0.930 . S
C1090 O1104 1.275 . S
C1090 O1105 1.256 . S
C1091 O1106 1.259 . S
C1091 O1107 1.268 . S
C1092 Ho1081 2.811 1_655 S
C1092 C1093 1.488 . S
C1092 O1108 1.215 . S
C1092 O1109 1.289 . S
C1093 C1092 1.488 . S
C1093 C1094 1.348 . S
C1093 C1098 1.413 . S
C1094 C1093 1.348 . S
C1094 C1095 1.442 . S
C1094 H1116 0.930 . S
C1095 C1094 1.442 . S
C1095 C1096 1.381 . S
C1095 H1117 0.931 . S
C1096 C1095 1.381 . S
C1096 C1097 1.321 . S
C1097 C1096 1.321 . S
C1097 C1098 1.403 . S
C1097 H1118 0.934 . S
C1098 C1093 1.413 . S
C1098 C1097 1.403 . S
C1098 H1119 0.930 . S
C1099 O1110 1.275 . S
C1099 O1111 1.256 . S
O1100 Ho1080 2.322 . S
O1100 C1082 1.259 . S
O1101 Ho1081 2.346 . S
O1101 C1082 1.268 . S
O1102 Ho1080 2.378 . S
O1102 C1083 1.215 . S
O1103 Ho1080 2.524 . S
O1103 C1083 1.289 . S
O1104 Ho1080 2.381 . S
O1104 C1090 1.275 . S
O1105 Ho1080 2.669 . S
O1105 Ho1081 2.305 . S
O1105 C1090 1.256 . S
O1106 Ho1081 2.322 . S
O1106 C1091 1.259 . S
O1107 Ho1080 2.346 . S
O1107 C1091 1.268 . S
O1108 Ho1081 2.378 1_655 S
O1108 C1092 1.215 . S
O1109 Ho1081 2.524 1_655 S
O1109 C1092 1.289 . S
O1110 Ho1081 2.381 . S
O1110 C1099 1.275 . S
O1111 Ho1080 2.305 . S
O1111 Ho1081 2.669 . S
O1111 C1099 1.256 . S
H1112 C1085 0.930 . S
H1113 C1086 0.931 . S
H1114 C1088 0.934 . S
H1115 C1089 0.930 . S
H1116 C1094 0.930 . S
H1117 C1095 0.931 . S
H1118 C1097 0.934 . S
H1119 C1098 0.930 . S
Ho1120 C1123 2.811 . S
Ho1120 O1140 2.322 . S
Ho1120 O1142 2.378 . S
Ho1120 O1143 2.524 . S
Ho1120 O1144 2.381 . S
Ho1120 O1145 2.669 . S
Ho1120 O1147 2.346 . S
Ho1120 O1151 2.305 . S
Ho1121 C1132 2.811 . S
Ho1121 O1141 2.346 . S
Ho1121 O1145 2.305 . S
Ho1121 O1146 2.322 . S
Ho1121 O1148 2.378 . S
Ho1121 O1149 2.524 . S
Ho1121 O1150 2.381 . S
Ho1121 O1151 2.669 . S
C1122 O1140 1.259 . S
C1122 O1141 1.268 . S
C1123 Ho1120 2.811 . S
C1123 C1124 1.488 . S
C1123 O1142 1.215 . S
C1123 O1143 1.289 . S
C1124 C1123 1.488 . S
C1124 C1125 1.348 . S
C1124 C1129 1.413 . S
C1125 C1124 1.348 . S
C1125 C1126 1.442 . S
C1125 H1152 0.930 . S
C1126 C1125 1.442 . S
C1126 C1127 1.381 . S
C1126 H1153 0.931 . S
C1127 C1126 1.381 . S
C1127 C1128 1.321 . S
C1128 C1127 1.321 . S
C1128 C1129 1.403 . S
C1128 H1154 0.934 . S
C1129 C1124 1.413 . S
C1129 C1128 1.403 . S
C1129 H1155 0.930 . S
C1130 O1144 1.275 . S
C1130 O1145 1.256 . S
C1131 O1146 1.259 . S
C1131 O1147 1.268 . S
C1132 Ho1121 2.811 . S
C1132 C1133 1.488 . S
C1132 O1148 1.215 . S
C1132 O1149 1.289 . S
C1133 C1132 1.488 . S
C1133 C1134 1.348 . S
C1133 C1138 1.413 . S
C1134 C1133 1.348 . S
C1134 C1135 1.442 . S
C1134 H1156 0.930 . S
C1135 C1134 1.442 . S
C1135 C1136 1.381 . S
C1135 H1157 0.931 . S
C1136 C1135 1.381 . S
C1136 C1137 1.321 . S
C1137 C1136 1.321 . S
C1137 C1138 1.403 . S
C1137 H1158 0.934 . S
C1138 C1133 1.413 . S
C1138 C1137 1.403 . S
C1138 H1159 0.930 . S
C1139 O1150 1.275 . S
C1139 O1151 1.256 . S
O1140 Ho1120 2.322 . S
O1140 C1122 1.259 . S
O1141 Ho1121 2.346 . S
O1141 C1122 1.268 . S
O1142 Ho1120 2.378 . S
O1142 C1123 1.215 . S
O1143 Ho1120 2.524 . S
O1143 C1123 1.289 . S
O1144 Ho1120 2.381 . S
O1144 C1130 1.275 . S
O1145 Ho1120 2.669 . S
O1145 Ho1121 2.305 . S
O1145 C1130 1.256 . S
O1146 Ho1121 2.322 . S
O1146 C1131 1.259 . S
O1147 Ho1120 2.346 . S
O1147 C1131 1.268 . S
O1148 Ho1121 2.378 . S
O1148 C1132 1.215 . S
O1149 Ho1121 2.524 . S
O1149 C1132 1.289 . S
O1150 Ho1121 2.381 . S
O1150 C1139 1.275 . S
O1151 Ho1120 2.305 . S
O1151 Ho1121 2.669 . S
O1151 C1139 1.256 . S
H1152 C1125 0.930 . S
H1153 C1126 0.931 . S
H1154 C1128 0.934 . S
H1155 C1129 0.930 . S
H1156 C1134 0.930 . S
H1157 C1135 0.931 . S
H1158 C1137 0.934 . S
H1159 C1138 0.930 . S
Ho1160 C1163 2.811 . S
Ho1160 O1180 2.322 . S
Ho1160 O1182 2.378 . S
Ho1160 O1183 2.524 . S
Ho1160 O1184 2.381 . S
Ho1160 O1185 2.669 . S
Ho1160 O1187 2.346 . S
Ho1160 O1191 2.305 . S
Ho1161 C1172 2.811 1_455 S
Ho1161 O1181 2.346 . S
Ho1161 O1185 2.305 . S
Ho1161 O1186 2.322 . S
Ho1161 O1188 2.378 1_455 S
Ho1161 O1189 2.524 1_455 S
Ho1161 O1190 2.381 . S
Ho1161 O1191 2.669 . S
C1162 O1180 1.259 . S
C1162 O1181 1.268 . S
C1163 Ho1160 2.811 . S
C1163 C1164 1.488 . S
C1163 O1182 1.215 . S
C1163 O1183 1.289 . S
C1164 C1163 1.488 . S
C1164 C1165 1.348 . S
C1164 C1169 1.413 . S
C1165 C1164 1.348 . S
C1165 C1166 1.442 . S
C1165 H1192 0.930 . S
C1166 C1165 1.442 . S
C1166 C1167 1.381 . S
C1166 H1193 0.931 . S
C1167 C1166 1.381 . S
C1167 C1168 1.321 . S
C1168 C1167 1.321 . S
C1168 C1169 1.403 . S
C1168 H1194 0.934 . S
C1169 C1164 1.413 . S
C1169 C1168 1.403 . S
C1169 H1195 0.930 . S
C1170 O1184 1.275 . S
C1170 O1185 1.256 . S
C1171 O1186 1.259 . S
C1171 O1187 1.268 . S
C1172 Ho1161 2.811 1_655 S
C1172 C1173 1.488 . S
C1172 O1188 1.215 . S
C1172 O1189 1.289 . S
C1173 C1172 1.488 . S
C1173 C1174 1.348 . S
C1173 C1178 1.413 . S
C1174 C1173 1.348 . S
C1174 C1175 1.442 . S
C1174 H1196 0.930 . S
C1175 C1174 1.442 . S
C1175 C1176 1.381 . S
C1175 H1197 0.931 . S
C1176 C1175 1.381 . S
C1176 C1177 1.321 . S
C1177 C1176 1.321 . S
C1177 C1178 1.403 . S
C1177 H1198 0.934 . S
C1178 C1173 1.413 . S
C1178 C1177 1.403 . S
C1178 H1199 0.930 . S
C1179 O1190 1.275 . S
C1179 O1191 1.256 . S
O1180 Ho1160 2.322 . S
O1180 C1162 1.259 . S
O1181 Ho1161 2.346 . S
O1181 C1162 1.268 . S
O1182 Ho1160 2.378 . S
O1182 C1163 1.215 . S
O1183 Ho1160 2.524 . S
O1183 C1163 1.289 . S
O1184 Ho1160 2.381 . S
O1184 C1170 1.275 . S
O1185 Ho1160 2.669 . S
O1185 Ho1161 2.305 . S
O1185 C1170 1.256 . S
O1186 Ho1161 2.322 . S
O1186 C1171 1.259 . S
O1187 Ho1160 2.346 . S
O1187 C1171 1.268 . S
O1188 Ho1161 2.378 1_655 S
O1188 C1172 1.215 . S
O1189 Ho1161 2.524 1_655 S
O1189 C1172 1.289 . S
O1190 Ho1161 2.381 . S
O1190 C1179 1.275 . S
O1191 Ho1160 2.305 . S
O1191 Ho1161 2.669 . S
O1191 C1179 1.256 . S
H1192 C1165 0.930 . S
H1193 C1166 0.931 . S
H1194 C1168 0.934 . S
H1195 C1169 0.930 . S
H1196 C1174 0.930 . S
H1197 C1175 0.931 . S
H1198 C1177 0.934 . S
H1199 C1178 0.930 . S
Ho1200 C1203 2.811 . S
Ho1200 O1220 2.322 . S
Ho1200 O1222 2.378 . S
Ho1200 O1223 2.524 . S
Ho1200 O1224 2.381 . S
Ho1200 O1225 2.669 . S
Ho1200 O1227 2.346 . S
Ho1200 O1231 2.305 . S
Ho1201 C1212 2.811 . S
Ho1201 O1221 2.346 . S
Ho1201 O1225 2.305 . S
Ho1201 O1226 2.322 . S
Ho1201 O1228 2.378 . S
Ho1201 O1229 2.524 . S
Ho1201 O1230 2.381 . S
Ho1201 O1231 2.669 . S
C1202 O1220 1.259 . S
C1202 O1221 1.268 . S
C1203 Ho1200 2.811 . S
C1203 C1204 1.488 . S
C1203 O1222 1.215 . S
C1203 O1223 1.289 . S
C1204 C1203 1.488 . S
C1204 C1205 1.348 . S
C1204 C1209 1.413 . S
C1205 C1204 1.348 . S
C1205 C1206 1.442 . S
C1205 H1232 0.930 . S
C1206 C1205 1.442 . S
C1206 C1207 1.381 . S
C1206 H1233 0.931 . S
C1207 C1206 1.381 . S
C1207 C1208 1.321 . S
C1208 C1207 1.321 . S
C1208 C1209 1.403 . S
C1208 H1234 0.934 . S
C1209 C1204 1.413 . S
C1209 C1208 1.403 . S
C1209 H1235 0.930 . S
C1210 O1224 1.275 . S
C1210 O1225 1.256 . S
C1211 O1226 1.259 . S
C1211 O1227 1.268 . S
C1212 Ho1201 2.811 . S
C1212 C1213 1.488 . S
C1212 O1228 1.215 . S
C1212 O1229 1.289 . S
C1213 C1212 1.488 . S
C1213 C1214 1.348 . S
C1213 C1218 1.413 . S
C1214 C1213 1.348 . S
C1214 C1215 1.442 . S
C1214 H1236 0.930 . S
C1215 C1214 1.442 . S
C1215 C1216 1.381 . S
C1215 H1237 0.931 . S
C1216 C1215 1.381 . S
C1216 C1217 1.321 . S
C1217 C1216 1.321 . S
C1217 C1218 1.403 . S
C1217 H1238 0.934 . S
C1218 C1213 1.413 . S
C1218 C1217 1.403 . S
C1218 H1239 0.930 . S
C1219 O1230 1.275 . S
C1219 O1231 1.256 . S
O1220 Ho1200 2.322 . S
O1220 C1202 1.259 . S
O1221 Ho1201 2.346 . S
O1221 C1202 1.268 . S
O1222 Ho1200 2.378 . S
O1222 C1203 1.215 . S
O1223 Ho1200 2.524 . S
O1223 C1203 1.289 . S
O1224 Ho1200 2.381 . S
O1224 C1210 1.275 . S
O1225 Ho1200 2.669 . S
O1225 Ho1201 2.305 . S
O1225 C1210 1.256 . S
O1226 Ho1201 2.322 . S
O1226 C1211 1.259 . S
O1227 Ho1200 2.346 . S
O1227 C1211 1.268 . S
O1228 Ho1201 2.378 . S
O1228 C1212 1.215 . S
O1229 Ho1201 2.524 . S
O1229 C1212 1.289 . S
O1230 Ho1201 2.381 . S
O1230 C1219 1.275 . S
O1231 Ho1200 2.305 . S
O1231 Ho1201 2.669 . S
O1231 C1219 1.256 . S
H1232 C1205 0.930 . S
H1233 C1206 0.931 . S
H1234 C1208 0.934 . S
H1235 C1209 0.930 . S
H1236 C1214 0.930 . S
H1237 C1215 0.931 . S
H1238 C1217 0.934 . S
H1239 C1218 0.930 . S
Ho1240 C1243 2.811 . S
Ho1240 O1260 2.322 . S
Ho1240 O1262 2.378 . S
Ho1240 O1263 2.524 . S
Ho1240 O1264 2.381 . S
Ho1240 O1265 2.669 . S
Ho1240 O1267 2.346 . S
Ho1240 O1271 2.305 . S
Ho1241 C1252 2.811 . S
Ho1241 O1261 2.346 . S
Ho1241 O1265 2.305 . S
Ho1241 O1266 2.322 . S
Ho1241 O1268 2.378 . S
Ho1241 O1269 2.524 . S
Ho1241 O1270 2.381 . S
Ho1241 O1271 2.669 . S
C1242 O1260 1.259 . S
C1242 O1261 1.268 . S
C1243 Ho1240 2.811 . S
C1243 C1244 1.488 . S
C1243 O1262 1.215 . S
C1243 O1263 1.289 . S
C1244 C1243 1.488 . S
C1244 C1245 1.348 . S
C1244 C1249 1.413 . S
C1245 C1244 1.348 . S
C1245 C1246 1.442 . S
C1245 H1272 0.930 . S
C1246 C1245 1.442 . S
C1246 C1247 1.381 . S
C1246 H1273 0.931 . S
C1247 C1246 1.381 . S
C1247 C1248 1.321 . S
C1248 C1247 1.321 . S
C1248 C1249 1.403 . S
C1248 H1274 0.934 . S
C1249 C1244 1.413 . S
C1249 C1248 1.403 . S
C1249 H1275 0.930 . S
C1250 O1264 1.275 . S
C1250 O1265 1.256 . S
C1251 O1266 1.259 . S
C1251 O1267 1.268 . S
C1252 Ho1241 2.811 . S
C1252 C1253 1.488 . S
C1252 O1268 1.215 . S
C1252 O1269 1.289 . S
C1253 C1252 1.488 . S
C1253 C1254 1.348 . S
C1253 C1258 1.413 . S
C1254 C1253 1.348 . S
C1254 C1255 1.442 . S
C1254 H1276 0.930 . S
C1255 C1254 1.442 . S
C1255 C1256 1.381 . S
C1255 H1277 0.931 . S
C1256 C1255 1.381 . S
C1256 C1257 1.321 . S
C1257 C1256 1.321 . S
C1257 C1258 1.403 . S
C1257 H1278 0.934 . S
C1258 C1253 1.413 . S
C1258 C1257 1.403 . S
C1258 H1279 0.930 . S
C1259 O1270 1.275 . S
C1259 O1271 1.256 . S
O1260 Ho1240 2.322 . S
O1260 C1242 1.259 . S
O1261 Ho1241 2.346 . S
O1261 C1242 1.268 . S
O1262 Ho1240 2.378 . S
O1262 C1243 1.215 . S
O1263 Ho1240 2.524 . S
O1263 C1243 1.289 . S
O1264 Ho1240 2.381 . S
O1264 C1250 1.275 . S
O1265 Ho1240 2.669 . S
O1265 Ho1241 2.305 . S
O1265 C1250 1.256 . S
O1266 Ho1241 2.322 . S
O1266 C1251 1.259 . S
O1267 Ho1240 2.346 . S
O1267 C1251 1.268 . S
O1268 Ho1241 2.378 . S
O1268 C1252 1.215 . S
O1269 Ho1241 2.524 . S
O1269 C1252 1.289 . S
O1270 Ho1241 2.381 . S
O1270 C1259 1.275 . S
O1271 Ho1240 2.305 . S
O1271 Ho1241 2.669 . S
O1271 C1259 1.256 . S
H1272 C1245 0.930 . S
H1273 C1246 0.931 . S
H1274 C1248 0.934 . S
H1275 C1249 0.930 . S
H1276 C1254 0.930 . S
H1277 C1255 0.931 . S
H1278 C1257 0.934 . S
H1279 C1258 0.930 . S
H1280 C1288 0.950 . S
H1281 C1293 0.950 . S
H1282 C1290 0.950 . S
H1283 C1292 0.950 . S
H1284 C1294 0.950 . S
H1285 C1296 0.950 . S
H1286 C1298 0.950 . S
H1287 C1299 0.950 . S
C1288 H1280 0.950 . S
C1288 C1289 1.386 . S
C1288 C1290 1.391 . S
C1289 C1288 1.386 . S
C1289 C1293 1.393 . S
C1290 H1282 0.950 . S
C1290 C1288 1.391 . S
C1290 C1291 1.400 . S
C1291 C1290 1.400 . S
C1291 C1292 1.398 . S
C1291 C1297 1.491 . S
C1292 H1283 0.950 . S
C1292 C1291 1.398 . S
C1292 C1293 1.391 . S
C1293 H1281 0.950 . S
C1293 C1289 1.393 . S
C1293 C1292 1.391 . S
C1294 H1284 0.950 . S
C1294 C1295 1.386 . S
C1294 C1296 1.391 . S
C1295 C1294 1.386 . S
C1295 C1299 1.393 . S
C1296 H1285 0.950 . S
C1296 C1294 1.391 . S
C1296 C1297 1.400 . S
C1297 C1291 1.491 . S
C1297 C1296 1.400 . S
C1297 C1298 1.398 . S
C1298 H1286 0.950 . S
C1298 C1297 1.398 . S
C1298 C1299 1.391 . S
C1299 H1287 0.950 . S
C1299 C1295 1.393 . S
C1299 C1298 1.391 . S
H1300 C1308 0.950 . S
H1301 C1313 0.950 . S
H1302 C1310 0.950 . S
H1303 C1312 0.950 . S
H1304 C1314 0.950 . S
H1305 C1316 0.950 . S
H1306 C1318 0.950 . S
H1307 C1319 0.950 . S
C1308 H1300 0.950 . S
C1308 C1309 1.386 . S
C1308 C1310 1.391 . S
C1309 C1308 1.386 . S
C1309 C1313 1.393 . S
C1310 H1302 0.950 . S
C1310 C1308 1.391 . S
C1310 C1311 1.400 . S
C1311 C1310 1.400 . S
C1311 C1312 1.398 . S
C1311 C1317 1.491 . S
C1312 H1303 0.950 . S
C1312 C1311 1.398 . S
C1312 C1313 1.391 . S
C1313 H1301 0.950 . S
C1313 C1309 1.393 . S
C1313 C1312 1.391 . S
C1314 H1304 0.950 . S
C1314 C1315 1.386 . S
C1314 C1316 1.391 . S
C1315 C1314 1.386 . S
C1315 C1319 1.393 . S
C1316 H1305 0.950 . S
C1316 C1314 1.391 . S
C1316 C1317 1.400 . S
C1317 C1311 1.491 . S
C1317 C1316 1.400 . S
C1317 C1318 1.398 . S
C1318 H1306 0.950 . S
C1318 C1317 1.398 . S
C1318 C1319 1.391 . S
C1319 H1307 0.950 . S
C1319 C1315 1.393 . S
C1319 C1318 1.391 . S
H1320 C1328 0.950 . S
H1321 C1333 0.950 . S
H1322 C1330 0.950 . S
H1323 C1332 0.950 . S
H1324 C1334 0.950 . S
H1325 C1336 0.950 . S
H1326 C1338 0.950 . S
H1327 C1339 0.950 . S
C1328 H1320 0.950 . S
C1328 C1329 1.386 . S
C1328 C1330 1.391 . S
C1329 C1328 1.386 . S
C1329 C1333 1.393 . S
C1330 H1322 0.950 . S
C1330 C1328 1.391 . S
C1330 C1331 1.400 . S
C1331 C1330 1.400 . S
C1331 C1332 1.398 . S
C1331 C1337 1.491 . S
C1332 H1323 0.950 . S
C1332 C1331 1.398 . S
C1332 C1333 1.391 . S
C1333 H1321 0.950 . S
C1333 C1329 1.393 . S
C1333 C1332 1.391 . S
C1334 H1324 0.950 . S
C1334 C1335 1.386 . S
C1334 C1336 1.391 . S
C1335 C1334 1.386 . S
C1335 C1339 1.393 . S
C1336 H1325 0.950 . S
C1336 C1334 1.391 . S
C1336 C1337 1.400 . S
C1337 C1331 1.491 . S
C1337 C1336 1.400 . S
C1337 C1338 1.398 . S
C1338 H1326 0.950 . S
C1338 C1337 1.398 . S
C1338 C1339 1.391 . S
C1339 H1327 0.950 . S
C1339 C1335 1.393 . S
C1339 C1338 1.391 . S
H1340 C1348 0.950 . S
H1341 C1353 0.950 . S
H1342 C1350 0.950 . S
H1343 C1352 0.950 . S
H1344 C1354 0.950 . S
H1345 C1356 0.950 . S
H1346 C1358 0.950 . S
H1347 C1359 0.950 . S
C1348 H1340 0.950 . S
C1348 C1349 1.386 . S
C1348 C1350 1.391 . S
C1349 C1348 1.386 . S
C1349 C1353 1.393 . S
C1350 H1342 0.950 . S
C1350 C1348 1.391 . S
C1350 C1351 1.400 . S
C1351 C1350 1.400 . S
C1351 C1352 1.398 . S
C1351 C1357 1.491 . S
C1352 H1343 0.950 . S
C1352 C1351 1.398 . S
C1352 C1353 1.391 . S
C1353 H1341 0.950 . S
C1353 C1349 1.393 . S
C1353 C1352 1.391 . S
C1354 H1344 0.950 . S
C1354 C1355 1.386 . S
C1354 C1356 1.391 . S
C1355 C1354 1.386 . S
C1355 C1359 1.393 . S
C1356 H1345 0.950 . S
C1356 C1354 1.391 . S
C1356 C1357 1.400 . S
C1357 C1351 1.491 . S
C1357 C1356 1.400 . S
C1357 C1358 1.398 . S
C1358 H1346 0.950 . S
C1358 C1357 1.398 . S
C1358 C1359 1.391 . S
C1359 H1347 0.950 . S
C1359 C1355 1.393 . S
C1359 C1358 1.391 . S
H1360 C1368 0.950 . S
H1361 C1373 0.950 . S
H1362 C1370 0.950 . S
H1363 C1372 0.950 . S
H1364 C1374 0.950 . S
H1365 C1376 0.950 . S
H1366 C1378 0.950 . S
H1367 C1379 0.950 . S
C1368 H1360 0.950 . S
C1368 C1369 1.386 . S
C1368 C1370 1.391 . S
C1369 C1368 1.386 . S
C1369 C1373 1.393 . S
C1370 H1362 0.950 . S
C1370 C1368 1.391 . S
C1370 C1371 1.400 . S
C1371 C1370 1.400 . S
C1371 C1372 1.398 . S
C1371 C1377 1.491 . S
C1372 H1363 0.950 . S
C1372 C1371 1.398 . S
C1372 C1373 1.391 . S
C1373 H1361 0.950 . S
C1373 C1369 1.393 . S
C1373 C1372 1.391 . S
C1374 H1364 0.950 . S
C1374 C1375 1.386 . S
C1374 C1376 1.391 . S
C1375 C1374 1.386 . S
C1375 C1379 1.393 . S
C1376 H1365 0.950 . S
C1376 C1374 1.391 . S
C1376 C1377 1.400 . S
C1377 C1371 1.491 . S
C1377 C1376 1.400 . S
C1377 C1378 1.398 . S
C1378 H1366 0.950 . S
C1378 C1377 1.398 . S
C1378 C1379 1.391 . S
C1379 H1367 0.950 . S
C1379 C1375 1.393 . S
C1379 C1378 1.391 . S
H1380 C1388 0.950 . S
H1381 C1393 0.950 . S
H1382 C1390 0.950 . S
H1383 C1392 0.950 . S
H1384 C1394 0.950 . S
H1385 C1396 0.950 . S
H1386 C1398 0.950 . S
H1387 C1399 0.950 . S
C1388 H1380 0.950 . S
C1388 C1389 1.386 . S
C1388 C1390 1.391 . S
C1389 C1388 1.386 . S
C1389 C1393 1.393 . S
C1390 H1382 0.950 . S
C1390 C1388 1.391 . S
C1390 C1391 1.400 . S
C1391 C1390 1.400 . S
C1391 C1392 1.398 . S
C1391 C1397 1.491 . S
C1392 H1383 0.950 . S
C1392 C1391 1.398 . S
C1392 C1393 1.391 . S
C1393 H1381 0.950 . S
C1393 C1389 1.393 . S
C1393 C1392 1.391 . S
C1394 H1384 0.950 . S
C1394 C1395 1.386 . S
C1394 C1396 1.391 . S
C1395 C1394 1.386 . S
C1395 C1399 1.393 . S
C1396 H1385 0.950 . S
C1396 C1394 1.391 . S
C1396 C1397 1.400 . S
C1397 C1391 1.491 . S
C1397 C1396 1.400 . S
C1397 C1398 1.398 . S
C1398 H1386 0.950 . S
C1398 C1397 1.398 . S
C1398 C1399 1.391 . S
C1399 H1387 0.950 . S
C1399 C1395 1.393 . S
C1399 C1398 1.391 . S
H1400 C1408 0.950 . S
H1401 C1413 0.950 . S
H1402 C1410 0.950 . S
H1403 C1412 0.950 . S
H1404 C1414 0.950 . S
H1405 C1416 0.950 . S
H1406 C1418 0.950 . S
H1407 C1419 0.950 . S
C1408 H1400 0.950 . S
C1408 C1409 1.386 . S
C1408 C1410 1.391 . S
C1409 C1408 1.386 . S
C1409 C1413 1.393 . S
C1410 H1402 0.950 . S
C1410 C1408 1.391 . S
C1410 C1411 1.400 . S
C1411 C1410 1.400 . S
C1411 C1412 1.398 . S
C1411 C1417 1.491 . S
C1412 H1403 0.950 . S
C1412 C1411 1.398 . S
C1412 C1413 1.391 . S
C1413 H1401 0.950 . S
C1413 C1409 1.393 . S
C1413 C1412 1.391 . S
C1414 H1404 0.950 . S
C1414 C1415 1.386 . S
C1414 C1416 1.391 . S
C1415 C1414 1.386 . S
C1415 C1419 1.393 . S
C1416 H1405 0.950 . S
C1416 C1414 1.391 . S
C1416 C1417 1.400 . S
C1417 C1411 1.491 . S
C1417 C1416 1.400 . S
C1417 C1418 1.398 . S
C1418 H1406 0.950 . S
C1418 C1417 1.398 . S
C1418 C1419 1.391 . S
C1419 H1407 0.950 . S
C1419 C1415 1.393 . S
C1419 C1418 1.391 . S
H1420 C1428 0.950 . S
H1421 C1433 0.950 . S
H1422 C1430 0.950 . S
H1423 C1432 0.950 . S
H1424 C1434 0.950 . S
H1425 C1436 0.950 . S
H1426 C1438 0.950 . S
H1427 C1439 0.950 . S
C1428 H1420 0.950 . S
C1428 C1429 1.386 . S
C1428 C1430 1.391 . S
C1429 C1428 1.386 . S
C1429 C1433 1.393 . S
C1430 H1422 0.950 . S
C1430 C1428 1.391 . S
C1430 C1431 1.400 . S
C1431 C1430 1.400 . S
C1431 C1432 1.398 . S
C1431 C1437 1.491 . S
C1432 H1423 0.950 . S
C1432 C1431 1.398 . S
C1432 C1433 1.391 . S
C1433 H1421 0.950 . S
C1433 C1429 1.393 . S
C1433 C1432 1.391 . S
C1434 H1424 0.950 . S
C1434 C1435 1.386 . S
C1434 C1436 1.391 . S
C1435 C1434 1.386 . S
C1435 C1439 1.393 . S
C1436 H1425 0.950 . S
C1436 C1434 1.391 . S
C1436 C1437 1.400 . S
C1437 C1431 1.491 . S
C1437 C1436 1.400 . S
C1437 C1438 1.398 . S
C1438 H1426 0.950 . S
C1438 C1437 1.398 . S
C1438 C1439 1.391 . S
C1439 H1427 0.950 . S
C1439 C1435 1.393 . S
C1439 C1438 1.391 . S
H1440 C1448 0.950 . S
H1441 C1453 0.950 . S
H1442 C1450 0.950 . S
H1443 C1452 0.950 . S
H1444 C1454 0.950 . S
H1445 C1456 0.950 . S
H1446 C1458 0.950 . S
H1447 C1459 0.950 . S
C1448 H1440 0.950 . S
C1448 C1449 1.386 . S
C1448 C1450 1.391 . S
C1449 C1448 1.386 . S
C1449 C1453 1.393 . S
C1450 H1442 0.950 . S
C1450 C1448 1.391 . S
C1450 C1451 1.400 . S
C1451 C1450 1.400 . S
C1451 C1452 1.398 . S
C1451 C1457 1.491 . S
C1452 H1443 0.950 . S
C1452 C1451 1.398 . S
C1452 C1453 1.391 . S
C1453 H1441 0.950 . S
C1453 C1449 1.393 . S
C1453 C1452 1.391 . S
C1454 H1444 0.950 . S
C1454 C1455 1.386 . S
C1454 C1456 1.391 . S
C1455 C1454 1.386 . S
C1455 C1459 1.393 . S
C1456 H1445 0.950 . S
C1456 C1454 1.391 . S
C1456 C1457 1.400 . S
C1457 C1451 1.491 . S
C1457 C1456 1.400 . S
C1457 C1458 1.398 . S
C1458 H1446 0.950 . S
C1458 C1457 1.398 . S
C1458 C1459 1.391 . S
C1459 H1447 0.950 . S
C1459 C1455 1.393 . S
C1459 C1458 1.391 . S
H1460 C1468 0.950 . S
H1461 C1473 0.950 . S
H1462 C1470 0.950 . S
H1463 C1472 0.950 . S
H1464 C1474 0.950 . S
H1465 C1476 0.950 . S
H1466 C1478 0.950 . S
H1467 C1479 0.950 . S
C1468 H1460 0.950 . S
C1468 C1469 1.386 . S
C1468 C1470 1.391 . S
C1469 C1468 1.386 . S
C1469 C1473 1.393 . S
C1470 H1462 0.950 . S
C1470 C1468 1.391 . S
C1470 C1471 1.400 . S
C1471 C1470 1.400 . S
C1471 C1472 1.398 . S
C1471 C1477 1.491 . S
C1472 H1463 0.950 . S
C1472 C1471 1.398 . S
C1472 C1473 1.391 . S
C1473 H1461 0.950 . S
C1473 C1469 1.393 . S
C1473 C1472 1.391 . S
C1474 H1464 0.950 . S
C1474 C1475 1.386 . S
C1474 C1476 1.391 . S
C1475 C1474 1.386 . S
C1475 C1479 1.393 . S
C1476 H1465 0.950 . S
C1476 C1474 1.391 . S
C1476 C1477 1.400 . S
C1477 C1471 1.491 . S
C1477 C1476 1.400 . S
C1477 C1478 1.398 . S
C1478 H1466 0.950 . S
C1478 C1477 1.398 . S
C1478 C1479 1.391 . S
C1479 H1467 0.950 . S
C1479 C1475 1.393 . S
C1479 C1478 1.391 . S
H1480 C1488 0.950 . S
H1481 C1493 0.950 . S
H1482 C1490 0.950 . S
H1483 C1492 0.950 . S
H1484 C1494 0.950 . S
H1485 C1496 0.950 . S
H1486 C1498 0.950 . S
H1487 C1499 0.950 . S
C1488 H1480 0.950 . S
C1488 C1489 1.386 . S
C1488 C1490 1.391 . S
C1489 C1488 1.386 . S
C1489 C1493 1.393 . S
C1490 H1482 0.950 . S
C1490 C1488 1.391 . S
C1490 C1491 1.400 . S
C1491 C1490 1.400 . S
C1491 C1492 1.398 . S
C1491 C1497 1.491 . S
C1492 H1483 0.950 . S
C1492 C1491 1.398 . S
C1492 C1493 1.391 . S
C1493 H1481 0.950 . S
C1493 C1489 1.393 . S
C1493 C1492 1.391 . S
C1494 H1484 0.950 . S
C1494 C1495 1.386 . S
C1494 C1496 1.391 . S
C1495 C1494 1.386 . S
C1495 C1499 1.393 . S
C1496 H1485 0.950 . S
C1496 C1494 1.391 . S
C1496 C1497 1.400 . S
C1497 C1491 1.491 . S
C1497 C1496 1.400 . S
C1497 C1498 1.398 . S
C1498 H1486 0.950 . S
C1498 C1497 1.398 . S
C1498 C1499 1.391 . S
C1499 H1487 0.950 . S
C1499 C1495 1.393 . S
C1499 C1498 1.391 . S
H1500 C1508 0.950 . S
H1501 C1513 0.950 . S
H1502 C1510 0.950 . S
H1503 C1512 0.950 . S
H1504 C1514 0.950 . S
H1505 C1516 0.950 . S
H1506 C1518 0.950 . S
H1507 C1519 0.950 . S
C1508 H1500 0.950 . S
C1508 C1509 1.386 . S
C1508 C1510 1.391 . S
C1509 C1508 1.386 . S
C1509 C1513 1.393 . S
C1510 H1502 0.950 . S
C1510 C1508 1.391 . S
C1510 C1511 1.400 . S
C1511 C1510 1.400 . S
C1511 C1512 1.398 . S
C1511 C1517 1.491 . S
C1512 H1503 0.950 . S
C1512 C1511 1.398 . S
C1512 C1513 1.391 . S
C1513 H1501 0.950 . S
C1513 C1509 1.393 . S
C1513 C1512 1.391 . S
C1514 H1504 0.950 . S
C1514 C1515 1.386 . S
C1514 C1516 1.391 . S
C1515 C1514 1.386 . S
C1515 C1519 1.393 . S
C1516 H1505 0.950 . S
C1516 C1514 1.391 . S
C1516 C1517 1.400 . S
C1517 C1511 1.491 . S
C1517 C1516 1.400 . S
C1517 C1518 1.398 . S
C1518 H1506 0.950 . S
C1518 C1517 1.398 . S
C1518 C1519 1.391 . S
C1519 H1507 0.950 . S
C1519 C1515 1.393 . S
C1519 C1518 1.391 . S
H1520 C1528 0.950 . S
H1521 C1533 0.950 . S
H1522 C1530 0.950 . S
H1523 C1532 0.950 . S
H1524 C1534 0.950 . S
H1525 C1536 0.950 . S
H1526 C1538 0.950 . S
H1527 C1539 0.950 . S
C1528 H1520 0.950 . S
C1528 C1529 1.386 . S
C1528 C1530 1.391 . S
C1529 C1528 1.386 . S
C1529 C1533 1.393 . S
C1530 H1522 0.950 . S
C1530 C1528 1.391 . S
C1530 C1531 1.400 . S
C1531 C1530 1.400 . S
C1531 C1532 1.398 . S
C1531 C1537 1.491 . S
C1532 H1523 0.950 . S
C1532 C1531 1.398 . S
C1532 C1533 1.391 . S
C1533 H1521 0.950 . S
C1533 C1529 1.393 . S
C1533 C1532 1.391 . S
C1534 H1524 0.950 . S
C1534 C1535 1.386 . S
C1534 C1536 1.391 . S
C1535 C1534 1.386 . S
C1535 C1539 1.393 . S
C1536 H1525 0.950 . S
C1536 C1534 1.391 . S
C1536 C1537 1.400 . S
C1537 C1531 1.491 . S
C1537 C1536 1.400 . S
C1537 C1538 1.398 . S
C1538 H1526 0.950 . S
C1538 C1537 1.398 . S
C1538 C1539 1.391 . S
C1539 H1527 0.950 . S
C1539 C1535 1.393 . S
C1539 C1538 1.391 . S
H1540 C1548 0.950 . S
H1541 C1553 0.950 . S
H1542 C1550 0.950 . S
H1543 C1552 0.950 . S
H1544 C1554 0.950 . S
H1545 C1556 0.950 . S
H1546 C1558 0.950 . S
H1547 C1559 0.950 . S
C1548 H1540 0.950 . S
C1548 C1549 1.386 . S
C1548 C1550 1.391 . S
C1549 C1548 1.386 . S
C1549 C1553 1.393 . S
C1550 H1542 0.950 . S
C1550 C1548 1.391 . S
C1550 C1551 1.400 . S
C1551 C1550 1.400 . S
C1551 C1552 1.398 . S
C1551 C1557 1.491 . S
C1552 H1543 0.950 . S
C1552 C1551 1.398 . S
C1552 C1553 1.391 . S
C1553 H1541 0.950 . S
C1553 C1549 1.393 . S
C1553 C1552 1.391 . S
C1554 H1544 0.950 . S
C1554 C1555 1.386 . S
C1554 C1556 1.391 . S
C1555 C1554 1.386 . S
C1555 C1559 1.393 . S
C1556 H1545 0.950 . S
C1556 C1554 1.391 . S
C1556 C1557 1.400 . S
C1557 C1551 1.491 . S
C1557 C1556 1.400 . S
C1557 C1558 1.398 . S
C1558 H1546 0.950 . S
C1558 C1557 1.398 . S
C1558 C1559 1.391 . S
C1559 H1547 0.950 . S
C1559 C1555 1.393 . S
C1559 C1558 1.391 . S
H1560 C1568 0.950 . S
H1561 C1573 0.950 . S
H1562 C1570 0.950 . S
H1563 C1572 0.950 . S
H1564 C1574 0.950 . S
H1565 C1576 0.950 . S
H1566 C1578 0.950 . S
H1567 C1579 0.950 . S
C1568 H1560 0.950 . S
C1568 C1569 1.386 . S
C1568 C1570 1.391 . S
C1569 C1568 1.386 . S
C1569 C1573 1.393 . S
C1570 H1562 0.950 . S
C1570 C1568 1.391 . S
C1570 C1571 1.400 . S
C1571 C1570 1.400 . S
C1571 C1572 1.398 . S
C1571 C1577 1.491 . S
C1572 H1563 0.950 . S
C1572 C1571 1.398 . S
C1572 C1573 1.391 . S
C1573 H1561 0.950 . S
C1573 C1569 1.393 . S
C1573 C1572 1.391 . S
C1574 H1564 0.950 . S
C1574 C1575 1.386 . S
C1574 C1576 1.391 . S
C1575 C1574 1.386 . S
C1575 C1579 1.393 . S
C1576 H1565 0.950 . S
C1576 C1574 1.391 . S
C1576 C1577 1.400 . S
C1577 C1571 1.491 . S
C1577 C1576 1.400 . S
C1577 C1578 1.398 . S
C1578 H1566 0.950 . S
C1578 C1577 1.398 . S
C1578 C1579 1.391 . S
C1579 H1567 0.950 . S
C1579 C1575 1.393 . S
C1579 C1578 1.391 . S
H1580 C1588 0.950 . S
H1581 C1593 0.950 . S
H1582 C1590 0.950 . S
H1583 C1592 0.950 . S
H1584 C1594 0.950 . S
H1585 C1596 0.950 . S
H1586 C1598 0.950 . S
H1587 C1599 0.950 . S
C1588 H1580 0.950 . S
C1588 C1589 1.386 . S
C1588 C1590 1.391 . S
C1589 C1588 1.386 . S
C1589 C1593 1.393 . S
C1590 H1582 0.950 . S
C1590 C1588 1.391 . S
C1590 C1591 1.400 . S
C1591 C1590 1.400 . S
C1591 C1592 1.398 . S
C1591 C1597 1.491 . S
C1592 H1583 0.950 . S
C1592 C1591 1.398 . S
C1592 C1593 1.391 . S
C1593 H1581 0.950 . S
C1593 C1589 1.393 . S
C1593 C1592 1.391 . S
C1594 H1584 0.950 . S
C1594 C1595 1.386 . S
C1594 C1596 1.391 . S
C1595 C1594 1.386 . S
C1595 C1599 1.393 . S
C1596 H1585 0.950 . S
C1596 C1594 1.391 . S
C1596 C1597 1.400 . S
C1597 C1591 1.491 . S
C1597 C1596 1.400 . S
C1597 C1598 1.398 . S
C1598 H1586 0.950 . S
C1598 C1597 1.398 . S
C1598 C1599 1.391 . S
C1599 H1587 0.950 . S
C1599 C1595 1.393 . S
C1599 C1598 1.391 . S
H1600 C1608 0.950 . S
H1601 C1613 0.950 . S
H1602 C1610 0.950 . S
H1603 C1612 0.950 . S
H1604 C1614 0.950 . S
H1605 C1616 0.950 . S
H1606 C1618 0.950 . S
H1607 C1619 0.950 . S
C1608 H1600 0.950 . S
C1608 C1609 1.386 . S
C1608 C1610 1.391 . S
C1609 C1608 1.386 . S
C1609 C1613 1.393 . S
C1610 H1602 0.950 . S
C1610 C1608 1.391 . S
C1610 C1611 1.400 . S
C1611 C1610 1.400 . S
C1611 C1612 1.398 . S
C1611 C1617 1.491 . S
C1612 H1603 0.950 . S
C1612 C1611 1.398 . S
C1612 C1613 1.391 . S
C1613 H1601 0.950 . S
C1613 C1609 1.393 . S
C1613 C1612 1.391 . S
C1614 H1604 0.950 . S
C1614 C1615 1.386 . S
C1614 C1616 1.391 . S
C1615 C1614 1.386 . S
C1615 C1619 1.393 . S
C1616 H1605 0.950 . S
C1616 C1614 1.391 . S
C1616 C1617 1.400 . S
C1617 C1611 1.491 . S
C1617 C1616 1.400 . S
C1617 C1618 1.398 . S
C1618 H1606 0.950 . S
C1618 C1617 1.398 . S
C1618 C1619 1.391 . S
C1619 H1607 0.950 . S
C1619 C1615 1.393 . S
C1619 C1618 1.391 . S
H1620 C1628 0.950 . S
H1621 C1633 0.950 . S
H1622 C1630 0.950 . S
H1623 C1632 0.950 . S
H1624 C1634 0.950 . S
H1625 C1636 0.950 . S
H1626 C1638 0.950 . S
H1627 C1639 0.950 . S
C1628 H1620 0.950 . S
C1628 C1629 1.386 . S
C1628 C1630 1.391 . S
C1629 C1628 1.386 . S
C1629 C1633 1.393 . S
C1630 H1622 0.950 . S
C1630 C1628 1.391 . S
C1630 C1631 1.400 . S
C1631 C1630 1.400 . S
C1631 C1632 1.398 . S
C1631 C1637 1.491 . S
C1632 H1623 0.950 . S
C1632 C1631 1.398 . S
C1632 C1633 1.391 . S
C1633 H1621 0.950 . S
C1633 C1629 1.393 . S
C1633 C1632 1.391 . S
C1634 H1624 0.950 . S
C1634 C1635 1.386 . S
C1634 C1636 1.391 . S
C1635 C1634 1.386 . S
C1635 C1639 1.393 . S
C1636 H1625 0.950 . S
C1636 C1634 1.391 . S
C1636 C1637 1.400 . S
C1637 C1631 1.491 . S
C1637 C1636 1.400 . S
C1637 C1638 1.398 . S
C1638 H1626 0.950 . S
C1638 C1637 1.398 . S
C1638 C1639 1.391 . S
C1639 H1627 0.950 . S
C1639 C1635 1.393 . S
C1639 C1638 1.391 . S
H1640 C1648 0.950 . S
H1641 C1653 0.950 . S
H1642 C1650 0.950 . S
H1643 C1652 0.950 . S
H1644 C1654 0.950 . S
H1645 C1656 0.950 . S
H1646 C1658 0.950 . S
H1647 C1659 0.950 . S
C1648 H1640 0.950 . S
C1648 C1649 1.386 . S
C1648 C1650 1.391 . S
C1649 C1648 1.386 . S
C1649 C1653 1.393 . S
C1650 H1642 0.950 . S
C1650 C1648 1.391 . S
C1650 C1651 1.400 . S
C1651 C1650 1.400 . S
C1651 C1652 1.398 . S
C1651 C1657 1.491 . S
C1652 H1643 0.950 . S
C1652 C1651 1.398 . S
C1652 C1653 1.391 . S
C1653 H1641 0.950 . S
C1653 C1649 1.393 . S
C1653 C1652 1.391 . S
C1654 H1644 0.950 . S
C1654 C1655 1.386 . S
C1654 C1656 1.391 . S
C1655 C1654 1.386 . S
C1655 C1659 1.393 . S
C1656 H1645 0.950 . S
C1656 C1654 1.391 . S
C1656 C1657 1.400 . S
C1657 C1651 1.491 . S
C1657 C1656 1.400 . S
C1657 C1658 1.398 . S
C1658 H1646 0.950 . S
C1658 C1657 1.398 . S
C1658 C1659 1.391 . S
C1659 H1647 0.950 . S
C1659 C1655 1.393 . S
C1659 C1658 1.391 . S
H1660 C1668 0.950 . S
H1661 C1673 0.950 . S
H1662 C1670 0.950 . S
H1663 C1672 0.950 . S
H1664 C1674 0.950 . S
H1665 C1676 0.950 . S
H1666 C1678 0.950 . S
H1667 C1679 0.950 . S
C1668 H1660 0.950 . S
C1668 C1669 1.386 . S
C1668 C1670 1.391 . S
C1669 C1668 1.386 . S
C1669 C1673 1.393 . S
C1670 H1662 0.950 . S
C1670 C1668 1.391 . S
C1670 C1671 1.400 . S
C1671 C1670 1.400 . S
C1671 C1672 1.398 . S
C1671 C1677 1.491 . S
C1672 H1663 0.950 . S
C1672 C1671 1.398 . S
C1672 C1673 1.391 . S
C1673 H1661 0.950 . S
C1673 C1669 1.393 . S
C1673 C1672 1.391 . S
C1674 H1664 0.950 . S
C1674 C1675 1.386 . S
C1674 C1676 1.391 . S
C1675 C1674 1.386 . S
C1675 C1679 1.393 . S
C1676 H1665 0.950 . S
C1676 C1674 1.391 . S
C1676 C1677 1.400 . S
C1677 C1671 1.491 . S
C1677 C1676 1.400 . S
C1677 C1678 1.398 . S
C1678 H1666 0.950 . S
C1678 C1677 1.398 . S
C1678 C1679 1.391 . S
C1679 H1667 0.950 . S
C1679 C1675 1.393 . S
C1679 C1678 1.391 . S
H1680 C1688 0.950 . S
H1681 C1693 0.950 . S
H1682 C1690 0.950 . S
H1683 C1692 0.950 . S
H1684 C1694 0.950 . S
H1685 C1696 0.950 . S
H1686 C1698 0.950 . S
H1687 C1699 0.950 . S
C1688 H1680 0.950 . S
C1688 C1689 1.386 . S
C1688 C1690 1.391 . S
C1689 C1688 1.386 . S
C1689 C1693 1.393 . S
C1690 H1682 0.950 . S
C1690 C1688 1.391 . S
C1690 C1691 1.400 . S
C1691 C1690 1.400 . S
C1691 C1692 1.398 . S
C1691 C1697 1.491 . S
C1692 H1683 0.950 . S
C1692 C1691 1.398 . S
C1692 C1693 1.391 . S
C1693 H1681 0.950 . S
C1693 C1689 1.393 . S
C1693 C1692 1.391 . S
C1694 H1684 0.950 . S
C1694 C1695 1.386 . S
C1694 C1696 1.391 . S
C1695 C1694 1.386 . S
C1695 C1699 1.393 . S
C1696 H1685 0.950 . S
C1696 C1694 1.391 . S
C1696 C1697 1.400 . S
C1697 C1691 1.491 . S
C1697 C1696 1.400 . S
C1697 C1698 1.398 . S
C1698 H1686 0.950 . S
C1698 C1697 1.398 . S
C1698 C1699 1.391 . S
C1699 H1687 0.950 . S
C1699 C1695 1.393 . S
C1699 C1698 1.391 . S
H1700 C1708 0.950 . S
H1701 C1713 0.950 . S
H1702 C1710 0.950 . S
H1703 C1712 0.950 . S
H1704 C1714 0.950 . S
H1705 C1716 0.950 . S
H1706 C1718 0.950 . S
H1707 C1719 0.950 . S
C1708 H1700 0.950 . S
C1708 C1709 1.386 . S
C1708 C1710 1.391 . S
C1709 C1708 1.386 . S
C1709 C1713 1.393 . S
C1710 H1702 0.950 . S
C1710 C1708 1.391 . S
C1710 C1711 1.400 . S
C1711 C1710 1.400 . S
C1711 C1712 1.398 . S
C1711 C1717 1.491 . S
C1712 H1703 0.950 . S
C1712 C1711 1.398 . S
C1712 C1713 1.391 . S
C1713 H1701 0.950 . S
C1713 C1709 1.393 . S
C1713 C1712 1.391 . S
C1714 H1704 0.950 . S
C1714 C1715 1.386 . S
C1714 C1716 1.391 . S
C1715 C1714 1.386 . S
C1715 C1719 1.393 . S
C1716 H1705 0.950 . S
C1716 C1714 1.391 . S
C1716 C1717 1.400 . S
C1717 C1711 1.491 . S
C1717 C1716 1.400 . S
C1717 C1718 1.398 . S
C1718 H1706 0.950 . S
C1718 C1717 1.398 . S
C1718 C1719 1.391 . S
C1719 H1707 0.950 . S
C1719 C1715 1.393 . S
C1719 C1718 1.391 . S
H1720 C1728 0.950 . S
H1721 C1733 0.950 . S
H1722 C1730 0.950 . S
H1723 C1732 0.950 . S
H1724 C1734 0.950 . S
H1725 C1736 0.950 . S
H1726 C1738 0.950 . S
H1727 C1739 0.950 . S
C1728 H1720 0.950 . S
C1728 C1729 1.386 . S
C1728 C1730 1.391 . S
C1729 C1728 1.386 . S
C1729 C1733 1.393 . S
C1730 H1722 0.950 . S
C1730 C1728 1.391 . S
C1730 C1731 1.400 . S
C1731 C1730 1.400 . S
C1731 C1732 1.398 . S
C1731 C1737 1.491 . S
C1732 H1723 0.950 . S
C1732 C1731 1.398 . S
C1732 C1733 1.391 . S
C1733 H1721 0.950 . S
C1733 C1729 1.393 . S
C1733 C1732 1.391 . S
C1734 H1724 0.950 . S
C1734 C1735 1.386 . S
C1734 C1736 1.391 . S
C1735 C1734 1.386 . S
C1735 C1739 1.393 . S
C1736 H1725 0.950 . S
C1736 C1734 1.391 . S
C1736 C1737 1.400 . S
C1737 C1731 1.491 . S
C1737 C1736 1.400 . S
C1737 C1738 1.398 . S
C1738 H1726 0.950 . S
C1738 C1737 1.398 . S
C1738 C1739 1.391 . S
C1739 H1727 0.950 . S
C1739 C1735 1.393 . S
C1739 C1738 1.391 . S
H1740 C1748 0.950 . S
H1741 C1753 0.950 . S
H1742 C1750 0.950 . S
H1743 C1752 0.950 . S
H1744 C1754 0.950 . S
H1745 C1756 0.950 . S
H1746 C1758 0.950 . S
H1747 C1759 0.950 . S
C1748 H1740 0.950 . S
C1748 C1749 1.386 . S
C1748 C1750 1.391 . S
C1749 C1748 1.386 . S
C1749 C1753 1.393 . S
C1750 H1742 0.950 . S
C1750 C1748 1.391 . S
C1750 C1751 1.400 . S
C1751 C1750 1.400 . S
C1751 C1752 1.398 . S
C1751 C1757 1.491 . S
C1752 H1743 0.950 . S
C1752 C1751 1.398 . S
C1752 C1753 1.391 . S
C1753 H1741 0.950 . S
C1753 C1749 1.393 . S
C1753 C1752 1.391 . S
C1754 H1744 0.950 . S
C1754 C1755 1.386 . S
C1754 C1756 1.391 . S
C1755 C1754 1.386 . S
C1755 C1759 1.393 . S
C1756 H1745 0.950 . S
C1756 C1754 1.391 . S
C1756 C1757 1.400 . S
C1757 C1751 1.491 . S
C1757 C1756 1.400 . S
C1757 C1758 1.398 . S
C1758 H1746 0.950 . S
C1758 C1757 1.398 . S
C1758 C1759 1.391 . S
C1759 H1747 0.950 . S
C1759 C1755 1.393 . S
C1759 C1758 1.391 . S
H1760 C1768 0.950 . S
H1761 C1773 0.950 . S
H1762 C1770 0.950 . S
H1763 C1772 0.950 . S
H1764 C1774 0.950 . S
H1765 C1776 0.950 . S
H1766 C1778 0.950 . S
H1767 C1779 0.950 . S
C1768 H1760 0.950 . S
C1768 C1769 1.386 . S
C1768 C1770 1.391 . S
C1769 C1768 1.386 . S
C1769 C1773 1.393 . S
C1770 H1762 0.950 . S
C1770 C1768 1.391 . S
C1770 C1771 1.400 . S
C1771 C1770 1.400 . S
C1771 C1772 1.398 . S
C1771 C1777 1.491 . S
C1772 H1763 0.950 . S
C1772 C1771 1.398 . S
C1772 C1773 1.391 . S
C1773 H1761 0.950 . S
C1773 C1769 1.393 . S
C1773 C1772 1.391 . S
C1774 H1764 0.950 . S
C1774 C1775 1.386 . S
C1774 C1776 1.391 . S
C1775 C1774 1.386 . S
C1775 C1779 1.393 . S
C1776 H1765 0.950 . S
C1776 C1774 1.391 . S
C1776 C1777 1.400 . S
C1777 C1771 1.491 . S
C1777 C1776 1.400 . S
C1777 C1778 1.398 . S
C1778 H1766 0.950 . S
C1778 C1777 1.398 . S
C1778 C1779 1.391 . S
C1779 H1767 0.950 . S
C1779 C1775 1.393 . S
C1779 C1778 1.391 . S
H1780 C1788 0.950 . S
H1781 C1793 0.950 . S
H1782 C1790 0.950 . S
H1783 C1792 0.950 . S
H1784 C1794 0.950 . S
H1785 C1796 0.950 . S
H1786 C1798 0.950 . S
H1787 C1799 0.950 . S
C1788 H1780 0.950 . S
C1788 C1789 1.386 . S
C1788 C1790 1.391 . S
C1789 C1788 1.386 . S
C1789 C1793 1.393 . S
C1790 H1782 0.950 . S
C1790 C1788 1.391 . S
C1790 C1791 1.400 . S
C1791 C1790 1.400 . S
C1791 C1792 1.398 . S
C1791 C1797 1.491 . S
C1792 H1783 0.950 . S
C1792 C1791 1.398 . S
C1792 C1793 1.391 . S
C1793 H1781 0.950 . S
C1793 C1789 1.393 . S
C1793 C1792 1.391 . S
C1794 H1784 0.950 . S
C1794 C1795 1.386 . S
C1794 C1796 1.391 . S
C1795 C1794 1.386 . S
C1795 C1799 1.393 . S
C1796 H1785 0.950 . S
C1796 C1794 1.391 . S
C1796 C1797 1.400 . S
C1797 C1791 1.491 . S
C1797 C1796 1.400 . S
C1797 C1798 1.398 . S
C1798 H1786 0.950 . S
C1798 C1797 1.398 . S
C1798 C1799 1.391 . S
C1799 H1787 0.950 . S
C1799 C1795 1.393 . S
C1799 C1798 1.391 . S
H1800 C1808 0.950 . S
H1801 C1813 0.950 . S
H1802 C1810 0.950 . S
H1803 C1812 0.950 . S
H1804 C1814 0.950 . S
H1805 C1816 0.950 . S
H1806 C1818 0.950 . S
H1807 C1819 0.950 . S
C1808 H1800 0.950 . S
C1808 C1809 1.386 . S
C1808 C1810 1.391 . S
C1809 C1808 1.386 . S
C1809 C1813 1.393 . S
C1810 H1802 0.950 . S
C1810 C1808 1.391 . S
C1810 C1811 1.400 . S
C1811 C1810 1.400 . S
C1811 C1812 1.398 . S
C1811 C1817 1.491 . S
C1812 H1803 0.950 . S
C1812 C1811 1.398 . S
C1812 C1813 1.391 . S
C1813 H1801 0.950 . S
C1813 C1809 1.393 . S
C1813 C1812 1.391 . S
C1814 H1804 0.950 . S
C1814 C1815 1.386 . S
C1814 C1816 1.391 . S
C1815 C1814 1.386 . S
C1815 C1819 1.393 . S
C1816 H1805 0.950 . S
C1816 C1814 1.391 . S
C1816 C1817 1.400 . S
C1817 C1811 1.491 . S
C1817 C1816 1.400 . S
C1817 C1818 1.398 . S
C1818 H1806 0.950 . S
C1818 C1817 1.398 . S
C1818 C1819 1.391 . S
C1819 H1807 0.950 . S
C1819 C1815 1.393 . S
C1819 C1818 1.391 . S
H1820 C1828 0.950 . S
H1821 C1833 0.950 . S
H1822 C1830 0.950 . S
H1823 C1832 0.950 . S
H1824 C1834 0.950 . S
H1825 C1836 0.950 . S
H1826 C1838 0.950 . S
H1827 C1839 0.950 . S
C1828 H1820 0.950 . S
C1828 C1829 1.386 . S
C1828 C1830 1.391 . S
C1829 C1828 1.386 . S
C1829 C1833 1.393 . S
C1830 H1822 0.950 . S
C1830 C1828 1.391 . S
C1830 C1831 1.400 . S
C1831 C1830 1.400 . S
C1831 C1832 1.398 . S
C1831 C1837 1.491 . S
C1832 H1823 0.950 . S
C1832 C1831 1.398 . S
C1832 C1833 1.391 . S
C1833 H1821 0.950 . S
C1833 C1829 1.393 . S
C1833 C1832 1.391 . S
C1834 H1824 0.950 . S
C1834 C1835 1.386 . S
C1834 C1836 1.391 . S
C1835 C1834 1.386 . S
C1835 C1839 1.393 . S
C1836 H1825 0.950 . S
C1836 C1834 1.391 . S
C1836 C1837 1.400 . S
C1837 C1831 1.491 . S
C1837 C1836 1.400 . S
C1837 C1838 1.398 . S
C1838 H1826 0.950 . S
C1838 C1837 1.398 . S
C1838 C1839 1.391 . S
C1839 H1827 0.950 . S
C1839 C1835 1.393 . S
C1839 C1838 1.391 . S
H1840 C1848 0.950 . S
H1841 C1853 0.950 . S
H1842 C1850 0.950 . S
H1843 C1852 0.950 . S
H1844 C1854 0.950 . S
H1845 C1856 0.950 . S
H1846 C1858 0.950 . S
H1847 C1859 0.950 . S
C1848 H1840 0.950 . S
C1848 C1849 1.386 . S
C1848 C1850 1.391 . S
C1849 C1848 1.386 . S
C1849 C1853 1.393 . S
C1850 H1842 0.950 . S
C1850 C1848 1.391 . S
C1850 C1851 1.400 . S
C1851 C1850 1.400 . S
C1851 C1852 1.398 . S
C1851 C1857 1.491 . S
C1852 H1843 0.950 . S
C1852 C1851 1.398 . S
C1852 C1853 1.391 . S
C1853 H1841 0.950 . S
C1853 C1849 1.393 . S
C1853 C1852 1.391 . S
C1854 H1844 0.950 . S
C1854 C1855 1.386 . S
C1854 C1856 1.391 . S
C1855 C1854 1.386 . S
C1855 C1859 1.393 . S
C1856 H1845 0.950 . S
C1856 C1854 1.391 . S
C1856 C1857 1.400 . S
C1857 C1851 1.491 . S
C1857 C1856 1.400 . S
C1857 C1858 1.398 . S
C1858 H1846 0.950 . S
C1858 C1857 1.398 . S
C1858 C1859 1.391 . S
C1859 H1847 0.950 . S
C1859 C1855 1.393 . S
C1859 C1858 1.391 . S
H1860 C1868 0.950 . S
H1861 C1873 0.950 . S
H1862 C1870 0.950 . S
H1863 C1872 0.950 . S
H1864 C1874 0.950 . S
H1865 C1876 0.950 . S
H1866 C1878 0.950 . S
H1867 C1879 0.950 . S
C1868 H1860 0.950 . S
C1868 C1869 1.386 . S
C1868 C1870 1.391 . S
C1869 C1868 1.386 . S
C1869 C1873 1.393 . S
C1870 H1862 0.950 . S
C1870 C1868 1.391 . S
C1870 C1871 1.400 . S
C1871 C1870 1.400 . S
C1871 C1872 1.398 . S
C1871 C1877 1.491 . S
C1872 H1863 0.950 . S
C1872 C1871 1.398 . S
C1872 C1873 1.391 . S
C1873 H1861 0.950 . S
C1873 C1869 1.393 . S
C1873 C1872 1.391 . S
C1874 H1864 0.950 . S
C1874 C1875 1.386 . S
C1874 C1876 1.391 . S
C1875 C1874 1.386 . S
C1875 C1879 1.393 . S
C1876 H1865 0.950 . S
C1876 C1874 1.391 . S
C1876 C1877 1.400 . S
C1877 C1871 1.491 . S
C1877 C1876 1.400 . S
C1877 C1878 1.398 . S
C1878 H1866 0.950 . S
C1878 C1877 1.398 . S
C1878 C1879 1.391 . S
C1879 H1867 0.950 . S
C1879 C1875 1.393 . S
C1879 C1878 1.391 . S
H1880 C1888 0.950 . S
H1881 C1893 0.950 . S
H1882 C1890 0.950 . S
H1883 C1892 0.950 . S
H1884 C1894 0.950 . S
H1885 C1896 0.950 . S
H1886 C1898 0.950 . S
H1887 C1899 0.950 . S
C1888 H1880 0.950 . S
C1888 C1889 1.386 . S
C1888 C1890 1.391 . S
C1889 C1888 1.386 . S
C1889 C1893 1.393 . S
C1890 H1882 0.950 . S
C1890 C1888 1.391 . S
C1890 C1891 1.400 . S
C1891 C1890 1.400 . S
C1891 C1892 1.398 . S
C1891 C1897 1.491 . S
C1892 H1883 0.950 . S
C1892 C1891 1.398 . S
C1892 C1893 1.391 . S
C1893 H1881 0.950 . S
C1893 C1889 1.393 . S
C1893 C1892 1.391 . S
C1894 H1884 0.950 . S
C1894 C1895 1.386 . S
C1894 C1896 1.391 . S
C1895 C1894 1.386 . S
C1895 C1899 1.393 . S
C1896 H1885 0.950 . S
C1896 C1894 1.391 . S
C1896 C1897 1.400 . S
C1897 C1891 1.491 . S
C1897 C1896 1.400 . S
C1897 C1898 1.398 . S
C1898 H1886 0.950 . S
C1898 C1897 1.398 . S
C1898 C1899 1.391 . S
C1899 H1887 0.950 . S
C1899 C1895 1.393 . S
C1899 C1898 1.391 . S
H1900 C1908 0.950 . S
H1901 C1913 0.950 . S
H1902 C1910 0.950 . S
H1903 C1912 0.950 . S
H1904 C1914 0.950 . S
H1905 C1916 0.950 . S
H1906 C1918 0.950 . S
H1907 C1919 0.950 . S
C1908 H1900 0.950 . S
C1908 C1909 1.386 . S
C1908 C1910 1.391 . S
C1909 C1908 1.386 . S
C1909 C1913 1.393 . S
C1910 H1902 0.950 . S
C1910 C1908 1.391 . S
C1910 C1911 1.400 . S
C1911 C1910 1.400 . S
C1911 C1912 1.398 . S
C1911 C1917 1.491 . S
C1912 H1903 0.950 . S
C1912 C1911 1.398 . S
C1912 C1913 1.391 . S
C1913 H1901 0.950 . S
C1913 C1909 1.393 . S
C1913 C1912 1.391 . S
C1914 H1904 0.950 . S
C1914 C1915 1.386 . S
C1914 C1916 1.391 . S
C1915 C1914 1.386 . S
C1915 C1919 1.393 . S
C1916 H1905 0.950 . S
C1916 C1914 1.391 . S
C1916 C1917 1.400 . S
C1917 C1911 1.491 . S
C1917 C1916 1.400 . S
C1917 C1918 1.398 . S
C1918 H1906 0.950 . S
C1918 C1917 1.398 . S
C1918 C1919 1.391 . S
C1919 H1907 0.950 . S
C1919 C1915 1.393 . S
C1919 C1918 1.391 . S
H1920 C1928 0.950 . S
H1921 C1933 0.950 . S
H1922 C1930 0.950 . S
H1923 C1932 0.950 . S
H1924 C1934 0.950 . S
H1925 C1936 0.950 . S
H1926 C1938 0.950 . S
H1927 C1939 0.950 . S
C1928 H1920 0.950 . S
C1928 C1929 1.386 . S
C1928 C1930 1.391 . S
C1929 C1928 1.386 . S
C1929 C1933 1.393 . S
C1930 H1922 0.950 . S
C1930 C1928 1.391 . S
C1930 C1931 1.400 . S
C1931 C1930 1.400 . S
C1931 C1932 1.398 . S
C1931 C1937 1.491 1_455 S
C1932 H1923 0.950 . S
C1932 C1931 1.398 . S
C1932 C1933 1.391 . S
C1933 H1921 0.950 . S
C1933 C1929 1.393 . S
C1933 C1932 1.391 . S
C1934 H1924 0.950 . S
C1934 C1935 1.386 . S
C1934 C1936 1.391 . S
C1935 C1934 1.386 . S
C1935 C1939 1.393 . S
C1936 H1925 0.950 . S
C1936 C1934 1.391 . S
C1936 C1937 1.400 . S
C1937 C1931 1.491 1_655 S
C1937 C1936 1.400 . S
C1937 C1938 1.398 . S
C1938 H1926 0.950 . S
C1938 C1937 1.398 . S
C1938 C1939 1.391 . S
C1939 H1927 0.950 . S
C1939 C1935 1.393 . S
C1939 C1938 1.391 . S
H1940 C1948 0.950 . S
H1941 C1953 0.950 . S
H1942 C1950 0.950 . S
H1943 C1952 0.950 . S
H1944 C1954 0.950 . S
H1945 C1956 0.950 . S
H1946 C1958 0.950 . S
H1947 C1959 0.950 . S
C1948 H1940 0.950 . S
C1948 C1949 1.386 . S
C1948 C1950 1.391 . S
C1949 C1948 1.386 . S
C1949 C1953 1.393 1_655 S
C1950 H1942 0.950 . S
C1950 C1948 1.391 . S
C1950 C1951 1.400 . S
C1951 C1950 1.400 . S
C1951 C1952 1.398 1_655 S
C1951 C1957 1.491 1_655 S
C1952 H1943 0.950 . S
C1952 C1951 1.398 1_455 S
C1952 C1953 1.391 . S
C1953 H1941 0.950 . S
C1953 C1949 1.393 1_455 S
C1953 C1952 1.391 . S
C1954 H1944 0.950 . S
C1954 C1955 1.386 . S
C1954 C1956 1.391 . S
C1955 C1954 1.386 . S
C1955 C1959 1.393 1_455 S
C1956 H1945 0.950 . S
C1956 C1954 1.391 . S
C1956 C1957 1.400 . S
C1957 C1951 1.491 1_455 S
C1957 C1956 1.400 . S
C1957 C1958 1.398 1_455 S
C1958 H1946 0.950 . S
C1958 C1957 1.398 1_655 S
C1958 C1959 1.391 . S
C1959 H1947 0.950 . S
C1959 C1955 1.393 1_655 S
C1959 C1958 1.391 . S
H1960 C1968 0.950 . S
H1961 C1973 0.950 . S
H1962 C1970 0.950 . S
H1963 C1972 0.950 . S
H1964 C1974 0.950 . S
H1965 C1976 0.950 . S
H1966 C1978 0.950 . S
H1967 C1979 0.950 . S
C1968 H1960 0.950 . S
C1968 C1969 1.386 . S
C1968 C1970 1.391 . S
C1969 C1968 1.386 . S
C1969 C1973 1.393 . S
C1970 H1962 0.950 . S
C1970 C1968 1.391 . S
C1970 C1971 1.400 . S
C1971 C1970 1.400 . S
C1971 C1972 1.398 . S
C1971 C1977 1.491 . S
C1972 H1963 0.950 . S
C1972 C1971 1.398 . S
C1972 C1973 1.391 . S
C1973 H1961 0.950 . S
C1973 C1969 1.393 . S
C1973 C1972 1.391 . S
C1974 H1964 0.950 . S
C1974 C1975 1.386 . S
C1974 C1976 1.391 . S
C1975 C1974 1.386 . S
C1975 C1979 1.393 . S
C1976 H1965 0.950 . S
C1976 C1974 1.391 . S
C1976 C1977 1.400 . S
C1977 C1971 1.491 . S
C1977 C1976 1.400 . S
C1977 C1978 1.398 . S
C1978 H1966 0.950 . S
C1978 C1977 1.398 . S
C1978 C1979 1.391 . S
C1979 H1967 0.950 . S
C1979 C1975 1.393 . S
C1979 C1978 1.391 . S
H1980 C1988 0.950 . S
H1981 C1993 0.950 . S
H1982 C1990 0.950 . S
H1983 C1992 0.950 . S
H1984 C1994 0.950 . S
H1985 C1996 0.950 . S
H1986 C1998 0.950 . S
H1987 C1999 0.950 . S
C1988 H1980 0.950 . S
C1988 C1989 1.386 . S
C1988 C1990 1.391 . S
C1989 C1988 1.386 . S
C1989 C1993 1.393 . S
C1990 H1982 0.950 . S
C1990 C1988 1.391 . S
C1990 C1991 1.400 . S
C1991 C1990 1.400 . S
C1991 C1992 1.398 . S
C1991 C1997 1.491 . S
C1992 H1983 0.950 . S
C1992 C1991 1.398 . S
C1992 C1993 1.391 . S
C1993 H1981 0.950 . S
C1993 C1989 1.393 . S
C1993 C1992 1.391 . S
C1994 H1984 0.950 . S
C1994 C1995 1.386 . S
C1994 C1996 1.391 . S
C1995 C1994 1.386 . S
C1995 C1999 1.393 . S
C1996 H1985 0.950 . S
C1996 C1994 1.391 . S
C1996 C1997 1.400 . S
C1997 C1991 1.491 . S
C1997 C1996 1.400 . S
C1997 C1998 1.398 . S
C1998 H1986 0.950 . S
C1998 C1997 1.398 . S
C1998 C1999 1.391 . S
C1999 H1987 0.950 . S
C1999 C1995 1.393 . S
C1999 C1998 1.391 . S
H2000 C2008 0.950 . S
H2001 C2013 0.950 . S
H2002 C2010 0.950 . S
H2003 C2012 0.950 . S
H2004 C2014 0.950 . S
H2005 C2016 0.950 . S
H2006 C2018 0.950 . S
H2007 C2019 0.950 . S
C2008 H2000 0.950 . S
C2008 C2009 1.386 . S
C2008 C2010 1.391 . S
C2009 C2008 1.386 . S
C2009 C2013 1.393 . S
C2010 H2002 0.950 . S
C2010 C2008 1.391 . S
C2010 C2011 1.400 . S
C2011 C2010 1.400 . S
C2011 C2012 1.398 . S
C2011 C2017 1.491 1_655 S
C2012 H2003 0.950 . S
C2012 C2011 1.398 . S
C2012 C2013 1.391 . S
C2013 H2001 0.950 . S
C2013 C2009 1.393 . S
C2013 C2012 1.391 . S
C2014 H2004 0.950 . S
C2014 C2015 1.386 . S
C2014 C2016 1.391 . S
C2015 C2014 1.386 . S
C2015 C2019 1.393 . S
C2016 H2005 0.950 . S
C2016 C2014 1.391 . S
C2016 C2017 1.400 . S
C2017 C2011 1.491 1_455 S
C2017 C2016 1.400 . S
C2017 C2018 1.398 . S
C2018 H2006 0.950 . S
C2018 C2017 1.398 . S
C2018 C2019 1.391 . S
C2019 H2007 0.950 . S
C2019 C2015 1.393 . S
C2019 C2018 1.391 . S
H2020 C2028 0.950 . S
H2021 C2033 0.950 . S
H2022 C2030 0.950 . S
H2023 C2032 0.950 . S
H2024 C2034 0.950 . S
H2025 C2036 0.950 . S
H2026 C2038 0.950 . S
H2027 C2039 0.950 . S
C2028 H2020 0.950 . S
C2028 C2029 1.386 . S
C2028 C2030 1.391 . S
C2029 C2028 1.386 . S
C2029 C2033 1.393 . S
C2030 H2022 0.950 . S
C2030 C2028 1.391 . S
C2030 C2031 1.400 . S
C2031 C2030 1.400 . S
C2031 C2032 1.398 . S
C2031 C2037 1.491 . S
C2032 H2023 0.950 . S
C2032 C2031 1.398 . S
C2032 C2033 1.391 . S
C2033 H2021 0.950 . S
C2033 C2029 1.393 . S
C2033 C2032 1.391 . S
C2034 H2024 0.950 . S
C2034 C2035 1.386 . S
C2034 C2036 1.391 . S
C2035 C2034 1.386 . S
C2035 C2039 1.393 . S
C2036 H2025 0.950 . S
C2036 C2034 1.391 . S
C2036 C2037 1.400 . S
C2037 C2031 1.491 . S
C2037 C2036 1.400 . S
C2037 C2038 1.398 . S
C2038 H2026 0.950 . S
C2038 C2037 1.398 . S
C2038 C2039 1.391 . S
C2039 H2027 0.950 . S
C2039 C2035 1.393 . S
C2039 C2038 1.391 . S
H2040 C2048 0.950 . S
H2041 C2053 0.950 . S
H2042 C2050 0.950 . S
H2043 C2052 0.950 . S
H2044 C2054 0.950 . S
H2045 C2056 0.950 . S
H2046 C2058 0.950 . S
H2047 C2059 0.950 . S
C2048 H2040 0.950 . S
C2048 C2049 1.386 . S
C2048 C2050 1.391 . S
C2049 C2048 1.386 . S
C2049 C2053 1.393 . S
C2050 H2042 0.950 . S
C2050 C2048 1.391 . S
C2050 C2051 1.400 . S
C2051 C2050 1.400 . S
C2051 C2052 1.398 . S
C2051 C2057 1.491 . S
C2052 H2043 0.950 . S
C2052 C2051 1.398 . S
C2052 C2053 1.391 . S
C2053 H2041 0.950 . S
C2053 C2049 1.393 . S
C2053 C2052 1.391 . S
C2054 H2044 0.950 . S
C2054 C2055 1.386 . S
C2054 C2056 1.391 . S
C2055 C2054 1.386 . S
C2055 C2059 1.393 . S
C2056 H2045 0.950 . S
C2056 C2054 1.391 . S
C2056 C2057 1.400 . S
C2057 C2051 1.491 . S
C2057 C2056 1.400 . S
C2057 C2058 1.398 . S
C2058 H2046 0.950 . S
C2058 C2057 1.398 . S
C2058 C2059 1.391 . S
C2059 H2047 0.950 . S
C2059 C2055 1.393 . S
C2059 C2058 1.391 . S
H2060 C2068 0.950 . S
H2061 C2073 0.950 . S
H2062 C2070 0.950 . S
H2063 C2072 0.950 . S
H2064 C2074 0.950 . S
H2065 C2076 0.950 . S
H2066 C2078 0.950 . S
H2067 C2079 0.950 . S
C2068 H2060 0.950 . S
C2068 C2069 1.386 . S
C2068 C2070 1.391 . S
C2069 C2068 1.386 . S
C2069 C2073 1.393 1_455 S
C2070 H2062 0.950 . S
C2070 C2068 1.391 . S
C2070 C2071 1.400 . S
C2071 C2070 1.400 . S
C2071 C2072 1.398 1_455 S
C2071 C2077 1.491 1_455 S
C2072 H2063 0.950 . S
C2072 C2071 1.398 1_655 S
C2072 C2073 1.391 . S
C2073 H2061 0.950 . S
C2073 C2069 1.393 1_655 S
C2073 C2072 1.391 . S
C2074 H2064 0.950 . S
C2074 C2075 1.386 . S
C2074 C2076 1.391 . S
C2075 C2074 1.386 . S
C2075 C2079 1.393 1_655 S
C2076 H2065 0.950 . S
C2076 C2074 1.391 . S
C2076 C2077 1.400 . S
C2077 C2071 1.491 1_655 S
C2077 C2076 1.400 . S
C2077 C2078 1.398 1_655 S
C2078 H2066 0.950 . S
C2078 C2077 1.398 1_455 S
C2078 C2079 1.391 . S
C2079 H2067 0.950 . S
C2079 C2075 1.393 1_455 S
C2079 C2078 1.391 . S
H2080 C2088 0.950 . S
H2081 C2093 0.950 . S
H2082 C2090 0.950 . S
H2083 C2092 0.950 . S
H2084 C2094 0.950 . S
H2085 C2096 0.950 . S
H2086 C2098 0.950 . S
H2087 C2099 0.950 . S
C2088 H2080 0.950 . S
C2088 C2089 1.386 . S
C2088 C2090 1.391 . S
C2089 C2088 1.386 . S
C2089 C2093 1.393 . S
C2090 H2082 0.950 . S
C2090 C2088 1.391 . S
C2090 C2091 1.400 . S
C2091 C2090 1.400 . S
C2091 C2092 1.398 . S
C2091 C2097 1.491 1_455 S
C2092 H2083 0.950 . S
C2092 C2091 1.398 . S
C2092 C2093 1.391 . S
C2093 H2081 0.950 . S
C2093 C2089 1.393 . S
C2093 C2092 1.391 . S
C2094 H2084 0.950 . S
C2094 C2095 1.386 . S
C2094 C2096 1.391 . S
C2095 C2094 1.386 . S
C2095 C2099 1.393 . S
C2096 H2085 0.950 . S
C2096 C2094 1.391 . S
C2096 C2097 1.400 . S
C2097 C2091 1.491 1_655 S
C2097 C2096 1.400 . S
C2097 C2098 1.398 . S
C2098 H2086 0.950 . S
C2098 C2097 1.398 . S
C2098 C2099 1.391 . S
C2099 H2087 0.950 . S
C2099 C2095 1.393 . S
C2099 C2098 1.391 . S
H2100 C2108 0.950 . S
H2101 C2113 0.950 . S
H2102 C2110 0.950 . S
H2103 C2112 0.950 . S
H2104 C2114 0.950 . S
H2105 C2116 0.950 . S
H2106 C2118 0.950 . S
H2107 C2119 0.950 . S
C2108 H2100 0.950 . S
C2108 C2109 1.386 . S
C2108 C2110 1.391 . S
C2109 C2108 1.386 . S
C2109 C2113 1.393 1_655 S
C2110 H2102 0.950 . S
C2110 C2108 1.391 . S
C2110 C2111 1.400 . S
C2111 C2110 1.400 . S
C2111 C2112 1.398 1_655 S
C2111 C2117 1.491 1_655 S
C2112 H2103 0.950 . S
C2112 C2111 1.398 1_455 S
C2112 C2113 1.391 . S
C2113 H2101 0.950 . S
C2113 C2109 1.393 1_455 S
C2113 C2112 1.391 . S
C2114 H2104 0.950 . S
C2114 C2115 1.386 . S
C2114 C2116 1.391 . S
C2115 C2114 1.386 . S
C2115 C2119 1.393 1_455 S
C2116 H2105 0.950 . S
C2116 C2114 1.391 . S
C2116 C2117 1.400 . S
C2117 C2111 1.491 1_455 S
C2117 C2116 1.400 . S
C2117 C2118 1.398 1_455 S
C2118 H2106 0.950 . S
C2118 C2117 1.398 1_655 S
C2118 C2119 1.391 . S
C2119 H2107 0.950 . S
C2119 C2115 1.393 1_655 S
C2119 C2118 1.391 . S
H2120 C2128 0.950 . S
H2121 C2133 0.950 . S
H2122 C2130 0.950 . S
H2123 C2132 0.950 . S
H2124 C2134 0.950 . S
H2125 C2136 0.950 . S
H2126 C2138 0.950 . S
H2127 C2139 0.950 . S
C2128 H2120 0.950 . S
C2128 C2129 1.386 . S
C2128 C2130 1.391 . S
C2129 C2128 1.386 . S
C2129 C2133 1.393 . S
C2130 H2122 0.950 . S
C2130 C2128 1.391 . S
C2130 C2131 1.400 . S
C2131 C2130 1.400 . S
C2131 C2132 1.398 . S
C2131 C2137 1.491 . S
C2132 H2123 0.950 . S
C2132 C2131 1.398 . S
C2132 C2133 1.391 . S
C2133 H2121 0.950 . S
C2133 C2129 1.393 . S
C2133 C2132 1.391 . S
C2134 H2124 0.950 . S
C2134 C2135 1.386 . S
C2134 C2136 1.391 . S
C2135 C2134 1.386 . S
C2135 C2139 1.393 . S
C2136 H2125 0.950 . S
C2136 C2134 1.391 . S
C2136 C2137 1.400 . S
C2137 C2131 1.491 . S
C2137 C2136 1.400 . S
C2137 C2138 1.398 . S
C2138 H2126 0.950 . S
C2138 C2137 1.398 . S
C2138 C2139 1.391 . S
C2139 H2127 0.950 . S
C2139 C2135 1.393 . S
C2139 C2138 1.391 . S
H2140 C2148 0.950 . S
H2141 C2153 0.950 . S
H2142 C2150 0.950 . S
H2143 C2152 0.950 . S
H2144 C2154 0.950 . S
H2145 C2156 0.950 . S
H2146 C2158 0.950 . S
H2147 C2159 0.950 . S
C2148 H2140 0.950 . S
C2148 C2149 1.386 . S
C2148 C2150 1.391 . S
C2149 C2148 1.386 . S
C2149 C2153 1.393 . S
C2150 H2142 0.950 . S
C2150 C2148 1.391 . S
C2150 C2151 1.400 . S
C2151 C2150 1.400 . S
C2151 C2152 1.398 . S
C2151 C2157 1.491 . S
C2152 H2143 0.950 . S
C2152 C2151 1.398 . S
C2152 C2153 1.391 . S
C2153 H2141 0.950 . S
C2153 C2149 1.393 . S
C2153 C2152 1.391 . S
C2154 H2144 0.950 . S
C2154 C2155 1.386 . S
C2154 C2156 1.391 . S
C2155 C2154 1.386 . S
C2155 C2159 1.393 . S
C2156 H2145 0.950 . S
C2156 C2154 1.391 . S
C2156 C2157 1.400 . S
C2157 C2151 1.491 . S
C2157 C2156 1.400 . S
C2157 C2158 1.398 . S
C2158 H2146 0.950 . S
C2158 C2157 1.398 . S
C2158 C2159 1.391 . S
C2159 H2147 0.950 . S
C2159 C2155 1.393 . S
C2159 C2158 1.391 . S
H2160 C2168 0.950 . S
H2161 C2173 0.950 . S
H2162 C2170 0.950 . S
H2163 C2172 0.950 . S
H2164 C2174 0.950 . S
H2165 C2176 0.950 . S
H2166 C2178 0.950 . S
H2167 C2179 0.950 . S
C2168 H2160 0.950 . S
C2168 C2169 1.386 . S
C2168 C2170 1.391 . S
C2169 C2168 1.386 . S
C2169 C2173 1.393 . S
C2170 H2162 0.950 . S
C2170 C2168 1.391 . S
C2170 C2171 1.400 . S
C2171 C2170 1.400 . S
C2171 C2172 1.398 . S
C2171 C2177 1.491 1_455 S
C2172 H2163 0.950 . S
C2172 C2171 1.398 . S
C2172 C2173 1.391 . S
C2173 H2161 0.950 . S
C2173 C2169 1.393 . S
C2173 C2172 1.391 . S
C2174 H2164 0.950 . S
C2174 C2175 1.386 . S
C2174 C2176 1.391 . S
C2175 C2174 1.386 . S
C2175 C2179 1.393 . S
C2176 H2165 0.950 . S
C2176 C2174 1.391 . S
C2176 C2177 1.400 . S
C2177 C2171 1.491 1_655 S
C2177 C2176 1.400 . S
C2177 C2178 1.398 . S
C2178 H2166 0.950 . S
C2178 C2177 1.398 . S
C2178 C2179 1.391 . S
C2179 H2167 0.950 . S
C2179 C2175 1.393 . S
C2179 C2178 1.391 . S
H2180 C2188 0.950 . S
H2181 C2193 0.950 . S
H2182 C2190 0.950 . S
H2183 C2192 0.950 . S
H2184 C2194 0.950 . S
H2185 C2196 0.950 . S
H2186 C2198 0.950 . S
H2187 C2199 0.950 . S
C2188 H2180 0.950 . S
C2188 C2189 1.386 . S
C2188 C2190 1.391 . S
C2189 C2188 1.386 . S
C2189 C2193 1.393 . S
C2190 H2182 0.950 . S
C2190 C2188 1.391 . S
C2190 C2191 1.400 . S
C2191 C2190 1.400 . S
C2191 C2192 1.398 . S
C2191 C2197 1.491 . S
C2192 H2183 0.950 . S
C2192 C2191 1.398 . S
C2192 C2193 1.391 . S
C2193 H2181 0.950 . S
C2193 C2189 1.393 . S
C2193 C2192 1.391 . S
C2194 H2184 0.950 . S
C2194 C2195 1.386 . S
C2194 C2196 1.391 . S
C2195 C2194 1.386 . S
C2195 C2199 1.393 . S
C2196 H2185 0.950 . S
C2196 C2194 1.391 . S
C2196 C2197 1.400 . S
C2197 C2191 1.491 . S
C2197 C2196 1.400 . S
C2197 C2198 1.398 . S
C2198 H2186 0.950 . S
C2198 C2197 1.398 . S
C2198 C2199 1.391 . S
C2199 H2187 0.950 . S
C2199 C2195 1.393 . S
C2199 C2198 1.391 . S
H2200 C2208 0.950 . S
H2201 C2213 0.950 . S
H2202 C2210 0.950 . S
H2203 C2212 0.950 . S
H2204 C2214 0.950 . S
H2205 C2216 0.950 . S
H2206 C2218 0.950 . S
H2207 C2219 0.950 . S
C2208 H2200 0.950 . S
C2208 C2209 1.386 . S
C2208 C2210 1.391 . S
C2209 C2208 1.386 . S
C2209 C2213 1.393 . S
C2210 H2202 0.950 . S
C2210 C2208 1.391 . S
C2210 C2211 1.400 . S
C2211 C2210 1.400 . S
C2211 C2212 1.398 . S
C2211 C2217 1.491 . S
C2212 H2203 0.950 . S
C2212 C2211 1.398 . S
C2212 C2213 1.391 . S
C2213 H2201 0.950 . S
C2213 C2209 1.393 . S
C2213 C2212 1.391 . S
C2214 H2204 0.950 . S
C2214 C2215 1.386 . S
C2214 C2216 1.391 . S
C2215 C2214 1.386 . S
C2215 C2219 1.393 . S
C2216 H2205 0.950 . S
C2216 C2214 1.391 . S
C2216 C2217 1.400 . S
C2217 C2211 1.491 . S
C2217 C2216 1.400 . S
C2217 C2218 1.398 . S
C2218 H2206 0.950 . S
C2218 C2217 1.398 . S
C2218 C2219 1.391 . S
C2219 H2207 0.950 . S
C2219 C2215 1.393 . S
C2219 C2218 1.391 . S
H2220 C2228 0.950 . S
H2221 C2233 0.949 1_455 S
H2222 C2230 0.950 . S
H2223 C2232 0.950 . S
H2224 C2234 0.950 . S
H2225 C2236 0.950 . S
H2226 C2238 0.950 . S
H2227 C2239 0.949 1_655 S
C2228 H2220 0.950 . S
C2228 C2229 1.386 . S
C2228 C2230 1.391 . S
C2229 C2228 1.386 . S
C2229 C2233 1.393 . S
C2230 H2222 0.950 . S
C2230 C2228 1.391 . S
C2230 C2231 1.400 . S
C2231 C2230 1.400 . S
C2231 C2232 1.398 1_655 S
C2231 C2237 1.491 1_655 S
C2232 H2223 0.950 . S
C2232 C2231 1.398 1_455 S
C2232 C2233 1.390 1_455 S
C2233 H2221 0.949 1_655 S
C2233 C2229 1.393 . S
C2233 C2232 1.390 1_655 S
C2234 H2224 0.950 . S
C2234 C2235 1.386 . S
C2234 C2236 1.391 . S
C2235 C2234 1.386 . S
C2235 C2239 1.393 . S
C2236 H2225 0.950 . S
C2236 C2234 1.391 . S
C2236 C2237 1.400 . S
C2237 C2231 1.491 1_455 S
C2237 C2236 1.400 . S
C2237 C2238 1.398 1_455 S
C2238 H2226 0.950 . S
C2238 C2237 1.398 1_655 S
C2238 C2239 1.390 1_655 S
C2239 H2227 0.949 1_455 S
C2239 C2235 1.393 . S
C2239 C2238 1.390 1_455 S
H2240 C2248 0.950 . S
H2241 C2253 0.950 . S
H2242 C2250 0.950 . S
H2243 C2252 0.950 . S
H2244 C2254 0.950 . S
H2245 C2256 0.950 . S
H2246 C2258 0.950 . S
H2247 C2259 0.950 . S
C2248 H2240 0.950 . S
C2248 C2249 1.386 . S
C2248 C2250 1.391 . S
C2249 C2248 1.386 . S
C2249 C2253 1.393 . S
C2250 H2242 0.950 . S
C2250 C2248 1.391 . S
C2250 C2251 1.400 . S
C2251 C2250 1.400 . S
C2251 C2252 1.398 . S
C2251 C2257 1.491 . S
C2252 H2243 0.950 . S
C2252 C2251 1.398 . S
C2252 C2253 1.391 . S
C2253 H2241 0.950 . S
C2253 C2249 1.393 . S
C2253 C2252 1.391 . S
C2254 H2244 0.950 . S
C2254 C2255 1.386 . S
C2254 C2256 1.391 . S
C2255 C2254 1.386 . S
C2255 C2259 1.393 . S
C2256 H2245 0.950 . S
C2256 C2254 1.391 . S
C2256 C2257 1.400 . S
C2257 C2251 1.491 . S
C2257 C2256 1.400 . S
C2257 C2258 1.398 . S
C2258 H2246 0.950 . S
C2258 C2257 1.398 . S
C2258 C2259 1.391 . S
C2259 H2247 0.950 . S
C2259 C2255 1.393 . S
C2259 C2258 1.391 . S
H2260 C2268 0.950 . S
H2261 C2273 0.950 . S
H2262 C2270 0.950 . S
H2263 C2272 0.950 . S
H2264 C2274 0.950 . S
H2265 C2276 0.950 . S
H2266 C2278 0.950 . S
H2267 C2279 0.950 . S
C2268 H2260 0.950 . S
C2268 C2269 1.386 . S
C2268 C2270 1.391 . S
C2269 C2268 1.386 . S
C2269 C2273 1.393 1_645 S
C2270 H2262 0.950 . S
C2270 C2268 1.391 . S
C2270 C2271 1.400 . S
C2271 C2270 1.400 . S
C2271 C2272 1.398 1_645 S
C2271 C2277 1.491 1_645 S
C2272 H2263 0.950 . S
C2272 C2271 1.398 1_465 S
C2272 C2273 1.391 . S
C2273 H2261 0.950 . S
C2273 C2269 1.393 1_465 S
C2273 C2272 1.391 . S
C2274 H2264 0.950 . S
C2274 C2275 1.386 . S
C2274 C2276 1.391 . S
C2275 C2274 1.386 . S
C2275 C2279 1.393 1_465 S
C2276 H2265 0.950 . S
C2276 C2274 1.391 . S
C2276 C2277 1.400 . S
C2277 C2271 1.491 1_465 S
C2277 C2276 1.400 . S
C2277 C2278 1.398 1_465 S
C2278 H2266 0.950 . S
C2278 C2277 1.398 1_645 S
C2278 C2279 1.391 . S
C2279 H2267 0.950 . S
C2279 C2275 1.393 1_645 S
C2279 C2278 1.391 . S
H2280 C2288 0.950 . S
H2281 C2293 0.950 . S
H2282 C2290 0.950 . S
H2283 C2292 0.950 . S
H2284 C2294 0.950 . S
H2285 C2296 0.950 . S
H2286 C2298 0.950 . S
H2287 C2299 0.950 . S
C2288 H2280 0.950 . S
C2288 C2289 1.386 . S
C2288 C2290 1.391 . S
C2289 C2288 1.386 . S
C2289 C2293 1.393 . S
C2290 H2282 0.950 . S
C2290 C2288 1.391 . S
C2290 C2291 1.400 . S
C2291 C2290 1.400 . S
C2291 C2292 1.398 . S
C2291 C2297 1.491 . S
C2292 H2283 0.950 . S
C2292 C2291 1.398 . S
C2292 C2293 1.391 . S
C2293 H2281 0.950 . S
C2293 C2289 1.393 . S
C2293 C2292 1.391 . S
C2294 H2284 0.950 . S
C2294 C2295 1.386 . S
C2294 C2296 1.391 . S
C2295 C2294 1.386 . S
C2295 C2299 1.393 . S
C2296 H2285 0.950 . S
C2296 C2294 1.391 . S
C2296 C2297 1.400 . S
C2297 C2291 1.491 . S
C2297 C2296 1.400 . S
C2297 C2298 1.398 . S
C2298 H2286 0.950 . S
C2298 C2297 1.398 . S
C2298 C2299 1.391 . S
C2299 H2287 0.950 . S
C2299 C2295 1.393 . S
C2299 C2298 1.391 . S
H2300 C2308 0.950 . S
H2301 C2313 0.950 . S
H2302 C2310 0.950 . S
H2303 C2312 0.950 . S
H2304 C2314 0.950 . S
H2305 C2316 0.950 . S
H2306 C2318 0.950 . S
H2307 C2319 0.950 . S
C2308 H2300 0.950 . S
C2308 C2309 1.386 . S
C2308 C2310 1.391 . S
C2309 C2308 1.386 . S
C2309 C2313 1.393 1_545 S
C2310 H2302 0.950 . S
C2310 C2308 1.391 . S
C2310 C2311 1.400 . S
C2311 C2310 1.400 . S
C2311 C2312 1.398 1_545 S
C2311 C2317 1.491 1_544 S
C2312 H2303 0.950 . S
C2312 C2311 1.398 1_565 S
C2312 C2313 1.391 . S
C2313 H2301 0.950 . S
C2313 C2309 1.393 1_565 S
C2313 C2312 1.391 . S
C2314 H2304 0.950 . S
C2314 C2315 1.386 . S
C2314 C2316 1.391 . S
C2315 C2314 1.386 . S
C2315 C2319 1.393 1_565 S
C2316 H2305 0.950 . S
C2316 C2314 1.391 . S
C2316 C2317 1.400 . S
C2317 C2311 1.491 1_566 S
C2317 C2316 1.400 . S
C2317 C2318 1.398 1_565 S
C2318 H2306 0.950 . S
C2318 C2317 1.398 1_545 S
C2318 C2319 1.391 . S
C2319 H2307 0.950 . S
C2319 C2315 1.393 1_545 S
C2319 C2318 1.391 . S
H2320 C2328 0.950 . S
H2321 C2333 0.950 . S
H2322 C2330 0.950 . S
H2323 C2332 0.950 . S
H2324 C2334 0.950 . S
H2325 C2336 0.950 . S
H2326 C2338 0.950 . S
H2327 C2339 0.950 . S
C2328 H2320 0.950 . S
C2328 C2329 1.386 . S
C2328 C2330 1.391 . S
C2329 C2328 1.386 . S
C2329 C2333 1.393 . S
C2330 H2322 0.950 . S
C2330 C2328 1.391 . S
C2330 C2331 1.400 . S
C2331 C2330 1.400 . S
C2331 C2332 1.398 . S
C2331 C2337 1.491 . S
C2332 H2323 0.950 . S
C2332 C2331 1.398 . S
C2332 C2333 1.391 . S
C2333 H2321 0.950 . S
C2333 C2329 1.393 . S
C2333 C2332 1.391 . S
C2334 H2324 0.950 . S
C2334 C2335 1.386 . S
C2334 C2336 1.391 . S
C2335 C2334 1.386 . S
C2335 C2339 1.393 . S
C2336 H2325 0.950 . S
C2336 C2334 1.391 . S
C2336 C2337 1.400 . S
C2337 C2331 1.491 . S
C2337 C2336 1.400 . S
C2337 C2338 1.398 . S
C2338 H2326 0.950 . S
C2338 C2337 1.398 . S
C2338 C2339 1.391 . S
C2339 H2327 0.950 . S
C2339 C2335 1.393 . S
C2339 C2338 1.391 . S
H2340 C2348 0.950 . S
H2341 C2353 0.950 . S
H2342 C2350 0.950 . S
H2343 C2352 0.950 . S
H2344 C2354 0.950 . S
H2345 C2356 0.950 . S
H2346 C2358 0.950 . S
H2347 C2359 0.950 . S
C2348 H2340 0.950 . S
C2348 C2349 1.386 . S
C2348 C2350 1.391 . S
C2349 C2348 1.386 . S
C2349 C2353 1.393 1_545 S
C2350 H2342 0.950 . S
C2350 C2348 1.391 . S
C2350 C2351 1.400 . S
C2351 C2350 1.400 . S
C2351 C2352 1.398 1_545 S
C2351 C2357 1.491 1_545 S
C2352 H2343 0.950 . S
C2352 C2351 1.398 1_565 S
C2352 C2353 1.391 . S
C2353 H2341 0.950 . S
C2353 C2349 1.393 1_565 S
C2353 C2352 1.391 . S
C2354 H2344 0.950 . S
C2354 C2355 1.386 . S
C2354 C2356 1.391 . S
C2355 C2354 1.386 . S
C2355 C2359 1.393 1_565 S
C2356 H2345 0.950 . S
C2356 C2354 1.391 . S
C2356 C2357 1.400 . S
C2357 C2351 1.491 1_565 S
C2357 C2356 1.400 . S
C2357 C2358 1.398 1_565 S
C2358 H2346 0.950 . S
C2358 C2357 1.398 1_545 S
C2358 C2359 1.391 . S
C2359 H2347 0.950 . S
C2359 C2355 1.393 1_545 S
C2359 C2358 1.391 . S
H2360 C2368 0.950 . S
H2361 C2373 0.950 . S
H2362 C2370 0.950 . S
H2363 C2372 0.950 . S
H2364 C2374 0.950 . S
H2365 C2376 0.950 . S
H2366 C2378 0.950 . S
H2367 C2379 0.950 . S
C2368 H2360 0.950 . S
C2368 C2369 1.386 . S
C2368 C2370 1.391 . S
C2369 C2368 1.386 . S
C2369 C2373 1.393 . S
C2370 H2362 0.950 . S
C2370 C2368 1.391 . S
C2370 C2371 1.400 . S
C2371 C2370 1.400 . S
C2371 C2372 1.398 . S
C2371 C2377 1.491 . S
C2372 H2363 0.950 . S
C2372 C2371 1.398 . S
C2372 C2373 1.391 . S
C2373 H2361 0.950 . S
C2373 C2369 1.393 . S
C2373 C2372 1.391 . S
C2374 H2364 0.950 . S
C2374 C2375 1.386 . S
C2374 C2376 1.391 . S
C2375 C2374 1.386 . S
C2375 C2379 1.393 . S
C2376 H2365 0.950 . S
C2376 C2374 1.391 . S
C2376 C2377 1.400 . S
C2377 C2371 1.491 . S
C2377 C2376 1.400 . S
C2377 C2378 1.398 . S
C2378 H2366 0.950 . S
C2378 C2377 1.398 . S
C2378 C2379 1.391 . S
C2379 H2367 0.950 . S
C2379 C2375 1.393 . S
C2379 C2378 1.391 . S
H2380 C2388 0.944 1_655 S
H2381 C2393 0.950 . S
H2382 C2390 0.950 . S
H2383 C2392 0.950 . S
H2384 C2394 0.944 1_455 S
H2385 C2396 0.950 . S
H2386 C2398 0.950 . S
H2387 C2399 0.950 . S
C2388 H2380 0.944 1_455 S
C2388 C2389 1.395 . S
C2388 C2390 1.388 1_455 S
C2389 C2388 1.395 . S
C2389 C2393 1.393 1_545 S
C2390 H2382 0.950 . S
C2390 C2388 1.388 1_655 S
C2390 C2391 1.400 1_655 S
C2391 C2390 1.400 1_455 S
C2391 C2392 1.398 1_545 S
C2391 C2397 1.491 1_446 S
C2392 H2383 0.950 . S
C2392 C2391 1.398 1_565 S
C2392 C2393 1.391 . S
C2393 H2381 0.950 . S
C2393 C2389 1.393 1_565 S
C2393 C2392 1.391 . S
C2394 H2384 0.944 1_655 S
C2394 C2395 1.395 . S
C2394 C2396 1.388 1_655 S
C2395 C2394 1.395 . S
C2395 C2399 1.393 1_565 S
C2396 H2385 0.950 . S
C2396 C2394 1.388 1_455 S
C2396 C2397 1.400 1_455 S
C2397 C2391 1.491 1_664 S
C2397 C2396 1.400 1_655 S
C2397 C2398 1.398 1_565 S
C2398 H2386 0.950 . S
C2398 C2397 1.398 1_545 S
C2398 C2399 1.391 . S
C2399 H2387 0.950 . S
C2399 C2395 1.393 1_545 S
C2399 C2398 1.391 . S
H2400 C2408 0.950 . S
H2401 C2413 0.950 . S
H2402 C2410 0.950 . S
H2403 C2412 0.950 . S
H2404 C2414 0.950 . S
H2405 C2416 0.950 . S
H2406 C2418 0.950 . S
H2407 C2419 0.950 . S
C2408 H2400 0.950 . S
C2408 C2409 1.386 . S
C2408 C2410 1.391 . S
C2409 C2408 1.386 . S
C2409 C2413 1.393 . S
C2410 H2402 0.950 . S
C2410 C2408 1.391 . S
C2410 C2411 1.400 . S
C2411 C2410 1.400 . S
C2411 C2412 1.398 . S
C2411 C2417 1.491 . S
C2412 H2403 0.950 . S
C2412 C2411 1.398 . S
C2412 C2413 1.391 . S
C2413 H2401 0.950 . S
C2413 C2409 1.393 . S
C2413 C2412 1.391 . S
C2414 H2404 0.950 . S
C2414 C2415 1.386 . S
C2414 C2416 1.391 . S
C2415 C2414 1.386 . S
C2415 C2419 1.393 . S
C2416 H2405 0.950 . S
C2416 C2414 1.391 . S
C2416 C2417 1.400 . S
C2417 C2411 1.491 . S
C2417 C2416 1.400 . S
C2417 C2418 1.398 . S
C2418 H2406 0.950 . S
C2418 C2417 1.398 . S
C2418 C2419 1.391 . S
C2419 H2407 0.950 . S
C2419 C2415 1.393 . S
C2419 C2418 1.391 . S
H2420 C2428 0.950 . S
H2421 C2433 0.950 . S
H2422 C2430 0.950 . S
H2423 C2432 0.950 . S
H2424 C2434 0.950 . S
H2425 C2436 0.950 . S
H2426 C2438 0.950 . S
H2427 C2439 0.950 . S
C2428 H2420 0.950 . S
C2428 C2429 1.386 . S
C2428 C2430 1.391 . S
C2429 C2428 1.386 . S
C2429 C2433 1.393 . S
C2430 H2422 0.950 . S
C2430 C2428 1.391 . S
C2430 C2431 1.400 . S
C2431 C2430 1.400 . S
C2431 C2432 1.398 . S
C2431 C2437 1.491 . S
C2432 H2423 0.950 . S
C2432 C2431 1.398 . S
C2432 C2433 1.391 . S
C2433 H2421 0.950 . S
C2433 C2429 1.393 . S
C2433 C2432 1.391 . S
C2434 H2424 0.950 . S
C2434 C2435 1.386 . S
C2434 C2436 1.391 . S
C2435 C2434 1.386 . S
C2435 C2439 1.393 . S
C2436 H2425 0.950 . S
C2436 C2434 1.391 . S
C2436 C2437 1.400 . S
C2437 C2431 1.491 . S
C2437 C2436 1.400 . S
C2437 C2438 1.398 . S
C2438 H2426 0.950 . S
C2438 C2437 1.398 . S
C2438 C2439 1.391 . S
C2439 H2427 0.950 . S
C2439 C2435 1.393 . S
C2439 C2438 1.391 . S
H2440 C2448 0.950 . S
H2441 C2453 0.950 . S
H2442 C2450 0.950 . S
H2443 C2452 0.950 . S
H2444 C2454 0.950 . S
H2445 C2456 0.950 . S
H2446 C2458 0.950 . S
H2447 C2459 0.950 . S
C2448 H2440 0.950 . S
C2448 C2449 1.386 . S
C2448 C2450 1.391 . S
C2449 C2448 1.386 . S
C2449 C2453 1.393 . S
C2450 H2442 0.950 . S
C2450 C2448 1.391 . S
C2450 C2451 1.400 . S
C2451 C2450 1.400 . S
C2451 C2452 1.398 . S
C2451 C2457 1.491 . S
C2452 H2443 0.950 . S
C2452 C2451 1.398 . S
C2452 C2453 1.391 . S
C2453 H2441 0.950 . S
C2453 C2449 1.393 . S
C2453 C2452 1.391 . S
C2454 H2444 0.950 . S
C2454 C2455 1.386 . S
C2454 C2456 1.391 . S
C2455 C2454 1.386 . S
C2455 C2459 1.393 . S
C2456 H2445 0.950 . S
C2456 C2454 1.391 . S
C2456 C2457 1.400 . S
C2457 C2451 1.491 . S
C2457 C2456 1.400 . S
C2457 C2458 1.398 . S
C2458 H2446 0.950 . S
C2458 C2457 1.398 . S
C2458 C2459 1.391 . S
C2459 H2447 0.950 . S
C2459 C2455 1.393 . S
C2459 C2458 1.391 . S
H2460 C2468 0.950 . S
H2461 C2473 0.950 . S
H2462 C2470 0.950 . S
H2463 C2472 0.950 . S
H2464 C2474 0.950 . S
H2465 C2476 0.950 . S
H2466 C2478 0.950 . S
H2467 C2479 0.950 . S
C2468 H2460 0.950 . S
C2468 C2469 1.386 . S
C2468 C2470 1.391 . S
C2469 C2468 1.386 . S
C2469 C2473 1.393 . S
C2470 H2462 0.950 . S
C2470 C2468 1.391 . S
C2470 C2471 1.400 . S
C2471 C2470 1.400 . S
C2471 C2472 1.398 . S
C2471 C2477 1.491 . S
C2472 H2463 0.950 . S
C2472 C2471 1.398 . S
C2472 C2473 1.391 . S
C2473 H2461 0.950 . S
C2473 C2469 1.393 . S
C2473 C2472 1.391 . S
C2474 H2464 0.950 . S
C2474 C2475 1.386 . S
C2474 C2476 1.391 . S
C2475 C2474 1.386 . S
C2475 C2479 1.393 . S
C2476 H2465 0.950 . S
C2476 C2474 1.391 . S
C2476 C2477 1.400 . S
C2477 C2471 1.491 . S
C2477 C2476 1.400 . S
C2477 C2478 1.398 . S
C2478 H2466 0.950 . S
C2478 C2477 1.398 . S
C2478 C2479 1.391 . S
C2479 H2467 0.950 . S
C2479 C2475 1.393 . S
C2479 C2478 1.391 . S
H2480 C2488 0.950 . S
H2481 C2493 0.950 . S
H2482 C2490 0.950 . S
H2483 C2492 0.950 . S
H2484 C2494 0.950 . S
H2485 C2496 0.950 . S
H2486 C2498 0.950 . S
H2487 C2499 0.950 . S
C2488 H2480 0.950 . S
C2488 C2489 1.386 . S
C2488 C2490 1.391 . S
C2489 C2488 1.386 . S
C2489 C2493 1.393 . S
C2490 H2482 0.950 . S
C2490 C2488 1.391 . S
C2490 C2491 1.400 . S
C2491 C2490 1.400 . S
C2491 C2492 1.398 . S
C2491 C2497 1.491 1_554 S
C2492 H2483 0.950 . S
C2492 C2491 1.398 . S
C2492 C2493 1.391 . S
C2493 H2481 0.950 . S
C2493 C2489 1.393 . S
C2493 C2492 1.391 . S
C2494 H2484 0.950 . S
C2494 C2495 1.386 . S
C2494 C2496 1.391 . S
C2495 C2494 1.386 . S
C2495 C2499 1.393 . S
C2496 H2485 0.950 . S
C2496 C2494 1.391 . S
C2496 C2497 1.400 . S
C2497 C2491 1.491 1_556 S
C2497 C2496 1.400 . S
C2497 C2498 1.398 . S
C2498 H2486 0.950 . S
C2498 C2497 1.398 . S
C2498 C2499 1.391 . S
C2499 H2487 0.950 . S
C2499 C2495 1.393 . S
C2499 C2498 1.391 . S
H2500 C2508 0.950 . S
H2501 C2513 0.950 . S
H2502 C2510 0.950 . S
H2503 C2512 0.950 . S
H2504 C2514 0.950 . S
H2505 C2516 0.950 . S
H2506 C2518 0.950 . S
H2507 C2519 0.950 . S
C2508 H2500 0.950 . S
C2508 C2509 1.386 . S
C2508 C2510 1.391 . S
C2509 C2508 1.386 . S
C2509 C2513 1.393 1_655 S
C2510 H2502 0.950 . S
C2510 C2508 1.391 . S
C2510 C2511 1.400 . S
C2511 C2510 1.400 . S
C2511 C2512 1.398 1_655 S
C2511 C2517 1.491 1_655 S
C2512 H2503 0.950 . S
C2512 C2511 1.398 1_455 S
C2512 C2513 1.391 . S
C2513 H2501 0.950 . S
C2513 C2509 1.393 1_455 S
C2513 C2512 1.391 . S
C2514 H2504 0.950 . S
C2514 C2515 1.386 . S
C2514 C2516 1.391 . S
C2515 C2514 1.386 . S
C2515 C2519 1.393 1_455 S
C2516 H2505 0.950 . S
C2516 C2514 1.391 . S
C2516 C2517 1.400 . S
C2517 C2511 1.491 1_455 S
C2517 C2516 1.400 . S
C2517 C2518 1.398 1_455 S
C2518 H2506 0.950 . S
C2518 C2517 1.398 1_655 S
C2518 C2519 1.391 . S
C2519 H2507 0.950 . S
C2519 C2515 1.393 1_655 S
C2519 C2518 1.391 . S
H2520 C2528 0.950 . S
H2521 C2533 0.950 . S
H2522 C2530 0.950 . S
H2523 C2532 0.950 . S
H2524 C2534 0.950 . S
H2525 C2536 0.950 . S
H2526 C2538 0.950 . S
H2527 C2539 0.950 . S
C2528 H2520 0.950 . S
C2528 C2529 1.386 . S
C2528 C2530 1.391 . S
C2529 C2528 1.386 . S
C2529 C2533 1.393 1_455 S
C2530 H2522 0.950 . S
C2530 C2528 1.391 . S
C2530 C2531 1.400 . S
C2531 C2530 1.400 . S
C2531 C2532 1.398 1_455 S
C2531 C2537 1.491 1_454 S
C2532 H2523 0.950 . S
C2532 C2531 1.398 1_655 S
C2532 C2533 1.391 . S
C2533 H2521 0.950 . S
C2533 C2529 1.393 1_655 S
C2533 C2532 1.391 . S
C2534 H2524 0.950 . S
C2534 C2535 1.386 . S
C2534 C2536 1.391 . S
C2535 C2534 1.386 . S
C2535 C2539 1.393 1_655 S
C2536 H2525 0.950 . S
C2536 C2534 1.391 . S
C2536 C2537 1.400 . S
C2537 C2531 1.491 1_656 S
C2537 C2536 1.400 . S
C2537 C2538 1.398 1_655 S
C2538 H2526 0.950 . S
C2538 C2537 1.398 1_455 S
C2538 C2539 1.391 . S
C2539 H2527 0.950 . S
C2539 C2535 1.393 1_455 S
C2539 C2538 1.391 . S
H2540 C2548 0.950 . S
H2541 C2553 0.950 . S
H2542 C2550 0.950 . S
H2543 C2552 0.950 . S
H2544 C2554 0.950 . S
H2545 C2556 0.950 . S
H2546 C2558 0.950 . S
H2547 C2559 0.950 . S
C2548 H2540 0.950 . S
C2548 C2549 1.386 . S
C2548 C2550 1.391 . S
C2549 C2548 1.386 . S
C2549 C2553 1.393 . S
C2550 H2542 0.950 . S
C2550 C2548 1.391 . S
C2550 C2551 1.400 . S
C2551 C2550 1.400 . S
C2551 C2552 1.398 . S
C2551 C2557 1.491 . S
C2552 H2543 0.950 . S
C2552 C2551 1.398 . S
C2552 C2553 1.391 . S
C2553 H2541 0.950 . S
C2553 C2549 1.393 . S
C2553 C2552 1.391 . S
C2554 H2544 0.950 . S
C2554 C2555 1.386 . S
C2554 C2556 1.391 . S
C2555 C2554 1.386 . S
C2555 C2559 1.393 . S
C2556 H2545 0.950 . S
C2556 C2554 1.391 . S
C2556 C2557 1.400 . S
C2557 C2551 1.491 . S
C2557 C2556 1.400 . S
C2557 C2558 1.398 . S
C2558 H2546 0.950 . S
C2558 C2557 1.398 . S
C2558 C2559 1.391 . S
C2559 H2547 0.950 . S
C2559 C2555 1.393 . S
C2559 C2558 1.391 . S
H2560 C2568 0.950 . S
H2561 C2573 0.950 . S
H2562 C2570 0.950 . S
H2563 C2572 0.950 . S
H2564 C2574 0.950 . S
H2565 C2576 0.950 . S
H2566 C2578 0.950 . S
H2567 C2579 0.950 . S
C2568 H2560 0.950 . S
C2568 C2569 1.386 . S
C2568 C2570 1.391 . S
C2569 C2568 1.386 . S
C2569 C2573 1.393 . S
C2570 H2562 0.950 . S
C2570 C2568 1.391 . S
C2570 C2571 1.400 . S
C2571 C2570 1.400 . S
C2571 C2572 1.398 . S
C2571 C2577 1.491 . S
C2572 H2563 0.950 . S
C2572 C2571 1.398 . S
C2572 C2573 1.391 . S
C2573 H2561 0.950 . S
C2573 C2569 1.393 . S
C2573 C2572 1.391 . S
C2574 H2564 0.950 . S
C2574 C2575 1.386 . S
C2574 C2576 1.391 . S
C2575 C2574 1.386 . S
C2575 C2579 1.393 . S
C2576 H2565 0.950 . S
C2576 C2574 1.391 . S
C2576 C2577 1.400 . S
C2577 C2571 1.491 . S
C2577 C2576 1.400 . S
C2577 C2578 1.398 . S
C2578 H2566 0.950 . S
C2578 C2577 1.398 . S
C2578 C2579 1.391 . S
C2579 H2567 0.950 . S
C2579 C2575 1.393 . S
C2579 C2578 1.391 . S
H2580 C2588 0.950 . S
H2581 C2593 0.950 . S
H2582 C2590 0.950 . S
H2583 C2592 0.950 . S
H2584 C2594 0.950 . S
H2585 C2596 0.950 . S
H2586 C2598 0.950 . S
H2587 C2599 0.950 . S
C2588 H2580 0.950 . S
C2588 C2589 1.386 . S
C2588 C2590 1.391 . S
C2589 C2588 1.386 . S
C2589 C2593 1.393 . S
C2590 H2582 0.950 . S
C2590 C2588 1.391 . S
C2590 C2591 1.400 . S
C2591 C2590 1.400 . S
C2591 C2592 1.398 . S
C2591 C2597 1.491 . S
C2592 H2583 0.950 . S
C2592 C2591 1.398 . S
C2592 C2593 1.391 . S
C2593 H2581 0.950 . S
C2593 C2589 1.393 . S
C2593 C2592 1.391 . S
C2594 H2584 0.950 . S
C2594 C2595 1.386 . S
C2594 C2596 1.391 . S
C2595 C2594 1.386 . S
C2595 C2599 1.393 . S
C2596 H2585 0.950 . S
C2596 C2594 1.391 . S
C2596 C2597 1.400 . S
C2597 C2591 1.491 . S
C2597 C2596 1.400 . S
C2597 C2598 1.398 . S
C2598 H2586 0.950 . S
C2598 C2597 1.398 . S
C2598 C2599 1.391 . S
C2599 H2587 0.950 . S
C2599 C2595 1.393 . S
C2599 C2598 1.391 . S
H2600 C2608 0.950 . S
H2601 C2613 0.950 . S
H2602 C2610 0.950 . S
H2603 C2612 0.950 . S
H2604 C2614 0.950 . S
H2605 C2616 0.950 . S
H2606 C2618 0.950 . S
H2607 C2619 0.950 . S
C2608 H2600 0.950 . S
C2608 C2609 1.386 . S
C2608 C2610 1.391 . S
C2609 C2608 1.386 . S
C2609 C2613 1.393 . S
C2610 H2602 0.950 . S
C2610 C2608 1.391 . S
C2610 C2611 1.400 . S
C2611 C2610 1.400 . S
C2611 C2612 1.398 . S
C2611 C2617 1.491 . S
C2612 H2603 0.950 . S
C2612 C2611 1.398 . S
C2612 C2613 1.391 . S
C2613 H2601 0.950 . S
C2613 C2609 1.393 . S
C2613 C2612 1.391 . S
C2614 H2604 0.950 . S
C2614 C2615 1.386 . S
C2614 C2616 1.391 . S
C2615 C2614 1.386 . S
C2615 C2619 1.393 . S
C2616 H2605 0.950 . S
C2616 C2614 1.391 . S
C2616 C2617 1.400 . S
C2617 C2611 1.491 . S
C2617 C2616 1.400 . S
C2617 C2618 1.398 . S
C2618 H2606 0.950 . S
C2618 C2617 1.398 . S
C2618 C2619 1.391 . S
C2619 H2607 0.950 . S
C2619 C2615 1.393 . S
C2619 C2618 1.391 . S
H2620 C2628 0.950 . S
H2621 C2633 0.950 . S
H2622 C2630 0.950 . S
H2623 C2632 0.950 . S
H2624 C2634 0.950 . S
H2625 C2636 0.950 . S
H2626 C2638 0.950 . S
H2627 C2639 0.950 . S
C2628 H2620 0.950 . S
C2628 C2629 1.386 . S
C2628 C2630 1.391 . S
C2629 C2628 1.386 . S
C2629 C2633 1.393 . S
C2630 H2622 0.950 . S
C2630 C2628 1.391 . S
C2630 C2631 1.400 . S
C2631 C2630 1.400 . S
C2631 C2632 1.398 . S
C2631 C2637 1.491 . S
C2632 H2623 0.950 . S
C2632 C2631 1.398 . S
C2632 C2633 1.391 . S
C2633 H2621 0.950 . S
C2633 C2629 1.393 . S
C2633 C2632 1.391 . S
C2634 H2624 0.950 . S
C2634 C2635 1.386 . S
C2634 C2636 1.391 . S
C2635 C2634 1.386 . S
C2635 C2639 1.393 . S
C2636 H2625 0.950 . S
C2636 C2634 1.391 . S
C2636 C2637 1.400 . S
C2637 C2631 1.491 . S
C2637 C2636 1.400 . S
C2637 C2638 1.398 . S
C2638 H2626 0.950 . S
C2638 C2637 1.398 . S
C2638 C2639 1.391 . S
C2639 H2627 0.950 . S
C2639 C2635 1.393 . S
C2639 C2638 1.391 . S
H2640 C2648 0.950 . S
H2641 C2653 0.950 . S
H2642 C2650 0.950 . S
H2643 C2652 0.950 . S
H2644 C2654 0.950 . S
H2645 C2656 0.950 . S
H2646 C2658 0.950 . S
H2647 C2659 0.950 . S
C2648 H2640 0.950 . S
C2648 C2649 1.386 . S
C2648 C2650 1.391 . S
C2649 C2648 1.386 . S
C2649 C2653 1.393 . S
C2650 H2642 0.950 . S
C2650 C2648 1.391 . S
C2650 C2651 1.400 . S
C2651 C2650 1.400 . S
C2651 C2652 1.398 . S
C2651 C2657 1.491 . S
C2652 H2643 0.950 . S
C2652 C2651 1.398 . S
C2652 C2653 1.391 . S
C2653 H2641 0.950 . S
C2653 C2649 1.393 . S
C2653 C2652 1.391 . S
C2654 H2644 0.950 . S
C2654 C2655 1.386 . S
C2654 C2656 1.391 . S
C2655 C2654 1.386 . S
C2655 C2659 1.393 . S
C2656 H2645 0.950 . S
C2656 C2654 1.391 . S
C2656 C2657 1.400 . S
C2657 C2651 1.491 . S
C2657 C2656 1.400 . S
C2657 C2658 1.398 . S
C2658 H2646 0.950 . S
C2658 C2657 1.398 . S
C2658 C2659 1.391 . S
C2659 H2647 0.950 . S
C2659 C2655 1.393 . S
C2659 C2658 1.391 . S
H2660 C2668 0.950 . S
H2661 C2673 0.950 . S
H2662 C2670 0.950 . S
H2663 C2672 0.950 . S
H2664 C2674 0.950 . S
H2665 C2676 0.950 . S
H2666 C2678 0.950 . S
H2667 C2679 0.950 . S
C2668 H2660 0.950 . S
C2668 C2669 1.386 . S
C2668 C2670 1.391 . S
C2669 C2668 1.386 . S
C2669 C2673 1.393 . S
C2670 H2662 0.950 . S
C2670 C2668 1.391 . S
C2670 C2671 1.400 . S
C2671 C2670 1.400 . S
C2671 C2672 1.398 . S
C2671 C2677 1.491 . S
C2672 H2663 0.950 . S
C2672 C2671 1.398 . S
C2672 C2673 1.391 . S
C2673 H2661 0.950 . S
C2673 C2669 1.393 . S
C2673 C2672 1.391 . S
C2674 H2664 0.950 . S
C2674 C2675 1.386 . S
C2674 C2676 1.391 . S
C2675 C2674 1.386 . S
C2675 C2679 1.393 . S
C2676 H2665 0.950 . S
C2676 C2674 1.391 . S
C2676 C2677 1.400 . S
C2677 C2671 1.491 . S
C2677 C2676 1.400 . S
C2677 C2678 1.398 . S
C2678 H2666 0.950 . S
C2678 C2677 1.398 . S
C2678 C2679 1.391 . S
C2679 H2667 0.950 . S
C2679 C2675 1.393 . S
C2679 C2678 1.391 . S
H2680 C2688 0.950 . S
H2681 C2693 0.950 . S
H2682 C2690 0.950 . S
H2683 C2692 0.950 . S
H2684 C2694 0.950 . S
H2685 C2696 0.950 . S
H2686 C2698 0.950 . S
H2687 C2699 0.950 . S
C2688 H2680 0.950 . S
C2688 C2689 1.386 . S
C2688 C2690 1.391 . S
C2689 C2688 1.386 . S
C2689 C2693 1.393 . S
C2690 H2682 0.950 . S
C2690 C2688 1.391 . S
C2690 C2691 1.400 . S
C2691 C2690 1.400 . S
C2691 C2692 1.398 . S
C2691 C2697 1.491 . S
C2692 H2683 0.950 . S
C2692 C2691 1.398 . S
C2692 C2693 1.391 . S
C2693 H2681 0.950 . S
C2693 C2689 1.393 . S
C2693 C2692 1.391 . S
C2694 H2684 0.950 . S
C2694 C2695 1.386 . S
C2694 C2696 1.391 . S
C2695 C2694 1.386 . S
C2695 C2699 1.393 . S
C2696 H2685 0.950 . S
C2696 C2694 1.391 . S
C2696 C2697 1.400 . S
C2697 C2691 1.491 . S
C2697 C2696 1.400 . S
C2697 C2698 1.398 . S
C2698 H2686 0.950 . S
C2698 C2697 1.398 . S
C2698 C2699 1.391 . S
C2699 H2687 0.950 . S
C2699 C2695 1.393 . S
C2699 C2698 1.391 . S
H2700 C2708 0.950 . S
H2701 C2713 0.950 . S
H2702 C2710 0.950 . S
H2703 C2712 0.950 . S
H2704 C2714 0.950 . S
H2705 C2716 0.950 . S
H2706 C2718 0.950 . S
H2707 C2719 0.950 . S
C2708 H2700 0.950 . S
C2708 C2709 1.386 . S
C2708 C2710 1.391 . S
C2709 C2708 1.386 . S
C2709 C2713 1.393 . S
C2710 H2702 0.950 . S
C2710 C2708 1.391 . S
C2710 C2711 1.400 . S
C2711 C2710 1.400 . S
C2711 C2712 1.398 . S
C2711 C2717 1.491 . S
C2712 H2703 0.950 . S
C2712 C2711 1.398 . S
C2712 C2713 1.391 . S
C2713 H2701 0.950 . S
C2713 C2709 1.393 . S
C2713 C2712 1.391 . S
C2714 H2704 0.950 . S
C2714 C2715 1.386 . S
C2714 C2716 1.391 . S
C2715 C2714 1.386 . S
C2715 C2719 1.393 . S
C2716 H2705 0.950 . S
C2716 C2714 1.391 . S
C2716 C2717 1.400 . S
C2717 C2711 1.491 . S
C2717 C2716 1.400 . S
C2717 C2718 1.398 . S
C2718 H2706 0.950 . S
C2718 C2717 1.398 . S
C2718 C2719 1.391 . S
C2719 H2707 0.950 . S
C2719 C2715 1.393 . S
C2719 C2718 1.391 . S
H2720 C2728 0.950 . S
H2721 C2733 0.950 . S
H2722 C2730 0.950 . S
H2723 C2732 0.950 . S
H2724 C2734 0.950 . S
H2725 C2736 0.950 . S
H2726 C2738 0.950 . S
H2727 C2739 0.950 . S
C2728 H2720 0.950 . S
C2728 C2729 1.386 . S
C2728 C2730 1.391 . S
C2729 C2728 1.386 . S
C2729 C2733 1.393 . S
C2730 H2722 0.950 . S
C2730 C2728 1.391 . S
C2730 C2731 1.400 . S
C2731 C2730 1.400 . S
C2731 C2732 1.398 . S
C2731 C2737 1.491 . S
C2732 H2723 0.950 . S
C2732 C2731 1.398 . S
C2732 C2733 1.391 . S
C2733 H2721 0.950 . S
C2733 C2729 1.393 . S
C2733 C2732 1.391 . S
C2734 H2724 0.950 . S
C2734 C2735 1.386 . S
C2734 C2736 1.391 . S
C2735 C2734 1.386 . S
C2735 C2739 1.393 . S
C2736 H2725 0.950 . S
C2736 C2734 1.391 . S
C2736 C2737 1.400 . S
C2737 C2731 1.491 . S
C2737 C2736 1.400 . S
C2737 C2738 1.398 . S
C2738 H2726 0.950 . S
C2738 C2737 1.398 . S
C2738 C2739 1.391 . S
C2739 H2727 0.950 . S
C2739 C2735 1.393 . S
C2739 C2738 1.391 . S
H2740 C2748 0.950 . S
H2741 C2753 0.950 . S
H2742 C2750 0.950 . S
H2743 C2752 0.950 . S
H2744 C2754 0.950 . S
H2745 C2756 0.950 . S
H2746 C2758 0.950 . S
H2747 C2759 0.950 . S
C2748 H2740 0.950 . S
C2748 C2749 1.386 . S
C2748 C2750 1.391 . S
C2749 C2748 1.386 . S
C2749 C2753 1.393 . S
C2750 H2742 0.950 . S
C2750 C2748 1.391 . S
C2750 C2751 1.400 . S
C2751 C2750 1.400 . S
C2751 C2752 1.398 . S
C2751 C2757 1.491 . S
C2752 H2743 0.950 . S
C2752 C2751 1.398 . S
C2752 C2753 1.391 . S
C2753 H2741 0.950 . S
C2753 C2749 1.393 . S
C2753 C2752 1.391 . S
C2754 H2744 0.950 . S
C2754 C2755 1.386 . S
C2754 C2756 1.391 . S
C2755 C2754 1.386 . S
C2755 C2759 1.393 . S
C2756 H2745 0.950 . S
C2756 C2754 1.391 . S
C2756 C2757 1.400 . S
C2757 C2751 1.491 . S
C2757 C2756 1.400 . S
C2757 C2758 1.398 . S
C2758 H2746 0.950 . S
C2758 C2757 1.398 . S
C2758 C2759 1.391 . S
C2759 H2747 0.950 . S
C2759 C2755 1.393 . S
C2759 C2758 1.391 . S
H2760 C2768 0.950 . S
H2761 C2773 0.950 . S
H2762 C2770 0.950 . S
H2763 C2772 0.950 . S
H2764 C2774 0.950 . S
H2765 C2776 0.950 . S
H2766 C2778 0.950 . S
H2767 C2779 0.950 . S
C2768 H2760 0.950 . S
C2768 C2769 1.386 . S
C2768 C2770 1.391 . S
C2769 C2768 1.386 . S
C2769 C2773 1.393 . S
C2770 H2762 0.950 . S
C2770 C2768 1.391 . S
C2770 C2771 1.400 . S
C2771 C2770 1.400 . S
C2771 C2772 1.398 . S
C2771 C2777 1.491 . S
C2772 H2763 0.950 . S
C2772 C2771 1.398 . S
C2772 C2773 1.391 . S
C2773 H2761 0.950 . S
C2773 C2769 1.393 . S
C2773 C2772 1.391 . S
C2774 H2764 0.950 . S
C2774 C2775 1.386 . S
C2774 C2776 1.391 . S
C2775 C2774 1.386 . S
C2775 C2779 1.393 . S
C2776 H2765 0.950 . S
C2776 C2774 1.391 . S
C2776 C2777 1.400 . S
C2777 C2771 1.491 . S
C2777 C2776 1.400 . S
C2777 C2778 1.398 . S
C2778 H2766 0.950 . S
C2778 C2777 1.398 . S
C2778 C2779 1.391 . S
C2779 H2767 0.950 . S
C2779 C2775 1.393 . S
C2779 C2778 1.391 . S
H2780 C2788 0.950 . S
H2781 C2793 0.950 . S
H2782 C2790 0.950 . S
H2783 C2792 0.950 . S
H2784 C2794 0.950 . S
H2785 C2796 0.950 . S
H2786 C2798 0.950 . S
H2787 C2799 0.950 . S
C2788 H2780 0.950 . S
C2788 C2789 1.386 . S
C2788 C2790 1.391 . S
C2789 C2788 1.386 . S
C2789 C2793 1.393 . S
C2790 H2782 0.950 . S
C2790 C2788 1.391 . S
C2790 C2791 1.400 . S
C2791 C2790 1.400 . S
C2791 C2792 1.398 . S
C2791 C2797 1.491 . S
C2792 H2783 0.950 . S
C2792 C2791 1.398 . S
C2792 C2793 1.391 . S
C2793 H2781 0.950 . S
C2793 C2789 1.393 . S
C2793 C2792 1.391 . S
C2794 H2784 0.950 . S
C2794 C2795 1.386 . S
C2794 C2796 1.391 . S
C2795 C2794 1.386 . S
C2795 C2799 1.393 . S
C2796 H2785 0.950 . S
C2796 C2794 1.391 . S
C2796 C2797 1.400 . S
C2797 C2791 1.491 . S
C2797 C2796 1.400 . S
C2797 C2798 1.398 . S
C2798 H2786 0.950 . S
C2798 C2797 1.398 . S
C2798 C2799 1.391 . S
C2799 H2787 0.950 . S
C2799 C2795 1.393 . S
C2799 C2798 1.391 . S
H2800 C2808 0.950 . S
H2801 C2813 0.950 . S
H2802 C2810 0.950 . S
H2803 C2812 0.950 . S
H2804 C2814 0.950 . S
H2805 C2816 0.950 . S
H2806 C2818 0.950 . S
H2807 C2819 0.950 . S
C2808 H2800 0.950 . S
C2808 C2809 1.386 . S
C2808 C2810 1.391 . S
C2809 C2808 1.386 . S
C2809 C2813 1.393 . S
C2810 H2802 0.950 . S
C2810 C2808 1.391 . S
C2810 C2811 1.400 . S
C2811 C2810 1.400 . S
C2811 C2812 1.398 . S
C2811 C2817 1.491 . S
C2812 H2803 0.950 . S
C2812 C2811 1.398 . S
C2812 C2813 1.391 . S
C2813 H2801 0.950 . S
C2813 C2809 1.393 . S
C2813 C2812 1.391 . S
C2814 H2804 0.950 . S
C2814 C2815 1.386 . S
C2814 C2816 1.391 . S
C2815 C2814 1.386 . S
C2815 C2819 1.393 . S
C2816 H2805 0.950 . S
C2816 C2814 1.391 . S
C2816 C2817 1.400 . S
C2817 C2811 1.491 . S
C2817 C2816 1.400 . S
C2817 C2818 1.398 . S
C2818 H2806 0.950 . S
C2818 C2817 1.398 . S
C2818 C2819 1.391 . S
C2819 H2807 0.950 . S
C2819 C2815 1.393 . S
C2819 C2818 1.391 . S
H2820 C2828 0.950 . S
H2821 C2833 0.950 . S
H2822 C2830 0.950 . S
H2823 C2832 0.950 . S
H2824 C2834 0.950 . S
H2825 C2836 0.950 . S
H2826 C2838 0.950 . S
H2827 C2839 0.950 . S
C2828 H2820 0.950 . S
C2828 C2829 1.386 . S
C2828 C2830 1.391 . S
C2829 C2828 1.386 . S
C2829 C2833 1.393 . S
C2830 H2822 0.950 . S
C2830 C2828 1.391 . S
C2830 C2831 1.400 . S
C2831 C2830 1.400 . S
C2831 C2832 1.398 . S
C2831 C2837 1.491 . S
C2832 H2823 0.950 . S
C2832 C2831 1.398 . S
C2832 C2833 1.391 . S
C2833 H2821 0.950 . S
C2833 C2829 1.393 . S
C2833 C2832 1.391 . S
C2834 H2824 0.950 . S
C2834 C2835 1.386 . S
C2834 C2836 1.391 . S
C2835 C2834 1.386 . S
C2835 C2839 1.393 . S
C2836 H2825 0.950 . S
C2836 C2834 1.391 . S
C2836 C2837 1.400 . S
C2837 C2831 1.491 . S
C2837 C2836 1.400 . S
C2837 C2838 1.398 . S
C2838 H2826 0.950 . S
C2838 C2837 1.398 . S
C2838 C2839 1.391 . S
C2839 H2827 0.950 . S
C2839 C2835 1.393 . S
C2839 C2838 1.391 . S
H2840 C2848 0.950 . S
H2841 C2853 0.950 . S
H2842 C2850 0.950 . S
H2843 C2852 0.950 . S
H2844 C2854 0.950 . S
H2845 C2856 0.950 . S
H2846 C2858 0.950 . S
H2847 C2859 0.950 . S
C2848 H2840 0.950 . S
C2848 C2849 1.386 . S
C2848 C2850 1.391 . S
C2849 C2848 1.386 . S
C2849 C2853 1.393 . S
C2850 H2842 0.950 . S
C2850 C2848 1.391 . S
C2850 C2851 1.400 . S
C2851 C2850 1.400 . S
C2851 C2852 1.398 . S
C2851 C2857 1.491 . S
C2852 H2843 0.950 . S
C2852 C2851 1.398 . S
C2852 C2853 1.391 . S
C2853 H2841 0.950 . S
C2853 C2849 1.393 . S
C2853 C2852 1.391 . S
C2854 H2844 0.950 . S
C2854 C2855 1.386 . S
C2854 C2856 1.391 . S
C2855 C2854 1.386 . S
C2855 C2859 1.393 . S
C2856 H2845 0.950 . S
C2856 C2854 1.391 . S
C2856 C2857 1.400 . S
C2857 C2851 1.491 . S
C2857 C2856 1.400 . S
C2857 C2858 1.398 . S
C2858 H2846 0.950 . S
C2858 C2857 1.398 . S
C2858 C2859 1.391 . S
C2859 H2847 0.950 . S
C2859 C2855 1.393 . S
C2859 C2858 1.391 . S
H2860 C2868 0.950 . S
H2861 C2873 0.950 . S
H2862 C2870 0.950 . S
H2863 C2872 0.950 . S
H2864 C2874 0.950 . S
H2865 C2876 0.950 . S
H2866 C2878 0.950 . S
H2867 C2879 0.950 . S
C2868 H2860 0.950 . S
C2868 C2869 1.386 . S
C2868 C2870 1.391 . S
C2869 C2868 1.386 . S
C2869 C2873 1.393 . S
C2870 H2862 0.950 . S
C2870 C2868 1.391 . S
C2870 C2871 1.400 . S
C2871 C2870 1.400 . S
C2871 C2872 1.398 . S
C2871 C2877 1.491 . S
C2872 H2863 0.950 . S
C2872 C2871 1.398 . S
C2872 C2873 1.391 . S
C2873 H2861 0.950 . S
C2873 C2869 1.393 . S
C2873 C2872 1.391 . S
C2874 H2864 0.950 . S
C2874 C2875 1.386 . S
C2874 C2876 1.391 . S
C2875 C2874 1.386 . S
C2875 C2879 1.393 . S
C2876 H2865 0.950 . S
C2876 C2874 1.391 . S
C2876 C2877 1.400 . S
C2877 C2871 1.491 . S
C2877 C2876 1.400 . S
C2877 C2878 1.398 . S
C2878 H2866 0.950 . S
C2878 C2877 1.398 . S
C2878 C2879 1.391 . S
C2879 H2867 0.950 . S
C2879 C2875 1.393 . S
C2879 C2878 1.391 . S
H2880 C2888 0.950 . S
H2881 C2893 0.950 . S
H2882 C2890 0.941 1_565 S
H2883 C2892 0.950 . S
H2884 C2894 0.950 . S
H2885 C2896 0.941 1_545 S
H2886 C2898 0.950 . S
H2887 C2899 0.950 . S
C2888 H2880 0.950 . S
C2888 C2889 1.386 . S
C2888 C2890 1.391 . S
C2889 C2888 1.386 . S
C2889 C2893 1.393 . S
C2890 H2882 0.941 1_545 S
C2890 C2888 1.391 . S
C2890 C2891 1.400 . S
C2891 C2890 1.400 . S
C2891 C2892 1.398 . S
C2891 C2897 1.491 1_545 S
C2892 H2883 0.950 . S
C2892 C2891 1.398 . S
C2892 C2893 1.391 . S
C2893 H2881 0.950 . S
C2893 C2889 1.393 . S
C2893 C2892 1.391 . S
C2894 H2884 0.950 . S
C2894 C2895 1.386 . S
C2894 C2896 1.391 . S
C2895 C2894 1.386 . S
C2895 C2899 1.393 . S
C2896 H2885 0.941 1_565 S
C2896 C2894 1.391 . S
C2896 C2897 1.400 . S
C2897 C2891 1.491 1_565 S
C2897 C2896 1.400 . S
C2897 C2898 1.398 . S
C2898 H2886 0.950 . S
C2898 C2897 1.398 . S
C2898 C2899 1.391 . S
C2899 H2887 0.950 . S
C2899 C2895 1.393 . S
C2899 C2898 1.391 . S
H2900 C2908 0.950 . S
H2901 C2913 0.950 . S
H2902 C2910 0.950 . S
H2903 C2912 0.950 . S
H2904 C2914 0.950 . S
H2905 C2916 0.950 . S
H2906 C2918 0.950 . S
H2907 C2919 0.950 . S
C2908 H2900 0.950 . S
C2908 C2909 1.386 . S
C2908 C2910 1.391 . S
C2909 C2908 1.386 . S
C2909 C2913 1.393 . S
C2910 H2902 0.950 . S
C2910 C2908 1.391 . S
C2910 C2911 1.400 . S
C2911 C2910 1.400 . S
C2911 C2912 1.398 . S
C2911 C2917 1.491 . S
C2912 H2903 0.950 . S
C2912 C2911 1.398 . S
C2912 C2913 1.391 . S
C2913 H2901 0.950 . S
C2913 C2909 1.393 . S
C2913 C2912 1.391 . S
C2914 H2904 0.950 . S
C2914 C2915 1.386 . S
C2914 C2916 1.391 . S
C2915 C2914 1.386 . S
C2915 C2919 1.393 . S
C2916 H2905 0.950 . S
C2916 C2914 1.391 . S
C2916 C2917 1.400 . S
C2917 C2911 1.491 . S
C2917 C2916 1.400 . S
C2917 C2918 1.398 . S
C2918 H2906 0.950 . S
C2918 C2917 1.398 . S
C2918 C2919 1.391 . S
C2919 H2907 0.950 . S
C2919 C2915 1.393 . S
C2919 C2918 1.391 . S
H2920 C2928 0.950 . S
H2921 C2933 0.950 . S
H2922 C2930 0.950 . S
H2923 C2932 0.950 . S
H2924 C2934 0.950 . S
H2925 C2936 0.950 . S
H2926 C2938 0.950 . S
H2927 C2939 0.950 . S
C2928 H2920 0.950 . S
C2928 C2929 1.386 . S
C2928 C2930 1.391 . S
C2929 C2928 1.386 . S
C2929 C2933 1.393 . S
C2930 H2922 0.950 . S
C2930 C2928 1.391 . S
C2930 C2931 1.400 . S
C2931 C2930 1.400 . S
C2931 C2932 1.398 . S
C2931 C2937 1.491 1_545 S
C2932 H2923 0.950 . S
C2932 C2931 1.398 . S
C2932 C2933 1.391 . S
C2933 H2921 0.950 . S
C2933 C2929 1.393 . S
C2933 C2932 1.391 . S
C2934 H2924 0.950 . S
C2934 C2935 1.386 . S
C2934 C2936 1.391 . S
C2935 C2934 1.386 . S
C2935 C2939 1.393 . S
C2936 H2925 0.950 . S
C2936 C2934 1.391 . S
C2936 C2937 1.400 . S
C2937 C2931 1.491 1_565 S
C2937 C2936 1.400 . S
C2937 C2938 1.398 . S
C2938 H2926 0.950 . S
C2938 C2937 1.398 . S
C2938 C2939 1.391 . S
C2939 H2927 0.950 . S
C2939 C2935 1.393 . S
C2939 C2938 1.391 . S
H2940 C2948 0.950 1_565 S
H2941 C2953 0.950 . S
H2942 C2950 1.040 1_565 S
H2943 C2952 0.950 . S
H2944 C2954 0.950 . S
H2945 C2956 1.040 . S
H2946 C2958 0.954 . S
H2947 C2959 0.937 1_565 S
C2948 H2940 0.950 1_545 S
C2948 C2949 1.386 . S
C2948 C2950 1.343 1_556 S
C2949 C2948 1.386 . S
C2949 C2953 1.393 . S
C2950 H2942 1.040 1_545 S
C2950 C2948 1.343 1_554 S
C2950 C2951 1.367 1_554 S
C2951 C2950 1.367 1_556 S
C2951 C2952 1.398 . S
C2951 C2957 1.491 1_556 S
C2952 H2943 0.950 . S
C2952 C2951 1.398 . S
C2952 C2953 1.391 . S
C2953 H2941 0.950 . S
C2953 C2949 1.393 . S
C2953 C2952 1.391 . S
C2954 H2944 0.950 . S
C2954 C2955 1.386 . S
C2954 C2956 1.343 1_554 S
C2955 C2954 1.386 . S
C2955 C2959 1.393 . S
C2956 H2945 1.040 . S
C2956 C2954 1.343 1_556 S
C2956 C2957 1.367 1_556 S
C2957 C2951 1.491 1_554 S
C2957 C2956 1.367 1_554 S
C2957 C2958 1.398 . S
C2958 H2946 0.954 . S
C2958 C2957 1.398 . S
C2958 C2959 1.391 . S
C2959 H2947 0.937 1_545 S
C2959 C2955 1.393 . S
C2959 C2958 1.391 . S
H2960 C2968 0.950 . S
H2961 C2973 0.950 . S
H2962 C2970 0.950 . S
H2963 C2972 0.950 . S
H2964 C2974 0.950 . S
H2965 C2976 0.950 . S
H2966 C2978 0.950 . S
H2967 C2979 0.950 . S
C2968 H2960 0.950 . S
C2968 C2969 1.386 . S
C2968 C2970 1.391 . S
C2969 C2968 1.386 . S
C2969 C2973 1.393 . S
C2970 H2962 0.950 . S
C2970 C2968 1.391 . S
C2970 C2971 1.400 . S
C2971 C2970 1.400 . S
C2971 C2972 1.398 . S
C2971 C2977 1.491 1_565 S
C2972 H2963 0.950 . S
C2972 C2971 1.398 . S
C2972 C2973 1.391 . S
C2973 H2961 0.950 . S
C2973 C2969 1.393 . S
C2973 C2972 1.391 . S
C2974 H2964 0.950 . S
C2974 C2975 1.386 . S
C2974 C2976 1.391 . S
C2975 C2974 1.386 . S
C2975 C2979 1.393 . S
C2976 H2965 0.950 . S
C2976 C2974 1.391 . S
C2976 C2977 1.400 . S
C2977 C2971 1.491 1_545 S
C2977 C2976 1.400 . S
C2977 C2978 1.398 . S
C2978 H2966 0.950 . S
C2978 C2977 1.398 . S
C2978 C2979 1.391 . S
C2979 H2967 0.950 . S
C2979 C2975 1.393 . S
C2979 C2978 1.391 . S
H2980 C2988 0.950 . S
H2981 C2993 0.950 . S
H2982 C2990 0.950 . S
H2983 C2992 0.950 . S
H2984 C2994 0.950 . S
H2985 C2996 0.950 . S
H2986 C2998 0.950 . S
H2987 C2999 0.950 . S
C2988 H2980 0.950 . S
C2988 C2989 1.386 . S
C2988 C2990 1.391 . S
C2989 C2988 1.386 . S
C2989 C2993 1.393 . S
C2990 H2982 0.950 . S
C2990 C2988 1.391 . S
C2990 C2991 1.400 . S
C2991 C2990 1.400 . S
C2991 C2992 1.398 . S
C2991 C2997 1.491 . S
C2992 H2983 0.950 . S
C2992 C2991 1.398 . S
C2992 C2993 1.391 . S
C2993 H2981 0.950 . S
C2993 C2989 1.393 . S
C2993 C2992 1.391 . S
C2994 H2984 0.950 . S
C2994 C2995 1.386 . S
C2994 C2996 1.391 . S
C2995 C2994 1.386 . S
C2995 C2999 1.393 . S
C2996 H2985 0.950 . S
C2996 C2994 1.391 . S
C2996 C2997 1.400 . S
C2997 C2991 1.491 . S
C2997 C2996 1.400 . S
C2997 C2998 1.398 . S
C2998 H2986 0.950 . S
C2998 C2997 1.398 . S
C2998 C2999 1.391 . S
C2999 H2987 0.950 . S
C2999 C2995 1.393 . S
C2999 C2998 1.391 . S
H3000 C3008 0.950 . S
H3001 C3013 0.950 . S
H3002 C3010 0.950 . S
H3003 C3012 0.950 . S
H3004 C3014 0.950 . S
H3005 C3016 0.950 . S
H3006 C3018 0.950 . S
H3007 C3019 0.950 . S
C3008 H3000 0.950 . S
C3008 C3009 1.386 . S
C3008 C3010 1.391 . S
C3009 C3008 1.386 . S
C3009 C3013 1.393 . S
C3010 H3002 0.950 . S
C3010 C3008 1.391 . S
C3010 C3011 1.400 . S
C3011 C3010 1.400 . S
C3011 C3012 1.398 . S
C3011 C3017 1.491 1_565 S
C3012 H3003 0.950 . S
C3012 C3011 1.398 . S
C3012 C3013 1.391 . S
C3013 H3001 0.950 . S
C3013 C3009 1.393 . S
C3013 C3012 1.391 . S
C3014 H3004 0.950 . S
C3014 C3015 1.386 . S
C3014 C3016 1.391 . S
C3015 C3014 1.386 . S
C3015 C3019 1.393 . S
C3016 H3005 0.950 . S
C3016 C3014 1.391 . S
C3016 C3017 1.400 . S
C3017 C3011 1.491 1_545 S
C3017 C3016 1.400 . S
C3017 C3018 1.398 . S
C3018 H3006 0.950 . S
C3018 C3017 1.398 . S
C3018 C3019 1.391 . S
C3019 H3007 0.950 . S
C3019 C3015 1.393 . S
C3019 C3018 1.391 . S
H3020 C3028 0.950 . S
H3021 C3033 0.952 1_545 S
H3022 C3030 0.950 1_556 S
H3023 C3032 0.943 1_545 S
H3024 C3034 0.977 . S
H3025 C3036 0.972 1_554 S
H3026 C3038 0.950 . S
H3027 C3039 0.950 . S
C3028 H3020 0.950 . S
C3028 C3029 1.386 . S
C3028 C3030 1.391 . S
C3029 C3028 1.386 . S
C3029 C3033 1.390 . S
C3030 H3022 0.950 1_554 S
C3030 C3028 1.391 . S
C3030 C3031 1.400 . S
C3031 C3030 1.400 . S
C3031 C3032 1.405 . S
C3031 C3037 1.491 1_554 S
C3032 H3023 0.943 1_565 S
C3032 C3031 1.405 . S
C3032 C3033 1.391 . S
C3033 H3021 0.952 1_565 S
C3033 C3029 1.390 . S
C3033 C3032 1.391 . S
C3034 H3024 0.977 . S
C3034 C3035 1.359 1_545 S
C3034 C3036 1.391 . S
C3035 C3034 1.359 1_565 S
C3035 C3039 1.393 . S
C3036 H3025 0.972 1_556 S
C3036 C3034 1.391 . S
C3036 C3037 1.379 1_545 S
C3037 C3031 1.491 1_556 S
C3037 C3036 1.379 1_565 S
C3037 C3038 1.398 . S
C3038 H3026 0.950 . S
C3038 C3037 1.398 . S
C3038 C3039 1.391 . S
C3039 H3027 0.950 . S
C3039 C3035 1.393 . S
C3039 C3038 1.391 . S
H3040 C3048 0.950 . S
H3041 C3053 0.950 . S
H3042 C3050 0.950 . S
H3043 C3052 0.950 . S
H3044 C3054 0.950 . S
H3045 C3056 0.950 . S
H3046 C3058 0.950 . S
H3047 C3059 0.950 . S
C3048 H3040 0.950 . S
C3048 C3049 1.386 . S
C3048 C3050 1.391 . S
C3049 C3048 1.386 . S
C3049 C3053 1.393 . S
C3050 H3042 0.950 . S
C3050 C3048 1.391 . S
C3050 C3051 1.400 . S
C3051 C3050 1.400 . S
C3051 C3052 1.398 . S
C3051 C3057 1.491 . S
C3052 H3043 0.950 . S
C3052 C3051 1.398 . S
C3052 C3053 1.391 . S
C3053 H3041 0.950 . S
C3053 C3049 1.393 . S
C3053 C3052 1.391 . S
C3054 H3044 0.950 . S
C3054 C3055 1.386 . S
C3054 C3056 1.391 . S
C3055 C3054 1.386 . S
C3055 C3059 1.393 . S
C3056 H3045 0.950 . S
C3056 C3054 1.391 . S
C3056 C3057 1.400 . S
C3057 C3051 1.491 . S
C3057 C3056 1.400 . S
C3057 C3058 1.398 . S
C3058 H3046 0.950 . S
C3058 C3057 1.398 . S
C3058 C3059 1.391 . S
C3059 H3047 0.950 . S
C3059 C3055 1.393 . S
C3059 C3058 1.391 . S
H3060 C3068 0.936 1_554 S
H3061 C3073 0.950 . S
H3062 C3070 0.950 . S
H3063 C3072 0.950 . S
H3064 C3074 0.936 1_556 S
H3065 C3076 0.950 . S
H3066 C3078 0.950 . S
H3067 C3079 0.950 . S
C3068 H3060 0.936 1_556 S
C3068 C3069 1.386 . S
C3068 C3070 1.391 1_556 S
C3069 C3068 1.386 . S
C3069 C3073 1.393 . S
C3070 H3062 0.950 . S
C3070 C3068 1.391 1_554 S
C3070 C3071 1.400 1_554 S
C3071 C3070 1.400 1_556 S
C3071 C3072 1.398 . S
C3071 C3077 1.491 1_556 S
C3072 H3063 0.950 . S
C3072 C3071 1.398 . S
C3072 C3073 1.391 . S
C3073 H3061 0.950 . S
C3073 C3069 1.393 . S
C3073 C3072 1.391 . S
C3074 H3064 0.936 1_554 S
C3074 C3075 1.386 . S
C3074 C3076 1.391 1_554 S
C3075 C3074 1.386 . S
C3075 C3079 1.393 . S
C3076 H3065 0.950 . S
C3076 C3074 1.391 1_556 S
C3076 C3077 1.400 1_556 S
C3077 C3071 1.491 1_554 S
C3077 C3076 1.400 1_554 S
C3077 C3078 1.398 . S
C3078 H3066 0.950 . S
C3078 C3077 1.398 . S
C3078 C3079 1.391 . S
C3079 H3067 0.950 . S
C3079 C3075 1.393 . S
C3079 C3078 1.391 . S
H3080 C3088 0.950 . S
H3081 C3093 0.950 . S
H3082 C3090 0.950 . S
H3083 C3092 0.950 . S
H3084 C3094 0.950 . S
H3085 C3096 0.950 . S
H3086 C3098 0.950 . S
H3087 C3099 0.950 . S
C3088 H3080 0.950 . S
C3088 C3089 1.386 . S
C3088 C3090 1.391 . S
C3089 C3088 1.386 . S
C3089 C3093 1.393 . S
C3090 H3082 0.950 . S
C3090 C3088 1.391 . S
C3090 C3091 1.400 . S
C3091 C3090 1.400 . S
C3091 C3092 1.398 . S
C3091 C3097 1.491 . S
C3092 H3083 0.950 . S
C3092 C3091 1.398 . S
C3092 C3093 1.391 . S
C3093 H3081 0.950 . S
C3093 C3089 1.393 . S
C3093 C3092 1.391 . S
C3094 H3084 0.950 . S
C3094 C3095 1.386 . S
C3094 C3096 1.391 . S
C3095 C3094 1.386 . S
C3095 C3099 1.393 . S
C3096 H3085 0.950 . S
C3096 C3094 1.391 . S
C3096 C3097 1.400 . S
C3097 C3091 1.491 . S
C3097 C3096 1.400 . S
C3097 C3098 1.398 . S
C3098 H3086 0.950 . S
C3098 C3097 1.398 . S
C3098 C3099 1.391 . S
C3099 H3087 0.950 . S
C3099 C3095 1.393 . S
C3099 C3098 1.391 . S
H3100 C3108 0.950 . S
H3101 C3113 0.950 . S
H3102 C3110 0.950 . S
H3103 C3112 0.950 . S
H3104 C3114 0.950 . S
H3105 C3116 0.950 . S
H3106 C3118 0.950 . S
H3107 C3119 0.950 . S
C3108 H3100 0.950 . S
C3108 C3109 1.386 . S
C3108 C3110 1.391 . S
C3109 C3108 1.386 . S
C3109 C3113 1.393 . S
C3110 H3102 0.950 . S
C3110 C3108 1.391 . S
C3110 C3111 1.400 . S
C3111 C3110 1.400 . S
C3111 C3112 1.398 . S
C3111 C3117 1.491 . S
C3112 H3103 0.950 . S
C3112 C3111 1.398 . S
C3112 C3113 1.391 . S
C3113 H3101 0.950 . S
C3113 C3109 1.393 . S
C3113 C3112 1.391 . S
C3114 H3104 0.950 . S
C3114 C3115 1.386 . S
C3114 C3116 1.391 . S
C3115 C3114 1.386 . S
C3115 C3119 1.393 . S
C3116 H3105 0.950 . S
C3116 C3114 1.391 . S
C3116 C3117 1.400 . S
C3117 C3111 1.491 . S
C3117 C3116 1.400 . S
C3117 C3118 1.398 . S
C3118 H3106 0.950 . S
C3118 C3117 1.398 . S
C3118 C3119 1.391 . S
C3119 H3107 0.950 . S
C3119 C3115 1.393 . S
C3119 C3118 1.391 . S
H3120 C3128 0.950 . S
H3121 C3133 0.950 . S
H3122 C3130 0.950 . S
H3123 C3132 0.950 . S
H3124 C3134 0.950 . S
H3125 C3136 0.950 . S
H3126 C3138 0.950 . S
H3127 C3139 0.950 . S
C3128 H3120 0.950 . S
C3128 C3129 1.386 . S
C3128 C3130 1.391 . S
C3129 C3128 1.386 . S
C3129 C3133 1.393 . S
C3130 H3122 0.950 . S
C3130 C3128 1.391 . S
C3130 C3131 1.400 . S
C3131 C3130 1.400 . S
C3131 C3132 1.398 . S
C3131 C3137 1.491 . S
C3132 H3123 0.950 . S
C3132 C3131 1.398 . S
C3132 C3133 1.391 . S
C3133 H3121 0.950 . S
C3133 C3129 1.393 . S
C3133 C3132 1.391 . S
C3134 H3124 0.950 . S
C3134 C3135 1.386 . S
C3134 C3136 1.391 . S
C3135 C3134 1.386 . S
C3135 C3139 1.393 . S
C3136 H3125 0.950 . S
C3136 C3134 1.391 . S
C3136 C3137 1.400 . S
C3137 C3131 1.491 . S
C3137 C3136 1.400 . S
C3137 C3138 1.398 . S
C3138 H3126 0.950 . S
C3138 C3137 1.398 . S
C3138 C3139 1.391 . S
C3139 H3127 0.950 . S
C3139 C3135 1.393 . S
C3139 C3138 1.391 . S
H3140 C3148 0.950 . S
H3141 C3153 0.928 1_554 S
H3142 C3150 0.950 . S
H3143 C3152 0.950 . S
H3144 C3154 0.950 . S
H3145 C3156 0.950 . S
H3146 C3158 0.950 . S
H3147 C3159 0.928 1_556 S
C3148 H3140 0.950 . S
C3148 C3149 1.386 . S
C3148 C3150 1.391 . S
C3149 C3148 1.386 . S
C3149 C3153 1.393 . S
C3150 H3142 0.950 . S
C3150 C3148 1.391 . S
C3150 C3151 1.400 . S
C3151 C3150 1.400 . S
C3151 C3152 1.398 1_556 S
C3151 C3157 1.491 1_556 S
C3152 H3143 0.950 . S
C3152 C3151 1.398 1_554 S
C3152 C3153 1.391 1_554 S
C3153 H3141 0.928 1_556 S
C3153 C3149 1.393 . S
C3153 C3152 1.391 1_556 S
C3154 H3144 0.950 . S
C3154 C3155 1.386 . S
C3154 C3156 1.391 . S
C3155 C3154 1.386 . S
C3155 C3159 1.393 . S
C3156 H3145 0.950 . S
C3156 C3154 1.391 . S
C3156 C3157 1.400 . S
C3157 C3151 1.491 1_554 S
C3157 C3156 1.400 . S
C3157 C3158 1.398 1_554 S
C3158 H3146 0.950 . S
C3158 C3157 1.398 1_556 S
C3158 C3159 1.391 1_556 S
C3159 H3147 0.928 1_554 S
C3159 C3155 1.393 . S
C3159 C3158 1.391 1_554 S
H3160 C3168 0.950 . S
H3161 C3173 0.950 . S
H3162 C3170 0.950 . S
H3163 C3172 0.950 . S
H3164 C3174 0.950 . S
H3165 C3176 0.950 . S
H3166 C3178 0.950 . S
H3167 C3179 0.950 . S
C3168 H3160 0.950 . S
C3168 C3169 1.386 . S
C3168 C3170 1.391 . S
C3169 C3168 1.386 . S
C3169 C3173 1.393 . S
C3170 H3162 0.950 . S
C3170 C3168 1.391 . S
C3170 C3171 1.400 . S
C3171 C3170 1.400 . S
C3171 C3172 1.398 . S
C3171 C3177 1.491 . S
C3172 H3163 0.950 . S
C3172 C3171 1.398 . S
C3172 C3173 1.391 . S
C3173 H3161 0.950 . S
C3173 C3169 1.393 . S
C3173 C3172 1.391 . S
C3174 H3164 0.950 . S
C3174 C3175 1.386 . S
C3174 C3176 1.391 . S
C3175 C3174 1.386 . S
C3175 C3179 1.393 . S
C3176 H3165 0.950 . S
C3176 C3174 1.391 . S
C3176 C3177 1.400 . S
C3177 C3171 1.491 . S
C3177 C3176 1.400 . S
C3177 C3178 1.398 . S
C3178 H3166 0.950 . S
C3178 C3177 1.398 . S
C3178 C3179 1.391 . S
C3179 H3167 0.950 . S
C3179 C3175 1.393 . S
C3179 C3178 1.391 . S
H3180 C3188 0.950 . S
H3181 C3193 0.950 . S
H3182 C3190 0.950 . S
H3183 C3192 0.950 . S
H3184 C3194 0.950 . S
H3185 C3196 0.950 . S
H3186 C3198 0.950 . S
H3187 C3199 0.950 . S
C3188 H3180 0.950 . S
C3188 C3189 1.386 . S
C3188 C3190 1.391 . S
C3189 C3188 1.386 . S
C3189 C3193 1.393 . S
C3190 H3182 0.950 . S
C3190 C3188 1.391 . S
C3190 C3191 1.400 . S
C3191 C3190 1.400 . S
C3191 C3192 1.398 . S
C3191 C3197 1.491 . S
C3192 H3183 0.950 . S
C3192 C3191 1.398 . S
C3192 C3193 1.391 . S
C3193 H3181 0.950 . S
C3193 C3189 1.393 . S
C3193 C3192 1.391 . S
C3194 H3184 0.950 . S
C3194 C3195 1.386 . S
C3194 C3196 1.391 . S
C3195 C3194 1.386 . S
C3195 C3199 1.393 . S
C3196 H3185 0.950 . S
C3196 C3194 1.391 . S
C3196 C3197 1.400 . S
C3197 C3191 1.491 . S
C3197 C3196 1.400 . S
C3197 C3198 1.398 . S
C3198 H3186 0.950 . S
C3198 C3197 1.398 . S
C3198 C3199 1.391 . S
C3199 H3187 0.950 . S
C3199 C3195 1.393 . S
C3199 C3198 1.391 . S
C1289 C7 0.513 . S
C1295 C1091 0.567 . S
C1309 C47 0.523 . S
C1315 C331 0.581 . S
C1329 C87 0.510 . S
C1335 C1011 0.568 . S
C1349 C411 0.585 . S
C1355 C127 0.529 . S
C1369 C167 0.444 . S
C1375 C1171 0.498 . S
C1389 C571 0.545 . S
C1395 C207 0.488 . S
C1409 C1251 0.493 . S
C1415 C247 0.440 . S
C1429 C287 0.532 . S
C1435 C491 0.589 . S
C1449 C336 0.455 . S
C1455 C762 0.511 . S
C1469 C376 0.511 . S
C1475 C2 0.569 . S
C1489 C682 0.511 . S
C1495 C416 0.460 . S
C1509 C82 0.501 . S
C1515 C456 0.447 . S
C1529 C496 0.528 . S
C1535 C842 0.586 . S
C1549 C536 0.493 . S
C1555 C242 0.546 . S
C1569 C576 0.498 . S
C1575 C922 0.556 . S
C1589 C162 0.586 . S
C1595 C616 0.528 . S
C1609 C451 0.589 . S
C1615 C647 0.532 . S
C1629 C971 0.587 . S
C1635 C687 0.531 . S
C1649 C371 0.585 . S
C1655 C727 0.527 . S
C1669 C767 0.440 . S
C1675 C1051 0.493 . S
C1689 C531 0.544 . S
C1695 C807 0.492 . S
C1709 C1211 0.572 . S
C1715 C847 0.518 . S
C1729 C611 0.574 . S
C1735 C887 0.519 . S
C1749 C927 0.532 . S
C1755 C1131 0.588 . S
C1769 C976 0.484 . S
C1775 C122 0.536 . S
C1789 C1016 0.477 . S
C1795 C642 0.529 . S
C1809 C1056 0.531 . S
C1815 C42 0.588 . S
C1829 C1096 0.480 . S
C1835 C722 0.537 . S
C1849 C202 0.586 . S
C1855 C1136 0.530 . S
C1869 C882 0.496 . S
C1875 C1176 0.442 . S
C1889 C1216 0.511 . S
C1895 C282 0.569 . S
C1909 C1256 0.532 . S
C1915 C802 0.589 . S
C1929 C19 2.650 . S
C1935 C739 2.652 . S
C1949 C779 2.649 . S
C1955 C59 2.652 . S
C1969 C99 2.652 . S
C1975 C659 2.655 . S
C1989 C139 2.642 . S
C1995 C699 2.643 . S
C2009 C899 2.657 . S
C2015 C179 2.658 . S
C2029 C219 2.651 . S
C2035 C939 2.653 . S
C2049 C819 2.655 . S
C2055 C259 2.657 . S
C2069 C299 2.656 . S
C2075 C859 2.658 . S
C2089 C1050 2.659 . S
C2095 C330 2.659 . S
C2109 C370 2.653 . S
C2115 C1090 2.650 . S
C2129 C410 2.648 . S
C2135 C970 2.646 . S
C2149 C450 2.659 . S
C2155 C1010 2.658 . S
C2169 C1210 2.655 . S
C2175 C490 2.653 . S
C2189 C1250 2.646 . S
C2195 C530 2.644 . S
C2209 C570 2.659 . S
C2215 C1130 2.659 . S
C2229 C610 2.660 . S
C2235 C1170 2.659 . S
C2249 C11 3.297 . S
C2255 C962 3.297 . S
C2269 C362 3.302 . S
C2275 C51 3.302 . S
C2289 C91 3.301 . S
C2295 C1042 3.301 . S
C2309 C131 3.291 . S
C2315 C442 3.291 . S
C2329 C1122 3.297 . S
C2335 C171 3.297 . S
C2349 C522 3.299 . S
C2355 C211 3.299 . S
C2369 C251 3.292 . S
C2375 C1202 3.292 . S
C2389 C291 3.299 . S
C2395 C602 3.299 . S
C2409 C651 3.293 . S
C2415 C322 3.293 . S
C2429 C731 3.303 . S
C2435 C402 3.303 . S
C2449 C811 3.299 . S
C2455 C482 3.299 . S
C2469 C562 3.297 . S
C2475 C891 3.297 . S
C2489 C691 3.292 . S
C2495 C1002 3.292 . S
C2509 C771 3.292 . S
C2515 C1082 3.292 . S
C2529 C1162 3.303 . S
C2535 C851 3.303 . S
C2549 C1242 3.299 . S
C2555 C931 3.299 . S
C2569 C10 4.574 . S
C2575 C210 4.588 . S
C2589 C250 4.564 . S
C2595 C50 4.577 . S
C2609 C290 4.583 . S
C2615 C90 4.570 . S
C2629 C170 4.572 . S
C2635 C130 4.586 . S
C2649 C339 4.574 . S
C2655 C539 4.588 . S
C2669 C379 4.580 . S
C2675 C579 4.567 . S
C2689 C619 4.588 . S
C2695 C419 4.574 . S
C2709 C459 4.588 . S
C2715 C499 4.574 . S
C2729 C650 4.565 . S
C2735 C850 4.565 . S
C2749 C690 4.572 . S
C2755 C890 4.572 . S
C2769 C730 4.566 . S
C2775 C930 4.566 . S
C2789 C810 4.570 . S
C2795 C770 4.570 . S
C2809 C979 4.565 . S
C2815 C1179 4.566 . S
C2829 C1019 4.567 . S
C2835 C1219 4.567 . S
C2849 C1259 4.566 . S
C2855 C1059 4.566 . S
C2869 C1099 4.572 . S
C2875 C1139 4.572 . S
C2889 C16 0.690 . S
C2895 C176 0.707 . S
C2909 C56 0.702 . S
C2915 C216 0.720 . S
C2929 C256 0.694 . S
C2935 C96 0.683 . S
C2949 C296 0.699 . S
C2955 C136 0.685 . S
C2969 C327 0.687 . S
C2975 C487 0.684 . S
C2989 C527 0.691 . S
C2995 C367 0.709 . S
C3009 C567 0.728 . S
C3015 C407 0.723 . S
C3029 C607 0.683 . S
C3035 C447 0.690 . S
C3049 C656 0.722 . S
C3055 C816 0.704 . S
C3069 C856 0.708 . S
C3075 C696 0.690 . S
C3089 C736 0.718 . S
C3095 C896 0.728 . S
C3109 C936 0.694 . S
C3115 C776 0.683 . S
C3129 C1127 0.697 . S
C3135 C967 0.684 . S
C3149 C1007 0.713 . S
C3155 C1167 0.694 . S
C3169 C1047 0.722 . S
C3175 C1207 0.728 . S
C3189 C1087 0.683 . S
C3195 C1247 0.688 . S
