# Generated by pormake.
# Topology yfu, (5)-cn, num edge types: 1
# Building blocks:
#     Node 0, Type 0, BuildingBlock: XOMCOT_clean_sbu_1, # of connection points: 5
#     Node 1, Type 0, BuildingBlock: XOMCOT_clean_sbu_1, # of connection points: 5
#     Node 2, Type 0, BuildingBlock: XOMCOT_clean_sbu_1, # of connection points: 5
#     Node 3, Type 0, BuildingBlock: XOMCOT_clean_sbu_1, # of connection points: 5
#     Node 4, Type 0, BuildingBlock: XOMCOT_clean_sbu_1, # of connection points: 5
#     Node 5, Type 0, BuildingBlock: XOMCOT_clean_sbu_1, # of connection points: 5
#     Node 6, Type 0, BuildingBlock: XOMCOT_clean_sbu_1, # of connection points: 5
#     Node 7, Type 0, BuildingBlock: XOMCOT_clean_sbu_1, # of connection points: 5
#     Node 8, Type 0, BuildingBlock: XOMCOT_clean_sbu_1, # of connection points: 5
#     Node 9, Type 0, BuildingBlock: XOMCOT_clean_sbu_1, # of connection points: 5
#     Node 10, Type 0, BuildingBlock: XOMCOT_clean_sbu_1, # of connection points: 5
#     Node 11, Type 0, BuildingBlock: XOMCOT_clean_sbu_1, # of connection points: 5
#     Node 12, Type 0, BuildingBlock: XOMCOT_clean_sbu_1, # of connection points: 5
#     Node 13, Type 0, BuildingBlock: XOMCOT_clean_sbu_1, # of connection points: 5
#     Node 14, Type 0, BuildingBlock: XOMCOT_clean_sbu_1, # of connection points: 5
#     Node 15, Type 0, BuildingBlock: XOMCOT_clean_sbu_1, # of connection points: 5
#     Node 16, Type 0, BuildingBlock: XOMCOT_clean_sbu_1, # of connection points: 5
#     Node 17, Type 0, BuildingBlock: XOMCOT_clean_sbu_1, # of connection points: 5
#     Node 18, Type 0, BuildingBlock: XOMCOT_clean_sbu_1, # of connection points: 5
#     Node 19, Type 0, BuildingBlock: XOMCOT_clean_sbu_1, # of connection points: 5
#     Node 20, Type 0, BuildingBlock: XOMCOT_clean_sbu_1, # of connection points: 5
#     Node 21, Type 0, BuildingBlock: XOMCOT_clean_sbu_1, # of connection points: 5
#     Node 22, Type 0, BuildingBlock: XOMCOT_clean_sbu_1, # of connection points: 5
#     Node 23, Type 0, BuildingBlock: XOMCOT_clean_sbu_1, # of connection points: 5
#     Node 24, Type 0, BuildingBlock: XOMCOT_clean_sbu_1, # of connection points: 5
#     Node 25, Type 0, BuildingBlock: XOMCOT_clean_sbu_1, # of connection points: 5
#     Node 26, Type 0, BuildingBlock: XOMCOT_clean_sbu_1, # of connection points: 5
#     Node 27, Type 0, BuildingBlock: XOMCOT_clean_sbu_1, # of connection points: 5
#     Node 28, Type 0, BuildingBlock: XOMCOT_clean_sbu_1, # of connection points: 5
#     Node 29, Type 0, BuildingBlock: XOMCOT_clean_sbu_1, # of connection points: 5
#     Node 30, Type 0, BuildingBlock: XOMCOT_clean_sbu_1, # of connection points: 5
#     Node 31, Type 0, BuildingBlock: XOMCOT_clean_sbu_1, # of connection points: 5
#     Edge 32, Type (0, 0), BuildingBlock: XUDNAN_clean_linker_2, # of connection points: 2
#     Edge 33, Type (0, 0), BuildingBlock: XUDNAN_clean_linker_2, # of connection points: 2
#     Edge 34, Type (0, 0), BuildingBlock: XUDNAN_clean_linker_2, # of connection points: 2
#     Edge 35, Type (0, 0), BuildingBlock: XUDNAN_clean_linker_2, # of connection points: 2
#     Edge 36, Type (0, 0), BuildingBlock: XUDNAN_clean_linker_2, # of connection points: 2
#     Edge 37, Type (0, 0), BuildingBlock: XUDNAN_clean_linker_2, # of connection points: 2
#     Edge 38, Type (0, 0), BuildingBlock: XUDNAN_clean_linker_2, # of connection points: 2
#     Edge 39, Type (0, 0), BuildingBlock: XUDNAN_clean_linker_2, # of connection points: 2
#     Edge 40, Type (0, 0), BuildingBlock: XUDNAN_clean_linker_2, # of connection points: 2
#     Edge 41, Type (0, 0), BuildingBlock: XUDNAN_clean_linker_2, # of connection points: 2
#     Edge 42, Type (0, 0), BuildingBlock: XUDNAN_clean_linker_2, # of connection points: 2
#     Edge 43, Type (0, 0), BuildingBlock: XUDNAN_clean_linker_2, # of connection points: 2
#     Edge 44, Type (0, 0), BuildingBlock: XUDNAN_clean_linker_2, # of connection points: 2
#     Edge 45, Type (0, 0), BuildingBlock: XUDNAN_clean_linker_2, # of connection points: 2
#     Edge 46, Type (0, 0), BuildingBlock: XUDNAN_clean_linker_2, # of connection points: 2
#     Edge 47, Type (0, 0), BuildingBlock: XUDNAN_clean_linker_2, # of connection points: 2
#     Edge 48, Type (0, 0), BuildingBlock: XUDNAN_clean_linker_2, # of connection points: 2
#     Edge 49, Type (0, 0), BuildingBlock: XUDNAN_clean_linker_2, # of connection points: 2
#     Edge 50, Type (0, 0), BuildingBlock: XUDNAN_clean_linker_2, # of connection points: 2
#     Edge 51, Type (0, 0), BuildingBlock: XUDNAN_clean_linker_2, # of connection points: 2
#     Edge 52, Type (0, 0), BuildingBlock: XUDNAN_clean_linker_2, # of connection points: 2
#     Edge 53, Type (0, 0), BuildingBlock: XUDNAN_clean_linker_2, # of connection points: 2
#     Edge 54, Type (0, 0), BuildingBlock: XUDNAN_clean_linker_2, # of connection points: 2
#     Edge 55, Type (0, 0), BuildingBlock: XUDNAN_clean_linker_2, # of connection points: 2
#     Edge 56, Type (0, 0), BuildingBlock: XUDNAN_clean_linker_2, # of connection points: 2
#     Edge 57, Type (0, 0), BuildingBlock: XUDNAN_clean_linker_2, # of connection points: 2
#     Edge 58, Type (0, 0), BuildingBlock: XUDNAN_clean_linker_2, # of connection points: 2
#     Edge 59, Type (0, 0), BuildingBlock: XUDNAN_clean_linker_2, # of connection points: 2
#     Edge 60, Type (0, 0), BuildingBlock: XUDNAN_clean_linker_2, # of connection points: 2
#     Edge 61, Type (0, 0), BuildingBlock: XUDNAN_clean_linker_2, # of connection points: 2
#     Edge 62, Type (0, 0), BuildingBlock: XUDNAN_clean_linker_2, # of connection points: 2
#     Edge 63, Type (0, 0), BuildingBlock: XUDNAN_clean_linker_2, # of connection points: 2
#     Edge 64, Type (0, 0), BuildingBlock: XUDNAN_clean_linker_2, # of connection points: 2
#     Edge 65, Type (0, 0), BuildingBlock: XUDNAN_clean_linker_2, # of connection points: 2
#     Edge 66, Type (0, 0), BuildingBlock: XUDNAN_clean_linker_2, # of connection points: 2
#     Edge 67, Type (0, 0), BuildingBlock: XUDNAN_clean_linker_2, # of connection points: 2
#     Edge 68, Type (0, 0), BuildingBlock: XUDNAN_clean_linker_2, # of connection points: 2
#     Edge 69, Type (0, 0), BuildingBlock: XUDNAN_clean_linker_2, # of connection points: 2
#     Edge 70, Type (0, 0), BuildingBlock: XUDNAN_clean_linker_2, # of connection points: 2
#     Edge 71, Type (0, 0), BuildingBlock: XUDNAN_clean_linker_2, # of connection points: 2
#     Edge 72, Type (0, 0), BuildingBlock: XUDNAN_clean_linker_2, # of connection points: 2
#     Edge 73, Type (0, 0), BuildingBlock: XUDNAN_clean_linker_2, # of connection points: 2
#     Edge 74, Type (0, 0), BuildingBlock: XUDNAN_clean_linker_2, # of connection points: 2
#     Edge 75, Type (0, 0), BuildingBlock: XUDNAN_clean_linker_2, # of connection points: 2
#     Edge 76, Type (0, 0), BuildingBlock: XUDNAN_clean_linker_2, # of connection points: 2
#     Edge 77, Type (0, 0), BuildingBlock: XUDNAN_clean_linker_2, # of connection points: 2
#     Edge 78, Type (0, 0), BuildingBlock: XUDNAN_clean_linker_2, # of connection points: 2
#     Edge 79, Type (0, 0), BuildingBlock: XUDNAN_clean_linker_2, # of connection points: 2
#     Edge 80, Type (0, 0), BuildingBlock: XUDNAN_clean_linker_2, # of connection points: 2
#     Edge 81, Type (0, 0), BuildingBlock: XUDNAN_clean_linker_2, # of connection points: 2
#     Edge 82, Type (0, 0), BuildingBlock: XUDNAN_clean_linker_2, # of connection points: 2
#     Edge 83, Type (0, 0), BuildingBlock: XUDNAN_clean_linker_2, # of connection points: 2
#     Edge 84, Type (0, 0), BuildingBlock: XUDNAN_clean_linker_2, # of connection points: 2
#     Edge 85, Type (0, 0), BuildingBlock: XUDNAN_clean_linker_2, # of connection points: 2
#     Edge 86, Type (0, 0), BuildingBlock: XUDNAN_clean_linker_2, # of connection points: 2
#     Edge 87, Type (0, 0), BuildingBlock: XUDNAN_clean_linker_2, # of connection points: 2
#     Edge 88, Type (0, 0), BuildingBlock: XUDNAN_clean_linker_2, # of connection points: 2
#     Edge 89, Type (0, 0), BuildingBlock: XUDNAN_clean_linker_2, # of connection points: 2
#     Edge 90, Type (0, 0), BuildingBlock: XUDNAN_clean_linker_2, # of connection points: 2
#     Edge 91, Type (0, 0), BuildingBlock: XUDNAN_clean_linker_2, # of connection points: 2
#     Edge 92, Type (0, 0), BuildingBlock: XUDNAN_clean_linker_2, # of connection points: 2
#     Edge 93, Type (0, 0), BuildingBlock: XUDNAN_clean_linker_2, # of connection points: 2
#     Edge 94, Type (0, 0), BuildingBlock: XUDNAN_clean_linker_2, # of connection points: 2
#     Edge 95, Type (0, 0), BuildingBlock: XUDNAN_clean_linker_2, # of connection points: 2
#     Edge 96, Type (0, 0), BuildingBlock: XUDNAN_clean_linker_2, # of connection points: 2
#     Edge 97, Type (0, 0), BuildingBlock: XUDNAN_clean_linker_2, # of connection points: 2
#     Edge 98, Type (0, 0), BuildingBlock: XUDNAN_clean_linker_2, # of connection points: 2
#     Edge 99, Type (0, 0), BuildingBlock: XUDNAN_clean_linker_2, # of connection points: 2
#     Edge 100, Type (0, 0), BuildingBlock: XUDNAN_clean_linker_2, # of connection points: 2
#     Edge 101, Type (0, 0), BuildingBlock: XUDNAN_clean_linker_2, # of connection points: 2
#     Edge 102, Type (0, 0), BuildingBlock: XUDNAN_clean_linker_2, # of connection points: 2
#     Edge 103, Type (0, 0), BuildingBlock: XUDNAN_clean_linker_2, # of connection points: 2
#     Edge 104, Type (0, 0), BuildingBlock: XUDNAN_clean_linker_2, # of connection points: 2
#     Edge 105, Type (0, 0), BuildingBlock: XUDNAN_clean_linker_2, # of connection points: 2
#     Edge 106, Type (0, 0), BuildingBlock: XUDNAN_clean_linker_2, # of connection points: 2
#     Edge 107, Type (0, 0), BuildingBlock: XUDNAN_clean_linker_2, # of connection points: 2
#     Edge 108, Type (0, 0), BuildingBlock: XUDNAN_clean_linker_2, # of connection points: 2
#     Edge 109, Type (0, 0), BuildingBlock: XUDNAN_clean_linker_2, # of connection points: 2
#     Edge 110, Type (0, 0), BuildingBlock: XUDNAN_clean_linker_2, # of connection points: 2
#     Edge 111, Type (0, 0), BuildingBlock: XUDNAN_clean_linker_2, # of connection points: 2
# Relax obj value: 0.459
# Max RMSD: 0.265
# Mean RMSD: 0.265
data_MOF--net-yfu--node1-XOMCOT_clean_sbu_1--edge1-XUDNAN_clean_linker_2
_symmetry_space_group_name_H-M    P1
_symmetry_Int_Tables_number       1
_symmetry_cell_setting            triclinic
loop_
_symmetry_equiv_pos_as_xyz
'x, y, z'
_cell_length_a     45.81914
_cell_length_b     45.624501
_cell_length_c     81.123716
_cell_angle_alpha  90.032786
_cell_angle_beta   89.919856
_cell_angle_gamma 90.110624
loop_
_atom_site_label
_atom_site_type_symbol
_atom_site_fract_x
_atom_site_fract_y
_atom_site_fract_z
_atom_type_partial_charge
C0 C 0.05331 0.11518 0.29147 0.0
C1 C 0.03655 0.14037 0.29118 0.0
N2 N 0.04799 0.15969 0.30194 0.0
N3 N 0.07551 0.11868 0.30223 0.0
C4 C 0.07139 0.146 0.30848 0.0
H5 H 0.05002 0.09598 0.28388 0.0
Co6 Co 0.10815 0.0939 0.30569 0.0
C7 C 0.15726 0.13715 0.3096 0.0
O8 O 0.17668 0.11841 0.31507 0.0
N9 N 0.14176 0.06948 0.30926 0.0
C10 C 0.18429 0.04658 0.30537 0.0
C11 C 0.1628 0.06311 0.29809 0.0
C12 C 0.15128 0.05626 0.32328 0.0
N13 N 0.17705 0.04232 0.32126 0.0
O14 O 0.1127 0.09041 0.28248 0.0
H15 H 0.1633 0.07085 0.2855 0.0
H16 H 0.14045 0.0578 0.33506 0.0
O17 O 0.13167 0.12859 0.30594 0.0
C18 C 0.10335 0.06541 0.27785 0.0
O19 O 0.09411 0.04681 0.28908 0.0
N20 N 0.10104 0.09508 0.32809 0.0
C21 C 0.07911 0.08973 0.35991 0.0
C22 C 0.09697 0.1137 0.35555 0.0
C23 C 0.10809 0.11581 0.33953 0.0
C24 C 0.08472 0.07128 0.33224 0.0
C25 C 0.07441 0.06764 0.34819 0.0
H26 H 0.12089 0.13478 0.33623 0.0
H27 H 0.07966 0.05502 0.32296 0.0
H28 H 0.0861 0.1564 0.3171 0.0
H29 H 0.01759 0.14425 0.28355 0.0
H30 H 0.20393 0.03866 0.29945 0.0
H31 H 0.10093 0.13158 0.36403 0.0
H32 H 0.06165 0.04829 0.35102 0.0
C33 C 0.15796 0.79255 0.53628 0.0
C34 C 0.13319 0.77536 0.53507 0.0
N35 N 0.11412 0.78397 0.54672 0.0
N36 N 0.15459 0.81241 0.54849 0.0
C37 C 0.12759 0.80625 0.55471 0.0
H38 H 0.17698 0.79116 0.52841 0.0
Co39 Co 0.18168 0.84351 0.55319 0.0
C40 C 0.12959 0.8731 0.54274 0.0
O41 O 0.12979 0.85657 0.52948 0.0
N42 N 0.20882 0.87378 0.55803 0.0
C43 C 0.25061 0.89882 0.55876 0.0
C44 C 0.23544 0.87665 0.55104 0.0
C45 C 0.20868 0.89405 0.57031 0.0
N46 N 0.23388 0.90957 0.57098 0.0
O47 O 0.18812 0.8494 0.52973 0.0
H48 H 0.24373 0.86274 0.54131 0.0
H49 H 0.19094 0.89655 0.57902 0.0
O50 O 0.15003 0.87112 0.55336 0.0
C51 C 0.19245 0.87209 0.52083 0.0
O52 O 0.18978 0.89837 0.52729 0.0
N53 N 0.17816 0.83636 0.57569 0.0
C54 C 0.18198 0.81877 0.60868 0.0
C55 C 0.15637 0.83199 0.60246 0.0
C56 C 0.15529 0.84157 0.58605 0.0
C57 C 0.20344 0.82499 0.58157 0.0
C58 C 0.2063 0.81755 0.59806 0.0
H59 H 0.13578 0.8522 0.58161 0.0
H60 H 0.22177 0.82202 0.57332 0.0
H61 H 0.11706 0.81878 0.56429 0.0
H62 H 0.12948 0.75786 0.5263 0.0
H63 H 0.2729 0.90536 0.55624 0.0
H64 H 0.13684 0.83426 0.6098 0.0
H65 H 0.22751 0.81016 0.60202 0.0
C66 C 0.45187 0.91094 0.78869 0.0
C67 C 0.47594 0.89438 0.78452 0.0
N68 N 0.47324 0.86786 0.79166 0.0
N69 N 0.43381 0.8947 0.79815 0.0
C70 C 0.44772 0.86872 0.7999 0.0
H71 H 0.44745 0.93305 0.78463 0.0
Co72 Co 0.39661 0.90459 0.80592 0.0
C73 C 0.369 0.85373 0.7886 0.0
O74 O 0.35525 0.86983 0.77768 0.0
N75 N 0.35973 0.9145 0.81401 0.0
C76 C 0.31391 0.91483 0.823 0.0
C77 C 0.33456 0.8991 0.81447 0.0
C78 C 0.35385 0.93935 0.82245 0.0
N79 N 0.32609 0.94017 0.82808 0.0
O80 O 0.3862 0.91869 0.78463 0.0
H81 H 0.33136 0.87736 0.80956 0.0
H82 H 0.3699 0.95631 0.82463 0.0
O83 O 0.38394 0.86564 0.80004 0.0
C84 C 0.38675 0.94622 0.78211 0.0
O85 O 0.39401 0.96374 0.7943 0.0
N86 N 0.40733 0.89273 0.82691 0.0
C87 C 0.43473 0.88132 0.8566 0.0
C88 C 0.41999 0.85886 0.84825 0.0
C89 C 0.40574 0.86517 0.83346 0.0
C90 C 0.42004 0.91505 0.8354 0.0
C91 C 0.43363 0.9099 0.85042 0.0
H92 H 0.39528 0.84748 0.82689 0.0
H93 H 0.42102 0.93667 0.82996 0.0
H94 H 0.43874 0.8502 0.80646 0.0
H95 H 0.49367 0.90104 0.77651 0.0
H96 H 0.29199 0.90752 0.82582 0.0
H97 H 0.42087 0.83646 0.85266 0.0
H98 H 0.44532 0.92761 0.85642 0.0
C99 C 0.34564 0.22767 0.04492 0.0
C100 C 0.36657 0.24745 0.03976 0.0
N101 N 0.3925 0.2336 0.03908 0.0
N102 N 0.35818 0.20133 0.04746 0.0
C103 C 0.38658 0.20553 0.04336 0.0
H104 H 0.32328 0.23284 0.04803 0.0
Co105 Co 0.34104 0.16985 0.05929 0.0
C106 C 0.40078 0.14766 0.07022 0.0
O107 O 0.40165 0.16121 0.08446 0.0
N108 N 0.32453 0.13814 0.07116 0.0
C109 C 0.31791 0.10609 0.09147 0.0
C110 C 0.33659 0.12618 0.08477 0.0
C111 C 0.29822 0.12461 0.06982 0.0
N112 N 0.2937 0.10519 0.08218 0.0
O113 O 0.33398 0.14959 0.03925 0.0
H114 H 0.35688 0.13281 0.09027 0.0
H115 H 0.28207 0.13009 0.06061 0.0
O116 O 0.37884 0.15005 0.06066 0.0
C117 C 0.31077 0.1596 0.03281 0.0
O118 O 0.29666 0.18081 0.0403 0.0
N119 N 0.34443 0.19184 0.07894 0.0
C120 C 0.33731 0.2325 0.10439 0.0
C121 C 0.364 0.23021 0.09596 0.0
C122 C 0.36694 0.21011 0.08307 0.0
C123 C 0.31827 0.19428 0.08694 0.0
C124 C 0.31445 0.21389 0.09988 0.0
H125 H 0.38686 0.21041 0.07598 0.0
H126 H 0.29949 0.18208 0.08275 0.0
H127 H 0.40318 0.18895 0.04466 0.0
H128 H 0.36337 0.27076 0.03809 0.0
H129 H 0.32142 0.09377 0.1027 0.0
H130 H 0.38192 0.24497 0.09863 0.0
H131 H 0.29336 0.21519 0.10588 0.0
C132 C 0.02253 0.90834 0.14286 0.0
C133 C 1.00627 0.88308 0.1446 0.0
N134 N 0.01906 0.86614 0.15605 0.0
N135 N 0.04605 0.9071 0.15286 0.0
C136 C 0.04247 0.88166 0.16127 0.0
H137 H 0.01867 0.92531 0.13384 0.0
Co138 Co 0.08064 0.92957 0.15029 0.0
C139 C 0.11844 0.88762 0.16908 0.0
O140 O 0.12336 0.90488 0.18172 0.0
N141 N 0.11581 0.95202 0.14763 0.0
C142 C 0.15569 0.97805 0.15373 0.0
C143 C 0.13354 0.96105 0.15996 0.0
C144 C 0.12817 0.96401 0.13396 0.0
N145 N 0.15225 0.9801 0.13731 0.0
O146 O 0.07741 0.94311 0.17226 0.0
H147 H 0.13033 0.95652 0.17288 0.0
H148 H 0.11956 0.96182 0.12171 0.0
O149 O 0.10311 0.89613 0.15691 0.0
C150 C 0.06599 0.96852 0.17249 0.0
O151 O 0.05566 0.97922 0.15864 0.0
N152 N 0.0818 0.91807 0.12835 0.0
C153 C 0.06296 0.90395 0.09692 0.0
C154 C 0.07629 0.88261 0.10681 0.0
C155 C 0.08592 0.89022 0.1226 0.0
C156 C 0.07023 0.9392 0.11851 0.0
C157 C 0.06161 0.93287 0.10254 0.0
H158 H 0.09377 0.87309 0.13062 0.0
H159 H 0.06583 0.96069 0.12358 0.0
H160 H 0.05782 0.87363 0.17027 0.0
H161 H 0.98728 0.87699 0.13746 0.0
H162 H 0.17282 0.98827 0.16089 0.0
H163 H 0.07674 0.85986 0.10298 0.0
H164 H 0.05052 0.94965 0.09548 0.0
C165 C 0.40544 0.85272 0.4349 0.0
C166 C 0.42817 0.83325 0.43623 0.0
N167 N 0.43943 0.82886 0.42113 0.0
N168 N 0.40159 0.86036 0.41893 0.0
C169 C 0.423 0.84545 0.41088 0.0
H170 H 0.39394 0.86245 0.44518 0.0
Co171 Co 0.37954 0.89366 0.41179 0.0
C172 C 0.42517 0.92237 0.42145 0.0
O173 O 0.42999 0.91461 0.40608 0.0
N174 N 0.35946 0.92748 0.40445 0.0
C175 C 0.35335 0.96972 0.39116 0.0
C176 C 0.37325 0.9512 0.39823 0.0
C177 C 0.33082 0.93256 0.40121 0.0
N178 N 0.32662 0.95784 0.39278 0.0
O179 O 0.34826 0.88552 0.42807 0.0
H180 H 0.39655 0.95443 0.39791 0.0
H181 H 0.31347 0.91737 0.40408 0.0
O182 O 0.40051 0.91629 0.42782 0.0
C183 C 0.3375 0.86086 0.43264 0.0
O184 O 0.3474 0.83647 0.42607 0.0
N185 N 0.36102 0.87176 0.39508 0.0
C186 C 0.34212 0.83599 0.36941 0.0
C187 C 0.37005 0.8486 0.36905 0.0
C188 C 0.37877 0.86696 0.38188 0.0
C189 C 0.3326 0.86257 0.39458 0.0
C190 C 0.32283 0.84438 0.38194 0.0
H191 H 0.40027 0.87672 0.38159 0.0
H192 H 0.31717 0.86856 0.40398 0.0
H193 H 0.4284 0.84866 0.39805 0.0
H194 H 0.43679 0.82429 0.44758 0.0
H195 H 0.35841 0.98989 0.38474 0.0
H196 H 0.38561 0.84318 0.35947 0.0
H197 H 0.30066 0.83613 0.3823 0.0
C198 C 0.45207 0.10892 0.67127 0.0
C199 C 0.47411 0.12765 0.67601 0.0
N200 N 0.4629 0.15461 0.6787 0.0
N201 N 0.42658 0.12348 0.67093 0.0
C202 C 0.43387 0.15125 0.67563 0.0
H203 H 0.45486 0.08649 0.66729 0.0
Co204 Co 0.39204 0.1078 0.66116 0.0
C205 C 0.34589 0.14554 0.67513 0.0
O206 O 0.32898 0.12325 0.67892 0.0
N207 N 0.35785 0.0924 0.65078 0.0
C208 C 0.32033 0.09049 0.63328 0.0
C209 C 0.33952 0.10858 0.64142 0.0
C210 C 0.34898 0.06432 0.64814 0.0
N211 N 0.32626 0.06266 0.63751 0.0
O212 O 0.383 0.08723 0.681 0.0
H213 H 0.34098 0.13209 0.6399 0.0
H214 H 0.3599 0.04527 0.65303 0.0
O215 O 0.37065 0.14123 0.66843 0.0
C216 C 0.39299 0.06121 0.68078 0.0
O217 O 0.40814 0.05258 0.6679 0.0
N218 N 0.40201 0.12611 0.64158 0.0
C219 C 0.42987 0.1463 0.61356 0.0
C220 C 0.41964 0.1662 0.62537 0.0
C221 C 0.40517 0.15559 0.6393 0.0
C222 C 0.40996 0.10676 0.62965 0.0
C223 C 0.42347 0.11647 0.61533 0.0
H224 H 0.39869 0.17085 0.64875 0.0
H225 H 0.40752 0.08348 0.63179 0.0
H226 H 0.41845 0.16901 0.67596 0.0
H227 H 0.49695 0.12184 0.67648 0.0
H228 H 0.30374 0.09718 0.62457 0.0
H229 H 0.42482 0.18932 0.62447 0.0
H230 H 0.43174 0.10047 0.60663 0.0
C231 C 0.15286 0.20161 0.90446 0.0
C232 C 0.13295 0.22367 0.90734 0.0
N233 N 0.1129 0.2138 0.91817 0.0
N234 N 0.14517 0.17754 0.91313 0.0
C235 C 0.12154 0.18623 0.92191 0.0
H236 H 0.17038 0.20244 0.89554 0.0
Co237 Co 0.15742 0.13856 0.90871 0.0
C238 C 0.1046 0.11016 0.92451 0.0
O239 O 0.11817 0.09402 0.93547 0.0
N240 N 0.16929 0.10038 0.90391 0.0
C241 C 0.16982 0.05437 0.89497 0.0
C242 C 0.15269 0.07637 0.90121 0.0
C243 C 0.19641 0.09243 0.89911 0.0
N244 N 0.19729 0.06456 0.89344 0.0
O245 O 0.16973 0.13376 0.93081 0.0
H246 H 0.12928 0.07521 0.90245 0.0
H247 H 0.21462 0.10755 0.89861 0.0
O248 O 0.11881 0.12571 0.91423 0.0
C249 C 0.19447 0.14555 0.93339 0.0
O250 O 0.2068 0.16064 0.92145 0.0
N251 N 0.14749 0.14346 0.88672 0.0
C252 C 0.1384 0.16705 0.8557 0.0
C253 C 0.11527 0.15376 0.86435 0.0
C254 C 0.12017 0.14247 0.88008 0.0
C255 C 0.17082 0.15187 0.87745 0.0
C256 C 0.16678 0.16399 0.86189 0.0
H257 H 0.10167 0.13501 0.88717 0.0
H258 H 0.19234 0.1521 0.88291 0.0
H259 H 0.10952 0.17185 0.93 0.0
H260 H 0.13239 0.24471 0.9012 0.0
H261 H 0.16225 0.03294 0.89116 0.0
H262 H 0.09311 0.15483 0.85976 0.0
H263 H 0.18537 0.17383 0.85576 0.0
C264 C 0.97056 0.89829 0.65593 0.0
C265 C 0.9911 0.87865 0.66147 0.0
N266 N 0.97808 0.85988 0.672 0.0
N267 N 0.94437 0.8916 0.66257 0.0
C268 C 0.95017 0.86947 0.67316 0.0
H269 H 0.97396 0.91459 0.64644 0.0
Co270 Co 0.90811 0.90514 0.65441 0.0
C271 C 0.89156 0.83908 0.65889 0.0
O272 O 0.91707 0.82603 0.65847 0.0
N273 N 0.87207 0.91855 0.64602 0.0
C274 C 0.83352 0.91909 0.62942 0.0
C275 C 0.85513 0.90214 0.63599 0.0
C276 C 0.86033 0.94577 0.64515 0.0
N277 N 0.83698 0.94668 0.63494 0.0
O278 O 0.8967 0.91527 0.67608 0.0
H279 H 0.85958 0.87974 0.63249 0.0
H280 H 0.87016 0.96498 0.65066 0.0
O281 O 0.88968 0.86681 0.6571 0.0
C282 C 0.90438 0.94148 0.67924 0.0
O283 O 0.91785 0.9566 0.66772 0.0
N284 N 0.92047 0.89789 0.63281 0.0
C285 C 0.95284 0.9006 0.60386 0.0
C286 C 0.94943 0.87384 0.61226 0.0
C287 C 0.93278 0.87289 0.62676 0.0
C288 C 0.92182 0.92334 0.62406 0.0
C289 C 0.93694 0.92489 0.6093 0.0
H290 H 0.9325 0.85301 0.63386 0.0
H291 H 0.91309 0.94334 0.62919 0.0
H292 H 0.93355 0.85882 0.68049 0.0
H293 H 0.01339 0.87711 0.65713 0.0
H294 H 0.81744 0.91189 0.62052 0.0
H295 H 0.96153 0.85455 0.60856 0.0
H296 H 0.93835 0.9458 0.60302 0.0
C297 C 0.86617 0.2324 0.41775 0.0
C298 C 0.88478 0.2499 0.42675 0.0
N299 N 0.8989 0.23323 0.43797 0.0
N300 N 0.86853 0.20454 0.42303 0.0
C301 C 0.88673 0.20623 0.43616 0.0
H302 H 0.85373 0.23925 0.40712 0.0
Co303 Co 0.85542 0.16987 0.41216 0.0
C304 C 0.92112 0.16301 0.41441 0.0
O305 O 0.9265 0.19126 0.41393 0.0
N306 N 0.84228 0.13553 0.4016 0.0
C307 C 0.83982 0.0982 0.38412 0.0
C308 C 0.85761 0.11941 0.39072 0.0
C309 C 0.81514 0.12369 0.40138 0.0
N310 N 0.81289 0.10081 0.39075 0.0
O311 O 0.84594 0.15309 0.43283 0.0
H312 H 0.87989 0.12377 0.38708 0.0
H313 H 0.7972 0.13251 0.40845 0.0
O314 O 0.89506 0.15308 0.41303 0.0
C315 C 0.82117 0.16446 0.43598 0.0
O316 O 0.81057 0.18385 0.42561 0.0
N317 N 0.86044 0.18724 0.39144 0.0
C318 C 0.85324 0.22116 0.36306 0.0
C319 C 0.88132 0.21463 0.36915 0.0
C320 C 0.88447 0.19692 0.38313 0.0
C321 C 0.83331 0.1919 0.38517 0.0
C322 C 0.8293 0.20768 0.37075 0.0
H323 H 0.90608 0.1923 0.38739 0.0
H324 H 0.81434 0.18394 0.39172 0.0
H325 H 0.89403 0.18688 0.44261 0.0
H326 H 0.88925 0.27264 0.42401 0.0
H327 H 0.84621 0.08305 0.37453 0.0
H328 H 0.90081 0.22403 0.36379 0.0
H329 H 0.80727 0.21016 0.36622 0.0
C330 C 0.54181 0.12091 0.16327 0.0
C331 C 0.52811 0.1476 0.16494 0.0
N332 N 0.54828 0.16807 0.16868 0.0
N333 N 0.57073 0.12413 0.16583 0.0
C334 C 0.57388 0.15312 0.16934 0.0
H335 H 0.53117 0.10043 0.16031 0.0
Co336 Co 0.59943 0.09405 0.16332 0.0
C337 C 0.64956 0.13524 0.16358 0.0
O338 O 0.662 0.1233 0.17651 0.0
N339 N 0.62745 0.06439 0.16062 0.0
C340 C 0.64746 0.02031 0.16309 0.0
C341 C 0.62731 0.03947 0.16949 0.0
C342 C 0.64797 0.05984 0.14879 0.0
N343 N 0.66033 0.03292 0.14992 0.0
O344 O 0.6097 0.09677 0.18612 0.0
H345 H 0.61243 0.03488 0.17952 0.0
H346 H 0.65245 0.07522 0.13896 0.0
O347 O 0.62666 0.1239 0.15744 0.0
C348 C 0.59083 0.08593 0.19596 0.0
O349 O 0.56475 0.0797 0.19022 0.0
N350 N 0.58829 0.08868 0.14161 0.0
C351 C 0.56462 0.07435 0.11101 0.0
C352 C 0.58811 0.09425 0.11229 0.0
C353 C 0.5993 0.10159 0.12777 0.0
C354 C 0.56762 0.06741 0.14052 0.0
C355 C 0.5551 0.06026 0.12545 0.0
H356 H 0.61664 0.11759 0.12853 0.0
H357 H 0.55999 0.05673 0.15163 0.0
H358 H 0.59465 0.16323 0.17207 0.0
H359 H 0.50493 0.15145 0.16365 0.0
H360 H 0.65163 0.99837 0.16756 0.0
H361 H 0.5972 0.10494 0.10154 0.0
H362 H 0.53697 0.04505 0.12548 0.0
C363 C 0.67106 0.8088 0.91131 0.0
C364 C 0.64861 0.78891 0.9135 0.0
N365 N 0.63096 0.79022 0.90028 0.0
N366 N 0.66724 0.82311 0.8969 0.0
C367 C 0.64291 0.81072 0.89035 0.0
H368 H 0.68759 0.81408 0.92033 0.0
Co369 Co 0.68341 0.85955 0.89029 0.0
C370 C 0.62701 0.87842 0.90337 0.0
O371 O 0.63653 0.87525 0.91852 0.0
N372 N 0.69797 0.89627 0.88373 0.0
C373 C 0.7069 0.94418 0.88351 0.0
C374 C 0.69137 0.92205 0.89098 0.0
C375 C 0.71737 0.90331 0.87175 0.0
N376 N 0.72314 0.93238 0.87138 0.0
O377 O 0.69146 0.86944 0.91283 0.0
H378 H 0.67649 0.92452 0.90125 0.0
H379 H 0.72759 0.88742 0.86371 0.0
O380 O 0.64426 0.87499 0.89115 0.0
C381 C 0.71876 0.87024 0.91579 0.0
O382 O 0.73719 0.86475 0.90376 0.0
N383 N 0.67938 0.84907 0.86839 0.0
C384 C 0.68576 0.8313 0.83579 0.0
C385 C 0.66401 0.8516 0.84019 0.0
C386 C 0.66137 0.86057 0.85668 0.0
C387 C 0.70045 0.82945 0.86434 0.0
C388 C 0.704 0.82023 0.84817 0.0
H389 H 0.64532 0.87689 0.85997 0.0
H390 H 0.71484 0.82118 0.87381 0.0
H391 H 0.6325 0.8185 0.87924 0.0
H392 H 0.64468 0.77567 0.92435 0.0
H393 H 0.70625 0.96722 0.88669 0.0
H394 H 0.64937 0.86048 0.831 0.0
H395 H 0.72049 0.80392 0.84552 0.0
C396 C 0.97203 0.12705 0.77248 0.0
C397 C 0.98663 0.15189 0.76753 0.0
N398 N 0.97953 0.17427 0.7777 0.0
N399 N 0.95534 0.13339 0.78565 0.0
C400 C 0.96035 0.16231 0.78855 0.0
H401 H 0.97374 0.10564 0.76685 0.0
Co402 Co 0.93193 0.10644 0.79747 0.0
C403 C 0.89132 0.14743 0.78277 0.0
O404 O 0.90266 0.1423 0.76817 0.0
N405 N 0.90947 0.07939 0.80954 0.0
C406 C 0.89997 0.04602 0.82877 0.0
C407 C 0.92112 0.0634 0.82188 0.0
C408 C 0.88119 0.07071 0.80883 0.0
N409 N 0.87494 0.05053 0.82056 0.0
O410 O 0.92175 0.08622 0.77767 0.0
H411 H 0.94371 0.06436 0.82566 0.0
H412 H 0.86553 0.07911 0.80005 0.0
O413 O 0.89938 0.13228 0.79515 0.0
C414 C 0.9326 0.06059 0.77683 0.0
O415 O 0.95099 0.05207 0.78827 0.0
N416 N 0.94236 0.12433 0.81718 0.0
C417 C 0.95811 0.12801 0.84994 0.0
C418 C 0.92969 0.13507 0.8452 0.0
C419 C 0.92219 0.13329 0.82856 0.0
C420 C 0.97071 0.12 0.82149 0.0
C421 C 0.97913 0.1219 0.83791 0.0
H422 H 0.89953 0.13575 0.8252 0.0
H423 H 0.98612 0.11213 0.8124 0.0
H424 H 0.9504 0.17413 0.79865 0.0
H425 H 1.0014 0.15301 0.75715 0.0
H426 H 0.90282 0.03078 0.83887 0.0
H427 H 0.91306 0.13972 0.85434 0.0
H428 H 1.00128 0.11628 0.84133 0.0
C429 C 0.66318 0.22013 0.55075 0.0
C430 C 0.64164 0.24049 0.54776 0.0
N431 N 0.61562 0.22662 0.54743 0.0
N432 N 0.651 0.19337 0.55223 0.0
C433 C 0.62196 0.19807 0.55011 0.0
H434 H 0.68621 0.22467 0.55222 0.0
Co435 Co 0.67088 0.15857 0.55794 0.0
C436 C 0.62404 0.12348 0.57301 0.0
O437 O 0.64122 0.11407 0.58483 0.0
N438 N 0.69013 0.12282 0.56356 0.0
C439 C 0.69991 0.07489 0.56326 0.0
C440 C 0.68373 0.09693 0.55627 0.0
C441 C 0.71061 0.11563 0.57495 0.0
N442 N 0.71676 0.0867 0.5751 0.0
O443 O 0.67006 0.14619 0.53574 0.0
H444 H 0.66754 0.09398 0.54673 0.0
H445 H 0.72106 0.13086 0.58315 0.0
O446 O 0.634 0.14033 0.56189 0.0
C447 C 0.69282 0.15705 0.52921 0.0
O448 O 0.70947 0.17451 0.53801 0.0
N449 N 0.67423 0.17276 0.57932 0.0
C450 C 0.68709 0.19916 0.60947 0.0
C451 C 0.65804 0.19243 0.60507 0.0
C452 C 0.65207 0.17941 0.58988 0.0
C453 C 0.70193 0.1817 0.58266 0.0
C454 C 0.70915 0.19339 0.59793 0.0
H455 H 0.62962 0.17614 0.58634 0.0
H456 H 0.7188 0.17892 0.57345 0.0
H457 H 0.6056 0.18099 0.55059 0.0
H458 H 0.64488 0.26387 0.54644 0.0
H459 H 0.69858 0.05183 0.56022 0.0
H460 H 0.63977 0.19836 0.61284 0.0
H461 H 0.73183 0.19829 0.60041 0.0
C462 C 0.54942 0.90184 0.30288 0.0
C463 C 0.53323 0.87632 0.30244 0.0
N464 N 0.54409 0.85767 0.3137 0.0
N465 N 0.57077 0.89932 0.31425 0.0
C466 C 0.56667 0.87216 0.32075 0.0
H467 H 0.54601 0.92069 0.29508 0.0
Co468 Co 0.60196 0.92573 0.31866 0.0
C469 C 0.65391 0.88503 0.31955 0.0
O470 O 0.6721 0.90362 0.32643 0.0
N471 N 0.63363 0.95177 0.32292 0.0
C472 C 0.67564 0.97556 0.31915 0.0
C473 C 0.65552 0.95718 0.31212 0.0
C474 C 0.64082 0.96799 0.33639 0.0
N475 N 0.66656 0.98225 0.33445 0.0
O476 O 0.60599 0.934 0.29559 0.0
H477 H 0.65771 0.94715 0.30013 0.0
H478 H 0.62804 0.96862 0.3476 0.0
O479 O 0.62764 0.89248 0.31668 0.0
C480 C 0.59275 0.95771 0.29199 0.0
O481 O 0.57651 0.97015 0.30338 0.0
N482 N 0.59623 0.92032 0.34118 0.0
C483 C 0.58138 0.92534 0.3744 0.0
C484 C 0.60578 0.90877 0.36955 0.0
C485 C 0.61294 0.90654 0.35275 0.0
C486 C 0.57219 0.93576 0.34566 0.0
C487 C 0.56422 0.93832 0.36209 0.0
H488 H 0.63215 0.89449 0.34927 0.0
H489 H 0.55935 0.94662 0.33631 0.0
H490 H 0.58065 0.86275 0.33009 0.0
H491 H 0.51482 0.87184 0.29446 0.0
H492 H 0.69573 0.98306 0.3135 0.0
H493 H 0.61946 0.89816 0.37863 0.0
H494 H 0.54453 0.95034 0.36505 0.0
C495 C 0.86102 0.80794 0.03245 0.0
C496 C 0.88747 0.79365 0.03129 0.0
N497 N 0.90164 0.79649 0.04573 0.0
N498 N 0.85834 0.8202 0.04753 0.0
C499 C 0.88349 0.81257 0.05535 0.0
H500 H 0.84503 0.80946 0.02273 0.0
Co501 Co 0.82748 0.84455 0.05559 0.0
C502 C 0.87268 0.88755 0.0482 0.0
O503 O 0.86604 0.88649 0.03248 0.0
N504 N 0.79718 0.86803 0.06386 0.0
C505 C 0.75253 0.87661 0.07338 0.0
C506 C 0.76989 0.8572 0.06502 0.0
C507 C 0.79593 0.8943 0.07174 0.0
N508 N 0.76883 0.89993 0.07777 0.0
O509 O 0.81882 0.85815 0.03385 0.0
H510 H 0.76331 0.83573 0.06078 0.0
H511 H 0.81475 0.90817 0.07386 0.0
O512 O 0.85642 0.87479 0.05882 0.0
C513 C 0.79796 0.84597 0.02605 0.0
O514 O 0.78479 0.82324 0.03266 0.0
N515 N 0.83297 0.83025 0.0766 0.0
C516 C 0.82743 0.8057 0.10765 0.0
C517 C 0.84167 0.83268 0.1057 0.0
C518 C 0.84374 0.84501 0.08994 0.0
C519 C 0.81984 0.80372 0.0783 0.0
C520 C 0.81677 0.79104 0.09374 0.0
H521 H 0.85303 0.86664 0.08861 0.0
H522 H 0.81083 0.79289 0.06758 0.0
H523 H 0.88879 0.8193 0.06777 0.0
H524 H 0.89555 0.78189 0.02063 0.0
H525 H 0.72971 0.87342 0.07636 0.0
H526 H 0.85037 0.84434 0.11624 0.0
H527 H 0.80621 0.76984 0.09479 0.0
C528 C 0.58988 0.63452 0.78309 0.0
C529 C 0.57247 0.65667 0.77737 0.0
N530 N 0.57063 0.67749 0.78907 0.0
N531 N 0.59837 0.64035 0.79871 0.0
C532 C 0.58658 0.66714 0.80183 0.0
H533 H 0.59796 0.6169 0.7755 0.0
Co534 Co 0.62893 0.62171 0.81067 0.0
C535 C 0.66435 0.66281 0.80114 0.0
O536 O 0.6567 0.6695 0.81629 0.0
N537 N 0.65952 0.60485 0.82256 0.0
C538 C 0.68906 0.5973 0.84379 0.0
C539 C 0.66925 0.61615 0.83688 0.0
C540 C 0.67374 0.579 0.82101 0.0
N541 N 0.69182 0.57377 0.83385 0.0
O542 O 0.62596 0.58622 0.79707 0.0
H543 H 0.66121 0.63614 0.84241 0.0
H544 H 0.67012 0.56381 0.81101 0.0
O545 O 0.65565 0.63853 0.79524 0.0
C546 C 0.60439 0.57 0.79292 0.0
O547 O 0.57786 0.57679 0.79778 0.0
N548 N 0.60301 0.6072 0.82663 0.0
C549 C 0.56783 0.59195 0.85335 0.0
C550 C 0.57237 0.6214 0.84916 0.0
C551 C 0.5905 0.62847 0.83602 0.0
C552 C 0.60043 0.57841 0.83114 0.0
C553 C 0.58231 0.57025 0.84425 0.0
H554 H 0.59538 0.65117 0.83372 0.0
H555 H 0.61278 0.56161 0.8249 0.0
H556 H 0.59231 0.68041 0.81237 0.0
H557 H 0.56352 0.65813 0.76507 0.0
H558 H 0.69926 0.6 0.85571 0.0
H559 H 0.56191 0.63897 0.85591 0.0
H560 H 0.58011 0.5473 0.84743 0.0
C561 C 0.64221 0.28911 0.05793 0.0
C562 C 0.61514 0.27615 0.05628 0.0
N563 N 0.59719 0.29488 0.04832 0.0
N564 N 0.6415 0.31604 0.05116 0.0
C565 C 0.61406 0.31863 0.04519 0.0
H566 H 0.661 0.27974 0.064 0.0
Co567 Co 0.67113 0.34465 0.05112 0.0
C568 C 0.63943 0.40127 0.05502 0.0
O569 O 0.66099 0.41428 0.06279 0.0
N570 N 0.70098 0.37416 0.05057 0.0
C571 C 0.72714 0.41148 0.04056 0.0
C572 C 0.70493 0.39216 0.03748 0.0
C573 C 0.72124 0.38366 0.06162 0.0
N574 N 0.73746 0.40621 0.05576 0.0
O575 O 0.67142 0.34365 0.028 0.0
H576 H 0.69169 0.39233 0.02648 0.0
H577 H 0.72394 0.37484 0.07385 0.0
O578 O 0.64172 0.37458 0.05061 0.0
C579 C 0.68952 0.32505 0.02248 0.0
O580 O 0.70137 0.30648 0.03288 0.0
N581 N 0.67197 0.34299 0.074 0.0
C582 C 0.67242 0.31884 0.10547 0.0
C583 C 0.64882 0.33613 0.10025 0.0
C584 C 0.64903 0.3482 0.08435 0.0
C585 C 0.69532 0.32705 0.07912 0.0
C586 C 0.69637 0.31545 0.09493 0.0
H587 H 0.62967 0.35913 0.07992 0.0
H588 H 0.71238 0.32156 0.07042 0.0
H589 H 0.60656 0.33787 0.03885 0.0
H590 H 0.60934 0.25461 0.06078 0.0
H591 H 0.73426 0.42894 0.03246 0.0
H592 H 0.62963 0.33858 0.10794 0.0
H593 H 0.71454 0.30147 0.09824 0.0
C594 C 0.98321 0.40974 0.29199 0.0
C595 C 0.99757 0.38318 0.29131 0.0
N596 N 0.98506 0.36496 0.30226 0.0
N597 N 0.96131 0.4083 0.30315 0.0
C598 C 0.96339 0.38065 0.30931 0.0
H599 H 0.98823 0.42859 0.28446 0.0
Co600 Co 0.93173 0.43685 0.30724 0.0
C601 C 0.87979 0.40018 0.30451 0.0
O602 O 0.86615 0.41967 0.29546 0.0
N603 N 0.90182 0.46482 0.31156 0.0
C604 C 0.8758 0.506 0.31273 0.0
C605 C 0.89658 0.49069 0.30404 0.0
C606 C 0.88364 0.46501 0.32477 0.0
N607 N 0.86784 0.48998 0.32593 0.0
O608 O 0.92269 0.4376 0.28443 0.0
H609 H 0.90807 0.49906 0.29344 0.0
H610 H 0.88293 0.44755 0.33377 0.0
O611 O 0.90494 0.40552 0.31041 0.0
C612 C 0.93649 0.45788 0.27702 0.0
O613 O 0.95527 0.47381 0.2854 0.0
N614 N 0.94182 0.43833 0.32932 0.0
C615 C 0.95714 0.45081 0.3619 0.0
C616 C 0.94508 0.42336 0.35747 0.0
C617 C 0.93683 0.41787 0.3412 0.0
C618 C 0.95352 0.46485 0.3332 0.0
C619 C 0.96028 0.47194 0.34942 0.0
H620 H 0.92649 0.39726 0.33826 0.0
H621 H 0.95665 0.48104 0.32362 0.0
H622 H 0.94863 0.37152 0.31832 0.0
H623 H 0.01581 0.37768 0.28341 0.0
H624 H 0.8686 0.52808 0.31009 0.0
H625 H 0.9425 0.4057 0.36621 0.0
H626 H 0.96817 0.49382 0.3519 0.0
C627 C 0.8701 0.69789 0.53749 0.0
C628 C 0.89624 0.71264 0.53555 0.0
N629 N 0.91687 0.69864 0.54429 0.0
N630 N 0.87397 0.67432 0.54734 0.0
C631 C 0.90296 0.67532 0.55108 0.0
H632 H 0.84928 0.70505 0.53273 0.0
Co633 Co 0.84392 0.64873 0.55603 0.0
C634 C 0.87223 0.64106 0.58897 0.0
O635 O 0.84927 0.64934 0.59751 0.0
N636 N 0.81429 0.62227 0.56428 0.0
C637 C 0.77169 0.59831 0.56552 0.0
C638 C 0.78875 0.61713 0.55645 0.0
C639 C 0.81234 0.60504 0.57795 0.0
N640 N 0.78638 0.59074 0.57919 0.0
O641 O 0.85903 0.61746 0.54292 0.0
H642 H 0.78187 0.62764 0.54524 0.0
H643 H 0.82964 0.60244 0.58678 0.0
O644 O 0.87063 0.63795 0.57337 0.0
C645 C 0.85085 0.60764 0.52892 0.0
O646 O 0.86458 0.5848 0.52284 0.0
N647 N 0.82864 0.68024 0.56891 0.0
C648 C 0.80817 0.71637 0.59387 0.0
C649 C 0.8376 0.71701 0.58934 0.0
C650 C 0.8474 0.6989 0.5768 0.0
C651 C 0.7992 0.6834 0.57126 0.0
C652 C 0.78842 0.70089 0.58408 0.0
H653 H 0.87062 0.69777 0.57487 0.0
H654 H 0.78385 0.67132 0.56388 0.0
H655 H 0.91362 0.65999 0.55919 0.0
H656 H 0.8994 0.73315 0.52908 0.0
H657 H 0.74959 0.59183 0.56255 0.0
H658 H 0.85337 0.72964 0.59634 0.0
H659 H 0.76529 0.701 0.58685 0.0
C660 C 0.54906 0.39406 0.66692 0.0
C661 C 0.53152 0.37067 0.67108 0.0
N662 N 0.54628 0.35292 0.68138 0.0
N663 N 0.57538 0.39125 0.67422 0.0
C664 C 0.57221 0.36683 0.68373 0.0
H665 H 0.543 0.41113 0.65842 0.0
Co666 Co 0.61075 0.41356 0.67035 0.0
C667 C 0.62777 0.35179 0.66534 0.0
O668 O 0.60341 0.34654 0.6573 0.0
N669 N 0.64571 0.43509 0.66697 0.0
C670 C 0.6919 0.44873 0.67066 0.0
C671 C 0.66995 0.43059 0.67604 0.0
C672 C 0.6537 0.4562 0.65599 0.0
N673 N 0.68182 0.46492 0.65802 0.0
O674 O 0.61588 0.41727 0.69357 0.0
H675 H 0.67172 0.41476 0.6859 0.0
H676 H 0.63925 0.46516 0.64675 0.0
O677 O 0.63373 0.37761 0.67039 0.0
C678 C 0.59865 0.43563 0.70023 0.0
O679 O 0.57804 0.44746 0.69117 0.0
N680 N 0.60491 0.41278 0.64749 0.0
C681 C 0.58656 0.4174 0.61501 0.0
C682 C 0.60801 0.39698 0.61934 0.0
C683 C 0.61781 0.3958 0.63566 0.0
C684 C 0.58643 0.43471 0.64305 0.0
C685 C 0.57675 0.43731 0.6269 0.0
H686 H 0.63532 0.38101 0.63864 0.0
H687 H 0.57813 0.44948 0.65238 0.0
H688 H 0.58966 0.35816 0.69122 0.0
H689 H 0.51029 0.36614 0.66584 0.0
H690 H 0.71389 0.44949 0.67551 0.0
H691 H 0.61664 0.38183 0.61028 0.0
H692 H 0.56036 0.45358 0.62398 0.0
C693 C 0.86542 0.29033 0.91285 0.0
C694 C 0.88842 0.2725 0.91715 0.0
N695 N 0.91342 0.28755 0.91494 0.0
N696 N 0.87575 0.31673 0.90815 0.0
C697 C 0.90519 0.31419 0.90935 0.0
H698 H 0.84255 0.28462 0.91357 0.0
Co699 Co 0.85252 0.34957 0.90329 0.0
C700 C 0.89346 0.3983 0.89902 0.0
O701 O 0.87787 0.40787 0.88656 0.0
N702 N 0.82894 0.38332 0.89884 0.0
C703 C 0.80992 0.42763 0.9032 0.0
C704 C 0.82638 0.40556 0.9098 0.0
C705 C 0.81337 0.39267 0.88559 0.0
N706 N 0.80186 0.41965 0.88792 0.0
O707 O 0.84275 0.35294 0.92585 0.0
H708 H 0.83675 0.40631 0.92175 0.0
H709 H 0.81148 0.38084 0.87412 0.0
O710 O 0.88609 0.37477 0.90639 0.0
C711 C 0.81769 0.34133 0.92758 0.0
O712 O 0.80507 0.32921 0.91474 0.0
N713 N 0.85956 0.34345 0.88107 0.0
C714 C 0.86244 0.31677 0.85035 0.0
C715 C 0.8869 0.33151 0.85674 0.0
C716 C 0.88511 0.34458 0.87239 0.0
C717 C 0.83567 0.32978 0.87476 0.0
C718 C 0.83635 0.31705 0.85929 0.0
H719 H 0.90463 0.35352 0.87789 0.0
H720 H 0.81613 0.32779 0.88217 0.0
H721 H 0.92038 0.33179 0.90682 0.0
H722 H 0.88687 0.2503 0.92177 0.0
H723 H 0.80457 0.44815 0.90917 0.0
H724 H 0.90763 0.33096 0.85033 0.0
H725 H 0.81711 0.30573 0.85481 0.0
C726 C 0.96642 0.60877 0.16323 0.0
C727 C 0.98268 0.63336 0.16697 0.0
N728 N 0.97058 0.65664 0.15943 0.0
N729 N 0.94372 0.61645 0.15359 0.0
C730 C 0.94724 0.64576 0.15129 0.0
H731 H 0.97033 0.58687 0.16778 0.0
Co732 Co 0.91267 0.59158 0.14701 0.0
C733 C 0.85939 0.62974 0.14864 0.0
O734 O 0.84381 0.613 0.13886 0.0
N735 N 0.88138 0.56628 0.14061 0.0
C736 C 0.84158 0.53827 0.14245 0.0
C737 C 0.85926 0.55777 0.15059 0.0
C738 C 0.87672 0.55101 0.12651 0.0
N739 N 0.85255 0.53385 0.12724 0.0
O740 O 0.90924 0.57739 0.16896 0.0
H741 H 0.85585 0.56561 0.16302 0.0
H742 H 0.89107 0.55195 0.11599 0.0
O743 O 0.88587 0.62331 0.15187 0.0
C744 C 0.91865 0.55117 0.16978 0.0
O745 O 0.92966 0.53894 0.15649 0.0
N746 N 0.91857 0.60329 0.12544 0.0
C747 C 0.94932 0.6185 0.09738 0.0
C748 C 0.92783 0.6374 0.1036 0.0
C749 C 0.91213 0.62909 0.11772 0.0
C750 C 0.93799 0.58413 0.11881 0.0
C751 C 0.95308 0.59097 0.10455 0.0
H752 H 0.89726 0.64458 0.12326 0.0
H753 H 0.94326 0.56421 0.12538 0.0
H754 H 0.93238 0.65924 0.14437 0.0
H755 H 1.00153 0.63418 0.175 0.0
H756 H 0.82196 0.52848 0.14743 0.0
H757 H 0.92499 0.65913 0.09848 0.0
H758 H 0.96986 0.57614 0.10017 0.0
C759 C 0.67462 0.7218 0.42398 0.0
C760 C 0.65156 0.74126 0.42417 0.0
N761 N 0.62762 0.72726 0.41862 0.0
N762 N 0.66529 0.69545 0.41853 0.0
C763 C 0.63649 0.69963 0.41536 0.0
H764 H 0.69685 0.72679 0.42742 0.0
Co765 Co 0.68782 0.661 0.41561 0.0
C766 C 0.64363 0.61505 0.40962 0.0
O767 O 0.66063 0.60178 0.39891 0.0
N768 N 0.71021 0.62596 0.41301 0.0
C769 C 0.72689 0.58135 0.41909 0.0
C770 C 0.70855 0.60351 0.42385 0.0
C771 C 0.72996 0.61654 0.40165 0.0
N772 N 0.74041 0.58948 0.40509 0.0
O773 O 0.69232 0.65758 0.43886 0.0
H774 H 0.69435 0.60293 0.4345 0.0
H775 H 0.7369 0.62907 0.39108 0.0
O776 O 0.65239 0.6383 0.41676 0.0
C777 C 0.71558 0.66976 0.44399 0.0
O778 O 0.73228 0.68376 0.43344 0.0
N779 N 0.6855 0.66645 0.39286 0.0
C780 C 0.68646 0.69456 0.36235 0.0
C781 C 0.66104 0.68033 0.36795 0.0
C782 C 0.66106 0.66616 0.38324 0.0
C783 C 0.71064 0.67875 0.38721 0.0
C784 C 0.71201 0.69161 0.37172 0.0
H785 H 0.64066 0.65767 0.38783 0.0
H786 H 0.72944 0.68002 0.39524 0.0
H787 H 0.62204 0.68276 0.41077 0.0
H788 H 0.6525 0.76414 0.42768 0.0
H789 H 0.72951 0.56053 0.4253 0.0
H790 H 0.64057 0.68224 0.36141 0.0
H791 H 0.73245 0.70129 0.3678 0.0
C792 C 0.45832 0.41235 0.19135 0.0
C793 C 0.47419 0.38786 0.19551 0.0
N794 N 0.47218 0.36807 0.18319 0.0
N795 N 0.44594 0.40836 0.17646 0.0
C796 C 0.45449 0.38092 0.1719 0.0
H797 H 0.45704 0.43232 0.19849 0.0
Co798 Co 0.42655 0.43795 0.16406 0.0
C799 C 0.36914 0.40786 0.16611 0.0
O800 O 0.35649 0.42747 0.17556 0.0
N801 N 0.40817 0.46767 0.15146 0.0
C802 C 0.40809 0.5066 0.13502 0.0
C803 C 0.42513 0.48749 0.1437 0.0
C804 C 0.38049 0.47541 0.14728 0.0
N805 N 0.37984 0.49931 0.13727 0.0
O806 O 0.40922 0.45354 0.1837 0.0
H807 H 0.44872 0.48778 0.1442 0.0
H808 H 0.36125 0.46395 0.15148 0.0
O809 O 0.39519 0.4113 0.16105 0.0
C810 C 0.41942 0.47854 0.18771 0.0
O811 O 0.44112 0.48966 0.17915 0.0
N812 N 0.44432 0.42476 0.14497 0.0
C813 C 0.47405 0.4237 0.1152 0.0
C814 C 0.44391 0.41825 0.11568 0.0
C815 C 0.42936 0.4187 0.13082 0.0
C816 C 0.47378 0.42823 0.14484 0.0
C817 C 0.48917 0.42705 0.13013 0.0
H818 H 0.40584 0.41688 0.13097 0.0
H819 H 0.48514 0.43372 0.15611 0.0
H820 H 0.4494 0.37132 0.16004 0.0
H821 H 0.48693 0.38526 0.20663 0.0
H822 H 0.41622 0.52422 0.12736 0.0
H823 H 0.43141 0.41553 0.10447 0.0
H824 H 0.5126 0.43014 0.13045 0.0
C825 C 0.38358 0.72324 0.91933 0.0
C826 C 0.40978 0.73824 0.91839 0.0
N827 N 0.4278 0.72366 0.9081 0.0
N828 N 0.38503 0.69913 0.90976 0.0
C829 C 0.4121 0.7002 0.90299 0.0
H830 H 0.36489 0.72928 0.92673 0.0
Co831 Co 0.35691 0.66915 0.90716 0.0
C832 C 0.40677 0.63557 0.91864 0.0
O833 O 0.40893 0.65252 0.93168 0.0
N834 N 0.32983 0.63835 0.90444 0.0
C835 C 0.30934 0.59458 0.90804 0.0
C836 C 0.32892 0.61448 0.91426 0.0
C837 C 0.31029 0.63245 0.89234 0.0
N838 N 0.29775 0.60577 0.89417 0.0
O839 O 0.3513 0.66724 0.93055 0.0
H840 H 0.34247 0.61125 0.92501 0.0
H841 H 0.30636 0.64667 0.88193 0.0
O842 O 0.38713 0.64031 0.90789 0.0
C843 C 0.32637 0.67686 0.93494 0.0
O844 O 0.30876 0.68725 0.92359 0.0
N845 N 0.35994 0.67314 0.88452 0.0
C846 C 0.35652 0.68798 0.85141 0.0
C847 C 0.37558 0.66575 0.85661 0.0
C848 C 0.37667 0.65825 0.87338 0.0
C849 C 0.34171 0.69491 0.87964 0.0
C850 C 0.33939 0.70246 0.86314 0.0
H851 H 0.39114 0.64098 0.87736 0.0
H852 H 0.32877 0.70639 0.88874 0.0
H853 H 0.42055 0.68338 0.89489 0.0
H854 H 0.41506 0.75835 0.92482 0.0
H855 H 0.30444 0.57324 0.91318 0.0
H856 H 0.38945 0.65451 0.84784 0.0
H857 H 0.32498 0.7202 0.85965 0.0
C858 C 0.06116 0.61144 0.67774 0.0
C859 C 0.04174 0.63315 0.68218 0.0
N860 N 0.05315 0.65931 0.67785 0.0
N861 N 0.0849 0.62376 0.67076 0.0
C862 C 0.07922 0.65292 0.67094 0.0
H863 H 0.05801 0.58814 0.67938 0.0
Co864 Co 0.11759 0.604 0.66215 0.0
C865 C 0.16662 0.64721 0.665 0.0
O866 O 0.18181 0.63351 0.65364 0.0
N867 N 0.15016 0.58344 0.65358 0.0
C868 C 0.19272 0.55993 0.65266 0.0
C869 C 0.17406 0.57588 0.66239 0.0
C870 C 0.15442 0.57068 0.63866 0.0
N871 N 0.18027 0.55663 0.63779 0.0
O872 O 0.12311 0.58459 0.68265 0.0
H873 H 0.17788 0.58191 0.6751 0.0
H874 H 0.13903 0.57145 0.62859 0.0
O875 O 0.14177 0.63705 0.66931 0.0
C876 C 0.11466 0.55802 0.68152 0.0
O877 O 0.1026 0.54922 0.66768 0.0
N878 N 0.10996 0.62088 0.64177 0.0
C879 C 0.07439 0.64381 0.61742 0.0
C880 C 0.09654 0.66107 0.6244 0.0
C881 C 0.11442 0.64905 0.63659 0.0
C882 C 0.09081 0.60308 0.63381 0.0
C883 C 0.0731 0.61393 0.62142 0.0
H884 H 0.12908 0.66354 0.64298 0.0
H885 H 0.08715 0.58108 0.63833 0.0
H886 H 0.09391 0.66928 0.66609 0.0
H887 H 0.02063 0.62982 0.68788 0.0
H888 H 0.21358 0.5509 0.6563 0.0
H889 H 0.09814 0.68424 0.62163 0.0
H890 H 0.0561 0.5998 0.6166 0.0
C891 C 0.13999 0.29537 0.43211 0.0
C892 C 0.12021 0.27655 0.43932 0.0
N893 N 0.10069 0.29247 0.4479 0.0
N894 N 0.13301 0.32333 0.43587 0.0
C895 C 0.10979 0.32059 0.44622 0.0
H896 H 0.15726 0.28899 0.42378 0.0
Co897 Co 0.1498 0.35737 0.42568 0.0
C898 C 0.0857 0.37288 0.42603 0.0
O899 O 0.07673 0.34651 0.42196 0.0
N900 N 0.166 0.39067 0.41547 0.0
C901 C 0.16908 0.42894 0.39867 0.0
C902 C 0.15072 0.40873 0.40556 0.0
C903 C 0.19395 0.40027 0.4142 0.0
N904 N 0.1964 0.42381 0.40404 0.0
O905 O 0.16128 0.37205 0.44665 0.0
H906 H 0.12781 0.40647 0.40268 0.0
H907 H 0.21214 0.38968 0.42023 0.0
O908 O 0.11292 0.37831 0.42733 0.0
C909 C 0.18447 0.35826 0.45042 0.0
O910 O 0.19348 0.33721 0.4406 0.0
N911 N 0.14279 0.34194 0.40475 0.0
C912 C 0.14788 0.31197 0.37494 0.0
C913 C 0.12181 0.32652 0.37908 0.0
C914 C 0.11999 0.34223 0.39392 0.0
C915 C 0.16875 0.32994 0.40026 0.0
C916 C 0.17195 0.31538 0.3854 0.0
H917 H 0.10052 0.35455 0.39636 0.0
H918 H 0.1872 0.33146 0.4085 0.0
H919 H 0.09834 0.33901 0.45154 0.0
H920 H 0.11875 0.25317 0.43715 0.0
H921 H 0.16282 0.44512 0.3896 0.0
H922 H 0.10282 0.32533 0.3712 0.0
H923 H 0.1931 0.30625 0.38241 0.0
C924 C 0.45067 0.61513 0.30571 0.0
C925 C 0.46894 0.6392 0.30433 0.0
N926 N 0.45946 0.66006 0.31478 0.0
N927 N 0.42955 0.62086 0.31687 0.0
C928 C 0.43561 0.64848 0.32213 0.0
H929 H 0.45251 0.59486 0.29887 0.0
Co930 Co 0.39754 0.59664 0.32275 0.0
C931 C 0.3531 0.63923 0.33404 0.0
O932 O 0.34376 0.62174 0.3458 0.0
N933 N 0.36465 0.57289 0.32851 0.0
C934 C 0.31887 0.55615 0.32803 0.0
C935 C 0.3388 0.57423 0.3205 0.0
C936 C 0.35976 0.5532 0.34079 0.0
N937 N 0.33207 0.54295 0.34081 0.0
O938 O 0.38719 0.59342 0.30004 0.0
H939 H 0.33434 0.58833 0.3101 0.0
H940 H 0.37556 0.54712 0.35001 0.0
O941 O 0.37411 0.63136 0.32477 0.0
C942 C 0.39313 0.568 0.29447 0.0
O943 O 0.40456 0.54861 0.30453 0.0
N944 N 0.41018 0.59738 0.34453 0.0
C945 C 0.44668 0.59282 0.3718 0.0
C946 C 0.4295 0.61801 0.36942 0.0
C947 C 0.41101 0.61975 0.35571 0.0
C948 C 0.42556 0.57238 0.34715 0.0
C949 C 0.44277 0.56908 0.36105 0.0
H950 H 0.39958 0.63999 0.35349 0.0
H951 H 0.42518 0.55517 0.33797 0.0
H952 H 0.42237 0.66043 0.33086 0.0
H953 H 0.48791 0.64108 0.29644 0.0
H954 H 0.2963 0.55314 0.32448 0.0
H955 H 0.43189 0.63707 0.37725 0.0
H956 H 0.45457 0.54874 0.36262 0.0
C957 C 0.15116 0.72815 0.04077 0.0
C958 C 0.12379 0.74013 0.03847 0.0
N959 N 0.10584 0.73029 0.05046 0.0
N960 N 0.15073 0.71054 0.0541 0.0
C961 C 0.12281 0.71241 0.05973 0.0
H962 H 0.17022 0.7324 0.03327 0.0
Co963 Co 0.18229 0.68904 0.06357 0.0
C964 C 0.14246 0.64578 0.05085 0.0
O965 O 0.14944 0.65408 0.03585 0.0
N966 N 0.21339 0.6687 0.07339 0.0
C967 C 0.25418 0.66568 0.08799 0.0
C968 C 0.23468 0.68428 0.08074 0.0
C969 C 0.22038 0.64027 0.07645 0.0
N970 N 0.24545 0.63785 0.08531 0.0
O971 O 0.19855 0.68067 0.04227 0.0
H972 H 0.23545 0.70796 0.08123 0.0
H973 H 0.20724 0.62187 0.07244 0.0
O974 O 0.15784 0.65461 0.06302 0.0
C975 C 0.22077 0.69643 0.03897 0.0
O976 O 0.22795 0.71768 0.04912 0.0
N977 N 0.16919 0.69851 0.08441 0.0
C978 C 0.16272 0.71759 0.11653 0.0
C979 C 0.15784 0.68812 0.11267 0.0
C980 C 0.16167 0.67881 0.09639 0.0
C981 C 0.17336 0.7273 0.08801 0.0
C982 C 0.17014 0.73736 0.10404 0.0
H983 H 0.16006 0.65572 0.0936 0.0
H984 H 0.18037 0.74224 0.07844 0.0
H985 H 0.11508 0.70071 0.07048 0.0
H986 H 0.11788 0.75551 0.0289 0.0
H987 H 0.27287 0.67237 0.09521 0.0
H988 H 0.15195 0.67249 0.12216 0.0
H989 H 0.17373 0.76036 0.10673 0.0
C990 C 0.04512 0.41814 0.80941 0.0
C991 C 0.02681 0.39669 0.80318 0.0
N992 N 0.04268 0.37828 0.79377 0.0
N993 N 0.07272 0.4131 0.8042 0.0
C994 C 0.07002 0.38955 0.79409 0.0
H995 H 0.03873 0.43468 0.8182 0.0
Co996 Co 0.11009 0.42672 0.81162 0.0
C997 C 0.10492 0.36587 0.82231 0.0
O998 O 0.0794 0.37318 0.82848 0.0
N999 N 0.14687 0.4396 0.81845 0.0
C1000 C 0.1937 0.44236 0.8253 0.0
C1001 C 0.17223 0.42467 0.81876 0.0
C1002 C 0.15348 0.46633 0.82459 0.0
N1003 N 0.18182 0.46858 0.82896 0.0
O1004 O 0.12365 0.42497 0.78955 0.0
H1005 H 0.17498 0.40232 0.8146 0.0
H1006 H 0.13758 0.48359 0.8262 0.0
O1007 O 0.12105 0.38548 0.81557 0.0
C1008 C 0.12159 0.45121 0.78435 0.0
O1009 O 0.11156 0.47133 0.79447 0.0
N1010 N 0.09696 0.43248 0.83318 0.0
C1011 C 0.07398 0.44918 0.86363 0.0
C1012 C 0.09284 0.42488 0.86228 0.0
C1013 C 0.10528 0.41785 0.84706 0.0
C1014 C 0.08233 0.45824 0.83459 0.0
C1015 C 0.0713 0.46739 0.8497 0.0
H1016 H 0.12081 0.40013 0.84643 0.0
H1017 H 0.07895 0.47165 0.82377 0.0
H1018 H 0.08871 0.37872 0.78869 0.0
H1019 H 1.00395 0.39398 0.80619 0.0
H1020 H 0.21631 0.4364 0.82715 0.0
H1021 H 0.09738 0.4105 0.87251 0.0
H1022 H 0.05984 0.48804 0.85007 0.0
C1023 C 0.3689 0.29938 0.56047 0.0
C1024 C 0.39214 0.28132 0.55652 0.0
N1025 N 0.41336 0.29772 0.54954 0.0
N1026 N 0.37546 0.3272 0.55619 0.0
C1027 C 0.40219 0.32515 0.54911 0.0
H1028 H 0.3496 0.29302 0.5673 0.0
Co1029 Co 0.35786 0.36291 0.56327 0.0
C1030 C 0.40909 0.39999 0.55787 0.0
O1031 O 0.39416 0.4167 0.54776 0.0
N1032 N 0.34221 0.39896 0.57052 0.0
C1033 C 0.3379 0.43891 0.58593 0.0
C1034 C 0.35557 0.41597 0.58185 0.0
C1035 C 0.31602 0.41203 0.56803 0.0
N1036 N 0.31289 0.43656 0.57733 0.0
O1037 O 0.35394 0.37536 0.54103 0.0
H1038 H 0.37627 0.41112 0.58761 0.0
H1039 H 0.2992 0.40302 0.56016 0.0
O1040 O 0.39659 0.37888 0.56539 0.0
C1041 C 0.33085 0.3621 0.5364 0.0
O1042 O 0.31843 0.34347 0.54661 0.0
N1043 N 0.35718 0.34933 0.58486 0.0
C1044 C 0.3433 0.31874 0.61359 0.0
C1045 C 0.37242 0.32018 0.6078 0.0
C1046 C 0.37903 0.33612 0.59346 0.0
C1047 C 0.32924 0.34889 0.59061 0.0
C1048 C 0.32213 0.335 0.60523 0.0
H1049 H 0.40098 0.33582 0.58854 0.0
H1050 H 0.31182 0.35821 0.58337 0.0
H1051 H 0.41428 0.34399 0.54486 0.0
H1052 H 0.39374 0.25823 0.55938 0.0
H1053 H 0.34243 0.45495 0.59543 0.0
H1054 H 0.3897 0.30777 0.61358 0.0
H1055 H 0.29967 0.33579 0.60934 0.0
H1056 H 0.17976 0.26162 0.37299 0.0
H1057 H 0.11995 0.31537 0.34459 0.0
H1058 H 0.12191 0.27897 0.32201 0.0
H1059 H 0.22511 0.23732 0.33757 0.0
H1060 H 0.23014 0.20164 0.34667 0.0
H1061 H 0.22604 0.23342 0.35968 0.0
H1062 H 0.18263 0.20841 0.37478 0.0
H1063 H 0.18678 0.17665 0.36194 0.0
H1064 H 0.1521 0.19515 0.36289 0.0
H1065 H 0.12539 0.23312 0.30453 0.0
H1066 H 0.12953 0.18237 0.29415 0.0
H1067 H 0.19115 0.16236 0.333 0.0
C1068 C 0.16792 0.26666 0.36182 0.0
C1069 C 0.15001 0.29176 0.36059 0.0
C1070 C 0.13374 0.2963 0.34595 0.0
C1071 C 0.13502 0.27593 0.33296 0.0
C1072 C 0.15311 0.25153 0.33467 0.0
C1073 C 0.16947 0.24709 0.34872 0.0
C1074 C 0.18544 0.21819 0.3483 0.0
C1075 C 0.21866 0.22294 0.34803 0.0
C1076 C 0.17616 0.19846 0.36282 0.0
C1077 C 0.17468 0.20633 0.33206 0.0
C1078 C 0.15619 0.22589 0.32427 0.0
C1079 C 0.14052 0.21803 0.31024 0.0
C1080 C 0.14305 0.18921 0.30441 0.0
C1081 C 0.16113 0.16871 0.31262 0.0
C1082 C 0.17802 0.17783 0.32615 0.0
H1083 H 0.97162 0.86282 0.57933 0.0
H1084 H 0.98931 0.94757 0.6017 0.0
H1085 H 0.03226 0.9535 0.58414 0.0
H1086 H 0.04269 0.83929 0.57898 0.0
H1087 H 0.04116 0.82048 0.55946 0.0
H1088 H 1.00848 0.82504 0.57141 0.0
H1089 H 0.9838 0.85006 0.54638 0.0
H1090 H 0.01679 0.8457 0.5345 0.0
H1091 H 1.00085 0.88153 0.53695 0.0
H1092 H 0.0779 0.94651 0.56921 0.0
H1093 H 0.12278 0.92716 0.55621 0.0
H1094 H 0.07608 0.84845 0.54203 0.0
C1095 C 0.98413 0.88291 0.58019 0.0
C1096 C 0.97657 0.90496 0.59165 0.0
C1097 C 0.99387 0.93075 0.59264 0.0
C1098 C 0.01852 0.93434 0.58276 0.0
C1099 C 0.02569 0.91206 0.57184 0.0
C1100 C 1.00894 0.88692 0.57033 0.0
C1101 C 0.02341 0.86505 0.55889 0.0
C1102 C 0.02928 0.83577 0.56774 0.0
C1103 C 1.00512 0.86033 0.54325 0.0
C1104 C 0.0515 0.88125 0.55505 0.0
C1105 C 0.0522 0.90848 0.56251 0.0
C1106 C 0.07736 0.92575 0.56276 0.0
C1107 C 0.10269 0.91467 0.55542 0.0
C1108 C 0.10231 0.88693 0.54777 0.0
C1109 C 0.07633 0.87034 0.54722 0.0
H1110 H 0.40197 0.71062 0.83437 0.0
H1111 H 0.30944 0.69291 0.8312 0.0
H1112 H 0.30542 0.72686 0.80768 0.0
H1113 H 0.3994 0.77986 0.832 0.0
H1114 H 0.43071 0.78748 0.81922 0.0
H1115 H 0.42922 0.75416 0.83081 0.0
H1116 H 0.43606 0.72345 0.80405 0.0
H1117 H 0.43829 0.75715 0.79236 0.0
H1118 H 0.41213 0.72939 0.7868 0.0
H1119 H 0.30837 0.77217 0.79103 0.0
H1120 H 0.31838 0.82348 0.78288 0.0
H1121 H 0.40877 0.81275 0.79692 0.0
C1122 C 0.38137 0.7125 0.82794 0.0
C1123 C 0.35613 0.69897 0.83431 0.0
C1124 C 0.32907 0.70281 0.82623 0.0
C1125 C 0.32664 0.72204 0.81285 0.0
C1126 C 0.35153 0.737 0.8076 0.0
C1127 C 0.37861 0.73192 0.81466 0.0
C1128 C 0.40076 0.75444 0.80899 0.0
C1129 C 0.41585 0.76988 0.82363 0.0
C1130 C 0.42316 0.74028 0.79737 0.0
C1131 C 0.3811 0.77502 0.79954 0.0
C1132 C 0.35313 0.7639 0.7981 0.0
C1133 C 0.3304 0.78068 0.7916 0.0
C1134 C 0.33622 0.8098 0.78701 0.0
C1135 C 0.36432 0.82186 0.78935 0.0
C1136 C 0.38716 0.80388 0.79501 0.0
H1137 H 0.45615 0.16201 0.06337 0.0
H1138 H 0.39825 0.08825 0.06983 0.0
H1139 H 0.44067 0.05504 0.07194 0.0
H1140 H 0.52413 0.1126 0.04379 0.0
H1141 H 0.5464 0.14052 0.0532 0.0
H1142 H 0.51188 0.14964 0.04383 0.0
H1143 H 0.50019 0.17391 0.07471 0.0
H1144 H 0.53462 0.16034 0.08133 0.0
H1145 H 0.50169 0.14927 0.09187 0.0
H1146 H 0.48721 0.03374 0.08193 0.0
H1147 H 0.53007 0.02807 0.09981 0.0
H1148 H 0.55734 0.11649 0.08746 0.0
C1149 C 0.45276 0.13858 0.0642 0.0
C1150 C 0.42443 0.12737 0.0662 0.0
C1151 C 0.42002 0.09692 0.06789 0.0
C1152 C 0.44401 0.07794 0.06902 0.0
C1153 C 0.4721 0.08982 0.06805 0.0
C1154 C 0.47655 0.11947 0.06517 0.0
C1155 C 0.50814 0.12788 0.06784 0.0
C1156 C 0.52356 0.13307 0.05124 0.0
C1157 C 0.51132 0.15435 0.07961 0.0
C1158 C 0.51937 0.10001 0.07549 0.0
C1159 C 0.4991 0.07761 0.07442 0.0
C1160 C 0.50335 0.05105 0.08255 0.0
C1161 C 0.52767 0.04822 0.09293 0.0
C1162 C 0.54672 0.07233 0.09567 0.0
C1163 C 0.5436 0.09749 0.08575 0.0
H1164 H 0.1124 0.73418 0.13001 0.0
H1165 H 0.20517 0.73028 0.13874 0.0
H1166 H 0.2006 0.76767 0.16062 0.0
H1167 H 0.10871 0.80367 0.12747 0.0
H1168 H 0.07357 0.80926 0.13701 0.0
H1169 H 0.08202 0.77464 0.12791 0.0
H1170 H 0.07038 0.74917 0.15613 0.0
H1171 H 0.06264 0.78464 0.16494 0.0
H1172 H 0.08915 0.76109 0.17445 0.0
H1173 H 0.1887 0.81458 0.1749 0.0
H1174 H 0.17097 0.86533 0.17945 0.0
H1175 H 0.08765 0.84095 0.15841 0.0
C1176 C 0.13121 0.73982 0.13744 0.0
C1177 C 0.15887 0.72909 0.13323 0.0
C1178 C 0.18367 0.7378 0.14233 0.0
C1179 C 0.18122 0.75909 0.15472 0.0
C1180 C 0.15385 0.7714 0.15769 0.0
C1181 C 0.12912 0.76168 0.14941 0.0
C1182 C 0.1039 0.78251 0.15169 0.0
C1183 C 0.09139 0.79314 0.13505 0.0
C1184 C 0.0801 0.76847 0.16243 0.0
C1185 C 0.11907 0.80688 0.16087 0.0
C1186 C 0.14735 0.79961 0.16507 0.0
C1187 C 0.16631 0.82017 0.1721 0.0
C1188 C 0.1562 0.84894 0.17457 0.0
C1189 C 0.12789 0.85687 0.16938 0.0
C1190 C 0.10911 0.8354 0.16284 0.0
H1191 H 0.55914 0.97363 0.38943 0.0
H1192 H 0.58153 0.88305 0.39861 0.0
H1193 H 0.55193 0.8839 0.42389 0.0
H1194 H 0.53721 0.99467 0.43581 0.0
H1195 H 0.50718 0.01561 0.42768 0.0
H1196 H 0.54154 0.01465 0.4168 0.0
H1197 H 0.51493 0.99716 0.39043 0.0
H1198 H 0.48103 0.99847 0.40113 0.0
H1199 H 0.49233 0.96476 0.39136 0.0
H1200 H 0.50854 0.88693 0.4408 0.0
H1201 H 0.45521 0.88776 0.44241 0.0
H1202 H 0.45393 0.97343 0.4202 0.0
C1203 C 0.55861 0.95434 0.39718 0.0
C1204 C 0.57222 0.92821 0.39194 0.0
C1205 C 0.57153 0.90347 0.40239 0.0
C1206 C 0.55472 0.90382 0.41687 0.0
C1207 C 0.53859 0.92892 0.4207 0.0
C1208 C 0.54065 0.95399 0.41113 0.0
C1209 C 0.51545 0.97465 0.41448 0.0
C1210 C 0.52598 1.00148 0.42428 0.0
C1211 C 0.50003 0.9842 0.39841 0.0
C1212 C 0.49641 0.95518 0.42517 0.0
C1213 C 0.51135 0.93013 0.42992 0.0
C1214 C 0.49696 0.90672 0.4375 0.0
C1215 C 0.46645 0.9074 0.43849 0.0
C1216 C 0.45076 0.93061 0.43123 0.0
C1217 C 0.46585 0.9559 0.42613 0.0
H1218 H 0.37619 0.19594 0.67776 0.0
H1219 H 0.28975 0.16181 0.668 0.0
H1220 H 0.27573 0.20937 0.65581 0.0
H1221 H 0.35901 0.27739 0.68231 0.0
H1222 H 0.39217 0.28519 0.67114 0.0
H1223 H 0.38963 0.253 0.68404 0.0
H1224 H 0.40597 0.22269 0.65817 0.0
H1225 H 0.40465 0.25401 0.64471 0.0
H1226 H 0.38266 0.22242 0.64032 0.0
H1227 H 0.27677 0.253 0.63738 0.0
H1228 H 0.29016 0.29039 0.61726 0.0
H1229 H 0.3759 0.2982 0.63976 0.0
C1230 C 0.35386 0.199 0.67385 0.0
C1231 C 0.33403 0.1754 0.67388 0.0
C1232 C 0.30511 0.17987 0.66837 0.0
C1233 C 0.29707 0.20678 0.66132 0.0
C1234 C 0.31814 0.22886 0.6601 0.0
C1235 C 0.34582 0.22536 0.66652 0.0
C1236 C 0.36626 0.24929 0.6608 0.0
C1237 C 0.37747 0.26735 0.67543 0.0
C1238 C 0.3914 0.23634 0.65044 0.0
C1239 C 0.34608 0.26689 0.65007 0.0
C1240 C 0.31843 0.25469 0.64969 0.0
C1241 C 0.29785 0.26363 0.6382 0.0
C1242 C 0.3058 0.28524 0.62678 0.0
C1243 C 0.33411 0.29822 0.62699 0.0
C1244 C 0.35405 0.28925 0.63919 0.0
H1245 H 0.06919 0.15529 0.91741 0.0
H1246 H 0.06929 0.06151 0.92504 0.0
H1247 H 0.02027 0.05846 0.91232 0.0
H1248 H 0.98394 0.16609 0.91937 0.0
H1249 H 0.98799 0.1941 0.90388 0.0
H1250 H 0.01588 0.18893 0.91927 0.0
H1251 H 0.05372 0.18452 0.89552 0.0
H1252 H 0.02595 0.18698 0.88013 0.0
H1253 H 0.04938 0.15542 0.88064 0.0
H1254 H 0.98033 0.06379 0.89186 0.0
H1255 H 0.95434 0.07655 0.86616 0.0
H1256 H 0.98115 0.16689 0.8714 0.0
C1257 C 0.05824 0.13436 0.91732 0.0
C1258 C 0.07277 0.10871 0.92234 0.0
C1259 C 0.05815 0.08149 0.92156 0.0
C1260 C 0.03032 0.07964 0.91434 0.0
C1261 C 0.01742 0.10529 0.90835 0.0
C1262 C 0.03075 0.13232 0.91016 0.0
C1263 C 0.01585 0.15574 0.90004 0.0
C1264 C 0.99993 0.17754 0.91129 0.0
C1265 C 0.03751 0.17154 0.88842 0.0
C1266 C 0.99424 0.13718 0.8907 0.0
C1267 C 0.99441 0.10839 0.89621 0.0
C1268 C 0.97921 0.0864 0.88789 0.0
C1269 C 0.96452 0.09379 0.87334 0.0
C1270 C 0.96549 0.12278 0.86725 0.0
C1271 C 0.97949 0.14487 0.87629 0.0
H1272 H 0.82975 0.70173 0.62311 0.0
H1273 H 0.77049 0.76192 0.59957 0.0
H1274 H 0.77323 0.79463 0.62376 0.0
H1275 H 0.81674 0.7283 0.66992 0.0
H1276 H 0.85542 0.72431 0.67323 0.0
H1277 H 0.8362 0.69858 0.66028 0.0
H1278 H 0.87288 0.7091 0.63694 0.0
H1279 H 0.89172 0.73516 0.64932 0.0
H1280 H 0.87746 0.74614 0.62954 0.0
H1281 H 0.79476 0.82739 0.64428 0.0
H1282 H 0.83476 0.8576 0.65512 0.0
H1283 H 0.8872 0.77987 0.6622 0.0
C1284 C 0.81601 0.721 0.62369 0.0
C1285 C 0.7999 0.72954 0.60975 0.0
C1286 C 0.78257 0.75496 0.61034 0.0
C1287 C 0.78405 0.77358 0.62409 0.0
C1288 C 0.80313 0.76642 0.63695 0.0
C1289 C 0.81865 0.74031 0.63692 0.0
C1290 C 0.84402 0.74132 0.64888 0.0
C1291 C 0.8377 0.72199 0.66398 0.0
C1292 C 0.87319 0.73251 0.64064 0.0
C1293 C 0.84328 0.77336 0.65353 0.0
C1294 C 0.81817 0.78676 0.64778 0.0
C1295 C 0.81431 0.817 0.64891 0.0
C1296 C 0.83746 0.8341 0.65477 0.0
C1297 C 0.86468 0.82109 0.65845 0.0
C1298 C 0.86676 0.79032 0.65908 0.0
H1299 H 0.02359 0.06954 0.36414 0.0
H1300 H 0.09429 0.11231 0.3904 0.0
H1301 H 0.06025 0.12446 0.41289 0.0
H1302 H 0.97535 0.11754 0.36867 0.0
H1303 H 0.9436 0.09483 0.37193 0.0
H1304 H 0.97433 0.08034 0.36112 0.0
H1305 H 0.97809 0.03745 0.38186 0.0
H1306 H 0.94673 0.05157 0.39272 0.0
H1307 H 0.98032 0.04496 0.40364 0.0
H1308 H 0.01777 0.14544 0.4268 0.0
H1309 H 0.97128 0.17113 0.43147 0.0
H1310 H 0.92778 0.11185 0.39786 0.0
C1311 C 0.03256 0.07981 0.37503 0.0
C1312 C 0.06169 0.09006 0.37539 0.0
C1313 C 0.07198 0.10456 0.38968 0.0
C1314 C 0.05285 0.11119 0.40264 0.0
C1315 C 0.02373 0.10247 0.40134 0.0
C1316 C 0.0138 0.08631 0.38805 0.0
C1317 C 0.98082 0.0841 0.38794 0.0
C1318 C 0.96783 0.09489 0.37146 0.0
C1319 C 0.97091 0.05265 0.39178 0.0
C1320 C 0.97358 0.10448 0.40202 0.0
C1321 C 0.99862 0.11404 0.41 0.0
C1322 C 0.99797 0.13724 0.42117 0.0
C1323 C 0.97153 0.15185 0.42366 0.0
C1324 C 0.94614 0.1431 0.41508 0.0
C1325 C 0.94681 0.11822 0.40488 0.0
H1326 H 0.61865 0.17088 0.14314 0.0
H1327 H 0.69884 0.16723 0.17151 0.0
H1328 H 0.7104 0.21809 0.16283 0.0
H1329 H 0.64478 0.20976 0.10944 0.0
H1330 H 0.61193 0.23088 0.10673 0.0
H1331 H 0.61007 0.19522 0.11606 0.0
H1332 H 0.58443 0.21791 0.14158 0.0
H1333 H 0.5867 0.25382 0.13242 0.0
H1334 H 0.60183 0.24745 0.15259 0.0
H1335 H 0.71477 0.26773 0.14885 0.0
H1336 H 0.71288 0.31012 0.12984 0.0
H1337 H 0.62814 0.28145 0.11249 0.0
C1338 C 0.63868 0.18064 0.14763 0.0
C1339 C 0.65795 0.16496 0.15797 0.0
C1340 C 0.68381 0.17878 0.16355 0.0
C1341 C 0.69039 0.20772 0.15879 0.0
C1342 C 0.67056 0.22262 0.14878 0.0
C1343 C 0.64518 0.20947 0.14335 0.0
C1344 C 0.62785 0.22947 0.13222 0.0
C1345 C 0.62343 0.21551 0.1151 0.0
C1346 C 0.59847 0.23764 0.14018 0.0
C1347 C 0.64816 0.25558 0.1315 0.0
C1348 C 0.67249 0.25147 0.14133 0.0
C1349 C 0.69557 0.27144 0.14138 0.0
C1350 C 0.69429 0.29548 0.13062 0.0
C1351 C 0.67011 0.29928 0.11996 0.0
C1352 C 0.64636 0.27965 0.12092 0.0
H1353 H 0.59803 0.85643 0.87688 0.0
H1354 H 0.58459 0.90138 0.92338 0.0
H1355 H 0.53113 0.90043 0.91861 0.0
H1356 H 0.54487 0.88986 0.85367 0.0
H1357 H 0.5339 0.85714 0.84284 0.0
H1358 H 0.57039 0.86027 0.8507 0.0
H1359 H 0.563 0.81179 0.86668 0.0
H1360 H 0.52584 0.80882 0.85951 0.0
H1361 H 0.53336 0.8087 0.88123 0.0
H1362 H 0.48025 0.90057 0.90655 0.0
H1363 H 0.43657 0.90083 0.88851 0.0
H1364 H 0.48336 0.84997 0.85205 0.0
C1365 C 0.58391 0.86596 0.88612 0.0
C1366 C 0.59535 0.87931 0.9004 0.0
C1367 C 0.57613 0.89128 0.91228 0.0
C1368 C 0.54582 0.8906 0.90974 0.0
C1369 C 0.53524 0.87699 0.89555 0.0
C1370 C 0.55377 0.86454 0.88407 0.0
C1371 C 0.53721 0.85179 0.86966 0.0
C1372 C 0.54717 0.86562 0.85326 0.0
C1373 C 0.54007 0.81827 0.86924 0.0
C1374 C 0.50656 0.86077 0.87424 0.0
C1375 C 0.50571 0.87499 0.88931 0.0
C1376 C 0.4804 0.88862 0.89502 0.0
C1377 C 0.45571 0.88858 0.88479 0.0
C1378 C 0.45659 0.87459 0.86925 0.0
C1379 C 0.48192 0.85966 0.86423 0.0
H1380 H 0.85727 0.16117 0.80885 0.0
H1381 H 0.89887 0.19882 0.76576 0.0
H1382 H 0.8909 0.24848 0.77705 0.0
H1383 H 0.80439 0.22268 0.81773 0.0
H1384 H 0.81001 0.21821 0.83957 0.0
H1385 H 0.81217 0.18691 0.82605 0.0
H1386 H 0.86363 0.17576 0.8375 0.0
H1387 H 0.86248 0.2075 0.85056 0.0
H1388 H 0.89187 0.2032 0.83597 0.0
H1389 H 0.88615 0.29345 0.79562 0.0
H1390 H 0.88359 0.32846 0.8191 0.0
H1391 H 0.84709 0.25984 0.8498 0.0
C1392 C 0.86342 0.17993 0.80142 0.0
C1393 C 0.87833 0.17622 0.78639 0.0
C1394 C 0.88677 0.20121 0.77716 0.0
C1395 C 0.88254 0.22952 0.78354 0.0
C1396 C 0.86951 0.23232 0.79901 0.0
C1397 C 0.85962 0.2081 0.80767 0.0
C1398 C 0.85008 0.21612 0.82489 0.0
C1399 C 0.8172 0.21067 0.82719 0.0
C1400 C 0.8681 0.19969 0.83798 0.0
C1401 C 0.85705 0.24842 0.82482 0.0
C1402 C 0.86786 0.25766 0.80979 0.0
C1403 C 0.87753 0.28643 0.80739 0.0
C1404 C 0.87613 0.30611 0.82074 0.0
C1405 C 0.86479 0.29682 0.83609 0.0
C1406 C 0.85523 0.26766 0.83805 0.0
H1407 H 0.59648 0.13601 0.60156 0.0
H1408 H 0.58142 0.11665 0.54997 0.0
H1409 H 0.52893 0.12837 0.5535 0.0
H1410 H 0.52958 0.10851 0.61784 0.0
H1411 H 0.52649 0.1376 0.63278 0.0
H1412 H 0.56188 0.12634 0.62565 0.0
H1413 H 0.57252 0.1801 0.61748 0.0
H1414 H 0.53643 0.19143 0.6236 0.0
H1415 H 0.54919 0.19839 0.60295 0.0
H1416 H 0.47774 0.13758 0.56369 0.0
H1417 H 0.43211 0.1424 0.57989 0.0
H1418 H 0.48267 0.1633 0.62335 0.0
C1419 C 0.58195 0.13352 0.59113 0.0
C1420 C 0.59249 0.12457 0.57564 0.0
C1421 C 0.57328 0.12276 0.56204 0.0
C1422 C 0.54368 0.12978 0.56388 0.0
C1423 C 0.5341 0.13947 0.57925 0.0
C1424 C 0.55273 0.14143 0.59261 0.0
C1425 C 0.53725 0.15255 0.60778 0.0
C1426 C 0.53888 0.1299 0.62183 0.0
C1427 C 0.54956 0.18239 0.61326 0.0
C1428 C 0.50664 0.15545 0.60108 0.0
C1429 C 0.5052 0.14784 0.58459 0.0
C1430 C 0.47859 0.1445 0.57645 0.0
C1431 C 0.45283 0.14754 0.58563 0.0
C1432 C 0.45413 0.15419 0.60263 0.0
C1433 C 0.48124 0.15965 0.61017 0.0
H1434 H 0.71715 0.74589 0.36027 0.0
H1435 H 0.65129 0.69496 0.33447 0.0
H1436 H 0.64165 0.73746 0.31649 0.0
H1437 H 0.68141 0.80735 0.36299 0.0
H1438 H 0.71158 0.83212 0.35975 0.0
H1439 H 0.71815 0.79621 0.36784 0.0
H1440 H 0.75433 0.78518 0.34406 0.0
H1441 H 0.74832 0.82147 0.33596 0.0
H1442 H 0.74284 0.78986 0.32298 0.0
H1443 H 0.63175 0.78829 0.30604 0.0
H1444 H 0.62442 0.84162 0.30314 0.0
H1445 H 0.69939 0.85756 0.33449 0.0
C1446 C 0.70184 0.74271 0.3503 0.0
C1447 C 0.68508 0.71676 0.34888 0.0
C1448 C 0.66427 0.71461 0.33601 0.0
C1449 C 0.65885 0.73857 0.32559 0.0
C1450 C 0.67495 0.76424 0.32792 0.0
C1451 C 0.69652 0.76613 0.33974 0.0
C1452 C 0.70831 0.79697 0.34131 0.0
C1453 C 0.70461 0.80883 0.35901 0.0
C1454 C 0.74035 0.79845 0.33574 0.0
C1455 C 0.68866 0.81266 0.32932 0.0
C1456 C 0.66985 0.79342 0.32148 0.0
C1457 C 0.647 0.80342 0.31166 0.0
C1458 C 0.64293 0.83376 0.31015 0.0
C1459 C 0.66156 0.8537 0.31848 0.0
C1460 C 0.68527 0.84289 0.32765 0.0
H1461 H 0.01639 0.86945 0.10079 0.0
H1462 H 0.06143 0.92336 0.06494 0.0
H1463 H 0.0172 0.9235 0.04736 0.0
H1464 H 0.968 0.82857 0.07167 0.0
H1465 H 0.93791 0.82992 0.08607 0.0
H1466 H 0.9749 0.8282 0.09353 0.0
H1467 H 0.96586 0.87496 0.11052 0.0
H1468 H 0.92924 0.87805 0.10287 0.0
H1469 H 0.95445 0.90813 0.10034 0.0
H1470 H 0.96567 0.92332 0.03593 0.0
H1471 H 0.91265 0.91938 0.03044 0.0
H1472 H 0.90176 0.87015 0.07581 0.0
C1473 C 0.01748 0.87977 0.08877 0.0
C1474 C 0.04241 0.89558 0.08387 0.0
C1475 C 0.04267 0.91038 0.06854 0.0
C1476 C 0.01759 0.91082 0.05863 0.0
C1477 C 0.99258 0.89668 0.06442 0.0
C1478 C 0.99251 0.88116 0.07906 0.0
C1479 C 0.96223 0.87101 0.08369 0.0
C1480 C 0.96064 0.8374 0.08374 0.0
C1481 C 0.95239 0.88384 0.10034 0.0
C1482 C 0.94505 0.88384 0.06961 0.0
C1483 C 0.96285 0.89821 0.05847 0.0
C1484 C 0.95157 0.9119 0.04451 0.0
C1485 C 0.92144 0.90984 0.0416 0.0
C1486 C 0.90301 0.89465 0.05275 0.0
C1487 C 0.91506 0.88219 0.06711 0.0
H1488 H 0.6412 0.81259 0.81648 0.0
H1489 H 0.73523 0.81957 0.81794 0.0
H1490 H 0.73927 0.78077 0.79708 0.0
H1491 H 0.63654 0.74538 0.81951 0.0
H1492 H 0.60645 0.73769 0.80594 0.0
H1493 H 0.61042 0.77341 0.81446 0.0
H1494 H 0.60994 0.79518 0.78513 0.0
H1495 H 0.60746 0.75919 0.77605 0.0
H1496 H 0.63659 0.78351 0.77012 0.0
H1497 H 0.73419 0.72999 0.78888 0.0
H1498 H 0.71945 0.67831 0.79169 0.0
H1499 H 0.62905 0.70365 0.78963 0.0
C1500 C 0.66246 0.80729 0.8115 0.0
C1501 C 0.68782 0.81851 0.819 0.0
C1502 C 0.71546 0.81083 0.81251 0.0
C1503 C 0.71794 0.78887 0.80054 0.0
C1504 C 0.69255 0.77541 0.7948 0.0
C1505 C 0.66515 0.78524 0.79954 0.0
C1506 C 0.64169 0.76361 0.79455 0.0
C1507 C 0.62273 0.75449 0.80949 0.0
C1508 C 0.62281 0.77616 0.78063 0.0
C1509 C 0.66034 0.73848 0.78836 0.0
C1510 C 0.6897 0.74589 0.78821 0.0
C1511 C 0.71133 0.72422 0.78796 0.0
C1512 C 0.70288 0.69472 0.7894 0.0
C1513 C 0.6731 0.68726 0.79052 0.0
C1514 C 0.65186 0.70906 0.7882 0.0
H1515 H 0.62026 0.44792 0.07297 0.0
H1516 H 0.5925 0.38469 0.0364 0.0
H1517 H 0.54128 0.39367 0.04369 0.0
H1518 H 0.58064 0.42942 0.10233 0.0
H1519 H 0.56963 0.4643 0.1107 0.0
H1520 H 0.60239 0.46185 0.09881 0.0
H1521 H 0.58371 0.5014 0.07859 0.0
H1522 H 0.55085 0.50471 0.09072 0.0
H1523 H 0.54854 0.49714 0.06895 0.0
H1524 H 0.4984 0.39431 0.06181 0.0
H1525 H 0.46619 0.39329 0.08614 0.0
H1526 H 0.51808 0.4621 0.10863 0.0
C1527 C 0.60331 0.43728 0.06586 0.0
C1528 C 0.6102 0.41468 0.0547 0.0
C1529 C 0.58761 0.40111 0.04558 0.0
C1530 C 0.55838 0.40649 0.04943 0.0
C1531 C 0.55218 0.42659 0.06186 0.0
C1532 C 0.57397 0.44291 0.0694 0.0
C1533 C 0.56216 0.45969 0.08404 0.0
C1534 C 0.57973 0.45337 0.09988 0.0
C1535 C 0.56125 0.49269 0.08034 0.0
C1536 C 0.53169 0.44701 0.08488 0.0
C1537 C 0.52597 0.42858 0.07174 0.0
C1538 C 0.50188 0.40977 0.07174 0.0
C1539 C 0.48372 0.40921 0.08567 0.0
C1540 C 0.48983 0.42738 0.09937 0.0
C1541 C 0.5131 0.44761 0.09845 0.0
H1542 H 0.89171 0.24084 0.33882 0.0
H1543 H 0.80431 0.25561 0.35831 0.0
H1544 H 0.79824 0.29663 0.33963 0.0
H1545 H 0.91037 0.31241 0.34151 0.0
H1546 H 0.93317 0.31373 0.32341 0.0
H1547 H 0.9283 0.27973 0.33417 0.0
H1548 H 0.91014 0.25504 0.30732 0.0
H1549 H 0.91532 0.28909 0.29644 0.0
H1550 H 0.88027 0.27105 0.29605 0.0
H1551 H 0.80372 0.34144 0.32309 0.0
H1552 H 0.82284 0.38824 0.31195 0.0
H1553 H 0.90766 0.34811 0.3053 0.0
C1554 C 0.87103 0.25219 0.33908 0.0
C1555 C 0.84842 0.24394 0.35006 0.0
C1556 C 0.82182 0.26 0.34973 0.0
C1557 C 0.81806 0.28379 0.33913 0.0
C1558 C 0.84114 0.2919 0.32901 0.0
C1559 C 0.86724 0.27671 0.32896 0.0
C1560 C 0.89045 0.29314 0.31938 0.0
C1561 C 0.91711 0.30017 0.33028 0.0
C1562 C 0.89956 0.27606 0.30387 0.0
C1563 C 0.87368 0.32056 0.31493 0.0
C1564 C 0.84497 0.31899 0.32007 0.0
C1565 C 0.82599 0.34278 0.31869 0.0
C1566 C 0.83693 0.36922 0.31238 0.0
C1567 C 0.86664 0.37156 0.30797 0.0
C1568 C 0.88487 0.34673 0.30873 0.0
H1569 H 0.92208 0.61355 0.57955 0.0
H1570 H 0.88855 0.67986 0.61283 0.0
H1571 H 0.939 0.69472 0.61971 0.0
H1572 H 0.98249 0.59251 0.60468 0.0
H1573 H 1.00607 0.58594 0.58728 0.0
H1574 H 0.96726 0.58178 0.5851 0.0
H1575 H 0.9682 0.619 0.5607 0.0
H1576 H 1.00709 0.62294 0.56325 0.0
H1577 H 0.98401 0.65473 0.56384 0.0
H1578 H 0.99285 0.70127 0.6234 0.0
H1579 H 0.04503 0.69208 0.62808 0.0
H1580 H 0.0437 0.62387 0.59085 0.0
C1581 C 0.92544 0.63093 0.58846 0.0
C1582 C 0.90158 0.64543 0.59579 0.0
C1583 C 0.90663 0.66811 0.60735 0.0
C1584 C 0.93516 0.6771 0.61105 0.0
C1585 C 0.95821 0.66321 0.60301 0.0
C1586 C 0.95365 0.64025 0.59219 0.0
C1587 C 0.98209 0.6275 0.5861 0.0
C1588 C 0.98463 0.59503 0.5911 0.0
C1589 C 0.98551 0.63129 0.56737 0.0
C1590 C 1.00348 0.64656 0.59541 0.0
C1591 C 0.9893 0.66739 0.60487 0.0
C1592 C 1.00426 0.68537 0.61588 0.0
C1593 C 0.03408 0.68028 0.61828 0.0
C1594 C 0.04839 0.65726 0.60978 0.0
C1595 C 0.03332 0.64178 0.59736 0.0
H1596 H 0.65686 0.19771 0.63868 0.0
H1597 H 0.73166 0.23891 0.61528 0.0
H1598 H 0.73413 0.2745 0.63746 0.0
H1599 H 0.62058 0.25551 0.64053 0.0
H1600 H 0.60188 0.25057 0.65993 0.0
H1601 H 0.61493 0.21935 0.64898 0.0
H1602 H 0.64457 0.20348 0.67463 0.0
H1603 H 0.63144 0.2352 0.68564 0.0
H1604 H 0.67011 0.2286 0.68393 0.0
H1605 H 0.71928 0.31508 0.65439 0.0
H1606 H 0.68663 0.35618 0.66131 0.0
H1607 H 0.61663 0.2949 0.67082 0.0
C1608 C 0.67423 0.21378 0.63845 0.0
C1609 C 0.69363 0.21547 0.62497 0.0
C1610 C 0.71656 0.23639 0.62543 0.0
C1611 C 0.71821 0.25698 0.63815 0.0
C1612 C 0.69657 0.25692 0.65023 0.0
C1613 C 0.67497 0.23557 0.65054 0.0
C1614 C 0.64957 0.24483 0.66128 0.0
C1615 C 0.62007 0.24249 0.65211 0.0
C1616 C 0.64891 0.22697 0.67733 0.0
C1617 C 0.65822 0.27627 0.66469 0.0
C1618 C 0.68642 0.28208 0.65946 0.0
C1619 C 0.69754 0.31063 0.659 0.0
C1620 C 0.67887 0.33391 0.66287 0.0
C1621 C 0.64932 0.32831 0.66658 0.0
C1622 C 0.63938 0.29932 0.66835 0.0
H1623 H 0.02274 0.48093 0.86524 0.0
H1624 H 0.07789 0.42505 0.89541 0.0
H1625 H 0.03621 0.41542 0.91348 0.0
H1626 H 0.97154 0.50566 0.9017 0.0
H1627 H 0.94164 0.50606 0.88728 0.0
H1628 H 0.97761 0.51727 0.88073 0.0
H1629 H 0.97495 0.4795 0.85701 0.0
H1630 H 0.93981 0.46743 0.86363 0.0
H1631 H 0.96912 0.4413 0.86181 0.0
H1632 H 0.98689 0.39801 0.92146 0.0
H1633 H 0.93642 0.37935 0.92013 0.0
H1634 H 0.91397 0.44905 0.88621 0.0
C1635 C 0.02715 0.46794 0.87603 0.0
C1636 C 0.05378 0.45266 0.8781 0.0
C1637 C 0.05754 0.43595 0.89272 0.0
C1638 C 0.03397 0.43074 0.90338 0.0
C1639 C 1.00713 0.44351 0.89976 0.0
C1640 C 1.00399 0.46287 0.88679 0.0
C1641 C 0.97224 0.46989 0.8836 0.0
C1642 C 0.96535 0.5016 0.88864 0.0
C1643 C 0.96358 0.46412 0.86547 0.0
C1644 C 0.95794 0.44841 0.89522 0.0
C1645 C 0.97827 0.43418 0.90495 0.0
C1646 C 0.97066 0.40979 0.91442 0.0
C1647 C 0.94197 0.39915 0.91347 0.0
C1648 C 0.92145 0.41267 0.90291 0.0
C1649 C 0.92923 0.43842 0.89442 0.0
H1650 H 0.87196 0.78907 0.12707 0.0
H1651 H 0.77802 0.78722 0.12305 0.0
H1652 H 0.7757 0.74676 0.14305 0.0
H1653 H 0.8802 0.71878 0.12245 0.0
H1654 H 0.91159 0.7153 0.13569 0.0
H1655 H 0.90297 0.74993 0.12657 0.0
H1656 H 0.90254 0.77184 0.1572 0.0
H1657 H 0.91001 0.73555 0.16494 0.0
H1658 H 0.87852 0.75545 0.17218 0.0
H1659 H 0.78409 0.69707 0.15223 0.0
H1660 H 0.80249 0.64636 0.15249 0.0
H1661 H 0.89105 0.67914 0.15346 0.0
C1662 C 0.85095 0.7813 0.13138 0.0
C1663 C 0.82523 0.79106 0.12376 0.0
C1664 C 0.79793 0.78003 0.12899 0.0
C1665 C 0.79647 0.75705 0.14036 0.0
C1666 C 0.82251 0.74553 0.14641 0.0
C1667 C 0.84935 0.75782 0.14245 0.0
C1668 C 0.87413 0.73763 0.14719 0.0
C1669 C 0.89333 0.72997 0.13211 0.0
C1670 C 0.89238 0.75089 0.16121 0.0
C1671 C 0.85711 0.71118 0.15303 0.0
C1672 C 0.82733 0.71624 0.15273 0.0
C1673 C 0.80729 0.69314 0.15331 0.0
C1674 C 0.81788 0.66434 0.15332 0.0
C1675 C 0.84822 0.65897 0.15302 0.0
C1676 C 0.86783 0.68266 0.15405 0.0
H1677 H 0.61406 0.57699 0.38992 0.0
H1678 H 0.60246 0.6371 0.43085 0.0
H1679 H 0.54902 0.63145 0.4286 0.0
H1680 H 0.56153 0.60605 0.36628 0.0
H1681 H 0.54924 0.57218 0.35715 0.0
H1682 H 0.58598 0.57527 0.36455 0.0
H1683 H 0.57804 0.53 0.3834 0.0
H1684 H 0.54112 0.52669 0.37597 0.0
H1685 H 0.54801 0.52962 0.39778 0.0
H1686 H 0.4969 0.62556 0.4188 0.0
H1687 H 0.45184 0.62026 0.40227 0.0
H1688 H 0.49964 0.56689 0.36707 0.0
C1689 C 0.60038 0.58808 0.39884 0.0
C1690 C 0.6124 0.60731 0.41059 0.0
C1691 C 0.59368 0.62206 0.42177 0.0
C1692 C 0.56328 0.61893 0.42064 0.0
C1693 C 0.55204 0.6008 0.40835 0.0
C1694 C 0.57012 0.58545 0.39774 0.0
C1695 C 0.55306 0.57083 0.38413 0.0
C1696 C 0.56304 0.58176 0.36704 0.0
C1697 C 0.55518 0.53729 0.38541 0.0
C1698 C 0.52274 0.58138 0.38829 0.0
C1699 C 0.52229 0.59806 0.40248 0.0
C1700 C 0.4969 0.61205 0.40783 0.0
C1701 C 0.47147 0.60915 0.39827 0.0
C1702 C 0.47183 0.5928 0.38341 0.0
C1703 C 0.49788 0.57854 0.37864 0.0
H1704 H 0.39314 0.35435 0.1647 0.0
H1705 H 0.31226 0.4009 0.15625 0.0
H1706 H 0.29145 0.35648 0.14296 0.0
H1707 H 0.39821 0.32093 0.12792 0.0
H1708 H 0.41309 0.28697 0.13553 0.0
H1709 H 0.41834 0.32026 0.14694 0.0
H1710 H 0.39536 0.29471 0.17255 0.0
H1711 H 0.38842 0.26169 0.16086 0.0
H1712 H 0.35891 0.27998 0.17126 0.0
H1713 H 0.28402 0.31092 0.12585 0.0
H1714 H 0.28935 0.26792 0.10766 0.0
H1715 H 0.37493 0.25097 0.12832 0.0
C1716 C 0.37071 0.35483 0.1605 0.0
C1717 C 0.35415 0.38074 0.16142 0.0
C1718 C 0.32501 0.38095 0.15579 0.0
C1719 C 0.31313 0.35589 0.14823 0.0
C1720 C 0.3306 0.33092 0.14685 0.0
C1721 C 0.3586 0.33012 0.15315 0.0
C1722 C 0.37407 0.30198 0.14877 0.0
C1723 C 0.40259 0.3079 0.13923 0.0
C1724 C 0.37954 0.28351 0.16428 0.0
C1725 C 0.35132 0.28791 0.13794 0.0
C1726 C 0.32611 0.30452 0.13725 0.0
C1727 C 0.30328 0.29732 0.12668 0.0
C1728 C 0.30653 0.27281 0.1164 0.0
C1729 C 0.33253 0.25599 0.11669 0.0
C1730 C 0.35481 0.26336 0.12789 0.0
H1731 H 0.56173 0.61929 0.88311 0.0
H1732 H 0.52643 0.54871 0.85335 0.0
H1733 H 0.48504 0.54399 0.8726 0.0
H1734 H 0.53104 0.59383 0.92489 0.0
H1735 H 0.52349 0.63128 0.93055 0.0
H1736 H 0.55464 0.62288 0.91779 0.0
H1737 H 0.53602 0.65945 0.89571 0.0
H1738 H 0.50502 0.66779 0.90832 0.0
H1739 H 0.49972 0.65498 0.88752 0.0
H1740 H 0.44212 0.55619 0.8894 0.0
H1741 H 0.40219 0.58307 0.90312 0.0
H1742 H 0.46454 0.64542 0.92262 0.0
C1743 C 0.54577 0.60217 0.88098 0.0
C1744 C 0.54719 0.58441 0.86675 0.0
C1745 C 0.52598 0.56227 0.86431 0.0
C1746 C 0.50237 0.55946 0.87519 0.0
C1747 C 0.50057 0.57865 0.88855 0.0
C1748 C 0.522 0.59933 0.89164 0.0
C1749 C 0.51271 0.62058 0.90499 0.0
C1750 C 0.5316 0.6169 0.92048 0.0
C1751 C 0.51339 0.65254 0.89875 0.0
C1752 C 0.48185 0.61006 0.90801 0.0
C1753 C 0.47549 0.5854 0.8987 0.0
C1754 C 0.44707 0.57471 0.89725 0.0
C1755 C 0.42453 0.59011 0.90503 0.0
C1756 C 0.43062 0.61574 0.9142 0.0
C1757 C 0.45967 0.62512 0.91625 0.0
H1758 H 0.22156 0.77724 0.61966 0.0
H1759 H 0.14337 0.82342 0.63559 0.0
H1760 H 0.13857 0.78877 0.65849 0.0
H1761 H 0.19955 0.71233 0.62317 0.0
H1762 H 0.23247 0.69577 0.63096 0.0
H1763 H 0.23475 0.72867 0.61918 0.0
H1764 H 0.26217 0.7546 0.64301 0.0
H1765 H 0.26027 0.72132 0.65497 0.0
H1766 H 0.2465 0.75515 0.6634 0.0
H1767 H 0.13487 0.74181 0.6745 0.0
H1768 H 0.13267 0.68897 0.68063 0.0
H1769 H 0.21528 0.67649 0.65567 0.0
C1770 C 0.20414 0.78175 0.62819 0.0
C1771 C 0.1826 0.80334 0.62511 0.0
C1772 C 0.15992 0.80678 0.63694 0.0
C1773 C 0.15724 0.78741 0.65034 0.0
C1774 C 0.17802 0.76537 0.65225 0.0
C1775 C 0.20154 0.7631 0.64168 0.0
C1776 C 0.21854 0.73519 0.64452 0.0
C1777 C 0.22141 0.71696 0.62853 0.0
C1778 C 0.24865 0.74198 0.65192 0.0
C1779 C 0.19905 0.72045 0.65703 0.0
C1780 C 0.17634 0.73854 0.66187 0.0
C1781 C 0.15295 0.72779 0.67112 0.0
C1782 C 0.15175 0.6976 0.67444 0.0
C1783 C 0.17333 0.67852 0.66803 0.0
C1784 C 0.19838 0.69056 0.66059 0.0
H1785 H 0.02675 0.36884 0.42851 0.0
H1786 H 0.09728 0.43156 0.42407 0.0
H1787 H 0.06244 0.46934 0.41568 0.0
H1788 H 0.99445 0.37786 0.39703 0.0
H1789 H 0.95629 0.37801 0.40262 0.0
H1790 H 0.98201 0.36099 0.4159 0.0
H1791 H 0.96638 0.39289 0.44034 0.0
H1792 H 0.93942 0.41004 0.42736 0.0
H1793 H 0.96562 0.43221 0.43829 0.0
H1794 H 0.02886 0.48922 0.39623 0.0
H1795 H 0.9998 0.49085 0.37149 0.0
H1796 H 0.9434 0.42249 0.39114 0.0
C1797 C 0.03442 0.39102 0.42665 0.0
C1798 C 0.06457 0.39716 0.42647 0.0
C1799 C 0.07424 0.42624 0.42402 0.0
C1800 C 0.05447 0.44801 0.41942 0.0
C1801 C 0.02502 0.44059 0.41795 0.0
C1802 C 0.01469 0.41311 0.42234 0.0
C1803 C 0.98336 0.40898 0.41679 0.0
C1804 C 0.97886 0.37979 0.40748 0.0
C1805 C 0.96246 0.41119 0.43157 0.0
C1806 C 0.98015 0.43539 0.40565 0.0
C1807 C 1.00378 0.45416 0.4072 0.0
C1808 C 0.00956 0.47559 0.39542 0.0
C1809 C 0.99256 0.47628 0.38115 0.0
C1810 C 0.96932 0.45606 0.37879 0.0
C1811 C 0.96158 0.43748 0.39205 0.0
H1812 H 0.32074 0.66856 0.35694 0.0
H1813 H 0.36431 0.67932 0.30982 0.0
H1814 H 0.35566 0.73254 0.3111 0.0
H1815 H 0.26737 0.73258 0.35251 0.0
H1816 H 0.27159 0.74148 0.37403 0.0
H1817 H 0.27373 0.70385 0.36731 0.0
H1818 H 0.32455 0.69914 0.38109 0.0
H1819 H 0.32257 0.73653 0.38777 0.0
H1820 H 0.3531 0.72452 0.37548 0.0
H1821 H 0.35224 0.78433 0.32011 0.0
H1822 H 0.35494 0.83005 0.33636 0.0
H1823 H 0.31445 0.78551 0.37773 0.0
C1824 C 0.32735 0.68196 0.34657 0.0
C1825 C 0.34304 0.66985 0.33327 0.0
C1826 C 0.35211 0.68817 0.32013 0.0
C1827 C 0.34712 0.71842 0.32068 0.0
C1828 C 0.33278 0.72994 0.33437 0.0
C1829 C 0.32275 0.7122 0.34702 0.0
C1830 C 0.3124 0.73016 0.36155 0.0
C1831 C 0.2793 0.72682 0.36398 0.0
C1832 C 0.32918 0.72212 0.37738 0.0
C1833 C 0.32008 0.7606 0.35557 0.0
C1834 C 0.33101 0.76016 0.33969 0.0
C1835 C 0.34299 0.78511 0.33238 0.0
C1836 C 0.34466 0.81091 0.34174 0.0
C1837 C 0.3347 0.81138 0.35826 0.0
C1838 C 0.32135 0.78614 0.36497 0.0
H1839 H 0.11635 0.63855 0.0809 0.0
H1840 H 0.09894 0.6346 0.02836 0.0
H1841 H 0.04607 0.6311 0.03419 0.0
H1842 H 0.05921 0.58932 0.09397 0.0
H1843 H 0.05164 0.61028 0.11232 0.0
H1844 H 0.08784 0.61027 0.10368 0.0
H1845 H 0.08666 0.66755 0.10178 0.0
H1846 H 0.05073 0.66671 0.11083 0.0
H1847 H 0.05642 0.68472 0.09139 0.0
H1848 H 0.9944 0.62875 0.04621 0.0
H1849 H 0.94983 0.62343 0.06356 0.0
H1850 H 1.00244 0.63393 0.10744 0.0
C1851 C 0.10163 0.63646 0.07057 0.0
C1852 C 0.11193 0.63689 0.05418 0.0
C1853 C 0.09165 0.63414 0.04106 0.0
C1854 C 0.06154 0.63248 0.04424 0.0
C1855 C 0.05213 0.63378 0.06056 0.0
C1856 C 0.07168 0.63543 0.07349 0.0
C1857 C 0.05633 0.63681 0.08993 0.0
C1858 C 0.06421 0.61008 0.10059 0.0
C1859 C 0.06298 0.66566 0.09901 0.0
C1860 C 0.025 0.63568 0.08428 0.0
C1861 C 0.02281 0.63386 0.06731 0.0
C1862 C 0.99584 0.63058 0.05948 0.0
C1863 C 0.97066 0.62793 0.06934 0.0
C1864 C 0.97294 0.62905 0.08668 0.0
C1865 C 1.00025 0.63388 0.09414 0.0
H1866 H 0.0943 0.20615 0.85681 0.0
H1867 H 0.17044 0.18251 0.82792 0.0
H1868 H 0.1679 0.23043 0.81364 0.0
H1869 H 0.05578 0.25109 0.82585 0.0
H1870 H 0.04461 0.27687 0.84151 0.0
H1871 H 0.04909 0.23872 0.84662 0.0
H1872 H 0.08659 0.25232 0.86974 0.0
H1873 H 0.08043 0.29028 0.86498 0.0
H1874 H 0.11695 0.27563 0.86469 0.0
H1875 H 0.16191 0.2851 0.8066 0.0
H1876 H 0.15002 0.33824 0.80571 0.0
H1877 H 0.07867 0.3232 0.83991 0.0
C1878 C 0.10956 0.21008 0.84686 0.0
C1879 C 0.1324 0.19035 0.84341 0.0
C1880 C 0.15267 0.19729 0.83076 0.0
C1881 C 0.1514 0.22445 0.82259 0.0
C1882 C 0.12964 0.2442 0.82718 0.0
C1883 C 0.10884 0.23696 0.83886 0.0
C1884 C 0.0901 0.26278 0.84344 0.0
C1885 C 0.05798 0.25702 0.83908 0.0
C1886 C 0.09373 0.27074 0.86179 0.0
C1887 C 0.10345 0.28586 0.83255 0.0
C1888 C 0.12633 0.27507 0.82325 0.0
C1889 C 0.14359 0.29357 0.81356 0.0
C1890 C 0.13692 0.32369 0.81325 0.0
C1891 C 0.11333 0.33475 0.82266 0.0
C1892 C 0.09655 0.31543 0.83234 0.0
H1893 H 0.44817 0.36214 0.57141 0.0
H1894 H 0.44086 0.44915 0.5503 0.0
H1895 H 0.49254 0.45873 0.55711 0.0
H1896 H 0.48607 0.38084 0.60502 0.0
H1897 H 0.50906 0.34884 0.60577 0.0
H1898 H 0.47412 0.34681 0.59591 0.0
H1899 H 0.49895 0.32834 0.56923 0.0
H1900 H 0.53431 0.33082 0.57885 0.0
H1901 H 0.52747 0.34977 0.55976 0.0
H1902 H 0.5401 0.4627 0.57137 0.0
H1903 H 0.57883 0.46113 0.5925 0.0
H1904 H 0.55671 0.37092 0.60329 0.0
C1905 C 0.45764 0.38299 0.56788 0.0
C1906 C 0.44055 0.405 0.56042 0.0
C1907 C 0.45363 0.43197 0.55599 0.0
C1908 C 0.48302 0.4375 0.5597 0.0
C1909 C 0.49911 0.41558 0.56748 0.0
C1910 C 0.48693 0.38869 0.57134 0.0
C1911 C 0.50751 0.37022 0.58153 0.0
C1912 C 0.49335 0.36119 0.59803 0.0
C1913 C 0.51767 0.3432 0.57175 0.0
C1914 C 0.53225 0.39185 0.58398 0.0
C1915 C 0.52738 0.41759 0.57537 0.0
C1916 C 0.54474 0.44239 0.57771 0.0
C1917 C 0.56669 0.44134 0.58971 0.0
C1918 C 0.57099 0.41569 0.59915 0.0
C1919 C 0.55452 0.39031 0.5957 0.0
H1920 H 0.23618 0.03738 0.32238 0.0
H1921 H 0.15695 0.01427 0.34866 0.0
H1922 H 0.18645 0.98974 0.37013 0.0
H1923 H 0.27544 0.97063 0.33059 0.0
H1924 H 0.31005 0.98901 0.33287 0.0
H1925 H 0.28246 1.00431 0.31966 0.0
H1926 H 0.28499 0.0532 0.33589 0.0
H1927 H 0.3125 0.03801 0.3492 0.0
H1928 H 0.27951 0.05295 0.3579 0.0
H1929 H 0.22559 0.96679 0.38871 0.0
H1930 H 0.27039 0.94955 0.40285 0.0
H1931 H 0.32303 0.98835 0.3641 0.0
C1932 C 0.22495 0.02691 0.33253 0.0
C1933 C 0.19417 0.02769 0.33375 0.0
C1934 C 0.18048 0.01418 0.34749 0.0
C1935 C 0.19707 1.00006 0.35971 0.0
C1936 C 0.22739 0.99973 0.35811 0.0
C1937 C 0.24114 0.01293 0.34486 0.0
C1938 C 0.27397 1.01006 0.34606 0.0
C1939 C 0.28619 0.99245 0.33142 0.0
C1940 C 0.2886 0.04036 0.34734 0.0
C1941 C 0.27664 0.99316 0.36203 0.0
C1942 C 0.2496 0.98722 0.36882 0.0
C1943 C 0.24685 0.97144 0.3835 0.0
C1944 C 0.27238 0.96164 0.39143 0.0
C1945 C 0.3003 0.96784 0.38474 0.0
C1946 C 0.30217 0.98374 0.3698 0.0
H1947 H 0.31611 0.05113 0.60527 0.0
H1948 H 0.30535 0.01593 0.65442 0.0
H1949 H 0.27822 0.97335 0.64288 0.0
H1950 H 0.24721 0.02943 0.58858 0.0
H1951 H 0.26162 0.01972 0.56863 0.0
H1952 H 0.2795 0.04742 0.58083 0.0
H1953 H 0.32808 0.0186 0.57918 0.0
H1954 H 0.31044 0.99098 0.56682 0.0
H1955 H 0.32892 0.98077 0.58555 0.0
H1956 H 0.24938 0.936 0.62559 0.0
H1957 H 0.22821 0.90361 0.60406 0.0
H1958 H 0.26182 0.96126 0.56615 0.0
C1959 C 0.30804 0.03437 0.61356 0.0
C1960 C 0.31252 0.03681 0.63075 0.0
C1961 C 0.30212 0.01433 0.64124 0.0
C1962 C 0.28657 0.99024 0.63477 0.0
C1963 C 0.28214 0.98868 0.61775 0.0
C1964 C 0.29316 1.00988 0.60727 0.0
C1965 C 0.28677 1.00247 0.5894 0.0
C1966 C 0.26764 0.02617 0.58139 0.0
C1967 C 0.31524 0.99793 0.57967 0.0
C1968 C 0.27012 0.97393 0.59139 0.0
C1969 C 0.26722 0.96653 0.60785 0.0
C1970 C 0.25179 0.94152 0.61269 0.0
C1971 C 0.23963 0.92337 0.60042 0.0
C1972 C 0.24339 0.92999 0.5835 0.0
C1973 C 0.25873 0.9557 0.57901 0.0
H1974 H 0.19326 0.02366 0.86921 0.0
H1975 H 0.25544 0.07278 0.8986 0.0
H1976 H 0.29608 0.04743 0.8843 0.0
H1977 H 0.23136 0.95578 0.86938 0.0
H1978 H 0.22146 0.94664 0.8485 0.0
H1979 H 0.19779 0.9694 0.86074 0.0
H1980 H 0.19973 1.0097 0.83825 0.0
H1981 H 0.22347 0.98709 0.82594 0.0
H1982 H 0.23461 0.02367 0.83154 0.0
H1983 H 0.32979 0.01494 0.86707 0.0
H1984 H 0.35331 0.97865 0.84878 0.0
H1985 H 0.26817 0.95191 0.83079 0.0
C1986 C 0.21536 0.02897 0.87281 0.0
C1987 C 0.22115 0.05007 0.88516 0.0
C1988 C 0.25051 0.0568 0.88914 0.0
C1989 C 0.27368 0.04245 0.88111 0.0
C1990 C 0.26709 0.02161 0.86906 0.0
C1991 C 0.23859 0.01501 0.86493 0.0
C1992 C 0.23708 0.99171 0.85169 0.0
C1993 C 0.22098 0.96426 0.85796 0.0
C1994 C 0.22289 1.00378 0.83592 0.0
C1995 C 0.26921 0.98581 0.84913 0.0
C1996 C 0.28625 1.00332 0.85918 0.0
C1997 C 0.31661 1.00129 0.85909 0.0
C1998 C 0.3298 0.98069 0.84857 0.0
C1999 C 0.31265 0.96232 0.83829 0.0
C2000 C 0.28196 0.96529 0.83857 0.0
H2001 H 0.2702 0.09931 0.11236 0.0
H2002 H 0.25938 0.07366 0.06137 0.0
H2003 H 0.21945 0.03957 0.06961 0.0
H2004 H 0.26168 0.03036 0.12971 0.0
H2005 H 0.24212 0.0427 0.1477 0.0
H2006 H 0.26724 0.06698 0.13746 0.0
H2007 H 0.22636 0.10566 0.1339 0.0
H2008 H 0.20116 0.08166 0.14436 0.0
H2009 H 0.19259 0.0953 0.12409 0.0
H2010 H 0.18443 1.00429 0.08447 0.0
H2011 H 0.1553 0.97431 0.10372 0.0
H2012 H 0.18903 0.02531 0.14474 0.0
C2013 C 0.25908 0.08683 0.1029 0.0
C2014 C 0.26778 0.08889 0.08625 0.0
C2015 C 0.25274 0.07244 0.07416 0.0
C2016 C 0.23023 0.05299 0.07877 0.0
C2017 C 0.2229 0.05074 0.09547 0.0
C2018 C 0.23664 0.06766 0.10728 0.0
C2019 C 0.22576 0.06069 0.12443 0.0
C2020 C 0.25068 0.04952 0.13546 0.0
C2021 C 0.21055 0.08742 0.13215 0.0
C2022 C 0.20418 0.03658 0.12058 0.0
C2023 C 0.20269 0.03112 0.10385 0.0
C2024 C 0.1851 1.0088 0.09757 0.0
C2025 C 0.16852 0.99189 0.10866 0.0
C2026 C 0.16953 0.99734 0.12589 0.0
C2027 C 0.18768 0.02016 0.13176 0.0
H2028 H 0.81427 0.95362 0.60437 0.0
H2029 H 0.82549 0.99744 0.65138 0.0
H2030 H 0.79724 0.03989 0.64083 0.0
H2031 H 0.81969 0.01799 0.57865 0.0
H2032 H 0.79258 1.00494 0.56432 0.0
H2033 H 0.81482 0.97919 0.57546 0.0
H2034 H 0.76821 0.95364 0.58659 0.0
H2035 H 0.74583 0.97932 0.57553 0.0
H2036 H 0.74127 0.97499 0.59747 0.0
H2037 H 0.7651 0.07627 0.62516 0.0
H2038 H 0.73316 0.1034 0.60605 0.0
H2039 H 0.74414 0.03485 0.56947 0.0
C2040 C 0.8107 0.972 0.61255 0.0
C2041 C 0.82179 0.97208 0.6288 0.0
C2042 C 0.81723 0.99699 0.63889 0.0
C2043 C 0.80117 0.02109 0.633 0.0
C2044 C 0.79012 0.01996 0.61697 0.0
C2045 C 0.7949 0.99605 0.60689 0.0
C2046 C 0.78042 0.99968 0.59028 0.0
C2047 C 0.80324 1.00051 0.57636 0.0
C2048 C 0.75758 0.97548 0.5873 0.0
C2049 C 0.76618 0.02922 0.5926 0.0
C2050 C 0.77209 0.04072 0.60802 0.0
C2051 C 0.76061 0.06755 0.61302 0.0
C2052 C 0.74258 0.0829 0.60201 0.0
C2053 C 0.73614 0.07138 0.58616 0.0
C2054 C 0.74836 0.04422 0.58149 0.0
H2055 H 0.81016 0.05143 0.37156 0.0
H2056 H 0.75578 0.11227 0.39907 0.0
H2057 H 0.71201 0.08588 0.38952 0.0
H2058 H 0.76567 0.04847 0.33654 0.0
H2059 H 0.77259 1.01027 0.33245 0.0
H2060 H 0.79956 0.03203 0.34294 0.0
H2061 H 0.79951 0.99518 0.36725 0.0
H2062 H 0.77249 0.97326 0.35683 0.0
H2063 H 0.76562 0.98636 0.37743 0.0
H2064 H 0.67326 0.05352 0.37534 0.0
H2065 H 0.64463 0.02045 0.35709 0.0
H2066 H 0.72507 0.98328 0.33845 0.0
C2067 C 0.78926 0.05948 0.37571 0.0
C2068 C 0.78695 0.08434 0.38612 0.0
C2069 C 0.75866 0.09335 0.39123 0.0
C2070 C 0.73346 0.07844 0.38583 0.0
C2071 C 0.73672 0.05446 0.37532 0.0
C2072 C 0.764 0.04512 0.37034 0.0
C2073 C 0.76188 0.01998 0.35823 0.0
C2074 C 0.77573 0.02819 0.34156 0.0
C2075 C 0.77569 0.99204 0.36537 0.0
C2076 C 0.7291 0.01693 0.35686 0.0
C2077 C 0.7148 0.03663 0.36697 0.0
C2078 C 0.68432 0.03797 0.36744 0.0
C2079 C 0.66821 0.01908 0.35711 0.0
C2080 C 0.68263 0.99952 0.34629 0.0
C2081 C 0.71344 0.99826 0.34645 0.0
H2082 H 0.66459 0.97457 0.14342 0.0
H2083 H 0.70116 0.05905 0.13016 0.0
H2084 H 0.73512 0.03434 0.11076 0.0
H2085 H 0.73181 0.93344 0.14215 0.0
H2086 H 0.71449 0.90125 0.13374 0.0
H2087 H 0.69403 0.92583 0.14671 0.0
H2088 H 0.65521 0.93171 0.12374 0.0
H2089 H 0.67551 0.90714 0.11071 0.0
H2090 H 0.66648 0.94335 0.10347 0.0
H2091 H 0.76564 0.99873 0.0925 0.0
H2092 H 0.78628 0.95716 0.07643 0.0
H2093 H 0.72874 0.89738 0.10231 0.0
C2094 C 0.67998 0.988 0.13668 0.0
C2095 C 0.68032 0.01885 0.13852 0.0
C2096 C 0.70038 0.03543 0.12898 0.0
C2097 C 0.71987 0.02153 0.11799 0.0
C2098 C 0.719 0.99099 0.1166 0.0
C2099 C 0.69936 0.97456 0.12568 0.0
C2100 C 0.7018 0.94225 0.1217 0.0
C2101 C 0.71109 0.92466 0.13698 0.0
C2102 C 0.67305 0.93043 0.11447 0.0
C2103 C 0.72576 0.94287 0.10886 0.0
C2104 C 0.73574 0.97105 0.1061 0.0
C2105 C 0.75788 0.97663 0.09461 0.0
C2106 C 0.76962 0.95291 0.08559 0.0
C2107 C 0.75898 0.92403 0.08797 0.0
C2108 C 0.73707 0.91919 0.09997 0.0
H2109 H 0.76002 0.97599 0.88002 0.0
H2110 H 0.73119 0.92355 0.83862 0.0
H2111 H 0.76415 0.95167 0.82008 0.0
H2112 H 0.76874 0.04508 0.85864 0.0
H2113 H 0.80133 0.05498 0.86977 0.0
H2114 H 0.77417 0.032 0.87937 0.0
H2115 H 0.81326 0.99222 0.88496 0.0
H2116 H 0.84055 0.01521 0.87556 0.0
H2117 H 0.83485 0.97845 0.86805 0.0
H2118 H 0.80067 0.98653 0.80614 0.0
H2119 H 0.84199 0.01967 0.79896 0.0
H2120 H 0.84825 0.04653 0.84996 0.0
C2121 C 0.76049 0.97066 0.86701 0.0
C2122 C 0.74292 0.94788 0.86066 0.0
C2123 C 0.74456 0.94096 0.84367 0.0
C2124 C 0.76301 0.95696 0.83307 0.0
C2125 C 0.77992 0.97954 0.83973 0.0
C2126 C 0.77911 0.986 0.85639 0.0
C2127 C 0.80088 1.00972 0.86079 0.0
C2128 C 0.78534 0.03706 0.86754 0.0
C2129 C 0.82374 0.9982 0.87306 0.0
C2130 C 0.81423 0.01559 0.84405 0.0
C2131 C 0.80155 0.99844 0.83195 0.0
C2132 C 0.81068 1.00006 0.81553 0.0
C2133 C 0.83391 0.01904 0.81151 0.0
C2134 C 0.84793 0.03564 0.82392 0.0
C2135 C 0.8376 0.03416 0.84028 0.0
H2136 H 0.80249 0.47889 0.88583 0.0
H2137 H 0.76474 0.4009 0.86392 0.0
H2138 H 0.7347 0.43212 0.84556 0.0
H2139 H 0.73841 0.52032 0.88727 0.0
H2140 H 0.75599 0.5547 0.88256 0.0
H2141 H 0.77615 0.5261 0.89266 0.0
H2142 H 0.81524 0.52784 0.86954 0.0
H2143 H 0.79519 0.55651 0.85935 0.0
H2144 H 0.80423 0.52341 0.84835 0.0
H2145 H 0.7056 0.4728 0.83135 0.0
H2146 H 0.68082 0.5183 0.82266 0.0
H2147 H 0.7391 0.5689 0.8538 0.0
C2148 C 0.78798 0.4683 0.87715 0.0
C2149 C 0.78581 0.43744 0.87637 0.0
C2150 C 0.7669 0.4245 0.86463 0.0
C2151 C 0.74972 0.44207 0.8542 0.0
C2152 C 0.75203 0.47251 0.85555 0.0
C2153 C 0.77092 0.48542 0.86667 0.0
C2154 C 0.76868 0.51848 0.86629 0.0
C2155 C 0.75924 0.5306 0.88319 0.0
C2156 C 0.79755 0.53237 0.86054 0.0
C2157 C 0.74497 0.52227 0.85354 0.0
C2158 C 0.73574 0.49561 0.84735 0.0
C2159 C 0.71298 0.4938 0.83598 0.0
C2160 C 0.6991 0.51983 0.83104 0.0
C2161 C 0.70792 0.54735 0.83753 0.0
C2162 C 0.73157 0.54834 0.84868 0.0
H2163 H 0.74235 0.41686 0.08879 0.0
H2164 H 0.78315 0.43405 0.04147 0.0
H2165 H 0.81849 0.46706 0.05489 0.0
H2166 H 0.74779 0.48839 0.10442 0.0
H2167 H 0.75599 0.4778 0.1253 0.0
H2168 H 0.73516 0.45364 0.11228 0.0
H2169 H 0.77243 0.41197 0.11732 0.0
H2170 H 0.79327 0.43595 0.1305 0.0
H2171 H 0.81058 0.41836 0.11316 0.0
H2172 H 0.8468 0.50125 0.07296 0.0
H2173 H 0.86752 0.53267 0.09455 0.0
H2174 H 0.81001 0.49173 0.13055 0.0
C2175 C 0.75912 0.42703 0.08132 0.0
C2176 C 0.75984 0.42294 0.06404 0.0
C2177 C 0.78187 0.43714 0.05468 0.0
C2178 C 0.80218 0.45582 0.0622 0.0
C2179 C 0.80042 0.45997 0.07917 0.0
C2180 C 0.77967 0.44578 0.08866 0.0
C2181 C 0.78195 0.45499 0.10658 0.0
C2182 C 0.75354 0.46957 0.11248 0.0
C2183 C 0.79005 0.42875 0.11753 0.0
C2184 C 0.80678 0.47697 0.10557 0.0
C2185 C 0.81716 0.47941 0.08966 0.0
C2186 C 0.83916 0.49921 0.08553 0.0
C2187 C 0.85091 0.51698 0.09799 0.0
C2188 C 0.84077 0.5149 0.1145 0.0
C2189 C 0.81844 0.49431 0.1182 0.0
H2190 H 0.82474 0.53129 0.32534 0.0
H2191 H 0.8707 0.47151 0.35782 0.0
H2192 H 0.84265 0.49042 0.38143 0.0
H2193 H 0.82334 0.59198 0.35314 0.0
H2194 H 0.78738 0.60405 0.34729 0.0
H2195 H 0.80991 0.58485 0.33264 0.0
H2196 H 0.76912 0.54619 0.32841 0.0
H2197 H 0.74637 0.5654 0.34295 0.0
H2198 H 0.7544 0.52713 0.34603 0.0
H2199 H 0.81125 0.51715 0.40178 0.0
H2200 H 0.77719 0.54842 0.41733 0.0
H2201 H 0.75139 0.59137 0.37192 0.0
C2202 C 0.82891 0.5221 0.3374 0.0
C2203 C 0.84996 0.49971 0.3396 0.0
C2204 C 0.85444 0.48822 0.35564 0.0
C2205 C 0.83875 0.49902 0.36921 0.0
C2206 C 0.81855 0.52134 0.36661 0.0
C2207 C 0.81343 0.53266 0.3511 0.0
C2208 C 0.79071 0.55683 0.35174 0.0
C2209 C 0.80362 0.58616 0.34586 0.0
C2210 C 0.76354 0.54837 0.34169 0.0
C2211 C 0.78406 0.55752 0.37007 0.0
C2212 C 0.80036 0.53681 0.37838 0.0
C2213 C 0.79821 0.53328 0.39538 0.0
C2214 C 0.77866 0.55111 0.40411 0.0
C2215 C 0.76136 0.5723 0.39589 0.0
C2216 C 0.76439 0.57561 0.37861 0.0
H2217 H 0.67776 0.47904 0.62517 0.0
H2218 H 0.72427 0.49995 0.67021 0.0
H2219 H 0.75625 0.53375 0.65485 0.0
H2220 H 0.74022 0.47971 0.59857 0.0
H2221 H 0.72178 0.49641 0.58137 0.0
H2222 H 0.7015 0.47452 0.5959 0.0
H2223 H 0.66642 0.51792 0.60126 0.0
H2224 H 0.68647 0.53987 0.58665 0.0
H2225 H 0.68116 0.55292 0.60741 0.0
H2226 H 0.78441 0.56438 0.63462 0.0
H2227 H 0.80519 0.59145 0.61108 0.0
H2228 H 0.74143 0.55077 0.57871 0.0
C2229 C 0.69438 0.49108 0.63181 0.0
C2230 C 0.69852 0.48662 0.64895 0.0
C2231 C 0.72085 0.5026 0.6571 0.0
C2232 C 0.73912 0.52197 0.64848 0.0
C2233 C 0.73496 0.52538 0.63159 0.0
C2234 C 0.71305 0.51056 0.62332 0.0
C2235 C 0.71375 0.51803 0.60505 0.0
C2236 C 0.71967 0.49052 0.59461 0.0
C2237 C 0.68525 0.53308 0.59979 0.0
C2238 C 0.73944 0.53921 0.60441 0.0
C2239 C 0.75134 0.54309 0.61987 0.0
C2240 C 0.77526 0.5615 0.62243 0.0
C2241 C 0.78713 0.57666 0.6089 0.0
C2242 C 0.7752 0.57344 0.59287 0.0
C2243 C 0.75107 0.55414 0.59072 0.0
H2244 H 0.30283 0.63289 0.09301 0.0
H2245 H 0.22173 0.58382 0.09204 0.0
H2246 H 0.24694 0.54163 0.10513 0.0
H2247 H 0.3518 0.57327 0.08525 0.0
H2248 H 0.37922 0.5874 0.09906 0.0
H2249 H 0.35482 0.61219 0.08872 0.0
H2250 H 0.33909 0.63383 0.11693 0.0
H2251 H 0.36335 0.60905 0.12735 0.0
H2252 H 0.32516 0.60971 0.13269 0.0
H2253 H 0.28271 0.50492 0.11975 0.0
H2254 H 0.32392 0.47867 0.13295 0.0
H2255 H 0.37878 0.55516 0.12543 0.0
C2256 C 0.2901 0.61343 0.09556 0.0
C2257 C 0.26009 0.61196 0.09157 0.0
C2258 C 0.24474 0.58555 0.09485 0.0
C2259 C 0.25889 0.56152 0.10239 0.0
C2260 C 0.2884 0.56422 0.10659 0.0
C2261 C 0.30369 0.58965 0.10318 0.0
C2262 C 0.33485 0.58796 0.10917 0.0
C2263 C 0.35644 0.59034 0.09469 0.0
C2264 C 0.34095 0.61153 0.12232 0.0
C2265 C 0.33499 0.55759 0.11657 0.0
C2266 C 0.30819 0.54396 0.11498 0.0
C2267 C 0.30372 0.51556 0.121 0.0
C2268 C 0.32726 0.50084 0.1286 0.0
C2269 C 0.35498 0.51452 0.13019 0.0
C2270 C 0.35836 0.54348 0.12421 0.0
H2271 H 0.227 0.46704 0.85056 0.0
H2272 H 0.1687 0.52621 0.82493 0.0
H2273 H 0.19257 0.56848 0.83854 0.0
H2274 H 0.22788 0.50578 0.88869 0.0
H2275 H 0.26578 0.49832 0.89283 0.0
H2276 H 0.24466 0.47303 0.88065 0.0
H2277 H 0.2823 0.47725 0.85688 0.0
H2278 H 0.3036 0.50248 0.86901 0.0
H2279 H 0.29137 0.51288 0.84874 0.0
H2280 H 0.22349 0.60447 0.85513 0.0
H2281 H 0.25723 0.63049 0.87404 0.0
H2282 H 0.29444 0.54717 0.88867 0.0
C2283 C 0.21947 0.48889 0.84764 0.0
C2284 C 0.19605 0.49332 0.83662 0.0
C2285 C 0.18646 0.52228 0.83342 0.0
C2286 C 0.19999 0.54642 0.84102 0.0
C2287 C 0.22299 0.54124 0.85187 0.0
C2288 C 0.23255 0.51314 0.8552 0.0
C2289 C 0.25711 0.51328 0.86765 0.0
C2290 C 0.24832 0.49662 0.88339 0.0
C2291 C 0.28526 0.50074 0.86011 0.0
C2292 C 0.25988 0.54584 0.87085 0.0
C2293 C 0.24019 0.5617 0.86158 0.0
C2294 C 0.23897 0.59223 0.86246 0.0
C2295 C 0.25827 0.60684 0.87317 0.0
C2296 C 0.27831 0.5909 0.88294 0.0
C2297 C 0.27906 0.56 0.88162 0.0
H2298 H 0.31195 0.49267 0.58798 0.0
H2299 H 0.25569 0.42054 0.57371 0.0
H2300 H 0.21285 0.44818 0.58391 0.0
H2301 H 0.28077 0.50291 0.62545 0.0
H2302 H 0.28507 0.54218 0.62598 0.0
H2303 H 0.30969 0.52031 0.61394 0.0
H2304 H 0.29693 0.55041 0.58784 0.0
H2305 H 0.27231 0.57261 0.59986 0.0
H2306 H 0.25933 0.55407 0.58166 0.0
H2307 H 0.17712 0.4812 0.59958 0.0
H2308 H 0.1534 0.51439 0.61988 0.0
H2309 H 0.23459 0.56166 0.62573 0.0
C2310 C 0.29058 0.48283 0.58667 0.0
C2311 C 0.28728 0.45435 0.58008 0.0
C2312 C 0.25882 0.44246 0.5785 0.0
C2313 C 0.23435 0.45801 0.58433 0.0
C2314 C 0.23871 0.48544 0.59161 0.0
C2315 C 0.26624 0.49772 0.59269 0.0
C2316 C 0.26617 0.52536 0.60299 0.0
C2317 C 0.28662 0.52249 0.61797 0.0
C2318 C 0.27415 0.5522 0.59246 0.0
C2319 C 0.23453 0.52618 0.60818 0.0
C2320 C 0.21872 0.50353 0.60115 0.0
C2321 C 0.18926 0.4992 0.60493 0.0
C2322 C 0.17594 0.5181 0.61641 0.0
C2323 C 0.1923 0.54044 0.62421 0.0
C2324 C 0.22172 0.54477 0.61979 0.0
H2325 H 0.27711 0.54661 0.35271 0.0
H2326 H 0.3563 0.49524 0.35541 0.0
H2327 H 0.33147 0.46006 0.37417 0.0
H2328 H 0.25462 0.53561 0.39567 0.0
H2329 H 0.21645 0.53424 0.39036 0.0
H2330 H 0.24134 0.55582 0.37814 0.0
H2331 H 0.22514 0.52774 0.35189 0.0
H2332 H 0.20027 0.5061 0.36401 0.0
H2333 H 0.22749 0.48831 0.35147 0.0
H2334 H 0.29533 0.42798 0.39069 0.0
H2335 H 0.25269 0.40358 0.40361 0.0
H2336 H 0.19913 0.47869 0.39118 0.0
C2337 C 0.28927 0.52803 0.35732 0.0
C2338 C 0.31853 0.52347 0.35255 0.0
C2339 C 0.33388 0.49914 0.35901 0.0
C2340 C 0.31993 0.47907 0.36962 0.0
C2341 C 0.2908 0.48402 0.37389 0.0
C2342 C 0.27585 0.50819 0.36806 0.0
C2343 C 0.24462 0.50847 0.37406 0.0
C2344 C 0.23894 0.53512 0.38522 0.0
C2345 C 0.22313 0.50759 0.35949 0.0
C2346 C 0.24392 0.48022 0.38379 0.0
C2347 C 0.27067 0.46634 0.38366 0.0
C2348 C 0.27441 0.43894 0.39105 0.0
C2349 C 0.25007 0.42526 0.39844 0.0
C2350 C 0.22232 0.43899 0.39838 0.0
C2351 C 0.21975 0.46721 0.39131 0.0
H2352 H 0.10581 1.0106 0.26505 0.0
H2353 H 0.0949 0.10185 0.25148 0.0
H2354 H 0.08403 0.0868 0.22276 0.0
H2355 H 0.14046 0.98763 0.22618 0.0
H2356 H 0.12285 0.95227 0.22656 0.0
H2357 H 0.13144 0.97067 0.24561 0.0
H2358 H 0.07722 0.96656 0.25449 0.0
H2359 H 0.06836 0.94863 0.23537 0.0
H2360 H 0.04923 0.98146 0.24135 0.0
H2361 H 0.0696 0.06125 0.19648 0.0
H2362 H 0.05909 0.02785 0.17335 0.0
H2363 H 0.08177 0.95328 0.20398 0.0
C2364 C 0.10157 0.02744 0.25596 0.0
C2365 C 0.1011 0.05735 0.26036 0.0
C2366 C 0.09558 0.07884 0.24822 0.0
C2367 C 0.08921 0.07047 0.23196 0.0
C2368 C 0.08901 0.04064 0.22812 0.0
C2369 C 0.09567 0.01951 0.2397 0.0
C2370 C 0.0939 0.98895 0.23249 0.0
C2371 C 0.12395 0.97401 0.23272 0.0
C2372 C 0.0708 0.97032 0.24146 0.0
C2373 C 0.0845 0.9961 0.2151 0.0
C2374 C 0.08165 0.02601 0.21287 0.0
C2375 C 0.07213 0.03783 0.19803 0.0
C2376 C 0.066 0.01862 0.18501 0.0
C2377 C 0.06966 0.98795 0.18688 0.0
C2378 C 0.07885 0.97662 0.20218 0.0
H2379 H 0.2286 0.91067 0.50462 0.0
H2380 H 0.18983 0.82406 0.50093 0.0
H2381 H 0.22014 0.81378 0.47645 0.0
H2382 H 0.23814 0.92339 0.45923 0.0
H2383 H 0.2727 0.94158 0.46217 0.0
H2384 H 0.24486 0.94393 0.47784 0.0
H2385 H 0.2814 0.92394 0.49939 0.0
H2386 H 0.30921 0.92115 0.48379 0.0
H2387 H 0.29918 0.88933 0.4957 0.0
H2388 H 0.25837 0.81032 0.45496 0.0
H2389 H 0.30078 0.81451 0.43655 0.0
H2390 H 0.31575 0.9035 0.45365 0.0
C2391 C 0.22576 0.88995 0.4983 0.0
C2392 C 0.20661 0.86824 0.50456 0.0
C2393 C 0.20421 0.84104 0.49628 0.0
C2394 C 0.22133 0.83502 0.48236 0.0
C2395 C 0.24075 0.85643 0.47686 0.0
C2396 C 0.2429 0.88349 0.48442 0.0
C2397 C 0.26727 0.90163 0.4768 0.0
C2398 C 0.255 0.92927 0.46852 0.0
C2399 C 0.29064 0.90946 0.48969 0.0
C2400 C 0.27898 0.88021 0.4641 0.0
C2401 C 0.26314 0.85439 0.46432 0.0
C2402 C 0.27067 0.83058 0.45449 0.0
C2403 C 0.29498 0.83315 0.44414 0.0
C2404 C 0.31163 0.85936 0.44361 0.0
C2405 C 0.30329 0.8833 0.45365 0.0
H2406 H 0.38601 0.07201 0.71391 0.0
H2407 H 0.38652 1.00255 0.67739 0.0
H2408 H 0.37986 0.96577 0.69934 0.0
H2409 H 0.4285 0.03448 0.74281 0.0
H2410 H 0.40974 0.04819 0.76076 0.0
H2411 H 0.41038 0.0695 0.74212 0.0
H2412 H 0.35385 0.07131 0.7421 0.0
H2413 H 0.35304 0.05002 0.7608 0.0
H2414 H 0.33332 0.03759 0.7429 0.0
H2415 H 0.3769 0.93626 0.72511 0.0
H2416 H 0.38015 0.91583 0.75322 0.0
H2417 H 0.38347 1.00406 0.77325 0.0
C2418 C 0.38401 0.04911 0.71058 0.0
C2419 C 0.38654 0.04005 0.69401 0.0
C2420 C 0.38462 1.00987 0.69005 0.0
C2421 C 0.38068 0.98884 0.70241 0.0
C2422 C 0.37888 0.99832 0.71868 0.0
C2423 C 0.38055 0.0277 0.72283 0.0
C2424 C 0.38075 0.03171 0.74137 0.0
C2425 C 0.40902 0.04686 0.74709 0.0
C2426 C 0.35362 0.04866 0.74713 0.0
C2427 C 0.37958 1.00001 0.74693 0.0
C2428 C 0.37802 0.98114 0.73365 0.0
C2429 C 0.37785 0.9508 0.73564 0.0
C2430 C 0.37971 0.93939 0.75165 0.0
C2431 C 0.38205 0.95832 0.76543 0.0
C2432 C 0.38159 0.98901 0.76298 0.0
H2433 H 0.23537 0.18149 0.94668 0.0
H2434 H 0.18953 0.09959 0.95503 0.0
H2435 H 0.21932 0.09104 0.98008 0.0
H2436 H 0.30656 0.15902 0.96087 0.0
H2437 H 0.31419 0.19365 0.97068 0.0
H2438 H 0.29066 0.19224 0.95291 0.0
H2439 H 0.24945 0.21801 0.96936 0.0
H2440 H 0.27304 0.22001 -0.01297 0.0
H2441 H 0.23775 0.20277 -0.01121 0.0
H2442 H 0.25438 0.09201 0.00441 0.0
H2443 H 0.28587 0.1061 0.02803 0.0
H2444 H 0.30619 0.18832 0.004 0.0
C2445 C 0.23169 0.16168 0.95374 0.0
C2446 C 0.21037 0.14108 0.94894 0.0
C2447 C 0.20576 0.11567 0.9586 0.0
C2448 C 0.22276 0.11051 0.97271 0.0
C2449 C 0.24397 0.13114 0.97699 0.0
C2450 C 0.24805 0.15647 0.96792 0.0
C2451 C 0.27048 0.17639 0.97574 0.0
C2452 C 0.29705 0.18055 0.96437 0.0
C2453 C 0.25686 0.20603 0.98052 0.0
C2454 C 0.27828 0.1585 -0.00925 0.0
C2455 C 0.26328 0.13216 -0.00887 0.0
C2456 C 0.26639 0.11245 0.00417 0.0
C2457 C 0.28447 0.12043 0.01742 0.0
C2458 C 0.29872 0.14791 0.01749 0.0
C2459 C 0.29598 0.16687 0.00392 0.0
H2460 H 0.90438 0.99945 0.68694 0.0
H2461 H 0.89677 0.91289 0.70864 0.0
H2462 H 0.89786 0.93507 0.73648 0.0
H2463 H 0.95441 0.02748 0.71396 0.0
H2464 H 0.93953 0.06398 0.71497 0.0
H2465 H 0.9338 0.04193 0.69689 0.0
H2466 H 0.87784 0.04821 0.69981 0.0
H2467 H 0.88338 0.07062 0.71785 0.0
H2468 H 0.86024 0.03868 0.71896 0.0
H2469 H 0.90812 0.96564 0.76139 0.0
H2470 H 0.92237 1.00291 0.78196 0.0
H2471 H 0.92054 0.07009 0.74422 0.0
C2472 C 0.90225 0.98522 0.69756 0.0
C2473 C 0.90054 0.95448 0.69572 0.0
C2474 C 0.89788 0.93651 0.70984 0.0
C2475 C 0.89852 0.94892 0.72566 0.0
C2476 C 0.90119 0.9793 0.72705 0.0
C2477 C 0.90244 0.99727 0.71337 0.0
C2478 C 0.9071 0.02903 0.71817 0.0
C2479 C 0.93539 0.0413 0.71055 0.0
C2480 C 0.88055 0.04774 0.71342 0.0
C2481 C 0.90964 0.026 0.73667 0.0
C2482 C 0.90603 0.99713 0.74154 0.0
C2483 C 0.91029 0.98838 0.75779 0.0
C2484 C 0.9186 1.00962 0.76933 0.0
C2485 C 0.92228 0.03924 0.76459 0.0
C2486 C 0.91724 0.04764 0.74814 0.0
H2487 H 0.6997 0.19163 0.50291 0.0
H2488 H 0.71288 0.10324 0.52056 0.0
H2489 H 0.74644 0.09348 0.49717 0.0
H2490 H 0.70593 0.17429 0.45729 0.0
H2491 H 0.72427 0.2087 0.45372 0.0
H2492 H 0.69713 0.20582 0.46973 0.0
H2493 H 0.73503 0.22547 0.49073 0.0
H2494 H 0.76261 0.22734 0.475 0.0
H2495 H 0.76903 0.20621 0.49341 0.0
H2496 H 0.78581 0.09737 0.47489 0.0
H2497 H 0.82101 0.11199 0.45298 0.0
H2498 H 0.78033 0.19761 0.45061 0.0
C2499 C 0.70844 0.16977 0.50126 0.0
C2500 C 0.70337 0.1479 0.51307 0.0
C2501 C 0.71597 0.11985 0.51118 0.0
C2502 C 0.73525 0.11429 0.49807 0.0
C2503 C 0.74115 0.13696 0.48702 0.0
C2504 C 0.72737 0.16388 0.48824 0.0
C2505 C 0.73901 0.18548 0.4758 0.0
C2506 C 0.71517 0.19406 0.46339 0.0
C2507 C 0.75219 0.21271 0.48425 0.0
C2508 C 0.7623 0.16702 0.46782 0.0
C2509 C 0.76337 0.13908 0.47433 0.0
C2510 C 0.78472 0.119 0.46945 0.0
C2511 C 0.80482 0.12755 0.45722 0.0
C2512 C 0.80316 0.15581 0.45014 0.0
C2513 C 0.78185 0.1757 0.45569 0.0
H2514 H 0.55672 0.07508 0.22268 0.0
H2515 H 0.64453 0.06349 0.20384 0.0
H2516 H 0.65489 0.02844 0.22636 0.0
H2517 H 0.57674 0.06954 0.26714 0.0
H2518 H 0.54306 0.05095 0.27199 0.0
H2519 H 0.54425 0.07716 0.2554 0.0
H2520 H 0.52374 0.03758 0.23561 0.0
H2521 H 0.52335 1.01098 0.25197 0.0
H2522 H 0.54303 1.00343 0.2332 0.0
H2523 H 0.65258 0.98874 0.24858 0.0
H2524 H 0.64139 0.95575 0.27203 0.0
H2525 H 0.55625 0.99615 0.27701 0.0
C2526 C 0.57845 0.06591 0.22363 0.0
C2527 C 0.59983 0.072 0.21157 0.0
C2528 C 0.62794 0.05939 0.21308 0.0
C2529 C 0.6339 0.03921 0.22573 0.0
C2530 C 0.61174 0.03248 0.23693 0.0
C2531 C 0.58489 0.04622 0.23629 0.0
C2532 C 0.5646 0.03499 0.2496 0.0
C2533 C 0.55671 0.05962 0.26175 0.0
C2534 C 0.53707 0.02091 0.24214 0.0
C2535 C 0.5839 0.01223 0.25758 0.0
C2536 C 0.61091 1.01079 0.25003 0.0
C2537 C 0.63171 0.99014 0.25479 0.0
C2538 C 0.62508 0.97129 0.26801 0.0
C2539 C 0.59808 0.97362 0.27642 0.0
C2540 C 0.57719 0.99406 0.27091 0.0
H2541 H 0.74819 0.83153 0.00933 0.0
H2542 H 0.82644 0.885 0.00594 0.0
H2543 H 0.81132 0.90159 0.97825 0.0
H2544 H 0.74745 0.8072 0.96851 0.0
H2545 H 0.70835 0.80846 0.9662 0.0
H2546 H 0.72409 0.80287 -0.01375 0.0
H2547 H 0.69569 0.84779 -0.00259 0.0
H2548 H 0.67993 0.8536 0.97733 0.0
H2549 H 0.69966 0.8828 -0.01265 0.0
H2550 H 0.79076 0.90771 0.94997 0.0
H2551 H 0.7657 0.90369 0.92312 0.0
H2552 H 0.69918 0.84873 0.94531 0.0
C2553 C 0.76203 0.84696 0.00284 0.0
C2554 C 0.78856 0.85693 0.00976 0.0
C2555 C 0.80602 0.87713 0.00089 0.0
C2556 C 0.79756 0.88673 -0.01482 0.0
C2557 C 0.77137 0.87629 0.97867 0.0
C2558 C 0.75374 0.85703 -0.01274 0.0
C2559 C 0.72737 0.84805 0.97717 0.0
C2560 C 0.7268 0.81467 0.97436 0.0
C2561 C 0.69898 0.8587 -0.0147 0.0
C2562 C 0.73343 0.86446 0.96131 0.0
C2563 C 0.75886 0.88076 0.9625 0.0
C2564 C 0.77051 0.89558 0.949 0.0
C2565 C 0.75618 0.89316 0.93383 0.0
C2566 C 0.73035 0.87634 0.93232 0.0
C2567 C 0.71843 0.86242 0.94631 0.0
H2568 H 0.56329 0.54248 0.77412 0.0
H2569 H 0.65568 0.54165 0.78568 0.0
H2570 H 0.66307 0.50143 0.76571 0.0
H2571 H 0.55425 0.46318 0.76624 0.0
H2572 H 0.52972 0.46948 0.74926 0.0
H2573 H 0.53103 0.49503 0.7662 0.0
H2574 H 0.54173 0.53748 0.74581 0.0
H2575 H 0.54031 0.51214 0.72886 0.0
H2576 H 0.57229 0.53457 0.73188 0.0
H2577 H 0.66084 0.46366 0.7429 0.0
H2578 H 0.65011 0.43564 0.71747 0.0
H2579 H 0.55973 0.46329 0.72018 0.0
C2580 C 0.58498 0.53341 0.77274 0.0
C2581 C 0.60884 0.54492 0.78164 0.0
C2582 C 0.63702 0.533 0.77912 0.0
C2583 C 0.6414 0.51004 0.76786 0.0
C2584 C 0.61741 0.49938 0.75915 0.0
C2585 C 0.58978 0.51086 0.7614 0.0
C2586 C 0.56822 0.49795 0.74929 0.0
C2587 C 0.5444 0.48036 0.75829 0.0
C2588 C 0.55487 0.52196 0.73831 0.0
C2589 C 0.58817 0.47799 0.73956 0.0
C2590 C 0.61632 0.47854 0.74565 0.0
C2591 C 0.63881 0.46283 0.73814 0.0
C2592 C 0.63251 0.44688 0.72375 0.0
C2593 C 0.60409 0.44729 0.71692 0.0
C2594 C 0.58161 0.46247 0.72519 0.0
H2595 H 0.73616 0.29593 0.00948 0.0
H2596 H 0.67417 0.36542 -0.00092 0.0
H2597 H 0.70273 0.37923 0.97446 0.0
H2598 H 0.79954 0.33509 -0.00151 0.0
H2599 H 0.81789 0.3043 -0.01079 0.0
H2600 H 0.79178 0.2984 0.0055 0.0
H2601 H 0.7619 0.26333 -0.01317 0.0
H2602 H 0.78836 0.26844 0.97066 0.0
H2603 H 0.75032 0.27565 0.96677 0.0
H2604 H 0.73896 0.38684 0.95188 0.0
H2605 H 0.77741 0.38366 0.93053 0.0
H2606 H 0.81603 0.30986 0.95593 0.0
C2607 C 0.72822 0.31369 0.00187 0.0
C2608 C 0.70301 0.32968 0.00621 0.0
C2609 C 0.69344 0.35287 -0.00404 0.0
C2610 C 0.70962 0.36101 0.98204 0.0
C2611 C 0.73512 0.34564 0.97856 0.0
C2612 C 0.74409 0.32214 -0.01201 0.0
C2613 C 0.77234 0.30929 0.9816 0.0
C2614 C 0.79683 0.31194 -0.00553 0.0
C2615 C 0.76796 0.27729 0.97613 0.0
C2616 C 0.77785 0.32924 0.96707 0.0
C2617 C 0.75624 0.35022 0.96563 0.0
C2618 C 0.7561 0.37067 0.95291 0.0
C2619 C 0.7781 0.36893 0.941 0.0
C2620 C 0.79982 0.34708 0.94204 0.0
C2621 C 0.80004 0.32729 0.9553 0.0
H2622 H 0.94044 0.51232 0.26395 0.0
H2623 H 0.91505 0.42305 0.2523 0.0
H2624 H 0.90404 0.43824 0.22361 0.0
H2625 H 0.8843 0.54766 0.23871 0.0
H2626 H 0.90813 0.57744 0.23296 0.0
H2627 H 0.9126 0.55961 0.25261 0.0
H2628 H 0.96672 0.54874 0.24555 0.0
H2629 H 0.96244 0.56651 0.22592 0.0
H2630 H 0.97538 0.52926 0.22684 0.0
H2631 H 0.90117 0.46228 0.19582 0.0
H2632 H 0.90336 0.49394 0.17114 0.0
H2633 H 0.92692 0.56828 0.20167 0.0
C2634 C 0.93248 0.49597 0.25536 0.0
C2635 C 0.92886 0.46647 0.26014 0.0
C2636 C 0.91798 0.44574 0.24874 0.0
C2637 C 0.91166 0.45419 0.2325 0.0
C2638 C 0.91574 0.4835 0.22814 0.0
C2639 C 0.9255 0.50414 0.23932 0.0
C2640 C 0.92845 0.53412 0.23154 0.0
C2641 C 0.90709 0.55599 0.23942 0.0
C2642 C 0.96013 0.54529 0.23252 0.0
C2643 C 0.91982 0.527 0.21403 0.0
C2644 C 0.91256 0.49767 0.21233 0.0
C2645 C 0.90624 0.48536 0.19705 0.0
C2646 C 0.90767 0.50343 0.18314 0.0
C2647 C 0.915 0.53345 0.18468 0.0
C2648 C 0.92062 0.5455 0.20032 0.0
H2649 H 0.82131 0.58349 0.50293 0.0
H2650 H 0.8244 0.66144 0.53334 0.0
H2651 H 0.78651 0.68423 0.51641 0.0
H2652 H 0.81117 0.61859 0.46487 0.0
H2653 H 0.78613 0.59163 0.45682 0.0
H2654 H 0.81281 0.58117 0.47195 0.0
H2655 H 0.77147 0.56109 0.49068 0.0
H2656 H 0.74463 0.57185 0.47564 0.0
H2657 H 0.74183 0.58483 0.49658 0.0
H2658 H 0.75153 0.7003 0.49452 0.0
H2659 H 0.72212 0.70806 0.46927 0.0
H2660 H 0.73832 0.61841 0.45443 0.0
C2661 C 0.81394 0.6053 0.50612 0.0
C2662 C 0.82657 0.62095 0.51939 0.0
C2663 C 0.81617 0.6494 0.52301 0.0
C2664 C 0.79406 0.66233 0.51359 0.0
C2665 C 0.7822 0.64633 0.50063 0.0
C2666 C 0.79162 0.61834 0.49694 0.0
C2667 C 0.77603 0.60627 0.48194 0.0
C2668 C 0.79783 0.59901 0.46808 0.0
C2669 C 0.75738 0.57942 0.48649 0.0
C2670 C 0.75704 0.63222 0.4775 0.0
C2671 C 0.76078 0.65507 0.48851 0.0
C2672 C 0.74777 0.68234 0.48606 0.0
C2673 C 0.73106 0.68655 0.47179 0.0
C2674 C 0.72723 0.66348 0.46039 0.0
C2675 C 0.73992 0.6359 0.46341 0.0
H2676 H 0.39079 0.51309 0.2815 0.0
H2677 H 0.38627 0.60499 0.26808 0.0
H2678 H 0.38555 0.59107 0.23858 0.0
H2679 H 0.43905 0.49178 0.25178 0.0
H2680 H 0.42288 0.45647 0.24771 0.0
H2681 H 0.4183 0.4733 0.26758 0.0
H2682 H 0.3621 0.46945 0.2647 0.0
H2683 H 0.3665 0.45239 0.2448 0.0
H2684 H 0.34444 0.48487 0.24686 0.0
H2685 H 0.39408 0.56773 0.2111 0.0
H2686 H 0.40828 0.53664 0.18748 0.0
H2687 H 0.40457 0.45958 0.21859 0.0
C2688 C 0.38897 0.53029 0.27237 0.0
C2689 C 0.38862 0.56013 0.27702 0.0
C2690 C 0.38635 0.582 0.26474 0.0
C2691 C 0.38592 0.57427 0.24799 0.0
C2692 C 0.38716 0.54461 0.24381 0.0
C2693 C 0.38816 0.52293 0.25567 0.0
C2694 C 0.39162 0.49283 0.24801 0.0
C2695 C 0.41962 0.47773 0.25413 0.0
C2696 C 0.36455 0.47376 0.25129 0.0
C2697 C 0.39389 0.50103 0.22999 0.0
C2698 C 0.391 0.531 0.22783 0.0
C2699 C 0.39557 0.5442 0.21257 0.0
C2700 C 0.40374 0.52643 0.19927 0.0
C2701 C 0.40697 0.49581 0.20128 0.0
C2702 C 0.40132 0.48285 0.21671 0.0
H2703 H 0.27014 0.67535 0.94576 0.0
H2704 H 0.35973 0.67529 0.96299 0.0
H2705 H 0.34203 0.67667 -0.00813 0.0
H2706 H 0.24162 0.72424 0.9747 0.0
H2707 H 0.20726 0.70547 0.97724 0.0
H2708 H 0.22696 0.70242 0.95811 0.0
H2709 H 0.22661 0.64582 0.96072 0.0
H2710 H 0.2068 0.64867 0.97986 0.0
H2711 H 0.24081 0.62892 0.97911 0.0
H2712 H 0.31456 0.68402 0.01839 0.0
H2713 H 0.27941 0.69283 0.04098 0.0
H2714 H 0.2075 0.68435 0.00666 0.0
C2715 C 0.28605 0.67535 0.95562 0.0
C2716 C 0.31632 0.67542 0.95221 0.0
C2717 C 0.33647 0.67517 0.96539 0.0
C2718 C 0.3266 0.67597 0.98179 0.0
C2719 C 0.29656 0.67636 0.98471 0.0
C2720 C 0.27658 0.67557 0.972 0.0
C2721 C 0.2455 0.67676 0.9784 0.0
C2722 C 0.2294 0.70383 0.97172 0.0
C2723 C 0.22896 0.64835 0.97428 0.0
C2724 C 0.25105 0.67935 -0.00327 0.0
C2725 C 0.28068 0.6791 9e-05 0.0
C2726 C 0.29134 0.68363 0.01594 0.0
C2727 C 0.27127 0.68874 0.02866 0.0
C2728 C 0.2409 0.68888 0.02549 0.0
C2729 C 0.23062 0.68366 0.00939 0.0
H2730 H 0.12952 0.56902 0.71367 0.0
H2731 H 0.11154 0.49853 0.67919 0.0
H2732 H 0.1186 0.46227 0.70131 0.0
H2733 H 0.18407 0.52929 0.73898 0.0
H2734 H 0.17073 0.54523 0.75787 0.0
H2735 H 0.1683 0.56546 0.73884 0.0
H2736 H 0.11251 0.57149 0.7431 0.0
H2737 H 0.11484 0.55153 0.76214 0.0
H2738 H 0.09021 0.53936 0.74623 0.0
H2739 H 0.12315 0.43384 0.7277 0.0
H2740 H 0.1211 0.41643 0.75664 0.0
H2741 H 0.13552 0.50545 0.77361 0.0
C2742 C 0.12762 0.54593 0.71074 0.0
C2743 C 0.12007 0.53659 0.69475 0.0
C2744 C 0.11726 0.50621 0.6914 0.0
C2745 C 0.12147 0.48539 0.70384 0.0
C2746 C 0.12855 0.49529 0.71956 0.0
C2747 C 0.13153 0.52486 0.72305 0.0
C2748 C 0.13636 0.52994 0.74124 0.0
C2749 C 0.16667 0.54326 0.74441 0.0
C2750 C 0.11203 0.5492 0.7486 0.0
C2751 C 0.13458 0.49876 0.74747 0.0
C2752 C 0.13071 0.47896 0.73478 0.0
C2753 C 0.1266 0.44906 0.73774 0.0
C2754 C 0.12557 0.43933 0.75417 0.0
C2755 C 0.12816 0.45962 0.76725 0.0
C2756 C 0.13356 0.48945 0.7638 0.0
H2757 H 0.21451 0.321 0.46946 0.0
H2758 H 0.19758 0.41344 0.46215 0.0
H2759 H 0.23711 0.42564 0.48205 0.0
H2760 H 0.23023 0.32551 0.51326 0.0
H2761 H 0.2575 0.29718 0.51195 0.0
H2762 H 0.2272 0.29716 0.49787 0.0
H2763 H 0.26375 0.29637 0.4734 0.0
H2764 H 0.29416 0.29745 0.48741 0.0
H2765 H 0.29073 0.32502 0.47163 0.0
H2766 H 0.28124 0.42664 0.50206 0.0
H2767 H 0.31915 0.41629 0.5232 0.0
H2768 H 0.30548 0.32318 0.5163 0.0
C2769 C 0.21876 0.34383 0.47228 0.0
C2770 C 0.20306 0.36632 0.46445 0.0
C2771 C 0.20917 0.39594 0.46832 0.0
C2772 C 0.2318 0.403 0.4794 0.0
C2773 C 0.24772 0.38012 0.48646 0.0
C2774 C 0.24091 0.35113 0.48326 0.0
C2775 C 0.26055 0.33033 0.49245 0.0
C2776 C 0.24282 0.31145 0.5046 0.0
C2777 C 0.27834 0.31118 0.4805 0.0
C2778 C 0.2798 0.35201 0.50131 0.0
C2779 C 0.27245 0.38067 0.49768 0.0
C2780 C 0.28716 0.40426 0.50492 0.0
C2781 C 0.30892 0.39826 0.5167 0.0
C2782 C 0.31536 0.36897 0.52108 0.0
C2783 C 0.3012 0.34575 0.51293 0.0
H2784 H 0.02851 0.20005 0.27978 0.0
H2785 H 0.04619 0.18663 0.33165 0.0
H2786 H 0.02992 0.23733 0.33762 0.0
H2787 H 0.05551 0.27377 0.27843 0.0
H2788 H 0.02869 0.2864 0.26384 0.0
H2789 H 0.03965 0.24852 0.26385 0.0
H2790 H 0.98567 0.23253 0.26742 0.0
H2791 H 0.97459 0.2704 0.26739 0.0
H2792 H 0.96466 0.24698 0.28438 0.0
H2793 H 0.00989 0.28948 0.33794 0.0
H2794 H 0.99396 0.34043 0.33213 0.0
H2795 H 0.99374 0.32151 0.27986 0.0
C2796 C 0.0286 0.20774 0.2924 0.0
C2797 C 0.03826 0.18927 0.30531 0.0
C2798 C 0.0388 0.20038 0.32162 0.0
C2799 C 0.02947 0.22909 0.32511 0.0
C2800 C 0.02004 0.24675 0.31212 0.0
C2801 C 0.01996 0.23662 0.29605 0.0
C2802 C 0.01059 0.26062 0.28422 0.0
C2803 C 0.03508 0.26775 0.27186 0.0
C2804 C 0.98219 0.25211 0.27533 0.0
C2805 C 1.00556 0.28586 0.2961 0.0
C2806 C 0.01052 0.27724 0.31218 0.0
C2807 C 1.00626 0.29649 0.32536 0.0
C2808 C 0.99716 0.32532 0.32199 0.0
C2809 C 0.99298 0.3349 0.30558 0.0
C2810 C 0.99718 0.3148 0.2925 0.0
H2811 H 0.95613 0.72185 0.52261 0.0
H2812 H 0.94331 0.70078 0.57412 0.0
H2813 H 0.99208 0.72143 0.58065 0.0
H2814 H 0.03279 0.70359 0.52105 0.0
H2815 H 0.04206 0.73292 0.5071 0.0
H2816 H 1.00599 0.71717 0.50672 0.0
H2817 H 0.98362 0.76867 0.51128 0.0
H2818 H 0.01963 0.78457 0.51179 0.0
H2819 H 0.99495 0.79017 0.52881 0.0
H2820 H 0.0421 0.74704 0.58155 0.0
H2821 H 0.09048 0.76992 0.57632 0.0
H2822 H 0.07222 0.7712 0.524 0.0
C2823 C 0.96371 0.72155 0.53524 0.0
C2824 C 0.946 0.70944 0.54786 0.0
C2825 C 0.95666 0.7095 0.56425 0.0
C2826 C 0.98425 0.72142 0.56807 0.0
C2827 C 1.0012 0.73318 0.55534 0.0
C2828 C 0.99142 0.733 0.53921 0.0
C2829 C 0.01417 0.74622 0.52773 0.0
C2830 C 0.02436 0.72362 0.51489 0.0
C2831 C 1.00238 0.77405 0.51941 0.0
C2832 C 0.03839 0.75362 0.53983 0.0
C2833 C 0.03029 0.74648 0.55575 0.0
C2834 C 0.04868 0.75239 0.56909 0.0
C2835 C 0.07608 0.76548 0.56604 0.0
C2836 C 0.08525 0.77203 0.54977 0.0
C2837 C 0.06597 0.76605 0.53654 0.0
H2838 H 0.48967 0.82662 0.81413 0.0
H2839 H 0.49643 0.85112 0.76265 0.0
H2840 H 0.52375 0.80567 0.75685 0.0
H2841 H 0.5638 0.79551 0.81541 0.0
H2842 H 0.5547 0.76644 0.82962 0.0
H2843 H 0.53539 0.80084 0.83037 0.0
H2844 H 0.48571 0.77505 0.82664 0.0
H2845 H 0.50445 0.7404 0.82681 0.0
H2846 H 0.48112 0.74965 0.8098 0.0
H2847 H 0.54631 0.75657 0.75603 0.0
H2848 H 0.56706 0.70769 0.76039 0.0
H2849 H 0.54828 0.71413 0.81274 0.0
C2850 C 0.49711 0.82234 0.80168 0.0
C2851 C 0.49098 0.84231 0.78878 0.0
C2852 C 0.50122 0.83627 0.77268 0.0
C2853 C 0.51659 0.81046 0.76928 0.0
C2854 C 0.5221 0.79112 0.78218 0.0
C2855 C 0.51315 0.79686 0.79813 0.0
C2856 C 0.52297 0.77261 0.80973 0.0
C2857 C 0.54559 0.7845 0.82202 0.0
C2858 C 0.49698 0.75862 0.81878 0.0
C2859 C 0.53686 0.75138 0.79757 0.0
C2860 C 0.53637 0.76286 0.78181 0.0
C2861 C 0.54694 0.74736 0.76832 0.0
C2862 C 0.5584 0.71935 0.77091 0.0
C2863 C 0.55907 0.70674 0.78688 0.0
C2864 C 0.54824 0.72318 0.80041 0.0
H2865 H 0.44273 0.21584 0.05386 0.0
H2866 H 0.40714 0.28292 0.0219 0.0
H2867 H 0.45565 0.30715 0.02088 0.0
H2868 H 0.49081 0.2613 0.07743 0.0
H2869 H 0.51839 0.23323 0.07844 0.0
H2870 H 0.4805 0.22325 0.07644 0.0
H2871 H 0.4927 0.19404 0.04874 0.0
H2872 H 0.53049 0.203 0.05286 0.0
H2873 H 0.51423 0.21203 0.03328 0.0
H2874 H 0.50978 0.32328 0.02336 0.0
H2875 H 0.56218 0.32962 0.0289 0.0
H2876 H 0.56075 0.25142 0.0595 0.0
C2877 C 0.44505 0.23538 0.04643 0.0
C2878 C 0.42102 0.24723 0.03781 0.0
C2879 C 0.42515 0.27338 0.02862 0.0
C2880 C 0.45266 0.28729 0.02797 0.0
C2881 C 0.47586 0.27491 0.03667 0.0
C2882 C 0.47216 0.24956 0.04572 0.0
C2883 C 0.50036 0.24017 0.05375 0.0
C2884 C 0.49734 0.23943 0.07263 0.0
C2885 C 0.51013 0.21053 0.04677 0.0
C2886 C 0.52062 0.26435 0.04817 0.0
C2887 C 0.50629 0.28416 0.0382 0.0
C2888 C 0.52104 0.30786 0.03123 0.0
C2889 C 0.55105 0.31128 0.03452 0.0
C2890 C 0.56628 0.2911 0.04475 0.0
C2891 C 0.55043 0.26736 0.05159 0.0
H2892 H 0.97374 0.69996 0.13612 0.0
H2893 H 0.98495 0.68234 0.1882 0.0
H2894 H 0.99795 0.73423 0.19296 0.0
H2895 H 0.03573 0.74893 0.13371 0.0
H2896 H 0.02001 0.77402 0.11906 0.0
H2897 H 0.00938 0.73597 0.11899 0.0
H2898 H 0.95542 0.74913 0.12253 0.0
H2899 H 0.96515 0.78733 0.12166 0.0
H2900 H 0.94455 0.77369 0.13894 0.0
H2901 H 0.00932 0.78807 0.19233 0.0
H2902 H 0.0204 0.84006 0.18594 0.0
H2903 H 1.00349 0.82342 0.13425 0.0
C2904 C 0.97877 0.70721 0.14851 0.0
C2905 C 0.97825 0.68713 0.16185 0.0
C2906 C 0.98541 0.69727 0.17784 0.0
C2907 C 0.99268 0.72674 0.18066 0.0
C2908 C 0.99316 0.74595 0.16732 0.0
C2909 C 0.98672 0.73662 0.1515 0.0
C2910 C 0.99065 0.76163 0.13925 0.0
C2911 C 0.01542 0.75475 0.12703 0.0
C2912 C 0.9622 0.76831 0.13006 0.0
C2913 C 0.99893 0.78659 0.15079 0.0
C2914 C 1.00042 0.77699 0.1669 0.0
C2915 C 1.00804 0.79588 0.17976 0.0
C2916 C 0.01433 0.82533 0.17606 0.0
C2917 C 0.0124 0.83585 0.1597 0.0
C2918 C 1.0046 0.8161 0.14693 0.0
H2919 H 0.59926 0.76659 0.43807 0.0
H2920 H 0.59089 0.71569 0.39324 0.0
H2921 H 0.54213 0.73743 0.38833 0.0
H2922 H 0.5241 0.75885 0.45077 0.0
H2923 H 0.52195 0.79528 0.45929 0.0
H2924 H 0.55639 0.77634 0.45882 0.0
H2925 H 0.57931 0.81985 0.44305 0.0
H2926 H 0.54491 0.83889 0.44304 0.0
H2927 H 0.56348 0.83155 0.42384 0.0
H2928 H 0.49429 0.76638 0.38805 0.0
H2929 H 0.45002 0.79595 0.39391 0.0
H2930 H 0.48883 0.82578 0.43961 0.0
C2931 C 0.58718 0.76017 0.4272 0.0
C2932 C 0.59892 0.73956 0.41598 0.0
C2933 C 0.58224 0.73131 0.40202 0.0
C2934 C 0.5546 0.74368 0.3991 0.0
C2935 C 0.54366 0.764 0.41039 0.0
C2936 C 0.5593 0.77185 0.42428 0.0
C2937 C 0.54221 0.79324 0.43485 0.0
C2938 C 0.53578 0.78014 0.45194 0.0
C2939 C 0.55844 0.82264 0.43628 0.0
C2940 C 0.51453 0.79629 0.42476 0.0
C2941 C 0.51587 0.77956 0.41057 0.0
C2942 C 0.49299 0.77936 0.3992 0.0
C2943 C 0.46798 0.79629 0.40256 0.0
C2944 C 0.4658 0.81285 0.41728 0.0
C2945 C 0.48961 0.81293 0.42839 0.0
H2946 H 0.44322 0.21202 0.6786 0.0
H2947 H 0.52076 0.15945 0.6871 0.0
H2948 H 0.54955 0.20425 0.69084 0.0
H2949 H 0.4764 0.26829 0.65578 0.0
H2950 H 0.45541 0.29761 0.66487 0.0
H2951 H 0.44075 0.26115 0.66414 0.0
H2952 H 0.4335 0.26093 0.69648 0.0
H2953 H 0.44648 0.29826 0.69603 0.0
H2954 H 0.4639 0.27151 0.70905 0.0
H2955 H 0.57121 0.25591 0.69253 0.0
H2956 H 0.58296 0.30856 0.69073 0.0
H2957 H 0.49188 0.32765 0.68109 0.0
C2958 C 0.46612 0.20964 0.68139 0.0
C2959 C 0.47933 0.18148 0.68222 0.0
C2960 C 0.50964 0.1802 0.68602 0.0
C2961 C 0.5264 0.20576 0.68833 0.0
C2962 C 0.51279 0.23294 0.68711 0.0
C2963 C 0.48328 0.23505 0.68387 0.0
C2964 C 0.47421 0.26704 0.68276 0.0
C2965 C 0.46094 0.27398 0.66586 0.0
C2966 C 0.45326 0.27494 0.69689 0.0
C2967 C 0.50329 0.28244 0.68499 0.0
C2968 C 0.52524 0.26246 0.68789 0.0
C2969 C 0.55403 0.27164 0.69024 0.0
C2970 C 0.56055 0.3018 0.68916 0.0
C2971 C 0.53863 0.32267 0.68532 0.0
C2972 C 0.50945 0.31258 0.68371 0.0
H2973 H 0.08094 0.25106 0.89897 0.0
H2974 H 0.08053 0.2054 0.94581 0.0
H2975 H 0.03034 0.22282 0.95103 0.0
H2976 H 0.03688 0.31479 0.9125 0.0
H2977 H 0.01793 0.31729 0.8931 0.0
H2978 H 0.05479 0.30361 0.89373 0.0
H2979 H 0.03801 0.25526 0.87916 0.0
H2980 H 1.00179 0.27016 0.8782 0.0
H2981 H 1.00783 0.23512 0.88773 0.0
H2982 H 0.97805 0.23903 0.9493 0.0
H2983 H 0.92895 0.25752 0.94218 0.0
H2984 H 0.96333 0.29499 0.89711 0.0
C2985 C 0.07061 0.24529 0.91049 0.0
C2986 C 0.08488 0.22683 0.92201 0.0
C2987 C 0.07015 0.21937 0.93679 0.0
C2988 C 0.04166 0.22932 0.9399 0.0
C2989 C 0.02797 0.24669 0.92806 0.0
C2990 C 0.04203 0.25487 0.91371 0.0
C2991 C 0.02187 0.27261 0.90267 0.0
C2992 C 0.03357 0.30394 0.90037 0.0
C2993 C 0.01714 0.25737 0.88596 0.0
C2994 C 0.99404 0.27236 0.91284 0.0
C2995 C 0.99802 0.25711 0.9274 0.0
C2996 C 0.97487 0.25155 0.93812 0.0
C2997 C 0.94703 0.26193 0.93393 0.0
C2998 C 0.94244 0.27792 0.91921 0.0
C2999 C 0.96639 0.28341 0.90862 0.0
H3000 H 0.01916 0.82634 0.65636 0.0
H3001 H 0.96044 0.82752 0.69837 0.0
H3002 H 0.97429 0.77646 0.70484 0.0
H3003 H 1.00439 0.75371 0.64385 0.0
H3004 H 0.04134 0.74579 0.63768 0.0
H3005 H 0.02811 0.78287 0.63703 0.0
H3006 H 0.07109 0.7993 0.65572 0.0
H3007 H 0.0842 0.76212 0.6564 0.0
H3008 H 0.07656 0.78144 0.67529 0.0
H3009 H 0.99249 0.72416 0.70578 0.0
H3010 H 0.01489 0.67551 0.70178 0.0
H3011 H 0.06196 0.70847 0.65919 0.0
C3012 C 0.00973 0.81628 0.6672 0.0
C3013 C 0.98877 0.83129 0.67695 0.0
C3014 C 0.97644 0.81664 0.6907 0.0
C3015 C 0.98424 0.78761 0.69449 0.0
C3016 C 1.0045 0.77338 0.68444 0.0
C3017 C 0.01726 0.78731 0.67113 0.0
C3018 C 0.03761 0.76674 0.6619 0.0
C3019 C 0.02722 0.762 0.64407 0.0
C3020 C 0.06923 0.77809 0.66236 0.0
C3021 C 0.0342 0.73901 0.67205 0.0
C3022 C 0.01498 0.74331 0.68498 0.0
C3023 C 1.00768 0.72065 0.69575 0.0
C3024 C 0.02038 0.69297 0.6933 0.0
C3025 C 0.04028 0.688 0.68019 0.0
C3026 C 0.04722 0.71153 0.66948 0.0
H3027 H 0.04867 0.31965 0.44277 0.0
H3028 H 0.08728 0.24107 0.46299 0.0
H3029 H 0.03785 0.2197 0.46663 0.0
H3030 H 0.97888 0.32141 0.46509 0.0
H3031 H 0.95916 0.33185 0.4468 0.0
H3032 H 0.99673 0.34264 0.44928 0.0
H3033 H 0.00963 0.31727 0.42111 0.0
H3034 H 0.97172 0.3074 0.41892 0.0
H3035 H 0.99949 0.27956 0.41813 0.0
H3036 H 0.98385 0.20527 0.46534 0.0
H3037 H 0.93274 0.19737 0.45749 0.0
H3038 H 0.93082 0.2844 0.43564 0.0
C3039 C 0.04684 0.29833 0.44838 0.0
C3040 C 0.072 0.28225 0.4528 0.0
C3041 C 0.06834 0.25396 0.45973 0.0
C3042 C 0.04032 0.24169 0.46182 0.0
C3043 C 0.01606 0.25777 0.45669 0.0
C3044 C 0.01918 0.28543 0.44998 0.0
C3045 C 0.99054 0.29636 0.44298 0.0
C3046 C 0.98075 0.32475 0.45155 0.0
C3047 C 0.99298 0.30042 0.42418 0.0
C3048 C 0.97052 0.27094 0.44714 0.0
C3049 C 0.98554 0.24891 0.45511 0.0
C3050 C 0.97193 0.22252 0.45917 0.0
C3051 C 0.94262 0.21823 0.45454 0.0
C3052 C 0.92702 0.23995 0.44557 0.0
C3053 C 0.94133 0.26702 0.4424 0.0
H3054 H 0.45745 0.31821 0.16603 0.0
H3055 H 0.52463 0.35574 0.19721 0.0
H3056 H 0.55214 0.30956 0.19592 0.0
H3057 H 0.45892 0.24637 0.18315 0.0
H3058 H 0.45361 0.22772 0.16377 0.0
H3059 H 0.44003 0.26437 0.16655 0.0
H3060 H 0.46885 0.2815 0.14081 0.0
H3061 H 0.48251 0.2448 0.13807 0.0
H3062 H 0.50761 0.2751 0.13983 0.0
H3063 H 0.57227 0.25841 0.19192 0.0
H3064 H 0.58213 0.2062 0.18622 0.0
H3065 H 0.50261 0.20127 0.15732 0.0
C3066 C 0.4781 0.31684 0.17239 0.0
C3067 C 0.48857 0.34086 0.18181 0.0
C3068 C 0.51565 0.33777 0.19014 0.0
C3069 C 0.53168 0.31157 0.18937 0.0
C3070 C 0.52064 0.28831 0.18014 0.0
C3071 C 0.49449 0.29066 0.17176 0.0
C3072 C 0.4872 0.26194 0.16315 0.0
C3073 C 0.45822 0.24932 0.16955 0.0
C3074 C 0.4865 0.26609 0.14435 0.0
C3075 C 0.5129 0.24299 0.16832 0.0
C3076 C 0.53214 0.25876 0.17795 0.0
C3077 C 0.55734 0.2459 0.18434 0.0
C3078 C 0.56285 0.21612 0.18098 0.0
C3079 C 0.54318 0.19919 0.1714 0.0
C3080 C 0.51801 0.21319 0.16489 0.0
H3081 H 0.5863 0.79311 0.92215 0.0
H3082 H 0.61076 0.75929 0.87428 0.0
H3083 H 0.56132 0.73751 0.87107 0.0
H3084 H 0.53987 0.73347 0.93533 0.0
H3085 H 0.51328 0.7571 0.94489 0.0
H3086 H 0.55086 0.76851 0.94356 0.0
H3087 H 0.53513 0.81619 0.92848 0.0
H3088 H 0.49754 0.80481 0.92994 0.0
H3089 H 0.51313 0.81353 0.91015 0.0
H3090 H 0.50885 0.71916 0.87346 0.0
H3091 H 0.45755 0.70787 0.88037 0.0
H3092 H 0.4667 0.75572 0.92633 0.0
C3093 C 0.58124 0.78073 0.91112 0.0
C3094 C 0.60239 0.77723 0.89858 0.0
C3095 C 0.59487 0.76178 0.88407 0.0
C3096 C 0.56692 0.74934 0.8822 0.0
C3097 C 0.54651 0.75309 0.89483 0.0
C3098 C 0.55325 0.76876 0.90893 0.0
C3099 C 0.52695 0.77112 0.92024 0.0
C3100 C 0.53312 0.75668 0.93699 0.0
C3101 C 0.51765 0.80331 0.92232 0.0
C3102 C 0.50445 0.75389 0.91049 0.0
C3103 C 0.51614 0.74368 0.89587 0.0
C3104 C 0.49954 0.72708 0.88489 0.0
C3105 C 0.47037 0.72062 0.88898 0.0
C3106 C 0.45781 0.73081 0.90392 0.0
C3107 C 0.4753 0.7478 0.91473 0.0
H3108 H 0.96068 0.22286 0.79512 0.0
H3109 H 0.02588 0.19419 0.75958 0.0
H3110 H 0.04605 0.24372 0.7587 0.0
H3111 H 0.9506 0.29638 0.77791 0.0
H3112 H 0.94641 0.31292 0.79797 0.0
H3113 H 0.93616 0.27515 0.79477 0.0
H3114 H 0.96985 0.26043 0.81886 0.0
H3115 H 0.98118 0.29794 0.82162 0.0
H3116 H 1.00799 0.26987 0.81793 0.0
H3117 H 0.06024 0.29608 0.76156 0.0
H3118 H 0.06942 0.34727 0.7695 0.0
H3119 H 0.99756 0.34287 0.80442 0.0
C3120 C 0.9792 0.22679 0.78714 0.0
C3121 C 0.99123 0.20398 0.7773 0.0
C3122 C 0.01554 0.21076 0.76706 0.0
C3123 C 0.02741 0.23907 0.76649 0.0
C3124 C 0.01504 0.2608 0.77626 0.0
C3125 C 0.99161 0.25509 0.78648 0.0
C3126 C 0.98316 0.2825 0.79606 0.0
C3127 C 0.95224 0.29237 0.79139 0.0
C3128 C 0.9857 0.27738 0.81473 0.0
C3129 C 1.00604 0.30418 0.78991 0.0
C3130 C 0.02385 0.29118 0.77829 0.0
C3131 C 0.04655 0.30647 0.77073 0.0
C3132 C 0.05168 0.33562 0.77541 0.0
C3133 C 0.03454 0.3494 0.78774 0.0
C3134 C 0.01103 0.33338 0.79486 0.0
H3135 H 0.56268 0.20759 0.55936 0.0
H3136 H 0.60368 0.27602 0.5302 0.0
H3137 H 0.55601 0.30011 0.52679 0.0
H3138 H 0.4942 0.20501 0.53552 0.0
H3139 H 0.47221 0.19835 0.55358 0.0
H3140 H 0.50956 0.18597 0.55289 0.0
H3141 H 0.51968 0.21454 0.57991 0.0
H3142 H 0.48258 0.22729 0.58035 0.0
H3143 H 0.51226 0.25331 0.58079 0.0
H3144 H 0.50426 0.31707 0.52641 0.0
H3145 H 0.45221 0.32743 0.53025 0.0
H3146 H 0.44371 0.24932 0.56056 0.0
C3147 C 0.56158 0.22744 0.55209 0.0
C3148 C 0.58717 0.23988 0.54506 0.0
C3149 C 0.58465 0.26617 0.53587 0.0
C3150 C 0.55756 0.27996 0.53376 0.0
C3151 C 0.53292 0.2673 0.54091 0.0
C3152 C 0.53458 0.24167 0.54992 0.0
C3153 C 0.50466 0.23322 0.5566 0.0
C3154 C 0.49455 0.20389 0.54921 0.0
C3155 C 0.50481 0.23206 0.57554 0.0
C3156 C 0.48615 0.25848 0.55025 0.0
C3157 C 0.50292 0.27756 0.54102 0.0
C3158 C 0.49094 0.30236 0.5337 0.0
C3159 C 0.46118 0.30816 0.53608 0.0
C3160 C 0.4434 0.28956 0.54592 0.0
C3161 C 0.45627 0.26407 0.5529 0.0
H3162 H 0.52709 0.81634 0.29151 0.0
H3163 H 0.53756 0.83258 0.34376 0.0
H3164 H 0.51691 0.78343 0.34988 0.0
H3165 H 0.4601 0.77639 0.29333 0.0
H3166 H 0.47004 0.75046 0.27753 0.0
H3167 H 0.4855 0.78678 0.27737 0.0
H3168 H 0.53756 0.76475 0.27737 0.0
H3169 H 0.52227 0.72834 0.27747 0.0
H3170 H 0.54772 0.73917 0.29328 0.0
H3171 H 0.49135 0.73359 0.35012 0.0
H3172 H 0.46875 0.68515 0.34451 0.0
H3173 H 0.479 0.69947 0.29207 0.0
C3174 C 0.52504 0.80946 0.30423 0.0
C3175 C 0.5337 0.82834 0.3172 0.0
C3176 C 0.53113 0.81843 0.33367 0.0
C3177 C 0.5193 0.79061 0.33724 0.0
C3178 C 0.51068 0.77263 0.32416 0.0
C3179 C 0.51394 0.78148 0.30796 0.0
C3180 C 0.50387 0.75767 0.29615 0.0
C3181 C 0.47836 0.76848 0.28546 0.0
C3182 C 0.52938 0.74684 0.28544 0.0
C3183 C 0.49395 0.73419 0.30819 0.0
C3184 C 0.49772 0.74339 0.3243 0.0
C3185 C 0.48871 0.72607 0.33756 0.0
C3186 C 0.47578 0.69867 0.33427 0.0
C3187 C 0.47242 0.68847 0.31789 0.0
C3188 C 0.48176 0.70653 0.30471 0.0
H3189 H 0.94824 0.79057 0.02506 0.0
H3190 H 0.92034 0.77632 0.07547 0.0
H3191 H 0.96954 0.75733 0.08236 0.0
H3192 H 0.99325 0.72566 0.0216 0.0
H3193 H 0.02054 0.74355 0.00912 0.0
H3194 H 0.98319 0.75572 0.00836 0.0
H3195 H 0.99979 0.80839 0.01583 0.0
H3196 H 0.03718 0.79638 0.0167 0.0
H3197 H 0.02097 0.81438 0.03424 0.0
H3198 H 0.02328 0.74103 0.08369 0.0
H3199 H 0.0751 0.7282 0.07927 0.0
H3200 H 0.06693 0.75107 0.02762 0.0
C3201 C 0.95239 0.78327 0.03752 0.0
C3202 C 0.93036 0.78514 0.04976 0.0
C3203 C 0.93687 0.77544 0.06594 0.0
C3204 C 0.96477 0.76449 0.06993 0.0
C3205 C 0.98608 0.76329 0.0576 0.0
C3206 C 0.98011 0.77234 0.0417 0.0
C3207 C 1.00671 0.7689 0.03068 0.0
C3208 C 1.00055 0.74716 0.01661 0.0
C3209 C 0.01675 0.79879 0.02397 0.0
C3210 C 0.02869 0.75651 0.0428 0.0
C3211 C 0.01645 0.75348 0.05829 0.0
C3212 C 0.03285 0.74302 0.07154 0.0
C3213 C 0.06231 0.73545 0.06887 0.0
C3214 C 0.07533 0.73801 0.05304 0.0
C3215 C 0.05799 0.7488 0.0399 0.0
loop_
_geom_bond_atom_site_label_1
_geom_bond_atom_site_label_2
_geom_bond_distance
_geom_bond_site_symmetry_2
_ccdc_geom_bond_type
C0 C1 1.351 . S
C0 N3 1.368 . S
C0 H5 0.931 . S
C1 C0 1.351 . S
C1 N2 1.373 . S
C1 H29 0.930 . S
N2 C1 1.373 . S
N2 C4 1.340 . S
N3 C0 1.368 . S
N3 C4 1.321 . S
N3 Co6 2.135 . S
C4 N2 1.340 . S
C4 N3 1.321 . S
C4 H28 0.930 . S
H5 C0 0.931 . S
Co6 N3 2.135 . S
Co6 N9 2.121 . S
Co6 O14 2.055 . S
Co6 O17 2.039 . S
Co6 N20 2.140 . S
C7 O8 1.227 . S
C7 O17 1.265 . S
O8 C7 1.227 . S
N9 Co6 2.121 . S
N9 C11 1.375 . S
N9 C12 1.313 . S
C10 C11 1.338 . S
C10 N13 1.377 . S
C10 H30 0.930 . S
C11 N9 1.375 . S
C11 C10 1.338 . S
C11 H15 0.931 . S
C12 N9 1.313 . S
C12 N13 1.344 . S
C12 H16 0.930 . S
N13 C10 1.377 . S
N13 C12 1.344 . S
O14 Co6 2.055 . S
O14 C18 1.253 . S
H15 C11 0.931 . S
H16 C12 0.930 . S
O17 Co6 2.039 . S
O17 C7 1.265 . S
C18 O14 1.253 . S
C18 O19 1.227 . S
O19 C18 1.227 . S
N20 Co6 2.140 . S
N20 C23 1.346 . S
N20 C24 1.345 . S
C21 C22 1.387 . S
C21 C25 1.391 . S
C22 C21 1.387 . S
C22 C23 1.369 . S
C22 H31 0.929 . S
C23 N20 1.346 . S
C23 C22 1.369 . S
C23 H26 0.928 . S
C24 N20 1.345 . S
C24 C25 1.371 . S
C24 H27 0.931 . S
C25 C21 1.391 . S
C25 C24 1.371 . S
C25 H32 0.930 . S
H26 C23 0.928 . S
H27 C24 0.931 . S
H28 C4 0.930 . S
H29 C1 0.930 . S
H30 C10 0.930 . S
H31 C22 0.929 . S
H32 C25 0.930 . S
C33 C34 1.351 . S
C33 N36 1.368 . S
C33 H38 0.931 . S
C34 C33 1.351 . S
C34 N35 1.373 . S
C34 H62 0.930 . S
N35 C34 1.373 . S
N35 C37 1.340 . S
N36 C33 1.368 . S
N36 C37 1.321 . S
N36 Co39 2.135 . S
C37 N35 1.340 . S
C37 N36 1.321 . S
C37 H61 0.930 . S
H38 C33 0.931 . S
Co39 N36 2.135 . S
Co39 N42 2.121 . S
Co39 O47 2.055 . S
Co39 O50 2.039 . S
Co39 N53 2.140 . S
C40 O41 1.227 . S
C40 O50 1.265 . S
O41 C40 1.227 . S
N42 Co39 2.121 . S
N42 C44 1.375 . S
N42 C45 1.313 . S
C43 C44 1.338 . S
C43 N46 1.377 . S
C43 H63 0.930 . S
C44 N42 1.375 . S
C44 C43 1.338 . S
C44 H48 0.931 . S
C45 N42 1.313 . S
C45 N46 1.344 . S
C45 H49 0.930 . S
N46 C43 1.377 . S
N46 C45 1.344 . S
O47 Co39 2.055 . S
O47 C51 1.253 . S
H48 C44 0.931 . S
H49 C45 0.930 . S
O50 Co39 2.039 . S
O50 C40 1.265 . S
C51 O47 1.253 . S
C51 O52 1.227 . S
O52 C51 1.227 . S
N53 Co39 2.140 . S
N53 C56 1.346 . S
N53 C57 1.345 . S
C54 C55 1.387 . S
C54 C58 1.391 . S
C55 C54 1.387 . S
C55 C56 1.369 . S
C55 H64 0.929 . S
C56 N53 1.346 . S
C56 C55 1.369 . S
C56 H59 0.928 . S
C57 N53 1.345 . S
C57 C58 1.371 . S
C57 H60 0.931 . S
C58 C54 1.391 . S
C58 C57 1.371 . S
C58 H65 0.930 . S
H59 C56 0.928 . S
H60 C57 0.931 . S
H61 C37 0.930 . S
H62 C34 0.930 . S
H63 C43 0.930 . S
H64 C55 0.929 . S
H65 C58 0.930 . S
C66 C67 1.351 . S
C66 N69 1.368 . S
C66 H71 0.931 . S
C67 C66 1.351 . S
C67 N68 1.373 . S
C67 H95 0.930 . S
N68 C67 1.373 . S
N68 C70 1.340 . S
N69 C66 1.368 . S
N69 C70 1.321 . S
N69 Co72 2.135 . S
C70 N68 1.340 . S
C70 N69 1.321 . S
C70 H94 0.930 . S
H71 C66 0.931 . S
Co72 N69 2.135 . S
Co72 N75 2.121 . S
Co72 O80 2.055 . S
Co72 O83 2.039 . S
Co72 N86 2.140 . S
C73 O74 1.227 . S
C73 O83 1.265 . S
O74 C73 1.227 . S
N75 Co72 2.121 . S
N75 C77 1.375 . S
N75 C78 1.313 . S
C76 C77 1.338 . S
C76 N79 1.377 . S
C76 H96 0.930 . S
C77 N75 1.375 . S
C77 C76 1.338 . S
C77 H81 0.931 . S
C78 N75 1.313 . S
C78 N79 1.344 . S
C78 H82 0.930 . S
N79 C76 1.377 . S
N79 C78 1.344 . S
O80 Co72 2.055 . S
O80 C84 1.253 . S
H81 C77 0.931 . S
H82 C78 0.930 . S
O83 Co72 2.039 . S
O83 C73 1.265 . S
C84 O80 1.253 . S
C84 O85 1.227 . S
O85 C84 1.227 . S
N86 Co72 2.140 . S
N86 C89 1.346 . S
N86 C90 1.345 . S
C87 C88 1.387 . S
C87 C91 1.391 . S
C88 C87 1.387 . S
C88 C89 1.369 . S
C88 H97 0.929 . S
C89 N86 1.346 . S
C89 C88 1.369 . S
C89 H92 0.928 . S
C90 N86 1.345 . S
C90 C91 1.371 . S
C90 H93 0.931 . S
C91 C87 1.391 . S
C91 C90 1.371 . S
C91 H98 0.930 . S
H92 C89 0.928 . S
H93 C90 0.931 . S
H94 C70 0.930 . S
H95 C67 0.930 . S
H96 C76 0.930 . S
H97 C88 0.929 . S
H98 C91 0.930 . S
C99 C100 1.351 . S
C99 N102 1.368 . S
C99 H104 0.931 . S
C100 C99 1.351 . S
C100 N101 1.373 . S
C100 H128 0.930 . S
N101 C100 1.373 . S
N101 C103 1.340 . S
N102 C99 1.368 . S
N102 C103 1.321 . S
N102 Co105 2.135 . S
C103 N101 1.340 . S
C103 N102 1.321 . S
C103 H127 0.930 . S
H104 C99 0.931 . S
Co105 N102 2.135 . S
Co105 N108 2.121 . S
Co105 O113 2.055 . S
Co105 O116 2.039 . S
Co105 N119 2.140 . S
C106 O107 1.227 . S
C106 O116 1.265 . S
O107 C106 1.227 . S
N108 Co105 2.121 . S
N108 C110 1.375 . S
N108 C111 1.313 . S
C109 C110 1.338 . S
C109 N112 1.377 . S
C109 H129 0.930 . S
C110 N108 1.375 . S
C110 C109 1.338 . S
C110 H114 0.931 . S
C111 N108 1.313 . S
C111 N112 1.344 . S
C111 H115 0.930 . S
N112 C109 1.377 . S
N112 C111 1.344 . S
O113 Co105 2.055 . S
O113 C117 1.253 . S
H114 C110 0.931 . S
H115 C111 0.930 . S
O116 Co105 2.039 . S
O116 C106 1.265 . S
C117 O113 1.253 . S
C117 O118 1.227 . S
O118 C117 1.227 . S
N119 Co105 2.140 . S
N119 C122 1.346 . S
N119 C123 1.345 . S
C120 C121 1.387 . S
C120 C124 1.391 . S
C121 C120 1.387 . S
C121 C122 1.369 . S
C121 H130 0.929 . S
C122 N119 1.346 . S
C122 C121 1.369 . S
C122 H125 0.928 . S
C123 N119 1.345 . S
C123 C124 1.371 . S
C123 H126 0.931 . S
C124 C120 1.391 . S
C124 C123 1.371 . S
C124 H131 0.930 . S
H125 C122 0.928 . S
H126 C123 0.931 . S
H127 C103 0.930 . S
H128 C100 0.930 . S
H129 C109 0.930 . S
H130 C121 0.929 . S
H131 C124 0.930 . S
C132 C133 1.351 . S
C132 N135 1.368 . S
C132 H137 0.931 . S
C133 C132 1.351 . S
C133 N134 1.373 . S
C133 H161 0.930 . S
N134 C133 1.373 . S
N134 C136 1.340 . S
N135 C132 1.368 . S
N135 C136 1.321 . S
N135 Co138 2.135 . S
C136 N134 1.340 . S
C136 N135 1.321 . S
C136 H160 0.930 . S
H137 C132 0.931 . S
Co138 N135 2.135 . S
Co138 N141 2.121 . S
Co138 O146 2.055 . S
Co138 O149 2.039 . S
Co138 N152 2.140 . S
C139 O140 1.227 . S
C139 O149 1.265 . S
O140 C139 1.227 . S
N141 Co138 2.121 . S
N141 C143 1.375 . S
N141 C144 1.313 . S
C142 C143 1.338 . S
C142 N145 1.377 . S
C142 H162 0.930 . S
C143 N141 1.375 . S
C143 C142 1.338 . S
C143 H147 0.931 . S
C144 N141 1.313 . S
C144 N145 1.344 . S
C144 H148 0.930 . S
N145 C142 1.377 . S
N145 C144 1.344 . S
O146 Co138 2.055 . S
O146 C150 1.253 . S
H147 C143 0.931 . S
H148 C144 0.930 . S
O149 Co138 2.039 . S
O149 C139 1.265 . S
C150 O146 1.253 . S
C150 O151 1.227 . S
O151 C150 1.227 . S
N152 Co138 2.140 . S
N152 C155 1.346 . S
N152 C156 1.345 . S
C153 C154 1.387 . S
C153 C157 1.391 . S
C154 C153 1.387 . S
C154 C155 1.369 . S
C154 H163 0.929 . S
C155 N152 1.346 . S
C155 C154 1.369 . S
C155 H158 0.928 . S
C156 N152 1.345 . S
C156 C157 1.371 . S
C156 H159 0.931 . S
C157 C153 1.391 . S
C157 C156 1.371 . S
C157 H164 0.930 . S
H158 C155 0.928 . S
H159 C156 0.931 . S
H160 C136 0.930 . S
H161 C133 0.930 . S
H162 C142 0.930 . S
H163 C154 0.929 . S
H164 C157 0.930 . S
C165 C166 1.351 . S
C165 N168 1.368 . S
C165 H170 0.931 . S
C166 C165 1.351 . S
C166 N167 1.373 . S
C166 H194 0.930 . S
N167 C166 1.373 . S
N167 C169 1.340 . S
N168 C165 1.368 . S
N168 C169 1.321 . S
N168 Co171 2.135 . S
C169 N167 1.340 . S
C169 N168 1.321 . S
C169 H193 0.930 . S
H170 C165 0.931 . S
Co171 N168 2.135 . S
Co171 N174 2.121 . S
Co171 O179 2.055 . S
Co171 O182 2.039 . S
Co171 N185 2.140 . S
C172 O173 1.227 . S
C172 O182 1.265 . S
O173 C172 1.227 . S
N174 Co171 2.121 . S
N174 C176 1.375 . S
N174 C177 1.313 . S
C175 C176 1.338 . S
C175 N178 1.377 . S
C175 H195 0.930 . S
C176 N174 1.375 . S
C176 C175 1.338 . S
C176 H180 0.931 . S
C177 N174 1.313 . S
C177 N178 1.344 . S
C177 H181 0.930 . S
N178 C175 1.377 . S
N178 C177 1.344 . S
O179 Co171 2.055 . S
O179 C183 1.253 . S
H180 C176 0.931 . S
H181 C177 0.930 . S
O182 Co171 2.039 . S
O182 C172 1.265 . S
C183 O179 1.253 . S
C183 O184 1.227 . S
O184 C183 1.227 . S
N185 Co171 2.140 . S
N185 C188 1.346 . S
N185 C189 1.345 . S
C186 C187 1.387 . S
C186 C190 1.391 . S
C187 C186 1.387 . S
C187 C188 1.369 . S
C187 H196 0.929 . S
C188 N185 1.346 . S
C188 C187 1.369 . S
C188 H191 0.928 . S
C189 N185 1.345 . S
C189 C190 1.371 . S
C189 H192 0.931 . S
C190 C186 1.391 . S
C190 C189 1.371 . S
C190 H197 0.930 . S
H191 C188 0.928 . S
H192 C189 0.931 . S
H193 C169 0.930 . S
H194 C166 0.930 . S
H195 C175 0.930 . S
H196 C187 0.929 . S
H197 C190 0.930 . S
C198 C199 1.351 . S
C198 N201 1.368 . S
C198 H203 0.931 . S
C199 C198 1.351 . S
C199 N200 1.373 . S
C199 H227 0.930 . S
N200 C199 1.373 . S
N200 C202 1.340 . S
N201 C198 1.368 . S
N201 C202 1.321 . S
N201 Co204 2.135 . S
C202 N200 1.340 . S
C202 N201 1.321 . S
C202 H226 0.930 . S
H203 C198 0.931 . S
Co204 N201 2.135 . S
Co204 N207 2.121 . S
Co204 O212 2.055 . S
Co204 O215 2.039 . S
Co204 N218 2.140 . S
C205 O206 1.227 . S
C205 O215 1.265 . S
O206 C205 1.227 . S
N207 Co204 2.121 . S
N207 C209 1.375 . S
N207 C210 1.313 . S
C208 C209 1.338 . S
C208 N211 1.377 . S
C208 H228 0.930 . S
C209 N207 1.375 . S
C209 C208 1.338 . S
C209 H213 0.931 . S
C210 N207 1.313 . S
C210 N211 1.344 . S
C210 H214 0.930 . S
N211 C208 1.377 . S
N211 C210 1.344 . S
O212 Co204 2.055 . S
O212 C216 1.253 . S
H213 C209 0.931 . S
H214 C210 0.930 . S
O215 Co204 2.039 . S
O215 C205 1.265 . S
C216 O212 1.253 . S
C216 O217 1.227 . S
O217 C216 1.227 . S
N218 Co204 2.140 . S
N218 C221 1.346 . S
N218 C222 1.345 . S
C219 C220 1.387 . S
C219 C223 1.391 . S
C220 C219 1.387 . S
C220 C221 1.369 . S
C220 H229 0.929 . S
C221 N218 1.346 . S
C221 C220 1.369 . S
C221 H224 0.928 . S
C222 N218 1.345 . S
C222 C223 1.371 . S
C222 H225 0.931 . S
C223 C219 1.391 . S
C223 C222 1.371 . S
C223 H230 0.930 . S
H224 C221 0.928 . S
H225 C222 0.931 . S
H226 C202 0.930 . S
H227 C199 0.930 . S
H228 C208 0.930 . S
H229 C220 0.929 . S
H230 C223 0.930 . S
C231 C232 1.351 . S
C231 N234 1.368 . S
C231 H236 0.931 . S
C232 C231 1.351 . S
C232 N233 1.373 . S
C232 H260 0.930 . S
N233 C232 1.373 . S
N233 C235 1.340 . S
N234 C231 1.368 . S
N234 C235 1.321 . S
N234 Co237 2.135 . S
C235 N233 1.340 . S
C235 N234 1.321 . S
C235 H259 0.930 . S
H236 C231 0.931 . S
Co237 N234 2.135 . S
Co237 N240 2.121 . S
Co237 O245 2.055 . S
Co237 O248 2.039 . S
Co237 N251 2.140 . S
C238 O239 1.227 . S
C238 O248 1.265 . S
O239 C238 1.227 . S
N240 Co237 2.121 . S
N240 C242 1.375 . S
N240 C243 1.313 . S
C241 C242 1.338 . S
C241 N244 1.377 . S
C241 H261 0.930 . S
C242 N240 1.375 . S
C242 C241 1.338 . S
C242 H246 0.931 . S
C243 N240 1.313 . S
C243 N244 1.344 . S
C243 H247 0.930 . S
N244 C241 1.377 . S
N244 C243 1.344 . S
O245 Co237 2.055 . S
O245 C249 1.253 . S
H246 C242 0.931 . S
H247 C243 0.930 . S
O248 Co237 2.039 . S
O248 C238 1.265 . S
C249 O245 1.253 . S
C249 O250 1.227 . S
O250 C249 1.227 . S
N251 Co237 2.140 . S
N251 C254 1.346 . S
N251 C255 1.345 . S
C252 C253 1.387 . S
C252 C256 1.391 . S
C253 C252 1.387 . S
C253 C254 1.369 . S
C253 H262 0.929 . S
C254 N251 1.346 . S
C254 C253 1.369 . S
C254 H257 0.928 . S
C255 N251 1.345 . S
C255 C256 1.371 . S
C255 H258 0.931 . S
C256 C252 1.391 . S
C256 C255 1.371 . S
C256 H263 0.930 . S
H257 C254 0.928 . S
H258 C255 0.931 . S
H259 C235 0.930 . S
H260 C232 0.930 . S
H261 C241 0.930 . S
H262 C253 0.929 . S
H263 C256 0.930 . S
C264 C265 1.351 . S
C264 N267 1.368 . S
C264 H269 0.931 . S
C265 C264 1.351 . S
C265 N266 1.373 . S
C265 H293 0.930 . S
N266 C265 1.373 . S
N266 C268 1.340 . S
N267 C264 1.368 . S
N267 C268 1.321 . S
N267 Co270 2.135 . S
C268 N266 1.340 . S
C268 N267 1.321 . S
C268 H292 0.930 . S
H269 C264 0.931 . S
Co270 N267 2.135 . S
Co270 N273 2.121 . S
Co270 O278 2.055 . S
Co270 O281 2.039 . S
Co270 N284 2.140 . S
C271 O272 1.227 . S
C271 O281 1.265 . S
O272 C271 1.227 . S
N273 Co270 2.121 . S
N273 C275 1.375 . S
N273 C276 1.313 . S
C274 C275 1.338 . S
C274 N277 1.377 . S
C274 H294 0.930 . S
C275 N273 1.375 . S
C275 C274 1.338 . S
C275 H279 0.931 . S
C276 N273 1.313 . S
C276 N277 1.344 . S
C276 H280 0.930 . S
N277 C274 1.377 . S
N277 C276 1.344 . S
O278 Co270 2.055 . S
O278 C282 1.253 . S
H279 C275 0.931 . S
H280 C276 0.930 . S
O281 Co270 2.039 . S
O281 C271 1.265 . S
C282 O278 1.253 . S
C282 O283 1.227 . S
O283 C282 1.227 . S
N284 Co270 2.140 . S
N284 C287 1.346 . S
N284 C288 1.345 . S
C285 C286 1.387 . S
C285 C289 1.391 . S
C286 C285 1.387 . S
C286 C287 1.369 . S
C286 H295 0.929 . S
C287 N284 1.346 . S
C287 C286 1.369 . S
C287 H290 0.928 . S
C288 N284 1.345 . S
C288 C289 1.371 . S
C288 H291 0.931 . S
C289 C285 1.391 . S
C289 C288 1.371 . S
C289 H296 0.930 . S
H290 C287 0.928 . S
H291 C288 0.931 . S
H292 C268 0.930 . S
H293 C265 0.930 . S
H294 C274 0.930 . S
H295 C286 0.929 . S
H296 C289 0.930 . S
C297 C298 1.351 . S
C297 N300 1.368 . S
C297 H302 0.931 . S
C298 C297 1.351 . S
C298 N299 1.373 . S
C298 H326 0.930 . S
N299 C298 1.373 . S
N299 C301 1.340 . S
N300 C297 1.368 . S
N300 C301 1.321 . S
N300 Co303 2.135 . S
C301 N299 1.340 . S
C301 N300 1.321 . S
C301 H325 0.930 . S
H302 C297 0.931 . S
Co303 N300 2.135 . S
Co303 N306 2.121 . S
Co303 O311 2.055 . S
Co303 O314 2.039 . S
Co303 N317 2.140 . S
C304 O305 1.227 . S
C304 O314 1.265 . S
O305 C304 1.227 . S
N306 Co303 2.121 . S
N306 C308 1.375 . S
N306 C309 1.313 . S
C307 C308 1.338 . S
C307 N310 1.377 . S
C307 H327 0.930 . S
C308 N306 1.375 . S
C308 C307 1.338 . S
C308 H312 0.931 . S
C309 N306 1.313 . S
C309 N310 1.344 . S
C309 H313 0.930 . S
N310 C307 1.377 . S
N310 C309 1.344 . S
O311 Co303 2.055 . S
O311 C315 1.253 . S
H312 C308 0.931 . S
H313 C309 0.930 . S
O314 Co303 2.039 . S
O314 C304 1.265 . S
C315 O311 1.253 . S
C315 O316 1.227 . S
O316 C315 1.227 . S
N317 Co303 2.140 . S
N317 C320 1.346 . S
N317 C321 1.345 . S
C318 C319 1.387 . S
C318 C322 1.391 . S
C319 C318 1.387 . S
C319 C320 1.369 . S
C319 H328 0.929 . S
C320 N317 1.346 . S
C320 C319 1.369 . S
C320 H323 0.928 . S
C321 N317 1.345 . S
C321 C322 1.371 . S
C321 H324 0.931 . S
C322 C318 1.391 . S
C322 C321 1.371 . S
C322 H329 0.930 . S
H323 C320 0.928 . S
H324 C321 0.931 . S
H325 C301 0.930 . S
H326 C298 0.930 . S
H327 C307 0.930 . S
H328 C319 0.929 . S
H329 C322 0.930 . S
C330 C331 1.351 . S
C330 N333 1.368 . S
C330 H335 0.931 . S
C331 C330 1.351 . S
C331 N332 1.373 . S
C331 H359 0.930 . S
N332 C331 1.373 . S
N332 C334 1.340 . S
N333 C330 1.368 . S
N333 C334 1.321 . S
N333 Co336 2.135 . S
C334 N332 1.340 . S
C334 N333 1.321 . S
C334 H358 0.930 . S
H335 C330 0.931 . S
Co336 N333 2.135 . S
Co336 N339 2.121 . S
Co336 O344 2.055 . S
Co336 O347 2.039 . S
Co336 N350 2.140 . S
C337 O338 1.227 . S
C337 O347 1.265 . S
O338 C337 1.227 . S
N339 Co336 2.121 . S
N339 C341 1.375 . S
N339 C342 1.313 . S
C340 C341 1.338 . S
C340 N343 1.377 . S
C340 H360 0.930 . S
C341 N339 1.375 . S
C341 C340 1.338 . S
C341 H345 0.931 . S
C342 N339 1.313 . S
C342 N343 1.344 . S
C342 H346 0.930 . S
N343 C340 1.377 . S
N343 C342 1.344 . S
O344 Co336 2.055 . S
O344 C348 1.253 . S
H345 C341 0.931 . S
H346 C342 0.930 . S
O347 Co336 2.039 . S
O347 C337 1.265 . S
C348 O344 1.253 . S
C348 O349 1.227 . S
O349 C348 1.227 . S
N350 Co336 2.140 . S
N350 C353 1.346 . S
N350 C354 1.345 . S
C351 C352 1.387 . S
C351 C355 1.391 . S
C352 C351 1.387 . S
C352 C353 1.369 . S
C352 H361 0.929 . S
C353 N350 1.346 . S
C353 C352 1.369 . S
C353 H356 0.928 . S
C354 N350 1.345 . S
C354 C355 1.371 . S
C354 H357 0.931 . S
C355 C351 1.391 . S
C355 C354 1.371 . S
C355 H362 0.930 . S
H356 C353 0.928 . S
H357 C354 0.931 . S
H358 C334 0.930 . S
H359 C331 0.930 . S
H360 C340 0.930 . S
H361 C352 0.929 . S
H362 C355 0.930 . S
C363 C364 1.351 . S
C363 N366 1.368 . S
C363 H368 0.931 . S
C364 C363 1.351 . S
C364 N365 1.373 . S
C364 H392 0.930 . S
N365 C364 1.373 . S
N365 C367 1.340 . S
N366 C363 1.368 . S
N366 C367 1.321 . S
N366 Co369 2.135 . S
C367 N365 1.340 . S
C367 N366 1.321 . S
C367 H391 0.930 . S
H368 C363 0.931 . S
Co369 N366 2.135 . S
Co369 N372 2.121 . S
Co369 O377 2.055 . S
Co369 O380 2.039 . S
Co369 N383 2.140 . S
C370 O371 1.227 . S
C370 O380 1.265 . S
O371 C370 1.227 . S
N372 Co369 2.121 . S
N372 C374 1.375 . S
N372 C375 1.313 . S
C373 C374 1.338 . S
C373 N376 1.377 . S
C373 H393 0.930 . S
C374 N372 1.375 . S
C374 C373 1.338 . S
C374 H378 0.931 . S
C375 N372 1.313 . S
C375 N376 1.344 . S
C375 H379 0.930 . S
N376 C373 1.377 . S
N376 C375 1.344 . S
O377 Co369 2.055 . S
O377 C381 1.253 . S
H378 C374 0.931 . S
H379 C375 0.930 . S
O380 Co369 2.039 . S
O380 C370 1.265 . S
C381 O377 1.253 . S
C381 O382 1.227 . S
O382 C381 1.227 . S
N383 Co369 2.140 . S
N383 C386 1.346 . S
N383 C387 1.345 . S
C384 C385 1.387 . S
C384 C388 1.391 . S
C385 C384 1.387 . S
C385 C386 1.369 . S
C385 H394 0.929 . S
C386 N383 1.346 . S
C386 C385 1.369 . S
C386 H389 0.928 . S
C387 N383 1.345 . S
C387 C388 1.371 . S
C387 H390 0.931 . S
C388 C384 1.391 . S
C388 C387 1.371 . S
C388 H395 0.930 . S
H389 C386 0.928 . S
H390 C387 0.931 . S
H391 C367 0.930 . S
H392 C364 0.930 . S
H393 C373 0.930 . S
H394 C385 0.929 . S
H395 C388 0.930 . S
C396 C397 1.351 . S
C396 N399 1.368 . S
C396 H401 0.931 . S
C397 C396 1.351 . S
C397 N398 1.373 . S
C397 H425 0.930 . S
N398 C397 1.373 . S
N398 C400 1.340 . S
N399 C396 1.368 . S
N399 C400 1.321 . S
N399 Co402 2.135 . S
C400 N398 1.340 . S
C400 N399 1.321 . S
C400 H424 0.930 . S
H401 C396 0.931 . S
Co402 N399 2.135 . S
Co402 N405 2.121 . S
Co402 O410 2.055 . S
Co402 O413 2.039 . S
Co402 N416 2.140 . S
C403 O404 1.227 . S
C403 O413 1.265 . S
O404 C403 1.227 . S
N405 Co402 2.121 . S
N405 C407 1.375 . S
N405 C408 1.313 . S
C406 C407 1.338 . S
C406 N409 1.377 . S
C406 H426 0.930 . S
C407 N405 1.375 . S
C407 C406 1.338 . S
C407 H411 0.931 . S
C408 N405 1.313 . S
C408 N409 1.344 . S
C408 H412 0.930 . S
N409 C406 1.377 . S
N409 C408 1.344 . S
O410 Co402 2.055 . S
O410 C414 1.253 . S
H411 C407 0.931 . S
H412 C408 0.930 . S
O413 Co402 2.039 . S
O413 C403 1.265 . S
C414 O410 1.253 . S
C414 O415 1.227 . S
O415 C414 1.227 . S
N416 Co402 2.140 . S
N416 C419 1.346 . S
N416 C420 1.345 . S
C417 C418 1.387 . S
C417 C421 1.391 . S
C418 C417 1.387 . S
C418 C419 1.369 . S
C418 H427 0.929 . S
C419 N416 1.346 . S
C419 C418 1.369 . S
C419 H422 0.928 . S
C420 N416 1.345 . S
C420 C421 1.371 . S
C420 H423 0.931 . S
C421 C417 1.391 . S
C421 C420 1.371 . S
C421 H428 0.930 . S
H422 C419 0.928 . S
H423 C420 0.931 . S
H424 C400 0.930 . S
H425 C397 0.930 . S
H426 C406 0.930 . S
H427 C418 0.929 . S
H428 C421 0.930 . S
C429 C430 1.351 . S
C429 N432 1.368 . S
C429 H434 0.931 . S
C430 C429 1.351 . S
C430 N431 1.373 . S
C430 H458 0.930 . S
N431 C430 1.373 . S
N431 C433 1.340 . S
N432 C429 1.368 . S
N432 C433 1.321 . S
N432 Co435 2.135 . S
C433 N431 1.340 . S
C433 N432 1.321 . S
C433 H457 0.930 . S
H434 C429 0.931 . S
Co435 N432 2.135 . S
Co435 N438 2.121 . S
Co435 O443 2.055 . S
Co435 O446 2.039 . S
Co435 N449 2.140 . S
C436 O437 1.227 . S
C436 O446 1.265 . S
O437 C436 1.227 . S
N438 Co435 2.121 . S
N438 C440 1.375 . S
N438 C441 1.313 . S
C439 C440 1.338 . S
C439 N442 1.377 . S
C439 H459 0.930 . S
C440 N438 1.375 . S
C440 C439 1.338 . S
C440 H444 0.931 . S
C441 N438 1.313 . S
C441 N442 1.344 . S
C441 H445 0.930 . S
N442 C439 1.377 . S
N442 C441 1.344 . S
O443 Co435 2.055 . S
O443 C447 1.253 . S
H444 C440 0.931 . S
H445 C441 0.930 . S
O446 Co435 2.039 . S
O446 C436 1.265 . S
C447 O443 1.253 . S
C447 O448 1.227 . S
O448 C447 1.227 . S
N449 Co435 2.140 . S
N449 C452 1.346 . S
N449 C453 1.345 . S
C450 C451 1.387 . S
C450 C454 1.391 . S
C451 C450 1.387 . S
C451 C452 1.369 . S
C451 H460 0.929 . S
C452 N449 1.346 . S
C452 C451 1.369 . S
C452 H455 0.928 . S
C453 N449 1.345 . S
C453 C454 1.371 . S
C453 H456 0.931 . S
C454 C450 1.391 . S
C454 C453 1.371 . S
C454 H461 0.930 . S
H455 C452 0.928 . S
H456 C453 0.931 . S
H457 C433 0.930 . S
H458 C430 0.930 . S
H459 C439 0.930 . S
H460 C451 0.929 . S
H461 C454 0.930 . S
C462 C463 1.351 . S
C462 N465 1.368 . S
C462 H467 0.931 . S
C463 C462 1.351 . S
C463 N464 1.373 . S
C463 H491 0.930 . S
N464 C463 1.373 . S
N464 C466 1.340 . S
N465 C462 1.368 . S
N465 C466 1.321 . S
N465 Co468 2.135 . S
C466 N464 1.340 . S
C466 N465 1.321 . S
C466 H490 0.930 . S
H467 C462 0.931 . S
Co468 N465 2.135 . S
Co468 N471 2.121 . S
Co468 O476 2.055 . S
Co468 O479 2.039 . S
Co468 N482 2.140 . S
C469 O470 1.227 . S
C469 O479 1.265 . S
O470 C469 1.227 . S
N471 Co468 2.121 . S
N471 C473 1.375 . S
N471 C474 1.313 . S
C472 C473 1.338 . S
C472 N475 1.377 . S
C472 H492 0.930 . S
C473 N471 1.375 . S
C473 C472 1.338 . S
C473 H477 0.931 . S
C474 N471 1.313 . S
C474 N475 1.344 . S
C474 H478 0.930 . S
N475 C472 1.377 . S
N475 C474 1.344 . S
O476 Co468 2.055 . S
O476 C480 1.253 . S
H477 C473 0.931 . S
H478 C474 0.930 . S
O479 Co468 2.039 . S
O479 C469 1.265 . S
C480 O476 1.253 . S
C480 O481 1.227 . S
O481 C480 1.227 . S
N482 Co468 2.140 . S
N482 C485 1.346 . S
N482 C486 1.345 . S
C483 C484 1.387 . S
C483 C487 1.391 . S
C484 C483 1.387 . S
C484 C485 1.369 . S
C484 H493 0.929 . S
C485 N482 1.346 . S
C485 C484 1.369 . S
C485 H488 0.928 . S
C486 N482 1.345 . S
C486 C487 1.371 . S
C486 H489 0.931 . S
C487 C483 1.391 . S
C487 C486 1.371 . S
C487 H494 0.930 . S
H488 C485 0.928 . S
H489 C486 0.931 . S
H490 C466 0.930 . S
H491 C463 0.930 . S
H492 C472 0.930 . S
H493 C484 0.929 . S
H494 C487 0.930 . S
C495 C496 1.351 . S
C495 N498 1.368 . S
C495 H500 0.931 . S
C496 C495 1.351 . S
C496 N497 1.373 . S
C496 H524 0.930 . S
N497 C496 1.373 . S
N497 C499 1.340 . S
N498 C495 1.368 . S
N498 C499 1.321 . S
N498 Co501 2.135 . S
C499 N497 1.340 . S
C499 N498 1.321 . S
C499 H523 0.930 . S
H500 C495 0.931 . S
Co501 N498 2.135 . S
Co501 N504 2.121 . S
Co501 O509 2.055 . S
Co501 O512 2.039 . S
Co501 N515 2.140 . S
C502 O503 1.227 . S
C502 O512 1.265 . S
O503 C502 1.227 . S
N504 Co501 2.121 . S
N504 C506 1.375 . S
N504 C507 1.313 . S
C505 C506 1.338 . S
C505 N508 1.377 . S
C505 H525 0.930 . S
C506 N504 1.375 . S
C506 C505 1.338 . S
C506 H510 0.931 . S
C507 N504 1.313 . S
C507 N508 1.344 . S
C507 H511 0.930 . S
N508 C505 1.377 . S
N508 C507 1.344 . S
O509 Co501 2.055 . S
O509 C513 1.253 . S
H510 C506 0.931 . S
H511 C507 0.930 . S
O512 Co501 2.039 . S
O512 C502 1.265 . S
C513 O509 1.253 . S
C513 O514 1.227 . S
O514 C513 1.227 . S
N515 Co501 2.140 . S
N515 C518 1.346 . S
N515 C519 1.345 . S
C516 C517 1.387 . S
C516 C520 1.391 . S
C517 C516 1.387 . S
C517 C518 1.369 . S
C517 H526 0.929 . S
C518 N515 1.346 . S
C518 C517 1.369 . S
C518 H521 0.928 . S
C519 N515 1.345 . S
C519 C520 1.371 . S
C519 H522 0.931 . S
C520 C516 1.391 . S
C520 C519 1.371 . S
C520 H527 0.930 . S
H521 C518 0.928 . S
H522 C519 0.931 . S
H523 C499 0.930 . S
H524 C496 0.930 . S
H525 C505 0.930 . S
H526 C517 0.929 . S
H527 C520 0.930 . S
C528 C529 1.351 . S
C528 N531 1.368 . S
C528 H533 0.931 . S
C529 C528 1.351 . S
C529 N530 1.373 . S
C529 H557 0.930 . S
N530 C529 1.373 . S
N530 C532 1.340 . S
N531 C528 1.368 . S
N531 C532 1.321 . S
N531 Co534 2.135 . S
C532 N530 1.340 . S
C532 N531 1.321 . S
C532 H556 0.930 . S
H533 C528 0.931 . S
Co534 N531 2.135 . S
Co534 N537 2.121 . S
Co534 O542 2.055 . S
Co534 O545 2.039 . S
Co534 N548 2.140 . S
C535 O536 1.227 . S
C535 O545 1.265 . S
O536 C535 1.227 . S
N537 Co534 2.121 . S
N537 C539 1.375 . S
N537 C540 1.313 . S
C538 C539 1.338 . S
C538 N541 1.377 . S
C538 H558 0.930 . S
C539 N537 1.375 . S
C539 C538 1.338 . S
C539 H543 0.931 . S
C540 N537 1.313 . S
C540 N541 1.344 . S
C540 H544 0.930 . S
N541 C538 1.377 . S
N541 C540 1.344 . S
O542 Co534 2.055 . S
O542 C546 1.253 . S
H543 C539 0.931 . S
H544 C540 0.930 . S
O545 Co534 2.039 . S
O545 C535 1.265 . S
C546 O542 1.253 . S
C546 O547 1.227 . S
O547 C546 1.227 . S
N548 Co534 2.140 . S
N548 C551 1.346 . S
N548 C552 1.345 . S
C549 C550 1.387 . S
C549 C553 1.391 . S
C550 C549 1.387 . S
C550 C551 1.369 . S
C550 H559 0.929 . S
C551 N548 1.346 . S
C551 C550 1.369 . S
C551 H554 0.928 . S
C552 N548 1.345 . S
C552 C553 1.371 . S
C552 H555 0.931 . S
C553 C549 1.391 . S
C553 C552 1.371 . S
C553 H560 0.930 . S
H554 C551 0.928 . S
H555 C552 0.931 . S
H556 C532 0.930 . S
H557 C529 0.930 . S
H558 C538 0.930 . S
H559 C550 0.929 . S
H560 C553 0.930 . S
C561 C562 1.351 . S
C561 N564 1.368 . S
C561 H566 0.931 . S
C562 C561 1.351 . S
C562 N563 1.373 . S
C562 H590 0.930 . S
N563 C562 1.373 . S
N563 C565 1.340 . S
N564 C561 1.368 . S
N564 C565 1.321 . S
N564 Co567 2.135 . S
C565 N563 1.340 . S
C565 N564 1.321 . S
C565 H589 0.930 . S
H566 C561 0.931 . S
Co567 N564 2.135 . S
Co567 N570 2.121 . S
Co567 O575 2.055 . S
Co567 O578 2.039 . S
Co567 N581 2.140 . S
C568 O569 1.227 . S
C568 O578 1.265 . S
O569 C568 1.227 . S
N570 Co567 2.121 . S
N570 C572 1.375 . S
N570 C573 1.313 . S
C571 C572 1.338 . S
C571 N574 1.377 . S
C571 H591 0.930 . S
C572 N570 1.375 . S
C572 C571 1.338 . S
C572 H576 0.931 . S
C573 N570 1.313 . S
C573 N574 1.344 . S
C573 H577 0.930 . S
N574 C571 1.377 . S
N574 C573 1.344 . S
O575 Co567 2.055 . S
O575 C579 1.253 . S
H576 C572 0.931 . S
H577 C573 0.930 . S
O578 Co567 2.039 . S
O578 C568 1.265 . S
C579 O575 1.253 . S
C579 O580 1.227 . S
O580 C579 1.227 . S
N581 Co567 2.140 . S
N581 C584 1.346 . S
N581 C585 1.345 . S
C582 C583 1.387 . S
C582 C586 1.391 . S
C583 C582 1.387 . S
C583 C584 1.369 . S
C583 H592 0.929 . S
C584 N581 1.346 . S
C584 C583 1.369 . S
C584 H587 0.928 . S
C585 N581 1.345 . S
C585 C586 1.371 . S
C585 H588 0.931 . S
C586 C582 1.391 . S
C586 C585 1.371 . S
C586 H593 0.930 . S
H587 C584 0.928 . S
H588 C585 0.931 . S
H589 C565 0.930 . S
H590 C562 0.930 . S
H591 C571 0.930 . S
H592 C583 0.929 . S
H593 C586 0.930 . S
C594 C595 1.351 . S
C594 N597 1.368 . S
C594 H599 0.931 . S
C595 C594 1.351 . S
C595 N596 1.373 . S
C595 H623 0.930 . S
N596 C595 1.373 . S
N596 C598 1.340 . S
N597 C594 1.368 . S
N597 C598 1.321 . S
N597 Co600 2.135 . S
C598 N596 1.340 . S
C598 N597 1.321 . S
C598 H622 0.930 . S
H599 C594 0.931 . S
Co600 N597 2.135 . S
Co600 N603 2.121 . S
Co600 O608 2.055 . S
Co600 O611 2.039 . S
Co600 N614 2.140 . S
C601 O602 1.227 . S
C601 O611 1.265 . S
O602 C601 1.227 . S
N603 Co600 2.121 . S
N603 C605 1.375 . S
N603 C606 1.313 . S
C604 C605 1.338 . S
C604 N607 1.377 . S
C604 H624 0.930 . S
C605 N603 1.375 . S
C605 C604 1.338 . S
C605 H609 0.931 . S
C606 N603 1.313 . S
C606 N607 1.344 . S
C606 H610 0.930 . S
N607 C604 1.377 . S
N607 C606 1.344 . S
O608 Co600 2.055 . S
O608 C612 1.253 . S
H609 C605 0.931 . S
H610 C606 0.930 . S
O611 Co600 2.039 . S
O611 C601 1.265 . S
C612 O608 1.253 . S
C612 O613 1.227 . S
O613 C612 1.227 . S
N614 Co600 2.140 . S
N614 C617 1.346 . S
N614 C618 1.345 . S
C615 C616 1.387 . S
C615 C619 1.391 . S
C616 C615 1.387 . S
C616 C617 1.369 . S
C616 H625 0.929 . S
C617 N614 1.346 . S
C617 C616 1.369 . S
C617 H620 0.928 . S
C618 N614 1.345 . S
C618 C619 1.371 . S
C618 H621 0.931 . S
C619 C615 1.391 . S
C619 C618 1.371 . S
C619 H626 0.930 . S
H620 C617 0.928 . S
H621 C618 0.931 . S
H622 C598 0.930 . S
H623 C595 0.930 . S
H624 C604 0.930 . S
H625 C616 0.929 . S
H626 C619 0.930 . S
C627 C628 1.351 . S
C627 N630 1.368 . S
C627 H632 0.931 . S
C628 C627 1.351 . S
C628 N629 1.373 . S
C628 H656 0.930 . S
N629 C628 1.373 . S
N629 C631 1.340 . S
N630 C627 1.368 . S
N630 C631 1.321 . S
N630 Co633 2.135 . S
C631 N629 1.340 . S
C631 N630 1.321 . S
C631 H655 0.930 . S
H632 C627 0.931 . S
Co633 N630 2.135 . S
Co633 N636 2.121 . S
Co633 O641 2.055 . S
Co633 O644 2.039 . S
Co633 N647 2.140 . S
C634 O635 1.227 . S
C634 O644 1.265 . S
O635 C634 1.227 . S
N636 Co633 2.121 . S
N636 C638 1.375 . S
N636 C639 1.313 . S
C637 C638 1.338 . S
C637 N640 1.377 . S
C637 H657 0.930 . S
C638 N636 1.375 . S
C638 C637 1.338 . S
C638 H642 0.931 . S
C639 N636 1.313 . S
C639 N640 1.344 . S
C639 H643 0.930 . S
N640 C637 1.377 . S
N640 C639 1.344 . S
O641 Co633 2.055 . S
O641 C645 1.253 . S
H642 C638 0.931 . S
H643 C639 0.930 . S
O644 Co633 2.039 . S
O644 C634 1.265 . S
C645 O641 1.253 . S
C645 O646 1.227 . S
O646 C645 1.227 . S
N647 Co633 2.140 . S
N647 C650 1.346 . S
N647 C651 1.345 . S
C648 C649 1.387 . S
C648 C652 1.391 . S
C649 C648 1.387 . S
C649 C650 1.369 . S
C649 H658 0.929 . S
C650 N647 1.346 . S
C650 C649 1.369 . S
C650 H653 0.928 . S
C651 N647 1.345 . S
C651 C652 1.371 . S
C651 H654 0.931 . S
C652 C648 1.391 . S
C652 C651 1.371 . S
C652 H659 0.930 . S
H653 C650 0.928 . S
H654 C651 0.931 . S
H655 C631 0.930 . S
H656 C628 0.930 . S
H657 C637 0.930 . S
H658 C649 0.929 . S
H659 C652 0.930 . S
C660 C661 1.351 . S
C660 N663 1.368 . S
C660 H665 0.931 . S
C661 C660 1.351 . S
C661 N662 1.373 . S
C661 H689 0.930 . S
N662 C661 1.373 . S
N662 C664 1.340 . S
N663 C660 1.368 . S
N663 C664 1.321 . S
N663 Co666 2.135 . S
C664 N662 1.340 . S
C664 N663 1.321 . S
C664 H688 0.930 . S
H665 C660 0.931 . S
Co666 N663 2.135 . S
Co666 N669 2.121 . S
Co666 O674 2.055 . S
Co666 O677 2.039 . S
Co666 N680 2.140 . S
C667 O668 1.227 . S
C667 O677 1.265 . S
O668 C667 1.227 . S
N669 Co666 2.121 . S
N669 C671 1.375 . S
N669 C672 1.313 . S
C670 C671 1.338 . S
C670 N673 1.377 . S
C670 H690 0.930 . S
C671 N669 1.375 . S
C671 C670 1.338 . S
C671 H675 0.931 . S
C672 N669 1.313 . S
C672 N673 1.344 . S
C672 H676 0.930 . S
N673 C670 1.377 . S
N673 C672 1.344 . S
O674 Co666 2.055 . S
O674 C678 1.253 . S
H675 C671 0.931 . S
H676 C672 0.930 . S
O677 Co666 2.039 . S
O677 C667 1.265 . S
C678 O674 1.253 . S
C678 O679 1.227 . S
O679 C678 1.227 . S
N680 Co666 2.140 . S
N680 C683 1.346 . S
N680 C684 1.345 . S
C681 C682 1.387 . S
C681 C685 1.391 . S
C682 C681 1.387 . S
C682 C683 1.369 . S
C682 H691 0.929 . S
C683 N680 1.346 . S
C683 C682 1.369 . S
C683 H686 0.928 . S
C684 N680 1.345 . S
C684 C685 1.371 . S
C684 H687 0.931 . S
C685 C681 1.391 . S
C685 C684 1.371 . S
C685 H692 0.930 . S
H686 C683 0.928 . S
H687 C684 0.931 . S
H688 C664 0.930 . S
H689 C661 0.930 . S
H690 C670 0.930 . S
H691 C682 0.929 . S
H692 C685 0.930 . S
C693 C694 1.351 . S
C693 N696 1.368 . S
C693 H698 0.931 . S
C694 C693 1.351 . S
C694 N695 1.373 . S
C694 H722 0.930 . S
N695 C694 1.373 . S
N695 C697 1.340 . S
N696 C693 1.368 . S
N696 C697 1.321 . S
N696 Co699 2.135 . S
C697 N695 1.340 . S
C697 N696 1.321 . S
C697 H721 0.930 . S
H698 C693 0.931 . S
Co699 N696 2.135 . S
Co699 N702 2.121 . S
Co699 O707 2.055 . S
Co699 O710 2.039 . S
Co699 N713 2.140 . S
C700 O701 1.227 . S
C700 O710 1.265 . S
O701 C700 1.227 . S
N702 Co699 2.121 . S
N702 C704 1.375 . S
N702 C705 1.313 . S
C703 C704 1.338 . S
C703 N706 1.377 . S
C703 H723 0.930 . S
C704 N702 1.375 . S
C704 C703 1.338 . S
C704 H708 0.931 . S
C705 N702 1.313 . S
C705 N706 1.344 . S
C705 H709 0.930 . S
N706 C703 1.377 . S
N706 C705 1.344 . S
O707 Co699 2.055 . S
O707 C711 1.253 . S
H708 C704 0.931 . S
H709 C705 0.930 . S
O710 Co699 2.039 . S
O710 C700 1.265 . S
C711 O707 1.253 . S
C711 O712 1.227 . S
O712 C711 1.227 . S
N713 Co699 2.140 . S
N713 C716 1.346 . S
N713 C717 1.345 . S
C714 C715 1.387 . S
C714 C718 1.391 . S
C715 C714 1.387 . S
C715 C716 1.369 . S
C715 H724 0.929 . S
C716 N713 1.346 . S
C716 C715 1.369 . S
C716 H719 0.928 . S
C717 N713 1.345 . S
C717 C718 1.371 . S
C717 H720 0.931 . S
C718 C714 1.391 . S
C718 C717 1.371 . S
C718 H725 0.930 . S
H719 C716 0.928 . S
H720 C717 0.931 . S
H721 C697 0.930 . S
H722 C694 0.930 . S
H723 C703 0.930 . S
H724 C715 0.929 . S
H725 C718 0.930 . S
C726 C727 1.351 . S
C726 N729 1.368 . S
C726 H731 0.931 . S
C727 C726 1.351 . S
C727 N728 1.373 . S
C727 H755 0.930 . S
N728 C727 1.373 . S
N728 C730 1.340 . S
N729 C726 1.368 . S
N729 C730 1.321 . S
N729 Co732 2.135 . S
C730 N728 1.340 . S
C730 N729 1.321 . S
C730 H754 0.930 . S
H731 C726 0.931 . S
Co732 N729 2.135 . S
Co732 N735 2.121 . S
Co732 O740 2.055 . S
Co732 O743 2.039 . S
Co732 N746 2.140 . S
C733 O734 1.227 . S
C733 O743 1.265 . S
O734 C733 1.227 . S
N735 Co732 2.121 . S
N735 C737 1.375 . S
N735 C738 1.313 . S
C736 C737 1.338 . S
C736 N739 1.377 . S
C736 H756 0.930 . S
C737 N735 1.375 . S
C737 C736 1.338 . S
C737 H741 0.931 . S
C738 N735 1.313 . S
C738 N739 1.344 . S
C738 H742 0.930 . S
N739 C736 1.377 . S
N739 C738 1.344 . S
O740 Co732 2.055 . S
O740 C744 1.253 . S
H741 C737 0.931 . S
H742 C738 0.930 . S
O743 Co732 2.039 . S
O743 C733 1.265 . S
C744 O740 1.253 . S
C744 O745 1.227 . S
O745 C744 1.227 . S
N746 Co732 2.140 . S
N746 C749 1.346 . S
N746 C750 1.345 . S
C747 C748 1.387 . S
C747 C751 1.391 . S
C748 C747 1.387 . S
C748 C749 1.369 . S
C748 H757 0.929 . S
C749 N746 1.346 . S
C749 C748 1.369 . S
C749 H752 0.928 . S
C750 N746 1.345 . S
C750 C751 1.371 . S
C750 H753 0.931 . S
C751 C747 1.391 . S
C751 C750 1.371 . S
C751 H758 0.930 . S
H752 C749 0.928 . S
H753 C750 0.931 . S
H754 C730 0.930 . S
H755 C727 0.930 . S
H756 C736 0.930 . S
H757 C748 0.929 . S
H758 C751 0.930 . S
C759 C760 1.351 . S
C759 N762 1.368 . S
C759 H764 0.931 . S
C760 C759 1.351 . S
C760 N761 1.373 . S
C760 H788 0.930 . S
N761 C760 1.373 . S
N761 C763 1.340 . S
N762 C759 1.368 . S
N762 C763 1.321 . S
N762 Co765 2.135 . S
C763 N761 1.340 . S
C763 N762 1.321 . S
C763 H787 0.930 . S
H764 C759 0.931 . S
Co765 N762 2.135 . S
Co765 N768 2.121 . S
Co765 O773 2.055 . S
Co765 O776 2.039 . S
Co765 N779 2.140 . S
C766 O767 1.227 . S
C766 O776 1.265 . S
O767 C766 1.227 . S
N768 Co765 2.121 . S
N768 C770 1.375 . S
N768 C771 1.313 . S
C769 C770 1.338 . S
C769 N772 1.377 . S
C769 H789 0.930 . S
C770 N768 1.375 . S
C770 C769 1.338 . S
C770 H774 0.931 . S
C771 N768 1.313 . S
C771 N772 1.344 . S
C771 H775 0.930 . S
N772 C769 1.377 . S
N772 C771 1.344 . S
O773 Co765 2.055 . S
O773 C777 1.253 . S
H774 C770 0.931 . S
H775 C771 0.930 . S
O776 Co765 2.039 . S
O776 C766 1.265 . S
C777 O773 1.253 . S
C777 O778 1.227 . S
O778 C777 1.227 . S
N779 Co765 2.140 . S
N779 C782 1.346 . S
N779 C783 1.345 . S
C780 C781 1.387 . S
C780 C784 1.391 . S
C781 C780 1.387 . S
C781 C782 1.369 . S
C781 H790 0.929 . S
C782 N779 1.346 . S
C782 C781 1.369 . S
C782 H785 0.928 . S
C783 N779 1.345 . S
C783 C784 1.371 . S
C783 H786 0.931 . S
C784 C780 1.391 . S
C784 C783 1.371 . S
C784 H791 0.930 . S
H785 C782 0.928 . S
H786 C783 0.931 . S
H787 C763 0.930 . S
H788 C760 0.930 . S
H789 C769 0.930 . S
H790 C781 0.929 . S
H791 C784 0.930 . S
C792 C793 1.351 . S
C792 N795 1.368 . S
C792 H797 0.931 . S
C793 C792 1.351 . S
C793 N794 1.373 . S
C793 H821 0.930 . S
N794 C793 1.373 . S
N794 C796 1.340 . S
N795 C792 1.368 . S
N795 C796 1.321 . S
N795 Co798 2.135 . S
C796 N794 1.340 . S
C796 N795 1.321 . S
C796 H820 0.930 . S
H797 C792 0.931 . S
Co798 N795 2.135 . S
Co798 N801 2.121 . S
Co798 O806 2.055 . S
Co798 O809 2.039 . S
Co798 N812 2.140 . S
C799 O800 1.227 . S
C799 O809 1.265 . S
O800 C799 1.227 . S
N801 Co798 2.121 . S
N801 C803 1.375 . S
N801 C804 1.313 . S
C802 C803 1.338 . S
C802 N805 1.377 . S
C802 H822 0.930 . S
C803 N801 1.375 . S
C803 C802 1.338 . S
C803 H807 0.931 . S
C804 N801 1.313 . S
C804 N805 1.344 . S
C804 H808 0.930 . S
N805 C802 1.377 . S
N805 C804 1.344 . S
O806 Co798 2.055 . S
O806 C810 1.253 . S
H807 C803 0.931 . S
H808 C804 0.930 . S
O809 Co798 2.039 . S
O809 C799 1.265 . S
C810 O806 1.253 . S
C810 O811 1.227 . S
O811 C810 1.227 . S
N812 Co798 2.140 . S
N812 C815 1.346 . S
N812 C816 1.345 . S
C813 C814 1.387 . S
C813 C817 1.391 . S
C814 C813 1.387 . S
C814 C815 1.369 . S
C814 H823 0.929 . S
C815 N812 1.346 . S
C815 C814 1.369 . S
C815 H818 0.928 . S
C816 N812 1.345 . S
C816 C817 1.371 . S
C816 H819 0.931 . S
C817 C813 1.391 . S
C817 C816 1.371 . S
C817 H824 0.930 . S
H818 C815 0.928 . S
H819 C816 0.931 . S
H820 C796 0.930 . S
H821 C793 0.930 . S
H822 C802 0.930 . S
H823 C814 0.929 . S
H824 C817 0.930 . S
C825 C826 1.351 . S
C825 N828 1.368 . S
C825 H830 0.931 . S
C826 C825 1.351 . S
C826 N827 1.373 . S
C826 H854 0.930 . S
N827 C826 1.373 . S
N827 C829 1.340 . S
N828 C825 1.368 . S
N828 C829 1.321 . S
N828 Co831 2.135 . S
C829 N827 1.340 . S
C829 N828 1.321 . S
C829 H853 0.930 . S
H830 C825 0.931 . S
Co831 N828 2.135 . S
Co831 N834 2.121 . S
Co831 O839 2.055 . S
Co831 O842 2.039 . S
Co831 N845 2.140 . S
C832 O833 1.227 . S
C832 O842 1.265 . S
O833 C832 1.227 . S
N834 Co831 2.121 . S
N834 C836 1.375 . S
N834 C837 1.313 . S
C835 C836 1.338 . S
C835 N838 1.377 . S
C835 H855 0.930 . S
C836 N834 1.375 . S
C836 C835 1.338 . S
C836 H840 0.931 . S
C837 N834 1.313 . S
C837 N838 1.344 . S
C837 H841 0.930 . S
N838 C835 1.377 . S
N838 C837 1.344 . S
O839 Co831 2.055 . S
O839 C843 1.253 . S
H840 C836 0.931 . S
H841 C837 0.930 . S
O842 Co831 2.039 . S
O842 C832 1.265 . S
C843 O839 1.253 . S
C843 O844 1.227 . S
O844 C843 1.227 . S
N845 Co831 2.140 . S
N845 C848 1.346 . S
N845 C849 1.345 . S
C846 C847 1.387 . S
C846 C850 1.391 . S
C847 C846 1.387 . S
C847 C848 1.369 . S
C847 H856 0.929 . S
C848 N845 1.346 . S
C848 C847 1.369 . S
C848 H851 0.928 . S
C849 N845 1.345 . S
C849 C850 1.371 . S
C849 H852 0.931 . S
C850 C846 1.391 . S
C850 C849 1.371 . S
C850 H857 0.930 . S
H851 C848 0.928 . S
H852 C849 0.931 . S
H853 C829 0.930 . S
H854 C826 0.930 . S
H855 C835 0.930 . S
H856 C847 0.929 . S
H857 C850 0.930 . S
C858 C859 1.351 . S
C858 N861 1.368 . S
C858 H863 0.931 . S
C859 C858 1.351 . S
C859 N860 1.373 . S
C859 H887 0.930 . S
N860 C859 1.373 . S
N860 C862 1.340 . S
N861 C858 1.368 . S
N861 C862 1.321 . S
N861 Co864 2.135 . S
C862 N860 1.340 . S
C862 N861 1.321 . S
C862 H886 0.930 . S
H863 C858 0.931 . S
Co864 N861 2.135 . S
Co864 N867 2.121 . S
Co864 O872 2.055 . S
Co864 O875 2.039 . S
Co864 N878 2.140 . S
C865 O866 1.227 . S
C865 O875 1.265 . S
O866 C865 1.227 . S
N867 Co864 2.121 . S
N867 C869 1.375 . S
N867 C870 1.313 . S
C868 C869 1.338 . S
C868 N871 1.377 . S
C868 H888 0.930 . S
C869 N867 1.375 . S
C869 C868 1.338 . S
C869 H873 0.931 . S
C870 N867 1.313 . S
C870 N871 1.344 . S
C870 H874 0.930 . S
N871 C868 1.377 . S
N871 C870 1.344 . S
O872 Co864 2.055 . S
O872 C876 1.253 . S
H873 C869 0.931 . S
H874 C870 0.930 . S
O875 Co864 2.039 . S
O875 C865 1.265 . S
C876 O872 1.253 . S
C876 O877 1.227 . S
O877 C876 1.227 . S
N878 Co864 2.140 . S
N878 C881 1.346 . S
N878 C882 1.345 . S
C879 C880 1.387 . S
C879 C883 1.391 . S
C880 C879 1.387 . S
C880 C881 1.369 . S
C880 H889 0.929 . S
C881 N878 1.346 . S
C881 C880 1.369 . S
C881 H884 0.928 . S
C882 N878 1.345 . S
C882 C883 1.371 . S
C882 H885 0.931 . S
C883 C879 1.391 . S
C883 C882 1.371 . S
C883 H890 0.930 . S
H884 C881 0.928 . S
H885 C882 0.931 . S
H886 C862 0.930 . S
H887 C859 0.930 . S
H888 C868 0.930 . S
H889 C880 0.929 . S
H890 C883 0.930 . S
C891 C892 1.351 . S
C891 N894 1.368 . S
C891 H896 0.931 . S
C892 C891 1.351 . S
C892 N893 1.373 . S
C892 H920 0.930 . S
N893 C892 1.373 . S
N893 C895 1.340 . S
N894 C891 1.368 . S
N894 C895 1.321 . S
N894 Co897 2.135 . S
C895 N893 1.340 . S
C895 N894 1.321 . S
C895 H919 0.930 . S
H896 C891 0.931 . S
Co897 N894 2.135 . S
Co897 N900 2.121 . S
Co897 O905 2.055 . S
Co897 O908 2.039 . S
Co897 N911 2.140 . S
C898 O899 1.227 . S
C898 O908 1.265 . S
O899 C898 1.227 . S
N900 Co897 2.121 . S
N900 C902 1.375 . S
N900 C903 1.313 . S
C901 C902 1.338 . S
C901 N904 1.377 . S
C901 H921 0.930 . S
C902 N900 1.375 . S
C902 C901 1.338 . S
C902 H906 0.931 . S
C903 N900 1.313 . S
C903 N904 1.344 . S
C903 H907 0.930 . S
N904 C901 1.377 . S
N904 C903 1.344 . S
O905 Co897 2.055 . S
O905 C909 1.253 . S
H906 C902 0.931 . S
H907 C903 0.930 . S
O908 Co897 2.039 . S
O908 C898 1.265 . S
C909 O905 1.253 . S
C909 O910 1.227 . S
O910 C909 1.227 . S
N911 Co897 2.140 . S
N911 C914 1.346 . S
N911 C915 1.345 . S
C912 C913 1.387 . S
C912 C916 1.391 . S
C913 C912 1.387 . S
C913 C914 1.369 . S
C913 H922 0.929 . S
C914 N911 1.346 . S
C914 C913 1.369 . S
C914 H917 0.928 . S
C915 N911 1.345 . S
C915 C916 1.371 . S
C915 H918 0.931 . S
C916 C912 1.391 . S
C916 C915 1.371 . S
C916 H923 0.930 . S
H917 C914 0.928 . S
H918 C915 0.931 . S
H919 C895 0.930 . S
H920 C892 0.930 . S
H921 C901 0.930 . S
H922 C913 0.929 . S
H923 C916 0.930 . S
C924 C925 1.351 . S
C924 N927 1.368 . S
C924 H929 0.931 . S
C925 C924 1.351 . S
C925 N926 1.373 . S
C925 H953 0.930 . S
N926 C925 1.373 . S
N926 C928 1.340 . S
N927 C924 1.368 . S
N927 C928 1.321 . S
N927 Co930 2.135 . S
C928 N926 1.340 . S
C928 N927 1.321 . S
C928 H952 0.930 . S
H929 C924 0.931 . S
Co930 N927 2.135 . S
Co930 N933 2.121 . S
Co930 O938 2.055 . S
Co930 O941 2.039 . S
Co930 N944 2.140 . S
C931 O932 1.227 . S
C931 O941 1.265 . S
O932 C931 1.227 . S
N933 Co930 2.121 . S
N933 C935 1.375 . S
N933 C936 1.313 . S
C934 C935 1.338 . S
C934 N937 1.377 . S
C934 H954 0.930 . S
C935 N933 1.375 . S
C935 C934 1.338 . S
C935 H939 0.931 . S
C936 N933 1.313 . S
C936 N937 1.344 . S
C936 H940 0.930 . S
N937 C934 1.377 . S
N937 C936 1.344 . S
O938 Co930 2.055 . S
O938 C942 1.253 . S
H939 C935 0.931 . S
H940 C936 0.930 . S
O941 Co930 2.039 . S
O941 C931 1.265 . S
C942 O938 1.253 . S
C942 O943 1.227 . S
O943 C942 1.227 . S
N944 Co930 2.140 . S
N944 C947 1.346 . S
N944 C948 1.345 . S
C945 C946 1.387 . S
C945 C949 1.391 . S
C946 C945 1.387 . S
C946 C947 1.369 . S
C946 H955 0.929 . S
C947 N944 1.346 . S
C947 C946 1.369 . S
C947 H950 0.928 . S
C948 N944 1.345 . S
C948 C949 1.371 . S
C948 H951 0.931 . S
C949 C945 1.391 . S
C949 C948 1.371 . S
C949 H956 0.930 . S
H950 C947 0.928 . S
H951 C948 0.931 . S
H952 C928 0.930 . S
H953 C925 0.930 . S
H954 C934 0.930 . S
H955 C946 0.929 . S
H956 C949 0.930 . S
C957 C958 1.351 . S
C957 N960 1.368 . S
C957 H962 0.931 . S
C958 C957 1.351 . S
C958 N959 1.373 . S
C958 H986 0.930 . S
N959 C958 1.373 . S
N959 C961 1.340 . S
N960 C957 1.368 . S
N960 C961 1.321 . S
N960 Co963 2.135 . S
C961 N959 1.340 . S
C961 N960 1.321 . S
C961 H985 0.930 . S
H962 C957 0.931 . S
Co963 N960 2.135 . S
Co963 N966 2.121 . S
Co963 O971 2.055 . S
Co963 O974 2.039 . S
Co963 N977 2.140 . S
C964 O965 1.227 . S
C964 O974 1.265 . S
O965 C964 1.227 . S
N966 Co963 2.121 . S
N966 C968 1.375 . S
N966 C969 1.313 . S
C967 C968 1.338 . S
C967 N970 1.377 . S
C967 H987 0.930 . S
C968 N966 1.375 . S
C968 C967 1.338 . S
C968 H972 0.931 . S
C969 N966 1.313 . S
C969 N970 1.344 . S
C969 H973 0.930 . S
N970 C967 1.377 . S
N970 C969 1.344 . S
O971 Co963 2.055 . S
O971 C975 1.253 . S
H972 C968 0.931 . S
H973 C969 0.930 . S
O974 Co963 2.039 . S
O974 C964 1.265 . S
C975 O971 1.253 . S
C975 O976 1.227 . S
O976 C975 1.227 . S
N977 Co963 2.140 . S
N977 C980 1.346 . S
N977 C981 1.345 . S
C978 C979 1.387 . S
C978 C982 1.391 . S
C979 C978 1.387 . S
C979 C980 1.369 . S
C979 H988 0.929 . S
C980 N977 1.346 . S
C980 C979 1.369 . S
C980 H983 0.928 . S
C981 N977 1.345 . S
C981 C982 1.371 . S
C981 H984 0.931 . S
C982 C978 1.391 . S
C982 C981 1.371 . S
C982 H989 0.930 . S
H983 C980 0.928 . S
H984 C981 0.931 . S
H985 C961 0.930 . S
H986 C958 0.930 . S
H987 C967 0.930 . S
H988 C979 0.929 . S
H989 C982 0.930 . S
C990 C991 1.351 . S
C990 N993 1.368 . S
C990 H995 0.931 . S
C991 C990 1.351 . S
C991 N992 1.373 . S
C991 H1019 0.930 . S
N992 C991 1.373 . S
N992 C994 1.340 . S
N993 C990 1.368 . S
N993 C994 1.321 . S
N993 Co996 2.135 . S
C994 N992 1.340 . S
C994 N993 1.321 . S
C994 H1018 0.930 . S
H995 C990 0.931 . S
Co996 N993 2.135 . S
Co996 N999 2.121 . S
Co996 O1004 2.055 . S
Co996 O1007 2.039 . S
Co996 N1010 2.140 . S
C997 O998 1.227 . S
C997 O1007 1.265 . S
O998 C997 1.227 . S
N999 Co996 2.121 . S
N999 C1001 1.375 . S
N999 C1002 1.313 . S
C1000 C1001 1.338 . S
C1000 N1003 1.377 . S
C1000 H1020 0.930 . S
C1001 N999 1.375 . S
C1001 C1000 1.338 . S
C1001 H1005 0.931 . S
C1002 N999 1.313 . S
C1002 N1003 1.344 . S
C1002 H1006 0.930 . S
N1003 C1000 1.377 . S
N1003 C1002 1.344 . S
O1004 Co996 2.055 . S
O1004 C1008 1.253 . S
H1005 C1001 0.931 . S
H1006 C1002 0.930 . S
O1007 Co996 2.039 . S
O1007 C997 1.265 . S
C1008 O1004 1.253 . S
C1008 O1009 1.227 . S
O1009 C1008 1.227 . S
N1010 Co996 2.140 . S
N1010 C1013 1.346 . S
N1010 C1014 1.345 . S
C1011 C1012 1.387 . S
C1011 C1015 1.391 . S
C1012 C1011 1.387 . S
C1012 C1013 1.369 . S
C1012 H1021 0.929 . S
C1013 N1010 1.346 . S
C1013 C1012 1.369 . S
C1013 H1016 0.928 . S
C1014 N1010 1.345 . S
C1014 C1015 1.371 . S
C1014 H1017 0.931 . S
C1015 C1011 1.391 . S
C1015 C1014 1.371 . S
C1015 H1022 0.930 . S
H1016 C1013 0.928 . S
H1017 C1014 0.931 . S
H1018 C994 0.930 . S
H1019 C991 0.930 . S
H1020 C1000 0.930 . S
H1021 C1012 0.929 . S
H1022 C1015 0.930 . S
C1023 C1024 1.351 . S
C1023 N1026 1.368 . S
C1023 H1028 0.931 . S
C1024 C1023 1.351 . S
C1024 N1025 1.373 . S
C1024 H1052 0.930 . S
N1025 C1024 1.373 . S
N1025 C1027 1.340 . S
N1026 C1023 1.368 . S
N1026 C1027 1.321 . S
N1026 Co1029 2.135 . S
C1027 N1025 1.340 . S
C1027 N1026 1.321 . S
C1027 H1051 0.930 . S
H1028 C1023 0.931 . S
Co1029 N1026 2.135 . S
Co1029 N1032 2.121 . S
Co1029 O1037 2.055 . S
Co1029 O1040 2.039 . S
Co1029 N1043 2.140 . S
C1030 O1031 1.227 . S
C1030 O1040 1.265 . S
O1031 C1030 1.227 . S
N1032 Co1029 2.121 . S
N1032 C1034 1.375 . S
N1032 C1035 1.313 . S
C1033 C1034 1.338 . S
C1033 N1036 1.377 . S
C1033 H1053 0.930 . S
C1034 N1032 1.375 . S
C1034 C1033 1.338 . S
C1034 H1038 0.931 . S
C1035 N1032 1.313 . S
C1035 N1036 1.344 . S
C1035 H1039 0.930 . S
N1036 C1033 1.377 . S
N1036 C1035 1.344 . S
O1037 Co1029 2.055 . S
O1037 C1041 1.253 . S
H1038 C1034 0.931 . S
H1039 C1035 0.930 . S
O1040 Co1029 2.039 . S
O1040 C1030 1.265 . S
C1041 O1037 1.253 . S
C1041 O1042 1.227 . S
O1042 C1041 1.227 . S
N1043 Co1029 2.140 . S
N1043 C1046 1.346 . S
N1043 C1047 1.345 . S
C1044 C1045 1.387 . S
C1044 C1048 1.391 . S
C1045 C1044 1.387 . S
C1045 C1046 1.369 . S
C1045 H1054 0.929 . S
C1046 N1043 1.346 . S
C1046 C1045 1.369 . S
C1046 H1049 0.928 . S
C1047 N1043 1.345 . S
C1047 C1048 1.371 . S
C1047 H1050 0.931 . S
C1048 C1044 1.391 . S
C1048 C1047 1.371 . S
C1048 H1055 0.930 . S
H1049 C1046 0.928 . S
H1050 C1047 0.931 . S
H1051 C1027 0.930 . S
H1052 C1024 0.930 . S
H1053 C1033 0.930 . S
H1054 C1045 0.929 . S
H1055 C1048 0.930 . S
H1056 C1068 0.930 . S
H1057 C1070 0.930 . S
H1058 C1071 0.930 . S
H1059 C1075 0.959 . S
H1060 C1075 0.959 . S
H1061 C1075 0.961 . S
H1062 C1076 0.960 . S
H1063 C1076 0.961 . S
H1064 C1076 0.959 . S
H1065 C1079 0.929 . S
H1066 C1080 0.931 . S
H1067 C1082 0.930 . S
C1068 H1056 0.930 . S
C1068 C1069 1.399 . S
C1068 C1073 1.399 . S
C1069 C1068 1.399 . S
C1069 C1070 1.376 . S
C1070 H1057 0.930 . S
C1070 C1069 1.376 . S
C1070 C1071 1.388 . S
C1071 H1058 0.930 . S
C1071 C1070 1.388 . S
C1071 C1072 1.390 . S
C1072 C1071 1.390 . S
C1072 C1073 1.394 . S
C1072 C1078 1.465 . S
C1073 C1068 1.399 . S
C1073 C1072 1.394 . S
C1073 C1074 1.516 . S
C1074 C1073 1.516 . S
C1074 C1075 1.502 . S
C1074 C1076 1.561 . S
C1074 C1077 1.526 . S
C1075 H1059 0.959 . S
C1075 H1060 0.959 . S
C1075 H1061 0.961 . S
C1075 C1074 1.502 . S
C1076 H1062 0.960 . S
C1076 H1063 0.961 . S
C1076 H1064 0.959 . S
C1076 C1074 1.561 . S
C1077 C1074 1.526 . S
C1077 C1078 1.396 . S
C1077 C1082 1.390 . S
C1078 C1072 1.465 . S
C1078 C1077 1.396 . S
C1078 C1079 1.399 . S
C1079 H1065 0.929 . S
C1079 C1078 1.399 . S
C1079 C1080 1.385 . S
C1080 H1066 0.931 . S
C1080 C1079 1.385 . S
C1080 C1081 1.389 . S
C1081 C1080 1.389 . S
C1081 C1082 1.387 . S
C1082 H1067 0.930 . S
C1082 C1077 1.390 . S
C1082 C1081 1.387 . S
H1083 C1095 0.930 . S
H1084 C1097 0.930 . S
H1085 C1098 0.930 . S
H1086 C1102 0.959 . S
H1087 C1102 0.959 . S
H1088 C1102 0.961 . S
H1089 C1103 0.960 . S
H1090 C1103 0.961 . S
H1091 C1103 0.959 . S
H1092 C1106 0.929 . S
H1093 C1107 0.931 . S
H1094 C1109 0.930 . S
C1095 H1083 0.930 . S
C1095 C1096 1.399 . S
C1095 C1100 1.399 1_655 S
C1096 C1095 1.399 . S
C1096 C1097 1.376 . S
C1097 H1084 0.930 . S
C1097 C1096 1.376 . S
C1097 C1098 1.388 1_655 S
C1098 H1085 0.930 . S
C1098 C1097 1.388 1_455 S
C1098 C1099 1.390 . S
C1099 C1098 1.390 . S
C1099 C1100 1.394 . S
C1099 C1105 1.465 . S
C1100 C1095 1.399 1_455 S
C1100 C1099 1.394 . S
C1100 C1101 1.516 . S
C1101 C1100 1.516 . S
C1101 C1102 1.502 . S
C1101 C1103 1.561 . S
C1101 C1104 1.526 . S
C1102 H1086 0.959 . S
C1102 H1087 0.959 . S
C1102 H1088 0.961 . S
C1102 C1101 1.502 . S
C1103 H1089 0.960 . S
C1103 H1090 0.961 . S
C1103 H1091 0.959 . S
C1103 C1101 1.561 . S
C1104 C1101 1.526 . S
C1104 C1105 1.396 . S
C1104 C1109 1.390 . S
C1105 C1099 1.465 . S
C1105 C1104 1.396 . S
C1105 C1106 1.399 . S
C1106 H1092 0.929 . S
C1106 C1105 1.399 . S
C1106 C1107 1.385 . S
C1107 H1093 0.931 . S
C1107 C1106 1.385 . S
C1107 C1108 1.389 . S
C1108 C1107 1.389 . S
C1108 C1109 1.387 . S
C1109 H1094 0.930 . S
C1109 C1104 1.390 . S
C1109 C1108 1.387 . S
H1110 C1122 0.930 . S
H1111 C1124 0.930 . S
H1112 C1125 0.930 . S
H1113 C1129 0.959 . S
H1114 C1129 0.959 . S
H1115 C1129 0.961 . S
H1116 C1130 0.960 . S
H1117 C1130 0.961 . S
H1118 C1130 0.959 . S
H1119 C1133 0.929 . S
H1120 C1134 0.931 . S
H1121 C1136 0.930 . S
C1122 H1110 0.930 . S
C1122 C1123 1.399 . S
C1122 C1127 1.399 . S
C1123 C1122 1.399 . S
C1123 C1124 1.376 . S
C1124 H1111 0.930 . S
C1124 C1123 1.376 . S
C1124 C1125 1.388 . S
C1125 H1112 0.930 . S
C1125 C1124 1.388 . S
C1125 C1126 1.390 . S
C1126 C1125 1.390 . S
C1126 C1127 1.394 . S
C1126 C1132 1.465 . S
C1127 C1122 1.399 . S
C1127 C1126 1.394 . S
C1127 C1128 1.516 . S
C1128 C1127 1.516 . S
C1128 C1129 1.502 . S
C1128 C1130 1.561 . S
C1128 C1131 1.526 . S
C1129 H1113 0.959 . S
C1129 H1114 0.959 . S
C1129 H1115 0.961 . S
C1129 C1128 1.502 . S
C1130 H1116 0.960 . S
C1130 H1117 0.961 . S
C1130 H1118 0.959 . S
C1130 C1128 1.561 . S
C1131 C1128 1.526 . S
C1131 C1132 1.396 . S
C1131 C1136 1.390 . S
C1132 C1126 1.465 . S
C1132 C1131 1.396 . S
C1132 C1133 1.399 . S
C1133 H1119 0.929 . S
C1133 C1132 1.399 . S
C1133 C1134 1.385 . S
C1134 H1120 0.931 . S
C1134 C1133 1.385 . S
C1134 C1135 1.389 . S
C1135 C1134 1.389 . S
C1135 C1136 1.387 . S
C1136 H1121 0.930 . S
C1136 C1131 1.390 . S
C1136 C1135 1.387 . S
H1137 C1149 0.930 . S
H1138 C1151 0.930 . S
H1139 C1152 0.930 . S
H1140 C1156 0.959 . S
H1141 C1156 0.959 . S
H1142 C1156 0.961 . S
H1143 C1157 0.960 . S
H1144 C1157 0.961 . S
H1145 C1157 0.959 . S
H1146 C1160 0.929 . S
H1147 C1161 0.931 . S
H1148 C1163 0.930 . S
C1149 H1137 0.930 . S
C1149 C1150 1.399 . S
C1149 C1154 1.399 . S
C1150 C1149 1.399 . S
C1150 C1151 1.376 . S
C1151 H1138 0.930 . S
C1151 C1150 1.376 . S
C1151 C1152 1.388 . S
C1152 H1139 0.930 . S
C1152 C1151 1.388 . S
C1152 C1153 1.390 . S
C1153 C1152 1.390 . S
C1153 C1154 1.394 . S
C1153 C1159 1.465 . S
C1154 C1149 1.399 . S
C1154 C1153 1.394 . S
C1154 C1155 1.516 . S
C1155 C1154 1.516 . S
C1155 C1156 1.502 . S
C1155 C1157 1.561 . S
C1155 C1158 1.526 . S
C1156 H1140 0.959 . S
C1156 H1141 0.959 . S
C1156 H1142 0.961 . S
C1156 C1155 1.502 . S
C1157 H1143 0.960 . S
C1157 H1144 0.961 . S
C1157 H1145 0.959 . S
C1157 C1155 1.561 . S
C1158 C1155 1.526 . S
C1158 C1159 1.396 . S
C1158 C1163 1.390 . S
C1159 C1153 1.465 . S
C1159 C1158 1.396 . S
C1159 C1160 1.399 . S
C1160 H1146 0.929 . S
C1160 C1159 1.399 . S
C1160 C1161 1.385 . S
C1161 H1147 0.931 . S
C1161 C1160 1.385 . S
C1161 C1162 1.389 . S
C1162 C1161 1.389 . S
C1162 C1163 1.387 . S
C1163 H1148 0.930 . S
C1163 C1158 1.390 . S
C1163 C1162 1.387 . S
H1164 C1176 0.930 . S
H1165 C1178 0.930 . S
H1166 C1179 0.930 . S
H1167 C1183 0.959 . S
H1168 C1183 0.959 . S
H1169 C1183 0.961 . S
H1170 C1184 0.960 . S
H1171 C1184 0.961 . S
H1172 C1184 0.959 . S
H1173 C1187 0.929 . S
H1174 C1188 0.931 . S
H1175 C1190 0.930 . S
C1176 H1164 0.930 . S
C1176 C1177 1.399 . S
C1176 C1181 1.399 . S
C1177 C1176 1.399 . S
C1177 C1178 1.376 . S
C1178 H1165 0.930 . S
C1178 C1177 1.376 . S
C1178 C1179 1.388 . S
C1179 H1166 0.930 . S
C1179 C1178 1.388 . S
C1179 C1180 1.390 . S
C1180 C1179 1.390 . S
C1180 C1181 1.394 . S
C1180 C1186 1.465 . S
C1181 C1176 1.399 . S
C1181 C1180 1.394 . S
C1181 C1182 1.516 . S
C1182 C1181 1.516 . S
C1182 C1183 1.502 . S
C1182 C1184 1.561 . S
C1182 C1185 1.526 . S
C1183 H1167 0.959 . S
C1183 H1168 0.959 . S
C1183 H1169 0.961 . S
C1183 C1182 1.502 . S
C1184 H1170 0.960 . S
C1184 H1171 0.961 . S
C1184 H1172 0.959 . S
C1184 C1182 1.561 . S
C1185 C1182 1.526 . S
C1185 C1186 1.396 . S
C1185 C1190 1.390 . S
C1186 C1180 1.465 . S
C1186 C1185 1.396 . S
C1186 C1187 1.399 . S
C1187 H1173 0.929 . S
C1187 C1186 1.399 . S
C1187 C1188 1.385 . S
C1188 H1174 0.931 . S
C1188 C1187 1.385 . S
C1188 C1189 1.389 . S
C1189 C1188 1.389 . S
C1189 C1190 1.387 . S
C1190 H1175 0.930 . S
C1190 C1185 1.390 . S
C1190 C1189 1.387 . S
H1191 C1203 0.930 . S
H1192 C1205 0.930 . S
H1193 C1206 0.930 . S
H1194 C1210 0.959 . S
H1195 C1210 0.959 . S
H1196 C1210 0.961 . S
H1197 C1211 0.960 . S
H1198 C1211 0.961 . S
H1199 C1211 0.959 . S
H1200 C1214 0.929 . S
H1201 C1215 0.931 . S
H1202 C1217 0.930 . S
C1203 H1191 0.930 . S
C1203 C1204 1.399 . S
C1203 C1208 1.399 . S
C1204 C1203 1.399 . S
C1204 C1205 1.376 . S
C1205 H1192 0.930 . S
C1205 C1204 1.376 . S
C1205 C1206 1.388 . S
C1206 H1193 0.930 . S
C1206 C1205 1.388 . S
C1206 C1207 1.390 . S
C1207 C1206 1.390 . S
C1207 C1208 1.394 . S
C1207 C1213 1.465 . S
C1208 C1203 1.399 . S
C1208 C1207 1.394 . S
C1208 C1209 1.516 . S
C1209 C1208 1.516 . S
C1209 C1210 1.502 . S
C1209 C1211 1.561 . S
C1209 C1212 1.526 . S
C1210 H1194 0.959 . S
C1210 H1195 0.959 . S
C1210 H1196 0.961 . S
C1210 C1209 1.502 . S
C1211 H1197 0.960 . S
C1211 H1198 0.961 . S
C1211 H1199 0.959 . S
C1211 C1209 1.561 . S
C1212 C1209 1.526 . S
C1212 C1213 1.396 . S
C1212 C1217 1.390 . S
C1213 C1207 1.465 . S
C1213 C1212 1.396 . S
C1213 C1214 1.399 . S
C1214 H1200 0.929 . S
C1214 C1213 1.399 . S
C1214 C1215 1.385 . S
C1215 H1201 0.931 . S
C1215 C1214 1.385 . S
C1215 C1216 1.389 . S
C1216 C1215 1.389 . S
C1216 C1217 1.387 . S
C1217 H1202 0.930 . S
C1217 C1212 1.390 . S
C1217 C1216 1.387 . S
H1218 C1230 0.930 . S
H1219 C1232 0.930 . S
H1220 C1233 0.930 . S
H1221 C1237 0.959 . S
H1222 C1237 0.959 . S
H1223 C1237 0.961 . S
H1224 C1238 0.960 . S
H1225 C1238 0.961 . S
H1226 C1238 0.959 . S
H1227 C1241 0.929 . S
H1228 C1242 0.931 . S
H1229 C1244 0.930 . S
C1230 H1218 0.930 . S
C1230 C1231 1.399 . S
C1230 C1235 1.399 . S
C1231 C1230 1.399 . S
C1231 C1232 1.376 . S
C1232 H1219 0.930 . S
C1232 C1231 1.376 . S
C1232 C1233 1.388 . S
C1233 H1220 0.930 . S
C1233 C1232 1.388 . S
C1233 C1234 1.390 . S
C1234 C1233 1.390 . S
C1234 C1235 1.394 . S
C1234 C1240 1.465 . S
C1235 C1230 1.399 . S
C1235 C1234 1.394 . S
C1235 C1236 1.516 . S
C1236 C1235 1.516 . S
C1236 C1237 1.502 . S
C1236 C1238 1.561 . S
C1236 C1239 1.526 . S
C1237 H1221 0.959 . S
C1237 H1222 0.959 . S
C1237 H1223 0.961 . S
C1237 C1236 1.502 . S
C1238 H1224 0.960 . S
C1238 H1225 0.961 . S
C1238 H1226 0.959 . S
C1238 C1236 1.561 . S
C1239 C1236 1.526 . S
C1239 C1240 1.396 . S
C1239 C1244 1.390 . S
C1240 C1234 1.465 . S
C1240 C1239 1.396 . S
C1240 C1241 1.399 . S
C1241 H1227 0.929 . S
C1241 C1240 1.399 . S
C1241 C1242 1.385 . S
C1242 H1228 0.931 . S
C1242 C1241 1.385 . S
C1242 C1243 1.389 . S
C1243 C1242 1.389 . S
C1243 C1244 1.387 . S
C1244 H1229 0.930 . S
C1244 C1239 1.390 . S
C1244 C1243 1.387 . S
H1245 C1257 0.930 . S
H1246 C1259 0.930 . S
H1247 C1260 0.930 . S
H1248 C1264 0.959 1_655 S
H1249 C1264 0.959 1_655 S
H1250 C1264 0.961 . S
H1251 C1265 0.960 . S
H1252 C1265 0.961 . S
H1253 C1265 0.959 . S
H1254 C1268 0.929 . S
H1255 C1269 0.928 1_655 S
H1256 C1271 0.930 . S
C1257 H1245 0.930 . S
C1257 C1258 1.399 . S
C1257 C1262 1.399 . S
C1258 C1257 1.399 . S
C1258 C1259 1.376 . S
C1259 H1246 0.930 . S
C1259 C1258 1.376 . S
C1259 C1260 1.388 . S
C1260 H1247 0.930 . S
C1260 C1259 1.388 . S
C1260 C1261 1.390 . S
C1261 C1260 1.390 . S
C1261 C1262 1.394 . S
C1261 C1267 1.465 . S
C1262 C1257 1.399 . S
C1262 C1261 1.394 . S
C1262 C1263 1.516 . S
C1263 C1262 1.516 . S
C1263 C1264 1.502 . S
C1263 C1265 1.561 . S
C1263 C1266 1.526 . S
C1264 H1248 0.959 1_455 S
C1264 H1249 0.959 1_455 S
C1264 H1250 0.961 . S
C1264 C1263 1.502 . S
C1265 H1251 0.960 . S
C1265 H1252 0.961 . S
C1265 H1253 0.959 . S
C1265 C1263 1.561 . S
C1266 C1263 1.526 . S
C1266 C1267 1.396 . S
C1266 C1271 1.390 1_455 S
C1267 C1261 1.465 . S
C1267 C1266 1.396 . S
C1267 C1268 1.399 . S
C1268 H1254 0.929 . S
C1268 C1267 1.399 . S
C1268 C1269 1.385 . S
C1269 H1255 0.928 1_455 S
C1269 C1268 1.385 . S
C1269 C1270 1.389 1_455 S
C1270 C1269 1.389 1_655 S
C1270 C1271 1.387 . S
C1271 H1256 0.930 . S
C1271 C1266 1.390 1_655 S
C1271 C1270 1.387 . S
H1272 C1284 0.930 . S
H1273 C1286 0.930 . S
H1274 C1287 0.930 . S
H1275 C1291 0.959 . S
H1276 C1291 0.959 . S
H1277 C1291 0.961 . S
H1278 C1292 0.960 . S
H1279 C1292 0.961 . S
H1280 C1292 0.959 . S
H1281 C1295 0.929 . S
H1282 C1296 0.931 . S
H1283 C1298 0.930 . S
C1284 H1272 0.930 . S
C1284 C1285 1.399 . S
C1284 C1289 1.399 . S
C1285 C1284 1.399 . S
C1285 C1286 1.376 . S
C1286 H1273 0.930 . S
C1286 C1285 1.376 . S
C1286 C1287 1.388 . S
C1287 H1274 0.930 . S
C1287 C1286 1.388 . S
C1287 C1288 1.390 . S
C1288 C1287 1.390 . S
C1288 C1289 1.394 . S
C1288 C1294 1.465 . S
C1289 C1284 1.399 . S
C1289 C1288 1.394 . S
C1289 C1290 1.516 . S
C1290 C1289 1.516 . S
C1290 C1291 1.502 . S
C1290 C1292 1.561 . S
C1290 C1293 1.526 . S
C1291 H1275 0.959 . S
C1291 H1276 0.959 . S
C1291 H1277 0.961 . S
C1291 C1290 1.502 . S
C1292 H1278 0.960 . S
C1292 H1279 0.961 . S
C1292 H1280 0.959 . S
C1292 C1290 1.561 . S
C1293 C1290 1.526 . S
C1293 C1294 1.396 . S
C1293 C1298 1.390 . S
C1294 C1288 1.465 . S
C1294 C1293 1.396 . S
C1294 C1295 1.399 . S
C1295 H1281 0.929 . S
C1295 C1294 1.399 . S
C1295 C1296 1.385 . S
C1296 H1282 0.931 . S
C1296 C1295 1.385 . S
C1296 C1297 1.389 . S
C1297 C1296 1.389 . S
C1297 C1298 1.387 . S
C1298 H1283 0.930 . S
C1298 C1293 1.390 . S
C1298 C1297 1.387 . S
H1299 C1311 0.930 . S
H1300 C1313 0.930 . S
H1301 C1314 0.931 . S
H1302 C1318 0.959 . S
H1303 C1318 0.959 . S
H1304 C1318 0.961 . S
H1305 C1319 0.960 . S
H1306 C1319 0.961 . S
H1307 C1319 0.959 . S
H1308 C1322 0.929 . S
H1309 C1323 0.931 . S
H1310 C1325 0.930 . S
C1311 H1299 0.930 . S
C1311 C1312 1.399 1_655 S
C1311 C1316 1.399 . S
C1312 C1311 1.399 1_455 S
C1312 C1313 1.376 . S
C1313 H1300 0.930 . S
C1313 C1312 1.376 . S
C1313 C1314 1.388 1_455 S
C1314 H1301 0.931 . S
C1314 C1313 1.388 1_655 S
C1314 C1315 1.390 . S
C1315 C1314 1.390 . S
C1315 C1316 1.394 . S
C1315 C1321 1.465 . S
C1316 C1311 1.399 . S
C1316 C1315 1.394 . S
C1316 C1317 1.516 . S
C1317 C1316 1.516 . S
C1317 C1318 1.502 . S
C1317 C1319 1.561 . S
C1317 C1320 1.526 . S
C1318 H1302 0.959 . S
C1318 H1303 0.959 . S
C1318 H1304 0.961 . S
C1318 C1317 1.502 . S
C1319 H1305 0.960 . S
C1319 H1306 0.961 . S
C1319 H1307 0.959 . S
C1319 C1317 1.561 . S
C1320 C1317 1.526 . S
C1320 C1321 1.396 . S
C1320 C1325 1.390 . S
C1321 C1315 1.465 . S
C1321 C1320 1.396 . S
C1321 C1322 1.399 . S
C1322 H1308 0.929 . S
C1322 C1321 1.399 . S
C1322 C1323 1.385 . S
C1323 H1309 0.931 . S
C1323 C1322 1.385 . S
C1323 C1324 1.389 . S
C1324 C1323 1.389 . S
C1324 C1325 1.387 . S
C1325 H1310 0.930 . S
C1325 C1320 1.390 . S
C1325 C1324 1.387 . S
H1326 C1338 0.930 . S
H1327 C1340 0.930 . S
H1328 C1341 0.930 . S
H1329 C1345 0.959 . S
H1330 C1345 0.959 . S
H1331 C1345 0.961 . S
H1332 C1346 0.960 . S
H1333 C1346 0.961 . S
H1334 C1346 0.959 . S
H1335 C1349 0.929 . S
H1336 C1350 0.931 . S
H1337 C1352 0.930 . S
C1338 H1326 0.930 . S
C1338 C1339 1.399 . S
C1338 C1343 1.399 . S
C1339 C1338 1.399 . S
C1339 C1340 1.376 . S
C1340 H1327 0.930 . S
C1340 C1339 1.376 . S
C1340 C1341 1.388 . S
C1341 H1328 0.930 . S
C1341 C1340 1.388 . S
C1341 C1342 1.390 . S
C1342 C1341 1.390 . S
C1342 C1343 1.394 . S
C1342 C1348 1.465 . S
C1343 C1338 1.399 . S
C1343 C1342 1.394 . S
C1343 C1344 1.516 . S
C1344 C1343 1.516 . S
C1344 C1345 1.502 . S
C1344 C1346 1.561 . S
C1344 C1347 1.526 . S
C1345 H1329 0.959 . S
C1345 H1330 0.959 . S
C1345 H1331 0.961 . S
C1345 C1344 1.502 . S
C1346 H1332 0.960 . S
C1346 H1333 0.961 . S
C1346 H1334 0.959 . S
C1346 C1344 1.561 . S
C1347 C1344 1.526 . S
C1347 C1348 1.396 . S
C1347 C1352 1.390 . S
C1348 C1342 1.465 . S
C1348 C1347 1.396 . S
C1348 C1349 1.399 . S
C1349 H1335 0.929 . S
C1349 C1348 1.399 . S
C1349 C1350 1.385 . S
C1350 H1336 0.931 . S
C1350 C1349 1.385 . S
C1350 C1351 1.389 . S
C1351 C1350 1.389 . S
C1351 C1352 1.387 . S
C1352 H1337 0.930 . S
C1352 C1347 1.390 . S
C1352 C1351 1.387 . S
H1353 C1365 0.930 . S
H1354 C1367 0.930 . S
H1355 C1368 0.930 . S
H1356 C1372 0.959 . S
H1357 C1372 0.959 . S
H1358 C1372 0.961 . S
H1359 C1373 0.960 . S
H1360 C1373 0.961 . S
H1361 C1373 0.959 . S
H1362 C1376 0.929 . S
H1363 C1377 0.931 . S
H1364 C1379 0.930 . S
C1365 H1353 0.930 . S
C1365 C1366 1.399 . S
C1365 C1370 1.399 . S
C1366 C1365 1.399 . S
C1366 C1367 1.376 . S
C1367 H1354 0.930 . S
C1367 C1366 1.376 . S
C1367 C1368 1.388 . S
C1368 H1355 0.930 . S
C1368 C1367 1.388 . S
C1368 C1369 1.390 . S
C1369 C1368 1.390 . S
C1369 C1370 1.394 . S
C1369 C1375 1.465 . S
C1370 C1365 1.399 . S
C1370 C1369 1.394 . S
C1370 C1371 1.516 . S
C1371 C1370 1.516 . S
C1371 C1372 1.502 . S
C1371 C1373 1.561 . S
C1371 C1374 1.526 . S
C1372 H1356 0.959 . S
C1372 H1357 0.959 . S
C1372 H1358 0.961 . S
C1372 C1371 1.502 . S
C1373 H1359 0.960 . S
C1373 H1360 0.961 . S
C1373 H1361 0.959 . S
C1373 C1371 1.561 . S
C1374 C1371 1.526 . S
C1374 C1375 1.396 . S
C1374 C1379 1.390 . S
C1375 C1369 1.465 . S
C1375 C1374 1.396 . S
C1375 C1376 1.399 . S
C1376 H1362 0.929 . S
C1376 C1375 1.399 . S
C1376 C1377 1.385 . S
C1377 H1363 0.931 . S
C1377 C1376 1.385 . S
C1377 C1378 1.389 . S
C1378 C1377 1.389 . S
C1378 C1379 1.387 . S
C1379 H1364 0.930 . S
C1379 C1374 1.390 . S
C1379 C1378 1.387 . S
H1380 C1392 0.930 . S
H1381 C1394 0.930 . S
H1382 C1395 0.930 . S
H1383 C1399 0.959 . S
H1384 C1399 0.959 . S
H1385 C1399 0.961 . S
H1386 C1400 0.960 . S
H1387 C1400 0.961 . S
H1388 C1400 0.959 . S
H1389 C1403 0.929 . S
H1390 C1404 0.931 . S
H1391 C1406 0.930 . S
C1392 H1380 0.930 . S
C1392 C1393 1.399 . S
C1392 C1397 1.399 . S
C1393 C1392 1.399 . S
C1393 C1394 1.376 . S
C1394 H1381 0.930 . S
C1394 C1393 1.376 . S
C1394 C1395 1.388 . S
C1395 H1382 0.930 . S
C1395 C1394 1.388 . S
C1395 C1396 1.390 . S
C1396 C1395 1.390 . S
C1396 C1397 1.394 . S
C1396 C1402 1.465 . S
C1397 C1392 1.399 . S
C1397 C1396 1.394 . S
C1397 C1398 1.516 . S
C1398 C1397 1.516 . S
C1398 C1399 1.502 . S
C1398 C1400 1.561 . S
C1398 C1401 1.526 . S
C1399 H1383 0.959 . S
C1399 H1384 0.959 . S
C1399 H1385 0.961 . S
C1399 C1398 1.502 . S
C1400 H1386 0.960 . S
C1400 H1387 0.961 . S
C1400 H1388 0.959 . S
C1400 C1398 1.561 . S
C1401 C1398 1.526 . S
C1401 C1402 1.396 . S
C1401 C1406 1.390 . S
C1402 C1396 1.465 . S
C1402 C1401 1.396 . S
C1402 C1403 1.399 . S
C1403 H1389 0.929 . S
C1403 C1402 1.399 . S
C1403 C1404 1.385 . S
C1404 H1390 0.931 . S
C1404 C1403 1.385 . S
C1404 C1405 1.389 . S
C1405 C1404 1.389 . S
C1405 C1406 1.387 . S
C1406 H1391 0.930 . S
C1406 C1401 1.390 . S
C1406 C1405 1.387 . S
H1407 C1419 0.930 . S
H1408 C1421 0.930 . S
H1409 C1422 0.930 . S
H1410 C1426 0.959 . S
H1411 C1426 0.959 . S
H1412 C1426 0.961 . S
H1413 C1427 0.960 . S
H1414 C1427 0.961 . S
H1415 C1427 0.959 . S
H1416 C1430 0.929 . S
H1417 C1431 0.931 . S
H1418 C1433 0.930 . S
C1419 H1407 0.930 . S
C1419 C1420 1.399 . S
C1419 C1424 1.399 . S
C1420 C1419 1.399 . S
C1420 C1421 1.376 . S
C1421 H1408 0.930 . S
C1421 C1420 1.376 . S
C1421 C1422 1.388 . S
C1422 H1409 0.930 . S
C1422 C1421 1.388 . S
C1422 C1423 1.390 . S
C1423 C1422 1.390 . S
C1423 C1424 1.394 . S
C1423 C1429 1.465 . S
C1424 C1419 1.399 . S
C1424 C1423 1.394 . S
C1424 C1425 1.516 . S
C1425 C1424 1.516 . S
C1425 C1426 1.502 . S
C1425 C1427 1.561 . S
C1425 C1428 1.526 . S
C1426 H1410 0.959 . S
C1426 H1411 0.959 . S
C1426 H1412 0.961 . S
C1426 C1425 1.502 . S
C1427 H1413 0.960 . S
C1427 H1414 0.961 . S
C1427 H1415 0.959 . S
C1427 C1425 1.561 . S
C1428 C1425 1.526 . S
C1428 C1429 1.396 . S
C1428 C1433 1.390 . S
C1429 C1423 1.465 . S
C1429 C1428 1.396 . S
C1429 C1430 1.399 . S
C1430 H1416 0.929 . S
C1430 C1429 1.399 . S
C1430 C1431 1.385 . S
C1431 H1417 0.931 . S
C1431 C1430 1.385 . S
C1431 C1432 1.389 . S
C1432 C1431 1.389 . S
C1432 C1433 1.387 . S
C1433 H1418 0.930 . S
C1433 C1428 1.390 . S
C1433 C1432 1.387 . S
H1434 C1446 0.930 . S
H1435 C1448 0.930 . S
H1436 C1449 0.930 . S
H1437 C1453 0.959 . S
H1438 C1453 0.959 . S
H1439 C1453 0.961 . S
H1440 C1454 0.960 . S
H1441 C1454 0.961 . S
H1442 C1454 0.959 . S
H1443 C1457 0.929 . S
H1444 C1458 0.931 . S
H1445 C1460 0.930 . S
C1446 H1434 0.930 . S
C1446 C1447 1.399 . S
C1446 C1451 1.399 . S
C1447 C1446 1.399 . S
C1447 C1448 1.376 . S
C1448 H1435 0.930 . S
C1448 C1447 1.376 . S
C1448 C1449 1.388 . S
C1449 H1436 0.930 . S
C1449 C1448 1.388 . S
C1449 C1450 1.390 . S
C1450 C1449 1.390 . S
C1450 C1451 1.394 . S
C1450 C1456 1.465 . S
C1451 C1446 1.399 . S
C1451 C1450 1.394 . S
C1451 C1452 1.516 . S
C1452 C1451 1.516 . S
C1452 C1453 1.502 . S
C1452 C1454 1.561 . S
C1452 C1455 1.526 . S
C1453 H1437 0.959 . S
C1453 H1438 0.959 . S
C1453 H1439 0.961 . S
C1453 C1452 1.502 . S
C1454 H1440 0.960 . S
C1454 H1441 0.961 . S
C1454 H1442 0.959 . S
C1454 C1452 1.561 . S
C1455 C1452 1.526 . S
C1455 C1456 1.396 . S
C1455 C1460 1.390 . S
C1456 C1450 1.465 . S
C1456 C1455 1.396 . S
C1456 C1457 1.399 . S
C1457 H1443 0.929 . S
C1457 C1456 1.399 . S
C1457 C1458 1.385 . S
C1458 H1444 0.931 . S
C1458 C1457 1.385 . S
C1458 C1459 1.389 . S
C1459 C1458 1.389 . S
C1459 C1460 1.387 . S
C1460 H1445 0.930 . S
C1460 C1455 1.390 . S
C1460 C1459 1.387 . S
H1461 C1473 0.930 . S
H1462 C1475 0.930 . S
H1463 C1476 0.930 . S
H1464 C1480 0.959 . S
H1465 C1480 0.959 . S
H1466 C1480 0.961 . S
H1467 C1481 0.960 . S
H1468 C1481 0.961 . S
H1469 C1481 0.959 . S
H1470 C1484 0.929 . S
H1471 C1485 0.931 . S
H1472 C1487 0.930 . S
C1473 H1461 0.930 . S
C1473 C1474 1.399 . S
C1473 C1478 1.399 1_455 S
C1474 C1473 1.399 . S
C1474 C1475 1.376 . S
C1475 H1462 0.930 . S
C1475 C1474 1.376 . S
C1475 C1476 1.388 1_455 S
C1476 H1463 0.930 . S
C1476 C1475 1.388 1_655 S
C1476 C1477 1.390 . S
C1477 C1476 1.390 . S
C1477 C1478 1.394 . S
C1477 C1483 1.465 . S
C1478 C1473 1.399 1_655 S
C1478 C1477 1.394 . S
C1478 C1479 1.516 . S
C1479 C1478 1.516 . S
C1479 C1480 1.502 . S
C1479 C1481 1.561 . S
C1479 C1482 1.526 . S
C1480 H1464 0.959 . S
C1480 H1465 0.959 . S
C1480 H1466 0.961 . S
C1480 C1479 1.502 . S
C1481 H1467 0.960 . S
C1481 H1468 0.961 . S
C1481 H1469 0.959 . S
C1481 C1479 1.561 . S
C1482 C1479 1.526 . S
C1482 C1483 1.396 . S
C1482 C1487 1.390 . S
C1483 C1477 1.465 . S
C1483 C1482 1.396 . S
C1483 C1484 1.399 . S
C1484 H1470 0.929 . S
C1484 C1483 1.399 . S
C1484 C1485 1.385 . S
C1485 H1471 0.931 . S
C1485 C1484 1.385 . S
C1485 C1486 1.389 . S
C1486 C1485 1.389 . S
C1486 C1487 1.387 . S
C1487 H1472 0.930 . S
C1487 C1482 1.390 . S
C1487 C1486 1.387 . S
H1488 C1500 0.930 . S
H1489 C1502 0.930 . S
H1490 C1503 0.930 . S
H1491 C1507 0.959 . S
H1492 C1507 0.959 . S
H1493 C1507 0.961 . S
H1494 C1508 0.960 . S
H1495 C1508 0.961 . S
H1496 C1508 0.959 . S
H1497 C1511 0.929 . S
H1498 C1512 0.931 . S
H1499 C1514 0.930 . S
C1500 H1488 0.930 . S
C1500 C1501 1.399 . S
C1500 C1505 1.399 . S
C1501 C1500 1.399 . S
C1501 C1502 1.376 . S
C1502 H1489 0.930 . S
C1502 C1501 1.376 . S
C1502 C1503 1.388 . S
C1503 H1490 0.930 . S
C1503 C1502 1.388 . S
C1503 C1504 1.390 . S
C1504 C1503 1.390 . S
C1504 C1505 1.394 . S
C1504 C1510 1.465 . S
C1505 C1500 1.399 . S
C1505 C1504 1.394 . S
C1505 C1506 1.516 . S
C1506 C1505 1.516 . S
C1506 C1507 1.502 . S
C1506 C1508 1.561 . S
C1506 C1509 1.526 . S
C1507 H1491 0.959 . S
C1507 H1492 0.959 . S
C1507 H1493 0.961 . S
C1507 C1506 1.502 . S
C1508 H1494 0.960 . S
C1508 H1495 0.961 . S
C1508 H1496 0.959 . S
C1508 C1506 1.561 . S
C1509 C1506 1.526 . S
C1509 C1510 1.396 . S
C1509 C1514 1.390 . S
C1510 C1504 1.465 . S
C1510 C1509 1.396 . S
C1510 C1511 1.399 . S
C1511 H1497 0.929 . S
C1511 C1510 1.399 . S
C1511 C1512 1.385 . S
C1512 H1498 0.931 . S
C1512 C1511 1.385 . S
C1512 C1513 1.389 . S
C1513 C1512 1.389 . S
C1513 C1514 1.387 . S
C1514 H1499 0.930 . S
C1514 C1509 1.390 . S
C1514 C1513 1.387 . S
H1515 C1527 0.930 . S
H1516 C1529 0.930 . S
H1517 C1530 0.930 . S
H1518 C1534 0.959 . S
H1519 C1534 0.959 . S
H1520 C1534 0.961 . S
H1521 C1535 0.960 . S
H1522 C1535 0.961 . S
H1523 C1535 0.959 . S
H1524 C1538 0.929 . S
H1525 C1539 0.931 . S
H1526 C1541 0.930 . S
C1527 H1515 0.930 . S
C1527 C1528 1.399 . S
C1527 C1532 1.399 . S
C1528 C1527 1.399 . S
C1528 C1529 1.376 . S
C1529 H1516 0.930 . S
C1529 C1528 1.376 . S
C1529 C1530 1.388 . S
C1530 H1517 0.930 . S
C1530 C1529 1.388 . S
C1530 C1531 1.390 . S
C1531 C1530 1.390 . S
C1531 C1532 1.394 . S
C1531 C1537 1.465 . S
C1532 C1527 1.399 . S
C1532 C1531 1.394 . S
C1532 C1533 1.516 . S
C1533 C1532 1.516 . S
C1533 C1534 1.502 . S
C1533 C1535 1.561 . S
C1533 C1536 1.526 . S
C1534 H1518 0.959 . S
C1534 H1519 0.959 . S
C1534 H1520 0.961 . S
C1534 C1533 1.502 . S
C1535 H1521 0.960 . S
C1535 H1522 0.961 . S
C1535 H1523 0.959 . S
C1535 C1533 1.561 . S
C1536 C1533 1.526 . S
C1536 C1537 1.396 . S
C1536 C1541 1.390 . S
C1537 C1531 1.465 . S
C1537 C1536 1.396 . S
C1537 C1538 1.399 . S
C1538 H1524 0.929 . S
C1538 C1537 1.399 . S
C1538 C1539 1.385 . S
C1539 H1525 0.931 . S
C1539 C1538 1.385 . S
C1539 C1540 1.389 . S
C1540 C1539 1.389 . S
C1540 C1541 1.387 . S
C1541 H1526 0.930 . S
C1541 C1536 1.390 . S
C1541 C1540 1.387 . S
H1542 C1554 0.930 . S
H1543 C1556 0.930 . S
H1544 C1557 0.930 . S
H1545 C1561 0.959 . S
H1546 C1561 0.959 . S
H1547 C1561 0.961 . S
H1548 C1562 0.960 . S
H1549 C1562 0.961 . S
H1550 C1562 0.959 . S
H1551 C1565 0.929 . S
H1552 C1566 0.931 . S
H1553 C1568 0.930 . S
C1554 H1542 0.930 . S
C1554 C1555 1.399 . S
C1554 C1559 1.399 . S
C1555 C1554 1.399 . S
C1555 C1556 1.376 . S
C1556 H1543 0.930 . S
C1556 C1555 1.376 . S
C1556 C1557 1.388 . S
C1557 H1544 0.930 . S
C1557 C1556 1.388 . S
C1557 C1558 1.390 . S
C1558 C1557 1.390 . S
C1558 C1559 1.394 . S
C1558 C1564 1.465 . S
C1559 C1554 1.399 . S
C1559 C1558 1.394 . S
C1559 C1560 1.516 . S
C1560 C1559 1.516 . S
C1560 C1561 1.502 . S
C1560 C1562 1.561 . S
C1560 C1563 1.526 . S
C1561 H1545 0.959 . S
C1561 H1546 0.959 . S
C1561 H1547 0.961 . S
C1561 C1560 1.502 . S
C1562 H1548 0.960 . S
C1562 H1549 0.961 . S
C1562 H1550 0.959 . S
C1562 C1560 1.561 . S
C1563 C1560 1.526 . S
C1563 C1564 1.396 . S
C1563 C1568 1.390 . S
C1564 C1558 1.465 . S
C1564 C1563 1.396 . S
C1564 C1565 1.399 . S
C1565 H1551 0.929 . S
C1565 C1564 1.399 . S
C1565 C1566 1.385 . S
C1566 H1552 0.931 . S
C1566 C1565 1.385 . S
C1566 C1567 1.389 . S
C1567 C1566 1.389 . S
C1567 C1568 1.387 . S
C1568 H1553 0.930 . S
C1568 C1563 1.390 . S
C1568 C1567 1.387 . S
H1569 C1581 0.930 . S
H1570 C1583 0.930 . S
H1571 C1584 0.930 . S
H1572 C1588 0.959 . S
H1573 C1588 0.959 . S
H1574 C1588 0.961 . S
H1575 C1589 0.960 . S
H1576 C1589 0.961 1_455 S
H1577 C1589 0.958 . S
H1578 C1592 0.929 . S
H1579 C1593 0.931 . S
H1580 C1595 0.930 . S
C1581 H1569 0.930 . S
C1581 C1582 1.399 . S
C1581 C1586 1.399 . S
C1582 C1581 1.399 . S
C1582 C1583 1.376 . S
C1583 H1570 0.930 . S
C1583 C1582 1.376 . S
C1583 C1584 1.388 . S
C1584 H1571 0.930 . S
C1584 C1583 1.388 . S
C1584 C1585 1.390 . S
C1585 C1584 1.390 . S
C1585 C1586 1.394 . S
C1585 C1591 1.465 . S
C1586 C1581 1.399 . S
C1586 C1585 1.394 . S
C1586 C1587 1.516 . S
C1587 C1586 1.516 . S
C1587 C1588 1.502 . S
C1587 C1589 1.561 . S
C1587 C1590 1.526 . S
C1588 H1572 0.959 . S
C1588 H1573 0.959 . S
C1588 H1574 0.961 . S
C1588 C1587 1.502 . S
C1589 H1575 0.960 . S
C1589 H1576 0.961 1_655 S
C1589 H1577 0.958 . S
C1589 C1587 1.561 . S
C1590 C1587 1.526 . S
C1590 C1591 1.396 . S
C1590 C1595 1.390 1_655 S
C1591 C1585 1.465 . S
C1591 C1590 1.396 . S
C1591 C1592 1.399 . S
C1592 H1578 0.929 . S
C1592 C1591 1.399 . S
C1592 C1593 1.385 1_655 S
C1593 H1579 0.931 . S
C1593 C1592 1.385 1_455 S
C1593 C1594 1.389 . S
C1594 C1593 1.389 . S
C1594 C1595 1.387 . S
C1595 H1580 0.930 . S
C1595 C1590 1.390 1_455 S
C1595 C1594 1.387 . S
H1596 C1608 0.930 . S
H1597 C1610 0.930 . S
H1598 C1611 0.930 . S
H1599 C1615 0.959 . S
H1600 C1615 0.959 . S
H1601 C1615 0.961 . S
H1602 C1616 0.960 . S
H1603 C1616 0.961 . S
H1604 C1616 0.959 . S
H1605 C1619 0.929 . S
H1606 C1620 0.931 . S
H1607 C1622 0.930 . S
C1608 H1596 0.930 . S
C1608 C1609 1.399 . S
C1608 C1613 1.399 . S
C1609 C1608 1.399 . S
C1609 C1610 1.376 . S
C1610 H1597 0.930 . S
C1610 C1609 1.376 . S
C1610 C1611 1.388 . S
C1611 H1598 0.930 . S
C1611 C1610 1.388 . S
C1611 C1612 1.390 . S
C1612 C1611 1.390 . S
C1612 C1613 1.394 . S
C1612 C1618 1.465 . S
C1613 C1608 1.399 . S
C1613 C1612 1.394 . S
C1613 C1614 1.516 . S
C1614 C1613 1.516 . S
C1614 C1615 1.502 . S
C1614 C1616 1.561 . S
C1614 C1617 1.526 . S
C1615 H1599 0.959 . S
C1615 H1600 0.959 . S
C1615 H1601 0.961 . S
C1615 C1614 1.502 . S
C1616 H1602 0.960 . S
C1616 H1603 0.961 . S
C1616 H1604 0.959 . S
C1616 C1614 1.561 . S
C1617 C1614 1.526 . S
C1617 C1618 1.396 . S
C1617 C1622 1.390 . S
C1618 C1612 1.465 . S
C1618 C1617 1.396 . S
C1618 C1619 1.399 . S
C1619 H1605 0.929 . S
C1619 C1618 1.399 . S
C1619 C1620 1.385 . S
C1620 H1606 0.931 . S
C1620 C1619 1.385 . S
C1620 C1621 1.389 . S
C1621 C1620 1.389 . S
C1621 C1622 1.387 . S
C1622 H1607 0.930 . S
C1622 C1617 1.390 . S
C1622 C1621 1.387 . S
H1623 C1635 0.930 . S
H1624 C1637 0.930 . S
H1625 C1638 0.930 . S
H1626 C1642 0.959 . S
H1627 C1642 0.959 . S
H1628 C1642 0.961 . S
H1629 C1643 0.960 . S
H1630 C1643 0.961 . S
H1631 C1643 0.959 . S
H1632 C1646 0.929 . S
H1633 C1647 0.931 . S
H1634 C1649 0.930 . S
C1635 H1623 0.930 . S
C1635 C1636 1.399 1_655 S
C1635 C1640 1.399 . S
C1636 C1635 1.399 1_455 S
C1636 C1637 1.376 . S
C1637 H1624 0.930 . S
C1637 C1636 1.376 . S
C1637 C1638 1.388 . S
C1638 H1625 0.930 . S
C1638 C1637 1.388 . S
C1638 C1639 1.390 1_455 S
C1639 C1638 1.390 1_655 S
C1639 C1640 1.394 . S
C1639 C1645 1.465 . S
C1640 C1635 1.399 . S
C1640 C1639 1.394 . S
C1640 C1641 1.516 . S
C1641 C1640 1.516 . S
C1641 C1642 1.502 . S
C1641 C1643 1.561 . S
C1641 C1644 1.526 . S
C1642 H1626 0.959 . S
C1642 H1627 0.959 . S
C1642 H1628 0.961 . S
C1642 C1641 1.502 . S
C1643 H1629 0.960 . S
C1643 H1630 0.961 . S
C1643 H1631 0.959 . S
C1643 C1641 1.561 . S
C1644 C1641 1.526 . S
C1644 C1645 1.396 . S
C1644 C1649 1.390 . S
C1645 C1639 1.465 . S
C1645 C1644 1.396 . S
C1645 C1646 1.399 . S
C1646 H1632 0.929 . S
C1646 C1645 1.399 . S
C1646 C1647 1.385 . S
C1647 H1633 0.931 . S
C1647 C1646 1.385 . S
C1647 C1648 1.389 . S
C1648 C1647 1.389 . S
C1648 C1649 1.387 . S
C1649 H1634 0.930 . S
C1649 C1644 1.390 . S
C1649 C1648 1.387 . S
H1650 C1662 0.930 . S
H1651 C1664 0.930 . S
H1652 C1665 0.930 . S
H1653 C1669 0.959 . S
H1654 C1669 0.959 . S
H1655 C1669 0.961 . S
H1656 C1670 0.960 . S
H1657 C1670 0.961 . S
H1658 C1670 0.959 . S
H1659 C1673 0.929 . S
H1660 C1674 0.931 . S
H1661 C1676 0.930 . S
C1662 H1650 0.930 . S
C1662 C1663 1.399 . S
C1662 C1667 1.399 . S
C1663 C1662 1.399 . S
C1663 C1664 1.376 . S
C1664 H1651 0.930 . S
C1664 C1663 1.376 . S
C1664 C1665 1.388 . S
C1665 H1652 0.930 . S
C1665 C1664 1.388 . S
C1665 C1666 1.390 . S
C1666 C1665 1.390 . S
C1666 C1667 1.394 . S
C1666 C1672 1.465 . S
C1667 C1662 1.399 . S
C1667 C1666 1.394 . S
C1667 C1668 1.516 . S
C1668 C1667 1.516 . S
C1668 C1669 1.502 . S
C1668 C1670 1.561 . S
C1668 C1671 1.526 . S
C1669 H1653 0.959 . S
C1669 H1654 0.959 . S
C1669 H1655 0.961 . S
C1669 C1668 1.502 . S
C1670 H1656 0.960 . S
C1670 H1657 0.961 . S
C1670 H1658 0.959 . S
C1670 C1668 1.561 . S
C1671 C1668 1.526 . S
C1671 C1672 1.396 . S
C1671 C1676 1.390 . S
C1672 C1666 1.465 . S
C1672 C1671 1.396 . S
C1672 C1673 1.399 . S
C1673 H1659 0.929 . S
C1673 C1672 1.399 . S
C1673 C1674 1.385 . S
C1674 H1660 0.931 . S
C1674 C1673 1.385 . S
C1674 C1675 1.389 . S
C1675 C1674 1.389 . S
C1675 C1676 1.387 . S
C1676 H1661 0.930 . S
C1676 C1671 1.390 . S
C1676 C1675 1.387 . S
H1677 C1689 0.930 . S
H1678 C1691 0.930 . S
H1679 C1692 0.930 . S
H1680 C1696 0.959 . S
H1681 C1696 0.959 . S
H1682 C1696 0.961 . S
H1683 C1697 0.960 . S
H1684 C1697 0.961 . S
H1685 C1697 0.959 . S
H1686 C1700 0.929 . S
H1687 C1701 0.931 . S
H1688 C1703 0.930 . S
C1689 H1677 0.930 . S
C1689 C1690 1.399 . S
C1689 C1694 1.399 . S
C1690 C1689 1.399 . S
C1690 C1691 1.376 . S
C1691 H1678 0.930 . S
C1691 C1690 1.376 . S
C1691 C1692 1.388 . S
C1692 H1679 0.930 . S
C1692 C1691 1.388 . S
C1692 C1693 1.390 . S
C1693 C1692 1.390 . S
C1693 C1694 1.394 . S
C1693 C1699 1.465 . S
C1694 C1689 1.399 . S
C1694 C1693 1.394 . S
C1694 C1695 1.516 . S
C1695 C1694 1.516 . S
C1695 C1696 1.502 . S
C1695 C1697 1.561 . S
C1695 C1698 1.526 . S
C1696 H1680 0.959 . S
C1696 H1681 0.959 . S
C1696 H1682 0.961 . S
C1696 C1695 1.502 . S
C1697 H1683 0.960 . S
C1697 H1684 0.961 . S
C1697 H1685 0.959 . S
C1697 C1695 1.561 . S
C1698 C1695 1.526 . S
C1698 C1699 1.396 . S
C1698 C1703 1.390 . S
C1699 C1693 1.465 . S
C1699 C1698 1.396 . S
C1699 C1700 1.399 . S
C1700 H1686 0.929 . S
C1700 C1699 1.399 . S
C1700 C1701 1.385 . S
C1701 H1687 0.931 . S
C1701 C1700 1.385 . S
C1701 C1702 1.389 . S
C1702 C1701 1.389 . S
C1702 C1703 1.387 . S
C1703 H1688 0.930 . S
C1703 C1698 1.390 . S
C1703 C1702 1.387 . S
H1704 C1716 0.930 . S
H1705 C1718 0.930 . S
H1706 C1719 0.930 . S
H1707 C1723 0.959 . S
H1708 C1723 0.959 . S
H1709 C1723 0.961 . S
H1710 C1724 0.960 . S
H1711 C1724 0.961 . S
H1712 C1724 0.959 . S
H1713 C1727 0.929 . S
H1714 C1728 0.931 . S
H1715 C1730 0.930 . S
C1716 H1704 0.930 . S
C1716 C1717 1.399 . S
C1716 C1721 1.399 . S
C1717 C1716 1.399 . S
C1717 C1718 1.376 . S
C1718 H1705 0.930 . S
C1718 C1717 1.376 . S
C1718 C1719 1.388 . S
C1719 H1706 0.930 . S
C1719 C1718 1.388 . S
C1719 C1720 1.390 . S
C1720 C1719 1.390 . S
C1720 C1721 1.394 . S
C1720 C1726 1.465 . S
C1721 C1716 1.399 . S
C1721 C1720 1.394 . S
C1721 C1722 1.516 . S
C1722 C1721 1.516 . S
C1722 C1723 1.502 . S
C1722 C1724 1.561 . S
C1722 C1725 1.526 . S
C1723 H1707 0.959 . S
C1723 H1708 0.959 . S
C1723 H1709 0.961 . S
C1723 C1722 1.502 . S
C1724 H1710 0.960 . S
C1724 H1711 0.961 . S
C1724 H1712 0.959 . S
C1724 C1722 1.561 . S
C1725 C1722 1.526 . S
C1725 C1726 1.396 . S
C1725 C1730 1.390 . S
C1726 C1720 1.465 . S
C1726 C1725 1.396 . S
C1726 C1727 1.399 . S
C1727 H1713 0.929 . S
C1727 C1726 1.399 . S
C1727 C1728 1.385 . S
C1728 H1714 0.931 . S
C1728 C1727 1.385 . S
C1728 C1729 1.389 . S
C1729 C1728 1.389 . S
C1729 C1730 1.387 . S
C1730 H1715 0.930 . S
C1730 C1725 1.390 . S
C1730 C1729 1.387 . S
H1731 C1743 0.930 . S
H1732 C1745 0.930 . S
H1733 C1746 0.930 . S
H1734 C1750 0.959 . S
H1735 C1750 0.959 . S
H1736 C1750 0.961 . S
H1737 C1751 0.960 . S
H1738 C1751 0.961 . S
H1739 C1751 0.959 . S
H1740 C1754 0.929 . S
H1741 C1755 0.931 . S
H1742 C1757 0.930 . S
C1743 H1731 0.930 . S
C1743 C1744 1.399 . S
C1743 C1748 1.399 . S
C1744 C1743 1.399 . S
C1744 C1745 1.376 . S
C1745 H1732 0.930 . S
C1745 C1744 1.376 . S
C1745 C1746 1.388 . S
C1746 H1733 0.930 . S
C1746 C1745 1.388 . S
C1746 C1747 1.390 . S
C1747 C1746 1.390 . S
C1747 C1748 1.394 . S
C1747 C1753 1.465 . S
C1748 C1743 1.399 . S
C1748 C1747 1.394 . S
C1748 C1749 1.516 . S
C1749 C1748 1.516 . S
C1749 C1750 1.502 . S
C1749 C1751 1.561 . S
C1749 C1752 1.526 . S
C1750 H1734 0.959 . S
C1750 H1735 0.959 . S
C1750 H1736 0.961 . S
C1750 C1749 1.502 . S
C1751 H1737 0.960 . S
C1751 H1738 0.961 . S
C1751 H1739 0.959 . S
C1751 C1749 1.561 . S
C1752 C1749 1.526 . S
C1752 C1753 1.396 . S
C1752 C1757 1.390 . S
C1753 C1747 1.465 . S
C1753 C1752 1.396 . S
C1753 C1754 1.399 . S
C1754 H1740 0.929 . S
C1754 C1753 1.399 . S
C1754 C1755 1.385 . S
C1755 H1741 0.931 . S
C1755 C1754 1.385 . S
C1755 C1756 1.389 . S
C1756 C1755 1.389 . S
C1756 C1757 1.387 . S
C1757 H1742 0.930 . S
C1757 C1752 1.390 . S
C1757 C1756 1.387 . S
H1758 C1770 0.930 . S
H1759 C1772 0.930 . S
H1760 C1773 0.930 . S
H1761 C1777 0.959 . S
H1762 C1777 0.959 . S
H1763 C1777 0.961 . S
H1764 C1778 0.960 . S
H1765 C1778 0.961 . S
H1766 C1778 0.959 . S
H1767 C1781 0.929 . S
H1768 C1782 0.931 . S
H1769 C1784 0.930 . S
C1770 H1758 0.930 . S
C1770 C1771 1.399 . S
C1770 C1775 1.399 . S
C1771 C1770 1.399 . S
C1771 C1772 1.376 . S
C1772 H1759 0.930 . S
C1772 C1771 1.376 . S
C1772 C1773 1.388 . S
C1773 H1760 0.930 . S
C1773 C1772 1.388 . S
C1773 C1774 1.390 . S
C1774 C1773 1.390 . S
C1774 C1775 1.394 . S
C1774 C1780 1.465 . S
C1775 C1770 1.399 . S
C1775 C1774 1.394 . S
C1775 C1776 1.516 . S
C1776 C1775 1.516 . S
C1776 C1777 1.502 . S
C1776 C1778 1.561 . S
C1776 C1779 1.526 . S
C1777 H1761 0.959 . S
C1777 H1762 0.959 . S
C1777 H1763 0.961 . S
C1777 C1776 1.502 . S
C1778 H1764 0.960 . S
C1778 H1765 0.961 . S
C1778 H1766 0.959 . S
C1778 C1776 1.561 . S
C1779 C1776 1.526 . S
C1779 C1780 1.396 . S
C1779 C1784 1.390 . S
C1780 C1774 1.465 . S
C1780 C1779 1.396 . S
C1780 C1781 1.399 . S
C1781 H1767 0.929 . S
C1781 C1780 1.399 . S
C1781 C1782 1.385 . S
C1782 H1768 0.931 . S
C1782 C1781 1.385 . S
C1782 C1783 1.389 . S
C1783 C1782 1.389 . S
C1783 C1784 1.387 . S
C1784 H1769 0.930 . S
C1784 C1779 1.390 . S
C1784 C1783 1.387 . S
H1785 C1797 0.930 . S
H1786 C1799 0.930 . S
H1787 C1800 0.930 . S
H1788 C1804 0.959 . S
H1789 C1804 0.959 . S
H1790 C1804 0.961 . S
H1791 C1805 0.960 . S
H1792 C1805 0.961 . S
H1793 C1805 0.959 . S
H1794 C1808 0.929 . S
H1795 C1809 0.931 . S
H1796 C1811 0.930 . S
C1797 H1785 0.930 . S
C1797 C1798 1.399 . S
C1797 C1802 1.399 . S
C1798 C1797 1.399 . S
C1798 C1799 1.376 . S
C1799 H1786 0.930 . S
C1799 C1798 1.376 . S
C1799 C1800 1.388 . S
C1800 H1787 0.930 . S
C1800 C1799 1.388 . S
C1800 C1801 1.390 . S
C1801 C1800 1.390 . S
C1801 C1802 1.394 . S
C1801 C1807 1.465 . S
C1802 C1797 1.399 . S
C1802 C1801 1.394 . S
C1802 C1803 1.516 . S
C1803 C1802 1.516 . S
C1803 C1804 1.502 . S
C1803 C1805 1.561 . S
C1803 C1806 1.526 . S
C1804 H1788 0.959 . S
C1804 H1789 0.959 . S
C1804 H1790 0.961 . S
C1804 C1803 1.502 . S
C1805 H1791 0.960 . S
C1805 H1792 0.961 . S
C1805 H1793 0.959 . S
C1805 C1803 1.561 . S
C1806 C1803 1.526 . S
C1806 C1807 1.396 . S
C1806 C1811 1.390 1_455 S
C1807 C1801 1.465 . S
C1807 C1806 1.396 . S
C1807 C1808 1.399 . S
C1808 H1794 0.929 . S
C1808 C1807 1.399 . S
C1808 C1809 1.385 1_455 S
C1809 H1795 0.931 . S
C1809 C1808 1.385 1_655 S
C1809 C1810 1.389 . S
C1810 C1809 1.389 . S
C1810 C1811 1.387 . S
C1811 H1796 0.930 . S
C1811 C1806 1.390 1_655 S
C1811 C1810 1.387 . S
H1812 C1824 0.930 . S
H1813 C1826 0.930 . S
H1814 C1827 0.930 . S
H1815 C1831 0.959 . S
H1816 C1831 0.959 . S
H1817 C1831 0.961 . S
H1818 C1832 0.960 . S
H1819 C1832 0.961 . S
H1820 C1832 0.959 . S
H1821 C1835 0.929 . S
H1822 C1836 0.931 . S
H1823 C1838 0.930 . S
C1824 H1812 0.930 . S
C1824 C1825 1.399 . S
C1824 C1829 1.399 . S
C1825 C1824 1.399 . S
C1825 C1826 1.376 . S
C1826 H1813 0.930 . S
C1826 C1825 1.376 . S
C1826 C1827 1.388 . S
C1827 H1814 0.930 . S
C1827 C1826 1.388 . S
C1827 C1828 1.390 . S
C1828 C1827 1.390 . S
C1828 C1829 1.394 . S
C1828 C1834 1.465 . S
C1829 C1824 1.399 . S
C1829 C1828 1.394 . S
C1829 C1830 1.516 . S
C1830 C1829 1.516 . S
C1830 C1831 1.502 . S
C1830 C1832 1.561 . S
C1830 C1833 1.526 . S
C1831 H1815 0.959 . S
C1831 H1816 0.959 . S
C1831 H1817 0.961 . S
C1831 C1830 1.502 . S
C1832 H1818 0.960 . S
C1832 H1819 0.961 . S
C1832 H1820 0.959 . S
C1832 C1830 1.561 . S
C1833 C1830 1.526 . S
C1833 C1834 1.396 . S
C1833 C1838 1.390 . S
C1834 C1828 1.465 . S
C1834 C1833 1.396 . S
C1834 C1835 1.399 . S
C1835 H1821 0.929 . S
C1835 C1834 1.399 . S
C1835 C1836 1.385 . S
C1836 H1822 0.931 . S
C1836 C1835 1.385 . S
C1836 C1837 1.389 . S
C1837 C1836 1.389 . S
C1837 C1838 1.387 . S
C1838 H1823 0.930 . S
C1838 C1833 1.390 . S
C1838 C1837 1.387 . S
H1839 C1851 0.930 . S
H1840 C1853 0.930 . S
H1841 C1854 0.930 . S
H1842 C1858 0.959 . S
H1843 C1858 0.959 . S
H1844 C1858 0.961 . S
H1845 C1859 0.960 . S
H1846 C1859 0.961 . S
H1847 C1859 0.959 . S
H1848 C1862 0.929 . S
H1849 C1863 0.931 . S
H1850 C1865 0.930 . S
C1851 H1839 0.930 . S
C1851 C1852 1.399 . S
C1851 C1856 1.399 . S
C1852 C1851 1.399 . S
C1852 C1853 1.376 . S
C1853 H1840 0.930 . S
C1853 C1852 1.376 . S
C1853 C1854 1.388 . S
C1854 H1841 0.930 . S
C1854 C1853 1.388 . S
C1854 C1855 1.390 . S
C1855 C1854 1.390 . S
C1855 C1856 1.394 . S
C1855 C1861 1.465 . S
C1856 C1851 1.399 . S
C1856 C1855 1.394 . S
C1856 C1857 1.516 . S
C1857 C1856 1.516 . S
C1857 C1858 1.502 . S
C1857 C1859 1.561 . S
C1857 C1860 1.526 . S
C1858 H1842 0.959 . S
C1858 H1843 0.959 . S
C1858 H1844 0.961 . S
C1858 C1857 1.502 . S
C1859 H1845 0.960 . S
C1859 H1846 0.961 . S
C1859 H1847 0.959 . S
C1859 C1857 1.561 . S
C1860 C1857 1.526 . S
C1860 C1861 1.396 . S
C1860 C1865 1.390 1_455 S
C1861 C1855 1.465 . S
C1861 C1860 1.396 . S
C1861 C1862 1.399 . S
C1862 H1848 0.929 . S
C1862 C1861 1.399 . S
C1862 C1863 1.385 1_455 S
C1863 H1849 0.931 . S
C1863 C1862 1.385 1_655 S
C1863 C1864 1.389 . S
C1864 C1863 1.389 . S
C1864 C1865 1.387 . S
C1865 H1850 0.930 . S
C1865 C1860 1.390 1_655 S
C1865 C1864 1.387 . S
H1866 C1878 0.930 . S
H1867 C1880 0.930 . S
H1868 C1881 0.930 . S
H1869 C1885 0.959 . S
H1870 C1885 0.959 . S
H1871 C1885 0.961 . S
H1872 C1886 0.960 . S
H1873 C1886 0.961 . S
H1874 C1886 0.959 . S
H1875 C1889 0.929 . S
H1876 C1890 0.931 . S
H1877 C1892 0.930 . S
C1878 H1866 0.930 . S
C1878 C1879 1.399 . S
C1878 C1883 1.399 . S
C1879 C1878 1.399 . S
C1879 C1880 1.376 . S
C1880 H1867 0.930 . S
C1880 C1879 1.376 . S
C1880 C1881 1.388 . S
C1881 H1868 0.930 . S
C1881 C1880 1.388 . S
C1881 C1882 1.390 . S
C1882 C1881 1.390 . S
C1882 C1883 1.394 . S
C1882 C1888 1.465 . S
C1883 C1878 1.399 . S
C1883 C1882 1.394 . S
C1883 C1884 1.516 . S
C1884 C1883 1.516 . S
C1884 C1885 1.502 . S
C1884 C1886 1.561 . S
C1884 C1887 1.526 . S
C1885 H1869 0.959 . S
C1885 H1870 0.959 . S
C1885 H1871 0.961 . S
C1885 C1884 1.502 . S
C1886 H1872 0.960 . S
C1886 H1873 0.961 . S
C1886 H1874 0.959 . S
C1886 C1884 1.561 . S
C1887 C1884 1.526 . S
C1887 C1888 1.396 . S
C1887 C1892 1.390 . S
C1888 C1882 1.465 . S
C1888 C1887 1.396 . S
C1888 C1889 1.399 . S
C1889 H1875 0.929 . S
C1889 C1888 1.399 . S
C1889 C1890 1.385 . S
C1890 H1876 0.931 . S
C1890 C1889 1.385 . S
C1890 C1891 1.389 . S
C1891 C1890 1.389 . S
C1891 C1892 1.387 . S
C1892 H1877 0.930 . S
C1892 C1887 1.390 . S
C1892 C1891 1.387 . S
H1893 C1905 0.930 . S
H1894 C1907 0.930 . S
H1895 C1908 0.930 . S
H1896 C1912 0.959 . S
H1897 C1912 0.959 . S
H1898 C1912 0.961 . S
H1899 C1913 0.960 . S
H1900 C1913 0.961 . S
H1901 C1913 0.959 . S
H1902 C1916 0.929 . S
H1903 C1917 0.931 . S
H1904 C1919 0.930 . S
C1905 H1893 0.930 . S
C1905 C1906 1.399 . S
C1905 C1910 1.399 . S
C1906 C1905 1.399 . S
C1906 C1907 1.376 . S
C1907 H1894 0.930 . S
C1907 C1906 1.376 . S
C1907 C1908 1.388 . S
C1908 H1895 0.930 . S
C1908 C1907 1.388 . S
C1908 C1909 1.390 . S
C1909 C1908 1.390 . S
C1909 C1910 1.394 . S
C1909 C1915 1.465 . S
C1910 C1905 1.399 . S
C1910 C1909 1.394 . S
C1910 C1911 1.516 . S
C1911 C1910 1.516 . S
C1911 C1912 1.502 . S
C1911 C1913 1.561 . S
C1911 C1914 1.526 . S
C1912 H1896 0.959 . S
C1912 H1897 0.959 . S
C1912 H1898 0.961 . S
C1912 C1911 1.502 . S
C1913 H1899 0.960 . S
C1913 H1900 0.961 . S
C1913 H1901 0.959 . S
C1913 C1911 1.561 . S
C1914 C1911 1.526 . S
C1914 C1915 1.396 . S
C1914 C1919 1.390 . S
C1915 C1909 1.465 . S
C1915 C1914 1.396 . S
C1915 C1916 1.399 . S
C1916 H1902 0.929 . S
C1916 C1915 1.399 . S
C1916 C1917 1.385 . S
C1917 H1903 0.931 . S
C1917 C1916 1.385 . S
C1917 C1918 1.389 . S
C1918 C1917 1.389 . S
C1918 C1919 1.387 . S
C1919 H1904 0.930 . S
C1919 C1914 1.390 . S
C1919 C1918 1.387 . S
H1920 C1932 0.930 . S
H1921 C1934 0.930 . S
H1922 C1935 0.930 . S
H1923 C1939 0.959 . S
H1924 C1939 0.959 . S
H1925 C1939 0.961 . S
H1926 C1940 0.960 . S
H1927 C1940 0.961 . S
H1928 C1940 0.961 1_545 S
H1929 C1943 0.929 . S
H1930 C1944 0.931 . S
H1931 C1946 0.930 . S
C1932 H1920 0.930 . S
C1932 C1933 1.399 1_565 S
C1932 C1937 1.399 . S
C1933 C1932 1.399 1_545 S
C1933 C1934 1.376 . S
C1934 H1921 0.930 . S
C1934 C1933 1.376 . S
C1934 C1935 1.372 1_545 S
C1935 H1922 0.930 . S
C1935 C1934 1.372 1_565 S
C1935 C1936 1.407 . S
C1936 C1935 1.407 . S
C1936 C1937 1.394 . S
C1936 C1942 1.465 . S
C1937 C1932 1.399 . S
C1937 C1936 1.394 . S
C1937 C1938 1.516 . S
C1938 C1937 1.516 . S
C1938 C1939 1.502 . S
C1938 C1940 1.561 . S
C1938 C1941 1.526 . S
C1939 H1923 0.959 . S
C1939 H1924 0.959 . S
C1939 H1925 0.961 . S
C1939 C1938 1.502 . S
C1940 H1926 0.960 . S
C1940 H1927 0.961 . S
C1940 H1928 0.961 1_565 S
C1940 C1938 1.561 . S
C1941 C1938 1.526 . S
C1941 C1942 1.396 . S
C1941 C1946 1.390 . S
C1942 C1936 1.465 . S
C1942 C1941 1.396 . S
C1942 C1943 1.399 . S
C1943 H1929 0.929 . S
C1943 C1942 1.399 . S
C1943 C1944 1.385 . S
C1944 H1930 0.931 . S
C1944 C1943 1.385 . S
C1944 C1945 1.389 . S
C1945 C1944 1.389 . S
C1945 C1946 1.387 . S
C1946 H1931 0.930 . S
C1946 C1941 1.390 . S
C1946 C1945 1.387 . S
H1947 C1959 0.928 1_545 S
H1948 C1961 0.930 . S
H1949 C1962 0.930 . S
H1950 C1966 0.959 . S
H1951 C1966 0.959 . S
H1952 C1966 0.961 . S
H1953 C1967 0.960 . S
H1954 C1967 0.961 . S
H1955 C1967 0.959 . S
H1956 C1970 0.929 . S
H1957 C1971 0.931 . S
H1958 C1973 0.930 . S
C1959 H1947 0.928 1_565 S
C1959 C1960 1.399 1_565 S
C1959 C1964 1.399 . S
C1960 C1959 1.399 1_545 S
C1960 C1961 1.376 . S
C1961 H1948 0.930 . S
C1961 C1960 1.376 . S
C1961 C1962 1.388 1_545 S
C1962 H1949 0.930 . S
C1962 C1961 1.388 1_565 S
C1962 C1963 1.390 . S
C1963 C1962 1.390 . S
C1963 C1964 1.394 . S
C1963 C1969 1.465 . S
C1964 C1959 1.399 . S
C1964 C1963 1.394 . S
C1964 C1965 1.516 . S
C1965 C1964 1.516 . S
C1965 C1966 1.502 . S
C1965 C1967 1.561 . S
C1965 C1968 1.526 . S
C1966 H1950 0.959 . S
C1966 H1951 0.959 . S
C1966 H1952 0.961 . S
C1966 C1965 1.502 . S
C1967 H1953 0.960 . S
C1967 H1954 0.961 . S
C1967 H1955 0.959 . S
C1967 C1965 1.561 . S
C1968 C1965 1.526 . S
C1968 C1969 1.396 . S
C1968 C1973 1.390 . S
C1969 C1963 1.465 . S
C1969 C1968 1.396 . S
C1969 C1970 1.399 . S
C1970 H1956 0.929 . S
C1970 C1969 1.399 . S
C1970 C1971 1.385 . S
C1971 H1957 0.931 . S
C1971 C1970 1.385 . S
C1971 C1972 1.389 . S
C1972 C1971 1.389 . S
C1972 C1973 1.387 . S
C1973 H1958 0.930 . S
C1973 C1968 1.390 . S
C1973 C1972 1.387 . S
H1974 C1986 0.930 . S
H1975 C1988 0.930 . S
H1976 C1989 0.930 . S
H1977 C1993 0.959 . S
H1978 C1993 0.959 . S
H1979 C1993 0.961 . S
H1980 C1994 0.960 . S
H1981 C1994 0.961 . S
H1982 C1994 0.959 . S
H1983 C1997 0.929 . S
H1984 C1998 0.931 . S
H1985 C2000 0.930 . S
C1986 H1974 0.930 . S
C1986 C1987 1.399 . S
C1986 C1991 1.399 . S
C1987 C1986 1.399 . S
C1987 C1988 1.376 . S
C1988 H1975 0.930 . S
C1988 C1987 1.376 . S
C1988 C1989 1.388 . S
C1989 H1976 0.930 . S
C1989 C1988 1.388 . S
C1989 C1990 1.390 . S
C1990 C1989 1.390 . S
C1990 C1991 1.394 . S
C1990 C1996 1.465 . S
C1991 C1986 1.399 . S
C1991 C1990 1.394 . S
C1991 C1992 1.516 . S
C1992 C1991 1.516 . S
C1992 C1993 1.502 . S
C1992 C1994 1.561 . S
C1992 C1995 1.526 . S
C1993 H1977 0.959 . S
C1993 H1978 0.959 . S
C1993 H1979 0.961 . S
C1993 C1992 1.502 . S
C1994 H1980 0.960 . S
C1994 H1981 0.961 . S
C1994 H1982 0.959 . S
C1994 C1992 1.561 . S
C1995 C1992 1.526 . S
C1995 C1996 1.396 . S
C1995 C2000 1.390 . S
C1996 C1990 1.465 . S
C1996 C1995 1.396 . S
C1996 C1997 1.399 . S
C1997 H1983 0.929 . S
C1997 C1996 1.399 . S
C1997 C1998 1.385 1_545 S
C1998 H1984 0.931 . S
C1998 C1997 1.385 1_565 S
C1998 C1999 1.389 . S
C1999 C1998 1.389 . S
C1999 C2000 1.387 1_565 S
C2000 H1985 0.930 . S
C2000 C1995 1.390 . S
C2000 C1999 1.387 1_545 S
H2001 C2013 0.930 . S
H2002 C2015 0.930 . S
H2003 C2016 0.930 . S
H2004 C2020 0.959 . S
H2005 C2020 0.959 . S
H2006 C2020 0.961 . S
H2007 C2021 0.960 . S
H2008 C2021 0.961 . S
H2009 C2021 0.959 . S
H2010 C2024 0.929 . S
H2011 C2025 0.931 . S
H2012 C2027 0.930 . S
C2013 H2001 0.930 . S
C2013 C2014 1.399 . S
C2013 C2018 1.399 . S
C2014 C2013 1.399 . S
C2014 C2015 1.376 . S
C2015 H2002 0.930 . S
C2015 C2014 1.376 . S
C2015 C2016 1.388 . S
C2016 H2003 0.930 . S
C2016 C2015 1.388 . S
C2016 C2017 1.390 . S
C2017 C2016 1.390 . S
C2017 C2018 1.394 . S
C2017 C2023 1.465 . S
C2018 C2013 1.399 . S
C2018 C2017 1.394 . S
C2018 C2019 1.516 . S
C2019 C2018 1.516 . S
C2019 C2020 1.502 . S
C2019 C2021 1.561 . S
C2019 C2022 1.526 . S
C2020 H2004 0.959 . S
C2020 H2005 0.959 . S
C2020 H2006 0.961 . S
C2020 C2019 1.502 . S
C2021 H2007 0.960 . S
C2021 H2008 0.961 . S
C2021 H2009 0.959 . S
C2021 C2019 1.561 . S
C2022 C2019 1.526 . S
C2022 C2023 1.396 . S
C2022 C2027 1.390 . S
C2023 C2017 1.465 . S
C2023 C2022 1.396 . S
C2023 C2024 1.399 1_545 S
C2024 H2010 0.929 . S
C2024 C2023 1.399 1_565 S
C2024 C2025 1.385 . S
C2025 H2011 0.931 . S
C2025 C2024 1.385 . S
C2025 C2026 1.389 . S
C2026 C2025 1.389 . S
C2026 C2027 1.387 1_565 S
C2027 H2012 0.930 . S
C2027 C2022 1.390 . S
C2027 C2026 1.387 1_545 S
H2028 C2040 0.930 . S
H2029 C2042 0.930 1_565 S
H2030 C2043 0.930 . S
H2031 C2047 0.959 . S
H2032 C2047 0.959 . S
H2033 C2047 0.961 . S
H2034 C2048 0.960 . S
H2035 C2048 0.961 . S
H2036 C2048 0.959 . S
H2037 C2051 0.929 . S
H2038 C2052 0.931 . S
H2039 C2054 0.930 . S
C2040 H2028 0.930 . S
C2040 C2041 1.399 . S
C2040 C2045 1.399 1_565 S
C2041 C2040 1.399 . S
C2041 C2042 1.376 1_565 S
C2042 H2029 0.930 1_545 S
C2042 C2041 1.376 1_545 S
C2042 C2043 1.389 . S
C2043 H2030 0.930 . S
C2043 C2042 1.389 . S
C2043 C2044 1.390 . S
C2044 C2043 1.390 . S
C2044 C2045 1.394 . S
C2044 C2050 1.465 . S
C2045 C2040 1.399 1_545 S
C2045 C2044 1.394 . S
C2045 C2046 1.516 . S
C2046 C2045 1.516 . S
C2046 C2047 1.502 . S
C2046 C2048 1.561 1_545 S
C2046 C2049 1.526 . S
C2047 H2031 0.959 . S
C2047 H2032 0.959 . S
C2047 H2033 0.961 . S
C2047 C2046 1.502 . S
C2048 H2034 0.960 . S
C2048 H2035 0.961 . S
C2048 H2036 0.959 . S
C2048 C2046 1.561 1_565 S
C2049 C2046 1.526 . S
C2049 C2050 1.396 . S
C2049 C2054 1.390 . S
C2050 C2044 1.465 . S
C2050 C2049 1.396 . S
C2050 C2051 1.399 . S
C2051 H2037 0.929 . S
C2051 C2050 1.399 . S
C2051 C2052 1.385 . S
C2052 H2038 0.931 . S
C2052 C2051 1.385 . S
C2052 C2053 1.389 . S
C2053 C2052 1.389 . S
C2053 C2054 1.387 . S
C2054 H2039 0.930 . S
C2054 C2049 1.390 . S
C2054 C2053 1.387 . S
H2055 C2067 0.930 . S
H2056 C2069 0.930 . S
H2057 C2070 0.930 . S
H2058 C2074 0.959 . S
H2059 C2074 0.959 . S
H2060 C2074 0.961 . S
H2061 C2075 0.961 1_545 S
H2062 C2075 0.961 . S
H2063 C2075 0.959 . S
H2064 C2078 0.929 . S
H2065 C2079 0.935 . S
H2066 C2081 0.930 . S
C2067 H2055 0.930 . S
C2067 C2068 1.399 . S
C2067 C2072 1.399 . S
C2068 C2067 1.399 . S
C2068 C2069 1.376 . S
C2069 H2056 0.930 . S
C2069 C2068 1.376 . S
C2069 C2070 1.388 . S
C2070 H2057 0.930 . S
C2070 C2069 1.388 . S
C2070 C2071 1.390 . S
C2071 C2070 1.390 . S
C2071 C2072 1.394 . S
C2071 C2077 1.465 . S
C2072 C2067 1.399 . S
C2072 C2071 1.394 . S
C2072 C2073 1.516 . S
C2073 C2072 1.516 . S
C2073 C2074 1.502 . S
C2073 C2075 1.561 1_545 S
C2073 C2076 1.526 . S
C2074 H2058 0.959 . S
C2074 H2059 0.959 . S
C2074 H2060 0.961 . S
C2074 C2073 1.502 . S
C2075 H2061 0.961 1_565 S
C2075 H2062 0.961 . S
C2075 H2063 0.959 . S
C2075 C2073 1.561 1_565 S
C2076 C2073 1.526 . S
C2076 C2077 1.396 . S
C2076 C2081 1.390 1_545 S
C2077 C2071 1.465 . S
C2077 C2076 1.396 . S
C2077 C2078 1.399 . S
C2078 H2064 0.929 . S
C2078 C2077 1.399 . S
C2078 C2079 1.375 1_545 S
C2079 H2065 0.935 . S
C2079 C2078 1.375 1_565 S
C2079 C2080 1.396 . S
C2080 C2079 1.396 . S
C2080 C2081 1.387 . S
C2081 H2066 0.930 . S
C2081 C2076 1.390 1_565 S
C2081 C2080 1.387 . S
H2082 C2094 0.930 . S
H2083 C2096 0.930 . S
H2084 C2097 0.930 . S
H2085 C2101 0.959 . S
H2086 C2101 0.959 . S
H2087 C2101 0.961 . S
H2088 C2102 0.960 . S
H2089 C2102 0.961 . S
H2090 C2102 0.959 . S
H2091 C2105 0.929 . S
H2092 C2106 0.931 . S
H2093 C2108 0.930 . S
C2094 H2082 0.930 . S
C2094 C2095 1.399 1_565 S
C2094 C2099 1.399 . S
C2095 C2094 1.399 1_545 S
C2095 C2096 1.376 . S
C2096 H2083 0.930 . S
C2096 C2095 1.376 . S
C2096 C2097 1.388 . S
C2097 H2084 0.930 . S
C2097 C2096 1.388 . S
C2097 C2098 1.390 1_545 S
C2098 C2097 1.390 1_565 S
C2098 C2099 1.394 . S
C2098 C2104 1.465 . S
C2099 C2094 1.399 . S
C2099 C2098 1.394 . S
C2099 C2100 1.516 . S
C2100 C2099 1.516 . S
C2100 C2101 1.502 . S
C2100 C2102 1.561 . S
C2100 C2103 1.526 . S
C2101 H2085 0.959 . S
C2101 H2086 0.959 . S
C2101 H2087 0.961 . S
C2101 C2100 1.502 . S
C2102 H2088 0.960 . S
C2102 H2089 0.961 . S
C2102 H2090 0.959 . S
C2102 C2100 1.561 . S
C2103 C2100 1.526 . S
C2103 C2104 1.396 . S
C2103 C2108 1.390 . S
C2104 C2098 1.465 . S
C2104 C2103 1.396 . S
C2104 C2105 1.399 . S
C2105 H2091 0.929 . S
C2105 C2104 1.399 . S
C2105 C2106 1.385 . S
C2106 H2092 0.931 . S
C2106 C2105 1.385 . S
C2106 C2107 1.389 . S
C2107 C2106 1.389 . S
C2107 C2108 1.387 . S
C2108 H2093 0.930 . S
C2108 C2103 1.390 . S
C2108 C2107 1.387 . S
H2109 C2121 0.930 . S
H2110 C2123 0.930 . S
H2111 C2124 0.930 . S
H2112 C2128 0.959 . S
H2113 C2128 0.959 . S
H2114 C2128 0.961 . S
H2115 C2129 0.960 . S
H2116 C2129 0.961 1_545 S
H2117 C2129 0.959 . S
H2118 C2132 0.929 . S
H2119 C2133 0.931 . S
H2120 C2135 0.930 . S
C2121 H2109 0.930 . S
C2121 C2122 1.399 . S
C2121 C2126 1.399 . S
C2122 C2121 1.399 . S
C2122 C2123 1.376 . S
C2123 H2110 0.930 . S
C2123 C2122 1.376 . S
C2123 C2124 1.388 . S
C2124 H2111 0.930 . S
C2124 C2123 1.388 . S
C2124 C2125 1.390 . S
C2125 C2124 1.390 . S
C2125 C2126 1.394 . S
C2125 C2131 1.465 . S
C2126 C2121 1.399 . S
C2126 C2125 1.394 . S
C2126 C2127 1.516 . S
C2127 C2126 1.516 . S
C2127 C2128 1.502 1_565 S
C2127 C2129 1.561 . S
C2127 C2130 1.526 . S
C2128 H2112 0.959 . S
C2128 H2113 0.959 . S
C2128 H2114 0.961 . S
C2128 C2127 1.502 1_545 S
C2129 H2115 0.960 . S
C2129 H2116 0.961 1_565 S
C2129 H2117 0.959 . S
C2129 C2127 1.561 . S
C2130 C2127 1.526 . S
C2130 C2131 1.396 . S
C2130 C2135 1.390 1_565 S
C2131 C2125 1.465 . S
C2131 C2130 1.396 . S
C2131 C2132 1.399 . S
C2132 H2118 0.929 . S
C2132 C2131 1.399 . S
C2132 C2133 1.385 . S
C2133 H2119 0.931 . S
C2133 C2132 1.385 . S
C2133 C2134 1.389 1_565 S
C2134 C2133 1.389 1_545 S
C2134 C2135 1.387 . S
C2135 H2120 0.930 . S
C2135 C2130 1.390 1_545 S
C2135 C2134 1.387 . S
H2136 C2148 0.930 . S
H2137 C2150 0.930 . S
H2138 C2151 0.930 . S
H2139 C2155 0.959 . S
H2140 C2155 0.959 . S
H2141 C2155 0.961 . S
H2142 C2156 0.960 . S
H2143 C2156 0.961 . S
H2144 C2156 0.959 . S
H2145 C2159 0.929 . S
H2146 C2160 0.931 . S
H2147 C2162 0.930 . S
C2148 H2136 0.930 . S
C2148 C2149 1.399 . S
C2148 C2153 1.399 . S
C2149 C2148 1.399 . S
C2149 C2150 1.376 . S
C2150 H2137 0.930 . S
C2150 C2149 1.376 . S
C2150 C2151 1.388 . S
C2151 H2138 0.930 . S
C2151 C2150 1.388 . S
C2151 C2152 1.390 . S
C2152 C2151 1.390 . S
C2152 C2153 1.394 . S
C2152 C2158 1.465 . S
C2153 C2148 1.399 . S
C2153 C2152 1.394 . S
C2153 C2154 1.516 . S
C2154 C2153 1.516 . S
C2154 C2155 1.502 . S
C2154 C2156 1.561 . S
C2154 C2157 1.526 . S
C2155 H2139 0.959 . S
C2155 H2140 0.959 . S
C2155 H2141 0.961 . S
C2155 C2154 1.502 . S
C2156 H2142 0.960 . S
C2156 H2143 0.961 . S
C2156 H2144 0.959 . S
C2156 C2154 1.561 . S
C2157 C2154 1.526 . S
C2157 C2158 1.396 . S
C2157 C2162 1.390 . S
C2158 C2152 1.465 . S
C2158 C2157 1.396 . S
C2158 C2159 1.399 . S
C2159 H2145 0.929 . S
C2159 C2158 1.399 . S
C2159 C2160 1.385 . S
C2160 H2146 0.931 . S
C2160 C2159 1.385 . S
C2160 C2161 1.389 . S
C2161 C2160 1.389 . S
C2161 C2162 1.387 . S
C2162 H2147 0.930 . S
C2162 C2157 1.390 . S
C2162 C2161 1.387 . S
H2163 C2175 0.930 . S
H2164 C2177 0.930 . S
H2165 C2178 0.930 . S
H2166 C2182 0.959 . S
H2167 C2182 0.959 . S
H2168 C2182 0.961 . S
H2169 C2183 0.960 . S
H2170 C2183 0.961 . S
H2171 C2183 0.959 . S
H2172 C2186 0.929 . S
H2173 C2187 0.931 . S
H2174 C2189 0.930 . S
C2175 H2163 0.930 . S
C2175 C2176 1.399 . S
C2175 C2180 1.399 . S
C2176 C2175 1.399 . S
C2176 C2177 1.376 . S
C2177 H2164 0.930 . S
C2177 C2176 1.376 . S
C2177 C2178 1.388 . S
C2178 H2165 0.930 . S
C2178 C2177 1.388 . S
C2178 C2179 1.390 . S
C2179 C2178 1.390 . S
C2179 C2180 1.394 . S
C2179 C2185 1.465 . S
C2180 C2175 1.399 . S
C2180 C2179 1.394 . S
C2180 C2181 1.516 . S
C2181 C2180 1.516 . S
C2181 C2182 1.502 . S
C2181 C2183 1.561 . S
C2181 C2184 1.526 . S
C2182 H2166 0.959 . S
C2182 H2167 0.959 . S
C2182 H2168 0.961 . S
C2182 C2181 1.502 . S
C2183 H2169 0.960 . S
C2183 H2170 0.961 . S
C2183 H2171 0.959 . S
C2183 C2181 1.561 . S
C2184 C2181 1.526 . S
C2184 C2185 1.396 . S
C2184 C2189 1.390 . S
C2185 C2179 1.465 . S
C2185 C2184 1.396 . S
C2185 C2186 1.399 . S
C2186 H2172 0.929 . S
C2186 C2185 1.399 . S
C2186 C2187 1.385 . S
C2187 H2173 0.931 . S
C2187 C2186 1.385 . S
C2187 C2188 1.389 . S
C2188 C2187 1.389 . S
C2188 C2189 1.387 . S
C2189 H2174 0.930 . S
C2189 C2184 1.390 . S
C2189 C2188 1.387 . S
H2190 C2202 0.930 . S
H2191 C2204 0.930 . S
H2192 C2205 0.930 . S
H2193 C2209 0.959 . S
H2194 C2209 0.959 . S
H2195 C2209 0.961 . S
H2196 C2210 0.960 . S
H2197 C2210 0.961 . S
H2198 C2210 0.959 . S
H2199 C2213 0.929 . S
H2200 C2214 0.931 . S
H2201 C2216 0.930 . S
C2202 H2190 0.930 . S
C2202 C2203 1.399 . S
C2202 C2207 1.399 . S
C2203 C2202 1.399 . S
C2203 C2204 1.376 . S
C2204 H2191 0.930 . S
C2204 C2203 1.376 . S
C2204 C2205 1.388 . S
C2205 H2192 0.930 . S
C2205 C2204 1.388 . S
C2205 C2206 1.390 . S
C2206 C2205 1.390 . S
C2206 C2207 1.394 . S
C2206 C2212 1.465 . S
C2207 C2202 1.399 . S
C2207 C2206 1.394 . S
C2207 C2208 1.516 . S
C2208 C2207 1.516 . S
C2208 C2209 1.502 . S
C2208 C2210 1.561 . S
C2208 C2211 1.526 . S
C2209 H2193 0.959 . S
C2209 H2194 0.959 . S
C2209 H2195 0.961 . S
C2209 C2208 1.502 . S
C2210 H2196 0.960 . S
C2210 H2197 0.961 . S
C2210 H2198 0.959 . S
C2210 C2208 1.561 . S
C2211 C2208 1.526 . S
C2211 C2212 1.396 . S
C2211 C2216 1.390 . S
C2212 C2206 1.465 . S
C2212 C2211 1.396 . S
C2212 C2213 1.399 . S
C2213 H2199 0.929 . S
C2213 C2212 1.399 . S
C2213 C2214 1.385 . S
C2214 H2200 0.931 . S
C2214 C2213 1.385 . S
C2214 C2215 1.389 . S
C2215 C2214 1.389 . S
C2215 C2216 1.387 . S
C2216 H2201 0.930 . S
C2216 C2211 1.390 . S
C2216 C2215 1.387 . S
H2217 C2229 0.930 . S
H2218 C2231 0.930 . S
H2219 C2232 0.930 . S
H2220 C2236 0.959 . S
H2221 C2236 0.959 . S
H2222 C2236 0.961 . S
H2223 C2237 0.960 . S
H2224 C2237 0.961 . S
H2225 C2237 0.959 . S
H2226 C2240 0.929 . S
H2227 C2241 0.931 . S
H2228 C2243 0.930 . S
C2229 H2217 0.930 . S
C2229 C2230 1.399 . S
C2229 C2234 1.399 . S
C2230 C2229 1.399 . S
C2230 C2231 1.376 . S
C2231 H2218 0.930 . S
C2231 C2230 1.376 . S
C2231 C2232 1.388 . S
C2232 H2219 0.930 . S
C2232 C2231 1.388 . S
C2232 C2233 1.390 . S
C2233 C2232 1.390 . S
C2233 C2234 1.394 . S
C2233 C2239 1.465 . S
C2234 C2229 1.399 . S
C2234 C2233 1.394 . S
C2234 C2235 1.516 . S
C2235 C2234 1.516 . S
C2235 C2236 1.502 . S
C2235 C2237 1.561 . S
C2235 C2238 1.526 . S
C2236 H2220 0.959 . S
C2236 H2221 0.959 . S
C2236 H2222 0.961 . S
C2236 C2235 1.502 . S
C2237 H2223 0.960 . S
C2237 H2224 0.961 . S
C2237 H2225 0.959 . S
C2237 C2235 1.561 . S
C2238 C2235 1.526 . S
C2238 C2239 1.396 . S
C2238 C2243 1.390 . S
C2239 C2233 1.465 . S
C2239 C2238 1.396 . S
C2239 C2240 1.399 . S
C2240 H2226 0.929 . S
C2240 C2239 1.399 . S
C2240 C2241 1.385 . S
C2241 H2227 0.931 . S
C2241 C2240 1.385 . S
C2241 C2242 1.389 . S
C2242 C2241 1.389 . S
C2242 C2243 1.387 . S
C2243 H2228 0.930 . S
C2243 C2238 1.390 . S
C2243 C2242 1.387 . S
H2244 C2256 0.930 . S
H2245 C2258 0.930 . S
H2246 C2259 0.930 . S
H2247 C2263 0.959 . S
H2248 C2263 0.959 . S
H2249 C2263 0.961 . S
H2250 C2264 0.960 . S
H2251 C2264 0.961 . S
H2252 C2264 0.959 . S
H2253 C2267 0.929 . S
H2254 C2268 0.931 . S
H2255 C2270 0.930 . S
C2256 H2244 0.930 . S
C2256 C2257 1.399 . S
C2256 C2261 1.399 . S
C2257 C2256 1.399 . S
C2257 C2258 1.376 . S
C2258 H2245 0.930 . S
C2258 C2257 1.376 . S
C2258 C2259 1.388 . S
C2259 H2246 0.930 . S
C2259 C2258 1.388 . S
C2259 C2260 1.390 . S
C2260 C2259 1.390 . S
C2260 C2261 1.394 . S
C2260 C2266 1.465 . S
C2261 C2256 1.399 . S
C2261 C2260 1.394 . S
C2261 C2262 1.516 . S
C2262 C2261 1.516 . S
C2262 C2263 1.502 . S
C2262 C2264 1.561 . S
C2262 C2265 1.526 . S
C2263 H2247 0.959 . S
C2263 H2248 0.959 . S
C2263 H2249 0.961 . S
C2263 C2262 1.502 . S
C2264 H2250 0.960 . S
C2264 H2251 0.961 . S
C2264 H2252 0.959 . S
C2264 C2262 1.561 . S
C2265 C2262 1.526 . S
C2265 C2266 1.396 . S
C2265 C2270 1.390 . S
C2266 C2260 1.465 . S
C2266 C2265 1.396 . S
C2266 C2267 1.399 . S
C2267 H2253 0.929 . S
C2267 C2266 1.399 . S
C2267 C2268 1.385 . S
C2268 H2254 0.931 . S
C2268 C2267 1.385 . S
C2268 C2269 1.389 . S
C2269 C2268 1.389 . S
C2269 C2270 1.387 . S
C2270 H2255 0.930 . S
C2270 C2265 1.390 . S
C2270 C2269 1.387 . S
H2271 C2283 0.930 . S
H2272 C2285 0.930 . S
H2273 C2286 0.930 . S
H2274 C2290 0.959 . S
H2275 C2290 0.959 . S
H2276 C2290 0.961 . S
H2277 C2291 0.960 . S
H2278 C2291 0.961 . S
H2279 C2291 0.959 . S
H2280 C2294 0.929 . S
H2281 C2295 0.931 . S
H2282 C2297 0.930 . S
C2283 H2271 0.930 . S
C2283 C2284 1.399 . S
C2283 C2288 1.399 . S
C2284 C2283 1.399 . S
C2284 C2285 1.376 . S
C2285 H2272 0.930 . S
C2285 C2284 1.376 . S
C2285 C2286 1.388 . S
C2286 H2273 0.930 . S
C2286 C2285 1.388 . S
C2286 C2287 1.390 . S
C2287 C2286 1.390 . S
C2287 C2288 1.394 . S
C2287 C2293 1.465 . S
C2288 C2283 1.399 . S
C2288 C2287 1.394 . S
C2288 C2289 1.516 . S
C2289 C2288 1.516 . S
C2289 C2290 1.502 . S
C2289 C2291 1.561 . S
C2289 C2292 1.526 . S
C2290 H2274 0.959 . S
C2290 H2275 0.959 . S
C2290 H2276 0.961 . S
C2290 C2289 1.502 . S
C2291 H2277 0.960 . S
C2291 H2278 0.961 . S
C2291 H2279 0.959 . S
C2291 C2289 1.561 . S
C2292 C2289 1.526 . S
C2292 C2293 1.396 . S
C2292 C2297 1.390 . S
C2293 C2287 1.465 . S
C2293 C2292 1.396 . S
C2293 C2294 1.399 . S
C2294 H2280 0.929 . S
C2294 C2293 1.399 . S
C2294 C2295 1.385 . S
C2295 H2281 0.931 . S
C2295 C2294 1.385 . S
C2295 C2296 1.389 . S
C2296 C2295 1.389 . S
C2296 C2297 1.387 . S
C2297 H2282 0.930 . S
C2297 C2292 1.390 . S
C2297 C2296 1.387 . S
H2298 C2310 0.930 . S
H2299 C2312 0.930 . S
H2300 C2313 0.930 . S
H2301 C2317 0.959 . S
H2302 C2317 0.959 . S
H2303 C2317 0.961 . S
H2304 C2318 0.960 . S
H2305 C2318 0.961 . S
H2306 C2318 0.959 . S
H2307 C2321 0.929 . S
H2308 C2322 0.931 . S
H2309 C2324 0.930 . S
C2310 H2298 0.930 . S
C2310 C2311 1.399 . S
C2310 C2315 1.399 . S
C2311 C2310 1.399 . S
C2311 C2312 1.376 . S
C2312 H2299 0.930 . S
C2312 C2311 1.376 . S
C2312 C2313 1.388 . S
C2313 H2300 0.930 . S
C2313 C2312 1.388 . S
C2313 C2314 1.390 . S
C2314 C2313 1.390 . S
C2314 C2315 1.394 . S
C2314 C2320 1.465 . S
C2315 C2310 1.399 . S
C2315 C2314 1.394 . S
C2315 C2316 1.516 . S
C2316 C2315 1.516 . S
C2316 C2317 1.502 . S
C2316 C2318 1.561 . S
C2316 C2319 1.526 . S
C2317 H2301 0.959 . S
C2317 H2302 0.959 . S
C2317 H2303 0.961 . S
C2317 C2316 1.502 . S
C2318 H2304 0.960 . S
C2318 H2305 0.961 . S
C2318 H2306 0.959 . S
C2318 C2316 1.561 . S
C2319 C2316 1.526 . S
C2319 C2320 1.396 . S
C2319 C2324 1.390 . S
C2320 C2314 1.465 . S
C2320 C2319 1.396 . S
C2320 C2321 1.399 . S
C2321 H2307 0.929 . S
C2321 C2320 1.399 . S
C2321 C2322 1.385 . S
C2322 H2308 0.931 . S
C2322 C2321 1.385 . S
C2322 C2323 1.389 . S
C2323 C2322 1.389 . S
C2323 C2324 1.387 . S
C2324 H2309 0.930 . S
C2324 C2319 1.390 . S
C2324 C2323 1.387 . S
H2325 C2337 0.930 . S
H2326 C2339 0.930 . S
H2327 C2340 0.930 . S
H2328 C2344 0.959 . S
H2329 C2344 0.959 . S
H2330 C2344 0.961 . S
H2331 C2345 0.960 . S
H2332 C2345 0.961 . S
H2333 C2345 0.959 . S
H2334 C2348 0.929 . S
H2335 C2349 0.931 . S
H2336 C2351 0.930 . S
C2337 H2325 0.930 . S
C2337 C2338 1.399 . S
C2337 C2342 1.399 . S
C2338 C2337 1.399 . S
C2338 C2339 1.376 . S
C2339 H2326 0.930 . S
C2339 C2338 1.376 . S
C2339 C2340 1.388 . S
C2340 H2327 0.930 . S
C2340 C2339 1.388 . S
C2340 C2341 1.390 . S
C2341 C2340 1.390 . S
C2341 C2342 1.394 . S
C2341 C2347 1.465 . S
C2342 C2337 1.399 . S
C2342 C2341 1.394 . S
C2342 C2343 1.516 . S
C2343 C2342 1.516 . S
C2343 C2344 1.502 . S
C2343 C2345 1.561 . S
C2343 C2346 1.526 . S
C2344 H2328 0.959 . S
C2344 H2329 0.959 . S
C2344 H2330 0.961 . S
C2344 C2343 1.502 . S
C2345 H2331 0.960 . S
C2345 H2332 0.961 . S
C2345 H2333 0.959 . S
C2345 C2343 1.561 . S
C2346 C2343 1.526 . S
C2346 C2347 1.396 . S
C2346 C2351 1.390 . S
C2347 C2341 1.465 . S
C2347 C2346 1.396 . S
C2347 C2348 1.399 . S
C2348 H2334 0.929 . S
C2348 C2347 1.399 . S
C2348 C2349 1.385 . S
C2349 H2335 0.931 . S
C2349 C2348 1.385 . S
C2349 C2350 1.389 . S
C2350 C2349 1.389 . S
C2350 C2351 1.387 . S
C2351 H2336 0.930 . S
C2351 C2346 1.390 . S
C2351 C2350 1.387 . S
H2352 C2364 0.930 . S
H2353 C2366 0.930 . S
H2354 C2367 0.930 . S
H2355 C2371 0.959 . S
H2356 C2371 0.959 . S
H2357 C2371 0.961 . S
H2358 C2372 0.960 . S
H2359 C2372 0.961 . S
H2360 C2372 0.959 . S
H2361 C2375 0.929 1_545 S
H2362 C2376 0.931 . S
H2363 C2378 0.930 . S
C2364 H2352 0.930 . S
C2364 C2365 1.399 . S
C2364 C2369 1.399 . S
C2365 C2364 1.399 . S
C2365 C2366 1.376 . S
C2366 H2353 0.930 . S
C2366 C2365 1.376 . S
C2366 C2367 1.388 . S
C2367 H2354 0.930 . S
C2367 C2366 1.388 . S
C2367 C2368 1.390 . S
C2368 C2367 1.390 . S
C2368 C2369 1.394 . S
C2368 C2374 1.465 1_545 S
C2369 C2364 1.399 . S
C2369 C2368 1.394 . S
C2369 C2370 1.516 1_545 S
C2370 C2369 1.516 1_565 S
C2370 C2371 1.502 . S
C2370 C2372 1.561 . S
C2370 C2373 1.526 . S
C2371 H2355 0.959 . S
C2371 H2356 0.959 . S
C2371 H2357 0.961 . S
C2371 C2370 1.502 . S
C2372 H2358 0.960 . S
C2372 H2359 0.961 . S
C2372 H2360 0.959 . S
C2372 C2370 1.561 . S
C2373 C2370 1.526 . S
C2373 C2374 1.396 . S
C2373 C2378 1.390 . S
C2374 C2368 1.465 1_565 S
C2374 C2373 1.396 . S
C2374 C2375 1.399 . S
C2375 H2361 0.929 1_565 S
C2375 C2374 1.399 . S
C2375 C2376 1.385 . S
C2376 H2362 0.931 . S
C2376 C2375 1.385 . S
C2376 C2377 1.389 . S
C2377 C2376 1.389 . S
C2377 C2378 1.387 . S
C2378 H2363 0.930 . S
C2378 C2373 1.390 . S
C2378 C2377 1.387 . S
H2379 C2391 0.930 . S
H2380 C2393 0.930 . S
H2381 C2394 0.930 . S
H2382 C2398 0.959 . S
H2383 C2398 0.959 . S
H2384 C2398 0.961 . S
H2385 C2399 0.960 . S
H2386 C2399 0.961 . S
H2387 C2399 0.959 . S
H2388 C2402 0.929 . S
H2389 C2403 0.931 . S
H2390 C2405 0.930 . S
C2391 H2379 0.930 . S
C2391 C2392 1.399 . S
C2391 C2396 1.399 . S
C2392 C2391 1.399 . S
C2392 C2393 1.376 . S
C2393 H2380 0.930 . S
C2393 C2392 1.376 . S
C2393 C2394 1.388 . S
C2394 H2381 0.930 . S
C2394 C2393 1.388 . S
C2394 C2395 1.390 . S
C2395 C2394 1.390 . S
C2395 C2396 1.394 . S
C2395 C2401 1.465 . S
C2396 C2391 1.399 . S
C2396 C2395 1.394 . S
C2396 C2397 1.516 . S
C2397 C2396 1.516 . S
C2397 C2398 1.502 . S
C2397 C2399 1.561 . S
C2397 C2400 1.526 . S
C2398 H2382 0.959 . S
C2398 H2383 0.959 . S
C2398 H2384 0.961 . S
C2398 C2397 1.502 . S
C2399 H2385 0.960 . S
C2399 H2386 0.961 . S
C2399 H2387 0.959 . S
C2399 C2397 1.561 . S
C2400 C2397 1.526 . S
C2400 C2401 1.396 . S
C2400 C2405 1.390 . S
C2401 C2395 1.465 . S
C2401 C2400 1.396 . S
C2401 C2402 1.399 . S
C2402 H2388 0.929 . S
C2402 C2401 1.399 . S
C2402 C2403 1.385 . S
C2403 H2389 0.931 . S
C2403 C2402 1.385 . S
C2403 C2404 1.389 . S
C2404 C2403 1.389 . S
C2404 C2405 1.387 . S
C2405 H2390 0.930 . S
C2405 C2400 1.390 . S
C2405 C2404 1.387 . S
H2406 C2418 0.930 . S
H2407 C2420 0.930 . S
H2408 C2421 0.930 1_565 S
H2409 C2425 0.959 . S
H2410 C2425 0.959 . S
H2411 C2425 0.961 . S
H2412 C2426 0.960 . S
H2413 C2426 0.961 . S
H2414 C2426 0.959 . S
H2415 C2429 0.929 . S
H2416 C2430 0.931 . S
H2417 C2432 0.930 . S
C2418 H2406 0.930 . S
C2418 C2419 1.399 . S
C2418 C2423 1.399 . S
C2419 C2418 1.399 . S
C2419 C2420 1.376 . S
C2420 H2407 0.930 . S
C2420 C2419 1.376 . S
C2420 C2421 1.388 . S
C2421 H2408 0.930 1_545 S
C2421 C2420 1.388 . S
C2421 C2422 1.390 . S
C2422 C2421 1.390 . S
C2422 C2423 1.394 . S
C2422 C2428 1.465 1_545 S
C2423 C2418 1.399 . S
C2423 C2422 1.394 . S
C2423 C2424 1.516 . S
C2424 C2423 1.516 . S
C2424 C2425 1.502 . S
C2424 C2426 1.561 . S
C2424 C2427 1.526 1_545 S
C2425 H2409 0.959 . S
C2425 H2410 0.959 . S
C2425 H2411 0.961 . S
C2425 C2424 1.502 . S
C2426 H2412 0.960 . S
C2426 H2413 0.961 . S
C2426 H2414 0.959 . S
C2426 C2424 1.561 . S
C2427 C2424 1.526 1_565 S
C2427 C2428 1.396 . S
C2427 C2432 1.390 . S
C2428 C2422 1.465 1_565 S
C2428 C2427 1.396 . S
C2428 C2429 1.399 . S
C2429 H2415 0.929 . S
C2429 C2428 1.399 . S
C2429 C2430 1.385 . S
C2430 H2416 0.931 . S
C2430 C2429 1.385 . S
C2430 C2431 1.389 . S
C2431 C2430 1.389 . S
C2431 C2432 1.387 . S
C2432 H2417 0.930 . S
C2432 C2427 1.390 . S
C2432 C2431 1.387 . S
H2433 C2445 0.930 . S
H2434 C2447 0.930 . S
H2435 C2448 0.930 . S
H2436 C2452 0.959 . S
H2437 C2452 0.959 . S
H2438 C2452 0.961 . S
H2439 C2453 0.960 . S
H2440 C2453 0.961 . S
H2441 C2453 0.959 . S
H2442 C2456 0.929 . S
H2443 C2457 0.931 . S
H2444 C2459 0.930 . S
C2445 H2433 0.930 . S
C2445 C2446 1.399 . S
C2445 C2450 1.399 . S
C2446 C2445 1.399 . S
C2446 C2447 1.376 . S
C2447 H2434 0.930 . S
C2447 C2446 1.376 . S
C2447 C2448 1.388 . S
C2448 H2435 0.930 . S
C2448 C2447 1.388 . S
C2448 C2449 1.390 . S
C2449 C2448 1.390 . S
C2449 C2450 1.394 . S
C2449 C2455 1.465 1_556 S
C2450 C2445 1.399 . S
C2450 C2449 1.394 . S
C2450 C2451 1.513 1_556 S
C2451 C2450 1.513 1_554 S
C2451 C2452 1.498 1_554 S
C2451 C2453 1.565 . S
C2451 C2454 1.529 . S
C2452 H2436 0.959 . S
C2452 H2437 0.959 . S
C2452 H2438 0.961 . S
C2452 C2451 1.498 1_556 S
C2453 H2439 0.960 . S
C2453 H2440 0.961 . S
C2453 H2441 0.959 . S
C2453 C2451 1.565 . S
C2454 C2451 1.529 . S
C2454 C2455 1.396 . S
C2454 C2459 1.390 . S
C2455 C2449 1.465 1_554 S
C2455 C2454 1.396 . S
C2455 C2456 1.399 . S
C2456 H2442 0.929 . S
C2456 C2455 1.399 . S
C2456 C2457 1.385 . S
C2457 H2443 0.931 . S
C2457 C2456 1.385 . S
C2457 C2458 1.389 . S
C2458 C2457 1.389 . S
C2458 C2459 1.387 . S
C2459 H2444 0.930 . S
C2459 C2454 1.390 . S
C2459 C2458 1.387 . S
H2460 C2472 0.930 . S
H2461 C2474 0.930 . S
H2462 C2475 0.930 . S
H2463 C2479 0.959 . S
H2464 C2479 0.959 . S
H2465 C2479 0.961 . S
H2466 C2480 0.960 . S
H2467 C2480 0.961 . S
H2468 C2480 0.959 . S
H2469 C2483 0.929 1_565 S
H2470 C2484 0.931 . S
H2471 C2486 0.930 . S
C2472 H2460 0.930 . S
C2472 C2473 1.399 . S
C2472 C2477 1.399 . S
C2473 C2472 1.399 . S
C2473 C2474 1.376 . S
C2474 H2461 0.930 . S
C2474 C2473 1.376 . S
C2474 C2475 1.388 . S
C2475 H2462 0.930 . S
C2475 C2474 1.388 . S
C2475 C2476 1.390 . S
C2476 C2475 1.390 . S
C2476 C2477 1.394 . S
C2476 C2482 1.465 1_565 S
C2477 C2472 1.399 . S
C2477 C2476 1.394 . S
C2477 C2478 1.516 1_565 S
C2478 C2477 1.516 1_545 S
C2478 C2479 1.502 . S
C2478 C2480 1.561 . S
C2478 C2481 1.526 . S
C2479 H2463 0.959 . S
C2479 H2464 0.959 . S
C2479 H2465 0.961 . S
C2479 C2478 1.502 . S
C2480 H2466 0.960 . S
C2480 H2467 0.961 . S
C2480 H2468 0.959 . S
C2480 C2478 1.561 . S
C2481 C2478 1.526 . S
C2481 C2482 1.396 . S
C2481 C2486 1.390 . S
C2482 C2476 1.465 1_545 S
C2482 C2481 1.396 . S
C2482 C2483 1.399 . S
C2483 H2469 0.929 1_545 S
C2483 C2482 1.399 . S
C2483 C2484 1.385 . S
C2484 H2470 0.931 . S
C2484 C2483 1.385 . S
C2484 C2485 1.389 . S
C2485 C2484 1.389 . S
C2485 C2486 1.387 . S
C2486 H2471 0.930 . S
C2486 C2481 1.390 . S
C2486 C2485 1.387 . S
H2487 C2499 0.930 . S
H2488 C2501 0.930 . S
H2489 C2502 0.930 . S
H2490 C2506 0.959 . S
H2491 C2506 0.959 . S
H2492 C2506 0.961 . S
H2493 C2507 0.960 . S
H2494 C2507 0.961 . S
H2495 C2507 0.959 . S
H2496 C2510 0.929 . S
H2497 C2511 0.931 . S
H2498 C2513 0.930 . S
C2499 H2487 0.930 . S
C2499 C2500 1.399 . S
C2499 C2504 1.399 . S
C2500 C2499 1.399 . S
C2500 C2501 1.376 . S
C2501 H2488 0.930 . S
C2501 C2500 1.376 . S
C2501 C2502 1.388 . S
C2502 H2489 0.930 . S
C2502 C2501 1.388 . S
C2502 C2503 1.390 . S
C2503 C2502 1.390 . S
C2503 C2504 1.394 . S
C2503 C2509 1.465 . S
C2504 C2499 1.399 . S
C2504 C2503 1.394 . S
C2504 C2505 1.516 . S
C2505 C2504 1.516 . S
C2505 C2506 1.502 . S
C2505 C2507 1.561 . S
C2505 C2508 1.526 . S
C2506 H2490 0.959 . S
C2506 H2491 0.959 . S
C2506 H2492 0.961 . S
C2506 C2505 1.502 . S
C2507 H2493 0.960 . S
C2507 H2494 0.961 . S
C2507 H2495 0.959 . S
C2507 C2505 1.561 . S
C2508 C2505 1.526 . S
C2508 C2509 1.396 . S
C2508 C2513 1.390 . S
C2509 C2503 1.465 . S
C2509 C2508 1.396 . S
C2509 C2510 1.399 . S
C2510 H2496 0.929 . S
C2510 C2509 1.399 . S
C2510 C2511 1.385 . S
C2511 H2497 0.931 . S
C2511 C2510 1.385 . S
C2511 C2512 1.389 . S
C2512 C2511 1.389 . S
C2512 C2513 1.387 . S
C2513 H2498 0.930 . S
C2513 C2508 1.390 . S
C2513 C2512 1.387 . S
H2514 C2526 0.930 . S
H2515 C2528 0.930 . S
H2516 C2529 0.930 . S
H2517 C2533 0.959 . S
H2518 C2533 0.959 . S
H2519 C2533 0.961 . S
H2520 C2534 0.960 . S
H2521 C2534 0.961 . S
H2522 C2534 0.959 . S
H2523 C2537 0.929 1_545 S
H2524 C2538 0.931 . S
H2525 C2540 0.930 . S
C2526 H2514 0.930 . S
C2526 C2527 1.399 . S
C2526 C2531 1.399 . S
C2527 C2526 1.399 . S
C2527 C2528 1.376 . S
C2528 H2515 0.930 . S
C2528 C2527 1.376 . S
C2528 C2529 1.388 . S
C2529 H2516 0.930 . S
C2529 C2528 1.388 . S
C2529 C2530 1.390 . S
C2530 C2529 1.390 . S
C2530 C2531 1.394 . S
C2530 C2536 1.465 1_545 S
C2531 C2526 1.399 . S
C2531 C2530 1.394 . S
C2531 C2532 1.516 1_545 S
C2532 C2531 1.516 1_565 S
C2532 C2533 1.502 . S
C2532 C2534 1.561 . S
C2532 C2535 1.526 . S
C2533 H2517 0.959 . S
C2533 H2518 0.959 . S
C2533 H2519 0.961 . S
C2533 C2532 1.502 . S
C2534 H2520 0.960 . S
C2534 H2521 0.961 . S
C2534 H2522 0.959 . S
C2534 C2532 1.561 . S
C2535 C2532 1.526 . S
C2535 C2536 1.396 . S
C2535 C2540 1.390 . S
C2536 C2530 1.465 1_565 S
C2536 C2535 1.396 . S
C2536 C2537 1.399 . S
C2537 H2523 0.929 1_565 S
C2537 C2536 1.399 . S
C2537 C2538 1.385 . S
C2538 H2524 0.931 . S
C2538 C2537 1.385 . S
C2538 C2539 1.389 . S
C2539 C2538 1.389 . S
C2539 C2540 1.387 . S
C2540 H2525 0.930 . S
C2540 C2535 1.390 . S
C2540 C2539 1.387 . S
H2541 C2553 0.930 . S
H2542 C2555 0.930 . S
H2543 C2556 0.897 1_556 S
H2544 C2560 0.959 1_556 S
H2545 C2560 0.959 . S
H2546 C2560 0.961 . S
H2547 C2561 0.960 . S
H2548 C2561 0.961 . S
H2549 C2561 0.959 . S
H2550 C2564 0.929 . S
H2551 C2565 0.931 . S
H2552 C2567 0.930 . S
C2553 H2541 0.930 . S
C2553 C2554 1.399 . S
C2553 C2558 1.399 . S
C2554 C2553 1.399 . S
C2554 C2555 1.376 . S
C2555 H2542 0.930 . S
C2555 C2554 1.376 . S
C2555 C2556 1.388 . S
C2556 H2543 0.897 1_554 S
C2556 C2555 1.388 . S
C2556 C2557 1.390 . S
C2557 C2556 1.390 . S
C2557 C2558 1.394 . S
C2557 C2563 1.465 1_554 S
C2558 C2553 1.399 . S
C2558 C2557 1.394 . S
C2558 C2559 1.516 . S
C2559 C2558 1.516 . S
C2559 C2560 1.502 . S
C2559 C2561 1.561 . S
C2559 C2562 1.526 1_554 S
C2560 H2544 0.959 1_554 S
C2560 H2545 0.959 . S
C2560 H2546 0.961 . S
C2560 C2559 1.502 . S
C2561 H2547 0.960 . S
C2561 H2548 0.961 . S
C2561 H2549 0.959 . S
C2561 C2559 1.561 . S
C2562 C2559 1.526 1_556 S
C2562 C2563 1.396 . S
C2562 C2567 1.390 . S
C2563 C2557 1.465 1_556 S
C2563 C2562 1.396 . S
C2563 C2564 1.399 . S
C2564 H2550 0.929 . S
C2564 C2563 1.399 . S
C2564 C2565 1.385 . S
C2565 H2551 0.931 . S
C2565 C2564 1.385 . S
C2565 C2566 1.389 . S
C2566 C2565 1.389 . S
C2566 C2567 1.387 . S
C2567 H2552 0.930 . S
C2567 C2562 1.390 . S
C2567 C2566 1.387 . S
H2568 C2580 0.930 . S
H2569 C2582 0.930 . S
H2570 C2583 0.930 . S
H2571 C2587 0.959 . S
H2572 C2587 0.959 . S
H2573 C2587 0.961 . S
H2574 C2588 0.960 . S
H2575 C2588 0.961 . S
H2576 C2588 0.959 . S
H2577 C2591 0.929 . S
H2578 C2592 0.931 . S
H2579 C2594 0.930 . S
C2580 H2568 0.930 . S
C2580 C2581 1.399 . S
C2580 C2585 1.399 . S
C2581 C2580 1.399 . S
C2581 C2582 1.376 . S
C2582 H2569 0.930 . S
C2582 C2581 1.376 . S
C2582 C2583 1.388 . S
C2583 H2570 0.930 . S
C2583 C2582 1.388 . S
C2583 C2584 1.390 . S
C2584 C2583 1.390 . S
C2584 C2585 1.394 . S
C2584 C2590 1.465 . S
C2585 C2580 1.399 . S
C2585 C2584 1.394 . S
C2585 C2586 1.516 . S
C2586 C2585 1.516 . S
C2586 C2587 1.502 . S
C2586 C2588 1.561 . S
C2586 C2589 1.526 . S
C2587 H2571 0.959 . S
C2587 H2572 0.959 . S
C2587 H2573 0.961 . S
C2587 C2586 1.502 . S
C2588 H2574 0.960 . S
C2588 H2575 0.961 . S
C2588 H2576 0.959 . S
C2588 C2586 1.561 . S
C2589 C2586 1.526 . S
C2589 C2590 1.396 . S
C2589 C2594 1.390 . S
C2590 C2584 1.465 . S
C2590 C2589 1.396 . S
C2590 C2591 1.399 . S
C2591 H2577 0.929 . S
C2591 C2590 1.399 . S
C2591 C2592 1.385 . S
C2592 H2578 0.931 . S
C2592 C2591 1.385 . S
C2592 C2593 1.389 . S
C2593 C2592 1.389 . S
C2593 C2594 1.387 . S
C2594 H2579 0.930 . S
C2594 C2589 1.390 . S
C2594 C2593 1.387 . S
H2595 C2607 0.930 . S
H2596 C2609 0.930 . S
H2597 C2610 0.900 1_556 S
H2598 C2614 0.959 . S
H2599 C2614 0.959 . S
H2600 C2614 0.961 . S
H2601 C2615 0.960 1_554 S
H2602 C2615 0.961 . S
H2603 C2615 0.959 . S
H2604 C2618 0.929 . S
H2605 C2619 0.931 . S
H2606 C2621 0.930 . S
C2607 H2595 0.930 . S
C2607 C2608 1.399 . S
C2607 C2612 1.399 . S
C2608 C2607 1.399 . S
C2608 C2609 1.376 . S
C2609 H2596 0.930 . S
C2609 C2608 1.376 . S
C2609 C2610 1.388 . S
C2610 H2597 0.900 1_554 S
C2610 C2609 1.388 . S
C2610 C2611 1.390 . S
C2611 C2610 1.390 . S
C2611 C2612 1.394 . S
C2611 C2617 1.465 1_554 S
C2612 C2607 1.399 . S
C2612 C2611 1.394 . S
C2612 C2613 1.516 . S
C2613 C2612 1.516 . S
C2613 C2614 1.502 . S
C2613 C2615 1.561 1_554 S
C2613 C2616 1.526 1_554 S
C2614 H2598 0.959 . S
C2614 H2599 0.959 . S
C2614 H2600 0.961 . S
C2614 C2613 1.502 . S
C2615 H2601 0.960 1_556 S
C2615 H2602 0.961 . S
C2615 H2603 0.959 . S
C2615 C2613 1.561 1_556 S
C2616 C2613 1.526 1_556 S
C2616 C2617 1.396 . S
C2616 C2621 1.390 . S
C2617 C2611 1.465 1_556 S
C2617 C2616 1.396 . S
C2617 C2618 1.399 . S
C2618 H2604 0.929 . S
C2618 C2617 1.399 . S
C2618 C2619 1.385 . S
C2619 H2605 0.931 . S
C2619 C2618 1.385 . S
C2619 C2620 1.389 . S
C2620 C2619 1.389 . S
C2620 C2621 1.387 . S
C2621 H2606 0.930 . S
C2621 C2616 1.390 . S
C2621 C2620 1.387 . S
H2622 C2634 0.930 . S
H2623 C2636 0.930 . S
H2624 C2637 0.930 . S
H2625 C2641 0.959 . S
H2626 C2641 0.959 . S
H2627 C2641 0.961 . S
H2628 C2642 0.960 . S
H2629 C2642 0.961 . S
H2630 C2642 0.959 . S
H2631 C2645 0.929 . S
H2632 C2646 0.931 . S
H2633 C2648 0.930 . S
C2634 H2622 0.930 . S
C2634 C2635 1.399 . S
C2634 C2639 1.399 . S
C2635 C2634 1.399 . S
C2635 C2636 1.376 . S
C2636 H2623 0.930 . S
C2636 C2635 1.376 . S
C2636 C2637 1.388 . S
C2637 H2624 0.930 . S
C2637 C2636 1.388 . S
C2637 C2638 1.390 . S
C2638 C2637 1.390 . S
C2638 C2639 1.394 . S
C2638 C2644 1.465 . S
C2639 C2634 1.399 . S
C2639 C2638 1.394 . S
C2639 C2640 1.516 . S
C2640 C2639 1.516 . S
C2640 C2641 1.502 . S
C2640 C2642 1.561 . S
C2640 C2643 1.526 . S
C2641 H2625 0.959 . S
C2641 H2626 0.959 . S
C2641 H2627 0.961 . S
C2641 C2640 1.502 . S
C2642 H2628 0.960 . S
C2642 H2629 0.961 . S
C2642 H2630 0.959 . S
C2642 C2640 1.561 . S
C2643 C2640 1.526 . S
C2643 C2644 1.396 . S
C2643 C2648 1.390 . S
C2644 C2638 1.465 . S
C2644 C2643 1.396 . S
C2644 C2645 1.399 . S
C2645 H2631 0.929 . S
C2645 C2644 1.399 . S
C2645 C2646 1.385 . S
C2646 H2632 0.931 . S
C2646 C2645 1.385 . S
C2646 C2647 1.389 . S
C2647 C2646 1.389 . S
C2647 C2648 1.387 . S
C2648 H2633 0.930 . S
C2648 C2643 1.390 . S
C2648 C2647 1.387 . S
H2649 C2661 0.930 . S
H2650 C2663 0.930 . S
H2651 C2664 0.930 . S
H2652 C2668 0.959 . S
H2653 C2668 0.959 . S
H2654 C2668 0.961 . S
H2655 C2669 0.960 . S
H2656 C2669 0.961 . S
H2657 C2669 0.959 . S
H2658 C2672 0.929 . S
H2659 C2673 0.931 . S
H2660 C2675 0.930 . S
C2661 H2649 0.930 . S
C2661 C2662 1.399 . S
C2661 C2666 1.399 . S
C2662 C2661 1.399 . S
C2662 C2663 1.376 . S
C2663 H2650 0.930 . S
C2663 C2662 1.376 . S
C2663 C2664 1.388 . S
C2664 H2651 0.930 . S
C2664 C2663 1.388 . S
C2664 C2665 1.390 . S
C2665 C2664 1.390 . S
C2665 C2666 1.394 . S
C2665 C2671 1.465 . S
C2666 C2661 1.399 . S
C2666 C2665 1.394 . S
C2666 C2667 1.516 . S
C2667 C2666 1.516 . S
C2667 C2668 1.502 . S
C2667 C2669 1.561 . S
C2667 C2670 1.526 . S
C2668 H2652 0.959 . S
C2668 H2653 0.959 . S
C2668 H2654 0.961 . S
C2668 C2667 1.502 . S
C2669 H2655 0.960 . S
C2669 H2656 0.961 . S
C2669 H2657 0.959 . S
C2669 C2667 1.561 . S
C2670 C2667 1.526 . S
C2670 C2671 1.396 . S
C2670 C2675 1.390 . S
C2671 C2665 1.465 . S
C2671 C2670 1.396 . S
C2671 C2672 1.399 . S
C2672 H2658 0.929 . S
C2672 C2671 1.399 . S
C2672 C2673 1.385 . S
C2673 H2659 0.931 . S
C2673 C2672 1.385 . S
C2673 C2674 1.389 . S
C2674 C2673 1.389 . S
C2674 C2675 1.387 . S
C2675 H2660 0.930 . S
C2675 C2670 1.390 . S
C2675 C2674 1.387 . S
H2676 C2688 0.930 . S
H2677 C2690 0.930 . S
H2678 C2691 0.930 . S
H2679 C2695 0.959 . S
H2680 C2695 0.959 . S
H2681 C2695 0.961 . S
H2682 C2696 0.960 . S
H2683 C2696 0.961 . S
H2684 C2696 0.959 . S
H2685 C2699 0.929 . S
H2686 C2700 0.931 . S
H2687 C2702 0.930 . S
C2688 H2676 0.930 . S
C2688 C2689 1.399 . S
C2688 C2693 1.399 . S
C2689 C2688 1.399 . S
C2689 C2690 1.376 . S
C2690 H2677 0.930 . S
C2690 C2689 1.376 . S
C2690 C2691 1.388 . S
C2691 H2678 0.930 . S
C2691 C2690 1.388 . S
C2691 C2692 1.390 . S
C2692 C2691 1.390 . S
C2692 C2693 1.394 . S
C2692 C2698 1.465 . S
C2693 C2688 1.399 . S
C2693 C2692 1.394 . S
C2693 C2694 1.516 . S
C2694 C2693 1.516 . S
C2694 C2695 1.502 . S
C2694 C2696 1.561 . S
C2694 C2697 1.526 . S
C2695 H2679 0.959 . S
C2695 H2680 0.959 . S
C2695 H2681 0.961 . S
C2695 C2694 1.502 . S
C2696 H2682 0.960 . S
C2696 H2683 0.961 . S
C2696 H2684 0.959 . S
C2696 C2694 1.561 . S
C2697 C2694 1.526 . S
C2697 C2698 1.396 . S
C2697 C2702 1.390 . S
C2698 C2692 1.465 . S
C2698 C2697 1.396 . S
C2698 C2699 1.399 . S
C2699 H2685 0.929 . S
C2699 C2698 1.399 . S
C2699 C2700 1.385 . S
C2700 H2686 0.931 . S
C2700 C2699 1.385 . S
C2700 C2701 1.389 . S
C2701 C2700 1.389 . S
C2701 C2702 1.387 . S
C2702 H2687 0.930 . S
C2702 C2697 1.390 . S
C2702 C2701 1.387 . S
H2703 C2715 0.930 . S
H2704 C2717 0.930 . S
H2705 C2718 0.930 . S
H2706 C2722 0.959 . S
H2707 C2722 0.959 . S
H2708 C2722 0.961 . S
H2709 C2723 0.960 1_556 S
H2710 C2723 0.961 . S
H2711 C2723 0.959 . S
H2712 C2726 0.929 . S
H2713 C2727 0.931 . S
H2714 C2729 0.930 . S
C2715 H2703 0.930 . S
C2715 C2716 1.399 . S
C2715 C2720 1.399 . S
C2716 C2715 1.399 . S
C2716 C2717 1.376 . S
C2717 H2704 0.930 . S
C2717 C2716 1.376 . S
C2717 C2718 1.388 . S
C2718 H2705 0.930 . S
C2718 C2717 1.388 . S
C2718 C2719 1.390 . S
C2719 C2718 1.390 . S
C2719 C2720 1.394 . S
C2719 C2725 1.465 1_556 S
C2720 C2715 1.399 . S
C2720 C2719 1.394 . S
C2720 C2721 1.516 . S
C2721 C2720 1.516 . S
C2721 C2722 1.502 . S
C2721 C2723 1.561 1_556 S
C2721 C2724 1.526 1_556 S
C2722 H2706 0.959 . S
C2722 H2707 0.959 . S
C2722 H2708 0.961 . S
C2722 C2721 1.502 . S
C2723 H2709 0.960 1_554 S
C2723 H2710 0.961 . S
C2723 H2711 0.959 . S
C2723 C2721 1.561 1_554 S
C2724 C2721 1.526 1_554 S
C2724 C2725 1.396 . S
C2724 C2729 1.390 . S
C2725 C2719 1.465 1_554 S
C2725 C2724 1.396 . S
C2725 C2726 1.399 . S
C2726 H2712 0.929 . S
C2726 C2725 1.399 . S
C2726 C2727 1.385 . S
C2727 H2713 0.931 . S
C2727 C2726 1.385 . S
C2727 C2728 1.389 . S
C2728 C2727 1.389 . S
C2728 C2729 1.387 . S
C2729 H2714 0.930 . S
C2729 C2724 1.390 . S
C2729 C2728 1.387 . S
H2730 C2742 0.930 . S
H2731 C2744 0.930 . S
H2732 C2745 0.930 . S
H2733 C2749 0.959 . S
H2734 C2749 0.959 . S
H2735 C2749 0.961 . S
H2736 C2750 0.960 . S
H2737 C2750 0.961 . S
H2738 C2750 0.959 . S
H2739 C2753 0.929 . S
H2740 C2754 0.931 . S
H2741 C2756 0.930 . S
C2742 H2730 0.930 . S
C2742 C2743 1.399 . S
C2742 C2747 1.399 . S
C2743 C2742 1.399 . S
C2743 C2744 1.376 . S
C2744 H2731 0.930 . S
C2744 C2743 1.376 . S
C2744 C2745 1.388 . S
C2745 H2732 0.930 . S
C2745 C2744 1.388 . S
C2745 C2746 1.390 . S
C2746 C2745 1.390 . S
C2746 C2747 1.394 . S
C2746 C2752 1.465 . S
C2747 C2742 1.399 . S
C2747 C2746 1.394 . S
C2747 C2748 1.516 . S
C2748 C2747 1.516 . S
C2748 C2749 1.502 . S
C2748 C2750 1.561 . S
C2748 C2751 1.526 . S
C2749 H2733 0.959 . S
C2749 H2734 0.959 . S
C2749 H2735 0.961 . S
C2749 C2748 1.502 . S
C2750 H2736 0.960 . S
C2750 H2737 0.961 . S
C2750 H2738 0.959 . S
C2750 C2748 1.561 . S
C2751 C2748 1.526 . S
C2751 C2752 1.396 . S
C2751 C2756 1.390 . S
C2752 C2746 1.465 . S
C2752 C2751 1.396 . S
C2752 C2753 1.399 . S
C2753 H2739 0.929 . S
C2753 C2752 1.399 . S
C2753 C2754 1.385 . S
C2754 H2740 0.931 . S
C2754 C2753 1.385 . S
C2754 C2755 1.389 . S
C2755 C2754 1.389 . S
C2755 C2756 1.387 . S
C2756 H2741 0.930 . S
C2756 C2751 1.390 . S
C2756 C2755 1.387 . S
H2757 C2769 0.930 . S
H2758 C2771 0.930 . S
H2759 C2772 0.930 . S
H2760 C2776 0.959 . S
H2761 C2776 0.959 . S
H2762 C2776 0.961 . S
H2763 C2777 0.960 . S
H2764 C2777 0.961 . S
H2765 C2777 0.959 . S
H2766 C2780 0.929 . S
H2767 C2781 0.931 . S
H2768 C2783 0.930 . S
C2769 H2757 0.930 . S
C2769 C2770 1.399 . S
C2769 C2774 1.399 . S
C2770 C2769 1.399 . S
C2770 C2771 1.376 . S
C2771 H2758 0.930 . S
C2771 C2770 1.376 . S
C2771 C2772 1.388 . S
C2772 H2759 0.930 . S
C2772 C2771 1.388 . S
C2772 C2773 1.390 . S
C2773 C2772 1.390 . S
C2773 C2774 1.394 . S
C2773 C2779 1.465 . S
C2774 C2769 1.399 . S
C2774 C2773 1.394 . S
C2774 C2775 1.516 . S
C2775 C2774 1.516 . S
C2775 C2776 1.502 . S
C2775 C2777 1.561 . S
C2775 C2778 1.526 . S
C2776 H2760 0.959 . S
C2776 H2761 0.959 . S
C2776 H2762 0.961 . S
C2776 C2775 1.502 . S
C2777 H2763 0.960 . S
C2777 H2764 0.961 . S
C2777 H2765 0.959 . S
C2777 C2775 1.561 . S
C2778 C2775 1.526 . S
C2778 C2779 1.396 . S
C2778 C2783 1.390 . S
C2779 C2773 1.465 . S
C2779 C2778 1.396 . S
C2779 C2780 1.399 . S
C2780 H2766 0.929 . S
C2780 C2779 1.399 . S
C2780 C2781 1.385 . S
C2781 H2767 0.931 . S
C2781 C2780 1.385 . S
C2781 C2782 1.389 . S
C2782 C2781 1.389 . S
C2782 C2783 1.387 . S
C2783 H2768 0.930 . S
C2783 C2778 1.390 . S
C2783 C2782 1.387 . S
H2784 C2796 0.930 . S
H2785 C2798 0.930 . S
H2786 C2799 0.930 . S
H2787 C2803 0.959 . S
H2788 C2803 0.959 . S
H2789 C2803 0.961 . S
H2790 C2804 0.960 . S
H2791 C2804 0.961 . S
H2792 C2804 0.959 . S
H2793 C2807 0.929 . S
H2794 C2808 0.931 . S
H2795 C2810 0.930 . S
C2796 H2784 0.930 . S
C2796 C2797 1.399 . S
C2796 C2801 1.399 . S
C2797 C2796 1.399 . S
C2797 C2798 1.376 . S
C2798 H2785 0.930 . S
C2798 C2797 1.376 . S
C2798 C2799 1.388 . S
C2799 H2786 0.930 . S
C2799 C2798 1.388 . S
C2799 C2800 1.390 . S
C2800 C2799 1.390 . S
C2800 C2801 1.394 . S
C2800 C2806 1.465 1_455 S
C2801 C2796 1.399 . S
C2801 C2800 1.394 . S
C2801 C2802 1.516 . S
C2802 C2801 1.516 . S
C2802 C2803 1.502 . S
C2802 C2804 1.561 1_455 S
C2802 C2805 1.526 1_455 S
C2803 H2787 0.959 . S
C2803 H2788 0.959 . S
C2803 H2789 0.961 . S
C2803 C2802 1.502 . S
C2804 H2790 0.960 . S
C2804 H2791 0.961 . S
C2804 H2792 0.959 . S
C2804 C2802 1.561 1_655 S
C2805 C2802 1.526 1_655 S
C2805 C2806 1.396 . S
C2805 C2810 1.390 . S
C2806 C2800 1.465 1_655 S
C2806 C2805 1.396 . S
C2806 C2807 1.399 . S
C2807 H2793 0.929 . S
C2807 C2806 1.399 . S
C2807 C2808 1.385 . S
C2808 H2794 0.931 . S
C2808 C2807 1.385 . S
C2808 C2809 1.389 . S
C2809 C2808 1.389 . S
C2809 C2810 1.387 . S
C2810 H2795 0.930 . S
C2810 C2805 1.390 . S
C2810 C2809 1.387 . S
H2811 C2823 0.930 . S
H2812 C2825 0.930 . S
H2813 C2826 0.930 . S
H2814 C2830 0.959 . S
H2815 C2830 0.959 . S
H2816 C2830 0.974 . S
H2817 C2831 0.960 . S
H2818 C2831 0.961 . S
H2819 C2831 0.959 . S
H2820 C2834 0.929 . S
H2821 C2835 0.931 . S
H2822 C2837 0.930 . S
C2823 H2811 0.930 . S
C2823 C2824 1.399 . S
C2823 C2828 1.399 . S
C2824 C2823 1.399 . S
C2824 C2825 1.376 . S
C2825 H2812 0.930 . S
C2825 C2824 1.376 . S
C2825 C2826 1.388 . S
C2826 H2813 0.930 . S
C2826 C2825 1.388 . S
C2826 C2827 1.390 . S
C2827 C2826 1.390 . S
C2827 C2828 1.394 . S
C2827 C2833 1.465 1_655 S
C2828 C2823 1.399 . S
C2828 C2827 1.394 . S
C2828 C2829 1.516 . S
C2829 C2828 1.516 . S
C2829 C2830 1.502 1_655 S
C2829 C2831 1.561 . S
C2829 C2832 1.526 1_655 S
C2830 H2814 0.959 . S
C2830 H2815 0.959 . S
C2830 H2816 0.974 . S
C2830 C2829 1.502 1_455 S
C2831 H2817 0.960 . S
C2831 H2818 0.961 . S
C2831 H2819 0.959 . S
C2831 C2829 1.561 . S
C2832 C2829 1.526 1_455 S
C2832 C2833 1.396 . S
C2832 C2837 1.390 . S
C2833 C2827 1.465 1_455 S
C2833 C2832 1.396 . S
C2833 C2834 1.399 . S
C2834 H2820 0.929 . S
C2834 C2833 1.399 . S
C2834 C2835 1.385 . S
C2835 H2821 0.931 . S
C2835 C2834 1.385 . S
C2835 C2836 1.389 . S
C2836 C2835 1.389 . S
C2836 C2837 1.387 . S
C2837 H2822 0.930 . S
C2837 C2832 1.390 . S
C2837 C2836 1.387 . S
H2838 C2850 0.930 . S
H2839 C2852 0.930 . S
H2840 C2853 0.930 . S
H2841 C2857 0.959 . S
H2842 C2857 0.959 . S
H2843 C2857 0.961 . S
H2844 C2858 0.960 . S
H2845 C2858 0.961 . S
H2846 C2858 0.959 . S
H2847 C2861 0.929 . S
H2848 C2862 0.931 . S
H2849 C2864 0.930 . S
C2850 H2838 0.930 . S
C2850 C2851 1.399 . S
C2850 C2855 1.399 . S
C2851 C2850 1.399 . S
C2851 C2852 1.376 . S
C2852 H2839 0.930 . S
C2852 C2851 1.376 . S
C2852 C2853 1.388 . S
C2853 H2840 0.930 . S
C2853 C2852 1.388 . S
C2853 C2854 1.390 . S
C2854 C2853 1.390 . S
C2854 C2855 1.394 . S
C2854 C2860 1.465 . S
C2855 C2850 1.399 . S
C2855 C2854 1.394 . S
C2855 C2856 1.516 . S
C2856 C2855 1.516 . S
C2856 C2857 1.502 . S
C2856 C2858 1.561 . S
C2856 C2859 1.526 . S
C2857 H2841 0.959 . S
C2857 H2842 0.959 . S
C2857 H2843 0.961 . S
C2857 C2856 1.502 . S
C2858 H2844 0.960 . S
C2858 H2845 0.961 . S
C2858 H2846 0.959 . S
C2858 C2856 1.561 . S
C2859 C2856 1.526 . S
C2859 C2860 1.396 . S
C2859 C2864 1.390 . S
C2860 C2854 1.465 . S
C2860 C2859 1.396 . S
C2860 C2861 1.399 . S
C2861 H2847 0.929 . S
C2861 C2860 1.399 . S
C2861 C2862 1.385 . S
C2862 H2848 0.931 . S
C2862 C2861 1.385 . S
C2862 C2863 1.389 . S
C2863 C2862 1.389 . S
C2863 C2864 1.387 . S
C2864 H2849 0.930 . S
C2864 C2859 1.390 . S
C2864 C2863 1.387 . S
H2865 C2877 0.930 . S
H2866 C2879 0.930 . S
H2867 C2880 0.930 . S
H2868 C2884 0.959 . S
H2869 C2884 0.959 . S
H2870 C2884 0.961 . S
H2871 C2885 0.960 . S
H2872 C2885 0.961 . S
H2873 C2885 0.959 . S
H2874 C2888 0.929 . S
H2875 C2889 0.931 . S
H2876 C2891 0.930 . S
C2877 H2865 0.930 . S
C2877 C2878 1.399 . S
C2877 C2882 1.399 . S
C2878 C2877 1.399 . S
C2878 C2879 1.376 . S
C2879 H2866 0.930 . S
C2879 C2878 1.376 . S
C2879 C2880 1.388 . S
C2880 H2867 0.930 . S
C2880 C2879 1.388 . S
C2880 C2881 1.390 . S
C2881 C2880 1.390 . S
C2881 C2882 1.394 . S
C2881 C2887 1.465 . S
C2882 C2877 1.399 . S
C2882 C2881 1.394 . S
C2882 C2883 1.516 . S
C2883 C2882 1.516 . S
C2883 C2884 1.502 . S
C2883 C2885 1.561 . S
C2883 C2886 1.526 . S
C2884 H2868 0.959 . S
C2884 H2869 0.959 . S
C2884 H2870 0.961 . S
C2884 C2883 1.502 . S
C2885 H2871 0.960 . S
C2885 H2872 0.961 . S
C2885 H2873 0.959 . S
C2885 C2883 1.561 . S
C2886 C2883 1.526 . S
C2886 C2887 1.396 . S
C2886 C2891 1.390 . S
C2887 C2881 1.465 . S
C2887 C2886 1.396 . S
C2887 C2888 1.399 . S
C2888 H2874 0.929 . S
C2888 C2887 1.399 . S
C2888 C2889 1.385 . S
C2889 H2875 0.931 . S
C2889 C2888 1.385 . S
C2889 C2890 1.389 . S
C2890 C2889 1.389 . S
C2890 C2891 1.387 . S
C2891 H2876 0.930 . S
C2891 C2886 1.390 . S
C2891 C2890 1.387 . S
H2892 C2904 0.930 . S
H2893 C2906 0.930 . S
H2894 C2907 0.939 . S
H2895 C2911 0.959 . S
H2896 C2911 0.959 . S
H2897 C2911 0.961 . S
H2898 C2912 0.960 . S
H2899 C2912 0.961 . S
H2900 C2912 0.959 . S
H2901 C2915 0.929 . S
H2902 C2916 0.931 . S
H2903 C2918 0.930 . S
C2904 H2892 0.930 . S
C2904 C2905 1.399 . S
C2904 C2909 1.399 . S
C2905 C2904 1.399 . S
C2905 C2906 1.376 . S
C2906 H2893 0.930 . S
C2906 C2905 1.376 . S
C2906 C2907 1.380 1_655 S
C2907 H2894 0.939 . S
C2907 C2906 1.380 1_455 S
C2907 C2908 1.389 1_455 S
C2908 C2907 1.389 1_655 S
C2908 C2909 1.394 . S
C2908 C2914 1.465 1_655 S
C2909 C2904 1.399 . S
C2909 C2908 1.394 . S
C2909 C2910 1.516 . S
C2910 C2909 1.516 . S
C2910 C2911 1.502 . S
C2910 C2912 1.561 . S
C2910 C2913 1.526 1_655 S
C2911 H2895 0.959 . S
C2911 H2896 0.959 . S
C2911 H2897 0.961 . S
C2911 C2910 1.502 . S
C2912 H2898 0.960 . S
C2912 H2899 0.961 . S
C2912 H2900 0.959 . S
C2912 C2910 1.561 . S
C2913 C2910 1.526 1_455 S
C2913 C2914 1.396 . S
C2913 C2918 1.390 . S
C2914 C2908 1.465 1_455 S
C2914 C2913 1.396 . S
C2914 C2915 1.399 . S
C2915 H2901 0.929 . S
C2915 C2914 1.399 . S
C2915 C2916 1.385 . S
C2916 H2902 0.931 . S
C2916 C2915 1.385 . S
C2916 C2917 1.389 . S
C2917 C2916 1.389 . S
C2917 C2918 1.387 . S
C2918 H2903 0.930 . S
C2918 C2913 1.390 . S
C2918 C2917 1.387 . S
H2919 C2931 0.930 . S
H2920 C2933 0.930 . S
H2921 C2934 0.930 . S
H2922 C2938 0.959 . S
H2923 C2938 0.959 . S
H2924 C2938 0.961 . S
H2925 C2939 0.960 . S
H2926 C2939 0.961 . S
H2927 C2939 0.959 . S
H2928 C2942 0.929 . S
H2929 C2943 0.931 . S
H2930 C2945 0.930 . S
C2931 H2919 0.930 . S
C2931 C2932 1.399 . S
C2931 C2936 1.399 . S
C2932 C2931 1.399 . S
C2932 C2933 1.376 . S
C2933 H2920 0.930 . S
C2933 C2932 1.376 . S
C2933 C2934 1.388 . S
C2934 H2921 0.930 . S
C2934 C2933 1.388 . S
C2934 C2935 1.390 . S
C2935 C2934 1.390 . S
C2935 C2936 1.394 . S
C2935 C2941 1.465 . S
C2936 C2931 1.399 . S
C2936 C2935 1.394 . S
C2936 C2937 1.516 . S
C2937 C2936 1.516 . S
C2937 C2938 1.502 . S
C2937 C2939 1.561 . S
C2937 C2940 1.526 . S
C2938 H2922 0.959 . S
C2938 H2923 0.959 . S
C2938 H2924 0.961 . S
C2938 C2937 1.502 . S
C2939 H2925 0.960 . S
C2939 H2926 0.961 . S
C2939 H2927 0.959 . S
C2939 C2937 1.561 . S
C2940 C2937 1.526 . S
C2940 C2941 1.396 . S
C2940 C2945 1.390 . S
C2941 C2935 1.465 . S
C2941 C2940 1.396 . S
C2941 C2942 1.399 . S
C2942 H2928 0.929 . S
C2942 C2941 1.399 . S
C2942 C2943 1.385 . S
C2943 H2929 0.931 . S
C2943 C2942 1.385 . S
C2943 C2944 1.389 . S
C2944 C2943 1.389 . S
C2944 C2945 1.387 . S
C2945 H2930 0.930 . S
C2945 C2940 1.390 . S
C2945 C2944 1.387 . S
H2946 C2958 0.930 . S
H2947 C2960 0.930 . S
H2948 C2961 0.930 . S
H2949 C2965 0.959 . S
H2950 C2965 0.959 . S
H2951 C2965 0.961 . S
H2952 C2966 0.960 . S
H2953 C2966 0.961 . S
H2954 C2966 0.959 . S
H2955 C2969 0.929 . S
H2956 C2970 0.931 . S
H2957 C2972 0.930 . S
C2958 H2946 0.930 . S
C2958 C2959 1.399 . S
C2958 C2963 1.399 . S
C2959 C2958 1.399 . S
C2959 C2960 1.376 . S
C2960 H2947 0.930 . S
C2960 C2959 1.376 . S
C2960 C2961 1.388 . S
C2961 H2948 0.930 . S
C2961 C2960 1.388 . S
C2961 C2962 1.390 . S
C2962 C2961 1.390 . S
C2962 C2963 1.394 . S
C2962 C2968 1.465 . S
C2963 C2958 1.399 . S
C2963 C2962 1.394 . S
C2963 C2964 1.516 . S
C2964 C2963 1.516 . S
C2964 C2965 1.502 . S
C2964 C2966 1.561 . S
C2964 C2967 1.526 . S
C2965 H2949 0.959 . S
C2965 H2950 0.959 . S
C2965 H2951 0.961 . S
C2965 C2964 1.502 . S
C2966 H2952 0.960 . S
C2966 H2953 0.961 . S
C2966 H2954 0.959 . S
C2966 C2964 1.561 . S
C2967 C2964 1.526 . S
C2967 C2968 1.396 . S
C2967 C2972 1.390 . S
C2968 C2962 1.465 . S
C2968 C2967 1.396 . S
C2968 C2969 1.399 . S
C2969 H2955 0.929 . S
C2969 C2968 1.399 . S
C2969 C2970 1.385 . S
C2970 H2956 0.931 . S
C2970 C2969 1.385 . S
C2970 C2971 1.389 . S
C2971 C2970 1.389 . S
C2971 C2972 1.387 . S
C2972 H2957 0.930 . S
C2972 C2967 1.390 . S
C2972 C2971 1.387 . S
H2973 C2985 0.930 . S
H2974 C2987 0.930 . S
H2975 C2988 0.930 . S
H2976 C2992 0.959 . S
H2977 C2992 0.959 . S
H2978 C2992 0.961 . S
H2979 C2993 0.960 1_455 S
H2980 C2993 0.961 . S
H2981 C2993 0.959 . S
H2982 C2996 0.929 . S
H2983 C2997 0.931 . S
H2984 C2999 0.930 . S
C2985 H2973 0.930 . S
C2985 C2986 1.399 . S
C2985 C2990 1.399 . S
C2986 C2985 1.399 . S
C2986 C2987 1.376 . S
C2987 H2974 0.930 . S
C2987 C2986 1.376 . S
C2987 C2988 1.388 . S
C2988 H2975 0.930 . S
C2988 C2987 1.388 . S
C2988 C2989 1.390 . S
C2989 C2988 1.390 . S
C2989 C2990 1.394 . S
C2989 C2995 1.465 1_455 S
C2990 C2985 1.399 . S
C2990 C2989 1.394 . S
C2990 C2991 1.516 . S
C2991 C2990 1.516 . S
C2991 C2992 1.502 . S
C2991 C2993 1.561 1_455 S
C2991 C2994 1.526 1_455 S
C2992 H2976 0.959 . S
C2992 H2977 0.959 . S
C2992 H2978 0.961 . S
C2992 C2991 1.502 . S
C2993 H2979 0.960 1_655 S
C2993 H2980 0.961 . S
C2993 H2981 0.959 . S
C2993 C2991 1.561 1_655 S
C2994 C2991 1.526 1_655 S
C2994 C2995 1.396 . S
C2994 C2999 1.390 . S
C2995 C2989 1.465 1_655 S
C2995 C2994 1.396 . S
C2995 C2996 1.399 . S
C2996 H2982 0.929 . S
C2996 C2995 1.399 . S
C2996 C2997 1.385 . S
C2997 H2983 0.931 . S
C2997 C2996 1.385 . S
C2997 C2998 1.389 . S
C2998 C2997 1.389 . S
C2998 C2999 1.387 . S
C2999 H2984 0.930 . S
C2999 C2994 1.390 . S
C2999 C2998 1.387 . S
H3000 C3012 0.930 . S
H3001 C3014 0.930 . S
H3002 C3015 0.930 . S
H3003 C3019 0.959 . S
H3004 C3019 0.959 . S
H3005 C3019 0.961 . S
H3006 C3020 0.960 . S
H3007 C3020 0.961 . S
H3008 C3020 0.959 . S
H3009 C3023 0.929 . S
H3010 C3024 0.931 . S
H3011 C3026 0.930 . S
C3012 H3000 0.930 . S
C3012 C3013 1.399 . S
C3012 C3017 1.399 . S
C3013 C3012 1.399 . S
C3013 C3014 1.376 . S
C3014 H3001 0.930 . S
C3014 C3013 1.376 . S
C3014 C3015 1.388 . S
C3015 H3002 0.930 . S
C3015 C3014 1.388 . S
C3015 C3016 1.390 . S
C3016 C3015 1.390 . S
C3016 C3017 1.394 . S
C3016 C3022 1.465 1_655 S
C3017 C3012 1.399 . S
C3017 C3016 1.394 . S
C3017 C3018 1.516 . S
C3018 C3017 1.516 . S
C3018 C3019 1.502 1_655 S
C3018 C3020 1.561 . S
C3018 C3021 1.526 1_655 S
C3019 H3003 0.959 . S
C3019 H3004 0.959 . S
C3019 H3005 0.961 . S
C3019 C3018 1.502 1_455 S
C3020 H3006 0.960 . S
C3020 H3007 0.961 . S
C3020 H3008 0.959 . S
C3020 C3018 1.561 . S
C3021 C3018 1.526 1_455 S
C3021 C3022 1.396 . S
C3021 C3026 1.390 . S
C3022 C3016 1.465 1_455 S
C3022 C3021 1.396 . S
C3022 C3023 1.399 . S
C3023 H3009 0.929 . S
C3023 C3022 1.399 . S
C3023 C3024 1.385 . S
C3024 H3010 0.931 . S
C3024 C3023 1.385 . S
C3024 C3025 1.389 . S
C3025 C3024 1.389 . S
C3025 C3026 1.387 . S
C3026 H3011 0.930 . S
C3026 C3021 1.390 . S
C3026 C3025 1.387 . S
H3027 C3039 0.930 . S
H3028 C3041 0.930 . S
H3029 C3042 0.930 . S
H3030 C3046 0.959 . S
H3031 C3046 0.959 . S
H3032 C3046 0.961 . S
H3033 C3047 0.960 1_455 S
H3034 C3047 0.961 . S
H3035 C3047 0.959 1_455 S
H3036 C3050 0.935 . S
H3037 C3051 0.931 . S
H3038 C3053 0.930 . S
C3039 H3027 0.930 . S
C3039 C3040 1.399 . S
C3039 C3044 1.399 . S
C3040 C3039 1.399 . S
C3040 C3041 1.376 . S
C3041 H3028 0.930 . S
C3041 C3040 1.376 . S
C3041 C3042 1.388 . S
C3042 H3029 0.930 . S
C3042 C3041 1.388 . S
C3042 C3043 1.390 . S
C3043 C3042 1.390 . S
C3043 C3044 1.394 . S
C3043 C3049 1.465 1_455 S
C3044 C3039 1.399 . S
C3044 C3043 1.394 . S
C3044 C3045 1.516 1_455 S
C3045 C3044 1.516 1_655 S
C3045 C3046 1.502 . S
C3045 C3047 1.561 . S
C3045 C3048 1.526 . S
C3046 H3030 0.959 . S
C3046 H3031 0.959 . S
C3046 H3032 0.961 . S
C3046 C3045 1.502 . S
C3047 H3033 0.960 1_655 S
C3047 H3034 0.961 . S
C3047 H3035 0.959 1_655 S
C3047 C3045 1.561 . S
C3048 C3045 1.526 . S
C3048 C3049 1.396 . S
C3048 C3053 1.390 . S
C3049 C3043 1.465 1_655 S
C3049 C3048 1.396 . S
C3049 C3050 1.399 . S
C3050 H3036 0.935 . S
C3050 C3049 1.399 . S
C3050 C3051 1.385 . S
C3051 H3037 0.931 . S
C3051 C3050 1.385 . S
C3051 C3052 1.389 . S
C3052 C3051 1.389 . S
C3052 C3053 1.387 . S
C3053 H3038 0.930 . S
C3053 C3048 1.390 . S
C3053 C3052 1.387 . S
H3054 C3066 0.930 . S
H3055 C3068 0.930 . S
H3056 C3069 0.930 . S
H3057 C3073 0.959 . S
H3058 C3073 0.959 . S
H3059 C3073 0.961 . S
H3060 C3074 0.960 . S
H3061 C3074 0.961 . S
H3062 C3074 0.959 . S
H3063 C3077 0.929 . S
H3064 C3078 0.931 . S
H3065 C3080 0.930 . S
C3066 H3054 0.930 . S
C3066 C3067 1.399 . S
C3066 C3071 1.399 . S
C3067 C3066 1.399 . S
C3067 C3068 1.376 . S
C3068 H3055 0.930 . S
C3068 C3067 1.376 . S
C3068 C3069 1.388 . S
C3069 H3056 0.930 . S
C3069 C3068 1.388 . S
C3069 C3070 1.390 . S
C3070 C3069 1.390 . S
C3070 C3071 1.394 . S
C3070 C3076 1.465 . S
C3071 C3066 1.399 . S
C3071 C3070 1.394 . S
C3071 C3072 1.516 . S
C3072 C3071 1.516 . S
C3072 C3073 1.502 . S
C3072 C3074 1.561 . S
C3072 C3075 1.526 . S
C3073 H3057 0.959 . S
C3073 H3058 0.959 . S
C3073 H3059 0.961 . S
C3073 C3072 1.502 . S
C3074 H3060 0.960 . S
C3074 H3061 0.961 . S
C3074 H3062 0.959 . S
C3074 C3072 1.561 . S
C3075 C3072 1.526 . S
C3075 C3076 1.396 . S
C3075 C3080 1.390 . S
C3076 C3070 1.465 . S
C3076 C3075 1.396 . S
C3076 C3077 1.399 . S
C3077 H3063 0.929 . S
C3077 C3076 1.399 . S
C3077 C3078 1.385 . S
C3078 H3064 0.931 . S
C3078 C3077 1.385 . S
C3078 C3079 1.389 . S
C3079 C3078 1.389 . S
C3079 C3080 1.387 . S
C3080 H3065 0.930 . S
C3080 C3075 1.390 . S
C3080 C3079 1.387 . S
H3081 C3093 0.930 . S
H3082 C3095 0.930 . S
H3083 C3096 0.930 . S
H3084 C3100 0.959 . S
H3085 C3100 0.959 . S
H3086 C3100 0.961 . S
H3087 C3101 0.960 . S
H3088 C3101 0.961 . S
H3089 C3101 0.959 . S
H3090 C3104 0.929 . S
H3091 C3105 0.931 . S
H3092 C3107 0.930 . S
C3093 H3081 0.930 . S
C3093 C3094 1.399 . S
C3093 C3098 1.399 . S
C3094 C3093 1.399 . S
C3094 C3095 1.376 . S
C3095 H3082 0.930 . S
C3095 C3094 1.376 . S
C3095 C3096 1.388 . S
C3096 H3083 0.930 . S
C3096 C3095 1.388 . S
C3096 C3097 1.390 . S
C3097 C3096 1.390 . S
C3097 C3098 1.394 . S
C3097 C3103 1.465 . S
C3098 C3093 1.399 . S
C3098 C3097 1.394 . S
C3098 C3099 1.516 . S
C3099 C3098 1.516 . S
C3099 C3100 1.502 . S
C3099 C3101 1.561 . S
C3099 C3102 1.526 . S
C3100 H3084 0.959 . S
C3100 H3085 0.959 . S
C3100 H3086 0.961 . S
C3100 C3099 1.502 . S
C3101 H3087 0.960 . S
C3101 H3088 0.961 . S
C3101 H3089 0.959 . S
C3101 C3099 1.561 . S
C3102 C3099 1.526 . S
C3102 C3103 1.396 . S
C3102 C3107 1.390 . S
C3103 C3097 1.465 . S
C3103 C3102 1.396 . S
C3103 C3104 1.399 . S
C3104 H3090 0.929 . S
C3104 C3103 1.399 . S
C3104 C3105 1.385 . S
C3105 H3091 0.931 . S
C3105 C3104 1.385 . S
C3105 C3106 1.389 . S
C3106 C3105 1.389 . S
C3106 C3107 1.387 . S
C3107 H3092 0.930 . S
C3107 C3102 1.390 . S
C3107 C3106 1.387 . S
H3108 C3120 0.930 . S
H3109 C3122 0.930 . S
H3110 C3123 0.930 1_455 S
H3111 C3127 0.959 . S
H3112 C3127 0.959 . S
H3113 C3127 0.961 . S
H3114 C3128 0.960 . S
H3115 C3128 0.961 1_455 S
H3116 C3128 0.959 1_455 S
H3117 C3131 0.929 . S
H3118 C3132 0.931 . S
H3119 C3134 0.930 . S
C3120 H3108 0.930 . S
C3120 C3121 1.399 . S
C3120 C3125 1.399 . S
C3121 C3120 1.399 . S
C3121 C3122 1.376 . S
C3122 H3109 0.930 . S
C3122 C3121 1.376 . S
C3122 C3123 1.388 . S
C3123 H3110 0.930 1_655 S
C3123 C3122 1.388 . S
C3123 C3124 1.392 . S
C3124 C3123 1.392 . S
C3124 C3125 1.419 . S
C3124 C3130 1.442 1_655 S
C3125 C3120 1.399 . S
C3125 C3124 1.419 . S
C3125 C3126 1.516 . S
C3126 C3125 1.516 . S
C3126 C3127 1.502 . S
C3126 C3128 1.561 . S
C3126 C3129 1.526 1_655 S
C3127 H3111 0.959 . S
C3127 H3112 0.959 . S
C3127 H3113 0.961 . S
C3127 C3126 1.502 . S
C3128 H3114 0.960 . S
C3128 H3115 0.961 1_655 S
C3128 H3116 0.959 1_655 S
C3128 C3126 1.561 . S
C3129 C3126 1.526 1_455 S
C3129 C3130 1.396 . S
C3129 C3134 1.390 . S
C3130 C3124 1.442 1_455 S
C3130 C3129 1.396 . S
C3130 C3131 1.399 . S
C3131 H3117 0.929 . S
C3131 C3130 1.399 . S
C3131 C3132 1.385 . S
C3132 H3118 0.931 . S
C3132 C3131 1.385 . S
C3132 C3133 1.389 . S
C3133 C3132 1.389 . S
C3133 C3134 1.387 . S
C3134 H3119 0.930 . S
C3134 C3129 1.390 . S
C3134 C3133 1.387 . S
H3135 C3147 0.930 . S
H3136 C3149 0.930 . S
H3137 C3150 0.930 . S
H3138 C3154 0.959 . S
H3139 C3154 0.959 . S
H3140 C3154 0.961 . S
H3141 C3155 0.960 . S
H3142 C3155 0.961 . S
H3143 C3155 0.959 . S
H3144 C3158 0.929 . S
H3145 C3159 0.931 . S
H3146 C3161 0.930 . S
C3147 H3135 0.930 . S
C3147 C3148 1.399 . S
C3147 C3152 1.399 . S
C3148 C3147 1.399 . S
C3148 C3149 1.376 . S
C3149 H3136 0.930 . S
C3149 C3148 1.376 . S
C3149 C3150 1.388 . S
C3150 H3137 0.930 . S
C3150 C3149 1.388 . S
C3150 C3151 1.390 . S
C3151 C3150 1.390 . S
C3151 C3152 1.394 . S
C3151 C3157 1.465 . S
C3152 C3147 1.399 . S
C3152 C3151 1.394 . S
C3152 C3153 1.516 . S
C3153 C3152 1.516 . S
C3153 C3154 1.502 . S
C3153 C3155 1.561 . S
C3153 C3156 1.526 . S
C3154 H3138 0.959 . S
C3154 H3139 0.959 . S
C3154 H3140 0.961 . S
C3154 C3153 1.502 . S
C3155 H3141 0.960 . S
C3155 H3142 0.961 . S
C3155 H3143 0.959 . S
C3155 C3153 1.561 . S
C3156 C3153 1.526 . S
C3156 C3157 1.396 . S
C3156 C3161 1.390 . S
C3157 C3151 1.465 . S
C3157 C3156 1.396 . S
C3157 C3158 1.399 . S
C3158 H3144 0.929 . S
C3158 C3157 1.399 . S
C3158 C3159 1.385 . S
C3159 H3145 0.931 . S
C3159 C3158 1.385 . S
C3159 C3160 1.389 . S
C3160 C3159 1.389 . S
C3160 C3161 1.387 . S
C3161 H3146 0.930 . S
C3161 C3156 1.390 . S
C3161 C3160 1.387 . S
H3162 C3174 0.930 . S
H3163 C3176 0.930 . S
H3164 C3177 0.930 . S
H3165 C3181 0.959 . S
H3166 C3181 0.959 . S
H3167 C3181 0.961 . S
H3168 C3182 0.960 . S
H3169 C3182 0.961 . S
H3170 C3182 0.959 . S
H3171 C3185 0.929 . S
H3172 C3186 0.931 . S
H3173 C3188 0.930 . S
C3174 H3162 0.930 . S
C3174 C3175 1.399 . S
C3174 C3179 1.399 . S
C3175 C3174 1.399 . S
C3175 C3176 1.376 . S
C3176 H3163 0.930 . S
C3176 C3175 1.376 . S
C3176 C3177 1.388 . S
C3177 H3164 0.930 . S
C3177 C3176 1.388 . S
C3177 C3178 1.390 . S
C3178 C3177 1.390 . S
C3178 C3179 1.394 . S
C3178 C3184 1.465 . S
C3179 C3174 1.399 . S
C3179 C3178 1.394 . S
C3179 C3180 1.516 . S
C3180 C3179 1.516 . S
C3180 C3181 1.502 . S
C3180 C3182 1.561 . S
C3180 C3183 1.526 . S
C3181 H3165 0.959 . S
C3181 H3166 0.959 . S
C3181 H3167 0.961 . S
C3181 C3180 1.502 . S
C3182 H3168 0.960 . S
C3182 H3169 0.961 . S
C3182 H3170 0.959 . S
C3182 C3180 1.561 . S
C3183 C3180 1.526 . S
C3183 C3184 1.396 . S
C3183 C3188 1.390 . S
C3184 C3178 1.465 . S
C3184 C3183 1.396 . S
C3184 C3185 1.399 . S
C3185 H3171 0.929 . S
C3185 C3184 1.399 . S
C3185 C3186 1.385 . S
C3186 H3172 0.931 . S
C3186 C3185 1.385 . S
C3186 C3187 1.389 . S
C3187 C3186 1.389 . S
C3187 C3188 1.387 . S
C3188 H3173 0.930 . S
C3188 C3183 1.390 . S
C3188 C3187 1.387 . S
H3189 C3201 0.930 . S
H3190 C3203 0.930 . S
H3191 C3204 0.930 . S
H3192 C3208 0.959 . S
H3193 C3208 0.959 . S
H3194 C3208 0.961 . S
H3195 C3209 0.937 1_655 S
H3196 C3209 0.961 . S
H3197 C3209 0.959 . S
H3198 C3212 0.929 . S
H3199 C3213 0.931 . S
H3200 C3215 0.930 . S
C3201 H3189 0.930 . S
C3201 C3202 1.399 . S
C3201 C3206 1.399 . S
C3202 C3201 1.399 . S
C3202 C3203 1.376 . S
C3203 H3190 0.930 . S
C3203 C3202 1.376 . S
C3203 C3204 1.388 . S
C3204 H3191 0.930 . S
C3204 C3203 1.388 . S
C3204 C3205 1.390 . S
C3205 C3204 1.390 . S
C3205 C3206 1.394 . S
C3205 C3211 1.465 1_655 S
C3206 C3201 1.399 . S
C3206 C3205 1.394 . S
C3206 C3207 1.516 . S
C3207 C3206 1.516 . S
C3207 C3208 1.502 . S
C3207 C3209 1.561 1_655 S
C3207 C3210 1.526 1_655 S
C3208 H3192 0.959 . S
C3208 H3193 0.959 . S
C3208 H3194 0.961 . S
C3208 C3207 1.502 . S
C3209 H3195 0.937 1_455 S
C3209 H3196 0.961 . S
C3209 H3197 0.959 . S
C3209 C3207 1.561 1_455 S
C3210 C3207 1.526 1_455 S
C3210 C3211 1.396 . S
C3210 C3215 1.390 . S
C3211 C3205 1.465 1_455 S
C3211 C3210 1.396 . S
C3211 C3212 1.399 . S
C3212 H3198 0.929 . S
C3212 C3211 1.399 . S
C3212 C3213 1.385 . S
C3213 H3199 0.931 . S
C3213 C3212 1.385 . S
C3213 C3214 1.389 . S
C3214 C3213 1.389 . S
C3214 C3215 1.387 . S
C3215 H3200 0.930 . S
C3215 C3210 1.390 . S
C3215 C3214 1.387 . S
C1069 C912 0.455 . S
C1081 C7 0.520 . S
C1096 C285 0.463 . S
C1108 C40 0.435 . S
C1123 C846 0.600 . S
C1135 C73 0.578 . S
C1150 C106 0.558 . S
C1162 C351 0.586 . S
C1177 C978 0.603 . S
C1189 C139 0.584 . S
C1204 C483 0.458 . S
C1216 C172 0.433 . S
C1231 C205 0.631 . S
C1243 C1044 0.617 . S
C1258 C238 0.589 . S
C1270 C417 0.604 . S
C1285 C648 0.593 . S
C1297 C271 0.618 . S
C1312 C21 0.612 . S
C1324 C304 0.636 . S
C1339 C337 0.644 . S
C1351 C582 0.614 . S
C1366 C370 0.636 . S
C1378 C87 0.608 . S
C1393 C403 0.539 . S
C1405 C714 0.526 . S
C1420 C436 0.630 . S
C1432 C219 0.603 . S
C1447 C780 0.434 . S
C1459 C469 0.438 . S
C1474 C153 0.616 . S
C1486 C502 0.642 . S
C1501 C384 0.465 . S
C1513 C535 0.436 . S
C1528 C568 0.563 . S
C1540 C813 0.489 . S
C1555 C318 0.614 . S
C1567 C601 0.607 . S
C1582 C634 0.430 . S
C1594 C879 0.444 . S
C1609 C450 0.531 . S
C1621 C667 0.486 . S
C1636 C1011 0.536 . S
C1648 C700 0.607 . S
C1663 C516 0.614 . S
C1675 C733 0.607 . S
C1690 C766 0.576 . S
C1702 C945 0.501 . S
C1717 C799 0.619 . S
C1729 C120 0.591 . S
C1744 C549 0.455 . S
C1756 C832 0.466 . S
C1771 C54 0.565 . S
C1783 C865 0.583 . S
C1798 C898 0.470 . S
C1810 C615 0.461 . S
C1825 C931 0.639 . S
C1837 C186 0.611 . S
C1852 C964 0.621 . S
C1864 C747 0.596 . S
C1879 C252 0.618 . S
C1891 C997 0.644 . S
C1906 C1030 0.460 . S
C1918 C681 0.453 . S
C1933 N13 1.499 . S
C1945 N178 1.583 . S
C1960 N211 1.574 . S
C1972 N46 1.496 . S
C1987 N244 1.587 . S
C1999 N79 1.519 . S
C2014 N112 1.587 . S
C2026 N145 1.507 . S
C2041 N277 1.558 . S
C2053 N442 1.498 . S
C2068 N310 1.586 . S
C2080 N475 1.527 . S
C2095 N343 1.497 . S
C2107 N508 1.560 . S
C2122 N376 1.545 . S
C2134 N409 1.586 . S
C2149 N706 1.578 . S
C2161 N541 1.540 . S
C2176 N574 1.587 . S
C2188 N739 1.509 . S
C2203 N607 1.495 . S
C2215 N772 1.571 . S
C2230 N673 1.522 . S
C2242 N640 1.524 . S
C2257 N970 1.501 . S
C2269 N805 1.524 . S
C2284 N1003 1.573 . S
C2296 N838 1.505 . S
C2311 N1036 1.587 . S
C2323 N871 1.541 . S
C2338 N937 1.569 . S
C2350 N904 1.576 . S
C2365 C18 1.198 . S
C2377 C150 1.170 . S
C2392 C51 1.170 . S
C2404 C183 1.196 . S
C2419 C216 1.201 . S
C2431 C84 1.234 . S
C2446 C249 1.231 . S
C2458 C117 1.211 . S
C2473 C282 1.226 . S
C2485 C414 1.198 . S
C2500 C447 1.199 . S
C2512 C315 1.225 . S
C2527 C348 1.230 . S
C2539 C480 1.192 . S
C2554 C513 1.223 . S
C2566 C381 1.202 . S
C2581 C546 1.208 . S
C2593 C678 1.168 . S
C2608 C579 1.235 . S
C2620 C711 1.199 . S
C2635 C612 1.202 . S
C2647 C744 1.169 . S
C2662 C645 1.168 . S
C2674 C777 1.203 . S
C2689 C942 1.235 . S
C2701 C810 1.175 . S
C2716 C843 1.211 . S
C2728 C975 1.173 . S
C2743 C876 1.173 . S
C2755 C1008 1.210 . S
C2770 C909 1.189 . S
C2782 C1041 1.231 . S
C2797 N2 1.188 . S
C2809 N596 1.208 . S
C2824 N629 1.191 . S
C2836 N35 1.205 . S
C2851 N68 1.215 . S
C2863 N530 1.190 . S
C2878 N101 1.183 . S
C2890 N563 1.220 . S
C2905 N728 1.187 . S
C2917 N134 1.216 . S
C2932 N761 1.195 . S
C2944 N167 1.201 . S
C2959 N200 1.177 . S
C2971 N662 1.222 . S
C2986 N233 1.214 . S
C2998 N695 1.190 . S
C3013 N266 1.212 . S
C3025 N860 1.197 . S
C3040 N893 1.179 . S
C3052 N299 1.215 . S
C3067 N794 1.182 . S
C3079 N332 1.211 . S
C3094 N365 1.213 . S
C3106 N827 1.196 . S
C3121 N398 1.179 . S
C3133 N992 1.215 . S
C3148 N431 1.186 . S
C3160 N1025 1.206 . S
C3175 N464 1.213 . S
C3187 N926 1.196 . S
C3202 N497 1.216 . S
C3214 N959 1.193 . S
