# Generated by pormake.
# Topology wjm, (5)-cn, num edge types: 1
# Building blocks:
#     Node 0, Type 0, BuildingBlock: BEQFEK_clean_sbu_0, # of connection points: 5
#     Node 1, Type 0, BuildingBlock: BEQFEK_clean_sbu_0, # of connection points: 5
#     Node 2, Type 0, BuildingBlock: BEQFEK_clean_sbu_0, # of connection points: 5
#     Node 3, Type 0, BuildingBlock: BEQFEK_clean_sbu_0, # of connection points: 5
#     Node 4, Type 0, BuildingBlock: BEQFEK_clean_sbu_0, # of connection points: 5
#     Node 5, Type 0, BuildingBlock: BEQFEK_clean_sbu_0, # of connection points: 5
#     Node 6, Type 0, BuildingBlock: BEQFEK_clean_sbu_0, # of connection points: 5
#     Node 7, Type 0, BuildingBlock: BEQFEK_clean_sbu_0, # of connection points: 5
#     Node 8, Type 0, BuildingBlock: BEQFEK_clean_sbu_0, # of connection points: 5
#     Node 9, Type 0, BuildingBlock: BEQFEK_clean_sbu_0, # of connection points: 5
#     Node 10, Type 0, BuildingBlock: BEQFEK_clean_sbu_0, # of connection points: 5
#     Node 11, Type 0, BuildingBlock: BEQFEK_clean_sbu_0, # of connection points: 5
#     Edge 12, Type (0, 0), None
#     Edge 13, Type (0, 0), None
#     Edge 14, Type (0, 0), None
#     Edge 15, Type (0, 0), None
#     Edge 16, Type (0, 0), None
#     Edge 17, Type (0, 0), None
#     Edge 18, Type (0, 0), None
#     Edge 19, Type (0, 0), None
#     Edge 20, Type (0, 0), None
#     Edge 21, Type (0, 0), None
#     Edge 22, Type (0, 0), None
#     Edge 23, Type (0, 0), None
#     Edge 24, Type (0, 0), None
#     Edge 25, Type (0, 0), None
#     Edge 26, Type (0, 0), None
#     Edge 27, Type (0, 0), None
#     Edge 28, Type (0, 0), None
#     Edge 29, Type (0, 0), None
#     Edge 30, Type (0, 0), None
#     Edge 31, Type (0, 0), None
#     Edge 32, Type (0, 0), None
#     Edge 33, Type (0, 0), None
#     Edge 34, Type (0, 0), None
#     Edge 35, Type (0, 0), None
#     Edge 36, Type (0, 0), None
#     Edge 37, Type (0, 0), None
#     Edge 38, Type (0, 0), None
#     Edge 39, Type (0, 0), None
#     Edge 40, Type (0, 0), None
#     Edge 41, Type (0, 0), None
# Relax obj value: 0.835
# Max RMSD: 0.268
# Mean RMSD: 0.268
data_MOF--net-wjm--node1-BEQFEK_clean_sbu_0--edge1-none
_symmetry_space_group_name_H-M    P1
_symmetry_Int_Tables_number       1
_symmetry_cell_setting            triclinic
loop_
_symmetry_equiv_pos_as_xyz
'x, y, z'
_cell_length_a     16.07157
_cell_length_b     16.070834
_cell_length_c     22.927331
_cell_angle_alpha  90.000312
_cell_angle_beta   89.999193
_cell_angle_gamma 119.99716
loop_
_atom_site_label
_atom_site_type_symbol
_atom_site_fract_x
_atom_site_fract_y
_atom_site_fract_z
_atom_type_partial_charge
Co0 Co 0.27178 0.44337 0.35998 0.0
Co1 Co 0.25004 0.35163 0.24715 0.0
C2 C 0.20899 0.25869 0.37132 0.0
O3 O 0.18094 0.3153 0.38776 0.0
O4 O 0.2337 0.26278 0.3176 0.0
C5 C 0.38797 0.59969 0.42422 0.0
O6 O 0.4263 0.64112 0.4736 0.0
C7 C 0.12512 0.22546 0.15299 0.0
C8 C 0.22719 0.26236 0.08151 0.0
C9 C 0.12952 0.21365 0.0935 0.0
N10 N 0.21372 0.28201 0.17441 0.0
N11 N 0.2752 0.30082 0.13141 0.0
C12 C 0.03836 0.17442 0.18976 0.0
H13 H 0.05061 0.21135 0.23242 0.0
H14 H 0.97433 0.16823 0.16721 0.0
H15 H 0.02611 0.10089 0.19715 0.0
C16 C 0.18312 0.54954 0.30081 0.0
N17 N 0.21 0.482 0.30419 0.0
N18 N 0.19183 0.43515 0.25504 0.0
C19 C 0.14824 0.46899 0.21938 0.0
C20 C 0.14471 0.54721 0.24527 0.0
C21 C 0.20096 0.61894 0.34922 0.0
H22 H 0.24128 0.61084 0.38507 0.0
H23 H 0.13203 0.60386 0.36886 0.0
H24 H 0.24214 0.69382 0.33299 0.0
O25 O 0.40124 0.45595 0.3374 0.0
O26 O 0.3962 0.4372 0.24232 0.0
H27 H 0.13442 0.418 0.13199 0.0
H28 H 0.03458 0.43137 0.16035 0.0
C29 C 0.08864 0.41125 0.1699 0.0
H30 H 0.04704 0.33594 0.18323 0.0
H31 H 0.34933 0.346 0.13501 0.0
O32 O 0.30939 0.52134 0.42692 0.0
C33 C 0.44439 0.46264 0.28959 0.0
Co34 Co 0.78885 0.25827 0.69844 0.0
Co35 Co 0.87873 0.22867 0.58271 0.0
C36 C 0.92446 0.18921 0.71101 0.0
O37 O 0.85746 0.1994 0.73234 0.0
O38 O 0.94195 0.19975 0.65556 0.0
C39 C 0.6565 0.29681 0.75497 0.0
O40 O 0.58724 0.27645 0.79241 0.0
C41 C 0.87239 0.10779 0.47557 0.0
C42 C 0.92245 0.21954 0.40957 0.0
C43 C 0.87556 0.12039 0.41515 0.0
N44 N 0.90733 0.19329 0.50387 0.0
N45 N 0.94198 0.26006 0.46295 0.0
C46 C 0.83607 0.01334 0.50455 0.0
H47 H 0.81376 0.0173 0.54932 0.0
H48 H 0.77457 0.9563 0.48027 0.0
H49 H 0.89424 -0.00466 0.50423 0.0
C50 C 0.60667 0.1409 0.63467 0.0
N51 N 0.7033 0.18247 0.63895 0.0
N52 N 0.73895 0.17505 0.58932 0.0
C53 C 0.66494 0.13271 0.55135 0.0
C54 C 0.57845 0.11442 0.57646 0.0
C55 C 0.54412 0.09525 0.68709 0.0
H56 H 0.58766 0.09329 0.72405 0.0
H57 H 0.48855 0.02008 0.67744 0.0
H58 H 0.50865 0.13542 0.70136 0.0
O59 O 0.88531 0.39312 0.66985 0.0
O60 O 0.94049 0.37611 0.58421 0.0
H61 H 0.71974 0.14217 0.46741 0.0
H62 H 0.60012 0.03591 0.48009 0.0
C63 C 0.67078 0.08602 0.49824 0.0
H64 H 0.69673 0.03797 0.51107 0.0
H65 H 0.97 0.33318 0.47103 0.0
O66 O 0.71122 0.26255 0.76315 0.0
C67 C 0.93764 0.43 0.6245 0.0
Co68 Co 0.53795 0.82461 1.02665 0.0
Co69 Co 0.62968 0.89461 0.91382 0.0
C70 C 0.72262 0.94649 1.03799 0.0
O71 O 0.66601 0.86183 1.05443 0.0
O72 O 0.71853 0.96711 0.98427 0.0
C73 C 0.38162 0.7845 0.0909 0.0
O74 O 0.34019 0.78139 0.14028 0.0
C75 C 0.75584 0.89585 0.81966 0.0
C76 C 0.71893 0.96103 0.74818 0.0
C77 C 0.76765 0.91207 0.76017 0.0
N78 N 0.6993 0.92791 0.84108 0.0
N79 N 0.68048 0.97058 0.79808 0.0
C80 C 0.80689 0.86013 0.85642 0.0
H81 H 0.76997 0.83546 0.89908 0.0
H82 H 0.81308 0.8023 0.83387 0.0
H83 H 0.88041 0.92141 0.86381 0.0
C84 C 0.43177 0.62979 0.96748 0.0
N85 N 0.49932 0.72421 0.97086 0.0
N86 N 0.54616 0.75289 0.92171 0.0
C87 C 0.51233 0.67546 0.88605 0.0
C88 C 0.43411 0.59372 0.91193 0.0
C89 C 0.36238 0.57824 1.01588 0.0
H90 H 0.37047 0.62666 1.05173 0.0
H91 H 0.37746 0.52439 1.03553 0.0
H92 H 0.28751 0.54455 0.99965 0.0
O93 O 0.52537 0.94151 1.00408 0.0
O94 O 0.54412 0.95522 0.909 0.0
H95 H 0.56331 0.71264 0.79866 0.0
H96 H 0.54996 0.59943 0.82701 0.0
C97 C 0.57007 0.67361 0.83657 0.0
H98 H 0.64537 0.70731 0.84989 0.0
H99 H 0.63529 -0.00047 0.80169 0.0
O100 O 0.45997 0.78426 0.09359 0.0
C101 C 0.51868 0.97797 0.95627 0.0
Co102 Co 0.72306 0.52678 0.3651 0.0
Co103 Co 0.75265 0.64627 0.24937 0.0
C104 C 0.7921 0.73145 0.37768 0.0
O105 O 0.7819 0.65426 0.399 0.0
O106 O 0.78156 0.73841 0.32222 0.0
C107 C 0.68453 0.35589 0.42163 0.0
O108 O 0.70489 0.30699 0.45907 0.0
C109 C 0.87353 0.76081 0.14224 0.0
C110 C 0.76178 0.69914 0.07623 0.0
C111 C 0.86093 0.75139 0.08182 0.0
N112 N 0.78803 0.71025 0.17054 0.0
N113 N 0.72126 0.67816 0.12962 0.0
C114 C 0.96797 0.81893 0.17122 0.0
H115 H 0.96401 0.79265 0.21598 0.0
H116 H 0.02501 0.81446 0.14694 0.0
H117 H 0.98596 0.8951 0.1709 0.0
C118 C 0.84043 0.46198 0.30133 0.0
N119 N 0.79885 0.51704 0.30561 0.0
N120 N 0.80627 0.56011 0.25598 0.0
C121 C 0.84861 0.52844 0.21801 0.0
C122 C 0.86691 0.46023 0.24312 0.0
C123 C 0.88609 0.44509 0.35375 0.0
H124 H 0.88804 0.49059 0.3907 0.0
H125 H 0.96126 0.46469 0.34409 0.0
H126 H 0.84593 0.36945 0.36802 0.0
O127 O 0.58821 0.4884 0.33652 0.0
O128 O 0.60521 0.56059 0.25087 0.0
H129 H 0.83915 0.57377 0.13407 0.0
H130 H 0.9454 0.56039 0.14674 0.0
C131 C 0.8953 0.58096 0.1649 0.0
H132 H 0.94336 0.65495 0.17772 0.0
H133 H 0.64815 0.63306 0.13769 0.0
O134 O 0.71879 0.44488 0.42981 0.0
C135 C 0.55133 0.50385 0.29116 0.0
Co136 Co 0.1567 0.70956 0.69331 0.0
Co137 Co 0.0867 0.7313 0.58048 0.0
C138 C 0.03481 0.77235 0.70466 0.0
O139 O 0.11947 0.8004 0.72109 0.0
O140 O 0.0142 0.74765 0.65094 0.0
C141 C 0.19683 0.59335 0.75756 0.0
O142 O 0.19993 0.55502 0.80694 0.0
C143 C 0.08545 0.85623 0.48633 0.0
C144 C 0.02028 0.75416 0.41485 0.0
C145 C 0.06924 0.85183 0.42684 0.0
N146 N 0.0534 0.76763 0.50775 0.0
N147 N 0.01073 0.70615 0.46475 0.0
C148 C 0.12117 0.94299 0.5231 0.0
H149 H 0.14585 0.93074 0.56575 0.0
H150 H 0.179 0.00702 0.50055 0.0
H151 H 0.05989 0.95523 0.5305 0.0
C152 C 0.35152 0.79821 0.63414 0.0
N153 N 0.2571 0.77134 0.63752 0.0
N154 N 0.22842 0.7895 0.58837 0.0
C155 C 0.30585 0.8331 0.55271 0.0
C156 C 0.38759 0.83662 0.5786 0.0
C157 C 0.40307 0.78037 0.68254 0.0
H158 H 0.35465 0.74004 0.7184 0.0
H159 H 0.45692 0.8493 0.70219 0.0
H160 H 0.43677 0.73919 0.66631 0.0
O161 O 0.03982 0.58009 0.67074 0.0
O162 O 0.02611 0.58513 0.57566 0.0
H163 H 0.26867 0.84691 0.46533 0.0
H164 H 0.38187 0.94676 0.49368 0.0
C165 C 0.3077 0.8927 0.50323 0.0
H166 H 0.274 0.93431 0.51656 0.0
H167 H 0.98178 0.63201 0.46835 0.0
O168 O 0.19706 0.67194 0.76025 0.0
C169 C 0.00337 0.53694 0.62293 0.0
Co170 Co 0.45454 0.19251 1.03178 0.0
Co171 Co 0.33506 0.10262 0.91605 0.0
C172 C 0.24989 0.0569 1.04436 0.0
O173 O 0.32707 0.1239 0.06568 0.0
O174 O 0.24293 0.03941 0.9889 0.0
C175 C 0.62543 0.32486 0.0883 0.0
O176 O 0.67433 0.39412 0.12574 0.0
C177 C 0.22053 0.10896 0.80891 0.0
C178 C 0.28222 0.05889 0.74291 0.0
C179 C 0.22997 0.10578 0.74849 0.0
N180 N 0.27109 0.07402 0.83721 0.0
N181 N 0.3032 0.03935 0.7963 0.0
C182 C 0.16241 0.1453 0.83789 0.0
H183 H 0.18868 0.16762 0.88265 0.0
H184 H 0.16689 0.2068 0.8136 0.0
H185 H 0.08625 0.08714 0.83756 0.0
C186 C 0.51935 0.37469 0.968 0.0
N187 N 0.46429 0.27805 0.97229 0.0
N188 N 0.42123 0.24241 0.92266 0.0
C189 C 0.4529 0.31641 0.88469 0.0
C190 C 0.5211 0.40291 0.90979 0.0
C191 C 0.53623 0.43724 1.02042 0.0
H192 H 0.49074 0.39371 1.05737 0.0
H193 H 0.51664 0.49282 1.01076 0.0
H194 H 0.61188 0.47272 1.03469 0.0
O195 O 0.49292 0.09604 1.0032 0.0
O196 O 0.42073 0.04085 0.91756 0.0
H197 H 0.40758 0.26161 0.80074 0.0
H198 H 0.42094 0.38123 0.81341 0.0
C199 C 0.40039 0.31057 0.83157 0.0
H200 H 0.32639 0.28463 0.84439 0.0
H201 H 0.34829 0.01133 0.80438 0.0
O202 O 0.53645 0.27015 0.09649 0.0
C203 C 0.47747 0.0437 0.95784 0.0
Co204 Co 0.60026 0.75014 0.42946 0.0
Co205 Co 0.68664 0.76473 0.54689 0.0
C206 C 0.78094 0.79552 0.42056 0.0
O207 O 0.73075 0.8304 0.40242 0.0
O208 O 0.77451 0.77231 0.47512 0.0
C209 C 0.43354 0.64393 0.36693 0.0
O210 O 0.38414 0.61661 0.31867 0.0
C211 C 0.79314 0.86543 0.65875 0.0
C212 C 0.70772 0.74766 0.71905 0.0
C213 C 0.77188 0.84526 0.71738 0.0
N214 N 0.73997 0.78524 0.62658 0.0
N215 N 0.69272 0.71424 0.66408 0.0
C216 C 0.87656 0.95601 0.63741 0.0
H217 H 0.89918 0.94509 0.59395 0.0
H218 H 0.85844 0.01388 0.63799 0.0
H219 H 0.93745 0.97849 0.66819 0.0
C220 C 0.49219 0.8328 0.49053 0.0
N221 N 0.5657 0.81445 0.48636 0.0
N222 N 0.60643 0.8253 0.53722 0.0
C223 C 0.56055 0.85259 0.57557 0.0
C224 C 0.48035 0.85156 0.54912 0.0
C225 C 0.42823 0.81972 0.43967 0.0
H226 H 0.45637 0.80687 0.39933 0.0
H227 H 0.42843 0.88608 0.42932 0.0
H228 H 0.3538 0.761 0.44805 0.0
O229 O 0.57873 0.61964 0.45186 0.0
O230 O 0.59196 0.62211 0.54742 0.0
H231 H 0.59881 0.84578 0.66343 0.0
H232 H 0.57842 0.94587 0.64735 0.0
C233 C 0.60718 0.9006 0.63111 0.0
H234 H 0.685 0.94834 0.62334 0.0
H235 H 0.64212 0.64417 0.65231 0.0
O236 O 0.51884 0.71346 0.36336 0.0
C237 C 0.56609 0.57551 0.49981 0.0
Co238 Co 0.80865 0.51 0.75845 0.0
Co239 Co 0.90904 0.62783 0.8735 0.0
C240 C 0.95923 0.71257 0.74784 0.0
O241 O 0.88989 0.63665 0.72674 0.0
O242 O 0.97745 0.72015 0.80305 0.0
C243 C 0.66204 0.34546 0.69985 0.0
O244 O 0.59225 0.30596 0.66157 0.0
C245 C 0.9307 0.75188 0.9795 0.0
C246 C 0.9449 0.66401 1.04634 0.0
C247 C 0.92558 0.73837 1.03983 0.0
N248 N 0.94465 0.68496 0.95236 0.0
N249 N 0.95755 0.63546 0.99367 0.0
C250 C 0.94018 0.83793 0.94984 0.0
H251 H 0.93823 0.82724 0.90209 0.0
H252 H 0.88481 0.8541 0.96605 0.0
H253 H 0.01141 0.90001 0.96098 0.0
C254 C 0.63569 0.47243 0.82021 0.0
N255 N 0.73164 0.51308 0.81847 0.0
N256 N 0.7694 0.55878 0.86709 0.0
C257 C 0.69621 0.54381 0.90275 0.0
C258 C 0.6072 0.48173 0.87692 0.0
C259 C 0.58319 0.46318 0.76405 0.0
H260 H 0.63454 0.50433 0.72878 0.0
H261 H 0.53616 0.49363 0.76718 0.0
H262 H 0.53896 0.38778 0.75015 0.0
O263 O 0.88915 0.45579 0.7861 0.0
O264 O 0.95246 0.52872 0.87037 0.0
H265 H 0.74386 0.59008 0.98806 0.0
H266 H 0.64251 0.60519 0.96537 0.0
C267 C 0.71014 0.60848 0.9521 0.0
H268 H 0.75833 0.68311 0.93787 0.0
H269 H 0.9655 0.5758 0.98603 0.0
O270 O 0.72639 0.43244 0.69305 0.0
C271 C 0.93983 0.46677 0.83129 0.0
Co272 Co 0.23118 0.84636 0.09614 0.0
Co273 Co 0.21659 0.91816 0.21357 0.0
C274 C 0.18581 0.98169 0.08724 0.0
O275 O 0.15093 0.89661 0.0691 0.0
O276 O 0.20902 -0.00154 0.1418 0.0
C277 C 0.33739 0.78584 1.03361 0.0
O278 O 0.3647 0.76374 0.98535 0.0
C279 C 0.11588 0.92396 0.32542 0.0
C280 C 0.23364 0.95632 0.38573 0.0
C281 C 0.13604 0.92288 0.38406 0.0
N282 N 0.19607 0.95098 0.29325 0.0
N283 N 0.26707 0.97475 0.33076 0.0
C284 C 0.02529 0.91677 0.30408 0.0
H285 H 0.03621 0.9503 0.26061 0.0
H286 H 0.96745 0.84078 0.30465 0.0
H287 H 0.00279 0.95518 0.33485 0.0
C288 C 0.14852 0.65564 0.15721 0.0
N289 N 0.16688 0.7475 0.15304 0.0
N290 N 0.15603 0.77739 0.20391 0.0
C291 C 0.12874 0.70421 0.24225 0.0
C292 C 0.12977 0.62504 0.2158 0.0
C293 C 0.16158 0.60476 0.10634 0.0
H294 H 0.17442 0.64574 0.066 0.0
H295 H 0.09521 0.5386 0.09599 0.0
H296 H 0.22029 0.58902 0.11471 0.0
O297 O 0.36168 0.95532 0.11854 0.0
O298 O 0.35921 0.96608 0.2141 0.0
H299 H 0.13553 0.74927 0.33011 0.0
H300 H 0.03546 0.6288 0.31402 0.0
C301 C 0.08072 0.70282 0.29779 0.0
H302 H 0.03298 0.7329 0.29001 0.0
H303 H 0.33714 -0.00578 0.31899 0.0
O304 O 0.26786 0.80162 1.03004 0.0
C305 C 0.40581 0.9868 0.1665 0.0
Co306 Co 0.47134 0.29486 0.42511 0.0
Co307 Co 0.35351 0.27743 0.54017 0.0
C308 C 0.26877 0.24289 0.4145 0.0
O309 O 0.3447 0.24948 0.3934 0.0
O310 O 0.2612 0.25353 0.46972 0.0
C311 C 0.63588 0.31278 0.36651 0.0
O312 O 0.67539 0.28249 0.32824 0.0
C313 C 0.22947 0.17507 0.64617 0.0
C314 C 0.31736 0.27712 0.71301 0.0
C315 C 0.243 0.18347 0.7065 0.0
N316 N 0.29638 0.25592 0.61902 0.0
N317 N 0.3459 0.31833 0.66033 0.0
C318 C 0.14342 0.0985 0.61652 0.0
H319 H 0.15408 0.10723 0.56877 0.0
H320 H 0.12727 0.02696 0.63272 0.0
H321 H 0.08133 0.10764 0.62769 0.0
C322 C 0.50892 0.15948 0.48688 0.0
N323 N 0.46826 0.21478 0.48513 0.0
N324 N 0.42256 0.20684 0.53376 0.0
C325 C 0.43753 0.14862 0.56941 0.0
C326 C 0.49963 0.12169 0.54359 0.0
C327 C 0.51817 0.11622 0.43073 0.0
H328 H 0.47702 0.12641 0.39546 0.0
H329 H 0.48774 0.03874 0.43386 0.0
H330 H 0.59357 0.14739 0.41682 0.0
O331 O 0.52555 0.42958 0.45277 0.0
O332 O 0.45261 0.41996 0.53703 0.0
H333 H 0.39127 0.15001 0.65473 0.0
H334 H 0.37617 0.03355 0.63204 0.0
C335 C 0.37287 0.09789 0.61877 0.0
H336 H 0.29825 0.07146 0.60454 0.0
H337 H 0.40555 0.38592 0.65269 0.0
O338 O 0.54891 0.29016 0.35971 0.0
C339 C 0.51457 0.46927 0.49796 0.0
Co340 Co 0.13499 0.38105 0.7628 0.0
Co341 Co 0.06319 0.29467 0.88023 0.0
C342 C -0.00032 0.20036 0.75389 0.0
O343 O 0.08475 0.25055 0.73575 0.0
O344 O 0.98291 0.2068 0.80846 0.0
C345 C 0.19549 0.54778 0.70027 0.0
O346 O 0.21759 0.59719 0.65201 0.0
C347 C 0.05739 0.18816 0.99208 0.0
C348 C 0.02504 0.27358 1.05239 0.0
C349 C 0.05848 0.20942 1.05072 0.0
N350 N 0.03038 0.24134 0.95991 0.0
N351 N 0.00661 0.28858 0.99742 0.0
C352 C 0.06458 0.10475 0.97075 0.0
H353 H 0.03104 0.08213 0.92728 0.0
H354 H 0.14056 0.12289 0.97132 0.0
H355 H 0.02617 0.04386 1.00152 0.0
C356 C 0.3257 0.48911 0.82387 0.0
N357 N 0.23384 0.41561 0.8197 0.0
N358 N 0.20396 0.37488 0.87056 0.0
C359 C 0.27712 0.42076 0.90891 0.0
C360 C 0.35629 0.50096 0.88246 0.0
C361 C 0.37657 0.55307 0.773 0.0
H362 H 0.3356 0.52493 0.73267 0.0
H363 H 0.44273 0.55285 0.76265 0.0
H364 H 0.3923 0.62751 0.78137 0.0
O365 O 0.02602 0.40259 0.7852 0.0
O366 O 0.01526 0.38936 0.88076 0.0
H367 H 0.23207 0.3825 0.99677 0.0
H368 H 0.35253 0.40288 0.98069 0.0
C369 C 0.27852 0.37413 0.96444 0.0
H370 H 0.24844 0.29631 0.95667 0.0
H371 H 0.98714 0.33918 0.98565 0.0
O372 O 0.17972 0.46247 0.6967 0.0
C373 C -0.00546 0.41523 0.83315 0.0
Co374 Co 0.68644 0.17268 0.09179 0.0
Co375 Co 0.70388 0.07228 0.20684 0.0
C376 C 0.73842 0.02207 0.08117 0.0
O377 O 0.73182 0.09141 1.06008 0.0
O378 O 0.72778 0.00386 0.13639 0.0
C379 C 0.66853 0.31932 1.03319 0.0
O380 O 0.69882 0.3891 0.99491 0.0
C381 C 0.80627 0.05061 0.31283 0.0
C382 C 0.70422 0.03642 0.37968 0.0
C383 C 0.79788 0.05573 0.37316 0.0
N384 N 0.7254 0.03666 0.28569 0.0
N385 N 0.66301 0.02376 0.32701 0.0
C386 C 0.88283 0.04114 0.28317 0.0
H387 H 0.87411 0.04312 0.23541 0.0
H388 H 0.95437 0.09651 0.29938 0.0
H389 H 0.87369 0.96991 0.2943 0.0
C390 C 0.82183 0.34563 0.15354 0.0
N391 N 0.76653 0.24968 0.1518 0.0
N392 N 0.77447 0.21192 0.20043 0.0
C393 C 0.8327 0.28511 0.23608 0.0
C394 C 0.85963 0.37413 0.21025 0.0
C395 C 0.86509 0.39813 0.09738 0.0
H396 H 0.85488 0.34678 1.06212 0.0
H397 H 0.94257 0.44515 0.10051 0.0
H398 H 0.83393 0.44238 0.08348 0.0
O399 O 0.55173 0.09219 0.11945 0.0
O400 O 0.56136 0.02887 0.20371 0.0
H401 H 0.83132 0.23746 0.32139 0.0
H402 H 0.94777 0.33881 0.2987 0.0
C403 C 0.88343 0.27118 0.28543 0.0
H404 H 0.90987 0.22298 0.2712 0.0
H405 H 0.5954 0.01581 0.31937 0.0
O406 O 0.69114 0.25494 1.02639 0.0
C407 C 0.51204 0.04151 0.16464 0.0
loop_
_geom_bond_atom_site_label_1
_geom_bond_atom_site_label_2
_geom_bond_distance
_geom_bond_site_symmetry_2
_ccdc_geom_bond_type
Co0 O3 1.970 . S
Co0 N17 1.989 . S
Co0 O25 1.967 . S
Co0 O32 1.920 . S
Co1 O4 1.966 . S
Co1 N10 2.022 . S
Co1 N18 1.993 . S
Co1 O26 1.941 . S
C2 O3 1.258 . S
C2 O4 1.263 . S
O3 Co0 1.970 . S
O3 C2 1.258 . S
O4 Co1 1.966 . S
O4 C2 1.263 . S
C5 O6 1.235 . S
C5 O32 1.289 . S
O6 C5 1.235 . S
C7 C9 1.400 . S
C7 N10 1.351 . S
C7 C12 1.501 . S
C8 C9 1.387 . S
C8 N11 1.341 . S
C9 C7 1.400 . S
C9 C8 1.387 . S
N10 Co1 2.022 . S
N10 C7 1.351 . S
N10 N11 1.365 . S
N11 C8 1.341 . S
N11 N10 1.365 . S
N11 H31 0.862 . S
C12 C7 1.501 . S
C12 H13 0.961 . S
C12 H14 0.961 1_455 S
C12 H15 0.960 . S
H13 C12 0.961 . S
H14 C12 0.961 1_655 S
H15 C12 0.960 . S
C16 N17 1.342 . S
C16 C20 1.401 . S
C16 C21 1.499 . S
N17 Co0 1.989 . S
N17 C16 1.342 . S
N17 N18 1.388 . S
N18 Co1 1.993 . S
N18 N17 1.388 . S
N18 C19 1.346 . S
C19 N18 1.346 . S
C19 C20 1.396 . S
C19 C29 1.510 . S
C20 C16 1.401 . S
C20 C19 1.396 . S
C21 C16 1.499 . S
C21 H22 0.959 . S
C21 H23 0.960 . S
C21 H24 0.961 . S
H22 C21 0.959 . S
H23 C21 0.960 . S
H24 C21 0.961 . S
O25 Co0 1.967 . S
O25 C33 1.258 . S
O26 Co1 1.941 . S
O26 C33 1.266 . S
H27 C29 0.959 . S
H28 C29 0.961 . S
C29 C19 1.510 . S
C29 H27 0.959 . S
C29 H28 0.961 . S
C29 H30 0.960 . S
H30 C29 0.960 . S
H31 N11 0.862 . S
O32 Co0 1.920 . S
O32 C5 1.289 . S
C33 O25 1.258 . S
C33 O26 1.266 . S
Co34 O37 1.970 . S
Co34 N51 1.989 . S
Co34 O59 1.967 . S
Co34 O66 1.920 . S
Co35 O38 1.966 . S
Co35 N44 2.022 . S
Co35 N52 1.993 . S
Co35 O60 1.941 1_655 S
C36 O37 1.258 . S
C36 O38 1.263 . S
O37 Co34 1.970 . S
O37 C36 1.258 . S
O38 Co35 1.966 . S
O38 C36 1.263 . S
C39 O40 1.235 . S
C39 O66 1.289 . S
O40 C39 1.235 . S
C41 C43 1.400 . S
C41 N44 1.351 . S
C41 C46 1.501 . S
C42 C43 1.387 . S
C42 N45 1.341 . S
C43 C41 1.400 . S
C43 C42 1.387 . S
N44 Co35 2.022 . S
N44 C41 1.351 . S
N44 N45 1.365 . S
N45 C42 1.341 . S
N45 N44 1.365 . S
N45 H65 0.862 . S
C46 C41 1.501 . S
C46 H47 0.961 . S
C46 H48 0.961 1_545 S
C46 H49 0.960 . S
H47 C46 0.961 . S
H48 C46 0.961 1_565 S
H49 C46 0.960 . S
C50 N51 1.342 . S
C50 C54 1.401 . S
C50 C55 1.499 . S
N51 Co34 1.989 . S
N51 C50 1.342 . S
N51 N52 1.388 . S
N52 Co35 1.993 . S
N52 N51 1.388 . S
N52 C53 1.346 . S
C53 N52 1.346 . S
C53 C54 1.396 . S
C53 C63 1.510 . S
C54 C50 1.401 . S
C54 C53 1.396 . S
C55 C50 1.499 . S
C55 H56 0.959 . S
C55 H57 0.960 . S
C55 H58 0.961 . S
H56 C55 0.959 . S
H57 C55 0.960 . S
H58 C55 0.961 . S
O59 Co34 1.967 . S
O59 C67 1.258 1_655 S
O60 Co35 1.941 1_455 S
O60 C67 1.266 . S
H61 C63 0.959 . S
H62 C63 0.961 . S
C63 C53 1.510 . S
C63 H61 0.959 . S
C63 H62 0.961 . S
C63 H64 0.960 . S
H64 C63 0.960 . S
H65 N45 0.862 . S
O66 Co34 1.920 . S
O66 C39 1.289 . S
C67 O59 1.258 1_455 S
C67 O60 1.266 . S
Co68 O71 1.970 . S
Co68 N85 1.989 . S
Co68 O93 1.967 . S
Co68 O100 1.920 1_556 S
Co69 O72 1.966 . S
Co69 N78 2.022 . S
Co69 N86 1.993 . S
Co69 O94 1.941 1_565 S
C70 O71 1.258 . S
C70 O72 1.263 . S
O71 Co68 1.970 . S
O71 C70 1.258 . S
O72 Co69 1.966 . S
O72 C70 1.263 . S
C73 O74 1.235 . S
C73 O100 1.289 . S
O74 C73 1.235 . S
C75 C77 1.400 . S
C75 N78 1.351 . S
C75 C80 1.501 . S
C76 C77 1.387 . S
C76 N79 1.341 . S
C77 C75 1.400 . S
C77 C76 1.387 . S
N78 Co69 2.022 . S
N78 C75 1.351 . S
N78 N79 1.365 . S
N79 C76 1.341 . S
N79 N78 1.365 . S
N79 H99 0.862 . S
C80 C75 1.501 . S
C80 H81 0.961 . S
C80 H82 0.961 . S
C80 H83 0.960 . S
H81 C80 0.961 . S
H82 C80 0.961 . S
H83 C80 0.960 . S
C84 N85 1.342 . S
C84 C88 1.401 . S
C84 C89 1.499 . S
N85 Co68 1.989 . S
N85 C84 1.342 . S
N85 N86 1.388 . S
N86 Co69 1.993 . S
N86 N85 1.388 . S
N86 C87 1.346 . S
C87 N86 1.346 . S
C87 C88 1.396 . S
C87 C97 1.510 . S
C88 C84 1.401 . S
C88 C87 1.396 . S
C89 C84 1.499 . S
C89 H90 0.959 . S
C89 H91 0.960 . S
C89 H92 0.961 . S
H90 C89 0.959 . S
H91 C89 0.960 . S
H92 C89 0.961 . S
O93 Co68 1.967 . S
O93 C101 1.258 1_565 S
O94 Co69 1.941 1_545 S
O94 C101 1.266 . S
H95 C97 0.959 . S
H96 C97 0.961 . S
C97 C87 1.510 . S
C97 H95 0.959 . S
C97 H96 0.961 . S
C97 H98 0.960 . S
H98 C97 0.960 . S
H99 N79 0.862 . S
O100 Co68 1.920 1_554 S
O100 C73 1.289 . S
C101 O93 1.258 1_545 S
C101 O94 1.266 . S
Co102 O105 1.970 . S
Co102 N119 1.989 . S
Co102 O127 1.967 . S
Co102 O134 1.920 . S
Co103 O106 1.966 . S
Co103 N112 2.022 . S
Co103 N120 1.993 . S
Co103 O128 1.941 . S
C104 O105 1.258 . S
C104 O106 1.263 . S
O105 Co102 1.970 . S
O105 C104 1.258 . S
O106 Co103 1.966 . S
O106 C104 1.263 . S
C107 O108 1.235 . S
C107 O134 1.289 . S
O108 C107 1.235 . S
C109 C111 1.400 . S
C109 N112 1.351 . S
C109 C114 1.501 . S
C110 C111 1.387 . S
C110 N113 1.341 . S
C111 C109 1.400 . S
C111 C110 1.387 . S
N112 Co103 2.022 . S
N112 C109 1.351 . S
N112 N113 1.365 . S
N113 C110 1.341 . S
N113 N112 1.365 . S
N113 H133 0.862 . S
C114 C109 1.501 . S
C114 H115 0.961 . S
C114 H116 0.961 1_655 S
C114 H117 0.960 . S
H115 C114 0.961 . S
H116 C114 0.961 1_455 S
H117 C114 0.960 . S
C118 N119 1.342 . S
C118 C122 1.401 . S
C118 C123 1.499 . S
N119 Co102 1.989 . S
N119 C118 1.342 . S
N119 N120 1.388 . S
N120 Co103 1.993 . S
N120 N119 1.388 . S
N120 C121 1.346 . S
C121 N120 1.346 . S
C121 C122 1.396 . S
C121 C131 1.510 . S
C122 C118 1.401 . S
C122 C121 1.396 . S
C123 C118 1.499 . S
C123 H124 0.959 . S
C123 H125 0.960 . S
C123 H126 0.961 . S
H124 C123 0.959 . S
H125 C123 0.960 . S
H126 C123 0.961 . S
O127 Co102 1.967 . S
O127 C135 1.258 . S
O128 Co103 1.941 . S
O128 C135 1.266 . S
H129 C131 0.959 . S
H130 C131 0.961 . S
C131 C121 1.510 . S
C131 H129 0.959 . S
C131 H130 0.961 . S
C131 H132 0.960 . S
H132 C131 0.960 . S
H133 N113 0.862 . S
O134 Co102 1.920 . S
O134 C107 1.289 . S
C135 O127 1.258 . S
C135 O128 1.266 . S
Co136 O139 1.970 . S
Co136 N153 1.989 . S
Co136 O161 1.967 . S
Co136 O168 1.920 . S
Co137 O140 1.966 . S
Co137 N146 2.022 . S
Co137 N154 1.993 . S
Co137 O162 1.941 1_455 S
C138 O139 1.258 . S
C138 O140 1.263 . S
O139 Co136 1.970 . S
O139 C138 1.258 . S
O140 Co137 1.966 . S
O140 C138 1.263 . S
C141 O142 1.235 . S
C141 O168 1.289 . S
O142 C141 1.235 . S
C143 C145 1.400 . S
C143 N146 1.351 . S
C143 C148 1.501 . S
C144 C145 1.387 . S
C144 N147 1.341 . S
C145 C143 1.400 . S
C145 C144 1.387 . S
N146 Co137 2.022 . S
N146 C143 1.351 . S
N146 N147 1.365 . S
N147 C144 1.341 . S
N147 N146 1.365 . S
N147 H167 0.862 . S
C148 C143 1.501 . S
C148 H149 0.961 . S
C148 H150 0.961 1_565 S
C148 H151 0.960 . S
H149 C148 0.961 . S
H150 C148 0.961 1_545 S
H151 C148 0.960 . S
C152 N153 1.342 . S
C152 C156 1.401 . S
C152 C157 1.499 . S
N153 Co136 1.989 . S
N153 C152 1.342 . S
N153 N154 1.388 . S
N154 Co137 1.993 . S
N154 N153 1.388 . S
N154 C155 1.346 . S
C155 N154 1.346 . S
C155 C156 1.396 . S
C155 C165 1.510 . S
C156 C152 1.401 . S
C156 C155 1.396 . S
C157 C152 1.499 . S
C157 H158 0.959 . S
C157 H159 0.960 . S
C157 H160 0.961 . S
H158 C157 0.959 . S
H159 C157 0.960 . S
H160 C157 0.961 . S
O161 Co136 1.967 . S
O161 C169 1.258 1_455 S
O162 Co137 1.941 1_655 S
O162 C169 1.266 . S
H163 C165 0.959 . S
H164 C165 0.961 . S
C165 C155 1.510 . S
C165 H163 0.959 . S
C165 H164 0.961 . S
C165 H166 0.960 . S
H166 C165 0.960 . S
H167 N147 0.862 . S
O168 Co136 1.920 . S
O168 C141 1.289 . S
C169 O161 1.258 1_655 S
C169 O162 1.266 . S
Co170 O173 1.970 . S
Co170 N187 1.989 . S
Co170 O195 1.967 . S
Co170 O202 1.920 1_556 S
Co171 O174 1.966 . S
Co171 N180 2.022 . S
Co171 N188 1.993 . S
Co171 O196 1.941 1_545 S
C172 O173 1.258 . S
C172 O174 1.263 . S
O173 Co170 1.970 . S
O173 C172 1.258 . S
O174 Co171 1.966 . S
O174 C172 1.263 . S
C175 O176 1.235 . S
C175 O202 1.289 . S
O176 C175 1.235 . S
C177 C179 1.400 . S
C177 N180 1.351 . S
C177 C182 1.501 . S
C178 C179 1.387 . S
C178 N181 1.341 . S
C179 C177 1.400 . S
C179 C178 1.387 . S
N180 Co171 2.022 . S
N180 C177 1.351 . S
N180 N181 1.365 . S
N181 C178 1.341 . S
N181 N180 1.365 . S
N181 H201 0.862 . S
C182 C177 1.501 . S
C182 H183 0.961 . S
C182 H184 0.961 . S
C182 H185 0.960 . S
H183 C182 0.961 . S
H184 C182 0.961 . S
H185 C182 0.960 . S
C186 N187 1.342 . S
C186 C190 1.401 . S
C186 C191 1.499 . S
N187 Co170 1.989 . S
N187 C186 1.342 . S
N187 N188 1.388 . S
N188 Co171 1.993 . S
N188 N187 1.388 . S
N188 C189 1.346 . S
C189 N188 1.346 . S
C189 C190 1.396 . S
C189 C199 1.510 . S
C190 C186 1.401 . S
C190 C189 1.396 . S
C191 C186 1.499 . S
C191 H192 0.959 . S
C191 H193 0.960 . S
C191 H194 0.961 . S
H192 C191 0.959 . S
H193 C191 0.960 . S
H194 C191 0.961 . S
O195 Co170 1.967 . S
O195 C203 1.258 1_545 S
O196 Co171 1.941 1_565 S
O196 C203 1.266 . S
H197 C199 0.959 . S
H198 C199 0.961 . S
C199 C189 1.510 . S
C199 H197 0.959 . S
C199 H198 0.961 . S
C199 H200 0.960 . S
H200 C199 0.960 . S
H201 N181 0.862 . S
O202 Co170 1.920 1_554 S
O202 C175 1.289 . S
C203 O195 1.258 1_565 S
C203 O196 1.266 . S
Co204 O207 1.970 . S
Co204 N221 1.989 . S
Co204 O229 1.967 . S
Co204 O236 1.920 . S
Co205 O208 1.966 . S
Co205 N214 2.022 . S
Co205 N222 1.993 . S
Co205 O230 1.941 . S
C206 O207 1.258 . S
C206 O208 1.263 . S
O207 Co204 1.970 . S
O207 C206 1.258 . S
O208 Co205 1.966 . S
O208 C206 1.263 . S
C209 O210 1.235 . S
C209 O236 1.289 . S
O210 C209 1.235 . S
C211 C213 1.400 . S
C211 N214 1.351 . S
C211 C216 1.501 . S
C212 C213 1.387 . S
C212 N215 1.341 . S
C213 C211 1.400 . S
C213 C212 1.387 . S
N214 Co205 2.022 . S
N214 C211 1.351 . S
N214 N215 1.365 . S
N215 C212 1.341 . S
N215 N214 1.365 . S
N215 H235 0.862 . S
C216 C211 1.501 . S
C216 H217 0.961 . S
C216 H218 0.961 1_565 S
C216 H219 0.960 . S
H217 C216 0.961 . S
H218 C216 0.961 1_545 S
H219 C216 0.960 . S
C220 N221 1.342 . S
C220 C224 1.401 . S
C220 C225 1.499 . S
N221 Co204 1.989 . S
N221 C220 1.342 . S
N221 N222 1.388 . S
N222 Co205 1.993 . S
N222 N221 1.388 . S
N222 C223 1.346 . S
C223 N222 1.346 . S
C223 C224 1.396 . S
C223 C233 1.510 . S
C224 C220 1.401 . S
C224 C223 1.396 . S
C225 C220 1.499 . S
C225 H226 0.959 . S
C225 H227 0.960 . S
C225 H228 0.961 . S
H226 C225 0.959 . S
H227 C225 0.960 . S
H228 C225 0.961 . S
O229 Co204 1.967 . S
O229 C237 1.258 . S
O230 Co205 1.941 . S
O230 C237 1.266 . S
H231 C233 0.959 . S
H232 C233 0.961 . S
C233 C223 1.510 . S
C233 H231 0.959 . S
C233 H232 0.961 . S
C233 H234 0.960 . S
H234 C233 0.960 . S
H235 N215 0.862 . S
O236 Co204 1.920 . S
O236 C209 1.289 . S
C237 O229 1.258 . S
C237 O230 1.266 . S
Co238 O241 1.970 . S
Co238 N255 1.989 . S
Co238 O263 1.967 . S
Co238 O270 1.920 . S
Co239 O242 1.966 . S
Co239 N248 2.022 . S
Co239 N256 1.993 . S
Co239 O264 1.941 1_655 S
C240 O241 1.258 . S
C240 O242 1.263 . S
O241 Co238 1.970 . S
O241 C240 1.258 . S
O242 Co239 1.966 . S
O242 C240 1.263 . S
C243 O244 1.235 . S
C243 O270 1.289 . S
O244 C243 1.235 . S
C245 C247 1.400 . S
C245 N248 1.351 . S
C245 C250 1.501 . S
C246 C247 1.387 . S
C246 N249 1.341 . S
C247 C245 1.400 . S
C247 C246 1.387 . S
N248 Co239 2.022 . S
N248 C245 1.351 . S
N248 N249 1.365 . S
N249 C246 1.341 . S
N249 N248 1.365 . S
N249 H269 0.862 . S
C250 C245 1.501 . S
C250 H251 0.961 . S
C250 H252 0.961 . S
C250 H253 0.960 . S
H251 C250 0.961 . S
H252 C250 0.961 . S
H253 C250 0.960 . S
C254 N255 1.342 . S
C254 C258 1.401 . S
C254 C259 1.499 . S
N255 Co238 1.989 . S
N255 C254 1.342 . S
N255 N256 1.388 . S
N256 Co239 1.993 . S
N256 N255 1.388 . S
N256 C257 1.346 . S
C257 N256 1.346 . S
C257 C258 1.396 . S
C257 C267 1.510 . S
C258 C254 1.401 . S
C258 C257 1.396 . S
C259 C254 1.499 . S
C259 H260 0.959 . S
C259 H261 0.960 . S
C259 H262 0.961 . S
H260 C259 0.959 . S
H261 C259 0.960 . S
H262 C259 0.961 . S
O263 Co238 1.967 . S
O263 C271 1.258 1_655 S
O264 Co239 1.941 1_455 S
O264 C271 1.266 . S
H265 C267 0.959 . S
H266 C267 0.961 . S
C267 C257 1.510 . S
C267 H265 0.959 . S
C267 H266 0.961 . S
C267 H268 0.960 . S
H268 C267 0.960 . S
H269 N249 0.862 . S
O270 Co238 1.920 . S
O270 C243 1.289 . S
C271 O263 1.258 1_455 S
C271 O264 1.266 . S
Co272 O275 1.970 . S
Co272 N289 1.989 . S
Co272 O297 1.967 . S
Co272 O304 1.920 1_554 S
Co273 O276 1.966 . S
Co273 N282 2.022 . S
Co273 N290 1.993 . S
Co273 O298 1.941 1_565 S
C274 O275 1.258 . S
C274 O276 1.263 . S
O275 Co272 1.970 . S
O275 C274 1.258 . S
O276 Co273 1.966 . S
O276 C274 1.263 . S
C277 O278 1.235 . S
C277 O304 1.289 . S
O278 C277 1.235 . S
C279 C281 1.400 . S
C279 N282 1.351 . S
C279 C284 1.501 . S
C280 C281 1.387 . S
C280 N283 1.341 . S
C281 C279 1.400 . S
C281 C280 1.387 . S
N282 Co273 2.022 . S
N282 C279 1.351 . S
N282 N283 1.365 . S
N283 C280 1.341 . S
N283 N282 1.365 . S
N283 H303 0.862 . S
C284 C279 1.501 . S
C284 H285 0.961 . S
C284 H286 0.961 1_455 S
C284 H287 0.960 . S
H285 C284 0.961 . S
H286 C284 0.961 1_655 S
H287 C284 0.960 . S
C288 N289 1.342 . S
C288 C292 1.401 . S
C288 C293 1.499 . S
N289 Co272 1.989 . S
N289 C288 1.342 . S
N289 N290 1.388 . S
N290 Co273 1.993 . S
N290 N289 1.388 . S
N290 C291 1.346 . S
C291 N290 1.346 . S
C291 C292 1.396 . S
C291 C301 1.510 . S
C292 C288 1.401 . S
C292 C291 1.396 . S
C293 C288 1.499 . S
C293 H294 0.959 . S
C293 H295 0.960 . S
C293 H296 0.961 . S
H294 C293 0.959 . S
H295 C293 0.960 . S
H296 C293 0.961 . S
O297 Co272 1.967 . S
O297 C305 1.258 1_565 S
O298 Co273 1.941 1_545 S
O298 C305 1.266 . S
H299 C301 0.959 . S
H300 C301 0.961 . S
C301 C291 1.510 . S
C301 H299 0.959 . S
C301 H300 0.961 . S
C301 H302 0.960 . S
H302 C301 0.960 . S
H303 N283 0.862 . S
O304 Co272 1.920 1_556 S
O304 C277 1.289 . S
C305 O297 1.258 1_545 S
C305 O298 1.266 . S
Co306 O309 1.970 . S
Co306 N323 1.989 . S
Co306 O331 1.967 . S
Co306 O338 1.920 . S
Co307 O310 1.966 . S
Co307 N316 2.022 . S
Co307 N324 1.993 . S
Co307 O332 1.941 . S
C308 O309 1.258 . S
C308 O310 1.263 . S
O309 Co306 1.970 . S
O309 C308 1.258 . S
O310 Co307 1.966 . S
O310 C308 1.263 . S
C311 O312 1.235 . S
C311 O338 1.289 . S
O312 C311 1.235 . S
C313 C315 1.400 . S
C313 N316 1.351 . S
C313 C318 1.501 . S
C314 C315 1.387 . S
C314 N317 1.341 . S
C315 C313 1.400 . S
C315 C314 1.387 . S
N316 Co307 2.022 . S
N316 C313 1.351 . S
N316 N317 1.365 . S
N317 C314 1.341 . S
N317 N316 1.365 . S
N317 H337 0.862 . S
C318 C313 1.501 . S
C318 H319 0.961 . S
C318 H320 0.961 1_545 S
C318 H321 0.960 . S
H319 C318 0.961 . S
H320 C318 0.961 1_565 S
H321 C318 0.960 . S
C322 N323 1.342 . S
C322 C326 1.401 . S
C322 C327 1.499 . S
N323 Co306 1.989 . S
N323 C322 1.342 . S
N323 N324 1.388 . S
N324 Co307 1.993 . S
N324 N323 1.388 . S
N324 C325 1.346 . S
C325 N324 1.346 . S
C325 C326 1.396 . S
C325 C335 1.510 . S
C326 C322 1.401 . S
C326 C325 1.396 . S
C327 C322 1.499 . S
C327 H328 0.959 . S
C327 H329 0.960 . S
C327 H330 0.961 . S
H328 C327 0.959 . S
H329 C327 0.960 . S
H330 C327 0.961 . S
O331 Co306 1.967 . S
O331 C339 1.258 . S
O332 Co307 1.941 . S
O332 C339 1.266 . S
H333 C335 0.959 . S
H334 C335 0.961 . S
C335 C325 1.510 . S
C335 H333 0.959 . S
C335 H334 0.961 . S
C335 H336 0.960 . S
H336 C335 0.960 . S
H337 N317 0.862 . S
O338 Co306 1.920 . S
O338 C311 1.289 . S
C339 O331 1.258 . S
C339 O332 1.266 . S
Co340 O343 1.970 . S
Co340 N357 1.989 . S
Co340 O365 1.967 . S
Co340 O372 1.920 . S
Co341 O344 1.966 . S
Co341 N350 2.022 . S
Co341 N358 1.993 . S
Co341 O366 1.941 1_455 S
C342 O343 1.258 . S
C342 O344 1.263 . S
O343 Co340 1.970 . S
O343 C342 1.258 . S
O344 Co341 1.966 . S
O344 C342 1.263 . S
C345 O346 1.235 . S
C345 O372 1.289 . S
O346 C345 1.235 . S
C347 C349 1.400 . S
C347 N350 1.351 . S
C347 C352 1.501 . S
C348 C349 1.387 . S
C348 N351 1.341 . S
C349 C347 1.400 . S
C349 C348 1.387 . S
N350 Co341 2.022 . S
N350 C347 1.351 . S
N350 N351 1.365 . S
N351 C348 1.341 . S
N351 N350 1.365 . S
N351 H371 0.862 . S
C352 C347 1.501 . S
C352 H353 0.961 . S
C352 H354 0.961 . S
C352 H355 0.960 . S
H353 C352 0.961 . S
H354 C352 0.961 . S
H355 C352 0.960 . S
C356 N357 1.342 . S
C356 C360 1.401 . S
C356 C361 1.499 . S
N357 Co340 1.989 . S
N357 C356 1.342 . S
N357 N358 1.388 . S
N358 Co341 1.993 . S
N358 N357 1.388 . S
N358 C359 1.346 . S
C359 N358 1.346 . S
C359 C360 1.396 . S
C359 C369 1.510 . S
C360 C356 1.401 . S
C360 C359 1.396 . S
C361 C356 1.499 . S
C361 H362 0.959 . S
C361 H363 0.960 . S
C361 H364 0.961 . S
H362 C361 0.959 . S
H363 C361 0.960 . S
H364 C361 0.961 . S
O365 Co340 1.967 . S
O365 C373 1.258 1_455 S
O366 Co341 1.941 1_655 S
O366 C373 1.266 . S
H367 C369 0.959 . S
H368 C369 0.961 . S
C369 C359 1.510 . S
C369 H367 0.959 . S
C369 H368 0.961 . S
C369 H370 0.960 . S
H370 C369 0.960 . S
H371 N351 0.862 . S
O372 Co340 1.920 . S
O372 C345 1.289 . S
C373 O365 1.258 1_655 S
C373 O366 1.266 . S
Co374 O377 1.970 . S
Co374 N391 1.989 . S
Co374 O399 1.967 . S
Co374 O406 1.920 1_554 S
Co375 O378 1.966 . S
Co375 N384 2.022 . S
Co375 N392 1.993 . S
Co375 O400 1.941 1_545 S
C376 O377 1.258 . S
C376 O378 1.263 . S
O377 Co374 1.970 . S
O377 C376 1.258 . S
O378 Co375 1.966 . S
O378 C376 1.263 . S
C379 O380 1.235 . S
C379 O406 1.289 . S
O380 C379 1.235 . S
C381 C383 1.400 . S
C381 N384 1.351 . S
C381 C386 1.501 . S
C382 C383 1.387 . S
C382 N385 1.341 . S
C383 C381 1.400 . S
C383 C382 1.387 . S
N384 Co375 2.022 . S
N384 C381 1.351 . S
N384 N385 1.365 . S
N385 C382 1.341 . S
N385 N384 1.365 . S
N385 H405 0.862 . S
C386 C381 1.501 . S
C386 H387 0.961 . S
C386 H388 0.961 1_655 S
C386 H389 0.960 . S
H387 C386 0.961 . S
H388 C386 0.961 1_455 S
H389 C386 0.960 . S
C390 N391 1.342 . S
C390 C394 1.401 . S
C390 C395 1.499 . S
N391 Co374 1.989 . S
N391 C390 1.342 . S
N391 N392 1.388 . S
N392 Co375 1.993 . S
N392 N391 1.388 . S
N392 C393 1.346 . S
C393 N392 1.346 . S
C393 C394 1.396 . S
C393 C403 1.510 . S
C394 C390 1.401 . S
C394 C393 1.396 . S
C395 C390 1.499 . S
C395 H396 0.959 . S
C395 H397 0.960 . S
C395 H398 0.961 . S
H396 C395 0.959 . S
H397 C395 0.960 . S
H398 C395 0.961 . S
O399 Co374 1.967 . S
O399 C407 1.258 1_545 S
O400 Co375 1.941 1_565 S
O400 C407 1.266 . S
H401 C403 0.959 . S
H402 C403 0.961 . S
C403 C393 1.510 . S
C403 H401 0.959 . S
C403 H402 0.961 . S
C403 H404 0.960 . S
H404 C403 0.960 . S
H405 N385 0.862 . S
O406 Co374 1.920 1_556 S
O406 C379 1.289 . S
C407 O399 1.258 1_565 S
C407 O400 1.266 . S
C135 C33 2.479 . S
C67 C169 2.479 1_455 S
C203 C101 2.479 1_565 S
C237 C339 2.479 . S
C373 C271 2.479 1_655 S
C305 C407 2.479 1_545 S
C9 C349 2.213 1_554 S
C383 C43 2.213 . S
C77 C213 2.213 . S
C111 C247 2.213 1_554 S
C145 C281 2.213 . S
C179 C315 2.213 . S
C308 C2 3.180 . S
C36 C342 3.180 1_655 S
C70 C376 3.180 1_566 S
C206 C104 3.180 . S
C240 C138 3.180 1_655 S
C274 C172 3.180 1_564 S
C5 C209 3.783 . S
C39 C243 3.783 . S
C277 C73 3.783 1_556 S
C107 C311 3.783 . S
C345 C141 3.783 . S
C175 C379 3.783 1_554 S
C292 C20 1.432 . S
C326 C54 1.432 . S
C360 C88 1.432 . S
C122 C394 1.432 . S
C224 C156 1.432 . S
C258 C190 1.432 . S
