# Generated by pormake.
# Topology wjf, (4)-cn, num edge types: 1
# Building blocks:
#     Node 0, Type 0, BuildingBlock: UXUYUI_clean_sbu_0, # of connection points: 4
#     Node 1, Type 0, BuildingBlock: UXUYUI_clean_sbu_0, # of connection points: 4
#     Node 2, Type 0, BuildingBlock: UXUYUI_clean_sbu_0, # of connection points: 4
#     Node 3, Type 0, BuildingBlock: UXUYUI_clean_sbu_0, # of connection points: 4
#     Node 4, Type 0, BuildingBlock: UXUYUI_clean_sbu_0, # of connection points: 4
#     Node 5, Type 0, BuildingBlock: UXUYUI_clean_sbu_0, # of connection points: 4
#     Node 6, Type 0, BuildingBlock: UXUYUI_clean_sbu_0, # of connection points: 4
#     Node 7, Type 0, BuildingBlock: UXUYUI_clean_sbu_0, # of connection points: 4
#     Node 8, Type 0, BuildingBlock: UXUYUI_clean_sbu_0, # of connection points: 4
#     Node 9, Type 0, BuildingBlock: UXUYUI_clean_sbu_0, # of connection points: 4
#     Node 10, Type 0, BuildingBlock: UXUYUI_clean_sbu_0, # of connection points: 4
#     Node 11, Type 0, BuildingBlock: UXUYUI_clean_sbu_0, # of connection points: 4
#     Edge 12, Type (0, 0), BuildingBlock: AJUNOK_clean_linker_0, # of connection points: 2
#     Edge 13, Type (0, 0), BuildingBlock: AJUNOK_clean_linker_0, # of connection points: 2
#     Edge 14, Type (0, 0), BuildingBlock: AJUNOK_clean_linker_0, # of connection points: 2
#     Edge 15, Type (0, 0), BuildingBlock: AJUNOK_clean_linker_0, # of connection points: 2
#     Edge 16, Type (0, 0), BuildingBlock: AJUNOK_clean_linker_0, # of connection points: 2
#     Edge 17, Type (0, 0), BuildingBlock: AJUNOK_clean_linker_0, # of connection points: 2
#     Edge 18, Type (0, 0), BuildingBlock: AJUNOK_clean_linker_0, # of connection points: 2
#     Edge 19, Type (0, 0), BuildingBlock: AJUNOK_clean_linker_0, # of connection points: 2
#     Edge 20, Type (0, 0), BuildingBlock: AJUNOK_clean_linker_0, # of connection points: 2
#     Edge 21, Type (0, 0), BuildingBlock: AJUNOK_clean_linker_0, # of connection points: 2
#     Edge 22, Type (0, 0), BuildingBlock: AJUNOK_clean_linker_0, # of connection points: 2
#     Edge 23, Type (0, 0), BuildingBlock: AJUNOK_clean_linker_0, # of connection points: 2
#     Edge 24, Type (0, 0), BuildingBlock: AJUNOK_clean_linker_0, # of connection points: 2
#     Edge 25, Type (0, 0), BuildingBlock: AJUNOK_clean_linker_0, # of connection points: 2
#     Edge 26, Type (0, 0), BuildingBlock: AJUNOK_clean_linker_0, # of connection points: 2
#     Edge 27, Type (0, 0), BuildingBlock: AJUNOK_clean_linker_0, # of connection points: 2
#     Edge 28, Type (0, 0), BuildingBlock: AJUNOK_clean_linker_0, # of connection points: 2
#     Edge 29, Type (0, 0), BuildingBlock: AJUNOK_clean_linker_0, # of connection points: 2
#     Edge 30, Type (0, 0), BuildingBlock: AJUNOK_clean_linker_0, # of connection points: 2
#     Edge 31, Type (0, 0), BuildingBlock: AJUNOK_clean_linker_0, # of connection points: 2
#     Edge 32, Type (0, 0), BuildingBlock: AJUNOK_clean_linker_0, # of connection points: 2
#     Edge 33, Type (0, 0), BuildingBlock: AJUNOK_clean_linker_0, # of connection points: 2
#     Edge 34, Type (0, 0), BuildingBlock: AJUNOK_clean_linker_0, # of connection points: 2
#     Edge 35, Type (0, 0), BuildingBlock: AJUNOK_clean_linker_0, # of connection points: 2
# Relax obj value: 0.355
# Max RMSD: 0.304
# Mean RMSD: 0.304
data_MOF--net-wjf--node1-UXUYUI_clean_sbu_0--edge1-AJUNOK_clean_linker_0
_symmetry_space_group_name_H-M    P1
_symmetry_Int_Tables_number       1
_symmetry_cell_setting            triclinic
loop_
_symmetry_equiv_pos_as_xyz
'x, y, z'
_cell_length_a     60.389095
_cell_length_b     60.413503
_cell_length_c     32.099187
_cell_angle_alpha  90.025195
_cell_angle_beta   89.987323
_cell_angle_gamma 119.95706
loop_
_atom_site_label
_atom_site_type_symbol
_atom_site_fract_x
_atom_site_fract_y
_atom_site_fract_z
_atom_type_partial_charge
Li0 Li 0.30952 0.39536 0.05795 0.0
Li1 Li 0.31952 0.37322 0.10979 0.0
Li2 Li 0.35398 0.4062 0.06501 0.0
Li3 Li 0.3203 0.36347 0.03628 0.0
C4 C 0.32181 0.41975 0.13524 0.0
N5 N 0.30038 0.4377 0.19249 0.0
C6 C 0.29723 0.40359 0.15051 0.0
C7 C 0.33554 0.44503 0.14909 0.0
C8 C 0.28671 0.41302 0.17946 0.0
C9 C 0.32436 0.45375 0.17803 0.0
C10 C 0.26925 0.33732 0.08198 0.0
C11 C 0.24522 0.29189 0.0942 0.0
N12 N 0.22511 0.29422 0.10761 0.0
C13 C 0.24824 0.33922 0.09541 0.0
C14 C 0.26767 0.31344 0.08094 0.0
C15 C 0.22614 0.31723 0.10843 0.0
C16 C 0.26864 0.39112 0.01517 0.0
N17 N 0.28742 0.4075 0.04121 0.0
C18 C 0.27382 0.43827 0.03391 0.0
C19 C 0.29036 0.43073 0.05098 0.0
C20 C 0.25466 0.42187 0.00612 0.0
C21 C 0.25203 0.39798 0.99705 0.0
H22 H 0.26695 0.37286 0.00781 0.0
H23 H 0.30573 0.44353 0.07132 0.0
C24 C 0.3379 0.37189 0.18642 0.0
N25 N 0.31553 0.36049 0.16499 0.0
C26 C 0.33891 0.36465 0.22721 0.0
C27 C 0.29374 0.33385 0.22336 0.0
C28 C 0.29356 0.34187 0.18256 0.0
C29 C 0.31668 0.34532 0.24602 0.0
H30 H 0.35503 0.38661 0.17154 0.0
H31 H 0.27592 0.33323 0.16524 0.0
C32 C 0.32925 0.41109 0.98271 0.0
N33 N 0.31767 0.43653 0.92278 0.0
C34 C 0.31413 0.39779 0.94846 0.0
C35 C 0.33872 0.43736 0.98626 0.0
C36 C 0.30844 0.411 0.91854 0.0
C37 C 0.33258 0.44987 0.95569 0.0
C38 C 0.35429 0.35334 0.08142 0.0
C39 C 0.37802 0.35878 0.06548 0.0
C40 C 0.33832 0.32959 0.0997 0.0
C41 C 0.38521 0.34013 0.06748 0.0
C42 C 0.34621 0.31146 0.10115 0.0
N43 N 0.36928 0.31704 0.0851 0.0
C44 C 0.4022 0.43626 0.09989 0.0
C45 C 0.40047 0.44295 0.02744 0.0
C46 C 0.42833 0.4539 0.10072 0.0
N47 N 0.38894 0.43119 0.06364 0.0
C48 C 0.42658 0.46082 0.02687 0.0
C49 C 0.44081 0.46651 0.0639 0.0
H50 H 0.39247 0.42631 0.12805 0.0
H51 H 0.38944 0.4383 -0.00101 0.0
C52 C 0.28983 0.32717 0.9773 0.0
N53 N 0.31375 0.33945 0.99383 0.0
C54 C 0.28558 0.31538 0.93845 0.0
C55 C 0.33029 0.32756 0.93596 0.0
C56 C 0.33371 0.33925 0.97473 0.0
C57 C 0.30626 0.31656 0.91663 0.0
H58 H 0.27454 0.32847 0.99246 0.0
H59 H 0.35268 0.35 0.98779 0.0
O60 O 0.33244 0.41107 0.10659 0.0
O61 O 0.29097 0.35866 0.06896 0.0
O62 O 0.33436 0.39837 0.01303 0.0
O63 O 0.347 0.3714 0.07967 0.0
H64 H 0.2864 0.384 0.14016 0.0
H65 H 0.3546 0.45778 0.13745 0.0
H66 H 0.26769 0.40071 0.19154 0.0
H67 H 0.33474 0.47329 0.18898 0.0
H68 H 0.24376 0.27331 0.09373 0.0
H69 H 0.249 0.35751 0.09578 0.0
H70 H 0.28354 0.31154 0.06981 0.0
H71 H 0.20978 0.31844 0.11912 0.0
H72 H 0.27619 0.45678 0.0417 0.0
H73 H 0.23714 0.38466 0.97638 0.0
H74 H 0.35695 0.37385 0.24377 0.0
H75 H 0.27617 0.31911 0.2372 0.0
H76 H 0.30668 0.37747 0.9452 0.0
H77 H 0.35035 0.44788 0.01272 0.0
H78 H 0.29662 0.40093 0.89202 0.0
H79 H 0.33957 0.47016 0.95822 0.0
H80 H 0.39066 0.37718 0.0515 0.0
H81 H 0.32012 0.32526 0.11288 0.0
H82 H 0.40345 0.344 0.05505 0.0
H83 H 0.33402 0.29296 0.11512 0.0
H84 H 0.43873 0.45726 0.12969 0.0
H85 H 0.43555 0.47012 -0.00216 0.0
H86 H 0.26684 0.30715 0.92427 0.0
H87 H 0.34674 0.32917 0.91964 0.0
Li88 Li 0.95668 0.32498 0.44382 0.0
Li89 Li 0.92153 0.31507 0.39705 0.0
Li90 Li 0.96136 0.32029 0.36916 0.0
Li91 Li 0.95842 0.3566 0.39394 0.0
C92 C 0.94615 0.27709 0.41771 0.0
N93 N 0.96322 0.24322 0.4341 0.0
C94 C 0.92897 0.25081 0.41792 0.0
C95 C 0.97203 0.28616 0.42584 0.0
C96 C 0.93797 0.23399 0.42628 0.0
C97 C 0.98027 0.26873 0.43405 0.0
C98 C 0.91303 0.33608 0.46117 0.0
C99 C 0.87828 0.34443 0.47092 0.0
N100 N 0.86769 0.32519 0.49932 0.0
C101 C 0.90191 0.31651 0.49065 0.0
C102 C 0.90124 0.35027 0.45135 0.0
C103 C 0.87894 0.31124 0.50952 0.0
C104 C 0.98646 0.34518 0.51285 0.0
N105 N 0.96702 0.32274 0.49842 0.0
C106 C 0.9625 0.30304 0.56483 0.0
C107 C 0.95523 0.30164 0.52306 0.0
C108 C 0.9819 0.32635 0.5809 0.0
C109 C 0.99446 0.34734 0.55402 0.0
H110 H 0.99518 0.36166 0.4926 0.0
H111 H 0.93965 0.28408 0.51074 0.0
C112 C 0.8729 0.2983 0.3591 0.0
N113 N 0.88565 0.29418 0.39034 0.0
C114 C 0.84821 0.27934 0.34825 0.0
C115 C 0.84979 0.25294 0.40345 0.0
C116 C 0.87437 0.27239 0.41326 0.0
C117 C 0.83685 0.25597 0.36958 0.0
H118 H 0.88242 0.31546 0.34066 0.0
H119 H 0.88513 0.26944 0.4374 0.0
C120 C 0.00822 0.36487 0.38793 0.0
N121 N 0.05394 0.39905 0.35043 0.0
C122 C 0.00907 0.36998 0.34535 0.0
C123 C 0.03068 0.37707 0.41143 0.0
C124 C 0.03233 0.38731 0.32694 0.0
C125 C 0.05359 0.39433 0.39192 0.0
C126 C 0.9376 0.34899 0.31756 0.0
C127 C 0.94872 0.35215 0.27819 0.0
C128 C 0.92433 0.36179 0.32719 0.0
C129 C 0.9465 0.3682 0.24924 0.0
C130 C 0.92254 0.37767 0.2974 0.0
N131 N 0.93359 0.38053 0.25937 0.0
C132 C 0.95833 0.29664 0.29453 0.0
C133 C 0.99887 0.31266 0.32661 0.0
C134 C 0.96739 0.29176 0.25779 0.0
N135 N 0.97439 0.30796 0.32716 0.0
C136 C 0.00879 0.30811 0.29036 0.0
C137 C 0.9932 0.29849 0.25486 0.0
H138 H 0.93895 0.29315 0.29605 0.0
H139 H 0.01116 0.32148 0.35323 0.0
C140 C 0.96994 0.40378 0.42549 0.0
N141 N 0.97128 0.39248 0.3897 0.0
C142 C 0.97976 0.43011 0.42708 0.0
C143 C 0.99225 0.43285 0.35488 0.0
C144 C 0.98223 0.40642 0.3547 0.0
C145 C 0.99123 0.44498 0.39154 0.0
H146 H 0.96152 0.39234 0.45305 0.0
H147 H 0.9833 0.39716 0.32664 0.0
O148 O 0.93748 0.29369 0.40958 0.0
O149 O 0.9353 0.34124 0.44192 0.0
O150 O 0.98565 0.34789 0.40664 0.0
O151 O 0.93972 0.33348 0.34645 0.0
H152 H 0.90888 0.24349 0.41166 0.0
H153 H 0.98564 0.3064 0.42593 0.0
H154 H 0.92488 0.2136 0.42655 0.0
H155 H 0.00024 0.27548 0.4404 0.0
H156 H 0.86891 0.35522 0.46356 0.0
H157 H 0.91076 0.3053 0.49849 0.0
H158 H 0.90976 0.3657 0.42899 0.0
H159 H 0.87003 0.29603 0.53219 0.0
H160 H 0.95241 0.28646 0.58472 0.0
H161 H 0.00986 0.36549 0.56505 0.0
H162 H 0.83897 0.28215 0.32149 0.0
H163 H 0.84158 0.2351 0.42051 0.0
H164 H 0.99197 0.36058 0.32664 0.0
H165 H 0.03047 0.37322 0.44438 0.0
H166 H 0.0332 0.39141 0.29399 0.0
H167 H 0.07111 0.40393 0.40975 0.0
H168 H 0.95906 0.34242 0.27007 0.0
H169 H 0.9157 0.35964 0.35749 0.0
H170 H 0.95509 0.37087 0.21873 0.0
H171 H 0.91243 0.38777 0.30456 0.0
H172 H 0.95487 0.28483 0.23095 0.0
H173 H 0.0288 0.31355 0.28921 0.0
H174 H 0.97877 0.43881 0.45602 0.0
H175 H 0.00058 0.44363 0.32663 0.0
Li176 Li 0.62819 0.9558 0.7792 0.0
Li177 Li 0.60472 0.91964 0.73583 0.0
Li178 Li 0.63256 0.95842 0.70386 0.0
Li179 Li 0.59196 0.95121 0.73605 0.0
C180 C 0.66816 0.95219 0.74788 0.0
N181 N 0.7206 0.97767 0.75826 0.0
C182 C 0.68103 0.93848 0.75219 0.0
C183 C 0.682 0.97891 0.74883 0.0
C184 C 0.70753 0.9517 0.75742 0.0
C185 C 0.70848 0.99142 0.7541 0.0
C186 C 0.57781 0.90866 0.80642 0.0
C187 C 0.5377 0.87474 0.83244 0.0
N188 N 0.55041 0.86451 0.85233 0.0
C189 C 0.59051 0.89796 0.8273 0.0
C190 C 0.55123 0.89709 0.80909 0.0
C191 C 0.57629 0.87556 0.85027 0.0
C192 C 0.64185 0.98795 0.84776 0.0
N193 N 0.64431 0.96863 0.83107 0.0
C194 C 0.66642 0.96688 0.89155 0.0
C195 C 0.65651 0.95817 0.85175 0.0
C196 C 0.66347 0.98632 0.91009 0.0
C197 C 0.65142 0.9972 0.8874 0.0
H198 H 0.63178 0.99565 0.83067 0.0
H199 H 0.65806 0.94272 0.83774 0.0
C200 C 0.6133 0.88267 0.70682 0.0
N201 N 0.59449 0.88454 0.72681 0.0
C202 C 0.60953 0.85909 0.69412 0.0
C203 C 0.5668 0.83924 0.72257 0.0
C204 C 0.57137 0.86348 0.73459 0.0
C205 C 0.58613 0.83696 0.70206 0.0
H206 H 0.63119 0.89967 0.69987 0.0
H207 H 0.55637 0.86543 0.74933 0.0
C208 C 0.62863 0.0023 0.72149 0.0
N209 N 0.63046 0.04358 0.68114 0.0
C210 C 0.61808 0.99935 0.68171 0.0
C211 C 0.64013 0.02625 0.74072 0.0
C212 C 0.61919 0.02045 0.66184 0.0
C213 C 0.64087 0.04689 0.71981 0.0
C214 C 0.57776 0.91308 0.66867 0.0
C215 C 0.58309 0.90237 0.63421 0.0
C216 C 0.55302 0.90119 0.68506 0.0
C217 C 0.5636 0.87975 0.61697 0.0
C218 C 0.53403 0.87865 0.66685 0.0
N219 N 0.53968 0.86846 0.63352 0.0
C220 C 0.65504 0.9522 0.6349 0.0
C221 C 0.66789 0.99587 0.64481 0.0
C222 C 0.66694 0.95743 0.59615 0.0
N223 N 0.65479 0.9711 0.65743 0.0
C224 C 0.68004 0.002 0.60605 0.0
C225 C 0.67882 0.98244 0.58067 0.0
H226 H 0.64496 0.93279 0.64632 0.0
H227 H 0.66799 0.01069 0.66378 0.0
C228 C 0.56006 0.96715 0.77137 0.0
N229 N 0.56597 0.96005 0.73476 0.0
C230 C 0.54293 0.97629 0.77213 0.0
C231 C 0.5381 0.97039 0.69748 0.0
C232 C 0.55524 0.96123 0.6982 0.0
C233 C 0.53188 0.97821 0.73479 0.0
H234 H 0.56913 0.96621 0.79986 0.0
H235 H 0.56058 0.95577 0.66946 0.0
O236 O 0.64217 0.93929 0.7429 0.0
O237 O 0.59135 0.93056 0.78385 0.0
O238 O 0.62746 0.98188 0.74198 0.0
O239 O 0.59673 0.93477 0.68693 0.0
H240 H 0.67061 0.91779 0.75161 0.0
H241 H 0.67253 0.98996 0.74557 0.0
H242 H 0.71772 0.9413 0.76084 0.0
H243 H 0.71941 0.01207 0.7549 0.0
H244 H 0.51711 0.8655 0.83471 0.0
H245 H 0.61109 0.90672 0.82543 0.0
H246 H 0.54118 0.90528 0.79322 0.0
H247 H 0.58582 0.86696 0.86642 0.0
H248 H 0.67587 0.95823 0.90792 0.0
H249 H 0.64855 0.01204 0.90081 0.0
H250 H 0.62478 0.85822 0.67777 0.0
H251 H 0.54852 0.82256 0.72945 0.0
H252 H 0.6093 0.98105 0.66614 0.0
H253 H 0.64838 0.02886 0.7715 0.0
H254 H 0.61112 0.01843 0.63105 0.0
H255 H 0.6497 0.06553 0.73433 0.0
H256 H 0.60207 0.9113 0.62097 0.0
H257 H 0.5486 0.90905 0.712 0.0
H258 H 0.56749 0.87116 0.59045 0.0
H259 H 0.51484 0.86917 0.6794 0.0
H260 H 0.66578 0.9419 0.57759 0.0
H261 H 0.68881 0.02151 0.59498 0.0
H262 H 0.53856 0.98207 0.80153 0.0
H263 H 0.53044 0.97209 0.66792 0.0
Li264 Li 0.67282 0.62218 0.11204 0.0
Li265 Li 0.68071 0.59411 0.06887 0.0
Li266 Li 0.67604 0.62793 0.03617 0.0
Li267 Li 0.63961 0.59046 0.06572 0.0
C268 C 0.7204 0.65731 0.08071 0.0
N269 N 0.75548 0.70872 0.08926 0.0
C270 C 0.74656 0.66593 0.07822 0.0
C271 C 0.71207 0.67486 0.08744 0.0
C272 C 0.764 0.69199 0.08266 0.0
C273 C 0.73011 0.70076 0.09171 0.0
C274 C 0.66147 0.56831 0.13568 0.0
C275 C 0.65398 0.52588 0.14944 0.0
N276 N 0.67442 0.53587 0.17564 0.0
C277 C 0.68229 0.57815 0.16292 0.0
C278 C 0.6471 0.54196 0.12899 0.0
C279 C 0.68857 0.56144 0.18276 0.0
C280 C 0.65605 0.63667 0.1812 0.0
N281 N 0.67742 0.6381 0.16469 0.0
C282 C 0.70141 0.65902 0.2258 0.0
C283 C 0.69996 0.64914 0.18583 0.0
C284 C 0.67944 0.65736 0.24389 0.0
C285 C 0.65665 0.64635 0.22085 0.0
H286 H 0.63834 0.62738 0.16387 0.0
H287 H 0.71663 0.64983 0.17203 0.0
C288 C 0.69381 0.55752 0.03863 0.0
N289 N 0.70071 0.57788 0.06423 0.0
C290 C 0.71136 0.54971 0.02857 0.0
C291 C 0.7423 0.58313 0.07311 0.0
C292 C 0.72414 0.59023 0.08238 0.0
C293 C 0.73621 0.56309 0.04492 0.0
H294 H 0.67526 0.54821 0.0241 0.0
H295 H 0.72923 0.60658 0.10215 0.0
C296 C 0.63252 0.63255 0.05486 0.0
N297 N 0.59843 0.64398 0.01664 0.0
C298 C 0.62708 0.6276 0.01245 0.0
C299 C 0.62067 0.64339 0.07782 0.0
C300 C 0.60981 0.63351 0.99368 0.0
C301 C 0.60345 0.64898 0.05796 0.0
C302 C 0.64513 0.57346 0.99121 0.0
C303 C 0.64165 0.57995 0.95088 0.0
C304 C 0.63159 0.54793 0.00389 0.0
C305 C 0.62467 0.56078 0.92398 0.0
C306 C 0.61477 0.52932 0.97609 0.0
N307 N 0.61168 0.53608 0.93704 0.0
C308 C 0.6976 0.64452 0.95856 0.0
C309 C 0.68472 0.67196 0.98946 0.0
C310 C 0.70172 0.65703 0.92049 0.0
N311 N 0.68804 0.65133 0.99129 0.0
C312 C 0.68869 0.68513 0.95196 0.0
C313 C 0.69601 0.67676 0.91642 0.0
H314 H 0.70025 0.62814 0.96122 0.0
H315 H 0.67741 0.67716 0.01623 0.0
C316 C 0.59173 0.5555 0.0984 0.0
N317 N 0.60339 0.56796 0.06268 0.0
C318 C 0.56529 0.53924 0.09951 0.0
C319 C 0.56327 0.54881 0.02699 0.0
C320 C 0.58971 0.56501 0.02735 0.0
C321 C 0.55076 0.53586 0.0635 0.0
H322 H 0.60299 0.5583 0.12614 0.0
H323 H 0.59921 0.57514 -0.00069 0.0
O324 O 0.70318 0.63182 0.07625 0.0
O325 O 0.65546 0.58444 0.11519 0.0
O326 O 0.64964 0.62723 0.07383 0.0
O327 O 0.66156 0.59202 0.01814 0.0
H328 H 0.75333 0.65262 0.07286 0.0
H329 H 0.69194 0.66864 0.08946 0.0
H330 H 0.78431 0.69892 0.08083 0.0
H331 H 0.72393 0.71453 0.09697 0.0
H332 H 0.64308 0.50545 0.14448 0.0
H333 H 0.6937 0.59851 0.16822 0.0
H334 H 0.63079 0.53402 0.10829 0.0
H335 H 0.70475 0.56881 0.2037 0.0
H336 H 0.71937 0.66755 0.24256 0.0
H337 H 0.63924 0.64442 0.23395 0.0
H338 H 0.70598 0.53421 0.00666 0.0
H339 H 0.76141 0.59438 0.08564 0.0
H340 H 0.63614 0.61934 0.99416 0.0
H341 H 0.62478 0.64755 0.11061 0.0
H342 H 0.60549 0.6298 0.96085 0.0
H343 H 0.59412 0.65736 0.07537 0.0
H344 H 0.65179 0.59957 0.94044 0.0
H345 H 0.63374 0.5426 0.03512 0.0
H346 H 0.62176 0.56556 0.89275 0.0
H347 H 0.60408 0.50953 0.98564 0.0
H348 H 0.70733 0.65 0.89378 0.0
H349 H 0.68453 0.70058 0.95007 0.0
H350 H 0.55632 0.52928 0.12811 0.0
H351 H 0.55266 0.54671 -0.00134 0.0
Li352 Li 0.08011 0.685 0.40384 0.0
Li353 Li 0.04402 0.66949 0.44942 0.0
Li354 Li 0.05085 0.6393 0.40728 0.0
Li355 Li 0.03864 0.66927 0.37416 0.0
C356 C 0.08842 0.67521 0.48589 0.0
N357 N 0.11882 0.70132 0.5532 0.0
C358 C 0.0961 0.70097 0.49208 0.0
C359 C 0.09618 0.66274 0.51394 0.0
C360 C 0.11147 0.71383 0.52629 0.0
C361 C 0.11156 0.67627 0.54778 0.0
C362 C 0.04566 0.7132 0.41962 0.0
C363 C 0.0076 0.71617 0.42864 0.0
N364 N 0.02234 0.74136 0.4383 0.0
C365 C 0.06045 0.73909 0.42963 0.0
C366 C 0.01904 0.70162 0.41913 0.0
C367 C 0.04829 0.75301 0.43897 0.0
C368 C 0.11313 0.72482 0.35757 0.0
N369 N 0.11363 0.71099 0.39046 0.0
C370 C 0.15915 0.73626 0.39421 0.0
C371 C 0.13597 0.71602 0.40878 0.0
C372 C 0.15914 0.75075 0.35984 0.0
C373 C 0.13568 0.74443 0.34119 0.0
H374 H 0.09501 0.72026 0.34369 0.0
H375 H 0.13583 0.70459 0.43479 0.0
C376 C 0.01228 0.64856 0.51702 0.0
N377 N 0.0304 0.67141 0.50152 0.0
C378 C 0.00129 0.64723 0.55574 0.0
C379 C 0.02798 0.69307 0.56217 0.0
C380 C 0.03836 0.69353 0.52302 0.0
C381 C 0.00916 0.66966 0.57882 0.0
H382 H 0.00666 0.63125 0.49949 0.0
H383 H 0.053 0.71144 0.51015 0.0
C384 C 0.0839 0.66457 0.33144 0.0
N385 N 0.12451 0.67482 0.27983 0.0
C386 C 0.08588 0.67556 0.29233 0.0
C387 C 0.10243 0.65861 0.34423 0.0
C388 C 0.10659 0.68064 0.26671 0.0
C389 C 0.12286 0.664 0.3177 0.0
C390 C 0.99444 0.62464 0.40315 0.0
C391 C 0.98901 0.60483 0.37518 0.0
C392 C 0.9744 0.62701 0.42015 0.0
C393 C 0.96365 0.58803 0.36399 0.0
C394 C 0.9493 0.60982 0.40821 0.0
N395 N 0.94449 0.59086 0.38058 0.0
C396 C 0.03614 0.59115 0.43989 0.0
C397 C 0.04818 0.596 0.36865 0.0
C398 C 0.0289 0.56532 0.43863 0.0
N399 N 0.04533 0.60576 0.40511 0.0
C400 C 0.04123 0.57027 0.36601 0.0
C401 C 0.03119 0.55458 0.40122 0.0
H402 H 0.03377 0.59945 0.46823 0.0
H403 H 0.05493 0.60795 0.34123 0.0
C404 C 0.02631 0.69665 0.31475 0.0
N405 N 0.02303 0.67347 0.32606 0.0
C406 C 0.01973 0.70034 0.27465 0.0
C407 C 0.00656 0.65632 0.25892 0.0
C408 C 0.01323 0.65344 0.2992 0.0
C409 C 0.01034 0.68013 0.24606 0.0
H410 H 0.03548 0.71272 0.3357 0.0
H411 H 0.01222 0.63574 0.30808 0.0
O412 O 0.07314 0.66202 0.45291 0.0
O413 O 0.05731 0.69924 0.41134 0.0
O414 O 0.06409 0.65998 0.35734 0.0
O415 O 0.01912 0.64108 0.415 0.0
H416 H 0.09037 0.711 0.47073 0.0
H417 H 0.09032 0.64278 0.50962 0.0
H418 H 0.11756 0.73376 0.53144 0.0
H419 H 0.11771 0.66685 0.56974 0.0
H420 H 0.987 0.70745 0.42831 0.0
H421 H 0.0811 0.74828 0.43034 0.0
H422 H 0.0074 0.68168 0.41115 0.0
H423 H 0.05949 0.77306 0.44682 0.0
H424 H 0.17667 0.7408 0.41026 0.0
H425 H 0.13468 0.75471 0.31429 0.0
H426 H 0.98734 0.62875 0.56806 0.0
H427 H 0.03467 0.7107 0.57938 0.0
H428 H 0.0717 0.68033 0.28206 0.0
H429 H 0.10116 0.65017 0.37452 0.0
H430 H 0.10846 0.68926 0.23643 0.0
H431 H 0.13743 0.65964 0.32726 0.0
H432 H 0.0042 0.60256 0.36192 0.0
H433 H 0.97815 0.64187 0.44256 0.0
H434 H 0.95922 0.57273 0.34214 0.0
H435 H 0.93363 0.61149 0.42104 0.0
H436 H 0.02121 0.55377 0.46639 0.0
H437 H 0.04275 0.56253 0.3364 0.0
H438 H 0.02334 0.71909 0.26537 0.0
H439 H -0.00048 0.64037 0.23744 0.0
Li440 Li 0.4032 0.09155 0.73788 0.0
Li441 Li 0.37964 0.05696 0.7848 0.0
Li442 Li 0.41132 0.05656 0.74024 0.0
Li443 Li 0.3718 0.05058 0.71172 0.0
C444 C 0.42297 0.09815 0.81773 0.0
N445 N 0.43434 0.13147 0.88378 0.0
C446 C 0.40751 0.10878 0.82618 0.0
C447 C 0.44417 0.10444 0.84291 0.0
C448 C 0.41359 0.12559 0.8597 0.0
C449 C 0.44962 0.12134 0.87615 0.0
C450 C 0.34003 0.06303 0.75432 0.0
C451 C 0.29852 0.02669 0.76864 0.0
N452 N 0.28811 0.04211 0.76701 0.0
C453 C 0.32893 0.0785 0.75276 0.0
C454 C 0.32472 0.03689 0.7623 0.0
C455 C 0.30265 0.06757 0.75928 0.0
C456 C 0.40348 0.12856 0.69131 0.0
N457 N 0.41629 0.12635 0.7243 0.0
C458 C 0.44253 0.17175 0.7289 0.0
C459 C 0.43583 0.14723 0.7429 0.0
C460 C 0.42928 0.17442 0.69509 0.0
C461 C 0.40978 0.15249 0.67596 0.0
H462 H 0.38812 0.11157 0.6772 0.0
H463 H 0.44604 0.14492 0.76864 0.0
C464 C 0.37296 0.03151 0.85801 0.0
N465 N 0.36606 0.04722 0.83902 0.0
C466 C 0.3662 0.02428 0.89927 0.0
C467 C 0.3447 0.04901 0.90054 0.0
C468 C 0.35206 0.05596 0.8591 0.0
C469 C 0.35226 0.03339 0.92113 0.0
H470 H 0.38423 0.02507 0.84119 0.0
H471 H 0.34715 0.06875 0.84338 0.0
C472 C 0.42966 0.08753 0.67082 0.0
N473 N 0.47583 0.11728 0.63102 0.0
C474 C 0.43091 0.08808 0.62735 0.0
C475 C 0.4519 0.10212 0.69409 0.0
C476 C 0.45443 0.10324 0.60779 0.0
C477 C 0.47505 0.11703 0.67337 0.0
C478 C 0.37294 0.00623 0.73205 0.0
C479 C 0.37966 0.0068 0.69021 0.0
C480 C 0.363 0.98339 0.75438 0.0
C481 C 0.37628 0.98447 0.6714 0.0
C482 C 0.35991 0.96146 0.73447 0.0
N483 N 0.36656 0.96244 0.69374 0.0
C484 C 0.44476 0.04171 0.7734 0.0
C485 C 0.44253 0.04003 0.6996 0.0
C486 C 0.46088 0.03133 0.77331 0.0
N487 N 0.43581 0.04562 0.73692 0.0
C488 C 0.45847 0.02947 0.69809 0.0
C489 C 0.46752 0.02468 0.73531 0.0
H490 H 0.43886 0.04612 0.8026 0.0
H491 H 0.43504 0.04316 0.67103 0.0
C492 C 0.35409 0.05191 0.63448 0.0
N493 N 0.3483 0.03592 0.66747 0.0
C494 C 0.34187 0.04272 0.59649 0.0
C495 C 0.31652 0.00105 0.62793 0.0
C496 C 0.32927 0.01112 0.66557 0.0
C497 C 0.32345 0.01679 0.59248 0.0
H498 H 0.36943 0.07147 0.63701 0.0
H499 H 0.3251 0.99883 0.69239 0.0
O500 O 0.4173 0.08129 0.78555 0.0
O501 O 0.36576 0.07363 0.7479 0.0
O502 O 0.40668 0.07279 0.6902 0.0
O503 O 0.3762 0.02783 0.75147 0.0
H504 H 0.39103 0.10421 0.80712 0.0
H505 H 0.45626 0.09629 0.83687 0.0
H506 H 0.4018 0.13396 0.86656 0.0
H507 H 0.46597 0.12637 0.8959 0.0
H508 H 0.28646 0.00651 0.77488 0.0
H509 H 0.34053 0.09876 0.74658 0.0
H510 H 0.33289 0.02457 0.76375 0.0
H511 H 0.2938 0.07933 0.75817 0.0
H512 H 0.45771 0.18838 0.74428 0.0
H513 H 0.39897 0.15387 0.65014 0.0
H514 H 0.37209 0.01197 0.91419 0.0
H515 H 0.33398 0.05638 0.91669 0.0
H516 H 0.41386 0.07688 0.60891 0.0
H517 H 0.45136 0.10198 0.72774 0.0
H518 H 0.45568 0.10384 0.57415 0.0
H519 H 0.4924 0.12842 0.69097 0.0
H520 H 0.38738 0.02425 0.67233 0.0
H521 H 0.35774 0.98265 0.78682 0.0
H522 H 0.38138 0.98465 0.63905 0.0
H523 H 0.35224 0.94365 0.7514 0.0
H524 H 0.46748 0.02785 0.80264 0.0
H525 H 0.46352 0.02494 0.66817 0.0
H526 H 0.34832 0.05537 0.56979 0.0
H527 H 0.3025 0.9809 0.62591 0.0
Li528 Li 0.63566 0.67472 0.61988 0.0
Li529 Li 0.59604 0.64192 0.58891 0.0
Li530 Li 0.62913 0.67402 0.54605 0.0
Li531 Li 0.60507 0.68556 0.5929 0.0
C532 C 0.63353 0.62857 0.59849 0.0
N533 N 0.63773 0.58944 0.63512 0.0
C534 C 0.62484 0.62087 0.63918 0.0
C535 C 0.64431 0.61634 0.57641 0.0
C536 C 0.62715 0.60107 0.65716 0.0
C537 C 0.64629 0.59661 0.59548 0.0
C538 C 0.57716 0.65319 0.65845 0.0
C539 C 0.53202 0.63852 0.65515 0.0
N540 N 0.53046 0.63538 0.69722 0.0
C541 C 0.57513 0.64986 0.70163 0.0
C542 C 0.55546 0.64752 0.63495 0.0
C543 C 0.55134 0.64083 0.72066 0.0
C544 C 0.65722 0.70139 0.69066 0.0
N545 N 0.6585 0.68396 0.66559 0.0
C546 C 0.68342 0.67704 0.71607 0.0
C547 C 0.67251 0.67288 0.67638 0.0
C548 C 0.68008 0.693 0.74414 0.0
C549 C 0.66814 0.70643 0.73016 0.0
H550 H 0.64644 0.71032 0.68076 0.0
H551 H 0.67395 0.65968 0.65538 0.0
C552 C 0.56126 0.59511 0.55287 0.0
N553 N 0.5704 0.60687 0.59011 0.0
C554 C 0.54334 0.56906 0.55136 0.0
C555 C 0.54455 0.56777 0.62658 0.0
C556 C 0.56237 0.59383 0.62664 0.0
C557 C 0.5348 0.55509 0.58858 0.0
H558 H 0.56815 0.60597 0.52432 0.0
H559 H 0.57011 0.60349 0.65586 0.0
C560 C 0.66841 0.71904 0.57754 0.0
N561 N 0.72036 0.74936 0.56446 0.0
C562 C 0.67941 0.74555 0.57468 0.0
C563 C 0.68383 0.70794 0.57381 0.0
C564 C 0.70571 0.76055 0.56804 0.0
C565 C 0.71005 0.7236 0.56719 0.0
C566 C 0.58635 0.67358 0.51189 0.0
C567 C 0.60408 0.69855 0.50006 0.0
C568 C 0.56335 0.66014 0.49008 0.0
C569 C 0.59849 0.70968 0.46653 0.0
C570 C 0.55842 0.67195 0.45679 0.0
N571 N 0.57596 0.69626 0.44579 0.0
C572 C 0.63871 0.65455 0.47603 0.0
C573 C 0.65914 0.69974 0.47234 0.0
C574 C 0.64793 0.65344 0.4368 0.0
N575 N 0.64437 0.67739 0.49292 0.0
C576 C 0.66862 0.6995 0.43263 0.0
C577 C 0.66308 0.67609 0.41461 0.0
H578 H 0.62668 0.6371 0.49298 0.0
H579 H 0.66331 0.71768 0.4864 0.0
C580 C 0.59699 0.71408 0.64951 0.0
N581 N 0.59249 0.70789 0.6085 0.0
C582 C 0.59153 0.73184 0.66698 0.0
C583 C 0.57688 0.73705 0.59967 0.0
C584 C 0.58195 0.71844 0.58364 0.0
C585 C 0.58219 0.7443 0.64178 0.0
H586 H 0.60557 0.70571 0.66866 0.0
H587 H 0.5783 0.71325 0.55119 0.0
O588 O 0.63108 0.64759 0.57977 0.0
O589 O 0.60038 0.66199 0.63955 0.0
O590 O 0.64265 0.70423 0.58376 0.0
O591 O 0.59157 0.6619 0.54382 0.0
H592 H 0.61665 0.63023 0.65692 0.0
H593 H 0.65106 0.62202 0.54483 0.0
H594 H 0.62056 0.59497 0.68866 0.0
H595 H 0.6546 0.58698 0.57875 0.0
H596 H 0.51506 0.63402 0.63738 0.0
H597 H 0.59179 0.65421 0.7202 0.0
H598 H 0.55664 0.65 0.60152 0.0
H599 H 0.54948 0.63814 0.75405 0.0
H600 H 0.69273 0.66651 0.72566 0.0
H601 H 0.66583 0.71943 0.75054 0.0
H602 H 0.53623 0.55993 0.52145 0.0
H603 H 0.5389 0.55756 0.65589 0.0
H604 H 0.66771 0.75442 0.57747 0.0
H605 H 0.67573 0.68748 0.57589 0.0
H606 H 0.71448 0.7811 0.56572 0.0
H607 H 0.7222 0.71526 0.56421 0.0
H608 H 0.62185 0.70937 0.51677 0.0
H609 H 0.54949 0.64074 0.49874 0.0
H610 H 0.61202 0.729 0.4571 0.0
H611 H 0.54069 0.66177 0.43965 0.0
H612 H 0.64272 0.63499 0.42348 0.0
H613 H 0.68008 0.71731 0.41617 0.0
H614 H 0.59563 0.73655 0.69968 0.0
H615 H 0.5701 0.74648 0.57886 0.0
Li616 Li 0.94348 0.58764 0.9281 0.0
Li617 Li 0.95015 0.62785 0.95486 0.0
Li618 Li 0.9091 0.59676 0.92858 0.0
Li619 Li 0.94416 0.6192 0.8821 0.0
C620 C 0.91174 0.57105 -0.00244 0.0
N621 N 0.87997 0.52624 0.03945 0.0
C622 C 0.90963 0.5711 0.0409 0.0
C623 C 0.89767 0.54822 0.97548 0.0
C624 C 0.89347 0.54824 0.06152 0.0
C625 C 0.88172 0.52577 0.99724 0.0
C626 C 0.99391 0.62532 0.93744 0.0
C627 C 0.03881 0.63868 0.93829 0.0
N628 N 0.03671 0.63129 0.9788 0.0
C629 C 0.9922 0.61785 0.9791 0.0
C630 C 0.0174 0.63582 0.91686 0.0
C631 C 0.01405 0.62104 -0.00055 0.0
C632 C 0.95963 0.55502 0.89697 0.0
N633 N 0.95373 0.56269 0.93302 0.0
C634 C 0.96672 0.5378 0.97311 0.0
C635 C 0.95691 0.55436 0.97072 0.0
C636 C 0.97356 0.53007 0.93641 0.0
C637 C 0.96959 0.53857 0.89793 0.0
H638 H 0.95707 0.56214 0.8675 0.0
H639 H 0.95251 0.56108 -0.00099 0.0
C640 C 0.94842 0.64724 0.03049 0.0
N641 N 0.96486 0.65171 -0.00145 0.0
C642 C 0.95748 0.65948 0.06853 0.0
C643 C 1e-05 0.68225 0.03903 0.0
C644 C 0.99005 0.6696 0.00131 0.0
C645 C 0.98373 0.67646 0.0736 0.0
H646 H 0.92852 0.63282 0.02723 0.0
H647 H 0.00266 0.67281 0.97527 0.0
C648 C 0.90263 0.57609 0.84935 0.0
N649 N 0.86984 0.56483 0.78257 0.0
C650 C 0.89103 0.59076 0.84182 0.0
C651 C 0.89755 0.55571 0.82292 0.0
C652 C 0.87451 0.58476 0.8079 0.0
C653 C 0.88091 0.55031 0.78933 0.0
C654 C 0.93891 0.65972 0.90992 0.0
C655 C 0.92385 0.6713 0.90919 0.0
C656 C 0.96523 0.67448 0.90293 0.0
C657 C 0.93537 0.6975 0.90144 0.0
C658 C 0.97602 0.70062 0.89529 0.0
N659 N 0.961 0.71149 0.89471 0.0
C660 C 0.87198 0.59859 0.97211 0.0
C661 C 0.8539 0.56216 0.92806 0.0
C662 C 0.84824 0.59128 0.9895 0.0
N663 N 0.8744 0.58404 0.94222 0.0
C664 C 0.82954 0.55425 0.94432 0.0
C665 C 0.82672 0.56878 0.97588 0.0
H666 H 0.88873 0.61575 0.98287 0.0
H667 H 0.85649 0.55069 0.90481 0.0
C668 C 0.9742 0.63034 0.81206 0.0
N669 N 0.95494 0.6331 0.82822 0.0
C670 C 0.98333 0.63918 0.77213 0.0
C671 C 0.95264 0.65364 0.76611 0.0
C672 C 0.94416 0.6446 0.80641 0.0
C673 C 0.97235 0.65076 0.74851 0.0
H674 H 0.98222 0.62092 0.83011 0.0
H675 H 0.92885 0.64654 0.8201 0.0
O676 O 0.92723 0.59341 0.97703 0.0
O677 O 0.97283 0.62235 0.91653 0.0
O678 O 0.91913 0.58163 0.88203 0.0
O679 O 0.9277 0.63405 0.91738 0.0
H680 H 0.92036 0.58863 0.05842 0.0
H681 H 0.89897 0.5478 0.94193 0.0
H682 H 0.89165 0.548 0.09506 0.0
H683 H 0.87072 0.50798 0.98057 0.0
H684 H 0.05711 0.64678 0.92272 0.0
H685 H 0.97429 0.6098 0.99573 0.0
H686 H 0.01908 0.64172 0.88463 0.0
H687 H 0.01298 0.61538 0.03169 0.0
H688 H 0.96964 0.53171 0.00334 0.0
H689 H 0.97429 0.53269 0.86894 0.0
H690 H 0.94439 0.65402 0.0946 0.0
H691 H 0.02039 0.69516 0.04195 0.0
H692 H 0.89465 0.60659 0.86185 0.0
H693 H 0.90643 0.54421 0.8283 0.0
H694 H 0.86542 0.59596 0.8017 0.0
H695 H 0.87682 0.5346 0.7686 0.0
H696 H 0.90345 0.66011 0.91453 0.0
H697 H 0.97724 0.66595 0.90323 0.0
H698 H 0.92394 0.7067 0.90077 0.0
H699 H 0.99635 0.71226 0.8898 0.0
H700 H 0.84667 0.60319 0.0132 0.0
H701 H 0.81322 0.53686 0.93302 0.0
H702 H 0.99838 0.63639 0.7594 0.0
H703 H 0.94388 0.66269 0.74889 0.0
Li704 Li 0.33107 0.96212 0.29144 0.0
Li705 Li 0.3613 0.952 0.25406 0.0
Li706 Li 0.32908 0.95988 0.2175 0.0
Li707 Li 0.31545 0.92204 0.25736 0.0
C708 C 0.36994 0.00617 0.27418 0.0
N709 N 0.39148 0.05019 0.3217 0.0
C710 C 0.39386 0.01502 0.29265 0.0
C711 C 0.35707 0.01982 0.27957 0.0
C712 C 0.40442 0.0373 0.31661 0.0
C713 C 0.36825 0.04199 0.30382 0.0
C714 C 0.3352 0.91562 0.32774 0.0
C715 C 0.33692 0.87723 0.34094 0.0
N716 N 0.32211 0.87274 0.37533 0.0
C717 C 0.32018 0.91077 0.3634 0.0
C718 C 0.34382 0.89886 0.31654 0.0
C719 C 0.3137 0.88893 0.38699 0.0
C720 C 0.30505 0.97596 0.35034 0.0
N721 N 0.327 0.9758 0.34156 0.0
C722 C 0.34196 0.9879 0.41103 0.0
C723 C 0.34542 0.98181 0.37069 0.0
C724 C 0.31921 0.98753 0.42149 0.0
C725 C 0.30077 0.98195 0.39051 0.0
H726 H 0.29047 0.97039 0.32669 0.0
H727 H 0.36235 0.98085 0.3629 0.0
C728 C 0.40835 0.96536 0.21695 0.0
N729 N 0.39515 0.95824 0.25336 0.0
C730 C 0.43434 0.97313 0.21638 0.0
C731 C 0.43246 0.96581 0.29072 0.0
C732 C 0.40647 0.95803 0.28981 0.0
C733 C 0.44677 0.97372 0.2537 0.0
H734 H 0.3988 0.96562 0.1886 0.0
H735 H 0.39554 0.95281 0.3184 0.0
C736 C 0.28178 0.94427 0.2329 0.0
N737 N 0.24501 0.94447 0.182 0.0
C738 C 0.26536 0.9225 0.20994 0.0
C739 C 0.27943 0.96609 0.23018 0.0
C740 C 0.2469 0.92299 0.18435 0.0
C741 C 0.26075 0.96583 0.20419 0.0
C742 C 0.33339 0.91011 0.18885 0.0
C743 C 0.31191 0.8964 0.16353 0.0
C744 C 0.35054 0.90118 0.19448 0.0
C745 C 0.30795 0.87396 0.14428 0.0
C746 C 0.34588 0.87863 0.17476 0.0
N747 N 0.32487 0.86561 0.15026 0.0
C748 C 0.33966 0.00112 0.16501 0.0
C749 C 0.31207 0.96063 0.13501 0.0
C750 C 0.34162 0.01319 0.12707 0.0
N751 N 0.32564 0.97525 0.16797 0.0
C752 C 0.31357 0.9719 0.09637 0.0
C753 C 0.32932 0.9984 0.09181 0.0
H754 H 0.35041 0.01233 0.19151 0.0
H755 H 0.30107 0.94014 0.13812 0.0
C756 C 0.27309 0.88803 0.29722 0.0
N757 N 0.28967 0.8877 0.26901 0.0
C758 C 0.25321 0.86542 0.31292 0.0
C759 C 0.2672 0.84199 0.26966 0.0
C760 C 0.28749 0.8653 0.25568 0.0
C761 C 0.24972 0.84192 0.29876 0.0
H762 H 0.2757 0.90607 0.30835 0.0
H763 H 0.30142 0.86535 0.23463 0.0
O764 O 0.35905 0.98411 0.25126 0.0
O765 O 0.34113 0.93648 0.30358 0.0
O766 O 0.30028 0.94436 0.25752 0.0
O767 O 0.33803 0.93252 0.20699 0.0
H768 H 0.40415 0.00479 0.28868 0.0
H769 H 0.33847 0.01315 0.2657 0.0
H770 H 0.42287 0.04432 0.33122 0.0
H771 H 0.3584 0.05263 0.30853 0.0
H772 H 0.3433 0.86398 0.33248 0.0
H773 H 0.31331 0.92355 0.37243 0.0
H774 H 0.35551 0.9024 0.28908 0.0
H775 H 0.30191 0.88481 0.41447 0.0
H776 H 0.35667 0.99229 0.43412 0.0
H777 H 0.28288 0.98121 0.39768 0.0
H778 H 0.44471 0.97905 0.18721 0.0
H779 H 0.44144 0.9666 0.3203 0.0
H780 H 0.26699 0.90549 0.21154 0.0
H781 H 0.29205 0.98311 0.24769 0.0
H782 H 0.23414 0.90632 0.16625 0.0
H783 H 0.25878 0.98262 0.2016 0.0
H784 H 0.29825 0.90277 0.1592 0.0
H785 H 0.36731 0.91154 0.21377 0.0
H786 H 0.29137 0.86312 0.12475 0.0
H787 H 0.35899 0.8715 0.17889 0.0
H788 H 0.35364 0.03374 0.12483 0.0
H789 H 0.30384 0.95987 0.06981 0.0
H790 H 0.24067 0.86639 0.33605 0.0
H791 H 0.26511 0.82436 0.25741 0.0
Li792 Li 0.36501 0.32534 0.61664 0.0
Li793 Li 0.40565 0.35853 0.58228 0.0
Li794 Li 0.36854 0.32383 0.54301 0.0
Li795 Li 0.39394 0.31368 0.58557 0.0
C796 C 0.35732 0.36326 0.59454 0.0
N797 N 0.33186 0.3848 0.63382 0.0
C798 C 0.37085 0.3884 0.60917 0.0
C799 C 0.33078 0.3492 0.59949 0.0
C800 C 0.35764 0.39892 0.62902 0.0
C801 C 0.31827 0.36039 0.61956 0.0
C802 C 0.41359 0.33194 0.66063 0.0
C803 C 0.45277 0.33724 0.68964 0.0
N804 N 0.43897 0.31767 0.71647 0.0
C805 C 0.39978 0.312 0.68868 0.0
C806 C 0.44029 0.34476 0.66118 0.0
C807 C 0.41297 0.30502 0.71659 0.0
C808 C 0.32594 0.29634 0.67538 0.0
N809 N 0.34496 0.32009 0.66468 0.0
C810 C 0.34093 0.3373 0.72916 0.0
C811 C 0.35265 0.34038 0.69063 0.0
C812 C 0.32163 0.31296 0.74146 0.0
C813 C 0.314 0.29227 0.71418 0.0
H814 H 0.32084 0.28042 0.65458 0.0
H815 H 0.36854 0.35878 0.68198 0.0
C816 C 0.43772 0.40667 0.54699 0.0
N817 N 0.43119 0.39327 0.58323 0.0
C818 C 0.45497 0.4329 0.54725 0.0
C819 C 0.45842 0.4309 0.6221 0.0
C820 C 0.44121 0.40469 0.62037 0.0
C821 C 0.4652 0.44534 0.58525 0.0
H822 H 0.42914 0.39701 0.51804 0.0
H823 H 0.43534 0.39354 0.64872 0.0
C824 C 0.3376 0.27704 0.5581 0.0
N825 N 0.30032 0.2418 0.50581 0.0
C826 C 0.34299 0.26174 0.53216 0.0
C827 C 0.3132 0.27427 0.55776 0.0
C828 C 0.32389 0.24406 0.50589 0.0
C829 C 0.29463 0.25639 0.531 0.0
C830 C 0.42533 0.33349 0.52094 0.0
C831 C 0.41987 0.31096 0.50023 0.0
C832 C 0.45074 0.35287 0.52571 0.0
C833 C 0.43996 0.30813 0.48484 0.0
C834 C 0.47029 0.34934 0.50977 0.0
N835 N 0.46454 0.32722 0.48987 0.0
C836 C 0.33513 0.3287 0.48802 0.0
C837 C 0.35633 0.30842 0.45825 0.0
C838 C 0.32506 0.32953 0.44937 0.0
N839 N 0.35089 0.31879 0.49156 0.0
C840 C 0.34658 0.30876 0.41894 0.0
C841 C 0.3313 0.32007 0.41409 0.0
H842 H 0.33134 0.33709 0.51477 0.0
H843 H 0.36915 0.30096 0.46177 0.0
C844 C 0.38952 0.26845 0.61313 0.0
N845 N 0.40725 0.29146 0.59744 0.0
C846 C 0.3969 0.25178 0.62939 0.0
C847 C 0.44076 0.28234 0.61222 0.0
C848 C 0.43254 0.29869 0.59674 0.0
C849 C 0.42277 0.25884 0.6294 0.0
H850 H 0.36969 0.26345 0.6147 0.0
H851 H 0.44649 0.31749 0.586 0.0
O852 O 0.36997 0.35252 0.5754 0.0
O853 O 0.40102 0.33852 0.63222 0.0
O854 O 0.35623 0.29488 0.58329 0.0
O855 O 0.40593 0.33677 0.53584 0.0
H856 H 0.39132 0.3997 0.60533 0.0
H857 H 0.31998 0.32971 0.5885 0.0
H858 H 0.3679 0.41831 0.64063 0.0
H859 H 0.29778 0.34963 0.62391 0.0
H860 H 0.47342 0.34686 0.69024 0.0
H861 H 0.3791 0.30178 0.68846 0.0
H862 H 0.45123 0.3601 0.63942 0.0
H863 H 0.40255 0.28949 0.73824 0.0
H864 H 0.34773 0.35352 0.75 0.0
H865 H 0.29945 0.27318 0.7232 0.0
H866 H 0.45973 0.44348 0.51827 0.0
H867 H 0.4662 0.43983 0.6519 0.0
H868 H 0.36176 0.2636 0.53214 0.0
H869 H 0.3087 0.28589 0.57776 0.0
H870 H 0.32783 0.23219 0.48548 0.0
H871 H 0.27571 0.25414 0.53023 0.0
H872 H 0.40038 0.29567 0.49653 0.0
H873 H 0.45537 0.37039 0.54176 0.0
H874 H 0.43601 0.29073 0.46897 0.0
H875 H 0.49004 0.36415 0.51334 0.0
H876 H 0.31339 0.33845 0.44675 0.0
H877 H 0.3522 0.30171 0.39229 0.0
H878 H 0.3826 0.23371 0.64253 0.0
H879 H 0.46091 0.28832 0.61217 0.0
Li880 Li 0.04618 0.40448 0.9358 0.0
Li881 Li 0.04437 0.36584 0.96278 0.0
Li882 Li 0.08199 0.39819 0.92628 0.0
Li883 Li 0.04365 0.37145 0.88774 0.0
C884 C 0.07313 0.41952 0.00953 0.0
N885 N 0.0834 0.45572 0.07054 0.0
C886 C 0.06628 0.41203 0.05094 0.0
C887 C 0.0852 0.44544 -0.00078 0.0
C888 C 0.07163 0.43061 0.08131 0.0
C889 C 0.09023 0.46344 0.03048 0.0
C890 C 0.99714 0.36422 0.95375 0.0
C891 C 0.95185 0.34789 0.96174 0.0
N892 N 0.95578 0.35619 0.00189 0.0
C893 C 0.00067 0.37246 0.99513 0.0
C894 C 0.97249 0.35173 0.93693 0.0
C895 C 0.97957 0.36828 0.01895 0.0
C896 C 0.03217 0.4384 0.90471 0.0
N897 N 0.03466 0.42862 0.94139 0.0
C898 C 0.01904 0.45224 0.97899 0.0
C899 C 0.02815 0.43504 0.97822 0.0
C900 C 0.0166 0.46283 0.94155 0.0
C901 C 0.02316 0.45561 0.90405 0.0
H902 H 0.03695 0.43257 0.87581 0.0
H903 H 0.02988 0.42682 0.00703 0.0
C904 C 0.05504 0.34622 0.03207 0.0
N905 N 0.03508 0.34275 0.00797 0.0
C906 C 0.05065 0.33381 0.07031 0.0
C907 C 0.00524 0.31303 0.05672 0.0
C908 C 0.01055 0.32558 0.01838 0.0
C909 C 0.02544 0.31784 0.08387 0.0
H910 H 0.07435 0.35981 0.02261 0.0
H911 H 0.99503 0.32272 -0.00183 0.0
C912 C 0.08723 0.42645 0.86372 0.0
N913 N 0.13206 0.46151 0.82505 0.0
C914 C 0.09905 0.41825 0.83507 0.0
C915 C 0.09807 0.45249 0.87244 0.0
C916 C 0.12175 0.43627 0.81593 0.0
C917 C 0.12077 0.46992 0.85262 0.0
C918 C 0.05432 0.33445 0.91386 0.0
C919 C 0.07029 0.32389 0.91226 0.0
C920 C 0.02784 0.31844 0.91084 0.0
C921 C 0.05952 0.29751 0.90743 0.0
C922 C 0.01782 0.29216 0.90604 0.0
N923 N 0.03373 0.28233 0.90444 0.0
C924 C 0.13367 0.43521 0.94721 0.0
C925 C 0.12748 0.39867 0.90999 0.0
C926 C 0.15925 0.4426 0.95449 0.0
N927 N 0.11822 0.41314 0.92647 0.0
C928 C 0.15285 0.40527 0.91661 0.0
C929 C 0.16888 0.42708 0.94023 0.0
H930 H 0.12596 0.44644 0.95995 0.0
H931 H 0.11475 0.38121 0.89367 0.0
C932 C 0.00719 0.35416 0.82544 0.0
N933 N 0.02984 0.356 0.83577 0.0
C934 C 0.99707 0.34629 0.78568 0.0
C935 C 0.03356 0.34178 0.76802 0.0
C936 C 0.04283 0.34942 0.80851 0.0
C937 C 0.0108 0.34096 0.7559 0.0
H938 H 0.99752 0.35986 0.8476 0.0
H939 H 0.06087 0.35116 0.81764 0.0
O940 O 0.06788 0.40151 0.97938 0.0
O941 O 0.01756 0.36814 0.92978 0.0
O942 O 0.06538 0.40902 0.88357 0.0
O943 O 0.06471 0.36028 0.91886 0.0
H944 H 0.05682 0.39207 0.05957 0.0
H945 H 0.0902 0.45156 0.9673 0.0
H946 H 0.0664 0.42506 0.11344 0.0
H947 H 0.09945 0.48355 0.02284 0.0
H948 H 0.93268 0.33827 0.94908 0.0
H949 H 0.01946 0.38175 0.00888 0.0
H950 H 0.96926 0.34494 0.90511 0.0
H951 H 0.98211 0.37458 0.05103 0.0
H952 H 0.01407 0.45729 0.00853 0.0
H953 H 0.02091 0.46283 0.87442 0.0
H954 H 0.06674 0.33784 0.09015 0.0
H955 H 0.9855 0.30118 0.06611 0.0
H956 H 0.09097 0.39816 0.82816 0.0
H957 H 0.08906 0.45918 0.89427 0.0
H958 H 0.13121 0.43018 0.79393 0.0
H959 H 0.12943 0.49012 0.85917 0.0
H960 H 0.0908 0.33594 0.91487 0.0
H961 H 0.01508 0.3261 0.91217 0.0
H962 H 0.07167 0.28911 0.90613 0.0
H963 H 0.99738 0.27958 0.90363 0.0
H964 H 0.17103 0.45958 0.97275 0.0
H965 H 0.1593 0.39245 0.90579 0.0
H966 H 0.97917 0.34532 0.77782 0.0
H967 H 0.04468 0.33781 0.74589 0.0
Li968 Li 0.64497 0.04898 0.25765 0.0
Li969 Li 0.67795 0.04294 0.28821 0.0
Li970 Li 0.68811 0.08374 0.26056 0.0
Li971 Li 0.6769 0.04851 0.21446 0.0
C972 C 0.65668 0.08037 0.32603 0.0
N973 N 0.63923 0.11006 0.36317 0.0
C974 C 0.65398 0.08015 0.36928 0.0
C975 C 0.65051 0.0957 0.30163 0.0
C976 C 0.64513 0.09529 0.38748 0.0
C977 C 0.64173 0.11058 0.32102 0.0
C978 C 0.63274 0.99859 0.26857 0.0
C979 C 0.60108 0.95376 0.26772 0.0
N980 N 0.59545 0.95537 0.30825 0.0
C981 C 0.62666 -0.00022 0.31024 0.0
C982 C 0.61987 0.9754 0.24713 0.0
C983 C 0.60776 0.97773 0.32973 0.0
C984 C 0.59767 0.03504 0.22214 0.0
N985 N 0.60969 0.0384 0.25932 0.0
C986 C 0.57016 0.02216 0.29594 0.0
C987 C 0.59662 0.0325 0.29593 0.0
C988 C 0.55718 0.01797 0.25793 0.0
C989 C 0.57125 0.02493 0.22072 0.0
H990 H 0.60858 0.03968 0.19355 0.0
H991 H 0.60663 0.03525 0.32508 0.0
C992 C 0.69588 0.04509 0.36662 0.0
N993 N 0.68674 0.02895 0.3336 0.0
C994 C 0.70021 0.03677 0.40447 0.0
C995 C 0.68678 0.99553 0.37321 0.0
C996 C 0.68271 0.00473 0.33568 0.0
C997 C 0.69514 0.01155 0.40841 0.0
H998 H 0.69861 0.06412 0.36411 0.0
H999 H 0.67529 0.99226 0.30889 0.0
C1000 C 0.67597 0.09016 0.18001 0.0
N1001 N 0.69911 0.12358 0.11448 0.0
C1002 C 0.70212 0.1005 0.17253 0.0
C1003 C 0.66162 0.09683 0.15416 0.0
C1004 C 0.71345 0.11735 0.13925 0.0
C1005 C 0.67366 0.11376 0.1212 0.0
C1006 C 0.72236 0.05465 0.24628 0.0
C1007 C 0.74889 0.07013 0.24881 0.0
C1008 C 0.71168 0.02853 0.23825 0.0
C1009 C 0.76435 0.05922 0.24324 0.0
C1010 C 0.72778 0.01835 0.23286 0.0
N1011 N 0.75356 0.03378 0.23544 0.0
C1012 C 0.72439 0.11895 0.30829 0.0
C1013 C 0.71449 0.1401 0.25553 0.0
C1014 C 0.74328 0.14207 0.32423 0.0
N1015 N 0.7107 0.1183 0.27438 0.0
C1016 C 0.73367 0.16391 0.27023 0.0
C1017 C 0.74855 0.16494 0.3047 0.0
H1018 H 0.72084 0.10128 0.32252 0.0
H1019 H 0.70312 0.13905 0.2288 0.0
C1020 C 0.65838 0.01906 0.14455 0.0
N1021 N 0.68072 0.03742 0.16121 0.0
C1022 C 0.6579 0.00961 0.10484 0.0
C1023 C 0.70354 0.03826 0.09984 0.0
C1024 C 0.70316 0.0471 0.13999 0.0
C1025 C 0.68066 0.01921 0.08198 0.0
H1026 H 0.64081 0.01209 0.162 0.0
H1027 H 0.72064 0.06186 0.15393 0.0
O1028 O 0.66525 0.06552 0.30798 0.0
O1029 O 0.65111 0.01987 0.24852 0.0
O1030 O 0.66423 0.07345 0.21215 0.0
O1031 O 0.70713 0.06523 0.25172 0.0
H1032 H 0.65862 0.06833 0.38858 0.0
H1033 H 0.65244 0.09616 0.26814 0.0
H1034 H 0.64292 0.09528 0.42093 0.0
H1035 H 0.63688 0.12253 0.30254 0.0
H1036 H 0.59096 0.9357 0.25148 0.0
H1037 H 0.63638 0.01749 0.32746 0.0
H1038 H 0.62438 0.97413 0.21488 0.0
H1039 H 0.60287 0.9784 0.36195 0.0
H1040 H 0.55993 0.01735 0.32527 0.0
H1041 H 0.56181 0.02192 0.19085 0.0
H1042 H 0.70585 0.0495 0.43104 0.0
H1043 H 0.68246 0.97588 0.37521 0.0
H1044 H 0.71363 0.09573 0.19222 0.0
H1045 H 0.64135 0.08897 0.15952 0.0
H1046 H 0.73366 0.12549 0.13313 0.0
H1047 H 0.66277 0.11909 0.10095 0.0
H1048 H 0.75743 0.09038 0.25503 0.0
H1049 H 0.69122 0.01621 0.23609 0.0
H1050 H 0.78492 0.07099 0.24511 0.0
H1051 H 0.71978 0.99818 0.22661 0.0
H1052 H 0.75406 0.14202 0.35117 0.0
H1053 H 0.73735 0.18115 0.25408 0.0
H1054 H 0.63978 0.99544 0.09166 0.0
H1055 H 0.7214 0.04624 0.08287 0.0
C1056 C 0.32831 0.3565 0.32054 0.0
C1057 C 0.31775 0.33768 0.2894 0.0
C1058 C 0.33168 0.35033 0.36114 0.0
C1059 C 0.32486 0.32516 0.372 0.0
H1060 H 0.33438 0.37623 0.31327 0.0
H1061 H 0.34055 0.36559 0.38385 0.0
S1062 S 0.2955 0.26872 0.30228 0.0
N1063 N 0.2997 0.29273 0.27226 0.0
N1064 N 0.30612 0.28111 0.34889 0.0
C1065 C 0.31372 0.30603 0.34143 0.0
C1066 C 0.31006 0.31229 0.30007 0.0
C1067 C 0.99401 0.31254 0.64677 0.0
C1068 C 0.98817 0.32948 0.62593 0.0
C1069 C 0.00124 0.31623 0.68893 0.0
C1070 C 0.00253 0.33677 0.71169 0.0
H1071 H 0.99349 0.29668 0.63016 0.0
H1072 H 0.0058 0.30292 0.70384 0.0
S1073 S 0.98845 0.38606 0.67155 0.0
N1074 N 0.98329 0.36696 0.63149 0.0
N1075 N 0.99753 0.37431 0.71005 0.0
C1076 C 0.99645 0.35362 0.6912 0.0
C1077 C 0.98909 0.34986 0.64851 0.0
C1078 C 0.68499 0.02031 0.9643 0.0
C1079 C 0.67116 0.9942 0.95388 0.0
C1080 C 0.68937 0.02829 0.006 0.0
C1081 C 0.67985 0.01042 0.03866 0.0
H1082 H 0.69179 0.03469 0.94004 0.0
H1083 H 0.69912 0.04858 0.01269 0.0
S1084 S 0.64428 0.93988 0.02811 0.0
N1085 N 0.64923 0.95052 0.97969 0.0
N1086 N 0.65779 0.96555 0.058 0.0
C1087 C 0.66713 0.98428 0.02868 0.0
C1088 C 0.66273 0.97615 0.98629 0.0
C1089 C 0.66856 0.68073 0.29709 0.0
C1090 C 0.67939 0.66542 0.28752 0.0
C1091 C 0.66477 0.68545 0.33851 0.0
C1092 C 0.67143 0.67477 0.37175 0.0
H1093 H 0.66221 0.68844 0.27233 0.0
H1094 H 0.65536 0.69641 0.34451 0.0
S1095 S 0.70226 0.63508 0.36354 0.0
N1096 N 0.6981 0.64089 0.31475 0.0
N1097 N 0.69113 0.64992 0.3926 0.0
C1098 C 0.68343 0.66051 0.36266 0.0
C1099 C 0.68741 0.65582 0.32053 0.0
C1100 C 0.00724 0.67341 0.69628 0.0
C1101 C 0.98096 0.65863 0.7051 0.0
C1102 C 0.01615 0.67817 0.65513 0.0
C1103 C 0.9991 0.66808 0.62142 0.0
H1104 H 0.02104 0.6807 0.72142 0.0
H1105 H 0.03659 0.68873 0.64972 0.0
S1106 S 0.92842 0.6299 0.62772 0.0
N1107 N 0.93793 0.6352 0.67678 0.0
N1108 N 0.9547 0.64432 0.59934 0.0
C1109 C 0.97273 0.65431 0.62977 0.0
C1110 C 0.96365 0.64958 0.67165 0.0
C1111 C 0.31563 0.00495 0.02123 0.0
C1112 C 0.33532 0.00996 0.04971 0.0
C1113 C 0.3212 0.0136 0.9799 0.0
C1114 C 0.3466 0.02713 0.96572 0.0
H1115 H 0.29582 0.99388 0.0308 0.0
H1116 H 0.30557 0.00884 0.95851 0.0
S1117 S 0.40499 0.04588 0.02801 0.0
N1118 N 0.3812 0.0299 0.06089 0.0
N1119 N 0.39154 0.0462 0.98343 0.0
C1120 C 0.36641 0.03288 0.99412 0.0
C1121 C 0.36081 0.02428 0.03609 0.0
C1122 C 0.19976 0.43475 -0.00223 0.0
C1123 C 0.19399 0.43127 0.9549 0.0
C1124 C 0.22067 0.43351 0.01394 0.0
C1125 C 0.23639 0.42864 0.98779 0.0
H1126 H 0.18711 0.43678 0.01939 0.0
H1127 H 0.22354 0.4347 0.04737 0.0
S1128 S 0.23234 0.42284 0.87275 0.0
N1129 N 0.20786 0.42637 0.8861 0.0
N1130 N 0.24698 0.42368 0.91668 0.0
C1131 C 0.23203 0.42709 0.94464 0.0
C1132 C 0.21086 0.42848 0.92813 0.0
C1133 C 0.81502 0.2114 0.34351 0.0
C1134 C 0.81383 0.23352 0.35258 0.0
C1135 C 0.794 0.18974 0.327 0.0
C1136 C 0.77081 0.18917 0.31916 0.0
H1137 H 0.83247 0.21088 0.3489 0.0
H1138 H 0.79595 0.17319 0.3204 0.0
S1139 S 0.75788 0.24231 0.3373 0.0
N1140 N 0.78792 0.25396 0.35193 0.0
N1141 N 0.74792 0.21278 0.32146 0.0
C1142 C 0.76942 0.21132 0.3274 0.0
C1143 C 0.79105 0.2336 0.34403 0.0
C1144 C 0.60249 0.80656 0.69832 0.0
C1145 C 0.58285 0.81189 0.68941 0.0
C1146 C 0.60177 0.78459 0.68312 0.0
C1147 C 0.58121 0.76671 0.65872 0.0
H1148 H 0.61891 0.8198 0.71658 0.0
H1149 H 0.61793 0.782 0.68971 0.0
S1150 S 0.52415 0.77097 0.62845 0.0
N1151 N 0.54186 0.79731 0.65551 0.0
N1152 N 0.53997 0.7552 0.6281 0.0
C1153 C 0.56098 0.77135 0.65057 0.0
C1154 C 0.56184 0.79403 0.66586 0.0
C1155 C 0.75995 0.55859 0.98476 0.0
C1156 C 0.75672 0.55888 0.02821 0.0
C1157 C 0.78196 0.55989 0.96781 0.0
C1158 C 0.80147 0.56162 0.99375 0.0
H1159 H 0.74619 0.55906 0.96366 0.0
H1160 H 0.78447 0.56126 0.9343 0.0
S1161 S 0.80028 0.55836 0.10909 0.0
N1162 N 0.77328 0.55739 0.09654 0.0
N1163 N 0.81484 0.56019 0.06459 0.0
C1164 C 0.79762 0.55994 0.03706 0.0
C1165 C 0.77519 0.55849 0.05433 0.0
C1166 C 0.1821 0.79549 0.33321 0.0
C1167 C 0.18291 0.7734 0.34448 0.0
C1168 C 0.20357 0.81703 0.31759 0.0
C1169 C 0.22717 0.81788 0.3135 0.0
H1170 H 0.16468 0.79631 0.33669 0.0
H1171 H 0.20157 0.83323 0.30867 0.0
S1172 S 0.23986 0.76528 0.33887 0.0
N1173 N 0.2092 0.75339 0.34934 0.0
N1174 N 0.25028 0.79479 0.32263 0.0
C1175 C 0.22847 0.79604 0.32487 0.0
C1176 C 0.20626 0.7737 0.34001 0.0
C1177 C 0.43865 0.20618 0.6385 0.0
C1178 C 0.43393 0.19965 0.68096 0.0
C1179 C 0.43707 0.22691 0.62234 0.0
C1180 C 0.43044 0.24145 0.64812 0.0
H1181 H 0.4422 0.19434 0.6173 0.0
H1182 H 0.43937 0.23051 0.58911 0.0
S1183 S 0.41842 0.23363 0.76174 0.0
N1184 N 0.42431 0.21058 0.74886 0.0
N1185 N 0.42108 0.2494 0.71826 0.0
C1186 C 0.42724 0.23613 0.69094 0.0
C1187 C 0.42911 0.21525 0.70748 0.0
C1188 C 0.31675 0.29427 0.81224 0.0
C1189 C 0.31178 0.30924 0.78445 0.0
C1190 C 0.31327 0.2953 0.85525 0.0
C1191 C 0.30432 0.311 0.87153 0.0
H1192 H 0.32506 0.28311 0.80099 0.0
H1193 H 0.3188 0.28478 0.87604 0.0
S1194 S 0.28636 0.35199 0.81105 0.0
N1195 N 0.29578 0.33866 0.77554 0.0
N1196 N 0.28903 0.34053 0.8563 0.0
C1197 C 0.29765 0.32468 0.84369 0.0
C1198 C 0.30145 0.32383 0.80009 0.0
C1199 C 0.02553 0.3238 0.20094 0.0
C1200 C 0.0046 0.30032 0.21324 0.0
C1201 C 0.03317 0.32859 0.15929 0.0
C1202 C 0.02023 0.31006 0.12826 0.0
H1203 H 0.03493 0.33932 0.22309 0.0
H1204 H 0.04821 0.34762 0.15105 0.0
S1205 S 0.96734 0.24386 0.14558 0.0
N1206 N 0.97323 0.25716 0.19225 0.0
N1207 N 0.9878 0.26611 0.1136 0.0
C1208 C 0.0006 0.28579 0.14063 0.0
C1209 C 0.99275 0.28093 0.18319 0.0
C1210 C 0.66817 0.9723 0.5057 0.0
C1211 C 0.68617 0.98735 0.53622 0.0
C1212 C 0.67226 0.97914 0.46363 0.0
C1213 C 0.69453 0.00125 0.45054 0.0
H1214 H 0.64999 0.95608 0.51465 0.0
H1215 H 0.65702 0.96805 0.44174 0.0
S1216 S 0.74968 0.0442 0.51715 0.0
N1217 N 0.72854 0.02323 0.54996 0.0
N1218 N 0.73644 0.03602 0.47051 0.0
C1219 C 0.71363 0.01521 0.48027 0.0
C1220 C 0.70938 0.0083 0.52322 0.0
C1221 C 0.70893 0.69532 0.80237 0.0
C1222 C 0.68553 0.69264 0.78907 0.0
C1223 C 0.7129 0.69168 0.8443 0.0
C1224 C 0.69359 0.68524 0.87424 0.0
H1225 H 0.72399 0.69957 0.78003 0.0
H1226 H 0.73087 0.69308 0.85314 0.0
S1227 S 0.62855 0.67501 0.85498 0.0
N1228 N 0.64268 0.68276 0.80904 0.0
N1229 N 0.65015 0.67599 0.88754 0.0
C1230 C 0.67037 0.68316 0.86146 0.0
C1231 C 0.66632 0.68682 0.81893 0.0
C1232 C 0.01868 0.67744 0.17104 0.0
C1233 C 0.00645 0.684 0.20188 0.0
C1234 C 0.01275 0.67726 0.12895 0.0
C1235 C 0.99426 0.6835 0.11623 0.0
H1236 H 0.03219 0.67139 0.1797 0.0
H1237 H 0.02145 0.67048 0.10656 0.0
S1238 S 0.95929 0.70523 0.1845 0.0
N1239 N 0.97698 0.69932 0.21688 0.0
N1240 N 0.96576 0.69904 0.13733 0.0
C1241 C 0.9832 0.69182 0.14653 0.0
C1242 C 0.98936 0.69212 0.1895 0.0
C1243 C 0.31902 0.97863 0.49717 0.0
C1244 C 0.31482 0.99202 0.46521 0.0
C1245 C 0.31941 0.98532 0.53894 0.0
C1246 C 0.31568 0.00571 0.55025 0.0
H1247 H 0.32323 0.96362 0.48967 0.0
H1248 H 0.32454 0.97566 0.56217 0.0
S1249 S 0.30008 0.04422 0.47881 0.0
N1250 N 0.30409 0.02468 0.44776 0.0
N1251 N 0.30444 0.03709 0.52667 0.0
C1252 C 0.30936 0.01786 0.51886 0.0
C1253 C 0.30898 0.01102 0.4762 0.0
C1254 C 0.48443 0.48301 0.03332 0.0
C1255 C 0.46872 0.4849 0.06383 0.0
C1256 C 0.51093 0.49966 0.03327 0.0
C1257 C 0.52267 0.51875 0.06382 0.0
H1258 H 0.47625 0.46824 0.00971 0.0
H1259 H 0.52237 0.49732 0.00957 0.0
S1260 S 0.4899 0.53329 0.14815 0.0
N1261 N 0.46667 0.5085 0.1237 0.0
N1262 N 0.51652 0.53966 0.12378 0.0
C1263 C 0.50717 0.52118 0.09402 0.0
C1264 C 0.48019 0.5043 0.09399 0.0
C1265 C 0.99695 0.50939 0.41279 0.0
C1266 C 0.02166 0.52678 0.3984 0.0
C1267 C 0.98724 0.483 0.41014 0.0
C1268 C 0.00187 0.47302 0.39302 0.0
H1269 H 0.9849 0.51623 0.42575 0.0
H1270 H 0.96802 0.4703 0.42127 0.0
S1271 S 0.06827 0.5105 0.35331 0.0
N1272 N 0.06092 0.53227 0.36785 0.0
N1273 N 0.04269 0.48257 0.36304 0.0
C1274 C 0.02667 0.49019 0.37875 0.0
C1275 C 0.03656 0.5171 0.3814 0.0
C1276 C 0.52229 0.01239 0.75634 0.0
C1277 C 0.51492 0.98946 0.73468 0.0
C1278 C 0.50685 0.02364 0.75642 0.0
C1279 C 0.48355 0.01246 0.73467 0.0
H1280 H 0.54031 0.02191 0.77293 0.0
H1281 H 0.51335 0.04139 0.77321 0.0
S1282 S 0.45457 0.9515 0.67582 0.0
N1283 N 0.48206 0.95528 0.69283 0.0
N1284 N 0.45316 0.97659 0.69269 0.0
C1285 C 0.47579 0.98943 0.71327 0.0
C1286 C 0.49145 0.9779 0.71333 0.0
C1287 C 0.52065 0.51132 0.56071 0.0
C1288 C 0.51645 0.52722 0.5877 0.0
C1289 C 0.50396 0.48485 0.56002 0.0
C1290 C 0.48254 0.47335 0.58642 0.0
H1291 H 0.5372 0.51934 0.54042 0.0
H1292 H 0.50803 0.47325 0.53911 0.0
S1293 S 0.46174 0.50669 0.66011 0.0
N1294 N 0.48841 0.52972 0.63955 0.0
N1295 N 0.45714 0.47992 0.63846 0.0
C1296 C 0.47788 0.48904 0.61305 0.0
C1297 C 0.49481 0.51599 0.61365 0.0
C1298 C 0.97341 0.49073 0.96139 0.0
C1299 C 0.98523 0.51356 0.93832 0.0
C1300 C 0.98388 0.4746 0.96281 0.0
C1301 C 0.00656 0.48078 0.94131 0.0
H1302 H 0.95569 0.48506 0.97779 0.0
H1303 H 0.97385 0.45689 0.98014 0.0
S1304 S 0.04636 0.53982 0.88041 0.0
N1305 N 0.02177 0.5425 0.89615 0.0
N1306 N 0.04151 0.51225 0.89897 0.0
C1307 C 0.01893 0.50393 0.91915 0.0
C1308 C 0.00825 0.5203 0.91762 0.0
C1309 C 0.51769 0.0181 0.23516 0.0
C1310 C 0.52901 0.00614 0.25695 0.0
C1311 C 0.49108 0.00734 0.234 0.0
C1312 C 0.47483 0.98413 0.25436 0.0
H1313 H 0.52951 0.03612 0.21943 0.0
H1314 H 0.48321 0.01753 0.21762 0.0
S1315 S 0.49505 0.94412 0.31246 0.0
N1316 N 0.52209 0.96922 0.29737 0.0
N1317 N 0.47201 0.94878 0.29481 0.0
C1318 C 0.48594 0.97173 0.27556 0.0
C1319 C 0.51304 0.98277 0.27692 0.0
loop_
_geom_bond_atom_site_label_1
_geom_bond_atom_site_label_2
_geom_bond_distance
_geom_bond_site_symmetry_2
_ccdc_geom_bond_type
Li0 N17 1.990 . S
Li0 O60 1.956 . S
Li0 O61 1.970 . S
Li0 O62 1.961 . S
Li1 N25 1.990 . S
Li1 O60 1.970 . S
Li1 O61 1.956 . S
Li1 O63 1.961 . S
Li2 N47 1.990 . S
Li2 O60 1.961 . S
Li2 O62 1.956 . S
Li2 O63 1.970 . S
Li3 N53 1.990 1_554 S
Li3 O61 1.961 . S
Li3 O62 1.970 . S
Li3 O63 1.956 . S
C4 C6 1.348 . S
C4 C7 1.356 . S
C4 O60 1.325 . S
N5 C8 1.314 . S
N5 C9 1.279 . S
C6 C4 1.348 . S
C6 C8 1.353 . S
C6 H64 0.929 . S
C7 C4 1.356 . S
C7 C9 1.358 . S
C7 H65 0.930 . S
C8 N5 1.314 . S
C8 C6 1.353 . S
C8 H66 0.930 . S
C9 N5 1.279 . S
C9 C7 1.358 . S
C9 H67 0.930 . S
C10 C13 1.348 . S
C10 C14 1.356 . S
C10 O61 1.325 . S
C11 N12 1.279 . S
C11 C14 1.358 . S
C11 H68 0.930 . S
N12 C11 1.279 . S
N12 C15 1.314 . S
C13 C10 1.348 . S
C13 C15 1.353 . S
C13 H69 0.929 . S
C14 C10 1.356 . S
C14 C11 1.358 . S
C14 H70 0.930 . S
C15 N12 1.314 . S
C15 C13 1.353 . S
C15 H71 0.930 . S
C16 N17 1.314 . S
C16 C21 1.353 . S
C16 H22 0.930 1_554 S
N17 Li0 1.990 . S
N17 C16 1.314 . S
N17 C19 1.279 . S
C18 C19 1.358 . S
C18 C20 1.356 . S
C18 H72 0.930 . S
C19 N17 1.279 . S
C19 C18 1.358 . S
C19 H23 0.930 . S
C20 C18 1.356 . S
C20 C21 1.348 . S
C21 C16 1.353 . S
C21 C20 1.348 . S
C21 H73 0.929 1_554 S
H22 C16 0.930 1_556 S
H23 C19 0.930 . S
C24 N25 1.314 . S
C24 C26 1.353 . S
C24 H30 0.930 . S
N25 Li1 1.990 . S
N25 C24 1.314 . S
N25 C28 1.279 . S
C26 C24 1.353 . S
C26 C29 1.348 . S
C26 H74 0.929 . S
C27 C28 1.358 . S
C27 C29 1.356 . S
C27 H75 0.930 . S
C28 N25 1.279 . S
C28 C27 1.358 . S
C28 H31 0.930 . S
C29 C26 1.348 . S
C29 C27 1.356 . S
H30 C24 0.930 . S
H31 C28 0.930 . S
C32 C34 1.348 . S
C32 C35 1.356 . S
C32 O62 1.325 1_556 S
N33 C36 1.314 . S
N33 C37 1.279 . S
C34 C32 1.348 . S
C34 C36 1.353 . S
C34 H76 0.929 . S
C35 C32 1.356 . S
C35 C37 1.358 . S
C35 H77 0.930 1_556 S
C36 N33 1.314 . S
C36 C34 1.353 . S
C36 H78 0.930 . S
C37 N33 1.279 . S
C37 C35 1.358 . S
C37 H79 0.930 . S
C38 C39 1.348 . S
C38 C40 1.356 . S
C38 O63 1.325 . S
C39 C38 1.348 . S
C39 C41 1.353 . S
C39 H80 0.929 . S
C40 C38 1.356 . S
C40 C42 1.358 . S
C40 H81 0.930 . S
C41 C39 1.353 . S
C41 N43 1.314 . S
C41 H82 0.930 . S
C42 C40 1.358 . S
C42 N43 1.279 . S
C42 H83 0.930 . S
N43 C41 1.314 . S
N43 C42 1.279 . S
C44 C46 1.353 . S
C44 N47 1.314 . S
C44 H50 0.930 . S
C45 N47 1.279 . S
C45 C48 1.358 . S
C45 H51 0.930 . S
C46 C44 1.353 . S
C46 C49 1.348 . S
C46 H84 0.929 . S
N47 Li2 1.990 . S
N47 C44 1.314 . S
N47 C45 1.279 . S
C48 C45 1.358 . S
C48 C49 1.356 . S
C48 H85 0.930 . S
C49 C46 1.348 . S
C49 C48 1.356 . S
H50 C44 0.930 . S
H51 C45 0.930 . S
C52 N53 1.314 . S
C52 C54 1.353 . S
C52 H58 0.930 . S
N53 Li3 1.990 1_556 S
N53 C52 1.314 . S
N53 C56 1.279 . S
C54 C52 1.353 . S
C54 C57 1.348 . S
C54 H86 0.929 . S
C55 C56 1.358 . S
C55 C57 1.356 . S
C55 H87 0.930 . S
C56 N53 1.279 . S
C56 C55 1.358 . S
C56 H59 0.930 . S
C57 C54 1.348 . S
C57 C55 1.356 . S
H58 C52 0.930 . S
H59 C56 0.930 . S
O60 Li0 1.956 . S
O60 Li1 1.970 . S
O60 Li2 1.961 . S
O60 C4 1.325 . S
O61 Li0 1.970 . S
O61 Li1 1.956 . S
O61 Li3 1.961 . S
O61 C10 1.325 . S
O62 Li0 1.961 . S
O62 Li2 1.956 . S
O62 Li3 1.970 . S
O62 C32 1.325 1_554 S
O63 Li1 1.961 . S
O63 Li2 1.970 . S
O63 Li3 1.956 . S
O63 C38 1.325 . S
H64 C6 0.929 . S
H65 C7 0.930 . S
H66 C8 0.930 . S
H67 C9 0.930 . S
H68 C11 0.930 . S
H69 C13 0.929 . S
H70 C14 0.930 . S
H71 C15 0.930 . S
H72 C18 0.930 . S
H73 C21 0.929 1_556 S
H74 C26 0.929 . S
H75 C27 0.930 . S
H76 C34 0.929 . S
H77 C35 0.930 1_554 S
H78 C36 0.930 . S
H79 C37 0.930 . S
H80 C39 0.929 . S
H81 C40 0.930 . S
H82 C41 0.930 . S
H83 C42 0.930 . S
H84 C46 0.929 . S
H85 C48 0.930 . S
H86 C54 0.929 . S
H87 C55 0.930 . S
Li88 N105 1.990 . S
Li88 O148 1.956 . S
Li88 O149 1.970 . S
Li88 O150 1.961 . S
Li89 N113 1.990 . S
Li89 O148 1.970 . S
Li89 O149 1.956 . S
Li89 O151 1.961 . S
Li90 N135 1.990 . S
Li90 O148 1.961 . S
Li90 O150 1.956 . S
Li90 O151 1.970 . S
Li91 N141 1.990 . S
Li91 O149 1.961 . S
Li91 O150 1.970 . S
Li91 O151 1.956 . S
C92 C94 1.348 . S
C92 C95 1.356 . S
C92 O148 1.325 . S
N93 C96 1.314 . S
N93 C97 1.279 . S
C94 C92 1.348 . S
C94 C96 1.353 . S
C94 H152 0.929 . S
C95 C92 1.356 . S
C95 C97 1.358 . S
C95 H153 0.930 . S
C96 N93 1.314 . S
C96 C94 1.353 . S
C96 H154 0.930 . S
C97 N93 1.279 . S
C97 C95 1.358 . S
C97 H155 0.930 . S
C98 C101 1.348 . S
C98 C102 1.356 . S
C98 O149 1.325 . S
C99 N100 1.279 . S
C99 C102 1.358 . S
C99 H156 0.930 . S
N100 C99 1.279 . S
N100 C103 1.314 . S
C101 C98 1.348 . S
C101 C103 1.353 . S
C101 H157 0.929 . S
C102 C98 1.356 . S
C102 C99 1.358 . S
C102 H158 0.930 . S
C103 N100 1.314 . S
C103 C101 1.353 . S
C103 H159 0.930 . S
C104 N105 1.311 1_455 S
C104 C109 1.364 . S
C104 H110 0.921 . S
N105 Li88 1.990 . S
N105 C104 1.311 1_655 S
N105 C107 1.279 . S
C106 C107 1.358 . S
C106 C108 1.356 1_655 S
C106 H160 0.930 . S
C107 N105 1.279 . S
C107 C106 1.358 . S
C107 H111 0.930 . S
C108 C106 1.356 1_455 S
C108 C109 1.348 . S
C109 C104 1.364 . S
C109 C108 1.348 . S
C109 H161 0.929 . S
H110 C104 0.921 . S
H111 C107 0.930 . S
C112 N113 1.314 . S
C112 C114 1.353 . S
C112 H118 0.930 . S
N113 Li89 1.990 . S
N113 C112 1.314 . S
N113 C116 1.279 . S
C114 C112 1.353 . S
C114 C117 1.348 . S
C114 H162 0.929 . S
C115 C116 1.358 . S
C115 C117 1.356 . S
C115 H163 0.930 . S
C116 N113 1.279 . S
C116 C115 1.358 . S
C116 H119 0.930 . S
C117 C114 1.348 . S
C117 C115 1.356 . S
H118 C112 0.930 . S
H119 C116 0.930 . S
C120 C122 1.348 . S
C120 C123 1.356 . S
C120 O150 1.325 1_455 S
N121 C124 1.314 . S
N121 C125 1.279 . S
C122 C120 1.348 . S
C122 C124 1.353 . S
C122 H164 0.929 . S
C123 C120 1.356 . S
C123 C125 1.358 . S
C123 H165 0.930 . S
C124 N121 1.314 . S
C124 C122 1.353 . S
C124 H166 0.930 . S
C125 N121 1.279 . S
C125 C123 1.358 . S
C125 H167 0.930 . S
C126 C127 1.348 . S
C126 C128 1.356 . S
C126 O151 1.325 . S
C127 C126 1.348 . S
C127 C129 1.353 . S
C127 H168 0.929 . S
C128 C126 1.356 . S
C128 C130 1.358 . S
C128 H169 0.930 . S
C129 C127 1.353 . S
C129 N131 1.314 . S
C129 H170 0.930 . S
C130 C128 1.358 . S
C130 N131 1.279 . S
C130 H171 0.930 . S
N131 C129 1.314 . S
N131 C130 1.279 . S
C132 C134 1.353 1_655 S
C132 N135 1.314 . S
C132 H138 0.930 . S
C133 N135 1.279 1_455 S
C133 C136 1.358 . S
C133 H139 0.930 . S
C134 C132 1.353 1_455 S
C134 C137 1.348 . S
C134 H172 0.929 1_455 S
N135 Li90 1.990 . S
N135 C132 1.314 . S
N135 C133 1.279 1_655 S
C136 C133 1.358 . S
C136 C137 1.356 . S
C136 H173 0.930 . S
C137 C134 1.348 . S
C137 C136 1.356 . S
H138 C132 0.930 . S
H139 C133 0.930 . S
C140 N141 1.314 . S
C140 C142 1.353 . S
C140 H146 0.930 . S
N141 Li91 1.990 . S
N141 C140 1.314 . S
N141 C144 1.279 . S
C142 C140 1.353 . S
C142 C145 1.348 . S
C142 H174 0.929 . S
C143 C144 1.358 . S
C143 C145 1.356 . S
C143 H175 0.930 . S
C144 N141 1.279 . S
C144 C143 1.358 . S
C144 H147 0.930 . S
C145 C142 1.348 . S
C145 C143 1.356 . S
H146 C140 0.930 . S
H147 C144 0.930 . S
O148 Li88 1.956 . S
O148 Li89 1.970 . S
O148 Li90 1.961 . S
O148 C92 1.325 . S
O149 Li88 1.970 . S
O149 Li89 1.956 . S
O149 Li91 1.961 . S
O149 C98 1.325 . S
O150 Li88 1.961 . S
O150 Li90 1.956 . S
O150 Li91 1.970 . S
O150 C120 1.325 1_655 S
O151 Li89 1.961 . S
O151 Li90 1.970 . S
O151 Li91 1.956 . S
O151 C126 1.325 . S
H152 C94 0.929 . S
H153 C95 0.930 . S
H154 C96 0.930 . S
H155 C97 0.930 . S
H156 C99 0.930 . S
H157 C101 0.929 . S
H158 C102 0.930 . S
H159 C103 0.930 . S
H160 C106 0.930 . S
H161 C109 0.929 . S
H162 C114 0.929 . S
H163 C115 0.930 . S
H164 C122 0.929 . S
H165 C123 0.930 . S
H166 C124 0.930 . S
H167 C125 0.930 . S
H168 C127 0.929 . S
H169 C128 0.930 . S
H170 C129 0.930 . S
H171 C130 0.930 . S
H172 C134 0.929 1_655 S
H173 C136 0.930 . S
H174 C142 0.929 . S
H175 C143 0.930 . S
Li176 N193 1.990 . S
Li176 O236 1.956 . S
Li176 O237 1.970 . S
Li176 O238 1.961 . S
Li177 N201 1.990 . S
Li177 O236 1.970 . S
Li177 O237 1.956 . S
Li177 O239 1.961 . S
Li178 N223 1.990 . S
Li178 O236 1.961 . S
Li178 O238 1.956 . S
Li178 O239 1.970 . S
Li179 N229 1.990 . S
Li179 O237 1.961 . S
Li179 O238 1.970 . S
Li179 O239 1.956 . S
C180 C182 1.348 . S
C180 C183 1.356 . S
C180 O236 1.325 . S
N181 C184 1.314 . S
N181 C185 1.279 . S
C182 C180 1.348 . S
C182 C184 1.353 . S
C182 H240 0.929 . S
C183 C180 1.356 . S
C183 C185 1.358 . S
C183 H241 0.930 . S
C184 N181 1.314 . S
C184 C182 1.353 . S
C184 H242 0.930 . S
C185 N181 1.279 . S
C185 C183 1.358 . S
C185 H243 0.930 . S
C186 C189 1.348 . S
C186 C190 1.356 . S
C186 O237 1.325 . S
C187 N188 1.279 . S
C187 C190 1.358 . S
C187 H244 0.930 . S
N188 C187 1.279 . S
N188 C191 1.314 . S
C189 C186 1.348 . S
C189 C191 1.353 . S
C189 H245 0.929 . S
C190 C186 1.356 . S
C190 C187 1.358 . S
C190 H246 0.930 . S
C191 N188 1.314 . S
C191 C189 1.353 . S
C191 H247 0.930 . S
C192 N193 1.298 1_545 S
C192 C197 1.358 . S
C192 H198 0.942 . S
N193 Li176 1.990 . S
N193 C192 1.298 1_565 S
N193 C195 1.279 . S
C194 C195 1.358 . S
C194 C196 1.356 1_565 S
C194 H248 0.930 . S
C195 N193 1.279 . S
C195 C194 1.358 . S
C195 H199 0.930 . S
C196 C194 1.356 1_545 S
C196 C197 1.348 . S
C197 C192 1.358 . S
C197 C196 1.348 . S
C197 H249 0.929 . S
H198 C192 0.942 . S
H199 C195 0.930 . S
C200 N201 1.314 . S
C200 C202 1.353 . S
C200 H206 0.930 . S
N201 Li177 1.990 . S
N201 C200 1.314 . S
N201 C204 1.279 . S
C202 C200 1.353 . S
C202 C205 1.348 . S
C202 H250 0.929 . S
C203 C204 1.358 . S
C203 C205 1.356 . S
C203 H251 0.930 . S
C204 N201 1.279 . S
C204 C203 1.358 . S
C204 H207 0.930 . S
C205 C202 1.348 . S
C205 C203 1.356 . S
H206 C200 0.930 . S
H207 C204 0.930 . S
C208 C210 1.348 . S
C208 C211 1.356 . S
C208 O238 1.325 1_545 S
N209 C212 1.314 . S
N209 C213 1.279 . S
C210 C208 1.348 . S
C210 C212 1.353 . S
C210 H252 0.929 . S
C211 C208 1.356 . S
C211 C213 1.358 . S
C211 H253 0.930 . S
C212 N209 1.314 . S
C212 C210 1.353 . S
C212 H254 0.930 . S
C213 N209 1.279 . S
C213 C211 1.358 . S
C213 H255 0.930 . S
C214 C215 1.348 . S
C214 C216 1.356 . S
C214 O239 1.325 . S
C215 C214 1.348 . S
C215 C217 1.353 . S
C215 H256 0.929 . S
C216 C214 1.356 . S
C216 C218 1.358 . S
C216 H257 0.930 . S
C217 C215 1.353 . S
C217 N219 1.314 . S
C217 H258 0.930 . S
C218 C216 1.358 . S
C218 N219 1.279 . S
C218 H259 0.930 . S
N219 C217 1.314 . S
N219 C218 1.279 . S
C220 C222 1.353 1_565 S
C220 N223 1.314 . S
C220 H226 0.930 . S
C221 N223 1.279 1_545 S
C221 C224 1.358 . S
C221 H227 0.930 . S
C222 C220 1.353 1_545 S
C222 C225 1.348 . S
C222 H260 0.929 1_545 S
N223 Li178 1.990 . S
N223 C220 1.314 . S
N223 C221 1.279 1_565 S
C224 C221 1.358 . S
C224 C225 1.356 . S
C224 H261 0.930 . S
C225 C222 1.348 . S
C225 C224 1.356 . S
H226 C220 0.930 . S
H227 C221 0.930 . S
C228 N229 1.314 . S
C228 C230 1.353 . S
C228 H234 0.930 . S
N229 Li179 1.990 . S
N229 C228 1.314 . S
N229 C232 1.279 . S
C230 C228 1.353 . S
C230 C233 1.348 . S
C230 H262 0.929 . S
C231 C232 1.358 . S
C231 C233 1.356 . S
C231 H263 0.930 . S
C232 N229 1.279 . S
C232 C231 1.358 . S
C232 H235 0.930 . S
C233 C230 1.348 . S
C233 C231 1.356 . S
H234 C228 0.930 . S
H235 C232 0.930 . S
O236 Li176 1.956 . S
O236 Li177 1.970 . S
O236 Li178 1.961 . S
O236 C180 1.325 . S
O237 Li176 1.970 . S
O237 Li177 1.956 . S
O237 Li179 1.961 . S
O237 C186 1.325 . S
O238 Li176 1.961 . S
O238 Li178 1.956 . S
O238 Li179 1.970 . S
O238 C208 1.325 1_565 S
O239 Li177 1.961 . S
O239 Li178 1.970 . S
O239 Li179 1.956 . S
O239 C214 1.325 . S
H240 C182 0.929 . S
H241 C183 0.930 . S
H242 C184 0.930 . S
H243 C185 0.930 . S
H244 C187 0.930 . S
H245 C189 0.929 . S
H246 C190 0.930 . S
H247 C191 0.930 . S
H248 C194 0.930 . S
H249 C197 0.929 . S
H250 C202 0.929 . S
H251 C203 0.930 . S
H252 C210 0.929 . S
H253 C211 0.930 . S
H254 C212 0.930 . S
H255 C213 0.930 . S
H256 C215 0.929 . S
H257 C216 0.930 . S
H258 C217 0.930 . S
H259 C218 0.930 . S
H260 C222 0.929 1_565 S
H261 C224 0.930 . S
H262 C230 0.929 . S
H263 C231 0.930 . S
Li264 N281 1.990 . S
Li264 O324 1.956 . S
Li264 O325 1.970 . S
Li264 O326 1.961 . S
Li265 N289 1.990 . S
Li265 O324 1.970 . S
Li265 O325 1.956 . S
Li265 O327 1.961 . S
Li266 N311 1.990 1_554 S
Li266 O324 1.961 . S
Li266 O326 1.956 . S
Li266 O327 1.970 . S
Li267 N317 1.990 . S
Li267 O325 1.961 . S
Li267 O326 1.970 . S
Li267 O327 1.956 . S
C268 C270 1.348 . S
C268 C271 1.356 . S
C268 O324 1.325 . S
N269 C272 1.314 . S
N269 C273 1.279 . S
C270 C268 1.348 . S
C270 C272 1.353 . S
C270 H328 0.929 . S
C271 C268 1.356 . S
C271 C273 1.358 . S
C271 H329 0.930 . S
C272 N269 1.314 . S
C272 C270 1.353 . S
C272 H330 0.930 . S
C273 N269 1.279 . S
C273 C271 1.358 . S
C273 H331 0.930 . S
C274 C277 1.348 . S
C274 C278 1.356 . S
C274 O325 1.325 . S
C275 N276 1.279 . S
C275 C278 1.358 . S
C275 H332 0.930 . S
N276 C275 1.279 . S
N276 C279 1.314 . S
C277 C274 1.348 . S
C277 C279 1.353 . S
C277 H333 0.929 . S
C278 C274 1.356 . S
C278 C275 1.358 . S
C278 H334 0.930 . S
C279 N276 1.314 . S
C279 C277 1.353 . S
C279 H335 0.930 . S
C280 N281 1.314 . S
C280 C285 1.353 . S
C280 H286 0.930 . S
N281 Li264 1.990 . S
N281 C280 1.314 . S
N281 C283 1.279 . S
C282 C283 1.358 . S
C282 C284 1.356 . S
C282 H336 0.930 . S
C283 N281 1.279 . S
C283 C282 1.358 . S
C283 H287 0.930 . S
C284 C282 1.356 . S
C284 C285 1.348 . S
C285 C280 1.353 . S
C285 C284 1.348 . S
C285 H337 0.929 . S
H286 C280 0.930 . S
H287 C283 0.930 . S
C288 N289 1.314 . S
C288 C290 1.353 . S
C288 H294 0.930 1_554 S
N289 Li265 1.990 . S
N289 C288 1.314 . S
N289 C292 1.279 . S
C290 C288 1.353 . S
C290 C293 1.348 . S
C290 H338 0.929 1_554 S
C291 C292 1.358 . S
C291 C293 1.356 . S
C291 H339 0.930 . S
C292 N289 1.279 . S
C292 C291 1.358 . S
C292 H295 0.930 . S
C293 C290 1.348 . S
C293 C291 1.356 . S
H294 C288 0.930 1_556 S
H295 C292 0.930 . S
C296 C298 1.348 . S
C296 C299 1.356 . S
C296 O326 1.325 . S
N297 C300 1.314 . S
N297 C301 1.279 . S
C298 C296 1.348 . S
C298 C300 1.353 . S
C298 H340 0.929 . S
C299 C296 1.356 . S
C299 C301 1.358 . S
C299 H341 0.930 . S
C300 N297 1.314 . S
C300 C298 1.353 . S
C300 H342 0.930 . S
C301 N297 1.279 . S
C301 C299 1.358 . S
C301 H343 0.930 . S
C302 C303 1.348 . S
C302 C304 1.356 . S
C302 O327 1.325 1_556 S
C303 C302 1.348 . S
C303 C305 1.353 . S
C303 H344 0.929 . S
C304 C302 1.356 . S
C304 C306 1.358 . S
C304 H345 0.930 1_556 S
C305 C303 1.353 . S
C305 N307 1.314 . S
C305 H346 0.930 . S
C306 C304 1.358 . S
C306 N307 1.279 . S
C306 H347 0.930 . S
N307 C305 1.314 . S
N307 C306 1.279 . S
C308 C310 1.353 . S
C308 N311 1.314 . S
C308 H314 0.930 . S
C309 N311 1.279 . S
C309 C312 1.358 . S
C309 H315 0.930 . S
C310 C308 1.353 . S
C310 C313 1.348 . S
C310 H348 0.929 . S
N311 Li266 1.990 1_556 S
N311 C308 1.314 . S
N311 C309 1.279 . S
C312 C309 1.358 . S
C312 C313 1.356 . S
C312 H349 0.930 . S
C313 C310 1.348 . S
C313 C312 1.356 . S
H314 C308 0.930 . S
H315 C309 0.930 . S
C316 N317 1.314 . S
C316 C318 1.353 . S
C316 H322 0.930 . S
N317 Li267 1.990 . S
N317 C316 1.314 . S
N317 C320 1.279 . S
C318 C316 1.353 . S
C318 C321 1.348 . S
C318 H350 0.929 . S
C319 C320 1.358 . S
C319 C321 1.356 . S
C319 H351 0.930 . S
C320 N317 1.279 . S
C320 C319 1.358 . S
C320 H323 0.930 . S
C321 C318 1.348 . S
C321 C319 1.356 . S
H322 C316 0.930 . S
H323 C320 0.930 . S
O324 Li264 1.956 . S
O324 Li265 1.970 . S
O324 Li266 1.961 . S
O324 C268 1.325 . S
O325 Li264 1.970 . S
O325 Li265 1.956 . S
O325 Li267 1.961 . S
O325 C274 1.325 . S
O326 Li264 1.961 . S
O326 Li266 1.956 . S
O326 Li267 1.970 . S
O326 C296 1.325 . S
O327 Li265 1.961 . S
O327 Li266 1.970 . S
O327 Li267 1.956 . S
O327 C302 1.325 1_554 S
H328 C270 0.929 . S
H329 C271 0.930 . S
H330 C272 0.930 . S
H331 C273 0.930 . S
H332 C275 0.930 . S
H333 C277 0.929 . S
H334 C278 0.930 . S
H335 C279 0.930 . S
H336 C282 0.930 . S
H337 C285 0.929 . S
H338 C290 0.929 1_556 S
H339 C291 0.930 . S
H340 C298 0.929 . S
H341 C299 0.930 . S
H342 C300 0.930 . S
H343 C301 0.930 . S
H344 C303 0.929 . S
H345 C304 0.930 1_554 S
H346 C305 0.930 . S
H347 C306 0.930 . S
H348 C310 0.929 . S
H349 C312 0.930 . S
H350 C318 0.929 . S
H351 C319 0.930 . S
Li352 N369 1.990 . S
Li352 O412 1.956 . S
Li352 O413 1.970 . S
Li352 O414 1.961 . S
Li353 N377 1.990 . S
Li353 O412 1.970 . S
Li353 O413 1.956 . S
Li353 O415 1.961 . S
Li354 N399 1.990 . S
Li354 O412 1.961 . S
Li354 O414 1.956 . S
Li354 O415 1.970 . S
Li355 N405 1.990 . S
Li355 O413 1.961 . S
Li355 O414 1.970 . S
Li355 O415 1.956 . S
C356 C358 1.348 . S
C356 C359 1.356 . S
C356 O412 1.325 . S
N357 C360 1.314 . S
N357 C361 1.279 . S
C358 C356 1.348 . S
C358 C360 1.353 . S
C358 H416 0.929 . S
C359 C356 1.356 . S
C359 C361 1.358 . S
C359 H417 0.930 . S
C360 N357 1.314 . S
C360 C358 1.353 . S
C360 H418 0.930 . S
C361 N357 1.279 . S
C361 C359 1.358 . S
C361 H419 0.930 . S
C362 C365 1.348 . S
C362 C366 1.356 . S
C362 O413 1.325 . S
C363 N364 1.279 . S
C363 C366 1.358 . S
C363 H420 0.930 . S
N364 C363 1.279 . S
N364 C367 1.314 . S
C365 C362 1.348 . S
C365 C367 1.353 . S
C365 H421 0.929 . S
C366 C362 1.356 . S
C366 C363 1.358 . S
C366 H422 0.930 . S
C367 N364 1.314 . S
C367 C365 1.353 . S
C367 H423 0.930 . S
C368 N369 1.314 . S
C368 C373 1.353 . S
C368 H374 0.930 . S
N369 Li352 1.990 . S
N369 C368 1.314 . S
N369 C371 1.279 . S
C370 C371 1.358 . S
C370 C372 1.356 . S
C370 H424 0.930 . S
C371 N369 1.279 . S
C371 C370 1.358 . S
C371 H375 0.930 . S
C372 C370 1.356 . S
C372 C373 1.348 . S
C373 C368 1.353 . S
C373 C372 1.348 . S
C373 H425 0.929 . S
H374 C368 0.930 . S
H375 C371 0.930 . S
C376 N377 1.311 1_655 S
C376 C378 1.364 . S
C376 H382 0.921 . S
N377 Li353 1.990 . S
N377 C376 1.311 1_455 S
N377 C380 1.279 . S
C378 C376 1.364 . S
C378 C381 1.348 . S
C378 H426 0.929 . S
C379 C380 1.358 . S
C379 C381 1.356 1_455 S
C379 H427 0.930 . S
C380 N377 1.279 . S
C380 C379 1.358 . S
C380 H383 0.930 . S
C381 C378 1.348 . S
C381 C379 1.356 1_655 S
H382 C376 0.921 . S
H383 C380 0.930 . S
C384 C386 1.348 . S
C384 C387 1.356 . S
C384 O414 1.325 . S
N385 C388 1.314 . S
N385 C389 1.279 . S
C386 C384 1.348 . S
C386 C388 1.353 . S
C386 H428 0.929 . S
C387 C384 1.356 . S
C387 C389 1.358 . S
C387 H429 0.930 . S
C388 N385 1.314 . S
C388 C386 1.353 . S
C388 H430 0.930 . S
C389 N385 1.279 . S
C389 C387 1.358 . S
C389 H431 0.930 . S
C390 C391 1.348 . S
C390 C392 1.356 . S
C390 O415 1.325 1_655 S
C391 C390 1.348 . S
C391 C393 1.353 . S
C391 H432 0.929 . S
C392 C390 1.356 . S
C392 C394 1.358 . S
C392 H433 0.930 . S
C393 C391 1.353 . S
C393 N395 1.314 . S
C393 H434 0.930 . S
C394 C392 1.358 . S
C394 N395 1.279 . S
C394 H435 0.930 . S
N395 C393 1.314 . S
N395 C394 1.279 . S
C396 C398 1.353 . S
C396 N399 1.314 . S
C396 H402 0.930 . S
C397 N399 1.279 . S
C397 C400 1.358 . S
C397 H403 0.930 . S
C398 C396 1.353 . S
C398 C401 1.348 . S
C398 H436 0.929 . S
N399 Li354 1.990 . S
N399 C396 1.314 . S
N399 C397 1.279 . S
C400 C397 1.358 . S
C400 C401 1.356 . S
C400 H437 0.930 . S
C401 C398 1.348 . S
C401 C400 1.356 . S
H402 C396 0.930 . S
H403 C397 0.930 . S
C404 N405 1.314 . S
C404 C406 1.353 1_455 S
C404 H410 0.930 . S
N405 Li355 1.990 . S
N405 C404 1.314 . S
N405 C408 1.279 1_455 S
C406 C404 1.353 1_655 S
C406 C409 1.348 . S
C406 H438 0.929 1_655 S
C407 C408 1.358 . S
C407 C409 1.356 . S
C407 H439 0.930 . S
C408 N405 1.279 1_655 S
C408 C407 1.358 . S
C408 H411 0.930 . S
C409 C406 1.348 . S
C409 C407 1.356 . S
H410 C404 0.930 . S
H411 C408 0.930 . S
O412 Li352 1.956 . S
O412 Li353 1.970 . S
O412 Li354 1.961 . S
O412 C356 1.325 . S
O413 Li352 1.970 . S
O413 Li353 1.956 . S
O413 Li355 1.961 . S
O413 C362 1.325 . S
O414 Li352 1.961 . S
O414 Li354 1.956 . S
O414 Li355 1.970 . S
O414 C384 1.325 . S
O415 Li353 1.961 . S
O415 Li354 1.970 . S
O415 Li355 1.956 . S
O415 C390 1.325 1_455 S
H416 C358 0.929 . S
H417 C359 0.930 . S
H418 C360 0.930 . S
H419 C361 0.930 . S
H420 C363 0.930 . S
H421 C365 0.929 . S
H422 C366 0.930 . S
H423 C367 0.930 . S
H424 C370 0.930 . S
H425 C373 0.929 . S
H426 C378 0.929 . S
H427 C379 0.930 . S
H428 C386 0.929 . S
H429 C387 0.930 . S
H430 C388 0.930 . S
H431 C389 0.930 . S
H432 C391 0.929 . S
H433 C392 0.930 . S
H434 C393 0.930 . S
H435 C394 0.930 . S
H436 C398 0.929 . S
H437 C400 0.930 . S
H438 C406 0.929 1_455 S
H439 C407 0.930 . S
Li440 N457 1.990 . S
Li440 O500 1.956 . S
Li440 O501 1.970 . S
Li440 O502 1.961 . S
Li441 N465 1.990 . S
Li441 O500 1.970 . S
Li441 O501 1.956 . S
Li441 O503 1.961 . S
Li442 N487 1.990 . S
Li442 O500 1.961 . S
Li442 O502 1.956 . S
Li442 O503 1.970 . S
Li443 N493 1.990 . S
Li443 O501 1.961 . S
Li443 O502 1.970 . S
Li443 O503 1.956 . S
C444 C446 1.348 . S
C444 C447 1.356 . S
C444 O500 1.325 . S
N445 C448 1.314 . S
N445 C449 1.279 . S
C446 C444 1.348 . S
C446 C448 1.353 . S
C446 H504 0.929 . S
C447 C444 1.356 . S
C447 C449 1.358 . S
C447 H505 0.930 . S
C448 N445 1.314 . S
C448 C446 1.353 . S
C448 H506 0.930 . S
C449 N445 1.279 . S
C449 C447 1.358 . S
C449 H507 0.930 . S
C450 C453 1.348 . S
C450 C454 1.356 . S
C450 O501 1.325 . S
C451 N452 1.279 . S
C451 C454 1.358 . S
C451 H508 0.930 . S
N452 C451 1.279 . S
N452 C455 1.314 . S
C453 C450 1.348 . S
C453 C455 1.353 . S
C453 H509 0.929 . S
C454 C450 1.356 . S
C454 C451 1.358 . S
C454 H510 0.930 . S
C455 N452 1.314 . S
C455 C453 1.353 . S
C455 H511 0.930 . S
C456 N457 1.314 . S
C456 C461 1.353 . S
C456 H462 0.930 . S
N457 Li440 1.990 . S
N457 C456 1.314 . S
N457 C459 1.279 . S
C458 C459 1.358 . S
C458 C460 1.356 . S
C458 H512 0.930 . S
C459 N457 1.279 . S
C459 C458 1.358 . S
C459 H463 0.930 . S
C460 C458 1.356 . S
C460 C461 1.348 . S
C461 C456 1.353 . S
C461 C460 1.348 . S
C461 H513 0.929 . S
H462 C456 0.930 . S
H463 C459 0.930 . S
C464 N465 1.298 1_565 S
C464 C466 1.358 . S
C464 H470 0.942 . S
N465 Li441 1.990 . S
N465 C464 1.298 1_545 S
N465 C468 1.279 . S
C466 C464 1.358 . S
C466 C469 1.348 . S
C466 H514 0.929 . S
C467 C468 1.358 . S
C467 C469 1.356 1_545 S
C467 H515 0.930 . S
C468 N465 1.279 . S
C468 C467 1.358 . S
C468 H471 0.930 . S
C469 C466 1.348 . S
C469 C467 1.356 1_565 S
H470 C464 0.942 . S
H471 C468 0.930 . S
C472 C474 1.348 . S
C472 C475 1.356 . S
C472 O502 1.325 . S
N473 C476 1.314 . S
N473 C477 1.279 . S
C474 C472 1.348 . S
C474 C476 1.353 . S
C474 H516 0.929 . S
C475 C472 1.356 . S
C475 C477 1.358 . S
C475 H517 0.930 . S
C476 N473 1.314 . S
C476 C474 1.353 . S
C476 H518 0.930 . S
C477 N473 1.279 . S
C477 C475 1.358 . S
C477 H519 0.930 . S
C478 C479 1.348 . S
C478 C480 1.356 . S
C478 O503 1.325 1_565 S
C479 C478 1.348 . S
C479 C481 1.353 . S
C479 H520 0.929 . S
C480 C478 1.356 . S
C480 C482 1.358 . S
C480 H521 0.930 . S
C481 C479 1.353 . S
C481 N483 1.314 . S
C481 H522 0.930 . S
C482 C480 1.358 . S
C482 N483 1.279 . S
C482 H523 0.930 . S
N483 C481 1.314 . S
N483 C482 1.279 . S
C484 C486 1.353 . S
C484 N487 1.314 . S
C484 H490 0.930 . S
C485 N487 1.279 . S
C485 C488 1.358 . S
C485 H491 0.930 . S
C486 C484 1.353 . S
C486 C489 1.348 . S
C486 H524 0.929 . S
N487 Li442 1.990 . S
N487 C484 1.314 . S
N487 C485 1.279 . S
C488 C485 1.358 . S
C488 C489 1.356 . S
C488 H525 0.930 . S
C489 C486 1.348 . S
C489 C488 1.356 . S
H490 C484 0.930 . S
H491 C485 0.930 . S
C492 N493 1.314 . S
C492 C494 1.353 1_545 S
C492 H498 0.930 . S
N493 Li443 1.990 . S
N493 C492 1.314 . S
N493 C496 1.279 1_545 S
C494 C492 1.353 1_565 S
C494 C497 1.348 . S
C494 H526 0.929 1_565 S
C495 C496 1.358 . S
C495 C497 1.356 . S
C495 H527 0.930 . S
C496 N493 1.279 1_565 S
C496 C495 1.358 . S
C496 H499 0.930 . S
C497 C494 1.348 . S
C497 C495 1.356 . S
H498 C492 0.930 . S
H499 C496 0.930 . S
O500 Li440 1.956 . S
O500 Li441 1.970 . S
O500 Li442 1.961 . S
O500 C444 1.325 . S
O501 Li440 1.970 . S
O501 Li441 1.956 . S
O501 Li443 1.961 . S
O501 C450 1.325 . S
O502 Li440 1.961 . S
O502 Li442 1.956 . S
O502 Li443 1.970 . S
O502 C472 1.325 . S
O503 Li441 1.961 . S
O503 Li442 1.970 . S
O503 Li443 1.956 . S
O503 C478 1.325 1_545 S
H504 C446 0.929 . S
H505 C447 0.930 . S
H506 C448 0.930 . S
H507 C449 0.930 . S
H508 C451 0.930 . S
H509 C453 0.929 . S
H510 C454 0.930 . S
H511 C455 0.930 . S
H512 C458 0.930 . S
H513 C461 0.929 . S
H514 C466 0.929 . S
H515 C467 0.930 . S
H516 C474 0.929 . S
H517 C475 0.930 . S
H518 C476 0.930 . S
H519 C477 0.930 . S
H520 C479 0.929 . S
H521 C480 0.930 . S
H522 C481 0.930 . S
H523 C482 0.930 . S
H524 C486 0.929 . S
H525 C488 0.930 . S
H526 C494 0.929 1_545 S
H527 C495 0.930 . S
Li528 N545 1.990 . S
Li528 O588 1.956 . S
Li528 O589 1.970 . S
Li528 O590 1.961 . S
Li529 N553 1.990 . S
Li529 O588 1.970 . S
Li529 O589 1.956 . S
Li529 O591 1.961 . S
Li530 N575 1.990 . S
Li530 O588 1.961 . S
Li530 O590 1.956 . S
Li530 O591 1.970 . S
Li531 N581 1.990 . S
Li531 O589 1.961 . S
Li531 O590 1.970 . S
Li531 O591 1.956 . S
C532 C534 1.348 . S
C532 C535 1.356 . S
C532 O588 1.325 . S
N533 C536 1.314 . S
N533 C537 1.279 . S
C534 C532 1.348 . S
C534 C536 1.353 . S
C534 H592 0.929 . S
C535 C532 1.356 . S
C535 C537 1.358 . S
C535 H593 0.930 . S
C536 N533 1.314 . S
C536 C534 1.353 . S
C536 H594 0.930 . S
C537 N533 1.279 . S
C537 C535 1.358 . S
C537 H595 0.930 . S
C538 C541 1.348 . S
C538 C542 1.356 . S
C538 O589 1.325 . S
C539 N540 1.279 . S
C539 C542 1.358 . S
C539 H596 0.930 . S
N540 C539 1.279 . S
N540 C543 1.314 . S
C541 C538 1.348 . S
C541 C543 1.353 . S
C541 H597 0.929 . S
C542 C538 1.356 . S
C542 C539 1.358 . S
C542 H598 0.930 . S
C543 N540 1.314 . S
C543 C541 1.353 . S
C543 H599 0.930 . S
C544 N545 1.314 . S
C544 C549 1.353 . S
C544 H550 0.930 . S
N545 Li528 1.990 . S
N545 C544 1.314 . S
N545 C547 1.279 . S
C546 C547 1.358 . S
C546 C548 1.356 . S
C546 H600 0.930 . S
C547 N545 1.279 . S
C547 C546 1.358 . S
C547 H551 0.930 . S
C548 C546 1.356 . S
C548 C549 1.348 . S
C549 C544 1.353 . S
C549 C548 1.348 . S
C549 H601 0.929 . S
H550 C544 0.930 . S
H551 C547 0.930 . S
C552 N553 1.314 . S
C552 C554 1.353 . S
C552 H558 0.930 . S
N553 Li529 1.990 . S
N553 C552 1.314 . S
N553 C556 1.279 . S
C554 C552 1.353 . S
C554 C557 1.348 . S
C554 H602 0.929 . S
C555 C556 1.358 . S
C555 C557 1.356 . S
C555 H603 0.930 . S
C556 N553 1.279 . S
C556 C555 1.358 . S
C556 H559 0.930 . S
C557 C554 1.348 . S
C557 C555 1.356 . S
H558 C552 0.930 . S
H559 C556 0.930 . S
C560 C562 1.348 . S
C560 C563 1.356 . S
C560 O590 1.325 . S
N561 C564 1.314 . S
N561 C565 1.279 . S
C562 C560 1.348 . S
C562 C564 1.353 . S
C562 H604 0.929 . S
C563 C560 1.356 . S
C563 C565 1.358 . S
C563 H605 0.930 . S
C564 N561 1.314 . S
C564 C562 1.353 . S
C564 H606 0.930 . S
C565 N561 1.279 . S
C565 C563 1.358 . S
C565 H607 0.930 . S
C566 C567 1.348 . S
C566 C568 1.356 . S
C566 O591 1.325 . S
C567 C566 1.348 . S
C567 C569 1.353 . S
C567 H608 0.929 . S
C568 C566 1.356 . S
C568 C570 1.358 . S
C568 H609 0.930 . S
C569 C567 1.353 . S
C569 N571 1.314 . S
C569 H610 0.930 . S
C570 C568 1.358 . S
C570 N571 1.279 . S
C570 H611 0.930 . S
N571 C569 1.314 . S
N571 C570 1.279 . S
C572 C574 1.353 . S
C572 N575 1.314 . S
C572 H578 0.930 . S
C573 N575 1.279 . S
C573 C576 1.358 . S
C573 H579 0.930 . S
C574 C572 1.353 . S
C574 C577 1.348 . S
C574 H612 0.929 . S
N575 Li530 1.990 . S
N575 C572 1.314 . S
N575 C573 1.279 . S
C576 C573 1.358 . S
C576 C577 1.356 . S
C576 H613 0.930 . S
C577 C574 1.348 . S
C577 C576 1.356 . S
H578 C572 0.930 . S
H579 C573 0.930 . S
C580 N581 1.314 . S
C580 C582 1.353 . S
C580 H586 0.930 . S
N581 Li531 1.990 . S
N581 C580 1.314 . S
N581 C584 1.279 . S
C582 C580 1.353 . S
C582 C585 1.348 . S
C582 H614 0.929 . S
C583 C584 1.358 . S
C583 C585 1.356 . S
C583 H615 0.930 . S
C584 N581 1.279 . S
C584 C583 1.358 . S
C584 H587 0.930 . S
C585 C582 1.348 . S
C585 C583 1.356 . S
H586 C580 0.930 . S
H587 C584 0.930 . S
O588 Li528 1.956 . S
O588 Li529 1.970 . S
O588 Li530 1.961 . S
O588 C532 1.325 . S
O589 Li528 1.970 . S
O589 Li529 1.956 . S
O589 Li531 1.961 . S
O589 C538 1.325 . S
O590 Li528 1.961 . S
O590 Li530 1.956 . S
O590 Li531 1.970 . S
O590 C560 1.325 . S
O591 Li529 1.961 . S
O591 Li530 1.970 . S
O591 Li531 1.956 . S
O591 C566 1.325 . S
H592 C534 0.929 . S
H593 C535 0.930 . S
H594 C536 0.930 . S
H595 C537 0.930 . S
H596 C539 0.930 . S
H597 C541 0.929 . S
H598 C542 0.930 . S
H599 C543 0.930 . S
H600 C546 0.930 . S
H601 C549 0.929 . S
H602 C554 0.929 . S
H603 C555 0.930 . S
H604 C562 0.929 . S
H605 C563 0.930 . S
H606 C564 0.930 . S
H607 C565 0.930 . S
H608 C567 0.929 . S
H609 C568 0.930 . S
H610 C569 0.930 . S
H611 C570 0.930 . S
H612 C574 0.929 . S
H613 C576 0.930 . S
H614 C582 0.929 . S
H615 C583 0.930 . S
Li616 N633 1.990 . S
Li616 O676 1.956 . S
Li616 O677 1.970 . S
Li616 O678 1.961 . S
Li617 N641 1.990 1_556 S
Li617 O676 1.970 . S
Li617 O677 1.956 . S
Li617 O679 1.961 . S
Li618 N663 1.990 . S
Li618 O676 1.961 . S
Li618 O678 1.956 . S
Li618 O679 1.970 . S
Li619 N669 1.990 . S
Li619 O677 1.961 . S
Li619 O678 1.970 . S
Li619 O679 1.956 . S
C620 C622 1.348 . S
C620 C623 1.356 . S
C620 O676 1.325 1_554 S
N621 C624 1.314 . S
N621 C625 1.279 . S
C622 C620 1.348 . S
C622 C624 1.353 . S
C622 H680 0.929 . S
C623 C620 1.356 . S
C623 C625 1.358 . S
C623 H681 0.930 1_554 S
C624 N621 1.314 . S
C624 C622 1.353 . S
C624 H682 0.930 . S
C625 N621 1.279 . S
C625 C623 1.358 . S
C625 H683 0.930 . S
C626 C629 1.348 . S
C626 C630 1.356 . S
C626 O677 1.325 1_455 S
C627 N628 1.279 . S
C627 C630 1.358 . S
C627 H684 0.930 . S
N628 C627 1.279 . S
N628 C631 1.314 . S
C629 C626 1.348 . S
C629 C631 1.353 . S
C629 H685 0.929 . S
C630 C626 1.356 . S
C630 C627 1.358 . S
C630 H686 0.930 . S
C631 N628 1.314 . S
C631 C629 1.353 . S
C631 H687 0.930 . S
C632 N633 1.314 . S
C632 C637 1.353 . S
C632 H638 0.930 . S
N633 Li616 1.990 . S
N633 C632 1.314 . S
N633 C635 1.279 . S
C634 C635 1.358 . S
C634 C636 1.356 . S
C634 H688 0.930 . S
C635 N633 1.279 . S
C635 C634 1.358 . S
C635 H639 0.930 . S
C636 C634 1.356 . S
C636 C637 1.348 . S
C637 C632 1.353 . S
C637 C636 1.348 . S
C637 H689 0.929 . S
H638 C632 0.930 . S
H639 C635 0.930 . S
C640 N641 1.314 . S
C640 C642 1.353 1_655 S
C640 H646 0.930 . S
N641 Li617 1.990 1_554 S
N641 C640 1.314 . S
N641 C644 1.279 1_655 S
C642 C640 1.353 1_455 S
C642 C645 1.348 . S
C642 H690 0.929 1_455 S
C643 C644 1.358 . S
C643 C645 1.356 . S
C643 H691 0.930 . S
C644 N641 1.279 1_455 S
C644 C643 1.358 . S
C644 H647 0.930 . S
C645 C642 1.348 . S
C645 C643 1.356 . S
H646 C640 0.930 . S
H647 C644 0.930 . S
C648 C650 1.348 . S
C648 C651 1.356 . S
C648 O678 1.325 . S
N649 C652 1.314 . S
N649 C653 1.279 . S
C650 C648 1.348 . S
C650 C652 1.353 . S
C650 H692 0.929 . S
C651 C648 1.356 . S
C651 C653 1.358 . S
C651 H693 0.930 . S
C652 N649 1.314 . S
C652 C650 1.353 . S
C652 H694 0.930 . S
C653 N649 1.279 . S
C653 C651 1.358 . S
C653 H695 0.930 . S
C654 C655 1.348 . S
C654 C656 1.356 . S
C654 O679 1.325 . S
C655 C654 1.348 . S
C655 C657 1.353 . S
C655 H696 0.929 . S
C656 C654 1.356 . S
C656 C658 1.358 . S
C656 H697 0.930 . S
C657 C655 1.353 . S
C657 N659 1.314 . S
C657 H698 0.930 . S
C658 C656 1.358 . S
C658 N659 1.279 . S
C658 H699 0.930 . S
N659 C657 1.314 . S
N659 C658 1.279 . S
C660 C662 1.353 . S
C660 N663 1.314 . S
C660 H666 0.930 1_556 S
C661 N663 1.279 . S
C661 C664 1.358 . S
C661 H667 0.930 . S
C662 C660 1.353 . S
C662 C665 1.348 . S
C662 H700 0.929 1_556 S
N663 Li618 1.990 . S
N663 C660 1.314 . S
N663 C661 1.279 . S
C664 C661 1.358 . S
C664 C665 1.356 . S
C664 H701 0.930 . S
C665 C662 1.348 . S
C665 C664 1.356 . S
H666 C660 0.930 1_554 S
H667 C661 0.930 . S
C668 N669 1.298 1_455 S
C668 C670 1.358 . S
C668 H674 0.942 . S
N669 Li619 1.990 . S
N669 C668 1.298 1_655 S
N669 C672 1.279 . S
C670 C668 1.358 . S
C670 C673 1.348 . S
C670 H702 0.929 . S
C671 C672 1.358 . S
C671 C673 1.356 1_655 S
C671 H703 0.930 . S
C672 N669 1.279 . S
C672 C671 1.358 . S
C672 H675 0.930 . S
C673 C670 1.348 . S
C673 C671 1.356 1_455 S
H674 C668 0.942 . S
H675 C672 0.930 . S
O676 Li616 1.956 . S
O676 Li617 1.970 . S
O676 Li618 1.961 . S
O676 C620 1.325 1_556 S
O677 Li616 1.970 . S
O677 Li617 1.956 . S
O677 Li619 1.961 . S
O677 C626 1.325 1_655 S
O678 Li616 1.961 . S
O678 Li618 1.956 . S
O678 Li619 1.970 . S
O678 C648 1.325 . S
O679 Li617 1.961 . S
O679 Li618 1.970 . S
O679 Li619 1.956 . S
O679 C654 1.325 . S
H680 C622 0.929 . S
H681 C623 0.930 1_556 S
H682 C624 0.930 . S
H683 C625 0.930 . S
H684 C627 0.930 . S
H685 C629 0.929 . S
H686 C630 0.930 . S
H687 C631 0.930 . S
H688 C634 0.930 . S
H689 C637 0.929 . S
H690 C642 0.929 1_655 S
H691 C643 0.930 . S
H692 C650 0.929 . S
H693 C651 0.930 . S
H694 C652 0.930 . S
H695 C653 0.930 . S
H696 C655 0.929 . S
H697 C656 0.930 . S
H698 C657 0.930 . S
H699 C658 0.930 . S
H700 C662 0.929 1_554 S
H701 C664 0.930 . S
H702 C670 0.929 . S
H703 C671 0.930 . S
Li704 N721 1.990 . S
Li704 O764 1.956 . S
Li704 O765 1.970 . S
Li704 O766 1.961 . S
Li705 N729 1.990 . S
Li705 O764 1.970 . S
Li705 O765 1.956 . S
Li705 O767 1.961 . S
Li706 N751 1.990 . S
Li706 O764 1.961 . S
Li706 O766 1.956 . S
Li706 O767 1.970 . S
Li707 N757 1.990 . S
Li707 O765 1.961 . S
Li707 O766 1.970 . S
Li707 O767 1.956 . S
C708 C710 1.348 . S
C708 C711 1.356 . S
C708 O764 1.325 1_545 S
N709 C712 1.314 . S
N709 C713 1.279 . S
C710 C708 1.348 . S
C710 C712 1.353 . S
C710 H768 0.929 . S
C711 C708 1.356 . S
C711 C713 1.358 . S
C711 H769 0.930 . S
C712 N709 1.314 . S
C712 C710 1.353 . S
C712 H770 0.930 . S
C713 N709 1.279 . S
C713 C711 1.358 . S
C713 H771 0.930 . S
C714 C717 1.348 . S
C714 C718 1.356 . S
C714 O765 1.325 . S
C715 N716 1.279 . S
C715 C718 1.358 . S
C715 H772 0.930 . S
N716 C715 1.279 . S
N716 C719 1.314 . S
C717 C714 1.348 . S
C717 C719 1.353 . S
C717 H773 0.929 . S
C718 C714 1.356 . S
C718 C715 1.358 . S
C718 H774 0.930 . S
C719 N716 1.314 . S
C719 C717 1.353 . S
C719 H775 0.930 . S
C720 N721 1.314 . S
C720 C725 1.353 1_565 S
C720 H726 0.930 . S
N721 Li704 1.990 . S
N721 C720 1.314 . S
N721 C723 1.279 1_565 S
C722 C723 1.358 . S
C722 C724 1.356 . S
C722 H776 0.930 . S
C723 N721 1.279 1_545 S
C723 C722 1.358 . S
C723 H727 0.930 . S
C724 C722 1.356 . S
C724 C725 1.348 . S
C725 C720 1.353 1_545 S
C725 C724 1.348 . S
C725 H777 0.929 1_545 S
H726 C720 0.930 . S
H727 C723 0.930 . S
C728 N729 1.314 . S
C728 C730 1.353 . S
C728 H734 0.930 . S
N729 Li705 1.990 . S
N729 C728 1.314 . S
N729 C732 1.279 . S
C730 C728 1.353 . S
C730 C733 1.348 . S
C730 H778 0.929 . S
C731 C732 1.358 . S
C731 C733 1.356 . S
C731 H779 0.930 . S
C732 N729 1.279 . S
C732 C731 1.358 . S
C732 H735 0.930 . S
C733 C730 1.348 . S
C733 C731 1.356 . S
H734 C728 0.930 . S
H735 C732 0.930 . S
C736 C738 1.348 . S
C736 C739 1.356 . S
C736 O766 1.325 . S
N737 C740 1.314 . S
N737 C741 1.279 . S
C738 C736 1.348 . S
C738 C740 1.353 . S
C738 H780 0.929 . S
C739 C736 1.356 . S
C739 C741 1.358 . S
C739 H781 0.930 . S
C740 N737 1.314 . S
C740 C738 1.353 . S
C740 H782 0.930 . S
C741 N737 1.279 . S
C741 C739 1.358 . S
C741 H783 0.930 . S
C742 C743 1.348 . S
C742 C744 1.356 . S
C742 O767 1.325 . S
C743 C742 1.348 . S
C743 C745 1.353 . S
C743 H784 0.929 . S
C744 C742 1.356 . S
C744 C746 1.358 . S
C744 H785 0.930 . S
C745 C743 1.353 . S
C745 N747 1.314 . S
C745 H786 0.930 . S
C746 C744 1.358 . S
C746 N747 1.279 . S
C746 H787 0.930 . S
N747 C745 1.314 . S
N747 C746 1.279 . S
C748 C750 1.364 . S
C748 N751 1.311 1_545 S
C748 H754 0.921 . S
C749 N751 1.279 . S
C749 C752 1.358 . S
C749 H755 0.930 . S
C750 C748 1.364 . S
C750 C753 1.348 . S
C750 H788 0.929 . S
N751 Li706 1.990 . S
N751 C748 1.311 1_565 S
N751 C749 1.279 . S
C752 C749 1.358 . S
C752 C753 1.356 1_565 S
C752 H789 0.930 . S
C753 C750 1.348 . S
C753 C752 1.356 1_545 S
H754 C748 0.921 . S
H755 C749 0.930 . S
C756 N757 1.314 . S
C756 C758 1.353 . S
C756 H762 0.930 . S
N757 Li707 1.990 . S
N757 C756 1.314 . S
N757 C760 1.279 . S
C758 C756 1.353 . S
C758 C761 1.348 . S
C758 H790 0.929 . S
C759 C760 1.358 . S
C759 C761 1.356 . S
C759 H791 0.930 . S
C760 N757 1.279 . S
C760 C759 1.358 . S
C760 H763 0.930 . S
C761 C758 1.348 . S
C761 C759 1.356 . S
H762 C756 0.930 . S
H763 C760 0.930 . S
O764 Li704 1.956 . S
O764 Li705 1.970 . S
O764 Li706 1.961 . S
O764 C708 1.325 1_565 S
O765 Li704 1.970 . S
O765 Li705 1.956 . S
O765 Li707 1.961 . S
O765 C714 1.325 . S
O766 Li704 1.961 . S
O766 Li706 1.956 . S
O766 Li707 1.970 . S
O766 C736 1.325 . S
O767 Li705 1.961 . S
O767 Li706 1.970 . S
O767 Li707 1.956 . S
O767 C742 1.325 . S
H768 C710 0.929 . S
H769 C711 0.930 . S
H770 C712 0.930 . S
H771 C713 0.930 . S
H772 C715 0.930 . S
H773 C717 0.929 . S
H774 C718 0.930 . S
H775 C719 0.930 . S
H776 C722 0.930 . S
H777 C725 0.929 1_565 S
H778 C730 0.929 . S
H779 C731 0.930 . S
H780 C738 0.929 . S
H781 C739 0.930 . S
H782 C740 0.930 . S
H783 C741 0.930 . S
H784 C743 0.929 . S
H785 C744 0.930 . S
H786 C745 0.930 . S
H787 C746 0.930 . S
H788 C750 0.929 . S
H789 C752 0.930 . S
H790 C758 0.929 . S
H791 C759 0.930 . S
Li792 N809 1.990 . S
Li792 O852 1.956 . S
Li792 O853 1.970 . S
Li792 O854 1.961 . S
Li793 N817 1.990 . S
Li793 O852 1.970 . S
Li793 O853 1.956 . S
Li793 O855 1.961 . S
Li794 N839 1.990 . S
Li794 O852 1.961 . S
Li794 O854 1.956 . S
Li794 O855 1.970 . S
Li795 N845 1.990 . S
Li795 O853 1.961 . S
Li795 O854 1.970 . S
Li795 O855 1.956 . S
C796 C798 1.348 . S
C796 C799 1.356 . S
C796 O852 1.325 . S
N797 C800 1.314 . S
N797 C801 1.279 . S
C798 C796 1.348 . S
C798 C800 1.353 . S
C798 H856 0.929 . S
C799 C796 1.356 . S
C799 C801 1.358 . S
C799 H857 0.930 . S
C800 N797 1.314 . S
C800 C798 1.353 . S
C800 H858 0.930 . S
C801 N797 1.279 . S
C801 C799 1.358 . S
C801 H859 0.930 . S
C802 C805 1.348 . S
C802 C806 1.356 . S
C802 O853 1.325 . S
C803 N804 1.279 . S
C803 C806 1.358 . S
C803 H860 0.930 . S
N804 C803 1.279 . S
N804 C807 1.314 . S
C805 C802 1.348 . S
C805 C807 1.353 . S
C805 H861 0.929 . S
C806 C802 1.356 . S
C806 C803 1.358 . S
C806 H862 0.930 . S
C807 N804 1.314 . S
C807 C805 1.353 . S
C807 H863 0.930 . S
C808 N809 1.314 . S
C808 C813 1.353 . S
C808 H814 0.930 . S
N809 Li792 1.990 . S
N809 C808 1.314 . S
N809 C811 1.279 . S
C810 C811 1.358 . S
C810 C812 1.356 . S
C810 H864 0.930 . S
C811 N809 1.279 . S
C811 C810 1.358 . S
C811 H815 0.930 . S
C812 C810 1.356 . S
C812 C813 1.348 . S
C813 C808 1.353 . S
C813 C812 1.348 . S
C813 H865 0.929 . S
H814 C808 0.930 . S
H815 C811 0.930 . S
C816 N817 1.314 . S
C816 C818 1.353 . S
C816 H822 0.930 . S
N817 Li793 1.990 . S
N817 C816 1.314 . S
N817 C820 1.279 . S
C818 C816 1.353 . S
C818 C821 1.348 . S
C818 H866 0.929 . S
C819 C820 1.358 . S
C819 C821 1.356 . S
C819 H867 0.930 . S
C820 N817 1.279 . S
C820 C819 1.358 . S
C820 H823 0.930 . S
C821 C818 1.348 . S
C821 C819 1.356 . S
H822 C816 0.930 . S
H823 C820 0.930 . S
C824 C826 1.348 . S
C824 C827 1.356 . S
C824 O854 1.325 . S
N825 C828 1.314 . S
N825 C829 1.279 . S
C826 C824 1.348 . S
C826 C828 1.353 . S
C826 H868 0.929 . S
C827 C824 1.356 . S
C827 C829 1.358 . S
C827 H869 0.930 . S
C828 N825 1.314 . S
C828 C826 1.353 . S
C828 H870 0.930 . S
C829 N825 1.279 . S
C829 C827 1.358 . S
C829 H871 0.930 . S
C830 C831 1.348 . S
C830 C832 1.356 . S
C830 O855 1.325 . S
C831 C830 1.348 . S
C831 C833 1.353 . S
C831 H872 0.929 . S
C832 C830 1.356 . S
C832 C834 1.358 . S
C832 H873 0.930 . S
C833 C831 1.353 . S
C833 N835 1.314 . S
C833 H874 0.930 . S
C834 C832 1.358 . S
C834 N835 1.279 . S
C834 H875 0.930 . S
N835 C833 1.314 . S
N835 C834 1.279 . S
C836 C838 1.353 . S
C836 N839 1.314 . S
C836 H842 0.930 . S
C837 N839 1.279 . S
C837 C840 1.358 . S
C837 H843 0.930 . S
C838 C836 1.353 . S
C838 C841 1.348 . S
C838 H876 0.929 . S
N839 Li794 1.990 . S
N839 C836 1.314 . S
N839 C837 1.279 . S
C840 C837 1.358 . S
C840 C841 1.356 . S
C840 H877 0.930 . S
C841 C838 1.348 . S
C841 C840 1.356 . S
H842 C836 0.930 . S
H843 C837 0.930 . S
C844 N845 1.314 . S
C844 C846 1.353 . S
C844 H850 0.930 . S
N845 Li795 1.990 . S
N845 C844 1.314 . S
N845 C848 1.279 . S
C846 C844 1.353 . S
C846 C849 1.348 . S
C846 H878 0.929 . S
C847 C848 1.358 . S
C847 C849 1.356 . S
C847 H879 0.930 . S
C848 N845 1.279 . S
C848 C847 1.358 . S
C848 H851 0.930 . S
C849 C846 1.348 . S
C849 C847 1.356 . S
H850 C844 0.930 . S
H851 C848 0.930 . S
O852 Li792 1.956 . S
O852 Li793 1.970 . S
O852 Li794 1.961 . S
O852 C796 1.325 . S
O853 Li792 1.970 . S
O853 Li793 1.956 . S
O853 Li795 1.961 . S
O853 C802 1.325 . S
O854 Li792 1.961 . S
O854 Li794 1.956 . S
O854 Li795 1.970 . S
O854 C824 1.325 . S
O855 Li793 1.961 . S
O855 Li794 1.970 . S
O855 Li795 1.956 . S
O855 C830 1.325 . S
H856 C798 0.929 . S
H857 C799 0.930 . S
H858 C800 0.930 . S
H859 C801 0.930 . S
H860 C803 0.930 . S
H861 C805 0.929 . S
H862 C806 0.930 . S
H863 C807 0.930 . S
H864 C810 0.930 . S
H865 C813 0.929 . S
H866 C818 0.929 . S
H867 C819 0.930 . S
H868 C826 0.929 . S
H869 C827 0.930 . S
H870 C828 0.930 . S
H871 C829 0.930 . S
H872 C831 0.929 . S
H873 C832 0.930 . S
H874 C833 0.930 . S
H875 C834 0.930 . S
H876 C838 0.929 . S
H877 C840 0.930 . S
H878 C846 0.929 . S
H879 C847 0.930 . S
Li880 N897 1.990 . S
Li880 O940 1.956 . S
Li880 O941 1.970 . S
Li880 O942 1.961 . S
Li881 N905 1.990 1_556 S
Li881 O940 1.970 . S
Li881 O941 1.956 . S
Li881 O943 1.961 . S
Li882 N927 1.990 . S
Li882 O940 1.961 . S
Li882 O942 1.956 . S
Li882 O943 1.970 . S
Li883 N933 1.990 . S
Li883 O941 1.961 . S
Li883 O942 1.970 . S
Li883 O943 1.956 . S
C884 C886 1.348 . S
C884 C887 1.356 . S
C884 O940 1.325 1_554 S
N885 C888 1.314 . S
N885 C889 1.279 . S
C886 C884 1.348 . S
C886 C888 1.353 . S
C886 H944 0.929 . S
C887 C884 1.356 . S
C887 C889 1.358 . S
C887 H945 0.930 1_554 S
C888 N885 1.314 . S
C888 C886 1.353 . S
C888 H946 0.930 . S
C889 N885 1.279 . S
C889 C887 1.358 . S
C889 H947 0.930 . S
C890 C893 1.348 . S
C890 C894 1.356 . S
C890 O941 1.325 1_655 S
C891 N892 1.279 . S
C891 C894 1.358 . S
C891 H948 0.930 . S
N892 C891 1.279 . S
N892 C895 1.314 . S
C893 C890 1.348 . S
C893 C895 1.353 . S
C893 H949 0.929 . S
C894 C890 1.356 . S
C894 C891 1.358 . S
C894 H950 0.930 . S
C895 N892 1.314 . S
C895 C893 1.353 . S
C895 H951 0.930 . S
C896 N897 1.314 . S
C896 C901 1.353 . S
C896 H902 0.930 . S
N897 Li880 1.990 . S
N897 C896 1.314 . S
N897 C899 1.279 . S
C898 C899 1.358 . S
C898 C900 1.356 . S
C898 H952 0.930 . S
C899 N897 1.279 . S
C899 C898 1.358 . S
C899 H903 0.930 . S
C900 C898 1.356 . S
C900 C901 1.348 . S
C901 C896 1.353 . S
C901 C900 1.348 . S
C901 H953 0.929 . S
H902 C896 0.930 . S
H903 C899 0.930 . S
C904 N905 1.314 . S
C904 C906 1.353 1_455 S
C904 H910 0.930 . S
N905 Li881 1.990 1_554 S
N905 C904 1.314 . S
N905 C908 1.279 1_455 S
C906 C904 1.353 1_655 S
C906 C909 1.348 . S
C906 H954 0.929 1_655 S
C907 C908 1.358 . S
C907 C909 1.356 . S
C907 H955 0.930 . S
C908 N905 1.279 1_655 S
C908 C907 1.358 . S
C908 H911 0.930 . S
C909 C906 1.348 . S
C909 C907 1.356 . S
H910 C904 0.930 . S
H911 C908 0.930 . S
C912 C914 1.348 . S
C912 C915 1.356 . S
C912 O942 1.325 . S
N913 C916 1.314 . S
N913 C917 1.279 . S
C914 C912 1.348 . S
C914 C916 1.353 . S
C914 H956 0.929 . S
C915 C912 1.356 . S
C915 C917 1.358 . S
C915 H957 0.930 . S
C916 N913 1.314 . S
C916 C914 1.353 . S
C916 H958 0.930 . S
C917 N913 1.279 . S
C917 C915 1.358 . S
C917 H959 0.930 . S
C918 C919 1.348 . S
C918 C920 1.356 . S
C918 O943 1.325 . S
C919 C918 1.348 . S
C919 C921 1.353 . S
C919 H960 0.929 . S
C920 C918 1.356 . S
C920 C922 1.358 . S
C920 H961 0.930 . S
C921 C919 1.353 . S
C921 N923 1.314 . S
C921 H962 0.930 . S
C922 C920 1.358 . S
C922 N923 1.279 . S
C922 H963 0.930 . S
N923 C921 1.314 . S
N923 C922 1.279 . S
C924 C926 1.353 . S
C924 N927 1.314 . S
C924 H930 0.930 1_556 S
C925 N927 1.279 . S
C925 C928 1.358 . S
C925 H931 0.930 . S
C926 C924 1.353 . S
C926 C929 1.348 . S
C926 H964 0.929 1_556 S
N927 Li882 1.990 . S
N927 C924 1.314 . S
N927 C925 1.279 . S
C928 C925 1.358 . S
C928 C929 1.356 . S
C928 H965 0.930 . S
C929 C926 1.348 . S
C929 C928 1.356 . S
H930 C924 0.930 1_554 S
H931 C925 0.930 . S
C932 N933 1.298 1_655 S
C932 C934 1.358 . S
C932 H938 0.942 . S
N933 Li883 1.990 . S
N933 C932 1.298 1_455 S
N933 C936 1.279 . S
C934 C932 1.358 . S
C934 C937 1.348 . S
C934 H966 0.929 . S
C935 C936 1.358 . S
C935 C937 1.356 1_455 S
C935 H967 0.930 . S
C936 N933 1.279 . S
C936 C935 1.358 . S
C936 H939 0.930 . S
C937 C934 1.348 . S
C937 C935 1.356 1_655 S
H938 C932 0.942 . S
H939 C936 0.930 . S
O940 Li880 1.956 . S
O940 Li881 1.970 . S
O940 Li882 1.961 . S
O940 C884 1.325 1_556 S
O941 Li880 1.970 . S
O941 Li881 1.956 . S
O941 Li883 1.961 . S
O941 C890 1.325 1_455 S
O942 Li880 1.961 . S
O942 Li882 1.956 . S
O942 Li883 1.970 . S
O942 C912 1.325 . S
O943 Li881 1.961 . S
O943 Li882 1.970 . S
O943 Li883 1.956 . S
O943 C918 1.325 . S
H944 C886 0.929 . S
H945 C887 0.930 1_556 S
H946 C888 0.930 . S
H947 C889 0.930 . S
H948 C891 0.930 . S
H949 C893 0.929 . S
H950 C894 0.930 . S
H951 C895 0.930 . S
H952 C898 0.930 . S
H953 C901 0.929 . S
H954 C906 0.929 1_455 S
H955 C907 0.930 . S
H956 C914 0.929 . S
H957 C915 0.930 . S
H958 C916 0.930 . S
H959 C917 0.930 . S
H960 C919 0.929 . S
H961 C920 0.930 . S
H962 C921 0.930 . S
H963 C922 0.930 . S
H964 C926 0.929 1_554 S
H965 C928 0.930 . S
H966 C934 0.929 . S
H967 C935 0.930 . S
Li968 N985 1.990 . S
Li968 O1028 1.956 . S
Li968 O1029 1.970 . S
Li968 O1030 1.961 . S
Li969 N993 1.990 . S
Li969 O1028 1.970 . S
Li969 O1029 1.956 . S
Li969 O1031 1.961 . S
Li970 N1015 1.990 . S
Li970 O1028 1.961 . S
Li970 O1030 1.956 . S
Li970 O1031 1.970 . S
Li971 N1021 1.990 . S
Li971 O1029 1.961 . S
Li971 O1030 1.970 . S
Li971 O1031 1.956 . S
C972 C974 1.348 . S
C972 C975 1.356 . S
C972 O1028 1.325 . S
N973 C976 1.314 . S
N973 C977 1.279 . S
C974 C972 1.348 . S
C974 C976 1.353 . S
C974 H1032 0.929 . S
C975 C972 1.356 . S
C975 C977 1.358 . S
C975 H1033 0.930 . S
C976 N973 1.314 . S
C976 C974 1.353 . S
C976 H1034 0.930 . S
C977 N973 1.279 . S
C977 C975 1.358 . S
C977 H1035 0.930 . S
C978 C981 1.348 . S
C978 C982 1.356 . S
C978 O1029 1.325 1_565 S
C979 N980 1.279 . S
C979 C982 1.358 . S
C979 H1036 0.930 . S
N980 C979 1.279 . S
N980 C983 1.314 . S
C981 C978 1.348 . S
C981 C983 1.353 . S
C981 H1037 0.929 . S
C982 C978 1.356 . S
C982 C979 1.358 . S
C982 H1038 0.930 . S
C983 N980 1.314 . S
C983 C981 1.353 . S
C983 H1039 0.930 . S
C984 N985 1.314 . S
C984 C989 1.353 . S
C984 H990 0.930 . S
N985 Li968 1.990 . S
N985 C984 1.314 . S
N985 C987 1.279 . S
C986 C987 1.358 . S
C986 C988 1.356 . S
C986 H1040 0.930 . S
C987 N985 1.279 . S
C987 C986 1.358 . S
C987 H991 0.930 . S
C988 C986 1.356 . S
C988 C989 1.348 . S
C989 C984 1.353 . S
C989 C988 1.348 . S
C989 H1041 0.929 . S
H990 C984 0.930 . S
H991 C987 0.930 . S
C992 N993 1.314 . S
C992 C994 1.353 1_545 S
C992 H998 0.930 . S
N993 Li969 1.990 . S
N993 C992 1.314 . S
N993 C996 1.279 1_545 S
C994 C992 1.353 1_565 S
C994 C997 1.348 . S
C994 H1042 0.929 1_565 S
C995 C996 1.358 . S
C995 C997 1.356 . S
C995 H1043 0.930 . S
C996 N993 1.279 1_565 S
C996 C995 1.358 . S
C996 H999 0.930 . S
C997 C994 1.348 . S
C997 C995 1.356 . S
H998 C992 0.930 . S
H999 C996 0.930 . S
C1000 C1002 1.348 . S
C1000 C1003 1.356 . S
C1000 O1030 1.325 . S
N1001 C1004 1.314 . S
N1001 C1005 1.279 . S
C1002 C1000 1.348 . S
C1002 C1004 1.353 . S
C1002 H1044 0.929 . S
C1003 C1000 1.356 . S
C1003 C1005 1.358 . S
C1003 H1045 0.930 . S
C1004 N1001 1.314 . S
C1004 C1002 1.353 . S
C1004 H1046 0.930 . S
C1005 N1001 1.279 . S
C1005 C1003 1.358 . S
C1005 H1047 0.930 . S
C1006 C1007 1.348 . S
C1006 C1008 1.356 . S
C1006 O1031 1.325 . S
C1007 C1006 1.348 . S
C1007 C1009 1.353 . S
C1007 H1048 0.929 . S
C1008 C1006 1.356 . S
C1008 C1010 1.358 . S
C1008 H1049 0.930 . S
C1009 C1007 1.353 . S
C1009 N1011 1.314 . S
C1009 H1050 0.930 . S
C1010 C1008 1.358 . S
C1010 N1011 1.279 . S
C1010 H1051 0.930 . S
N1011 C1009 1.314 . S
N1011 C1010 1.279 . S
C1012 C1014 1.353 . S
C1012 N1015 1.314 . S
C1012 H1018 0.930 . S
C1013 N1015 1.279 . S
C1013 C1016 1.358 . S
C1013 H1019 0.930 . S
C1014 C1012 1.353 . S
C1014 C1017 1.348 . S
C1014 H1052 0.929 . S
N1015 Li970 1.990 . S
N1015 C1012 1.314 . S
N1015 C1013 1.279 . S
C1016 C1013 1.358 . S
C1016 C1017 1.356 . S
C1016 H1053 0.930 . S
C1017 C1014 1.348 . S
C1017 C1016 1.356 . S
H1018 C1012 0.930 . S
H1019 C1013 0.930 . S
C1020 N1021 1.311 1_565 S
C1020 C1022 1.364 . S
C1020 H1026 0.921 . S
N1021 Li971 1.990 . S
N1021 C1020 1.311 1_545 S
N1021 C1024 1.279 . S
C1022 C1020 1.364 . S
C1022 C1025 1.348 . S
C1022 H1054 0.929 . S
C1023 C1024 1.358 . S
C1023 C1025 1.356 1_545 S
C1023 H1055 0.930 . S
C1024 N1021 1.279 . S
C1024 C1023 1.358 . S
C1024 H1027 0.930 . S
C1025 C1022 1.348 . S
C1025 C1023 1.356 1_565 S
H1026 C1020 0.921 . S
H1027 C1024 0.930 . S
O1028 Li968 1.956 . S
O1028 Li969 1.970 . S
O1028 Li970 1.961 . S
O1028 C972 1.325 . S
O1029 Li968 1.970 . S
O1029 Li969 1.956 . S
O1029 Li971 1.961 . S
O1029 C978 1.325 1_545 S
O1030 Li968 1.961 . S
O1030 Li970 1.956 . S
O1030 Li971 1.970 . S
O1030 C1000 1.325 . S
O1031 Li969 1.961 . S
O1031 Li970 1.970 . S
O1031 Li971 1.956 . S
O1031 C1006 1.325 . S
H1032 C974 0.929 . S
H1033 C975 0.930 . S
H1034 C976 0.930 . S
H1035 C977 0.930 . S
H1036 C979 0.930 . S
H1037 C981 0.929 . S
H1038 C982 0.930 . S
H1039 C983 0.930 . S
H1040 C986 0.930 . S
H1041 C989 0.929 . S
H1042 C994 0.929 1_545 S
H1043 C995 0.930 . S
H1044 C1002 0.929 . S
H1045 C1003 0.930 . S
H1046 C1004 0.930 . S
H1047 C1005 0.930 . S
H1048 C1007 0.929 . S
H1049 C1008 0.930 . S
H1050 C1009 0.930 . S
H1051 C1010 0.930 . S
H1052 C1014 0.929 . S
H1053 C1016 0.930 . S
H1054 C1022 0.929 . S
H1055 C1023 0.930 . S
C1056 C1057 1.369 . S
C1056 C1058 1.419 . S
C1056 H1060 0.930 . S
C1057 C1056 1.369 . S
C1057 C1066 1.429 . S
C1058 C1056 1.419 . S
C1058 C1059 1.363 . S
C1058 H1061 0.929 . S
C1059 C1058 1.363 . S
C1059 C1065 1.428 . S
H1060 C1056 0.930 . S
H1061 C1058 0.929 . S
S1062 N1063 1.613 . S
S1062 N1064 1.610 . S
N1063 S1062 1.613 . S
N1063 C1066 1.350 . S
N1064 S1062 1.610 . S
N1064 C1065 1.351 . S
C1065 C1059 1.428 . S
C1065 N1064 1.351 . S
C1065 C1066 1.434 . S
C1066 C1057 1.429 . S
C1066 N1063 1.350 . S
C1066 C1065 1.434 . S
C1067 C1068 1.369 . S
C1067 C1069 1.418 . S
C1067 H1071 0.930 . S
C1068 C1067 1.369 . S
C1068 C1077 1.438 . S
C1069 C1067 1.418 . S
C1069 C1070 1.364 1_455 S
C1069 H1072 0.916 . S
C1070 C1069 1.364 1_655 S
C1070 C1076 1.428 . S
H1071 C1067 0.930 . S
H1072 C1069 0.916 . S
S1073 N1074 1.595 1_655 S
S1073 N1075 1.610 . S
N1074 S1073 1.595 1_455 S
N1074 C1077 1.358 . S
N1075 S1073 1.610 . S
N1075 C1076 1.351 . S
C1076 C1070 1.428 . S
C1076 N1075 1.351 . S
C1076 C1077 1.431 1_655 S
C1077 C1068 1.438 . S
C1077 N1074 1.358 . S
C1077 C1076 1.431 1_455 S
C1078 C1079 1.369 . S
C1078 C1080 1.419 1_556 S
C1078 H1082 0.930 . S
C1079 C1078 1.369 . S
C1079 C1088 1.429 1_545 S
C1080 C1078 1.419 1_554 S
C1080 C1081 1.363 1_545 S
C1080 H1083 0.929 . S
C1081 C1080 1.363 1_565 S
C1081 C1087 1.428 . S
H1082 C1078 0.930 . S
H1083 C1080 0.929 . S
S1084 N1085 1.613 . S
S1084 N1086 1.610 1_556 S
N1085 S1084 1.613 . S
N1085 C1088 1.350 . S
N1086 S1084 1.610 1_554 S
N1086 C1087 1.351 . S
C1087 C1081 1.428 . S
C1087 N1086 1.351 . S
C1087 C1088 1.434 1_554 S
C1088 C1079 1.429 1_565 S
C1088 N1085 1.350 . S
C1088 C1087 1.434 1_556 S
C1089 C1090 1.369 . S
C1089 C1091 1.419 . S
C1089 H1093 0.930 . S
C1090 C1089 1.369 . S
C1090 C1099 1.429 . S
C1091 C1089 1.419 . S
C1091 C1092 1.363 . S
C1091 H1094 0.929 . S
C1092 C1091 1.363 . S
C1092 C1098 1.428 . S
H1093 C1089 0.930 . S
H1094 C1091 0.929 . S
S1095 N1096 1.613 . S
S1095 N1097 1.610 . S
N1096 S1095 1.613 . S
N1096 C1099 1.350 . S
N1097 S1095 1.610 . S
N1097 C1098 1.351 . S
C1098 C1092 1.428 . S
C1098 N1097 1.351 . S
C1098 C1099 1.434 . S
C1099 C1090 1.429 . S
C1099 N1096 1.350 . S
C1099 C1098 1.434 . S
C1100 C1101 1.369 . S
C1100 C1102 1.419 . S
C1100 H1104 0.930 . S
C1101 C1100 1.369 . S
C1101 C1110 1.429 1_455 S
C1102 C1100 1.419 . S
C1102 C1103 1.363 1_455 S
C1102 H1105 0.929 . S
C1103 C1102 1.363 1_655 S
C1103 C1109 1.428 . S
H1104 C1100 0.930 . S
H1105 C1102 0.929 . S
S1106 N1107 1.613 . S
S1106 N1108 1.610 . S
N1107 S1106 1.613 . S
N1107 C1110 1.350 . S
N1108 S1106 1.610 . S
N1108 C1109 1.351 . S
C1109 C1103 1.428 . S
C1109 N1108 1.351 . S
C1109 C1110 1.434 . S
C1110 C1101 1.429 1_655 S
C1110 N1107 1.350 . S
C1110 C1109 1.434 . S
C1111 C1112 1.369 1_565 S
C1111 C1113 1.419 1_554 S
C1111 H1115 0.930 . S
C1112 C1111 1.369 1_545 S
C1112 C1121 1.429 . S
C1113 C1111 1.419 1_556 S
C1113 C1114 1.363 . S
C1113 H1116 0.929 . S
C1114 C1113 1.363 . S
C1114 C1120 1.428 1_565 S
H1115 C1111 0.930 . S
H1116 C1113 0.929 . S
S1117 N1118 1.613 1_556 S
S1117 N1119 1.610 . S
N1118 S1117 1.613 1_554 S
N1118 C1121 1.350 . S
N1119 S1117 1.610 . S
N1119 C1120 1.351 . S
C1120 C1114 1.428 1_545 S
C1120 N1119 1.351 . S
C1120 C1121 1.434 1_556 S
C1121 C1112 1.429 . S
C1121 N1118 1.350 . S
C1121 C1120 1.434 1_554 S
C1122 C1123 1.369 1_554 S
C1122 C1124 1.419 . S
C1122 H1126 0.930 . S
C1123 C1122 1.369 1_556 S
C1123 C1132 1.429 . S
C1124 C1122 1.419 . S
C1124 C1125 1.363 . S
C1124 H1127 0.929 . S
C1125 C1124 1.363 . S
C1125 C1131 1.428 1_554 S
H1126 C1122 0.930 . S
H1127 C1124 0.929 . S
S1128 N1129 1.613 . S
S1128 N1130 1.610 . S
N1129 S1128 1.613 . S
N1129 C1132 1.350 . S
N1130 S1128 1.610 . S
N1130 C1131 1.351 . S
C1131 C1125 1.428 1_556 S
C1131 N1130 1.351 . S
C1131 C1132 1.434 . S
C1132 C1123 1.429 . S
C1132 N1129 1.350 . S
C1132 C1131 1.434 . S
C1133 C1134 1.369 . S
C1133 C1135 1.419 . S
C1133 H1137 0.930 . S
C1134 C1133 1.369 . S
C1134 C1143 1.429 . S
C1135 C1133 1.419 . S
C1135 C1136 1.363 . S
C1135 H1138 0.929 . S
C1136 C1135 1.363 . S
C1136 C1142 1.428 . S
H1137 C1133 0.930 . S
H1138 C1135 0.929 . S
S1139 N1140 1.613 . S
S1139 N1141 1.610 . S
N1140 S1139 1.613 . S
N1140 C1143 1.350 . S
N1141 S1139 1.610 . S
N1141 C1142 1.351 . S
C1142 C1136 1.428 . S
C1142 N1141 1.351 . S
C1142 C1143 1.434 . S
C1143 C1134 1.429 . S
C1143 N1140 1.350 . S
C1143 C1142 1.434 . S
C1144 C1145 1.369 . S
C1144 C1146 1.419 . S
C1144 H1148 0.930 . S
C1145 C1144 1.369 . S
C1145 C1154 1.429 . S
C1146 C1144 1.419 . S
C1146 C1147 1.363 . S
C1146 H1149 0.929 . S
C1147 C1146 1.363 . S
C1147 C1153 1.428 . S
H1148 C1144 0.930 . S
H1149 C1146 0.929 . S
S1150 N1151 1.613 . S
S1150 N1152 1.610 . S
N1151 S1150 1.613 . S
N1151 C1154 1.350 . S
N1152 S1150 1.610 . S
N1152 C1153 1.351 . S
C1153 C1147 1.428 . S
C1153 N1152 1.351 . S
C1153 C1154 1.434 . S
C1154 C1145 1.429 . S
C1154 N1151 1.350 . S
C1154 C1153 1.434 . S
C1155 C1156 1.369 1_556 S
C1155 C1157 1.419 . S
C1155 H1159 0.930 . S
C1156 C1155 1.369 1_554 S
C1156 C1165 1.429 . S
C1157 C1155 1.419 . S
C1157 C1158 1.363 . S
C1157 H1160 0.929 . S
C1158 C1157 1.363 . S
C1158 C1164 1.428 1_556 S
H1159 C1155 0.930 . S
H1160 C1157 0.929 . S
S1161 N1162 1.613 . S
S1161 N1163 1.610 . S
N1162 S1161 1.613 . S
N1162 C1165 1.350 . S
N1163 S1161 1.610 . S
N1163 C1164 1.351 . S
C1164 C1158 1.428 1_554 S
C1164 N1163 1.351 . S
C1164 C1165 1.434 . S
C1165 C1156 1.429 . S
C1165 N1162 1.350 . S
C1165 C1164 1.434 . S
C1166 C1167 1.369 . S
C1166 C1168 1.419 . S
C1166 H1170 0.930 . S
C1167 C1166 1.369 . S
C1167 C1176 1.429 . S
C1168 C1166 1.419 . S
C1168 C1169 1.363 . S
C1168 H1171 0.929 . S
C1169 C1168 1.363 . S
C1169 C1175 1.428 . S
H1170 C1166 0.930 . S
H1171 C1168 0.929 . S
S1172 N1173 1.613 . S
S1172 N1174 1.610 . S
N1173 S1172 1.613 . S
N1173 C1176 1.350 . S
N1174 S1172 1.610 . S
N1174 C1175 1.351 . S
C1175 C1169 1.428 . S
C1175 N1174 1.351 . S
C1175 C1176 1.434 . S
C1176 C1167 1.429 . S
C1176 N1173 1.350 . S
C1176 C1175 1.434 . S
C1177 C1178 1.369 . S
C1177 C1179 1.419 . S
C1177 H1181 0.930 . S
C1178 C1177 1.369 . S
C1178 C1187 1.429 . S
C1179 C1177 1.419 . S
C1179 C1180 1.363 . S
C1179 H1182 0.929 . S
C1180 C1179 1.363 . S
C1180 C1186 1.428 . S
H1181 C1177 0.930 . S
H1182 C1179 0.929 . S
S1183 N1184 1.613 . S
S1183 N1185 1.610 . S
N1184 S1183 1.613 . S
N1184 C1187 1.350 . S
N1185 S1183 1.610 . S
N1185 C1186 1.351 . S
C1186 C1180 1.428 . S
C1186 N1185 1.351 . S
C1186 C1187 1.434 . S
C1187 C1178 1.429 . S
C1187 N1184 1.350 . S
C1187 C1186 1.434 . S
C1188 C1189 1.369 . S
C1188 C1190 1.419 . S
C1188 H1192 0.930 . S
C1189 C1188 1.369 . S
C1189 C1198 1.429 . S
C1190 C1188 1.419 . S
C1190 C1191 1.363 . S
C1190 H1193 0.929 . S
C1191 C1190 1.363 . S
C1191 C1197 1.428 . S
H1192 C1188 0.930 . S
H1193 C1190 0.929 . S
S1194 N1195 1.613 . S
S1194 N1196 1.610 . S
N1195 S1194 1.613 . S
N1195 C1198 1.350 . S
N1196 S1194 1.610 . S
N1196 C1197 1.351 . S
C1197 C1191 1.428 . S
C1197 N1196 1.351 . S
C1197 C1198 1.434 . S
C1198 C1189 1.429 . S
C1198 N1195 1.350 . S
C1198 C1197 1.434 . S
C1199 C1200 1.369 . S
C1199 C1201 1.419 1_455 S
C1199 H1203 0.930 . S
C1200 C1199 1.369 . S
C1200 C1209 1.429 . S
C1201 C1199 1.419 1_655 S
C1201 C1202 1.363 . S
C1201 H1204 0.929 . S
C1202 C1201 1.363 . S
C1202 C1208 1.428 . S
H1203 C1199 0.930 . S
H1204 C1201 0.929 . S
S1205 N1206 1.613 1_655 S
S1205 N1207 1.610 . S
N1206 S1205 1.613 1_455 S
N1206 C1209 1.350 . S
N1207 S1205 1.610 . S
N1207 C1208 1.351 . S
C1208 C1202 1.428 . S
C1208 N1207 1.351 . S
C1208 C1209 1.434 1_655 S
C1209 C1200 1.429 . S
C1209 N1206 1.350 . S
C1209 C1208 1.434 1_455 S
C1210 C1211 1.369 . S
C1210 C1212 1.419 1_545 S
C1210 H1214 0.930 . S
C1211 C1210 1.369 . S
C1211 C1220 1.429 . S
C1212 C1210 1.419 1_565 S
C1212 C1213 1.363 . S
C1212 H1215 0.929 . S
C1213 C1212 1.363 . S
C1213 C1219 1.428 . S
H1214 C1210 0.930 . S
H1215 C1212 0.929 . S
S1216 N1217 1.613 . S
S1216 N1218 1.610 1_545 S
N1217 S1216 1.613 . S
N1217 C1220 1.350 . S
N1218 S1216 1.610 1_565 S
N1218 C1219 1.351 . S
C1219 C1213 1.428 . S
C1219 N1218 1.351 . S
C1219 C1220 1.434 1_565 S
C1220 C1211 1.429 . S
C1220 N1217 1.350 . S
C1220 C1219 1.434 1_545 S
C1221 C1222 1.369 . S
C1221 C1223 1.419 . S
C1221 H1225 0.930 . S
C1222 C1221 1.369 . S
C1222 C1231 1.429 . S
C1223 C1221 1.419 . S
C1223 C1224 1.363 . S
C1223 H1226 0.929 . S
C1224 C1223 1.363 . S
C1224 C1230 1.428 . S
H1225 C1221 0.930 . S
H1226 C1223 0.929 . S
S1227 N1228 1.613 . S
S1227 N1229 1.610 . S
N1228 S1227 1.613 . S
N1228 C1231 1.350 . S
N1229 S1227 1.610 . S
N1229 C1230 1.351 . S
C1230 C1224 1.428 . S
C1230 N1229 1.351 . S
C1230 C1231 1.434 . S
C1231 C1222 1.429 . S
C1231 N1228 1.350 . S
C1231 C1230 1.434 . S
C1232 C1233 1.369 . S
C1232 C1234 1.419 1_655 S
C1232 H1236 0.930 . S
C1233 C1232 1.369 . S
C1233 C1242 1.429 . S
C1234 C1232 1.419 1_455 S
C1234 C1235 1.363 . S
C1234 H1237 0.929 . S
C1235 C1234 1.363 . S
C1235 C1241 1.428 . S
H1236 C1232 0.930 . S
H1237 C1234 0.929 . S
S1238 N1239 1.613 . S
S1238 N1240 1.610 1_655 S
N1239 S1238 1.613 . S
N1239 C1242 1.350 . S
N1240 S1238 1.610 1_455 S
N1240 C1241 1.351 . S
C1241 C1235 1.428 . S
C1241 N1240 1.351 . S
C1241 C1242 1.434 1_455 S
C1242 C1233 1.429 . S
C1242 N1239 1.350 . S
C1242 C1241 1.434 1_655 S
C1243 C1244 1.369 . S
C1243 C1245 1.419 1_545 S
C1243 H1247 0.930 . S
C1244 C1243 1.369 . S
C1244 C1253 1.429 . S
C1245 C1243 1.419 1_565 S
C1245 C1246 1.363 . S
C1245 H1248 0.929 . S
C1246 C1245 1.363 . S
C1246 C1252 1.428 . S
H1247 C1243 0.930 . S
H1248 C1245 0.929 . S
S1249 N1250 1.613 . S
S1249 N1251 1.610 1_545 S
N1250 S1249 1.613 . S
N1250 C1253 1.350 . S
N1251 S1249 1.610 1_565 S
N1251 C1252 1.351 . S
C1252 C1246 1.428 . S
C1252 N1251 1.351 . S
C1252 C1253 1.434 1_565 S
C1253 C1244 1.429 . S
C1253 N1250 1.350 . S
C1253 C1252 1.434 1_545 S
C1254 C1255 1.369 . S
C1254 C1256 1.419 . S
C1254 H1258 0.930 . S
C1255 C1254 1.369 . S
C1255 C1264 1.429 . S
C1256 C1254 1.419 . S
C1256 C1257 1.363 . S
C1256 H1259 0.929 . S
C1257 C1256 1.363 . S
C1257 C1263 1.428 . S
H1258 C1254 0.930 . S
H1259 C1256 0.929 . S
S1260 N1261 1.613 . S
S1260 N1262 1.610 . S
N1261 S1260 1.613 . S
N1261 C1264 1.350 . S
N1262 S1260 1.610 . S
N1262 C1263 1.351 . S
C1263 C1257 1.428 . S
C1263 N1262 1.351 . S
C1263 C1264 1.434 . S
C1264 C1255 1.429 . S
C1264 N1261 1.350 . S
C1264 C1263 1.434 . S
C1265 C1266 1.332 1_655 S
C1265 C1267 1.436 . S
C1265 H1269 0.952 . S
C1266 C1265 1.332 1_455 S
C1266 C1275 1.429 . S
C1267 C1265 1.436 . S
C1267 C1268 1.363 . S
C1267 H1270 0.929 . S
C1268 C1267 1.363 . S
C1268 C1274 1.428 1_655 S
H1269 C1265 0.952 . S
H1270 C1267 0.929 . S
S1271 N1272 1.613 . S
S1271 N1273 1.610 . S
N1272 S1271 1.613 . S
N1272 C1275 1.350 . S
N1273 S1271 1.610 . S
N1273 C1274 1.351 . S
C1274 C1268 1.428 1_455 S
C1274 N1273 1.351 . S
C1274 C1275 1.434 . S
C1275 C1266 1.429 . S
C1275 N1272 1.350 . S
C1275 C1274 1.434 . S
C1276 C1277 1.341 1_545 S
C1276 C1278 1.465 . S
C1276 H1280 0.912 . S
C1277 C1276 1.341 1_565 S
C1277 C1286 1.429 . S
C1278 C1276 1.465 . S
C1278 C1279 1.363 . S
C1278 H1281 0.929 . S
C1279 C1278 1.363 . S
C1279 C1285 1.428 1_545 S
H1280 C1276 0.912 . S
H1281 C1278 0.929 . S
S1282 N1283 1.613 . S
S1282 N1284 1.610 . S
N1283 S1282 1.613 . S
N1283 C1286 1.350 . S
N1284 S1282 1.610 . S
N1284 C1285 1.351 . S
C1285 C1279 1.428 1_565 S
C1285 N1284 1.351 . S
C1285 C1286 1.434 . S
C1286 C1277 1.429 . S
C1286 N1283 1.350 . S
C1286 C1285 1.434 . S
C1287 C1288 1.369 . S
C1287 C1289 1.419 . S
C1287 H1291 0.930 . S
C1288 C1287 1.369 . S
C1288 C1297 1.429 . S
C1289 C1287 1.419 . S
C1289 C1290 1.363 . S
C1289 H1292 0.929 . S
C1290 C1289 1.363 . S
C1290 C1296 1.428 . S
H1291 C1287 0.930 . S
H1292 C1289 0.929 . S
S1293 N1294 1.613 . S
S1293 N1295 1.610 . S
N1294 S1293 1.613 . S
N1294 C1297 1.350 . S
N1295 S1293 1.610 . S
N1295 C1296 1.351 . S
C1296 C1290 1.428 . S
C1296 N1295 1.351 . S
C1296 C1297 1.434 . S
C1297 C1288 1.429 . S
C1297 N1294 1.350 . S
C1297 C1296 1.434 . S
C1298 C1299 1.369 . S
C1298 C1300 1.419 1_655 S
C1298 H1302 0.930 . S
C1299 C1298 1.369 . S
C1299 C1308 1.451 . S
C1300 C1298 1.419 1_455 S
C1300 C1301 1.363 . S
C1300 H1303 0.929 . S
C1301 C1300 1.363 . S
C1301 C1307 1.428 . S
H1302 C1298 0.930 . S
H1303 C1300 0.929 . S
S1304 N1305 1.613 . S
S1304 N1306 1.610 . S
N1305 S1304 1.613 . S
N1305 C1308 1.363 1_455 S
N1306 S1304 1.610 . S
N1306 C1307 1.351 . S
C1307 C1301 1.428 . S
C1307 N1306 1.351 . S
C1307 C1308 1.395 1_455 S
C1308 C1299 1.451 . S
C1308 N1305 1.363 1_655 S
C1308 C1307 1.395 1_655 S
C1309 C1310 1.369 . S
C1309 C1311 1.419 1_545 S
C1309 H1313 0.930 . S
C1310 C1309 1.369 . S
C1310 C1319 1.429 . S
C1311 C1309 1.419 1_565 S
C1311 C1312 1.363 . S
C1311 H1314 0.929 . S
C1312 C1311 1.363 . S
C1312 C1318 1.428 . S
H1313 C1309 0.930 . S
H1314 C1311 0.929 . S
S1315 N1316 1.613 1_565 S
S1315 N1317 1.610 . S
N1316 S1315 1.613 1_545 S
N1316 C1319 1.350 . S
N1317 S1315 1.610 . S
N1317 C1318 1.351 . S
C1318 C1312 1.428 . S
C1318 N1317 1.351 . S
C1318 C1319 1.434 1_565 S
C1319 C1310 1.429 . S
C1319 N1316 1.350 . S
C1319 C1318 1.434 1_545 S
C1057 C29 1.775 . S
C1059 C841 1.778 . S
C1068 C108 1.774 . S
C1070 C937 1.773 . S
C1079 C196 1.770 . S
C1081 C1025 1.778 . S
C1090 C284 1.773 . S
C1092 C577 1.774 . S
C1101 C673 1.771 . S
C1103 C381 1.776 . S
C1112 C753 1.776 . S
C1114 C469 1.772 . S
C1123 C929 1.438 . S
C1125 C20 1.430 . S
C1134 C117 1.433 . S
C1136 C1017 1.436 . S
C1145 C205 1.437 . S
C1147 C585 1.432 . S
C1156 C293 1.438 . S
C1158 C665 1.430 . S
C1167 C372 1.437 . S
C1169 C761 1.433 . S
C1178 C460 1.437 . S
C1180 C849 1.429 . S
C1189 C812 1.375 . S
C1191 C57 1.364 . S
C1200 C137 1.375 . S
C1202 C909 1.372 . S
C1211 C225 1.378 . S
C1213 C997 1.370 . S
C1222 C548 1.363 . S
C1224 C313 1.373 . S
C1233 C409 1.378 . S
C1235 C645 1.370 . S
C1244 C724 1.378 . S
C1246 C497 1.370 . S
C1255 C49 1.910 . S
C1257 C321 1.900 . S
C1266 C401 1.909 . S
C1268 C145 1.901 . S
C1277 C233 1.909 . S
C1279 C489 1.900 . S
C1288 C557 1.903 . S
C1290 C821 1.905 . S
C1299 C636 1.901 . S
C1301 C900 1.907 . S
C1310 C988 1.901 . S
C1312 C733 1.907 . S
