# Generated by pormake.
# Topology lcy, (6)-cn, num edge types: 1
# Building blocks:
#     Node 0, Type 0, BuildingBlock: LEVNOQ01_clean_sbu_1, # of connection points: 6
#     Node 1, Type 0, BuildingBlock: LEVNOQ01_clean_sbu_1, # of connection points: 6
#     Node 2, Type 0, BuildingBlock: LEVNOQ01_clean_sbu_1, # of connection points: 6
#     Node 3, Type 0, BuildingBlock: LEVNOQ01_clean_sbu_1, # of connection points: 6
#     Edge 4, Type (0, 0), BuildingBlock: TEMPAE_clean_linker_10, # of connection points: 2
#     Edge 5, Type (0, 0), BuildingBlock: TEMPAE_clean_linker_10, # of connection points: 2
#     Edge 6, Type (0, 0), BuildingBlock: TEMPAE_clean_linker_10, # of connection points: 2
#     Edge 7, Type (0, 0), BuildingBlock: TEMPAE_clean_linker_10, # of connection points: 2
#     Edge 8, Type (0, 0), BuildingBlock: TEMPAE_clean_linker_10, # of connection points: 2
#     Edge 9, Type (0, 0), BuildingBlock: TEMPAE_clean_linker_10, # of connection points: 2
#     Edge 10, Type (0, 0), BuildingBlock: TEMPAE_clean_linker_10, # of connection points: 2
#     Edge 11, Type (0, 0), BuildingBlock: TEMPAE_clean_linker_10, # of connection points: 2
#     Edge 12, Type (0, 0), BuildingBlock: TEMPAE_clean_linker_10, # of connection points: 2
#     Edge 13, Type (0, 0), BuildingBlock: TEMPAE_clean_linker_10, # of connection points: 2
#     Edge 14, Type (0, 0), BuildingBlock: TEMPAE_clean_linker_10, # of connection points: 2
#     Edge 15, Type (0, 0), BuildingBlock: TEMPAE_clean_linker_10, # of connection points: 2
# Relax obj value: 0.335
# Max RMSD: 0.279
# Mean RMSD: 0.277
data_MOF--net-lcy--node1-LEVNOQ01_clean_sbu_1--edge1-TEMPAE_clean_linker_10
_symmetry_space_group_name_H-M    P1
_symmetry_Int_Tables_number       1
_symmetry_cell_setting            triclinic
loop_
_symmetry_equiv_pos_as_xyz
'x, y, z'
_cell_length_a     26.703658
_cell_length_b     24.013603
_cell_length_c     26.879051
_cell_angle_alpha  89.852412
_cell_angle_beta   89.8472
_cell_angle_gamma 90.945999
loop_
_atom_site_label
_atom_site_type_symbol
_atom_site_fract_x
_atom_site_fract_y
_atom_site_fract_z
_atom_type_partial_charge
O0 O 0.44178 0.34346 0.47537 0.0
Mg1 Mg 0.40817 0.40891 0.43774 0.0
O2 O 0.41372 0.29704 0.41071 0.0
Mg3 Mg 0.3526 0.34562 0.36578 0.0
O4 O 0.33075 0.4071 0.43212 0.0
O5 O 0.3754 0.46335 0.48306 0.0
O6 O 0.29689 0.39238 0.31031 0.0
O7 O 0.28641 0.29254 0.39874 0.0
Mg8 Mg 0.30469 0.25975 0.28299 0.0
O9 O 0.37282 0.27896 0.30945 0.0
O10 O 0.27888 0.33164 0.24986 0.0
O11 O 0.26079 0.23059 0.3425 0.0
O12 O 0.36138 0.21504 0.25094 0.0
C13 C 0.44257 0.44193 0.33978 0.0
C14 C 0.44175 0.3001 0.44901 0.0
C15 C 0.33283 0.44364 0.46818 0.0
C16 C 0.277 0.3802 0.26803 0.0
C17 C 0.25625 0.25392 0.38456 0.0
C18 C 0.39122 0.24146 0.2806 0.0
O19 O 0.45106 0.45153 0.38503 0.0
O20 O 0.41033 0.40509 0.32722 0.0
O21 O 0.82243 0.97634 0.52185 0.0
Mg22 Mg 0.88783 0.01451 0.54653 0.0
O23 O 0.79394 0.06023 0.53443 0.0
Mg24 Mg 0.83893 0.10611 0.59636 0.0
O25 O 0.88857 0.03139 0.62047 0.0
O26 O 0.93279 0.96338 0.58439 0.0
O27 O 0.88294 0.15885 0.65425 0.0
O28 O 0.78677 0.06913 0.65378 0.0
Mg29 Mg 0.76661 0.1954 0.65267 0.0
O30 O 0.78425 0.17535 0.58068 0.0
O31 O 0.83302 0.22232 0.68724 0.0
O32 O 0.73008 0.12477 0.68587 0.0
O33 O 0.73291 0.24378 0.5984 0.0
C34 C 0.92797 0.12337 0.5103 0.0
C35 C 0.78975 0.01255 0.51414 0.0
C36 C 0.91753 -0.01147 0.62384 0.0
C37 C 0.87557 0.20018 0.68292 0.0
C38 C 0.74978 0.07717 0.68239 0.0
C39 C 0.75271 0.21183 0.56556 0.0
O40 O 0.92712 0.07151 0.50209 0.0
O41 O 0.89769 0.14467 0.54137 0.0
O42 O 0.21822 0.72501 0.85045 0.0
Mg43 Mg 0.17935 0.69958 0.78573 0.0
O44 O 0.18173 0.66553 0.90361 0.0
Mg45 Mg 0.11447 0.61882 0.867 0.0
O46 O 0.10839 0.68422 0.80775 0.0
O47 O 0.1249 0.74728 0.75021 0.0
O48 O 0.05379 0.56641 0.8251 0.0
O49 O 0.05427 0.6715 0.90857 0.0
Mg50 Mg 0.04678 0.54379 0.93931 0.0
O51 O 0.12207 0.55949 0.93564 0.0
O52 O 0.01803 0.50521 0.87636 0.0
O53 O 0.01196 0.61742 0.96185 0.0
O54 O 0.08749 0.49818 -0.01159 0.0
C55 C 0.19286 0.57368 0.77525 0.0
C56 C 0.21498 0.70263 0.89322 0.0
C57 C 0.0924 0.72175 0.77786 0.0
C58 C 0.02443 0.52495 0.83318 0.0
C59 C 0.02018 0.66446 0.94162 0.0
C60 C 0.12636 0.52648 0.97386 0.0
O61 O 0.1997 0.62207 0.75706 0.0
O62 O 0.16826 0.56502 0.81588 0.0
O63 O 0.73487 0.85248 0.18456 0.0
Mg64 Mg 0.70123 0.77786 0.15724 0.0
O65 O 0.67262 0.90183 0.15421 0.0
Mg66 Mg 0.6254 0.85918 0.09546 0.0
O67 O 0.68285 0.79193 0.08488 0.0
O68 O 0.73707 0.72754 0.10574 0.0
O69 O 0.5727 0.81556 0.03825 0.0
O70 O 0.67062 0.90435 0.03427 0.0
Mg71 Mg 0.56808 0.94943 0.03564 0.0
O72 O 0.57188 0.93169 0.1095 0.0
O73 O 0.53566 0.8827 -0.00408 0.0
O74 O 0.63662 -0.0165 0.01174 0.0
O75 O 0.52278 -0.00249 0.07832 0.0
C76 C 0.59123 0.7712 0.188 0.0
C77 C 0.71086 0.89754 0.18184 0.0
C78 C 0.71598 0.75644 0.07143 0.0
C79 C 0.54218 0.83144 0.00478 0.0
C80 C 0.67263 0.95005 0.01034 0.0
C81 C 0.54156 0.97259 0.11637 0.0
O82 O 0.6351 0.75292 0.19429 0.0
O83 O 0.58148 0.80825 0.15539 0.0
C84 C 0.20909 0.50271 0.01118 0.0
C85 C 0.16574 0.53456 0.01157 0.0
C86 C 0.23516 0.49243 0.05579 0.0
C87 C 0.21581 0.51236 0.10162 0.0
C88 C 0.17528 0.54949 0.10095 0.0
C89 C 0.1513 0.56078 0.05579 0.0
C90 C 0.27976 0.45481 0.05455 0.0
C91 C 0.15246 0.57079 0.14855 0.0
C92 C 0.2144 0.40487 0.20501 0.0
C93 C 0.25435 0.42234 0.23523 0.0
C94 C 0.20148 0.43429 0.16209 0.0
C95 C 0.22849 0.48356 0.14924 0.0
C96 C 0.26643 0.50398 0.1817 0.0
C97 C 0.27919 0.47282 0.22437 0.0
C98 C 0.1606 0.41063 0.12908 0.0
C99 C 0.29567 0.55663 0.1699 0.0
H100 H 0.22008 0.48201 0.97715 0.0
H101 H 0.11731 0.58496 0.05612 0.0
H102 H 0.30852 0.46878 0.08171 0.0
H103 H 0.26766 0.41188 0.0649 0.0
H104 H 0.29694 0.45358 0.01688 0.0
H105 H 0.12764 0.60667 0.14169 0.0
H106 H 0.12972 0.53693 0.16611 0.0
H107 H 0.18192 0.58349 0.17542 0.0
H108 H 0.19525 0.3657 0.21324 0.0
H109 H 0.31073 0.4859 0.24708 0.0
H110 H 0.17667 0.39885 0.09254 0.0
H111 H 0.13171 0.44235 0.1221 0.0
H112 H 0.14201 0.37314 0.14553 0.0
H113 H 0.32253 0.54832 0.13936 0.0
H114 H 0.31713 0.57201 0.20262 0.0
H115 H 0.27046 0.58993 0.15699 0.0
C116 C 0.76169 0.95304 0.24163 0.0
C117 C 0.71504 0.93616 0.22337 0.0
C118 C 0.76546 0.97678 0.28902 0.0
C119 C 0.72164 -0.01848 0.31859 0.0
C120 C 0.67419 0.96832 0.29864 0.0
C121 C 0.67148 0.94608 0.25093 0.0
C122 C 0.81672 -0.00873 0.30925 0.0
C123 C 0.62686 0.97167 0.32936 0.0
C124 C 0.74809 0.95118 0.45287 0.0
C125 C 0.75723 0.00498 0.47086 0.0
C126 C 0.73376 0.94295 0.40351 0.0
C127 C 0.72661 -0.0101 0.37251 0.0
C128 C 0.72965 0.04419 0.39226 0.0
C129 C 0.74626 0.05116 0.44106 0.0
C130 C 0.73131 0.88421 0.38341 0.0
C131 C 0.71991 0.09496 0.36074 0.0
H132 H 0.79519 0.94475 0.22018 0.0
H133 H 0.63546 0.93138 0.23721 0.0
H134 H 0.81645 0.03221 0.32825 0.0
H135 H 0.8275 0.95954 0.33718 0.0
H136 H 0.8457 -0.00736 0.27951 0.0
H137 H 0.59294 0.97263 0.30555 0.0
H138 H 0.62369 0.93446 0.35377 0.0
H139 H 0.62748 0.00897 0.35363 0.0
H140 H 0.75664 0.91551 0.47599 0.0
H141 H 0.75528 0.09271 0.45395 0.0
H142 H 0.76259 0.87814 0.35678 0.0
H143 H 0.69589 0.87681 0.36289 0.0
H144 H 0.73413 0.85241 0.41332 0.0
H145 H 0.75159 0.10193 0.33455 0.0
H146 H 0.71565 0.13299 0.38374 0.0
H147 H 0.68555 0.0887 0.33827 0.0
C148 C 0.16505 0.51404 0.7064 0.0
C149 C 0.20298 0.52805 0.74039 0.0
C150 C 0.17654 0.49274 0.6591 0.0
C151 C 0.22718 0.48401 0.64601 0.0
C152 C 0.26502 0.49227 0.68242 0.0
C153 C 0.25257 0.51532 0.72882 0.0
C154 C 0.13503 0.48584 0.62155 0.0
C155 C 0.31933 0.48135 0.6709 0.0
C156 C 0.26889 0.40966 0.52814 0.0
C157 C 0.28974 0.45424 0.50098 0.0
C158 C 0.24587 0.41857 0.57462 0.0
C159 C 0.24181 0.47358 0.59308 0.0
C160 C 0.25755 0.51902 0.5627 0.0
C161 C 0.28208 0.50872 0.51745 0.0
C162 C 0.22966 0.36888 0.60551 0.0
C163 C 0.2527 0.57851 0.5799 0.0
H164 H 0.12684 0.52571 0.71462 0.0
H165 H 0.28206 0.52746 0.75446 0.0
H166 H 0.13665 0.52131 0.595 0.0
H167 H 0.13948 0.44712 0.59975 0.0
H168 H 0.09751 0.48495 0.63954 0.0
H169 H 0.34257 0.48074 0.70511 0.0
H170 H 0.32315 0.44096 0.65137 0.0
H171 H 0.33432 0.51452 0.64591 0.0
H172 H 0.27552 0.36744 0.51578 0.0
H173 H 0.2988 0.54319 0.49679 0.0
H174 H 0.18818 0.36633 0.60689 0.0
H175 H 0.24333 0.37299 0.64431 0.0
H176 H 0.24369 0.32927 0.58996 0.0
H177 H 0.21504 0.58535 0.59608 0.0
H178 H 0.25902 0.60872 0.54903 0.0
H179 H 0.28076 0.58736 0.60933 0.0
C180 C 0.71126 0.91039 0.93604 0.0
C181 C 0.70716 0.95564 0.96852 0.0
C182 C 0.72488 0.91886 0.8864 0.0
C183 C 0.73464 0.97375 0.86973 0.0
C184 C 0.73715 0.01839 0.90404 0.0
C185 C 0.72297 0.00873 0.95337 0.0
C186 C 0.72269 0.8702 0.85098 0.0
C187 C 0.74921 0.07736 0.88766 0.0
C188 C 0.78445 0.01323 0.7441 0.0
C189 C 0.74185 0.03692 0.72267 0.0
C190 C 0.7822 -0.01104 0.7912 0.0
C191 C 0.73583 -0.01366 0.81618 0.0
C192 C 0.69159 0.0045 0.79241 0.0
C193 C 0.69531 0.03085 0.74598 0.0
C194 C 0.83018 0.97248 0.81661 0.0
C195 C 0.64124 0.00094 0.81802 0.0
H196 H 0.69815 0.8694 0.94767 0.0
H197 H 0.71973 0.04348 0.97882 0.0
H198 H 0.68655 0.8707 0.83069 0.0
H199 H 0.7532 0.87296 0.82297 0.0
H200 H 0.72526 0.82981 0.87102 0.0
H201 H 0.75784 0.10491 0.91977 0.0
H202 H 0.78153 0.07853 0.86168 0.0
H203 H 0.71654 0.09449 0.86768 0.0
H204 H 0.82074 0.01908 0.72656 0.0
H205 H 0.66255 0.04925 0.72926 0.0
H206 H 0.82643 0.92995 0.83246 0.0
H207 H 0.83796 0.00111 0.84808 0.0
H208 H 0.86289 0.97429 0.7911 0.0
H209 H 0.63544 0.95935 0.83539 0.0
H210 H 0.60997 0.00872 0.79185 0.0
H211 H 0.63985 0.03245 0.84811 0.0
C212 C 0.01712 0.1246 0.48679 0.0
C213 C 0.97317 0.15475 0.49417 0.0
C214 C 0.0627 0.15124 0.4769 0.0
C215 C 0.06457 0.20984 0.47233 0.0
C216 C 0.02072 0.24114 0.48044 0.0
C217 C 0.97533 0.21311 0.49206 0.0
C218 C 0.10869 0.1161 0.46976 0.0
C219 C 0.02156 0.30373 0.47561 0.0
C220 C 0.20033 0.25537 0.4605 0.0
C221 C 0.20716 0.24726 0.40934 0.0
C222 C 0.15237 0.24865 0.48199 0.0
C223 C 0.11082 0.23532 0.45114 0.0
C224 C 0.11721 0.23263 0.39907 0.0
C225 C 0.16518 0.23775 0.37904 0.0
C226 C 0.14643 0.25299 0.53766 0.0
C227 C 0.07407 0.21928 0.36452 0.0
H228 H 0.0164 0.07958 0.48998 0.0
H229 H 0.94168 0.23657 0.49886 0.0
H230 H 0.12099 0.11817 0.43033 0.0
H231 H 0.13998 0.13218 0.493 0.0
H232 H 0.10174 0.07167 0.47961 0.0
H233 H -0.01409 0.32232 0.48828 0.0
H234 H 0.05288 0.32191 0.49755 0.0
H235 H 0.028 0.31559 0.43616 0.0
H236 H 0.23246 0.26496 0.48371 0.0
H237 H 0.16968 0.2341 0.33908 0.0
H238 H 0.12953 0.21399 0.5529 0.0
H239 H 0.12067 0.28731 0.54669 0.0
H240 H 0.18272 0.26095 0.5566 0.0
H241 H 0.06447 0.17423 0.36726 0.0
H242 H 0.08346 0.22894 0.3251 0.0
H243 H 0.04033 0.24285 0.37505 0.0
C244 C 0.01417 0.73812 0.73353 0.0
C245 C 0.0409 0.74119 0.77799 0.0
C246 C 0.97801 0.77773 0.72235 0.0
C247 C 0.96896 0.8211 0.75681 0.0
C248 C -0.01068 0.81791 0.80523 0.0
C249 C 0.02628 0.77848 0.81498 0.0
C250 C 0.95672 0.77858 0.67034 0.0
C251 C 0.97745 0.86067 0.8443 0.0
C252 C 0.97817 0.95463 0.68444 0.0
C253 C 0.92823 0.96226 0.67159 0.0
C254 C -0.00846 0.91181 0.71687 0.0
C255 C 0.95368 0.87585 0.73673 0.0
C256 C 0.90267 0.88744 0.72806 0.0
C257 C 0.8905 0.93051 0.69498 0.0
C258 C 0.04662 0.9012 0.72485 0.0
C259 C 0.86134 0.85184 0.75052 0.0
H260 H 0.0259 0.70916 0.70502 0.0
H261 H 0.04712 0.78064 0.84953 0.0
H262 H 0.91684 0.79049 0.67056 0.0
H263 H 0.97773 0.80986 0.64767 0.0
H264 H 0.95983 0.73742 0.65188 0.0
H265 H -0.01629 0.84393 0.88231 0.0
H266 H 0.00227 0.89774 0.83916 0.0
H267 H 0.9381 0.87436 0.84122 0.0
H268 H 0.00711 0.97885 0.66545 0.0
H269 H 0.85186 0.93582 0.68389 0.0
H270 H 0.05684 0.86116 0.70726 0.0
H271 H 0.05493 0.89796 0.76512 0.0
H272 H 0.07089 0.93469 0.70872 0.0
H273 H 0.86289 0.80877 0.73595 0.0
H274 H 0.82365 0.86868 0.74271 0.0
H275 H 0.86644 0.84922 0.79133 0.0
C276 C 0.29898 0.66813 0.90747 0.0
C277 C 0.26106 0.70409 0.92235 0.0
C278 C 0.34857 0.67728 0.92221 0.0
C279 C 0.36 0.72273 0.95365 0.0
C280 C 0.32084 0.75583 0.97284 0.0
C281 C 0.27159 0.74688 0.95596 0.0
C282 C 0.38907 0.64167 0.90023 0.0
C283 C 0.33157 0.80322 0.0082 0.0
C284 C 0.48751 0.74681 0.01204 0.0
C285 C 0.5054 0.79186 -0.01657 0.0
C286 C 0.44128 0.72104 0.001 0.0
C287 C 0.41289 0.74086 0.9605 0.0
C288 C 0.43361 0.78193 0.9283 0.0
C289 C 0.47973 0.8069 0.94015 0.0
C290 C 0.42103 0.67644 0.03547 0.0
C291 C 0.40528 0.80289 0.88361 0.0
H292 H 0.29043 0.63547 0.88082 0.0
H293 H 0.24208 0.77482 0.96695 0.0
H294 H 0.41011 0.66616 0.87175 0.0
H295 H 0.41619 0.62912 0.92916 0.0
H296 H 0.37345 0.6036 0.88223 0.0
H297 H 0.29678 0.81943 0.0252 0.0
H298 H 0.35697 0.78953 0.03832 0.0
H299 H 0.35076 0.83776 -0.01214 0.0
H300 H 0.50719 0.73497 0.04558 0.0
H301 H 0.49387 0.84124 0.91757 0.0
H302 H 0.39863 0.64454 0.01523 0.0
H303 H 0.39608 0.69591 0.06328 0.0
H304 H 0.45179 0.65541 0.05542 0.0
H305 H 0.39046 0.7675 0.8613 0.0
H306 H 0.42905 0.82986 0.85921 0.0
H307 H 0.3728 0.82743 0.89629 0.0
C308 C 0.47325 0.22598 0.24383 0.0
C309 C 0.44204 0.22067 0.28534 0.0
C310 C 0.50536 0.18285 0.23077 0.0
C311 C 0.50655 0.13434 0.26101 0.0
C312 C 0.48326 0.13474 0.30828 0.0
C313 C 0.44973 0.17734 0.31931 0.0
C314 C 0.52968 0.18504 0.17999 0.0
C315 C 0.48738 0.08626 0.34367 0.0
C316 C 0.48387 0.01136 0.17761 0.0
C317 C 0.53276 -0.00312 0.16548 0.0
C318 C 0.47463 0.05294 0.21255 0.0
C319 C 0.51564 0.08022 0.23628 0.0
C320 C 0.56486 0.06122 0.2283 0.0
C321 C 0.57298 0.01974 0.1924 0.0
C322 C 0.42128 0.07179 0.21943 0.0
C323 C 0.60889 0.08776 0.25478 0.0
H324 H 0.4669 0.2595 0.21757 0.0
H325 H 0.42558 0.17337 0.3517 0.0
H326 H 0.56699 0.16568 0.18015 0.0
H327 H 0.5058 0.16162 0.15323 0.0
H328 H 0.53397 0.22856 0.16628 0.0
H329 H 0.48275 0.10015 0.38279 0.0
H330 H 0.45732 0.05517 0.3356 0.0
H331 H 0.52402 0.06555 0.33972 0.0
H332 H 0.45305 -0.00624 0.15628 0.0
H333 H 0.61091 0.00931 0.18198 0.0
H334 H 0.41767 0.11525 0.20592 0.0
H335 H 0.41089 0.07098 0.25936 0.0
H336 H 0.39393 0.04517 0.19892 0.0
H337 H 0.61254 0.13249 0.24501 0.0
H338 H 0.6447 0.06732 0.24555 0.0
H339 H 0.6026 0.08579 0.29552 0.0
C340 C 0.71454 0.25528 0.49236 0.0
C341 C 0.72674 0.20658 0.51787 0.0
C342 C 0.66969 0.2582 0.4656 0.0
C343 C 0.6369 0.21117 0.46484 0.0
C344 C 0.65396 0.15931 0.48223 0.0
C345 C 0.69847 0.15784 0.50972 0.0
C346 C 0.65394 0.31398 0.44553 0.0
C347 C 0.62174 0.10738 0.47835 0.0
C348 C 0.50667 0.25514 0.50073 0.0
C349 C 0.48451 0.26245 0.45417 0.0
C350 C 0.55535 0.23473 0.50471 0.0
C351 C 0.58222 0.2206 0.46094 0.0
C352 C 0.55838 0.22334 0.41416 0.0
C353 C 0.51 0.24511 0.41136 0.0
C354 C 0.57941 0.23286 0.55555 0.0
C355 C 0.58464 0.20602 0.36696 0.0
H356 H 0.73653 0.29296 0.49876 0.0
H357 H 0.70752 0.12021 0.52995 0.0
H358 H 0.63457 0.30924 0.40932 0.0
H359 H 0.62735 0.33313 0.47203 0.0
H360 H 0.68649 0.34291 0.4406 0.0
H361 H 0.64392 0.06919 0.48416 0.0
H362 H 0.59185 0.10834 0.50708 0.0
H363 H 0.60341 0.10516 0.44139 0.0
H364 H 0.48726 0.26918 0.53378 0.0
H365 H 0.4941 0.25349 0.37527 0.0
H366 H 0.61158 0.26269 0.5569 0.0
H367 H 0.594 0.19072 0.56309 0.0
H368 H 0.55285 0.24359 0.58579 0.0
H369 H 0.62382 0.22202 0.36574 0.0
H370 H 0.56488 0.22057 0.33313 0.0
H371 H 0.58612 0.15991 0.36578 0.0
C372 C 0.04788 0.45241 0.7751 0.0
C373 C 0.01078 0.48805 0.79234 0.0
C374 C 0.03504 0.40164 0.75273 0.0
C375 C -0.0161 0.38783 0.74569 0.0
C376 C 0.9465 0.42673 0.75825 0.0
C377 C 0.9604 0.476 0.7828 0.0
C378 C 0.07587 0.36057 0.74207 0.0
C379 C 0.89159 0.41448 0.74935 0.0
C380 C 0.94016 0.26962 0.66381 0.0
C381 C 0.91813 0.2341 0.69925 0.0
C382 C 0.96451 0.31894 0.67834 0.0
C383 C 0.96876 0.33112 0.7296 0.0
C384 C 0.95212 0.29156 0.76557 0.0
C385 C 0.92552 0.24399 0.74987 0.0
C386 C 0.97979 0.36078 0.63886 0.0
C387 C 0.95828 0.30174 0.82064 0.0
H388 H 0.08676 0.46133 0.78417 0.0
H389 H 0.93187 0.50328 0.79724 0.0
H390 H 0.07448 0.32717 0.77069 0.0
H391 H 0.07042 0.34043 0.70539 0.0
H392 H 0.11368 0.38059 0.74287 0.0
H393 H 0.86875 0.45258 0.75245 0.0
H394 H 0.88575 0.39601 0.71196 0.0
H395 H 0.87762 0.38388 0.7773 0.0
H396 H 0.93318 0.26217 0.6246 0.0
H397 H 0.90771 0.21666 0.77706 0.0
H398 H 0.017 0.37973 0.64697 0.0
H399 H 0.95231 0.39497 0.6384 0.0
H400 H 0.98088 0.3418 0.60122 0.0
H401 H -0.00443 0.32067 0.82872 0.0
H402 H 0.9539 0.26258 0.84244 0.0
H403 H 0.92939 0.33112 0.83352 0.0
C404 C 0.9623 0.71663 -0.00469 0.0
C405 C 0.98082 0.70588 0.9477 0.0
C406 C 0.91413 0.73773 0.00182 0.0
C407 C 0.88388 0.74806 0.9595 0.0
C408 C 0.90443 0.74255 0.9113 0.0
C409 C 0.95264 0.72085 0.90598 0.0
C410 C 0.89383 0.74309 0.05411 0.0
C411 C 0.87383 0.75431 0.86547 0.0
C412 C 0.7549 0.70842 0.00118 0.0
C413 C 0.74051 0.75865 0.02259 0.0
C414 C 0.79909 0.70556 0.9732 0.0
C415 C 0.82907 0.75437 0.96678 0.0
C416 C 0.80977 0.80661 -0.01941 0.0
C417 C 0.76558 0.80811 0.00894 0.0
C418 C 0.81746 0.64888 0.95816 0.0
C419 C 0.83947 0.85983 0.97238 0.0
H420 H -0.01617 0.70403 0.02747 0.0
H421 H 0.96594 0.70999 0.86925 0.0
H422 H 0.87626 0.78419 0.05928 0.0
H423 H 0.8645 0.71057 0.0607 0.0
H424 H 0.92344 0.73828 0.08268 0.0
H425 H 0.89693 0.75389 0.83106 0.0
H426 H 0.84354 0.72247 0.8617 0.0
H427 H 0.85567 0.79532 0.86881 0.0
H428 H 0.73533 0.67023 0.01179 0.0
H429 H 0.7549 0.84698 0.02603 0.0
H430 H 0.84498 0.63436 -0.01397 0.0
H431 H 0.83648 0.65049 0.9215 0.0
H432 H 0.78629 0.61772 0.95641 0.0
H433 H 0.86779 0.8645 0.00227 0.0
H434 H 0.81501 0.89677 0.97341 0.0
H435 H 0.85963 0.85914 0.93626 0.0
C436 C 0.55742 0.72277 0.26204 0.0
C437 C 0.55061 0.74034 0.21289 0.0
C438 C 0.53044 0.67695 0.28088 0.0
C439 C 0.49716 0.64753 0.24913 0.0
C440 C 0.48601 0.66911 0.20148 0.0
C441 C 0.51271 0.71596 0.18399 0.0
C442 C 0.54104 0.65715 0.33313 0.0
C443 C 0.4501 0.6401 0.16654 0.0
C444 C 0.49766 0.49374 0.2799 0.0
C445 C 0.45261 0.48824 0.30596 0.0
C446 C 0.51085 0.54488 0.25759 0.0
C447 C 0.47917 0.5913 0.26392 0.0
C448 C 0.43258 0.58466 0.28826 0.0
C449 C 0.41953 0.53276 0.30829 0.0
C450 C 0.55977 0.55013 0.22956 0.0
C451 C 0.39824 0.63313 0.29639 0.0
H452 H 0.58661 0.74215 0.28439 0.0
H453 H 0.50764 0.72954 0.14583 0.0
H454 H 0.50582 0.64441 0.35233 0.0
H455 H 0.56548 0.62027 0.33164 0.0
H456 H 0.56027 0.68984 0.35558 0.0
H457 H 0.42816 0.67136 0.14584 0.0
H458 H 0.4719 0.61587 0.13911 0.0
H459 H 0.42358 0.61118 0.18566 0.0
H460 H 0.52318 0.45911 0.27871 0.0
H461 H 0.38486 0.52797 0.32915 0.0
H462 H 0.58692 0.57531 0.25159 0.0
H463 H 0.55409 0.57204 0.19363 0.0
H464 H 0.57644 0.5089 0.22205 0.0
H465 H 0.41663 0.66374 0.32158 0.0
H466 H 0.36183 0.61994 0.3131 0.0
H467 H 0.39092 0.65475 0.26069 0.0
loop_
_geom_bond_atom_site_label_1
_geom_bond_atom_site_label_2
_geom_bond_distance
_geom_bond_site_symmetry_2
_ccdc_geom_bond_type
O0 Mg1 1.990 . S
O0 C14 1.253 . S
Mg1 O0 1.990 . S
Mg1 O4 2.180 . S
Mg1 O5 2.117 . S
Mg1 O19 2.030 . S
O2 Mg3 2.072 . S
O2 C14 1.260 . S
Mg3 O2 2.072 . S
Mg3 O4 2.099 . S
Mg3 O6 2.079 . S
Mg3 O7 2.072 . S
Mg3 O9 2.099 . S
Mg3 O20 2.079 . S
O4 Mg1 2.180 . S
O4 Mg3 2.099 . S
O4 C15 1.279 . S
O5 Mg1 2.117 . S
O5 C15 1.250 . S
O6 Mg3 2.079 . S
O6 C16 1.264 . S
O7 Mg3 2.072 . S
O7 C17 1.260 . S
Mg8 O9 2.180 . S
Mg8 O10 2.030 . S
Mg8 O11 1.990 . S
Mg8 O12 2.117 . S
O9 Mg3 2.099 . S
O9 Mg8 2.180 . S
O9 C18 1.279 . S
O10 Mg8 2.030 . S
O10 C16 1.248 . S
O11 Mg8 1.990 . S
O11 C17 1.253 . S
O12 Mg8 2.117 . S
O12 C18 1.250 . S
C13 O19 1.248 . S
C13 O20 1.264 . S
C14 O0 1.253 . S
C14 O2 1.260 . S
C15 O4 1.279 . S
C15 O5 1.250 . S
C16 O6 1.264 . S
C16 O10 1.248 . S
C17 O7 1.260 . S
C17 O11 1.253 . S
C18 O9 1.279 . S
C18 O12 1.250 . S
O19 Mg1 2.030 . S
O19 C13 1.248 . S
O20 Mg3 2.079 . S
O20 C13 1.264 . S
O21 Mg22 1.990 . S
O21 C35 1.253 . S
Mg22 O21 1.990 . S
Mg22 O25 2.180 . S
Mg22 O26 2.117 1_545 S
Mg22 O40 2.030 . S
O23 Mg24 2.072 . S
O23 C35 1.260 . S
Mg24 O23 2.072 . S
Mg24 O25 2.099 . S
Mg24 O27 2.079 . S
Mg24 O28 2.072 . S
Mg24 O30 2.099 . S
Mg24 O41 2.079 . S
O25 Mg22 2.180 . S
O25 Mg24 2.099 . S
O25 C36 1.279 . S
O26 Mg22 2.117 1_565 S
O26 C36 1.250 1_565 S
O27 Mg24 2.079 . S
O27 C37 1.264 . S
O28 Mg24 2.072 . S
O28 C38 1.260 . S
Mg29 O30 2.180 . S
Mg29 O31 2.030 . S
Mg29 O32 1.990 . S
Mg29 O33 2.117 . S
O30 Mg24 2.099 . S
O30 Mg29 2.180 . S
O30 C39 1.279 . S
O31 Mg29 2.030 . S
O31 C37 1.248 . S
O32 Mg29 1.990 . S
O32 C38 1.253 . S
O33 Mg29 2.117 . S
O33 C39 1.250 . S
C34 O40 1.248 . S
C34 O41 1.264 . S
C35 O21 1.253 . S
C35 O23 1.260 . S
C36 O25 1.279 . S
C36 O26 1.250 1_545 S
C37 O27 1.264 . S
C37 O31 1.248 . S
C38 O28 1.260 . S
C38 O32 1.253 . S
C39 O30 1.279 . S
C39 O33 1.250 . S
O40 Mg22 2.030 . S
O40 C34 1.248 . S
O41 Mg24 2.079 . S
O41 C34 1.264 . S
O42 Mg43 1.990 . S
O42 C56 1.253 . S
Mg43 O42 1.990 . S
Mg43 O46 2.180 . S
Mg43 O47 2.117 . S
Mg43 O61 2.030 . S
O44 Mg45 2.072 . S
O44 C56 1.260 . S
Mg45 O44 2.072 . S
Mg45 O46 2.099 . S
Mg45 O48 2.079 . S
Mg45 O49 2.072 . S
Mg45 O51 2.099 . S
Mg45 O62 2.079 . S
O46 Mg43 2.180 . S
O46 Mg45 2.099 . S
O46 C57 1.279 . S
O47 Mg43 2.117 . S
O47 C57 1.250 . S
O48 Mg45 2.079 . S
O48 C58 1.264 . S
O49 Mg45 2.072 . S
O49 C59 1.260 . S
Mg50 O51 2.180 . S
Mg50 O52 2.030 . S
Mg50 O53 1.990 . S
Mg50 O54 2.117 1_556 S
O51 Mg45 2.099 . S
O51 Mg50 2.180 . S
O51 C60 1.279 . S
O52 Mg50 2.030 . S
O52 C58 1.248 . S
O53 Mg50 1.990 . S
O53 C59 1.253 . S
O54 Mg50 2.117 1_554 S
O54 C60 1.250 1_554 S
C55 O61 1.248 . S
C55 O62 1.264 . S
C56 O42 1.253 . S
C56 O44 1.260 . S
C57 O46 1.279 . S
C57 O47 1.250 . S
C58 O48 1.264 . S
C58 O52 1.248 . S
C59 O49 1.260 . S
C59 O53 1.253 . S
C60 O51 1.279 . S
C60 O54 1.250 1_556 S
O61 Mg43 2.030 . S
O61 C55 1.248 . S
O62 Mg45 2.079 . S
O62 C55 1.264 . S
O63 Mg64 1.990 . S
O63 C77 1.253 . S
Mg64 O63 1.990 . S
Mg64 O67 2.180 . S
Mg64 O68 2.117 . S
Mg64 O82 2.030 . S
O65 Mg66 2.072 . S
O65 C77 1.260 . S
Mg66 O65 2.072 . S
Mg66 O67 2.099 . S
Mg66 O69 2.079 . S
Mg66 O70 2.072 . S
Mg66 O72 2.099 . S
Mg66 O83 2.079 . S
O67 Mg64 2.180 . S
O67 Mg66 2.099 . S
O67 C78 1.279 . S
O68 Mg64 2.117 . S
O68 C78 1.250 . S
O69 Mg66 2.079 . S
O69 C79 1.264 . S
O70 Mg66 2.072 . S
O70 C80 1.260 . S
Mg71 O72 2.180 . S
Mg71 O73 2.030 . S
Mg71 O74 1.990 . S
Mg71 O75 2.117 1_565 S
O72 Mg66 2.099 . S
O72 Mg71 2.180 . S
O72 C81 1.279 . S
O73 Mg71 2.030 . S
O73 C79 1.248 . S
O74 Mg71 1.990 . S
O74 C80 1.253 . S
O75 Mg71 2.117 1_545 S
O75 C81 1.250 1_545 S
C76 O82 1.248 . S
C76 O83 1.264 . S
C77 O63 1.253 . S
C77 O65 1.260 . S
C78 O67 1.279 . S
C78 O68 1.250 . S
C79 O69 1.264 . S
C79 O73 1.248 . S
C80 O70 1.260 . S
C80 O74 1.253 . S
C81 O72 1.279 . S
C81 O75 1.250 1_565 S
O82 Mg64 2.030 . S
O82 C76 1.248 . S
O83 Mg66 2.079 . S
O83 C76 1.264 . S
C84 C85 1.391 . S
C84 C86 1.394 . S
C84 H100 0.931 1_554 S
C85 C84 1.391 . S
C85 C89 1.376 . S
C86 C84 1.394 . S
C86 C87 1.369 . S
C86 C90 1.531 . S
C87 C86 1.369 . S
C87 C88 1.410 . S
C87 C95 1.503 . S
C88 C87 1.410 . S
C88 C89 1.392 . S
C88 C91 1.511 . S
C89 C85 1.376 . S
C89 C88 1.392 . S
C89 H101 0.929 . S
C90 C86 1.531 . S
C90 H102 0.960 . S
C90 H103 0.962 . S
C90 H104 0.960 . S
C91 C88 1.511 . S
C91 H105 0.961 . S
C91 H106 0.961 . S
C91 H107 0.961 . S
C92 C93 1.370 . S
C92 C94 1.363 . S
C92 H108 0.931 . S
C93 C92 1.370 . S
C93 C97 1.408 . S
C94 C92 1.363 . S
C94 C95 1.370 . S
C94 C98 1.524 . S
C95 C87 1.503 . S
C95 C94 1.370 . S
C95 C96 1.403 . S
C96 C95 1.403 . S
C96 C97 1.404 . S
C96 C99 1.539 . S
C97 C93 1.408 . S
C97 C96 1.404 . S
C97 H109 0.930 . S
C98 C94 1.524 . S
C98 H110 0.956 . S
C98 H111 0.961 . S
C98 H112 0.961 . S
C99 C96 1.539 . S
C99 H113 0.958 . S
C99 H114 0.961 . S
C99 H115 0.960 . S
H100 C84 0.931 1_556 S
H101 C89 0.929 . S
H102 C90 0.960 . S
H103 C90 0.962 . S
H104 C90 0.960 . S
H105 C91 0.961 . S
H106 C91 0.961 . S
H107 C91 0.961 . S
H108 C92 0.931 . S
H109 C97 0.930 . S
H110 C98 0.956 . S
H111 C98 0.961 . S
H112 C98 0.961 . S
H113 C99 0.958 . S
H114 C99 0.961 . S
H115 C99 0.960 . S
C116 C117 1.391 . S
C116 C118 1.394 . S
C116 H132 0.931 . S
C117 C116 1.391 . S
C117 C121 1.376 . S
C118 C116 1.394 . S
C118 C119 1.369 . S
C118 C122 1.531 1_565 S
C119 C118 1.369 . S
C119 C120 1.410 . S
C119 C127 1.503 1_565 S
C120 C119 1.410 . S
C120 C121 1.392 . S
C120 C123 1.511 . S
C121 C117 1.376 . S
C121 C120 1.392 . S
C121 H133 0.929 . S
C122 C118 1.531 1_545 S
C122 H134 0.960 . S
C122 H135 0.962 1_545 S
C122 H136 0.960 . S
C123 C120 1.511 . S
C123 H137 0.961 . S
C123 H138 0.961 . S
C123 H139 0.961 . S
C124 C125 1.370 1_565 S
C124 C126 1.363 . S
C124 H140 0.931 . S
C125 C124 1.370 1_545 S
C125 C129 1.408 . S
C126 C124 1.363 . S
C126 C127 1.370 1_565 S
C126 C130 1.524 . S
C127 C119 1.503 1_545 S
C127 C126 1.370 1_545 S
C127 C128 1.403 . S
C128 C127 1.403 . S
C128 C129 1.404 . S
C128 C131 1.539 . S
C129 C125 1.408 . S
C129 C128 1.404 . S
C129 H141 0.930 . S
C130 C126 1.524 . S
C130 H142 0.956 . S
C130 H143 0.961 . S
C130 H144 0.961 . S
C131 C128 1.539 . S
C131 H145 0.958 . S
C131 H146 0.961 . S
C131 H147 0.960 . S
H132 C116 0.931 . S
H133 C121 0.929 . S
H134 C122 0.960 . S
H135 C122 0.962 1_565 S
H136 C122 0.960 . S
H137 C123 0.961 . S
H138 C123 0.961 . S
H139 C123 0.961 . S
H140 C124 0.931 . S
H141 C129 0.930 . S
H142 C130 0.956 . S
H143 C130 0.961 . S
H144 C130 0.961 . S
H145 C131 0.958 . S
H146 C131 0.961 . S
H147 C131 0.960 . S
C148 C149 1.391 . S
C148 C150 1.394 . S
C148 H164 0.931 . S
C149 C148 1.391 . S
C149 C153 1.376 . S
C150 C148 1.394 . S
C150 C151 1.369 . S
C150 C154 1.531 . S
C151 C150 1.369 . S
C151 C152 1.410 . S
C151 C159 1.503 . S
C152 C151 1.410 . S
C152 C153 1.392 . S
C152 C155 1.511 . S
C153 C149 1.376 . S
C153 C152 1.392 . S
C153 H165 0.929 . S
C154 C150 1.531 . S
C154 H166 0.960 . S
C154 H167 0.962 . S
C154 H168 0.960 . S
C155 C152 1.511 . S
C155 H169 0.961 . S
C155 H170 0.961 . S
C155 H171 0.961 . S
C156 C157 1.370 . S
C156 C158 1.363 . S
C156 H172 0.931 . S
C157 C156 1.370 . S
C157 C161 1.408 . S
C158 C156 1.363 . S
C158 C159 1.370 . S
C158 C162 1.524 . S
C159 C151 1.503 . S
C159 C158 1.370 . S
C159 C160 1.403 . S
C160 C159 1.403 . S
C160 C161 1.404 . S
C160 C163 1.539 . S
C161 C157 1.408 . S
C161 C160 1.404 . S
C161 H173 0.930 . S
C162 C158 1.524 . S
C162 H174 0.956 . S
C162 H175 0.961 . S
C162 H176 0.961 . S
C163 C160 1.539 . S
C163 H177 0.958 . S
C163 H178 0.961 . S
C163 H179 0.960 . S
H164 C148 0.931 . S
H165 C153 0.929 . S
H166 C154 0.960 . S
H167 C154 0.962 . S
H168 C154 0.960 . S
H169 C155 0.961 . S
H170 C155 0.961 . S
H171 C155 0.961 . S
H172 C156 0.931 . S
H173 C161 0.930 . S
H174 C162 0.956 . S
H175 C162 0.961 . S
H176 C162 0.961 . S
H177 C163 0.958 . S
H178 C163 0.961 . S
H179 C163 0.960 . S
C180 C181 1.391 . S
C180 C182 1.394 . S
C180 H196 0.931 . S
C181 C180 1.391 . S
C181 C185 1.376 1_565 S
C182 C180 1.394 . S
C182 C183 1.369 1_565 S
C182 C186 1.531 . S
C183 C182 1.369 1_545 S
C183 C184 1.410 . S
C183 C191 1.503 . S
C184 C183 1.410 . S
C184 C185 1.392 . S
C184 C187 1.511 . S
C185 C181 1.376 1_545 S
C185 C184 1.392 . S
C185 H197 0.929 1_556 S
C186 C182 1.531 . S
C186 H198 0.960 . S
C186 H199 0.962 . S
C186 H200 0.960 . S
C187 C184 1.511 . S
C187 H201 0.961 . S
C187 H202 0.961 . S
C187 H203 0.961 . S
C188 C189 1.370 . S
C188 C190 1.363 . S
C188 H204 0.931 . S
C189 C188 1.370 . S
C189 C193 1.408 . S
C190 C188 1.363 . S
C190 C191 1.370 . S
C190 C194 1.524 1_545 S
C191 C183 1.503 . S
C191 C190 1.370 . S
C191 C192 1.403 . S
C192 C191 1.403 . S
C192 C193 1.404 . S
C192 C195 1.539 . S
C193 C189 1.408 . S
C193 C192 1.404 . S
C193 H205 0.930 . S
C194 C190 1.524 1_565 S
C194 H206 0.956 . S
C194 H207 0.959 1_565 S
C194 H208 0.961 . S
C195 C192 1.539 . S
C195 H209 0.958 . S
C195 H210 0.961 . S
C195 H211 0.960 . S
H196 C180 0.931 . S
H197 C185 0.929 1_554 S
H198 C186 0.960 . S
H199 C186 0.962 . S
H200 C186 0.960 . S
H201 C187 0.961 . S
H202 C187 0.961 . S
H203 C187 0.961 . S
H204 C188 0.931 . S
H205 C193 0.930 . S
H206 C194 0.956 . S
H207 C194 0.959 1_545 S
H208 C194 0.961 . S
H209 C195 0.958 . S
H210 C195 0.961 . S
H211 C195 0.960 . S
C212 C213 1.391 1_455 S
C212 C214 1.394 . S
C212 H228 0.931 . S
C213 C212 1.391 1_655 S
C213 C217 1.376 . S
C214 C212 1.394 . S
C214 C215 1.369 . S
C214 C218 1.531 . S
C215 C214 1.369 . S
C215 C216 1.410 . S
C215 C223 1.503 . S
C216 C215 1.410 . S
C216 C217 1.392 1_455 S
C216 C219 1.511 . S
C217 C213 1.376 . S
C217 C216 1.392 1_655 S
C217 H229 0.929 . S
C218 C214 1.531 . S
C218 H230 0.960 . S
C218 H231 0.962 . S
C218 H232 0.960 . S
C219 C216 1.511 . S
C219 H233 0.961 . S
C219 H234 0.961 . S
C219 H235 0.961 . S
C220 C221 1.370 . S
C220 C222 1.363 . S
C220 H236 0.931 . S
C221 C220 1.370 . S
C221 C225 1.408 . S
C222 C220 1.363 . S
C222 C223 1.370 . S
C222 C226 1.524 . S
C223 C215 1.503 . S
C223 C222 1.370 . S
C223 C224 1.403 . S
C224 C223 1.403 . S
C224 C225 1.404 . S
C224 C227 1.539 . S
C225 C221 1.408 . S
C225 C224 1.404 . S
C225 H237 0.930 . S
C226 C222 1.524 . S
C226 H238 0.956 . S
C226 H239 0.961 . S
C226 H240 0.961 . S
C227 C224 1.539 . S
C227 H241 0.958 . S
C227 H242 0.961 . S
C227 H243 0.960 . S
H228 C212 0.931 . S
H229 C217 0.929 . S
H230 C218 0.960 . S
H231 C218 0.962 . S
H232 C218 0.960 . S
H233 C219 0.961 . S
H234 C219 0.961 . S
H235 C219 0.961 . S
H236 C220 0.931 . S
H237 C225 0.930 . S
H238 C226 0.956 . S
H239 C226 0.961 . S
H240 C226 0.961 . S
H241 C227 0.958 . S
H242 C227 0.961 . S
H243 C227 0.960 . S
C244 C245 1.391 . S
C244 C246 1.394 1_455 S
C244 H260 0.931 . S
C245 C244 1.391 . S
C245 C249 1.376 . S
C246 C244 1.394 1_655 S
C246 C247 1.369 . S
C246 C250 1.531 . S
C247 C246 1.369 . S
C247 C248 1.410 1_655 S
C247 C255 1.503 . S
C248 C247 1.410 1_455 S
C248 C249 1.392 . S
C248 C251 1.511 . S
C249 C245 1.376 . S
C249 C248 1.392 . S
C249 H261 0.929 . S
C250 C246 1.531 . S
C250 H262 0.960 . S
C250 H263 0.962 . S
C250 H264 0.960 . S
C251 C248 1.511 . S
C251 H265 0.961 . S
C251 H266 0.961 . S
C251 H267 0.961 1_455 S
C252 C253 1.375 . S
C252 C254 1.363 1_655 S
C252 H268 0.931 1_665 S
C253 C252 1.375 . S
C253 C257 1.417 . S
C254 C252 1.363 1_455 S
C254 C255 1.370 1_455 S
C254 C258 1.524 . S
C255 C247 1.503 . S
C255 C254 1.370 1_655 S
C255 C256 1.403 . S
C256 C255 1.403 . S
C256 C257 1.404 . S
C256 C259 1.539 . S
C257 C253 1.417 . S
C257 C256 1.404 . S
C257 H269 0.930 . S
C258 C254 1.524 . S
C258 H270 0.956 . S
C258 H271 0.961 . S
C258 H272 0.961 . S
C259 C256 1.539 . S
C259 H273 0.958 . S
C259 H274 0.961 . S
C259 H275 0.960 . S
H260 C244 0.931 . S
H261 C249 0.929 . S
H262 C250 0.960 . S
H263 C250 0.962 . S
H264 C250 0.960 . S
H265 C251 0.961 . S
H266 C251 0.961 . S
H267 C251 0.961 1_655 S
H268 C252 0.931 1_445 S
H269 C257 0.930 . S
H270 C258 0.956 . S
H271 C258 0.961 . S
H272 C258 0.961 . S
H273 C259 0.958 . S
H274 C259 0.961 . S
H275 C259 0.960 . S
C276 C277 1.391 . S
C276 C278 1.394 . S
C276 H292 0.931 . S
C277 C276 1.391 . S
C277 C281 1.376 . S
C278 C276 1.394 . S
C278 C279 1.369 . S
C278 C282 1.531 . S
C279 C278 1.369 . S
C279 C280 1.410 . S
C279 C287 1.503 . S
C280 C279 1.410 . S
C280 C281 1.392 . S
C280 C283 1.511 1_556 S
C281 C277 1.376 . S
C281 C280 1.392 . S
C281 H293 0.929 . S
C282 C278 1.531 . S
C282 H294 0.960 . S
C282 H295 0.962 . S
C282 H296 0.960 . S
C283 C280 1.511 1_554 S
C283 H297 0.961 . S
C283 H298 0.961 . S
C283 H299 0.961 . S
C284 C285 1.370 1_554 S
C284 C286 1.363 . S
C284 H300 0.931 . S
C285 C284 1.370 1_556 S
C285 C289 1.408 . S
C286 C284 1.363 . S
C286 C287 1.370 1_554 S
C286 C290 1.524 . S
C287 C279 1.503 . S
C287 C286 1.370 1_556 S
C287 C288 1.403 . S
C288 C287 1.403 . S
C288 C289 1.404 . S
C288 C291 1.539 . S
C289 C285 1.408 . S
C289 C288 1.404 . S
C289 H301 0.930 . S
C290 C286 1.524 . S
C290 H302 0.956 1_554 S
C290 H303 0.961 . S
C290 H304 0.961 . S
C291 C288 1.539 . S
C291 H305 0.958 . S
C291 H306 0.961 . S
C291 H307 0.960 . S
H292 C276 0.931 . S
H293 C281 0.929 . S
H294 C282 0.960 . S
H295 C282 0.962 . S
H296 C282 0.960 . S
H297 C283 0.961 . S
H298 C283 0.961 . S
H299 C283 0.961 . S
H300 C284 0.931 . S
H301 C289 0.930 . S
H302 C290 0.956 1_556 S
H303 C290 0.961 . S
H304 C290 0.961 . S
H305 C291 0.958 . S
H306 C291 0.961 . S
H307 C291 0.960 . S
C308 C309 1.391 . S
C308 C310 1.394 . S
C308 H324 0.931 . S
C309 C308 1.391 . S
C309 C313 1.376 . S
C310 C308 1.394 . S
C310 C311 1.369 . S
C310 C314 1.531 . S
C311 C310 1.369 . S
C311 C312 1.410 . S
C311 C319 1.503 . S
C312 C311 1.410 . S
C312 C313 1.392 . S
C312 C315 1.511 . S
C313 C309 1.376 . S
C313 C312 1.392 . S
C313 H325 0.929 . S
C314 C310 1.531 . S
C314 H326 0.960 . S
C314 H327 0.962 . S
C314 H328 0.960 . S
C315 C312 1.511 . S
C315 H329 0.961 . S
C315 H330 0.961 . S
C315 H331 0.961 . S
C316 C317 1.372 . S
C316 C318 1.363 . S
C316 H332 0.931 . S
C317 C316 1.372 . S
C317 C321 1.410 . S
C318 C316 1.363 . S
C318 C319 1.370 . S
C318 C322 1.524 . S
C319 C311 1.503 . S
C319 C318 1.370 . S
C319 C320 1.403 . S
C320 C319 1.403 . S
C320 C321 1.404 . S
C320 C323 1.539 . S
C321 C317 1.410 . S
C321 C320 1.404 . S
C321 H333 0.930 . S
C322 C318 1.524 . S
C322 H334 0.956 . S
C322 H335 0.961 . S
C322 H336 0.961 . S
C323 C320 1.539 . S
C323 H337 0.958 . S
C323 H338 0.961 . S
C323 H339 0.960 . S
H324 C308 0.931 . S
H325 C313 0.929 . S
H326 C314 0.960 . S
H327 C314 0.962 . S
H328 C314 0.960 . S
H329 C315 0.961 . S
H330 C315 0.961 . S
H331 C315 0.961 . S
H332 C316 0.931 . S
H333 C321 0.930 . S
H334 C322 0.956 . S
H335 C322 0.961 . S
H336 C322 0.961 . S
H337 C323 0.958 . S
H338 C323 0.961 . S
H339 C323 0.960 . S
C340 C341 1.391 . S
C340 C342 1.394 . S
C340 H356 0.931 . S
C341 C340 1.391 . S
C341 C345 1.376 . S
C342 C340 1.394 . S
C342 C343 1.369 . S
C342 C346 1.531 . S
C343 C342 1.369 . S
C343 C344 1.410 . S
C343 C351 1.503 . S
C344 C343 1.410 . S
C344 C345 1.392 . S
C344 C347 1.511 . S
C345 C341 1.376 . S
C345 C344 1.392 . S
C345 H357 0.929 . S
C346 C342 1.531 . S
C346 H358 0.960 . S
C346 H359 0.962 . S
C346 H360 0.960 . S
C347 C344 1.511 . S
C347 H361 0.961 . S
C347 H362 0.961 . S
C347 H363 0.961 . S
C348 C349 1.370 . S
C348 C350 1.363 . S
C348 H364 0.931 . S
C349 C348 1.370 . S
C349 C353 1.408 . S
C350 C348 1.363 . S
C350 C351 1.370 . S
C350 C354 1.524 . S
C351 C343 1.503 . S
C351 C350 1.370 . S
C351 C352 1.403 . S
C352 C351 1.403 . S
C352 C353 1.404 . S
C352 C355 1.539 . S
C353 C349 1.408 . S
C353 C352 1.404 . S
C353 H365 0.930 . S
C354 C350 1.524 . S
C354 H366 0.956 . S
C354 H367 0.961 . S
C354 H368 0.961 . S
C355 C352 1.539 . S
C355 H369 0.958 . S
C355 H370 0.961 . S
C355 H371 0.960 . S
H356 C340 0.931 . S
H357 C345 0.929 . S
H358 C346 0.960 . S
H359 C346 0.962 . S
H360 C346 0.960 . S
H361 C347 0.961 . S
H362 C347 0.961 . S
H363 C347 0.961 . S
H364 C348 0.931 . S
H365 C353 0.930 . S
H366 C354 0.956 . S
H367 C354 0.961 . S
H368 C354 0.961 . S
H369 C355 0.958 . S
H370 C355 0.961 . S
H371 C355 0.960 . S
C372 C373 1.391 1_455 S
C372 C374 1.394 . S
C372 H388 0.931 . S
C373 C372 1.391 1_655 S
C373 C377 1.376 . S
C374 C372 1.394 . S
C374 C375 1.369 1_455 S
C374 C378 1.531 . S
C375 C374 1.369 1_655 S
C375 C376 1.410 . S
C375 C383 1.503 . S
C376 C375 1.410 . S
C376 C377 1.392 . S
C376 C379 1.511 . S
C377 C373 1.376 . S
C377 C376 1.392 . S
C377 H389 0.929 . S
C378 C374 1.531 . S
C378 H390 0.960 . S
C378 H391 0.962 . S
C378 H392 0.960 . S
C379 C376 1.511 . S
C379 H393 0.961 . S
C379 H394 0.961 . S
C379 H395 0.961 . S
C380 C381 1.370 . S
C380 C382 1.363 . S
C380 H396 0.931 . S
C381 C380 1.370 . S
C381 C385 1.408 . S
C382 C380 1.363 . S
C382 C383 1.370 . S
C382 C386 1.524 . S
C383 C375 1.503 . S
C383 C382 1.370 . S
C383 C384 1.403 . S
C384 C383 1.403 . S
C384 C385 1.404 . S
C384 C387 1.539 . S
C385 C381 1.408 . S
C385 C384 1.404 . S
C385 H397 0.930 . S
C386 C382 1.524 . S
C386 H398 0.956 . S
C386 H399 0.961 . S
C386 H400 0.961 . S
C387 C384 1.539 . S
C387 H401 0.958 . S
C387 H402 0.961 . S
C387 H403 0.960 . S
H388 C372 0.931 . S
H389 C377 0.929 . S
H390 C378 0.960 . S
H391 C378 0.962 . S
H392 C378 0.960 . S
H393 C379 0.961 . S
H394 C379 0.961 . S
H395 C379 0.961 . S
H396 C380 0.931 . S
H397 C385 0.930 . S
H398 C386 0.956 . S
H399 C386 0.961 . S
H400 C386 0.961 . S
H401 C387 0.958 . S
H402 C387 0.961 . S
H403 C387 0.960 . S
C404 C405 1.391 1_554 S
C404 C406 1.394 . S
C404 H420 0.931 . S
C405 C404 1.391 1_556 S
C405 C409 1.376 . S
C406 C404 1.394 . S
C406 C407 1.369 . S
C406 C410 1.531 . S
C407 C406 1.369 . S
C407 C408 1.410 1_554 S
C407 C415 1.503 . S
C408 C407 1.410 1_556 S
C408 C409 1.392 . S
C408 C411 1.511 . S
C409 C405 1.376 . S
C409 C408 1.392 . S
C409 H421 0.929 . S
C410 C406 1.531 . S
C410 H422 0.960 . S
C410 H423 0.962 . S
C410 H424 0.960 . S
C411 C408 1.511 . S
C411 H425 0.961 . S
C411 H426 0.961 . S
C411 H427 0.961 . S
C412 C413 1.370 . S
C412 C414 1.363 . S
C412 H428 0.931 . S
C413 C412 1.370 . S
C413 C417 1.408 . S
C414 C412 1.363 . S
C414 C415 1.370 . S
C414 C418 1.524 1_554 S
C415 C407 1.503 . S
C415 C414 1.370 . S
C415 C416 1.403 . S
C416 C415 1.403 . S
C416 C417 1.404 . S
C416 C419 1.539 . S
C417 C413 1.408 . S
C417 C416 1.404 . S
C417 H429 0.930 . S
C418 C414 1.524 1_556 S
C418 H430 0.956 1_556 S
C418 H431 0.961 . S
C418 H432 0.961 . S
C419 C416 1.539 . S
C419 H433 0.958 . S
C419 H434 0.961 . S
C419 H435 0.960 . S
H420 C404 0.931 . S
H421 C409 0.929 . S
H422 C410 0.960 . S
H423 C410 0.962 . S
H424 C410 0.960 . S
H425 C411 0.961 . S
H426 C411 0.961 . S
H427 C411 0.961 . S
H428 C412 0.931 . S
H429 C417 0.930 . S
H430 C418 0.956 1_554 S
H431 C418 0.961 . S
H432 C418 0.961 . S
H433 C419 0.958 . S
H434 C419 0.961 . S
H435 C419 0.960 . S
C436 C437 1.391 . S
C436 C438 1.394 . S
C436 H452 0.931 . S
C437 C436 1.391 . S
C437 C441 1.376 . S
C438 C436 1.394 . S
C438 C439 1.369 . S
C438 C442 1.531 . S
C439 C438 1.369 . S
C439 C440 1.410 . S
C439 C447 1.503 . S
C440 C439 1.410 . S
C440 C441 1.392 . S
C440 C443 1.511 . S
C441 C437 1.376 . S
C441 C440 1.392 . S
C441 H453 0.929 . S
C442 C438 1.531 . S
C442 H454 0.960 . S
C442 H455 0.962 . S
C442 H456 0.960 . S
C443 C440 1.511 . S
C443 H457 0.961 . S
C443 H458 0.961 . S
C443 H459 0.961 . S
C444 C445 1.370 . S
C444 C446 1.363 . S
C444 H460 0.931 . S
C445 C444 1.370 . S
C445 C449 1.408 . S
C446 C444 1.363 . S
C446 C447 1.370 . S
C446 C450 1.524 . S
C447 C439 1.503 . S
C447 C446 1.370 . S
C447 C448 1.403 . S
C448 C447 1.403 . S
C448 C449 1.404 . S
C448 C451 1.539 . S
C449 C445 1.408 . S
C449 C448 1.404 . S
C449 H461 0.930 . S
C450 C446 1.524 . S
C450 H462 0.956 . S
C450 H463 0.961 . S
C450 H464 0.961 . S
C451 C448 1.539 . S
C451 H465 0.958 . S
C451 H466 0.961 . S
C451 H467 0.960 . S
H452 C436 0.931 . S
H453 C441 0.929 . S
H454 C442 0.960 . S
H455 C442 0.962 . S
H456 C442 0.960 . S
H457 C443 0.961 . S
H458 C443 0.961 . S
H459 C443 0.961 . S
H460 C444 0.931 . S
H461 C449 0.930 . S
H462 C450 0.956 . S
H463 C450 0.961 . S
H464 C450 0.961 . S
H465 C451 0.958 . S
H466 C451 0.961 . S
H467 C451 0.960 . S
C85 C60 1.442 1_554 S
C93 C16 1.598 . S
C117 C77 1.315 . S
C125 C35 1.291 . S
C149 C55 1.555 . S
C157 C15 1.425 . S
C181 C80 1.249 1_556 S
C189 C38 1.284 . S
C213 C34 1.655 . S
C221 C17 1.733 . S
C245 C57 1.276 . S
C253 C36 1.219 1_565 S
C277 C56 1.723 . S
C285 C79 1.636 1_556 S
C309 C18 1.263 . S
C317 C81 1.232 1_545 S
C341 C39 1.132 . S
C349 C14 1.248 . S
C373 C58 0.888 1_655 S
C381 C37 0.952 . S
C405 C59 1.257 1_655 S
C413 C78 1.058 . S
C437 C76 1.002 . S
C445 C13 0.918 . S
