# Generated by pormake.
# Topology qtz-x, (6)-cn, num edge types: 1
# Building blocks:
#     Node 0, Type 0, BuildingBlock: BETGAK_clean_sbu_0, # of connection points: 6
#     Node 1, Type 0, BuildingBlock: BETGAK_clean_sbu_0, # of connection points: 6
#     Node 2, Type 0, BuildingBlock: BETGAK_clean_sbu_0, # of connection points: 6
#     Edge 3, Type (0, 0), BuildingBlock: TEMPAE_clean_linker_10, # of connection points: 2
#     Edge 4, Type (0, 0), BuildingBlock: TEMPAE_clean_linker_10, # of connection points: 2
#     Edge 5, Type (0, 0), BuildingBlock: TEMPAE_clean_linker_10, # of connection points: 2
#     Edge 6, Type (0, 0), BuildingBlock: TEMPAE_clean_linker_10, # of connection points: 2
#     Edge 7, Type (0, 0), BuildingBlock: TEMPAE_clean_linker_10, # of connection points: 2
#     Edge 8, Type (0, 0), BuildingBlock: TEMPAE_clean_linker_10, # of connection points: 2
#     Edge 9, Type (0, 0), BuildingBlock: TEMPAE_clean_linker_10, # of connection points: 2
#     Edge 10, Type (0, 0), BuildingBlock: TEMPAE_clean_linker_10, # of connection points: 2
#     Edge 11, Type (0, 0), BuildingBlock: TEMPAE_clean_linker_10, # of connection points: 2
# Relax obj value: 0.239
# Max RMSD: 0.265
# Mean RMSD: 0.241
data_MOF--net-qtz-x--node1-BETGAK_clean_sbu_0--edge1-TEMPAE_clean_linker_10
_symmetry_space_group_name_H-M    P1
_symmetry_Int_Tables_number       1
_symmetry_cell_setting            triclinic
loop_
_symmetry_equiv_pos_as_xyz
'x, y, z'
_cell_length_a     15.205665
_cell_length_b     15.164125
_cell_length_c     53.906475
_cell_angle_alpha  69.905356
_cell_angle_beta   113.41473
_cell_angle_gamma 121.27635
loop_
_atom_site_label
_atom_site_type_symbol
_atom_site_fract_x
_atom_site_fract_y
_atom_site_fract_z
_atom_type_partial_charge
La0 La 1.02179 0.64055 0.19234 0.0
La1 La 0.22745 0.76157 0.18292 0.0
C2 C 0.87439 0.50493 0.21534 0.0
C3 C 0.86455 0.47193 0.24414 0.0
C4 C 0.79674 0.49205 0.25079 0.0
C5 C 0.78491 0.4595 0.27756 0.0
C6 C 0.84002 0.40496 0.29861 0.0
C7 C 0.90823 0.38524 0.29188 0.0
C8 C 0.9203 0.41811 0.26515 0.0
C9 C 0.07869 0.846 0.18162 0.0
C10 C 0.23285 0.71246 0.24311 0.0
C11 C 0.37742 0.89109 0.16097 0.0
C12 C 0.38963 0.90188 0.13389 0.0
C13 C 0.4255 0.8394 0.13031 0.0
C14 C 0.4287 0.8435 0.10436 0.0
C15 C 0.39667 0.9105 0.08132 0.0
C16 C 0.36319 0.97485 0.08495 0.0
C17 C 0.35973 0.97061 0.11093 0.0
C18 C 0.16655 0.5539 0.19301 0.0
C19 C 1.02298 0.70169 0.13107 0.0
O20 O 0.8821 0.59799 0.20244 0.0
O21 O 0.93923 0.48449 0.21055 0.0
O22 O 0.98408 0.77389 0.17246 0.0
O23 O 0.13892 0.80165 0.19658 0.0
O24 O 0.13264 0.64373 0.23425 0.0
O25 O 0.28699 0.78155 0.22537 0.0
O26 O 0.37854 0.80776 0.17903 0.0
O27 O 0.30228 0.91061 0.16035 0.0
O28 O 0.26232 0.62562 0.20109 0.0
O29 O 0.10895 0.6009 0.17836 0.0
O30 O 0.12293 0.76692 0.14106 0.0
O31 O 0.96467 0.63051 0.14812 0.0
H32 H 0.75241 0.53308 0.23521 0.0
H33 H 0.73298 0.47815 0.28174 0.0
H34 H 0.95118 0.34241 0.30715 0.0
H35 H 0.97305 0.4005 0.26097 0.0
H36 H 0.44982 0.78603 0.14749 0.0
H37 H 0.45688 0.79437 0.10237 0.0
H38 H 0.33763 0.027 0.0676 0.0
H39 H 0.33175 0.01988 0.11294 0.0
La40 La 0.8646 0.18072 0.55577 0.0
La41 La 0.74824 0.95819 0.54771 0.0
C42 C 0.93954 0.35044 0.57161 0.0
C43 C 0.96521 0.37872 0.59807 0.0
C44 C 1.02979 0.34385 0.62207 0.0
C45 C 0.05446 0.37181 0.64694 0.0
C46 C 1.01433 0.43435 0.64845 0.0
C47 C 0.94939 0.46893 0.62445 0.0
C48 C 0.92533 0.44155 0.59946 0.0
C49 C 0.98313 0.1142 0.54847 0.0
C50 C 0.82303 -0.00644 0.60842 0.0
C51 C 0.70784 0.80258 0.53066 0.0
C52 C 0.64696 0.77451 0.50293 0.0
C53 C 0.56112 0.79925 0.48707 0.0
C54 C 0.51386 0.78735 0.45946 0.0
C55 C 0.55193 0.75156 0.44684 0.0
C56 C 0.63672 0.72499 0.46299 0.0
C57 C 0.68365 0.73646 0.49068 0.0
C58 C 0.60048 0.01535 0.54328 0.0
C59 C 0.77242 0.14645 0.49541 0.0
O60 O 0.99819 0.31317 0.5705 0.0
O61 O 0.83806 0.29807 0.55969 0.0
O62 O 0.9835 0.20498 0.53801 0.0
O63 O 0.91606 0.06207 0.56288 0.0
O64 O 0.85458 0.09476 0.59772 0.0
O65 O 0.7853 0.92291 0.5929 0.0
O66 O 0.6543 0.79741 0.54555 0.0
O67 O 0.79715 0.88903 0.53127 0.0
O68 O 0.58115 0.92492 0.54058 0.0
O69 O 0.70115 0.07019 0.54763 0.0
O70 O 0.75395 0.04773 0.50597 0.0
O71 O 0.80351 0.21307 0.51123 0.0
H72 H 0.06123 0.29462 0.62172 0.0
H73 H 0.10391 0.3432 0.66507 0.0
H74 H 0.91831 0.51827 0.62491 0.0
H75 H 0.87566 0.46952 0.5812 0.0
H76 H 0.53233 0.8307 0.49577 0.0
H77 H 0.44791 0.80722 0.44794 0.0
H78 H 0.66956 0.69874 0.45402 0.0
H79 H 0.75121 0.71904 0.50228 0.0
La80 La 0.798 0.85509 0.86044 0.0
La81 La 0.93999 0.7599 0.87715 0.0
C82 C 0.6483 0.89428 0.85531 0.0
C83 C 0.59821 0.88922 0.87453 0.0
C84 C 0.56283 0.96432 0.86955 0.0
C85 C 0.52609 0.96769 0.8891 0.0
C86 C 0.52491 0.89643 0.91398 0.0
C87 C 0.55642 0.81874 0.91844 0.0
C88 C 0.59251 0.81496 0.89887 0.0
C89 C 0.99908 -0.00527 0.86129 0.0
C90 C 0.89996 0.78927 0.92489 0.0
C91 C 0.08402 0.71219 0.88281 0.0
C92 C 0.10377 0.67323 0.86491 0.0
C93 C 1.02679 0.5795 0.85494 0.0
C94 C 1.04037 0.54996 0.83542 0.0
C95 C 0.13062 0.61383 0.82529 0.0
C96 C 0.21006 0.70504 0.83619 0.0
C97 C 0.19695 0.7342 0.85596 0.0
C98 C 0.73771 0.62199 0.87586 0.0
C99 C 0.8423 0.82765 0.8122 0.0
O100 O 0.74772 0.96452 0.85773 0.0
O101 O 0.63333 0.80499 0.85233 0.0
O102 O 0.91509 0.00395 0.84383 0.0
O103 O 0.96913 0.91194 0.87885 0.0
O104 O 0.81902 0.80457 0.9056 0.0
O105 O 0.97199 0.78661 0.91774 0.0
O106 O 0.99997 0.6487 0.89204 0.0
O107 O 0.09291 0.80743 0.87429 0.0
O108 O 0.82055 0.61352 0.89415 0.0
O109 O 0.76961 0.70378 0.85832 0.0
O110 O 0.91298 0.79721 0.83187 0.0
O111 O 0.77884 0.84658 0.81864 0.0
H112 H 0.56685 0.02245 0.85091 0.0
H113 H 0.50333 0.02881 0.88535 0.0
H114 H 0.55495 0.76204 0.93733 0.0
H115 H 0.61851 0.75568 0.90312 0.0
H116 H 0.95397 0.53072 0.8614 0.0
H117 H 0.97734 0.47987 0.82718 0.0
H118 H 0.28086 0.75517 0.82887 0.0
H119 H 0.25773 0.80642 0.8635 0.0
C120 C 0.18374 0.01531 0.20151 0.0
C121 C 0.09696 0.95325 0.18245 0.0
C122 C 0.19519 0.1125 0.20326 0.0
C123 C 0.11905 0.15068 0.18532 0.0
C124 C 1.03264 0.08895 0.16572 0.0
C125 C 1.02244 -0.0082 0.16467 0.0
C126 C 0.28823 0.17374 0.2247 0.0
C127 C 0.95002 0.12535 0.14578 0.0
C128 C 0.08661 0.35511 0.20427 0.0
C129 C 0.14735 0.45016 0.18955 0.0
C130 C 0.0776 0.2581 0.20331 0.0
C131 C 0.12927 0.2545 0.18692 0.0
C132 C 0.18929 0.3506 0.17169 0.0
C133 C 0.19858 0.44651 0.17345 0.0
C134 C 1.01399 0.15929 0.22028 0.0
C135 C 0.24432 0.35233 0.15349 0.0
H136 H 0.24168 -0.01314 0.21551 0.0
H137 H 0.95504 0.94534 0.14979 0.0
H138 H 0.33727 0.25282 0.21473 0.0
H139 H 0.25824 0.18475 0.23858 0.0
H140 H 0.34031 0.13412 0.23723 0.0
H141 H 0.88936 0.07052 0.13123 0.0
H142 H 0.90836 0.13319 0.15717 0.0
H143 H 0.98958 0.20384 0.13383 0.0
H144 H 0.04825 0.35689 0.21715 0.0
H145 H 0.24661 0.51938 0.1622 0.0
H146 H 0.06578 0.12137 0.2347 0.0
H147 H 0.94758 0.1028 0.20676 0.0
H148 H 0.97994 0.17458 0.23228 0.0
H149 H 0.30416 0.32189 0.16599 0.0
H150 H 0.2854 0.43239 0.14235 0.0
H151 H 0.1851 0.30021 0.13823 0.0
C152 C 0.40656 0.97319 0.53225 0.0
C153 C 0.51485 0.0382 0.5437 0.0
C154 C 0.32131 -0.01618 0.53359 0.0
C155 C 0.34233 0.06051 0.54729 0.0
C156 C 0.45177 0.12685 0.55896 0.0
C157 C 0.53618 0.11559 0.55688 0.0
C158 C 0.2079 0.91247 0.52012 0.0
C159 C 0.47979 0.20907 0.57408 0.0
C160 C 0.12446 0.15218 0.52773 0.0
C161 C 0.07023 0.09292 0.54829 0.0
C162 C 0.21181 0.14266 0.52728 0.0
C163 C 0.2498 0.07311 0.54824 0.0
C164 C 0.19529 0.01256 0.56914 0.0
C165 C 0.10629 0.0224 0.56881 0.0
C166 C 0.26328 0.2073 0.50406 0.0
C167 C 0.23199 0.93793 0.59215 0.0
H168 H 0.38793 0.91279 0.52204 0.0
H169 H 0.61867 0.16554 0.56621 0.0
H170 H 0.1621 0.86584 0.53564 0.0
H171 H 0.16748 0.95981 0.50456 0.0
H172 H 0.20415 0.85772 0.50992 0.0
H173 H 0.56751 0.25273 0.58266 0.0
H174 H 0.4484 0.26572 0.56005 0.0
H175 H 0.44128 0.1717 0.59111 0.0
H176 H 0.0982 0.20701 0.51167 0.0
H177 H 0.06675 0.97677 0.58502 0.0
H178 H 0.25895 0.15505 0.49295 0.0
H179 H 0.34914 0.25863 0.51234 0.0
H180 H 0.22441 0.25709 0.48914 0.0
H181 H 0.22479 0.87655 0.58372 0.0
H182 H 0.18493 0.89928 0.60742 0.0
H183 H 0.31769 -0.01932 0.6028 0.0
C184 C 0.196 0.07958 0.86494 0.0
C185 C 0.10778 0.08586 0.8653 0.0
C186 C 0.29646 0.16847 0.86586 0.0
C187 C 0.3109 0.26609 0.86815 0.0
C188 C 0.22211 0.27208 0.86906 0.0
C189 C 0.12163 0.1828 0.86709 0.0
C190 C 0.38676 0.15799 0.86392 0.0
C191 C 0.23368 0.37239 0.87263 0.0
C192 C 0.59972 0.46231 0.89706 0.0
C193 C 0.62605 0.53587 0.87359 0.0
C194 C 0.49732 0.37647 0.89569 0.0
C195 C 0.41894 0.36097 0.87002 0.0
C196 C 0.44506 0.43543 0.84619 0.0
C197 C 0.54736 0.52268 0.84833 0.0
C198 C 0.47331 0.30191 0.92181 0.0
C199 C 0.36563 0.42205 0.81828 0.0
H200 H 0.18567 0.00609 0.86287 0.0
H201 H 0.05364 0.18855 0.86721 0.0
H202 H 0.42552 0.22242 0.84843 0.0
H203 H 0.4484 0.16389 0.88398 0.0
H204 H 0.35888 0.08193 0.85827 0.0
H205 H 0.15651 0.36587 0.87191 0.0
H206 H 0.29165 0.39308 0.89267 0.0
H207 H 0.26612 0.43798 0.85646 0.0
H208 H 0.65966 0.47207 0.91672 0.0
H209 H 0.56689 0.57872 0.83007 0.0
H210 H 0.45991 0.2235 0.92112 0.0
H211 H 0.39887 0.29232 0.92385 0.0
H212 H 0.53931 0.32924 0.94036 0.0
H213 H 0.33223 0.3414 0.81465 0.0
H214 H 0.40227 0.47887 0.80156 0.0
H215 H 0.29799 0.43367 0.81726 0.0
C216 C 0.4033 0.91176 0.93139 0.0
C217 C 0.49862 0.90719 0.93616 0.0
C218 C 0.37708 0.91721 0.95294 0.0
C219 C 0.44882 0.91966 0.97967 0.0
C220 C 0.54688 0.91905 0.9842 0.0
C221 C 0.57025 0.91251 0.96243 0.0
C222 C 0.27178 0.91766 0.94727 0.0
C223 C 0.62645 0.92304 1.01223 0.0
C224 C 0.44157 0.00894 0.0364 0.0
C225 C 0.3993 0.9132 0.05373 0.0
C226 C 0.45306 0.01231 1.0114 0.0
C227 C 0.4207 0.91764 1.00347 0.0
C228 C 0.3729 0.82068 1.02021 0.0
C229 C 0.36338 0.81968 0.04517 0.0
C230 C 0.50531 0.11733 0.99427 0.0
C231 C 0.3357 0.71792 1.01229 0.0
H232 H 0.34818 0.90832 0.91098 0.0
H233 H 0.64524 0.91203 0.9659 0.0
H234 H 0.22203 0.84741 0.95968 0.0
H235 H 0.2855 -0.01268 0.95348 0.0
H236 H 0.22626 0.91814 0.92524 0.0
H237 H 0.7025 0.93059 1.01178 0.0
H238 H 0.64483 -0.00989 1.02052 0.0
H239 H 0.59154 0.85048 1.02665 0.0
H240 H 0.47006 0.08158 0.04293 0.0
H241 H 0.32856 0.74533 0.05817 0.0
H242 H 0.45753 0.11852 0.97248 0.0
H243 H 0.58541 0.13104 0.99504 0.0
H244 H 0.51509 0.18282 1.00161 0.0
H245 H 0.28128 0.71428 0.99117 0.0
H246 H 0.29337 0.64932 1.02652 0.0
H247 H 0.40542 0.71183 1.01234 0.0
C248 C 0.79858 0.29023 0.45347 0.0
C249 C 0.7692 0.18411 0.46549 0.0
C250 C 0.80593 0.32729 0.42609 0.0
C251 C 0.78433 0.25716 0.41015 0.0
C252 C 0.75214 0.14954 0.42196 0.0
C253 C 0.74451 0.11452 0.44924 0.0
C254 C 0.83901 0.44227 0.41437 0.0
C255 C 0.72797 0.0713 0.406 0.0
C256 C 0.72646 0.33356 0.33157 0.0
C257 C 0.82589 0.3682 0.32727 0.0
C258 C 0.71204 0.29838 0.35822 0.0
C259 C 0.79869 0.2966 0.38152 0.0
C260 C 0.89913 0.33129 0.3774 0.0
C261 C 0.91148 0.36661 0.35055 0.0
C262 C 0.60345 0.26229 0.36141 0.0
C263 C 0.99389 0.33041 0.40143 0.0
H264 H 0.81801 0.34509 0.46562 0.0
H265 H 0.72149 0.03228 0.45804 0.0
H266 H 0.91649 0.47788 0.40959 0.0
H267 H 0.77918 0.45228 0.39484 0.0
H268 H 0.84762 0.48582 0.42873 0.0
H269 H 0.70789 -0.0088 0.41839 0.0
H270 H 0.65977 0.06803 0.38751 0.0
H271 H 0.79786 0.09622 0.39882 0.0
H272 H 0.65873 0.3321 0.31401 0.0
H273 H 0.98912 0.39392 0.34788 0.0
H274 H 0.61059 0.3056 0.37558 0.0
H275 H 0.5704 0.17789 0.37061 0.0
H276 H 0.54575 0.27378 0.3415 0.0
H277 H 1.01177 0.37923 0.41571 0.0
H278 H 0.06677 0.3603 0.39493 0.0
H279 H 0.97476 0.24938 0.41305 0.0
C280 C 0.91102 0.83525 0.77503 0.0
C281 C 0.83578 0.84216 0.78235 0.0
C282 C 0.90924 0.8537 0.74721 0.0
C283 C 0.82934 0.87859 0.72565 0.0
C284 C 0.75163 0.88309 0.7329 0.0
C285 C 0.75614 0.86565 0.76089 0.0
C286 C 0.99436 0.84806 0.74096 0.0
C287 C 0.664 0.90791 0.71099 0.0
C288 C 0.88341 0.03766 0.65567 0.0
C289 C 0.82863 0.96115 0.63877 0.0
C290 C 0.88548 0.01162 0.68369 0.0
C291 C 0.83054 0.90593 0.69575 0.0
C292 C 0.77583 0.82787 0.67896 0.0
C293 C 0.77599 0.85608 0.65092 0.0
C294 C 0.94645 0.09802 0.70047 0.0
C295 C 0.71521 0.71433 0.69052 0.0
H296 H 0.97309 0.81709 0.79114 0.0
H297 H 0.69703 0.87101 0.76594 0.0
H298 H 0.957 0.78337 0.72944 0.0
H299 H 1.03582 0.92181 0.72777 0.0
H300 H 0.05483 0.83467 0.75987 0.0
H301 H 0.60544 0.90171 0.71966 0.0
H302 H 0.69932 -0.01134 0.69952 0.0
H303 H 0.62075 0.85381 0.696 0.0
H304 H 0.92494 0.11909 0.64695 0.0
H305 H 0.73273 0.79578 0.63837 0.0
H306 H 1.00749 0.08139 0.71857 0.0
H307 H 0.89123 0.10167 0.70827 0.0
H308 H 0.98705 0.1759 0.68845 0.0
H309 H 0.77038 0.68712 0.70809 0.0
H310 H 0.67566 0.66286 0.67498 0.0
H311 H 0.65337 0.70545 0.69843 0.0
C312 C 0.83867 0.78254 0.9634 0.0
C313 C 0.90837 0.77158 0.95491 0.0
C314 C 0.8456 0.76505 0.99154 0.0
C315 C 0.92455 0.73607 1.01212 0.0
C316 C 0.99384 0.72315 1.00364 0.0
C317 C 0.98521 0.74115 0.97539 0.0
C318 C 0.77028 0.78164 0.99902 0.0
C319 C 0.07818 0.69094 1.02452 0.0
C320 C 1.03549 0.80548 0.08394 0.0
C321 C 0.98423 0.70974 0.10032 0.0
C322 C 1.01442 0.81532 0.05544 0.0
C323 C 0.9406 0.72703 0.04239 0.0
C324 C 0.88588 0.63054 0.05857 0.0
C325 C 0.9078 0.6231 0.08724 0.0
C326 C 0.07382 0.92031 0.03939 0.0
C327 C 0.80616 0.53439 0.04565 0.0
H328 H 0.77895 0.80606 0.94804 0.0
H329 H 1.039 0.73099 0.96939 0.0
H330 H 0.75054 0.72935 1.01826 0.0
H331 H 0.80893 0.86387 1.00209 0.0
H332 H 0.69461 0.76808 0.98239 0.0
H333 H 0.12284 0.67972 1.01476 0.0
H334 H 0.13575 0.75149 0.03765 0.0
H335 H 1.04065 0.61676 0.03817 0.0
H336 H 0.09452 0.87347 0.09359 0.0
H337 H 0.86842 0.54852 0.09954 0.0
H338 H 1.01645 0.94315 1.0214 0.0
H339 H 0.12775 0.91493 1.03149 0.0
H340 H 0.12265 -0.01684 0.05204 0.0
H341 H 0.743 0.55094 1.02837 0.0
H342 H 0.76781 0.46608 0.06058 0.0
H343 H 0.84673 0.51338 0.03702 0.0
C344 C 0.39145 0.77353 0.28373 0.0
C345 C 0.28097 0.71583 0.27306 0.0
C346 C 0.43711 0.77876 0.31194 0.0
C347 C 0.37065 0.7266 0.32995 0.0
C348 C 0.25894 0.66868 0.31924 0.0
C349 C 0.21577 0.66309 0.29107 0.0
C350 C 0.55667 0.84011 0.32248 0.0
C351 C 0.18457 0.61303 0.33748 0.0
C352 C 0.49235 0.66286 0.40705 0.0
C353 C 0.50537 0.74484 0.41685 0.0
C354 C 0.44952 0.6564 0.37891 0.0
C355 C 0.4178 0.73322 0.35992 0.0
C356 C 0.43071 0.81618 0.36963 0.0
C357 C 0.4745 0.82117 0.39783 0.0
C358 C 0.43824 0.56719 0.3695 0.0
C359 C 0.39783 0.89971 0.35021 0.0
H360 H 0.4426 0.81426 0.27004 0.0
H361 H 0.13023 0.61877 0.28308 0.0
H362 H 0.5751 0.90458 0.33183 0.0
H363 H 0.59027 0.78852 0.33879 0.0
H364 H 0.5976 0.87426 0.30599 0.0
H365 H 0.09909 0.57959 0.32558 0.0
H366 H 0.20153 0.54851 0.35248 0.0
H367 H 0.19783 0.66785 0.34937 0.0
H368 H 0.51448 0.60265 0.42145 0.0
H369 H 0.48586 0.88608 0.40491 0.0
H370 H 0.4813 0.59846 0.35361 0.0
H371 H 0.35275 0.51879 0.35995 0.0
H372 H 0.47003 0.51589 0.38664 0.0
H373 H 0.44265 0.94087 0.33445 0.0
H374 H 0.41244 0.95867 0.36099 0.0
H375 H 0.31153 0.86303 0.33927 0.0
C376 C 0.10731 0.48785 0.80033 0.0
C377 C 0.13513 0.5905 0.80143 0.0
C378 C 0.09688 0.46246 0.77631 0.0
C379 C 0.11234 0.5413 0.75269 0.0
C380 C 0.1444 0.64584 0.75403 0.0
C381 C 0.1563 0.66931 0.77848 0.0
C382 C 0.06474 0.35045 0.77589 0.0
C383 C 0.16092 0.73196 0.72924 0.0
C384 C 0.14369 0.49248 0.69284 0.0
C385 C 1.03983 0.46264 0.67508 0.0
C386 C 0.16857 0.51801 0.71824 0.0
C387 C 0.0876 0.51337 0.72606 0.0
C388 C 0.98268 0.48358 0.7082 0.0
C389 C 0.96004 0.45844 0.68294 0.0
C390 C 0.28116 0.54899 0.73678 0.0
C391 C 0.89426 0.47819 0.7158 0.0
H392 H 0.09122 0.42686 0.81809 0.0
H393 H 0.17682 0.74853 0.77919 0.0
H394 H 0.98217 0.31565 0.76246 0.0
H395 H 0.11809 0.34742 0.76725 0.0
H396 H 0.06749 0.30148 0.79671 0.0
H397 H 0.19336 0.81032 0.73425 0.0
H398 H 0.21649 0.73389 0.72035 0.0
H399 H 0.08352 0.71626 0.71319 0.0
H400 H 0.20597 0.49692 0.68676 0.0
H401 H 0.87933 0.434 0.66947 0.0
H402 H 0.28075 0.48886 0.75565 0.0
H403 H 0.3123 0.62447 0.74316 0.0
H404 H 0.3367 0.55654 0.7268 0.0
H405 H 0.88257 0.42182 0.73519 0.0
H406 H 0.81706 0.45371 0.69959 0.0
H407 H 0.91662 0.55592 0.7194 0.0
loop_
_geom_bond_atom_site_label_1
_geom_bond_atom_site_label_2
_geom_bond_distance
_geom_bond_site_symmetry_2
_ccdc_geom_bond_type
La0 C2 2.928 . S
La0 O20 2.521 . S
La0 O21 2.628 . S
La0 O22 2.554 . S
La0 O23 2.757 1_655 S
La0 O24 2.470 1_655 S
La0 O29 2.482 . S
La0 O31 2.503 . S
La1 C11 2.928 . S
La1 O23 2.482 . S
La1 O25 2.503 . S
La1 O26 2.521 . S
La1 O27 2.628 . S
La1 O28 2.554 . S
La1 O29 2.757 1_455 S
La1 O30 2.470 1_455 S
C2 La0 2.928 . S
C2 C3 1.503 . S
C2 O20 1.261 . S
C2 O21 1.243 . S
C3 C2 1.503 . S
C3 C4 1.394 . S
C3 C8 1.373 . S
C4 C3 1.394 . S
C4 C5 1.380 . S
C4 H32 0.930 . S
C5 C4 1.380 . S
C5 C6 1.376 . S
C5 H33 0.930 . S
C6 C5 1.376 . S
C6 C7 1.370 . S
C7 C6 1.370 . S
C7 C8 1.396 . S
C7 H34 0.929 . S
C8 C3 1.373 . S
C8 C7 1.396 . S
C8 H35 0.929 . S
C9 O22 1.240 . S
C9 O23 1.289 1_655 S
C10 O24 1.258 . S
C10 O25 1.256 . S
C11 La1 2.928 . S
C11 C12 1.503 . S
C11 O26 1.261 . S
C11 O27 1.243 . S
C12 C11 1.503 . S
C12 C13 1.394 . S
C12 C17 1.373 . S
C13 C12 1.394 . S
C13 C14 1.380 . S
C13 H36 0.930 . S
C14 C13 1.380 . S
C14 C15 1.376 . S
C14 H37 0.930 . S
C15 C14 1.376 . S
C15 C16 1.370 1_565 S
C16 C15 1.370 1_545 S
C16 C17 1.396 1_545 S
C16 H38 0.929 . S
C17 C12 1.373 . S
C17 C16 1.396 1_565 S
C17 H39 0.929 1_565 S
C18 O28 1.240 . S
C18 O29 1.289 1_455 S
C19 O30 1.258 . S
C19 O31 1.256 . S
O20 La0 2.521 . S
O20 C2 1.261 . S
O21 La0 2.628 . S
O21 C2 1.243 . S
O22 La0 2.554 . S
O22 C9 1.240 . S
O23 La0 2.757 1_455 S
O23 La1 2.482 . S
O23 C9 1.289 1_455 S
O24 La0 2.470 1_455 S
O24 C10 1.258 . S
O25 La1 2.503 . S
O25 C10 1.256 . S
O26 La1 2.521 . S
O26 C11 1.261 . S
O27 La1 2.628 . S
O27 C11 1.243 . S
O28 La1 2.554 . S
O28 C18 1.240 . S
O29 La0 2.482 . S
O29 La1 2.757 1_655 S
O29 C18 1.289 1_655 S
O30 La1 2.470 1_655 S
O30 C19 1.258 . S
O31 La0 2.503 . S
O31 C19 1.256 . S
H32 C4 0.930 . S
H33 C5 0.930 . S
H34 C7 0.929 . S
H35 C8 0.929 . S
H36 C13 0.930 . S
H37 C14 0.930 . S
H38 C16 0.929 . S
H39 C17 0.929 1_545 S
La40 C42 2.928 . S
La40 O60 2.521 . S
La40 O61 2.628 . S
La40 O62 2.554 . S
La40 O63 2.757 1_545 S
La40 O64 2.472 . S
La40 O69 2.482 . S
La40 O71 2.503 . S
La41 C51 2.928 . S
La41 O63 2.482 . S
La41 O65 2.503 . S
La41 O66 2.521 . S
La41 O67 2.628 . S
La41 O68 2.554 . S
La41 O69 2.757 1_565 S
La41 O70 2.470 1_565 S
C42 La40 2.928 . S
C42 C43 1.503 . S
C42 O60 1.261 . S
C42 O61 1.243 . S
C43 C42 1.503 . S
C43 C44 1.394 1_655 S
C43 C48 1.373 . S
C44 C43 1.394 1_455 S
C44 C45 1.380 . S
C44 H72 0.930 . S
C45 C44 1.380 . S
C45 C46 1.376 1_455 S
C45 H73 0.930 . S
C46 C45 1.376 1_655 S
C46 C47 1.370 . S
C47 C46 1.370 . S
C47 C48 1.396 . S
C47 H74 0.929 . S
C48 C43 1.373 . S
C48 C47 1.396 . S
C48 H75 0.929 . S
C49 O62 1.240 . S
C49 O63 1.289 1_545 S
C50 O64 1.256 1_565 S
C50 O65 1.256 . S
C51 La41 2.928 . S
C51 C52 1.503 . S
C51 O66 1.261 . S
C51 O67 1.243 . S
C52 C51 1.503 . S
C52 C53 1.394 . S
C52 C57 1.373 . S
C53 C52 1.394 . S
C53 C54 1.380 . S
C53 H76 0.930 . S
C54 C53 1.380 . S
C54 C55 1.376 . S
C54 H77 0.930 . S
C55 C54 1.376 . S
C55 C56 1.370 . S
C56 C55 1.370 . S
C56 C57 1.396 . S
C56 H78 0.929 . S
C57 C52 1.373 . S
C57 C56 1.396 . S
C57 H79 0.929 . S
C58 O68 1.240 . S
C58 O69 1.289 1_565 S
C59 O70 1.258 . S
C59 O71 1.256 . S
O60 La40 2.521 . S
O60 C42 1.261 . S
O61 La40 2.628 . S
O61 C42 1.243 . S
O62 La40 2.554 . S
O62 C49 1.240 . S
O63 La40 2.757 1_565 S
O63 La41 2.482 . S
O63 C49 1.289 1_565 S
O64 La40 2.472 . S
O64 C50 1.256 1_545 S
O65 La41 2.503 . S
O65 C50 1.256 . S
O66 La41 2.521 . S
O66 C51 1.261 . S
O67 La41 2.628 . S
O67 C51 1.243 . S
O68 La41 2.554 . S
O68 C58 1.240 . S
O69 La40 2.482 . S
O69 La41 2.757 1_545 S
O69 C58 1.289 1_545 S
O70 La41 2.470 1_545 S
O70 C59 1.258 . S
O71 La40 2.503 . S
O71 C59 1.256 . S
H72 C44 0.930 . S
H73 C45 0.930 . S
H74 C47 0.929 . S
H75 C48 0.929 . S
H76 C53 0.930 . S
H77 C54 0.930 . S
H78 C56 0.929 . S
H79 C57 0.929 . S
La80 C82 2.928 . S
La80 O100 2.521 . S
La80 O101 2.628 1_545 S
La80 O102 2.554 1_655 S
La80 O103 2.757 1_655 S
La80 O104 2.470 1_545 S
La80 O109 2.482 1_545 S
La80 O111 2.503 . S
La81 C91 2.928 1_655 S
La81 O103 2.482 1_665 S
La81 O105 2.503 . S
La81 O106 2.521 . S
La81 O107 2.628 1_655 S
La81 O108 2.554 . S
La81 O109 2.757 . S
La81 O110 2.470 . S
C82 La80 2.928 . S
C82 C83 1.503 . S
C82 O100 1.261 . S
C82 O101 1.243 1_545 S
C83 C82 1.503 . S
C83 C84 1.394 . S
C83 C88 1.373 1_545 S
C84 C83 1.394 . S
C84 C85 1.380 . S
C84 H112 0.930 . S
C85 C84 1.380 . S
C85 C86 1.376 . S
C85 H113 0.930 . S
C86 C85 1.376 . S
C86 C87 1.370 . S
C87 C86 1.370 . S
C87 C88 1.396 1_545 S
C87 H114 0.929 1_545 S
C88 C83 1.373 1_565 S
C88 C87 1.396 1_565 S
C88 H115 0.929 . S
C89 O102 1.240 . S
C89 O103 1.289 . S
C90 O104 1.258 . S
C90 O105 1.256 . S
C91 La81 2.928 1_455 S
C91 C92 1.503 . S
C91 O106 1.261 1_455 S
C91 O107 1.243 . S
C92 C91 1.503 . S
C92 C93 1.394 . S
C92 C97 1.373 . S
C93 C92 1.394 . S
C93 C94 1.380 . S
C93 H116 0.930 1_455 S
C94 C93 1.380 . S
C94 C95 1.376 . S
C94 H117 0.930 . S
C95 C94 1.376 . S
C95 C96 1.370 . S
C96 C95 1.370 . S
C96 C97 1.396 . S
C96 H118 0.929 . S
C97 C92 1.373 . S
C97 C96 1.396 . S
C97 H119 0.929 . S
C98 O108 1.240 . S
C98 O109 1.289 . S
C99 O110 1.258 . S
C99 O111 1.256 1_565 S
O100 La80 2.521 . S
O100 C82 1.261 . S
O101 La80 2.628 1_565 S
O101 C82 1.243 1_565 S
O102 La80 2.554 1_455 S
O102 C89 1.240 . S
O103 La80 2.757 1_455 S
O103 La81 2.482 1_445 S
O103 C89 1.289 . S
O104 La80 2.470 1_565 S
O104 C90 1.258 . S
O105 La81 2.503 . S
O105 C90 1.256 . S
O106 La81 2.521 . S
O106 C91 1.261 1_655 S
O107 La81 2.628 1_455 S
O107 C91 1.243 . S
O108 La81 2.554 . S
O108 C98 1.240 . S
O109 La80 2.482 1_565 S
O109 La81 2.757 . S
O109 C98 1.289 . S
O110 La81 2.470 . S
O110 C99 1.258 . S
O111 La80 2.503 . S
O111 C99 1.256 1_545 S
H112 C84 0.930 . S
H113 C85 0.930 . S
H114 C87 0.929 1_565 S
H115 C88 0.929 . S
H116 C93 0.930 1_655 S
H117 C94 0.930 . S
H118 C96 0.929 . S
H119 C97 0.929 . S
C120 C121 1.391 1_545 S
C120 C122 1.394 . S
C120 H136 0.931 . S
C121 C120 1.391 1_565 S
C121 C125 1.376 1_465 S
C122 C120 1.394 . S
C122 C123 1.369 . S
C122 C126 1.531 . S
C123 C122 1.369 . S
C123 C124 1.410 1_455 S
C123 C131 1.503 . S
C124 C123 1.410 1_655 S
C124 C125 1.392 . S
C124 C127 1.511 . S
C125 C121 1.376 1_645 S
C125 C124 1.392 . S
C125 H137 0.929 1_545 S
C126 C122 1.531 . S
C126 H138 0.960 . S
C126 H139 0.962 . S
C126 H140 0.960 . S
C127 C124 1.511 . S
C127 H141 0.961 . S
C127 H142 0.961 . S
C127 H143 0.961 . S
C128 C129 1.370 . S
C128 C130 1.363 . S
C128 H144 0.931 . S
C129 C128 1.370 . S
C129 C133 1.408 1_655 S
C130 C128 1.363 . S
C130 C131 1.370 1_655 S
C130 C134 1.524 . S
C131 C123 1.503 . S
C131 C130 1.370 1_455 S
C131 C132 1.403 . S
C132 C131 1.403 . S
C132 C133 1.404 . S
C132 C135 1.539 . S
C133 C129 1.408 1_455 S
C133 C132 1.404 . S
C133 H145 0.930 . S
C134 C130 1.524 . S
C134 H146 0.956 1_655 S
C134 H147 0.961 . S
C134 H148 0.961 . S
C135 C132 1.539 . S
C135 H149 0.958 . S
C135 H150 0.961 . S
C135 H151 0.960 . S
H136 C120 0.931 . S
H137 C125 0.929 1_565 S
H138 C126 0.960 . S
H139 C126 0.962 . S
H140 C126 0.960 . S
H141 C127 0.961 . S
H142 C127 0.961 . S
H143 C127 0.961 . S
H144 C128 0.931 . S
H145 C133 0.930 . S
H146 C134 0.956 1_455 S
H147 C134 0.961 . S
H148 C134 0.961 . S
H149 C135 0.958 . S
H150 C135 0.961 . S
H151 C135 0.960 . S
C152 C153 1.391 . S
C152 C154 1.394 . S
C152 H168 0.931 . S
C153 C152 1.391 . S
C153 C157 1.376 1_565 S
C154 C152 1.394 . S
C154 C155 1.369 . S
C154 C158 1.531 . S
C155 C154 1.369 . S
C155 C156 1.410 1_565 S
C155 C163 1.503 . S
C156 C155 1.410 1_545 S
C156 C157 1.392 . S
C156 C159 1.511 . S
C157 C153 1.376 1_545 S
C157 C156 1.392 . S
C157 H169 0.929 . S
C158 C154 1.531 . S
C158 H170 0.960 . S
C158 H171 0.962 . S
C158 H172 0.960 . S
C159 C156 1.511 . S
C159 H173 0.961 . S
C159 H174 0.961 . S
C159 H175 0.961 . S
C160 C161 1.370 . S
C160 C162 1.363 . S
C160 H176 0.931 . S
C161 C160 1.370 . S
C161 C165 1.408 1_545 S
C162 C160 1.363 . S
C162 C163 1.370 1_545 S
C162 C166 1.524 . S
C163 C155 1.503 . S
C163 C162 1.370 1_565 S
C163 C164 1.403 . S
C164 C163 1.403 . S
C164 C165 1.404 . S
C164 C167 1.539 . S
C165 C161 1.408 1_565 S
C165 C164 1.404 . S
C165 H177 0.930 . S
C166 C162 1.524 . S
C166 H178 0.956 . S
C166 H179 0.961 . S
C166 H180 0.961 . S
C167 C164 1.539 . S
C167 H181 0.958 . S
C167 H182 0.961 . S
C167 H183 0.960 . S
H168 C152 0.931 . S
H169 C157 0.929 . S
H170 C158 0.960 . S
H171 C158 0.962 . S
H172 C158 0.960 . S
H173 C159 0.961 . S
H174 C159 0.961 . S
H175 C159 0.961 . S
H176 C160 0.931 . S
H177 C165 0.930 . S
H178 C166 0.956 . S
H179 C166 0.961 . S
H180 C166 0.961 . S
H181 C167 0.958 . S
H182 C167 0.961 . S
H183 C167 0.960 . S
C184 C185 1.391 . S
C184 C186 1.394 . S
C184 H200 0.931 . S
C185 C184 1.391 . S
C185 C189 1.376 . S
C186 C184 1.394 . S
C186 C187 1.369 . S
C186 C190 1.531 . S
C187 C186 1.369 . S
C187 C188 1.410 . S
C187 C195 1.503 . S
C188 C187 1.410 . S
C188 C189 1.392 . S
C188 C191 1.511 . S
C189 C185 1.376 . S
C189 C188 1.392 . S
C189 H201 0.929 . S
C190 C186 1.531 . S
C190 H202 0.960 . S
C190 H203 0.962 . S
C190 H204 0.960 . S
C191 C188 1.511 . S
C191 H205 0.961 . S
C191 H206 0.961 . S
C191 H207 0.961 . S
C192 C193 1.370 . S
C192 C194 1.363 . S
C192 H208 0.931 . S
C193 C192 1.370 . S
C193 C197 1.408 . S
C194 C192 1.363 . S
C194 C195 1.370 . S
C194 C198 1.524 . S
C195 C187 1.503 . S
C195 C194 1.370 . S
C195 C196 1.403 . S
C196 C195 1.403 . S
C196 C197 1.404 . S
C196 C199 1.539 . S
C197 C193 1.408 . S
C197 C196 1.404 . S
C197 H209 0.930 . S
C198 C194 1.524 . S
C198 H210 0.956 . S
C198 H211 0.961 . S
C198 H212 0.961 . S
C199 C196 1.539 . S
C199 H213 0.958 . S
C199 H214 0.961 . S
C199 H215 0.960 . S
H200 C184 0.931 . S
H201 C189 0.929 . S
H202 C190 0.960 . S
H203 C190 0.962 . S
H204 C190 0.960 . S
H205 C191 0.961 . S
H206 C191 0.961 . S
H207 C191 0.961 . S
H208 C192 0.931 . S
H209 C197 0.930 . S
H210 C198 0.956 . S
H211 C198 0.961 . S
H212 C198 0.961 . S
H213 C199 0.958 . S
H214 C199 0.961 . S
H215 C199 0.960 . S
C216 C217 1.391 . S
C216 C218 1.394 . S
C216 H232 0.931 . S
C217 C216 1.391 . S
C217 C221 1.376 . S
C218 C216 1.394 . S
C218 C219 1.369 . S
C218 C222 1.531 . S
C219 C218 1.369 . S
C219 C220 1.410 . S
C219 C227 1.503 . S
C220 C219 1.410 . S
C220 C221 1.392 . S
C220 C223 1.511 1_556 S
C221 C217 1.376 . S
C221 C220 1.392 . S
C221 H233 0.929 . S
C222 C218 1.531 . S
C222 H234 0.960 1_545 S
C222 H235 0.962 . S
C222 H236 0.960 . S
C223 C220 1.511 1_554 S
C223 H237 0.961 . S
C223 H238 0.961 . S
C223 H239 0.961 1_545 S
C224 C225 1.370 . S
C224 C226 1.363 1_554 S
C224 H240 0.931 . S
C225 C224 1.370 . S
C225 C229 1.408 1_545 S
C226 C224 1.363 1_556 S
C226 C227 1.370 . S
C226 C230 1.524 . S
C227 C219 1.503 . S
C227 C226 1.370 . S
C227 C228 1.403 1_545 S
C228 C227 1.403 1_565 S
C228 C229 1.404 1_556 S
C228 C231 1.539 . S
C229 C225 1.408 1_565 S
C229 C228 1.404 1_554 S
C229 H241 0.930 . S
C230 C226 1.524 . S
C230 H242 0.956 . S
C230 H243 0.961 . S
C230 H244 0.961 . S
C231 C228 1.539 . S
C231 H245 0.958 . S
C231 H246 0.961 1_556 S
C231 H247 0.960 . S
H232 C216 0.931 . S
H233 C221 0.929 . S
H234 C222 0.960 1_565 S
H235 C222 0.962 . S
H236 C222 0.960 . S
H237 C223 0.961 . S
H238 C223 0.961 . S
H239 C223 0.961 1_565 S
H240 C224 0.931 . S
H241 C229 0.930 . S
H242 C230 0.956 . S
H243 C230 0.961 . S
H244 C230 0.961 . S
H245 C231 0.958 . S
H246 C231 0.961 1_554 S
H247 C231 0.960 . S
C248 C249 1.391 . S
C248 C250 1.394 . S
C248 H264 0.931 . S
C249 C248 1.391 . S
C249 C253 1.376 . S
C250 C248 1.394 . S
C250 C251 1.369 . S
C250 C254 1.531 . S
C251 C250 1.369 . S
C251 C252 1.410 . S
C251 C259 1.503 . S
C252 C251 1.410 . S
C252 C253 1.392 . S
C252 C255 1.511 . S
C253 C249 1.376 . S
C253 C252 1.392 . S
C253 H265 0.929 . S
C254 C250 1.531 . S
C254 H266 0.960 . S
C254 H267 0.962 . S
C254 H268 0.960 . S
C255 C252 1.511 . S
C255 H269 0.961 1_545 S
C255 H270 0.961 . S
C255 H271 0.961 . S
C256 C257 1.370 . S
C256 C258 1.363 . S
C256 H272 0.931 . S
C257 C256 1.370 . S
C257 C261 1.408 . S
C258 C256 1.363 . S
C258 C259 1.370 . S
C258 C262 1.524 . S
C259 C251 1.503 . S
C259 C258 1.370 . S
C259 C260 1.403 . S
C260 C259 1.403 . S
C260 C261 1.404 . S
C260 C263 1.539 . S
C261 C257 1.408 . S
C261 C260 1.404 . S
C261 H273 0.930 . S
C262 C258 1.524 . S
C262 H274 0.956 . S
C262 H275 0.961 . S
C262 H276 0.961 . S
C263 C260 1.539 . S
C263 H277 0.958 . S
C263 H278 0.961 . S
C263 H279 0.960 . S
H264 C248 0.931 . S
H265 C253 0.929 . S
H266 C254 0.960 . S
H267 C254 0.962 . S
H268 C254 0.960 . S
H269 C255 0.961 1_565 S
H270 C255 0.961 . S
H271 C255 0.961 . S
H272 C256 0.931 . S
H273 C261 0.930 . S
H274 C262 0.956 . S
H275 C262 0.961 . S
H276 C262 0.961 . S
H277 C263 0.958 . S
H278 C263 0.961 . S
H279 C263 0.960 . S
C280 C281 1.391 . S
C280 C282 1.394 . S
C280 H296 0.931 . S
C281 C280 1.391 . S
C281 C285 1.376 1_565 S
C282 C280 1.394 . S
C282 C283 1.369 . S
C282 C286 1.531 . S
C283 C282 1.369 . S
C283 C284 1.410 1_565 S
C283 C291 1.503 . S
C284 C283 1.410 1_545 S
C284 C285 1.392 . S
C284 C287 1.511 . S
C285 C281 1.376 1_545 S
C285 C284 1.392 . S
C285 H297 0.929 . S
C286 C282 1.531 . S
C286 H298 0.960 . S
C286 H299 0.962 . S
C286 H300 0.960 . S
C287 C284 1.511 . S
C287 H301 0.961 . S
C287 H302 0.961 . S
C287 H303 0.961 . S
C288 C289 1.370 . S
C288 C290 1.363 . S
C288 H304 0.931 . S
C289 C288 1.370 . S
C289 C293 1.408 . S
C290 C288 1.363 . S
C290 C291 1.370 . S
C290 C294 1.524 . S
C291 C283 1.503 . S
C291 C290 1.370 . S
C291 C292 1.403 . S
C292 C291 1.403 . S
C292 C293 1.404 . S
C292 C295 1.539 . S
C293 C289 1.408 . S
C293 C292 1.404 . S
C293 H305 0.930 . S
C294 C290 1.524 . S
C294 H306 0.956 . S
C294 H307 0.961 1_565 S
C294 H308 0.961 1_655 S
C295 C292 1.539 . S
C295 H309 0.958 . S
C295 H310 0.961 . S
C295 H311 0.960 . S
H296 C280 0.931 . S
H297 C285 0.929 . S
H298 C286 0.960 . S
H299 C286 0.962 . S
H300 C286 0.960 . S
H301 C287 0.961 . S
H302 C287 0.961 . S
H303 C287 0.961 . S
H304 C288 0.931 . S
H305 C293 0.930 . S
H306 C294 0.956 . S
H307 C294 0.961 1_545 S
H308 C294 0.961 1_455 S
H309 C295 0.958 . S
H310 C295 0.961 . S
H311 C295 0.960 . S
C312 C313 1.391 . S
C312 C314 1.394 . S
C312 H328 0.931 . S
C313 C312 1.391 . S
C313 C317 1.376 1_655 S
C314 C312 1.394 . S
C314 C315 1.369 . S
C314 C318 1.531 . S
C315 C314 1.369 . S
C315 C316 1.410 1_655 S
C315 C323 1.503 1_556 S
C316 C315 1.410 1_455 S
C316 C317 1.392 . S
C316 C319 1.511 . S
C317 C313 1.376 1_455 S
C317 C316 1.392 . S
C317 H329 0.929 . S
C318 C314 1.531 . S
C318 H330 0.960 . S
C318 H331 0.962 . S
C318 H332 0.960 . S
C319 C316 1.511 . S
C319 H333 0.961 . S
C319 H334 0.961 1_556 S
C319 H335 0.961 1_556 S
C320 C321 1.370 . S
C320 C322 1.363 . S
C320 H336 0.931 . S
C321 C320 1.370 . S
C321 C325 1.408 . S
C322 C320 1.363 . S
C322 C323 1.370 . S
C322 C326 1.524 1_554 S
C323 C315 1.503 1_554 S
C323 C322 1.370 . S
C323 C324 1.403 . S
C324 C323 1.403 . S
C324 C325 1.404 . S
C324 C327 1.539 . S
C325 C321 1.408 . S
C325 C324 1.404 . S
C325 H337 0.930 . S
C326 C322 1.524 1_556 S
C326 H338 0.956 . S
C326 H339 0.961 . S
C326 H340 0.961 1_556 S
C327 C324 1.539 . S
C327 H341 0.958 . S
C327 H342 0.961 . S
C327 H343 0.960 . S
H328 C312 0.931 . S
H329 C317 0.929 . S
H330 C318 0.960 . S
H331 C318 0.962 . S
H332 C318 0.960 . S
H333 C319 0.961 . S
H334 C319 0.961 1_554 S
H335 C319 0.961 1_554 S
H336 C320 0.931 . S
H337 C325 0.930 . S
H338 C326 0.956 . S
H339 C326 0.961 . S
H340 C326 0.961 1_554 S
H341 C327 0.958 . S
H342 C327 0.961 . S
H343 C327 0.960 . S
C344 C345 1.391 . S
C344 C346 1.394 . S
C344 H360 0.931 . S
C345 C344 1.391 . S
C345 C349 1.376 . S
C346 C344 1.394 . S
C346 C347 1.369 . S
C346 C350 1.531 . S
C347 C346 1.369 . S
C347 C348 1.410 . S
C347 C355 1.503 . S
C348 C347 1.410 . S
C348 C349 1.392 . S
C348 C351 1.511 . S
C349 C345 1.376 . S
C349 C348 1.392 . S
C349 H361 0.929 . S
C350 C346 1.531 . S
C350 H362 0.960 . S
C350 H363 0.962 . S
C350 H364 0.960 . S
C351 C348 1.511 . S
C351 H365 0.961 . S
C351 H366 0.961 . S
C351 H367 0.961 . S
C352 C353 1.370 . S
C352 C354 1.363 . S
C352 H368 0.931 . S
C353 C352 1.370 . S
C353 C357 1.408 . S
C354 C352 1.363 . S
C354 C355 1.370 . S
C354 C358 1.524 . S
C355 C347 1.503 . S
C355 C354 1.370 . S
C355 C356 1.403 . S
C356 C355 1.403 . S
C356 C357 1.404 . S
C356 C359 1.539 . S
C357 C353 1.408 . S
C357 C356 1.404 . S
C357 H369 0.930 . S
C358 C354 1.524 . S
C358 H370 0.956 . S
C358 H371 0.961 . S
C358 H372 0.961 . S
C359 C356 1.539 . S
C359 H373 0.958 . S
C359 H374 0.961 . S
C359 H375 0.960 . S
H360 C344 0.931 . S
H361 C349 0.929 . S
H362 C350 0.960 . S
H363 C350 0.962 . S
H364 C350 0.960 . S
H365 C351 0.961 . S
H366 C351 0.961 . S
H367 C351 0.961 . S
H368 C352 0.931 . S
H369 C357 0.930 . S
H370 C358 0.956 . S
H371 C358 0.961 . S
H372 C358 0.961 . S
H373 C359 0.958 . S
H374 C359 0.961 . S
H375 C359 0.960 . S
C376 C377 1.391 . S
C376 C378 1.394 . S
C376 H392 0.931 . S
C377 C376 1.391 . S
C377 C381 1.376 . S
C378 C376 1.394 . S
C378 C379 1.369 . S
C378 C382 1.531 . S
C379 C378 1.369 . S
C379 C380 1.410 . S
C379 C387 1.503 . S
C380 C379 1.410 . S
C380 C381 1.392 . S
C380 C383 1.511 1_455 S
C381 C377 1.376 . S
C381 C380 1.392 . S
C381 H393 0.929 . S
C382 C378 1.531 . S
C382 H394 0.960 . S
C382 H395 0.962 . S
C382 H396 0.960 . S
C383 C380 1.511 1_655 S
C383 H397 0.961 . S
C383 H398 0.961 . S
C383 H399 0.961 . S
C384 C385 1.370 . S
C384 C386 1.363 . S
C384 H400 0.931 . S
C385 C384 1.370 . S
C385 C389 1.408 1_455 S
C386 C384 1.363 . S
C386 C387 1.370 . S
C386 C390 1.524 . S
C387 C379 1.503 . S
C387 C386 1.370 . S
C387 C388 1.403 1_455 S
C388 C387 1.403 1_655 S
C388 C389 1.404 . S
C388 C391 1.539 . S
C389 C385 1.408 1_655 S
C389 C388 1.404 . S
C389 H401 0.930 . S
C390 C386 1.524 . S
C390 H402 0.956 . S
C390 H403 0.961 . S
C390 H404 0.961 . S
C391 C388 1.539 . S
C391 H405 0.958 . S
C391 H406 0.961 . S
C391 H407 0.960 . S
H392 C376 0.931 . S
H393 C381 0.929 . S
H394 C382 0.960 . S
H395 C382 0.962 . S
H396 C382 0.960 . S
H397 C383 0.961 . S
H398 C383 0.961 . S
H399 C383 0.961 . S
H400 C384 0.931 . S
H401 C389 0.930 . S
H402 C390 0.956 . S
H403 C390 0.961 . S
H404 C390 0.961 . S
H405 C391 0.958 . S
H406 C391 0.961 . S
H407 C391 0.960 . S
C121 C9 1.598 1_455 S
C129 C18 1.555 1_655 S
C153 C58 1.628 . S
C161 C49 1.660 1_455 S
C185 C89 1.341 . S
C193 C98 1.359 . S
C217 C86 0.928 . S
C225 C15 0.961 1_545 S
C249 C59 1.958 . S
C257 C6 1.886 . S
C281 C99 2.427 . S
C289 C50 2.447 . S
C313 C90 2.373 . S
C321 C19 2.306 . S
C345 C10 1.751 . S
C353 C55 1.641 . S
C377 C95 0.905 . S
C385 C46 0.965 1_455 S
