# Generated by pormake.
# Topology vcu, (8)-cn, num edge types: 1
# Building blocks:
#     Node 0, Type 0, BuildingBlock: TAGTUT_clean_sbu_3, # of connection points: 8
#     Node 1, Type 0, BuildingBlock: TAGTUT_clean_sbu_3, # of connection points: 8
#     Node 2, Type 0, BuildingBlock: TAGTUT_clean_sbu_3, # of connection points: 8
#     Node 3, Type 0, BuildingBlock: TAGTUT_clean_sbu_3, # of connection points: 8
#     Node 4, Type 0, BuildingBlock: TAGTUT_clean_sbu_3, # of connection points: 8
#     Node 5, Type 0, BuildingBlock: TAGTUT_clean_sbu_3, # of connection points: 8
#     Node 6, Type 0, BuildingBlock: TAGTUT_clean_sbu_3, # of connection points: 8
#     Node 7, Type 0, BuildingBlock: TAGTUT_clean_sbu_3, # of connection points: 8
#     Edge 8, Type (0, 0), BuildingBlock: EYOCIG_clean_linker_4, # of connection points: 2
#     Edge 9, Type (0, 0), BuildingBlock: EYOCIG_clean_linker_4, # of connection points: 2
#     Edge 10, Type (0, 0), BuildingBlock: EYOCIG_clean_linker_4, # of connection points: 2
#     Edge 11, Type (0, 0), BuildingBlock: EYOCIG_clean_linker_4, # of connection points: 2
#     Edge 12, Type (0, 0), BuildingBlock: EYOCIG_clean_linker_4, # of connection points: 2
#     Edge 13, Type (0, 0), BuildingBlock: EYOCIG_clean_linker_4, # of connection points: 2
#     Edge 14, Type (0, 0), BuildingBlock: EYOCIG_clean_linker_4, # of connection points: 2
#     Edge 15, Type (0, 0), BuildingBlock: EYOCIG_clean_linker_4, # of connection points: 2
#     Edge 16, Type (0, 0), BuildingBlock: EYOCIG_clean_linker_4, # of connection points: 2
#     Edge 17, Type (0, 0), BuildingBlock: EYOCIG_clean_linker_4, # of connection points: 2
#     Edge 18, Type (0, 0), BuildingBlock: EYOCIG_clean_linker_4, # of connection points: 2
#     Edge 19, Type (0, 0), BuildingBlock: EYOCIG_clean_linker_4, # of connection points: 2
#     Edge 20, Type (0, 0), BuildingBlock: EYOCIG_clean_linker_4, # of connection points: 2
#     Edge 21, Type (0, 0), BuildingBlock: EYOCIG_clean_linker_4, # of connection points: 2
#     Edge 22, Type (0, 0), BuildingBlock: EYOCIG_clean_linker_4, # of connection points: 2
#     Edge 23, Type (0, 0), BuildingBlock: EYOCIG_clean_linker_4, # of connection points: 2
#     Edge 24, Type (0, 0), BuildingBlock: EYOCIG_clean_linker_4, # of connection points: 2
#     Edge 25, Type (0, 0), BuildingBlock: EYOCIG_clean_linker_4, # of connection points: 2
#     Edge 26, Type (0, 0), BuildingBlock: EYOCIG_clean_linker_4, # of connection points: 2
#     Edge 27, Type (0, 0), BuildingBlock: EYOCIG_clean_linker_4, # of connection points: 2
#     Edge 28, Type (0, 0), BuildingBlock: EYOCIG_clean_linker_4, # of connection points: 2
#     Edge 29, Type (0, 0), BuildingBlock: EYOCIG_clean_linker_4, # of connection points: 2
#     Edge 30, Type (0, 0), BuildingBlock: EYOCIG_clean_linker_4, # of connection points: 2
#     Edge 31, Type (0, 0), BuildingBlock: EYOCIG_clean_linker_4, # of connection points: 2
#     Edge 32, Type (0, 0), BuildingBlock: EYOCIG_clean_linker_4, # of connection points: 2
#     Edge 33, Type (0, 0), BuildingBlock: EYOCIG_clean_linker_4, # of connection points: 2
#     Edge 34, Type (0, 0), BuildingBlock: EYOCIG_clean_linker_4, # of connection points: 2
#     Edge 35, Type (0, 0), BuildingBlock: EYOCIG_clean_linker_4, # of connection points: 2
#     Edge 36, Type (0, 0), BuildingBlock: EYOCIG_clean_linker_4, # of connection points: 2
#     Edge 37, Type (0, 0), BuildingBlock: EYOCIG_clean_linker_4, # of connection points: 2
#     Edge 38, Type (0, 0), BuildingBlock: EYOCIG_clean_linker_4, # of connection points: 2
#     Edge 39, Type (0, 0), BuildingBlock: EYOCIG_clean_linker_4, # of connection points: 2
# Relax obj value: 0.228
# Max RMSD: 0.292
# Mean RMSD: 0.290
data_MOF--net-vcu--node1-TAGTUT_clean_sbu_3--edge1-EYOCIG_clean_linker_4
_symmetry_space_group_name_H-M    P1
_symmetry_Int_Tables_number       1
_symmetry_cell_setting            triclinic
loop_
_symmetry_equiv_pos_as_xyz
'x, y, z'
_cell_length_a     16.213622
_cell_length_b     26.651133
_cell_length_c     44.717609
_cell_angle_alpha  89.949073
_cell_angle_beta   90.052444
_cell_angle_gamma 90.003465
loop_
_atom_site_label
_atom_site_type_symbol
_atom_site_fract_x
_atom_site_fract_y
_atom_site_fract_z
_atom_type_partial_charge
C0 C 0.43919 0.3841 0.27149 0.0
C1 C 0.68074 0.34123 0.34567 0.0
C2 C 0.52231 0.25074 0.39075 0.0
Mg3 Mg 0.24932 0.39673 0.28886 0.0
Mg4 Mg 0.19939 0.43359 0.35666 0.0
O5 O 0.25047 0.38492 0.33316 0.0
Mg6 Mg 0.36789 0.37511 0.34071 0.0
O7 O 0.48766 0.364 0.345 0.0
Mg8 Mg 0.50113 0.30065 0.32098 0.0
Mg9 Mg 0.52807 0.35993 0.38399 0.0
C10 C 0.27566 0.36736 0.40648 0.0
O11 O 0.38428 0.45209 0.36505 0.0
O12 O 0.10995 0.38795 0.29407 0.0
O13 O 0.47305 0.42637 0.40105 0.0
O14 O 0.23426 0.48529 0.293 0.0
O15 O 0.08261 0.41065 0.34187 0.0
O16 O 0.21964 0.50828 0.34071 0.0
O17 O 0.35876 0.29582 0.32146 0.0
O18 O 0.26473 0.30908 0.28585 0.0
C19 C 0.31245 0.27954 0.30056 0.0
C20 C 0.06117 0.39377 0.31633 0.0
O21 O 0.32798 0.34714 0.38839 0.0
O22 O 0.63688 0.31923 0.32574 0.0
O23 O 0.23392 0.40656 0.39999 0.0
O24 O 0.52257 0.24957 0.36227 0.0
O25 O 0.65288 0.35925 0.37016 0.0
O26 O 0.502 0.29018 0.40475 0.0
O27 O 0.39068 0.40259 0.29128 0.0
O28 O 0.48838 0.34844 0.27817 0.0
C29 C 0.22599 0.5193 0.3131 0.0
C30 C 0.42313 0.45849 0.38994 0.0
C31 C 0.03221 0.03827 0.87609 0.0
C32 C 0.26171 0.97681 0.80535 0.0
C33 C 0.37287 0.1235 0.81812 0.0
Mg34 Mg 0.94506 0.14365 0.88369 0.0
Mg35 Mg 0.93288 0.22557 0.82884 0.0
O36 O -0.00034 0.18264 0.85087 0.0
Mg37 Mg 0.07744 0.13268 0.83266 0.0
O38 O 0.15672 0.07984 0.81906 0.0
Mg39 Mg 0.2202 0.0643 0.85661 0.0
Mg40 Mg 0.22023 0.085 0.78423 0.0
C41 C 0.10641 0.2413 0.79856 0.0
O42 O 0.00851 0.12052 0.786 0.0
O43 O 0.89853 0.21931 0.90229 0.0
O44 O 0.11733 0.10568 0.75515 0.0
O45 O 0.81857 0.13774 0.85794 0.0
O46 O 0.90195 0.27562 0.86463 0.0
O47 O 0.81954 0.18746 0.81761 0.0
O48 O 0.1609 0.13843 0.87394 0.0
O49 O 0.06784 0.15165 0.90984 0.0
C50 C 0.1425 0.14618 0.9012 0.0
C51 C 0.88942 0.26391 0.89197 0.0
O52 O 0.13913 0.20139 0.80979 0.0
O53 O 0.25918 0.99084 0.83282 0.0
O54 O 0.02883 0.25081 0.79903 0.0
O55 O 0.34036 0.10283 0.84095 0.0
O56 O 0.24986 0.00657 0.78332 0.0
O57 O 0.33427 0.12649 0.79325 0.0
O58 O 0.00417 0.0745 0.86039 0.0
O59 O 0.10744 0.02506 0.87476 0.0
C60 C 0.7831 0.15627 0.83477 0.0
C61 C 0.03991 0.11301 0.75966 0.0
C62 C 0.81367 0.22801 0.58921 0.0
C63 C 0.56136 0.11489 0.57472 0.0
C64 C 0.72474 0.98836 0.57722 0.0
Mg65 Mg 0.0009 0.20707 0.56847 0.0
Mg66 Mg 0.03004 0.14648 0.50603 0.0
O67 O -0.01188 0.14328 0.54475 0.0
Mg68 Mg 0.8683 0.13198 0.54901 0.0
O69 O 0.75082 0.12227 0.55681 0.0
Mg70 Mg 0.75056 0.11093 0.60123 0.0
Mg71 Mg 0.69729 0.07417 0.53364 0.0
C72 C 0.92509 0.04776 0.5004 0.0
O73 O 0.82824 0.15913 0.50106 0.0
O74 O 0.1369 0.18943 0.56423 0.0
O75 O 0.73105 0.10108 0.49019 0.0
O76 O 0.0209 0.25755 0.52679 0.0
O77 O 0.15473 0.14816 0.52036 0.0
O78 O 0.00187 0.21537 0.48472 0.0
O79 O 0.89176 0.10469 0.5984 0.0
O80 O -0.0109 0.15935 0.61132 0.0
C81 C 0.94076 0.12327 0.61802 0.0
C82 C 0.18166 0.16707 0.54477 0.0
O83 O 0.88508 0.05475 0.52497 0.0
O84 O 0.61117 0.12028 0.59673 0.0
O85 O -0.02426 0.07953 0.48941 0.0
O86 O 0.73456 0.02236 0.59725 0.0
O87 O 0.58149 0.09805 0.54904 0.0
O88 O 0.71698 0.9994 0.54965 0.0
O89 O 0.85881 0.21147 0.56808 0.0
O90 O 0.76658 0.1986 0.60422 0.0
C91 C 0.02065 0.25549 0.49831 0.0
C92 C 0.77494 0.13916 0.48319 0.0
C93 C 0.64322 0.361 -0.01144 0.0
C94 C 0.38862 0.24322 -0.00188 0.0
C95 C 0.28273 0.35253 0.05407 0.0
Mg96 Mg 0.72011 0.44323 0.03321 0.0
Mg97 Mg 0.71969 0.42218 0.1056 0.0
O98 O 0.65627 0.42774 0.0707 0.0
Mg99 Mg 0.57701 0.37483 0.05688 0.0
O100 O 0.49957 0.32475 0.03859 0.0
Mg101 Mg 0.44552 0.36342 0.00549 0.0
Mg102 Mg 0.43176 0.28301 0.06096 0.0
C103 C 0.53858 0.39404 0.12984 0.0
O104 O 0.63795 0.30611 0.07987 0.0
O105 O 0.75994 0.51641 0.05712 0.0
O106 O 0.52642 0.25841 0.09154 0.0
O107 O 0.83991 0.4047 0.04885 0.0
O108 O 0.75039 0.50055 0.1066 0.0
O109 O 0.8341 0.38085 0.09651 0.0
O110 O 0.50443 0.43273 0.02864 0.0
O111 O 0.60772 0.48274 0.01501 0.0
C112 C 0.53306 0.46867 0.01288 0.0
C113 C 0.76291 0.5303 0.08461 0.0
O114 O 0.50742 0.38677 0.10341 0.0
O115 O 0.39865 0.28747 -0.01261 0.0
O116 O 0.616 0.40143 0.13448 0.0
O117 O 0.31854 0.37024 0.03078 0.0
O118 O 0.40054 0.23216 0.0256 0.0
O119 O 0.31883 0.32182 0.07164 0.0
O120 O 0.66067 0.36914 0.01586 0.0
O121 O 0.56885 0.35497 -0.02034 0.0
C122 C 0.87261 0.38403 0.07164 0.0
C123 C 0.60435 0.26678 0.09147 0.0
C124 C 0.64391 0.6494 0.48709 0.0
C125 C 0.39215 0.7695 0.4989 0.0
C126 C 0.28672 0.66046 0.55471 0.0
Mg127 Mg 0.72054 0.56626 0.53068 0.0
Mg128 Mg 0.72702 0.58484 0.60291 0.0
O129 O 0.66078 0.58344 0.56866 0.0
Mg130 Mg 0.58298 0.63857 0.55558 0.0
O131 O 0.50461 0.6888 0.53804 0.0
Mg132 Mg 0.44772 0.64983 0.5057 0.0
Mg133 Mg 0.43732 0.72946 0.56146 0.0
C134 C 0.55034 0.61805 0.62723 0.0
O135 O 0.64556 0.71053 0.57726 0.0
O136 O 0.76072 0.4915 0.55423 0.0
O137 O 0.53441 0.75776 0.59016 0.0
O138 O 0.843 0.60357 0.54638 0.0
O139 O 0.75756 0.506 0.60387 0.0
O140 O 0.83909 0.62702 0.59414 0.0
O141 O 0.50607 0.58121 0.52898 0.0
O142 O 0.60268 0.52944 0.51188 0.0
C143 C 0.52875 0.54595 0.51171 0.0
C144 C 0.76816 0.47676 0.58152 0.0
O145 O 0.51722 0.62729 0.6015 0.0
O146 O 0.4016 0.72554 0.48774 0.0
O147 O 0.62689 0.60793 0.63131 0.0
O148 O 0.322 0.64335 0.53125 0.0
O149 O 0.40403 0.77988 0.52642 0.0
O150 O 0.32354 0.69057 0.57248 0.0
O151 O 0.66326 0.64173 0.5142 0.0
O152 O 0.56931 0.65655 0.47882 0.0
C153 C 0.8766 0.62407 0.56913 0.0
C154 C 0.61268 0.75081 0.58837 0.0
C155 C 0.80851 0.86186 -0.0136 0.0
C156 C 0.0621 0.7433 -0.00185 0.0
C157 C 0.16699 0.85315 0.05369 0.0
Mg158 Mg 0.72959 0.94343 0.03091 0.0
Mg159 Mg 0.72828 0.92199 0.1025 0.0
O160 O 0.79308 0.92791 0.06816 0.0
Mg161 Mg 0.87214 0.87487 0.05452 0.0
O162 O 0.95005 0.82477 0.0369 0.0
Mg163 Mg 0.00552 0.86358 0.0043 0.0
Mg164 Mg 0.01777 0.78438 0.06036 0.0
C165 C 0.90648 0.89216 0.12608 0.0
O166 O 0.81152 0.80601 0.07785 0.0
O167 O 0.69035 0.01666 0.0551 0.0
O168 O 0.92373 0.75998 0.091 0.0
O169 O 0.60953 0.90469 0.04667 0.0
O170 O 0.69894 1.00015 0.10452 0.0
O171 O 0.61581 0.88003 0.09413 0.0
O172 O 0.94562 0.93298 0.02688 0.0
O173 O 0.84237 0.98283 0.01288 0.0
C174 C 0.91721 0.96896 0.01106 0.0
C175 C 0.68737 0.03026 0.08266 0.0
O176 O 0.93994 0.88648 0.10007 0.0
O177 O 0.05249 0.78728 -0.01305 0.0
O178 O 0.82914 0.89894 0.13048 0.0
O179 O 0.13171 0.87036 0.03016 0.0
O180 O 0.04991 0.73291 0.02569 0.0
O181 O 0.13044 0.82296 0.0714 0.0
O182 O 0.78972 0.86941 0.0136 0.0
O183 O 0.88315 0.85563 -0.02211 0.0
C184 C 0.57714 0.88357 0.06938 0.0
C185 C 0.84564 0.76754 0.09033 0.0
C186 C 0.14384 0.85755 0.40283 0.0
C187 C 0.89143 0.73809 0.39082 0.0
C188 C 0.78762 0.84749 0.33449 0.0
Mg189 Mg 0.22134 0.94058 0.35956 0.0
Mg190 Mg 0.22723 0.9232 0.28722 0.0
O191 O 0.16142 0.92384 0.32151 0.0
Mg192 Mg 0.08334 0.86879 0.33431 0.0
O193 O 0.00469 0.8186 0.35169 0.0
Mg194 Mg 0.94781 0.85764 0.38395 0.0
Mg195 Mg 0.93749 0.77782 0.32825 0.0
C196 C 0.0512 0.88973 0.26251 0.0
O197 O 0.14598 0.79698 0.3127 0.0
O198 O 0.26127 0.01565 0.33648 0.0
O199 O 0.03507 0.74942 0.29985 0.0
O200 O 0.34381 0.90353 0.34357 0.0
O201 O 0.25678 1.00206 0.28676 0.0
O202 O 0.33977 0.88144 0.29556 0.0
O203 O 0.00668 0.92623 0.36095 0.0
O204 O 0.10385 0.97727 0.3785 0.0
C205 C 0.02976 0.96104 0.3785 0.0
C206 C 0.2678 0.03088 0.30927 0.0
O207 O 0.01792 0.88032 0.28819 0.0
O208 O 0.90105 0.78207 0.4019 0.0
O209 O 0.12767 0.90011 0.25859 0.0
O210 O 0.82262 0.86446 0.35807 0.0
O211 O 0.90346 0.72756 0.36332 0.0
O212 O 0.82439 0.81718 0.31686 0.0
O213 O 0.16345 0.86515 0.37575 0.0
O214 O 0.06914 0.85063 0.41101 0.0
C215 C 0.3774 0.8838 0.32058 0.0
C216 C 0.11329 0.75659 0.30165 0.0
C217 C 0.41958 0.53846 0.87789 0.0
C218 C 0.18911 0.477 0.80683 0.0
C219 C 0.07755 0.62415 0.82079 0.0
Mg220 Mg 0.50635 0.64487 0.88522 0.0
Mg221 Mg 0.51687 0.72433 0.8292 0.0
O222 O 0.45017 0.68333 0.85261 0.0
Mg223 Mg 0.37232 0.63296 0.83505 0.0
O224 O 0.29356 0.57969 0.82148 0.0
Mg225 Mg 0.23082 0.56386 0.85878 0.0
Mg226 Mg 0.22794 0.5857 0.78731 0.0
C227 C 0.34336 0.74025 0.79957 0.0
O228 O 0.43932 0.62156 0.78942 0.0
O229 O 0.55268 0.72154 0.9026 0.0
O230 O 0.32798 0.60913 0.75919 0.0
O231 O 0.63249 0.63886 0.85942 0.0
O232 O 0.54873 0.77587 0.86386 0.0
O233 O 0.63046 0.68648 0.81825 0.0
O234 O 0.2903 0.63816 0.87606 0.0
O235 O 0.38413 0.65258 0.9116 0.0
C236 C 0.30942 0.64619 0.90318 0.0
C237 C 0.56156 0.76558 0.89136 0.0
O238 O 0.31026 0.70135 0.81188 0.0
O239 O 0.1923 0.49042 0.83442 0.0
O240 O 0.42125 0.74869 0.79906 0.0
O241 O 0.1101 0.6026 0.84336 0.0
O242 O 0.19948 0.50741 0.78505 0.0
O243 O 0.11585 0.62782 0.79601 0.0
O244 O 0.44695 0.57513 0.86243 0.0
O245 O 0.3445 0.52485 0.87653 0.0
C246 C 0.66754 0.65647 0.83597 0.0
C247 C 0.40538 0.61589 0.76346 0.0
C248 C 0.90985 0.3665 0.31907 0.0
C249 C -0.02057 0.3772 0.31398 0.0
C250 C 0.83171 0.35679 0.32983 0.0
C251 C 0.76323 0.35075 0.33838 0.0
C252 C 0.53402 0.14122 0.82279 0.0
C253 C 0.46062 0.13401 0.81933 0.0
C254 C 0.62118 0.1447 0.82695 0.0
C255 C 0.69491 0.14931 0.83102 0.0
C256 C 0.33207 0.15219 0.56176 0.0
C257 C 0.2639 0.1579 0.55273 0.0
C258 C 0.41016 0.1426 0.57272 0.0
C259 C 0.47984 0.13173 0.57758 0.0
C260 C 0.03388 0.36728 0.0665 0.0
C261 C 0.96049 0.37392 0.07034 0.0
C262 C 0.12091 0.36431 0.06189 0.0
C263 C 0.19457 0.35981 0.05766 0.0
C264 C 0.12467 0.64751 0.56147 0.0
C265 C 0.19848 0.65311 0.55814 0.0
C266 C 0.03744 0.64284 0.56479 0.0
C267 C 0.96414 0.63485 0.56773 0.0
C268 C 0.41591 0.86713 0.06525 0.0
C269 C 0.48941 0.87376 0.06844 0.0
C270 C 0.32881 0.86432 0.06129 0.0
C271 C 0.25513 0.85992 0.05727 0.0
C272 C 0.62579 0.86094 0.32748 0.0
C273 C 0.69951 0.85504 0.33087 0.0
C274 C 0.53852 0.86563 0.32437 0.0
C275 C 0.46508 0.87342 0.32175 0.0
C276 C 0.91678 0.64232 0.82509 0.0
C277 C -0.00993 0.63482 0.82195 0.0
C278 C 0.82965 0.64578 0.82878 0.0
C279 C 0.75582 0.65014 0.83248 0.0
C280 C 0.45878 0.39996 0.18157 0.0
C281 C 0.48641 0.39629 0.15631 0.0
C282 C 0.43992 0.4017 0.2129 0.0
C283 C 0.43304 0.39771 0.23997 0.0
C284 C 0.96105 0.10637 0.70781 0.0
C285 C -0.0119 0.11036 0.73313 0.0
C286 C 0.94269 0.10477 0.67647 0.0
C287 C 0.93558 0.10929 0.64946 0.0
C288 C 0.4828 0.61404 0.67967 0.0
C289 C 0.50187 0.61738 0.65379 0.0
C290 C 0.47192 0.6132 0.71086 0.0
C291 C 0.45357 0.61537 0.73685 0.0
C292 C 0.97373 0.89439 0.17864 0.0
C293 C 0.95513 0.89243 0.15264 0.0
C294 C -0.01551 0.89344 0.20986 0.0
C295 C 0.00312 0.89018 0.23581 0.0
C296 C 0.69792 0.18026 0.43845 0.0
C297 C 0.74379 0.16688 0.45817 0.0
C298 C 0.63262 0.19722 0.42005 0.0
C299 C 0.58256 0.21959 0.40519 0.0
C300 C 0.76359 0.34604 -0.04976 0.0
C301 C 0.70946 0.35302 -0.03193 0.0
C302 C 0.81858 0.3264 0.92907 0.0
C303 C 0.85142 0.30022 0.91082 0.0
C304 C 0.12941 0.3087 0.46828 0.0
C305 C 0.07993 0.28678 0.48356 0.0
C306 C 0.19503 0.32524 0.44997 0.0
C307 C 0.24207 0.33887 0.43073 0.0
C308 C 0.31657 0.18056 -0.0386 0.0
C309 C 0.34993 0.20673 -0.02045 0.0
C310 C 0.26164 0.16109 0.94012 0.0
C311 C 0.20799 0.15416 0.92205 0.0
C312 C 0.26351 0.85005 0.44187 0.0
C313 C 0.20855 0.85344 0.42411 0.0
C314 C 0.32057 0.83275 0.46284 0.0
C315 C 0.3539 0.8065 0.48083 0.0
C316 C 0.13389 0.67946 -0.0376 0.0
C317 C 0.1006 0.70628 -0.01988 0.0
C318 C 0.18981 0.65991 0.94169 0.0
C319 C 0.24428 0.65361 0.924 0.0
C320 C 0.8202 0.67495 0.42705 0.0
C321 C 0.85335 0.70114 0.40898 0.0
C322 C 0.76359 0.65745 0.44812 0.0
C323 C 0.70881 0.65378 0.46591 0.0
C324 C 0.63298 0.83009 0.92688 0.0
C325 C 0.59982 0.80291 0.90929 0.0
C326 C 0.6888 0.84964 -0.05233 0.0
C327 C 0.74319 0.85528 -0.0345 0.0
C328 C 0.29245 0.12781 0.29959 0.0
C329 C 0.28118 0.08349 0.30372 0.0
C330 C 0.30034 0.18061 0.29681 0.0
C331 C 0.30343 0.22594 0.29751 0.0
C332 C 0.17608 0.32787 0.79125 0.0
C333 C 0.1571 0.28443 0.79384 0.0
C334 C 0.18239 0.38034 0.79456 0.0
C335 C 0.18548 0.42456 0.79997 0.0
C336 C 0.79448 0.37993 0.59131 0.0
C337 C 0.78245 0.42425 0.58733 0.0
C338 C 0.80286 0.32704 0.59363 0.0
C339 C 0.80568 0.28169 0.59251 0.0
C340 C 0.67847 0.12688 0.09463 0.0
C341 C 0.68256 0.08268 0.08933 0.0
C342 C 0.67194 0.17931 0.09795 0.0
C343 C 0.65355 0.22286 0.09558 0.0
C344 C 0.68662 0.83915 0.59281 0.0
C345 C 0.66151 0.79627 0.5907 0.0
C346 C 0.70533 0.89148 0.59048 0.0
C347 C 0.71483 0.93615 0.58594 0.0
C348 C 0.77345 0.62719 0.09574 0.0
C349 C 0.76858 0.58282 0.09098 0.0
C350 C 0.7799 0.67978 0.0982 0.0
C351 C 0.79753 0.72333 0.09504 0.0
C352 C 0.20662 0.61617 0.29988 0.0
C353 C 0.216 0.57152 0.30444 0.0
C354 C 0.18781 0.66845 0.29745 0.0
C355 C 0.16243 0.71127 0.29946 0.0
C356 C 0.27548 0.82727 0.7916 0.0
C357 C 0.29385 0.78384 0.79473 0.0
C358 C 0.2694 0.87984 0.79419 0.0
C359 C 0.26584 0.92423 0.79902 0.0
C360 C 0.44705 0.5335 0.46111 0.0
C361 C 0.48272 0.53996 0.48447 0.0
C362 C 0.4178 0.52244 0.4321 0.0
C363 C 0.40772 0.50058 0.40884 0.0
C364 C 0.96963 0.99437 -0.04191 0.0
C365 C 0.95503 0.98013 -0.01696 0.0
C366 C -0.02304 0.0102 0.92817 0.0
C367 C -0.0075 0.02559 0.90354 0.0
C368 C 0.92009 0.98362 0.45836 0.0
C369 C 0.90977 0.00556 0.48158 0.0
C370 C 0.949 0.97272 0.42931 0.0
C371 C -0.01593 0.96655 0.40582 0.0
C372 C 0.4821 0.49354 -0.04042 0.0
C373 C 0.49608 0.47951 -0.01537 0.0
C374 C 0.4753 0.50955 0.9297 0.0
C375 C 0.45979 0.5254 0.90517 0.0
loop_
_geom_bond_atom_site_label_1
_geom_bond_atom_site_label_2
_geom_bond_distance
_geom_bond_site_symmetry_2
_ccdc_geom_bond_type
C0 O27 1.312 . S
C0 O28 1.208 . S
C1 O22 1.331 . S
C1 O25 1.244 . S
C2 O24 1.264 . S
C2 O26 1.273 . S
Mg3 O5 1.936 . S
Mg3 O12 2.081 . S
Mg3 O14 2.023 . S
Mg3 O18 2.031 . S
Mg3 O27 2.291 . S
Mg4 O5 1.963 . S
Mg4 O15 1.942 . S
Mg4 O16 1.955 . S
Mg4 O23 1.986 . S
O5 Mg3 1.936 . S
O5 Mg4 1.963 . S
O5 Mg6 1.915 . S
Mg6 O5 1.915 . S
Mg6 O7 1.915 . S
Mg6 O11 2.013 . S
Mg6 O17 2.114 . S
Mg6 O21 2.013 . S
Mg6 O27 2.114 . S
O7 Mg6 1.915 . S
O7 Mg8 1.936 . S
O7 Mg9 1.963 . S
Mg8 O7 1.936 . S
Mg8 O17 2.291 . S
Mg8 O22 2.081 . S
Mg8 O24 2.023 . S
Mg8 O28 2.031 . S
Mg9 O7 1.963 . S
Mg9 O13 1.986 . S
Mg9 O25 1.942 . S
Mg9 O26 1.955 . S
C10 O21 1.191 . S
C10 O23 1.307 . S
O11 Mg6 2.013 . S
O11 C30 1.191 . S
O12 Mg3 2.081 . S
O12 C20 1.331 . S
O13 Mg9 1.986 . S
O13 C30 1.307 . S
O14 Mg3 2.023 . S
O14 C29 1.264 . S
O15 Mg4 1.942 . S
O15 C20 1.244 . S
O16 Mg4 1.955 . S
O16 C29 1.273 . S
O17 Mg6 2.114 . S
O17 Mg8 2.291 . S
O17 C19 1.312 . S
O18 Mg3 2.031 . S
O18 C19 1.208 . S
C19 O17 1.312 . S
C19 O18 1.208 . S
C20 O12 1.331 . S
C20 O15 1.244 . S
O21 Mg6 2.013 . S
O21 C10 1.191 . S
O22 C1 1.331 . S
O22 Mg8 2.081 . S
O23 Mg4 1.986 . S
O23 C10 1.307 . S
O24 C2 1.264 . S
O24 Mg8 2.023 . S
O25 C1 1.244 . S
O25 Mg9 1.942 . S
O26 C2 1.273 . S
O26 Mg9 1.955 . S
O27 C0 1.312 . S
O27 Mg3 2.291 . S
O27 Mg6 2.114 . S
O28 C0 1.208 . S
O28 Mg8 2.031 . S
C29 O14 1.264 . S
C29 O16 1.273 . S
C30 O11 1.191 . S
C30 O13 1.307 . S
C31 O58 1.312 . S
C31 O59 1.208 . S
C32 O53 1.331 . S
C32 O56 1.244 1_565 S
C33 O55 1.264 . S
C33 O57 1.273 . S
Mg34 O36 1.936 1_655 S
Mg34 O43 2.081 . S
Mg34 O45 2.023 . S
Mg34 O49 2.031 1_655 S
Mg34 O58 2.291 1_655 S
Mg35 O36 1.963 1_655 S
Mg35 O46 1.942 . S
Mg35 O47 1.955 . S
Mg35 O54 1.986 1_655 S
O36 Mg34 1.936 1_455 S
O36 Mg35 1.963 1_455 S
O36 Mg37 1.915 . S
Mg37 O36 1.915 . S
Mg37 O38 1.915 . S
Mg37 O42 2.013 . S
Mg37 O48 2.114 . S
Mg37 O52 2.013 . S
Mg37 O58 2.114 . S
O38 Mg37 1.915 . S
O38 Mg39 1.936 . S
O38 Mg40 1.963 . S
Mg39 O38 1.936 . S
Mg39 O48 2.291 . S
Mg39 O53 2.081 1_545 S
Mg39 O55 2.023 . S
Mg39 O59 2.031 . S
Mg40 O38 1.963 . S
Mg40 O44 1.986 . S
Mg40 O56 1.942 . S
Mg40 O57 1.955 . S
C41 O52 1.191 . S
C41 O54 1.307 . S
O42 Mg37 2.013 . S
O42 C61 1.191 . S
O43 Mg34 2.081 . S
O43 C51 1.331 . S
O44 Mg40 1.986 . S
O44 C61 1.307 . S
O45 Mg34 2.023 . S
O45 C60 1.264 . S
O46 Mg35 1.942 . S
O46 C51 1.244 . S
O47 Mg35 1.955 . S
O47 C60 1.273 . S
O48 Mg37 2.114 . S
O48 Mg39 2.291 . S
O48 C50 1.312 . S
O49 Mg34 2.031 1_455 S
O49 C50 1.208 . S
C50 O48 1.312 . S
C50 O49 1.208 . S
C51 O43 1.331 . S
C51 O46 1.244 . S
O52 Mg37 2.013 . S
O52 C41 1.191 . S
O53 C32 1.331 . S
O53 Mg39 2.081 1_565 S
O54 Mg35 1.986 1_455 S
O54 C41 1.307 . S
O55 C33 1.264 . S
O55 Mg39 2.023 . S
O56 C32 1.244 1_545 S
O56 Mg40 1.942 . S
O57 C33 1.273 . S
O57 Mg40 1.955 . S
O58 C31 1.312 . S
O58 Mg34 2.291 1_455 S
O58 Mg37 2.114 . S
O59 C31 1.208 . S
O59 Mg39 2.031 . S
C60 O45 1.264 . S
C60 O47 1.273 . S
C61 O42 1.191 . S
C61 O44 1.307 . S
C62 O89 1.312 . S
C62 O90 1.208 . S
C63 O84 1.331 . S
C63 O87 1.244 . S
C64 O86 1.264 . S
C64 O88 1.273 . S
Mg65 O67 1.936 . S
Mg65 O74 2.081 . S
Mg65 O76 2.023 . S
Mg65 O80 2.031 . S
Mg65 O89 2.291 1_455 S
Mg66 O67 1.963 . S
Mg66 O77 1.942 . S
Mg66 O78 1.955 . S
Mg66 O85 1.986 . S
O67 Mg65 1.936 . S
O67 Mg66 1.963 . S
O67 Mg68 1.915 1_455 S
Mg68 O67 1.915 1_655 S
Mg68 O69 1.915 . S
Mg68 O73 2.013 . S
Mg68 O79 2.114 . S
Mg68 O83 2.013 . S
Mg68 O89 2.114 . S
O69 Mg68 1.915 . S
O69 Mg70 1.936 . S
O69 Mg71 1.963 . S
Mg70 O69 1.936 . S
Mg70 O79 2.291 . S
Mg70 O84 2.081 . S
Mg70 O86 2.023 . S
Mg70 O90 2.031 . S
Mg71 O69 1.963 . S
Mg71 O75 1.986 . S
Mg71 O87 1.942 . S
Mg71 O88 1.955 . S
C72 O83 1.191 . S
C72 O85 1.307 1_655 S
O73 Mg68 2.013 . S
O73 C92 1.191 . S
O74 Mg65 2.081 . S
O74 C82 1.331 . S
O75 Mg71 1.986 . S
O75 C92 1.307 . S
O76 Mg65 2.023 . S
O76 C91 1.264 . S
O77 Mg66 1.942 . S
O77 C82 1.244 . S
O78 Mg66 1.955 . S
O78 C91 1.273 . S
O79 Mg68 2.114 . S
O79 Mg70 2.291 . S
O79 C81 1.312 . S
O80 Mg65 2.031 . S
O80 C81 1.208 1_455 S
C81 O79 1.312 . S
C81 O80 1.208 1_655 S
C82 O74 1.331 . S
C82 O77 1.244 . S
O83 Mg68 2.013 . S
O83 C72 1.191 . S
O84 C63 1.331 . S
O84 Mg70 2.081 . S
O85 Mg66 1.986 . S
O85 C72 1.307 1_455 S
O86 C64 1.264 . S
O86 Mg70 2.023 . S
O87 C63 1.244 . S
O87 Mg71 1.942 . S
O88 C64 1.273 . S
O88 Mg71 1.955 . S
O89 C62 1.312 . S
O89 Mg65 2.291 1_655 S
O89 Mg68 2.114 . S
O90 C62 1.208 . S
O90 Mg70 2.031 . S
C91 O76 1.264 . S
C91 O78 1.273 . S
C92 O73 1.191 . S
C92 O75 1.307 . S
C93 O120 1.312 . S
C93 O121 1.208 . S
C94 O115 1.331 . S
C94 O118 1.244 . S
C95 O117 1.264 . S
C95 O119 1.273 . S
Mg96 O98 1.936 . S
Mg96 O105 2.081 . S
Mg96 O107 2.023 . S
Mg96 O111 2.031 . S
Mg96 O120 2.291 . S
Mg97 O98 1.963 . S
Mg97 O108 1.942 . S
Mg97 O109 1.955 . S
Mg97 O116 1.986 . S
O98 Mg96 1.936 . S
O98 Mg97 1.963 . S
O98 Mg99 1.915 . S
Mg99 O98 1.915 . S
Mg99 O100 1.915 . S
Mg99 O104 2.013 . S
Mg99 O110 2.114 . S
Mg99 O114 2.013 . S
Mg99 O120 2.114 . S
O100 Mg99 1.915 . S
O100 Mg101 1.936 . S
O100 Mg102 1.963 . S
Mg101 O100 1.936 . S
Mg101 O110 2.291 . S
Mg101 O115 2.081 . S
Mg101 O117 2.023 . S
Mg101 O121 2.031 . S
Mg102 O100 1.963 . S
Mg102 O106 1.986 . S
Mg102 O118 1.942 . S
Mg102 O119 1.955 . S
C103 O114 1.191 . S
C103 O116 1.307 . S
O104 Mg99 2.013 . S
O104 C123 1.191 . S
O105 Mg96 2.081 . S
O105 C113 1.331 . S
O106 Mg102 1.986 . S
O106 C123 1.307 . S
O107 Mg96 2.023 . S
O107 C122 1.264 . S
O108 Mg97 1.942 . S
O108 C113 1.244 . S
O109 Mg97 1.955 . S
O109 C122 1.273 . S
O110 Mg99 2.114 . S
O110 Mg101 2.291 . S
O110 C112 1.312 . S
O111 Mg96 2.031 . S
O111 C112 1.208 . S
C112 O110 1.312 . S
C112 O111 1.208 . S
C113 O105 1.331 . S
C113 O108 1.244 . S
O114 Mg99 2.013 . S
O114 C103 1.191 . S
O115 C94 1.331 . S
O115 Mg101 2.081 . S
O116 Mg97 1.986 . S
O116 C103 1.307 . S
O117 C95 1.264 . S
O117 Mg101 2.023 . S
O118 C94 1.244 . S
O118 Mg102 1.942 . S
O119 C95 1.273 . S
O119 Mg102 1.955 . S
O120 C93 1.312 . S
O120 Mg96 2.291 . S
O120 Mg99 2.114 . S
O121 C93 1.208 . S
O121 Mg101 2.031 . S
C122 O107 1.264 . S
C122 O109 1.273 . S
C123 O104 1.191 . S
C123 O106 1.307 . S
C124 O151 1.312 . S
C124 O152 1.208 . S
C125 O146 1.331 . S
C125 O149 1.244 . S
C126 O148 1.264 . S
C126 O150 1.273 . S
Mg127 O129 1.936 . S
Mg127 O136 2.081 . S
Mg127 O138 2.023 . S
Mg127 O142 2.031 . S
Mg127 O151 2.291 . S
Mg128 O129 1.963 . S
Mg128 O139 1.942 . S
Mg128 O140 1.955 . S
Mg128 O147 1.986 . S
O129 Mg127 1.936 . S
O129 Mg128 1.963 . S
O129 Mg130 1.915 . S
Mg130 O129 1.915 . S
Mg130 O131 1.915 . S
Mg130 O135 2.013 . S
Mg130 O141 2.114 . S
Mg130 O145 2.013 . S
Mg130 O151 2.114 . S
O131 Mg130 1.915 . S
O131 Mg132 1.936 . S
O131 Mg133 1.963 . S
Mg132 O131 1.936 . S
Mg132 O141 2.291 . S
Mg132 O146 2.081 . S
Mg132 O148 2.023 . S
Mg132 O152 2.031 . S
Mg133 O131 1.963 . S
Mg133 O137 1.986 . S
Mg133 O149 1.942 . S
Mg133 O150 1.955 . S
C134 O145 1.191 . S
C134 O147 1.307 . S
O135 Mg130 2.013 . S
O135 C154 1.191 . S
O136 Mg127 2.081 . S
O136 C144 1.331 . S
O137 Mg133 1.986 . S
O137 C154 1.307 . S
O138 Mg127 2.023 . S
O138 C153 1.264 . S
O139 Mg128 1.942 . S
O139 C144 1.244 . S
O140 Mg128 1.955 . S
O140 C153 1.273 . S
O141 Mg130 2.114 . S
O141 Mg132 2.291 . S
O141 C143 1.312 . S
O142 Mg127 2.031 . S
O142 C143 1.208 . S
C143 O141 1.312 . S
C143 O142 1.208 . S
C144 O136 1.331 . S
C144 O139 1.244 . S
O145 Mg130 2.013 . S
O145 C134 1.191 . S
O146 C125 1.331 . S
O146 Mg132 2.081 . S
O147 Mg128 1.986 . S
O147 C134 1.307 . S
O148 C126 1.264 . S
O148 Mg132 2.023 . S
O149 C125 1.244 . S
O149 Mg133 1.942 . S
O150 C126 1.273 . S
O150 Mg133 1.955 . S
O151 C124 1.312 . S
O151 Mg127 2.291 . S
O151 Mg130 2.114 . S
O152 C124 1.208 . S
O152 Mg132 2.031 . S
C153 O138 1.264 . S
C153 O140 1.273 . S
C154 O135 1.191 . S
C154 O137 1.307 . S
C155 O182 1.312 . S
C155 O183 1.208 . S
C156 O177 1.331 . S
C156 O180 1.244 . S
C157 O179 1.264 . S
C157 O181 1.273 . S
Mg158 O160 1.936 . S
Mg158 O167 2.081 1_565 S
Mg158 O169 2.023 . S
Mg158 O173 2.031 . S
Mg158 O182 2.291 . S
Mg159 O160 1.963 . S
Mg159 O170 1.942 . S
Mg159 O171 1.955 . S
Mg159 O178 1.986 . S
O160 Mg158 1.936 . S
O160 Mg159 1.963 . S
O160 Mg161 1.915 . S
Mg161 O160 1.915 . S
Mg161 O162 1.915 . S
Mg161 O166 2.013 . S
Mg161 O172 2.114 . S
Mg161 O176 2.013 . S
Mg161 O182 2.114 . S
O162 Mg161 1.915 . S
O162 Mg163 1.936 1_655 S
O162 Mg164 1.963 1_655 S
Mg163 O162 1.936 1_455 S
Mg163 O172 2.291 1_455 S
Mg163 O177 2.081 . S
Mg163 O179 2.023 . S
Mg163 O183 2.031 1_455 S
Mg164 O162 1.963 1_455 S
Mg164 O168 1.986 1_455 S
Mg164 O180 1.942 . S
Mg164 O181 1.955 . S
C165 O176 1.191 . S
C165 O178 1.307 . S
O166 Mg161 2.013 . S
O166 C185 1.191 . S
O167 Mg158 2.081 1_545 S
O167 C175 1.331 . S
O168 Mg164 1.986 1_655 S
O168 C185 1.307 . S
O169 Mg158 2.023 . S
O169 C184 1.264 . S
O170 Mg159 1.942 . S
O170 C175 1.244 1_565 S
O171 Mg159 1.955 . S
O171 C184 1.273 . S
O172 Mg161 2.114 . S
O172 Mg163 2.291 1_655 S
O172 C174 1.312 . S
O173 Mg158 2.031 . S
O173 C174 1.208 . S
C174 O172 1.312 . S
C174 O173 1.208 . S
C175 O167 1.331 . S
C175 O170 1.244 1_545 S
O176 Mg161 2.013 . S
O176 C165 1.191 . S
O177 C156 1.331 . S
O177 Mg163 2.081 . S
O178 Mg159 1.986 . S
O178 C165 1.307 . S
O179 C157 1.264 . S
O179 Mg163 2.023 . S
O180 C156 1.244 . S
O180 Mg164 1.942 . S
O181 C157 1.273 . S
O181 Mg164 1.955 . S
O182 C155 1.312 . S
O182 Mg158 2.291 . S
O182 Mg161 2.114 . S
O183 C155 1.208 . S
O183 Mg163 2.031 1_655 S
C184 O169 1.264 . S
C184 O171 1.273 . S
C185 O166 1.191 . S
C185 O168 1.307 . S
C186 O213 1.312 . S
C186 O214 1.208 . S
C187 O208 1.331 . S
C187 O211 1.244 . S
C188 O210 1.264 . S
C188 O212 1.273 . S
Mg189 O191 1.936 . S
Mg189 O198 2.082 1_565 S
Mg189 O200 2.023 . S
Mg189 O204 2.031 . S
Mg189 O213 2.291 . S
Mg190 O191 1.963 . S
Mg190 O201 1.942 . S
Mg190 O202 1.955 . S
Mg190 O209 1.986 . S
O191 Mg189 1.936 . S
O191 Mg190 1.963 . S
O191 Mg192 1.915 . S
Mg192 O191 1.915 . S
Mg192 O193 1.915 . S
Mg192 O197 2.013 . S
Mg192 O203 2.114 . S
Mg192 O207 2.013 . S
Mg192 O213 2.114 . S
O193 Mg192 1.915 . S
O193 Mg194 1.936 1_455 S
O193 Mg195 1.963 1_455 S
Mg194 O193 1.936 1_655 S
Mg194 O203 2.291 1_655 S
Mg194 O208 2.081 . S
Mg194 O210 2.023 . S
Mg194 O214 2.031 1_655 S
Mg195 O193 1.963 1_655 S
Mg195 O199 1.986 1_655 S
Mg195 O211 1.942 . S
Mg195 O212 1.955 . S
C196 O207 1.191 . S
C196 O209 1.307 . S
O197 Mg192 2.013 . S
O197 C216 1.191 . S
O198 Mg189 2.082 1_545 S
O198 C206 1.330 . S
O199 Mg195 1.986 1_455 S
O199 C216 1.307 . S
O200 Mg189 2.023 . S
O200 C215 1.264 . S
O201 Mg190 1.942 . S
O201 C206 1.244 1_565 S
O202 Mg190 1.955 . S
O202 C215 1.273 . S
O203 Mg192 2.114 . S
O203 Mg194 2.291 1_455 S
O203 C205 1.312 . S
O204 Mg189 2.031 . S
O204 C205 1.208 . S
C205 O203 1.312 . S
C205 O204 1.208 . S
C206 O198 1.330 . S
C206 O201 1.244 1_545 S
O207 Mg192 2.013 . S
O207 C196 1.191 . S
O208 C187 1.331 . S
O208 Mg194 2.081 . S
O209 Mg190 1.986 . S
O209 C196 1.307 . S
O210 C188 1.264 . S
O210 Mg194 2.023 . S
O211 C187 1.244 . S
O211 Mg195 1.942 . S
O212 C188 1.273 . S
O212 Mg195 1.955 . S
O213 C186 1.312 . S
O213 Mg189 2.291 . S
O213 Mg192 2.114 . S
O214 C186 1.208 . S
O214 Mg194 2.031 1_455 S
C215 O200 1.264 . S
C215 O202 1.273 . S
C216 O197 1.191 . S
C216 O199 1.307 . S
C217 O244 1.312 . S
C217 O245 1.208 . S
C218 O239 1.331 . S
C218 O242 1.244 . S
C219 O241 1.264 . S
C219 O243 1.273 . S
Mg220 O222 1.936 . S
Mg220 O229 2.081 . S
Mg220 O231 2.023 . S
Mg220 O235 2.031 . S
Mg220 O244 2.291 . S
Mg221 O222 1.963 . S
Mg221 O232 1.942 . S
Mg221 O233 1.955 . S
Mg221 O240 1.986 . S
O222 Mg220 1.936 . S
O222 Mg221 1.963 . S
O222 Mg223 1.915 . S
Mg223 O222 1.915 . S
Mg223 O224 1.915 . S
Mg223 O228 2.013 . S
Mg223 O234 2.114 . S
Mg223 O238 2.013 . S
Mg223 O244 2.114 . S
O224 Mg223 1.915 . S
O224 Mg225 1.936 . S
O224 Mg226 1.963 . S
Mg225 O224 1.936 . S
Mg225 O234 2.291 . S
Mg225 O239 2.081 . S
Mg225 O241 2.023 . S
Mg225 O245 2.031 . S
Mg226 O224 1.963 . S
Mg226 O230 1.986 . S
Mg226 O242 1.942 . S
Mg226 O243 1.955 . S
C227 O238 1.191 . S
C227 O240 1.307 . S
O228 Mg223 2.013 . S
O228 C247 1.191 . S
O229 Mg220 2.081 . S
O229 C237 1.331 . S
O230 Mg226 1.986 . S
O230 C247 1.307 . S
O231 Mg220 2.023 . S
O231 C246 1.264 . S
O232 Mg221 1.942 . S
O232 C237 1.244 . S
O233 Mg221 1.955 . S
O233 C246 1.273 . S
O234 Mg223 2.114 . S
O234 Mg225 2.291 . S
O234 C236 1.312 . S
O235 Mg220 2.031 . S
O235 C236 1.208 . S
C236 O234 1.312 . S
C236 O235 1.208 . S
C237 O229 1.331 . S
C237 O232 1.244 . S
O238 Mg223 2.013 . S
O238 C227 1.191 . S
O239 C218 1.331 . S
O239 Mg225 2.081 . S
O240 Mg221 1.986 . S
O240 C227 1.307 . S
O241 C219 1.264 . S
O241 Mg225 2.023 . S
O242 C218 1.244 . S
O242 Mg226 1.942 . S
O243 C219 1.273 . S
O243 Mg226 1.955 . S
O244 C217 1.312 . S
O244 Mg220 2.291 . S
O244 Mg223 2.114 . S
O245 C217 1.208 . S
O245 Mg225 2.031 . S
C246 O231 1.264 . S
C246 O233 1.273 . S
C247 O228 1.191 . S
C247 O230 1.307 . S
C248 C249 1.170 1_655 S
C248 C250 1.380 . S
C249 C248 1.170 1_455 S
C250 C248 1.380 . S
C250 C251 1.170 . S
C251 C250 1.170 . S
C252 C253 1.170 . S
C252 C254 1.380 . S
C253 C252 1.170 . S
C254 C252 1.380 . S
C254 C255 1.170 . S
C255 C254 1.170 . S
C256 C257 1.170 . S
C256 C258 1.380 . S
C257 C256 1.170 . S
C258 C256 1.380 . S
C258 C259 1.170 . S
C259 C258 1.170 . S
C260 C261 1.170 1_455 S
C260 C262 1.380 . S
C261 C260 1.170 1_655 S
C262 C260 1.380 . S
C262 C263 1.170 . S
C263 C262 1.170 . S
C264 C265 1.170 . S
C264 C266 1.380 . S
C265 C264 1.170 . S
C266 C264 1.380 . S
C266 C267 1.170 1_455 S
C267 C266 1.170 1_655 S
C268 C269 1.170 . S
C268 C270 1.380 . S
C269 C268 1.170 . S
C270 C268 1.380 . S
C270 C271 1.170 . S
C271 C270 1.170 . S
C272 C273 1.170 . S
C272 C274 1.380 . S
C273 C272 1.170 . S
C274 C272 1.380 . S
C274 C275 1.170 . S
C275 C274 1.170 . S
C276 C277 1.170 1_655 S
C276 C278 1.380 . S
C277 C276 1.170 1_455 S
C278 C276 1.380 . S
C278 C279 1.170 . S
C279 C278 1.170 . S
C280 C281 1.170 . S
C280 C282 1.380 . S
C281 C280 1.170 . S
C282 C280 1.380 . S
C282 C283 1.170 . S
C283 C282 1.170 . S
C284 C285 1.170 . S
C284 C286 1.381 . S
C285 C284 1.170 . S
C286 C284 1.381 . S
C286 C287 1.169 1_455 S
C287 C286 1.169 1_655 S
C288 C289 1.170 . S
C288 C290 1.380 . S
C289 C288 1.170 . S
C290 C288 1.380 . S
C290 C291 1.170 . S
C291 C290 1.170 . S
C292 C293 1.170 1_455 S
C292 C294 1.380 . S
C293 C292 1.170 1_655 S
C294 C292 1.380 . S
C294 C295 1.170 . S
C295 C294 1.170 . S
C296 C297 1.170 . S
C296 C298 1.380 . S
C297 C296 1.170 . S
C298 C296 1.380 . S
C298 C299 1.170 . S
C299 C298 1.170 . S
C300 C301 1.170 . S
C300 C302 1.380 1_554 S
C301 C300 1.170 . S
C302 C300 1.380 1_556 S
C302 C303 1.170 . S
C303 C302 1.170 . S
C304 C305 1.170 . S
C304 C306 1.380 . S
C305 C304 1.170 . S
C306 C304 1.380 . S
C306 C307 1.170 . S
C307 C306 1.170 . S
C308 C309 1.170 . S
C308 C310 1.380 1_554 S
C309 C308 1.170 . S
C310 C308 1.380 1_556 S
C310 C311 1.170 . S
C311 C310 1.170 . S
C312 C313 1.170 . S
C312 C314 1.380 . S
C313 C312 1.170 . S
C314 C312 1.380 . S
C314 C315 1.170 . S
C315 C314 1.170 . S
C316 C317 1.170 . S
C316 C318 1.380 1_554 S
C317 C316 1.170 . S
C318 C316 1.380 1_556 S
C318 C319 1.170 . S
C319 C318 1.170 . S
C320 C321 1.170 . S
C320 C322 1.380 . S
C321 C320 1.170 . S
C322 C320 1.380 . S
C322 C323 1.170 . S
C323 C322 1.170 . S
C324 C325 1.170 . S
C324 C326 1.381 . S
C325 C324 1.170 . S
C326 C324 1.381 . S
C326 C327 1.169 1_556 S
C327 C326 1.169 1_554 S
C328 C329 1.170 . S
C328 C330 1.380 . S
C329 C328 1.170 . S
C330 C328 1.380 . S
C330 C331 1.170 . S
C331 C330 1.170 . S
C332 C333 1.170 . S
C332 C334 1.380 . S
C333 C332 1.170 . S
C334 C332 1.380 . S
C334 C335 1.170 . S
C335 C334 1.170 . S
C336 C337 1.170 . S
C336 C338 1.380 . S
C337 C336 1.170 . S
C338 C336 1.380 . S
C338 C339 1.170 . S
C339 C338 1.170 . S
C340 C341 1.170 . S
C340 C342 1.380 . S
C341 C340 1.170 . S
C342 C340 1.380 . S
C342 C343 1.170 . S
C343 C342 1.170 . S
C344 C345 1.170 . S
C344 C346 1.380 . S
C345 C344 1.170 . S
C346 C344 1.380 . S
C346 C347 1.170 . S
C347 C346 1.170 . S
C348 C349 1.170 . S
C348 C350 1.380 . S
C349 C348 1.170 . S
C350 C348 1.380 . S
C350 C351 1.170 . S
C351 C350 1.170 . S
C352 C353 1.170 . S
C352 C354 1.380 . S
C353 C352 1.170 . S
C354 C352 1.380 . S
C354 C355 1.170 . S
C355 C354 1.170 . S
C356 C357 1.170 . S
C356 C358 1.380 . S
C357 C356 1.170 . S
C358 C356 1.380 . S
C358 C359 1.170 . S
C359 C358 1.170 . S
C360 C361 1.170 . S
C360 C362 1.380 . S
C361 C360 1.170 . S
C362 C360 1.380 . S
C362 C363 1.170 . S
C363 C362 1.170 . S
C364 C365 1.170 . S
C364 C366 1.379 1_664 S
C365 C364 1.170 . S
C366 C364 1.379 1_446 S
C366 C367 1.172 . S
C367 C366 1.172 . S
C368 C369 1.170 1_565 S
C368 C370 1.380 1_655 S
C369 C368 1.170 1_545 S
C370 C368 1.380 1_455 S
C370 C371 1.170 . S
C371 C370 1.170 . S
C372 C373 1.170 . S
C372 C374 1.380 1_554 S
C373 C372 1.170 . S
C374 C372 1.380 1_556 S
C374 C375 1.170 . S
C375 C374 1.170 . S
C249 C20 1.050 . S
C251 C1 1.102 . S
C253 C33 1.612 . S
C255 C60 1.618 . S
C257 C82 1.109 . S
C259 C63 1.081 . S
C261 C122 1.587 . S
C263 C95 1.624 . S
C265 C126 1.616 . S
C267 C153 1.604 . S
C269 C184 1.588 . S
C271 C157 1.625 . S
C273 C188 1.627 . S
C275 C215 1.587 . S
C277 C219 1.617 . S
C279 C246 1.597 . S
C281 C103 1.464 . S
C283 C0 1.451 . S
C285 C61 1.442 . S
C287 C81 1.468 . S
C289 C134 1.369 . S
C291 C247 1.331 . S
C293 C165 1.369 . S
C295 C196 1.331 . S
C297 C92 1.256 . S
C299 C2 1.219 . S
C301 C93 1.265 . S
C303 C51 1.117 . S
C305 C91 1.225 . S
C307 C10 1.254 . S
C309 C94 1.087 . S
C311 C50 1.264 . S
C313 C186 1.218 . S
C315 C125 1.090 . S
C317 C156 1.061 . S
C319 C236 1.246 . S
C321 C187 1.092 . S
C323 C124 1.218 . S
C325 C237 1.128 . S
C327 C155 1.236 . S
C329 C206 1.869 . S
C331 C19 1.904 . S
C333 C41 1.736 . S
C335 C218 1.795 . S
C337 C144 1.885 . S
C339 C62 1.900 . S
C341 C175 1.783 . S
C343 C123 1.701 . S
C345 C154 1.913 . S
C347 C64 1.984 1_565 S
C349 C113 1.786 . S
C351 C185 1.708 . S
C353 C29 1.981 . S
C355 C216 1.911 . S
C357 C227 1.743 . S
C359 C32 1.801 . S
C361 C143 1.288 . S
C363 C30 1.315 . S
C365 C174 1.312 . S
C367 C31 1.386 . S
C369 C72 1.331 . S
C371 C205 1.268 . S
C373 C112 1.317 . S
C375 C217 1.388 . S
