# Generated by pormake.
# Topology fob, (5)-cn, num edge types: 1
# Building blocks:
#     Node 0, Type 0, BuildingBlock: BEQFEK_clean_sbu_0, # of connection points: 5
#     Node 1, Type 0, BuildingBlock: BEQFEK_clean_sbu_0, # of connection points: 5
#     Node 2, Type 0, BuildingBlock: BEQFEK_clean_sbu_0, # of connection points: 5
#     Node 3, Type 0, BuildingBlock: BEQFEK_clean_sbu_0, # of connection points: 5
#     Node 4, Type 0, BuildingBlock: BEQFEK_clean_sbu_0, # of connection points: 5
#     Node 5, Type 0, BuildingBlock: BEQFEK_clean_sbu_0, # of connection points: 5
#     Node 6, Type 0, BuildingBlock: BEQFEK_clean_sbu_0, # of connection points: 5
#     Node 7, Type 0, BuildingBlock: BEQFEK_clean_sbu_0, # of connection points: 5
#     Node 8, Type 0, BuildingBlock: BEQFEK_clean_sbu_0, # of connection points: 5
#     Node 9, Type 0, BuildingBlock: BEQFEK_clean_sbu_0, # of connection points: 5
#     Node 10, Type 0, BuildingBlock: BEQFEK_clean_sbu_0, # of connection points: 5
#     Node 11, Type 0, BuildingBlock: BEQFEK_clean_sbu_0, # of connection points: 5
#     Node 12, Type 0, BuildingBlock: BEQFEK_clean_sbu_0, # of connection points: 5
#     Node 13, Type 0, BuildingBlock: BEQFEK_clean_sbu_0, # of connection points: 5
#     Node 14, Type 0, BuildingBlock: BEQFEK_clean_sbu_0, # of connection points: 5
#     Node 15, Type 0, BuildingBlock: BEQFEK_clean_sbu_0, # of connection points: 5
#     Edge 16, Type (0, 0), BuildingBlock: UVAHIK_clean_linker_0, # of connection points: 2
#     Edge 17, Type (0, 0), BuildingBlock: UVAHIK_clean_linker_0, # of connection points: 2
#     Edge 18, Type (0, 0), BuildingBlock: UVAHIK_clean_linker_0, # of connection points: 2
#     Edge 19, Type (0, 0), BuildingBlock: UVAHIK_clean_linker_0, # of connection points: 2
#     Edge 20, Type (0, 0), BuildingBlock: UVAHIK_clean_linker_0, # of connection points: 2
#     Edge 21, Type (0, 0), BuildingBlock: UVAHIK_clean_linker_0, # of connection points: 2
#     Edge 22, Type (0, 0), BuildingBlock: UVAHIK_clean_linker_0, # of connection points: 2
#     Edge 23, Type (0, 0), BuildingBlock: UVAHIK_clean_linker_0, # of connection points: 2
#     Edge 24, Type (0, 0), BuildingBlock: UVAHIK_clean_linker_0, # of connection points: 2
#     Edge 25, Type (0, 0), BuildingBlock: UVAHIK_clean_linker_0, # of connection points: 2
#     Edge 26, Type (0, 0), BuildingBlock: UVAHIK_clean_linker_0, # of connection points: 2
#     Edge 27, Type (0, 0), BuildingBlock: UVAHIK_clean_linker_0, # of connection points: 2
#     Edge 28, Type (0, 0), BuildingBlock: UVAHIK_clean_linker_0, # of connection points: 2
#     Edge 29, Type (0, 0), BuildingBlock: UVAHIK_clean_linker_0, # of connection points: 2
#     Edge 30, Type (0, 0), BuildingBlock: UVAHIK_clean_linker_0, # of connection points: 2
#     Edge 31, Type (0, 0), BuildingBlock: UVAHIK_clean_linker_0, # of connection points: 2
#     Edge 32, Type (0, 0), BuildingBlock: UVAHIK_clean_linker_0, # of connection points: 2
#     Edge 33, Type (0, 0), BuildingBlock: UVAHIK_clean_linker_0, # of connection points: 2
#     Edge 34, Type (0, 0), BuildingBlock: UVAHIK_clean_linker_0, # of connection points: 2
#     Edge 35, Type (0, 0), BuildingBlock: UVAHIK_clean_linker_0, # of connection points: 2
#     Edge 36, Type (0, 0), BuildingBlock: UVAHIK_clean_linker_0, # of connection points: 2
#     Edge 37, Type (0, 0), BuildingBlock: UVAHIK_clean_linker_0, # of connection points: 2
#     Edge 38, Type (0, 0), BuildingBlock: UVAHIK_clean_linker_0, # of connection points: 2
#     Edge 39, Type (0, 0), BuildingBlock: UVAHIK_clean_linker_0, # of connection points: 2
#     Edge 40, Type (0, 0), BuildingBlock: UVAHIK_clean_linker_0, # of connection points: 2
#     Edge 41, Type (0, 0), BuildingBlock: UVAHIK_clean_linker_0, # of connection points: 2
#     Edge 42, Type (0, 0), BuildingBlock: UVAHIK_clean_linker_0, # of connection points: 2
#     Edge 43, Type (0, 0), BuildingBlock: UVAHIK_clean_linker_0, # of connection points: 2
#     Edge 44, Type (0, 0), BuildingBlock: UVAHIK_clean_linker_0, # of connection points: 2
#     Edge 45, Type (0, 0), BuildingBlock: UVAHIK_clean_linker_0, # of connection points: 2
#     Edge 46, Type (0, 0), BuildingBlock: UVAHIK_clean_linker_0, # of connection points: 2
#     Edge 47, Type (0, 0), BuildingBlock: UVAHIK_clean_linker_0, # of connection points: 2
#     Edge 48, Type (0, 0), BuildingBlock: UVAHIK_clean_linker_0, # of connection points: 2
#     Edge 49, Type (0, 0), BuildingBlock: UVAHIK_clean_linker_0, # of connection points: 2
#     Edge 50, Type (0, 0), BuildingBlock: UVAHIK_clean_linker_0, # of connection points: 2
#     Edge 51, Type (0, 0), BuildingBlock: UVAHIK_clean_linker_0, # of connection points: 2
#     Edge 52, Type (0, 0), BuildingBlock: UVAHIK_clean_linker_0, # of connection points: 2
#     Edge 53, Type (0, 0), BuildingBlock: UVAHIK_clean_linker_0, # of connection points: 2
#     Edge 54, Type (0, 0), BuildingBlock: UVAHIK_clean_linker_0, # of connection points: 2
#     Edge 55, Type (0, 0), BuildingBlock: UVAHIK_clean_linker_0, # of connection points: 2
# Relax obj value: 0.096
# Max RMSD: 0.164
# Mean RMSD: 0.164
data_MOF--net-fob--node1-BEQFEK_clean_sbu_0--edge1-UVAHIK_clean_linker_0
_symmetry_space_group_name_H-M    P1
_symmetry_Int_Tables_number       1
_symmetry_cell_setting            triclinic
loop_
_symmetry_equiv_pos_as_xyz
'x, y, z'
_cell_length_a     25.305402
_cell_length_b     91.21548
_cell_length_c     69.900126
_cell_angle_alpha  89.913681
_cell_angle_beta   90.774043
_cell_angle_gamma 90.044748
loop_
_atom_site_label
_atom_site_type_symbol
_atom_site_fract_x
_atom_site_fract_y
_atom_site_fract_z
_atom_type_partial_charge
Co0 Co 0.1218 0.10282 0.45998 0.0
Co1 Co 0.13041 0.13749 0.45812 0.0
C2 C 0.22453 0.11787 0.45232 0.0
O3 O 0.19771 0.10614 0.45454 0.0
O4 O 0.20345 0.13051 0.45385 0.0
C5 C 0.09162 0.0724 0.45371 0.0
O6 O 0.08699 0.07628 0.43566 0.0
C7 C 0.15947 0.16817 0.46866 0.0
C8 C 0.09332 0.18021 0.45496 0.0
C9 C 0.1385 0.18219 0.46608 0.0
N10 N 0.12749 0.15846 0.4597 0.0
N11 N 0.08831 0.16579 0.45148 0.0
C12 C 0.20996 0.16403 0.47867 0.0
H13 H 0.22449 0.15333 0.47345 0.0
H14 H 0.20294 0.16299 0.49424 0.0
H15 H 0.24056 0.17256 0.47643 0.0
C16 C 0.08209 0.11028 0.49834 0.0
N17 N 0.09972 0.1143 0.48101 0.0
N18 N 0.10081 0.1287 0.47996 0.0
C19 C 0.08234 0.1343 0.49637 0.0
C20 C 0.0703 0.12284 0.50864 0.0
C21 C 0.08189 0.09477 0.5054 0.0
H22 H 0.11891 0.08924 0.50114 0.0
H23 H 0.07857 0.09414 0.52117 0.0
H24 H 0.04816 0.08884 0.49868 0.0
O25 O 0.0815 0.10796 0.4363 0.0
O26 O 0.08965 0.13217 0.43517 0.0
H27 H 0.04838 0.1522 0.51235 0.0
H28 H 0.11377 0.15542 0.50328 0.0
C29 C 0.07489 0.15032 0.50008 0.0
H30 H 0.05754 0.15569 0.48724 0.0
H31 H 0.05765 0.1609 0.44361 0.0
O32 O 0.10766 0.08178 0.46593 0.0
C33 C 0.07318 0.12019 0.42799 0.0
Co34 Co 0.13145 0.10193 0.76219 0.0
Co35 Co 0.12489 0.13632 0.76362 0.0
C36 C 0.05901 0.11774 0.78911 0.0
O37 O 0.07768 0.10596 0.78201 0.0
O38 O 0.07323 0.13035 0.78315 0.0
C39 C 0.10664 0.07068 0.75345 0.0
O40 O 0.05668 0.07398 0.75051 0.0
C41 C 0.0898 0.16744 0.76168 0.0
C42 C 0.16388 0.1778 0.75206 0.0
C43 C 0.11197 0.18088 0.75664 0.0
N44 N 0.12708 0.15702 0.75998 0.0
N45 N 0.17126 0.16334 0.7544 0.0
C46 C 0.03358 0.16421 0.76655 0.0
H47 H 0.02438 0.15247 0.76396 0.0
H48 H 0.00629 0.17118 0.75795 0.0
H49 H 0.02746 0.16654 0.78193 0.0
C50 C 0.10631 0.10791 0.72106 0.0
N51 N 0.11605 0.11227 0.7392 0.0
N52 N 0.11143 0.12664 0.74008 0.0
C53 C 0.09748 0.13181 0.72268 0.0
C54 C 0.09382 0.12013 0.71008 0.0
C55 C 0.11209 0.09251 0.71407 0.0
H56 H 0.14506 0.08699 0.72177 0.0
H57 H 0.07495 0.08643 0.71671 0.0
H58 H 0.11982 0.09227 0.69848 0.0
O59 O 0.20065 0.10756 0.77281 0.0
O60 O 0.19576 0.13172 0.77384 0.0
H61 H 0.12127 0.15415 0.7193 0.0
H62 H 0.0656 0.14897 0.7043 0.0
C63 C 0.08454 0.14753 0.71857 0.0
H64 H 0.05708 0.15165 0.7295 0.0
H65 H 0.20635 0.1577 0.75188 0.0
O66 O 0.13954 0.08063 0.758 0.0
C67 C 0.22097 0.1199 0.77687 0.0
Co68 Co 0.8672 0.90254 0.51598 0.0
Co69 Co 0.87076 0.8682 0.5225 0.0
C70 C 0.77075 0.88593 0.52666 0.0
O71 O 0.7927 0.89809 0.52242 0.0
O72 O 0.79655 0.87392 0.52683 0.0
C73 C 0.88787 0.93358 0.51939 0.0
O74 O 0.88968 0.93066 0.5378 0.0
C75 C 0.84241 0.83735 0.516 0.0
C76 C 0.91152 0.82581 0.52844 0.0
C77 C 0.86351 0.82346 0.51915 0.0
N78 N 0.87642 0.84735 0.52311 0.0
N79 N 0.91744 0.84037 0.53064 0.0
C80 C 0.79306 0.84129 0.50514 0.0
H81 H 0.79599 0.85259 0.49934 0.0
H82 H 0.78582 0.83345 0.49326 0.0
H83 H 0.75902 0.84087 0.51496 0.0
C84 C 0.90394 0.89315 0.47812 0.0
N85 N 0.89135 0.89009 0.49633 0.0
N86 N 0.89493 0.87586 0.49917 0.0
C87 C 0.91103 0.86944 0.48293 0.0
C88 C 0.91695 0.88015 0.46903 0.0
C89 C 0.89692 0.90796 0.46916 0.0
H90 H 0.85902 0.91281 0.47381 0.0
H91 H 0.89699 0.90747 0.45332 0.0
H92 H 0.92943 0.91525 0.47413 0.0
O93 O 0.90956 0.8999 0.53973 0.0
O94 O 0.91258 0.8758 0.54408 0.0
H95 H 0.94291 0.85095 0.4676 0.0
H96 H 0.88063 0.84776 0.47911 0.0
C97 C 0.91945 0.85331 0.48054 0.0
H98 H 0.9405 0.84882 0.49325 0.0
H99 H 0.94992 0.84559 0.53704 0.0
O100 O 0.87645 0.92335 0.5077 0.0
C101 C 0.92405 0.88875 0.54943 0.0
Co102 Co 0.84976 0.90072 0.21582 0.0
Co103 Co 0.87026 0.86643 0.21436 0.0
C104 C 0.95469 0.88822 0.20453 0.0
O105 O 0.92473 0.89921 0.20771 0.0
O106 O 0.93874 0.87505 0.20688 0.0
C107 C 0.84352 0.93295 0.21362 0.0
O108 O 0.87843 0.93225 0.19991 0.0
C109 C 0.91011 0.83579 0.22057 0.0
C110 C 0.83476 0.82373 0.21723 0.0
C111 C 0.888 0.82181 0.22127 0.0
N112 N 0.87127 0.84549 0.21661 0.0
N113 N 0.82657 0.83813 0.21451 0.0
C114 C 0.96724 0.8398 0.2227 0.0
H115 H 0.97591 0.84992 0.21459 0.0
H116 H 0.97671 0.84184 0.238 0.0
H117 H 0.99278 0.83077 0.21758 0.0
C118 C 0.83202 0.89327 0.2561 0.0
N119 N 0.8389 0.88914 0.23784 0.0
N120 N 0.84751 0.87493 0.23736 0.0
C121 C 0.84641 0.86957 0.25531 0.0
C122 C 0.83688 0.88105 0.26778 0.0
C123 C 0.8259 0.90886 0.26234 0.0
H124 H 0.79123 0.91373 0.25485 0.0
H125 H 0.86148 0.91521 0.25829 0.0
H126 H 0.81999 0.90971 0.278 0.0
O127 O 0.80551 0.89432 0.19395 0.0
O128 O 0.82075 0.8704 0.19319 0.0
H129 H 0.83668 0.84632 0.25351 0.0
H130 H 0.86297 0.85243 0.27623 0.0
C131 C 0.86337 0.85435 0.26058 0.0
H132 H 0.90396 0.85249 0.2554 0.0
H133 H 0.79008 0.84301 0.21141 0.0
O134 O 0.82847 0.92121 0.22171 0.0
C135 C 0.79866 0.88179 0.18634 0.0
Co136 Co 0.12218 0.60348 0.96727 0.0
Co137 Co 0.13172 0.63799 0.96851 0.0
C138 C 0.22045 0.61915 0.9546 0.0
O139 O 0.19481 0.60727 0.95753 0.0
O140 O 0.20109 0.63169 0.95864 0.0
C141 C 0.1333 0.57086 0.9705 0.0
O142 O 0.18365 0.57178 0.96633 0.0
C143 C 0.16421 0.66885 0.97626 0.0
C144 C 0.08547 0.67925 0.97781 0.0
C145 C 0.13901 0.68214 0.97959 0.0
N146 N 0.12697 0.65861 0.97278 0.0
N147 N 0.08015 0.66497 0.97356 0.0
C148 C 0.22201 0.66558 0.97789 0.0
H149 H 0.22828 0.65396 0.98204 0.0
H150 H 0.24143 0.67289 0.98855 0.0
H151 H 0.24048 0.66741 0.96378 0.0
C152 C 0.10125 0.60835 0.00828 0.0
N153 N 0.11092 0.61345 0.99057 0.0
N154 N 0.11562 0.6278 0.99123 0.0
C155 C 0.10968 0.63229 0.00943 0.0
C156 C 0.10014 0.62013 0.0208 0.0
C157 C 0.09256 0.59252 0.01294 0.0
H158 H 0.06098 0.58806 0.00345 0.0
H159 H 0.12935 0.5863 0.01021 0.0
H160 H 0.08077 0.59091 0.02802 0.0
O161 O 0.07252 0.60992 0.94705 0.0
O162 O 0.07961 0.6341 0.94796 0.0
H163 H 0.08476 0.65463 0.01108 0.0
H164 H 0.12152 0.64845 0.03187 0.0
C165 C 0.11827 0.64772 0.01606 0.0
H166 H 0.15509 0.65209 0.00983 0.0
H167 H 0.04435 0.65944 0.97158 0.0
O168 O 0.10547 0.58242 0.97118 0.0
C169 C 0.06014 0.62252 0.94065 0.0
Co170 Co 0.13042 0.60256 0.2769 0.0
Co171 Co 0.12959 0.63702 0.27812 0.0
C172 C 0.07672 0.61832 0.30823 0.0
O173 O 0.08885 0.60633 0.30007 0.0
O174 O 0.08981 0.63071 0.30119 0.0
C175 C 0.16087 0.57307 0.28189 0.0
O176 O 0.18225 0.57859 0.29753 0.0
C177 C 0.0851 0.66698 0.27418 0.0
C178 C 0.15852 0.68013 0.27428 0.0
C179 C 0.10403 0.68128 0.27303 0.0
N180 N 0.12672 0.65787 0.27586 0.0
N181 N 0.17037 0.66583 0.27596 0.0
C182 C 0.02877 0.66205 0.2749 0.0
H183 H 0.02609 0.65103 0.28155 0.0
H184 H 0.01224 0.66136 0.26016 0.0
H185 H 0.0048 0.67005 0.28302 0.0
C186 C 0.09102 0.60833 0.23792 0.0
N187 N 0.10362 0.6131 0.25558 0.0
N188 N 0.10532 0.62753 0.25554 0.0
C189 C 0.09544 0.63239 0.23761 0.0
C190 C 0.08582 0.62036 0.22587 0.0
C191 C 0.08735 0.59249 0.23254 0.0
H192 H 0.06538 0.5864 0.24365 0.0
H193 H 0.06702 0.59103 0.2185 0.0
H194 H 0.12775 0.58782 0.2318 0.0
O195 O 0.20501 0.60804 0.28185 0.0
O196 O 0.20451 0.63232 0.28208 0.0
H197 H 0.1124 0.64848 0.21568 0.0
H198 H 0.06847 0.65443 0.23412 0.0
C199 C 0.1043 0.64787 0.23122 0.0
H200 H 0.1381 0.65273 0.2392 0.0
H201 H 0.20846 0.6615 0.27715 0.0
O202 O 0.13309 0.58133 0.27112 0.0
C203 C 0.22914 0.62022 0.2833 0.0
Co204 Co 0.88131 0.40258 0.02644 0.0
Co205 Co 0.86878 0.36822 0.03075 0.0
C206 C 0.77626 0.38906 0.03345 0.0
O207 O 0.80408 0.40056 0.03077 0.0
O208 O 0.7967 0.37627 0.03334 0.0
C209 C 0.87733 0.43471 0.02002 0.0
O210 O 0.82779 0.4345 0.0254 0.0
C211 C 0.83479 0.3375 0.02293 0.0
C212 C 0.89816 0.32539 0.03821 0.0
C213 C 0.85279 0.32344 0.02722 0.0
N214 N 0.86851 0.34725 0.03088 0.0
N215 N 0.90614 0.3399 0.04001 0.0
C216 C 0.78515 0.34164 0.01236 0.0
H217 H 0.77288 0.35292 0.01604 0.0
H218 H 0.79215 0.34127 -0.00326 0.0
H219 H 0.75291 0.33382 0.01569 0.0
C220 C 0.91934 0.39313 0.98875 0.0
N221 N 0.90348 0.38998 0.00659 0.0
N222 N 0.90116 0.37567 0.00869 0.0
C223 C 0.91709 0.36923 0.99244 0.0
C224 C 0.92864 0.38006 0.97918 0.0
C225 C 0.91801 0.40826 0.98038 0.0
H226 H 0.88215 0.41408 0.98523 0.0
H227 H 0.91786 0.40811 0.96453 0.0
H228 H 0.95314 0.41444 0.98557 0.0
O229 O 0.9175 0.39809 0.05107 0.0
O230 O 0.90775 0.37403 0.0538 0.0
H231 H 0.94438 0.3503 0.97688 0.0
H232 H 0.87941 0.34868 0.98694 0.0
C233 C 0.91981 0.35301 0.98942 0.0
H234 H 0.9369 0.34763 0.00231 0.0
H235 H 0.93739 0.3448 0.04746 0.0
O236 O 0.90353 0.42284 0.01974 0.0
C237 C 0.92404 0.38621 0.06036 0.0
Co238 Co 0.85861 0.40363 0.72511 0.0
Co239 Co 0.87551 0.3694 0.7237 0.0
C240 C 0.95912 0.39023 0.71075 0.0
O241 O 0.93087 0.40142 0.71464 0.0
O242 O 0.94285 0.37718 0.71382 0.0
C243 C 0.85008 0.43533 0.72036 0.0
O244 O 0.87414 0.43345 0.704 0.0
C245 C 0.91453 0.33885 0.72881 0.0
C246 C 0.83811 0.32716 0.73047 0.0
C247 C 0.89225 0.32507 0.73153 0.0
N248 N 0.87509 0.3486 0.72641 0.0
N249 N 0.82967 0.34149 0.72721 0.0
C250 C 0.97174 0.34294 0.73004 0.0
H251 H 0.97628 0.35456 0.73445 0.0
H252 H 0.99316 0.33574 0.74033 0.0
H253 H 0.98958 0.34162 0.71573 0.0
C254 C 0.84923 0.39681 0.7661 0.0
N255 N 0.85233 0.39249 0.74775 0.0
N256 N 0.85981 0.37824 0.74727 0.0
C257 C 0.86184 0.37302 0.76529 0.0
C258 C 0.85527 0.38463 0.77781 0.0
C259 C 0.84427 0.41245 0.77225 0.0
H260 H 0.8088 0.41733 0.76528 0.0
H261 H 0.87938 0.4187 0.76749 0.0
H262 H 0.84051 0.41342 0.78799 0.0
O263 O 0.80807 0.39745 0.70492 0.0
O264 O 0.82114 0.37345 0.7042 0.0
H265 H 0.84784 0.3499 0.76501 0.0
H266 H 0.88321 0.35613 0.78603 0.0
C267 C 0.87815 0.3577 0.77039 0.0
H268 H 0.91607 0.35515 0.76342 0.0
H269 H 0.79271 0.34652 0.72598 0.0
O270 O 0.84183 0.42433 0.73107 0.0
C271 C 0.79822 0.38488 0.69787 0.0
Co272 Co 0.63051 0.10252 0.96599 0.0
Co273 Co 0.63983 0.13701 0.96355 0.0
C274 C 0.72803 0.11684 0.95162 0.0
O275 O 0.70272 0.10523 0.95596 0.0
O276 O 0.70835 0.12955 0.95421 0.0
C277 C 0.59512 0.07325 0.9592 0.0
O278 O 0.58855 0.07825 0.94171 0.0
C279 C 0.67736 0.16702 0.97293 0.0
C280 C 0.6134 0.18023 0.95969 0.0
C281 C 0.66067 0.18137 0.96979 0.0
N282 N 0.64129 0.1579 0.9651 0.0
N283 N 0.60323 0.16589 0.95725 0.0
C284 C 0.72787 0.16201 0.98218 0.0
H285 H 0.73735 0.15065 0.9778 0.0
H286 H 0.72357 0.16214 -0.00205 0.0
H287 H 0.76075 0.1695 0.9784 0.0
C288 C 0.60394 0.11 0.00577 0.0
N289 N 0.61903 0.11395 0.98811 0.0
N290 N 0.62071 0.12835 0.98701 0.0
C291 C 0.60545 0.13404 0.00382 0.0
C292 C 0.59452 0.1226 0.01628 0.0
C293 C 0.60025 0.09443 0.01245 0.0
H294 H 0.63449 0.08812 0.00716 0.0
H295 H 0.59962 0.0937 0.02829 0.0
H296 H 0.56366 0.08942 0.00647 0.0
O297 O 0.58002 0.10822 0.94538 0.0
O298 O 0.58671 0.13241 0.94388 0.0
H299 H 0.57073 0.15191 0.0197 0.0
H300 H 0.63514 0.15547 0.00999 0.0
C301 C 0.59658 0.15004 0.00725 0.0
H302 H 0.57794 0.15512 -0.00556 0.0
H303 H 0.57028 0.16155 0.9501 0.0
O304 O 0.61576 0.08155 0.97185 0.0
C305 C 0.56683 0.12044 0.93795 0.0
Co306 Co 0.62536 0.10399 0.26545 0.0
Co307 Co 0.6255 0.13864 0.26772 0.0
C308 C 0.57031 0.12002 0.2969 0.0
O309 O 0.58245 0.10801 0.2886 0.0
O310 O 0.58412 0.13247 0.29021 0.0
C311 C 0.61605 0.07157 0.26789 0.0
O312 O 0.59332 0.07308 0.28456 0.0
C313 C 0.59066 0.16998 0.26693 0.0
C314 C 0.66323 0.18022 0.2558 0.0
C315 C 0.612 0.18339 0.26118 0.0
N316 N 0.62761 0.15951 0.2647 0.0
N317 N 0.67098 0.16579 0.25829 0.0
C318 C 0.53526 0.16682 0.27289 0.0
H319 H 0.52649 0.15493 0.27151 0.0
H320 H 0.50673 0.17325 0.26409 0.0
H321 H 0.53065 0.16997 0.2881 0.0
C322 C 0.58316 0.11078 0.22684 0.0
N323 N 0.60022 0.11504 0.2443 0.0
N324 N 0.59935 0.12945 0.24526 0.0
C325 C 0.58123 0.13483 0.22847 0.0
C326 C 0.57049 0.1232 0.21623 0.0
C327 C 0.58421 0.09522 0.22008 0.0
H328 H 0.62458 0.09072 0.2222 0.0
H329 H 0.55687 0.08857 0.22885 0.0
H330 H 0.57296 0.09421 0.20477 0.0
O331 O 0.69937 0.10888 0.27159 0.0
O332 O 0.69969 0.13312 0.27259 0.0
H333 H 0.61276 0.15641 0.22481 0.0
H334 H 0.55478 0.1527 0.21014 0.0
C335 C 0.57387 0.1508 0.22429 0.0
H336 H 0.54844 0.15567 0.23534 0.0
H337 H 0.70556 0.16013 0.25511 0.0
O338 O 0.62881 0.0829 0.25841 0.0
C339 C 0.72372 0.12094 0.27393 0.0
Co340 Co 0.37079 0.90671 0.02057 0.0
Co341 Co 0.35504 0.87245 0.01998 0.0
C342 C 0.30026 0.89079 0.0485 0.0
O343 O 0.32099 0.90237 0.04159 0.0
O344 O 0.30912 0.87816 0.04138 0.0
C345 C 0.34649 0.93781 0.01242 0.0
O346 O 0.29819 0.93387 0.00761 0.0
C347 C 0.31527 0.84167 0.01594 0.0
C348 C 0.38775 0.83131 0.00497 0.0
C349 C 0.33579 0.82836 0.00963 0.0
N350 N 0.35354 0.8519 0.01483 0.0
N351 N 0.39673 0.84556 0.00843 0.0
C352 C 0.25974 0.84502 0.02153 0.0
H353 H 0.25173 0.85693 0.02011 0.0
H354 H 0.23131 0.83872 0.01253 0.0
H355 H 0.25423 0.84184 0.0367 0.0
C356 C 0.34609 0.90254 0.97919 0.0
N357 N 0.34939 0.89761 -0.00265 0.0
N358 N 0.33956 0.88342 -0.00249 0.0
C359 C 0.32786 0.87901 0.97959 0.0
C360 C 0.33199 0.89093 0.96739 0.0
C361 C 0.36457 0.91735 0.97285 0.0
H362 H 0.39591 0.92149 0.98266 0.0
H363 H 0.33073 0.92507 0.97288 0.0
H364 H 0.38029 0.91697 0.95812 0.0
O365 O 0.4412 0.89975 0.02812 0.0
O366 O 0.42904 0.87574 0.02801 0.0
H367 H 0.35153 0.85688 0.97454 0.0
H368 H 0.2973 0.86299 0.9595 0.0
C369 C 0.31494 0.86356 0.9741 0.0
H370 H 0.28655 0.8589 0.98438 0.0
H371 H 0.43224 0.85105 0.00608 0.0
O372 O 0.37965 0.9282 0.01793 0.0
C373 C 0.45865 0.88683 0.03054 0.0
Co374 Co 0.37209 0.90574 0.71085 0.0
Co375 Co 0.36116 0.8714 0.71214 0.0
C376 C 0.42697 0.88699 0.68264 0.0
O377 O 0.41667 0.8996 0.68945 0.0
O378 O 0.40866 0.87531 0.69017 0.0
C379 C 0.34922 0.93457 0.70131 0.0
O380 O 0.3325 0.9277 0.68586 0.0
C381 C 0.39625 0.84105 0.71943 0.0
C382 C 0.31959 0.82965 0.72213 0.0
C383 C 0.37372 0.82741 0.72306 0.0
N384 N 0.35711 0.8508 0.71658 0.0
N385 N 0.31145 0.84389 0.71806 0.0
C386 C 0.45347 0.84516 0.72008 0.0
H387 H 0.45797 0.85711 0.72268 0.0
H388 H 0.47468 0.83888 0.73142 0.0
H389 H 0.47143 0.84258 0.70609 0.0
C390 C 0.39908 0.90118 0.75125 0.0
N391 N 0.38999 0.89585 0.73362 0.0
N392 N 0.38324 0.88156 0.7346 0.0
C393 C 0.38676 0.87737 0.75307 0.0
C394 C 0.39697 0.88969 0.76423 0.0
C395 C 0.40532 0.91715 0.75562 0.0
H396 H 0.43179 0.92229 0.745 0.0
H397 H 0.42188 0.91888 0.77022 0.0
H398 H 0.36618 0.92259 0.75445 0.0
O399 O 0.29777 0.90169 0.70429 0.0
O400 O 0.28911 0.87756 0.70488 0.0
H401 H 0.3632 0.86236 0.77559 0.0
H402 H 0.40413 0.85467 0.75726 0.0
C403 C 0.37149 0.86244 0.76006 0.0
H404 H 0.33574 0.8586 0.75223 0.0
H405 H 0.27463 0.84895 0.71665 0.0
O406 O 0.37338 0.92727 0.71423 0.0
C407 C 0.26959 0.89026 0.7024 0.0
Co408 Co 0.61472 0.60288 0.46322 0.0
Co409 Co 0.63364 0.63711 0.46275 0.0
C410 C 0.72336 0.6159 0.45944 0.0
O411 O 0.69295 0.60472 0.4604 0.0
O412 O 0.70547 0.62894 0.4607 0.0
C413 C 0.61746 0.57051 0.46761 0.0
O414 O 0.66819 0.57085 0.46389 0.0
C415 C 0.67144 0.66724 0.47141 0.0
C416 C 0.60211 0.68011 0.4617 0.0
C417 C 0.65216 0.6815 0.46979 0.0
N418 N 0.6343 0.65798 0.46459 0.0
N419 N 0.5932 0.66577 0.45873 0.0
C420 C 0.72235 0.6623 0.48043 0.0
H421 H 0.71889 0.65084 0.48559 0.0
H422 H 0.73368 0.66957 0.49253 0.0
H423 H 0.75394 0.6627 0.46958 0.0
C424 C 0.56861 0.61056 0.50037 0.0
N425 N 0.58999 0.61453 0.48363 0.0
N426 N 0.59822 0.62876 0.4837 0.0
C427 C 0.58289 0.6343 0.50062 0.0
C428 C 0.56371 0.62291 0.51178 0.0
C429 C 0.55491 0.59511 0.50557 0.0
H430 H 0.52837 0.59047 0.49438 0.0
H431 H 0.59147 0.5884 0.50615 0.0
H432 H 0.53464 0.59446 0.51952 0.0
O433 O 0.58272 0.60885 0.43863 0.0
O434 O 0.59718 0.63282 0.4383 0.0
H435 H 0.57094 0.65735 0.49717 0.0
H436 H 0.58099 0.65175 0.52174 0.0
C437 C 0.59298 0.64977 0.50678 0.0
H438 H 0.63567 0.65223 0.50553 0.0
H439 H 0.55868 0.66125 0.45285 0.0
O440 O 0.59124 0.58238 0.46769 0.0
C441 C 0.57976 0.62124 0.43033 0.0
Co442 Co 0.6297 0.60726 0.76627 0.0
Co443 Co 0.62751 0.64174 0.76743 0.0
C444 C 0.56296 0.62304 0.79429 0.0
O445 O 0.57888 0.61102 0.787 0.0
O446 O 0.57824 0.63546 0.78792 0.0
C447 C 0.62863 0.57531 0.77072 0.0
O448 O 0.61087 0.5775 0.78805 0.0
C449 C 0.58644 0.67199 0.76286 0.0
C450 C 0.6613 0.68417 0.75953 0.0
C451 C 0.60693 0.68593 0.75959 0.0
N452 N 0.62703 0.66253 0.7645 0.0
N453 N 0.67157 0.66993 0.76268 0.0
C454 C 0.52972 0.66738 0.76295 0.0
H455 H 0.52621 0.65544 0.76006 0.0
H456 H 0.50655 0.67367 0.75213 0.0
H457 H 0.51314 0.66958 0.77727 0.0
C458 C 0.59622 0.61304 0.72647 0.0
N459 N 0.61043 0.61782 0.74398 0.0
N460 N 0.61124 0.63224 0.744 0.0
C461 C 0.59884 0.6371 0.72627 0.0
C462 C 0.58863 0.62508 0.71461 0.0
C463 C 0.58785 0.59722 0.72157 0.0
H464 H 0.567 0.59164 0.73339 0.0
H465 H 0.56428 0.59593 0.70818 0.0
H466 H 0.62682 0.59185 0.71983 0.0
O467 O 0.70094 0.61274 0.77576 0.0
O468 O 0.69957 0.63699 0.77605 0.0
H469 H 0.60505 0.6539 0.7045 0.0
H470 H 0.56392 0.65838 0.7245 0.0
C471 C 0.6009 0.65284 0.72022 0.0
H472 H 0.63476 0.65841 0.72732 0.0
H473 H 0.7091 0.66518 0.76314 0.0
O474 O 0.63639 0.58621 0.75979 0.0
C475 C 0.72355 0.62496 0.77897 0.0
Co476 Co 0.37155 0.40247 0.52366 0.0
Co477 Co 0.35715 0.36811 0.52693 0.0
C478 C 0.29882 0.38935 0.55216 0.0
O479 O 0.31883 0.40065 0.54426 0.0
O480 O 0.31003 0.37639 0.54662 0.0
C481 C 0.36047 0.43488 0.51866 0.0
O482 O 0.31331 0.43438 0.52627 0.0
C483 C 0.30774 0.33838 0.52436 0.0
C484 C 0.37972 0.32466 0.52502 0.0
C485 C 0.32518 0.32393 0.52399 0.0
N486 N 0.35034 0.34723 0.52546 0.0
N487 N 0.39308 0.3389 0.52587 0.0
C488 C 0.2518 0.34364 0.52475 0.0
H489 H 0.25018 0.35538 0.52883 0.0
H490 H 0.23337 0.34235 0.51037 0.0
H491 H 0.22873 0.33692 0.53493 0.0
C492 C 0.34613 0.39577 0.4834 0.0
N493 N 0.35113 0.39159 0.50178 0.0
N494 N 0.34593 0.37725 0.50292 0.0
C495 C 0.33801 0.37183 0.4852 0.0
C496 C 0.33764 0.38339 0.47228 0.0
C497 C 0.35637 0.41107 0.47656 0.0
H498 H 0.39684 0.41442 0.48102 0.0
H499 H 0.32803 0.41865 0.48337 0.0
H500 H 0.35271 0.41208 0.4608 0.0
O501 O 0.43985 0.39545 0.53382 0.0
O502 O 0.43033 0.37138 0.53566 0.0
H503 H 0.36932 0.35004 0.48626 0.0
H504 H 0.32948 0.35384 0.46508 0.0
C505 C 0.33381 0.35584 0.48066 0.0
H506 H 0.29877 0.35125 0.48783 0.0
H507 H 0.43164 0.34295 0.52673 0.0
O508 O 0.38679 0.42314 0.5167 0.0
C509 C 0.45821 0.38285 0.53785 0.0
Co510 Co 0.37896 0.40557 0.21784 0.0
Co511 Co 0.37432 0.37099 0.21801 0.0
C512 C 0.43335 0.38807 0.18804 0.0
O513 O 0.42191 0.40038 0.19554 0.0
O514 O 0.41799 0.37597 0.19535 0.0
C515 C 0.35325 0.4353 0.21146 0.0
O516 O 0.33156 0.42968 0.19594 0.0
C517 C 0.4119 0.34048 0.22405 0.0
C518 C 0.33594 0.32914 0.22873 0.0
C519 C 0.39006 0.32689 0.22853 0.0
N520 N 0.37235 0.35023 0.22192 0.0
N521 N 0.3271 0.3433 0.2245 0.0
C522 C 0.46912 0.34453 0.22346 0.0
H523 H 0.47411 0.35654 0.22539 0.0
H524 H 0.49177 0.33853 0.2347 0.0
H525 H 0.4851 0.34149 0.20931 0.0
C526 C 0.41117 0.40032 0.25767 0.0
N527 N 0.40119 0.3953 0.23993 0.0
N528 N 0.398 0.3809 0.24038 0.0
C529 C 0.4049 0.37632 0.25858 0.0
C530 C 0.41355 0.3885 0.27012 0.0
C531 C 0.41316 0.41623 0.26282 0.0
H532 H 0.43904 0.42214 0.2527 0.0
H533 H 0.42839 0.41787 0.27763 0.0
H534 H 0.37285 0.42095 0.26154 0.0
O535 O 0.3044 0.401 0.212 0.0
O536 O 0.30083 0.37673 0.21243 0.0
H537 H 0.38973 0.36031 0.28096 0.0
H538 H 0.42632 0.35372 0.26082 0.0
C539 C 0.39365 0.36101 0.26521 0.0
H540 H 0.35648 0.35703 0.25846 0.0
H541 H 0.29012 0.34836 0.22394 0.0
O542 O 0.37964 0.42697 0.22261 0.0
C543 C 0.27847 0.38912 0.21043 0.0
C544 C 0.18413 0.19793 0.49102 0.0
C545 C 0.15724 0.19659 0.47337 0.0
C546 C 0.19912 0.21173 0.49795 0.0
C547 C 0.1667 0.25097 0.49425 0.0
H548 H 0.30963 0.25696 0.51325 0.0
C549 C 0.25637 0.30863 0.50734 0.0
C550 C 0.29495 0.31017 0.52181 0.0
C551 C 0.23496 0.29482 0.50317 0.0
C552 C 0.2692 0.25546 0.50837 0.0
H553 H 0.12408 0.2088 0.44941 0.0
H554 H 0.14986 0.23282 0.46159 0.0
H555 H 0.2822 0.23271 0.50262 0.0
H556 H 0.33955 0.29877 0.54387 0.0
H557 H 0.30077 0.27483 0.53721 0.0
H558 H 0.15348 0.2737 0.50009 0.0
C559 C 0.15949 0.22319 0.47002 0.0
C560 C 0.25362 0.24154 0.50219 0.0
C561 C 0.14497 0.20941 0.46302 0.0
C562 C 0.30986 0.29785 0.53262 0.0
C563 C 0.28801 0.28411 0.52865 0.0
C564 C 0.18211 0.26489 0.50062 0.0
C565 C 0.18673 0.22451 0.48756 0.0
C566 C 0.2024 0.23917 0.49489 0.0
C567 C 0.25153 0.28231 0.51347 0.0
C568 C 0.23374 0.26736 0.50763 0.0
H569 H 0.19227 0.18844 0.49984 0.0
H570 H 0.21935 0.21243 0.51168 0.0
H571 H 0.12671 0.24942 0.48892 0.0
H572 H 0.24519 0.31788 0.49846 0.0
H573 H 0.20751 0.29386 0.49122 0.0
C574 C 0.9055 0.95121 0.49255 0.0
C575 C 0.90406 0.94822 0.51228 0.0
C576 C 0.92447 0.96468 0.48588 0.0
C577 C 0.95412 1.00283 0.50124 0.0
H578 H 0.04542 1.00298 0.45713 0.0
C579 C 0.07327 0.05407 0.47962 0.0
C580 C 0.07382 0.05769 0.46006 0.0
C581 C 0.05294 0.04061 0.48572 0.0
C582 C 0.01958 1.00315 0.46935 0.0
H583 H 0.92067 0.95719 0.54046 0.0
H584 H 0.9541 0.98053 0.52885 0.0
H585 H 0.00732 0.97994 0.46815 0.0
H586 H 0.05451 0.0498 0.43155 0.0
H587 H 0.01913 0.02632 0.4422 0.0
H588 H 0.96673 0.02602 0.50253 0.0
C589 C 0.94001 0.97257 0.51851 0.0
C590 C -0.00239 0.98994 0.47565 0.0
C591 C 0.92101 0.95912 0.52517 0.0
C592 C 0.05475 0.04737 0.44672 0.0
C593 C 0.03463 0.03388 0.45282 0.0
C594 C 0.97621 0.01602 0.49498 0.0
C595 C 0.94246 0.97548 0.49877 0.0
C596 C 0.9647 0.9896 0.49172 0.0
C597 C 0.03289 0.03041 0.47241 0.0
C598 C 0.00935 0.01634 0.479 0.0
H599 H 0.89264 0.94308 0.48221 0.0
H600 H 0.92502 0.96662 0.47059 0.0
H601 H 0.92827 1.00304 0.51346 0.0
H602 H 0.0878 0.06171 0.4903 0.0
H603 H 0.05297 0.03819 0.5009 0.0
C604 C 0.10205 0.04663 0.73614 0.0
C605 C 0.12691 0.05582 0.74962 0.0
C606 C 0.12554 0.03335 0.73096 0.0
C607 C 0.2204 0.00538 0.74685 0.0
H608 H 0.24347 0.9988 0.69282 0.0
C609 C 0.34879 0.9573 0.72146 0.0
C610 C 0.33093 0.94965 0.70519 0.0
C611 C 0.32599 0.97071 0.72641 0.0
C612 C 0.23679 1.00033 0.70795 0.0
H613 H 0.19436 0.05807 0.76888 0.0
H614 H 0.23447 0.03477 0.76019 0.0
H615 H 0.19475 0.02041 0.70304 0.0
H616 H 0.27629 0.95032 0.681 0.0
H617 H 0.2357 0.97334 0.68986 0.0
H618 H 0.2611 0.98521 0.75188 0.0
C619 C 0.19726 0.03786 0.7535 0.0
C620 C 0.20885 0.01272 0.71377 0.0
C621 C 0.17436 0.05121 0.75841 0.0
C622 C 0.29124 0.95596 0.69359 0.0
C623 C 0.26801 0.96924 0.69865 0.0
C624 C 0.24768 0.99288 0.74104 0.0
C625 C 0.17364 0.02893 0.73947 0.0
C626 C 0.2006 0.01538 0.73327 0.0
C627 C 0.28437 0.97668 0.71532 0.0
C628 C 0.25646 0.99021 0.72151 0.0
H629 H 0.06567 0.04997 0.72906 0.0
H630 H 0.10644 0.02658 0.72017 0.0
H631 H 0.21429 0.00715 0.76198 0.0
H632 H 0.3795 0.95275 0.73065 0.0
H633 H 0.34051 0.97628 0.7391 0.0
C634 C 0.96444 0.30665 0.72654 0.0
C635 C 0.91819 0.31093 0.73586 0.0
C636 C 0.98623 0.29278 0.72989 0.0
C637 C 0.94958 0.25586 0.74752 0.0
H638 H 0.10119 0.24984 0.74914 0.0
C639 C 0.04662 0.20011 0.76699 0.0
C640 C 0.08752 0.19559 0.75495 0.0
C641 C 0.02573 0.21428 0.76542 0.0
C642 C 0.05875 0.25136 0.74861 0.0
H643 H 0.85892 0.30425 0.7562 0.0
H644 H 0.89747 0.28024 0.76241 0.0
H645 H 0.06612 0.27458 0.74527 0.0
H646 H 0.13888 0.20246 0.73198 0.0
H647 H 0.10273 0.22709 0.72938 0.0
H648 H 0.94239 0.23261 0.75098 0.0
C649 C 0.91647 0.28741 0.75223 0.0
C650 C 0.03865 0.26552 0.74634 0.0
C651 C 0.89453 0.3012 0.74875 0.0
C652 C 0.10739 0.20558 0.74149 0.0
C653 C 0.08686 0.21972 0.74003 0.0
C654 C 0.96971 0.24171 0.74993 0.0
C655 C 0.96221 0.28294 0.74267 0.0
C656 C 0.9838 0.26794 0.74563 0.0
C657 C 0.04589 0.22423 0.75199 0.0
C658 C 0.02448 0.23931 0.75034 0.0
H659 H 0.98275 0.31379 0.71617 0.0
H660 H 0.02099 0.28961 0.72204 0.0
H661 H 0.90712 0.25727 0.74671 0.0
H662 H 0.03165 0.19294 0.77798 0.0
H663 H 0.99462 0.21755 0.77501 0.0
C664 C 0.78774 0.806 0.51395 0.0
C665 C 0.84218 0.80896 0.5135 0.0
C666 C 0.76842 0.79214 0.50899 0.0
C667 C 0.80917 0.75336 0.50459 0.0
H668 H 0.68011 0.75002 0.47438 0.0
C669 C 0.73123 0.69806 0.47433 0.0
C670 C 0.67656 0.6956 0.47564 0.0
C671 C 0.75275 0.71177 0.47899 0.0
C672 C 0.71594 0.75076 0.48298 0.0
H673 H 0.91914 0.79964 0.5078 0.0
H674 H 0.88545 0.77549 0.49897 0.0
H675 H 0.71497 0.77421 0.48225 0.0
H676 H 0.60168 0.7056 0.48282 0.0
H677 H 0.63913 0.7294 0.49098 0.0
H678 H 0.81005 0.72987 0.50527 0.0
C679 C 0.85765 0.78384 0.50326 0.0
C680 C 0.73589 0.76463 0.4875 0.0
C681 C 0.87693 0.7977 0.50824 0.0
C682 C 0.64398 0.70714 0.48165 0.0
C683 C 0.66539 0.7208 0.48625 0.0
C684 C 0.78923 0.73948 0.50003 0.0
C685 C 0.80315 0.78089 0.50358 0.0
C686 C 0.78258 0.76611 0.49846 0.0
C687 C 0.71997 0.72332 0.48486 0.0
C688 C 0.74219 0.73803 0.48928 0.0
H689 H 0.76007 0.81424 0.51862 0.0
H690 H 0.72632 0.79014 0.5098 0.0
H691 H 0.84485 0.7541 0.51326 0.0
H692 H 0.75727 0.68962 0.46911 0.0
H693 H 0.79488 0.71344 0.4775 0.0
C694 C 0.77985 0.94767 0.23296 0.0
C695 C 0.81996 0.94719 0.21923 0.0
C696 C 0.75651 0.96097 0.238 0.0
C697 C 0.77777 1.00118 0.2366 0.0
H698 H 0.62685 1.00274 0.24546 0.0
C699 C 0.66769 0.05587 0.24553 0.0
C700 C 0.63325 0.05694 0.2611 0.0
C701 C 0.6884 0.04233 0.24013 0.0
C702 C 0.66909 1.00244 0.24318 0.0
H703 H 0.86706 0.96041 0.20009 0.0
H704 H 0.82598 0.98363 0.20874 0.0
H705 H 0.66783 0.97953 0.23656 0.0
H706 H 0.59189 0.04448 0.28269 0.0
H707 H 0.62763 0.02071 0.27302 0.0
H708 H 0.77884 0.02412 0.24302 0.0
C709 C 0.81298 0.97371 0.21579 0.0
C710 C 0.69266 0.98914 0.23812 0.0
C711 C 0.83637 0.96038 0.21075 0.0
C712 C 0.61842 0.04404 0.27068 0.0
C713 C 0.63876 0.03043 0.26511 0.0
C714 C 0.75415 0.01447 0.24154 0.0
C715 C 0.77259 0.97417 0.22945 0.0
C716 C 0.74735 0.98834 0.23476 0.0
C717 C 0.6748 0.02948 0.25001 0.0
C718 C 0.69955 0.01527 0.24486 0.0
H719 H 0.76613 0.93774 0.23981 0.0
H720 H 0.72615 0.96092 0.24878 0.0
H721 H 0.82008 1.00094 0.23449 0.0
H722 H 0.67992 0.06555 0.23777 0.0
H723 H 0.71542 0.04193 0.22825 0.0
C724 C 0.8928 0.79464 0.21777 0.0
C725 C 0.91276 0.80755 0.22612 0.0
C726 C 0.9125 0.78095 0.22328 0.0
C727 C 0.02653 0.7629 0.2467 0.0
H728 H 0.92741 0.73108 0.25476 0.0
C729 C 0.09486 0.70806 0.27883 0.0
C730 C 0.07516 0.69523 0.27025 0.0
C731 C 0.07252 0.72167 0.27453 0.0
C732 C 0.95564 0.73981 0.2524 0.0
H733 H 0.96783 0.81612 0.24736 0.0
H734 H 0.00297 0.79226 0.25671 0.0
H735 H 0.89481 0.75507 0.24456 0.0
H736 H 0.01659 0.68662 0.25034 0.0
H737 H 0.97742 0.71039 0.2428 0.0
H738 H 0.0874 0.74767 0.25432 0.0
C739 C 0.9728 0.79276 0.24559 0.0
C740 C 0.93698 0.75355 0.24654 0.0
C741 C 0.95298 0.80647 0.2401 0.0
C742 C 0.03171 0.69623 0.25761 0.0
C743 C 0.00946 0.70989 0.25321 0.0
C744 C 0.04519 0.74917 0.2525 0.0
C745 C 0.95246 0.77984 0.23735 0.0
C746 C 0.97224 0.76525 0.24361 0.0
C747 C 0.03032 0.72281 0.26134 0.0
C748 C 0.00999 0.73745 0.25545 0.0
H749 H 0.86163 0.79512 0.20701 0.0
H750 H 0.89646 0.77122 0.21648 0.0
H751 H 0.05477 0.77162 0.24429 0.0
H752 H 0.12828 0.7076 0.28867 0.0
H753 H 0.08888 0.73135 0.28135 0.0
C754 C 0.32947 0.80438 0.99285 0.0
C755 C 0.31037 0.81383 0.00705 0.0
C756 C 0.30995 0.79017 0.99099 0.0
C757 C 0.19799 0.7663 0.00142 0.0
H758 H 0.30105 0.7352 -0.00433 0.0
C759 C 0.1355 0.70555 -0.00219 0.0
C760 C 0.16177 0.69656 0.98472 0.0
C761 C 0.15418 0.71963 0.00189 0.0
C762 C 0.27169 0.74375 -0.00297 0.0
H763 H 0.25577 0.81554 0.03061 0.0
H764 H 0.22046 0.79072 0.02698 0.0
H765 H 0.33087 0.76039 -1e-05 0.0
H766 H 0.22753 0.69533 0.96528 0.0
H767 H 0.25996 0.71998 0.97215 0.0
H768 H 0.1387 0.74977 -0.00204 0.0
C769 C 0.25045 0.79449 0.01721 0.0
C770 C 0.28881 0.75818 -0.00042 0.0
C771 C 0.27036 0.80876 0.01917 0.0
C772 C 0.2073 0.70188 0.97581 0.0
C773 C 0.22576 0.71603 0.97974 0.0
C774 C 0.1808 0.75187 -0.0013 0.0
C775 C 0.27073 0.78499 0.00328 0.0
C776 C 0.25216 0.76962 0.00162 0.0
C777 C 0.19918 0.72513 0.99273 0.0
C778 C 0.21745 0.74042 -0.00367 0.0
H779 H 0.36005 0.80794 0.98318 0.0
H780 H 0.3257 0.78318 0.97992 0.0
H781 H 0.16889 0.77493 0.00279 0.0
H782 H 0.10032 0.7017 0.00492 0.0
H783 H 0.13324 0.72619 0.01221 0.0
C784 C 0.87595 0.46201 0.01477 0.0
C785 C 0.90326 0.44861 0.01429 0.0
C786 C 0.9011 0.47506 0.0095 0.0
C787 C 0.03387 0.49152 0.00404 0.0
H788 H 0.9589 0.5205 0.97352 0.0
C789 C 0.13692 0.54337 0.97398 0.0
C790 C 0.10824 0.55653 0.97482 0.0
C791 C 0.11255 0.52997 0.97824 0.0
C792 C 0.98028 0.51258 0.98221 0.0
H793 H 0.9784 0.43843 0.00768 0.0
H794 H 0.02182 0.46109 -0.00159 0.0
H795 H 0.91465 0.49775 0.98223 0.0
H796 H 0.03137 0.5659 0.98091 0.0
H797 H 0.98951 0.54272 0.98853 0.0
H798 H 0.09938 0.50639 0.00413 0.0
C799 C 0.98124 0.46158 0.0031 0.0
C800 C 0.95485 0.49954 0.98721 0.0
C801 C 0.95615 0.44856 0.00833 0.0
C802 C 0.05474 0.55599 0.98001 0.0
C803 C 0.03051 0.54265 0.98428 0.0
C804 C 0.05929 0.50457 -0.00094 0.0
C805 C 0.95413 0.475 0.00366 0.0
C806 C 0.98125 0.48887 -0.00175 0.0
C807 C 0.05898 0.52946 0.98343 0.0
C808 C 0.03272 0.51531 0.98816 0.0
H809 H 0.83524 0.46245 0.01931 0.0
H810 H 0.87923 0.48524 0.01028 0.0
H811 H 0.05515 0.48361 0.01277 0.0
H812 H 0.17813 0.54339 0.97 0.0
H813 H 0.13551 0.51999 0.97727 0.0
C814 C 0.20947 0.54944 0.2868 0.0
C815 C 0.1754 0.55814 0.27554 0.0
C816 C 0.22822 0.53608 0.27991 0.0
C817 C 0.2047 0.50757 0.24313 0.0
H818 H 0.35366 0.49929 0.25129 0.0
C819 C 0.30646 0.45913 0.20591 0.0
C820 C 0.3399 0.45041 0.21741 0.0
C821 C 0.28824 0.47263 0.21254 0.0
C822 C 0.31191 0.50137 0.24903 0.0
H823 H 0.13278 0.55938 0.24843 0.0
H824 H 0.16571 0.5361 0.23637 0.0
H825 H 0.31572 0.52163 0.26436 0.0
H826 H 0.38216 0.44932 0.2446 0.0
H827 H 0.35021 0.47285 0.25617 0.0
H828 H 0.20087 0.4873 0.22781 0.0
C829 C 0.17769 0.53956 0.2506 0.0
C830 C 0.29011 0.51416 0.25656 0.0
C831 C 0.15891 0.55293 0.2575 0.0
C832 C 0.3565 0.45577 0.23536 0.0
C833 C 0.33827 0.46929 0.24198 0.0
C834 C 0.2265 0.49478 0.23559 0.0
C835 C 0.21333 0.5311 0.26158 0.0
C836 C 0.23622 0.5174 0.25373 0.0
C837 C 0.30309 0.47774 0.2308 0.0
C838 C 0.28036 0.49153 0.23846 0.0
H839 H 0.22276 0.55309 0.3008 0.0
H840 H 0.25482 0.52969 0.28888 0.0
H841 H 0.16293 0.50964 0.24089 0.0
H842 H 0.2931 0.45536 0.19198 0.0
H843 H 0.26198 0.47901 0.20343 0.0
C844 C 0.68068 0.2076 0.96327 0.0
C845 C 0.6859 0.19538 0.97539 0.0
C846 C 0.70021 0.22127 0.96885 0.0
C847 C 0.7911 0.23968 0.00302 0.0
H848 H 0.70309 0.27352 0.99186 0.0
C849 C 0.83619 0.29701 0.03412 0.0
C850 C 0.83059 0.30902 0.02164 0.0
C851 C 0.8183 0.28311 0.02872 0.0
C852 C 0.72836 0.26421 -0.00508 0.0
H853 H 0.71484 0.188 0.00309 0.0
H854 H 0.74928 0.21187 0.01286 0.0
H855 H 0.67375 0.24923 0.98192 0.0
H856 H 0.80391 0.31566 -0.00668 0.0
H857 H 0.77184 0.2915 0.98401 0.0
H858 H 0.84561 0.25471 0.01611 0.0
C859 C 0.73108 0.2108 -0.00118 0.0
C860 C 0.71161 0.25028 0.9892 0.0
C861 C 0.71162 0.19708 -0.00682 0.0
C862 C 0.80694 0.30682 0.00358 0.0
C863 C 0.78895 0.29291 -0.00182 0.0
C864 C 0.80782 0.25363 0.00878 0.0
C865 C 0.72498 0.22309 0.9868 0.0
C866 C 0.74287 0.23786 0.9931 0.0
C867 C 0.79466 0.28089 0.01066 0.0
C868 C 0.77669 0.26605 0.00474 0.0
H869 H 0.66112 0.20662 0.94944 0.0
H870 H 0.69569 0.23044 0.9591 0.0
H871 H 0.81638 0.23037 0.00606 0.0
H872 H 0.85445 0.29836 0.04811 0.0
H873 H 0.82276 0.27412 0.03874 0.0
C874 C 0.6367 0.54813 0.77608 0.0
C875 C 0.6456 0.56052 0.76457 0.0
C876 C 0.65692 0.53444 0.77091 0.0
C877 C 0.76393 0.51806 0.74302 0.0
H878 H 0.68286 0.48217 0.74738 0.0
C879 C 0.83876 0.46234 0.71451 0.0
C880 C 0.82903 0.44988 0.72577 0.0
C881 C 0.81649 0.47589 0.71922 0.0
C882 C 0.70624 0.49208 0.74629 0.0
H883 H 0.68136 0.5681 0.73826 0.0
H884 H 0.71655 0.54429 0.72936 0.0
H885 H 0.64211 0.50557 0.75549 0.0
H886 H 0.78882 0.44197 0.75102 0.0
H887 H 0.75057 0.46552 0.75928 0.0
H888 H 0.82819 0.50461 0.73399 0.0
C889 C 0.69442 0.54518 0.74246 0.0
C890 C 0.68283 0.50547 0.75092 0.0
C891 C 0.67387 0.55882 0.74752 0.0
C892 C 0.79717 0.45132 0.742 0.0
C893 C 0.7748 0.46482 0.74666 0.0
C894 C 0.78739 0.50467 0.73846 0.0
C895 C 0.68682 0.53288 0.75422 0.0
C896 C 0.7114 0.51861 0.7493 0.0
C897 C 0.78383 0.47724 0.73526 0.0
C898 C 0.75884 0.49151 0.74004 0.0
H899 H 0.615 0.54906 0.78927 0.0
H900 H 0.65057 0.52516 0.78029 0.0
H901 H 0.78725 0.52798 0.74193 0.0
H902 H 0.8631 0.46162 0.70192 0.0
H903 H 0.82392 0.48522 0.71005 0.0
C904 C 0.58406 0.05254 0.98251 0.0
C905 C 0.57243 0.0589 0.96463 0.0
C906 C 0.55926 0.03952 0.98807 0.0
C907 C 0.47869 0.00834 0.96878 0.0
H908 H 0.44221 1.00322 0.02209 0.0
C909 C 0.34248 0.96168 -0.00531 0.0
C910 C 0.36532 0.95292 0.00912 0.0
C911 C 0.36526 0.97516 0.98991 0.0
C912 C 0.4522 0.00454 0.00716 0.0
H913 H 0.52574 0.05659 0.93855 0.0
H914 H 0.48132 0.03432 0.94843 0.0
H915 H 0.48875 0.02534 0.01214 0.0
H916 H 0.42805 0.95166 0.0305 0.0
H917 H 0.46682 0.97538 0.02249 0.0
H918 H 0.44078 0.98765 0.96385 0.0
C919 C 0.51066 0.03904 0.95801 0.0
C920 C 0.47931 0.01714 0.00145 0.0
C921 C 0.53604 0.05189 0.95235 0.0
C922 C 0.40969 0.95819 0.01928 0.0
C923 C 0.43178 0.97177 0.01476 0.0
C924 C 0.45082 0.99588 0.97446 0.0
C925 C 0.52163 0.03269 0.97599 0.0
C926 C 0.49315 0.0192 0.98218 0.0
C927 C 0.41053 0.98022 -0.00025 0.0
C928 C 0.43751 0.99384 -0.00631 0.0
H929 H 0.61206 0.05766 0.99227 0.0
H930 H 0.56962 0.03483 0.00185 0.0
H931 H 0.48952 0.00933 0.95391 0.0
H932 H 0.30851 0.95784 0.98654 0.0
H933 H 0.34801 0.98155 0.97833 0.0
C934 C 0.46168 0.30808 0.2241 0.0
C935 C 0.41637 0.31289 0.2336 0.0
C936 C 0.48355 0.29432 0.22825 0.0
C937 C 0.44823 0.25825 0.24926 0.0
H938 H 0.59973 0.25206 0.24931 0.0
C939 C 0.54657 0.20292 0.27097 0.0
C940 C 0.58703 0.19805 0.25896 0.0
C941 C 0.52538 0.21704 0.26878 0.0
C942 C 0.55729 0.2536 0.24924 0.0
H943 H 0.35904 0.3072 0.25515 0.0
H944 H 0.39767 0.28343 0.2627 0.0
H945 H 0.56458 0.27662 0.24395 0.0
H946 H 0.63687 0.20427 0.23523 0.0
H947 H 0.60024 0.22871 0.23152 0.0
H948 H 0.44114 0.23519 0.25461 0.0
C949 C 0.41585 0.29009 0.25176 0.0
C950 C 0.53712 0.26768 0.24611 0.0
C951 C 0.39386 0.30376 0.24751 0.0
C952 C 0.6059 0.20764 0.24482 0.0
C953 C 0.58505 0.2217 0.24271 0.0
C954 C 0.46845 0.24418 0.2525 0.0
C955 C 0.46061 0.28509 0.24203 0.0
C956 C 0.4823 0.27018 0.24592 0.0
C957 C 0.54471 0.22661 0.25469 0.0
C958 C 0.52318 0.24167 0.25233 0.0
H959 H 0.47914 0.31468 0.21296 0.0
H960 H 0.51751 0.29075 0.22024 0.0
H961 H 0.40576 0.25969 0.24892 0.0
H962 H 0.53217 0.19607 0.28241 0.0
H963 H 0.49472 0.22059 0.27839 0.0
C964 C 0.37397 0.8034 0.74016 0.0
C965 C 0.39932 0.81324 0.7278 0.0
C966 C 0.39596 0.78968 0.74415 0.0
C967 C 0.52098 0.76888 0.7425 0.0
H968 H 0.42861 0.73493 0.74376 0.0
C969 C 0.60296 0.71021 0.74333 0.0
C970 C 0.57945 0.69997 0.75561 0.0
C971 C 0.57986 0.72388 0.74016 0.0
C972 C 0.45483 0.74432 0.74368 0.0
H973 H 0.46682 0.81614 0.70939 0.0
H974 H 0.50556 0.79226 0.71649 0.0
H975 H 0.39122 0.75921 0.73793 0.0
H976 H 0.51363 0.69624 0.77456 0.0
H977 H 0.4728 0.72013 0.76885 0.0
H978 H 0.5846 0.75401 0.74817 0.0
C979 C 0.46921 0.7953 0.72346 0.0
C980 C 0.43344 0.75823 0.74034 0.0
C981 C 0.44717 0.80905 0.71947 0.0
C982 C 0.53197 0.70368 0.76459 0.0
C983 C 0.50875 0.71742 0.7614 0.0
C984 C 0.54234 0.75498 0.74583 0.0
C985 C 0.4437 0.78543 0.73577 0.0
C986 C 0.46631 0.77067 0.73963 0.0
C987 C 0.53278 0.72772 0.74929 0.0
C988 C 0.50958 0.74253 0.74633 0.0
H989 H 0.33703 0.80631 0.74681 0.0
H990 H 0.37564 0.78243 0.75389 0.0
H991 H 0.54727 0.77825 0.74238 0.0
H992 H 0.63945 0.70766 0.73613 0.0
H993 H 0.5989 0.73145 0.73048 0.0
C994 C 0.61796 0.54313 0.47208 0.0
C995 C 0.59049 0.55651 0.4722 0.0
C996 C 0.59223 0.53004 0.47676 0.0
C997 C 0.45839 0.51354 0.48138 0.0
H998 H 0.53325 0.4845 0.51185 0.0
C999 C 0.35664 0.46229 0.51424 0.0
C1000 C 0.38443 0.44901 0.51278 0.0
C1001 C 0.38059 0.47556 0.50906 0.0
C1002 C 0.51193 0.49245 0.5032 0.0
H1003 H 0.51414 0.56655 0.47723 0.0
H1004 H 0.4699 0.54388 0.48575 0.0
H1005 H 0.5777 0.50719 0.50311 0.0
H1006 H 0.45898 0.43927 0.50445 0.0
H1007 H 0.50032 0.46228 0.49552 0.0
H1008 H 0.3924 0.49878 0.4817 0.0
C1009 C 0.51105 0.54341 0.48174 0.0
C1010 C 0.53748 0.50545 0.49813 0.0
C1011 C 0.53666 0.55646 0.47699 0.0
C1012 C 0.43639 0.44928 0.50587 0.0
C1013 C 0.46031 0.4625 0.50084 0.0
C1014 C 0.43272 0.50056 0.48656 0.0
C1015 C 0.53847 0.53002 0.48173 0.0
C1016 C 0.51116 0.51615 0.48708 0.0
C1017 C 0.4329 0.4758 0.50248 0.0
C1018 C 0.45932 0.48983 0.49743 0.0
H1019 H 0.65936 0.54276 0.46838 0.0
H1020 H 0.61442 0.5199 0.47632 0.0
H1021 H 0.43708 0.52143 0.47264 0.0
H1022 H 0.31658 0.46247 0.51949 0.0
H1023 H 0.35855 0.48566 0.51058 0.0
C1024 C 0.30866 0.1297 0.44203 0.0
C1025 C 0.2783 0.11692 0.44432 0.0
C1026 C 0.35195 0.12975 0.42986 0.0
C1027 C 0.43773 0.10668 0.39919 0.0
H1028 H 0.42038 0.13912 0.36374 0.0
C1029 C 0.52268 0.10627 0.32268 0.0
C1030 C 0.54196 0.11956 0.31529 0.0
C1031 C 0.49724 0.10592 0.34032 0.0
C1032 C 0.42662 0.13012 0.37363 0.0
H1033 H 0.27332 0.09376 0.43738 0.0
H1034 H 0.34835 0.09393 0.416 0.0
H1035 H 0.36912 0.13852 0.39274 0.0
H1036 H 0.55048 0.14286 0.32092 0.0
H1037 H 0.50708 0.14219 0.35165 0.0
H1038 H 0.49465 0.09815 0.37969 0.0
C1039 C 0.3388 0.10391 0.42358 0.0
C1040 C 0.39726 0.12979 0.39034 0.0
C1041 C 0.29561 0.10383 0.43584 0.0
C1042 C 0.53562 0.13245 0.32603 0.0
C1043 C 0.51059 0.13208 0.34368 0.0
C1044 C 0.4674 0.10703 0.38243 0.0
C1045 C 0.36563 0.11706 0.41969 0.0
C1046 C 0.40195 0.118 0.40322 0.0
C1047 C 0.49077 0.11884 0.351 0.0
C1048 C 0.46168 0.11868 0.36934 0.0
H1049 H 0.29696 0.13992 0.44861 0.0
H1050 H 0.37279 0.13997 0.42753 0.0
H1051 H 0.44239 0.09748 0.40888 0.0
H1052 H 0.52698 0.09613 0.3148 0.0
H1053 H 0.48179 0.09557 0.34541 0.0
C1054 C 0.80692 0.13396 0.28339 0.0
C1055 C 0.77882 0.12077 0.28114 0.0
C1056 C 0.85323 0.13435 0.29443 0.0
C1057 C 0.94846 0.11144 0.32273 0.0
H1058 H 0.93053 0.14232 0.36015 0.0
C1059 C 0.02734 0.10771 0.40042 0.0
C1060 C 0.04699 0.12057 0.40898 0.0
C1061 C 0.0042 0.10818 0.38216 0.0
C1062 C 0.93693 0.13379 0.34968 0.0
H1063 H 0.78044 0.09736 0.2868 0.0
H1064 H 0.86018 0.09812 0.30643 0.0
H1065 H 0.8775 0.14254 0.3311 0.0
H1066 H 0.05882 0.14396 0.40487 0.0
H1067 H 0.01891 0.14472 0.37313 0.0
H1068 H 0.00661 0.10241 0.34195 0.0
C1069 C 0.84691 0.10815 0.29961 0.0
C1070 C 0.90665 0.13394 0.33292 0.0
C1071 C 0.80086 0.10774 0.28843 0.0
C1072 C 0.04354 0.13386 0.39882 0.0
C1073 C 0.02069 0.13432 0.3806 0.0
C1074 C 0.97884 0.11128 0.33958 0.0
C1075 C 0.87196 0.12159 0.30355 0.0
C1076 C 0.91114 0.12261 0.31944 0.0
C1077 C 0.0004 0.12152 0.37212 0.0
C1078 C 0.97248 0.12229 0.3534 0.0
H1079 H 0.79148 0.14415 0.27763 0.0
H1080 H 0.87252 0.14481 0.29681 0.0
H1081 H 0.95314 0.10263 0.31252 0.0
H1082 H 0.0296 0.09728 0.40783 0.0
H1083 H 0.98821 0.09817 0.3761 0.0
C1084 C 0.29374 0.10742 0.79505 0.0
C1085 C 0.27101 0.12042 0.78794 0.0
C1086 C 0.33354 0.10797 0.80903 0.0
C1087 C 0.37323 0.132 0.84816 0.0
H1088 H 0.48757 0.10416 0.85519 0.0
C1089 C 0.51734 0.13414 0.91249 0.0
C1090 C 0.53123 0.12071 0.92106 0.0
C1091 C 0.48812 0.13443 0.89546 0.0
C1092 C 0.45548 0.11192 0.85345 0.0
H1093 H 0.27616 0.14418 0.78835 0.0
H1094 H 0.34625 0.1451 0.81254 0.0
H1095 H 0.43744 0.10446 0.82507 0.0
H1096 H 0.52381 0.09705 0.91878 0.0
H1097 H 0.47212 0.09761 0.88911 0.0
H1098 H 0.39053 0.13929 0.8766 0.0
C1099 C 0.3322 0.1345 0.80768 0.0
C1100 C 0.42703 0.11214 0.83621 0.0
C1101 C 0.29229 0.13396 0.79376 0.0
C1102 C 0.51392 0.10758 0.91253 0.0
C1103 C 0.48475 0.10789 0.89545 0.0
C1104 C 0.40165 0.13178 0.86536 0.0
C1105 C 0.35151 0.12153 0.81605 0.0
C1106 C 0.38535 0.12211 0.83346 0.0
C1107 C 0.47216 0.12131 0.88664 0.0
C1108 C 0.44274 0.12166 0.86824 0.0
H1109 H 0.27849 0.0968 0.79079 0.0
H1110 H 0.34757 0.09778 0.81523 0.0
H1111 H 0.34053 0.13959 0.84666 0.0
H1112 H 0.53005 0.14446 0.91868 0.0
H1113 H 0.47924 0.14494 0.88893 0.0
C1114 C 0.01012 0.10303 0.81354 0.0
C1115 C 0.0242 0.11676 0.80593 0.0
C1116 C 0.98248 0.10211 0.83067 0.0
C1117 C 0.95675 0.12311 0.87449 0.0
H1118 H 0.83913 0.09631 0.88037 0.0
C1119 C 0.80231 0.12832 0.93369 0.0
C1120 C 0.77702 0.11561 0.94037 0.0
C1121 C 0.84036 0.12742 0.91948 0.0
C1122 C 0.87261 0.10364 0.87914 0.0
H1123 H 0.01843 0.14029 0.81006 0.0
H1124 H 0.96983 0.13864 0.83982 0.0
H1125 H 0.88662 0.09693 0.85032 0.0
H1126 H 0.77584 0.09184 0.9387 0.0
H1127 H 0.84304 0.09028 0.91414 0.0
H1128 H 0.94233 0.12996 0.90323 0.0
C1129 C 0.98101 0.1286 0.83268 0.0
C1130 C 0.89963 0.10404 0.86186 0.0
C1131 C 0.00844 0.12954 0.81552 0.0
C1132 C 0.7941 0.10188 0.93375 0.0
C1133 C 0.83229 0.10098 0.91954 0.0
C1134 C 0.92985 0.12267 0.89181 0.0
C1135 C 0.96849 0.11488 0.84059 0.0
C1136 C 0.94142 0.11394 0.85924 0.0
C1137 C 0.85421 0.11377 0.91169 0.0
C1138 C 0.88694 0.11309 0.89423 0.0
H1139 H 0.02163 0.09296 0.80654 0.0
H1140 H 0.9735 0.09138 0.83644 0.0
H1141 H 0.98951 0.13066 0.87302 0.0
H1142 H 0.79043 0.13908 0.93856 0.0
H1143 H 0.8563 0.13751 0.91375 0.0
C1144 C 0.46523 0.87244 0.65572 0.0
C1145 C 0.45755 0.88601 0.66478 0.0
C1146 C 0.49066 0.87172 0.63812 0.0
C1147 C 0.52713 0.89454 0.59642 0.0
H1148 H 0.63303 0.86455 0.58867 0.0
C1149 C 0.69585 0.8989 0.54232 0.0
C1150 C 0.71725 0.88591 0.53491 0.0
C1151 C 0.65319 0.89832 0.55479 0.0
C1152 C 0.60273 0.87281 0.59037 0.0
H1153 H 0.47156 0.90944 0.66256 0.0
H1154 H 0.5167 0.90813 0.63213 0.0
H1155 H 0.58242 0.86456 0.61794 0.0
H1156 H 0.70652 0.86235 0.53279 0.0
H1157 H 0.6315 0.86142 0.5542 0.0
H1158 H 0.54877 0.90304 0.56901 0.0
C1159 C 0.50206 0.89808 0.63842 0.0
C1160 C 0.57383 0.87283 0.60722 0.0
C1161 C 0.47666 0.8988 0.65599 0.0
C1162 C 0.69153 0.87254 0.53853 0.0
C1163 C 0.64874 0.87198 0.55089 0.0
C1164 C 0.5561 0.89452 0.57953 0.0
C1165 C 0.50899 0.88455 0.62921 0.0
C1166 C 0.53642 0.88386 0.6106 0.0
C1167 C 0.63095 0.88477 0.55994 0.0
C1168 C 0.59488 0.88379 0.57647 0.0
H1169 H 0.45081 0.86238 0.66204 0.0
H1170 H 0.49515 0.86114 0.63133 0.0
H1171 H 0.49784 0.90303 0.59846 0.0
H1172 H 0.71462 0.90938 0.53978 0.0
H1173 H 0.64048 0.90839 0.56151 0.0
C1174 C 0.19328 0.90583 0.69207 0.0
C1175 C 0.21505 0.89181 0.69499 0.0
C1176 C 0.14689 0.90753 0.68133 0.0
C1177 C 0.03907 0.88736 0.65592 0.0
H1178 H 0.07114 0.91443 0.61481 0.0
C1179 C 0.96598 0.87869 0.57918 0.0
C1180 C 0.95076 0.89088 0.56811 0.0
C1181 C 0.98775 0.88059 0.59741 0.0
C1182 C 0.06077 0.90706 0.62634 0.0
H1183 H 0.20229 0.8685 0.69078 0.0
H1184 H 0.12209 0.87148 0.67171 0.0
H1185 H 0.12429 0.9148 0.64393 0.0
H1186 H 0.94653 0.91466 0.56751 0.0
H1187 H 0.98486 0.91795 0.5994 0.0
H1188 H 0.97705 0.87916 0.63777 0.0
C1189 C 0.14053 0.88116 0.67779 0.0
C1190 C 0.09113 0.9073 0.6431 0.0
C1191 C 0.18682 0.87945 0.6886 0.0
C1192 C 0.95818 0.90504 0.57562 0.0
C1193 C 0.97997 0.90694 0.59389 0.0
C1194 C 0.00864 0.88713 0.63913 0.0
C1195 C 0.1216 0.89525 0.67328 0.0
C1196 C 0.08183 0.8971 0.65777 0.0
C1197 C 0.99476 0.89472 0.60498 0.0
C1198 C 0.02053 0.89662 0.62392 0.0
H1199 H 0.21362 0.91556 0.69712 0.0
H1200 H 0.13255 0.9185 0.67837 0.0
H1201 H 0.03061 0.87951 0.66712 0.0
H1202 H 0.96084 0.86763 0.57383 0.0
H1203 H -7e-05 0.87099 0.60545 0.0
C1204 C 0.76191 0.8668 0.15938 0.0
C1205 C 0.76945 0.88059 0.16801 0.0
C1206 C 0.7394 0.86574 0.14112 0.0
C1207 C 0.71274 0.88724 0.09739 0.0
H1208 H 0.59698 0.85993 0.08982 0.0
C1209 C 0.54122 0.89671 0.04558 0.0
C1210 C 0.51226 0.88467 0.03858 0.0
C1211 C 0.5862 0.89449 0.05692 0.0
C1212 C 0.63021 0.86733 0.09141 0.0
H1213 H 0.75842 0.90403 0.16434 0.0
H1214 H 0.71818 0.90211 0.13259 0.0
H1215 H 0.64745 0.85937 0.11956 0.0
H1216 H 0.51137 0.86096 0.03588 0.0
H1217 H 0.59044 0.85713 0.05552 0.0
H1218 H 0.69408 0.89557 0.06947 0.0
C1219 C 0.73069 0.89217 0.13985 0.0
C1220 C 0.65893 0.86706 0.10854 0.0
C1221 C 0.75305 0.89325 0.15813 0.0
C1222 C 0.53225 0.87045 0.04143 0.0
C1223 C 0.57747 0.86824 0.05268 0.0
C1224 C 0.68413 0.88747 0.08019 0.0
C1225 C 0.7241 0.87842 0.13112 0.0
C1226 C 0.69918 0.87734 0.11195 0.0
C1227 C 0.60324 0.8802 0.06136 0.0
C1228 C 0.64131 0.87787 0.07732 0.0
H1229 H 0.77429 0.85683 0.16657 0.0
H1230 H 0.73474 0.855 0.13471 0.0
H1231 H 0.74443 0.89508 0.09954 0.0
H1232 H 0.52718 0.90781 0.04346 0.0
H1233 H 0.60497 0.90396 0.06343 0.0
C1234 C 0.02128 0.90476 0.18928 0.0
C1235 C 0.00607 0.89063 0.19513 0.0
C1236 C 0.06319 0.90662 0.17668 0.0
C1237 C 0.17211 0.88688 0.15195 0.0
H1238 H 0.13139 0.91187 0.1093 0.0
C1239 C 0.25368 0.87932 0.07619 0.0
C1240 C 0.26856 0.89197 0.06607 0.0
C1241 C 0.22749 0.88049 0.09357 0.0
C1242 C 0.14377 0.90502 0.1212 0.0
H1243 H 0.02639 0.86753 0.19377 0.0
H1244 H 0.09834 0.87074 0.17169 0.0
H1245 H 0.07927 0.91205 0.13828 0.0
H1246 H 0.26666 0.91578 0.06618 0.0
H1247 H 0.22034 0.91776 0.09643 0.0
H1248 H 0.23537 0.87941 0.1344 0.0
C1249 C 0.07831 0.88042 0.17683 0.0
C1250 C 0.11409 0.90517 0.13789 0.0
C1251 C 0.03664 0.87857 0.18946 0.0
C1252 C 0.2557 0.90581 0.07357 0.0
C1253 C 0.22916 0.90696 0.09089 0.0
C1254 C 0.20157 0.88665 0.13519 0.0
C1255 C 0.09065 0.8944 0.16966 0.0
C1256 C 0.1272 0.89587 0.15331 0.0
C1257 C 0.21525 0.89432 0.10115 0.0
C1258 C 0.18699 0.89549 0.11951 0.0
H1259 H -0.001 0.91432 0.19354 0.0
H1260 H 0.07254 0.91757 0.17176 0.0
H1261 H 0.1838 0.87976 0.16367 0.0
H1262 H 0.26302 0.8685 0.07085 0.0
H1263 H 0.21644 0.87056 0.10103 0.0
C1264 C 0.28539 0.60562 0.93435 0.0
C1265 C 0.26982 0.61864 0.94344 0.0
C1266 C 0.32432 0.60588 0.92033 0.0
C1267 C 0.3746 0.63146 0.8847 0.0
H1268 H 0.47796 0.60118 0.8747 0.0
C1269 C 0.51748 0.6355 0.82143 0.0
C1270 C 0.5291 0.62256 0.81142 0.0
C1271 C 0.489 0.63498 0.83839 0.0
C1272 C 0.44888 0.60964 0.87719 0.0
H1273 H 0.28684 0.64188 0.94628 0.0
H1274 H 0.35495 0.64227 0.92203 0.0
H1275 H 0.42657 0.60022 0.90404 0.0
H1276 H 0.51885 0.59893 0.81128 0.0
H1277 H 0.46796 0.59809 0.8406 0.0
H1278 H 0.39554 0.64071 0.85776 0.0
C1279 C 0.33611 0.63193 0.9254 0.0
C1280 C 0.41968 0.60912 0.89405 0.0
C1281 C 0.29728 0.63167 0.93939 0.0
C1282 C 0.5107 0.60911 0.81862 0.0
C1283 C 0.48194 0.60861 0.83555 0.0
C1284 C 0.40348 0.63194 0.86785 0.0
C1285 C 0.34848 0.61917 0.91516 0.0
C1286 C 0.38216 0.62002 0.89796 0.0
C1287 C 0.47107 0.62153 0.84572 0.0
C1288 C 0.44088 0.62102 0.86384 0.0
H1289 H 0.26523 0.59537 0.93714 0.0
H1290 H 0.33298 0.59586 0.9127 0.0
H1291 H 0.34514 0.63985 0.88707 0.0
H1292 H 0.53133 0.64604 0.8164 0.0
H1293 H 0.48198 0.64513 0.84596 0.0
C1294 C 0.79968 0.63867 0.79342 0.0
C1295 C 0.77534 0.62522 0.78898 0.0
C1296 C 0.8414 0.63925 0.80665 0.0
C1297 C 0.93393 0.61675 0.83618 0.0
H1298 H 0.90129 0.64533 0.87533 0.0
C1299 C 0.00908 0.61097 0.91372 0.0
C1300 C 0.02741 0.62367 0.92304 0.0
C1301 C 0.98365 0.61194 0.89593 0.0
C1302 C 0.91157 0.63744 0.86443 0.0
H1303 H 0.77941 0.60167 0.79333 0.0
H1304 H 0.85161 0.60272 0.81655 0.0
H1305 H 0.85314 0.64583 0.84504 0.0
H1306 H 0.03213 0.64741 0.92118 0.0
H1307 H 0.98774 0.64907 0.89015 0.0
H1308 H 0.99145 0.60813 0.85591 0.0
C1309 C 0.8386 0.61282 0.80983 0.0
C1310 C 0.88414 0.63776 0.84701 0.0
C1311 C 0.79696 0.61223 0.79656 0.0
C1312 C 0.01833 0.6374 0.91444 0.0
C1313 C 0.99291 0.63837 0.89665 0.0
C1314 C 0.96143 0.61644 0.85363 0.0
C1315 C 0.8595 0.6264 0.81567 0.0
C1316 C 0.89431 0.62725 0.83284 0.0
C1317 C 0.97596 0.62563 0.8871 0.0
C1318 C 0.94974 0.6266 0.86807 0.0
H1319 H 0.78454 0.64887 0.78758 0.0
H1320 H 0.85762 0.64984 0.81056 0.0
H1321 H 0.94296 0.60861 0.82544 0.0
H1322 H 0.01535 0.60022 0.91995 0.0
H1323 H 0.97 0.60196 0.8891 0.0
C1324 C 0.31436 0.6336 0.2882 0.0
C1325 C 0.28574 0.6204 0.28859 0.0
C1326 C 0.36408 0.63451 0.29698 0.0
C1327 C 0.46654 0.61291 0.3238 0.0
H1328 H 0.45694 0.64538 0.35934 0.0
C1329 C 0.53809 0.60952 0.40152 0.0
C1330 C 0.55874 0.62207 0.41055 0.0
C1331 C 0.51925 0.61026 0.3827 0.0
C1332 C 0.46129 0.63643 0.34931 0.0
H1333 H 0.28903 0.59742 0.29656 0.0
H1334 H 0.37468 0.5991 0.31239 0.0
H1335 H 0.4003 0.64495 0.33123 0.0
H1336 H 0.57743 0.64513 0.40668 0.0
H1337 H 0.54441 0.64636 0.37383 0.0
H1338 H 0.52557 0.60402 0.34274 0.0
C1339 C 0.35936 0.60873 0.30515 0.0
C1340 C 0.42884 0.6362 0.33307 0.0
C1341 C 0.3099 0.60779 0.2962 0.0
C1342 C 0.56111 0.6353 0.40023 0.0
C1343 C 0.5424 0.63601 0.38139 0.0
C1344 C 0.49903 0.61313 0.34011 0.0
C1345 C 0.38571 0.62228 0.30648 0.0
C1346 C 0.42946 0.62414 0.32058 0.0
C1347 C 0.52079 0.62353 0.3725 0.0
C1348 C 0.49505 0.62461 0.35342 0.0
H1349 H 0.2972 0.64344 0.28205 0.0
H1350 H 0.38404 0.64501 0.29738 0.0
H1351 H 0.46854 0.6036 0.31425 0.0
H1352 H 0.53594 0.59915 0.40903 0.0
H1353 H 0.50189 0.60052 0.37638 0.0
C1354 C 0.81277 0.62615 0.4528 0.0
C1355 C 0.77839 0.61404 0.45297 0.0
C1356 C 0.85787 0.62599 0.44153 0.0
C1357 C 0.94105 0.60329 0.40954 0.0
H1358 H 0.93378 0.63779 0.37711 0.0
C1359 C 0.02735 0.60464 0.33352 0.0
C1360 C 0.04901 0.61783 0.32676 0.0
C1361 C 0.00228 0.60411 0.3512 0.0
C1362 C 0.93736 0.62821 0.38618 0.0
H1363 H 0.76794 0.5916 0.44334 0.0
H1364 H 0.84635 0.59139 0.42356 0.0
H1365 H 0.8808 0.63662 0.40566 0.0
H1366 H 0.06235 0.64076 0.33352 0.0
H1367 H 0.01962 0.63979 0.36446 0.0
H1368 H -0.00299 0.59478 0.3897 0.0
C1369 C 0.83847 0.60102 0.4321 0.0
C1370 C 0.90695 0.62754 0.40264 0.0
C1371 C 0.79339 0.60115 0.44345 0.0
C1372 C 0.04552 0.63045 0.33818 0.0
C1373 C 0.02091 0.62989 0.35593 0.0
C1374 C 0.97188 0.604 0.39308 0.0
C1375 C 0.86942 0.61374 0.43018 0.0
C1376 C 0.9077 0.61499 0.41435 0.0
C1377 C -0.00135 0.61674 0.36263 0.0
C1378 C 0.96963 0.61637 0.38101 0.0
H1379 H 0.80284 0.63617 0.46025 0.0
H1380 H 0.88179 0.63582 0.44072 0.0
H1381 H 0.94267 0.59352 0.41833 0.0
H1382 H 0.02933 0.59471 0.32508 0.0
H1383 H 0.98479 0.59386 0.35572 0.0
C1384 C 0.48295 0.40098 0.16221 0.0
C1385 C 0.46201 0.38793 0.16971 0.0
C1386 C 0.50726 0.40107 0.1444 0.0
C1387 C 0.57154 0.37656 0.10993 0.0
H1388 H 0.5577 0.41007 0.07598 0.0
C1389 C 0.68943 0.37795 0.04174 0.0
C1390 C 0.72167 0.39046 0.04048 0.0
C1391 C 0.64542 0.37792 0.05354 0.0
C1392 C 0.56172 0.40062 0.08529 0.0
H1393 H 0.45004 0.36474 0.16429 0.0
H1394 H 0.4919 0.36493 0.13313 0.0
H1395 H 0.50651 0.40914 0.10538 0.0
H1396 H 0.72928 0.4133 0.0487 0.0
H1397 H 0.65277 0.4132 0.06944 0.0
H1398 H 0.62747 0.36817 0.0902 0.0
C1399 C 0.49021 0.37507 0.14115 0.0
C1400 C 0.5327 0.40011 0.10217 0.0
C1401 C 0.46618 0.37495 0.15902 0.0
C1402 C 0.70542 0.40346 0.04944 0.0
C1403 C 0.66146 0.4034 0.06134 0.0
C1404 C 0.60024 0.37703 0.09307 0.0
C1405 C 0.51097 0.38813 0.1336 0.0
C1406 C 0.53808 0.38819 0.11487 0.0
C1407 C 0.6329 0.39039 0.06435 0.0
C1408 C 0.59639 0.38917 0.08071 0.0
H1409 H 0.48052 0.41118 0.17007 0.0
H1410 H 0.52378 0.41126 0.13921 0.0
H1411 H 0.57735 0.36732 0.11949 0.0
H1412 H 0.70036 0.36783 0.03474 0.0
H1413 H 0.62326 0.36784 0.05519 0.0
C1414 C 0.97037 0.39949 0.08711 0.0
C1415 C 0.94802 0.38655 0.07971 0.0
C1416 C 0.99229 0.39969 0.10555 0.0
C1417 C 0.05275 0.37478 0.14033 0.0
H1418 H 0.04796 0.40858 0.17387 0.0
C1419 C 0.19191 0.37685 0.20386 0.0
C1420 C 0.22288 0.38964 0.20391 0.0
C1421 C 0.14374 0.37652 0.19395 0.0
C1422 C 0.04935 0.39903 0.1647 0.0
H1423 H 0.92933 0.36382 0.08612 0.0
H1424 H 0.96713 0.36424 0.11821 0.0
H1425 H 0.99187 0.4079 0.1451 0.0
H1426 H 0.22515 0.41254 0.19545 0.0
H1427 H 0.14225 0.41181 0.17765 0.0
H1428 H 0.1118 0.36617 0.15915 0.0
C1429 C 0.96851 0.37416 0.10968 0.0
C1430 C 0.01746 0.39867 0.14823 0.0
C1431 C 0.94696 0.37393 0.09126 0.0
C1432 C 0.20242 0.40247 0.19551 0.0
C1433 C 0.15455 0.40208 0.18541 0.0
C1434 C 0.08455 0.37515 0.1567 0.0
C1435 C 0.99201 0.38697 0.11693 0.0
C1436 C 0.02 0.3867 0.13564 0.0
C1437 C 0.12611 0.3889 0.18372 0.0
C1438 C 0.08438 0.38745 0.16879 0.0
H1439 H 0.97153 0.40942 0.07859 0.0
H1440 H 0.01085 0.40967 0.11066 0.0
H1441 H 0.05619 0.3655 0.13079 0.0
H1442 H 0.20617 0.36687 0.21058 0.0
H1443 H 0.12195 0.3663 0.1933 0.0
C1444 C 0.74765 0.39621 0.67063 0.0
C1445 C 0.76453 0.38361 0.68055 0.0
C1446 C 0.72193 0.39495 0.65292 0.0
C1447 C 0.6456 0.36945 0.62308 0.0
H1448 H 0.68342 0.39602 0.58206 0.0
C1449 C 0.53026 0.36789 0.55294 0.0
C1450 C 0.51001 0.38168 0.54768 0.0
C1451 C 0.5726 0.36685 0.56585 0.0
C1452 C 0.67257 0.3885 0.59337 0.0
H1453 H 0.76603 0.35979 0.67996 0.0
H1454 H 0.72095 0.35766 0.64914 0.0
H1455 H 0.73189 0.39695 0.61251 0.0
H1456 H 0.52189 0.40519 0.55017 0.0
H1457 H 0.59476 0.40336 0.57294 0.0
H1458 H 0.58515 0.36134 0.60436 0.0
C1459 C 0.72769 0.36849 0.65505 0.0
C1460 C 0.70008 0.38909 0.61079 0.0
C1461 C 0.7535 0.36973 0.67271 0.0
C1462 C 0.53617 0.39439 0.5541 0.0
C1463 C 0.57829 0.39334 0.56708 0.0
C1464 C 0.61803 0.36889 0.60571 0.0
C1465 C 0.7124 0.38109 0.64485 0.0
C1466 C 0.68606 0.37977 0.62593 0.0
C1467 C 0.59525 0.37957 0.57377 0.0
C1468 C 0.63046 0.37862 0.59081 0.0
H1469 H 0.75561 0.40706 0.67625 0.0
H1470 H 0.70961 0.40484 0.64551 0.0
H1471 H 0.63369 0.36221 0.63454 0.0
H1472 H 0.51156 0.35788 0.54796 0.0
H1473 H 0.58573 0.35608 0.57042 0.0
C1474 C 0.03774 0.38007 0.69403 0.0
C1475 C 0.00863 0.39231 0.70004 0.0
C1476 C 0.07798 0.38168 0.68074 0.0
C1477 C 0.11225 0.40594 0.64108 0.0
H1478 H 0.23372 0.38024 0.6377 0.0
C1479 C 0.25305 0.40522 0.57614 0.0
C1480 C 0.26579 0.39117 0.56931 0.0
C1481 C 0.22623 0.40685 0.59337 0.0
C1482 C 0.19988 0.38747 0.63846 0.0
H1483 H 0.0023 0.41601 0.69813 0.0
H1484 H 0.07319 0.4188 0.67515 0.0
H1485 H 0.18305 0.38092 0.66714 0.0
H1486 H 0.25908 0.36783 0.57504 0.0
H1487 H 0.21223 0.37073 0.60494 0.0
H1488 H 0.12862 0.41227 0.61225 0.0
C1489 C 0.06393 0.40793 0.68037 0.0
C1490 C 0.17093 0.38788 0.65531 0.0
C1491 C 0.02354 0.40632 0.69365 0.0
C1492 C 0.25005 0.37882 0.57986 0.0
C1493 C 0.22365 0.38046 0.59711 0.0
C1494 C 0.14142 0.40559 0.62427 0.0
C1495 C 0.09022 0.39556 0.67323 0.0
C1496 C 0.12594 0.39682 0.65663 0.0
C1497 C 0.21204 0.39449 0.60415 0.0
C1498 C 0.18464 0.39607 0.62262 0.0
H1499 H 0.02759 0.36912 0.69874 0.0
H1500 H 0.09715 0.3719 0.67548 0.0
H1501 H 0.0774 0.41281 0.6415 0.0
H1502 H 0.26465 0.41496 0.56839 0.0
H1503 H 0.21772 0.41779 0.59848 0.0
C1504 C 0.04041 0.11148 0.68197 0.0
C1505 C 0.08 0.12064 0.68955 0.0
C1506 C 0.02682 0.11223 0.66254 0.0
C1507 C 0.03758 0.13639 0.62025 0.0
H1508 H 0.02935 0.10028 0.59113 0.0
C1509 C 0.08679 0.13304 0.54113 0.0
C1510 C 0.05695 0.12387 0.52907 0.0
C1511 C 0.07701 0.13345 0.56067 0.0
C1512 C 0.03036 0.11045 0.59911 0.0
H1513 H 0.13735 0.13747 0.68302 0.0
H1514 H 0.11397 0.1388 0.64911 0.0
H1515 H 0.03647 0.09924 0.62597 0.0
H1516 H 0.99262 0.10823 0.52767 0.0
H1517 H 0.97605 0.10868 0.56221 0.0
H1518 H 0.03376 0.14759 0.59335 0.0
C1519 C 0.0925 0.13126 0.65814 0.0
C1520 C 0.0345 0.10986 0.61905 0.0
C1521 C 0.1061 0.13047 0.67749 0.0
C1522 C 0.01637 0.11529 0.5368 0.0
C1523 C 0.00688 0.11558 0.55645 0.0
C1524 C 0.03356 0.13698 0.60036 0.0
C1525 C 0.05262 0.12219 0.65046 0.0
C1526 C 0.03996 0.12282 0.62974 0.0
C1527 C 0.03749 0.12458 0.56857 0.0
C1528 C 0.03169 0.12401 0.58958 0.0
H1529 H 0.01959 0.10388 0.6911 0.0
H1530 H -0.00415 0.10514 0.65702 0.0
H1531 H 0.0405 0.14656 0.62818 0.0
H1532 H 0.11893 0.13955 0.53556 0.0
H1533 H 0.10193 0.14027 0.5697 0.0
C1534 C 0.95832 0.88606 0.43777 0.0
C1535 C 0.92199 0.87787 0.44832 0.0
C1536 C 0.95794 0.88524 0.41782 0.0
C1537 C 0.90501 0.86398 0.37664 0.0
H1538 H 0.9019 0.90187 0.35138 0.0
C1539 C 0.81933 0.87208 0.30077 0.0
C1540 C 0.84826 0.88104 0.28844 0.0
C1541 C 0.83324 0.87125 0.32012 0.0
C1542 C 0.90338 0.8912 0.35819 0.0
H1543 H 0.85807 0.8621 0.44672 0.0
H1544 H 0.85728 0.86062 0.41197 0.0
H1545 H 0.92199 0.90048 0.3855 0.0
H1546 H 0.91419 0.89607 0.28624 0.0
H1547 H 0.93828 0.89478 0.32015 0.0
H1548 H 0.885 0.85476 0.34935 0.0
C1549 C 0.8866 0.86751 0.41895 0.0
C1550 C 0.91515 0.89039 0.3777 0.0
C1551 C 0.88697 0.86835 0.43883 0.0
C1552 C 0.89083 0.88929 0.29566 0.0
C1553 C 0.90464 0.88851 0.31498 0.0
C1554 C 0.8931 0.86479 0.35713 0.0
C1555 C 0.92119 0.87621 0.40822 0.0
C1556 C 0.91525 0.8768 0.38717 0.0
C1557 C 0.87625 0.87939 0.32737 0.0
C1558 C 0.89139 0.87843 0.3478 0.0
H1559 H 0.98579 0.89341 0.44492 0.0
H1560 H 0.98546 0.89194 0.4099 0.0
H1561 H 0.90547 0.85334 0.38354 0.0
H1562 H 0.78647 0.86561 0.29536 0.0
H1563 H 0.81027 0.86428 0.32944 0.0
C1564 C 0.05716 0.62862 0.0507 0.0
C1565 C 0.0947 0.61976 0.04175 0.0
C1566 C 0.0531 0.6286 0.0706 0.0
C1567 C 0.08684 0.60665 0.11341 0.0
H1568 H 0.07157 0.64356 0.14026 0.0
C1569 C 0.11894 0.61153 0.19456 0.0
C1570 C 0.08342 0.62021 0.20479 0.0
C1571 C 0.11757 0.61145 0.17463 0.0
C1572 C 0.07511 0.63316 0.13294 0.0
H1573 H 0.15788 0.60411 0.04627 0.0
H1574 H 0.15102 0.60404 0.08111 0.0
H1575 H 0.07429 0.64339 0.10537 0.0
H1576 H 0.01929 0.63581 0.20247 0.0
H1577 H 0.01657 0.63569 0.16738 0.0
H1578 H 0.08819 0.59643 0.14095 0.0
C1579 C 0.12407 0.61082 0.07281 0.0
C1580 C 0.07668 0.63306 0.11297 0.0
C1581 C 0.12809 0.61086 0.05292 0.0
C1582 C 0.04689 0.62899 0.1948 0.0
C1583 C 0.04554 0.62895 0.17479 0.0
C1584 C 0.0853 0.60676 0.13334 0.0
C1585 C 0.08659 0.61972 0.08187 0.0
C1586 C 0.08298 0.61981 0.10301 0.0
C1587 C 0.08078 0.62013 0.16452 0.0
C1588 C 0.07988 0.62002 0.14333 0.0
H1589 H 0.03094 0.63553 0.04227 0.0
H1590 H 0.02346 0.63545 0.07716 0.0
H1591 H 0.0908 0.59625 0.10612 0.0
H1592 H 0.14839 0.60495 0.20198 0.0
H1593 H 0.14597 0.60479 0.16712 0.0
C1594 C 0.89813 0.36957 0.94819 0.0
C1595 C 0.93468 0.37818 0.95841 0.0
C1596 C 0.89922 0.36911 0.9283 0.0
C1597 C 0.93485 0.39208 0.88808 0.0
H1598 H 0.90166 0.3572 0.8586 0.0
C1599 C 0.90946 0.39263 0.80582 0.0
C1600 C 0.86678 0.3845 0.79847 0.0
C1601 C 0.92353 0.39154 0.82513 0.0
C1602 C 0.91064 0.36703 0.86667 0.0
H1603 H 0.00229 0.39259 0.95619 0.0
H1604 H 0.00411 0.39191 0.9211 0.0
H1605 H 0.92031 0.35506 0.89283 0.0
H1606 H 0.80474 0.36908 0.80513 0.0
H1607 H 0.82869 0.36728 0.8391 0.0
H1608 H 0.9238 0.4041 0.86205 0.0
C1609 C 0.97457 0.38555 0.92852 0.0
C1610 C 0.92156 0.3658 0.88621 0.0
C1611 C 0.97366 0.38592 0.9485 0.0
C1612 C 0.83777 0.37544 0.81064 0.0
C1613 C 0.85181 0.37433 0.82995 0.0
C1614 C 0.9239 0.39331 0.86854 0.0
C1615 C 0.93667 0.37736 0.91825 0.0
C1616 C 0.93267 0.37835 0.89717 0.0
C1617 C 0.89518 0.38226 0.83734 0.0
C1618 C 0.9106 0.38084 0.85773 0.0
H1619 H 0.86705 0.36373 0.9555 0.0
H1620 H 0.86896 0.3629 0.92077 0.0
H1621 H 0.94258 0.40196 0.89623 0.0
H1622 H 0.93281 0.39951 0.79653 0.0
H1623 H 0.95738 0.39767 0.83039 0.0
C1624 C 0.58837 0.13277 0.18371 0.0
C1625 C 0.55734 0.12405 0.19568 0.0
C1626 C 0.57716 0.13355 0.16421 0.0
C1627 C 0.52235 0.11239 0.12513 0.0
H1628 H 0.53643 0.1492 0.09779 0.0
C1629 C 0.53379 0.11536 0.04262 0.0
C1630 C 0.57683 0.12367 0.03623 0.0
C1631 C 0.5183 0.11615 0.0617 0.0
C1632 C 0.53216 0.13885 0.10523 0.0
H1633 H 0.4903 0.10935 0.19692 0.0
H1634 H 0.47122 0.1104 0.16236 0.0
H1635 H 0.53188 0.14925 0.13264 0.0
H1636 H 0.63722 0.13934 0.04445 0.0
H1637 H 0.61025 0.1408 0.07773 0.0
H1638 H 0.52524 0.10194 0.09777 0.0
C1639 C 0.50387 0.11673 0.1682 0.0
C1640 C 0.52946 0.13888 0.12512 0.0
C1641 C 0.51481 0.11609 0.18785 0.0
C1642 C 0.60353 0.13296 0.04904 0.0
C1643 C 0.58792 0.13383 0.06803 0.0
C1644 C 0.52513 0.11235 0.10518 0.0
C1645 C 0.53502 0.12549 0.15623 0.0
C1646 C 0.52664 0.12562 0.13528 0.0
C1647 C 0.5454 0.12536 0.0746 0.0
C1648 C 0.53216 0.12555 0.09514 0.0
H1649 H 0.62193 0.1388 0.18942 0.0
H1650 H 0.60257 0.14012 0.15525 0.0
H1651 H 0.52043 0.10201 0.13264 0.0
H1652 H 0.5122 0.10826 0.03287 0.0
H1653 H 0.48525 0.10956 0.06638 0.0
C1654 C 0.35539 0.90047 0.79305 0.0
C1655 C 0.3922 0.89079 0.78515 0.0
C1656 C 0.34791 0.90082 0.81276 0.0
C1657 C 0.3614 0.8779 0.85539 0.0
H1658 H 0.35179 0.91462 0.88305 0.0
C1659 C 0.36688 0.88047 0.9373 0.0
C1660 C 0.334 0.89059 0.94637 0.0
C1661 C 0.3711 0.88049 0.91746 0.0
C1662 C 0.35355 0.90429 0.87547 0.0
H1663 H 0.45046 0.87404 0.79133 0.0
H1664 H 0.43735 0.87459 0.826 0.0
H1665 H 0.36681 0.91492 0.84863 0.0
H1666 H 0.27977 0.90867 0.94216 0.0
H1667 H 0.28651 0.90865 0.9072 0.0
H1668 H 0.34789 0.86724 0.88213 0.0
C1669 C 0.41417 0.88185 0.81694 0.0
C1670 C 0.36238 0.90446 0.85581 0.0
C1671 C 0.42188 0.88158 0.79721 0.0
C1672 C 0.30525 0.90075 0.93535 0.0
C1673 C 0.30935 0.90077 0.91544 0.0
C1674 C 0.3523 0.87772 0.87501 0.0
C1675 C 0.37679 0.8914 0.82486 0.0
C1676 C 0.36689 0.89127 0.84564 0.0
C1677 C 0.34253 0.89066 0.90631 0.0
C1678 C 0.34883 0.89091 0.88529 0.0
H1679 H 0.33123 0.90745 0.78395 0.0
H1680 H 0.31838 0.90814 0.81848 0.0
H1681 H 0.36367 0.86758 0.84781 0.0
H1682 H 0.3904 0.87277 0.94558 0.0
H1683 H 0.39785 0.87278 0.91091 0.0
C1684 C 0.58524 0.61403 0.54451 0.0
C1685 C 0.55462 0.62308 0.53255 0.0
C1686 C 0.57807 0.61416 0.5642 0.0
C1687 C 0.53368 0.6372 0.60327 0.0
H1688 H 0.54156 0.60062 0.63155 0.0
C1689 C 0.53606 0.63405 0.68634 0.0
C1690 C 0.57602 0.625 0.69395 0.0
C1691 C 0.52443 0.63386 0.66673 0.0
C1692 C 0.53927 0.61092 0.62384 0.0
H1693 H 0.49277 0.63944 0.53152 0.0
H1694 H 0.48032 0.63983 0.56636 0.0
H1695 H 0.53603 0.60015 0.59672 0.0
H1696 H 0.63589 0.60895 0.6872 0.0
H1697 H 0.6154 0.60847 0.65305 0.0
H1698 H 0.53848 0.64795 0.63048 0.0
C1699 C 0.50973 0.63259 0.56041 0.0
C1700 C 0.53608 0.61065 0.60394 0.0
C1701 C 0.51675 0.63237 0.54058 0.0
C1702 C 0.60424 0.61582 0.68171 0.0
C1703 C 0.59243 0.61554 0.66219 0.0
C1704 C 0.5368 0.63746 0.62326 0.0
C1705 C 0.54029 0.62343 0.57238 0.0
C1706 C 0.53497 0.62378 0.59343 0.0
C1707 C 0.55236 0.62453 0.6545 0.0
C1708 C 0.5413 0.62432 0.63367 0.0
H1709 H 0.61537 0.60698 0.53863 0.0
H1710 H 0.60305 0.60723 0.57308 0.0
H1711 H 0.53313 0.64749 0.59552 0.0
H1712 H 0.51359 0.64116 0.69559 0.0
H1713 H 0.49326 0.64086 0.66116 0.0
C1714 C 0.44292 0.38075 0.30276 0.0
C1715 C 0.40881 0.38899 0.29104 0.0
C1716 C 0.43501 0.38017 0.32247 0.0
C1717 C 0.36818 0.39905 0.36196 0.0
H1718 H 0.37735 0.36107 0.38683 0.0
C1719 C 0.30461 0.39043 0.43985 0.0
C1720 C 0.34039 0.38255 0.45134 0.0
C1721 C 0.3105 0.39072 0.42003 0.0
C1722 C 0.37498 0.37176 0.38008 0.0
H1723 H 0.33994 0.40308 0.29035 0.0
H1724 H 0.32612 0.40216 0.32478 0.0
H1725 H 0.3954 0.36313 0.35273 0.0
H1726 H 0.40975 0.36868 0.45156 0.0
H1727 H 0.4201 0.36908 0.41689 0.0
H1728 H 0.34785 0.40768 0.38932 0.0
C1729 C 0.35942 0.39633 0.3189 0.0
C1730 C 0.38552 0.37295 0.36062 0.0
C1731 C 0.36734 0.39688 0.29924 0.0
C1732 C 0.3813 0.37465 0.44284 0.0
C1733 C 0.38715 0.37489 0.42305 0.0
C1734 C 0.35761 0.39786 0.38143 0.0
C1735 C 0.39278 0.38783 0.33068 0.0
C1736 C 0.3824 0.38662 0.35139 0.0
C1737 C 0.35227 0.38309 0.41148 0.0
C1738 C 0.36109 0.38421 0.39068 0.0
H1739 H 0.47503 0.37457 0.2966 0.0
H1740 H 0.4617 0.37368 0.33126 0.0
H1741 H 0.36602 0.40975 0.35526 0.0
H1742 H 0.2728 0.39658 0.44625 0.0
H1743 H 0.28271 0.39699 0.41141 0.0
loop_
_geom_bond_atom_site_label_1
_geom_bond_atom_site_label_2
_geom_bond_distance
_geom_bond_site_symmetry_2
_ccdc_geom_bond_type
Co0 O3 1.970 . S
Co0 N17 1.989 . S
Co0 O25 1.967 . S
Co0 O32 1.920 . S
Co1 O4 1.966 . S
Co1 N10 2.022 . S
Co1 N18 1.993 . S
Co1 O26 1.941 . S
C2 O3 1.258 . S
C2 O4 1.263 . S
O3 Co0 1.970 . S
O3 C2 1.258 . S
O4 Co1 1.966 . S
O4 C2 1.263 . S
C5 O6 1.235 . S
C5 O32 1.289 . S
O6 C5 1.235 . S
C7 C9 1.400 . S
C7 N10 1.351 . S
C7 C12 1.501 . S
C8 C9 1.387 . S
C8 N11 1.341 . S
C9 C7 1.400 . S
C9 C8 1.387 . S
N10 Co1 2.022 . S
N10 C7 1.351 . S
N10 N11 1.365 . S
N11 C8 1.341 . S
N11 N10 1.365 . S
N11 H31 0.862 . S
C12 C7 1.501 . S
C12 H13 0.961 . S
C12 H14 0.961 . S
C12 H15 0.960 . S
H13 C12 0.961 . S
H14 C12 0.961 . S
H15 C12 0.960 . S
C16 N17 1.342 . S
C16 C20 1.401 . S
C16 C21 1.499 . S
N17 Co0 1.989 . S
N17 C16 1.342 . S
N17 N18 1.388 . S
N18 Co1 1.993 . S
N18 N17 1.388 . S
N18 C19 1.346 . S
C19 N18 1.346 . S
C19 C20 1.396 . S
C19 C29 1.510 . S
C20 C16 1.401 . S
C20 C19 1.396 . S
C21 C16 1.499 . S
C21 H22 0.959 . S
C21 H23 0.960 . S
C21 H24 0.961 . S
H22 C21 0.959 . S
H23 C21 0.960 . S
H24 C21 0.961 . S
O25 Co0 1.967 . S
O25 C33 1.258 . S
O26 Co1 1.941 . S
O26 C33 1.266 . S
H27 C29 0.959 . S
H28 C29 0.961 . S
C29 C19 1.510 . S
C29 H27 0.959 . S
C29 H28 0.961 . S
C29 H30 0.960 . S
H30 C29 0.960 . S
H31 N11 0.862 . S
O32 Co0 1.920 . S
O32 C5 1.289 . S
C33 O25 1.258 . S
C33 O26 1.266 . S
Co34 O37 1.970 . S
Co34 N51 1.989 . S
Co34 O59 1.967 . S
Co34 O66 1.920 . S
Co35 O38 1.966 . S
Co35 N44 2.022 . S
Co35 N52 1.993 . S
Co35 O60 1.941 . S
C36 O37 1.258 . S
C36 O38 1.263 . S
O37 Co34 1.970 . S
O37 C36 1.258 . S
O38 Co35 1.966 . S
O38 C36 1.263 . S
C39 O40 1.235 . S
C39 O66 1.289 . S
O40 C39 1.235 . S
C41 C43 1.400 . S
C41 N44 1.351 . S
C41 C46 1.501 . S
C42 C43 1.387 . S
C42 N45 1.341 . S
C43 C41 1.400 . S
C43 C42 1.387 . S
N44 Co35 2.022 . S
N44 C41 1.351 . S
N44 N45 1.365 . S
N45 C42 1.341 . S
N45 N44 1.365 . S
N45 H65 0.862 . S
C46 C41 1.501 . S
C46 H47 0.961 . S
C46 H48 0.961 1_455 S
C46 H49 0.960 1_455 S
H47 C46 0.961 . S
H48 C46 0.961 1_655 S
H49 C46 0.960 1_655 S
C50 N51 1.342 . S
C50 C54 1.401 . S
C50 C55 1.499 . S
N51 Co34 1.989 . S
N51 C50 1.342 . S
N51 N52 1.388 . S
N52 Co35 1.993 . S
N52 N51 1.388 . S
N52 C53 1.346 . S
C53 N52 1.346 . S
C53 C54 1.396 . S
C53 C63 1.510 . S
C54 C50 1.401 . S
C54 C53 1.396 . S
C55 C50 1.499 . S
C55 H56 0.959 . S
C55 H57 0.960 . S
C55 H58 0.961 . S
H56 C55 0.959 . S
H57 C55 0.960 . S
H58 C55 0.961 . S
O59 Co34 1.967 . S
O59 C67 1.258 . S
O60 Co35 1.941 . S
O60 C67 1.266 . S
H61 C63 0.959 . S
H62 C63 0.961 . S
C63 C53 1.510 . S
C63 H61 0.959 . S
C63 H62 0.961 . S
C63 H64 0.960 . S
H64 C63 0.960 . S
H65 N45 0.862 . S
O66 Co34 1.920 . S
O66 C39 1.289 . S
C67 O59 1.258 . S
C67 O60 1.266 . S
Co68 O71 1.970 . S
Co68 N85 1.989 . S
Co68 O93 1.967 . S
Co68 O100 1.920 . S
Co69 O72 1.966 . S
Co69 N78 2.022 . S
Co69 N86 1.993 . S
Co69 O94 1.941 . S
C70 O71 1.258 . S
C70 O72 1.263 . S
O71 Co68 1.970 . S
O71 C70 1.258 . S
O72 Co69 1.966 . S
O72 C70 1.263 . S
C73 O74 1.235 . S
C73 O100 1.289 . S
O74 C73 1.235 . S
C75 C77 1.400 . S
C75 N78 1.351 . S
C75 C80 1.501 . S
C76 C77 1.387 . S
C76 N79 1.341 . S
C77 C75 1.400 . S
C77 C76 1.387 . S
N78 Co69 2.022 . S
N78 C75 1.351 . S
N78 N79 1.365 . S
N79 C76 1.341 . S
N79 N78 1.365 . S
N79 H99 0.862 . S
C80 C75 1.501 . S
C80 H81 0.961 . S
C80 H82 0.961 . S
C80 H83 0.960 . S
H81 C80 0.961 . S
H82 C80 0.961 . S
H83 C80 0.960 . S
C84 N85 1.342 . S
C84 C88 1.401 . S
C84 C89 1.499 . S
N85 Co68 1.989 . S
N85 C84 1.342 . S
N85 N86 1.388 . S
N86 Co69 1.993 . S
N86 N85 1.388 . S
N86 C87 1.346 . S
C87 N86 1.346 . S
C87 C88 1.396 . S
C87 C97 1.510 . S
C88 C84 1.401 . S
C88 C87 1.396 . S
C89 C84 1.499 . S
C89 H90 0.959 . S
C89 H91 0.960 . S
C89 H92 0.961 . S
H90 C89 0.959 . S
H91 C89 0.960 . S
H92 C89 0.961 . S
O93 Co68 1.967 . S
O93 C101 1.258 . S
O94 Co69 1.941 . S
O94 C101 1.266 . S
H95 C97 0.959 . S
H96 C97 0.961 . S
C97 C87 1.510 . S
C97 H95 0.959 . S
C97 H96 0.961 . S
C97 H98 0.960 . S
H98 C97 0.960 . S
H99 N79 0.862 . S
O100 Co68 1.920 . S
O100 C73 1.289 . S
C101 O93 1.258 . S
C101 O94 1.266 . S
Co102 O105 1.970 . S
Co102 N119 1.989 . S
Co102 O127 1.967 . S
Co102 O134 1.920 . S
Co103 O106 1.966 . S
Co103 N112 2.022 . S
Co103 N120 1.993 . S
Co103 O128 1.941 . S
C104 O105 1.258 . S
C104 O106 1.263 . S
O105 Co102 1.970 . S
O105 C104 1.258 . S
O106 Co103 1.966 . S
O106 C104 1.263 . S
C107 O108 1.235 . S
C107 O134 1.289 . S
O108 C107 1.235 . S
C109 C111 1.400 . S
C109 N112 1.351 . S
C109 C114 1.501 . S
C110 C111 1.387 . S
C110 N113 1.341 . S
C111 C109 1.400 . S
C111 C110 1.387 . S
N112 Co103 2.022 . S
N112 C109 1.351 . S
N112 N113 1.365 . S
N113 C110 1.341 . S
N113 N112 1.365 . S
N113 H133 0.862 . S
C114 C109 1.501 . S
C114 H115 0.961 . S
C114 H116 0.961 1_655 S
C114 H117 0.960 1_655 S
H115 C114 0.961 . S
H116 C114 0.961 1_455 S
H117 C114 0.960 1_455 S
C118 N119 1.342 . S
C118 C122 1.401 . S
C118 C123 1.499 . S
N119 Co102 1.989 . S
N119 C118 1.342 . S
N119 N120 1.388 . S
N120 Co103 1.993 . S
N120 N119 1.388 . S
N120 C121 1.346 . S
C121 N120 1.346 . S
C121 C122 1.396 . S
C121 C131 1.510 . S
C122 C118 1.401 . S
C122 C121 1.396 . S
C123 C118 1.499 . S
C123 H124 0.959 . S
C123 H125 0.960 . S
C123 H126 0.961 . S
H124 C123 0.959 . S
H125 C123 0.960 . S
H126 C123 0.961 . S
O127 Co102 1.967 . S
O127 C135 1.258 . S
O128 Co103 1.941 . S
O128 C135 1.266 . S
H129 C131 0.959 . S
H130 C131 0.961 . S
C131 C121 1.510 . S
C131 H129 0.959 . S
C131 H130 0.961 . S
C131 H132 0.960 . S
H132 C131 0.960 . S
H133 N113 0.862 . S
O134 Co102 1.920 . S
O134 C107 1.289 . S
C135 O127 1.258 . S
C135 O128 1.266 . S
Co136 O139 1.970 . S
Co136 N153 2.031 . S
Co136 O161 1.967 . S
Co136 O168 1.920 . S
Co137 O140 1.966 . S
Co137 N146 2.022 . S
Co137 N154 2.047 . S
Co137 O162 1.941 . S
C138 O139 1.258 . S
C138 O140 1.263 . S
O139 Co136 1.970 . S
O139 C138 1.258 . S
O140 Co137 1.966 . S
O140 C138 1.263 . S
C141 O142 1.235 . S
C141 O168 1.289 . S
O142 C141 1.235 . S
C143 C145 1.400 . S
C143 N146 1.351 . S
C143 C148 1.501 . S
C144 C145 1.387 . S
C144 N147 1.341 . S
C145 C143 1.400 . S
C145 C144 1.387 . S
N146 Co137 2.022 . S
N146 C143 1.351 . S
N146 N147 1.365 . S
N147 C144 1.341 . S
N147 N146 1.365 . S
N147 H167 0.862 . S
C148 C143 1.501 . S
C148 H149 0.961 . S
C148 H150 0.961 . S
C148 H151 0.960 . S
H149 C148 0.961 . S
H150 C148 0.961 . S
H151 C148 0.960 . S
C152 N153 1.297 1_554 S
C152 C156 1.401 . S
C152 C157 1.499 . S
N153 Co136 2.031 . S
N153 C152 1.297 1_556 S
N153 N154 1.388 . S
N154 Co137 2.047 . S
N154 N153 1.388 . S
N154 C155 1.290 1_556 S
C155 N154 1.290 1_554 S
C155 C156 1.396 . S
C155 C165 1.510 . S
C156 C152 1.401 . S
C156 C155 1.396 . S
C157 C152 1.499 . S
C157 H158 0.959 . S
C157 H159 0.960 . S
C157 H160 0.961 . S
H158 C157 0.959 . S
H159 C157 0.960 . S
H160 C157 0.961 . S
O161 Co136 1.967 . S
O161 C169 1.258 . S
O162 Co137 1.941 . S
O162 C169 1.266 . S
H163 C165 0.959 . S
H164 C165 0.961 . S
C165 C155 1.510 . S
C165 H163 0.959 . S
C165 H164 0.961 . S
C165 H166 0.960 . S
H166 C165 0.960 . S
H167 N147 0.862 . S
O168 Co136 1.920 . S
O168 C141 1.289 . S
C169 O161 1.258 . S
C169 O162 1.266 . S
Co170 O173 1.970 . S
Co170 N187 1.989 . S
Co170 O195 1.967 . S
Co170 O202 1.920 . S
Co171 O174 1.966 . S
Co171 N180 2.022 . S
Co171 N188 1.993 . S
Co171 O196 1.941 . S
C172 O173 1.258 . S
C172 O174 1.263 . S
O173 Co170 1.970 . S
O173 C172 1.258 . S
O174 Co171 1.966 . S
O174 C172 1.263 . S
C175 O176 1.235 . S
C175 O202 1.289 . S
O176 C175 1.235 . S
C177 C179 1.400 . S
C177 N180 1.351 . S
C177 C182 1.501 . S
C178 C179 1.387 . S
C178 N181 1.341 . S
C179 C177 1.400 . S
C179 C178 1.387 . S
N180 Co171 2.022 . S
N180 C177 1.351 . S
N180 N181 1.365 . S
N181 C178 1.341 . S
N181 N180 1.365 . S
N181 H201 0.862 . S
C182 C177 1.501 . S
C182 H183 0.961 . S
C182 H184 0.961 1_455 S
C182 H185 0.960 1_455 S
H183 C182 0.961 . S
H184 C182 0.961 1_655 S
H185 C182 0.960 1_655 S
C186 N187 1.342 . S
C186 C190 1.401 . S
C186 C191 1.499 . S
N187 Co170 1.989 . S
N187 C186 1.342 . S
N187 N188 1.388 . S
N188 Co171 1.993 . S
N188 N187 1.388 . S
N188 C189 1.346 . S
C189 N188 1.346 . S
C189 C190 1.396 . S
C189 C199 1.510 . S
C190 C186 1.401 . S
C190 C189 1.396 . S
C191 C186 1.499 . S
C191 H192 0.959 . S
C191 H193 0.960 . S
C191 H194 0.961 . S
H192 C191 0.959 . S
H193 C191 0.960 . S
H194 C191 0.961 . S
O195 Co170 1.967 . S
O195 C203 1.258 . S
O196 Co171 1.941 . S
O196 C203 1.266 . S
H197 C199 0.959 . S
H198 C199 0.961 . S
C199 C189 1.510 . S
C199 H197 0.959 . S
C199 H198 0.961 . S
C199 H200 0.960 . S
H200 C199 0.960 . S
H201 N181 0.862 . S
O202 Co170 1.920 . S
O202 C175 1.289 . S
C203 O195 1.258 . S
C203 O196 1.266 . S
Co204 O207 1.970 . S
Co204 N221 2.031 . S
Co204 O229 1.967 . S
Co204 O236 1.920 . S
Co205 O208 1.966 . S
Co205 N214 2.022 . S
Co205 N222 2.047 . S
Co205 O230 1.941 . S
C206 O207 1.258 . S
C206 O208 1.263 . S
O207 Co204 1.970 . S
O207 C206 1.258 . S
O208 Co205 1.966 . S
O208 C206 1.263 . S
C209 O210 1.235 . S
C209 O236 1.289 . S
O210 C209 1.235 . S
C211 C213 1.400 . S
C211 N214 1.351 . S
C211 C216 1.501 . S
C212 C213 1.387 . S
C212 N215 1.341 . S
C213 C211 1.400 . S
C213 C212 1.387 . S
N214 Co205 2.022 . S
N214 C211 1.351 . S
N214 N215 1.365 . S
N215 C212 1.341 . S
N215 N214 1.365 . S
N215 H235 0.862 . S
C216 C211 1.501 . S
C216 H217 0.961 . S
C216 H218 0.961 . S
C216 H219 0.960 . S
H217 C216 0.961 . S
H218 C216 0.961 . S
H219 C216 0.960 . S
C220 N221 1.297 1_556 S
C220 C224 1.401 . S
C220 C225 1.499 . S
N221 Co204 2.031 . S
N221 C220 1.297 1_554 S
N221 N222 1.388 . S
N222 Co205 2.047 . S
N222 N221 1.388 . S
N222 C223 1.290 1_554 S
C223 N222 1.290 1_556 S
C223 C224 1.396 . S
C223 C233 1.510 . S
C224 C220 1.401 . S
C224 C223 1.396 . S
C225 C220 1.499 . S
C225 H226 0.959 . S
C225 H227 0.960 . S
C225 H228 0.961 . S
H226 C225 0.959 . S
H227 C225 0.960 . S
H228 C225 0.961 . S
O229 Co204 1.967 . S
O229 C237 1.258 . S
O230 Co205 1.941 . S
O230 C237 1.266 . S
H231 C233 0.959 . S
H232 C233 0.961 . S
C233 C223 1.510 . S
C233 H231 0.959 . S
C233 H232 0.961 . S
C233 H234 0.960 . S
H234 C233 0.960 . S
H235 N215 0.862 . S
O236 Co204 1.920 . S
O236 C209 1.289 . S
C237 O229 1.258 . S
C237 O230 1.266 . S
Co238 O241 1.970 . S
Co238 N255 1.989 . S
Co238 O263 1.967 . S
Co238 O270 1.920 . S
Co239 O242 1.966 . S
Co239 N248 2.022 . S
Co239 N256 1.993 . S
Co239 O264 1.941 . S
C240 O241 1.258 . S
C240 O242 1.263 . S
O241 Co238 1.970 . S
O241 C240 1.258 . S
O242 Co239 1.966 . S
O242 C240 1.263 . S
C243 O244 1.235 . S
C243 O270 1.289 . S
O244 C243 1.235 . S
C245 C247 1.400 . S
C245 N248 1.351 . S
C245 C250 1.501 . S
C246 C247 1.387 . S
C246 N249 1.341 . S
C247 C245 1.400 . S
C247 C246 1.387 . S
N248 Co239 2.022 . S
N248 C245 1.351 . S
N248 N249 1.365 . S
N249 C246 1.341 . S
N249 N248 1.365 . S
N249 H269 0.862 . S
C250 C245 1.501 . S
C250 H251 0.961 . S
C250 H252 0.961 1_655 S
C250 H253 0.960 1_655 S
H251 C250 0.961 . S
H252 C250 0.961 1_455 S
H253 C250 0.960 1_455 S
C254 N255 1.342 . S
C254 C258 1.401 . S
C254 C259 1.499 . S
N255 Co238 1.989 . S
N255 C254 1.342 . S
N255 N256 1.388 . S
N256 Co239 1.993 . S
N256 N255 1.388 . S
N256 C257 1.346 . S
C257 N256 1.346 . S
C257 C258 1.396 . S
C257 C267 1.510 . S
C258 C254 1.401 . S
C258 C257 1.396 . S
C259 C254 1.499 . S
C259 H260 0.959 . S
C259 H261 0.960 . S
C259 H262 0.961 . S
H260 C259 0.959 . S
H261 C259 0.960 . S
H262 C259 0.961 . S
O263 Co238 1.967 . S
O263 C271 1.258 . S
O264 Co239 1.941 . S
O264 C271 1.266 . S
H265 C267 0.959 . S
H266 C267 0.961 . S
C267 C257 1.510 . S
C267 H265 0.959 . S
C267 H266 0.961 . S
C267 H268 0.960 . S
H268 C267 0.960 . S
H269 N249 0.862 . S
O270 Co238 1.920 . S
O270 C243 1.289 . S
C271 O263 1.258 . S
C271 O264 1.266 . S
Co272 O275 1.970 . S
Co272 N289 2.031 . S
Co272 O297 1.967 . S
Co272 O304 1.920 . S
Co273 O276 1.966 . S
Co273 N282 2.022 . S
Co273 N290 2.047 . S
Co273 O298 1.941 . S
C274 O275 1.258 . S
C274 O276 1.263 . S
O275 Co272 1.970 . S
O275 C274 1.258 . S
O276 Co273 1.966 . S
O276 C274 1.263 . S
C277 O278 1.235 . S
C277 O304 1.289 . S
O278 C277 1.235 . S
C279 C281 1.400 . S
C279 N282 1.351 . S
C279 C284 1.501 . S
C280 C281 1.387 . S
C280 N283 1.341 . S
C281 C279 1.400 . S
C281 C280 1.387 . S
N282 Co273 2.022 . S
N282 C279 1.351 . S
N282 N283 1.365 . S
N283 C280 1.341 . S
N283 N282 1.365 . S
N283 H303 0.862 . S
C284 C279 1.501 . S
C284 H285 0.961 . S
C284 H286 0.961 . S
C284 H287 0.960 . S
H285 C284 0.961 . S
H286 C284 0.961 . S
H287 C284 0.960 . S
C288 N289 1.297 1_554 S
C288 C292 1.401 . S
C288 C293 1.499 . S
N289 Co272 2.031 . S
N289 C288 1.297 1_556 S
N289 N290 1.388 . S
N290 Co273 2.047 . S
N290 N289 1.388 . S
N290 C291 1.290 1_556 S
C291 N290 1.290 1_554 S
C291 C292 1.396 . S
C291 C301 1.510 . S
C292 C288 1.401 . S
C292 C291 1.396 . S
C293 C288 1.499 . S
C293 H294 0.959 . S
C293 H295 0.960 . S
C293 H296 0.961 . S
H294 C293 0.959 . S
H295 C293 0.960 . S
H296 C293 0.961 . S
O297 Co272 1.967 . S
O297 C305 1.258 . S
O298 Co273 1.941 . S
O298 C305 1.266 . S
H299 C301 0.959 . S
H300 C301 0.961 . S
C301 C291 1.510 . S
C301 H299 0.959 . S
C301 H300 0.961 . S
C301 H302 0.960 . S
H302 C301 0.960 . S
H303 N283 0.862 . S
O304 Co272 1.920 . S
O304 C277 1.289 . S
C305 O297 1.258 . S
C305 O298 1.266 . S
Co306 O309 1.970 . S
Co306 N323 1.989 . S
Co306 O331 1.967 . S
Co306 O338 1.920 . S
Co307 O310 1.966 . S
Co307 N316 2.022 . S
Co307 N324 1.993 . S
Co307 O332 1.941 . S
C308 O309 1.258 . S
C308 O310 1.263 . S
O309 Co306 1.970 . S
O309 C308 1.258 . S
O310 Co307 1.966 . S
O310 C308 1.263 . S
C311 O312 1.235 . S
C311 O338 1.289 . S
O312 C311 1.235 . S
C313 C315 1.400 . S
C313 N316 1.351 . S
C313 C318 1.501 . S
C314 C315 1.387 . S
C314 N317 1.341 . S
C315 C313 1.400 . S
C315 C314 1.387 . S
N316 Co307 2.022 . S
N316 C313 1.351 . S
N316 N317 1.365 . S
N317 C314 1.341 . S
N317 N316 1.365 . S
N317 H337 0.862 . S
C318 C313 1.501 . S
C318 H319 0.961 . S
C318 H320 0.961 . S
C318 H321 0.960 . S
H319 C318 0.961 . S
H320 C318 0.961 . S
H321 C318 0.960 . S
C322 N323 1.342 . S
C322 C326 1.401 . S
C322 C327 1.499 . S
N323 Co306 1.989 . S
N323 C322 1.342 . S
N323 N324 1.388 . S
N324 Co307 1.993 . S
N324 N323 1.388 . S
N324 C325 1.346 . S
C325 N324 1.346 . S
C325 C326 1.396 . S
C325 C335 1.510 . S
C326 C322 1.401 . S
C326 C325 1.396 . S
C327 C322 1.499 . S
C327 H328 0.959 . S
C327 H329 0.960 . S
C327 H330 0.961 . S
H328 C327 0.959 . S
H329 C327 0.960 . S
H330 C327 0.961 . S
O331 Co306 1.967 . S
O331 C339 1.258 . S
O332 Co307 1.941 . S
O332 C339 1.266 . S
H333 C335 0.959 . S
H334 C335 0.961 . S
C335 C325 1.510 . S
C335 H333 0.959 . S
C335 H334 0.961 . S
C335 H336 0.960 . S
H336 C335 0.960 . S
H337 N317 0.862 . S
O338 Co306 1.920 . S
O338 C311 1.289 . S
C339 O331 1.258 . S
C339 O332 1.266 . S
Co340 O343 1.970 . S
Co340 N357 2.031 . S
Co340 O365 1.967 . S
Co340 O372 1.920 . S
Co341 O344 1.966 . S
Co341 N350 2.022 . S
Co341 N358 2.047 . S
Co341 O366 1.941 . S
C342 O343 1.258 . S
C342 O344 1.263 . S
O343 Co340 1.970 . S
O343 C342 1.258 . S
O344 Co341 1.966 . S
O344 C342 1.263 . S
C345 O346 1.235 . S
C345 O372 1.289 . S
O346 C345 1.235 . S
C347 C349 1.400 . S
C347 N350 1.351 . S
C347 C352 1.501 . S
C348 C349 1.387 . S
C348 N351 1.341 . S
C349 C347 1.400 . S
C349 C348 1.387 . S
N350 Co341 2.022 . S
N350 C347 1.351 . S
N350 N351 1.365 . S
N351 C348 1.341 . S
N351 N350 1.365 . S
N351 H371 0.862 . S
C352 C347 1.501 . S
C352 H353 0.961 . S
C352 H354 0.961 . S
C352 H355 0.960 . S
H353 C352 0.961 . S
H354 C352 0.961 . S
H355 C352 0.960 . S
C356 N357 1.297 1_556 S
C356 C360 1.401 . S
C356 C361 1.499 . S
N357 Co340 2.031 . S
N357 C356 1.297 1_554 S
N357 N358 1.388 . S
N358 Co341 2.047 . S
N358 N357 1.388 . S
N358 C359 1.290 1_554 S
C359 N358 1.290 1_556 S
C359 C360 1.396 . S
C359 C369 1.510 . S
C360 C356 1.401 . S
C360 C359 1.396 . S
C361 C356 1.499 . S
C361 H362 0.959 . S
C361 H363 0.960 . S
C361 H364 0.961 . S
H362 C361 0.959 . S
H363 C361 0.960 . S
H364 C361 0.961 . S
O365 Co340 1.967 . S
O365 C373 1.258 . S
O366 Co341 1.941 . S
O366 C373 1.266 . S
H367 C369 0.959 . S
H368 C369 0.961 . S
C369 C359 1.510 . S
C369 H367 0.959 . S
C369 H368 0.961 . S
C369 H370 0.960 . S
H370 C369 0.960 . S
H371 N351 0.862 . S
O372 Co340 1.920 . S
O372 C345 1.289 . S
C373 O365 1.258 . S
C373 O366 1.266 . S
Co374 O377 1.970 . S
Co374 N391 1.989 . S
Co374 O399 1.967 . S
Co374 O406 1.920 . S
Co375 O378 1.966 . S
Co375 N384 2.022 . S
Co375 N392 1.993 . S
Co375 O400 1.941 . S
C376 O377 1.258 . S
C376 O378 1.263 . S
O377 Co374 1.970 . S
O377 C376 1.258 . S
O378 Co375 1.966 . S
O378 C376 1.263 . S
C379 O380 1.235 . S
C379 O406 1.289 . S
O380 C379 1.235 . S
C381 C383 1.400 . S
C381 N384 1.351 . S
C381 C386 1.501 . S
C382 C383 1.387 . S
C382 N385 1.341 . S
C383 C381 1.400 . S
C383 C382 1.387 . S
N384 Co375 2.022 . S
N384 C381 1.351 . S
N384 N385 1.365 . S
N385 C382 1.341 . S
N385 N384 1.365 . S
N385 H405 0.862 . S
C386 C381 1.501 . S
C386 H387 0.961 . S
C386 H388 0.961 . S
C386 H389 0.960 . S
H387 C386 0.961 . S
H388 C386 0.961 . S
H389 C386 0.960 . S
C390 N391 1.342 . S
C390 C394 1.401 . S
C390 C395 1.499 . S
N391 Co374 1.989 . S
N391 C390 1.342 . S
N391 N392 1.388 . S
N392 Co375 1.993 . S
N392 N391 1.388 . S
N392 C393 1.346 . S
C393 N392 1.346 . S
C393 C394 1.396 . S
C393 C403 1.510 . S
C394 C390 1.401 . S
C394 C393 1.396 . S
C395 C390 1.499 . S
C395 H396 0.959 . S
C395 H397 0.960 . S
C395 H398 0.961 . S
H396 C395 0.959 . S
H397 C395 0.960 . S
H398 C395 0.961 . S
O399 Co374 1.967 . S
O399 C407 1.258 . S
O400 Co375 1.941 . S
O400 C407 1.266 . S
H401 C403 0.959 . S
H402 C403 0.961 . S
C403 C393 1.510 . S
C403 H401 0.959 . S
C403 H402 0.961 . S
C403 H404 0.960 . S
H404 C403 0.960 . S
H405 N385 0.862 . S
O406 Co374 1.920 . S
O406 C379 1.289 . S
C407 O399 1.258 . S
C407 O400 1.266 . S
Co408 O411 1.970 . S
Co408 N425 1.989 . S
Co408 O433 1.967 . S
Co408 O440 1.920 . S
Co409 O412 1.966 . S
Co409 N418 2.022 . S
Co409 N426 1.993 . S
Co409 O434 1.941 . S
C410 O411 1.258 . S
C410 O412 1.263 . S
O411 Co408 1.970 . S
O411 C410 1.258 . S
O412 Co409 1.966 . S
O412 C410 1.263 . S
C413 O414 1.235 . S
C413 O440 1.289 . S
O414 C413 1.235 . S
C415 C417 1.400 . S
C415 N418 1.351 . S
C415 C420 1.501 . S
C416 C417 1.387 . S
C416 N419 1.341 . S
C417 C415 1.400 . S
C417 C416 1.387 . S
N418 Co409 2.022 . S
N418 C415 1.351 . S
N418 N419 1.365 . S
N419 C416 1.341 . S
N419 N418 1.365 . S
N419 H439 0.862 . S
C420 C415 1.501 . S
C420 H421 0.961 . S
C420 H422 0.961 . S
C420 H423 0.960 . S
H421 C420 0.961 . S
H422 C420 0.961 . S
H423 C420 0.960 . S
C424 N425 1.342 . S
C424 C428 1.401 . S
C424 C429 1.499 . S
N425 Co408 1.989 . S
N425 C424 1.342 . S
N425 N426 1.388 . S
N426 Co409 1.993 . S
N426 N425 1.388 . S
N426 C427 1.346 . S
C427 N426 1.346 . S
C427 C428 1.396 . S
C427 C437 1.510 . S
C428 C424 1.401 . S
C428 C427 1.396 . S
C429 C424 1.499 . S
C429 H430 0.959 . S
C429 H431 0.960 . S
C429 H432 0.961 . S
H430 C429 0.959 . S
H431 C429 0.960 . S
H432 C429 0.961 . S
O433 Co408 1.967 . S
O433 C441 1.258 . S
O434 Co409 1.941 . S
O434 C441 1.266 . S
H435 C437 0.959 . S
H436 C437 0.961 . S
C437 C427 1.510 . S
C437 H435 0.959 . S
C437 H436 0.961 . S
C437 H438 0.960 . S
H438 C437 0.960 . S
H439 N419 0.862 . S
O440 Co408 1.920 . S
O440 C413 1.289 . S
C441 O433 1.258 . S
C441 O434 1.266 . S
Co442 O445 1.970 . S
Co442 N459 1.989 . S
Co442 O467 1.967 . S
Co442 O474 1.920 . S
Co443 O446 1.966 . S
Co443 N452 2.022 . S
Co443 N460 1.993 . S
Co443 O468 1.941 . S
C444 O445 1.258 . S
C444 O446 1.263 . S
O445 Co442 1.970 . S
O445 C444 1.258 . S
O446 Co443 1.966 . S
O446 C444 1.263 . S
C447 O448 1.235 . S
C447 O474 1.289 . S
O448 C447 1.235 . S
C449 C451 1.400 . S
C449 N452 1.351 . S
C449 C454 1.501 . S
C450 C451 1.387 . S
C450 N453 1.341 . S
C451 C449 1.400 . S
C451 C450 1.387 . S
N452 Co443 2.022 . S
N452 C449 1.351 . S
N452 N453 1.365 . S
N453 C450 1.341 . S
N453 N452 1.365 . S
N453 H473 0.862 . S
C454 C449 1.501 . S
C454 H455 0.961 . S
C454 H456 0.961 . S
C454 H457 0.960 . S
H455 C454 0.961 . S
H456 C454 0.961 . S
H457 C454 0.960 . S
C458 N459 1.342 . S
C458 C462 1.401 . S
C458 C463 1.499 . S
N459 Co442 1.989 . S
N459 C458 1.342 . S
N459 N460 1.388 . S
N460 Co443 1.993 . S
N460 N459 1.388 . S
N460 C461 1.346 . S
C461 N460 1.346 . S
C461 C462 1.396 . S
C461 C471 1.510 . S
C462 C458 1.401 . S
C462 C461 1.396 . S
C463 C458 1.499 . S
C463 H464 0.959 . S
C463 H465 0.960 . S
C463 H466 0.961 . S
H464 C463 0.959 . S
H465 C463 0.960 . S
H466 C463 0.961 . S
O467 Co442 1.967 . S
O467 C475 1.258 . S
O468 Co443 1.941 . S
O468 C475 1.266 . S
H469 C471 0.959 . S
H470 C471 0.961 . S
C471 C461 1.510 . S
C471 H469 0.959 . S
C471 H470 0.961 . S
C471 H472 0.960 . S
H472 C471 0.960 . S
H473 N453 0.862 . S
O474 Co442 1.920 . S
O474 C447 1.289 . S
C475 O467 1.258 . S
C475 O468 1.266 . S
Co476 O479 1.970 . S
Co476 N493 1.989 . S
Co476 O501 1.967 . S
Co476 O508 1.920 . S
Co477 O480 1.966 . S
Co477 N486 2.022 . S
Co477 N494 1.993 . S
Co477 O502 1.941 . S
C478 O479 1.258 . S
C478 O480 1.263 . S
O479 Co476 1.970 . S
O479 C478 1.258 . S
O480 Co477 1.966 . S
O480 C478 1.263 . S
C481 O482 1.235 . S
C481 O508 1.289 . S
O482 C481 1.235 . S
C483 C485 1.400 . S
C483 N486 1.351 . S
C483 C488 1.501 . S
C484 C485 1.387 . S
C484 N487 1.341 . S
C485 C483 1.400 . S
C485 C484 1.387 . S
N486 Co477 2.022 . S
N486 C483 1.351 . S
N486 N487 1.365 . S
N487 C484 1.341 . S
N487 N486 1.365 . S
N487 H507 0.862 . S
C488 C483 1.501 . S
C488 H489 0.961 . S
C488 H490 0.961 . S
C488 H491 0.960 . S
H489 C488 0.961 . S
H490 C488 0.961 . S
H491 C488 0.960 . S
C492 N493 1.342 . S
C492 C496 1.401 . S
C492 C497 1.499 . S
N493 Co476 1.989 . S
N493 C492 1.342 . S
N493 N494 1.388 . S
N494 Co477 1.993 . S
N494 N493 1.388 . S
N494 C495 1.346 . S
C495 N494 1.346 . S
C495 C496 1.396 . S
C495 C505 1.510 . S
C496 C492 1.401 . S
C496 C495 1.396 . S
C497 C492 1.499 . S
C497 H498 0.959 . S
C497 H499 0.960 . S
C497 H500 0.961 . S
H498 C497 0.959 . S
H499 C497 0.960 . S
H500 C497 0.961 . S
O501 Co476 1.967 . S
O501 C509 1.258 . S
O502 Co477 1.941 . S
O502 C509 1.266 . S
H503 C505 0.959 . S
H504 C505 0.961 . S
C505 C495 1.510 . S
C505 H503 0.959 . S
C505 H504 0.961 . S
C505 H506 0.960 . S
H506 C505 0.960 . S
H507 N487 0.862 . S
O508 Co476 1.920 . S
O508 C481 1.289 . S
C509 O501 1.258 . S
C509 O502 1.266 . S
Co510 O513 1.970 . S
Co510 N527 1.989 . S
Co510 O535 1.967 . S
Co510 O542 1.920 . S
Co511 O514 1.966 . S
Co511 N520 2.022 . S
Co511 N528 1.993 . S
Co511 O536 1.941 . S
C512 O513 1.258 . S
C512 O514 1.263 . S
O513 Co510 1.970 . S
O513 C512 1.258 . S
O514 Co511 1.966 . S
O514 C512 1.263 . S
C515 O516 1.235 . S
C515 O542 1.289 . S
O516 C515 1.235 . S
C517 C519 1.400 . S
C517 N520 1.351 . S
C517 C522 1.501 . S
C518 C519 1.387 . S
C518 N521 1.341 . S
C519 C517 1.400 . S
C519 C518 1.387 . S
N520 Co511 2.022 . S
N520 C517 1.351 . S
N520 N521 1.365 . S
N521 C518 1.341 . S
N521 N520 1.365 . S
N521 H541 0.862 . S
C522 C517 1.501 . S
C522 H523 0.961 . S
C522 H524 0.961 . S
C522 H525 0.960 . S
H523 C522 0.961 . S
H524 C522 0.961 . S
H525 C522 0.960 . S
C526 N527 1.342 . S
C526 C530 1.401 . S
C526 C531 1.499 . S
N527 Co510 1.989 . S
N527 C526 1.342 . S
N527 N528 1.388 . S
N528 Co511 1.993 . S
N528 N527 1.388 . S
N528 C529 1.346 . S
C529 N528 1.346 . S
C529 C530 1.396 . S
C529 C539 1.510 . S
C530 C526 1.401 . S
C530 C529 1.396 . S
C531 C526 1.499 . S
C531 H532 0.959 . S
C531 H533 0.960 . S
C531 H534 0.961 . S
H532 C531 0.959 . S
H533 C531 0.960 . S
H534 C531 0.961 . S
O535 Co510 1.967 . S
O535 C543 1.258 . S
O536 Co511 1.941 . S
O536 C543 1.266 . S
H537 C539 0.959 . S
H538 C539 0.961 . S
C539 C529 1.510 . S
C539 H537 0.959 . S
C539 H538 0.961 . S
C539 H540 0.960 . S
H540 C539 0.960 . S
H541 N521 0.862 . S
O542 Co510 1.920 . S
O542 C515 1.289 . S
C543 O535 1.258 . S
C543 O536 1.266 . S
C544 C545 1.349 . S
C544 C546 1.327 . S
C544 H569 0.950 . S
C545 C544 1.349 . S
C545 C561 1.349 . S
C546 C544 1.327 . S
C546 C565 1.429 . S
C546 H570 0.950 . S
C547 C564 1.574 . S
C547 C566 1.368 . S
C547 H571 0.949 . S
H548 C552 0.949 . S
C549 C550 1.349 . S
C549 C551 1.327 . S
C549 H572 0.950 . S
C550 C549 1.349 . S
C550 C562 1.349 . S
C551 C549 1.327 . S
C551 C567 1.429 . S
C551 H573 0.950 . S
C552 H548 0.949 . S
C552 C560 1.574 . S
C552 C568 1.368 . S
H553 C561 0.950 . S
H554 C559 0.950 . S
H555 C560 0.949 . S
H556 C562 0.950 . S
H557 C563 0.950 . S
H558 C564 0.949 . S
C559 H554 0.950 . S
C559 C561 1.327 . S
C559 C565 1.429 . S
C560 C552 1.574 . S
C560 H555 0.949 . S
C560 C566 1.368 . S
C561 C545 1.349 . S
C561 H553 0.950 . S
C561 C559 1.327 . S
C562 C550 1.349 . S
C562 H556 0.950 . S
C562 C563 1.327 . S
C563 H557 0.950 . S
C563 C562 1.327 . S
C563 C567 1.429 . S
C564 C547 1.574 . S
C564 H558 0.949 . S
C564 C568 1.368 . S
C565 C546 1.429 . S
C565 C559 1.429 . S
C565 C566 1.523 . S
C566 C547 1.368 . S
C566 C560 1.368 . S
C566 C565 1.523 . S
C567 C551 1.429 . S
C567 C563 1.429 . S
C567 C568 1.523 . S
C568 C552 1.368 . S
C568 C564 1.368 . S
C568 C567 1.523 . S
H569 C544 0.950 . S
H570 C546 0.950 . S
H571 C547 0.949 . S
H572 C549 0.950 . S
H573 C551 0.950 . S
C574 C575 1.349 . S
C574 C576 1.327 . S
C574 H599 0.950 . S
C575 C574 1.349 . S
C575 C591 1.349 . S
C576 C574 1.327 . S
C576 C595 1.429 . S
C576 H600 0.950 1_655 S
C577 C594 1.574 1_565 S
C577 C596 1.368 . S
C577 H601 0.949 . S
H578 C582 0.949 . S
C579 C580 1.349 . S
C579 C581 1.327 . S
C579 H602 0.950 . S
C580 C579 1.349 . S
C580 C592 1.349 . S
C581 C579 1.327 . S
C581 C597 1.429 . S
C581 H603 0.950 1_455 S
C582 H578 0.949 . S
C582 C590 1.574 1_545 S
C582 C598 1.368 . S
H583 C591 0.950 . S
H584 C589 0.950 . S
H585 C590 0.949 . S
H586 C592 0.950 . S
H587 C593 0.950 . S
H588 C594 0.949 . S
C589 H584 0.950 . S
C589 C591 1.327 . S
C589 C595 1.429 . S
C590 C582 1.574 1_565 S
C590 H585 0.949 . S
C590 C596 1.368 1_455 S
C591 C575 1.349 . S
C591 H583 0.950 . S
C591 C589 1.327 . S
C592 C580 1.349 . S
C592 H586 0.950 . S
C592 C593 1.327 . S
C593 H587 0.950 . S
C593 C592 1.327 . S
C593 C597 1.429 . S
C594 C577 1.574 1_545 S
C594 H588 0.949 . S
C594 C598 1.368 1_655 S
C595 C576 1.429 . S
C595 C589 1.429 . S
C595 C596 1.523 . S
C596 C577 1.368 . S
C596 C590 1.368 1_655 S
C596 C595 1.523 . S
C597 C581 1.429 . S
C597 C593 1.429 . S
C597 C598 1.523 . S
C598 C582 1.368 . S
C598 C594 1.368 1_455 S
C598 C597 1.523 . S
H599 C574 0.950 . S
H600 C576 0.950 1_455 S
H601 C577 0.949 . S
H602 C579 0.950 . S
H603 C581 0.950 1_655 S
C604 C605 1.349 . S
C604 C606 1.327 . S
C604 H629 0.950 . S
C605 C604 1.349 . S
C605 C621 1.349 . S
C606 C604 1.327 . S
C606 C625 1.429 . S
C606 H630 0.950 . S
C607 C624 1.574 1_545 S
C607 C626 1.368 . S
C607 H631 0.949 . S
H608 C612 0.949 . S
C609 C610 1.349 . S
C609 C611 1.327 . S
C609 H632 0.950 . S
C610 C609 1.349 . S
C610 C622 1.349 . S
C611 C609 1.327 . S
C611 C627 1.429 . S
C611 H633 0.950 . S
C612 H608 0.949 . S
C612 C620 1.574 1_565 S
C612 C628 1.368 . S
H613 C621 0.950 . S
H614 C619 0.950 . S
H615 C620 0.949 . S
H616 C622 0.950 . S
H617 C623 0.950 . S
H618 C624 0.949 . S
C619 H614 0.950 . S
C619 C621 1.327 . S
C619 C625 1.429 . S
C620 C612 1.574 1_545 S
C620 H615 0.949 . S
C620 C626 1.368 . S
C621 C605 1.349 . S
C621 H613 0.950 . S
C621 C619 1.327 . S
C622 C610 1.349 . S
C622 H616 0.950 . S
C622 C623 1.327 . S
C623 H617 0.950 . S
C623 C622 1.327 . S
C623 C627 1.429 . S
C624 C607 1.574 1_565 S
C624 H618 0.949 . S
C624 C628 1.368 . S
C625 C606 1.429 . S
C625 C619 1.429 . S
C625 C626 1.523 . S
C626 C607 1.368 . S
C626 C620 1.368 . S
C626 C625 1.523 . S
C627 C611 1.429 . S
C627 C623 1.429 . S
C627 C628 1.523 . S
C628 C612 1.368 . S
C628 C624 1.368 . S
C628 C627 1.523 . S
H629 C604 0.950 . S
H630 C606 0.950 . S
H631 C607 0.949 . S
H632 C609 0.950 . S
H633 C611 0.950 . S
C634 C635 1.349 1_455 S
C634 C636 1.327 . S
C634 H659 0.950 . S
C635 C634 1.349 1_655 S
C635 C651 1.349 . S
C636 C634 1.327 . S
C636 C655 1.429 1_455 S
C636 H660 0.950 . S
C637 C654 1.574 . S
C637 C656 1.368 . S
C637 H661 0.949 . S
H638 C642 0.949 . S
C639 C640 1.349 1_655 S
C639 C641 1.327 . S
C639 H662 0.950 . S
C640 C639 1.349 1_455 S
C640 C652 1.349 . S
C641 C639 1.327 . S
C641 C657 1.429 1_655 S
C641 H663 0.950 . S
C642 H638 0.949 . S
C642 C650 1.574 . S
C642 C658 1.368 . S
H643 C651 0.950 . S
H644 C649 0.950 . S
H645 C650 0.949 . S
H646 C652 0.950 . S
H647 C653 0.950 . S
H648 C654 0.949 . S
C649 H644 0.950 . S
C649 C651 1.327 . S
C649 C655 1.429 . S
C650 C642 1.574 . S
C650 H645 0.949 . S
C650 C656 1.368 1_455 S
C651 C635 1.349 . S
C651 H643 0.950 . S
C651 C649 1.327 . S
C652 C640 1.349 . S
C652 H646 0.950 . S
C652 C653 1.327 . S
C653 H647 0.950 . S
C653 C652 1.327 . S
C653 C657 1.429 . S
C654 C637 1.574 . S
C654 H648 0.949 . S
C654 C658 1.368 1_655 S
C655 C636 1.429 1_655 S
C655 C649 1.429 . S
C655 C656 1.523 . S
C656 C637 1.368 . S
C656 C650 1.368 1_655 S
C656 C655 1.523 . S
C657 C641 1.429 1_455 S
C657 C653 1.429 . S
C657 C658 1.523 . S
C658 C642 1.368 . S
C658 C654 1.368 1_455 S
C658 C657 1.523 . S
H659 C634 0.950 . S
H660 C636 0.950 . S
H661 C637 0.949 . S
H662 C639 0.950 . S
H663 C641 0.950 . S
C664 C665 1.349 . S
C664 C666 1.327 . S
C664 H689 0.950 . S
C665 C664 1.349 . S
C665 C681 1.349 . S
C666 C664 1.327 . S
C666 C685 1.429 . S
C666 H690 0.950 . S
C667 C684 1.574 . S
C667 C686 1.368 . S
C667 H691 0.949 . S
H668 C672 0.949 . S
C669 C670 1.349 . S
C669 C671 1.327 . S
C669 H692 0.950 . S
C670 C669 1.349 . S
C670 C682 1.349 . S
C671 C669 1.327 . S
C671 C687 1.429 . S
C671 H693 0.950 . S
C672 H668 0.949 . S
C672 C680 1.574 . S
C672 C688 1.368 . S
H673 C681 0.950 . S
H674 C679 0.950 . S
H675 C680 0.949 . S
H676 C682 0.950 . S
H677 C683 0.950 . S
H678 C684 0.949 . S
C679 H674 0.950 . S
C679 C681 1.327 . S
C679 C685 1.429 . S
C680 C672 1.574 . S
C680 H675 0.949 . S
C680 C686 1.368 . S
C681 C665 1.349 . S
C681 H673 0.950 . S
C681 C679 1.327 . S
C682 C670 1.349 . S
C682 H676 0.950 . S
C682 C683 1.327 . S
C683 H677 0.950 . S
C683 C682 1.327 . S
C683 C687 1.429 . S
C684 C667 1.574 . S
C684 H678 0.949 . S
C684 C688 1.368 . S
C685 C666 1.429 . S
C685 C679 1.429 . S
C685 C686 1.523 . S
C686 C667 1.368 . S
C686 C680 1.368 . S
C686 C685 1.523 . S
C687 C671 1.429 . S
C687 C683 1.429 . S
C687 C688 1.523 . S
C688 C672 1.368 . S
C688 C684 1.368 . S
C688 C687 1.523 . S
H689 C664 0.950 . S
H690 C666 0.950 . S
H691 C667 0.949 . S
H692 C669 0.950 . S
H693 C671 0.950 . S
C694 C695 1.349 . S
C694 C696 1.327 . S
C694 H719 0.950 . S
C695 C694 1.349 . S
C695 C711 1.349 . S
C696 C694 1.327 . S
C696 C715 1.429 . S
C696 H720 0.950 . S
C697 C714 1.574 1_565 S
C697 C716 1.368 . S
C697 H721 0.949 . S
H698 C702 0.949 . S
C699 C700 1.349 . S
C699 C701 1.327 . S
C699 H722 0.950 . S
C700 C699 1.349 . S
C700 C712 1.349 . S
C701 C699 1.327 . S
C701 C717 1.429 . S
C701 H723 0.950 . S
C702 H698 0.949 . S
C702 C710 1.574 1_545 S
C702 C718 1.368 . S
H703 C711 0.950 . S
H704 C709 0.950 . S
H705 C710 0.949 . S
H706 C712 0.950 . S
H707 C713 0.950 . S
H708 C714 0.949 . S
C709 H704 0.950 . S
C709 C711 1.327 . S
C709 C715 1.429 . S
C710 C702 1.574 1_565 S
C710 H705 0.949 . S
C710 C716 1.368 . S
C711 C695 1.349 . S
C711 H703 0.950 . S
C711 C709 1.327 . S
C712 C700 1.349 . S
C712 H706 0.950 . S
C712 C713 1.327 . S
C713 H707 0.950 . S
C713 C712 1.327 . S
C713 C717 1.429 . S
C714 C697 1.574 1_545 S
C714 H708 0.949 . S
C714 C718 1.368 . S
C715 C696 1.429 . S
C715 C709 1.429 . S
C715 C716 1.523 . S
C716 C697 1.368 . S
C716 C710 1.368 . S
C716 C715 1.523 . S
C717 C701 1.429 . S
C717 C713 1.429 . S
C717 C718 1.523 . S
C718 C702 1.368 . S
C718 C714 1.368 . S
C718 C717 1.523 . S
H719 C694 0.950 . S
H720 C696 0.950 . S
H721 C697 0.949 . S
H722 C699 0.950 . S
H723 C701 0.950 . S
C724 C725 1.349 . S
C724 C726 1.327 . S
C724 H749 0.950 . S
C725 C724 1.349 . S
C725 C741 1.349 1_655 S
C726 C724 1.327 . S
C726 C745 1.429 . S
C726 H750 0.950 . S
C727 C744 1.574 . S
C727 C746 1.368 1_455 S
C727 H751 0.949 . S
H728 C732 0.949 . S
C729 C730 1.349 . S
C729 C731 1.327 . S
C729 H752 0.950 . S
C730 C729 1.349 . S
C730 C742 1.349 1_455 S
C731 C729 1.327 . S
C731 C747 1.429 . S
C731 H753 0.950 . S
C732 H728 0.949 . S
C732 C740 1.574 . S
C732 C748 1.368 1_655 S
H733 C741 0.950 . S
H734 C739 0.950 . S
H735 C740 0.949 . S
H736 C742 0.950 . S
H737 C743 0.950 . S
H738 C744 0.949 . S
C739 H734 0.950 . S
C739 C741 1.327 . S
C739 C745 1.429 1_455 S
C740 C732 1.574 . S
C740 H735 0.949 . S
C740 C746 1.368 . S
C741 C725 1.349 1_455 S
C741 H733 0.950 . S
C741 C739 1.327 . S
C742 C730 1.349 1_655 S
C742 H736 0.950 . S
C742 C743 1.327 . S
C743 H737 0.950 . S
C743 C742 1.327 . S
C743 C747 1.429 1_655 S
C744 C727 1.574 . S
C744 H738 0.949 . S
C744 C748 1.368 . S
C745 C726 1.429 . S
C745 C739 1.429 1_655 S
C745 C746 1.523 . S
C746 C727 1.368 1_655 S
C746 C740 1.368 . S
C746 C745 1.523 . S
C747 C731 1.429 . S
C747 C743 1.429 1_455 S
C747 C748 1.523 . S
C748 C732 1.368 1_455 S
C748 C744 1.368 . S
C748 C747 1.523 . S
H749 C724 0.950 . S
H750 C726 0.950 . S
H751 C727 0.949 . S
H752 C729 0.950 . S
H753 C731 0.950 . S
C754 C755 1.349 1_556 S
C754 C756 1.327 . S
C754 H779 0.950 . S
C755 C754 1.349 1_554 S
C755 C771 1.349 . S
C756 C754 1.327 . S
C756 C775 1.429 1_556 S
C756 H780 0.950 . S
C757 C774 1.574 . S
C757 C776 1.368 . S
C757 H781 0.949 . S
H758 C762 0.949 . S
C759 C760 1.349 1_554 S
C759 C761 1.327 . S
C759 H782 0.950 . S
C760 C759 1.349 1_556 S
C760 C772 1.349 . S
C761 C759 1.327 . S
C761 C777 1.429 1_554 S
C761 H783 0.950 . S
C762 H758 0.949 . S
C762 C770 1.574 . S
C762 C778 1.368 . S
H763 C771 0.950 . S
H764 C769 0.950 . S
H765 C770 0.949 . S
H766 C772 0.950 . S
H767 C773 0.950 . S
H768 C774 0.949 . S
C769 H764 0.950 . S
C769 C771 1.327 . S
C769 C775 1.429 . S
C770 C762 1.574 . S
C770 H765 0.949 . S
C770 C776 1.368 1_556 S
C771 C755 1.349 . S
C771 H763 0.950 . S
C771 C769 1.327 . S
C772 C760 1.349 . S
C772 H766 0.950 . S
C772 C773 1.327 . S
C773 H767 0.950 . S
C773 C772 1.327 . S
C773 C777 1.429 . S
C774 C757 1.574 . S
C774 H768 0.949 . S
C774 C778 1.368 1_554 S
C775 C756 1.429 1_554 S
C775 C769 1.429 . S
C775 C776 1.523 . S
C776 C757 1.368 . S
C776 C770 1.368 1_554 S
C776 C775 1.523 . S
C777 C761 1.429 1_556 S
C777 C773 1.429 . S
C777 C778 1.523 . S
C778 C762 1.368 . S
C778 C774 1.368 1_556 S
C778 C777 1.523 . S
H779 C754 0.950 . S
H780 C756 0.950 . S
H781 C757 0.949 . S
H782 C759 0.950 . S
H783 C761 0.950 . S
C784 C785 1.339 1_556 S
C784 C786 1.330 . S
C784 H809 0.957 . S
C785 C784 1.339 1_554 S
C785 C801 1.349 . S
C786 C784 1.330 . S
C786 C805 1.429 1_556 S
C786 H810 0.950 . S
C787 C804 1.574 . S
C787 C806 1.368 1_455 S
C787 H811 0.949 . S
H788 C792 0.949 . S
C789 C790 1.339 1_554 S
C789 C791 1.330 . S
C789 H812 0.957 . S
C790 C789 1.339 1_556 S
C790 C802 1.349 . S
C791 C789 1.330 . S
C791 C807 1.429 1_554 S
C791 H813 0.950 . S
C792 H788 0.949 . S
C792 C800 1.574 . S
C792 C808 1.368 1_655 S
H793 C801 0.950 . S
H794 C799 0.950 . S
H795 C800 0.949 . S
H796 C802 0.950 . S
H797 C803 0.950 . S
H798 C804 0.949 . S
C799 H794 0.950 . S
C799 C801 1.327 . S
C799 C805 1.429 . S
C800 C792 1.574 . S
C800 H795 0.949 . S
C800 C806 1.368 1_556 S
C801 C785 1.349 . S
C801 H793 0.950 . S
C801 C799 1.327 . S
C802 C790 1.349 . S
C802 H796 0.950 . S
C802 C803 1.327 . S
C803 H797 0.950 . S
C803 C802 1.327 . S
C803 C807 1.429 . S
C804 C787 1.574 . S
C804 H798 0.949 . S
C804 C808 1.368 1_554 S
C805 C786 1.429 1_554 S
C805 C799 1.429 . S
C805 C806 1.523 . S
C806 C787 1.368 1_655 S
C806 C800 1.368 1_554 S
C806 C805 1.523 . S
C807 C791 1.429 1_556 S
C807 C803 1.429 . S
C807 C808 1.523 . S
C808 C792 1.368 1_455 S
C808 C804 1.368 1_556 S
C808 C807 1.523 . S
H809 C784 0.957 . S
H810 C786 0.950 . S
H811 C787 0.949 . S
H812 C789 0.957 . S
H813 C791 0.950 . S
C814 C815 1.349 . S
C814 C816 1.327 . S
C814 H839 0.950 . S
C815 C814 1.349 . S
C815 C831 1.349 . S
C816 C814 1.327 . S
C816 C835 1.429 . S
C816 H840 0.950 . S
C817 C834 1.574 . S
C817 C836 1.368 . S
C817 H841 0.949 . S
H818 C822 0.949 . S
C819 C820 1.349 . S
C819 C821 1.327 . S
C819 H842 0.950 . S
C820 C819 1.349 . S
C820 C832 1.349 . S
C821 C819 1.327 . S
C821 C837 1.429 . S
C821 H843 0.950 . S
C822 H818 0.949 . S
C822 C830 1.574 . S
C822 C838 1.368 . S
H823 C831 0.950 . S
H824 C829 0.950 . S
H825 C830 0.949 . S
H826 C832 0.950 . S
H827 C833 0.950 . S
H828 C834 0.949 . S
C829 H824 0.950 . S
C829 C831 1.327 . S
C829 C835 1.429 . S
C830 C822 1.574 . S
C830 H825 0.949 . S
C830 C836 1.368 . S
C831 C815 1.349 . S
C831 H823 0.950 . S
C831 C829 1.327 . S
C832 C820 1.349 . S
C832 H826 0.950 . S
C832 C833 1.327 . S
C833 H827 0.950 . S
C833 C832 1.327 . S
C833 C837 1.429 . S
C834 C817 1.574 . S
C834 H828 0.949 . S
C834 C838 1.368 . S
C835 C816 1.429 . S
C835 C829 1.429 . S
C835 C836 1.523 . S
C836 C817 1.368 . S
C836 C830 1.368 . S
C836 C835 1.523 . S
C837 C821 1.429 . S
C837 C833 1.429 . S
C837 C838 1.523 . S
C838 C822 1.368 . S
C838 C834 1.368 . S
C838 C837 1.523 . S
H839 C814 0.950 . S
H840 C816 0.950 . S
H841 C817 0.949 . S
H842 C819 0.950 . S
H843 C821 0.950 . S
C844 C845 1.349 . S
C844 C846 1.327 . S
C844 H869 0.950 . S
C845 C844 1.349 . S
C845 C861 1.349 1_556 S
C846 C844 1.327 . S
C846 C865 1.429 . S
C846 H870 0.950 . S
C847 C864 1.574 . S
C847 C866 1.368 1_554 S
C847 H871 0.949 . S
H848 C852 0.949 . S
C849 C850 1.349 . S
C849 C851 1.327 . S
C849 H872 0.950 . S
C850 C849 1.349 . S
C850 C862 1.349 1_554 S
C851 C849 1.327 . S
C851 C867 1.429 . S
C851 H873 0.950 . S
C852 H848 0.949 . S
C852 C860 1.574 . S
C852 C868 1.368 1_556 S
H853 C861 0.950 . S
H854 C859 0.950 . S
H855 C860 0.949 . S
H856 C862 0.950 . S
H857 C863 0.950 . S
H858 C864 0.949 . S
C859 H854 0.950 . S
C859 C861 1.327 . S
C859 C865 1.429 1_554 S
C860 C852 1.574 . S
C860 H855 0.949 . S
C860 C866 1.368 . S
C861 C845 1.349 1_554 S
C861 H853 0.950 . S
C861 C859 1.327 . S
C862 C850 1.349 1_556 S
C862 H856 0.950 . S
C862 C863 1.327 . S
C863 H857 0.950 . S
C863 C862 1.327 . S
C863 C867 1.429 1_556 S
C864 C847 1.574 . S
C864 H858 0.949 . S
C864 C868 1.368 . S
C865 C846 1.429 . S
C865 C859 1.429 1_556 S
C865 C866 1.523 . S
C866 C847 1.368 1_556 S
C866 C860 1.368 . S
C866 C865 1.523 . S
C867 C851 1.429 . S
C867 C863 1.429 1_554 S
C867 C868 1.523 . S
C868 C852 1.368 1_554 S
C868 C864 1.368 . S
C868 C867 1.523 . S
H869 C844 0.950 . S
H870 C846 0.950 . S
H871 C847 0.949 . S
H872 C849 0.950 . S
H873 C851 0.950 . S
C874 C875 1.349 . S
C874 C876 1.327 . S
C874 H899 0.950 . S
C875 C874 1.349 . S
C875 C891 1.349 . S
C876 C874 1.327 . S
C876 C895 1.429 . S
C876 H900 0.950 . S
C877 C894 1.574 . S
C877 C896 1.368 . S
C877 H901 0.949 . S
H878 C882 0.949 . S
C879 C880 1.349 . S
C879 C881 1.327 . S
C879 H902 0.950 . S
C880 C879 1.349 . S
C880 C892 1.349 . S
C881 C879 1.327 . S
C881 C897 1.429 . S
C881 H903 0.950 . S
C882 H878 0.949 . S
C882 C890 1.574 . S
C882 C898 1.368 . S
H883 C891 0.950 . S
H884 C889 0.950 . S
H885 C890 0.949 . S
H886 C892 0.950 . S
H887 C893 0.950 . S
H888 C894 0.949 . S
C889 H884 0.950 . S
C889 C891 1.327 . S
C889 C895 1.429 . S
C890 C882 1.574 . S
C890 H885 0.949 . S
C890 C896 1.368 . S
C891 C875 1.349 . S
C891 H883 0.950 . S
C891 C889 1.327 . S
C892 C880 1.349 . S
C892 H886 0.950 . S
C892 C893 1.327 . S
C893 H887 0.950 . S
C893 C892 1.327 . S
C893 C897 1.429 . S
C894 C877 1.574 . S
C894 H888 0.949 . S
C894 C898 1.368 . S
C895 C876 1.429 . S
C895 C889 1.429 . S
C895 C896 1.523 . S
C896 C877 1.368 . S
C896 C890 1.368 . S
C896 C895 1.523 . S
C897 C881 1.429 . S
C897 C893 1.429 . S
C897 C898 1.523 . S
C898 C882 1.368 . S
C898 C894 1.368 . S
C898 C897 1.523 . S
H899 C874 0.950 . S
H900 C876 0.950 . S
H901 C877 0.949 . S
H902 C879 0.950 . S
H903 C881 0.950 . S
C904 C905 1.349 1_554 S
C904 C906 1.327 . S
C904 H929 0.950 . S
C905 C904 1.349 1_556 S
C905 C921 1.349 . S
C906 C904 1.327 . S
C906 C925 1.429 1_554 S
C906 H930 0.950 . S
C907 C924 1.574 1_545 S
C907 C926 1.368 . S
C907 H931 0.949 . S
H908 C912 0.949 . S
C909 C910 1.349 1_556 S
C909 C911 1.327 . S
C909 H932 0.950 . S
C910 C909 1.349 1_554 S
C910 C922 1.349 . S
C911 C909 1.327 . S
C911 C927 1.429 1_556 S
C911 H933 0.950 . S
C912 H908 0.949 . S
C912 C920 1.574 1_565 S
C912 C928 1.368 . S
H913 C921 0.950 . S
H914 C919 0.950 . S
H915 C920 0.949 . S
H916 C922 0.950 . S
H917 C923 0.950 . S
H918 C924 0.949 . S
C919 H914 0.950 . S
C919 C921 1.327 . S
C919 C925 1.429 . S
C920 C912 1.574 1_545 S
C920 H915 0.949 . S
C920 C926 1.368 1_554 S
C921 C905 1.349 . S
C921 H913 0.950 . S
C921 C919 1.327 . S
C922 C910 1.349 . S
C922 H916 0.950 . S
C922 C923 1.327 . S
C923 H917 0.950 . S
C923 C922 1.327 . S
C923 C927 1.429 . S
C924 C907 1.574 1_565 S
C924 H918 0.949 . S
C924 C928 1.368 1_556 S
C925 C906 1.429 1_556 S
C925 C919 1.429 . S
C925 C926 1.523 . S
C926 C907 1.368 . S
C926 C920 1.368 1_556 S
C926 C925 1.523 . S
C927 C911 1.429 1_554 S
C927 C923 1.429 . S
C927 C928 1.523 . S
C928 C912 1.368 . S
C928 C924 1.368 1_554 S
C928 C927 1.523 . S
H929 C904 0.950 . S
H930 C906 0.950 . S
H931 C907 0.949 . S
H932 C909 0.950 . S
H933 C911 0.950 . S
C934 C935 1.349 . S
C934 C936 1.327 . S
C934 H959 0.950 . S
C935 C934 1.349 . S
C935 C951 1.349 . S
C936 C934 1.327 . S
C936 C955 1.429 . S
C936 H960 0.950 . S
C937 C954 1.574 . S
C937 C956 1.368 . S
C937 H961 0.949 . S
H938 C942 0.949 . S
C939 C940 1.349 . S
C939 C941 1.327 . S
C939 H962 0.950 . S
C940 C939 1.349 . S
C940 C952 1.349 . S
C941 C939 1.327 . S
C941 C957 1.429 . S
C941 H963 0.950 . S
C942 H938 0.949 . S
C942 C950 1.574 . S
C942 C958 1.368 . S
H943 C951 0.950 . S
H944 C949 0.950 . S
H945 C950 0.949 . S
H946 C952 0.950 . S
H947 C953 0.950 . S
H948 C954 0.949 . S
C949 H944 0.950 . S
C949 C951 1.327 . S
C949 C955 1.429 . S
C950 C942 1.574 . S
C950 H945 0.949 . S
C950 C956 1.368 . S
C951 C935 1.349 . S
C951 H943 0.950 . S
C951 C949 1.327 . S
C952 C940 1.349 . S
C952 H946 0.950 . S
C952 C953 1.327 . S
C953 H947 0.950 . S
C953 C952 1.327 . S
C953 C957 1.429 . S
C954 C937 1.574 . S
C954 H948 0.949 . S
C954 C958 1.368 . S
C955 C936 1.429 . S
C955 C949 1.429 . S
C955 C956 1.523 . S
C956 C937 1.368 . S
C956 C950 1.368 . S
C956 C955 1.523 . S
C957 C941 1.429 . S
C957 C953 1.429 . S
C957 C958 1.523 . S
C958 C942 1.368 . S
C958 C954 1.368 . S
C958 C957 1.523 . S
H959 C934 0.950 . S
H960 C936 0.950 . S
H961 C937 0.949 . S
H962 C939 0.950 . S
H963 C941 0.950 . S
C964 C965 1.349 . S
C964 C966 1.327 . S
C964 H989 0.950 . S
C965 C964 1.349 . S
C965 C981 1.349 . S
C966 C964 1.327 . S
C966 C985 1.429 . S
C966 H990 0.950 . S
C967 C984 1.574 . S
C967 C986 1.368 . S
C967 H991 0.949 . S
H968 C972 0.949 . S
C969 C970 1.349 . S
C969 C971 1.327 . S
C969 H992 0.950 . S
C970 C969 1.349 . S
C970 C982 1.349 . S
C971 C969 1.327 . S
C971 C987 1.429 . S
C971 H993 0.950 . S
C972 H968 0.949 . S
C972 C980 1.574 . S
C972 C988 1.368 . S
H973 C981 0.950 . S
H974 C979 0.950 . S
H975 C980 0.949 . S
H976 C982 0.950 . S
H977 C983 0.950 . S
H978 C984 0.949 . S
C979 H974 0.950 . S
C979 C981 1.327 . S
C979 C985 1.429 . S
C980 C972 1.574 . S
C980 H975 0.949 . S
C980 C986 1.368 . S
C981 C965 1.349 . S
C981 H973 0.950 . S
C981 C979 1.327 . S
C982 C970 1.349 . S
C982 H976 0.950 . S
C982 C983 1.327 . S
C983 H977 0.950 . S
C983 C982 1.327 . S
C983 C987 1.429 . S
C984 C967 1.574 . S
C984 H978 0.949 . S
C984 C988 1.368 . S
C985 C966 1.429 . S
C985 C979 1.429 . S
C985 C986 1.523 . S
C986 C967 1.368 . S
C986 C980 1.368 . S
C986 C985 1.523 . S
C987 C971 1.429 . S
C987 C983 1.429 . S
C987 C988 1.523 . S
C988 C972 1.368 . S
C988 C984 1.368 . S
C988 C987 1.523 . S
H989 C964 0.950 . S
H990 C966 0.950 . S
H991 C967 0.949 . S
H992 C969 0.950 . S
H993 C971 0.950 . S
C994 C995 1.349 . S
C994 C996 1.327 . S
C994 H1019 0.950 . S
C995 C994 1.349 . S
C995 C1011 1.349 . S
C996 C994 1.327 . S
C996 C1015 1.429 . S
C996 H1020 0.950 . S
C997 C1014 1.574 . S
C997 C1016 1.368 . S
C997 H1021 0.949 . S
H998 C1002 0.949 . S
C999 C1000 1.349 . S
C999 C1001 1.327 . S
C999 H1022 0.950 . S
C1000 C999 1.349 . S
C1000 C1012 1.349 . S
C1001 C999 1.327 . S
C1001 C1017 1.429 . S
C1001 H1023 0.950 . S
C1002 H998 0.949 . S
C1002 C1010 1.574 . S
C1002 C1018 1.368 . S
H1003 C1011 0.950 . S
H1004 C1009 0.950 . S
H1005 C1010 0.949 . S
H1006 C1012 0.950 . S
H1007 C1013 0.950 . S
H1008 C1014 0.949 . S
C1009 H1004 0.950 . S
C1009 C1011 1.327 . S
C1009 C1015 1.429 . S
C1010 C1002 1.574 . S
C1010 H1005 0.949 . S
C1010 C1016 1.368 . S
C1011 C995 1.349 . S
C1011 H1003 0.950 . S
C1011 C1009 1.327 . S
C1012 C1000 1.349 . S
C1012 H1006 0.950 . S
C1012 C1013 1.327 . S
C1013 H1007 0.950 . S
C1013 C1012 1.327 . S
C1013 C1017 1.429 . S
C1014 C997 1.574 . S
C1014 H1008 0.949 . S
C1014 C1018 1.368 . S
C1015 C996 1.429 . S
C1015 C1009 1.429 . S
C1015 C1016 1.523 . S
C1016 C997 1.368 . S
C1016 C1010 1.368 . S
C1016 C1015 1.523 . S
C1017 C1001 1.429 . S
C1017 C1013 1.429 . S
C1017 C1018 1.523 . S
C1018 C1002 1.368 . S
C1018 C1014 1.368 . S
C1018 C1017 1.523 . S
H1019 C994 0.950 . S
H1020 C996 0.950 . S
H1021 C997 0.949 . S
H1022 C999 0.950 . S
H1023 C1001 0.950 . S
C1024 C1025 1.349 . S
C1024 C1026 1.327 . S
C1024 H1049 0.950 . S
C1025 C1024 1.349 . S
C1025 C1041 1.349 . S
C1026 C1024 1.327 . S
C1026 C1045 1.429 . S
C1026 H1050 0.950 . S
C1027 C1044 1.574 . S
C1027 C1046 1.368 . S
C1027 H1051 0.949 . S
H1028 C1032 0.949 . S
C1029 C1030 1.349 . S
C1029 C1031 1.327 . S
C1029 H1052 0.950 . S
C1030 C1029 1.349 . S
C1030 C1042 1.349 . S
C1031 C1029 1.327 . S
C1031 C1047 1.429 . S
C1031 H1053 0.950 . S
C1032 H1028 0.949 . S
C1032 C1040 1.574 . S
C1032 C1048 1.368 . S
H1033 C1041 0.950 . S
H1034 C1039 0.950 . S
H1035 C1040 0.949 . S
H1036 C1042 0.950 . S
H1037 C1043 0.950 . S
H1038 C1044 0.949 . S
C1039 H1034 0.950 . S
C1039 C1041 1.327 . S
C1039 C1045 1.429 . S
C1040 C1032 1.574 . S
C1040 H1035 0.949 . S
C1040 C1046 1.368 . S
C1041 C1025 1.349 . S
C1041 H1033 0.950 . S
C1041 C1039 1.327 . S
C1042 C1030 1.349 . S
C1042 H1036 0.950 . S
C1042 C1043 1.327 . S
C1043 H1037 0.950 . S
C1043 C1042 1.327 . S
C1043 C1047 1.429 . S
C1044 C1027 1.574 . S
C1044 H1038 0.949 . S
C1044 C1048 1.368 . S
C1045 C1026 1.429 . S
C1045 C1039 1.429 . S
C1045 C1046 1.523 . S
C1046 C1027 1.368 . S
C1046 C1040 1.368 . S
C1046 C1045 1.523 . S
C1047 C1031 1.429 . S
C1047 C1043 1.429 . S
C1047 C1048 1.523 . S
C1048 C1032 1.368 . S
C1048 C1044 1.368 . S
C1048 C1047 1.523 . S
H1049 C1024 0.950 . S
H1050 C1026 0.950 . S
H1051 C1027 0.949 . S
H1052 C1029 0.950 . S
H1053 C1031 0.950 . S
C1054 C1055 1.349 . S
C1054 C1056 1.327 . S
C1054 H1079 0.950 . S
C1055 C1054 1.349 . S
C1055 C1071 1.349 . S
C1056 C1054 1.327 . S
C1056 C1075 1.429 . S
C1056 H1080 0.950 . S
C1057 C1074 1.574 . S
C1057 C1076 1.368 . S
C1057 H1081 0.949 . S
H1058 C1062 0.949 . S
C1059 C1060 1.349 . S
C1059 C1061 1.327 1_455 S
C1059 H1082 0.950 . S
C1060 C1059 1.349 . S
C1060 C1072 1.349 1_455 S
C1061 C1059 1.327 1_655 S
C1061 C1077 1.429 . S
C1061 H1083 0.950 . S
C1062 H1058 0.949 . S
C1062 C1070 1.574 . S
C1062 C1078 1.368 . S
H1063 C1071 0.950 . S
H1064 C1069 0.950 . S
H1065 C1070 0.949 . S
H1066 C1072 0.950 . S
H1067 C1073 0.950 . S
H1068 C1074 0.949 . S
C1069 H1064 0.950 . S
C1069 C1071 1.327 . S
C1069 C1075 1.429 . S
C1070 C1062 1.574 . S
C1070 H1065 0.949 . S
C1070 C1076 1.368 . S
C1071 C1055 1.349 . S
C1071 H1063 0.950 . S
C1071 C1069 1.327 . S
C1072 C1060 1.349 1_655 S
C1072 H1066 0.950 . S
C1072 C1073 1.327 . S
C1073 H1067 0.950 . S
C1073 C1072 1.327 . S
C1073 C1077 1.429 . S
C1074 C1057 1.574 . S
C1074 H1068 0.949 . S
C1074 C1078 1.368 . S
C1075 C1056 1.429 . S
C1075 C1069 1.429 . S
C1075 C1076 1.523 . S
C1076 C1057 1.368 . S
C1076 C1070 1.368 . S
C1076 C1075 1.523 . S
C1077 C1061 1.429 . S
C1077 C1073 1.429 . S
C1077 C1078 1.523 . S
C1078 C1062 1.368 . S
C1078 C1074 1.368 . S
C1078 C1077 1.523 . S
H1079 C1054 0.950 . S
H1080 C1056 0.950 . S
H1081 C1057 0.949 . S
H1082 C1059 0.950 . S
H1083 C1061 0.950 . S
C1084 C1085 1.349 . S
C1084 C1086 1.327 . S
C1084 H1109 0.950 . S
C1085 C1084 1.349 . S
C1085 C1101 1.349 . S
C1086 C1084 1.327 . S
C1086 C1105 1.429 . S
C1086 H1110 0.950 . S
C1087 C1104 1.574 . S
C1087 C1106 1.368 . S
C1087 H1111 0.949 . S
H1088 C1092 0.949 . S
C1089 C1090 1.349 . S
C1089 C1091 1.327 . S
C1089 H1112 0.950 . S
C1090 C1089 1.349 . S
C1090 C1102 1.349 . S
C1091 C1089 1.327 . S
C1091 C1107 1.429 . S
C1091 H1113 0.950 . S
C1092 H1088 0.949 . S
C1092 C1100 1.574 . S
C1092 C1108 1.368 . S
H1093 C1101 0.950 . S
H1094 C1099 0.950 . S
H1095 C1100 0.949 . S
H1096 C1102 0.950 . S
H1097 C1103 0.950 . S
H1098 C1104 0.949 . S
C1099 H1094 0.950 . S
C1099 C1101 1.327 . S
C1099 C1105 1.429 . S
C1100 C1092 1.574 . S
C1100 H1095 0.949 . S
C1100 C1106 1.368 . S
C1101 C1085 1.349 . S
C1101 H1093 0.950 . S
C1101 C1099 1.327 . S
C1102 C1090 1.349 . S
C1102 H1096 0.950 . S
C1102 C1103 1.327 . S
C1103 H1097 0.950 . S
C1103 C1102 1.327 . S
C1103 C1107 1.429 . S
C1104 C1087 1.574 . S
C1104 H1098 0.949 . S
C1104 C1108 1.368 . S
C1105 C1086 1.429 . S
C1105 C1099 1.429 . S
C1105 C1106 1.523 . S
C1106 C1087 1.368 . S
C1106 C1100 1.368 . S
C1106 C1105 1.523 . S
C1107 C1091 1.429 . S
C1107 C1103 1.429 . S
C1107 C1108 1.523 . S
C1108 C1092 1.368 . S
C1108 C1104 1.368 . S
C1108 C1107 1.523 . S
H1109 C1084 0.950 . S
H1110 C1086 0.950 . S
H1111 C1087 0.949 . S
H1112 C1089 0.950 . S
H1113 C1091 0.950 . S
C1114 C1115 1.349 . S
C1114 C1116 1.327 1_455 S
C1114 H1139 0.950 . S
C1115 C1114 1.349 . S
C1115 C1131 1.349 1_455 S
C1116 C1114 1.327 1_655 S
C1116 C1135 1.429 . S
C1116 H1140 0.950 . S
C1117 C1134 1.574 . S
C1117 C1136 1.368 . S
C1117 H1141 0.949 . S
H1118 C1122 0.949 . S
C1119 C1120 1.349 . S
C1119 C1121 1.327 . S
C1119 H1142 0.950 . S
C1120 C1119 1.349 . S
C1120 C1132 1.349 . S
C1121 C1119 1.327 . S
C1121 C1137 1.429 . S
C1121 H1143 0.950 . S
C1122 H1118 0.949 . S
C1122 C1130 1.574 . S
C1122 C1138 1.368 . S
H1123 C1131 0.950 . S
H1124 C1129 0.950 . S
H1125 C1130 0.949 . S
H1126 C1132 0.950 . S
H1127 C1133 0.950 . S
H1128 C1134 0.949 . S
C1129 H1124 0.950 . S
C1129 C1131 1.327 . S
C1129 C1135 1.429 . S
C1130 C1122 1.574 . S
C1130 H1125 0.949 . S
C1130 C1136 1.368 . S
C1131 C1115 1.349 1_655 S
C1131 H1123 0.950 . S
C1131 C1129 1.327 . S
C1132 C1120 1.349 . S
C1132 H1126 0.950 . S
C1132 C1133 1.327 . S
C1133 H1127 0.950 . S
C1133 C1132 1.327 . S
C1133 C1137 1.429 . S
C1134 C1117 1.574 . S
C1134 H1128 0.949 . S
C1134 C1138 1.368 . S
C1135 C1116 1.429 . S
C1135 C1129 1.429 . S
C1135 C1136 1.523 . S
C1136 C1117 1.368 . S
C1136 C1130 1.368 . S
C1136 C1135 1.523 . S
C1137 C1121 1.429 . S
C1137 C1133 1.429 . S
C1137 C1138 1.523 . S
C1138 C1122 1.368 . S
C1138 C1134 1.368 . S
C1138 C1137 1.523 . S
H1139 C1114 0.950 . S
H1140 C1116 0.950 . S
H1141 C1117 0.949 . S
H1142 C1119 0.950 . S
H1143 C1121 0.950 . S
C1144 C1145 1.349 . S
C1144 C1146 1.327 . S
C1144 H1169 0.950 . S
C1145 C1144 1.349 . S
C1145 C1161 1.349 . S
C1146 C1144 1.327 . S
C1146 C1165 1.429 . S
C1146 H1170 0.950 . S
C1147 C1164 1.574 . S
C1147 C1166 1.368 . S
C1147 H1171 0.949 . S
H1148 C1152 0.949 . S
C1149 C1150 1.349 . S
C1149 C1151 1.327 . S
C1149 H1172 0.950 . S
C1150 C1149 1.349 . S
C1150 C1162 1.349 . S
C1151 C1149 1.327 . S
C1151 C1167 1.429 . S
C1151 H1173 0.950 . S
C1152 H1148 0.949 . S
C1152 C1160 1.574 . S
C1152 C1168 1.368 . S
H1153 C1161 0.950 . S
H1154 C1159 0.950 . S
H1155 C1160 0.949 . S
H1156 C1162 0.950 . S
H1157 C1163 0.950 . S
H1158 C1164 0.949 . S
C1159 H1154 0.950 . S
C1159 C1161 1.327 . S
C1159 C1165 1.429 . S
C1160 C1152 1.574 . S
C1160 H1155 0.949 . S
C1160 C1166 1.368 . S
C1161 C1145 1.349 . S
C1161 H1153 0.950 . S
C1161 C1159 1.327 . S
C1162 C1150 1.349 . S
C1162 H1156 0.950 . S
C1162 C1163 1.327 . S
C1163 H1157 0.950 . S
C1163 C1162 1.327 . S
C1163 C1167 1.429 . S
C1164 C1147 1.574 . S
C1164 H1158 0.949 . S
C1164 C1168 1.368 . S
C1165 C1146 1.429 . S
C1165 C1159 1.429 . S
C1165 C1166 1.523 . S
C1166 C1147 1.368 . S
C1166 C1160 1.368 . S
C1166 C1165 1.523 . S
C1167 C1151 1.429 . S
C1167 C1163 1.429 . S
C1167 C1168 1.523 . S
C1168 C1152 1.368 . S
C1168 C1164 1.368 . S
C1168 C1167 1.523 . S
H1169 C1144 0.950 . S
H1170 C1146 0.950 . S
H1171 C1147 0.949 . S
H1172 C1149 0.950 . S
H1173 C1151 0.950 . S
C1174 C1175 1.349 . S
C1174 C1176 1.327 . S
C1174 H1199 0.950 . S
C1175 C1174 1.349 . S
C1175 C1191 1.349 . S
C1176 C1174 1.327 . S
C1176 C1195 1.429 . S
C1176 H1200 0.950 . S
C1177 C1194 1.574 . S
C1177 C1196 1.368 . S
C1177 H1201 0.949 . S
H1178 C1182 0.949 . S
C1179 C1180 1.349 . S
C1179 C1181 1.327 1_655 S
C1179 H1202 0.950 . S
C1180 C1179 1.349 . S
C1180 C1192 1.349 1_655 S
C1181 C1179 1.327 1_455 S
C1181 C1197 1.429 . S
C1181 H1203 0.950 . S
C1182 H1178 0.949 . S
C1182 C1190 1.574 . S
C1182 C1198 1.368 . S
H1183 C1191 0.950 . S
H1184 C1189 0.950 . S
H1185 C1190 0.949 . S
H1186 C1192 0.950 . S
H1187 C1193 0.950 . S
H1188 C1194 0.949 . S
C1189 H1184 0.950 . S
C1189 C1191 1.327 . S
C1189 C1195 1.429 . S
C1190 C1182 1.574 . S
C1190 H1185 0.949 . S
C1190 C1196 1.368 . S
C1191 C1175 1.349 . S
C1191 H1183 0.950 . S
C1191 C1189 1.327 . S
C1192 C1180 1.349 1_455 S
C1192 H1186 0.950 . S
C1192 C1193 1.327 . S
C1193 H1187 0.950 . S
C1193 C1192 1.327 . S
C1193 C1197 1.429 . S
C1194 C1177 1.574 . S
C1194 H1188 0.949 . S
C1194 C1198 1.368 . S
C1195 C1176 1.429 . S
C1195 C1189 1.429 . S
C1195 C1196 1.523 . S
C1196 C1177 1.368 . S
C1196 C1190 1.368 . S
C1196 C1195 1.523 . S
C1197 C1181 1.429 . S
C1197 C1193 1.429 . S
C1197 C1198 1.523 . S
C1198 C1182 1.368 . S
C1198 C1194 1.368 . S
C1198 C1197 1.523 . S
H1199 C1174 0.950 . S
H1200 C1176 0.950 . S
H1201 C1177 0.949 . S
H1202 C1179 0.950 . S
H1203 C1181 0.950 . S
C1204 C1205 1.349 . S
C1204 C1206 1.327 . S
C1204 H1229 0.950 . S
C1205 C1204 1.349 . S
C1205 C1221 1.349 . S
C1206 C1204 1.327 . S
C1206 C1225 1.429 . S
C1206 H1230 0.950 . S
C1207 C1224 1.574 . S
C1207 C1226 1.368 . S
C1207 H1231 0.949 . S
H1208 C1212 0.949 . S
C1209 C1210 1.349 . S
C1209 C1211 1.327 . S
C1209 H1232 0.950 . S
C1210 C1209 1.349 . S
C1210 C1222 1.349 . S
C1211 C1209 1.327 . S
C1211 C1227 1.429 . S
C1211 H1233 0.950 . S
C1212 H1208 0.949 . S
C1212 C1220 1.574 . S
C1212 C1228 1.368 . S
H1213 C1221 0.950 . S
H1214 C1219 0.950 . S
H1215 C1220 0.949 . S
H1216 C1222 0.950 . S
H1217 C1223 0.950 . S
H1218 C1224 0.949 . S
C1219 H1214 0.950 . S
C1219 C1221 1.327 . S
C1219 C1225 1.429 . S
C1220 C1212 1.574 . S
C1220 H1215 0.949 . S
C1220 C1226 1.368 . S
C1221 C1205 1.349 . S
C1221 H1213 0.950 . S
C1221 C1219 1.327 . S
C1222 C1210 1.349 . S
C1222 H1216 0.950 . S
C1222 C1223 1.327 . S
C1223 H1217 0.950 . S
C1223 C1222 1.327 . S
C1223 C1227 1.429 . S
C1224 C1207 1.574 . S
C1224 H1218 0.949 . S
C1224 C1228 1.368 . S
C1225 C1206 1.429 . S
C1225 C1219 1.429 . S
C1225 C1226 1.523 . S
C1226 C1207 1.368 . S
C1226 C1220 1.368 . S
C1226 C1225 1.523 . S
C1227 C1211 1.429 . S
C1227 C1223 1.429 . S
C1227 C1228 1.523 . S
C1228 C1212 1.368 . S
C1228 C1224 1.368 . S
C1228 C1227 1.523 . S
H1229 C1204 0.950 . S
H1230 C1206 0.950 . S
H1231 C1207 0.949 . S
H1232 C1209 0.950 . S
H1233 C1211 0.950 . S
C1234 C1235 1.349 1_455 S
C1234 C1236 1.327 . S
C1234 H1259 0.950 . S
C1235 C1234 1.349 1_655 S
C1235 C1251 1.349 . S
C1236 C1234 1.327 . S
C1236 C1255 1.429 . S
C1236 H1260 0.950 . S
C1237 C1254 1.574 . S
C1237 C1256 1.368 . S
C1237 H1261 0.949 . S
H1238 C1242 0.949 . S
C1239 C1240 1.349 . S
C1239 C1241 1.327 . S
C1239 H1262 0.950 . S
C1240 C1239 1.349 . S
C1240 C1252 1.349 . S
C1241 C1239 1.327 . S
C1241 C1257 1.429 . S
C1241 H1263 0.950 . S
C1242 H1238 0.949 . S
C1242 C1250 1.574 . S
C1242 C1258 1.368 . S
H1243 C1251 0.950 . S
H1244 C1249 0.950 . S
H1245 C1250 0.949 . S
H1246 C1252 0.950 . S
H1247 C1253 0.950 . S
H1248 C1254 0.949 . S
C1249 H1244 0.950 . S
C1249 C1251 1.327 1_455 S
C1249 C1255 1.429 . S
C1250 C1242 1.574 . S
C1250 H1245 0.949 . S
C1250 C1256 1.368 . S
C1251 C1235 1.349 . S
C1251 H1243 0.950 . S
C1251 C1249 1.327 1_655 S
C1252 C1240 1.349 . S
C1252 H1246 0.950 . S
C1252 C1253 1.327 . S
C1253 H1247 0.950 . S
C1253 C1252 1.327 . S
C1253 C1257 1.429 . S
C1254 C1237 1.574 . S
C1254 H1248 0.949 . S
C1254 C1258 1.368 . S
C1255 C1236 1.429 . S
C1255 C1249 1.429 . S
C1255 C1256 1.523 . S
C1256 C1237 1.368 . S
C1256 C1250 1.368 . S
C1256 C1255 1.523 . S
C1257 C1241 1.429 . S
C1257 C1253 1.429 . S
C1257 C1258 1.523 . S
C1258 C1242 1.368 . S
C1258 C1254 1.368 . S
C1258 C1257 1.523 . S
H1259 C1234 0.950 . S
H1260 C1236 0.950 . S
H1261 C1237 0.949 . S
H1262 C1239 0.950 . S
H1263 C1241 0.950 . S
C1264 C1265 1.349 . S
C1264 C1266 1.327 . S
C1264 H1289 0.950 . S
C1265 C1264 1.349 . S
C1265 C1281 1.349 . S
C1266 C1264 1.327 . S
C1266 C1285 1.429 . S
C1266 H1290 0.950 . S
C1267 C1284 1.574 . S
C1267 C1286 1.368 . S
C1267 H1291 0.949 . S
H1268 C1272 0.949 . S
C1269 C1270 1.349 . S
C1269 C1271 1.327 . S
C1269 H1292 0.950 . S
C1270 C1269 1.349 . S
C1270 C1282 1.349 . S
C1271 C1269 1.327 . S
C1271 C1287 1.429 . S
C1271 H1293 0.950 . S
C1272 H1268 0.949 . S
C1272 C1280 1.574 . S
C1272 C1288 1.368 . S
H1273 C1281 0.950 . S
H1274 C1279 0.950 . S
H1275 C1280 0.949 . S
H1276 C1282 0.950 . S
H1277 C1283 0.950 . S
H1278 C1284 0.949 . S
C1279 H1274 0.950 . S
C1279 C1281 1.327 . S
C1279 C1285 1.429 . S
C1280 C1272 1.574 . S
C1280 H1275 0.949 . S
C1280 C1286 1.368 . S
C1281 C1265 1.349 . S
C1281 H1273 0.950 . S
C1281 C1279 1.327 . S
C1282 C1270 1.349 . S
C1282 H1276 0.950 . S
C1282 C1283 1.327 . S
C1283 H1277 0.950 . S
C1283 C1282 1.327 . S
C1283 C1287 1.429 . S
C1284 C1267 1.574 . S
C1284 H1278 0.949 . S
C1284 C1288 1.368 . S
C1285 C1266 1.429 . S
C1285 C1279 1.429 . S
C1285 C1286 1.523 . S
C1286 C1267 1.368 . S
C1286 C1280 1.368 . S
C1286 C1285 1.523 . S
C1287 C1271 1.429 . S
C1287 C1283 1.429 . S
C1287 C1288 1.523 . S
C1288 C1272 1.368 . S
C1288 C1284 1.368 . S
C1288 C1287 1.523 . S
H1289 C1264 0.950 . S
H1290 C1266 0.950 . S
H1291 C1267 0.949 . S
H1292 C1269 0.950 . S
H1293 C1271 0.950 . S
C1294 C1295 1.349 . S
C1294 C1296 1.327 . S
C1294 H1319 0.950 . S
C1295 C1294 1.349 . S
C1295 C1311 1.349 . S
C1296 C1294 1.327 . S
C1296 C1315 1.429 . S
C1296 H1320 0.950 . S
C1297 C1314 1.574 . S
C1297 C1316 1.368 . S
C1297 H1321 0.949 . S
H1298 C1302 0.949 . S
C1299 C1300 1.349 . S
C1299 C1301 1.327 1_455 S
C1299 H1322 0.950 . S
C1300 C1299 1.349 . S
C1300 C1312 1.349 1_455 S
C1301 C1299 1.327 1_655 S
C1301 C1317 1.429 . S
C1301 H1323 0.950 . S
C1302 H1298 0.949 . S
C1302 C1310 1.574 . S
C1302 C1318 1.368 . S
H1303 C1311 0.950 . S
H1304 C1309 0.950 . S
H1305 C1310 0.949 . S
H1306 C1312 0.950 . S
H1307 C1313 0.950 . S
H1308 C1314 0.949 . S
C1309 H1304 0.950 . S
C1309 C1311 1.327 . S
C1309 C1315 1.429 . S
C1310 C1302 1.574 . S
C1310 H1305 0.949 . S
C1310 C1316 1.368 . S
C1311 C1295 1.349 . S
C1311 H1303 0.950 . S
C1311 C1309 1.327 . S
C1312 C1300 1.349 1_655 S
C1312 H1306 0.950 . S
C1312 C1313 1.327 . S
C1313 H1307 0.950 . S
C1313 C1312 1.327 . S
C1313 C1317 1.429 . S
C1314 C1297 1.574 . S
C1314 H1308 0.949 . S
C1314 C1318 1.368 . S
C1315 C1296 1.429 . S
C1315 C1309 1.429 . S
C1315 C1316 1.523 . S
C1316 C1297 1.368 . S
C1316 C1310 1.368 . S
C1316 C1315 1.523 . S
C1317 C1301 1.429 . S
C1317 C1313 1.429 . S
C1317 C1318 1.523 . S
C1318 C1302 1.368 . S
C1318 C1314 1.368 . S
C1318 C1317 1.523 . S
H1319 C1294 0.950 . S
H1320 C1296 0.950 . S
H1321 C1297 0.949 . S
H1322 C1299 0.950 . S
H1323 C1301 0.950 . S
C1324 C1325 1.349 . S
C1324 C1326 1.327 . S
C1324 H1349 0.950 . S
C1325 C1324 1.349 . S
C1325 C1341 1.349 . S
C1326 C1324 1.327 . S
C1326 C1345 1.429 . S
C1326 H1350 0.950 . S
C1327 C1344 1.574 . S
C1327 C1346 1.368 . S
C1327 H1351 0.949 . S
H1328 C1332 0.949 . S
C1329 C1330 1.349 . S
C1329 C1331 1.327 . S
C1329 H1352 0.950 . S
C1330 C1329 1.349 . S
C1330 C1342 1.349 . S
C1331 C1329 1.327 . S
C1331 C1347 1.429 . S
C1331 H1353 0.950 . S
C1332 H1328 0.949 . S
C1332 C1340 1.574 . S
C1332 C1348 1.368 . S
H1333 C1341 0.950 . S
H1334 C1339 0.950 . S
H1335 C1340 0.949 . S
H1336 C1342 0.950 . S
H1337 C1343 0.950 . S
H1338 C1344 0.949 . S
C1339 H1334 0.950 . S
C1339 C1341 1.327 . S
C1339 C1345 1.429 . S
C1340 C1332 1.574 . S
C1340 H1335 0.949 . S
C1340 C1346 1.368 . S
C1341 C1325 1.349 . S
C1341 H1333 0.950 . S
C1341 C1339 1.327 . S
C1342 C1330 1.349 . S
C1342 H1336 0.950 . S
C1342 C1343 1.327 . S
C1343 H1337 0.950 . S
C1343 C1342 1.327 . S
C1343 C1347 1.429 . S
C1344 C1327 1.574 . S
C1344 H1338 0.949 . S
C1344 C1348 1.368 . S
C1345 C1326 1.429 . S
C1345 C1339 1.429 . S
C1345 C1346 1.523 . S
C1346 C1327 1.368 . S
C1346 C1340 1.368 . S
C1346 C1345 1.523 . S
C1347 C1331 1.429 . S
C1347 C1343 1.429 . S
C1347 C1348 1.523 . S
C1348 C1332 1.368 . S
C1348 C1344 1.368 . S
C1348 C1347 1.523 . S
H1349 C1324 0.950 . S
H1350 C1326 0.950 . S
H1351 C1327 0.949 . S
H1352 C1329 0.950 . S
H1353 C1331 0.950 . S
C1354 C1355 1.349 . S
C1354 C1356 1.327 . S
C1354 H1379 0.950 . S
C1355 C1354 1.349 . S
C1355 C1371 1.349 . S
C1356 C1354 1.327 . S
C1356 C1375 1.429 . S
C1356 H1380 0.950 . S
C1357 C1374 1.574 . S
C1357 C1376 1.368 . S
C1357 H1381 0.949 . S
H1358 C1362 0.949 . S
C1359 C1360 1.349 1_655 S
C1359 C1361 1.327 . S
C1359 H1382 0.950 . S
C1360 C1359 1.349 1_455 S
C1360 C1372 1.349 . S
C1361 C1359 1.327 . S
C1361 C1377 1.429 . S
C1361 H1383 0.950 . S
C1362 H1358 0.949 . S
C1362 C1370 1.574 . S
C1362 C1378 1.368 . S
H1363 C1371 0.950 . S
H1364 C1369 0.950 . S
H1365 C1370 0.949 . S
H1366 C1372 0.950 . S
H1367 C1373 0.950 . S
H1368 C1374 0.949 . S
C1369 H1364 0.950 . S
C1369 C1371 1.327 . S
C1369 C1375 1.429 . S
C1370 C1362 1.574 . S
C1370 H1365 0.949 . S
C1370 C1376 1.368 . S
C1371 C1355 1.349 . S
C1371 H1363 0.950 . S
C1371 C1369 1.327 . S
C1372 C1360 1.349 . S
C1372 H1366 0.950 . S
C1372 C1373 1.327 1_455 S
C1373 H1367 0.950 . S
C1373 C1372 1.327 1_655 S
C1373 C1377 1.429 . S
C1374 C1357 1.574 . S
C1374 H1368 0.949 . S
C1374 C1378 1.368 . S
C1375 C1356 1.429 . S
C1375 C1369 1.429 . S
C1375 C1376 1.523 . S
C1376 C1357 1.368 . S
C1376 C1370 1.368 . S
C1376 C1375 1.523 . S
C1377 C1361 1.429 . S
C1377 C1373 1.429 . S
C1377 C1378 1.523 . S
C1378 C1362 1.368 . S
C1378 C1374 1.368 . S
C1378 C1377 1.523 . S
H1379 C1354 0.950 . S
H1380 C1356 0.950 . S
H1381 C1357 0.949 . S
H1382 C1359 0.950 . S
H1383 C1361 0.950 . S
C1384 C1385 1.349 . S
C1384 C1386 1.327 . S
C1384 H1409 0.950 . S
C1385 C1384 1.349 . S
C1385 C1401 1.349 . S
C1386 C1384 1.327 . S
C1386 C1405 1.429 . S
C1386 H1410 0.950 . S
C1387 C1404 1.574 . S
C1387 C1406 1.368 . S
C1387 H1411 0.949 . S
H1388 C1392 0.949 . S
C1389 C1390 1.349 . S
C1389 C1391 1.327 . S
C1389 H1412 0.950 . S
C1390 C1389 1.349 . S
C1390 C1402 1.349 . S
C1391 C1389 1.327 . S
C1391 C1407 1.429 . S
C1391 H1413 0.950 . S
C1392 H1388 0.949 . S
C1392 C1400 1.574 . S
C1392 C1408 1.368 . S
H1393 C1401 0.950 . S
H1394 C1399 0.950 . S
H1395 C1400 0.949 . S
H1396 C1402 0.950 . S
H1397 C1403 0.950 . S
H1398 C1404 0.949 . S
C1399 H1394 0.950 . S
C1399 C1401 1.327 . S
C1399 C1405 1.429 . S
C1400 C1392 1.574 . S
C1400 H1395 0.949 . S
C1400 C1406 1.368 . S
C1401 C1385 1.349 . S
C1401 H1393 0.950 . S
C1401 C1399 1.327 . S
C1402 C1390 1.349 . S
C1402 H1396 0.950 . S
C1402 C1403 1.327 . S
C1403 H1397 0.950 . S
C1403 C1402 1.327 . S
C1403 C1407 1.429 . S
C1404 C1387 1.574 . S
C1404 H1398 0.949 . S
C1404 C1408 1.368 . S
C1405 C1386 1.429 . S
C1405 C1399 1.429 . S
C1405 C1406 1.523 . S
C1406 C1387 1.368 . S
C1406 C1400 1.368 . S
C1406 C1405 1.523 . S
C1407 C1391 1.429 . S
C1407 C1403 1.429 . S
C1407 C1408 1.523 . S
C1408 C1392 1.368 . S
C1408 C1404 1.368 . S
C1408 C1407 1.523 . S
H1409 C1384 0.950 . S
H1410 C1386 0.950 . S
H1411 C1387 0.949 . S
H1412 C1389 0.950 . S
H1413 C1391 0.950 . S
C1414 C1415 1.349 . S
C1414 C1416 1.327 1_655 S
C1414 H1439 0.950 . S
C1415 C1414 1.349 . S
C1415 C1431 1.349 1_655 S
C1416 C1414 1.327 1_455 S
C1416 C1435 1.429 . S
C1416 H1440 0.950 . S
C1417 C1434 1.574 . S
C1417 C1436 1.368 . S
C1417 H1441 0.949 . S
H1418 C1422 0.949 . S
C1419 C1420 1.349 . S
C1419 C1421 1.327 . S
C1419 H1442 0.950 . S
C1420 C1419 1.349 . S
C1420 C1432 1.349 . S
C1421 C1419 1.327 . S
C1421 C1437 1.429 . S
C1421 H1443 0.950 . S
C1422 H1418 0.949 . S
C1422 C1430 1.574 . S
C1422 C1438 1.368 . S
H1423 C1431 0.950 . S
H1424 C1429 0.950 . S
H1425 C1430 0.949 . S
H1426 C1432 0.950 . S
H1427 C1433 0.950 . S
H1428 C1434 0.949 . S
C1429 H1424 0.950 . S
C1429 C1431 1.327 . S
C1429 C1435 1.429 . S
C1430 C1422 1.574 . S
C1430 H1425 0.949 . S
C1430 C1436 1.368 . S
C1431 C1415 1.349 1_455 S
C1431 H1423 0.950 . S
C1431 C1429 1.327 . S
C1432 C1420 1.349 . S
C1432 H1426 0.950 . S
C1432 C1433 1.327 . S
C1433 H1427 0.950 . S
C1433 C1432 1.327 . S
C1433 C1437 1.429 . S
C1434 C1417 1.574 . S
C1434 H1428 0.949 . S
C1434 C1438 1.368 . S
C1435 C1416 1.429 . S
C1435 C1429 1.429 . S
C1435 C1436 1.523 . S
C1436 C1417 1.368 . S
C1436 C1430 1.368 . S
C1436 C1435 1.523 . S
C1437 C1421 1.429 . S
C1437 C1433 1.429 . S
C1437 C1438 1.523 . S
C1438 C1422 1.368 . S
C1438 C1434 1.368 . S
C1438 C1437 1.523 . S
H1439 C1414 0.950 . S
H1440 C1416 0.950 . S
H1441 C1417 0.949 . S
H1442 C1419 0.950 . S
H1443 C1421 0.950 . S
C1444 C1445 1.349 . S
C1444 C1446 1.327 . S
C1444 H1469 0.950 . S
C1445 C1444 1.349 . S
C1445 C1461 1.349 . S
C1446 C1444 1.327 . S
C1446 C1465 1.429 . S
C1446 H1470 0.950 . S
C1447 C1464 1.574 . S
C1447 C1466 1.368 . S
C1447 H1471 0.949 . S
H1448 C1452 0.949 . S
C1449 C1450 1.349 . S
C1449 C1451 1.327 . S
C1449 H1472 0.950 . S
C1450 C1449 1.349 . S
C1450 C1462 1.349 . S
C1451 C1449 1.327 . S
C1451 C1467 1.429 . S
C1451 H1473 0.950 . S
C1452 H1448 0.949 . S
C1452 C1460 1.574 . S
C1452 C1468 1.368 . S
H1453 C1461 0.950 . S
H1454 C1459 0.950 . S
H1455 C1460 0.949 . S
H1456 C1462 0.950 . S
H1457 C1463 0.950 . S
H1458 C1464 0.949 . S
C1459 H1454 0.950 . S
C1459 C1461 1.327 . S
C1459 C1465 1.429 . S
C1460 C1452 1.574 . S
C1460 H1455 0.949 . S
C1460 C1466 1.368 . S
C1461 C1445 1.349 . S
C1461 H1453 0.950 . S
C1461 C1459 1.327 . S
C1462 C1450 1.349 . S
C1462 H1456 0.950 . S
C1462 C1463 1.327 . S
C1463 H1457 0.950 . S
C1463 C1462 1.327 . S
C1463 C1467 1.429 . S
C1464 C1447 1.574 . S
C1464 H1458 0.949 . S
C1464 C1468 1.368 . S
C1465 C1446 1.429 . S
C1465 C1459 1.429 . S
C1465 C1466 1.523 . S
C1466 C1447 1.368 . S
C1466 C1460 1.368 . S
C1466 C1465 1.523 . S
C1467 C1451 1.429 . S
C1467 C1463 1.429 . S
C1467 C1468 1.523 . S
C1468 C1452 1.368 . S
C1468 C1464 1.368 . S
C1468 C1467 1.523 . S
H1469 C1444 0.950 . S
H1470 C1446 0.950 . S
H1471 C1447 0.949 . S
H1472 C1449 0.950 . S
H1473 C1451 0.950 . S
C1474 C1475 1.349 . S
C1474 C1476 1.327 1_655 S
C1474 H1499 0.950 . S
C1475 C1474 1.349 . S
C1475 C1491 1.349 1_655 S
C1476 C1474 1.327 1_455 S
C1476 C1495 1.429 . S
C1476 H1500 0.950 . S
C1477 C1494 1.574 . S
C1477 C1496 1.368 . S
C1477 H1501 0.949 . S
H1478 C1482 0.949 . S
C1479 C1480 1.349 . S
C1479 C1481 1.327 . S
C1479 H1502 0.950 . S
C1480 C1479 1.349 . S
C1480 C1492 1.349 . S
C1481 C1479 1.327 . S
C1481 C1497 1.429 . S
C1481 H1503 0.950 . S
C1482 H1478 0.949 . S
C1482 C1490 1.574 . S
C1482 C1498 1.368 . S
H1483 C1491 0.950 . S
H1484 C1489 0.950 . S
H1485 C1490 0.949 . S
H1486 C1492 0.950 . S
H1487 C1493 0.950 . S
H1488 C1494 0.949 . S
C1489 H1484 0.950 . S
C1489 C1491 1.327 . S
C1489 C1495 1.429 . S
C1490 C1482 1.574 . S
C1490 H1485 0.949 . S
C1490 C1496 1.368 . S
C1491 C1475 1.349 1_455 S
C1491 H1483 0.950 . S
C1491 C1489 1.327 . S
C1492 C1480 1.349 . S
C1492 H1486 0.950 . S
C1492 C1493 1.327 . S
C1493 H1487 0.950 . S
C1493 C1492 1.327 . S
C1493 C1497 1.429 . S
C1494 C1477 1.574 . S
C1494 H1488 0.949 . S
C1494 C1498 1.368 . S
C1495 C1476 1.429 . S
C1495 C1489 1.429 . S
C1495 C1496 1.523 . S
C1496 C1477 1.368 . S
C1496 C1490 1.368 . S
C1496 C1495 1.523 . S
C1497 C1481 1.429 . S
C1497 C1493 1.429 . S
C1497 C1498 1.523 . S
C1498 C1482 1.368 . S
C1498 C1494 1.368 . S
C1498 C1497 1.523 . S
H1499 C1474 0.950 . S
H1500 C1476 0.950 . S
H1501 C1477 0.949 . S
H1502 C1479 0.950 . S
H1503 C1481 0.950 . S
C1504 C1505 1.349 . S
C1504 C1506 1.327 . S
C1504 H1529 0.950 . S
C1505 C1504 1.349 . S
C1505 C1521 1.349 . S
C1506 C1504 1.327 . S
C1506 C1525 1.429 . S
C1506 H1530 0.950 . S
C1507 C1524 1.574 . S
C1507 C1526 1.368 . S
C1507 H1531 0.949 . S
H1508 C1512 0.949 . S
C1509 C1510 1.349 . S
C1509 C1511 1.327 . S
C1509 H1532 0.950 . S
C1510 C1509 1.349 . S
C1510 C1522 1.349 . S
C1511 C1509 1.327 . S
C1511 C1527 1.429 . S
C1511 H1533 0.950 . S
C1512 H1508 0.949 . S
C1512 C1520 1.574 . S
C1512 C1528 1.368 . S
H1513 C1521 0.950 . S
H1514 C1519 0.950 . S
H1515 C1520 0.949 . S
H1516 C1522 0.950 . S
H1517 C1523 0.950 . S
H1518 C1524 0.949 . S
C1519 H1514 0.950 . S
C1519 C1521 1.327 . S
C1519 C1525 1.429 . S
C1520 C1512 1.574 . S
C1520 H1515 0.949 . S
C1520 C1526 1.368 . S
C1521 C1505 1.349 . S
C1521 H1513 0.950 . S
C1521 C1519 1.327 . S
C1522 C1510 1.349 . S
C1522 H1516 0.950 . S
C1522 C1523 1.327 . S
C1523 H1517 0.950 . S
C1523 C1522 1.327 . S
C1523 C1527 1.429 . S
C1524 C1507 1.574 . S
C1524 H1518 0.949 . S
C1524 C1528 1.368 . S
C1525 C1506 1.429 . S
C1525 C1519 1.429 . S
C1525 C1526 1.523 . S
C1526 C1507 1.368 . S
C1526 C1520 1.368 . S
C1526 C1525 1.523 . S
C1527 C1511 1.429 . S
C1527 C1523 1.429 . S
C1527 C1528 1.523 . S
C1528 C1512 1.368 . S
C1528 C1524 1.368 . S
C1528 C1527 1.523 . S
H1529 C1504 0.950 . S
H1530 C1506 0.950 . S
H1531 C1507 0.949 . S
H1532 C1509 0.950 . S
H1533 C1511 0.950 . S
C1534 C1535 1.349 . S
C1534 C1536 1.327 . S
C1534 H1559 0.950 . S
C1535 C1534 1.349 . S
C1535 C1551 1.349 . S
C1536 C1534 1.327 . S
C1536 C1555 1.429 . S
C1536 H1560 0.950 . S
C1537 C1554 1.574 . S
C1537 C1556 1.368 . S
C1537 H1561 0.949 . S
H1538 C1542 0.949 . S
C1539 C1540 1.349 . S
C1539 C1541 1.327 . S
C1539 H1562 0.950 . S
C1540 C1539 1.349 . S
C1540 C1552 1.349 . S
C1541 C1539 1.327 . S
C1541 C1557 1.429 . S
C1541 H1563 0.950 . S
C1542 H1538 0.949 . S
C1542 C1550 1.574 . S
C1542 C1558 1.368 . S
H1543 C1551 0.950 . S
H1544 C1549 0.950 . S
H1545 C1550 0.949 . S
H1546 C1552 0.950 . S
H1547 C1553 0.950 . S
H1548 C1554 0.949 . S
C1549 H1544 0.950 . S
C1549 C1551 1.327 . S
C1549 C1555 1.429 . S
C1550 C1542 1.574 . S
C1550 H1545 0.949 . S
C1550 C1556 1.368 . S
C1551 C1535 1.349 . S
C1551 H1543 0.950 . S
C1551 C1549 1.327 . S
C1552 C1540 1.349 . S
C1552 H1546 0.950 . S
C1552 C1553 1.327 . S
C1553 H1547 0.950 . S
C1553 C1552 1.327 . S
C1553 C1557 1.429 . S
C1554 C1537 1.574 . S
C1554 H1548 0.949 . S
C1554 C1558 1.368 . S
C1555 C1536 1.429 . S
C1555 C1549 1.429 . S
C1555 C1556 1.523 . S
C1556 C1537 1.368 . S
C1556 C1550 1.368 . S
C1556 C1555 1.523 . S
C1557 C1541 1.429 . S
C1557 C1553 1.429 . S
C1557 C1558 1.523 . S
C1558 C1542 1.368 . S
C1558 C1554 1.368 . S
C1558 C1557 1.523 . S
H1559 C1534 0.950 . S
H1560 C1536 0.950 . S
H1561 C1537 0.949 . S
H1562 C1539 0.950 . S
H1563 C1541 0.950 . S
C1564 C1565 1.349 . S
C1564 C1566 1.327 . S
C1564 H1589 0.950 . S
C1565 C1564 1.349 . S
C1565 C1581 1.349 . S
C1566 C1564 1.327 . S
C1566 C1585 1.429 . S
C1566 H1590 0.950 . S
C1567 C1584 1.574 . S
C1567 C1586 1.368 . S
C1567 H1591 0.949 . S
H1568 C1572 0.949 . S
C1569 C1570 1.349 . S
C1569 C1571 1.327 . S
C1569 H1592 0.950 . S
C1570 C1569 1.349 . S
C1570 C1582 1.349 . S
C1571 C1569 1.327 . S
C1571 C1587 1.429 . S
C1571 H1593 0.950 . S
C1572 H1568 0.949 . S
C1572 C1580 1.574 . S
C1572 C1588 1.368 . S
H1573 C1581 0.950 . S
H1574 C1579 0.950 . S
H1575 C1580 0.949 . S
H1576 C1582 0.950 . S
H1577 C1583 0.950 . S
H1578 C1584 0.949 . S
C1579 H1574 0.950 . S
C1579 C1581 1.327 . S
C1579 C1585 1.429 . S
C1580 C1572 1.574 . S
C1580 H1575 0.949 . S
C1580 C1586 1.368 . S
C1581 C1565 1.349 . S
C1581 H1573 0.950 . S
C1581 C1579 1.327 . S
C1582 C1570 1.349 . S
C1582 H1576 0.950 . S
C1582 C1583 1.327 . S
C1583 H1577 0.950 . S
C1583 C1582 1.327 . S
C1583 C1587 1.429 . S
C1584 C1567 1.574 . S
C1584 H1578 0.949 . S
C1584 C1588 1.368 . S
C1585 C1566 1.429 . S
C1585 C1579 1.429 . S
C1585 C1586 1.523 . S
C1586 C1567 1.368 . S
C1586 C1580 1.368 . S
C1586 C1585 1.523 . S
C1587 C1571 1.429 . S
C1587 C1583 1.429 . S
C1587 C1588 1.523 . S
C1588 C1572 1.368 . S
C1588 C1584 1.368 . S
C1588 C1587 1.523 . S
H1589 C1564 0.950 . S
H1590 C1566 0.950 . S
H1591 C1567 0.949 . S
H1592 C1569 0.950 . S
H1593 C1571 0.950 . S
C1594 C1595 1.349 . S
C1594 C1596 1.327 . S
C1594 H1619 0.950 . S
C1595 C1594 1.349 . S
C1595 C1611 1.349 . S
C1596 C1594 1.327 . S
C1596 C1615 1.429 . S
C1596 H1620 0.950 . S
C1597 C1614 1.574 . S
C1597 C1616 1.368 . S
C1597 H1621 0.949 . S
H1598 C1602 0.949 . S
C1599 C1600 1.349 . S
C1599 C1601 1.327 . S
C1599 H1622 0.950 . S
C1600 C1599 1.349 . S
C1600 C1612 1.349 . S
C1601 C1599 1.327 . S
C1601 C1617 1.429 . S
C1601 H1623 0.950 . S
C1602 H1598 0.949 . S
C1602 C1610 1.574 . S
C1602 C1618 1.368 . S
H1603 C1611 0.950 . S
H1604 C1609 0.950 . S
H1605 C1610 0.949 . S
H1606 C1612 0.950 . S
H1607 C1613 0.950 . S
H1608 C1614 0.949 . S
C1609 H1604 0.950 . S
C1609 C1611 1.327 . S
C1609 C1615 1.429 . S
C1610 C1602 1.574 . S
C1610 H1605 0.949 . S
C1610 C1616 1.368 . S
C1611 C1595 1.349 . S
C1611 H1603 0.950 . S
C1611 C1609 1.327 . S
C1612 C1600 1.349 . S
C1612 H1606 0.950 . S
C1612 C1613 1.327 . S
C1613 H1607 0.950 . S
C1613 C1612 1.327 . S
C1613 C1617 1.429 . S
C1614 C1597 1.574 . S
C1614 H1608 0.949 . S
C1614 C1618 1.368 . S
C1615 C1596 1.429 . S
C1615 C1609 1.429 . S
C1615 C1616 1.523 . S
C1616 C1597 1.368 . S
C1616 C1610 1.368 . S
C1616 C1615 1.523 . S
C1617 C1601 1.429 . S
C1617 C1613 1.429 . S
C1617 C1618 1.523 . S
C1618 C1602 1.368 . S
C1618 C1614 1.368 . S
C1618 C1617 1.523 . S
H1619 C1594 0.950 . S
H1620 C1596 0.950 . S
H1621 C1597 0.949 . S
H1622 C1599 0.950 . S
H1623 C1601 0.950 . S
C1624 C1625 1.349 . S
C1624 C1626 1.327 . S
C1624 H1649 0.950 . S
C1625 C1624 1.349 . S
C1625 C1641 1.349 . S
C1626 C1624 1.327 . S
C1626 C1645 1.429 . S
C1626 H1650 0.950 . S
C1627 C1644 1.574 . S
C1627 C1646 1.368 . S
C1627 H1651 0.949 . S
H1628 C1632 0.949 . S
C1629 C1630 1.349 . S
C1629 C1631 1.327 . S
C1629 H1652 0.950 . S
C1630 C1629 1.349 . S
C1630 C1642 1.349 . S
C1631 C1629 1.327 . S
C1631 C1647 1.429 . S
C1631 H1653 0.950 . S
C1632 H1628 0.949 . S
C1632 C1640 1.574 . S
C1632 C1648 1.368 . S
H1633 C1641 0.950 . S
H1634 C1639 0.950 . S
H1635 C1640 0.949 . S
H1636 C1642 0.950 . S
H1637 C1643 0.950 . S
H1638 C1644 0.949 . S
C1639 H1634 0.950 . S
C1639 C1641 1.327 . S
C1639 C1645 1.429 . S
C1640 C1632 1.574 . S
C1640 H1635 0.949 . S
C1640 C1646 1.368 . S
C1641 C1625 1.349 . S
C1641 H1633 0.950 . S
C1641 C1639 1.327 . S
C1642 C1630 1.349 . S
C1642 H1636 0.950 . S
C1642 C1643 1.327 . S
C1643 H1637 0.950 . S
C1643 C1642 1.327 . S
C1643 C1647 1.429 . S
C1644 C1627 1.574 . S
C1644 H1638 0.949 . S
C1644 C1648 1.368 . S
C1645 C1626 1.429 . S
C1645 C1639 1.429 . S
C1645 C1646 1.523 . S
C1646 C1627 1.368 . S
C1646 C1640 1.368 . S
C1646 C1645 1.523 . S
C1647 C1631 1.429 . S
C1647 C1643 1.429 . S
C1647 C1648 1.523 . S
C1648 C1632 1.368 . S
C1648 C1644 1.368 . S
C1648 C1647 1.523 . S
H1649 C1624 0.950 . S
H1650 C1626 0.950 . S
H1651 C1627 0.949 . S
H1652 C1629 0.950 . S
H1653 C1631 0.950 . S
C1654 C1655 1.349 . S
C1654 C1656 1.327 . S
C1654 H1679 0.950 . S
C1655 C1654 1.349 . S
C1655 C1671 1.349 . S
C1656 C1654 1.327 . S
C1656 C1675 1.429 . S
C1656 H1680 0.950 . S
C1657 C1674 1.574 . S
C1657 C1676 1.368 . S
C1657 H1681 0.949 . S
H1658 C1662 0.949 . S
C1659 C1660 1.349 . S
C1659 C1661 1.327 . S
C1659 H1682 0.950 . S
C1660 C1659 1.349 . S
C1660 C1672 1.349 . S
C1661 C1659 1.327 . S
C1661 C1677 1.429 . S
C1661 H1683 0.950 . S
C1662 H1658 0.949 . S
C1662 C1670 1.574 . S
C1662 C1678 1.368 . S
H1663 C1671 0.950 . S
H1664 C1669 0.950 . S
H1665 C1670 0.949 . S
H1666 C1672 0.950 . S
H1667 C1673 0.950 . S
H1668 C1674 0.949 . S
C1669 H1664 0.950 . S
C1669 C1671 1.327 . S
C1669 C1675 1.429 . S
C1670 C1662 1.574 . S
C1670 H1665 0.949 . S
C1670 C1676 1.368 . S
C1671 C1655 1.349 . S
C1671 H1663 0.950 . S
C1671 C1669 1.327 . S
C1672 C1660 1.349 . S
C1672 H1666 0.950 . S
C1672 C1673 1.327 . S
C1673 H1667 0.950 . S
C1673 C1672 1.327 . S
C1673 C1677 1.429 . S
C1674 C1657 1.574 . S
C1674 H1668 0.949 . S
C1674 C1678 1.368 . S
C1675 C1656 1.429 . S
C1675 C1669 1.429 . S
C1675 C1676 1.523 . S
C1676 C1657 1.368 . S
C1676 C1670 1.368 . S
C1676 C1675 1.523 . S
C1677 C1661 1.429 . S
C1677 C1673 1.429 . S
C1677 C1678 1.523 . S
C1678 C1662 1.368 . S
C1678 C1674 1.368 . S
C1678 C1677 1.523 . S
H1679 C1654 0.950 . S
H1680 C1656 0.950 . S
H1681 C1657 0.949 . S
H1682 C1659 0.950 . S
H1683 C1661 0.950 . S
C1684 C1685 1.349 . S
C1684 C1686 1.327 . S
C1684 H1709 0.950 . S
C1685 C1684 1.349 . S
C1685 C1701 1.349 . S
C1686 C1684 1.327 . S
C1686 C1705 1.429 . S
C1686 H1710 0.950 . S
C1687 C1704 1.574 . S
C1687 C1706 1.368 . S
C1687 H1711 0.949 . S
H1688 C1692 0.949 . S
C1689 C1690 1.349 . S
C1689 C1691 1.327 . S
C1689 H1712 0.950 . S
C1690 C1689 1.349 . S
C1690 C1702 1.349 . S
C1691 C1689 1.327 . S
C1691 C1707 1.429 . S
C1691 H1713 0.950 . S
C1692 H1688 0.949 . S
C1692 C1700 1.574 . S
C1692 C1708 1.368 . S
H1693 C1701 0.950 . S
H1694 C1699 0.950 . S
H1695 C1700 0.949 . S
H1696 C1702 0.950 . S
H1697 C1703 0.950 . S
H1698 C1704 0.949 . S
C1699 H1694 0.950 . S
C1699 C1701 1.327 . S
C1699 C1705 1.429 . S
C1700 C1692 1.574 . S
C1700 H1695 0.949 . S
C1700 C1706 1.368 . S
C1701 C1685 1.349 . S
C1701 H1693 0.950 . S
C1701 C1699 1.327 . S
C1702 C1690 1.349 . S
C1702 H1696 0.950 . S
C1702 C1703 1.327 . S
C1703 H1697 0.950 . S
C1703 C1702 1.327 . S
C1703 C1707 1.429 . S
C1704 C1687 1.574 . S
C1704 H1698 0.949 . S
C1704 C1708 1.368 . S
C1705 C1686 1.429 . S
C1705 C1699 1.429 . S
C1705 C1706 1.523 . S
C1706 C1687 1.368 . S
C1706 C1700 1.368 . S
C1706 C1705 1.523 . S
C1707 C1691 1.429 . S
C1707 C1703 1.429 . S
C1707 C1708 1.523 . S
C1708 C1692 1.368 . S
C1708 C1704 1.368 . S
C1708 C1707 1.523 . S
H1709 C1684 0.950 . S
H1710 C1686 0.950 . S
H1711 C1687 0.949 . S
H1712 C1689 0.950 . S
H1713 C1691 0.950 . S
C1714 C1715 1.349 . S
C1714 C1716 1.327 . S
C1714 H1739 0.950 . S
C1715 C1714 1.349 . S
C1715 C1731 1.349 . S
C1716 C1714 1.327 . S
C1716 C1735 1.429 . S
C1716 H1740 0.950 . S
C1717 C1734 1.574 . S
C1717 C1736 1.368 . S
C1717 H1741 0.949 . S
H1718 C1722 0.949 . S
C1719 C1720 1.349 . S
C1719 C1721 1.327 . S
C1719 H1742 0.950 . S
C1720 C1719 1.349 . S
C1720 C1732 1.349 . S
C1721 C1719 1.327 . S
C1721 C1737 1.429 . S
C1721 H1743 0.950 . S
C1722 H1718 0.949 . S
C1722 C1730 1.574 . S
C1722 C1738 1.368 . S
H1723 C1731 0.950 . S
H1724 C1729 0.950 . S
H1725 C1730 0.949 . S
H1726 C1732 0.950 . S
H1727 C1733 0.950 . S
H1728 C1734 0.949 . S
C1729 H1724 0.950 . S
C1729 C1731 1.327 . S
C1729 C1735 1.429 . S
C1730 C1722 1.574 . S
C1730 H1725 0.949 . S
C1730 C1736 1.368 . S
C1731 C1715 1.349 . S
C1731 H1723 0.950 . S
C1731 C1729 1.327 . S
C1732 C1720 1.349 . S
C1732 H1726 0.950 . S
C1732 C1733 1.327 . S
C1733 H1727 0.950 . S
C1733 C1732 1.327 . S
C1733 C1737 1.429 . S
C1734 C1717 1.574 . S
C1734 H1728 0.949 . S
C1734 C1738 1.368 . S
C1735 C1716 1.429 . S
C1735 C1729 1.429 . S
C1735 C1736 1.523 . S
C1736 C1717 1.368 . S
C1736 C1730 1.368 . S
C1736 C1735 1.523 . S
C1737 C1721 1.429 . S
C1737 C1733 1.429 . S
C1737 C1738 1.523 . S
C1738 C1722 1.368 . S
C1738 C1734 1.368 . S
C1738 C1737 1.523 . S
H1739 C1714 0.950 . S
H1740 C1716 0.950 . S
H1741 C1717 0.949 . S
H1742 C1719 0.950 . S
H1743 C1721 0.950 . S
C545 C9 1.451 . S
C550 C485 1.451 . S
C575 C73 1.788 . S
C580 C5 1.788 . S
C605 C39 1.787 . S
C610 C379 1.787 . S
C635 C247 1.451 . S
C640 C43 1.451 . S
C665 C77 1.451 . S
C670 C417 1.451 . S
C695 C107 1.787 . S
C700 C311 1.787 . S
C725 C111 1.451 . S
C730 C179 1.451 . S
C755 C349 1.451 . S
C760 C145 1.451 . S
C785 C209 1.788 . S
C790 C141 1.788 . S
C815 C175 1.787 . S
C820 C515 1.787 . S
C845 C281 1.451 . S
C850 C213 1.451 . S
C875 C447 1.787 . S
C880 C243 1.787 . S
C905 C277 1.788 . S
C910 C345 1.788 . S
C935 C519 1.451 . S
C940 C315 1.451 . S
C965 C383 1.451 . S
C970 C451 1.451 . S
C995 C413 1.788 . S
C1000 C481 1.788 . S
C1025 C2 1.271 . S
C1030 C308 1.271 . S
C1055 C339 1.225 . S
C1060 C33 1.225 . S
C1085 C67 1.225 . S
C1090 C305 1.225 . S
C1115 C36 1.271 . S
C1120 C274 1.271 . S
C1145 C376 1.271 . S
C1150 C70 1.271 . S
C1175 C407 1.225 . S
C1180 C101 1.225 . S
C1205 C135 1.225 . S
C1210 C373 1.225 . S
C1235 C104 1.271 . S
C1240 C342 1.271 . S
C1265 C138 1.271 . S
C1270 C444 1.271 . S
C1295 C475 1.225 . S
C1300 C169 1.225 . S
C1325 C203 1.225 . S
C1330 C441 1.225 . S
C1355 C410 1.271 . S
C1360 C172 1.271 . S
C1385 C512 1.271 . S
C1390 C206 1.271 . S
C1415 C237 1.225 . S
C1420 C543 1.225 . S
C1445 C271 1.225 . S
C1450 C509 1.225 . S
C1475 C240 1.271 . S
C1480 C478 1.271 . S
C1505 C54 0.983 . S
C1510 C20 0.983 . S
C1535 C88 0.983 . S
C1540 C122 0.983 . S
C1565 C156 0.983 . S
C1570 C190 0.983 . S
C1595 C224 0.983 . S
C1600 C258 0.983 . S
C1625 C326 0.983 . S
C1630 C292 0.983 . S
C1655 C394 0.983 . S
C1660 C360 0.983 . S
C1685 C428 0.983 . S
C1690 C462 0.983 . S
C1715 C530 0.983 . S
C1720 C496 0.983 . S
