# Generated by pormake.
# Topology zfw, (5)-cn, num edge types: 1
# Building blocks:
#     Node 0, Type 0, BuildingBlock: XOMCOT_clean_sbu_1, # of connection points: 5
#     Node 1, Type 0, BuildingBlock: XOMCOT_clean_sbu_1, # of connection points: 5
#     Node 2, Type 0, BuildingBlock: XOMCOT_clean_sbu_1, # of connection points: 5
#     Node 3, Type 0, BuildingBlock: XOMCOT_clean_sbu_1, # of connection points: 5
#     Node 4, Type 0, BuildingBlock: XOMCOT_clean_sbu_1, # of connection points: 5
#     Node 5, Type 0, BuildingBlock: XOMCOT_clean_sbu_1, # of connection points: 5
#     Node 6, Type 0, BuildingBlock: XOMCOT_clean_sbu_1, # of connection points: 5
#     Node 7, Type 0, BuildingBlock: XOMCOT_clean_sbu_1, # of connection points: 5
#     Node 8, Type 0, BuildingBlock: XOMCOT_clean_sbu_1, # of connection points: 5
#     Node 9, Type 0, BuildingBlock: XOMCOT_clean_sbu_1, # of connection points: 5
#     Node 10, Type 0, BuildingBlock: XOMCOT_clean_sbu_1, # of connection points: 5
#     Node 11, Type 0, BuildingBlock: XOMCOT_clean_sbu_1, # of connection points: 5
#     Node 12, Type 0, BuildingBlock: XOMCOT_clean_sbu_1, # of connection points: 5
#     Node 13, Type 0, BuildingBlock: XOMCOT_clean_sbu_1, # of connection points: 5
#     Node 14, Type 0, BuildingBlock: XOMCOT_clean_sbu_1, # of connection points: 5
#     Node 15, Type 0, BuildingBlock: XOMCOT_clean_sbu_1, # of connection points: 5
#     Edge 16, Type (0, 0), BuildingBlock: TEMPAE_clean_linker_10, # of connection points: 2
#     Edge 17, Type (0, 0), BuildingBlock: TEMPAE_clean_linker_10, # of connection points: 2
#     Edge 18, Type (0, 0), BuildingBlock: TEMPAE_clean_linker_10, # of connection points: 2
#     Edge 19, Type (0, 0), BuildingBlock: TEMPAE_clean_linker_10, # of connection points: 2
#     Edge 20, Type (0, 0), BuildingBlock: TEMPAE_clean_linker_10, # of connection points: 2
#     Edge 21, Type (0, 0), BuildingBlock: TEMPAE_clean_linker_10, # of connection points: 2
#     Edge 22, Type (0, 0), BuildingBlock: TEMPAE_clean_linker_10, # of connection points: 2
#     Edge 23, Type (0, 0), BuildingBlock: TEMPAE_clean_linker_10, # of connection points: 2
#     Edge 24, Type (0, 0), BuildingBlock: TEMPAE_clean_linker_10, # of connection points: 2
#     Edge 25, Type (0, 0), BuildingBlock: TEMPAE_clean_linker_10, # of connection points: 2
#     Edge 26, Type (0, 0), BuildingBlock: TEMPAE_clean_linker_10, # of connection points: 2
#     Edge 27, Type (0, 0), BuildingBlock: TEMPAE_clean_linker_10, # of connection points: 2
#     Edge 28, Type (0, 0), BuildingBlock: TEMPAE_clean_linker_10, # of connection points: 2
#     Edge 29, Type (0, 0), BuildingBlock: TEMPAE_clean_linker_10, # of connection points: 2
#     Edge 30, Type (0, 0), BuildingBlock: TEMPAE_clean_linker_10, # of connection points: 2
#     Edge 31, Type (0, 0), BuildingBlock: TEMPAE_clean_linker_10, # of connection points: 2
#     Edge 32, Type (0, 0), BuildingBlock: TEMPAE_clean_linker_10, # of connection points: 2
#     Edge 33, Type (0, 0), BuildingBlock: TEMPAE_clean_linker_10, # of connection points: 2
#     Edge 34, Type (0, 0), BuildingBlock: TEMPAE_clean_linker_10, # of connection points: 2
#     Edge 35, Type (0, 0), BuildingBlock: TEMPAE_clean_linker_10, # of connection points: 2
#     Edge 36, Type (0, 0), BuildingBlock: TEMPAE_clean_linker_10, # of connection points: 2
#     Edge 37, Type (0, 0), BuildingBlock: TEMPAE_clean_linker_10, # of connection points: 2
#     Edge 38, Type (0, 0), BuildingBlock: TEMPAE_clean_linker_10, # of connection points: 2
#     Edge 39, Type (0, 0), BuildingBlock: TEMPAE_clean_linker_10, # of connection points: 2
#     Edge 40, Type (0, 0), BuildingBlock: TEMPAE_clean_linker_10, # of connection points: 2
#     Edge 41, Type (0, 0), BuildingBlock: TEMPAE_clean_linker_10, # of connection points: 2
#     Edge 42, Type (0, 0), BuildingBlock: TEMPAE_clean_linker_10, # of connection points: 2
#     Edge 43, Type (0, 0), BuildingBlock: TEMPAE_clean_linker_10, # of connection points: 2
#     Edge 44, Type (0, 0), BuildingBlock: TEMPAE_clean_linker_10, # of connection points: 2
#     Edge 45, Type (0, 0), BuildingBlock: TEMPAE_clean_linker_10, # of connection points: 2
#     Edge 46, Type (0, 0), BuildingBlock: TEMPAE_clean_linker_10, # of connection points: 2
#     Edge 47, Type (0, 0), BuildingBlock: TEMPAE_clean_linker_10, # of connection points: 2
#     Edge 48, Type (0, 0), BuildingBlock: TEMPAE_clean_linker_10, # of connection points: 2
#     Edge 49, Type (0, 0), BuildingBlock: TEMPAE_clean_linker_10, # of connection points: 2
#     Edge 50, Type (0, 0), BuildingBlock: TEMPAE_clean_linker_10, # of connection points: 2
#     Edge 51, Type (0, 0), BuildingBlock: TEMPAE_clean_linker_10, # of connection points: 2
#     Edge 52, Type (0, 0), BuildingBlock: TEMPAE_clean_linker_10, # of connection points: 2
#     Edge 53, Type (0, 0), BuildingBlock: TEMPAE_clean_linker_10, # of connection points: 2
#     Edge 54, Type (0, 0), BuildingBlock: TEMPAE_clean_linker_10, # of connection points: 2
#     Edge 55, Type (0, 0), BuildingBlock: TEMPAE_clean_linker_10, # of connection points: 2
# Relax obj value: 0.245
# Max RMSD: 0.199
# Mean RMSD: 0.187
data_MOF--net-zfw--node1-XOMCOT_clean_sbu_1--edge1-TEMPAE_clean_linker_10
_symmetry_space_group_name_H-M    P1
_symmetry_Int_Tables_number       1
_symmetry_cell_setting            triclinic
loop_
_symmetry_equiv_pos_as_xyz
'x, y, z'
_cell_length_a     71.317853
_cell_length_b     70.844577
_cell_length_c     17.182109
_cell_angle_alpha  90.015252
_cell_angle_beta   89.983093
_cell_angle_gamma 89.998944
loop_
_atom_site_label
_atom_site_type_symbol
_atom_site_fract_x
_atom_site_fract_y
_atom_site_fract_z
_atom_type_partial_charge
C0 C 0.10181 0.05758 0.39109 0.0
C1 C 0.10369 0.05375 0.46921 0.0
N2 N 0.11282 0.0683 0.50258 0.0
N3 N 0.10964 0.07449 0.37579 0.0
C4 C 0.11632 0.08062 0.44466 0.0
H5 H 0.09447 0.049 0.34886 0.0
Co6 Co 0.10849 0.08735 0.28252 0.0
C7 C 0.15005 0.09329 0.27955 0.0
O8 O 0.15356 0.07964 0.22992 0.0
N9 N 0.10704 0.1001 0.18753 0.0
C10 C 0.09393 0.11295 0.08309 0.0
C11 C 0.09205 0.10987 0.16162 0.0
C12 C 0.11789 0.09761 0.124 0.0
N13 N 0.11006 0.10491 0.05918 0.0
O14 O 0.11805 0.06552 0.23047 0.0
H15 H 0.07974 0.11304 0.19593 0.0
H16 H 0.1304 0.08903 0.1238 0.0
O17 O 0.13333 0.09692 0.30083 0.0
C18 C 0.10626 0.05723 0.18673 0.0
O19 O 0.08903 0.06375 0.18302 0.0
N20 N 0.09811 0.10836 0.33297 0.0
C21 C 0.0778 0.13908 0.38856 0.0
C22 C 0.09559 0.14169 0.35551 0.0
C23 C 0.10563 0.12607 0.32841 0.0
C24 C 0.08105 0.10554 0.36674 0.0
C25 C 0.07074 0.12071 0.39592 0.0
H26 H 0.11889 0.12838 0.29953 0.0
H27 H 0.07506 0.09152 0.36813 0.0
H28 H 0.1224 0.09446 0.4532 0.0
H29 H 0.0982 0.04156 0.4996 0.0
H30 H 0.08329 0.11888 0.04539 0.0
H31 H 0.1014 0.15571 0.3485 0.0
H32 H 0.05693 0.11821 0.42 0.0
C33 C 0.26591 0.74394 0.5936 0.0
C34 C 0.27041 0.74109 0.67039 0.0
N35 N 0.26887 0.75775 0.70751 0.0
N36 N 0.26123 0.76221 0.58325 0.0
C37 C 0.26346 0.77037 0.65339 0.0
H38 H 0.26528 0.73327 0.54866 0.0
Co39 Co 0.25244 0.77201 0.49074 0.0
C40 C 0.22114 0.79632 0.53651 0.0
O41 O 0.21123 0.78757 0.48294 0.0
N42 N 0.24505 0.78172 0.39484 0.0
C43 C 0.24085 0.80145 0.29542 0.0
C44 C 0.23982 0.79944 0.37474 0.0
C45 C 0.25035 0.77376 0.32708 0.0
N46 N 0.24763 0.78529 0.26587 0.0
O47 O 0.2739 0.78793 0.4837 0.0
H48 H 0.23718 0.81089 0.4147 0.0
H49 H 0.2573 0.76021 0.32336 0.0
O50 O 0.23842 0.79195 0.54617 0.0
C51 C 0.28896 0.77938 0.46567 0.0
O52 O 0.28868 0.76088 0.4602 0.0
N53 N 0.23141 0.75526 0.4973 0.0
C54 C 0.20278 0.72868 0.51651 0.0
C55 C 0.20766 0.74087 0.57713 0.0
C56 C 0.222 0.7539 0.56663 0.0
C57 C 0.22703 0.74317 0.438 0.0
C58 C 0.21249 0.73 0.44588 0.0
H59 H 0.22567 0.76283 0.61525 0.0
H60 H 0.23503 0.74315 0.38499 0.0
H61 H 0.26007 0.78496 0.66571 0.0
H62 H 0.27386 0.72775 0.69754 0.0
H63 H 0.23831 0.81426 0.26272 0.0
H64 H 0.20048 0.74028 0.63267 0.0
H65 H 0.20933 0.7205 0.39824 0.0
C66 C 0.57528 0.93142 0.77819 0.0
C67 C 0.57355 0.93545 0.85618 0.0
N68 N 0.56486 0.92079 0.89068 0.0
N69 N 0.56778 0.9143 0.76416 0.0
C70 C 0.56143 0.90823 0.8336 0.0
H71 H 0.58242 0.93998 0.73531 0.0
Co72 Co 0.56939 0.90107 0.67221 0.0
C73 C 0.5335 0.87841 0.66271 0.0
O74 O 0.53801 0.86995 0.59746 0.0
N75 N 0.5717 0.88807 0.57736 0.0
C76 C 0.58509 0.87453 0.47461 0.0
C77 C 0.58607 0.87703 0.55391 0.0
C78 C 0.56214 0.89185 0.51134 0.0
N79 N 0.57011 0.88411 0.44783 0.0
O80 O 0.55777 0.92182 0.6205 0.0
H81 H 0.5975 0.87239 0.59045 0.0
H82 H 0.54993 0.90087 0.50953 0.0
O83 O 0.54479 0.89018 0.69401 0.0
C84 C 0.56879 0.93162 0.57863 0.0
O85 O 0.58647 0.92658 0.57291 0.0
N86 N 0.58189 0.88165 0.72467 0.0
C87 C 0.60461 0.85662 0.80725 0.0
C88 C 0.58602 0.85184 0.78858 0.0
C89 C 0.57489 0.86453 0.74681 0.0
C90 C 0.59987 0.88651 0.74212 0.0
C91 C 0.61149 0.87422 0.78305 0.0
H92 H 0.56074 0.86047 0.73302 0.0
H93 H 0.60522 0.90008 0.72364 0.0
H94 H 0.55573 0.89426 0.84323 0.0
H95 H 0.57898 0.94778 0.88579 0.0
H96 H 0.59555 0.86762 0.43895 0.0
H97 H 0.58006 0.83848 0.80652 0.0
H98 H 0.62584 0.87839 0.79439 0.0
C99 C 0.41786 0.25432 0.01376 0.0
C100 C 0.41352 0.25729 0.0907 0.0
N101 N 0.41438 0.24057 0.12779 0.0
N102 N 0.42166 0.23586 0.00293 0.0
C103 C 0.41905 0.22777 0.0731 0.0
H104 H 0.41925 0.26504 0.96934 0.0
Co105 Co 0.43116 0.22592 0.9113 0.0
C106 C 0.4587 0.19837 0.96997 0.0
O107 O 0.47153 0.20612 0.92526 0.0
N108 N 0.43952 0.21623 0.81653 0.0
C109 C 0.44528 0.19741 0.71546 0.0
C110 C 0.44558 0.19887 0.79518 0.0
C111 C 0.43478 0.22459 0.74887 0.0
N112 N 0.43831 0.21357 0.68669 0.0
O113 O 0.40848 0.21224 0.8953 0.0
H114 H 0.44826 0.18721 0.83388 0.0
H115 H 0.4278 0.23814 0.74579 0.0
O116 O 0.4418 0.2044 0.9681 0.0
C117 C 0.39447 0.2222 0.87526 0.0
O118 O 0.39634 0.24063 0.87202 0.0
N119 N 0.45345 0.24044 0.92626 0.0
C120 C 0.48462 0.26359 0.953 0.0
C121 C 0.47755 0.25195 0.01189 0.0
C122 C 0.46192 0.24073 -0.00223 0.0
C123 C 0.45977 0.25219 0.86892 0.0
C124 C 0.47545 0.26374 0.88079 0.0
H125 H 0.45664 0.23222 0.04503 0.0
H126 H 0.4525 0.25308 0.81413 0.0
H127 H 0.42202 0.21309 0.08543 0.0
H128 H 0.4109 0.2708 0.11809 0.0
H129 H 0.44842 0.18489 0.68173 0.0
H130 H 0.48372 0.25186 0.0695 0.0
H131 H 0.48024 0.27279 0.83406 0.0
C132 C 0.10559 0.9383 0.67257 0.0
C133 C 0.10916 0.94041 0.59445 0.0
N134 N 0.11714 0.92438 0.56789 0.0
N135 N 0.11134 0.92107 0.6952 0.0
C136 C 0.11864 0.91307 0.63083 0.0
H137 H 0.09792 0.94808 0.7089 0.0
Co138 Co 0.10524 0.90951 0.78781 0.0
C139 C 0.13621 0.88186 0.82108 0.0
O140 O 0.12587 0.87235 0.87062 0.0
N141 N 0.09845 0.89829 0.88268 0.0
C142 C 0.08204 0.88585 0.98018 0.0
C143 C 0.08254 0.88894 0.90114 0.0
C144 C 0.10731 0.90069 0.95146 0.0
N145 N 0.09769 0.89326 0.01138 0.0
O146 O 0.11669 0.92992 0.84285 0.0
H147 H 0.0715 0.8853 0.86087 0.0
H148 H 0.12029 0.90844 0.95805 0.0
O149 O 0.12931 0.89613 0.78547 0.0
C150 C 0.10464 0.94084 0.87374 0.0
O151 O 0.08673 0.9372 0.86377 0.0
N152 N 0.09273 0.89053 0.73183 0.0
C153 C 0.06929 0.86664 0.6467 0.0
C154 C 0.0877 0.8612 0.6651 0.0
C155 C 0.09924 0.87336 0.70768 0.0
C156 C 0.07516 0.89631 0.71209 0.0
C157 C 0.06315 0.88457 0.67029 0.0
H158 H 0.11335 0.8689 0.71946 0.0
H159 H 0.07033 0.91008 0.73061 0.0
H160 H 0.1237 0.8987 0.62928 0.0
H161 H 0.10458 0.95213 0.55886 0.0
H162 H 0.07079 0.87922 0.01245 0.0
H163 H 0.0932 0.84768 0.6465 0.0
H164 H 0.04902 0.88935 0.65847 0.0
C165 C 0.40402 0.75548 0.96477 0.0
C166 C 0.39855 0.75503 0.88799 0.0
N167 N 0.40309 0.77171 0.85564 0.0
N168 N 0.41197 0.77235 0.98006 0.0
C169 C 0.41088 0.78204 0.9129 0.0
H170 H 0.40317 0.74394 0.00585 0.0
Co171 Co 0.42334 0.77924 0.07264 0.0
C172 C 0.45545 0.80203 0.02199 0.0
O173 O 0.46598 0.79194 0.06908 0.0
N174 N 0.4334 0.78634 0.1681 0.0
C175 C 0.43806 0.80547 0.26909 0.0
C176 C 0.43949 0.80366 0.18995 0.0
C177 C 0.4278 0.7782 0.23516 0.0
N178 N 0.43053 0.7895 0.29707 0.0
O179 O 0.40346 0.79647 0.09336 0.0
H180 H 0.44233 0.81533 0.15136 0.0
H181 H 0.41956 0.76538 0.23734 0.0
O182 O 0.43776 0.79899 0.01912 0.0
C183 C 0.38869 0.78809 0.11602 0.0
O184 O 0.38837 0.76956 0.11629 0.0
N185 N 0.44263 0.76116 0.05308 0.0
C186 C 0.46851 0.73279 0.01745 0.0
C187 C 0.46364 0.74637 0.96207 0.0
C188 C 0.45067 0.7603 0.98073 0.0
C189 C 0.447 0.74778 0.10737 0.0
C190 C 0.46018 0.73364 0.09121 0.0
H191 H 0.44702 0.77039 0.93617 0.0
H192 H 0.44 0.74757 0.16284 0.0
H193 H 0.41666 0.79602 0.90453 0.0
H194 H 0.39303 0.74295 0.85694 0.0
H195 H 0.44072 0.81815 0.30255 0.0
H196 H 0.4698 0.74622 0.90441 0.0
H197 H 0.46335 0.72313 0.13503 0.0
C198 C 0.56763 0.0587 0.14118 0.0
C199 C 0.5649 0.05538 0.06297 0.0
N200 N 0.55652 0.07067 0.03157 0.0
N201 N 0.56095 0.07597 0.15883 0.0
C202 C 0.55423 0.0828 0.09126 0.0
H203 H 0.5745 0.04934 0.18182 0.0
Co204 Co 0.56187 0.08897 0.25225 0.0
C205 C 0.52104 0.09764 0.26677 0.0
O206 O 0.51894 0.08994 0.33564 0.0
N207 N 0.5628 0.10232 0.34783 0.0
C208 C 0.57061 0.12196 0.44397 0.0
C209 C 0.57263 0.11805 0.36602 0.0
C210 C 0.55505 0.09703 0.41623 0.0
N211 N 0.55959 0.10859 0.47562 0.0
O212 O 0.55254 0.06707 0.30334 0.0
H213 H 0.5814 0.12595 0.32649 0.0
H214 H 0.54702 0.08427 0.4238 0.0
O215 O 0.53692 0.09777 0.23304 0.0
C216 C 0.56517 0.05773 0.33858 0.0
O217 O 0.58244 0.06423 0.3385 0.0
N218 N 0.57213 0.10969 0.20009 0.0
C219 C 0.59141 0.13735 0.11714 0.0
C220 C 0.57259 0.14009 0.13862 0.0
C221 C 0.56316 0.12606 0.18046 0.0
C222 C 0.5904 0.10689 0.18053 0.0
C223 C 0.60031 0.12051 0.13913 0.0
H224 H 0.54875 0.12846 0.197 0.0
H225 H 0.59727 0.09389 0.19724 0.0
H226 H 0.54865 0.09691 0.08548 0.0
H227 H 0.5692 0.04285 0.03171 0.0
H228 H 0.57728 0.13342 0.47503 0.0
H229 H 0.56519 0.15287 0.12286 0.0
H230 H 0.61493 0.11796 0.12559 0.0
C231 C 0.26717 0.25291 0.40347 0.0
C232 C 0.2726 0.25179 0.32693 0.0
N233 N 0.26991 0.23391 0.30203 0.0
N234 N 0.26092 0.23588 0.42658 0.0
C235 C 0.26312 0.22453 0.36437 0.0
H236 H 0.26687 0.26551 0.43901 0.0
Co237 Co 0.25005 0.23046 0.52201 0.0
C238 C 0.21894 0.20567 0.45958 0.0
O239 O 0.20569 0.21789 0.47562 0.0
N240 N 0.23963 0.22491 0.61966 0.0
C241 C 0.22119 0.22034 0.72253 0.0
C242 C 0.22162 0.22335 0.64362 0.0
C243 C 0.2498 0.22282 0.68534 0.0
N244 N 0.23897 0.21992 0.74826 0.0
O245 O 0.27033 0.21354 0.54463 0.0
H246 H 0.20941 0.22553 0.60809 0.0
H247 H 0.26486 0.22439 0.68808 0.0
O248 O 0.23608 0.20925 0.47584 0.0
C249 C 0.28591 0.2219 0.55558 0.0
O250 O 0.28657 0.24036 0.54851 0.0
N251 N 0.23103 0.24841 0.501 0.0
C252 C 0.20464 0.27684 0.47618 0.0
C253 C 0.20923 0.26415 0.41654 0.0
C254 C 0.22269 0.25023 0.42971 0.0
C255 C 0.22776 0.26158 0.55742 0.0
C256 C 0.2143 0.27563 0.54695 0.0
H257 H 0.22606 0.24057 0.38306 0.0
H258 H 0.23558 0.26118 0.6113 0.0
H259 H 0.25916 0.20981 0.36429 0.0
H260 H 0.27695 0.26359 0.29128 0.0
H261 H 0.2088 0.21917 0.75861 0.0
H262 H 0.20225 0.26474 0.36062 0.0
H263 H 0.21166 0.28562 0.59343 0.0
C264 C 0.90963 0.24774 0.41246 0.0
C265 C 0.90485 0.2467 0.3351 0.0
N266 N 0.90812 0.26367 0.30229 0.0
N267 N 0.91579 0.26529 0.42844 0.0
C268 C 0.91465 0.27465 0.36043 0.0
H269 H 0.90913 0.23629 0.45404 0.0
Co270 Co 0.9251 0.2734 0.52315 0.0
C271 C 0.93361 0.31335 0.49485 0.0
O272 O 0.92494 0.3183 0.55917 0.0
N273 N 0.93438 0.28105 0.61815 0.0
C274 C 0.95141 0.29259 0.71508 0.0
C275 C 0.95095 0.28912 0.6363 0.0
C276 C 0.92519 0.27947 0.68612 0.0
N277 N 0.93511 0.28657 0.74602 0.0
O278 O 0.90192 0.28602 0.5448 0.0
H279 H 0.96189 0.29245 0.59488 0.0
H280 H 0.91158 0.27287 0.69167 0.0
O281 O 0.93476 0.29604 0.47539 0.0
C282 C 0.88797 0.27552 0.56046 0.0
O283 O 0.89011 0.25712 0.55915 0.0
N284 N 0.94722 0.26016 0.50399 0.0
C285 C 0.97777 0.23624 0.48334 0.0
C286 C 0.97768 0.25429 0.44981 0.0
C287 C 0.9621 0.26603 0.46006 0.0
C288 C 0.94722 0.24279 0.53776 0.0
C289 C 0.96231 0.23053 0.52778 0.0
H290 H 0.96209 0.27968 0.43218 0.0
H291 H 0.93527 0.23841 0.57206 0.0
H292 H 0.91937 0.28898 0.35267 0.0
H293 H 0.8998 0.23425 0.30528 0.0
H294 H 0.96278 0.29915 0.74685 0.0
H295 H 0.98933 0.25907 0.41449 0.0
H296 H 0.96194 0.21671 0.55478 0.0
C297 C 0.7645 0.74381 0.94576 0.0
C298 C 0.77003 0.74436 0.86905 0.0
N299 N 0.76625 0.72743 0.83713 0.0
N300 N 0.75727 0.72663 0.96135 0.0
C301 C 0.75881 0.71688 0.89448 0.0
H302 H 0.76497 0.75539 0.98676 0.0
Co303 Co 0.74669 0.71908 0.05449 0.0
C304 C 0.71481 0.69571 0.00703 0.0
O305 O 0.70459 0.70534 0.0569 0.0
N306 N 0.73747 0.71132 0.15044 0.0
C307 C 0.73421 0.69167 0.25069 0.0
C308 C 0.73234 0.69364 0.17177 0.0
C309 C 0.743 0.71951 0.21744 0.0
N310 N 0.74105 0.70793 0.2789 0.0
O311 O 0.76716 0.70236 0.0718 0.0
H312 H 0.72987 0.68199 0.13265 0.0
H313 H 0.75065 0.7327 0.21975 0.0
O314 O 0.73238 0.69917 0.00117 0.0
C315 C 0.78169 0.71127 0.09368 0.0
O316 O 0.78124 0.7298 0.09518 0.0
N317 N 0.72681 0.73669 0.03835 0.0
C318 C 0.69991 0.76439 0.00744 0.0
C319 C 0.70487 0.75122 0.95051 0.0
C320 C 0.71835 0.7376 0.96687 0.0
C321 C 0.72236 0.74972 0.09403 0.0
C322 C 0.70867 0.7635 0.08026 0.0
H323 H 0.72207 0.72782 0.9212 0.0
H324 H 0.72967 0.74996 0.14874 0.0
H325 H 0.75379 0.7026 0.88667 0.0
H326 H 0.77519 0.75658 0.83786 0.0
H327 H 0.73227 0.67881 0.28374 0.0
H328 H 0.69841 0.75147 0.89344 0.0
H329 H 0.70544 0.77373 0.12514 0.0
C330 C 0.74864 0.24509 0.98578 0.0
C331 C 0.75311 0.24234 0.06274 0.0
N332 N 0.75213 0.25913 0.09933 0.0
N333 N 0.74465 0.26348 0.97434 0.0
C334 C 0.74727 0.27175 0.0442 0.0
H335 H 0.74733 0.23425 0.94176 0.0
Co336 Co 0.73505 0.27337 0.88254 0.0
C337 C 0.70739 0.30065 0.94328 0.0
O338 O 0.69452 0.29301 0.89842 0.0
N339 N 0.72659 0.28308 0.78784 0.0
C340 C 0.72029 0.30186 0.68716 0.0
C341 C 0.71995 0.30025 0.76685 0.0
C342 C 0.73168 0.27499 0.71998 0.0
N343 N 0.72785 0.28599 0.65808 0.0
O344 O 0.75776 0.28701 0.8663 0.0
H345 H 0.7168 0.31175 0.80579 0.0
H346 H 0.73906 0.26167 0.71655 0.0
O347 O 0.72433 0.29475 0.94007 0.0
C348 C 0.77127 0.2765 0.84483 0.0
O349 O 0.76855 0.25821 0.83963 0.0
N350 N 0.71288 0.25873 0.89753 0.0
C351 C 0.68348 0.23358 0.92645 0.0
C352 C 0.68991 0.2457 0.98483 0.0
C353 C 0.70464 0.25801 0.9695 0.0
C354 C 0.70679 0.24691 0.83997 0.0
C355 C 0.69188 0.23443 0.85283 0.0
H356 H 0.70963 0.26675 0.01657 0.0
H357 H 0.71386 0.24648 0.78462 0.0
H358 H 0.74424 0.28644 0.05599 0.0
H359 H 0.75599 0.22892 0.09039 0.0
H360 H 0.71674 0.3143 0.65367 0.0
H361 H 0.68379 0.24544 0.04256 0.0
H362 H 0.68753 0.22496 0.80675 0.0
C363 C 0.90459 0.76145 0.5619 0.0
C364 C 0.90005 0.7641 0.63884 0.0
N365 N 0.9019 0.74743 0.67557 0.0
N366 N 0.90958 0.74328 0.55102 0.0
C367 C 0.90749 0.73499 0.621 0.0
H368 H 0.90503 0.7722 0.51723 0.0
Co369 Co 0.9186 0.73356 0.45852 0.0
C370 C 0.95011 0.70977 0.50806 0.0
O371 O 0.96054 0.71844 0.45602 0.0
N372 N 0.92628 0.72386 0.36289 0.0
C373 C 0.93164 0.7044 0.26347 0.0
C374 C 0.93262 0.70651 0.34281 0.0
C375 C 0.92048 0.73145 0.29513 0.0
N376 N 0.92386 0.72009 0.23391 0.0
O377 O 0.89751 0.71718 0.45181 0.0
H378 H 0.93605 0.69527 0.38269 0.0
H379 H 0.91287 0.74464 0.29142 0.0
O380 O 0.93273 0.71402 0.5146 0.0
C381 C 0.88198 0.72505 0.43569 0.0
O382 O 0.88133 0.74355 0.43119 0.0
N383 N 0.93933 0.75065 0.46473 0.0
C384 C 0.96773 0.77757 0.4818 0.0
C385 C 0.9629 0.76568 0.5435 0.0
C386 C 0.94867 0.75246 0.53403 0.0
C387 C 0.94362 0.76249 0.40448 0.0
C388 C 0.95804 0.77581 0.41129 0.0
H389 H 0.94508 0.74371 0.58327 0.0
H390 H 0.93566 0.76215 0.35138 0.0
H391 H 0.91111 0.72043 0.63288 0.0
H392 H 0.89635 0.77734 0.66629 0.0
H393 H 0.93501 0.69178 0.23076 0.0
H394 H 0.97005 0.76662 0.599 0.0
H395 H 0.96115 0.78508 0.36283 0.0
C396 C 0.59364 0.5666 0.78024 0.0
C397 C 0.59606 0.56296 0.85818 0.0
N398 N 0.60477 0.57792 0.89038 0.0
N399 N 0.60076 0.58376 0.76391 0.0
C400 C 0.60755 0.59026 0.83192 0.0
H401 H 0.58636 0.55771 0.73898 0.0
Co402 Co 0.59856 0.59633 0.67088 0.0
C403 C 0.63302 0.62083 0.65847 0.0
O404 O 0.62645 0.63059 0.59959 0.0
N405 N 0.59576 0.60861 0.57512 0.0
C406 C 0.58298 0.62238 0.4718 0.0
C407 C 0.58135 0.61943 0.5506 0.0
C408 C 0.60594 0.6053 0.51028 0.0
N409 N 0.59842 0.61331 0.44639 0.0
O410 O 0.61047 0.57549 0.62087 0.0
H411 H 0.56967 0.6239 0.58612 0.0
H412 H 0.61845 0.59669 0.50989 0.0
O413 O 0.62308 0.60779 0.68918 0.0
C414 C 0.59962 0.56479 0.58209 0.0
O415 O 0.58181 0.56934 0.57618 0.0
N416 N 0.58574 0.61582 0.72227 0.0
C417 C 0.56237 0.64037 0.80455 0.0
C418 C 0.58117 0.64508 0.78999 0.0
C419 C 0.59265 0.63263 0.74861 0.0
C420 C 0.56757 0.61095 0.73623 0.0
C421 C 0.55562 0.62303 0.77676 0.0
H422 H 0.60703 0.63655 0.73955 0.0
H423 H 0.56235 0.59754 0.71532 0.0
H424 H 0.61319 0.60433 0.83959 0.0
H425 H 0.5911 0.55066 0.88935 0.0
H426 H 0.57277 0.62945 0.43545 0.0
H427 H 0.58709 0.65818 0.81133 0.0
H428 H 0.54115 0.61888 0.78527 0.0
C429 C 0.06542 0.44112 0.35133 0.0
C430 C 0.06126 0.44357 0.42881 0.0
N431 N 0.05133 0.4285 0.45349 0.0
N432 N 0.05813 0.42462 0.32728 0.0
C433 C 0.04942 0.41738 0.39014 0.0
H434 H 0.07421 0.45017 0.31617 0.0
Co435 Co 0.06298 0.41317 0.23329 0.0
C436 C 0.03394 0.38345 0.21386 0.0
O437 O 0.04544 0.37307 0.1722 0.0
N438 N 0.06829 0.40186 0.13626 0.0
C439 C 0.08232 0.38808 0.03544 0.0
C440 C 0.08329 0.39149 0.11399 0.0
C441 C 0.05835 0.4043 0.06998 0.0
N442 N 0.06667 0.39628 0.00785 0.0
O443 O 0.05036 0.4334 0.18218 0.0
H444 H 0.09466 0.38705 0.15097 0.0
H445 H 0.04566 0.41262 0.06649 0.0
O446 O 0.03938 0.39932 0.24099 0.0
C447 C 0.06182 0.44478 0.15031 0.0
O448 O 0.07986 0.44111 0.15441 0.0
N449 N 0.07674 0.39457 0.28612 0.0
C450 C 0.1025 0.37042 0.35651 0.0
C451 C 0.08331 0.36607 0.35628 0.0
C452 C 0.07058 0.37846 0.32159 0.0
C453 C 0.09508 0.39975 0.29168 0.0
C454 C 0.10827 0.38777 0.32535 0.0
H455 H 0.05592 0.37503 0.32482 0.0
H456 H 0.09959 0.41297 0.26632 0.0
H457 H 0.04271 0.40372 0.39023 0.0
H458 H 0.0665 0.45486 0.46526 0.0
H459 H 0.09266 0.38065 0.00094 0.0
H460 H 0.07816 0.35319 0.38265 0.0
H461 H 0.12291 0.3918 0.32429 0.0
C462 C 0.59753 0.43171 0.20655 0.0
C463 C 0.59815 0.43567 0.1281 0.0
N464 N 0.6088 0.42242 0.09337 0.0
N465 N 0.60764 0.41599 0.2204 0.0
C466 C 0.61439 0.41073 0.15048 0.0
H467 H 0.58941 0.43917 0.24989 0.0
Co468 Co 0.60861 0.40252 0.31196 0.0
C469 C 0.64917 0.39067 0.31254 0.0
O470 O 0.65245 0.39445 0.38597 0.0
N471 N 0.60907 0.38884 0.4065 0.0
C472 C 0.59873 0.37222 0.50791 0.0
C473 C 0.59731 0.37488 0.42888 0.0
C474 C 0.61769 0.39405 0.47317 0.0
N475 N 0.61136 0.38458 0.5359 0.0
O476 O 0.61939 0.42406 0.36104 0.0
H477 H 0.58704 0.36811 0.39212 0.0
H478 H 0.62749 0.40561 0.47694 0.0
O479 O 0.63304 0.3934 0.28287 0.0
C480 C 0.60798 0.43338 0.40301 0.0
O481 O 0.59084 0.42693 0.41229 0.0
N482 N 0.59695 0.38232 0.26166 0.0
C483 C 0.57554 0.35561 0.18295 0.0
C484 C 0.59471 0.3525 0.19624 0.0
C485 C 0.60521 0.36602 0.23648 0.0
C486 C 0.57838 0.38555 0.24918 0.0
C487 C 0.56739 0.37237 0.21009 0.0
H488 H 0.61987 0.36328 0.24733 0.0
H489 H 0.57212 0.39854 0.26966 0.0
H490 H 0.62198 0.39772 0.14052 0.0
H491 H 0.59072 0.44688 0.09846 0.0
H492 H 0.58981 0.36318 0.54269 0.0
H493 H 0.60142 0.33961 0.17685 0.0
H494 H 0.55268 0.37535 0.20044 0.0
C495 C 0.06387 0.57044 0.72159 0.0
C496 C 0.06154 0.56674 0.64364 0.0
N497 N 0.05423 0.58224 0.6099 0.0
N498 N 0.05808 0.58819 0.73643 0.0
C499 C 0.05214 0.59497 0.66749 0.0
H500 H 0.07029 0.56117 0.76386 0.0
Co501 Co 0.06133 0.60098 0.82859 0.0
C502 C 0.02838 0.62745 0.84217 0.0
O503 O 0.03561 0.63667 0.90123 0.0
N504 N 0.06525 0.61344 0.92355 0.0
C505 C 0.07982 0.62562 0.0263 0.0
C506 C 0.08068 0.62289 0.9471 0.0
C507 C 0.05521 0.61082 0.98932 0.0
N508 N 0.06384 0.61777 0.05286 0.0
O509 O 0.04845 0.58101 0.88102 0.0
H510 H 0.09254 0.6263 0.91065 0.0
H511 H 0.04208 0.6032 0.99079 0.0
O512 O 0.03747 0.61388 0.81072 0.0
C513 C 0.05898 0.57054 0.9223 0.0
O514 O 0.07696 0.57447 0.92693 0.0
N515 N 0.0751 0.61948 0.77539 0.0
C516 C 0.0998 0.64257 0.69272 0.0
C517 C 0.08144 0.64858 0.70898 0.0
C518 C 0.06929 0.63683 0.7506 0.0
C519 C 0.09278 0.61333 0.75944 0.0
C520 C 0.10538 0.62465 0.71861 0.0
H521 H 0.05531 0.6418 0.76161 0.0
H522 H 0.09714 0.59953 0.77934 0.0
H523 H 0.04777 0.60944 0.65854 0.0
H524 H 0.06571 0.55399 0.61349 0.0
H525 H 0.09087 0.63148 0.06207 0.0
H526 H 0.07643 0.66219 0.68927 0.0
H527 H 0.11948 0.6195 0.70885 0.0
C528 C 0.22342 0.17098 0.43741 0.0
C529 C 0.21355 0.1877 0.42256 0.0
C530 C 0.21649 0.15351 0.41109 0.0
C531 C 0.19953 0.15295 0.36818 0.0
C532 C 0.19035 0.17 0.34838 0.0
C533 C 0.19739 0.18713 0.37634 0.0
C534 C 0.22663 0.13563 0.43349 0.0
C535 C 0.17241 0.17011 0.30151 0.0
C536 C 0.17997 0.11096 0.25808 0.0
C537 C 0.16517 0.10577 0.30724 0.0
C538 C 0.19233 0.12554 0.27937 0.0
C539 C 0.1899 0.13478 0.35182 0.0
C540 C 0.17597 0.12837 0.40423 0.0
C541 C 0.16364 0.11409 0.38088 0.0
C542 C 0.20696 0.13203 0.22181 0.0
C543 C 0.17309 0.13755 0.48269 0.0
H544 H 0.23595 0.17143 0.47306 0.0
H545 H 0.18993 0.2001 0.36361 0.0
H546 H 0.21866 0.12834 0.48011 0.0
H547 H 0.22753 0.12582 0.38329 0.0
H548 H 0.24101 0.13853 0.45524 0.0
H549 H 0.16817 0.1846 0.28416 0.0
H550 H 0.17403 0.16143 0.2482 0.0
H551 H 0.16091 0.16383 0.33646 0.0
H552 H 0.18113 0.10453 0.20103 0.0
H553 H 0.15235 0.10988 0.41938 0.0
H554 H 0.22047 0.13493 0.25141 0.0
H555 H 0.20225 0.14539 0.19436 0.0
H556 H 0.20932 0.12145 0.17511 0.0
H557 H 0.18669 0.13943 0.513 0.0
H558 H 0.16362 0.12915 0.52065 0.0
H559 H 0.16682 0.15175 0.47456 0.0
C560 C 0.22212 0.82265 0.63489 0.0
C561 C 0.21191 0.81097 0.58436 0.0
C562 C 0.21299 0.83654 0.6797 0.0
C563 C 0.19327 0.83851 0.67428 0.0
C564 C 0.18298 0.82674 0.62329 0.0
C565 C 0.19242 0.81322 0.57892 0.0
C566 C 0.22439 0.849 0.73293 0.0
C567 C 0.16189 0.8282 0.6162 0.0
C568 C 0.16078 0.85688 0.82926 0.0
C569 C 0.15401 0.87337 0.79381 0.0
C570 C 0.17507 0.84622 0.79467 0.0
C571 C 0.18287 0.85228 0.7232 0.0
C572 C 0.17752 0.86994 0.6916 0.0
C573 C 0.16309 0.88029 0.72721 0.0
C574 C 0.18034 0.82748 0.83046 0.0
C575 C 0.18575 0.87707 0.6162 0.0
H576 H 0.23719 0.821 0.63917 0.0
H577 H 0.18438 0.80421 0.54036 0.0
H578 H 0.22149 0.86408 0.72017 0.0
H579 H 0.22029 0.84646 0.7943 0.0
H580 H 0.23969 0.84644 0.72703 0.0
H581 H 0.15603 0.81795 0.57372 0.0
H582 H 0.15525 0.8256 0.67363 0.0
H583 H 0.15787 0.84263 0.59754 0.0
H584 H 0.15411 0.85161 0.88163 0.0
H585 H 0.15816 0.89317 0.70001 0.0
H586 H 0.19572 0.82526 0.82849 0.0
H587 H 0.17371 0.81592 0.79664 0.0
H588 H 0.17557 0.82636 0.89185 0.0
H589 H 0.20107 0.87441 0.61392 0.0
H590 H 0.18317 0.89241 0.60812 0.0
H591 H 0.17923 0.86941 0.56678 0.0
C592 C 0.51297 0.87914 0.78094 0.0
C593 C 0.51741 0.87123 0.70836 0.0
C594 C 0.50007 0.87031 0.83076 0.0
C595 C 0.49163 0.85313 0.80761 0.0
C596 C 0.49491 0.84593 0.73199 0.0
C597 C 0.50768 0.85515 0.68307 0.0
C598 C 0.4966 0.87863 0.91036 0.0
C599 C 0.48624 0.82759 0.70518 0.0
C600 C 0.48396 0.81612 0.96266 0.0
C601 C 0.46439 0.81598 0.97006 0.0
C602 C 0.49291 0.82838 0.91088 0.0
C603 C 0.48206 0.84108 0.86606 0.0
C604 C 0.46232 0.84146 0.87475 0.0
C605 C 0.45366 0.82873 0.92623 0.0
C606 C 0.514 0.82734 0.90263 0.0
C607 C 0.45036 0.85505 0.82886 0.0
H608 H 0.52017 0.89175 0.80046 0.0
H609 H 0.51084 0.84904 0.62672 0.0
H610 H 0.48146 0.8781 0.9251 0.0
H611 H 0.50421 0.87021 0.95467 0.0
H612 H 0.5015 0.89349 0.91431 0.0
H613 H 0.48834 0.82514 0.64191 0.0
H614 H 0.49267 0.81568 0.73755 0.0
H615 H 0.47099 0.82739 0.71766 0.0
H616 H 0.49236 0.80627 -0.00396 0.0
H617 H 0.43852 0.82872 0.93193 0.0
H618 H 0.52035 0.84129 0.91544 0.0
H619 H 0.51776 0.82363 0.84183 0.0
H620 H 0.52036 0.81671 0.94215 0.0
H621 H 0.45609 0.86957 0.83329 0.0
H622 H 0.43557 0.85513 0.84916 0.0
H623 H 0.45054 0.85106 0.76644 0.0
C624 C 0.49534 0.12132 0.27513 0.0
C625 C 0.50581 0.1085 0.23086 0.0
C626 C 0.48421 0.13505 0.23847 0.0
C627 C 0.48336 0.13555 0.1561 0.0
C628 C 0.49243 0.12136 0.11193 0.0
C629 C 0.50379 0.10817 0.14988 0.0
C630 C 0.47496 0.15008 0.28753 0.0
C631 C 0.49157 0.12112 0.02412 0.0
C632 C 0.45135 0.16908 0.04565 0.0
C633 C 0.46419 0.18301 0.02292 0.0
C634 C 0.45717 0.15368 0.09123 0.0
C635 C 0.47611 0.15254 0.11557 0.0
C636 C 0.48883 0.16712 0.09586 0.0
C637 C 0.48275 0.18206 0.04911 0.0
C638 C 0.44333 0.13824 0.11017 0.0
C639 C 0.50907 0.16666 0.12196 0.0
H640 H 0.49706 0.12162 0.33782 0.0
H641 H 0.51183 0.09811 0.11588 0.0
H642 H 0.48331 0.16328 0.28393 0.0
H643 H 0.46068 0.15331 0.2658 0.0
H644 H 0.47402 0.14584 0.34965 0.0
H645 H 0.49649 0.10746 -0.00025 0.0
H646 H 0.47706 0.12377 0.00358 0.0
H647 H 0.50061 0.13252 0.00062 0.0
H648 H 0.43698 0.16985 0.02535 0.0
H649 H 0.49261 0.193 0.03265 0.0
H650 H 0.44385 0.13471 0.17301 0.0
H651 H 0.44713 0.12527 0.07753 0.0
H652 H 0.42874 0.14223 0.09462 0.0
H653 H 0.5099 0.16436 0.18575 0.0
H654 H 0.51665 0.17991 0.10754 0.0
H655 H 0.51645 0.15473 0.0934 0.0
C656 C 0.98184 0.80379 0.55847 0.0
C657 C 0.98246 0.79204 0.49296 0.0
C658 C 0.99642 0.81644 0.5745 0.0
C659 C 0.01212 0.81722 0.52416 0.0
C660 C 0.01255 0.80581 0.45643 0.0
C661 C 0.99761 0.79339 0.44133 0.0
C662 C 0.99526 0.82857 0.64669 0.0
C663 C 0.02912 0.80617 0.40176 0.0
C664 C 0.04305 0.86022 0.55273 0.0
C665 C 0.0562 0.85346 0.60679 0.0
C666 C 0.02911 0.84836 0.52217 0.0
C667 C 0.02842 0.82923 0.54562 0.0
C668 C 0.04231 0.82204 0.59645 0.0
C669 C 0.05596 0.83425 0.62674 0.0
C670 C 0.01455 0.85655 0.46809 0.0
C671 C 0.04216 0.80166 0.62227 0.0
H672 H 0.96998 0.8029 0.59784 0.0
H673 H 0.99811 0.78422 0.39085 0.0
H674 H 0.00658 0.82457 0.68776 0.0
H675 H 0.99735 0.84363 0.63139 0.0
H676 H 0.98158 0.8271 0.67704 0.0
H677 H 0.0266 0.79768 0.34842 0.0
H678 H 0.03242 0.82088 0.38446 0.0
H679 H 0.04165 0.80047 0.43191 0.0
H680 H 0.04337 0.87494 0.53561 0.0
H681 H 0.06592 0.82889 0.6689 0.0
H682 H 1.0008 0.85707 0.4983 0.0
H683 H 0.0128 0.84746 0.416 0.0
H684 H 0.01822 0.87105 0.44877 0.0
H685 H 0.02987 0.79913 0.66046 0.0
H686 H 0.05506 0.7978 0.65483 0.0
H687 H 0.0408 0.79215 0.57128 0.0
C688 C 0.01207 0.22873 0.48692 0.0
C689 C 0.99364 0.22315 0.47053 0.0
C690 C 0.0271 0.21611 0.47712 0.0
C691 C 0.02358 0.19768 0.44866 0.0
C692 C 0.00499 0.19214 0.43086 0.0
C693 C 0.99023 0.20488 0.44276 0.0
C694 C 0.04668 0.2224 0.49808 0.0
C695 C 1.00068 0.17275 0.39889 0.0
C696 C 0.06198 0.1691 0.35119 0.0
C697 C 0.06576 0.15543 0.40796 0.0
C698 C 0.04869 0.18334 0.36455 0.0
C699 C 0.03924 0.18409 0.43698 0.0
C700 C 0.04373 0.17087 0.49593 0.0
C701 C 0.05679 0.15652 0.48033 0.0
C702 C 0.04405 0.19694 0.29969 0.0
C703 C 0.03425 0.17145 0.57446 0.0
H704 H 0.01465 0.24283 0.50896 0.0
H705 H 0.97597 0.20065 0.42944 0.0
H706 H 0.05258 0.21291 0.54323 0.0
H707 H 0.05596 0.22143 0.44643 0.0
H708 H 0.04702 0.23713 0.52029 0.0
H709 H 0.98553 0.17085 0.386 0.0
H710 H 0.00877 0.17031 0.34464 0.0
H711 H 0.00502 0.16179 0.4413 0.0
H712 H 0.06877 0.1681 0.29485 0.0
H713 H 0.05979 0.14596 0.52426 0.0
H714 H 0.04498 0.21172 0.32067 0.0
H715 H 0.02941 0.19458 0.28013 0.0
H716 H 0.05353 0.19526 0.24882 0.0
H717 H 0.0349 0.18591 0.59908 0.0
H718 H 0.04074 0.16148 0.61648 0.0
H719 H 0.01922 0.16772 0.56796 0.0
C720 C 0.60039 0.1712 0.09579 0.0
C721 C 0.60211 0.15214 0.07481 0.0
C722 C 0.61216 0.18496 0.06312 0.0
C723 C 0.62607 0.17949 0.00876 0.0
C724 C 0.62715 0.16048 0.98403 0.0
C725 C 0.61509 0.14705 0.01705 0.0
C726 C 0.61044 0.20516 0.0903 0.0
C727 C 0.64178 0.15407 0.92624 0.0
C728 C 0.65306 0.21723 0.89762 0.0
C729 C 0.66895 0.21934 0.94476 0.0
C730 C 0.63888 0.2043 0.91749 0.0
C731 C 0.64088 0.19311 0.98531 0.0
C732 C 0.65714 0.19494 0.03195 0.0
C733 C 0.67092 0.20809 0.01128 0.0
C734 C 0.62165 0.20284 0.86689 0.0
C735 C 0.65997 0.18307 0.10407 0.0
H736 H 0.59048 0.17526 0.14057 0.0
H737 H 0.61619 0.13242 -0.00082 0.0
H738 H 0.62268 0.20879 0.12728 0.0
H739 H 0.6105 0.21494 0.0399 0.0
H740 H 0.59746 0.20755 0.12463 0.0
H741 H 0.63942 0.13932 0.9066 0.0
H742 H 0.6419 0.16344 0.87456 0.0
H743 H 0.65587 0.15492 0.95345 0.0
H744 H 0.65152 0.22602 0.84636 0.0
H745 H 0.68335 0.20954 0.04712 0.0
H746 H 0.60904 0.20674 0.90117 0.0
H747 H 0.61968 0.18807 0.84705 0.0
H748 H 0.62247 0.21217 0.81502 0.0
H749 H 0.64857 0.18589 0.14644 0.0
H750 H 0.67362 0.18594 0.13287 0.0
H751 H 0.65933 0.16786 0.08887 0.0
C752 C 0.63015 0.84975 0.9038 0.0
C753 C 0.61704 0.84316 0.84918 0.0
C754 C 0.64323 0.8375 0.93793 0.0
C755 C 0.64305 0.81814 0.91775 0.0
C756 C 0.62926 0.81122 0.86582 0.0
C757 C 0.61651 0.82382 0.83179 0.0
C758 C 0.65776 0.84543 0.99284 0.0
C759 C 0.62851 0.79061 0.84345 0.0
C760 C 0.68813 0.78993 0.92085 0.0
C761 C 0.68607 0.77927 0.98896 0.0
C762 C 0.6745 0.80307 0.89853 0.0
C763 C 0.65827 0.80543 0.94502 0.0
C764 C 0.65634 0.79507 0.01506 0.0
C765 C 0.67038 0.78216 0.03656 0.0
C766 C 0.67724 0.81408 0.82411 0.0
C767 C 0.63916 0.7971 0.06567 0.0
H768 H 0.6304 0.8646 0.91897 0.0
H769 H 0.60658 0.81859 0.78919 0.0
H770 H 0.6582 0.83709 0.04742 0.0
H771 H 0.67184 0.84443 0.96561 0.0
H772 H 0.65502 0.86045 0.00768 0.0
H773 H 0.61583 0.78716 0.80871 0.0
H774 H 0.64109 0.78694 0.80858 0.0
H775 H 0.62866 0.7816 0.89625 0.0
H776 H 0.70041 0.78783 0.88458 0.0
H777 H 0.66877 0.77382 0.08904 0.0
H778 H 0.67593 0.82944 0.83563 0.0
H779 H 0.66618 0.81023 0.7816 0.0
H780 H 0.69114 0.81137 0.79708 0.0
H781 H 0.6367 0.81217 0.07998 0.0
H782 H 0.64037 0.78899 0.12075 0.0
H783 H 0.62665 0.79202 0.03348 0.0
C784 C 0.68593 0.68102 0.95371 0.0
C785 C 0.70556 0.68186 0.95551 0.0
C786 C 0.67657 0.66894 0.90245 0.0
C787 C 0.68709 0.65714 0.85234 0.0
C788 C 0.70693 0.65743 0.85539 0.0
C789 C 0.71598 0.66997 0.90654 0.0
C790 C 0.65537 0.66925 0.90045 0.0
C791 C 0.71858 0.64484 0.80361 0.0
C792 C 0.65581 0.61917 0.76915 0.0
C793 C 0.64982 0.62782 0.70002 0.0
C794 C 0.66938 0.62776 0.81651 0.0
C795 C 0.67697 0.64542 0.79434 0.0
C796 C 0.67215 0.65337 0.72151 0.0
C797 C 0.6587 0.64441 0.675 0.0
C798 C 0.67453 0.61865 0.89298 0.0
C799 C 0.67985 0.67224 0.69585 0.0
H800 H 0.67776 0.69018 0.99114 0.0
H801 H 0.73116 0.67053 0.90783 0.0
H802 H 0.65047 0.67344 0.84162 0.0
H803 H 0.64973 0.65496 0.91243 0.0
H804 H 0.64932 0.67922 0.94363 0.0
H805 H 0.73354 0.64458 0.8216 0.0
H806 H 0.71306 0.6302 0.8042 0.0
H807 H 0.71784 0.64999 0.74275 0.0
H808 H 0.64925 0.60618 0.78835 0.0
H809 H 0.65437 0.65107 0.62114 0.0
H810 H 0.66819 0.62677 0.94153 0.0
H811 H 0.68996 0.61886 0.90137 0.0
H812 H 0.6695 0.60383 0.89672 0.0
H813 H 0.67356 0.68359 0.73196 0.0
H814 H 0.6767 0.67525 0.63377 0.0
H815 H 0.69524 0.67282 0.70435 0.0
C816 C 0.67288 0.36522 0.29614 0.0
C817 C 0.6632 0.38069 0.26535 0.0
C818 C 0.68301 0.35305 0.24716 0.0
C819 C 0.68375 0.35685 0.16623 0.0
C820 C 0.67543 0.3735 0.13648 0.0
C821 C 0.66496 0.38505 0.18628 0.0
C822 C 0.69138 0.33527 0.28096 0.0
C823 C 0.67625 0.3784 0.05106 0.0
C824 C 0.71494 0.32736 0.03378 0.0
C825 C 0.70178 0.31499 0.00103 0.0
C826 C 0.70938 0.3411 0.08816 0.0
C827 C 0.69035 0.34209 0.11131 0.0
C828 C 0.67714 0.3293 0.07967 0.0
C829 C 0.68299 0.31605 0.02439 0.0
C830 C 0.7237 0.35485 0.11922 0.0
C831 C 0.65675 0.32967 0.10376 0.0
H832 H 0.67135 0.36181 0.35733 0.0
H833 H 0.65757 0.39716 0.16279 0.0
H834 H 0.68262 0.323 0.264 0.0
H835 H 0.70567 0.33278 0.2577 0.0
H836 H 0.69211 0.3358 0.34552 0.0
H837 H 0.67385 0.39372 0.04152 0.0
H838 H 0.68997 0.37449 0.02525 0.0
H839 H 0.66514 0.37051 0.01961 0.0
H840 H 0.72949 0.32655 0.01575 0.0
H841 H 0.67281 0.30634 8e-05 0.0
H842 H 0.72391 0.35445 0.18374 0.0
H843 H 0.71977 0.36942 0.10191 0.0
H844 H 0.73804 0.35182 0.09728 0.0
H845 H 0.65555 0.32876 0.16805 0.0
H846 H 0.64858 0.31791 0.07766 0.0
H847 H 0.65026 0.34319 0.08552 0.0
C848 C 0.0167 0.35525 0.26104 0.0
C849 C 0.01688 0.37468 0.24613 0.0
C850 C 0.00162 0.3468 0.2999 0.0
C851 C 0.98605 0.35798 0.32209 0.0
C852 C 0.98579 0.37749 0.3042 0.0
C853 C 0.00142 0.38571 0.26767 0.0
C854 C 0.00271 0.32605 0.31985 0.0
C855 C 0.96915 0.38969 0.32462 0.0
C856 C 0.94373 0.32797 0.3704 0.0
C857 C 0.94482 0.32719 0.45164 0.0
C858 C 0.95621 0.33917 0.32748 0.0
C859 C 0.97053 0.34918 0.3669 0.0
C860 C 0.97125 0.34891 0.44935 0.0
C861 C 0.95813 0.33812 0.49088 0.0
C862 C 0.9546 0.33955 0.23987 0.0
C863 C 0.98666 0.35888 0.49347 0.0
H864 H 0.02877 0.34674 0.2455 0.0
H865 H 0.00158 0.40076 0.25604 0.0
H866 H 0.00173 0.32416 0.38385 0.0
H867 H 0.99075 0.31838 0.29344 0.0
H868 H 0.01594 0.31945 0.29928 0.0
H869 H 0.9704 0.40415 0.30017 0.0
H870 H 0.95605 0.38315 0.30251 0.0
H871 H 0.96781 0.3908 0.38876 0.0
H872 H 0.9333 0.31956 0.34033 0.0
H873 H 0.95905 0.33725 0.55378 0.0
H874 H 0.96614 0.33116 0.21384 0.0
H875 H 0.95593 0.35421 0.21785 0.0
H876 H 0.94106 0.33358 0.21944 0.0
H877 H 1.00033 0.35214 0.47992 0.0
H878 H 0.98446 0.35838 0.55745 0.0
H879 H 0.98765 0.37386 0.47522 0.0
C880 C 0.9784 0.69447 0.56364 0.0
C881 C 0.95881 0.69548 0.55905 0.0
C882 C 0.98723 0.68143 0.61243 0.0
C883 C 0.9762 0.66884 0.6571 0.0
C884 C 0.9564 0.66949 0.65182 0.0
C885 C 0.94789 0.68298 0.60325 0.0
C886 C 0.0084 0.68141 0.61723 0.0
C887 C 0.94426 0.65606 0.69771 0.0
C888 C 0.00618 0.62855 0.72926 0.0
C889 C 0.01194 0.63559 0.80175 0.0
C890 C 0.9931 0.63842 0.68383 0.0
C891 C 0.98574 0.65573 0.71156 0.0
C892 C 0.99026 0.66201 0.78745 0.0
C893 C 0.00325 0.6518 0.83177 0.0
C894 C 0.98837 0.63111 0.60367 0.0
C895 C 0.98279 0.68043 0.81915 0.0
H896 H 0.98693 0.70416 0.53003 0.0
H897 H 0.93273 0.68366 0.59955 0.0
H898 H 0.0129 0.68429 0.67791 0.0
H899 H 0.01396 0.66733 0.60091 0.0
H900 H 0.01488 0.69215 0.57853 0.0
H901 H 0.92915 0.65759 0.68328 0.0
H902 H 0.9486 0.64128 0.68621 0.0
H903 H 0.94611 0.65863 0.76091 0.0
H904 H 0.01261 0.61588 0.70602 0.0
H905 H 0.00738 0.65719 0.88826 0.0
H906 H 0.99604 0.63949 0.55938 0.0
H907 H 0.97316 0.63265 0.59169 0.0
H908 H 0.99236 0.61604 0.59654 0.0
H909 H 0.9897 0.69235 0.78858 0.0
H910 H 0.98545 0.68194 0.88256 0.0
H911 H 0.9675 0.68166 0.80869 0.0
C912 C 0.50029 0.29526 0.94707 0.0
C913 C 0.50072 0.27625 0.96977 0.0
C914 C 0.51402 0.30799 0.97308 0.0
C915 C 0.52841 0.30156 0.02326 0.0
C916 C 0.52959 0.28216 0.04222 0.0
C917 C 0.51578 0.26974 0.01498 0.0
C918 C 0.5124 0.32855 0.95093 0.0
C919 C 0.54473 0.27472 0.09543 0.0
C920 C 0.56977 0.33341 0.07176 0.0
C921 C 0.56386 0.34142 0.14227 0.0
C922 C 0.55835 0.32049 0.03167 0.0
C923 C 0.54076 0.31535 0.06356 0.0
C924 C 0.53487 0.32325 0.13523 0.0
C925 C 0.54646 0.33623 0.1735 0.0
C926 C 0.56499 0.31249 0.95505 0.0
C927 C 0.51631 0.31798 0.17167 0.0
H928 H 0.48867 0.30043 0.91246 0.0
H929 H 0.5164 0.25497 0.03137 0.0
H930 H 0.50786 0.33685 0.00236 0.0
H931 H 0.5262 0.33417 0.93222 0.0
H932 H 0.50209 0.33081 0.90337 0.0
H933 H 0.54493 0.25904 0.09752 0.0
H934 H 0.55872 0.27977 0.07636 0.0
H935 H 0.54238 0.28012 0.15528 0.0
H936 H 0.58316 0.33756 0.04722 0.0
H937 H 0.54197 0.34224 0.22847 0.0
H938 H 0.55476 0.31594 0.90851 0.0
H939 H 0.56581 0.29688 0.95869 0.0
H940 H 0.57896 0.31805 0.93791 0.0
H941 H 0.50467 0.32155 0.13148 0.0
H942 H 0.51388 0.32533 0.22789 0.0
H943 H 0.51576 0.30253 0.18198 0.0
C944 C 0.49747 0.71377 0.04348 0.0
C945 C 0.48188 0.71762 -0.0035 0.0
C946 C 0.51113 0.70067 0.01971 0.0
C947 C 0.50894 0.69111 0.94784 0.0
C948 C 0.4928 0.69442 0.90189 0.0
C949 C 0.47952 0.7077 0.92663 0.0
C950 C 0.52821 0.69758 0.06995 0.0
C951 C 0.48979 0.68432 0.82546 0.0
C952 C 0.55061 0.67304 0.83278 0.0
C953 C 0.54971 0.65356 0.84683 0.0
C954 C 0.53793 0.68552 0.86814 0.0
C955 C 0.52386 0.67833 0.91814 0.0
C956 C 0.52322 0.65878 0.93459 0.0
C957 C 0.53621 0.64664 0.89906 0.0
C958 C 0.53914 0.70632 0.84955 0.0
C959 C 0.50839 0.65058 0.98745 0.0
H960 H 0.49933 0.72153 0.09734 0.0
H961 H 0.46732 0.7105 0.8908 0.0
H962 H 0.53025 0.6823 0.08129 0.0
H963 H 0.54087 0.70269 0.03889 0.0
H964 H 0.52718 0.70509 0.12657 0.0
H965 H 0.47598 0.6877 0.79899 0.0
H966 H 0.50097 0.68834 0.78375 0.0
H967 H 0.4907 0.66882 0.83404 0.0
H968 H 0.56084 0.67853 0.79199 0.0
H969 H 0.53565 0.63166 0.91158 0.0
H970 H 0.53928 0.71474 0.90399 0.0
H971 H 0.52661 0.71067 0.8158 0.0
H972 H 0.55186 0.70984 0.81514 0.0
H973 H 0.50818 0.65819 0.04386 0.0
H974 H 0.51064 0.63531 -0.00118 0.0
H975 H 0.49437 0.65241 0.96047 0.0
C976 C 0.18856 0.70303 0.59593 0.0
C977 C 0.188 0.71435 0.52913 0.0
C978 C 0.17385 0.69068 0.61376 0.0
C979 C 0.15809 0.68975 0.56386 0.0
C980 C 0.15774 0.70063 0.49469 0.0
C981 C 0.1728 0.71277 0.47786 0.0
C982 C 0.17491 0.67912 0.68748 0.0
C983 C 0.14113 0.70006 0.44033 0.0
C984 C 0.12638 0.64762 0.599 0.0
C985 C 0.11335 0.65511 0.65196 0.0
C986 C 0.14055 0.65893 0.56675 0.0
C987 C 0.14161 0.67823 0.58739 0.0
C988 C 0.12789 0.68612 0.63734 0.0
C989 C 0.114 0.67445 0.66933 0.0
C990 C 0.15492 0.65001 0.51367 0.0
C991 C 0.12845 0.70669 0.66026 0.0
H992 H 0.20045 0.70408 0.63501 0.0
H993 H 0.17235 0.7216 0.42636 0.0
H994 H 0.16372 0.68364 0.72831 0.0
H995 H 0.17253 0.66397 0.67428 0.0
H996 H 0.18866 0.68058 0.71725 0.0
H997 H 0.14377 0.70799 0.38563 0.0
H998 H 0.13753 0.68526 0.42545 0.0
H999 H 0.12873 0.7063 0.46969 0.0
H1000 H 0.12575 0.63278 0.58388 0.0
H1001 H 0.10413 0.68036 0.71062 0.0
H1002 H 0.1687 0.64956 0.54359 0.0
H1003 H 0.15672 0.65857 0.46014 0.0
H1004 H 0.15101 0.63539 0.49676 0.0
H1005 H 0.14089 0.70934 0.6975 0.0
H1006 H 0.11571 0.71105 0.69282 0.0
H1007 H 0.12984 0.71574 0.60788 0.0
C1008 C 0.17616 0.29418 0.52216 0.0
C1009 C 0.1898 0.2912 0.46464 0.0
C1010 C 0.1616 0.3072 0.51078 0.0
C1011 C 0.16076 0.31753 0.4404 0.0
C1012 C 0.17469 0.31483 0.38272 0.0
C1013 C 0.18902 0.30164 0.39546 0.0
C1014 C 0.14691 0.30962 0.57329 0.0
C1015 C 0.17435 0.32572 0.30719 0.0
C1016 C 0.11472 0.33741 0.36702 0.0
C1017 C 0.11657 0.35663 0.38525 0.0
C1018 C 0.12873 0.32442 0.38706 0.0
C1019 C 0.14505 0.33082 0.42575 0.0
C1020 C 0.14676 0.35006 0.44663 0.0
C1021 C 0.13245 0.36273 0.42637 0.0
C1022 C 0.12638 0.30396 0.36425 0.0
C1023 C 0.16395 0.35738 0.48807 0.0
H1024 H 0.17663 0.28598 0.57539 0.0
H1025 H 0.19969 0.29954 0.35134 0.0
H1026 H 0.14594 0.32466 0.59078 0.0
H1027 H 0.13297 0.30546 0.55024 0.0
H1028 H 0.14995 0.301 0.62579 0.0
H1029 H 0.18654 0.32235 0.26935 0.0
H1030 H 0.16129 0.32248 0.27476 0.0
H1031 H 0.17435 0.34111 0.31921 0.0
H1032 H 0.10262 0.3326 0.33441 0.0
H1033 H 0.13383 0.3775 0.44182 0.0
H1034 H 0.12857 0.2947 0.41548 0.0
H1035 H 0.1371 0.3001 0.32025 0.0
H1036 H 0.11228 0.30103 0.33956 0.0
H1037 H 0.16655 0.34909 0.54176 0.0
H1038 H 0.16265 0.37252 0.50398 0.0
H1039 H 0.17642 0.35565 0.45011 0.0
C1040 C 0.10304 0.03895 0.06484 0.0
C1041 C 0.11175 0.04124 0.13718 0.0
C1042 C 0.10598 0.02268 0.02042 0.0
C1043 C 0.11766 0.00819 0.04993 0.0
C1044 C 0.12755 0.01101 0.12052 0.0
C1045 C 0.12457 0.02767 0.16327 0.0
C1046 C 0.09551 0.02045 0.94457 0.0
C1047 C 0.14017 0.99593 0.15362 0.0
C1048 C 0.09902 0.96064 0.98965 0.0
C1049 C 0.11019 0.95649 0.92498 0.0
C1050 C 0.10231 0.97677 0.03449 0.0
C1051 C 0.11692 0.98925 0.01303 0.0
C1052 C 0.12898 0.98454 0.9504 0.0
C1053 C 0.12555 0.96802 0.90723 0.0
C1054 C 0.08935 0.98102 0.10185 0.0
C1055 C 0.14472 0.99749 0.92601 0.0
H1056 H 0.09348 0.04972 0.04386 0.0
H1057 H 0.1314 0.02957 0.2191 0.0
H1058 H 0.10521 0.01594 0.89765 0.0
H1059 H 0.08466 0.00933 0.95089 0.0
H1060 H 0.08851 0.03373 0.92633 0.0
H1061 H 0.1494 0.00155 0.20027 0.0
H1062 H 0.13146 0.98446 0.17869 0.0
H1063 H 0.14902 0.9896 0.10737 0.0
H1064 H 0.08735 0.95147 0.00412 0.0
H1065 H 0.13421 0.9647 0.85718 0.0
H1066 H 0.08052 0.99344 0.08745 0.0
H1067 H 0.09755 0.98458 0.15468 0.0
H1068 H 0.07997 0.96895 0.11566 0.0
H1069 H 0.1388 0.00999 0.89582 0.0
H1070 H 0.15469 0.99038 0.88587 0.0
H1071 H 0.15254 0.00271 0.97753 0.0
C1072 C 0.35518 0.79178 0.14548 0.0
C1073 C 0.37354 0.79811 0.15638 0.0
C1074 C 0.34127 0.79567 0.20051 0.0
C1075 C 0.34604 0.80587 0.26866 0.0
C1076 C 0.36393 0.81444 0.27458 0.0
C1077 C 0.37762 0.81039 0.21805 0.0
C1078 C 0.32221 0.78673 0.19014 0.0
C1079 C 0.36908 0.82631 0.34419 0.0
C1080 C 0.30333 0.80709 0.39787 0.0
C1081 C 0.30541 0.78967 0.43566 0.0
C1082 C 0.31765 0.81409 0.34958 0.0
C1083 C 0.33414 0.80326 0.33881 0.0
C1084 C 0.33715 0.78696 0.38503 0.0
C1085 C 0.32271 0.78038 0.43293 0.0
C1086 C 0.31421 0.83202 0.30453 0.0
C1087 C 0.35474 0.77516 0.37733 0.0
H1088 H 0.35209 0.78241 0.09719 0.0
H1089 H 0.39189 0.81529 0.22634 0.0
H1090 H 0.32092 0.77438 0.22954 0.0
H1091 H 0.31089 0.79681 0.20515 0.0
H1092 H 0.31999 0.78187 0.12942 0.0
H1093 H 0.38223 0.83437 0.33436 0.0
H1094 H 0.3576 0.83632 0.35815 0.0
H1095 H 0.37105 0.81709 0.39567 0.0
H1096 H 0.29002 0.81445 0.4006 0.0
H1097 H 0.32446 0.76715 0.46377 0.0
H1098 H 0.30629 0.82866 0.25072 0.0
H1099 H 0.32751 0.83905 0.28771 0.0
H1100 H 0.3056 0.84203 0.33917 0.0
H1101 H 0.35522 0.7686 0.31869 0.0
H1102 H 0.35541 0.76374 0.42151 0.0
H1103 H 0.36741 0.7841 0.38362 0.0
C1104 C 0.54553 0.02874 0.35554 0.0
C1105 C 0.56088 0.03981 0.37821 0.0
C1106 C 0.54286 0.01062 0.387 0.0
C1107 C 0.55575 0.00369 0.44276 0.0
C1108 C 0.57056 0.01535 0.46915 0.0
C1109 C 0.57301 0.03322 0.43614 0.0
C1110 C 0.52692 0.99858 0.3576 0.0
C1111 C 0.58444 0.00862 0.52955 0.0
C1112 C 0.54951 0.9609 0.57177 0.0
C1113 C 0.56218 0.94841 0.53684 0.0
C1114 C 0.54601 0.97867 0.53854 0.0
C1115 C 0.5552 0.9837 0.46843 0.0
C1116 C 0.56653 0.9703 0.42935 0.0
C1117 C 0.57009 0.95288 0.46467 0.0
C1118 C 0.5338 0.99255 0.58176 0.0
C1119 C 0.57616 0.97488 0.35337 0.0
H1120 H 0.53612 0.03387 0.31074 0.0
H1121 H 0.58471 0.0419 0.45466 0.0
H1122 H 0.53257 0.98723 0.31976 0.0
H1123 H 0.51952 0.99166 0.40671 0.0
H1124 H 0.51662 0.00693 0.32341 0.0
H1125 H 0.59413 0.02001 0.54849 0.0
H1126 H 0.57696 0.00314 0.58144 0.0
H1127 H 0.59291 0.99687 0.50527 0.0
H1128 H 0.54337 0.95734 0.62761 0.0
H1129 H 0.57961 0.94299 0.43708 0.0
H1130 H 0.52448 1.00027 0.54103 0.0
H1131 H 0.54281 0.00315 0.61111 0.0
H1132 H 0.52506 0.98548 0.62666 0.0
H1133 H 0.58204 0.96208 0.32502 0.0
H1134 H 0.5878 0.98493 0.36431 0.0
H1135 H 0.56626 0.98173 0.31244 0.0
C1136 C 0.36032 0.22333 0.85172 0.0
C1137 C 0.37727 0.21359 0.84406 0.0
C1138 C 0.34473 0.21842 0.80674 0.0
C1139 C 0.3463 0.2036 0.75162 0.0
C1140 C 0.36276 0.19243 0.74972 0.0
C1141 C 0.37815 0.19756 0.79633 0.0
C1142 C 0.32727 0.23045 0.81243 0.0
C1143 C 0.36489 0.17621 0.69357 0.0
C1144 C 0.29999 0.1984 0.6471 0.0
C1145 C 0.30223 0.21224 0.58956 0.0
C1146 C 0.31504 0.19363 0.69633 0.0
C1147 C 0.33248 0.20293 0.68694 0.0
C1148 C 0.33527 0.21508 0.62254 0.0
C1149 C 0.32006 0.21962 0.57482 0.0
C1150 C 0.31194 0.17985 0.76192 0.0
C1151 C 0.35374 0.22498 0.60896 0.0
H1152 H 0.35961 0.23556 0.8896 0.0
H1153 H 0.39129 0.18999 0.79049 0.0
H1154 H 0.31452 0.22151 0.81418 0.0
H1155 H 0.32738 0.23961 0.86495 0.0
H1156 H 0.32626 0.23963 0.76023 0.0
H1157 H 0.37483 0.16549 0.71646 0.0
H1158 H 0.35124 0.16931 0.68138 0.0
H1159 H 0.37062 0.18157 0.63776 0.0
H1160 H 0.28619 0.19255 0.658 0.0
H1161 H 0.32181 0.23008 0.52928 0.0
H1162 H 0.31452 0.18684 0.81867 0.0
H1163 H 0.32213 0.16807 0.75706 0.0
H1164 H 0.29751 0.17395 0.76185 0.0
H1165 H 0.35619 0.23546 0.65592 0.0
H1166 H 0.35404 0.23249 0.55224 0.0
H1167 H 0.36549 0.21474 0.61036 0.0
C1168 C 0.78938 0.29906 0.7627 0.0
C1169 C 0.78912 0.28431 0.81693 0.0
C1170 C 0.80574 0.303 0.71992 0.0
C1171 C 0.82205 0.29201 0.73278 0.0
C1172 C 0.82224 0.27845 0.7934 0.0
C1173 C 0.80568 0.27462 0.83406 0.0
C1174 C 0.80491 0.31758 0.6561 0.0
C1175 C 0.83934 0.26652 0.81005 0.0
C1176 C 0.85352 0.27399 0.5738 0.0
C1177 C 0.87031 0.28334 0.59063 0.0
C1178 C 0.83708 0.2782 0.61465 0.0
C1179 C 0.8376 0.29177 0.67518 0.0
C1180 C 0.85416 0.30237 0.68802 0.0
C1181 C 0.87039 0.2981 0.64493 0.0
C1182 C 0.8196 0.26687 0.59764 0.0
C1183 C 0.85512 0.31709 0.75131 0.0
H1184 H 0.77645 0.30642 0.74905 0.0
H1185 H 0.80541 0.26325 0.87635 0.0
H1186 H 0.81854 0.32493 0.64913 0.0
H1187 H 0.80158 0.31049 0.6002 0.0
H1188 H 0.7938 0.32822 0.66762 0.0
H1189 H 0.84073 0.25555 0.76427 0.0
H1190 H 0.85227 0.27519 0.80912 0.0
H1191 H 0.83835 0.25934 0.86739 0.0
H1192 H 0.85348 0.26271 0.53113 0.0
H1193 H 0.88345 0.30528 0.65798 0.0
H1194 H 0.80719 0.27625 0.59389 0.0
H1195 H 0.81708 0.25672 0.64573 0.0
H1196 H 0.82078 0.2588 0.5424 0.0
H1197 H 0.84328 0.32715 0.74545 0.0
H1198 H 0.86852 0.32508 0.74999 0.0
H1199 H 0.85373 0.31021 0.80902 0.0
C1200 C 0.81542 0.70892 0.12025 0.0
C1201 C 0.7974 0.70179 0.1324 0.0
C1202 C 0.82965 0.70578 0.17461 0.0
C1203 C 0.82554 0.69547 0.24321 0.0
C1204 C 0.80812 0.68605 0.25021 0.0
C1205 C 0.79407 0.68939 0.19443 0.0
C1206 C 0.84824 0.71562 0.16313 0.0
C1207 C 0.80373 0.67403 0.32027 0.0
C1208 C 0.86867 0.69658 0.3696 0.0
C1209 C 0.86592 0.71399 0.40683 0.0
C1210 C 0.85452 0.68877 0.32261 0.0
C1211 C 0.8375 0.69876 0.31266 0.0
C1212 C 0.83387 0.71499 0.35859 0.0
C1213 C 0.84818 0.72241 0.40505 0.0
C1214 C 0.85866 0.67093 0.27795 0.0
C1215 C 0.81568 0.72585 0.35193 0.0
H1216 H 0.81791 0.71838 0.07169 0.0
H1217 H 0.78006 0.68388 0.20369 0.0
H1218 H 0.84916 0.72792 0.20298 0.0
H1219 H 0.86005 0.70602 0.17683 0.0
H1220 H 0.84998 0.72073 0.10247 0.0
H1221 H 0.79103 0.66522 0.31096 0.0
H1222 H 0.81577 0.66471 0.33425 0.0
H1223 H 0.80129 0.68321 0.37154 0.0
H1224 H 0.88232 0.68986 0.37171 0.0
H1225 H 0.84591 0.73562 0.43555 0.0
H1226 H 0.86627 0.67454 0.22363 0.0
H1227 H 0.84566 0.66325 0.26203 0.0
H1228 H 0.86782 0.6614 0.31246 0.0
H1229 H 0.81477 0.73251 0.29356 0.0
H1230 H 0.81451 0.73713 0.39662 0.0
H1231 H 0.8035 0.71627 0.35824 0.0
C1232 C 0.59584 0.53796 0.49072 0.0
C1233 C 0.60629 0.54677 0.54929 0.0
C1234 C 0.60009 0.5196 0.46647 0.0
C1235 C 0.61507 0.50976 0.50225 0.0
C1236 C 0.62645 0.51903 0.55787 0.0
C1237 C 0.62195 0.53754 0.58066 0.0
C1238 C 0.58776 0.51034 0.40597 0.0
C1239 C 0.64259 0.50904 0.59692 0.0
C1240 C 0.60401 0.45781 0.50479 0.0
C1241 C 0.61319 0.45164 0.43748 0.0
C1242 C 0.60594 0.47642 0.53083 0.0
C1243 C 0.61708 0.48921 0.48754 0.0
C1244 C 0.62764 0.48261 0.4232 0.0
C1245 C 0.62564 0.46377 0.39905 0.0
C1246 C 0.59479 0.48274 0.60091 0.0
C1247 C 0.6398 0.49577 0.37611 0.0
H1248 H 0.58391 0.5452 0.4655 0.0
H1249 H 0.63008 0.54436 0.62596 0.0
H1250 H 0.59646 0.50386 0.35957 0.0
H1251 H 0.57948 0.49888 0.43348 0.0
H1252 H 0.57788 0.52049 0.37865 0.0
H1253 H 0.652 0.51906 0.62767 0.0
H1254 H 0.63703 0.49883 0.64013 0.0
H1255 H 0.65094 0.50092 0.5539 0.0
H1256 H 0.59466 0.44827 0.53537 0.0
H1257 H 0.63281 0.45894 0.34706 0.0
H1258 H 0.58291 0.49168 0.58151 0.0
H1259 H 0.60361 0.49137 0.6404 0.0
H1260 H 0.58906 0.4706 0.63426 0.0
H1261 H 0.63077 0.50475 0.33881 0.0
H1262 H 0.64967 0.48792 0.33794 0.0
H1263 H 0.64795 0.50528 0.41465 0.0
C1264 C 0.05887 0.54947 0.0367 0.0
C1265 C 0.05167 0.55395 0.96333 0.0
C1266 C 0.05554 0.53179 0.07015 0.0
C1267 C 0.04518 0.51815 0.02794 0.0
C1268 C 0.03636 0.52328 0.95716 0.0
C1269 C 0.03963 0.5413 0.92571 0.0
C1270 C 0.06475 0.52715 0.14691 0.0
C1271 C 0.02505 0.50922 0.91089 0.0
C1272 C 0.06699 0.47011 0.05368 0.0
C1273 C 0.05548 0.46207 0.11069 0.0
C1274 C 0.06296 0.48787 0.0225 0.0
C1275 C 0.04712 0.49796 0.04972 0.0
C1276 C 0.03475 0.4894 0.10371 0.0
C1277 C 0.03905 0.47142 0.13352 0.0
C1278 C 0.07638 0.49629 0.96387 0.0
C1279 C 0.01767 0.49966 0.13367 0.0
H1280 H 0.06792 0.55949 0.06622 0.0
H1281 H 0.03403 0.54487 0.86892 0.0
H1282 H 0.055 0.51923 0.18512 0.0
H1283 H 0.07717 0.51805 0.13631 0.0
H1284 H 0.06946 0.54005 0.17809 0.0
H1285 H 0.01594 0.51631 0.86735 0.0
H1286 H 0.03472 0.4996 0.87943 0.0
H1287 H 0.01619 0.50044 0.94969 0.0
H1288 H 0.07953 0.46273 0.035 0.0
H1289 H 0.03012 0.46517 0.1776 0.0
H1290 H 0.08379 0.50848 0.99036 0.0
H1291 H 0.06861 0.50158 0.9124 0.0
H1292 H 0.08704 0.48594 0.94377 0.0
H1293 H 0.02207 0.51033 0.17727 0.0
H1294 H 0.0076 0.48986 0.16196 0.0
H1295 H 0.01041 0.50725 0.08593 0.0
C1296 C 0.10891 0.1123 0.91929 0.0
C1297 C 0.11478 0.10043 0.97975 0.0
C1298 C 0.11068 0.10679 0.8413 0.0
C1299 C 0.11873 0.08904 0.82338 0.0
C1300 C 0.12563 0.07741 0.88384 0.0
C1301 C 0.12351 0.08321 0.96135 0.0
C1302 C 0.10296 0.1195 0.77841 0.0
C1303 C 0.13437 0.05842 0.86699 0.0
C1304 C 0.10138 0.06645 0.63724 0.0
C1305 C 0.11533 0.07175 0.58426 0.0
C1306 C 0.10258 0.07158 0.71579 0.0
C1307 C 0.11829 0.08201 0.74206 0.0
C1308 C 0.13286 0.08667 0.68949 0.0
C1309 C 0.1311 0.08164 0.61085 0.0
C1310 C 0.08659 0.06664 0.76976 0.0
C1311 C 0.15002 0.09737 0.71587 0.0
H1312 H 0.10235 0.12567 0.93323 0.0
H1313 H 0.12785 0.07376 0.00742 0.0
H1314 H 0.11375 0.12212 0.73322 0.0
H1315 H 0.09094 0.11246 0.74943 0.0
H1316 H 0.09813 0.13329 0.80172 0.0
H1317 H 0.14074 0.05198 0.9197 0.0
H1318 H 0.12354 0.04862 0.84437 0.0
H1319 H 0.14532 0.0598 0.82145 0.0
H1320 H 0.08906 0.05905 0.61647 0.0
H1321 H 0.14195 0.08558 0.56976 0.0
H1322 H 0.07957 0.07977 0.7896 0.0
H1323 H 0.09193 0.05932 0.82227 0.0
H1324 H 0.07598 0.05747 0.74131 0.0
H1325 H 0.14596 0.11181 0.73439 0.0
H1326 H 0.16073 0.09855 0.66914 0.0
H1327 H 0.15642 0.09029 0.76697 0.0
C1328 C 0.26865 0.77116 0.16841 0.0
C1329 C 0.25265 0.78178 0.18643 0.0
C1330 C 0.2733 0.76715 0.09096 0.0
C1331 C 0.26158 0.77388 0.03069 0.0
C1332 C 0.24559 0.7849 0.04858 0.0
C1333 C 0.24139 0.78881 0.12645 0.0
C1334 C 0.29051 0.75548 0.0736 0.0
C1335 C 0.23262 0.79208 0.98567 0.0
C1336 C 0.27716 0.77705 0.82081 0.0
C1337 C 0.26901 0.76075 0.78978 0.0
C1338 C 0.27572 0.78106 0.90043 0.0
C1339 C 0.26541 0.76869 0.94893 0.0
C1340 C 0.25757 0.75195 0.918 0.0
C1341 C 0.25966 0.74808 0.83869 0.0
C1342 C 0.28467 0.79877 0.93212 0.0
C1343 C 0.24614 0.73864 0.9677 0.0
H1344 H 0.27757 0.76607 0.21491 0.0
H1345 H 0.22898 0.79693 0.14079 0.0
H1346 H 0.2864 0.7421 0.04475 0.0
H1347 H 0.29981 0.76316 0.03265 0.0
H1348 H 0.29857 0.75199 0.12702 0.0
H1349 H 0.22094 0.80071 0.0095 0.0
H1350 H 0.24055 0.80078 0.94328 0.0
H1351 H 0.22656 0.77999 0.95319 0.0
H1352 H 0.28444 0.78672 0.78239 0.0
H1353 H 0.25315 0.73563 0.81396 0.0
H1354 H 0.29322 0.79544 0.98431 0.0
H1355 H 0.27361 0.80885 0.95048 0.0
H1356 H 0.29376 0.80583 0.88839 0.0
H1357 H 0.2542 0.73435 0.01995 0.0
H1358 H 0.24189 0.72573 0.93548 0.0
H1359 H 0.2333 0.74594 0.98835 0.0
C1360 C 0.54771 0.90708 0.0011 0.0
C1361 C 0.56306 0.91729 0.97254 0.0
C1362 C 0.54672 0.90192 0.07974 0.0
C1363 C 0.56168 0.90671 0.13007 0.0
C1364 C 0.57699 0.91743 0.10185 0.0
C1365 C 0.57741 0.92273 0.02341 0.0
C1366 C 0.52997 0.89087 0.10822 0.0
C1367 C 0.59331 0.92264 0.15368 0.0
C1368 C 0.55732 0.90596 0.34924 0.0
C1369 C 0.56609 0.88877 0.36793 0.0
C1370 C 0.55502 0.91161 0.27181 0.0
C1371 C 0.56186 0.89991 0.21154 0.0
C1372 C 0.57018 0.8823 0.22957 0.0
C1373 C 0.57209 0.8769 0.30764 0.0
C1374 C 0.54594 0.93043 0.25475 0.0
C1375 C 0.57779 0.86955 0.16659 0.0
H1376 H 0.5366 0.90298 0.96154 0.0
H1377 H 0.5894 0.93037 0.00099 0.0
H1378 H 0.53413 0.87599 0.1185 0.0
H1379 H 0.5248 0.89665 0.16428 0.0
H1380 H 0.51829 0.89102 0.06549 0.0
H1381 H 0.60387 0.93145 0.12305 0.0
H1382 H 0.58827 0.93049 0.20551 0.0
H1383 H 0.60029 0.90963 0.1749 0.0
H1384 H 0.55288 0.91546 0.39494 0.0
H1385 H 0.57864 0.86353 0.32158 0.0
H1386 H 0.53472 0.92872 0.21054 0.0
H1387 H 0.55649 0.94028 0.2303 0.0
H1388 H 0.5398 0.937 0.30769 0.0
H1389 H 0.56672 0.86644 0.12311 0.0
H1390 H 0.58317 0.85599 0.19017 0.0
H1391 H 0.58938 0.87679 0.13549 0.0
C1392 C 0.40755 0.22098 0.24233 0.0
C1393 C 0.41488 0.23758 0.21029 0.0
C1394 C 0.40974 0.21697 0.32172 0.0
C1395 C 0.41988 0.2297 0.36926 0.0
C1396 C 0.42691 0.24671 0.33745 0.0
C1397 C 0.42418 0.25051 0.25835 0.0
C1398 C 0.40171 0.1989 0.35419 0.0
C1399 C 0.438 0.26051 0.38619 0.0
C1400 C 0.41706 0.22735 0.5892 0.0
C1401 C 0.43341 0.21728 0.60716 0.0
C1402 C 0.41225 0.2312 0.51176 0.0
C1403 C 0.42411 0.22484 0.45122 0.0
C1404 C 0.44052 0.21445 0.46904 0.0
C1405 C 0.44491 0.21071 0.54698 0.0
C1406 C 0.39448 0.24203 0.49476 0.0
C1407 C 0.45365 0.20766 0.40595 0.0
H1408 H 0.40031 0.21107 0.20485 0.0
H1409 H 0.43012 0.26319 0.23319 0.0
H1410 H 0.41326 0.1894 0.37239 0.0
H1411 H 0.39313 0.20193 0.40664 0.0
H1412 H 0.39286 0.19134 0.31106 0.0
H1413 H 0.44189 0.27341 0.35316 0.0
H1414 H 0.42979 0.26477 0.43814 0.0
H1415 H 0.45103 0.25365 0.40732 0.0
H1416 H 0.40792 0.23202 0.63575 0.0
H1417 H 0.45757 0.20299 0.56117 0.0
H1418 H 0.38452 0.2328 0.46295 0.0
H1419 H 0.3975 0.25432 0.45678 0.0
H1420 H 0.38758 0.2472 0.54867 0.0
H1421 H 0.44599 0.19855 0.36417 0.0
H1422 H 0.4657 0.19955 0.42968 0.0
H1423 H 0.45916 0.21991 0.3728 0.0
C1424 C 0.12019 0.93258 0.42891 0.0
C1425 C 0.11881 0.91884 0.48742 0.0
C1426 C 0.11857 0.92769 0.35013 0.0
C1427 C 0.11579 0.90855 0.32951 0.0
C1428 C 0.11572 0.89446 0.38769 0.0
C1429 C 0.11711 0.89977 0.46595 0.0
C1430 C 0.11874 0.94312 0.28942 0.0
C1431 C 0.113 0.87387 0.36774 0.0
C1432 C 0.0879 0.8992 0.14624 0.0
C1433 C 0.10213 0.89552 0.09227 0.0
C1434 C 0.09219 0.90331 0.22392 0.0
C1435 C 0.11117 0.90351 0.24809 0.0
C1436 C 0.12558 0.89923 0.19438 0.0
C1437 C 0.12087 0.89538 0.1168 0.0
C1438 C 0.07645 0.90795 0.27959 0.0
C1439 C 0.14593 0.89899 0.21855 0.0
H1440 H 0.12189 0.94727 0.44485 0.0
H1441 H 0.11583 0.88897 0.51009 0.0
H1442 H 0.12876 0.93964 0.24216 0.0
H1443 H 0.10464 0.94431 0.2626 0.0
H1444 H 0.1226 0.95706 0.31434 0.0
H1445 H 0.11581 0.8645 0.41828 0.0
H1446 H 0.09835 0.87153 0.34834 0.0
H1447 H 0.12235 0.86968 0.3191 0.0
H1448 H 0.07344 0.89959 0.12697 0.0
H1449 H 0.13184 0.89234 0.07499 0.0
H1450 H 0.07826 0.9225 0.30233 0.0
H1451 H 0.07681 0.89823 0.33018 0.0
H1452 H 0.06244 0.9069 0.25166 0.0
H1453 H 0.15023 0.91329 0.23796 0.0
H1454 H 0.15534 0.89449 0.17047 0.0
H1455 H 0.14793 0.88931 0.26861 0.0
C1456 C 0.42069 0.7836 0.74384 0.0
C1457 C 0.40427 0.77563 0.77406 0.0
C1458 C 0.42301 0.78595 0.66379 0.0
C1459 C 0.40838 0.78049 0.61293 0.0
C1460 C 0.39147 0.77304 0.64319 0.0
C1461 C 0.38971 0.77045 0.72383 0.0
C1462 C 0.44136 0.79377 0.63364 0.0
C1463 C 0.37543 0.7676 0.59041 0.0
C1464 C 0.41421 0.80144 0.41278 0.0
C1465 C 0.42327 0.78666 0.37378 0.0
C1466 C 0.40812 0.79924 0.48962 0.0
C1467 C 0.41139 0.78191 0.52806 0.0
C1468 C 0.41974 0.76665 0.48758 0.0
C1469 C 0.42544 0.76919 0.41034 0.0
C1470 C 0.39884 0.81563 0.53057 0.0
C1471 C 0.42369 0.74804 0.52721 0.0
H1472 H 0.43205 0.78729 0.78282 0.0
H1473 H 0.37703 0.76435 0.74784 0.0
H1474 H 0.44805 0.78341 0.59392 0.0
H1475 H 0.43879 0.80683 0.59969 0.0
H1476 H 0.45136 0.79709 0.68128 0.0
H1477 H 0.36297 0.76268 0.62349 0.0
H1478 H 0.37129 0.77984 0.55397 0.0
H1479 H 0.37991 0.7562 0.55024 0.0
H1480 H 0.41209 0.81478 0.38323 0.0
H1481 H 0.43236 0.75782 0.37941 0.0
H1482 H 0.40729 0.81995 0.58177 0.0
H1483 H 0.38484 0.8113 0.55237 0.0
H1484 H 0.39711 0.82806 0.49187 0.0
H1485 H 0.43446 0.75013 0.57303 0.0
H1486 H 0.42884 0.73717 0.48581 0.0
H1487 H 0.41086 0.74265 0.55617 0.0
C1488 C 0.54102 0.09336 0.57943 0.0
C1489 C 0.55588 0.10519 0.55697 0.0
C1490 C 0.53891 0.08753 0.65685 0.0
C1491 C 0.5517 0.09407 0.71355 0.0
C1492 C 0.56596 0.10699 0.69249 0.0
C1493 C 0.56796 0.11229 0.61436 0.0
C1494 C 0.52361 0.07363 0.67708 0.0
C1495 C 0.57963 0.11458 0.75194 0.0
C1496 C 0.54128 0.08961 0.92877 0.0
C1497 C 0.5533 0.07479 0.95042 0.0
C1498 C 0.54022 0.09578 0.85145 0.0
C1499 C 0.55101 0.08655 0.79397 0.0
C1500 C 0.56214 0.07075 0.8142 0.0
C1501 C 0.56327 0.06516 0.89228 0.0
C1502 C 0.52824 0.11272 0.83199 0.0
C1503 C 0.57352 0.06028 0.75388 0.0
H1504 H 0.53125 0.08821 0.53616 0.0
H1505 H 0.57951 0.12137 0.59809 0.0
H1506 H 0.52999 0.0599 0.69322 0.0
H1507 H 0.51548 0.07863 0.72811 0.0
H1508 H 0.51379 0.07126 0.62783 0.0
H1509 H 0.5888 0.12579 0.72753 0.0
H1510 H 0.57198 0.12041 0.80278 0.0
H1511 H 0.58864 0.10294 0.77351 0.0
H1512 H 0.53302 0.09679 0.97252 0.0
H1513 H 0.5726 0.05373 0.90783 0.0
H1514 H 0.51839 0.10928 0.78414 0.0
H1515 H 0.53731 0.12443 0.81132 0.0
H1516 H 0.52004 0.11779 0.88282 0.0
H1517 H 0.56456 0.05632 0.70368 0.0
H1518 H 0.58006 0.04728 0.77778 0.0
H1519 H 0.58481 0.06959 0.7315 0.0
C1520 C 0.23537 0.22904 0.88485 0.0
C1521 C 0.24514 0.21909 0.8275 0.0
C1522 C 0.24176 0.22935 0.96173 0.0
C1523 C 0.25805 0.219 0.98196 0.0
C1524 C 0.26768 0.20844 0.92458 0.0
C1525 C 0.26129 0.20892 0.84742 0.0
C1526 C 0.23127 0.24107 0.02098 0.0
C1527 C 0.28487 0.1969 0.94351 0.0
C1528 C 0.28003 0.23783 0.16556 0.0
C1529 C 0.27028 0.2275 0.22232 0.0
C1530 C 0.27733 0.23425 0.08616 0.0
C1531 C 0.26486 0.21978 0.06327 0.0
C1532 C 0.25671 0.20789 0.11993 0.0
C1533 C 0.25935 0.212 0.19887 0.0
C1534 C 0.28671 0.24683 0.0269 0.0
C1535 C 0.24411 0.19167 0.09721 0.0
H1536 H 0.22307 0.23712 0.86883 0.0
H1537 H 0.26878 0.20119 0.8027 0.0
H1538 H 0.22607 0.23192 0.06871 0.0
H1539 H 0.24085 0.25165 0.04724 0.0
H1540 H 0.21911 0.24861 0.99513 0.0
H1541 H 0.28583 0.18436 0.90489 0.0
H1542 H 0.29755 0.20564 0.93373 0.0
H1543 H 0.28497 0.19199 0.00482 0.0
H1544 H 0.28911 0.24932 0.18294 0.0
H1545 H 0.25187 0.20367 0.24146 0.0
H1546 H 0.27594 0.25542 -0.00347 0.0
H1547 H 0.29395 0.23817 0.98229 0.0
H1548 H 0.29708 0.25653 0.05389 0.0
H1549 H 0.23051 0.19725 0.0759 0.0
H1550 H 0.2413 0.18205 0.14695 0.0
H1551 H 0.25052 0.18342 0.04915 0.0
C1552 C 0.90919 0.25428 0.16406 0.0
C1553 C 0.90782 0.26846 0.22078 0.0
C1554 C 0.91162 0.25883 0.08546 0.0
C1555 C 0.91295 0.27801 0.06323 0.0
C1556 C 0.91049 0.29241 0.11918 0.0
C1557 C 0.90777 0.28745 0.19726 0.0
C1558 C 0.91378 0.2431 0.02678 0.0
C1559 C 0.91161 0.31301 0.09719 0.0
C1560 C 0.9431 0.28545 0.88524 0.0
C1561 C 0.92957 0.28667 0.82643 0.0
C1562 C 0.93781 0.28354 0.9633 0.0
C1563 C 0.91853 0.28279 0.98269 0.0
C1564 C 0.90479 0.28506 0.92415 0.0
C1565 C 0.9105 0.28697 0.84658 0.0
C1566 C 0.95286 0.28143 0.02456 0.0
C1567 C 0.88409 0.28448 0.94235 0.0
H1568 H 0.90927 0.23959 0.18113 0.0
H1569 H 0.90613 0.29853 0.24011 0.0
H1570 H 0.90417 0.24537 0.9769 0.0
H1571 H 0.9283 0.24307 0.00359 0.0
H1572 H 0.91084 0.22901 0.0524 0.0
H1573 H 0.9076 0.32244 0.14611 0.0
H1574 H 0.92616 0.31649 0.07935 0.0
H1575 H 0.90236 0.316 0.04678 0.0
H1576 H 0.95783 0.28515 0.87001 0.0
H1577 H 0.89997 0.28838 0.8015 0.0
H1578 H 0.95231 0.26699 0.04947 0.0
H1579 H 0.95042 0.29152 0.07293 0.0
H1580 H 0.96714 0.28386 0.00072 0.0
H1581 H 0.87951 0.26954 0.94667 0.0
H1582 H 0.87571 0.2914 0.89599 0.0
H1583 H 0.88091 0.29144 -0.00135 0.0
C1584 C 0.78016 0.72907 0.70632 0.0
C1585 C 0.76571 0.72316 0.75576 0.0
C1586 C 0.77892 0.72616 0.62572 0.0
C1587 C 0.7626 0.71765 0.59469 0.0
C1588 C 0.74815 0.71134 0.64479 0.0
C1589 C 0.74998 0.71404 0.72485 0.0
C1590 C 0.79477 0.73254 0.57376 0.0
C1591 C 0.73042 0.70237 0.61376 0.0
C1592 C 0.74513 0.72832 0.39246 0.0
C1593 C 0.74824 0.71105 0.35548 0.0
C1594 C 0.75068 0.73107 0.46972 0.0
C1595 C 0.75985 0.71623 0.50974 0.0
C1596 C 0.76411 0.69918 0.47079 0.0
C1597 C 0.75811 0.69674 0.39395 0.0
C1598 C 0.74566 0.74934 0.50989 0.0
C1599 C 0.77431 0.68329 0.51125 0.0
H1600 H 0.79233 0.73603 0.73088 0.0
H1601 H 0.73869 0.70975 0.76319 0.0
H1602 H 0.79925 0.72083 0.53507 0.0
H1603 H 0.78995 0.74423 0.53578 0.0
H1604 H 0.8071 0.73748 0.60761 0.0
H1605 H 0.72069 0.69804 0.66098 0.0
H1606 H 0.72301 0.71247 0.57516 0.0
H1607 H 0.7339 0.68975 0.57839 0.0
H1608 H 0.73758 0.73933 0.36189 0.0
H1609 H 0.76093 0.68358 0.36403 0.0
H1610 H 0.75813 0.75541 0.5392 0.0
H1611 H 0.73498 0.74657 0.55548 0.0
H1612 H 0.73994 0.75999 0.46877 0.0
H1613 H 0.788 0.68841 0.5335 0.0
H1614 H 0.77683 0.67107 0.47208 0.0
H1615 H 0.76608 0.67835 0.56212 0.0
C1616 C 0.72106 0.2883 0.5184 0.0
C1617 C 0.733 0.28261 0.57858 0.0
C1618 C 0.72566 0.28474 0.44049 0.0
C1619 C 0.74274 0.27549 0.42269 0.0
C1620 C 0.75511 0.27018 0.48326 0.0
C1621 C 0.75003 0.27374 0.56069 0.0
C1622 C 0.71201 0.29042 0.37745 0.0
C1623 C 0.77366 0.26076 0.46633 0.0
C1624 C 0.74371 0.24903 0.23155 0.0
C1625 C 0.75189 0.26236 0.18182 0.0
C1626 C 0.74112 0.25295 0.31068 0.0
C1627 C 0.74711 0.27054 0.34085 0.0
C1628 C 0.75616 0.28372 0.29168 0.0
C1629 C 0.75829 0.27952 0.21238 0.0
C1630 C 0.73123 0.23862 0.36121 0.0
C1631 C 0.76302 0.30247 0.32221 0.0
H1632 H 0.70791 0.29514 0.53263 0.0
H1633 H 0.75946 0.26978 0.60735 0.0
H1634 H 0.71901 0.29979 0.33466 0.0
H1635 H 0.7072 0.2777 0.34548 0.0
H1636 H 0.69954 0.29786 0.40108 0.0
H1637 H 0.78109 0.25646 0.5203 0.0
H1638 H 0.77155 0.24807 0.4295 0.0
H1639 H 0.78278 0.2706 0.43333 0.0
H1640 H 0.73847 0.23589 0.20779 0.0
H1641 H 0.76471 0.28976 0.17381 0.0
H1642 H 0.71783 0.24463 0.38278 0.0
H1643 H 0.73992 0.2352 0.41285 0.0
H1644 H 0.72814 0.22532 0.32942 0.0
H1645 H 0.75086 0.31136 0.3389 0.0
H1646 H 0.77147 0.31025 0.27837 0.0
H1647 H 0.77166 0.30037 0.37521 0.0
C1648 C 0.93044 0.71706 0.09445 0.0
C1649 C 0.91871 0.72332 0.15439 0.0
C1650 C 0.92612 0.72083 0.01655 0.0
C1651 C 0.90953 0.73089 -0.00143 0.0
C1652 C 0.89733 0.73678 0.05879 0.0
C1653 C 0.90211 0.73295 0.13626 0.0
C1654 C 0.93959 0.71455 0.95375 0.0
C1655 C 0.87942 0.74733 0.04137 0.0
C1656 C 0.91027 0.75729 0.80767 0.0
C1657 C 0.90174 0.74424 0.75783 0.0
C1658 C 0.91244 0.75333 0.8869 0.0
C1659 C 0.90554 0.73606 0.91685 0.0
C1660 C 0.89604 0.72326 0.86744 0.0
C1661 C 0.89448 0.72741 0.78797 0.0
C1662 C 0.92295 0.76717 0.93762 0.0
C1663 C 0.88812 0.70494 0.89796 0.0
H1664 H 0.9433 0.70971 0.10885 0.0
H1665 H 0.89284 0.73742 0.18272 0.0
H1666 H 0.93224 0.70554 0.91068 0.0
H1667 H 0.94503 0.72705 0.92205 0.0
H1668 H 0.95168 0.70652 0.97757 0.0
H1669 H 0.87129 0.75057 0.09489 0.0
H1670 H 0.88266 0.76078 0.01125 0.0
H1671 H 0.8705 0.73888 0.00154 0.0
H1672 H 0.91611 0.77016 0.78379 0.0
H1673 H 0.88781 0.71744 0.74897 0.0
H1674 H 0.93612 0.76058 0.95863 0.0
H1675 H 0.91449 0.77087 0.98962 0.0
H1676 H 0.92654 0.78037 0.90609 0.0
H1677 H 0.89974 0.69547 0.91582 0.0
H1678 H 0.87948 0.69751 0.85371 0.0
H1679 H 0.87937 0.70758 0.95026 0.0
C1680 C 0.59728 0.6217 0.30711 0.0
C1681 C 0.60361 0.60976 0.36663 0.0
C1682 C 0.59989 0.61694 0.22869 0.0
C1683 C 0.60932 0.59999 0.20954 0.0
C1684 C 0.61693 0.58857 0.26902 0.0
C1685 C 0.61383 0.59348 0.34684 0.0
C1686 C 0.59154 0.62945 0.16654 0.0
C1687 C 0.62735 0.57054 0.25064 0.0
C1688 C 0.59342 0.57595 0.02486 0.0
C1689 C 0.60708 0.58185 0.97169 0.0
C1690 C 0.59421 0.58154 0.10282 0.0
C1691 C 0.60919 0.5931 0.12825 0.0
C1692 C 0.62349 0.59845 0.07558 0.0
C1693 C 0.62214 0.5929 -0.00254 0.0
C1694 C 0.57861 0.57566 0.15725 0.0
C1695 C 0.63986 0.61045 0.10103 0.0
H1696 H 0.58975 0.63448 0.32176 0.0
H1697 H 0.61869 0.58398 0.39174 0.0
H1698 H 0.6022 0.63284 0.12166 0.0
H1699 H 0.57993 0.62188 0.137 0.0
H1700 H 0.58596 0.64287 0.19074 0.0
H1701 H 0.63466 0.56474 0.3025 0.0
H1702 H 0.61733 0.55976 0.22917 0.0
H1703 H 0.63782 0.57298 0.20393 0.0
H1704 H 0.58162 0.56766 0.00468 0.0
H1705 H 0.63275 0.59736 0.95616 0.0
H1706 H 0.57126 0.58836 0.17957 0.0
H1707 H 0.58447 0.56807 0.2082 0.0
H1708 H 0.56817 0.56637 0.12841 0.0
H1709 H 0.63505 0.62515 0.11078 0.0
H1710 H 0.65121 0.61069 0.05676 0.0
H1711 H 0.64573 0.60522 0.1568 0.0
C1712 C 0.04275 0.40103 0.90608 0.0
C1713 C 0.06161 0.39896 0.92765 0.0
C1714 C 0.0378 0.40522 0.82894 0.0
C1715 C 0.05209 0.40756 0.77267 0.0
C1716 C 0.07112 0.4051 0.79387 0.0
C1717 C 0.07562 0.40077 0.87103 0.0
C1718 C 0.01737 0.40745 0.80796 0.0
C1719 C 0.08679 0.40755 0.73549 0.0
C1720 C 0.04607 0.40435 0.55514 0.0
C1721 C 0.04761 0.42341 0.53336 0.0
C1722 C 0.04587 0.39903 0.63362 0.0
C1723 C 0.04751 0.41306 0.69168 0.0
C1724 C 0.04753 0.43236 0.67055 0.0
C1725 C 0.04743 0.4373 0.59157 0.0
C1726 C 0.04546 0.37829 0.65393 0.0
C1727 C 0.04917 0.44776 0.73099 0.0
H1728 H 0.0319 0.39945 0.94973 0.0
H1729 H 0.09021 0.3995 0.88764 0.0
H1730 H 0.01461 0.42222 0.78986 0.0
H1731 H 0.01381 0.39825 0.75784 0.0
H1732 H 0.00794 0.40393 0.85734 0.0
H1733 H 0.10082 0.40487 0.7613 0.0
H1734 H 0.08478 0.39777 0.68576 0.0
H1735 H 0.08657 0.42214 0.71198 0.0
H1736 H 0.04617 0.39338 0.51138 0.0
H1737 H 0.04805 0.45206 0.57547 0.0
H1738 H 0.03615 0.37565 0.70449 0.0
H1739 H 0.05978 0.37363 0.6703 0.0
H1740 H 0.04063 0.36951 0.60423 0.0
H1741 H 0.03914 0.44535 0.77929 0.0
H1742 H 0.04658 0.46199 0.70601 0.0
H1743 H 0.06349 0.44757 0.75626 0.0
C1744 C 0.61021 0.37698 0.67602 0.0
C1745 C 0.61385 0.38993 0.61621 0.0
C1746 C 0.61056 0.3826 0.75429 0.0
C1747 C 0.61488 0.40157 0.77302 0.0
C1748 C 0.61932 0.41452 0.71332 0.0
C1749 C 0.6186 0.40861 0.63572 0.0
C1750 C 0.60571 0.36842 0.81676 0.0
C1751 C 0.62435 0.43479 0.73128 0.0
C1752 C 0.59557 0.42116 0.96167 0.0
C1753 C 0.6109 0.41897 0.01165 0.0
C1754 C 0.59674 0.41563 0.88356 0.0
C1755 C 0.61379 0.40813 0.85475 0.0
C1756 C 0.62956 0.40661 0.90431 0.0
C1757 C 0.62782 0.4118 0.98267 0.0
C1758 C 0.57955 0.41722 0.83261 0.0
C1759 C 0.64809 0.399 0.87561 0.0
H1760 H 0.60675 0.36252 0.66151 0.0
H1761 H 0.62108 0.41892 0.59051 0.0
H1762 H 0.61737 0.36734 0.85921 0.0
H1763 H 0.59312 0.37322 0.84921 0.0
H1764 H 0.60288 0.35416 0.79254 0.0
H1765 H 0.62865 0.44274 0.67846 0.0
H1766 H 0.61214 0.44207 0.75774 0.0
H1767 H 0.63595 0.43528 0.77424 0.0
H1768 H 0.58242 0.42639 0.98464 0.0
H1769 H 0.63964 0.41013 0.0217 0.0
H1770 H 0.57542 0.40301 0.81151 0.0
H1771 H 0.58268 0.42596 0.78068 0.0
H1772 H 0.56746 0.42356 0.86387 0.0
H1773 H 0.64751 0.38335 0.87469 0.0
H1774 H 0.65984 0.40332 0.91409 0.0
H1775 H 0.65118 0.4039 0.81564 0.0
C1776 C 0.06638 0.57914 0.47687 0.0
C1777 C 0.05277 0.58609 0.52818 0.0
C1778 C 0.0665 0.58457 0.3986 0.0
C1779 C 0.05249 0.59704 0.37098 0.0
C1780 C 0.03825 0.6035 0.42178 0.0
C1781 C 0.03867 0.59807 0.50022 0.0
C1782 C 0.08204 0.57754 0.34625 0.0
C1783 C 0.02285 0.61644 0.39374 0.0
C1784 C 0.06633 0.62514 0.19278 0.0
C1785 C 0.05909 0.6139 0.13279 0.0
C1786 C 0.06368 0.6202 0.271 0.0
C1787 C 0.05331 0.60376 0.28948 0.0
C1788 C 0.04517 0.59286 0.22949 0.0
C1789 C 0.04827 0.59797 0.15191 0.0
C1790 C 0.07275 0.63205 0.33365 0.0
C1791 C 0.03395 0.57527 0.24694 0.0
H1792 H 0.07745 0.57013 0.49878 0.0
H1793 H 0.02811 0.60332 0.54008 0.0
H1794 H 0.07607 0.57029 0.2947 0.0
H1795 H 0.09038 0.58968 0.32462 0.0
H1796 H 0.09162 0.56761 0.37659 0.0
H1797 H 0.01205 0.61898 0.43918 0.0
H1798 H 0.02891 0.63022 0.37626 0.0
H1799 H 0.01595 0.61034 0.34162 0.0
H1800 H 0.07446 0.63758 0.17853 0.0
H1801 H 0.04284 0.58893 0.10648 0.0
H1802 H 0.08364 0.62361 0.36394 0.0
H1803 H 0.06222 0.63626 0.37787 0.0
H1804 H 0.07942 0.64499 0.30984 0.0
H1805 H 0.04345 0.56403 0.26853 0.0
H1806 H 0.02654 0.56984 0.19465 0.0
H1807 H 0.02348 0.57809 0.29328 0.0
loop_
_geom_bond_atom_site_label_1
_geom_bond_atom_site_label_2
_geom_bond_distance
_geom_bond_site_symmetry_2
_ccdc_geom_bond_type
C0 C1 1.351 . S
C0 N3 1.368 . S
C0 H5 0.931 . S
C1 C0 1.351 . S
C1 N2 1.373 . S
C1 H29 0.930 . S
N2 C1 1.373 . S
N2 C4 1.340 . S
N3 C0 1.368 . S
N3 C4 1.321 . S
N3 Co6 2.135 . S
C4 N2 1.340 . S
C4 N3 1.321 . S
C4 H28 0.930 . S
H5 C0 0.931 . S
Co6 N3 2.135 . S
Co6 N9 2.121 . S
Co6 O14 2.055 . S
Co6 O17 2.039 . S
Co6 N20 2.140 . S
C7 O8 1.227 . S
C7 O17 1.265 . S
O8 C7 1.227 . S
N9 Co6 2.121 . S
N9 C11 1.375 . S
N9 C12 1.313 . S
C10 C11 1.338 . S
C10 N13 1.377 . S
C10 H30 0.930 . S
C11 N9 1.375 . S
C11 C10 1.338 . S
C11 H15 0.931 . S
C12 N9 1.313 . S
C12 N13 1.344 . S
C12 H16 0.930 . S
N13 C10 1.377 . S
N13 C12 1.344 . S
O14 Co6 2.055 . S
O14 C18 1.253 . S
H15 C11 0.931 . S
H16 C12 0.930 . S
O17 Co6 2.039 . S
O17 C7 1.265 . S
C18 O14 1.253 . S
C18 O19 1.227 . S
O19 C18 1.227 . S
N20 Co6 2.140 . S
N20 C23 1.346 . S
N20 C24 1.345 . S
C21 C22 1.387 . S
C21 C25 1.391 . S
C22 C21 1.387 . S
C22 C23 1.369 . S
C22 H31 0.929 . S
C23 N20 1.346 . S
C23 C22 1.369 . S
C23 H26 0.928 . S
C24 N20 1.345 . S
C24 C25 1.371 . S
C24 H27 0.931 . S
C25 C21 1.391 . S
C25 C24 1.371 . S
C25 H32 0.930 . S
H26 C23 0.928 . S
H27 C24 0.931 . S
H28 C4 0.930 . S
H29 C1 0.930 . S
H30 C10 0.930 . S
H31 C22 0.929 . S
H32 C25 0.930 . S
C33 C34 1.351 . S
C33 N36 1.368 . S
C33 H38 0.931 . S
C34 C33 1.351 . S
C34 N35 1.373 . S
C34 H62 0.930 . S
N35 C34 1.373 . S
N35 C37 1.340 . S
N36 C33 1.368 . S
N36 C37 1.321 . S
N36 Co39 2.135 . S
C37 N35 1.340 . S
C37 N36 1.321 . S
C37 H61 0.930 . S
H38 C33 0.931 . S
Co39 N36 2.135 . S
Co39 N42 2.121 . S
Co39 O47 2.055 . S
Co39 O50 2.039 . S
Co39 N53 2.140 . S
C40 O41 1.227 . S
C40 O50 1.265 . S
O41 C40 1.227 . S
N42 Co39 2.121 . S
N42 C44 1.375 . S
N42 C45 1.313 . S
C43 C44 1.338 . S
C43 N46 1.377 . S
C43 H63 0.930 . S
C44 N42 1.375 . S
C44 C43 1.338 . S
C44 H48 0.931 . S
C45 N42 1.313 . S
C45 N46 1.344 . S
C45 H49 0.930 . S
N46 C43 1.377 . S
N46 C45 1.344 . S
O47 Co39 2.055 . S
O47 C51 1.253 . S
H48 C44 0.931 . S
H49 C45 0.930 . S
O50 Co39 2.039 . S
O50 C40 1.265 . S
C51 O47 1.253 . S
C51 O52 1.227 . S
O52 C51 1.227 . S
N53 Co39 2.140 . S
N53 C56 1.346 . S
N53 C57 1.345 . S
C54 C55 1.387 . S
C54 C58 1.391 . S
C55 C54 1.387 . S
C55 C56 1.369 . S
C55 H64 0.929 . S
C56 N53 1.346 . S
C56 C55 1.369 . S
C56 H59 0.928 . S
C57 N53 1.345 . S
C57 C58 1.371 . S
C57 H60 0.931 . S
C58 C54 1.391 . S
C58 C57 1.371 . S
C58 H65 0.930 . S
H59 C56 0.928 . S
H60 C57 0.931 . S
H61 C37 0.930 . S
H62 C34 0.930 . S
H63 C43 0.930 . S
H64 C55 0.929 . S
H65 C58 0.930 . S
C66 C67 1.351 1_556 S
C66 N69 1.368 . S
C66 H71 0.931 . S
C67 C66 1.351 1_554 S
C67 N68 1.373 . S
C67 H95 0.930 . S
N68 C67 1.373 . S
N68 C70 1.340 1_554 S
N69 C66 1.368 . S
N69 C70 1.321 . S
N69 Co72 2.135 . S
C70 N68 1.340 1_556 S
C70 N69 1.321 . S
C70 H94 0.930 . S
H71 C66 0.931 . S
Co72 N69 2.135 . S
Co72 N75 2.121 . S
Co72 O80 2.055 . S
Co72 O83 2.039 . S
Co72 N86 2.140 . S
C73 O74 1.227 . S
C73 O83 1.265 . S
O74 C73 1.227 . S
N75 Co72 2.121 . S
N75 C77 1.375 . S
N75 C78 1.313 . S
C76 C77 1.338 . S
C76 N79 1.377 . S
C76 H96 0.930 . S
C77 N75 1.375 . S
C77 C76 1.338 . S
C77 H81 0.931 . S
C78 N75 1.313 . S
C78 N79 1.344 . S
C78 H82 0.930 . S
N79 C76 1.377 . S
N79 C78 1.344 . S
O80 Co72 2.055 . S
O80 C84 1.253 . S
H81 C77 0.931 . S
H82 C78 0.930 . S
O83 Co72 2.039 . S
O83 C73 1.265 . S
C84 O80 1.253 . S
C84 O85 1.227 . S
O85 C84 1.227 . S
N86 Co72 2.140 . S
N86 C89 1.346 . S
N86 C90 1.345 . S
C87 C88 1.387 . S
C87 C91 1.391 . S
C88 C87 1.387 . S
C88 C89 1.369 . S
C88 H97 0.929 . S
C89 N86 1.346 . S
C89 C88 1.369 . S
C89 H92 0.928 . S
C90 N86 1.345 . S
C90 C91 1.371 . S
C90 H93 0.931 . S
C91 C87 1.391 . S
C91 C90 1.371 . S
C91 H98 0.930 . S
H92 C89 0.928 . S
H93 C90 0.931 . S
H94 C70 0.930 . S
H95 C67 0.930 . S
H96 C76 0.930 . S
H97 C88 0.929 . S
H98 C91 0.930 . S
C99 C100 1.351 . S
C99 N102 1.368 . S
C99 H104 0.931 . S
C100 C99 1.351 . S
C100 N101 1.373 . S
C100 H128 0.930 . S
N101 C100 1.373 . S
N101 C103 1.340 . S
N102 C99 1.368 . S
N102 C103 1.321 . S
N102 Co105 2.135 1_554 S
C103 N101 1.340 . S
C103 N102 1.321 . S
C103 H127 0.930 . S
H104 C99 0.931 . S
Co105 N102 2.135 1_556 S
Co105 N108 2.121 . S
Co105 O113 2.055 . S
Co105 O116 2.039 1_556 S
Co105 N119 2.140 1_556 S
C106 O107 1.227 . S
C106 O116 1.265 . S
O107 C106 1.227 . S
N108 Co105 2.121 . S
N108 C110 1.375 . S
N108 C111 1.313 . S
C109 C110 1.338 . S
C109 N112 1.377 . S
C109 H129 0.930 . S
C110 N108 1.375 . S
C110 C109 1.338 . S
C110 H114 0.931 . S
C111 N108 1.313 . S
C111 N112 1.344 . S
C111 H115 0.930 . S
N112 C109 1.377 . S
N112 C111 1.344 . S
O113 Co105 2.055 . S
O113 C117 1.253 . S
H114 C110 0.931 . S
H115 C111 0.930 . S
O116 Co105 2.039 1_554 S
O116 C106 1.265 . S
C117 O113 1.253 . S
C117 O118 1.227 . S
O118 C117 1.227 . S
N119 Co105 2.140 1_554 S
N119 C122 1.346 . S
N119 C123 1.345 1_554 S
C120 C121 1.387 . S
C120 C124 1.391 1_554 S
C121 C120 1.387 . S
C121 C122 1.369 . S
C121 H130 0.929 . S
C122 N119 1.346 . S
C122 C121 1.369 . S
C122 H125 0.928 . S
C123 N119 1.345 1_556 S
C123 C124 1.371 . S
C123 H126 0.931 . S
C124 C120 1.391 1_556 S
C124 C123 1.371 . S
C124 H131 0.930 . S
H125 C122 0.928 . S
H126 C123 0.931 . S
H127 C103 0.930 . S
H128 C100 0.930 . S
H129 C109 0.930 . S
H130 C121 0.929 . S
H131 C124 0.930 . S
C132 C133 1.351 . S
C132 N135 1.368 . S
C132 H137 0.931 . S
C133 C132 1.351 . S
C133 N134 1.373 . S
C133 H161 0.930 . S
N134 C133 1.373 . S
N134 C136 1.340 . S
N135 C132 1.368 . S
N135 C136 1.321 . S
N135 Co138 2.135 . S
C136 N134 1.340 . S
C136 N135 1.321 . S
C136 H160 0.930 . S
H137 C132 0.931 . S
Co138 N135 2.135 . S
Co138 N141 2.121 . S
Co138 O146 2.055 . S
Co138 O149 2.039 . S
Co138 N152 2.140 . S
C139 O140 1.227 . S
C139 O149 1.265 . S
O140 C139 1.227 . S
N141 Co138 2.121 . S
N141 C143 1.375 . S
N141 C144 1.313 . S
C142 C143 1.338 . S
C142 N145 1.377 . S
C142 H162 0.930 . S
C143 N141 1.375 . S
C143 C142 1.338 . S
C143 H147 0.931 . S
C144 N141 1.313 . S
C144 N145 1.344 . S
C144 H148 0.930 . S
N145 C142 1.377 . S
N145 C144 1.344 . S
O146 Co138 2.055 . S
O146 C150 1.253 . S
H147 C143 0.931 . S
H148 C144 0.930 . S
O149 Co138 2.039 . S
O149 C139 1.265 . S
C150 O146 1.253 . S
C150 O151 1.227 . S
O151 C150 1.227 . S
N152 Co138 2.140 . S
N152 C155 1.346 . S
N152 C156 1.345 . S
C153 C154 1.387 . S
C153 C157 1.391 . S
C154 C153 1.387 . S
C154 C155 1.369 . S
C154 H163 0.929 . S
C155 N152 1.346 . S
C155 C154 1.369 . S
C155 H158 0.928 . S
C156 N152 1.345 . S
C156 C157 1.371 . S
C156 H159 0.931 . S
C157 C153 1.391 . S
C157 C156 1.371 . S
C157 H164 0.930 . S
H158 C155 0.928 . S
H159 C156 0.931 . S
H160 C136 0.930 . S
H161 C133 0.930 . S
H162 C142 0.930 . S
H163 C154 0.929 . S
H164 C157 0.930 . S
C165 C166 1.351 . S
C165 N168 1.368 . S
C165 H170 0.931 . S
C166 C165 1.351 . S
C166 N167 1.373 . S
C166 H194 0.930 . S
N167 C166 1.373 . S
N167 C169 1.340 . S
N168 C165 1.368 . S
N168 C169 1.321 . S
N168 Co171 2.135 1_556 S
C169 N167 1.340 . S
C169 N168 1.321 . S
C169 H193 0.930 . S
H170 C165 0.931 . S
Co171 N168 2.135 1_554 S
Co171 N174 2.121 . S
Co171 O179 2.055 . S
Co171 O182 2.039 1_554 S
Co171 N185 2.140 1_554 S
C172 O173 1.227 . S
C172 O182 1.265 . S
O173 C172 1.227 . S
N174 Co171 2.121 . S
N174 C176 1.375 . S
N174 C177 1.313 . S
C175 C176 1.338 . S
C175 N178 1.377 . S
C175 H195 0.930 . S
C176 N174 1.375 . S
C176 C175 1.338 . S
C176 H180 0.931 . S
C177 N174 1.313 . S
C177 N178 1.344 . S
C177 H181 0.930 . S
N178 C175 1.377 . S
N178 C177 1.344 . S
O179 Co171 2.055 . S
O179 C183 1.253 . S
H180 C176 0.931 . S
H181 C177 0.930 . S
O182 Co171 2.039 1_556 S
O182 C172 1.265 . S
C183 O179 1.253 . S
C183 O184 1.227 . S
O184 C183 1.227 . S
N185 Co171 2.140 1_556 S
N185 C188 1.346 . S
N185 C189 1.345 1_556 S
C186 C187 1.387 . S
C186 C190 1.391 1_556 S
C187 C186 1.387 . S
C187 C188 1.369 . S
C187 H196 0.929 . S
C188 N185 1.346 . S
C188 C187 1.369 . S
C188 H191 0.928 . S
C189 N185 1.345 1_554 S
C189 C190 1.371 . S
C189 H192 0.931 . S
C190 C186 1.391 1_554 S
C190 C189 1.371 . S
C190 H197 0.930 . S
H191 C188 0.928 . S
H192 C189 0.931 . S
H193 C169 0.930 . S
H194 C166 0.930 . S
H195 C175 0.930 . S
H196 C187 0.929 . S
H197 C190 0.930 . S
C198 C199 1.351 1_554 S
C198 N201 1.368 . S
C198 H203 0.931 . S
C199 C198 1.351 1_556 S
C199 N200 1.373 . S
C199 H227 0.930 . S
N200 C199 1.373 . S
N200 C202 1.340 1_556 S
N201 C198 1.368 . S
N201 C202 1.321 . S
N201 Co204 2.135 . S
C202 N200 1.340 1_554 S
C202 N201 1.321 . S
C202 H226 0.930 . S
H203 C198 0.931 . S
Co204 N201 2.135 . S
Co204 N207 2.121 . S
Co204 O212 2.055 . S
Co204 O215 2.039 . S
Co204 N218 2.140 . S
C205 O206 1.227 . S
C205 O215 1.265 . S
O206 C205 1.227 . S
N207 Co204 2.121 . S
N207 C209 1.375 . S
N207 C210 1.313 . S
C208 C209 1.338 . S
C208 N211 1.377 . S
C208 H228 0.930 . S
C209 N207 1.375 . S
C209 C208 1.338 . S
C209 H213 0.931 . S
C210 N207 1.313 . S
C210 N211 1.344 . S
C210 H214 0.930 . S
N211 C208 1.377 . S
N211 C210 1.344 . S
O212 Co204 2.055 . S
O212 C216 1.253 . S
H213 C209 0.931 . S
H214 C210 0.930 . S
O215 Co204 2.039 . S
O215 C205 1.265 . S
C216 O212 1.253 . S
C216 O217 1.227 . S
O217 C216 1.227 . S
N218 Co204 2.140 . S
N218 C221 1.346 . S
N218 C222 1.345 . S
C219 C220 1.387 . S
C219 C223 1.391 . S
C220 C219 1.387 . S
C220 C221 1.369 . S
C220 H229 0.929 . S
C221 N218 1.346 . S
C221 C220 1.369 . S
C221 H224 0.928 . S
C222 N218 1.345 . S
C222 C223 1.371 . S
C222 H225 0.931 . S
C223 C219 1.391 . S
C223 C222 1.371 . S
C223 H230 0.930 . S
H224 C221 0.928 . S
H225 C222 0.931 . S
H226 C202 0.930 . S
H227 C199 0.930 . S
H228 C208 0.930 . S
H229 C220 0.929 . S
H230 C223 0.930 . S
C231 C232 1.351 . S
C231 N234 1.368 . S
C231 H236 0.931 . S
C232 C231 1.351 . S
C232 N233 1.373 . S
C232 H260 0.930 . S
N233 C232 1.373 . S
N233 C235 1.340 . S
N234 C231 1.368 . S
N234 C235 1.321 . S
N234 Co237 2.135 . S
C235 N233 1.340 . S
C235 N234 1.321 . S
C235 H259 0.930 . S
H236 C231 0.931 . S
Co237 N234 2.135 . S
Co237 N240 2.121 . S
Co237 O245 2.055 . S
Co237 O248 2.039 . S
Co237 N251 2.140 . S
C238 O239 1.227 . S
C238 O248 1.265 . S
O239 C238 1.227 . S
N240 Co237 2.121 . S
N240 C242 1.375 . S
N240 C243 1.313 . S
C241 C242 1.338 . S
C241 N244 1.377 . S
C241 H261 0.930 . S
C242 N240 1.375 . S
C242 C241 1.338 . S
C242 H246 0.931 . S
C243 N240 1.313 . S
C243 N244 1.344 . S
C243 H247 0.930 . S
N244 C241 1.377 . S
N244 C243 1.344 . S
O245 Co237 2.055 . S
O245 C249 1.253 . S
H246 C242 0.931 . S
H247 C243 0.930 . S
O248 Co237 2.039 . S
O248 C238 1.265 . S
C249 O245 1.253 . S
C249 O250 1.227 . S
O250 C249 1.227 . S
N251 Co237 2.140 . S
N251 C254 1.346 . S
N251 C255 1.345 . S
C252 C253 1.387 . S
C252 C256 1.391 . S
C253 C252 1.387 . S
C253 C254 1.369 . S
C253 H262 0.929 . S
C254 N251 1.346 . S
C254 C253 1.369 . S
C254 H257 0.928 . S
C255 N251 1.345 . S
C255 C256 1.371 . S
C255 H258 0.931 . S
C256 C252 1.391 . S
C256 C255 1.371 . S
C256 H263 0.930 . S
H257 C254 0.928 . S
H258 C255 0.931 . S
H259 C235 0.930 . S
H260 C232 0.930 . S
H261 C241 0.930 . S
H262 C253 0.929 . S
H263 C256 0.930 . S
C264 C265 1.351 . S
C264 N267 1.368 . S
C264 H269 0.931 . S
C265 C264 1.351 . S
C265 N266 1.373 . S
C265 H293 0.930 . S
N266 C265 1.373 . S
N266 C268 1.340 . S
N267 C264 1.368 . S
N267 C268 1.321 . S
N267 Co270 2.135 . S
C268 N266 1.340 . S
C268 N267 1.321 . S
C268 H292 0.930 . S
H269 C264 0.931 . S
Co270 N267 2.135 . S
Co270 N273 2.121 . S
Co270 O278 2.055 . S
Co270 O281 2.039 . S
Co270 N284 2.140 . S
C271 O272 1.227 . S
C271 O281 1.265 . S
O272 C271 1.227 . S
N273 Co270 2.121 . S
N273 C275 1.375 . S
N273 C276 1.313 . S
C274 C275 1.338 . S
C274 N277 1.377 . S
C274 H294 0.930 . S
C275 N273 1.375 . S
C275 C274 1.338 . S
C275 H279 0.931 . S
C276 N273 1.313 . S
C276 N277 1.344 . S
C276 H280 0.930 . S
N277 C274 1.377 . S
N277 C276 1.344 . S
O278 Co270 2.055 . S
O278 C282 1.253 . S
H279 C275 0.931 . S
H280 C276 0.930 . S
O281 Co270 2.039 . S
O281 C271 1.265 . S
C282 O278 1.253 . S
C282 O283 1.227 . S
O283 C282 1.227 . S
N284 Co270 2.140 . S
N284 C287 1.346 . S
N284 C288 1.345 . S
C285 C286 1.387 . S
C285 C289 1.391 . S
C286 C285 1.387 . S
C286 C287 1.369 . S
C286 H295 0.929 . S
C287 N284 1.346 . S
C287 C286 1.369 . S
C287 H290 0.928 . S
C288 N284 1.345 . S
C288 C289 1.371 . S
C288 H291 0.931 . S
C289 C285 1.391 . S
C289 C288 1.371 . S
C289 H296 0.930 . S
H290 C287 0.928 . S
H291 C288 0.931 . S
H292 C268 0.930 . S
H293 C265 0.930 . S
H294 C274 0.930 . S
H295 C286 0.929 . S
H296 C289 0.930 . S
C297 C298 1.351 . S
C297 N300 1.368 . S
C297 H302 0.931 . S
C298 C297 1.351 . S
C298 N299 1.373 . S
C298 H326 0.930 . S
N299 C298 1.373 . S
N299 C301 1.340 . S
N300 C297 1.368 . S
N300 C301 1.321 . S
N300 Co303 2.135 1_556 S
C301 N299 1.340 . S
C301 N300 1.321 . S
C301 H325 0.930 . S
H302 C297 0.931 . S
Co303 N300 2.135 1_554 S
Co303 N306 2.121 . S
Co303 O311 2.055 . S
Co303 O314 2.039 1_554 S
Co303 N317 2.140 1_554 S
C304 O305 1.227 . S
C304 O314 1.265 . S
O305 C304 1.227 . S
N306 Co303 2.121 . S
N306 C308 1.375 . S
N306 C309 1.313 . S
C307 C308 1.338 . S
C307 N310 1.377 . S
C307 H327 0.930 . S
C308 N306 1.375 . S
C308 C307 1.338 . S
C308 H312 0.931 . S
C309 N306 1.313 . S
C309 N310 1.344 . S
C309 H313 0.930 . S
N310 C307 1.377 . S
N310 C309 1.344 . S
O311 Co303 2.055 . S
O311 C315 1.253 . S
H312 C308 0.931 . S
H313 C309 0.930 . S
O314 Co303 2.039 1_556 S
O314 C304 1.265 . S
C315 O311 1.253 . S
C315 O316 1.227 . S
O316 C315 1.227 . S
N317 Co303 2.140 1_556 S
N317 C320 1.346 . S
N317 C321 1.345 1_556 S
C318 C319 1.387 . S
C318 C322 1.391 1_556 S
C319 C318 1.387 . S
C319 C320 1.369 . S
C319 H328 0.929 . S
C320 N317 1.346 . S
C320 C319 1.369 . S
C320 H323 0.928 . S
C321 N317 1.345 1_554 S
C321 C322 1.371 . S
C321 H324 0.931 . S
C322 C318 1.391 1_554 S
C322 C321 1.371 . S
C322 H329 0.930 . S
H323 C320 0.928 . S
H324 C321 0.931 . S
H325 C301 0.930 . S
H326 C298 0.930 . S
H327 C307 0.930 . S
H328 C319 0.929 . S
H329 C322 0.930 . S
C330 C331 1.351 . S
C330 N333 1.368 . S
C330 H335 0.931 . S
C331 C330 1.351 . S
C331 N332 1.373 . S
C331 H359 0.930 . S
N332 C331 1.373 . S
N332 C334 1.340 . S
N333 C330 1.368 . S
N333 C334 1.321 . S
N333 Co336 2.135 1_554 S
C334 N332 1.340 . S
C334 N333 1.321 . S
C334 H358 0.930 . S
H335 C330 0.931 . S
Co336 N333 2.135 1_556 S
Co336 N339 2.121 . S
Co336 O344 2.055 . S
Co336 O347 2.039 1_556 S
Co336 N350 2.140 1_556 S
C337 O338 1.227 . S
C337 O347 1.265 . S
O338 C337 1.227 . S
N339 Co336 2.121 . S
N339 C341 1.375 . S
N339 C342 1.313 . S
C340 C341 1.338 . S
C340 N343 1.377 . S
C340 H360 0.930 . S
C341 N339 1.375 . S
C341 C340 1.338 . S
C341 H345 0.931 . S
C342 N339 1.313 . S
C342 N343 1.344 . S
C342 H346 0.930 . S
N343 C340 1.377 . S
N343 C342 1.344 . S
O344 Co336 2.055 . S
O344 C348 1.253 . S
H345 C341 0.931 . S
H346 C342 0.930 . S
O347 Co336 2.039 1_554 S
O347 C337 1.265 . S
C348 O344 1.253 . S
C348 O349 1.227 . S
O349 C348 1.227 . S
N350 Co336 2.140 1_554 S
N350 C353 1.346 . S
N350 C354 1.345 1_554 S
C351 C352 1.387 . S
C351 C355 1.391 1_554 S
C352 C351 1.387 . S
C352 C353 1.369 . S
C352 H361 0.929 . S
C353 N350 1.346 . S
C353 C352 1.369 . S
C353 H356 0.928 . S
C354 N350 1.345 1_556 S
C354 C355 1.371 . S
C354 H357 0.931 . S
C355 C351 1.391 1_556 S
C355 C354 1.371 . S
C355 H362 0.930 . S
H356 C353 0.928 . S
H357 C354 0.931 . S
H358 C334 0.930 . S
H359 C331 0.930 . S
H360 C340 0.930 . S
H361 C352 0.929 . S
H362 C355 0.930 . S
C363 C364 1.351 . S
C363 N366 1.368 . S
C363 H368 0.931 . S
C364 C363 1.351 . S
C364 N365 1.373 . S
C364 H392 0.930 . S
N365 C364 1.373 . S
N365 C367 1.340 . S
N366 C363 1.368 . S
N366 C367 1.321 . S
N366 Co369 2.135 . S
C367 N365 1.340 . S
C367 N366 1.321 . S
C367 H391 0.930 . S
H368 C363 0.931 . S
Co369 N366 2.135 . S
Co369 N372 2.121 . S
Co369 O377 2.055 . S
Co369 O380 2.039 . S
Co369 N383 2.140 . S
C370 O371 1.227 . S
C370 O380 1.265 . S
O371 C370 1.227 . S
N372 Co369 2.121 . S
N372 C374 1.375 . S
N372 C375 1.313 . S
C373 C374 1.338 . S
C373 N376 1.377 . S
C373 H393 0.930 . S
C374 N372 1.375 . S
C374 C373 1.338 . S
C374 H378 0.931 . S
C375 N372 1.313 . S
C375 N376 1.344 . S
C375 H379 0.930 . S
N376 C373 1.377 . S
N376 C375 1.344 . S
O377 Co369 2.055 . S
O377 C381 1.253 . S
H378 C374 0.931 . S
H379 C375 0.930 . S
O380 Co369 2.039 . S
O380 C370 1.265 . S
C381 O377 1.253 . S
C381 O382 1.227 . S
O382 C381 1.227 . S
N383 Co369 2.140 . S
N383 C386 1.346 . S
N383 C387 1.345 . S
C384 C385 1.387 . S
C384 C388 1.391 . S
C385 C384 1.387 . S
C385 C386 1.369 . S
C385 H394 0.929 . S
C386 N383 1.346 . S
C386 C385 1.369 . S
C386 H389 0.928 . S
C387 N383 1.345 . S
C387 C388 1.371 . S
C387 H390 0.931 . S
C388 C384 1.391 . S
C388 C387 1.371 . S
C388 H395 0.930 . S
H389 C386 0.928 . S
H390 C387 0.931 . S
H391 C367 0.930 . S
H392 C364 0.930 . S
H393 C373 0.930 . S
H394 C385 0.929 . S
H395 C388 0.930 . S
C396 C397 1.351 1_556 S
C396 N399 1.368 . S
C396 H401 0.931 . S
C397 C396 1.351 1_554 S
C397 N398 1.373 . S
C397 H425 0.930 . S
N398 C397 1.373 . S
N398 C400 1.340 1_554 S
N399 C396 1.368 . S
N399 C400 1.321 . S
N399 Co402 2.135 . S
C400 N398 1.340 1_556 S
C400 N399 1.321 . S
C400 H424 0.930 . S
H401 C396 0.931 . S
Co402 N399 2.135 . S
Co402 N405 2.121 . S
Co402 O410 2.055 . S
Co402 O413 2.039 . S
Co402 N416 2.140 . S
C403 O404 1.227 . S
C403 O413 1.265 . S
O404 C403 1.227 . S
N405 Co402 2.121 . S
N405 C407 1.375 . S
N405 C408 1.313 . S
C406 C407 1.338 . S
C406 N409 1.377 . S
C406 H426 0.930 . S
C407 N405 1.375 . S
C407 C406 1.338 . S
C407 H411 0.931 . S
C408 N405 1.313 . S
C408 N409 1.344 . S
C408 H412 0.930 . S
N409 C406 1.377 . S
N409 C408 1.344 . S
O410 Co402 2.055 . S
O410 C414 1.253 . S
H411 C407 0.931 . S
H412 C408 0.930 . S
O413 Co402 2.039 . S
O413 C403 1.265 . S
C414 O410 1.253 . S
C414 O415 1.227 . S
O415 C414 1.227 . S
N416 Co402 2.140 . S
N416 C419 1.346 . S
N416 C420 1.345 . S
C417 C418 1.387 . S
C417 C421 1.391 . S
C418 C417 1.387 . S
C418 C419 1.369 . S
C418 H427 0.929 . S
C419 N416 1.346 . S
C419 C418 1.369 . S
C419 H422 0.928 . S
C420 N416 1.345 . S
C420 C421 1.371 . S
C420 H423 0.931 . S
C421 C417 1.391 . S
C421 C420 1.371 . S
C421 H428 0.930 . S
H422 C419 0.928 . S
H423 C420 0.931 . S
H424 C400 0.930 . S
H425 C397 0.930 . S
H426 C406 0.930 . S
H427 C418 0.929 . S
H428 C421 0.930 . S
C429 C430 1.351 . S
C429 N432 1.368 . S
C429 H434 0.931 . S
C430 C429 1.351 . S
C430 N431 1.373 . S
C430 H458 0.930 . S
N431 C430 1.373 . S
N431 C433 1.340 . S
N432 C429 1.368 . S
N432 C433 1.321 . S
N432 Co435 2.135 . S
C433 N431 1.340 . S
C433 N432 1.321 . S
C433 H457 0.930 . S
H434 C429 0.931 . S
Co435 N432 2.135 . S
Co435 N438 2.121 . S
Co435 O443 2.055 . S
Co435 O446 2.039 . S
Co435 N449 2.140 . S
C436 O437 1.227 . S
C436 O446 1.265 . S
O437 C436 1.227 . S
N438 Co435 2.121 . S
N438 C440 1.375 . S
N438 C441 1.313 . S
C439 C440 1.338 . S
C439 N442 1.377 . S
C439 H459 0.930 . S
C440 N438 1.375 . S
C440 C439 1.338 . S
C440 H444 0.931 . S
C441 N438 1.313 . S
C441 N442 1.344 . S
C441 H445 0.930 . S
N442 C439 1.377 . S
N442 C441 1.344 . S
O443 Co435 2.055 . S
O443 C447 1.253 . S
H444 C440 0.931 . S
H445 C441 0.930 . S
O446 Co435 2.039 . S
O446 C436 1.265 . S
C447 O443 1.253 . S
C447 O448 1.227 . S
O448 C447 1.227 . S
N449 Co435 2.140 . S
N449 C452 1.346 . S
N449 C453 1.345 . S
C450 C451 1.387 . S
C450 C454 1.391 . S
C451 C450 1.387 . S
C451 C452 1.369 . S
C451 H460 0.929 . S
C452 N449 1.346 . S
C452 C451 1.369 . S
C452 H455 0.928 . S
C453 N449 1.345 . S
C453 C454 1.371 . S
C453 H456 0.931 . S
C454 C450 1.391 . S
C454 C453 1.371 . S
C454 H461 0.930 . S
H455 C452 0.928 . S
H456 C453 0.931 . S
H457 C433 0.930 . S
H458 C430 0.930 . S
H459 C439 0.930 . S
H460 C451 0.929 . S
H461 C454 0.930 . S
C462 C463 1.351 1_554 S
C462 N465 1.368 . S
C462 H467 0.931 . S
C463 C462 1.351 1_556 S
C463 N464 1.373 . S
C463 H491 0.930 . S
N464 C463 1.373 . S
N464 C466 1.340 1_556 S
N465 C462 1.368 . S
N465 C466 1.321 . S
N465 Co468 2.135 . S
C466 N464 1.340 1_554 S
C466 N465 1.321 . S
C466 H490 0.930 . S
H467 C462 0.931 . S
Co468 N465 2.135 . S
Co468 N471 2.121 . S
Co468 O476 2.055 . S
Co468 O479 2.039 . S
Co468 N482 2.140 . S
C469 O470 1.227 . S
C469 O479 1.265 . S
O470 C469 1.227 . S
N471 Co468 2.121 . S
N471 C473 1.375 . S
N471 C474 1.313 . S
C472 C473 1.338 . S
C472 N475 1.377 . S
C472 H492 0.930 . S
C473 N471 1.375 . S
C473 C472 1.338 . S
C473 H477 0.931 . S
C474 N471 1.313 . S
C474 N475 1.344 . S
C474 H478 0.930 . S
N475 C472 1.377 . S
N475 C474 1.344 . S
O476 Co468 2.055 . S
O476 C480 1.253 . S
H477 C473 0.931 . S
H478 C474 0.930 . S
O479 Co468 2.039 . S
O479 C469 1.265 . S
C480 O476 1.253 . S
C480 O481 1.227 . S
O481 C480 1.227 . S
N482 Co468 2.140 . S
N482 C485 1.346 . S
N482 C486 1.345 . S
C483 C484 1.387 . S
C483 C487 1.391 . S
C484 C483 1.387 . S
C484 C485 1.369 . S
C484 H493 0.929 . S
C485 N482 1.346 . S
C485 C484 1.369 . S
C485 H488 0.928 . S
C486 N482 1.345 . S
C486 C487 1.371 . S
C486 H489 0.931 . S
C487 C483 1.391 . S
C487 C486 1.371 . S
C487 H494 0.930 . S
H488 C485 0.928 . S
H489 C486 0.931 . S
H490 C466 0.930 . S
H491 C463 0.930 . S
H492 C472 0.930 . S
H493 C484 0.929 . S
H494 C487 0.930 . S
C495 C496 1.351 . S
C495 N498 1.368 . S
C495 H500 0.931 . S
C496 C495 1.351 . S
C496 N497 1.373 . S
C496 H524 0.930 . S
N497 C496 1.373 . S
N497 C499 1.340 . S
N498 C495 1.368 . S
N498 C499 1.321 . S
N498 Co501 2.135 . S
C499 N497 1.340 . S
C499 N498 1.321 . S
C499 H523 0.930 . S
H500 C495 0.931 . S
Co501 N498 2.135 . S
Co501 N504 2.121 . S
Co501 O509 2.055 . S
Co501 O512 2.039 . S
Co501 N515 2.140 . S
C502 O503 1.227 . S
C502 O512 1.265 . S
O503 C502 1.227 . S
N504 Co501 2.121 . S
N504 C506 1.375 . S
N504 C507 1.313 . S
C505 C506 1.338 . S
C505 N508 1.377 . S
C505 H525 0.930 . S
C506 N504 1.375 . S
C506 C505 1.338 . S
C506 H510 0.931 . S
C507 N504 1.313 . S
C507 N508 1.344 . S
C507 H511 0.930 . S
N508 C505 1.377 . S
N508 C507 1.344 . S
O509 Co501 2.055 . S
O509 C513 1.253 . S
H510 C506 0.931 . S
H511 C507 0.930 . S
O512 Co501 2.039 . S
O512 C502 1.265 . S
C513 O509 1.253 . S
C513 O514 1.227 . S
O514 C513 1.227 . S
N515 Co501 2.140 . S
N515 C518 1.346 . S
N515 C519 1.345 . S
C516 C517 1.387 . S
C516 C520 1.391 . S
C517 C516 1.387 . S
C517 C518 1.369 . S
C517 H526 0.929 . S
C518 N515 1.346 . S
C518 C517 1.369 . S
C518 H521 0.928 . S
C519 N515 1.345 . S
C519 C520 1.371 . S
C519 H522 0.931 . S
C520 C516 1.391 . S
C520 C519 1.371 . S
C520 H527 0.930 . S
H521 C518 0.928 . S
H522 C519 0.931 . S
H523 C499 0.930 . S
H524 C496 0.930 . S
H525 C505 0.930 . S
H526 C517 0.929 . S
H527 C520 0.930 . S
C528 C529 1.391 . S
C528 C530 1.394 . S
C528 H544 0.931 . S
C529 C528 1.391 . S
C529 C533 1.376 . S
C530 C528 1.394 . S
C530 C531 1.369 . S
C530 C534 1.531 . S
C531 C530 1.369 . S
C531 C532 1.410 . S
C531 C539 1.503 . S
C532 C531 1.410 . S
C532 C533 1.392 . S
C532 C535 1.511 . S
C533 C529 1.376 . S
C533 C532 1.392 . S
C533 H545 0.929 . S
C534 C530 1.531 . S
C534 H546 0.960 . S
C534 H547 0.962 . S
C534 H548 0.960 . S
C535 C532 1.511 . S
C535 H549 0.961 . S
C535 H550 0.961 . S
C535 H551 0.961 . S
C536 C537 1.370 . S
C536 C538 1.363 . S
C536 H552 0.931 . S
C537 C536 1.370 . S
C537 C541 1.408 . S
C538 C536 1.363 . S
C538 C539 1.370 . S
C538 C542 1.524 . S
C539 C531 1.503 . S
C539 C538 1.370 . S
C539 C540 1.403 . S
C540 C539 1.403 . S
C540 C541 1.404 . S
C540 C543 1.539 . S
C541 C537 1.408 . S
C541 C540 1.404 . S
C541 H553 0.930 . S
C542 C538 1.524 . S
C542 H554 0.956 . S
C542 H555 0.961 . S
C542 H556 0.961 . S
C543 C540 1.539 . S
C543 H557 0.958 . S
C543 H558 0.961 . S
C543 H559 0.960 . S
H544 C528 0.931 . S
H545 C533 0.929 . S
H546 C534 0.960 . S
H547 C534 0.962 . S
H548 C534 0.960 . S
H549 C535 0.961 . S
H550 C535 0.961 . S
H551 C535 0.961 . S
H552 C536 0.931 . S
H553 C541 0.930 . S
H554 C542 0.956 . S
H555 C542 0.961 . S
H556 C542 0.961 . S
H557 C543 0.958 . S
H558 C543 0.961 . S
H559 C543 0.960 . S
C560 C561 1.391 . S
C560 C562 1.394 . S
C560 H576 0.931 . S
C561 C560 1.391 . S
C561 C565 1.376 . S
C562 C560 1.394 . S
C562 C563 1.369 . S
C562 C566 1.531 . S
C563 C562 1.369 . S
C563 C564 1.410 . S
C563 C571 1.503 . S
C564 C563 1.410 . S
C564 C565 1.392 . S
C564 C567 1.511 . S
C565 C561 1.376 . S
C565 C564 1.392 . S
C565 H577 0.929 . S
C566 C562 1.531 . S
C566 H578 0.960 . S
C566 H579 0.962 . S
C566 H580 0.960 . S
C567 C564 1.511 . S
C567 H581 0.961 . S
C567 H582 0.961 . S
C567 H583 0.961 . S
C568 C569 1.370 . S
C568 C570 1.363 . S
C568 H584 0.931 . S
C569 C568 1.370 . S
C569 C573 1.408 . S
C570 C568 1.363 . S
C570 C571 1.370 . S
C570 C574 1.524 . S
C571 C563 1.503 . S
C571 C570 1.370 . S
C571 C572 1.403 . S
C572 C571 1.403 . S
C572 C573 1.404 . S
C572 C575 1.539 . S
C573 C569 1.408 . S
C573 C572 1.404 . S
C573 H585 0.930 . S
C574 C570 1.524 . S
C574 H586 0.956 . S
C574 H587 0.961 . S
C574 H588 0.961 . S
C575 C572 1.539 . S
C575 H589 0.958 . S
C575 H590 0.961 . S
C575 H591 0.960 . S
H576 C560 0.931 . S
H577 C565 0.929 . S
H578 C566 0.960 . S
H579 C566 0.962 . S
H580 C566 0.960 . S
H581 C567 0.961 . S
H582 C567 0.961 . S
H583 C567 0.961 . S
H584 C568 0.931 . S
H585 C573 0.930 . S
H586 C574 0.956 . S
H587 C574 0.961 . S
H588 C574 0.961 . S
H589 C575 0.958 . S
H590 C575 0.961 . S
H591 C575 0.960 . S
C592 C593 1.391 . S
C592 C594 1.394 . S
C592 H608 0.931 . S
C593 C592 1.391 . S
C593 C597 1.376 . S
C594 C592 1.394 . S
C594 C595 1.369 . S
C594 C598 1.531 1_556 S
C595 C594 1.369 . S
C595 C596 1.410 . S
C595 C603 1.503 . S
C596 C595 1.410 . S
C596 C597 1.392 . S
C596 C599 1.511 . S
C597 C593 1.376 . S
C597 C596 1.392 . S
C597 H609 0.929 . S
C598 C594 1.531 1_554 S
C598 H610 0.960 . S
C598 H611 0.962 1_554 S
C598 H612 0.960 . S
C599 C596 1.511 . S
C599 H613 0.961 . S
C599 H614 0.961 . S
C599 H615 0.961 . S
C600 C601 1.370 . S
C600 C602 1.363 . S
C600 H616 0.931 . S
C601 C600 1.370 . S
C601 C605 1.408 . S
C602 C600 1.363 . S
C602 C603 1.370 . S
C602 C606 1.524 . S
C603 C595 1.503 . S
C603 C602 1.370 . S
C603 C604 1.403 . S
C604 C603 1.403 . S
C604 C605 1.404 . S
C604 C607 1.539 1_556 S
C605 C601 1.408 . S
C605 C604 1.404 . S
C605 H617 0.930 1_556 S
C606 C602 1.524 . S
C606 H618 0.956 . S
C606 H619 0.961 . S
C606 H620 0.961 . S
C607 C604 1.539 1_554 S
C607 H621 0.958 . S
C607 H622 0.961 . S
C607 H623 0.960 1_554 S
H608 C592 0.931 . S
H609 C597 0.929 . S
H610 C598 0.960 . S
H611 C598 0.962 1_556 S
H612 C598 0.960 . S
H613 C599 0.961 . S
H614 C599 0.961 . S
H615 C599 0.961 . S
H616 C600 0.931 . S
H617 C605 0.930 1_554 S
H618 C606 0.956 . S
H619 C606 0.961 . S
H620 C606 0.961 . S
H621 C607 0.958 . S
H622 C607 0.961 . S
H623 C607 0.960 1_556 S
C624 C625 1.391 . S
C624 C626 1.394 . S
C624 H640 0.931 . S
C625 C624 1.391 . S
C625 C629 1.376 . S
C626 C624 1.394 . S
C626 C627 1.369 . S
C626 C630 1.531 . S
C627 C626 1.369 . S
C627 C628 1.410 . S
C627 C635 1.503 . S
C628 C627 1.410 . S
C628 C629 1.392 . S
C628 C631 1.511 . S
C629 C625 1.376 . S
C629 C628 1.392 . S
C629 H641 0.929 . S
C630 C626 1.531 . S
C630 H642 0.960 . S
C630 H643 0.962 . S
C630 H644 0.960 . S
C631 C628 1.511 . S
C631 H645 0.961 . S
C631 H646 0.961 . S
C631 H647 0.961 . S
C632 C633 1.370 . S
C632 C634 1.363 . S
C632 H648 0.931 . S
C633 C632 1.370 . S
C633 C637 1.408 1_554 S
C634 C632 1.363 . S
C634 C635 1.370 . S
C634 C638 1.524 . S
C635 C627 1.503 . S
C635 C634 1.370 . S
C635 C636 1.403 . S
C636 C635 1.403 . S
C636 C637 1.404 1_554 S
C636 C639 1.539 1_554 S
C637 C633 1.408 1_556 S
C637 C636 1.404 1_556 S
C637 H649 0.930 . S
C638 C634 1.524 . S
C638 H650 0.956 . S
C638 H651 0.961 . S
C638 H652 0.961 . S
C639 C636 1.539 1_556 S
C639 H653 0.958 . S
C639 H654 0.961 . S
C639 H655 0.960 . S
H640 C624 0.931 . S
H641 C629 0.929 . S
H642 C630 0.960 . S
H643 C630 0.962 . S
H644 C630 0.960 . S
H645 C631 0.961 . S
H646 C631 0.961 . S
H647 C631 0.961 . S
H648 C632 0.931 . S
H649 C637 0.930 . S
H650 C638 0.956 . S
H651 C638 0.961 . S
H652 C638 0.961 . S
H653 C639 0.958 . S
H654 C639 0.961 . S
H655 C639 0.960 . S
C656 C657 1.391 . S
C656 C658 1.394 . S
C656 H672 0.931 . S
C657 C656 1.391 . S
C657 C661 1.376 . S
C658 C656 1.394 . S
C658 C659 1.369 . S
C658 C662 1.531 . S
C659 C658 1.369 . S
C659 C660 1.410 . S
C659 C667 1.503 1_655 S
C660 C659 1.410 . S
C660 C661 1.392 . S
C660 C663 1.511 1_655 S
C661 C657 1.376 . S
C661 C660 1.392 . S
C661 H673 0.929 . S
C662 C658 1.531 . S
C662 H674 0.960 . S
C662 H675 0.962 . S
C662 H676 0.960 . S
C663 C660 1.511 1_455 S
C663 H677 0.961 . S
C663 H678 0.961 . S
C663 H679 0.961 . S
C664 C665 1.370 . S
C664 C666 1.363 . S
C664 H680 0.931 . S
C665 C664 1.370 . S
C665 C669 1.408 . S
C666 C664 1.363 . S
C666 C667 1.370 . S
C666 C670 1.524 1_455 S
C667 C659 1.503 1_455 S
C667 C666 1.370 . S
C667 C668 1.403 . S
C668 C667 1.403 . S
C668 C669 1.404 . S
C668 C671 1.539 . S
C669 C665 1.408 . S
C669 C668 1.404 . S
C669 H681 0.930 . S
C670 C666 1.524 1_655 S
C670 H682 0.956 . S
C670 H683 0.961 . S
C670 H684 0.961 . S
C671 C668 1.539 . S
C671 H685 0.958 . S
C671 H686 0.961 . S
C671 H687 0.960 . S
H672 C656 0.931 . S
H673 C661 0.929 . S
H674 C662 0.960 . S
H675 C662 0.962 . S
H676 C662 0.960 . S
H677 C663 0.961 . S
H678 C663 0.961 . S
H679 C663 0.961 . S
H680 C664 0.931 . S
H681 C669 0.930 . S
H682 C670 0.956 . S
H683 C670 0.961 . S
H684 C670 0.961 . S
H685 C671 0.958 . S
H686 C671 0.961 . S
H687 C671 0.960 . S
C688 C689 1.391 . S
C688 C690 1.394 . S
C688 H704 0.931 . S
C689 C688 1.391 . S
C689 C693 1.376 . S
C690 C688 1.394 . S
C690 C691 1.369 . S
C690 C694 1.531 1_655 S
C691 C690 1.369 . S
C691 C692 1.410 . S
C691 C699 1.503 1_655 S
C692 C691 1.410 . S
C692 C693 1.392 . S
C692 C695 1.511 . S
C693 C689 1.376 . S
C693 C692 1.392 . S
C693 H705 0.929 . S
C694 C690 1.531 1_455 S
C694 H706 0.960 . S
C694 H707 0.962 . S
C694 H708 0.960 . S
C695 C692 1.511 . S
C695 H709 0.961 . S
C695 H710 0.961 . S
C695 H711 0.961 . S
C696 C697 1.370 . S
C696 C698 1.363 . S
C696 H712 0.931 . S
C697 C696 1.370 . S
C697 C701 1.408 . S
C698 C696 1.363 . S
C698 C699 1.370 . S
C698 C702 1.524 1_455 S
C699 C691 1.503 1_455 S
C699 C698 1.370 . S
C699 C700 1.403 . S
C700 C699 1.403 . S
C700 C701 1.404 . S
C700 C703 1.539 . S
C701 C697 1.408 . S
C701 C700 1.404 . S
C701 H713 0.930 . S
C702 C698 1.524 1_655 S
C702 H714 0.956 . S
C702 H715 0.961 . S
C702 H716 0.961 . S
C703 C700 1.539 . S
C703 H717 0.958 . S
C703 H718 0.961 . S
C703 H719 0.960 . S
H704 C688 0.931 . S
H705 C693 0.929 . S
H706 C694 0.960 . S
H707 C694 0.962 . S
H708 C694 0.960 . S
H709 C695 0.961 . S
H710 C695 0.961 . S
H711 C695 0.961 . S
H712 C696 0.931 . S
H713 C701 0.930 . S
H714 C702 0.956 . S
H715 C702 0.961 . S
H716 C702 0.961 . S
H717 C703 0.958 . S
H718 C703 0.961 . S
H719 C703 0.960 . S
C720 C721 1.391 . S
C720 C722 1.394 . S
C720 H736 0.931 . S
C721 C720 1.391 . S
C721 C725 1.376 . S
C722 C720 1.394 . S
C722 C723 1.369 . S
C722 C726 1.531 . S
C723 C722 1.369 . S
C723 C724 1.410 . S
C723 C731 1.503 . S
C724 C723 1.410 . S
C724 C725 1.392 . S
C724 C727 1.511 . S
C725 C721 1.376 . S
C725 C724 1.392 . S
C725 H737 0.929 . S
C726 C722 1.531 . S
C726 H738 0.960 . S
C726 H739 0.962 . S
C726 H740 0.960 . S
C727 C724 1.511 . S
C727 H741 0.961 1_554 S
C727 H742 0.961 1_554 S
C727 H743 0.961 . S
C728 C729 1.370 . S
C728 C730 1.363 . S
C728 H744 0.931 1_554 S
C729 C728 1.370 . S
C729 C733 1.408 . S
C730 C728 1.363 . S
C730 C731 1.370 . S
C730 C734 1.524 . S
C731 C723 1.503 . S
C731 C730 1.370 . S
C731 C732 1.403 . S
C732 C731 1.403 . S
C732 C733 1.404 . S
C732 C735 1.539 . S
C733 C729 1.408 . S
C733 C732 1.404 . S
C733 H745 0.930 . S
C734 C730 1.524 . S
C734 H746 0.956 . S
C734 H747 0.961 1_554 S
C734 H748 0.961 1_554 S
C735 C732 1.539 . S
C735 H749 0.958 . S
C735 H750 0.961 . S
C735 H751 0.960 . S
H736 C720 0.931 . S
H737 C725 0.929 . S
H738 C726 0.960 . S
H739 C726 0.962 . S
H740 C726 0.960 . S
H741 C727 0.961 1_556 S
H742 C727 0.961 1_556 S
H743 C727 0.961 . S
H744 C728 0.931 1_556 S
H745 C733 0.930 . S
H746 C734 0.956 . S
H747 C734 0.961 1_556 S
H748 C734 0.961 1_556 S
H749 C735 0.958 . S
H750 C735 0.961 . S
H751 C735 0.960 . S
C752 C753 1.391 . S
C752 C754 1.394 . S
C752 H768 0.931 . S
C753 C752 1.391 . S
C753 C757 1.376 . S
C754 C752 1.394 . S
C754 C755 1.369 . S
C754 C758 1.531 . S
C755 C754 1.369 . S
C755 C756 1.410 . S
C755 C763 1.503 . S
C756 C755 1.410 . S
C756 C757 1.392 . S
C756 C759 1.511 . S
C757 C753 1.376 . S
C757 C756 1.392 . S
C757 H769 0.929 . S
C758 C754 1.531 . S
C758 H770 0.960 . S
C758 H771 0.962 . S
C758 H772 0.960 . S
C759 C756 1.511 . S
C759 H773 0.961 . S
C759 H774 0.961 . S
C759 H775 0.961 . S
C760 C761 1.370 . S
C760 C762 1.363 . S
C760 H776 0.931 . S
C761 C760 1.370 . S
C761 C765 1.408 1_556 S
C762 C760 1.363 . S
C762 C763 1.370 . S
C762 C766 1.524 . S
C763 C755 1.503 . S
C763 C762 1.370 . S
C763 C764 1.403 . S
C764 C763 1.403 . S
C764 C765 1.404 1_556 S
C764 C767 1.539 1_556 S
C765 C761 1.408 1_554 S
C765 C764 1.404 1_554 S
C765 H777 0.930 . S
C766 C762 1.524 . S
C766 H778 0.956 . S
C766 H779 0.961 . S
C766 H780 0.961 . S
C767 C764 1.539 1_554 S
C767 H781 0.958 . S
C767 H782 0.961 . S
C767 H783 0.960 . S
H768 C752 0.931 . S
H769 C757 0.929 . S
H770 C758 0.960 . S
H771 C758 0.962 . S
H772 C758 0.960 . S
H773 C759 0.961 . S
H774 C759 0.961 . S
H775 C759 0.961 . S
H776 C760 0.931 . S
H777 C765 0.930 . S
H778 C766 0.956 . S
H779 C766 0.961 . S
H780 C766 0.961 . S
H781 C767 0.958 . S
H782 C767 0.961 . S
H783 C767 0.960 . S
C784 C785 1.391 . S
C784 C786 1.394 . S
C784 H800 0.931 . S
C785 C784 1.391 . S
C785 C789 1.376 . S
C786 C784 1.394 . S
C786 C787 1.369 . S
C786 C790 1.531 . S
C787 C786 1.369 . S
C787 C788 1.410 . S
C787 C795 1.503 . S
C788 C787 1.410 . S
C788 C789 1.392 . S
C788 C791 1.511 . S
C789 C785 1.376 . S
C789 C788 1.392 . S
C789 H801 0.929 . S
C790 C786 1.531 . S
C790 H802 0.960 . S
C790 H803 0.962 . S
C790 H804 0.960 . S
C791 C788 1.511 . S
C791 H805 0.961 . S
C791 H806 0.961 . S
C791 H807 0.961 . S
C792 C793 1.370 . S
C792 C794 1.363 . S
C792 H808 0.931 . S
C793 C792 1.370 . S
C793 C797 1.408 . S
C794 C792 1.363 . S
C794 C795 1.370 . S
C794 C798 1.524 1_556 S
C795 C787 1.503 . S
C795 C794 1.370 . S
C795 C796 1.403 . S
C796 C795 1.403 . S
C796 C797 1.404 . S
C796 C799 1.539 . S
C797 C793 1.408 . S
C797 C796 1.404 . S
C797 H809 0.930 . S
C798 C794 1.524 1_554 S
C798 H810 0.956 . S
C798 H811 0.961 . S
C798 H812 0.961 . S
C799 C796 1.539 . S
C799 H813 0.958 . S
C799 H814 0.961 . S
C799 H815 0.960 . S
H800 C784 0.931 . S
H801 C789 0.929 . S
H802 C790 0.960 . S
H803 C790 0.962 . S
H804 C790 0.960 . S
H805 C791 0.961 . S
H806 C791 0.961 . S
H807 C791 0.961 . S
H808 C792 0.931 . S
H809 C797 0.930 . S
H810 C798 0.956 . S
H811 C798 0.961 . S
H812 C798 0.961 . S
H813 C799 0.958 . S
H814 C799 0.961 . S
H815 C799 0.960 . S
C816 C817 1.391 . S
C816 C818 1.394 . S
C816 H832 0.931 . S
C817 C816 1.391 . S
C817 C821 1.376 . S
C818 C816 1.394 . S
C818 C819 1.369 . S
C818 C822 1.531 . S
C819 C818 1.369 . S
C819 C820 1.410 . S
C819 C827 1.503 . S
C820 C819 1.410 . S
C820 C821 1.392 . S
C820 C823 1.511 1_554 S
C821 C817 1.376 . S
C821 C820 1.392 . S
C821 H833 0.929 . S
C822 C818 1.531 . S
C822 H834 0.960 . S
C822 H835 0.962 . S
C822 H836 0.960 . S
C823 C820 1.511 1_556 S
C823 H837 0.961 . S
C823 H838 0.961 . S
C823 H839 0.961 . S
C824 C825 1.370 . S
C824 C826 1.363 . S
C824 H840 0.931 . S
C825 C824 1.370 . S
C825 C829 1.408 . S
C826 C824 1.363 . S
C826 C827 1.370 . S
C826 C830 1.524 . S
C827 C819 1.503 . S
C827 C826 1.370 . S
C827 C828 1.403 . S
C828 C827 1.403 . S
C828 C829 1.404 . S
C828 C831 1.539 . S
C829 C825 1.408 . S
C829 C828 1.404 . S
C829 H841 0.930 . S
C830 C826 1.524 . S
C830 H842 0.956 . S
C830 H843 0.961 . S
C830 H844 0.961 . S
C831 C828 1.539 . S
C831 H845 0.958 . S
C831 H846 0.961 1_554 S
C831 H847 0.960 . S
H832 C816 0.931 . S
H833 C821 0.929 . S
H834 C822 0.960 . S
H835 C822 0.962 . S
H836 C822 0.960 . S
H837 C823 0.961 . S
H838 C823 0.961 . S
H839 C823 0.961 . S
H840 C824 0.931 . S
H841 C829 0.930 . S
H842 C830 0.956 . S
H843 C830 0.961 . S
H844 C830 0.961 . S
H845 C831 0.958 . S
H846 C831 0.961 1_556 S
H847 C831 0.960 . S
C848 C849 1.391 . S
C848 C850 1.394 . S
C848 H864 0.931 . S
C849 C848 1.391 . S
C849 C853 1.376 . S
C850 C848 1.394 . S
C850 C851 1.369 1_455 S
C850 C854 1.531 . S
C851 C850 1.369 1_655 S
C851 C852 1.410 . S
C851 C859 1.503 . S
C852 C851 1.410 . S
C852 C853 1.392 1_655 S
C852 C855 1.511 . S
C853 C849 1.376 . S
C853 C852 1.392 1_455 S
C853 H865 0.929 1_455 S
C854 C850 1.531 . S
C854 H866 0.960 . S
C854 H867 0.962 . S
C854 H868 0.960 . S
C855 C852 1.511 . S
C855 H869 0.961 . S
C855 H870 0.961 . S
C855 H871 0.961 . S
C856 C857 1.370 . S
C856 C858 1.363 . S
C856 H872 0.931 . S
C857 C856 1.370 . S
C857 C861 1.408 . S
C858 C856 1.363 . S
C858 C859 1.370 . S
C858 C862 1.524 . S
C859 C851 1.503 . S
C859 C858 1.370 . S
C859 C860 1.403 . S
C860 C859 1.403 . S
C860 C861 1.404 . S
C860 C863 1.539 . S
C861 C857 1.408 . S
C861 C860 1.404 . S
C861 H873 0.930 . S
C862 C858 1.524 . S
C862 H874 0.956 . S
C862 H875 0.961 . S
C862 H876 0.961 . S
C863 C860 1.539 . S
C863 H877 0.958 . S
C863 H878 0.961 . S
C863 H879 0.960 . S
H864 C848 0.931 . S
H865 C853 0.929 1_655 S
H866 C854 0.960 . S
H867 C854 0.962 . S
H868 C854 0.960 . S
H869 C855 0.961 . S
H870 C855 0.961 . S
H871 C855 0.961 . S
H872 C856 0.931 . S
H873 C861 0.930 . S
H874 C862 0.956 . S
H875 C862 0.961 . S
H876 C862 0.961 . S
H877 C863 0.958 . S
H878 C863 0.961 . S
H879 C863 0.960 . S
C880 C881 1.391 . S
C880 C882 1.394 . S
C880 H896 0.931 . S
C881 C880 1.391 . S
C881 C885 1.376 . S
C882 C880 1.394 . S
C882 C883 1.369 . S
C882 C886 1.531 1_655 S
C883 C882 1.369 . S
C883 C884 1.410 . S
C883 C891 1.503 . S
C884 C883 1.410 . S
C884 C885 1.392 . S
C884 C887 1.511 . S
C885 C881 1.376 . S
C885 C884 1.392 . S
C885 H897 0.929 . S
C886 C882 1.531 1_455 S
C886 H898 0.960 . S
C886 H899 0.962 . S
C886 H900 0.960 . S
C887 C884 1.511 . S
C887 H901 0.961 . S
C887 H902 0.961 . S
C887 H903 0.961 . S
C888 C889 1.370 . S
C888 C890 1.363 . S
C888 H904 0.931 . S
C889 C888 1.370 . S
C889 C893 1.408 . S
C890 C888 1.363 . S
C890 C891 1.370 1_455 S
C890 C894 1.524 1_455 S
C891 C883 1.503 . S
C891 C890 1.370 1_655 S
C891 C892 1.403 . S
C892 C891 1.403 . S
C892 C893 1.404 1_655 S
C892 C895 1.539 . S
C893 C889 1.408 . S
C893 C892 1.404 1_455 S
C893 H905 0.930 . S
C894 C890 1.524 1_655 S
C894 H906 0.960 . S
C894 H907 0.961 . S
C894 H908 0.961 1_655 S
C895 C892 1.539 . S
C895 H909 0.958 . S
C895 H910 0.961 . S
C895 H911 0.960 . S
H896 C880 0.931 . S
H897 C885 0.929 . S
H898 C886 0.960 . S
H899 C886 0.962 . S
H900 C886 0.960 . S
H901 C887 0.961 . S
H902 C887 0.961 . S
H903 C887 0.961 . S
H904 C888 0.931 . S
H905 C893 0.930 . S
H906 C894 0.960 . S
H907 C894 0.961 . S
H908 C894 0.961 1_455 S
H909 C895 0.958 . S
H910 C895 0.961 . S
H911 C895 0.960 . S
C912 C913 1.391 . S
C912 C914 1.394 . S
C912 H928 0.931 . S
C913 C912 1.391 . S
C913 C917 1.376 . S
C914 C912 1.394 . S
C914 C915 1.369 . S
C914 C918 1.531 . S
C915 C914 1.369 . S
C915 C916 1.410 . S
C915 C923 1.503 . S
C916 C915 1.410 . S
C916 C917 1.392 . S
C916 C919 1.511 . S
C917 C913 1.376 . S
C917 C916 1.392 . S
C917 H929 0.929 . S
C918 C914 1.531 . S
C918 H930 0.960 . S
C918 H931 0.962 . S
C918 H932 0.960 . S
C919 C916 1.511 . S
C919 H933 0.961 . S
C919 H934 0.961 . S
C919 H935 0.961 . S
C920 C921 1.370 . S
C920 C922 1.363 . S
C920 H936 0.931 . S
C921 C920 1.370 . S
C921 C925 1.408 . S
C922 C920 1.363 . S
C922 C923 1.370 . S
C922 C926 1.524 1_554 S
C923 C915 1.503 . S
C923 C922 1.370 . S
C923 C924 1.403 . S
C924 C923 1.403 . S
C924 C925 1.404 . S
C924 C927 1.539 . S
C925 C921 1.408 . S
C925 C924 1.404 . S
C925 H937 0.930 . S
C926 C922 1.524 1_556 S
C926 H938 0.956 . S
C926 H939 0.961 1_556 S
C926 H940 0.961 . S
C927 C924 1.539 . S
C927 H941 0.958 . S
C927 H942 0.961 . S
C927 H943 0.960 . S
H928 C912 0.931 . S
H929 C917 0.929 . S
H930 C918 0.960 . S
H931 C918 0.962 . S
H932 C918 0.960 . S
H933 C919 0.961 . S
H934 C919 0.961 . S
H935 C919 0.961 . S
H936 C920 0.931 . S
H937 C925 0.930 . S
H938 C926 0.956 . S
H939 C926 0.961 1_554 S
H940 C926 0.961 . S
H941 C927 0.958 . S
H942 C927 0.961 . S
H943 C927 0.960 . S
C944 C945 1.391 1_554 S
C944 C946 1.394 1_554 S
C944 H960 0.931 . S
C945 C944 1.391 1_556 S
C945 C949 1.376 . S
C946 C944 1.394 1_556 S
C946 C947 1.369 . S
C946 C950 1.531 1_556 S
C947 C946 1.369 . S
C947 C948 1.410 . S
C947 C955 1.503 . S
C948 C947 1.410 . S
C948 C949 1.392 . S
C948 C951 1.511 . S
C949 C945 1.376 . S
C949 C948 1.392 . S
C949 H961 0.929 . S
C950 C946 1.531 1_554 S
C950 H962 0.960 . S
C950 H963 0.962 . S
C950 H964 0.960 . S
C951 C948 1.511 . S
C951 H965 0.961 . S
C951 H966 0.961 . S
C951 H967 0.961 . S
C952 C953 1.370 . S
C952 C954 1.363 . S
C952 H968 0.931 . S
C953 C952 1.370 . S
C953 C957 1.408 . S
C954 C952 1.363 . S
C954 C955 1.370 . S
C954 C958 1.524 . S
C955 C947 1.503 . S
C955 C954 1.370 . S
C955 C956 1.403 . S
C956 C955 1.403 . S
C956 C957 1.404 . S
C956 C959 1.539 . S
C957 C953 1.408 . S
C957 C956 1.404 . S
C957 H969 0.930 . S
C958 C954 1.524 . S
C958 H970 0.956 . S
C958 H971 0.961 . S
C958 H972 0.961 . S
C959 C956 1.539 . S
C959 H973 0.958 1_556 S
C959 H974 0.961 . S
C959 H975 0.960 . S
H960 C944 0.931 . S
H961 C949 0.929 . S
H962 C950 0.960 . S
H963 C950 0.962 . S
H964 C950 0.960 . S
H965 C951 0.961 . S
H966 C951 0.961 . S
H967 C951 0.961 . S
H968 C952 0.931 . S
H969 C957 0.930 . S
H970 C958 0.956 . S
H971 C958 0.961 . S
H972 C958 0.961 . S
H973 C959 0.958 1_554 S
H974 C959 0.961 . S
H975 C959 0.960 . S
C976 C977 1.391 . S
C976 C978 1.394 . S
C976 H992 0.931 . S
C977 C976 1.391 . S
C977 C981 1.376 . S
C978 C976 1.394 . S
C978 C979 1.369 . S
C978 C982 1.531 . S
C979 C978 1.369 . S
C979 C980 1.410 . S
C979 C987 1.503 . S
C980 C979 1.410 . S
C980 C981 1.392 . S
C980 C983 1.511 . S
C981 C977 1.376 . S
C981 C980 1.392 . S
C981 H993 0.929 . S
C982 C978 1.531 . S
C982 H994 0.960 . S
C982 H995 0.962 . S
C982 H996 0.960 . S
C983 C980 1.511 . S
C983 H997 0.961 . S
C983 H998 0.961 . S
C983 H999 0.961 . S
C984 C985 1.370 . S
C984 C986 1.363 . S
C984 H1000 0.931 . S
C985 C984 1.370 . S
C985 C989 1.408 . S
C986 C984 1.363 . S
C986 C987 1.370 . S
C986 C990 1.524 . S
C987 C979 1.503 . S
C987 C986 1.370 . S
C987 C988 1.403 . S
C988 C987 1.403 . S
C988 C989 1.404 . S
C988 C991 1.539 . S
C989 C985 1.408 . S
C989 C988 1.404 . S
C989 H1001 0.930 . S
C990 C986 1.524 . S
C990 H1002 0.956 . S
C990 H1003 0.961 . S
C990 H1004 0.961 . S
C991 C988 1.539 . S
C991 H1005 0.958 . S
C991 H1006 0.961 . S
C991 H1007 0.960 . S
H992 C976 0.931 . S
H993 C981 0.929 . S
H994 C982 0.960 . S
H995 C982 0.962 . S
H996 C982 0.960 . S
H997 C983 0.961 . S
H998 C983 0.961 . S
H999 C983 0.961 . S
H1000 C984 0.931 . S
H1001 C989 0.930 . S
H1002 C990 0.956 . S
H1003 C990 0.961 . S
H1004 C990 0.961 . S
H1005 C991 0.958 . S
H1006 C991 0.961 . S
H1007 C991 0.960 . S
C1008 C1009 1.391 . S
C1008 C1010 1.394 . S
C1008 H1024 0.931 . S
C1009 C1008 1.391 . S
C1009 C1013 1.376 . S
C1010 C1008 1.394 . S
C1010 C1011 1.369 . S
C1010 C1014 1.531 . S
C1011 C1010 1.369 . S
C1011 C1012 1.410 . S
C1011 C1019 1.503 . S
C1012 C1011 1.410 . S
C1012 C1013 1.392 . S
C1012 C1015 1.511 . S
C1013 C1009 1.376 . S
C1013 C1012 1.392 . S
C1013 H1025 0.929 . S
C1014 C1010 1.531 . S
C1014 H1026 0.960 . S
C1014 H1027 0.962 . S
C1014 H1028 0.960 . S
C1015 C1012 1.511 . S
C1015 H1029 0.961 . S
C1015 H1030 0.961 . S
C1015 H1031 0.961 . S
C1016 C1017 1.370 . S
C1016 C1018 1.363 . S
C1016 H1032 0.931 . S
C1017 C1016 1.370 . S
C1017 C1021 1.408 . S
C1018 C1016 1.363 . S
C1018 C1019 1.370 . S
C1018 C1022 1.524 . S
C1019 C1011 1.503 . S
C1019 C1018 1.370 . S
C1019 C1020 1.403 . S
C1020 C1019 1.403 . S
C1020 C1021 1.404 . S
C1020 C1023 1.539 . S
C1021 C1017 1.408 . S
C1021 C1020 1.404 . S
C1021 H1033 0.930 . S
C1022 C1018 1.524 . S
C1022 H1034 0.956 . S
C1022 H1035 0.961 . S
C1022 H1036 0.961 . S
C1023 C1020 1.539 . S
C1023 H1037 0.958 . S
C1023 H1038 0.961 . S
C1023 H1039 0.960 . S
H1024 C1008 0.931 . S
H1025 C1013 0.929 . S
H1026 C1014 0.960 . S
H1027 C1014 0.962 . S
H1028 C1014 0.960 . S
H1029 C1015 0.961 . S
H1030 C1015 0.961 . S
H1031 C1015 0.961 . S
H1032 C1016 0.931 . S
H1033 C1021 0.930 . S
H1034 C1022 0.956 . S
H1035 C1022 0.961 . S
H1036 C1022 0.961 . S
H1037 C1023 0.958 . S
H1038 C1023 0.961 . S
H1039 C1023 0.960 . S
C1040 C1041 1.391 . S
C1040 C1042 1.394 . S
C1040 H1056 0.931 . S
C1041 C1040 1.391 . S
C1041 C1045 1.376 . S
C1042 C1040 1.394 . S
C1042 C1043 1.369 . S
C1042 C1046 1.531 1_554 S
C1043 C1042 1.369 . S
C1043 C1044 1.410 . S
C1043 C1051 1.503 1_544 S
C1044 C1043 1.410 . S
C1044 C1045 1.392 . S
C1044 C1047 1.511 1_545 S
C1045 C1041 1.376 . S
C1045 C1044 1.392 . S
C1045 H1057 0.929 . S
C1046 C1042 1.531 1_556 S
C1046 H1058 0.960 . S
C1046 H1059 0.962 1_556 S
C1046 H1060 0.960 . S
C1047 C1044 1.511 1_565 S
C1047 H1061 0.961 . S
C1047 H1062 0.961 . S
C1047 H1063 0.961 1_565 S
C1048 C1049 1.370 . S
C1048 C1050 1.363 . S
C1048 H1064 0.931 . S
C1049 C1048 1.370 . S
C1049 C1053 1.408 . S
C1050 C1048 1.363 . S
C1050 C1051 1.370 . S
C1050 C1054 1.524 1_556 S
C1051 C1043 1.503 1_566 S
C1051 C1050 1.370 . S
C1051 C1052 1.403 1_565 S
C1052 C1051 1.403 1_545 S
C1052 C1053 1.404 1_545 S
C1052 C1055 1.539 . S
C1053 C1049 1.408 . S
C1053 C1052 1.404 1_565 S
C1053 H1065 0.930 . S
C1054 C1050 1.524 1_554 S
C1054 H1066 0.956 . S
C1054 H1067 0.961 . S
C1054 H1068 0.961 . S
C1055 C1052 1.539 . S
C1055 H1069 0.958 . S
C1055 H1070 0.961 . S
C1055 H1071 0.960 . S
H1056 C1040 0.931 . S
H1057 C1045 0.929 . S
H1058 C1046 0.960 . S
H1059 C1046 0.962 1_554 S
H1060 C1046 0.960 . S
H1061 C1047 0.961 . S
H1062 C1047 0.961 . S
H1063 C1047 0.961 1_545 S
H1064 C1048 0.931 . S
H1065 C1053 0.930 . S
H1066 C1054 0.956 . S
H1067 C1054 0.961 . S
H1068 C1054 0.961 . S
H1069 C1055 0.958 . S
H1070 C1055 0.961 . S
H1071 C1055 0.960 . S
C1072 C1073 1.391 . S
C1072 C1074 1.394 . S
C1072 H1088 0.931 . S
C1073 C1072 1.391 . S
C1073 C1077 1.376 . S
C1074 C1072 1.394 . S
C1074 C1075 1.369 . S
C1074 C1078 1.531 . S
C1075 C1074 1.369 . S
C1075 C1076 1.410 . S
C1075 C1083 1.503 . S
C1076 C1075 1.410 . S
C1076 C1077 1.392 . S
C1076 C1079 1.511 . S
C1077 C1073 1.376 . S
C1077 C1076 1.392 . S
C1077 H1089 0.929 . S
C1078 C1074 1.531 . S
C1078 H1090 0.960 . S
C1078 H1091 0.962 . S
C1078 H1092 0.960 . S
C1079 C1076 1.511 . S
C1079 H1093 0.961 . S
C1079 H1094 0.961 . S
C1079 H1095 0.961 . S
C1080 C1081 1.370 . S
C1080 C1082 1.363 . S
C1080 H1096 0.931 . S
C1081 C1080 1.370 . S
C1081 C1085 1.408 . S
C1082 C1080 1.363 . S
C1082 C1083 1.370 . S
C1082 C1086 1.524 . S
C1083 C1075 1.503 . S
C1083 C1082 1.370 . S
C1083 C1084 1.403 . S
C1084 C1083 1.403 . S
C1084 C1085 1.404 . S
C1084 C1087 1.539 . S
C1085 C1081 1.408 . S
C1085 C1084 1.404 . S
C1085 H1097 0.930 . S
C1086 C1082 1.524 . S
C1086 H1098 0.956 . S
C1086 H1099 0.961 . S
C1086 H1100 0.961 . S
C1087 C1084 1.539 . S
C1087 H1101 0.958 . S
C1087 H1102 0.961 . S
C1087 H1103 0.960 . S
H1088 C1072 0.931 . S
H1089 C1077 0.929 . S
H1090 C1078 0.960 . S
H1091 C1078 0.962 . S
H1092 C1078 0.960 . S
H1093 C1079 0.961 . S
H1094 C1079 0.961 . S
H1095 C1079 0.961 . S
H1096 C1080 0.931 . S
H1097 C1085 0.930 . S
H1098 C1086 0.956 . S
H1099 C1086 0.961 . S
H1100 C1086 0.961 . S
H1101 C1087 0.958 . S
H1102 C1087 0.961 . S
H1103 C1087 0.960 . S
C1104 C1105 1.391 . S
C1104 C1106 1.394 1_545 S
C1104 H1120 0.931 . S
C1105 C1104 1.391 . S
C1105 C1109 1.376 . S
C1106 C1104 1.394 1_565 S
C1106 C1107 1.369 1_565 S
C1106 C1110 1.531 . S
C1107 C1106 1.369 1_545 S
C1107 C1108 1.410 . S
C1107 C1115 1.503 1_545 S
C1108 C1107 1.410 . S
C1108 C1109 1.392 . S
C1108 C1111 1.511 . S
C1109 C1105 1.376 . S
C1109 C1108 1.392 . S
C1109 H1121 0.929 . S
C1110 C1106 1.531 . S
C1110 H1122 0.960 . S
C1110 H1123 0.962 . S
C1110 H1124 0.960 . S
C1111 C1108 1.511 . S
C1111 H1125 0.961 . S
C1111 H1126 0.961 . S
C1111 H1127 0.961 . S
C1112 C1113 1.370 . S
C1112 C1114 1.363 . S
C1112 H1128 0.931 . S
C1113 C1112 1.370 . S
C1113 C1117 1.408 . S
C1114 C1112 1.363 . S
C1114 C1115 1.370 . S
C1114 C1118 1.524 1_565 S
C1115 C1107 1.503 1_565 S
C1115 C1114 1.370 . S
C1115 C1116 1.403 . S
C1116 C1115 1.403 . S
C1116 C1117 1.404 . S
C1116 C1119 1.539 . S
C1117 C1113 1.408 . S
C1117 C1116 1.404 . S
C1117 H1129 0.930 . S
C1118 C1114 1.524 1_545 S
C1118 H1130 0.956 . S
C1118 H1131 0.961 . S
C1118 H1132 0.961 . S
C1119 C1116 1.539 . S
C1119 H1133 0.958 . S
C1119 H1134 0.961 . S
C1119 H1135 0.960 . S
H1120 C1104 0.931 . S
H1121 C1109 0.929 . S
H1122 C1110 0.960 . S
H1123 C1110 0.962 . S
H1124 C1110 0.960 . S
H1125 C1111 0.961 . S
H1126 C1111 0.961 . S
H1127 C1111 0.961 . S
H1128 C1112 0.931 . S
H1129 C1117 0.930 . S
H1130 C1118 0.956 . S
H1131 C1118 0.961 . S
H1132 C1118 0.961 . S
H1133 C1119 0.958 . S
H1134 C1119 0.961 . S
H1135 C1119 0.960 . S
C1136 C1137 1.391 . S
C1136 C1138 1.394 . S
C1136 H1152 0.931 . S
C1137 C1136 1.391 . S
C1137 C1141 1.376 . S
C1138 C1136 1.394 . S
C1138 C1139 1.369 . S
C1138 C1142 1.531 . S
C1139 C1138 1.369 . S
C1139 C1140 1.410 . S
C1139 C1147 1.503 . S
C1140 C1139 1.410 . S
C1140 C1141 1.392 . S
C1140 C1143 1.511 . S
C1141 C1137 1.376 . S
C1141 C1140 1.392 . S
C1141 H1153 0.929 . S
C1142 C1138 1.531 . S
C1142 H1154 0.960 . S
C1142 H1155 0.962 . S
C1142 H1156 0.960 . S
C1143 C1140 1.511 . S
C1143 H1157 0.961 . S
C1143 H1158 0.961 . S
C1143 H1159 0.961 . S
C1144 C1145 1.370 . S
C1144 C1146 1.363 . S
C1144 H1160 0.931 . S
C1145 C1144 1.370 . S
C1145 C1149 1.408 . S
C1146 C1144 1.363 . S
C1146 C1147 1.370 . S
C1146 C1150 1.524 . S
C1147 C1139 1.503 . S
C1147 C1146 1.370 . S
C1147 C1148 1.403 . S
C1148 C1147 1.403 . S
C1148 C1149 1.404 . S
C1148 C1151 1.539 . S
C1149 C1145 1.408 . S
C1149 C1148 1.404 . S
C1149 H1161 0.930 . S
C1150 C1146 1.524 . S
C1150 H1162 0.956 . S
C1150 H1163 0.961 . S
C1150 H1164 0.961 . S
C1151 C1148 1.539 . S
C1151 H1165 0.958 . S
C1151 H1166 0.961 . S
C1151 H1167 0.960 . S
H1152 C1136 0.931 . S
H1153 C1141 0.929 . S
H1154 C1142 0.960 . S
H1155 C1142 0.962 . S
H1156 C1142 0.960 . S
H1157 C1143 0.961 . S
H1158 C1143 0.961 . S
H1159 C1143 0.961 . S
H1160 C1144 0.931 . S
H1161 C1149 0.930 . S
H1162 C1150 0.956 . S
H1163 C1150 0.961 . S
H1164 C1150 0.961 . S
H1165 C1151 0.958 . S
H1166 C1151 0.961 . S
H1167 C1151 0.960 . S
C1168 C1169 1.391 . S
C1168 C1170 1.394 . S
C1168 H1184 0.931 . S
C1169 C1168 1.391 . S
C1169 C1173 1.376 . S
C1170 C1168 1.394 . S
C1170 C1171 1.369 . S
C1170 C1174 1.531 . S
C1171 C1170 1.369 . S
C1171 C1172 1.410 . S
C1171 C1179 1.503 . S
C1172 C1171 1.410 . S
C1172 C1173 1.392 . S
C1172 C1175 1.511 . S
C1173 C1169 1.376 . S
C1173 C1172 1.392 . S
C1173 H1185 0.929 . S
C1174 C1170 1.531 . S
C1174 H1186 0.960 . S
C1174 H1187 0.962 . S
C1174 H1188 0.960 . S
C1175 C1172 1.511 . S
C1175 H1189 0.961 . S
C1175 H1190 0.961 . S
C1175 H1191 0.961 . S
C1176 C1177 1.370 . S
C1176 C1178 1.363 . S
C1176 H1192 0.931 . S
C1177 C1176 1.370 . S
C1177 C1181 1.408 . S
C1178 C1176 1.363 . S
C1178 C1179 1.370 . S
C1178 C1182 1.524 . S
C1179 C1171 1.503 . S
C1179 C1178 1.370 . S
C1179 C1180 1.403 . S
C1180 C1179 1.403 . S
C1180 C1181 1.404 . S
C1180 C1183 1.539 . S
C1181 C1177 1.408 . S
C1181 C1180 1.404 . S
C1181 H1193 0.930 . S
C1182 C1178 1.524 . S
C1182 H1194 0.956 . S
C1182 H1195 0.961 . S
C1182 H1196 0.961 . S
C1183 C1180 1.539 . S
C1183 H1197 0.958 . S
C1183 H1198 0.961 . S
C1183 H1199 0.960 . S
H1184 C1168 0.931 . S
H1185 C1173 0.929 . S
H1186 C1174 0.960 . S
H1187 C1174 0.962 . S
H1188 C1174 0.960 . S
H1189 C1175 0.961 . S
H1190 C1175 0.961 . S
H1191 C1175 0.961 . S
H1192 C1176 0.931 . S
H1193 C1181 0.930 . S
H1194 C1182 0.956 . S
H1195 C1182 0.961 . S
H1196 C1182 0.961 . S
H1197 C1183 0.958 . S
H1198 C1183 0.961 . S
H1199 C1183 0.960 . S
C1200 C1201 1.391 . S
C1200 C1202 1.394 . S
C1200 H1216 0.931 . S
C1201 C1200 1.391 . S
C1201 C1205 1.376 . S
C1202 C1200 1.394 . S
C1202 C1203 1.369 . S
C1202 C1206 1.531 . S
C1203 C1202 1.369 . S
C1203 C1204 1.410 . S
C1203 C1211 1.503 . S
C1204 C1203 1.410 . S
C1204 C1205 1.392 . S
C1204 C1207 1.511 . S
C1205 C1201 1.376 . S
C1205 C1204 1.392 . S
C1205 H1217 0.929 . S
C1206 C1202 1.531 . S
C1206 H1218 0.960 . S
C1206 H1219 0.962 . S
C1206 H1220 0.960 . S
C1207 C1204 1.511 . S
C1207 H1221 0.961 . S
C1207 H1222 0.961 . S
C1207 H1223 0.961 . S
C1208 C1209 1.370 . S
C1208 C1210 1.363 . S
C1208 H1224 0.931 . S
C1209 C1208 1.370 . S
C1209 C1213 1.408 . S
C1210 C1208 1.363 . S
C1210 C1211 1.370 . S
C1210 C1214 1.524 . S
C1211 C1203 1.503 . S
C1211 C1210 1.370 . S
C1211 C1212 1.403 . S
C1212 C1211 1.403 . S
C1212 C1213 1.404 . S
C1212 C1215 1.539 . S
C1213 C1209 1.408 . S
C1213 C1212 1.404 . S
C1213 H1225 0.930 . S
C1214 C1210 1.524 . S
C1214 H1226 0.956 . S
C1214 H1227 0.961 . S
C1214 H1228 0.961 . S
C1215 C1212 1.539 . S
C1215 H1229 0.958 . S
C1215 H1230 0.961 . S
C1215 H1231 0.960 . S
H1216 C1200 0.931 . S
H1217 C1205 0.929 . S
H1218 C1206 0.960 . S
H1219 C1206 0.962 . S
H1220 C1206 0.960 . S
H1221 C1207 0.961 . S
H1222 C1207 0.961 . S
H1223 C1207 0.961 . S
H1224 C1208 0.931 . S
H1225 C1213 0.930 . S
H1226 C1214 0.956 . S
H1227 C1214 0.961 . S
H1228 C1214 0.961 . S
H1229 C1215 0.958 . S
H1230 C1215 0.961 . S
H1231 C1215 0.960 . S
C1232 C1233 1.391 . S
C1232 C1234 1.394 . S
C1232 H1248 0.931 . S
C1233 C1232 1.391 . S
C1233 C1237 1.376 . S
C1234 C1232 1.394 . S
C1234 C1235 1.369 . S
C1234 C1238 1.531 . S
C1235 C1234 1.369 . S
C1235 C1236 1.410 . S
C1235 C1243 1.503 . S
C1236 C1235 1.410 . S
C1236 C1237 1.392 . S
C1236 C1239 1.511 . S
C1237 C1233 1.376 . S
C1237 C1236 1.392 . S
C1237 H1249 0.929 . S
C1238 C1234 1.531 . S
C1238 H1250 0.960 . S
C1238 H1251 0.962 . S
C1238 H1252 0.960 . S
C1239 C1236 1.511 . S
C1239 H1253 0.961 . S
C1239 H1254 0.961 . S
C1239 H1255 0.961 . S
C1240 C1241 1.370 . S
C1240 C1242 1.363 . S
C1240 H1256 0.931 . S
C1241 C1240 1.370 . S
C1241 C1245 1.408 . S
C1242 C1240 1.363 . S
C1242 C1243 1.370 . S
C1242 C1246 1.524 . S
C1243 C1235 1.503 . S
C1243 C1242 1.370 . S
C1243 C1244 1.403 . S
C1244 C1243 1.403 . S
C1244 C1245 1.404 . S
C1244 C1247 1.539 . S
C1245 C1241 1.408 . S
C1245 C1244 1.404 . S
C1245 H1257 0.930 . S
C1246 C1242 1.524 . S
C1246 H1258 0.956 . S
C1246 H1259 0.961 . S
C1246 H1260 0.961 . S
C1247 C1244 1.539 . S
C1247 H1261 0.958 . S
C1247 H1262 0.961 . S
C1247 H1263 0.960 . S
H1248 C1232 0.931 . S
H1249 C1237 0.929 . S
H1250 C1238 0.960 . S
H1251 C1238 0.962 . S
H1252 C1238 0.960 . S
H1253 C1239 0.961 . S
H1254 C1239 0.961 . S
H1255 C1239 0.961 . S
H1256 C1240 0.931 . S
H1257 C1245 0.930 . S
H1258 C1246 0.956 . S
H1259 C1246 0.961 . S
H1260 C1246 0.961 . S
H1261 C1247 0.958 . S
H1262 C1247 0.961 . S
H1263 C1247 0.960 . S
C1264 C1265 1.391 . S
C1264 C1266 1.394 . S
C1264 H1280 0.931 . S
C1265 C1264 1.391 . S
C1265 C1269 1.376 . S
C1266 C1264 1.394 . S
C1266 C1267 1.369 . S
C1266 C1270 1.531 1_556 S
C1267 C1266 1.369 . S
C1267 C1268 1.410 . S
C1267 C1275 1.503 1_556 S
C1268 C1267 1.410 . S
C1268 C1269 1.392 . S
C1268 C1271 1.511 . S
C1269 C1265 1.376 . S
C1269 C1268 1.392 . S
C1269 H1281 0.929 . S
C1270 C1266 1.531 1_554 S
C1270 H1282 0.960 . S
C1270 H1283 0.962 . S
C1270 H1284 0.960 . S
C1271 C1268 1.511 . S
C1271 H1285 0.961 . S
C1271 H1286 0.961 . S
C1271 H1287 0.961 . S
C1272 C1273 1.370 . S
C1272 C1274 1.363 . S
C1272 H1288 0.931 . S
C1273 C1272 1.370 . S
C1273 C1277 1.408 . S
C1274 C1272 1.363 . S
C1274 C1275 1.370 . S
C1274 C1278 1.524 1_554 S
C1275 C1267 1.503 1_554 S
C1275 C1274 1.370 . S
C1275 C1276 1.403 . S
C1276 C1275 1.403 . S
C1276 C1277 1.404 . S
C1276 C1279 1.539 . S
C1277 C1273 1.408 . S
C1277 C1276 1.404 . S
C1277 H1289 0.930 . S
C1278 C1274 1.524 1_556 S
C1278 H1290 0.956 . S
C1278 H1291 0.961 . S
C1278 H1292 0.961 . S
C1279 C1276 1.539 . S
C1279 H1293 0.958 . S
C1279 H1294 0.961 . S
C1279 H1295 0.960 . S
H1280 C1264 0.931 . S
H1281 C1269 0.929 . S
H1282 C1270 0.960 . S
H1283 C1270 0.962 . S
H1284 C1270 0.960 . S
H1285 C1271 0.961 . S
H1286 C1271 0.961 . S
H1287 C1271 0.961 . S
H1288 C1272 0.931 . S
H1289 C1277 0.930 . S
H1290 C1278 0.956 . S
H1291 C1278 0.961 . S
H1292 C1278 0.961 . S
H1293 C1279 0.958 . S
H1294 C1279 0.961 . S
H1295 C1279 0.960 . S
C1296 C1297 1.391 . S
C1296 C1298 1.394 . S
C1296 H1312 0.931 . S
C1297 C1296 1.391 . S
C1297 C1301 1.376 . S
C1298 C1296 1.394 . S
C1298 C1299 1.369 . S
C1298 C1302 1.531 . S
C1299 C1298 1.369 . S
C1299 C1300 1.410 . S
C1299 C1307 1.503 . S
C1300 C1299 1.410 . S
C1300 C1301 1.392 . S
C1300 C1303 1.511 . S
C1301 C1297 1.376 . S
C1301 C1300 1.392 . S
C1301 H1313 0.929 . S
C1302 C1298 1.531 . S
C1302 H1314 0.960 . S
C1302 H1315 0.962 . S
C1302 H1316 0.960 . S
C1303 C1300 1.511 . S
C1303 H1317 0.961 . S
C1303 H1318 0.961 . S
C1303 H1319 0.961 . S
C1304 C1305 1.370 . S
C1304 C1306 1.363 . S
C1304 H1320 0.931 . S
C1305 C1304 1.370 . S
C1305 C1309 1.408 . S
C1306 C1304 1.363 . S
C1306 C1307 1.370 . S
C1306 C1310 1.524 . S
C1307 C1299 1.503 . S
C1307 C1306 1.370 . S
C1307 C1308 1.403 . S
C1308 C1307 1.403 . S
C1308 C1309 1.404 . S
C1308 C1311 1.539 . S
C1309 C1305 1.408 . S
C1309 C1308 1.404 . S
C1309 H1321 0.930 . S
C1310 C1306 1.524 . S
C1310 H1322 0.956 . S
C1310 H1323 0.961 . S
C1310 H1324 0.961 . S
C1311 C1308 1.539 . S
C1311 H1325 0.958 . S
C1311 H1326 0.961 . S
C1311 H1327 0.960 . S
H1312 C1296 0.931 . S
H1313 C1301 0.929 . S
H1314 C1302 0.960 . S
H1315 C1302 0.962 . S
H1316 C1302 0.960 . S
H1317 C1303 0.961 . S
H1318 C1303 0.961 . S
H1319 C1303 0.961 . S
H1320 C1304 0.931 . S
H1321 C1309 0.930 . S
H1322 C1310 0.956 . S
H1323 C1310 0.961 . S
H1324 C1310 0.961 . S
H1325 C1311 0.958 . S
H1326 C1311 0.961 . S
H1327 C1311 0.960 . S
C1328 C1329 1.391 . S
C1328 C1330 1.394 . S
C1328 H1344 0.931 . S
C1329 C1328 1.391 . S
C1329 C1333 1.376 . S
C1330 C1328 1.394 . S
C1330 C1331 1.369 . S
C1330 C1334 1.531 . S
C1331 C1330 1.369 . S
C1331 C1332 1.410 . S
C1331 C1339 1.503 1_554 S
C1332 C1331 1.410 . S
C1332 C1333 1.392 . S
C1332 C1335 1.511 . S
C1333 C1329 1.376 . S
C1333 C1332 1.392 . S
C1333 H1345 0.929 . S
C1334 C1330 1.531 . S
C1334 H1346 0.960 . S
C1334 H1347 0.962 . S
C1334 H1348 0.960 . S
C1335 C1332 1.511 . S
C1335 H1349 0.961 . S
C1335 H1350 0.965 . S
C1335 H1351 0.961 . S
C1336 C1337 1.370 . S
C1336 C1338 1.363 . S
C1336 H1352 0.931 . S
C1337 C1336 1.370 . S
C1337 C1341 1.408 . S
C1338 C1336 1.363 . S
C1338 C1339 1.370 . S
C1338 C1342 1.524 1_556 S
C1339 C1331 1.503 1_556 S
C1339 C1338 1.370 . S
C1339 C1340 1.403 . S
C1340 C1339 1.403 . S
C1340 C1341 1.404 . S
C1340 C1343 1.539 . S
C1341 C1337 1.408 . S
C1341 C1340 1.404 . S
C1341 H1353 0.930 . S
C1342 C1338 1.524 1_554 S
C1342 H1354 0.956 . S
C1342 H1355 0.961 . S
C1342 H1356 0.961 1_554 S
C1343 C1340 1.539 . S
C1343 H1357 0.958 . S
C1343 H1358 0.961 . S
C1343 H1359 0.960 1_556 S
H1344 C1328 0.931 . S
H1345 C1333 0.929 . S
H1346 C1334 0.960 . S
H1347 C1334 0.962 . S
H1348 C1334 0.960 . S
H1349 C1335 0.961 . S
H1350 C1335 0.965 . S
H1351 C1335 0.961 . S
H1352 C1336 0.931 . S
H1353 C1341 0.930 . S
H1354 C1342 0.956 . S
H1355 C1342 0.961 . S
H1356 C1342 0.961 1_556 S
H1357 C1343 0.958 . S
H1358 C1343 0.961 . S
H1359 C1343 0.960 1_554 S
C1360 C1361 1.391 . S
C1360 C1362 1.394 . S
C1360 H1376 0.931 . S
C1361 C1360 1.391 . S
C1361 C1365 1.376 . S
C1362 C1360 1.394 . S
C1362 C1363 1.369 . S
C1362 C1366 1.531 . S
C1363 C1362 1.369 . S
C1363 C1364 1.410 . S
C1363 C1371 1.503 . S
C1364 C1363 1.410 . S
C1364 C1365 1.392 . S
C1364 C1367 1.511 . S
C1365 C1361 1.376 . S
C1365 C1364 1.392 . S
C1365 H1377 0.929 . S
C1366 C1362 1.531 . S
C1366 H1378 0.960 . S
C1366 H1379 0.962 . S
C1366 H1380 0.960 . S
C1367 C1364 1.511 . S
C1367 H1381 0.961 . S
C1367 H1382 0.961 . S
C1367 H1383 0.961 . S
C1368 C1369 1.370 . S
C1368 C1370 1.363 . S
C1368 H1384 0.931 . S
C1369 C1368 1.370 . S
C1369 C1373 1.408 . S
C1370 C1368 1.363 . S
C1370 C1371 1.370 . S
C1370 C1374 1.524 . S
C1371 C1363 1.503 . S
C1371 C1370 1.370 . S
C1371 C1372 1.403 . S
C1372 C1371 1.403 . S
C1372 C1373 1.404 . S
C1372 C1375 1.539 . S
C1373 C1369 1.408 . S
C1373 C1372 1.404 . S
C1373 H1385 0.930 . S
C1374 C1370 1.524 . S
C1374 H1386 0.956 . S
C1374 H1387 0.961 . S
C1374 H1388 0.961 . S
C1375 C1372 1.539 . S
C1375 H1389 0.958 . S
C1375 H1390 0.961 . S
C1375 H1391 0.960 . S
H1376 C1360 0.931 . S
H1377 C1365 0.929 . S
H1378 C1366 0.960 . S
H1379 C1366 0.962 . S
H1380 C1366 0.960 . S
H1381 C1367 0.961 . S
H1382 C1367 0.961 . S
H1383 C1367 0.961 . S
H1384 C1368 0.931 . S
H1385 C1373 0.930 . S
H1386 C1374 0.956 . S
H1387 C1374 0.961 . S
H1388 C1374 0.961 . S
H1389 C1375 0.958 . S
H1390 C1375 0.961 . S
H1391 C1375 0.960 . S
C1392 C1393 1.391 . S
C1392 C1394 1.394 . S
C1392 H1408 0.931 . S
C1393 C1392 1.391 . S
C1393 C1397 1.376 . S
C1394 C1392 1.394 . S
C1394 C1395 1.369 . S
C1394 C1398 1.531 . S
C1395 C1394 1.369 . S
C1395 C1396 1.410 . S
C1395 C1403 1.503 . S
C1396 C1395 1.410 . S
C1396 C1397 1.392 . S
C1396 C1399 1.511 . S
C1397 C1393 1.376 . S
C1397 C1396 1.392 . S
C1397 H1409 0.929 . S
C1398 C1394 1.531 . S
C1398 H1410 0.960 . S
C1398 H1411 0.962 . S
C1398 H1412 0.960 . S
C1399 C1396 1.511 . S
C1399 H1413 0.961 . S
C1399 H1414 0.961 . S
C1399 H1415 0.961 . S
C1400 C1401 1.370 . S
C1400 C1402 1.363 . S
C1400 H1416 0.931 . S
C1401 C1400 1.370 . S
C1401 C1405 1.408 . S
C1402 C1400 1.363 . S
C1402 C1403 1.370 . S
C1402 C1406 1.524 . S
C1403 C1395 1.503 . S
C1403 C1402 1.370 . S
C1403 C1404 1.403 . S
C1404 C1403 1.403 . S
C1404 C1405 1.404 . S
C1404 C1407 1.539 . S
C1405 C1401 1.408 . S
C1405 C1404 1.404 . S
C1405 H1417 0.930 . S
C1406 C1402 1.524 . S
C1406 H1418 0.956 . S
C1406 H1419 0.961 . S
C1406 H1420 0.961 . S
C1407 C1404 1.539 . S
C1407 H1421 0.958 . S
C1407 H1422 0.961 . S
C1407 H1423 0.960 . S
H1408 C1392 0.931 . S
H1409 C1397 0.929 . S
H1410 C1398 0.960 . S
H1411 C1398 0.962 . S
H1412 C1398 0.960 . S
H1413 C1399 0.961 . S
H1414 C1399 0.961 . S
H1415 C1399 0.961 . S
H1416 C1400 0.931 . S
H1417 C1405 0.930 . S
H1418 C1406 0.956 . S
H1419 C1406 0.961 . S
H1420 C1406 0.961 . S
H1421 C1407 0.958 . S
H1422 C1407 0.961 . S
H1423 C1407 0.960 . S
C1424 C1425 1.391 . S
C1424 C1426 1.394 . S
C1424 H1440 0.931 . S
C1425 C1424 1.391 . S
C1425 C1429 1.376 . S
C1426 C1424 1.394 . S
C1426 C1427 1.369 . S
C1426 C1430 1.531 . S
C1427 C1426 1.369 . S
C1427 C1428 1.410 . S
C1427 C1435 1.503 . S
C1428 C1427 1.410 . S
C1428 C1429 1.392 . S
C1428 C1431 1.511 . S
C1429 C1425 1.376 . S
C1429 C1428 1.392 . S
C1429 H1441 0.929 . S
C1430 C1426 1.531 . S
C1430 H1442 0.960 . S
C1430 H1443 0.962 . S
C1430 H1444 0.960 . S
C1431 C1428 1.511 . S
C1431 H1445 0.961 . S
C1431 H1446 0.961 . S
C1431 H1447 0.961 . S
C1432 C1433 1.370 . S
C1432 C1434 1.363 . S
C1432 H1448 0.931 . S
C1433 C1432 1.370 . S
C1433 C1437 1.408 . S
C1434 C1432 1.363 . S
C1434 C1435 1.370 . S
C1434 C1438 1.524 . S
C1435 C1427 1.503 . S
C1435 C1434 1.370 . S
C1435 C1436 1.403 . S
C1436 C1435 1.403 . S
C1436 C1437 1.404 . S
C1436 C1439 1.539 . S
C1437 C1433 1.408 . S
C1437 C1436 1.404 . S
C1437 H1449 0.930 . S
C1438 C1434 1.524 . S
C1438 H1450 0.956 . S
C1438 H1451 0.961 . S
C1438 H1452 0.961 . S
C1439 C1436 1.539 . S
C1439 H1453 0.958 . S
C1439 H1454 0.961 . S
C1439 H1455 0.960 . S
H1440 C1424 0.931 . S
H1441 C1429 0.929 . S
H1442 C1430 0.960 . S
H1443 C1430 0.962 . S
H1444 C1430 0.960 . S
H1445 C1431 0.961 . S
H1446 C1431 0.961 . S
H1447 C1431 0.961 . S
H1448 C1432 0.931 . S
H1449 C1437 0.930 . S
H1450 C1438 0.956 . S
H1451 C1438 0.961 . S
H1452 C1438 0.961 . S
H1453 C1439 0.958 . S
H1454 C1439 0.961 . S
H1455 C1439 0.960 . S
C1456 C1457 1.391 . S
C1456 C1458 1.394 . S
C1456 H1472 0.931 . S
C1457 C1456 1.391 . S
C1457 C1461 1.376 . S
C1458 C1456 1.394 . S
C1458 C1459 1.369 . S
C1458 C1462 1.531 . S
C1459 C1458 1.369 . S
C1459 C1460 1.410 . S
C1459 C1467 1.503 . S
C1460 C1459 1.410 . S
C1460 C1461 1.392 . S
C1460 C1463 1.511 . S
C1461 C1457 1.376 . S
C1461 C1460 1.392 . S
C1461 H1473 0.929 . S
C1462 C1458 1.531 . S
C1462 H1474 0.960 . S
C1462 H1475 0.962 . S
C1462 H1476 0.960 . S
C1463 C1460 1.511 . S
C1463 H1477 0.961 . S
C1463 H1478 0.961 . S
C1463 H1479 0.961 . S
C1464 C1465 1.370 . S
C1464 C1466 1.363 . S
C1464 H1480 0.931 . S
C1465 C1464 1.370 . S
C1465 C1469 1.408 . S
C1466 C1464 1.363 . S
C1466 C1467 1.370 . S
C1466 C1470 1.524 . S
C1467 C1459 1.503 . S
C1467 C1466 1.370 . S
C1467 C1468 1.403 . S
C1468 C1467 1.403 . S
C1468 C1469 1.404 . S
C1468 C1471 1.539 . S
C1469 C1465 1.408 . S
C1469 C1468 1.404 . S
C1469 H1481 0.930 . S
C1470 C1466 1.524 . S
C1470 H1482 0.956 . S
C1470 H1483 0.961 . S
C1470 H1484 0.961 . S
C1471 C1468 1.539 . S
C1471 H1485 0.958 . S
C1471 H1486 0.961 . S
C1471 H1487 0.960 . S
H1472 C1456 0.931 . S
H1473 C1461 0.929 . S
H1474 C1462 0.960 . S
H1475 C1462 0.962 . S
H1476 C1462 0.960 . S
H1477 C1463 0.961 . S
H1478 C1463 0.961 . S
H1479 C1463 0.961 . S
H1480 C1464 0.931 . S
H1481 C1469 0.930 . S
H1482 C1470 0.956 . S
H1483 C1470 0.961 . S
H1484 C1470 0.961 . S
H1485 C1471 0.958 . S
H1486 C1471 0.961 . S
H1487 C1471 0.960 . S
C1488 C1489 1.391 . S
C1488 C1490 1.394 . S
C1488 H1504 0.931 . S
C1489 C1488 1.391 . S
C1489 C1493 1.376 . S
C1490 C1488 1.394 . S
C1490 C1491 1.369 . S
C1490 C1494 1.531 . S
C1491 C1490 1.369 . S
C1491 C1492 1.410 . S
C1491 C1499 1.503 . S
C1492 C1491 1.410 . S
C1492 C1493 1.392 . S
C1492 C1495 1.511 . S
C1493 C1489 1.376 . S
C1493 C1492 1.392 . S
C1493 H1505 0.929 . S
C1494 C1490 1.531 . S
C1494 H1506 0.960 . S
C1494 H1507 0.962 . S
C1494 H1508 0.960 . S
C1495 C1492 1.511 . S
C1495 H1509 0.961 . S
C1495 H1510 0.961 . S
C1495 H1511 0.961 . S
C1496 C1497 1.370 . S
C1496 C1498 1.363 . S
C1496 H1512 0.931 . S
C1497 C1496 1.370 . S
C1497 C1501 1.408 . S
C1498 C1496 1.363 . S
C1498 C1499 1.370 . S
C1498 C1502 1.524 . S
C1499 C1491 1.503 . S
C1499 C1498 1.370 . S
C1499 C1500 1.403 . S
C1500 C1499 1.403 . S
C1500 C1501 1.404 . S
C1500 C1503 1.539 . S
C1501 C1497 1.408 . S
C1501 C1500 1.404 . S
C1501 H1513 0.930 . S
C1502 C1498 1.524 . S
C1502 H1514 0.956 . S
C1502 H1515 0.961 . S
C1502 H1516 0.961 . S
C1503 C1500 1.539 . S
C1503 H1517 0.958 . S
C1503 H1518 0.961 . S
C1503 H1519 0.960 . S
H1504 C1488 0.931 . S
H1505 C1493 0.929 . S
H1506 C1494 0.960 . S
H1507 C1494 0.962 . S
H1508 C1494 0.960 . S
H1509 C1495 0.961 . S
H1510 C1495 0.961 . S
H1511 C1495 0.961 . S
H1512 C1496 0.931 . S
H1513 C1501 0.930 . S
H1514 C1502 0.956 . S
H1515 C1502 0.961 . S
H1516 C1502 0.961 . S
H1517 C1503 0.958 . S
H1518 C1503 0.961 . S
H1519 C1503 0.960 . S
C1520 C1521 1.391 . S
C1520 C1522 1.394 . S
C1520 H1536 0.931 . S
C1521 C1520 1.391 . S
C1521 C1525 1.376 . S
C1522 C1520 1.394 . S
C1522 C1523 1.369 . S
C1522 C1526 1.531 . S
C1523 C1522 1.369 . S
C1523 C1524 1.410 . S
C1523 C1531 1.503 1_556 S
C1524 C1523 1.410 . S
C1524 C1525 1.392 . S
C1524 C1527 1.511 . S
C1525 C1521 1.376 . S
C1525 C1524 1.392 . S
C1525 H1537 0.929 . S
C1526 C1522 1.531 . S
C1526 H1538 0.969 . S
C1526 H1539 0.962 . S
C1526 H1540 0.960 . S
C1527 C1524 1.511 . S
C1527 H1541 0.961 . S
C1527 H1542 0.961 . S
C1527 H1543 0.961 . S
C1528 C1529 1.370 . S
C1528 C1530 1.363 . S
C1528 H1544 0.931 . S
C1529 C1528 1.370 . S
C1529 C1533 1.408 . S
C1530 C1528 1.363 . S
C1530 C1531 1.370 . S
C1530 C1534 1.524 . S
C1531 C1523 1.503 1_554 S
C1531 C1530 1.370 . S
C1531 C1532 1.403 . S
C1532 C1531 1.403 . S
C1532 C1533 1.404 . S
C1532 C1535 1.539 . S
C1533 C1529 1.408 . S
C1533 C1532 1.404 . S
C1533 H1545 0.930 . S
C1534 C1530 1.524 . S
C1534 H1546 0.956 1_554 S
C1534 H1547 0.961 1_554 S
C1534 H1548 0.961 . S
C1535 C1532 1.539 . S
C1535 H1549 0.958 . S
C1535 H1550 0.961 . S
C1535 H1551 0.960 1_554 S
H1536 C1520 0.931 . S
H1537 C1525 0.929 . S
H1538 C1526 0.969 . S
H1539 C1526 0.962 . S
H1540 C1526 0.960 . S
H1541 C1527 0.961 . S
H1542 C1527 0.961 . S
H1543 C1527 0.961 . S
H1544 C1528 0.931 . S
H1545 C1533 0.930 . S
H1546 C1534 0.956 1_556 S
H1547 C1534 0.961 1_556 S
H1548 C1534 0.961 . S
H1549 C1535 0.958 . S
H1550 C1535 0.961 . S
H1551 C1535 0.960 1_556 S
C1552 C1553 1.391 . S
C1552 C1554 1.394 . S
C1552 H1568 0.931 . S
C1553 C1552 1.391 . S
C1553 C1557 1.376 . S
C1554 C1552 1.394 . S
C1554 C1555 1.369 . S
C1554 C1558 1.531 . S
C1555 C1554 1.369 . S
C1555 C1556 1.410 . S
C1555 C1563 1.503 1_554 S
C1556 C1555 1.410 . S
C1556 C1557 1.392 . S
C1556 C1559 1.511 . S
C1557 C1553 1.376 . S
C1557 C1556 1.392 . S
C1557 H1569 0.929 . S
C1558 C1554 1.531 . S
C1558 H1570 0.960 1_554 S
C1558 H1571 0.962 . S
C1558 H1572 0.960 . S
C1559 C1556 1.511 . S
C1559 H1573 0.960 . S
C1559 H1574 0.962 1_554 S
C1559 H1575 0.961 1_554 S
C1560 C1561 1.370 . S
C1560 C1562 1.363 . S
C1560 H1576 0.931 . S
C1561 C1560 1.370 . S
C1561 C1565 1.408 . S
C1562 C1560 1.363 . S
C1562 C1563 1.370 . S
C1562 C1566 1.524 . S
C1563 C1555 1.503 1_556 S
C1563 C1562 1.370 . S
C1563 C1564 1.403 . S
C1564 C1563 1.403 . S
C1564 C1565 1.404 . S
C1564 C1567 1.539 . S
C1565 C1561 1.408 . S
C1565 C1564 1.404 . S
C1565 H1577 0.930 . S
C1566 C1562 1.524 . S
C1566 H1578 0.956 . S
C1566 H1579 0.961 . S
C1566 H1580 0.961 . S
C1567 C1564 1.539 . S
C1567 H1581 0.958 . S
C1567 H1582 0.961 . S
C1567 H1583 0.960 . S
H1568 C1552 0.931 . S
H1569 C1557 0.929 . S
H1570 C1558 0.960 1_556 S
H1571 C1558 0.962 . S
H1572 C1558 0.960 . S
H1573 C1559 0.960 . S
H1574 C1559 0.962 1_556 S
H1575 C1559 0.961 1_556 S
H1576 C1560 0.931 . S
H1577 C1565 0.930 . S
H1578 C1566 0.956 . S
H1579 C1566 0.961 . S
H1580 C1566 0.961 . S
H1581 C1567 0.958 . S
H1582 C1567 0.961 . S
H1583 C1567 0.960 . S
C1584 C1585 1.391 . S
C1584 C1586 1.394 . S
C1584 H1600 0.931 . S
C1585 C1584 1.391 . S
C1585 C1589 1.376 . S
C1586 C1584 1.394 . S
C1586 C1587 1.369 . S
C1586 C1590 1.531 . S
C1587 C1586 1.369 . S
C1587 C1588 1.410 . S
C1587 C1595 1.503 . S
C1588 C1587 1.410 . S
C1588 C1589 1.392 . S
C1588 C1591 1.511 . S
C1589 C1585 1.376 . S
C1589 C1588 1.392 . S
C1589 H1601 0.929 . S
C1590 C1586 1.531 . S
C1590 H1602 0.960 . S
C1590 H1603 0.962 . S
C1590 H1604 0.960 . S
C1591 C1588 1.511 . S
C1591 H1605 0.961 . S
C1591 H1606 0.961 . S
C1591 H1607 0.961 . S
C1592 C1593 1.370 . S
C1592 C1594 1.363 . S
C1592 H1608 0.931 . S
C1593 C1592 1.370 . S
C1593 C1597 1.408 . S
C1594 C1592 1.363 . S
C1594 C1595 1.370 . S
C1594 C1598 1.524 . S
C1595 C1587 1.503 . S
C1595 C1594 1.370 . S
C1595 C1596 1.403 . S
C1596 C1595 1.403 . S
C1596 C1597 1.404 . S
C1596 C1599 1.539 . S
C1597 C1593 1.408 . S
C1597 C1596 1.404 . S
C1597 H1609 0.930 . S
C1598 C1594 1.524 . S
C1598 H1610 0.956 . S
C1598 H1611 0.961 . S
C1598 H1612 0.961 . S
C1599 C1596 1.539 . S
C1599 H1613 0.958 . S
C1599 H1614 0.961 . S
C1599 H1615 0.960 . S
H1600 C1584 0.931 . S
H1601 C1589 0.929 . S
H1602 C1590 0.960 . S
H1603 C1590 0.962 . S
H1604 C1590 0.960 . S
H1605 C1591 0.961 . S
H1606 C1591 0.961 . S
H1607 C1591 0.961 . S
H1608 C1592 0.931 . S
H1609 C1597 0.930 . S
H1610 C1598 0.956 . S
H1611 C1598 0.961 . S
H1612 C1598 0.961 . S
H1613 C1599 0.958 . S
H1614 C1599 0.961 . S
H1615 C1599 0.960 . S
C1616 C1617 1.391 . S
C1616 C1618 1.394 . S
C1616 H1632 0.931 . S
C1617 C1616 1.391 . S
C1617 C1621 1.376 . S
C1618 C1616 1.394 . S
C1618 C1619 1.369 . S
C1618 C1622 1.531 . S
C1619 C1618 1.369 . S
C1619 C1620 1.410 . S
C1619 C1627 1.503 . S
C1620 C1619 1.410 . S
C1620 C1621 1.392 . S
C1620 C1623 1.511 . S
C1621 C1617 1.376 . S
C1621 C1620 1.392 . S
C1621 H1633 0.929 . S
C1622 C1618 1.531 . S
C1622 H1634 0.960 . S
C1622 H1635 0.962 . S
C1622 H1636 0.960 . S
C1623 C1620 1.511 . S
C1623 H1637 0.961 . S
C1623 H1638 0.961 . S
C1623 H1639 0.961 . S
C1624 C1625 1.370 . S
C1624 C1626 1.363 . S
C1624 H1640 0.931 . S
C1625 C1624 1.370 . S
C1625 C1629 1.408 . S
C1626 C1624 1.363 . S
C1626 C1627 1.370 . S
C1626 C1630 1.524 . S
C1627 C1619 1.503 . S
C1627 C1626 1.370 . S
C1627 C1628 1.403 . S
C1628 C1627 1.403 . S
C1628 C1629 1.404 . S
C1628 C1631 1.539 . S
C1629 C1625 1.408 . S
C1629 C1628 1.404 . S
C1629 H1641 0.930 . S
C1630 C1626 1.524 . S
C1630 H1642 0.956 . S
C1630 H1643 0.961 . S
C1630 H1644 0.961 . S
C1631 C1628 1.539 . S
C1631 H1645 0.958 . S
C1631 H1646 0.961 . S
C1631 H1647 0.960 . S
H1632 C1616 0.931 . S
H1633 C1621 0.929 . S
H1634 C1622 0.960 . S
H1635 C1622 0.962 . S
H1636 C1622 0.960 . S
H1637 C1623 0.961 . S
H1638 C1623 0.961 . S
H1639 C1623 0.961 . S
H1640 C1624 0.931 . S
H1641 C1629 0.930 . S
H1642 C1630 0.956 . S
H1643 C1630 0.961 . S
H1644 C1630 0.961 . S
H1645 C1631 0.958 . S
H1646 C1631 0.961 . S
H1647 C1631 0.960 . S
C1648 C1649 1.391 . S
C1648 C1650 1.394 . S
C1648 H1664 0.931 . S
C1649 C1648 1.391 . S
C1649 C1653 1.376 . S
C1650 C1648 1.394 . S
C1650 C1651 1.369 . S
C1650 C1654 1.531 . S
C1651 C1650 1.369 . S
C1651 C1652 1.410 . S
C1651 C1659 1.503 1_554 S
C1652 C1651 1.410 . S
C1652 C1653 1.392 . S
C1652 C1655 1.511 . S
C1653 C1649 1.376 . S
C1653 C1652 1.392 . S
C1653 H1665 0.929 . S
C1654 C1650 1.531 . S
C1654 H1666 0.960 . S
C1654 H1667 0.962 . S
C1654 H1668 0.960 . S
C1655 C1652 1.511 . S
C1655 H1669 0.961 . S
C1655 H1670 0.961 . S
C1655 H1671 0.961 . S
C1656 C1657 1.370 . S
C1656 C1658 1.363 . S
C1656 H1672 0.931 . S
C1657 C1656 1.370 . S
C1657 C1661 1.408 . S
C1658 C1656 1.363 . S
C1658 C1659 1.370 . S
C1658 C1662 1.524 . S
C1659 C1651 1.503 1_556 S
C1659 C1658 1.370 . S
C1659 C1660 1.403 . S
C1660 C1659 1.403 . S
C1660 C1661 1.404 . S
C1660 C1663 1.535 1_556 S
C1661 C1657 1.408 . S
C1661 C1660 1.404 . S
C1661 H1673 0.930 . S
C1662 C1658 1.524 . S
C1662 H1674 0.956 1_556 S
C1662 H1675 0.961 1_556 S
C1662 H1676 0.961 . S
C1663 C1660 1.535 1_554 S
C1663 H1677 0.958 . S
C1663 H1678 0.958 1_554 S
C1663 H1679 0.967 . S
H1664 C1648 0.931 . S
H1665 C1653 0.929 . S
H1666 C1654 0.960 . S
H1667 C1654 0.962 . S
H1668 C1654 0.960 . S
H1669 C1655 0.961 . S
H1670 C1655 0.961 . S
H1671 C1655 0.961 . S
H1672 C1656 0.931 . S
H1673 C1661 0.930 . S
H1674 C1662 0.956 1_554 S
H1675 C1662 0.961 1_554 S
H1676 C1662 0.961 . S
H1677 C1663 0.958 . S
H1678 C1663 0.958 1_556 S
H1679 C1663 0.967 . S
C1680 C1681 1.391 . S
C1680 C1682 1.394 . S
C1680 H1696 0.931 . S
C1681 C1680 1.391 . S
C1681 C1685 1.376 . S
C1682 C1680 1.394 . S
C1682 C1683 1.369 . S
C1682 C1686 1.531 . S
C1683 C1682 1.369 . S
C1683 C1684 1.410 . S
C1683 C1691 1.503 . S
C1684 C1683 1.410 . S
C1684 C1685 1.392 . S
C1684 C1687 1.511 . S
C1685 C1681 1.376 . S
C1685 C1684 1.392 . S
C1685 H1697 0.929 . S
C1686 C1682 1.531 . S
C1686 H1698 0.960 . S
C1686 H1699 0.962 . S
C1686 H1700 0.960 . S
C1687 C1684 1.511 . S
C1687 H1701 0.961 . S
C1687 H1702 0.961 . S
C1687 H1703 0.961 . S
C1688 C1689 1.370 . S
C1688 C1690 1.363 . S
C1688 H1704 0.931 . S
C1689 C1688 1.370 . S
C1689 C1693 1.408 . S
C1690 C1688 1.363 . S
C1690 C1691 1.370 . S
C1690 C1694 1.524 . S
C1691 C1683 1.503 . S
C1691 C1690 1.370 . S
C1691 C1692 1.403 . S
C1692 C1691 1.403 . S
C1692 C1693 1.404 . S
C1692 C1695 1.539 . S
C1693 C1689 1.408 . S
C1693 C1692 1.404 . S
C1693 H1705 0.930 . S
C1694 C1690 1.524 . S
C1694 H1706 0.956 . S
C1694 H1707 0.961 . S
C1694 H1708 0.961 . S
C1695 C1692 1.539 . S
C1695 H1709 0.958 . S
C1695 H1710 0.961 . S
C1695 H1711 0.960 . S
H1696 C1680 0.931 . S
H1697 C1685 0.929 . S
H1698 C1686 0.960 . S
H1699 C1686 0.962 . S
H1700 C1686 0.960 . S
H1701 C1687 0.961 . S
H1702 C1687 0.961 . S
H1703 C1687 0.961 . S
H1704 C1688 0.931 . S
H1705 C1693 0.930 . S
H1706 C1694 0.956 . S
H1707 C1694 0.961 . S
H1708 C1694 0.961 . S
H1709 C1695 0.958 . S
H1710 C1695 0.961 . S
H1711 C1695 0.960 . S
C1712 C1713 1.391 . S
C1712 C1714 1.394 . S
C1712 H1728 0.931 . S
C1713 C1712 1.391 . S
C1713 C1717 1.376 . S
C1714 C1712 1.394 . S
C1714 C1715 1.369 . S
C1714 C1718 1.531 . S
C1715 C1714 1.369 . S
C1715 C1716 1.410 . S
C1715 C1723 1.503 . S
C1716 C1715 1.410 . S
C1716 C1717 1.392 . S
C1716 C1719 1.511 . S
C1717 C1713 1.376 . S
C1717 C1716 1.392 . S
C1717 H1729 0.929 . S
C1718 C1714 1.531 . S
C1718 H1730 0.960 . S
C1718 H1731 0.962 . S
C1718 H1732 0.960 . S
C1719 C1716 1.511 . S
C1719 H1733 0.961 . S
C1719 H1734 0.961 . S
C1719 H1735 0.961 . S
C1720 C1721 1.370 . S
C1720 C1722 1.363 . S
C1720 H1736 0.931 . S
C1721 C1720 1.370 . S
C1721 C1725 1.408 . S
C1722 C1720 1.363 . S
C1722 C1723 1.370 . S
C1722 C1726 1.524 . S
C1723 C1715 1.503 . S
C1723 C1722 1.370 . S
C1723 C1724 1.403 . S
C1724 C1723 1.403 . S
C1724 C1725 1.404 . S
C1724 C1727 1.539 . S
C1725 C1721 1.408 . S
C1725 C1724 1.404 . S
C1725 H1737 0.930 . S
C1726 C1722 1.524 . S
C1726 H1738 0.956 . S
C1726 H1739 0.961 . S
C1726 H1740 0.961 . S
C1727 C1724 1.539 . S
C1727 H1741 0.958 . S
C1727 H1742 0.961 . S
C1727 H1743 0.960 . S
H1728 C1712 0.931 . S
H1729 C1717 0.929 . S
H1730 C1718 0.960 . S
H1731 C1718 0.962 . S
H1732 C1718 0.960 . S
H1733 C1719 0.961 . S
H1734 C1719 0.961 . S
H1735 C1719 0.961 . S
H1736 C1720 0.931 . S
H1737 C1725 0.930 . S
H1738 C1726 0.956 . S
H1739 C1726 0.961 . S
H1740 C1726 0.961 . S
H1741 C1727 0.958 . S
H1742 C1727 0.961 . S
H1743 C1727 0.960 . S
C1744 C1745 1.391 . S
C1744 C1746 1.394 . S
C1744 H1760 0.931 . S
C1745 C1744 1.391 . S
C1745 C1749 1.376 . S
C1746 C1744 1.394 . S
C1746 C1747 1.369 . S
C1746 C1750 1.531 . S
C1747 C1746 1.369 . S
C1747 C1748 1.410 . S
C1747 C1755 1.503 . S
C1748 C1747 1.410 . S
C1748 C1749 1.392 . S
C1748 C1751 1.511 . S
C1749 C1745 1.376 . S
C1749 C1748 1.392 . S
C1749 H1761 0.929 . S
C1750 C1746 1.531 . S
C1750 H1762 0.960 . S
C1750 H1763 0.962 . S
C1750 H1764 0.960 . S
C1751 C1748 1.511 . S
C1751 H1765 0.961 . S
C1751 H1766 0.961 . S
C1751 H1767 0.961 . S
C1752 C1753 1.370 . S
C1752 C1754 1.363 . S
C1752 H1768 0.931 . S
C1753 C1752 1.370 . S
C1753 C1757 1.408 . S
C1754 C1752 1.363 . S
C1754 C1755 1.370 . S
C1754 C1758 1.524 . S
C1755 C1747 1.503 . S
C1755 C1754 1.370 . S
C1755 C1756 1.403 . S
C1756 C1755 1.403 . S
C1756 C1757 1.404 . S
C1756 C1759 1.539 . S
C1757 C1753 1.408 . S
C1757 C1756 1.404 . S
C1757 H1769 0.930 . S
C1758 C1754 1.524 . S
C1758 H1770 0.956 . S
C1758 H1771 0.961 . S
C1758 H1772 0.961 . S
C1759 C1756 1.539 . S
C1759 H1773 0.958 . S
C1759 H1774 0.961 . S
C1759 H1775 0.960 . S
H1760 C1744 0.931 . S
H1761 C1749 0.929 . S
H1762 C1750 0.960 . S
H1763 C1750 0.962 . S
H1764 C1750 0.960 . S
H1765 C1751 0.961 . S
H1766 C1751 0.961 . S
H1767 C1751 0.961 . S
H1768 C1752 0.931 . S
H1769 C1757 0.930 . S
H1770 C1758 0.956 . S
H1771 C1758 0.961 . S
H1772 C1758 0.961 . S
H1773 C1759 0.958 . S
H1774 C1759 0.961 . S
H1775 C1759 0.960 . S
C1776 C1777 1.391 . S
C1776 C1778 1.394 . S
C1776 H1792 0.931 . S
C1777 C1776 1.391 . S
C1777 C1781 1.376 . S
C1778 C1776 1.394 . S
C1778 C1779 1.369 . S
C1778 C1782 1.531 . S
C1779 C1778 1.369 . S
C1779 C1780 1.410 . S
C1779 C1787 1.503 . S
C1780 C1779 1.410 . S
C1780 C1781 1.392 . S
C1780 C1783 1.511 . S
C1781 C1777 1.376 . S
C1781 C1780 1.392 . S
C1781 H1793 0.929 . S
C1782 C1778 1.531 . S
C1782 H1794 0.960 . S
C1782 H1795 0.962 . S
C1782 H1796 0.960 . S
C1783 C1780 1.511 . S
C1783 H1797 0.961 . S
C1783 H1798 0.961 . S
C1783 H1799 0.961 . S
C1784 C1785 1.370 . S
C1784 C1786 1.363 . S
C1784 H1800 0.931 . S
C1785 C1784 1.370 . S
C1785 C1789 1.408 . S
C1786 C1784 1.363 . S
C1786 C1787 1.370 . S
C1786 C1790 1.524 . S
C1787 C1779 1.503 . S
C1787 C1786 1.370 . S
C1787 C1788 1.403 . S
C1788 C1787 1.403 . S
C1788 C1789 1.404 . S
C1788 C1791 1.539 . S
C1789 C1785 1.408 . S
C1789 C1788 1.404 . S
C1789 H1801 0.930 . S
C1790 C1786 1.524 . S
C1790 H1802 0.956 . S
C1790 H1803 0.961 . S
C1790 H1804 0.961 . S
C1791 C1788 1.539 . S
C1791 H1805 0.958 . S
C1791 H1806 0.961 . S
C1791 H1807 0.960 . S
H1792 C1776 0.931 . S
H1793 C1781 0.929 . S
H1794 C1782 0.960 . S
H1795 C1782 0.962 . S
H1796 C1782 0.960 . S
H1797 C1783 0.961 . S
H1798 C1783 0.961 . S
H1799 C1783 0.961 . S
H1800 C1784 0.931 . S
H1801 C1789 0.930 . S
H1802 C1790 0.956 . S
H1803 C1790 0.961 . S
H1804 C1790 0.961 . S
H1805 C1791 0.958 . S
H1806 C1791 0.961 . S
H1807 C1791 0.960 . S
C529 C238 1.476 . S
C537 C7 1.466 . S
C561 C40 1.469 . S
C569 C139 1.479 . S
C593 C73 1.512 . S
C601 C172 1.520 . S
C625 C205 1.499 . S
C633 C106 1.519 . S
C657 C384 1.500 . S
C665 C153 1.517 . S
C689 C285 1.515 . S
C697 C21 1.515 . S
C721 C219 1.563 . S
C729 C351 1.557 . S
C753 C87 1.535 . S
C761 C318 1.555 . S
C785 C304 1.491 . S
C793 C403 1.513 . S
C817 C469 1.483 . S
C825 C337 1.507 . S
C849 C436 1.458 . S
C857 C271 1.475 . S
C881 C370 1.456 . S
C889 C502 1.477 . S
C913 C120 1.547 . S
C921 C483 1.557 . S
C945 C186 1.565 . S
C953 C417 1.557 . S
C977 C54 1.499 . S
C985 C516 1.513 . S
C1009 C252 1.529 . S
C1017 C450 1.522 . S
C1041 C18 1.329 . S
C1049 C150 1.385 . S
C1073 C183 1.358 . S
C1081 C51 1.392 . S
C1105 C216 1.537 . S
C1113 C84 1.519 . S
C1137 C117 1.363 . S
C1145 C249 1.390 . S
C1169 C348 1.395 . S
C1177 C282 1.371 . S
C1201 C315 1.373 . S
C1209 C381 1.387 . S
C1233 C414 1.483 . S
C1241 C480 1.536 . S
C1265 C513 1.332 . S
C1273 C447 1.384 . S
C1297 N13 0.892 1_556 S
C1305 N2 0.912 . S
C1329 N46 0.911 . S
C1337 N35 0.894 . S
C1361 N68 0.928 . S
C1369 N79 0.934 . S
C1393 N101 0.926 . S
C1401 N112 0.901 . S
C1425 N134 0.920 . S
C1433 N145 0.899 1_554 S
C1457 N167 0.889 . S
C1465 N178 0.915 . S
C1489 N211 0.941 . S
C1497 N200 0.925 . S
C1521 N244 0.881 . S
C1529 N233 0.905 . S
C1553 N266 0.888 . S
C1561 N277 0.901 . S
C1585 N299 0.925 . S
C1593 N310 0.901 . S
C1617 N343 0.896 . S
C1625 N332 0.911 . S
C1649 N376 0.886 . S
C1657 N365 0.902 . S
C1681 N409 0.915 . S
C1689 N398 0.938 . S
C1713 N442 0.914 1_556 S
C1721 N431 0.900 . S
C1745 N475 0.917 . S
C1753 N464 0.938 . S
C1777 N497 0.909 . S
C1785 N508 0.902 1_554 S
