# Generated by pormake.
# Topology noz, (5)-cn, num edge types: 1
# Building blocks:
#     Node 0, Type 0, BuildingBlock: XOMCOT_clean_sbu_0, # of connection points: 5
#     Node 1, Type 0, BuildingBlock: XOMCOT_clean_sbu_0, # of connection points: 5
#     Node 2, Type 0, BuildingBlock: XOMCOT_clean_sbu_0, # of connection points: 5
#     Node 3, Type 0, BuildingBlock: XOMCOT_clean_sbu_0, # of connection points: 5
#     Node 4, Type 0, BuildingBlock: XOMCOT_clean_sbu_0, # of connection points: 5
#     Node 5, Type 0, BuildingBlock: XOMCOT_clean_sbu_0, # of connection points: 5
#     Node 6, Type 0, BuildingBlock: XOMCOT_clean_sbu_0, # of connection points: 5
#     Node 7, Type 0, BuildingBlock: XOMCOT_clean_sbu_0, # of connection points: 5
#     Edge 8, Type (0, 0), BuildingBlock: ZUJKAS_clean_linker_0, # of connection points: 2
#     Edge 9, Type (0, 0), BuildingBlock: ZUJKAS_clean_linker_0, # of connection points: 2
#     Edge 10, Type (0, 0), BuildingBlock: ZUJKAS_clean_linker_0, # of connection points: 2
#     Edge 11, Type (0, 0), BuildingBlock: ZUJKAS_clean_linker_0, # of connection points: 2
#     Edge 12, Type (0, 0), BuildingBlock: ZUJKAS_clean_linker_0, # of connection points: 2
#     Edge 13, Type (0, 0), BuildingBlock: ZUJKAS_clean_linker_0, # of connection points: 2
#     Edge 14, Type (0, 0), BuildingBlock: ZUJKAS_clean_linker_0, # of connection points: 2
#     Edge 15, Type (0, 0), BuildingBlock: ZUJKAS_clean_linker_0, # of connection points: 2
#     Edge 16, Type (0, 0), BuildingBlock: ZUJKAS_clean_linker_0, # of connection points: 2
#     Edge 17, Type (0, 0), BuildingBlock: ZUJKAS_clean_linker_0, # of connection points: 2
#     Edge 18, Type (0, 0), BuildingBlock: ZUJKAS_clean_linker_0, # of connection points: 2
#     Edge 19, Type (0, 0), BuildingBlock: ZUJKAS_clean_linker_0, # of connection points: 2
#     Edge 20, Type (0, 0), BuildingBlock: ZUJKAS_clean_linker_0, # of connection points: 2
#     Edge 21, Type (0, 0), BuildingBlock: ZUJKAS_clean_linker_0, # of connection points: 2
#     Edge 22, Type (0, 0), BuildingBlock: ZUJKAS_clean_linker_0, # of connection points: 2
#     Edge 23, Type (0, 0), BuildingBlock: ZUJKAS_clean_linker_0, # of connection points: 2
#     Edge 24, Type (0, 0), BuildingBlock: ZUJKAS_clean_linker_0, # of connection points: 2
#     Edge 25, Type (0, 0), BuildingBlock: ZUJKAS_clean_linker_0, # of connection points: 2
#     Edge 26, Type (0, 0), BuildingBlock: ZUJKAS_clean_linker_0, # of connection points: 2
#     Edge 27, Type (0, 0), BuildingBlock: ZUJKAS_clean_linker_0, # of connection points: 2
# Relax obj value: 0.106
# Max RMSD: 0.194
# Mean RMSD: 0.194
data_MOF--net-noz--node1-XOMCOT_clean_sbu_0--edge1-ZUJKAS_clean_linker_0
_symmetry_space_group_name_H-M    P1
_symmetry_Int_Tables_number       1
_symmetry_cell_setting            triclinic
loop_
_symmetry_equiv_pos_as_xyz
'x, y, z'
_cell_length_a     31.000874
_cell_length_b     63.787705
_cell_length_c     45.831497
_cell_angle_alpha  89.350383
_cell_angle_beta   90.005135
_cell_angle_gamma 90.100734
loop_
_atom_site_label
_atom_site_type_symbol
_atom_site_fract_x
_atom_site_fract_y
_atom_site_fract_z
_atom_type_partial_charge
Co0 Co 0.15128 0.32829 0.39258 0.0
C1 C 0.22841 0.3126 0.42795 0.0
C2 C 0.17693 0.29048 0.42317 0.0
C3 C 0.21047 0.28054 0.43675 0.0
N4 N 0.18715 0.31079 0.41816 0.0
N5 N 0.243 0.29431 0.43967 0.0
H6 H 0.24869 0.32618 0.4246 0.0
H7 H 0.14778 0.28287 0.41579 0.0
C8 C 0.09056 0.31199 0.43717 0.0
O9 O 0.11851 0.31919 0.45618 0.0
N10 N 0.11478 0.34413 0.36608 0.0
C11 C 0.12011 0.36406 0.35675 0.0
C12 C 0.08528 0.36953 0.33954 0.0
C13 C 0.07728 0.33764 0.35413 0.0
N14 N 0.05835 0.3529 0.33792 0.0
C15 C 0.184 0.36159 0.42827 0.0
C16 C 0.10476 0.37881 0.44167 0.0
C17 C 0.14225 0.38972 0.44953 0.0
C18 C 0.18224 0.3806 0.44313 0.0
C19 C 0.10795 0.35983 0.42684 0.0
N20 N 0.14726 0.3513 0.42036 0.0
H21 H 0.21502 0.356 0.42143 0.0
H22 H 0.07862 0.35261 0.41908 0.0
H23 H 0.14697 0.37403 0.36256 0.0
H24 H 0.06356 0.32224 0.35792 0.0
O25 O 0.20159 0.33799 0.37207 0.0
O26 O 0.16553 0.3092 0.36094 0.0
O27 O 0.09804 0.31418 0.40978 0.0
C28 C 0.19803 0.32173 0.35552 0.0
H29 H 0.21145 0.26414 0.44307 0.0
H30 H 0.08022 0.3846 0.32902 0.0
H31 H 0.07313 0.38544 0.44542 0.0
H32 H 0.21213 0.38842 0.44866 0.0
Co33 Co 0.58807 0.68616 0.90591 0.0
C34 C 0.66642 0.67762 0.86823 0.0
C35 C 0.61744 0.69571 0.84681 0.0
C36 C 0.65162 0.69384 0.82809 0.0
N37 N 0.62562 0.6849 0.87169 0.0
N38 N 0.68246 0.68247 0.84148 0.0
H39 H 0.685 0.66985 0.885 0.0
H40 H 0.58914 0.70521 0.84288 0.0
C41 C 0.52829 0.67557 0.85761 0.0
O42 O 0.55567 0.6605 0.85166 0.0
N43 N 0.55071 0.68879 0.93939 0.0
C44 C 0.55462 0.67911 0.9655 0.0
C45 C 0.52326 0.68672 0.98386 0.0
C46 C 0.51751 0.70225 0.94221 0.0
N47 N 0.49997 0.70133 0.96924 0.0
C48 C 0.62001 0.64445 0.91601 0.0
C49 C 0.54088 0.62454 0.91826 0.0
C50 C 0.57817 0.61278 0.92419 0.0
C51 C 0.6181 0.62309 0.92286 0.0
C52 C 0.54426 0.64596 0.91155 0.0
N53 N 0.58364 0.65562 0.90967 0.0
H54 H 0.65068 0.65218 0.91777 0.0
H55 H 0.51495 0.65492 0.90893 0.0
H56 H 0.57915 0.66768 0.97097 0.0
H57 H 0.50687 0.71264 0.92485 0.0
O58 O 0.63733 0.68997 0.93068 0.0
O59 O 0.6022 0.71586 0.9086 0.0
O60 O 0.53568 0.68765 0.87922 0.0
C61 C 0.63363 0.70995 0.92576 0.0
H62 H 0.65448 0.70121 0.80678 0.0
H63 H 0.51901 0.68231 0.00655 0.0
H64 H 0.5092 0.6174 0.91936 0.0
H65 H 0.64767 0.61501 0.92856 0.0
Co66 Co 0.14472 0.665 0.60955 0.0
C67 C 0.2173 0.68685 0.57734 0.0
C68 C 0.16451 0.67781 0.5499 0.0
C69 C 0.19512 0.68747 0.53285 0.0
N70 N 0.17824 0.67728 0.57781 0.0
N71 N 0.22838 0.69315 0.55 0.0
H72 H 0.2374 0.68905 0.59633 0.0
H73 H 0.13403 0.67158 0.54242 0.0
C74 C 0.05236 0.68027 0.59537 0.0
O75 O 0.03359 0.66703 0.61344 0.0
N76 N 0.11109 0.65267 0.64114 0.0
C77 C 0.10998 0.63221 0.64871 0.0
C78 C 0.08275 0.62963 0.67216 0.0
C79 C 0.08629 0.66241 0.6611 0.0
N80 N 0.06739 0.64858 0.67976 0.0
C81 C 0.17232 0.62968 0.57748 0.0
C82 C 0.09245 0.61246 0.56577 0.0
C83 C 0.12958 0.60129 0.55786 0.0
C84 C 0.16989 0.6104 0.56349 0.0
C85 C 0.09634 0.63184 0.57966 0.0
N86 N 0.13597 0.64006 0.58586 0.0
H87 H 0.20375 0.63612 0.58231 0.0
H88 H 0.06744 0.63957 0.5864 0.0
H89 H 0.1276 0.61993 0.63786 0.0
H90 H 0.08045 0.67914 0.66094 0.0
O91 O 0.1961 0.65587 0.62958 0.0
O92 O 0.16454 0.68659 0.6361 0.0
O93 O 0.09333 0.68032 0.59203 0.0
C94 C 0.19533 0.6736 0.64326 0.0
H95 H 0.19259 0.69047 0.50962 0.0
H96 H 0.07471 0.61486 0.68268 0.0
H97 H 0.0606 0.60616 0.56163 0.0
H98 H 0.19954 0.60234 0.55816 0.0
Co99 Co 0.58264 0.34224 0.10906 0.0
C100 C 0.50941 0.32173 0.07658 0.0
C101 C 0.56657 0.32595 0.05076 0.0
C102 C 0.53557 0.31675 0.03376 0.0
N103 N 0.55055 0.32895 0.07773 0.0
N104 N 0.49962 0.31404 0.04994 0.0
H105 H 0.48706 0.32198 0.09467 0.0
H106 H 0.59851 0.33053 0.04364 0.0
C107 C 0.67754 0.33135 0.09647 0.0
O108 O 0.69182 0.34648 0.11306 0.0
N109 N 0.61473 0.35551 0.14033 0.0
C110 C 0.61756 0.37617 0.1457 0.0
C111 C 0.64645 0.37915 0.1681 0.0
C112 C 0.64026 0.34614 0.16057 0.0
N113 N 0.66139 0.36029 0.17722 0.0
C114 C 0.54982 0.37707 0.07719 0.0
C115 C 0.62648 0.39433 0.05789 0.0
C116 C 0.58786 0.40489 0.0515 0.0
C117 C 0.54916 0.39581 0.06117 0.0
C118 C 0.6257 0.37557 0.0741 0.0
N119 N 0.5877 0.3673 0.08411 0.0
H120 H 0.51946 0.37048 0.08432 0.0
H121 H 0.65587 0.36821 0.07866 0.0
H122 H 0.60107 0.38835 0.13352 0.0
H123 H 0.64538 0.32938 0.1616 0.0
O124 O 0.53009 0.34983 0.12873 0.0
O125 O 0.56498 0.32007 0.13632 0.0
O126 O 0.63694 0.32856 0.09269 0.0
C127 C 0.53237 0.33208 0.14274 0.0
H128 H 0.53897 0.31282 0.01097 0.0
H129 H 0.65741 0.39422 0.1758 0.0
H130 H 0.65719 0.40048 0.05045 0.0
H131 H 0.51844 0.40334 0.05708 0.0
Co132 Co 0.64791 0.82978 0.39577 0.0
C133 C 0.72313 0.817 0.43441 0.0
C134 C 0.67085 0.79502 0.43467 0.0
C135 C 0.70299 0.78711 0.45197 0.0
N136 N 0.68216 0.81426 0.42459 0.0
N137 N 0.73579 0.80087 0.45183 0.0
H138 H 0.74412 0.82976 0.42798 0.0
H139 H 0.642 0.78659 0.42863 0.0
C140 C 0.58268 0.81592 0.4395 0.0
O141 O 0.60784 0.82473 0.45894 0.0
N142 N 0.61346 0.8439 0.36637 0.0
C143 C 0.62068 0.86289 0.35424 0.0
C144 C 0.58732 0.86743 0.3353 0.0
C145 C 0.57624 0.83702 0.35451 0.0
N146 N 0.55932 0.85117 0.33552 0.0
C147 C 0.67734 0.86507 0.4291 0.0
C148 C 0.59691 0.88217 0.43906 0.0
C149 C 0.63352 0.8934 0.44797 0.0
C150 C 0.67414 0.88444 0.44294 0.0
C151 C 0.60158 0.86295 0.42502 0.0
N152 N 0.64143 0.85432 0.42067 0.0
H153 H 0.70893 0.85942 0.42364 0.0
H154 H 0.573 0.85532 0.41678 0.0
H155 H 0.6479 0.87287 0.35919 0.0
H156 H 0.56129 0.82221 0.36027 0.0
O157 O 0.6996 0.83849 0.37592 0.0
O158 O 0.66465 0.80897 0.36698 0.0
O159 O 0.59348 0.81635 0.41247 0.0
C160 C 0.69719 0.82135 0.36105 0.0
H161 H 0.70343 0.77182 0.46248 0.0
H162 H 0.58403 0.88164 0.32238 0.0
H163 H 0.56476 0.88831 0.44235 0.0
H164 H 0.70352 0.89274 0.44832 0.0
Co165 Co 0.09262 0.18059 0.91049 0.0
C166 C 0.17228 0.17666 0.87388 0.0
C167 C 0.11449 0.17093 0.84949 0.0
C168 C 0.14906 0.16965 0.83088 0.0
N169 N 0.12877 0.17554 0.8765 0.0
N170 N 0.18534 0.17333 0.84615 0.0
H171 H 0.19402 0.18032 0.89156 0.0
H172 H 0.08123 0.16864 0.84335 0.0
C173 C 1.00131 0.17757 0.88758 0.0
O174 O 0.98998 0.16768 0.9117 0.0
N175 N 0.05626 0.18612 0.94419 0.0
C176 C 0.05617 0.17653 0.97059 0.0
C177 C 0.0251 0.18555 0.98775 0.0
C178 C 0.02615 0.20138 0.94618 0.0
N179 N 1.00598 0.20108 0.97235 0.0
C180 C 0.11012 0.14085 0.93725 0.0
C181 C 0.05884 0.11592 0.90273 0.0
C182 C 0.08042 0.10674 0.92657 0.0
C183 C 0.10719 0.11949 0.94334 0.0
C184 C 0.06263 0.13762 0.89739 0.0
N185 N 0.08617 0.15009 0.91565 0.0
H186 H 0.13152 0.14993 0.95063 0.0
H187 H 0.04689 0.14409 0.87839 0.0
H188 H 0.07733 0.16411 0.97756 0.0
H189 H 0.0184 0.21209 0.92848 0.0
O190 O 0.14291 0.18433 0.93456 0.0
O191 O 0.11054 0.21004 0.91058 0.0
O192 O 0.04055 0.18327 0.88377 0.0
C193 C 0.14135 0.20416 0.92823 0.0
H194 H 0.14761 0.16613 0.80785 0.0
H195 H 0.01768 0.18119 0.01008 0.0
H196 H 0.03886 0.10653 0.88855 0.0
H197 H 0.12616 0.113 0.96111 0.0
Co198 Co 0.65002 0.16747 0.61409 0.0
C199 C 0.72318 0.18799 0.5809 0.0
C200 C 0.66909 0.17961 0.5542 0.0
C201 C 0.69981 0.18871 0.53668 0.0
N202 N 0.68354 0.17904 0.58193 0.0
N203 N 0.7339 0.19396 0.55335 0.0
H204 H 0.74389 0.18997 0.59964 0.0
H205 H 0.63801 0.17382 0.54716 0.0
C206 C 0.55805 0.18372 0.60057 0.0
O207 O 0.53918 0.17045 0.61856 0.0
N208 N 0.61628 0.15588 0.64604 0.0
C209 C 0.61469 0.13561 0.65458 0.0
C210 C 0.58848 0.13389 0.67875 0.0
C211 C 0.59251 0.16632 0.66583 0.0
N212 N 0.5742 0.15318 0.68559 0.0
C213 C 0.67528 0.13132 0.58307 0.0
C214 C 0.59456 0.11587 0.56958 0.0
C215 C 0.63097 0.10391 0.56229 0.0
C216 C 0.67175 0.11211 0.56903 0.0
C217 C 0.59955 0.13505 0.58387 0.0
N218 N 0.63958 0.14246 0.5908 0.0
H219 H 0.70707 0.13714 0.58831 0.0
H220 H 0.57108 0.1434 0.58993 0.0
H221 H 0.63118 0.1229 0.64389 0.0
H222 H 0.58772 0.18313 0.66523 0.0
O223 O 0.70126 0.15776 0.63388 0.0
O224 O 0.67164 0.1889 0.64039 0.0
O225 O 0.599 0.18345 0.59689 0.0
C226 C 0.70164 0.17547 0.64758 0.0
H227 H 0.69678 0.19164 0.51346 0.0
H228 H 0.57933 0.11945 0.68978 0.0
H229 H 0.56235 0.11042 0.56453 0.0
H230 H 0.70095 0.10349 0.56437 0.0
Co231 Co 0.07665 0.83839 0.11071 0.0
C232 C 1.00077 0.82557 0.07447 0.0
C233 C 0.0609 0.81624 0.05549 0.0
C234 C 0.02815 0.81036 0.03717 0.0
N235 N 0.04401 0.82593 0.07892 0.0
N236 N 0.99043 0.81619 0.04909 0.0
H237 H 0.97726 0.83222 0.08914 0.0
H238 H 0.09475 0.81362 0.05149 0.0
C239 C 0.16918 0.83172 0.09196 0.0
O240 O 0.17809 0.85126 0.09857 0.0
N241 N 0.10964 0.85042 0.14282 0.0
C242 C 0.1018 0.86831 0.15732 0.0
C243 C 0.13305 0.87099 0.17824 0.0
C244 C 0.14449 0.84198 0.15639 0.0
N245 N 0.16028 0.85456 0.17746 0.0
C246 C 0.06172 0.88121 0.09408 0.0
C247 C 0.10916 0.88198 0.04315 0.0
C248 C 0.0886 0.90043 0.05199 0.0
C249 C 0.06408 0.89969 0.07762 0.0
C250 C 0.10601 0.86373 0.06042 0.0
N251 N 0.08421 0.86371 0.08642 0.0
H252 H 0.04049 0.88099 0.11263 0.0
H253 H 0.12068 0.84964 0.05238 0.0
H254 H 0.07487 0.87865 0.15377 0.0
H255 H 0.15862 0.82714 0.15051 0.0
O256 O 0.02379 0.84618 0.12997 0.0
O257 O 0.05745 0.81606 0.13715 0.0
O258 O 0.13092 0.82456 0.09546 0.0
C259 C 0.02506 0.8282 0.14347 0.0
H260 H 0.03173 0.80209 0.01682 0.0
H261 H 0.13516 0.88401 0.19311 0.0
H262 H 0.12765 0.88162 0.02312 0.0
H263 H 0.04577 0.91317 0.08463 0.0
H264 H 0.26649 0.34639 0.34171 0.0
H265 H 0.32166 0.34084 0.30497 0.0
H266 H 0.26054 0.28289 0.28041 0.0
H267 H 0.20419 0.28849 0.31744 0.0
H268 H 0.37968 0.30761 0.29987 0.0
H269 H 0.27363 0.31511 0.20224 0.0
H270 H 0.25651 0.32331 0.23797 0.0
H271 H 0.25853 0.29593 0.22947 0.0
C272 C 0.26445 0.33244 0.32851 0.0
C273 C 0.23068 0.31791 0.33247 0.0
C274 C 0.29626 0.32927 0.30752 0.0
C275 C 0.29525 0.31152 0.28979 0.0
C276 C 0.26171 0.29684 0.29362 0.0
H277 H 0.52544 0.29581 0.17592 0.0
H278 H 0.46803 0.28671 0.21097 0.0
C279 C 0.2296 0.30003 0.3148 0.0
C280 C 0.3296 0.30894 0.26739 0.0
H281 H 0.34802 0.31213 0.19396 0.0
C282 C 0.3728 0.30822 0.27667 0.0
C283 C 0.32055 0.3099 0.23715 0.0
C284 C 0.27488 0.31124 0.22592 0.0
C285 C 0.40716 0.3094 0.25666 0.0
C286 C 0.39812 0.31102 0.22645 0.0
C287 C 0.35492 0.31079 0.21711 0.0
C288 C 0.43252 0.3156 0.20457 0.0
C289 C 0.45276 0.31017 0.26812 0.0
C290 C 0.43128 0.33461 0.18894 0.0
C291 C 0.46373 0.33977 0.16899 0.0
C292 C 0.49833 0.32602 0.16404 0.0
C293 C 0.4994 0.3068 0.17939 0.0
C294 C 0.46669 0.30161 0.19947 0.0
H295 H 0.45383 0.31237 0.29212 0.0
H296 H 0.46929 0.29523 0.26309 0.0
H297 H 0.4711 0.32311 0.25745 0.0
H298 H 0.40537 0.34568 0.19248 0.0
H299 H 0.46169 0.35467 0.15752 0.0
H300 H 0.46693 0.70686 0.85937 0.0
H301 H 0.40712 0.71262 0.82495 0.0
H302 H 0.44485 0.65757 0.77765 0.0
H303 H 0.50432 0.65181 0.81142 0.0
H304 H 0.43226 0.69377 0.7422 0.0
H305 H 0.29321 0.6788 0.81665 0.0
H306 H 0.33315 0.69751 0.82807 0.0
H307 H 0.34726 0.67034 0.82552 0.0
C308 C 0.46223 0.69591 0.84175 0.0
C309 C 0.49052 0.67889 0.83816 0.0
C310 C 0.42796 0.69919 0.82217 0.0
C311 C 0.42139 0.68545 0.79881 0.0
C312 C 0.44931 0.66838 0.79547 0.0
H313 H 0.2671 0.65101 0.65629 0.0
H314 H 0.32061 0.65763 0.69403 0.0
C315 C 0.48335 0.66511 0.8149 0.0
C316 C 0.38654 0.68886 0.77699 0.0
H317 H 0.27751 0.68498 0.76708 0.0
C318 C 0.39838 0.69213 0.74772 0.0
C319 C 0.34233 0.68688 0.78422 0.0
C320 C 0.32792 0.68307 0.81526 0.0
C321 C 0.36743 0.69264 0.72537 0.0
C322 C 0.32346 0.68948 0.73238 0.0
C323 C 0.31127 0.68735 0.76178 0.0
C324 C 0.29065 0.68608 0.70928 0.0
C325 C 0.38218 0.69606 0.69431 0.0
C326 C 0.25549 0.69972 0.70556 0.0
C327 C 0.22463 0.69599 0.68377 0.0
C328 C 0.22823 0.67838 0.66571 0.0
C329 C 0.26337 0.66475 0.66972 0.0
C330 C 0.29416 0.66855 0.69124 0.0
H331 H 0.41378 0.70429 0.69337 0.0
H332 H 0.38606 0.68063 0.68368 0.0
H333 H 0.35817 0.70531 0.68163 0.0
H334 H 0.25205 0.71327 0.7194 0.0
H335 H 0.19777 0.7067 0.68132 0.0
H336 H 0.05376 0.68455 0.70977 0.0
H337 H 0.99475 0.69158 0.74397 0.0
H338 H 0.94531 0.62916 0.73089 0.0
H339 H 1.00394 0.62203 0.69721 0.0
H340 H 0.91037 0.69242 0.73422 0.0
H341 H 0.94153 0.63162 0.81818 0.0
H342 H 0.9808 0.63856 0.79063 0.0
H343 H 0.93813 0.62028 0.78266 0.0
C344 C 0.03049 0.67229 0.71439 0.0
C345 C 0.03395 0.65265 0.70093 0.0
C346 C 0.99686 0.67629 0.73403 0.0
C347 C 0.96604 0.66073 0.74061 0.0
C348 C 0.96941 0.64118 0.72707 0.0
H349 H 0.70095 0.67433 0.7854 0.0
H350 H 0.77216 0.66997 0.76365 0.0
C351 C 1.00304 0.63714 0.70766 0.0
C352 C 0.92845 0.66528 0.75977 0.0
H353 H 0.86878 0.64525 0.81637 0.0
C354 C 0.90171 0.68228 0.75246 0.0
C355 C 0.91733 0.65233 0.78398 0.0
C356 C 0.94627 0.63483 0.79451 0.0
C357 C 0.86314 0.686 0.76761 0.0
C358 C 0.85028 0.67203 0.79025 0.0
C359 C 0.87817 0.65574 0.79868 0.0
C360 C 0.80706 0.67348 0.80421 0.0
C361 C 0.83639 0.70483 0.75902 0.0
C362 C 0.80266 0.67578 0.83456 0.0
C363 C 0.76164 0.67802 0.84715 0.0
C364 C 0.72448 0.67803 0.82955 0.0
C365 C 0.72905 0.67484 0.79941 0.0
C366 C 0.76977 0.67244 0.78694 0.0
H367 H 0.85663 0.71732 0.74887 0.0
H368 H 0.81192 0.70006 0.7427 0.0
H369 H 0.8194 0.71146 0.77813 0.0
H370 H 0.83097 0.67638 0.84837 0.0
H371 H 0.75911 0.68052 0.87041 0.0
H372 H 0.69234 0.38642 0.21887 0.0
H373 H 0.75871 0.38248 0.2469 0.0
H374 H 0.77904 0.32165 0.20933 0.0
H375 H 0.71395 0.32593 0.17995 0.0
H376 H 0.78616 0.35548 0.28749 0.0
H377 H 0.89225 0.34902 0.19051 0.0
H378 H 0.83626 0.35635 0.18765 0.0
H379 H 0.8511 0.32925 0.19226 0.0
C380 C 0.71094 0.37224 0.2163 0.0
C381 C 0.69773 0.35668 0.19661 0.0
C382 C 0.7489 0.36994 0.23258 0.0
C383 C 0.77469 0.352 0.22976 0.0
C384 C 0.76051 0.33593 0.21131 0.0
H385 H 0.02032 0.3187 0.31411 0.0
H386 H 0.95068 0.31732 0.28866 0.0
C387 C 0.72269 0.33828 0.19479 0.0
C388 C 0.8165 0.35039 0.24588 0.0
H389 H 0.92539 0.34433 0.23666 0.0
C390 C 0.81654 0.35303 0.27631 0.0
C391 C 0.85639 0.34726 0.2314 0.0
C392 C 0.85922 0.34551 0.19864 0.0
C393 C 0.8551 0.35263 0.29253 0.0
C394 C 0.8948 0.34957 0.27802 0.0
C395 C 0.89486 0.34658 0.24774 0.0
C396 C 0.93675 0.35028 0.29378 0.0
C397 C 0.85323 0.35545 0.32513 0.0
C398 C 0.95222 0.36928 0.30487 0.0
C399 C 0.99206 0.37014 0.31922 0.0
C400 C 0.01727 0.35197 0.32297 0.0
C401 C 1.00158 0.33292 0.31188 0.0
C402 C 0.96189 0.33213 0.29722 0.0
H403 H 0.81993 0.35355 0.33374 0.0
H404 H 0.87468 0.34401 0.33637 0.0
H405 H 0.8647 0.37143 0.33054 0.0
H406 H 0.93354 0.38352 0.30225 0.0
H407 H 1.00287 0.38501 0.32772 0.0
H408 H 0.76789 0.84468 0.34781 0.0
H409 H 0.82206 0.83856 0.31054 0.0
H410 H 0.75741 0.78146 0.28621 0.0
H411 H 0.70203 0.78769 0.32366 0.0
H412 H 0.87863 0.80551 0.30334 0.0
H413 H 0.76769 0.81364 0.20837 0.0
H414 H 0.75237 0.82145 0.24464 0.0
H415 H 0.75372 0.79418 0.23546 0.0
C416 C 0.76495 0.83077 0.3346 0.0
C417 C 0.73035 0.81673 0.33863 0.0
C418 C 0.79618 0.82727 0.3133 0.0
C419 C 0.79373 0.80967 0.29533 0.0
C420 C 0.75965 0.79533 0.29952 0.0
H421 H 0.01804 0.79215 0.17701 0.0
H422 H 0.96174 0.78366 0.2131 0.0
C423 C 0.72814 0.79885 0.32099 0.0
C424 C 0.82685 0.80697 0.27212 0.0
H425 H 0.8414 0.80977 0.19824 0.0
C426 C 0.87051 0.8061 0.28033 0.0
C427 C 0.81623 0.8079 0.2421 0.0
C428 C 0.77004 0.80949 0.23193 0.0
C429 C 0.90379 0.80703 0.25948 0.0
C430 C 0.89318 0.80853 0.22949 0.0
C431 C 0.84951 0.80851 0.22122 0.0
C432 C 0.92653 0.81264 0.20669 0.0
C433 C 0.94999 0.80765 0.26984 0.0
C434 C 0.92495 0.83145 0.19057 0.0
C435 C 0.95676 0.83624 0.16997 0.0
C436 C 0.99101 0.82233 0.16486 0.0
C437 C 0.99224 0.80325 0.18056 0.0
C438 C 0.96018 0.79843 0.20128 0.0
H439 H 0.95234 0.81022 0.29372 0.0
H440 H 0.96577 0.7925 0.26491 0.0
H441 H 0.96817 0.82028 0.25836 0.0
H442 H 0.89939 0.84267 0.19431 0.0
H443 H 0.95462 0.85104 0.15823 0.0
H444 H 0.77479 0.15338 0.65874 0.0
H445 H 0.82415 0.15695 0.69985 0.0
H446 H 0.75021 0.20925 0.73126 0.0
H447 H 0.70087 0.20602 0.68951 0.0
H448 H 0.83829 0.21557 0.73698 0.0
H449 H 0.79317 0.13763 0.78175 0.0
H450 H 0.81193 0.13632 0.7448 0.0
H451 H 0.76309 0.15034 0.7529 0.0
C452 C 0.76911 0.16576 0.67425 0.0
C453 C 0.73364 0.1793 0.671 0.0
C454 C 0.79726 0.16769 0.69788 0.0
C455 C 0.79032 0.183 0.71912 0.0
C456 C 0.75602 0.19718 0.7153 0.0
H457 H 0.91401 0.17119 0.8899 0.0
H458 H 0.86166 0.17468 0.85027 0.0
C459 C 0.72789 0.19535 0.69142 0.0
C460 C 0.81841 0.18373 0.74549 0.0
H461 H 0.85611 0.15341 0.80187 0.0
C462 C 0.84196 0.20204 0.75132 0.0
C463 C 0.82263 0.16624 0.7646 0.0
C464 C 0.79602 0.1466 0.76092 0.0
C465 C 0.87064 0.20308 0.77513 0.0
C466 C 0.87666 0.18516 0.79325 0.0
C467 C 0.85204 0.1671 0.78788 0.0
C468 C 0.90837 0.18458 0.81779 0.0
C469 C 0.89368 0.22348 0.78078 0.0
C470 C 0.95225 0.189 0.81293 0.0
C471 C 0.98225 0.18722 0.8357 0.0
C472 C 0.96923 0.18059 0.86375 0.0
C473 C 0.92527 0.17627 0.86859 0.0
C474 C 0.89524 0.17826 0.8459 0.0
H475 H 0.87565 0.23704 0.77148 0.0
H476 H 0.89833 0.22601 0.8045 0.0
H477 H 0.92584 0.22316 0.77017 0.0
H478 H 0.96356 0.19334 0.79135 0.0
H479 H 0.01582 0.19061 0.8311 0.0
H480 H 0.25914 0.16118 0.87336 0.0
H481 H 0.33178 0.15988 0.85172 0.0
H482 H 0.2817 0.18555 0.77123 0.0
H483 H 0.20943 0.18681 0.79255 0.0
H484 H 0.34521 0.13742 0.78954 0.0
H485 H 0.39703 0.22069 0.7985 0.0
H486 H 0.3604 0.20854 0.82436 0.0
H487 H 0.34188 0.21537 0.78846 0.0
C488 C 0.26384 0.1668 0.85121 0.0
C489 C 0.22858 0.17395 0.83457 0.0
C490 C 0.30521 0.166 0.83888 0.0
C491 C 0.31197 0.17271 0.80995 0.0
C492 C 0.27711 0.1804 0.79363 0.0
H493 H 0.51153 0.1825 0.68065 0.0
H494 H 0.45039 0.18746 0.71364 0.0
C495 C 0.23582 0.18097 0.80577 0.0
C496 C 0.35463 0.17044 0.79583 0.0
H497 H 0.4404 0.19854 0.76968 0.0
C498 C 0.36645 0.15067 0.78551 0.0
C499 C 0.38165 0.18786 0.79028 0.0
C500 C 0.36997 0.20937 0.80103 0.0
C501 C 0.40407 0.14795 0.76889 0.0
C502 C 0.43133 0.16541 0.76324 0.0
C503 C 0.41975 0.18514 0.77412 0.0
C504 C 0.47069 0.16369 0.74481 0.0
C505 C 0.41298 0.1266 0.75637 0.0
C506 C 0.50331 0.14921 0.75178 0.0
C507 C 0.53802 0.14622 0.73277 0.0
C508 C 0.54134 0.15797 0.70674 0.0
C509 C 0.51003 0.17333 0.70064 0.0
C510 C 0.47499 0.17611 0.71945 0.0
H511 H 0.3835 0.11667 0.75597 0.0
H512 H 0.42583 0.12792 0.73381 0.0
H513 H 0.4373 0.11843 0.77012 0.0
H514 H 0.50148 0.13991 0.77164 0.0
H515 H 0.56204 0.13452 0.73822 0.0
H516 H 0.20903 0.8853 0.20125 0.0
H517 H 0.27584 0.88137 0.22867 0.0
H518 H 0.26907 0.8143 0.21899 0.0
H519 H 0.20174 0.8181 0.19136 0.0
H520 H 0.29106 0.86028 0.28021 0.0
H521 H 0.39134 0.82727 0.19133 0.0
H522 H 0.33949 0.83921 0.18456 0.0
H523 H 0.34262 0.81306 0.19939 0.0
C524 C 0.22134 0.86965 0.2051 0.0
C525 C 0.19968 0.85201 0.19409 0.0
C526 C 0.25982 0.86745 0.2207 0.0
C527 C 0.27788 0.84758 0.22564 0.0
C528 C 0.25631 0.82985 0.21493 0.0
H529 H 0.51755 0.81571 0.31883 0.0
H530 H 0.4483 0.81344 0.29318 0.0
C531 C 0.2177 0.83204 0.19919 0.0
C532 C 0.31883 0.84569 0.24248 0.0
H533 H 0.42455 0.83086 0.2374 0.0
C534 C 0.32019 0.85378 0.27085 0.0
C535 C 0.35686 0.83712 0.23035 0.0
C536 C 0.35785 0.82881 0.19966 0.0
C537 C 0.35848 0.85376 0.28725 0.0
C538 C 0.39673 0.84571 0.27486 0.0
C539 C 0.39521 0.83707 0.24683 0.0
C540 C 0.43891 0.84699 0.29023 0.0
C541 C 0.35765 0.86235 0.31779 0.0
C542 C 0.45695 0.86658 0.29674 0.0
C543 C 0.49642 0.86793 0.31141 0.0
C544 C 0.51889 0.84969 0.31988 0.0
C545 C 0.50093 0.83006 0.31301 0.0
C546 C 0.46146 0.82873 0.29819 0.0
H547 H 0.32441 0.86258 0.32685 0.0
H548 H 0.37852 0.85295 0.33264 0.0
H549 H 0.36997 0.87869 0.31737 0.0
H550 H 0.44046 0.88089 0.29043 0.0
H551 H 0.50893 0.8833 0.3165 0.0
H552 H 0.07412 0.56936 0.57301 0.0
H553 H 0.07374 0.53335 0.55505 0.0
H554 H 0.1785 0.54851 0.49664 0.0
H555 H 0.17885 0.58456 0.5142 0.0
H556 H 0.06382 0.51702 0.49792 0.0
H557 H 0.22473 0.49831 0.54435 0.0
H558 H 0.19434 0.52111 0.55492 0.0
H559 H 0.22389 0.5212 0.52118 0.0
C560 C 0.09666 0.56515 0.55602 0.0
C561 C 0.12677 0.57987 0.54524 0.0
C562 C 0.09656 0.5445 0.54591 0.0
C563 C 0.12666 0.53813 0.52493 0.0
C564 C 0.15566 0.55295 0.51335 0.0
H565 H 0.19287 0.42382 0.43659 0.0
H566 H 0.18741 0.45926 0.45579 0.0
C567 C 0.1558 0.57357 0.52342 0.0
C568 C 0.1282 0.51593 0.51541 0.0
H569 H 0.19411 0.47311 0.51274 0.0
C570 C 0.09216 0.50735 0.50131 0.0
C571 C 0.16518 0.50333 0.51994 0.0
C572 C 0.20413 0.51134 0.53616 0.0
C573 C 0.09262 0.4867 0.4908 0.0
C574 C 0.12985 0.47419 0.49501 0.0
C575 C 0.16564 0.48271 0.50946 0.0
C576 C 0.13295 0.45243 0.48384 0.0
C577 C 0.05379 0.4787 0.47447 0.0
C578 C 0.10458 0.43664 0.49357 0.0
C579 C 0.10778 0.41624 0.48274 0.0
C580 C 0.13967 0.41116 0.46212 0.0
C581 C 0.16838 0.427 0.45279 0.0
C582 C 0.16513 0.44735 0.46359 0.0
H583 H 0.03252 0.4917 0.46698 0.0
H584 H 0.06374 0.46947 0.45522 0.0
H585 H 0.03465 0.4683 0.48911 0.0
H586 H 0.08011 0.44005 0.50968 0.0
H587 H 0.08549 0.4044 0.49068 0.0
H588 H 0.63337 0.58066 0.91072 0.0
H589 H 0.63323 0.54489 0.93023 0.0
H590 H 0.51692 0.55792 0.97827 0.0
H591 H 0.51794 0.59405 0.96 0.0
H592 H 0.5758 0.53898 0.01224 0.0
H593 H 0.56041 0.49491 0.90937 0.0
H594 H 0.60535 0.51266 0.90898 0.0
H595 H 0.55131 0.5228 0.9112 0.0
C596 C 0.60768 0.57596 0.92542 0.0
C597 C 0.57567 0.59034 0.93375 0.0
C598 C 0.60735 0.55536 0.93627 0.0
C599 C 0.57471 0.54856 0.9554 0.0
C600 C 0.5423 0.56275 0.96338 0.0
H601 H 0.5296 0.41928 0.01077 0.0
H602 H 0.52627 0.45403 0.98793 0.0
C603 C 0.54271 0.58339 0.95266 0.0
C604 C 0.57578 0.52709 0.96845 0.0
H605 H 0.58051 0.47505 0.95172 0.0
C606 C 0.57657 0.525 0.99899 0.0
C607 C 0.57628 0.5088 0.95121 0.0
C608 C 0.57285 0.50985 0.91839 0.0
C609 C 0.57857 0.50523 0.01274 0.0
C610 C 0.58094 0.48698 0.99549 0.0
C611 C 0.57932 0.48903 0.96495 0.0
C612 C 0.58408 0.46563 0.00875 0.0
C613 C 0.57725 0.50409 0.04564 0.0
C614 C 0.61822 0.46036 0.02759 0.0
C615 C 0.61991 0.44057 0.04104 0.0
C616 C 0.58773 0.42549 0.03568 0.0
C617 C 0.55446 0.43059 0.01592 0.0
C618 C 0.55267 0.45043 1.00263 0.0
H619 H 0.56315 0.51851 0.05507 0.0
H620 H 0.55814 0.49038 0.05336 0.0
H621 H 0.6106 0.50248 0.05415 0.0
H622 H 0.64341 0.47165 0.03213 0.0
H623 H 0.64588 0.43731 0.05621 0.0
H624 H 0.56855 0.07383 0.57217 0.0
H625 H 0.56454 0.03858 0.55212 0.0
H626 H 0.68123 0.05007 0.50327 0.0
H627 H 0.68396 0.08576 0.52161 0.0
H628 H 0.62558 0.02953 0.47103 0.0
H629 H 0.63555 0.98972 0.57891 0.0
H630 H 0.59016 0.007 0.57588 0.0
H631 H 0.64404 0.01753 0.57437 0.0
C632 C 0.59301 0.06905 0.55678 0.0
C633 C 0.62687 0.08273 0.54883 0.0
C634 C 0.59105 0.04869 0.54569 0.0
C635 C 0.62325 0.04138 0.5268 0.0
C636 C 0.65625 0.0552 0.51809 0.0
H637 H 0.68398 0.91142 0.49035 0.0
H638 H 0.68068 0.94721 0.50855 0.0
C639 C 0.65798 0.07561 0.52887 0.0
C640 C 0.62279 0.01942 0.51598 0.0
H641 H 0.62153 0.96806 0.53822 0.0
C642 C 0.62473 0.0161 0.48575 0.0
C643 C 0.62243 1.00182 0.53514 0.0
C644 C 0.62338 1.00414 0.56787 0.0
C645 C 0.62618 0.99579 0.47417 0.0
C646 C 0.62426 0.97819 0.49329 0.0
C647 C 0.6225 0.9815 0.52352 0.0
C648 C 0.62544 0.95624 0.48245 0.0
C649 C 0.63117 0.99348 0.4416 0.0
C650 C 0.59504 0.94916 0.46208 0.0
C651 C 0.59735 0.92879 0.45115 0.0
C652 C 0.62968 0.91481 0.46074 0.0
C653 C 0.65917 0.92177 0.48195 0.0
C654 C 0.65709 0.94223 0.49261 0.0
H655 H 0.64497 0.00786 0.43135 0.0
H656 H 0.6523 0.98001 0.43627 0.0
H657 H 0.59901 0.99075 0.43172 0.0
H658 H 0.5696 0.95945 0.45442 0.0
H659 H 0.57428 0.92421 0.43467 0.0
H660 H 0.08524 0.90577 0.99227 0.0
H661 H 0.08651 0.93894 0.96452 0.0
H662 H 0.09773 0.97309 0.04482 0.0
H663 H 0.09786 0.94022 0.07247 0.0
H664 H 0.02924 0.97256 0.9678 0.0
H665 H 0.19427 0.99842 0.99602 0.0
H666 H 0.17606 0.9718 1.00184 0.0
H667 H 0.16316 0.99181 0.02781 0.0
C668 C 0.08877 0.92033 1.00396 0.0
C669 C 0.09149 0.92031 0.03463 0.0
C670 C 0.08916 0.93928 0.98808 0.0
C671 C 0.09278 0.9585 1.00255 0.0
C672 C 0.09572 0.95847 0.0331 0.0
H673 H 0.07049 0.08965 0.98085 0.0
H674 H 0.07267 0.05271 0.99508 0.0
C675 C 0.09531 0.93963 0.04893 0.0
C676 C 0.09189 0.97876 0.98615 0.0
H677 H 0.14591 0.02522 0.97862 0.0
C678 C 0.05508 0.98395 0.96968 0.0
C679 C 0.12571 0.99358 0.98846 0.0
C680 C 0.16721 0.98855 1.00424 0.0
C681 C 0.0502 1.004 0.95693 0.0
C682 C 0.08305 0.01913 0.96064 0.0
C683 C 0.12061 0.01362 0.97598 0.0
C684 C 0.07786 0.04128 0.95101 0.0
C685 C 0.00918 0.00929 0.94081 0.0
C686 C 0.07929 0.04712 0.92136 0.0
C687 C 0.07831 0.06839 0.91308 0.0
C688 C 0.07614 0.08408 0.93438 0.0
C689 C 0.07297 0.078 0.96392 0.0
C690 C 0.07405 0.05688 0.97212 0.0
H691 H 0.985 0.99644 0.94224 0.0
H692 H 0.99475 0.0238 0.94972 0.0
H693 H 0.01666 0.01231 0.91746 0.0
H694 H 0.08258 0.03529 0.90474 0.0
H695 H 0.08107 0.07255 0.89019 0.0
H696 H 0.29367 0.31788 0.47492 0.0
H697 H 0.3591 0.30586 0.50076 0.0
H698 H 0.35056 0.24651 0.45688 0.0
H699 H 0.28681 0.25861 0.43083 0.0
H700 H 0.36287 0.27371 0.53897 0.0
H701 H 0.47721 0.25719 0.45031 0.0
H702 H 0.42946 0.27287 0.44453 0.0
H703 H 0.42665 0.24465 0.44308 0.0
C704 C 0.30676 0.30255 0.47024 0.0
C705 C 0.2851 0.28914 0.45102 0.0
C706 C 0.34388 0.29562 0.4851 0.0
C707 C 0.3602 0.27532 0.48056 0.0
C708 C 0.33947 0.26238 0.46036 0.0
H709 H 0.46998 0.18556 0.59717 0.0
H710 H 0.426 0.21029 0.56924 0.0
C711 C 0.30263 0.26923 0.44568 0.0
C712 C 0.39568 0.2665 0.49889 0.0
H713 H 0.48639 0.23632 0.49476 0.0
C714 C 0.39038 0.26591 0.52932 0.0
C715 C 0.43212 0.2566 0.48653 0.0
C716 C 0.44192 0.25808 0.45433 0.0
C717 C 0.41878 0.25456 0.54745 0.0
C718 C 0.45281 0.24298 0.53476 0.0
C719 C 0.45984 0.24477 0.50455 0.0
C720 C 0.48001 0.22814 0.55214 0.0
C721 C 0.41168 0.25498 0.58 0.0
C722 C 0.52526 0.22933 0.55106 0.0
C723 C 0.55066 0.2149 0.56667 0.0
C724 C 0.53133 0.19896 0.58372 0.0
C725 C 0.48604 0.19773 0.58455 0.0
C726 C 0.46074 0.21202 0.56876 0.0
H727 H 0.39567 0.26975 0.58664 0.0
H728 H 0.39021 0.24178 0.58645 0.0
H729 H 0.44254 0.25343 0.59213 0.0
H730 H 0.54098 0.24147 0.5382 0.0
H731 H 0.58544 0.21631 0.56546 0.0
H732 H 0.4476 0.69199 0.01516 0.0
H733 H 0.39065 0.71387 0.03549 0.0
H734 H 0.4161 0.7613 0.96999 0.0
H735 H 0.47342 0.73967 0.94967 0.0
H736 H 0.39754 0.75426 0.05818 0.0
H737 H 0.28512 0.75274 0.96395 0.0
H738 H 0.32935 0.73455 0.96789 0.0
H739 H 0.33908 0.76084 0.95496 0.0
C740 C 0.4413 0.70709 1.00508 0.0
C741 C 0.46527 0.71398 0.98068 0.0
C742 C 0.40854 0.71956 0.01669 0.0
C743 C 0.39873 0.73912 1.00407 0.0
C744 C 0.42247 0.74608 0.97973 0.0
H745 H 0.25467 0.84099 0.08327 0.0
H746 H 0.31032 0.8185 0.06239 0.0
C747 C 0.45529 0.73363 0.96811 0.0
C748 C 0.36453 0.75248 0.01695 0.0
H749 H 0.26825 0.77633 1.002 0.0
C750 C 0.36923 0.75906 0.04592 0.0
C751 C 0.32736 0.75854 1.00105 0.0
C752 C 0.31956 0.75118 0.97033 0.0
C753 C 0.33812 0.77178 0.05927 0.0
C754 C 0.30155 0.77832 0.0431 0.0
C755 C 0.2965 0.77147 0.01428 0.0
C756 C 0.26784 0.79202 0.05584 0.0
C757 C 0.34429 0.77784 0.09072 0.0
C758 C 0.22525 0.78477 0.05862 0.0
C759 C 0.19332 0.79759 0.07051 0.0
C760 C 0.20322 0.81805 0.07963 0.0
C761 C 0.24589 0.82532 0.07659 0.0
C762 C 0.27784 0.81244 0.06478 0.0
H763 H 0.36798 0.76752 0.10201 0.0
H764 H 0.35655 0.79418 0.09161 0.0
H765 H 0.31325 0.77713 0.1028 0.0
H766 H 0.21677 0.76909 0.05177 0.0
H767 H 0.16083 0.79146 0.07245 0.0
H768 H 0.2658 0.69141 0.49675 0.0
H769 H 0.32655 0.71221 0.47885 0.0
H770 H 0.33925 0.74079 0.56323 0.0
H771 H 0.27794 0.72001 0.58134 0.0
H772 H 0.33104 0.75597 0.47624 0.0
H773 H 0.46315 0.72264 0.54419 0.0
H774 H 0.41168 0.7097 0.54009 0.0
H775 H 0.41698 0.73158 0.56418 0.0
C776 C 0.28143 0.70211 0.51157 0.0
C777 C 0.26673 0.70415 0.54046 0.0
C778 C 0.31631 0.71393 0.5013 0.0
C779 C 0.33759 0.72798 0.51969 0.0
C780 C 0.32372 0.72979 0.54876 0.0
H781 H 0.54814 0.81553 0.49412 0.0
H782 H 0.48765 0.79477 0.51239 0.0
C783 C 0.28871 0.7179 0.55911 0.0
C784 C 0.37298 0.74131 0.50785 0.0
H785 H 0.48037 0.75218 0.51469 0.0
C786 C 0.36374 0.75512 0.48458 0.0
C787 C 0.41558 0.74018 0.51877 0.0
C788 C 0.42772 0.72512 0.54302 0.0
C789 C 0.39578 0.76807 0.47224 0.0
C790 C 0.43845 0.76687 0.48307 0.0
C791 C 0.44766 0.75307 0.50636 0.0
C792 C 0.47393 0.78012 0.47108 0.0
C793 C 0.38337 0.78326 0.44821 0.0
C794 C 0.48635 0.77891 0.44163 0.0
C795 C 0.52097 0.79093 0.43097 0.0
C796 C 0.54407 0.80418 0.44969 0.0
C797 C 0.5312 0.80546 0.47907 0.0
C798 C 0.49661 0.79356 0.48962 0.0
H799 H 0.34805 0.78618 0.44782 0.0
H800 H 0.40032 0.79849 0.45071 0.0
H801 H 0.39263 0.77661 0.42685 0.0
H802 H 0.46987 0.76834 0.42702 0.0
H803 H 0.53024 0.78947 0.4083 0.0
H804 H 0.14529 0.24738 0.92378 0.0
H805 H 0.19942 0.2706 0.94594 0.0
H806 H 0.26449 0.21672 0.9826 0.0
H807 H 0.2108 0.19372 0.9612 0.0
H808 H 0.25462 0.24805 0.02255 0.0
H809 H 0.32392 0.27928 0.91881 0.0
H810 H 0.26686 0.2828 0.92362 0.0
H811 H 0.28839 0.25685 0.91988 0.0
C812 C 0.17125 0.24055 0.9365 0.0
C813 C 0.17374 0.21871 0.94065 0.0
C814 C 0.20223 0.25381 0.94907 0.0
C815 C 0.23629 0.24539 0.96579 0.0
C816 C 0.23854 0.22361 0.96991 0.0
H817 H 0.48993 0.2844 0.00878 0.0
H818 H 0.42267 0.27013 0.98987 0.0
C819 C 0.20776 0.21046 0.95753 0.0
C820 C 0.27009 0.25886 0.97913 0.0
H821 H 0.35608 0.29036 0.96243 0.0
C822 C 0.27653 0.25752 0.00946 0.0
C823 C 0.29887 0.27107 0.96201 0.0
C824 C 0.29458 0.27255 0.92925 0.0
C825 C 0.31173 0.26741 0.02299 0.0
C826 C 0.34093 0.27933 0.0058 0.0
C827 C 0.33361 0.28128 0.97561 0.0
C828 C 0.38143 0.28824 0.01808 0.0
C829 C 0.31855 0.2641 0.05532 0.0
C830 C 0.38087 0.30316 0.04045 0.0
C831 C 0.4196 0.31134 0.05147 0.0
C832 C 0.45954 0.30494 0.04004 0.0
C833 C 0.45981 0.28993 0.01779 0.0
C834 C 0.4213 0.28171 0.00696 0.0
H835 H 0.29858 0.251 0.06412 0.0
H836 H 0.35296 0.26073 0.06016 0.0
H837 H 0.30943 0.27857 0.067 0.0
H838 H 0.35051 0.30872 0.04908 0.0
H839 H 0.41826 0.32305 0.06835 0.0
H840 H 0.07985 0.71236 0.55948 0.0
H841 H 0.03537 0.73734 0.5318 0.0
H842 H 0.9203 0.70715 0.56435 0.0
H843 H 0.96425 0.6822 0.59219 0.0
H844 H 0.92629 0.71555 0.49978 0.0
H845 H 0.95755 0.78496 0.56951 0.0
H846 H 1.00286 0.76951 0.55784 0.0
H847 H 0.96456 0.75845 0.58297 0.0
C848 C 0.04506 0.71102 0.56079 0.0
C849 C 0.02564 0.69527 0.57817 0.0
C850 C 0.01974 0.72536 0.54501 0.0
C851 C 0.9746 0.72417 0.54622 0.0
C852 C 0.95512 0.70835 0.56321 0.0
H853 H 0.74931 0.79146 0.50798 0.0
H854 H 0.81486 0.77605 0.52892 0.0
C855 C 0.98034 0.69412 0.57915 0.0
C856 C 0.94728 0.73922 0.52968 0.0
H857 H 0.90844 0.78933 0.53074 0.0
C858 C 0.92285 0.73178 0.5062 0.0
C859 C 0.94286 0.76034 0.53824 0.0
C860 C 0.9681 0.76893 0.56359 0.0
C861 C 0.89313 0.74475 0.49155 0.0
C862 C 0.88779 0.76571 0.50063 0.0
C863 C 0.91305 0.77333 0.52363 0.0
C864 C 0.85198 0.7788 0.48911 0.0
C865 C 0.86603 0.73567 0.46741 0.0
C866 C 0.8518 0.78631 0.46014 0.0
C867 C 0.81441 0.79544 0.4483 0.0
C868 C 0.77686 0.79693 0.46527 0.0
C869 C 0.77812 0.7906 0.49468 0.0
C870 C 0.81543 0.78177 0.50657 0.0
H871 H 0.87123 0.71856 0.46492 0.0
H872 H 0.83127 0.73847 0.47173 0.0
H873 H 0.87425 0.7436 0.44646 0.0
H874 H 0.87977 0.78417 0.44634 0.0
H875 H 0.81381 0.79992 0.42545 0.0
H876 H 0.76487 0.33647 0.09438 0.0
H877 H 0.81786 0.31474 0.06985 0.0
H878 H 0.71629 0.27421 0.03938 0.0
H879 H 0.66256 0.29631 0.06338 0.0
H880 H 0.83644 0.27448 0.08029 0.0
H881 H 0.78455 0.2841 0.96507 0.0
H882 H 0.76485 0.30065 0.99383 0.0
H883 H 0.74268 0.27485 0.98905 0.0
C884 C 0.75357 0.32304 0.08229 0.0
C885 C 0.70933 0.31817 0.08086 0.0
C886 C 0.78403 0.31061 0.06825 0.0
C887 C 0.77115 0.29297 0.05244 0.0
C888 C 0.727 0.28801 0.05088 0.0
H889 H 0.94394 0.19053 0.0114 0.0
H890 H 0.8862 0.21278 0.02963 0.0
C891 C 0.69632 0.30057 0.06481 0.0
C892 C 0.80443 0.2793 0.03905 0.0
H893 H 0.83869 0.25851 0.97462 0.0
C894 C 0.83692 0.27104 0.05716 0.0
C895 C 0.80544 0.27501 0.00881 0.0
C896 C 0.77278 0.28426 0.98796 0.0
C897 C 0.87009 0.25852 0.046 0.0
C898 C 0.87036 0.25367 0.01594 0.0
C899 C 0.83821 0.26209 0.9977 0.0
C900 C 0.90382 0.23981 1.00327 0.0
C901 C 0.90506 0.25095 0.06646 0.0
C902 C 0.93202 0.24732 0.98154 0.0
C903 C 0.96518 0.23455 0.97096 0.0
C904 C 0.97068 0.21404 0.98197 0.0
C905 C 0.94138 0.2064 1.00301 0.0
C906 C 0.90824 0.21909 0.01342 0.0
H907 H 0.90681 0.26061 0.08645 0.0
H908 H 0.89801 0.23456 0.0733 0.0
H909 H 0.93708 0.25126 0.05562 0.0
H910 H 0.92904 0.26323 0.97328 0.0
H911 H 0.98717 0.24091 0.9548 0.0
H912 H 0.03317 0.28788 0.40628 0.0
H913 H 0.97239 0.26744 0.42591 0.0
H914 H 0.99991 0.29028 0.51216 0.0
H915 H 0.06087 0.31023 0.49298 0.0
H916 H 0.98826 0.24828 0.51238 0.0
H917 H 0.85455 0.28703 0.45213 0.0
H918 H 0.89619 0.27697 0.42898 0.0
H919 H 0.90821 0.29798 0.45355 0.0
C920 C 0.02597 0.28868 0.42936 0.0
C921 C 0.05191 0.30066 0.44805 0.0
C922 C 0.99111 0.27707 0.44055 0.0
C923 C 0.98128 0.2775 0.4705 0.0
C924 C 1.00684 0.28969 0.48902 0.0
H925 H 0.78657 0.21987 0.58397 0.0
H926 H 0.84849 0.23973 0.56483 0.0
C927 C 0.04171 0.30112 0.47795 0.0
C928 C 0.94551 0.26471 0.48298 0.0
H929 H 0.83678 0.25636 0.47944 0.0
C930 C 0.9551 0.25011 0.50526 0.0
C931 C 0.90223 0.26715 0.47375 0.0
C932 C 0.88949 0.28326 0.45099 0.0
C933 C 0.92275 0.23767 0.51821 0.0
C934 C 0.8796 0.24003 0.50883 0.0
C935 C 0.86995 0.2546 0.48657 0.0
C936 C 0.84398 0.22718 0.52125 0.0
C937 C 0.93507 0.22181 0.54139 0.0
C938 C 0.8211 0.21354 0.50317 0.0
C939 C 0.78597 0.20218 0.51403 0.0
C940 C 0.7726 0.20435 0.5432 0.0
C941 C 0.79624 0.21768 0.56152 0.0
C942 C 0.83157 0.22906 0.55059 0.0
H943 H 0.97037 0.21884 0.54176 0.0
H944 H 0.92548 0.22777 0.56309 0.0
H945 H 0.91802 0.20672 0.53791 0.0
H946 H 0.83026 0.21178 0.48051 0.0
H947 H 0.76909 0.19178 0.49944 0.0
H948 H 0.64199 0.75254 0.91609 0.0
H949 H 0.69762 0.77584 0.93642 0.0
H950 H 0.75008 0.72392 0.98578 0.0
H951 H 0.69551 0.70073 0.96566 0.0
H952 H 0.72243 0.78463 0.99782 0.0
H953 H 0.85126 0.74592 0.93416 0.0
H954 H 0.79475 0.74322 0.9254 0.0
H955 H 0.81798 0.72801 0.95467 0.0
C956 C 0.66525 0.74619 0.93142 0.0
C957 C 0.66464 0.72476 0.93899 0.0
C958 C 0.69688 0.75949 0.94304 0.0
C959 C 0.72826 0.7515 0.96229 0.0
C960 C 0.72657 0.73033 0.97065 0.0
H961 H 0.91888 0.80369 0.07843 0.0
H962 H 0.85141 0.79102 0.05671 0.0
C963 C 0.69526 0.7171 0.95908 0.0
C964 C 0.76424 0.76476 0.97287 0.0
H965 H 0.87407 0.76765 0.97306 0.0
C966 C 0.75561 0.78116 0.99218 0.0
C967 C 0.80741 0.76031 0.96523 0.0
C968 C 0.81853 0.74354 0.94352 0.0
C969 C 0.78931 0.79277 1.00486 0.0
C970 C 0.83264 0.78758 0.99834 0.0
C971 C 0.84095 0.77161 0.97826 0.0
C972 C 0.87028 0.79809 0.01214 0.0
C973 C 0.77815 0.81049 0.02499 0.0
C974 C 0.90333 0.80634 0.99447 0.0
C975 C 0.94196 0.81318 0.00682 0.0
C976 C 0.94835 0.81208 0.03713 0.0
C977 C 0.9145 0.80492 0.05503 0.0
C978 C 0.87591 0.79776 0.04261 0.0
H979 H 0.74524 0.81662 0.02056 0.0
H980 H 0.77886 0.80465 0.04788 0.0
H981 H 0.80163 0.82359 0.02284 0.0
H982 H 0.89984 0.8068 0.97095 0.0
H983 H 0.96744 0.81882 0.99259 0.0
loop_
_geom_bond_atom_site_label_1
_geom_bond_atom_site_label_2
_geom_bond_distance
_geom_bond_site_symmetry_2
_ccdc_geom_bond_type
Co0 N4 2.148 . S
Co0 N10 2.128 . S
Co0 N20 2.194 . S
Co0 O25 2.351 . S
Co0 O26 2.155 . S
Co0 O27 2.096 . S
C1 N4 1.301 . S
C1 N5 1.328 . S
C1 H6 0.930 . S
C2 C3 1.333 . S
C2 N4 1.317 . S
C2 H7 0.930 . S
C3 C2 1.333 . S
C3 N5 1.350 . S
C3 H29 0.931 . S
N4 Co0 2.148 . S
N4 C1 1.301 . S
N4 C2 1.317 . S
N5 C1 1.328 . S
N5 C3 1.350 . S
H6 C1 0.930 . S
H7 C2 0.930 . S
C8 O9 1.224 . S
C8 O27 1.247 . S
O9 C8 1.224 . S
N10 Co0 2.128 . S
N10 C11 1.355 . S
N10 C13 1.311 . S
C11 N10 1.355 . S
C11 C12 1.363 . S
C11 H23 0.929 . S
C12 C11 1.363 . S
C12 N14 1.375 . S
C12 H30 0.931 . S
C13 N10 1.311 . S
C13 N14 1.347 . S
C13 H24 0.929 . S
N14 C12 1.375 . S
N14 C13 1.347 . S
C15 C18 1.365 . S
C15 N20 1.328 . S
C15 H21 0.929 . S
C16 C17 1.362 . S
C16 C19 1.378 . S
C16 H31 0.929 . S
C17 C16 1.362 . S
C17 C18 1.366 . S
C18 C15 1.365 . S
C18 C17 1.366 . S
C18 H32 0.930 . S
C19 C16 1.378 . S
C19 N20 1.315 . S
C19 H22 0.930 . S
N20 Co0 2.194 . S
N20 C15 1.328 . S
N20 C19 1.315 . S
H21 C15 0.929 . S
H22 C19 0.930 . S
H23 C11 0.929 . S
H24 C13 0.929 . S
O25 Co0 2.351 . S
O25 C28 1.244 . S
O26 Co0 2.155 . S
O26 C28 1.240 . S
O27 Co0 2.096 . S
O27 C8 1.247 . S
C28 O25 1.244 . S
C28 O26 1.240 . S
H29 C3 0.931 . S
H30 C12 0.931 . S
H31 C16 0.929 . S
H32 C18 0.930 . S
Co33 N37 2.148 . S
Co33 N43 2.128 . S
Co33 N53 2.194 . S
Co33 O58 2.351 . S
Co33 O59 2.155 . S
Co33 O60 2.096 . S
C34 N37 1.301 . S
C34 N38 1.328 . S
C34 H39 0.930 . S
C35 C36 1.333 . S
C35 N37 1.317 . S
C35 H40 0.930 . S
C36 C35 1.333 . S
C36 N38 1.350 . S
C36 H62 0.931 . S
N37 Co33 2.148 . S
N37 C34 1.301 . S
N37 C35 1.317 . S
N38 C34 1.328 . S
N38 C36 1.350 . S
H39 C34 0.930 . S
H40 C35 0.930 . S
C41 O42 1.224 . S
C41 O60 1.247 . S
O42 C41 1.224 . S
N43 Co33 2.128 . S
N43 C44 1.355 . S
N43 C46 1.311 . S
C44 N43 1.355 . S
C44 C45 1.363 . S
C44 H56 0.929 . S
C45 C44 1.363 . S
C45 N47 1.375 . S
C45 H63 0.931 . S
C46 N43 1.311 . S
C46 N47 1.347 . S
C46 H57 0.929 . S
N47 C45 1.375 . S
N47 C46 1.347 . S
C48 C51 1.365 . S
C48 N53 1.328 . S
C48 H54 0.929 . S
C49 C50 1.362 . S
C49 C52 1.378 . S
C49 H64 0.929 . S
C50 C49 1.362 . S
C50 C51 1.366 . S
C51 C48 1.365 . S
C51 C50 1.366 . S
C51 H65 0.930 . S
C52 C49 1.378 . S
C52 N53 1.315 . S
C52 H55 0.930 . S
N53 Co33 2.194 . S
N53 C48 1.328 . S
N53 C52 1.315 . S
H54 C48 0.929 . S
H55 C52 0.930 . S
H56 C44 0.929 . S
H57 C46 0.929 . S
O58 Co33 2.351 . S
O58 C61 1.244 . S
O59 Co33 2.155 . S
O59 C61 1.240 . S
O60 Co33 2.096 . S
O60 C41 1.247 . S
C61 O58 1.244 . S
C61 O59 1.240 . S
H62 C36 0.931 . S
H63 C45 0.931 . S
H64 C49 0.929 . S
H65 C51 0.930 . S
Co66 N70 2.148 . S
Co66 N76 2.128 . S
Co66 N86 2.194 . S
Co66 O91 2.351 . S
Co66 O92 2.155 . S
Co66 O93 2.096 . S
C67 N70 1.301 . S
C67 N71 1.328 . S
C67 H72 0.930 . S
C68 C69 1.333 . S
C68 N70 1.317 . S
C68 H73 0.930 . S
C69 C68 1.333 . S
C69 N71 1.350 . S
C69 H95 0.931 . S
N70 Co66 2.148 . S
N70 C67 1.301 . S
N70 C68 1.317 . S
N71 C67 1.328 . S
N71 C69 1.350 . S
H72 C67 0.930 . S
H73 C68 0.930 . S
C74 O75 1.224 . S
C74 O93 1.247 . S
O75 C74 1.224 . S
N76 Co66 2.128 . S
N76 C77 1.355 . S
N76 C79 1.311 . S
C77 N76 1.355 . S
C77 C78 1.363 . S
C77 H89 0.929 . S
C78 C77 1.363 . S
C78 N80 1.375 . S
C78 H96 0.931 . S
C79 N76 1.311 . S
C79 N80 1.347 . S
C79 H90 0.929 . S
N80 C78 1.375 . S
N80 C79 1.347 . S
C81 C84 1.365 . S
C81 N86 1.328 . S
C81 H87 0.929 . S
C82 C83 1.362 . S
C82 C85 1.378 . S
C82 H97 0.929 . S
C83 C82 1.362 . S
C83 C84 1.366 . S
C84 C81 1.365 . S
C84 C83 1.366 . S
C84 H98 0.930 . S
C85 C82 1.378 . S
C85 N86 1.315 . S
C85 H88 0.930 . S
N86 Co66 2.194 . S
N86 C81 1.328 . S
N86 C85 1.315 . S
H87 C81 0.929 . S
H88 C85 0.930 . S
H89 C77 0.929 . S
H90 C79 0.929 . S
O91 Co66 2.351 . S
O91 C94 1.244 . S
O92 Co66 2.155 . S
O92 C94 1.240 . S
O93 Co66 2.096 . S
O93 C74 1.247 . S
C94 O91 1.244 . S
C94 O92 1.240 . S
H95 C69 0.931 . S
H96 C78 0.931 . S
H97 C82 0.929 . S
H98 C84 0.930 . S
Co99 N103 2.148 . S
Co99 N109 2.128 . S
Co99 N119 2.194 . S
Co99 O124 2.351 . S
Co99 O125 2.155 . S
Co99 O126 2.096 . S
C100 N103 1.301 . S
C100 N104 1.328 . S
C100 H105 0.930 . S
C101 C102 1.333 . S
C101 N103 1.317 . S
C101 H106 0.930 . S
C102 C101 1.333 . S
C102 N104 1.350 . S
C102 H128 0.931 . S
N103 Co99 2.148 . S
N103 C100 1.301 . S
N103 C101 1.317 . S
N104 C100 1.328 . S
N104 C102 1.350 . S
H105 C100 0.930 . S
H106 C101 0.930 . S
C107 O108 1.224 . S
C107 O126 1.247 . S
O108 C107 1.224 . S
N109 Co99 2.128 . S
N109 C110 1.355 . S
N109 C112 1.311 . S
C110 N109 1.355 . S
C110 C111 1.363 . S
C110 H122 0.929 . S
C111 C110 1.363 . S
C111 N113 1.375 . S
C111 H129 0.931 . S
C112 N109 1.311 . S
C112 N113 1.347 . S
C112 H123 0.929 . S
N113 C111 1.375 . S
N113 C112 1.347 . S
C114 C117 1.365 . S
C114 N119 1.328 . S
C114 H120 0.929 . S
C115 C116 1.362 . S
C115 C118 1.378 . S
C115 H130 0.929 . S
C116 C115 1.362 . S
C116 C117 1.366 . S
C117 C114 1.365 . S
C117 C116 1.366 . S
C117 H131 0.930 . S
C118 C115 1.378 . S
C118 N119 1.315 . S
C118 H121 0.930 . S
N119 Co99 2.194 . S
N119 C114 1.328 . S
N119 C118 1.315 . S
H120 C114 0.929 . S
H121 C118 0.930 . S
H122 C110 0.929 . S
H123 C112 0.929 . S
O124 Co99 2.351 . S
O124 C127 1.244 . S
O125 Co99 2.155 . S
O125 C127 1.240 . S
O126 Co99 2.096 . S
O126 C107 1.247 . S
C127 O124 1.244 . S
C127 O125 1.240 . S
H128 C102 0.931 . S
H129 C111 0.931 . S
H130 C115 0.929 . S
H131 C117 0.930 . S
Co132 N136 2.148 . S
Co132 N142 2.128 . S
Co132 N152 2.194 . S
Co132 O157 2.351 . S
Co132 O158 2.155 . S
Co132 O159 2.096 . S
C133 N136 1.301 . S
C133 N137 1.328 . S
C133 H138 0.930 . S
C134 C135 1.333 . S
C134 N136 1.317 . S
C134 H139 0.930 . S
C135 C134 1.333 . S
C135 N137 1.350 . S
C135 H161 0.931 . S
N136 Co132 2.148 . S
N136 C133 1.301 . S
N136 C134 1.317 . S
N137 C133 1.328 . S
N137 C135 1.350 . S
H138 C133 0.930 . S
H139 C134 0.930 . S
C140 O141 1.224 . S
C140 O159 1.247 . S
O141 C140 1.224 . S
N142 Co132 2.128 . S
N142 C143 1.355 . S
N142 C145 1.311 . S
C143 N142 1.355 . S
C143 C144 1.363 . S
C143 H155 0.929 . S
C144 C143 1.363 . S
C144 N146 1.375 . S
C144 H162 0.931 . S
C145 N142 1.311 . S
C145 N146 1.347 . S
C145 H156 0.929 . S
N146 C144 1.375 . S
N146 C145 1.347 . S
C147 C150 1.365 . S
C147 N152 1.328 . S
C147 H153 0.929 . S
C148 C149 1.362 . S
C148 C151 1.378 . S
C148 H163 0.929 . S
C149 C148 1.362 . S
C149 C150 1.366 . S
C150 C147 1.365 . S
C150 C149 1.366 . S
C150 H164 0.930 . S
C151 C148 1.378 . S
C151 N152 1.315 . S
C151 H154 0.930 . S
N152 Co132 2.194 . S
N152 C147 1.328 . S
N152 C151 1.315 . S
H153 C147 0.929 . S
H154 C151 0.930 . S
H155 C143 0.929 . S
H156 C145 0.929 . S
O157 Co132 2.351 . S
O157 C160 1.244 . S
O158 Co132 2.155 . S
O158 C160 1.240 . S
O159 Co132 2.096 . S
O159 C140 1.247 . S
C160 O157 1.244 . S
C160 O158 1.240 . S
H161 C135 0.931 . S
H162 C144 0.931 . S
H163 C148 0.929 . S
H164 C150 0.930 . S
Co165 N169 2.148 . S
Co165 N175 2.128 . S
Co165 N185 2.194 . S
Co165 O190 2.351 . S
Co165 O191 2.155 . S
Co165 O192 2.096 . S
C166 N169 1.301 . S
C166 N170 1.328 . S
C166 H171 0.930 . S
C167 C168 1.333 . S
C167 N169 1.317 . S
C167 H172 0.930 . S
C168 C167 1.333 . S
C168 N170 1.350 . S
C168 H194 0.931 . S
N169 Co165 2.148 . S
N169 C166 1.301 . S
N169 C167 1.317 . S
N170 C166 1.328 . S
N170 C168 1.350 . S
H171 C166 0.930 . S
H172 C167 0.930 . S
C173 O174 1.224 . S
C173 O192 1.246 1_655 S
O174 C173 1.224 . S
N175 Co165 2.128 . S
N175 C176 1.355 . S
N175 C178 1.311 1_455 S
C176 N175 1.355 . S
C176 C177 1.363 1_455 S
C176 H188 0.929 . S
C177 C176 1.363 1_655 S
C177 N179 1.375 . S
C177 H195 0.931 . S
C178 N175 1.311 1_655 S
C178 N179 1.347 . S
C178 H189 0.929 . S
N179 C177 1.375 . S
N179 C178 1.347 . S
C180 C183 1.365 . S
C180 N185 1.328 . S
C180 H186 0.929 . S
C181 C182 1.362 . S
C181 C184 1.378 . S
C181 H196 0.929 . S
C182 C181 1.362 . S
C182 C183 1.366 . S
C183 C180 1.365 . S
C183 C182 1.366 . S
C183 H197 0.930 . S
C184 C181 1.378 . S
C184 N185 1.315 . S
C184 H187 0.930 . S
N185 Co165 2.194 . S
N185 C180 1.328 . S
N185 C184 1.315 . S
H186 C180 0.929 . S
H187 C184 0.930 . S
H188 C176 0.929 . S
H189 C178 0.929 . S
O190 Co165 2.351 . S
O190 C193 1.244 . S
O191 Co165 2.155 . S
O191 C193 1.240 . S
O192 Co165 2.096 . S
O192 C173 1.246 1_455 S
C193 O190 1.244 . S
C193 O191 1.240 . S
H194 C168 0.931 . S
H195 C177 0.931 . S
H196 C181 0.929 . S
H197 C183 0.930 . S
Co198 N202 2.148 . S
Co198 N208 2.128 . S
Co198 N218 2.194 . S
Co198 O223 2.351 . S
Co198 O224 2.155 . S
Co198 O225 2.096 . S
C199 N202 1.301 . S
C199 N203 1.328 . S
C199 H204 0.930 . S
C200 C201 1.333 . S
C200 N202 1.317 . S
C200 H205 0.930 . S
C201 C200 1.333 . S
C201 N203 1.350 . S
C201 H227 0.931 . S
N202 Co198 2.148 . S
N202 C199 1.301 . S
N202 C200 1.317 . S
N203 C199 1.328 . S
N203 C201 1.350 . S
H204 C199 0.930 . S
H205 C200 0.930 . S
C206 O207 1.224 . S
C206 O225 1.247 . S
O207 C206 1.224 . S
N208 Co198 2.128 . S
N208 C209 1.355 . S
N208 C211 1.311 . S
C209 N208 1.355 . S
C209 C210 1.363 . S
C209 H221 0.929 . S
C210 C209 1.363 . S
C210 N212 1.375 . S
C210 H228 0.931 . S
C211 N208 1.311 . S
C211 N212 1.347 . S
C211 H222 0.929 . S
N212 C210 1.375 . S
N212 C211 1.347 . S
C213 C216 1.365 . S
C213 N218 1.328 . S
C213 H219 0.929 . S
C214 C215 1.362 . S
C214 C217 1.378 . S
C214 H229 0.929 . S
C215 C214 1.362 . S
C215 C216 1.366 . S
C216 C213 1.365 . S
C216 C215 1.366 . S
C216 H230 0.930 . S
C217 C214 1.378 . S
C217 N218 1.315 . S
C217 H220 0.930 . S
N218 Co198 2.194 . S
N218 C213 1.328 . S
N218 C217 1.315 . S
H219 C213 0.929 . S
H220 C217 0.930 . S
H221 C209 0.929 . S
H222 C211 0.929 . S
O223 Co198 2.351 . S
O223 C226 1.244 . S
O224 Co198 2.155 . S
O224 C226 1.240 . S
O225 Co198 2.096 . S
O225 C206 1.247 . S
C226 O223 1.244 . S
C226 O224 1.240 . S
H227 C201 0.931 . S
H228 C210 0.931 . S
H229 C214 0.929 . S
H230 C216 0.930 . S
Co231 N235 2.148 . S
Co231 N241 2.128 . S
Co231 N251 2.194 . S
Co231 O256 2.351 . S
Co231 O257 2.155 . S
Co231 O258 2.096 . S
C232 N235 1.301 1_655 S
C232 N236 1.328 . S
C232 H237 0.930 . S
C233 C234 1.333 1_455 S
C233 N235 1.317 . S
C233 H238 0.930 . S
C234 C233 1.333 1_655 S
C234 N236 1.350 . S
C234 H260 0.931 . S
N235 Co231 2.148 . S
N235 C232 1.301 1_455 S
N235 C233 1.317 . S
N236 C232 1.328 . S
N236 C234 1.350 . S
H237 C232 0.930 . S
H238 C233 0.930 . S
C239 O240 1.224 . S
C239 O258 1.247 . S
O240 C239 1.224 . S
N241 Co231 2.128 . S
N241 C242 1.355 . S
N241 C244 1.311 . S
C242 N241 1.355 . S
C242 C243 1.363 . S
C242 H254 0.929 . S
C243 C242 1.363 . S
C243 N245 1.375 . S
C243 H261 0.931 . S
C244 N241 1.311 . S
C244 N245 1.347 . S
C244 H255 0.929 . S
N245 C243 1.375 . S
N245 C244 1.347 . S
C246 C249 1.365 . S
C246 N251 1.328 . S
C246 H252 0.929 . S
C247 C248 1.362 . S
C247 C250 1.378 . S
C247 H262 0.929 . S
C248 C247 1.362 . S
C248 C249 1.366 . S
C249 C246 1.365 . S
C249 C248 1.366 . S
C249 H263 0.930 . S
C250 C247 1.378 . S
C250 N251 1.315 . S
C250 H253 0.930 . S
N251 Co231 2.194 . S
N251 C246 1.328 . S
N251 C250 1.315 . S
H252 C246 0.929 . S
H253 C250 0.930 . S
H254 C242 0.929 . S
H255 C244 0.929 . S
O256 Co231 2.351 . S
O256 C259 1.244 . S
O257 Co231 2.155 . S
O257 C259 1.240 . S
O258 Co231 2.096 . S
O258 C239 1.247 . S
C259 O256 1.244 . S
C259 O257 1.240 . S
H260 C234 0.931 . S
H261 C243 0.931 . S
H262 C247 0.929 . S
H263 C249 0.930 . S
H264 C272 0.929 . S
H265 C274 0.930 . S
H266 C276 0.930 . S
H267 C279 0.929 . S
H268 C282 0.930 . S
H269 C284 0.960 . S
H270 C284 0.960 . S
H271 C284 0.960 . S
C272 H264 0.929 . S
C272 C273 1.377 . S
C272 C274 1.384 . S
C273 C272 1.377 . S
C273 C279 1.390 . S
C274 H265 0.930 . S
C274 C272 1.384 . S
C274 C275 1.372 . S
C275 C274 1.372 . S
C275 C276 1.400 . S
C275 C280 1.490 . S
C276 H266 0.930 . S
C276 C275 1.400 . S
C276 C279 1.386 . S
H277 C293 0.930 . S
H278 C294 0.931 . S
C279 H267 0.929 . S
C279 C273 1.390 . S
C279 C276 1.386 . S
C280 C275 1.490 . S
C280 C282 1.395 . S
C280 C283 1.403 . S
H281 C287 0.930 . S
C282 H268 0.930 . S
C282 C280 1.395 . S
C282 C285 1.403 . S
C283 C280 1.403 . S
C283 C284 1.524 . S
C283 C287 1.400 . S
C284 H269 0.960 . S
C284 H270 0.960 . S
C284 H271 0.960 . S
C284 C283 1.524 . S
C285 C282 1.403 . S
C285 C286 1.392 . S
C285 C289 1.495 . S
C286 C285 1.392 . S
C286 C287 1.385 . S
C286 C288 1.478 . S
C287 H281 0.930 . S
C287 C283 1.400 . S
C287 C286 1.385 . S
C288 C286 1.478 . S
C288 C290 1.381 . S
C288 C294 1.383 . S
C289 C285 1.495 . S
C289 H295 0.959 . S
C289 H296 0.961 . S
C289 H297 0.960 . S
C290 C288 1.381 . S
C290 C291 1.394 . S
C290 H298 0.930 . S
C291 C290 1.394 . S
C291 C292 1.383 . S
C291 H299 0.929 . S
C292 C291 1.383 . S
C292 C293 1.377 . S
C293 H277 0.930 . S
C293 C292 1.377 . S
C293 C294 1.379 . S
C294 H278 0.931 . S
C294 C288 1.383 . S
C294 C293 1.379 . S
H295 C289 0.959 . S
H296 C289 0.961 . S
H297 C289 0.960 . S
H298 C290 0.930 . S
H299 C291 0.929 . S
H300 C308 0.929 . S
H301 C310 0.930 . S
H302 C312 0.930 . S
H303 C315 0.929 . S
H304 C318 0.930 . S
H305 C320 0.960 . S
H306 C320 0.960 . S
H307 C320 0.960 . S
C308 H300 0.929 . S
C308 C309 1.377 . S
C308 C310 1.384 . S
C309 C308 1.377 . S
C309 C315 1.390 . S
C310 H301 0.930 . S
C310 C308 1.384 . S
C310 C311 1.372 . S
C311 C310 1.372 . S
C311 C312 1.400 . S
C311 C316 1.490 . S
C312 H302 0.930 . S
C312 C311 1.400 . S
C312 C315 1.386 . S
H313 C329 0.930 . S
H314 C330 0.931 . S
C315 H303 0.929 . S
C315 C309 1.390 . S
C315 C312 1.386 . S
C316 C311 1.490 . S
C316 C318 1.395 . S
C316 C319 1.403 . S
H317 C323 0.930 . S
C318 H304 0.930 . S
C318 C316 1.395 . S
C318 C321 1.403 . S
C319 C316 1.403 . S
C319 C320 1.524 . S
C319 C323 1.400 . S
C320 H305 0.960 . S
C320 H306 0.960 . S
C320 H307 0.960 . S
C320 C319 1.524 . S
C321 C318 1.403 . S
C321 C322 1.392 . S
C321 C325 1.495 . S
C322 C321 1.392 . S
C322 C323 1.385 . S
C322 C324 1.478 . S
C323 H317 0.930 . S
C323 C319 1.400 . S
C323 C322 1.385 . S
C324 C322 1.478 . S
C324 C326 1.381 . S
C324 C330 1.383 . S
C325 C321 1.495 . S
C325 H331 0.959 . S
C325 H332 0.961 . S
C325 H333 0.960 . S
C326 C324 1.381 . S
C326 C327 1.394 . S
C326 H334 0.930 . S
C327 C326 1.394 . S
C327 C328 1.383 . S
C327 H335 0.929 . S
C328 C327 1.383 . S
C328 C329 1.377 . S
C329 H313 0.930 . S
C329 C328 1.377 . S
C329 C330 1.379 . S
C330 H314 0.931 . S
C330 C324 1.383 . S
C330 C329 1.379 . S
H331 C325 0.959 . S
H332 C325 0.961 . S
H333 C325 0.960 . S
H334 C326 0.930 . S
H335 C327 0.929 . S
H336 C344 0.921 1_455 S
H337 C346 0.930 . S
H338 C348 0.930 . S
H339 C351 0.929 . S
H340 C354 0.930 . S
H341 C356 0.960 . S
H342 C356 0.960 . S
H343 C356 0.960 . S
C344 H336 0.921 1_655 S
C344 C345 1.378 . S
C344 C346 1.391 . S
C345 C344 1.378 . S
C345 C351 1.390 . S
C346 H337 0.930 . S
C346 C344 1.391 . S
C346 C347 1.372 . S
C347 C346 1.372 . S
C347 C348 1.400 . S
C347 C352 1.490 . S
C348 H338 0.930 . S
C348 C347 1.400 . S
C348 C351 1.386 . S
H349 C365 0.930 . S
H350 C366 0.931 . S
C351 H339 0.929 . S
C351 C345 1.390 . S
C351 C348 1.386 . S
C352 C347 1.490 . S
C352 C354 1.395 . S
C352 C355 1.403 . S
H353 C359 0.930 . S
C354 H340 0.930 . S
C354 C352 1.395 . S
C354 C357 1.403 . S
C355 C352 1.403 . S
C355 C356 1.524 . S
C355 C359 1.400 . S
C356 H341 0.960 . S
C356 H342 0.960 . S
C356 H343 0.960 . S
C356 C355 1.524 . S
C357 C354 1.403 . S
C357 C358 1.392 . S
C357 C361 1.495 . S
C358 C357 1.392 . S
C358 C359 1.385 . S
C358 C360 1.478 . S
C359 H353 0.930 . S
C359 C355 1.400 . S
C359 C358 1.385 . S
C360 C358 1.478 . S
C360 C362 1.381 . S
C360 C366 1.383 . S
C361 C357 1.495 . S
C361 H367 0.959 . S
C361 H368 0.961 . S
C361 H369 0.960 . S
C362 C360 1.381 . S
C362 C363 1.394 . S
C362 H370 0.930 . S
C363 C362 1.394 . S
C363 C364 1.383 . S
C363 H371 0.929 . S
C364 C363 1.383 . S
C364 C365 1.377 . S
C365 H349 0.930 . S
C365 C364 1.377 . S
C365 C366 1.379 . S
C366 H350 0.931 . S
C366 C360 1.383 . S
C366 C365 1.379 . S
H367 C361 0.959 . S
H368 C361 0.961 . S
H369 C361 0.960 . S
H370 C362 0.930 . S
H371 C363 0.929 . S
H372 C380 0.929 . S
H373 C382 0.930 . S
H374 C384 0.930 . S
H375 C387 0.929 . S
H376 C390 0.930 . S
H377 C392 0.960 . S
H378 C392 0.960 . S
H379 C392 0.960 . S
C380 H372 0.929 . S
C380 C381 1.377 . S
C380 C382 1.384 . S
C381 C380 1.377 . S
C381 C387 1.390 . S
C382 H373 0.930 . S
C382 C380 1.384 . S
C382 C383 1.372 . S
C383 C382 1.372 . S
C383 C384 1.400 . S
C383 C388 1.490 . S
C384 H374 0.930 . S
C384 C383 1.400 . S
C384 C387 1.386 . S
H385 C401 0.930 . S
H386 C402 0.931 . S
C387 H375 0.929 . S
C387 C381 1.390 . S
C387 C384 1.386 . S
C388 C383 1.490 . S
C388 C390 1.395 . S
C388 C391 1.403 . S
H389 C395 0.930 . S
C390 H376 0.930 . S
C390 C388 1.395 . S
C390 C393 1.403 . S
C391 C388 1.403 . S
C391 C392 1.524 . S
C391 C395 1.400 . S
C392 H377 0.960 . S
C392 H378 0.960 . S
C392 H379 0.960 . S
C392 C391 1.524 . S
C393 C390 1.403 . S
C393 C394 1.392 . S
C393 C397 1.495 . S
C394 C393 1.392 . S
C394 C395 1.385 . S
C394 C396 1.478 . S
C395 H389 0.930 . S
C395 C391 1.400 . S
C395 C394 1.385 . S
C396 C394 1.478 . S
C396 C398 1.381 . S
C396 C402 1.383 . S
C397 C393 1.495 . S
C397 H403 0.959 . S
C397 H404 0.961 . S
C397 H405 0.960 . S
C398 C396 1.381 . S
C398 C399 1.394 . S
C398 H406 0.930 . S
C399 C398 1.394 . S
C399 C400 1.383 . S
C399 H407 0.929 . S
C400 C399 1.383 . S
C400 C401 1.377 . S
C401 H385 0.930 . S
C401 C400 1.377 . S
C401 C402 1.379 . S
C402 H386 0.931 . S
C402 C396 1.383 . S
C402 C401 1.379 . S
H403 C397 0.959 . S
H404 C397 0.961 . S
H405 C397 0.960 . S
H406 C398 0.930 . S
H407 C399 0.929 . S
H408 C416 0.929 . S
H409 C418 0.930 . S
H410 C420 0.930 . S
H411 C423 0.929 . S
H412 C426 0.930 . S
H413 C428 0.960 . S
H414 C428 0.960 . S
H415 C428 0.960 . S
C416 H408 0.929 . S
C416 C417 1.377 . S
C416 C418 1.384 . S
C417 C416 1.377 . S
C417 C423 1.390 . S
C418 H409 0.930 . S
C418 C416 1.384 . S
C418 C419 1.372 . S
C419 C418 1.372 . S
C419 C420 1.400 . S
C419 C424 1.490 . S
C420 H410 0.930 . S
C420 C419 1.400 . S
C420 C423 1.386 . S
H421 C437 0.930 . S
H422 C438 0.931 . S
C423 H411 0.929 . S
C423 C417 1.390 . S
C423 C420 1.386 . S
C424 C419 1.490 . S
C424 C426 1.395 . S
C424 C427 1.403 . S
H425 C431 0.930 . S
C426 H412 0.930 . S
C426 C424 1.395 . S
C426 C429 1.403 . S
C427 C424 1.403 . S
C427 C428 1.524 . S
C427 C431 1.400 . S
C428 H413 0.960 . S
C428 H414 0.960 . S
C428 H415 0.960 . S
C428 C427 1.524 . S
C429 C426 1.403 . S
C429 C430 1.392 . S
C429 C433 1.495 . S
C430 C429 1.392 . S
C430 C431 1.385 . S
C430 C432 1.478 . S
C431 H425 0.930 . S
C431 C427 1.400 . S
C431 C430 1.385 . S
C432 C430 1.478 . S
C432 C434 1.381 . S
C432 C438 1.383 . S
C433 C429 1.495 . S
C433 H439 0.959 . S
C433 H440 0.961 . S
C433 H441 0.960 . S
C434 C432 1.381 . S
C434 C435 1.394 . S
C434 H442 0.930 . S
C435 C434 1.394 . S
C435 C436 1.383 . S
C435 H443 0.920 1_655 S
C436 C435 1.383 . S
C436 C437 1.377 . S
C437 H421 0.930 . S
C437 C436 1.377 . S
C437 C438 1.379 . S
C438 H422 0.931 . S
C438 C432 1.383 . S
C438 C437 1.379 . S
H439 C433 0.959 . S
H440 C433 0.961 . S
H441 C433 0.960 . S
H442 C434 0.930 . S
H443 C435 0.920 1_455 S
H444 C452 0.929 . S
H445 C454 0.930 . S
H446 C456 0.930 . S
H447 C459 0.929 . S
H448 C462 0.930 . S
H449 C464 0.960 . S
H450 C464 0.960 . S
H451 C464 0.960 . S
C452 H444 0.929 . S
C452 C453 1.377 . S
C452 C454 1.384 . S
C453 C452 1.377 . S
C453 C459 1.390 . S
C454 H445 0.930 . S
C454 C452 1.384 . S
C454 C455 1.372 . S
C455 C454 1.372 . S
C455 C456 1.400 . S
C455 C460 1.490 . S
C456 H446 0.930 . S
C456 C455 1.400 . S
C456 C459 1.386 . S
H457 C473 0.930 . S
H458 C474 0.931 . S
C459 H447 0.929 . S
C459 C453 1.390 . S
C459 C456 1.386 . S
C460 C455 1.490 . S
C460 C462 1.395 . S
C460 C463 1.403 . S
H461 C467 0.930 . S
C462 H448 0.930 . S
C462 C460 1.395 . S
C462 C465 1.403 . S
C463 C460 1.403 . S
C463 C464 1.524 . S
C463 C467 1.400 . S
C464 H449 0.960 . S
C464 H450 0.960 . S
C464 H451 0.960 . S
C464 C463 1.524 . S
C465 C462 1.403 . S
C465 C466 1.392 . S
C465 C469 1.495 . S
C466 C465 1.392 . S
C466 C467 1.385 . S
C466 C468 1.478 . S
C467 H461 0.930 . S
C467 C463 1.400 . S
C467 C466 1.385 . S
C468 C466 1.478 . S
C468 C470 1.381 . S
C468 C474 1.383 . S
C469 C465 1.495 . S
C469 H475 0.959 . S
C469 H476 0.961 . S
C469 H477 0.960 . S
C470 C468 1.381 . S
C470 C471 1.394 . S
C470 H478 0.930 . S
C471 C470 1.394 . S
C471 C472 1.383 . S
C471 H479 0.929 1_655 S
C472 C471 1.383 . S
C472 C473 1.377 . S
C473 H457 0.930 . S
C473 C472 1.377 . S
C473 C474 1.379 . S
C474 H458 0.931 . S
C474 C468 1.383 . S
C474 C473 1.379 . S
H475 C469 0.959 . S
H476 C469 0.961 . S
H477 C469 0.960 . S
H478 C470 0.930 . S
H479 C471 0.929 1_455 S
H480 C488 0.929 . S
H481 C490 0.930 . S
H482 C492 0.930 . S
H483 C495 0.929 . S
H484 C498 0.930 . S
H485 C500 0.960 . S
H486 C500 0.960 . S
H487 C500 0.960 . S
C488 H480 0.929 . S
C488 C489 1.377 . S
C488 C490 1.384 . S
C489 C488 1.377 . S
C489 C495 1.390 . S
C490 H481 0.930 . S
C490 C488 1.384 . S
C490 C491 1.372 . S
C491 C490 1.372 . S
C491 C492 1.400 . S
C491 C496 1.490 . S
C492 H482 0.930 . S
C492 C491 1.400 . S
C492 C495 1.386 . S
H493 C509 0.930 . S
H494 C510 0.931 . S
C495 H483 0.929 . S
C495 C489 1.390 . S
C495 C492 1.386 . S
C496 C491 1.490 . S
C496 C498 1.395 . S
C496 C499 1.403 . S
H497 C503 0.930 . S
C498 H484 0.930 . S
C498 C496 1.395 . S
C498 C501 1.403 . S
C499 C496 1.403 . S
C499 C500 1.524 . S
C499 C503 1.400 . S
C500 H485 0.960 . S
C500 H486 0.960 . S
C500 H487 0.960 . S
C500 C499 1.524 . S
C501 C498 1.403 . S
C501 C502 1.392 . S
C501 C505 1.495 . S
C502 C501 1.392 . S
C502 C503 1.385 . S
C502 C504 1.478 . S
C503 H497 0.930 . S
C503 C499 1.400 . S
C503 C502 1.385 . S
C504 C502 1.478 . S
C504 C506 1.381 . S
C504 C510 1.383 . S
C505 C501 1.495 . S
C505 H511 0.959 . S
C505 H512 0.961 . S
C505 H513 0.960 . S
C506 C504 1.381 . S
C506 C507 1.394 . S
C506 H514 0.930 . S
C507 C506 1.394 . S
C507 C508 1.383 . S
C507 H515 0.929 . S
C508 C507 1.383 . S
C508 C509 1.377 . S
C509 H493 0.930 . S
C509 C508 1.377 . S
C509 C510 1.379 . S
C510 H494 0.931 . S
C510 C504 1.383 . S
C510 C509 1.379 . S
H511 C505 0.959 . S
H512 C505 0.961 . S
H513 C505 0.960 . S
H514 C506 0.930 . S
H515 C507 0.929 . S
H516 C524 0.929 . S
H517 C526 0.930 . S
H518 C528 0.930 . S
H519 C531 0.929 . S
H520 C534 0.930 . S
H521 C536 0.960 . S
H522 C536 0.960 . S
H523 C536 0.960 . S
C524 H516 0.929 . S
C524 C525 1.377 . S
C524 C526 1.384 . S
C525 C524 1.377 . S
C525 C531 1.390 . S
C526 H517 0.930 . S
C526 C524 1.384 . S
C526 C527 1.372 . S
C527 C526 1.372 . S
C527 C528 1.400 . S
C527 C532 1.490 . S
C528 H518 0.930 . S
C528 C527 1.400 . S
C528 C531 1.386 . S
H529 C545 0.930 . S
H530 C546 0.931 . S
C531 H519 0.929 . S
C531 C525 1.390 . S
C531 C528 1.386 . S
C532 C527 1.490 . S
C532 C534 1.395 . S
C532 C535 1.403 . S
H533 C539 0.930 . S
C534 H520 0.930 . S
C534 C532 1.395 . S
C534 C537 1.403 . S
C535 C532 1.403 . S
C535 C536 1.524 . S
C535 C539 1.400 . S
C536 H521 0.960 . S
C536 H522 0.960 . S
C536 H523 0.960 . S
C536 C535 1.524 . S
C537 C534 1.403 . S
C537 C538 1.392 . S
C537 C541 1.495 . S
C538 C537 1.392 . S
C538 C539 1.385 . S
C538 C540 1.478 . S
C539 H533 0.930 . S
C539 C535 1.400 . S
C539 C538 1.385 . S
C540 C538 1.478 . S
C540 C542 1.381 . S
C540 C546 1.383 . S
C541 C537 1.495 . S
C541 H547 0.959 . S
C541 H548 0.961 . S
C541 H549 0.960 . S
C542 C540 1.381 . S
C542 C543 1.394 . S
C542 H550 0.930 . S
C543 C542 1.394 . S
C543 C544 1.383 . S
C543 H551 0.929 . S
C544 C543 1.383 . S
C544 C545 1.377 . S
C545 H529 0.930 . S
C545 C544 1.377 . S
C545 C546 1.379 . S
C546 H530 0.931 . S
C546 C540 1.383 . S
C546 C545 1.379 . S
H547 C541 0.959 . S
H548 C541 0.961 . S
H549 C541 0.960 . S
H550 C542 0.930 . S
H551 C543 0.929 . S
H552 C560 0.929 . S
H553 C562 0.930 . S
H554 C564 0.930 . S
H555 C567 0.929 . S
H556 C570 0.930 . S
H557 C572 0.960 . S
H558 C572 0.960 . S
H559 C572 0.960 . S
C560 H552 0.929 . S
C560 C561 1.377 . S
C560 C562 1.384 . S
C561 C560 1.377 . S
C561 C567 1.390 . S
C562 H553 0.930 . S
C562 C560 1.384 . S
C562 C563 1.372 . S
C563 C562 1.372 . S
C563 C564 1.400 . S
C563 C568 1.490 . S
C564 H554 0.930 . S
C564 C563 1.400 . S
C564 C567 1.386 . S
H565 C581 0.930 . S
H566 C582 0.931 . S
C567 H555 0.929 . S
C567 C561 1.390 . S
C567 C564 1.386 . S
C568 C563 1.490 . S
C568 C570 1.395 . S
C568 C571 1.403 . S
H569 C575 0.930 . S
C570 H556 0.930 . S
C570 C568 1.395 . S
C570 C573 1.403 . S
C571 C568 1.403 . S
C571 C572 1.524 . S
C571 C575 1.400 . S
C572 H557 0.960 . S
C572 H558 0.960 . S
C572 H559 0.960 . S
C572 C571 1.524 . S
C573 C570 1.403 . S
C573 C574 1.392 . S
C573 C577 1.495 . S
C574 C573 1.392 . S
C574 C575 1.385 . S
C574 C576 1.478 . S
C575 H569 0.930 . S
C575 C571 1.400 . S
C575 C574 1.385 . S
C576 C574 1.478 . S
C576 C578 1.381 . S
C576 C582 1.383 . S
C577 C573 1.495 . S
C577 H583 0.959 . S
C577 H584 0.961 . S
C577 H585 0.960 . S
C578 C576 1.381 . S
C578 C579 1.394 . S
C578 H586 0.930 . S
C579 C578 1.394 . S
C579 C580 1.383 . S
C579 H587 0.929 . S
C580 C579 1.383 . S
C580 C581 1.377 . S
C581 H565 0.930 . S
C581 C580 1.377 . S
C581 C582 1.379 . S
C582 H566 0.931 . S
C582 C576 1.383 . S
C582 C581 1.379 . S
H583 C577 0.959 . S
H584 C577 0.961 . S
H585 C577 0.960 . S
H586 C578 0.930 . S
H587 C579 0.929 . S
H588 C596 0.929 . S
H589 C598 0.930 . S
H590 C600 0.930 . S
H591 C603 0.929 . S
H592 C606 0.930 . S
H593 C608 0.960 . S
H594 C608 0.960 . S
H595 C608 0.960 . S
C596 H588 0.929 . S
C596 C597 1.377 . S
C596 C598 1.384 . S
C597 C596 1.377 . S
C597 C603 1.390 . S
C598 H589 0.930 . S
C598 C596 1.384 . S
C598 C599 1.372 . S
C599 C598 1.372 . S
C599 C600 1.400 . S
C599 C604 1.490 . S
C600 H590 0.930 . S
C600 C599 1.400 . S
C600 C603 1.386 . S
H601 C617 0.930 . S
H602 C618 0.931 . S
C603 H591 0.929 . S
C603 C597 1.390 . S
C603 C600 1.386 . S
C604 C599 1.490 . S
C604 C606 1.395 1_556 S
C604 C607 1.403 . S
H605 C611 0.930 . S
C606 H592 0.930 . S
C606 C604 1.395 1_554 S
C606 C609 1.403 . S
C607 C604 1.403 . S
C607 C608 1.524 . S
C607 C611 1.400 . S
C608 H593 0.960 . S
C608 H594 0.960 . S
C608 H595 0.960 . S
C608 C607 1.524 . S
C609 C606 1.403 . S
C609 C610 1.392 . S
C609 C613 1.495 . S
C610 C609 1.392 . S
C610 C611 1.385 1_554 S
C610 C612 1.478 . S
C611 H605 0.930 . S
C611 C607 1.400 . S
C611 C610 1.385 1_556 S
C612 C610 1.478 . S
C612 C614 1.381 . S
C612 C618 1.383 . S
C613 C609 1.495 . S
C613 H619 0.959 . S
C613 H620 0.961 . S
C613 H621 0.960 . S
C614 C612 1.381 . S
C614 C615 1.394 . S
C614 H622 0.930 . S
C615 C614 1.394 . S
C615 C616 1.383 . S
C615 H623 0.929 . S
C616 C615 1.383 . S
C616 C617 1.377 . S
C617 H601 0.930 . S
C617 C616 1.377 . S
C617 C618 1.379 . S
C618 H602 0.931 . S
C618 C612 1.383 . S
C618 C617 1.379 . S
H619 C613 0.959 . S
H620 C613 0.961 . S
H621 C613 0.960 . S
H622 C614 0.930 . S
H623 C615 0.929 . S
H624 C632 0.929 . S
H625 C634 0.930 . S
H626 C636 0.930 . S
H627 C639 0.929 . S
H628 C642 0.930 . S
H629 C644 0.960 1_565 S
H630 C644 0.960 . S
H631 C644 0.960 . S
C632 H624 0.929 . S
C632 C633 1.377 . S
C632 C634 1.384 . S
C633 C632 1.377 . S
C633 C639 1.390 . S
C634 H625 0.930 . S
C634 C632 1.384 . S
C634 C635 1.372 . S
C635 C634 1.372 . S
C635 C636 1.400 . S
C635 C640 1.490 . S
C636 H626 0.930 . S
C636 C635 1.400 . S
C636 C639 1.386 . S
H637 C653 0.930 . S
H638 C654 0.931 . S
C639 H627 0.929 . S
C639 C633 1.390 . S
C639 C636 1.386 . S
C640 C635 1.490 . S
C640 C642 1.395 . S
C640 C643 1.403 . S
H641 C647 0.930 . S
C642 H628 0.930 . S
C642 C640 1.395 . S
C642 C645 1.403 1_545 S
C643 C640 1.403 . S
C643 C644 1.524 . S
C643 C647 1.400 1_545 S
C644 H629 0.960 1_545 S
C644 H630 0.960 . S
C644 H631 0.960 . S
C644 C643 1.524 . S
C645 C642 1.403 1_565 S
C645 C646 1.392 . S
C645 C649 1.495 . S
C646 C645 1.392 . S
C646 C647 1.385 . S
C646 C648 1.478 . S
C647 H641 0.930 . S
C647 C643 1.400 1_565 S
C647 C646 1.385 . S
C648 C646 1.478 . S
C648 C650 1.381 . S
C648 C654 1.383 . S
C649 C645 1.495 . S
C649 H655 0.959 1_565 S
C649 H656 0.961 . S
C649 H657 0.960 . S
C650 C648 1.381 . S
C650 C651 1.394 . S
C650 H658 0.930 . S
C651 C650 1.394 . S
C651 C652 1.383 . S
C651 H659 0.929 . S
C652 C651 1.383 . S
C652 C653 1.377 . S
C653 H637 0.930 . S
C653 C652 1.377 . S
C653 C654 1.379 . S
C654 H638 0.931 . S
C654 C648 1.383 . S
C654 C653 1.379 . S
H655 C649 0.959 1_545 S
H656 C649 0.961 . S
H657 C649 0.960 . S
H658 C650 0.930 . S
H659 C651 0.929 . S
H660 C668 0.929 . S
H661 C670 0.930 1_556 S
H662 C672 0.930 . S
H663 C675 0.929 . S
H664 C678 0.930 . S
H665 C680 0.960 1_545 S
H666 C680 0.960 . S
H667 C680 0.960 . S
C668 H660 0.929 . S
C668 C669 1.377 . S
C668 C670 1.384 . S
C669 C668 1.377 . S
C669 C675 1.390 . S
C670 H661 0.930 1_554 S
C670 C668 1.384 . S
C670 C671 1.372 . S
C671 C670 1.372 . S
C671 C672 1.400 . S
C671 C676 1.490 . S
C672 H662 0.930 . S
C672 C671 1.400 . S
C672 C675 1.386 . S
H673 C689 0.930 . S
H674 C690 0.931 1_554 S
C675 H663 0.929 . S
C675 C669 1.390 . S
C675 C672 1.386 . S
C676 C671 1.490 . S
C676 C678 1.395 1_554 S
C676 C679 1.403 . S
H677 C683 0.930 . S
C678 H664 0.930 . S
C678 C676 1.395 1_556 S
C678 C681 1.403 1_565 S
C679 C676 1.403 . S
C679 C680 1.524 . S
C679 C683 1.400 1_565 S
C680 H665 0.960 1_565 S
C680 H666 0.960 . S
C680 H667 0.960 . S
C680 C679 1.524 . S
C681 C678 1.403 1_545 S
C681 C682 1.392 . S
C681 C685 1.495 1_455 S
C682 C681 1.392 . S
C682 C683 1.385 1_556 S
C682 C684 1.478 . S
C683 H677 0.930 . S
C683 C679 1.400 1_545 S
C683 C682 1.385 1_554 S
C684 C682 1.478 . S
C684 C686 1.381 . S
C684 C690 1.383 . S
C685 C681 1.495 1_655 S
C685 H691 0.959 1_545 S
C685 H692 0.961 . S
C685 H693 0.960 1_655 S
C686 C684 1.381 . S
C686 C687 1.394 . S
C686 H694 0.930 . S
C687 C686 1.394 . S
C687 C688 1.383 . S
C687 H695 0.929 . S
C688 C687 1.383 . S
C688 C689 1.377 . S
C689 H673 0.930 . S
C689 C688 1.377 . S
C689 C690 1.379 . S
C690 H674 0.931 1_556 S
C690 C684 1.383 . S
C690 C689 1.379 . S
H691 C685 0.959 1_565 S
H692 C685 0.961 . S
H693 C685 0.960 1_455 S
H694 C686 0.930 . S
H695 C687 0.929 . S
H696 C704 0.929 . S
H697 C706 0.930 . S
H698 C708 0.930 . S
H699 C711 0.929 . S
H700 C714 0.930 . S
H701 C716 0.960 . S
H702 C716 0.960 . S
H703 C716 0.960 . S
C704 H696 0.929 . S
C704 C705 1.377 . S
C704 C706 1.384 . S
C705 C704 1.377 . S
C705 C711 1.390 . S
C706 H697 0.930 . S
C706 C704 1.384 . S
C706 C707 1.372 . S
C707 C706 1.372 . S
C707 C708 1.400 . S
C707 C712 1.490 . S
C708 H698 0.930 . S
C708 C707 1.400 . S
C708 C711 1.386 . S
H709 C725 0.930 . S
H710 C726 0.931 . S
C711 H699 0.929 . S
C711 C705 1.390 . S
C711 C708 1.386 . S
C712 C707 1.490 . S
C712 C714 1.395 . S
C712 C715 1.403 . S
H713 C719 0.930 . S
C714 H700 0.930 . S
C714 C712 1.395 . S
C714 C717 1.403 . S
C715 C712 1.403 . S
C715 C716 1.524 . S
C715 C719 1.400 . S
C716 H701 0.960 . S
C716 H702 0.960 . S
C716 H703 0.960 . S
C716 C715 1.524 . S
C717 C714 1.403 . S
C717 C718 1.392 . S
C717 C721 1.495 . S
C718 C717 1.392 . S
C718 C719 1.385 . S
C718 C720 1.478 . S
C719 H713 0.930 . S
C719 C715 1.400 . S
C719 C718 1.385 . S
C720 C718 1.478 . S
C720 C722 1.381 . S
C720 C726 1.383 . S
C721 C717 1.495 . S
C721 H727 0.959 . S
C721 H728 0.961 . S
C721 H729 0.960 . S
C722 C720 1.381 . S
C722 C723 1.394 . S
C722 H730 0.930 . S
C723 C722 1.394 . S
C723 C724 1.383 . S
C723 H731 0.929 . S
C724 C723 1.383 . S
C724 C725 1.377 . S
C725 H709 0.930 . S
C725 C724 1.377 . S
C725 C726 1.379 . S
C726 H710 0.931 . S
C726 C720 1.383 . S
C726 C725 1.379 . S
H727 C721 0.959 . S
H728 C721 0.961 . S
H729 C721 0.960 . S
H730 C722 0.930 . S
H731 C723 0.929 . S
H732 C740 0.929 . S
H733 C742 0.930 . S
H734 C744 0.930 . S
H735 C747 0.929 . S
H736 C750 0.930 . S
H737 C752 0.960 . S
H738 C752 0.960 . S
H739 C752 0.960 . S
C740 H732 0.929 . S
C740 C741 1.377 . S
C740 C742 1.384 . S
C741 C740 1.377 . S
C741 C747 1.390 . S
C742 H733 0.930 . S
C742 C740 1.384 . S
C742 C743 1.372 . S
C743 C742 1.372 . S
C743 C744 1.400 . S
C743 C748 1.490 1_556 S
C744 H734 0.930 . S
C744 C743 1.400 . S
C744 C747 1.386 . S
H745 C761 0.930 . S
H746 C762 0.931 . S
C747 H735 0.929 . S
C747 C741 1.390 . S
C747 C744 1.386 . S
C748 C743 1.490 1_554 S
C748 C750 1.394 . S
C748 C751 1.403 1_554 S
H749 C755 0.930 . S
C750 H736 0.930 . S
C750 C748 1.394 . S
C750 C753 1.403 . S
C751 C748 1.403 1_556 S
C751 C752 1.524 . S
C751 C755 1.400 1_556 S
C752 H737 0.960 . S
C752 H738 0.960 . S
C752 H739 0.960 . S
C752 C751 1.524 . S
C753 C750 1.403 . S
C753 C754 1.392 . S
C753 C757 1.495 . S
C754 C753 1.392 . S
C754 C755 1.385 . S
C754 C756 1.478 . S
C755 H749 0.930 . S
C755 C751 1.400 1_554 S
C755 C754 1.385 . S
C756 C754 1.478 . S
C756 C758 1.381 . S
C756 C762 1.383 . S
C757 C753 1.495 . S
C757 H763 0.959 . S
C757 H764 0.961 . S
C757 H765 0.960 . S
C758 C756 1.381 . S
C758 C759 1.394 . S
C758 H766 0.930 . S
C759 C758 1.394 . S
C759 C760 1.383 . S
C759 H767 0.929 . S
C760 C759 1.383 . S
C760 C761 1.377 . S
C761 H745 0.930 . S
C761 C760 1.377 . S
C761 C762 1.379 . S
C762 H746 0.931 . S
C762 C756 1.383 . S
C762 C761 1.379 . S
H763 C757 0.959 . S
H764 C757 0.961 . S
H765 C757 0.960 . S
H766 C758 0.930 . S
H767 C759 0.929 . S
H768 C776 0.929 . S
H769 C778 0.930 . S
H770 C780 0.930 . S
H771 C783 0.929 . S
H772 C786 0.930 . S
H773 C788 0.960 . S
H774 C788 0.960 . S
H775 C788 0.960 . S
C776 H768 0.929 . S
C776 C777 1.377 . S
C776 C778 1.384 . S
C777 C776 1.377 . S
C777 C783 1.390 . S
C778 H769 0.930 . S
C778 C776 1.384 . S
C778 C779 1.372 . S
C779 C778 1.372 . S
C779 C780 1.400 . S
C779 C784 1.490 . S
C780 H770 0.930 . S
C780 C779 1.400 . S
C780 C783 1.386 . S
H781 C797 0.930 . S
H782 C798 0.931 . S
C783 H771 0.929 . S
C783 C777 1.390 . S
C783 C780 1.386 . S
C784 C779 1.490 . S
C784 C786 1.395 . S
C784 C787 1.403 . S
H785 C791 0.930 . S
C786 H772 0.930 . S
C786 C784 1.395 . S
C786 C789 1.403 . S
C787 C784 1.403 . S
C787 C788 1.524 . S
C787 C791 1.400 . S
C788 H773 0.960 . S
C788 H774 0.960 . S
C788 H775 0.960 . S
C788 C787 1.524 . S
C789 C786 1.403 . S
C789 C790 1.392 . S
C789 C793 1.495 . S
C790 C789 1.392 . S
C790 C791 1.385 . S
C790 C792 1.478 . S
C791 H785 0.930 . S
C791 C787 1.400 . S
C791 C790 1.385 . S
C792 C790 1.478 . S
C792 C794 1.381 . S
C792 C798 1.383 . S
C793 C789 1.495 . S
C793 H799 0.959 . S
C793 H800 0.961 . S
C793 H801 0.960 . S
C794 C792 1.381 . S
C794 C795 1.394 . S
C794 H802 0.930 . S
C795 C794 1.394 . S
C795 C796 1.383 . S
C795 H803 0.929 . S
C796 C795 1.383 . S
C796 C797 1.377 . S
C797 H781 0.930 . S
C797 C796 1.377 . S
C797 C798 1.379 . S
C798 H782 0.931 . S
C798 C792 1.383 . S
C798 C797 1.379 . S
H799 C793 0.959 . S
H800 C793 0.961 . S
H801 C793 0.960 . S
H802 C794 0.930 . S
H803 C795 0.929 . S
H804 C812 0.929 . S
H805 C814 0.930 . S
H806 C816 0.930 . S
H807 C819 0.929 . S
H808 C822 0.930 . S
H809 C824 0.960 . S
H810 C824 0.960 . S
H811 C824 0.960 . S
C812 H804 0.929 . S
C812 C813 1.377 . S
C812 C814 1.384 . S
C813 C812 1.377 . S
C813 C819 1.390 . S
C814 H805 0.930 . S
C814 C812 1.384 . S
C814 C815 1.372 . S
C815 C814 1.372 . S
C815 C816 1.400 . S
C815 C820 1.490 . S
C816 H806 0.930 . S
C816 C815 1.400 . S
C816 C819 1.386 . S
H817 C833 0.930 . S
H818 C834 0.931 . S
C819 H807 0.929 . S
C819 C813 1.390 . S
C819 C816 1.386 . S
C820 C815 1.490 . S
C820 C822 1.395 1_556 S
C820 C823 1.403 . S
H821 C827 0.930 . S
C822 H808 0.930 . S
C822 C820 1.395 1_554 S
C822 C825 1.403 . S
C823 C820 1.403 . S
C823 C824 1.524 . S
C823 C827 1.400 . S
C824 H809 0.960 . S
C824 H810 0.960 . S
C824 H811 0.960 . S
C824 C823 1.524 . S
C825 C822 1.403 . S
C825 C826 1.392 . S
C825 C829 1.495 . S
C826 C825 1.392 . S
C826 C827 1.385 1_554 S
C826 C828 1.478 . S
C827 H821 0.930 . S
C827 C823 1.400 . S
C827 C826 1.385 1_556 S
C828 C826 1.478 . S
C828 C830 1.381 . S
C828 C834 1.383 . S
C829 C825 1.495 . S
C829 H835 0.959 . S
C829 H836 0.961 . S
C829 H837 0.960 . S
C830 C828 1.381 . S
C830 C831 1.394 . S
C830 H838 0.930 . S
C831 C830 1.394 . S
C831 C832 1.383 . S
C831 H839 0.929 . S
C832 C831 1.383 . S
C832 C833 1.377 . S
C833 H817 0.930 . S
C833 C832 1.377 . S
C833 C834 1.379 . S
C834 H818 0.931 . S
C834 C828 1.383 . S
C834 C833 1.379 . S
H835 C829 0.959 . S
H836 C829 0.961 . S
H837 C829 0.960 . S
H838 C830 0.930 . S
H839 C831 0.929 . S
H840 C848 0.929 . S
H841 C850 0.930 1_655 S
H842 C852 0.930 1_655 S
H843 C855 0.929 . S
H844 C858 0.930 . S
H845 C860 0.958 1_655 S
H846 C860 0.975 . S
H847 C860 0.966 . S
C848 H840 0.929 . S
C848 C849 1.377 . S
C848 C850 1.384 . S
C849 C848 1.377 . S
C849 C855 1.390 . S
C850 H841 0.930 1_455 S
C850 C848 1.384 . S
C850 C851 1.372 1_455 S
C851 C850 1.372 1_655 S
C851 C852 1.400 1_655 S
C851 C856 1.490 . S
C852 H842 0.930 1_455 S
C852 C851 1.400 1_455 S
C852 C855 1.386 . S
H853 C869 0.930 . S
H854 C870 0.931 . S
C855 H843 0.929 . S
C855 C849 1.390 . S
C855 C852 1.386 . S
C856 C851 1.490 . S
C856 C858 1.395 . S
C856 C859 1.403 . S
H857 C863 0.930 . S
C858 H844 0.930 . S
C858 C856 1.395 . S
C858 C861 1.403 . S
C859 C856 1.403 . S
C859 C860 1.506 1_655 S
C859 C863 1.400 . S
C860 H845 0.958 1_455 S
C860 H846 0.975 . S
C860 H847 0.966 . S
C860 C859 1.506 1_455 S
C861 C858 1.403 . S
C861 C862 1.392 . S
C861 C865 1.495 . S
C862 C861 1.392 . S
C862 C863 1.385 . S
C862 C864 1.478 . S
C863 H857 0.930 . S
C863 C859 1.400 . S
C863 C862 1.385 . S
C864 C862 1.478 . S
C864 C866 1.381 . S
C864 C870 1.383 . S
C865 C861 1.495 . S
C865 H871 0.959 . S
C865 H872 0.961 . S
C865 H873 0.960 . S
C866 C864 1.381 . S
C866 C867 1.394 . S
C866 H874 0.930 . S
C867 C866 1.394 . S
C867 C868 1.383 . S
C867 H875 0.929 . S
C868 C867 1.383 . S
C868 C869 1.377 . S
C869 H853 0.930 . S
C869 C868 1.377 . S
C869 C870 1.379 . S
C870 H854 0.931 . S
C870 C864 1.383 . S
C870 C869 1.379 . S
H871 C865 0.959 . S
H872 C865 0.961 . S
H873 C865 0.960 . S
H874 C866 0.930 . S
H875 C867 0.929 . S
H876 C884 0.929 . S
H877 C886 0.930 . S
H878 C888 0.930 . S
H879 C891 0.929 . S
H880 C894 0.930 . S
H881 C896 0.960 . S
H882 C896 0.960 . S
H883 C896 0.960 . S
C884 H876 0.929 . S
C884 C885 1.377 . S
C884 C886 1.384 . S
C885 C884 1.377 . S
C885 C891 1.390 . S
C886 H877 0.930 . S
C886 C884 1.384 . S
C886 C887 1.372 . S
C887 C886 1.372 . S
C887 C888 1.400 . S
C887 C892 1.490 . S
C888 H878 0.930 . S
C888 C887 1.400 . S
C888 C891 1.386 . S
H889 C905 0.930 . S
H890 C906 0.961 . S
C891 H879 0.929 . S
C891 C885 1.390 . S
C891 C888 1.386 . S
C892 C887 1.490 . S
C892 C894 1.395 . S
C892 C895 1.403 . S
H893 C899 0.930 1_556 S
C894 H880 0.930 . S
C894 C892 1.395 . S
C894 C897 1.403 . S
C895 C892 1.403 . S
C895 C896 1.524 . S
C895 C899 1.400 . S
C896 H881 0.960 . S
C896 H882 0.960 . S
C896 H883 0.960 . S
C896 C895 1.524 . S
C897 C894 1.403 . S
C897 C898 1.386 1_554 S
C897 C901 1.495 . S
C898 C897 1.386 1_556 S
C898 C899 1.382 1_556 S
C898 C900 1.488 . S
C899 H893 0.930 1_554 S
C899 C895 1.400 . S
C899 C898 1.382 1_554 S
C900 C898 1.488 . S
C900 C902 1.381 . S
C900 C906 1.367 1_556 S
C901 C897 1.495 . S
C901 H907 0.959 . S
C901 H908 0.961 . S
C901 H909 0.960 1_554 S
C902 C900 1.381 . S
C902 C903 1.394 . S
C902 H910 0.930 . S
C903 C902 1.394 . S
C903 C904 1.383 . S
C903 H911 0.929 . S
C904 C903 1.383 . S
C904 C905 1.377 . S
C905 H889 0.930 . S
C905 C904 1.377 . S
C905 C906 1.366 1_556 S
C906 H890 0.961 . S
C906 C900 1.367 1_554 S
C906 C905 1.366 1_554 S
H907 C901 0.959 . S
H908 C901 0.961 . S
H909 C901 0.960 1_556 S
H910 C902 0.930 . S
H911 C903 0.929 . S
H912 C920 0.929 . S
H913 C922 0.930 . S
H914 C924 0.930 . S
H915 C927 0.929 . S
H916 C930 0.930 . S
H917 C932 0.960 . S
H918 C932 0.960 . S
H919 C932 0.960 . S
C920 H912 0.929 . S
C920 C921 1.377 . S
C920 C922 1.384 . S
C921 C920 1.377 . S
C921 C927 1.390 . S
C922 H913 0.930 . S
C922 C920 1.384 . S
C922 C923 1.372 1_455 S
C923 C922 1.372 1_655 S
C923 C924 1.400 . S
C923 C928 1.490 . S
C924 H914 0.930 . S
C924 C923 1.400 . S
C924 C927 1.386 1_655 S
H925 C941 0.930 . S
H926 C942 0.931 . S
C927 H915 0.929 . S
C927 C921 1.390 . S
C927 C924 1.386 1_455 S
C928 C923 1.490 . S
C928 C930 1.395 . S
C928 C931 1.403 . S
H929 C935 0.930 . S
C930 H916 0.930 . S
C930 C928 1.395 . S
C930 C933 1.403 . S
C931 C928 1.403 . S
C931 C932 1.524 . S
C931 C935 1.400 . S
C932 H917 0.960 . S
C932 H918 0.960 . S
C932 H919 0.960 . S
C932 C931 1.524 . S
C933 C930 1.403 . S
C933 C934 1.392 . S
C933 C937 1.495 . S
C934 C933 1.392 . S
C934 C935 1.385 . S
C934 C936 1.478 . S
C935 H929 0.930 . S
C935 C931 1.400 . S
C935 C934 1.385 . S
C936 C934 1.478 . S
C936 C938 1.381 . S
C936 C942 1.383 . S
C937 C933 1.495 . S
C937 H943 0.959 . S
C937 H944 0.961 . S
C937 H945 0.960 . S
C938 C936 1.381 . S
C938 C939 1.394 . S
C938 H946 0.930 . S
C939 C938 1.394 . S
C939 C940 1.383 . S
C939 H947 0.929 . S
C940 C939 1.383 . S
C940 C941 1.377 . S
C941 H925 0.930 . S
C941 C940 1.377 . S
C941 C942 1.379 . S
C942 H926 0.931 . S
C942 C936 1.383 . S
C942 C941 1.379 . S
H943 C937 0.959 . S
H944 C937 0.961 . S
H945 C937 0.960 . S
H946 C938 0.930 . S
H947 C939 0.929 . S
H948 C956 0.929 . S
H949 C958 0.930 . S
H950 C960 0.930 . S
H951 C963 0.929 . S
H952 C966 0.930 . S
H953 C968 0.960 . S
H954 C968 0.960 . S
H955 C968 0.960 . S
C956 H948 0.929 . S
C956 C957 1.377 . S
C956 C958 1.384 . S
C957 C956 1.377 . S
C957 C963 1.390 . S
C958 H949 0.930 . S
C958 C956 1.384 . S
C958 C959 1.372 . S
C959 C958 1.372 . S
C959 C960 1.400 . S
C959 C964 1.490 . S
C960 H950 0.930 . S
C960 C959 1.400 . S
C960 C963 1.386 . S
H961 C977 0.930 . S
H962 C978 0.931 . S
C963 H951 0.929 . S
C963 C957 1.390 . S
C963 C960 1.386 . S
C964 C959 1.490 . S
C964 C966 1.395 . S
C964 C967 1.403 . S
H965 C971 0.930 . S
C966 H952 0.930 . S
C966 C964 1.395 . S
C966 C969 1.417 . S
C967 C964 1.403 . S
C967 C968 1.524 . S
C967 C971 1.400 . S
C968 H953 0.960 . S
C968 H954 0.960 . S
C968 H955 0.960 . S
C968 C967 1.524 . S
C969 C966 1.417 . S
C969 C970 1.393 . S
C969 C973 1.481 1_556 S
C970 C969 1.393 . S
C970 C971 1.385 . S
C970 C972 1.478 1_556 S
C971 H965 0.930 . S
C971 C967 1.400 . S
C971 C970 1.385 . S
C972 C970 1.478 1_554 S
C972 C974 1.381 . S
C972 C978 1.383 . S
C973 C969 1.481 1_554 S
C973 H979 0.959 . S
C973 H980 0.961 . S
C973 H981 0.960 . S
C974 C972 1.381 . S
C974 C975 1.394 . S
C974 H982 0.930 1_554 S
C975 C974 1.394 . S
C975 C976 1.383 . S
C975 H983 0.929 . S
C976 C975 1.383 . S
C976 C977 1.377 . S
C977 H961 0.930 . S
C977 C976 1.377 . S
C977 C978 1.379 . S
C978 H962 0.931 . S
C978 C972 1.383 . S
C978 C977 1.379 . S
H979 C973 0.959 . S
H980 C973 0.961 . S
H981 C973 0.960 . S
H982 C974 0.930 1_556 S
H983 C975 0.929 . S
C273 C28 1.080 . S
C292 C127 1.084 . S
C309 C41 1.070 . S
C328 C94 1.065 . S
C345 N80 1.749 1_655 S
C364 N38 1.692 . S
C381 N113 1.841 . S
C400 N14 1.851 1_655 S
C417 C160 1.080 . S
C436 C259 1.081 1_655 S
C453 C226 1.069 . S
C472 C173 1.078 . S
C489 N170 1.712 . S
C508 N212 1.743 . S
C525 N245 1.843 . S
C544 N146 1.846 . S
C561 C83 1.544 . S
C580 C17 1.544 . S
C597 C50 1.448 . S
C616 C116 1.451 . S
C633 C215 1.545 . S
C652 C149 1.541 . S
C669 C248 1.454 . S
C688 C182 1.448 . S
C705 N5 1.391 . S
C724 C206 1.443 . S
C741 N47 1.443 . S
C760 C239 1.470 . S
C777 N71 1.371 . S
C796 C140 1.429 . S
C813 C193 1.422 . S
C832 N104 1.355 . S
C849 C74 1.445 . S
C868 N137 1.349 . S
C885 C107 1.460 . S
C904 N179 1.419 . S
C921 C8 1.427 . S
C940 N203 1.388 . S
C957 C61 1.422 . S
C976 N236 1.384 . S
