# Generated by pormake.
# Topology whw, (6)-cn, num edge types: 1
# Building blocks:
#     Node 0, Type 0, BuildingBlock: MIFKUJ_clean_sbu_0, # of connection points: 6
#     Node 1, Type 0, BuildingBlock: MIFKUJ_clean_sbu_0, # of connection points: 6
#     Node 2, Type 0, BuildingBlock: MIFKUJ_clean_sbu_0, # of connection points: 6
#     Node 3, Type 0, BuildingBlock: MIFKUJ_clean_sbu_0, # of connection points: 6
#     Node 4, Type 0, BuildingBlock: MIFKUJ_clean_sbu_0, # of connection points: 6
#     Node 5, Type 0, BuildingBlock: MIFKUJ_clean_sbu_0, # of connection points: 6
#     Node 6, Type 0, BuildingBlock: MIFKUJ_clean_sbu_0, # of connection points: 6
#     Node 7, Type 0, BuildingBlock: MIFKUJ_clean_sbu_0, # of connection points: 6
#     Node 8, Type 0, BuildingBlock: MIFKUJ_clean_sbu_0, # of connection points: 6
#     Node 9, Type 0, BuildingBlock: MIFKUJ_clean_sbu_0, # of connection points: 6
#     Node 10, Type 0, BuildingBlock: MIFKUJ_clean_sbu_0, # of connection points: 6
#     Node 11, Type 0, BuildingBlock: MIFKUJ_clean_sbu_0, # of connection points: 6
#     Node 12, Type 0, BuildingBlock: MIFKUJ_clean_sbu_0, # of connection points: 6
#     Node 13, Type 0, BuildingBlock: MIFKUJ_clean_sbu_0, # of connection points: 6
#     Node 14, Type 0, BuildingBlock: MIFKUJ_clean_sbu_0, # of connection points: 6
#     Node 15, Type 0, BuildingBlock: MIFKUJ_clean_sbu_0, # of connection points: 6
#     Edge 16, Type (0, 0), BuildingBlock: XUDNAN_clean_linker_2, # of connection points: 2
#     Edge 17, Type (0, 0), BuildingBlock: XUDNAN_clean_linker_2, # of connection points: 2
#     Edge 18, Type (0, 0), BuildingBlock: XUDNAN_clean_linker_2, # of connection points: 2
#     Edge 19, Type (0, 0), BuildingBlock: XUDNAN_clean_linker_2, # of connection points: 2
#     Edge 20, Type (0, 0), BuildingBlock: XUDNAN_clean_linker_2, # of connection points: 2
#     Edge 21, Type (0, 0), BuildingBlock: XUDNAN_clean_linker_2, # of connection points: 2
#     Edge 22, Type (0, 0), BuildingBlock: XUDNAN_clean_linker_2, # of connection points: 2
#     Edge 23, Type (0, 0), BuildingBlock: XUDNAN_clean_linker_2, # of connection points: 2
#     Edge 24, Type (0, 0), BuildingBlock: XUDNAN_clean_linker_2, # of connection points: 2
#     Edge 25, Type (0, 0), BuildingBlock: XUDNAN_clean_linker_2, # of connection points: 2
#     Edge 26, Type (0, 0), BuildingBlock: XUDNAN_clean_linker_2, # of connection points: 2
#     Edge 27, Type (0, 0), BuildingBlock: XUDNAN_clean_linker_2, # of connection points: 2
#     Edge 28, Type (0, 0), BuildingBlock: XUDNAN_clean_linker_2, # of connection points: 2
#     Edge 29, Type (0, 0), BuildingBlock: XUDNAN_clean_linker_2, # of connection points: 2
#     Edge 30, Type (0, 0), BuildingBlock: XUDNAN_clean_linker_2, # of connection points: 2
#     Edge 31, Type (0, 0), BuildingBlock: XUDNAN_clean_linker_2, # of connection points: 2
#     Edge 32, Type (0, 0), BuildingBlock: XUDNAN_clean_linker_2, # of connection points: 2
#     Edge 33, Type (0, 0), BuildingBlock: XUDNAN_clean_linker_2, # of connection points: 2
#     Edge 34, Type (0, 0), BuildingBlock: XUDNAN_clean_linker_2, # of connection points: 2
#     Edge 35, Type (0, 0), BuildingBlock: XUDNAN_clean_linker_2, # of connection points: 2
#     Edge 36, Type (0, 0), BuildingBlock: XUDNAN_clean_linker_2, # of connection points: 2
#     Edge 37, Type (0, 0), BuildingBlock: XUDNAN_clean_linker_2, # of connection points: 2
#     Edge 38, Type (0, 0), BuildingBlock: XUDNAN_clean_linker_2, # of connection points: 2
#     Edge 39, Type (0, 0), BuildingBlock: XUDNAN_clean_linker_2, # of connection points: 2
#     Edge 40, Type (0, 0), BuildingBlock: XUDNAN_clean_linker_2, # of connection points: 2
#     Edge 41, Type (0, 0), BuildingBlock: XUDNAN_clean_linker_2, # of connection points: 2
#     Edge 42, Type (0, 0), BuildingBlock: XUDNAN_clean_linker_2, # of connection points: 2
#     Edge 43, Type (0, 0), BuildingBlock: XUDNAN_clean_linker_2, # of connection points: 2
#     Edge 44, Type (0, 0), BuildingBlock: XUDNAN_clean_linker_2, # of connection points: 2
#     Edge 45, Type (0, 0), BuildingBlock: XUDNAN_clean_linker_2, # of connection points: 2
#     Edge 46, Type (0, 0), BuildingBlock: XUDNAN_clean_linker_2, # of connection points: 2
#     Edge 47, Type (0, 0), BuildingBlock: XUDNAN_clean_linker_2, # of connection points: 2
#     Edge 48, Type (0, 0), BuildingBlock: XUDNAN_clean_linker_2, # of connection points: 2
#     Edge 49, Type (0, 0), BuildingBlock: XUDNAN_clean_linker_2, # of connection points: 2
#     Edge 50, Type (0, 0), BuildingBlock: XUDNAN_clean_linker_2, # of connection points: 2
#     Edge 51, Type (0, 0), BuildingBlock: XUDNAN_clean_linker_2, # of connection points: 2
#     Edge 52, Type (0, 0), BuildingBlock: XUDNAN_clean_linker_2, # of connection points: 2
#     Edge 53, Type (0, 0), BuildingBlock: XUDNAN_clean_linker_2, # of connection points: 2
#     Edge 54, Type (0, 0), BuildingBlock: XUDNAN_clean_linker_2, # of connection points: 2
#     Edge 55, Type (0, 0), BuildingBlock: XUDNAN_clean_linker_2, # of connection points: 2
#     Edge 56, Type (0, 0), BuildingBlock: XUDNAN_clean_linker_2, # of connection points: 2
#     Edge 57, Type (0, 0), BuildingBlock: XUDNAN_clean_linker_2, # of connection points: 2
#     Edge 58, Type (0, 0), BuildingBlock: XUDNAN_clean_linker_2, # of connection points: 2
#     Edge 59, Type (0, 0), BuildingBlock: XUDNAN_clean_linker_2, # of connection points: 2
#     Edge 60, Type (0, 0), BuildingBlock: XUDNAN_clean_linker_2, # of connection points: 2
#     Edge 61, Type (0, 0), BuildingBlock: XUDNAN_clean_linker_2, # of connection points: 2
#     Edge 62, Type (0, 0), BuildingBlock: XUDNAN_clean_linker_2, # of connection points: 2
#     Edge 63, Type (0, 0), BuildingBlock: XUDNAN_clean_linker_2, # of connection points: 2
# Relax obj value: 0.359
# Max RMSD: 0.223
# Mean RMSD: 0.223
data_MOF--net-whw--node1-MIFKUJ_clean_sbu_0--edge1-XUDNAN_clean_linker_2
_symmetry_space_group_name_H-M    P1
_symmetry_Int_Tables_number       1
_symmetry_cell_setting            triclinic
loop_
_symmetry_equiv_pos_as_xyz
'x, y, z'
_cell_length_a     43.949211
_cell_length_b     43.954025
_cell_length_c     29.980973
_cell_angle_alpha  89.933752
_cell_angle_beta   90.064205
_cell_angle_gamma 90.013851
loop_
_atom_site_label
_atom_site_type_symbol
_atom_site_fract_x
_atom_site_fract_y
_atom_site_fract_z
_atom_type_partial_charge
Zn0 Zn 0.0094 0.09202 0.18545 0.0
Zn1 Zn 0.02112 0.10176 0.04686 0.0
C2 C 0.06189 0.08525 0.24026 0.0
O3 O 0.04788 0.05968 0.25005 0.0
C4 C 0.97056 0.12449 0.00911 0.0
O5 O 0.97272 0.14329 0.04297 0.0
O6 O 0.98062 0.09912 0.23255 0.0
O7 O -0.00108 0.12439 0.13842 0.0
O8 O 0.02557 0.13938 0.0801 0.0
C9 C 0.98714 0.11277 0.2688 0.0
O10 O 0.01168 0.11849 0.27835 0.0
O11 O 0.05021 0.10281 0.21128 0.0
C12 C 0.06336 0.12478 0.98347 0.0
O13 O 0.04726 0.14945 0.99078 0.0
O14 O 0.05772 0.09995 0.00519 0.0
O15 O 0.01582 0.07585 0.10022 0.0
O16 O 0.01276 0.04791 0.15879 0.0
O17 O 0.98877 0.10226 0.00674 0.0
C18 C 0.01675 0.14354 0.12012 0.0
C19 C 0.01752 0.04973 0.11704 0.0
Zn20 Zn 0.2055 0.71093 0.43803 0.0
Zn21 Zn 0.19338 0.7246 0.30353 0.0
C22 C 0.21433 0.7668 0.48233 0.0
O23 O 0.2427 0.75797 0.47802 0.0
C24 C 0.17259 0.67229 0.25204 0.0
O25 O 0.15439 0.66724 0.28596 0.0
O26 O 0.20282 0.68464 0.49307 0.0
O27 O 0.17411 0.69637 0.39146 0.0
O28 O 0.15465 0.7233 0.33568 0.0
C29 C 0.18558 0.66153 0.49643 0.0
O30 O 0.17151 0.65133 0.46077 0.0
O31 O 0.19384 0.7521 0.46173 0.0
C32 C 0.21879 0.76067 0.24071 0.0
O33 O 0.23775 0.73789 0.24602 0.0
O34 O 0.19777 0.76388 0.2693 0.0
O35 O 0.22046 0.71941 0.35488 0.0
O36 O 0.24914 0.71213 0.41211 0.0
O37 O 0.19326 0.69235 0.25561 0.0
C38 C 0.15226 0.71159 0.3745 0.0
C39 C 0.2468 0.7173 0.3707 0.0
Zn40 Zn 0.60927 0.90365 0.69228 0.0
Zn41 Zn 0.58034 0.88669 0.56831 0.0
C42 C 0.54766 0.90815 0.73925 0.0
O43 O 0.54986 0.93782 0.74326 0.0
C44 C 0.63663 0.87053 0.52402 0.0
O45 O 0.64584 0.86049 0.56294 0.0
O46 O 0.64094 0.89687 0.74123 0.0
O47 O 0.61906 0.86679 0.65077 0.0
O48 O 0.58531 0.84942 0.60135 0.0
C49 C 0.63355 0.89427 0.78211 0.0
O50 O 0.60661 0.90381 0.79466 0.0
O51 O 0.56845 0.8934 0.71916 0.0
C52 C 0.53722 0.87519 0.50052 0.0
O53 O 0.56257 0.87051 0.47873 0.0
O54 O 0.53813 0.88394 0.54087 0.0
O55 O 0.58725 0.91376 0.61801 0.0
O56 O 0.60948 0.94634 0.65916 0.0
O57 O 0.61326 0.88755 0.5219 0.0
C58 C 0.6016 0.84572 0.63603 0.0
C59 C 0.59664 0.94057 0.62218 0.0
Zn60 Zn 0.39929 0.29148 0.94318 0.0
Zn61 Zn 0.41382 0.28771 0.80891 0.0
C62 C 0.39274 0.24287 0.00309 0.0
O63 O 0.37214 0.26184 0.01837 0.0
C64 C 0.44516 0.31362 0.73816 0.0
O65 O 0.4576 0.2865 0.74041 0.0
O66 O 0.40402 0.32309 0.99156 0.0
O67 O 0.43473 0.3006 0.90079 0.0
O68 O 0.45151 0.27668 0.84197 0.0
C69 C 0.43076 0.31768 0.00572 0.0
O70 O 0.44589 0.29468 0.99323 0.0
O71 O 0.40708 0.25066 0.96902 0.0
C72 C 0.39691 0.24745 0.73727 0.0
O73 O 0.39019 0.27294 0.71683 0.0
O74 O 0.40345 0.2483 0.77845 0.0
O75 O 0.38655 0.30172 0.8573 0.0
O76 O 0.35787 0.28816 0.91194 0.0
O77 O 0.42436 0.32067 0.76559 0.0
C78 C 0.45323 0.28176 0.88356 0.0
C79 C 0.36177 0.29043 0.87023 0.0
Zn80 Zn 0.08083 0.87529 0.9265 0.0
Zn81 Zn 0.10517 0.90233 0.80747 0.0
C82 C 0.1153 0.83383 0.98043 0.0
O83 O 0.09792 0.81389 0.96008 0.0
C84 C 0.05441 0.91257 0.74745 0.0
O85 O 0.07472 0.92921 0.72648 0.0
O86 O 0.04121 0.88783 0.95479 0.0
O87 O 0.09704 0.90446 0.88634 0.0
O88 O 0.11307 0.94134 0.84706 0.0
C89 C 0.04187 0.89243 0.99655 0.0
O90 O 0.06746 0.88685 0.01714 0.0
O91 O 0.11221 0.86186 0.97172 0.0
C92 C 0.12486 0.87361 0.73367 0.0
O93 O 0.10075 0.85869 0.74738 0.0
O94 O 0.13256 0.89794 0.75376 0.0
O95 O 0.1133 0.8604 0.83952 0.0
O96 O 0.07572 0.84277 0.88221 0.0
O97 O 0.06147 0.90082 0.78487 0.0
C98 C 0.10583 0.93137 0.88522 0.0
C99 C 0.09336 0.84013 0.84862 0.0
Zn100 Zn 0.42538 0.78814 0.19207 0.0
Zn101 Zn 0.41043 0.79452 0.05619 0.0
C102 C 0.41743 0.83966 0.2461 0.0
O103 O 0.43579 0.85277 0.21735 0.0
C104 C 0.4057 0.74547 0.00309 0.0
O105 O 0.38203 0.7636 0.9946 0.0
O106 O 0.43737 0.7513 0.22821 0.0
O107 O 0.39811 0.78462 0.14006 0.0
O108 O 0.36818 0.78447 0.08307 0.0
C109 C 0.41876 0.73982 0.2559 0.0
O110 O 0.38998 0.74743 0.25361 0.0
O111 O 0.40572 0.81438 0.23612 0.0
C112 C 0.43975 0.82281 0.99072 0.0
O113 O 0.45961 0.8079 0.01513 0.0
O114 O 0.41207 0.822 0.00163 0.0
O115 O 0.43867 0.8122 0.10452 0.0
O116 O 0.46413 0.80525 0.1656 0.0
O117 O 0.42417 0.75405 0.03318 0.0
C118 C 0.37205 0.77985 0.12451 0.0
C119 C 0.46262 0.80229 0.12348 0.0
Zn120 Zn 0.52213 0.11023 0.43431 0.0
Zn121 Zn 0.51175 0.0926 0.30051 0.0
C122 C 0.46868 0.13077 0.48453 0.0
O123 O 0.46101 0.14676 0.44926 0.0
C124 C 0.56309 0.0834 0.24866 0.0
O125 O 0.55059 0.05626 0.24746 0.0
O126 O 0.56276 0.10927 0.46432 0.0
O127 O 0.51586 0.08145 0.38582 0.0
O128 O 0.52083 0.05071 0.33105 0.0
C129 C 0.56294 0.09611 0.50187 0.0
O130 O 0.53852 0.0815 0.51516 0.0
O131 O 0.49036 0.11179 0.48197 0.0
C132 C 0.46341 0.11339 0.24498 0.0
O133 O 0.45706 0.12922 0.28087 0.0
O134 O 0.48356 0.09265 0.24721 0.0
O135 O 0.49838 0.12716 0.3434 0.0
O136 O 0.52196 0.14801 0.40063 0.0
O137 O 0.55097 0.10399 0.27245 0.0
C138 C 0.52537 0.05629 0.37194 0.0
C139 C 0.51355 0.1491 0.36006 0.0
Zn140 Zn 0.20038 0.22926 0.66702 0.0
Zn141 Zn 0.21099 0.19693 0.5509 0.0
C142 C 0.17502 0.18649 0.72484 0.0
O143 O 0.15285 0.20542 0.71543 0.0
C144 C 0.2249 0.24327 0.4912 0.0
O145 O 0.24687 0.22352 0.48458 0.0
O146 O 0.19996 0.26696 0.70667 0.0
O147 O 0.22677 0.23015 0.61463 0.0
O148 O 0.25088 0.19206 0.58674 0.0
C149 C 0.20713 0.26308 0.74744 0.0
O150 O 0.21825 0.23672 0.76002 0.0
O151 O 0.20077 0.19061 0.70623 0.0
C152 C 0.18655 0.15089 0.49188 0.0
O153 O 0.17064 0.14302 0.52709 0.0
O154 O 0.20772 0.17043 0.49599 0.0
O155 O 0.17226 0.18947 0.58658 0.0
O156 O 0.16262 0.22773 0.6337 0.0
O157 O 0.20694 0.23886 0.5237 0.0
C158 C 0.24955 0.213 0.61563 0.0
C159 C 0.15446 0.20923 0.60335 0.0
Zn160 Zn 0.91163 0.28699 0.68841 0.0
Zn161 Zn 0.90402 0.28677 0.54842 0.0
C162 C 0.92304 0.34278 0.73505 0.0
O163 O 0.93461 0.35198 0.69698 0.0
C164 C 0.88825 0.23654 0.49127 0.0
O165 O 0.86057 0.24719 0.4962 0.0
O166 O 0.90834 0.24395 0.71488 0.0
O167 O 0.88876 0.29723 0.63406 0.0
O168 O 0.86169 0.28264 0.57835 0.0
C169 C 0.89846 0.24221 0.75466 0.0
O170 O 0.88663 0.26659 0.77284 0.0
O171 O 0.90926 0.31748 0.73693 0.0
C172 C 0.93122 0.31733 0.47541 0.0
O173 O 0.94269 0.28993 0.47151 0.0
O174 O 0.91218 0.32279 0.50654 0.0
O175 O 0.93819 0.28832 0.59454 0.0
O176 O 0.95323 0.28956 0.66483 0.0
O177 O 0.91 0.24878 0.51253 0.0
C178 C 0.86435 0.2859 0.62016 0.0
C179 C 0.95943 0.28929 0.62337 0.0
Zn180 Zn 0.68202 0.73416 0.16995 0.0
Zn181 Zn 0.7003 0.69628 0.06624 0.0
C182 C 0.66981 0.68001 0.22559 0.0
O183 O 0.64731 0.67542 0.19763 0.0
C184 C 0.70939 0.75505 0.01301 0.0
O185 O 0.73878 0.75454 0.02083 0.0
O186 O 0.6701 0.77223 0.20332 0.0
O187 O 0.71823 0.74082 0.13136 0.0
O188 O 0.73733 0.69779 0.10918 0.0
C189 C 0.68222 0.77433 0.24154 0.0
O190 O 0.70115 0.75305 0.25405 0.0
O191 O 0.68859 0.70136 0.21779 0.0
C192 C 0.67888 0.66915 0.99254 0.0
O193 O 0.6587 0.68894 0.00197 0.0
O194 O 0.70247 0.665 0.01621 0.0
O195 O 0.66045 0.68335 0.09536 0.0
O196 O 0.64631 0.72456 0.1326 0.0
O197 O 0.6921 0.73564 0.03176 0.0
C198 C 0.73916 0.72111 0.13423 0.0
C199 C 0.6401 0.70181 0.10832 0.0
Zn200 Zn 0.70798 0.20709 0.94432 0.0
Zn201 Zn 0.69489 0.21287 0.80871 0.0
C202 C 0.72037 0.25088 0.00297 0.0
O203 O 0.74424 0.23288 0.00342 0.0
C204 C 0.67341 0.1767 0.74909 0.0
O205 O 0.6564 0.20124 0.75147 0.0
O206 O 0.70368 0.17395 0.99045 0.0
O207 O 0.67602 0.19724 0.89653 0.0
O208 O 0.65403 0.21574 0.83747 0.0
C209 C 0.67978 0.17779 0.012 0.0
O210 O 0.66316 0.2018 0.00282 0.0
O211 O 0.69955 0.24686 0.97541 0.0
C212 C 0.7129 0.24362 0.73107 0.0
O213 O 0.72818 0.21821 0.72581 0.0
O214 O 0.69904 0.2483 0.7675 0.0
O215 O 0.72208 0.21298 0.85955 0.0
O216 O 0.75177 0.2107 0.91609 0.0
O217 O 0.69659 0.17445 0.77392 0.0
C218 C 0.65311 0.21028 0.87902 0.0
C219 C 0.74854 0.2148 0.87446 0.0
Zn220 Zn 0.89968 0.79445 0.46105 0.0
Zn221 Zn 0.91911 0.79869 0.32376 0.0
C222 C 0.90028 0.73176 0.50177 0.0
O223 O 0.89515 0.71895 0.46293 0.0
C224 C 0.93706 0.82517 0.24797 0.0
O225 O 0.95782 0.80508 0.25932 0.0
O226 O 0.90008 0.83054 0.50372 0.0
O227 O 0.93957 0.79695 0.42371 0.0
O228 O 0.95686 0.80799 0.35564 0.0
C229 C 0.92544 0.82974 0.52447 0.0
O230 O 0.94525 0.80863 0.51409 0.0
O231 O 0.90315 0.7604 0.50478 0.0
C232 C 0.91428 0.74602 0.26469 0.0
O233 O 0.8944 0.76326 0.24392 0.0
O234 O 0.92689 0.75582 0.29995 0.0
O235 O 0.89137 0.80014 0.37384 0.0
O236 O 0.8608 0.78481 0.42478 0.0
O237 O 0.91423 0.82889 0.27334 0.0
C238 C 0.96147 0.80035 0.39609 0.0
C239 C 0.86721 0.78653 0.38376 0.0
Zn240 Zn 0.51241 0.6005 0.68952 0.0
Zn241 Zn 0.51718 0.61273 0.55131 0.0
C242 C 0.5569 0.58705 0.75374 0.0
O243 O 0.53849 0.56363 0.75745 0.0
C244 C 0.46417 0.59352 0.48994 0.0
O245 O 0.44602 0.5709 0.47924 0.0
O246 O 0.4799 0.6034 0.737 0.0
O247 O 0.50704 0.63678 0.64535 0.0
O248 O 0.50134 0.65207 0.5753 0.0
C249 C 0.48214 0.62929 0.75557 0.0
O250 O 0.50311 0.64826 0.74153 0.0
O251 O 0.55153 0.60674 0.72369 0.0
C252 C 0.5609 0.60793 0.47917 0.0
O253 O 0.54143 0.58754 0.46459 0.0
O254 O 0.55559 0.62116 0.51594 0.0
O255 O 0.52682 0.59178 0.60734 0.0
O256 O 0.51505 0.55882 0.65753 0.0
O257 O 0.48464 0.58856 0.51917 0.0
C258 C 0.50344 0.65812 0.61688 0.0
C259 C 0.5224 0.56442 0.61751 0.0
Zn260 Zn 0.10006 0.39867 0.19163 0.0
Zn261 Zn 0.08324 0.39417 0.05456 0.0
C262 C 0.05121 0.41469 0.24783 0.0
O263 O 0.06834 0.43916 0.24939 0.0
C264 C 0.13547 0.37025 0.00924 0.0
O265 O 0.13606 0.35203 0.04399 0.0
O266 O 0.13155 0.38831 0.23904 0.0
O267 O 0.10772 0.36502 0.14512 0.0
O268 O 0.07848 0.35562 0.08646 0.0
C269 C 0.1242 0.37621 0.27618 0.0
O270 O 0.09541 0.37312 0.2866 0.0
O271 O 0.0584 0.39377 0.22053 0.0
C272 C 0.02994 0.37961 0.00727 0.0
O273 O 0.04155 0.35269 0.01583 0.0
O274 O 0.04306 0.40306 0.02338 0.0
O275 O 0.09533 0.41661 0.10719 0.0
O276 O 0.10516 0.44264 0.1657 0.0
O277 O 0.11574 0.39125 0.00766 0.0
C278 C 0.08874 0.34808 0.12472 0.0
C279 C 0.10086 0.44211 0.12384 0.0
Zn280 Zn 0.60267 0.39154 0.43626 0.0
Zn281 Zn 0.59944 0.40361 0.29847 0.0
C282 C 0.63399 0.37805 0.51261 0.0
O283 O 0.60702 0.36639 0.52036 0.0
C284 C 0.5392 0.40804 0.24951 0.0
O285 O 0.52577 0.4249 0.27979 0.0
O286 O 0.56242 0.39506 0.46898 0.0
O287 O 0.60765 0.41657 0.38289 0.0
O288 O 0.59172 0.44463 0.32914 0.0
C289 C 0.55926 0.4113 0.50362 0.0
O290 O 0.58176 0.42897 0.51596 0.0
O291 O 0.63863 0.39221 0.47644 0.0
C292 C 0.63336 0.37472 0.23525 0.0
O293 O 0.60814 0.35888 0.23806 0.0
O294 O 0.63716 0.39775 0.26055 0.0
O295 O 0.59834 0.36714 0.34091 0.0
O296 O 0.60115 0.35033 0.41036 0.0
O297 O 0.56623 0.3989 0.25499 0.0
C298 C 0.59466 0.44065 0.37066 0.0
C299 C 0.598 0.34532 0.36883 0.0
Zn300 Zn -0.00418 0.61696 0.93908 0.0
Zn301 Zn 0.01745 0.59119 0.80829 0.0
C302 C 0.95993 0.64378 -0.00238 0.0
O303 O 0.96868 0.66804 0.97455 0.0
C304 C 0.06466 0.58652 0.74356 0.0
O305 O 0.04623 0.56562 0.72766 0.0
O306 O 0.03635 0.61755 0.9724 0.0
O307 O 0.99677 0.58282 0.89287 0.0
O308 O 0.019 0.55325 0.84946 0.0
C309 C 0.03797 0.61621 0.01378 0.0
O310 O 0.01313 0.61218 0.03728 0.0
O311 O 0.96628 0.61814 0.98518 0.0
C312 C 0.99039 0.62015 0.74211 0.0
O313 O 0.00868 0.6385 0.75343 0.0
O314 O 0.98832 0.59433 0.76122 0.0
O315 O 0.00917 0.62595 0.8494 0.0
O316 O 0.00024 0.65633 0.90445 0.0
O317 O 0.05783 0.59963 0.77985 0.0
C318 C 0.00918 0.55923 0.88853 0.0
C319 C 0.01137 0.6522 0.86593 0.0
H320 H 0.09878 0.17244 0.95764 0.0
H321 H 0.07586 0.08029 0.92224 0.0
H322 H 0.11365 0.08123 0.86131 0.0
H323 H 0.09306 0.19249 0.85008 0.0
H324 H 0.1209 0.22193 0.8463 0.0
H325 H 0.10209 0.21477 0.89871 0.0
H326 H 0.15036 0.20588 0.94124 0.0
H327 H 0.17564 0.21051 0.89411 0.0
H328 H 0.17626 0.17596 0.92556 0.0
H329 H 0.1498 0.09575 0.79668 0.0
H330 H 0.17215 0.12376 0.73226 0.0
H331 H 0.16614 0.20766 0.80667 0.0
C332 C 0.10263 0.15204 0.93819 0.0
C333 C 0.08661 0.12504 0.94756 0.0
C334 C 0.09053 0.09975 0.91902 0.0
C335 C 0.11144 0.10051 0.88349 0.0
C336 C 0.12738 0.1274 0.87556 0.0
C337 C 0.12249 0.15288 0.90172 0.0
C338 C 0.13679 0.18072 0.88129 0.0
C339 C 0.11185 0.2039 0.86851 0.0
C340 C 0.1611 0.19415 0.91246 0.0
C341 C 0.15114 0.16717 0.84022 0.0
C342 C 0.14586 0.13629 0.83722 0.0
C343 C 0.15446 0.11986 0.79925 0.0
C344 C 0.16741 0.13582 0.76296 0.0
C345 C 0.17145 0.16771 0.76523 0.0
C346 C 0.1642 0.18313 0.80486 0.0
H347 H 0.19328 0.81594 0.21606 0.0
H348 H 0.23497 0.73394 0.16346 0.0
H349 H 0.21857 0.74786 0.08821 0.0
H350 H 0.13035 0.81969 0.15594 0.0
H351 H 0.13 0.85957 0.14175 0.0
H352 H 0.14981 0.84692 0.1908 0.0
H353 H 0.19943 0.87194 0.16255 0.0
H354 H 0.17963 0.88506 0.11342 0.0
H355 H 0.21369 0.86258 0.10794 0.0
H356 H 0.18707 0.76217 0.02506 0.0
H357 H 0.14959 0.78328 0.97245 0.0
H358 H 0.13316 0.85948 0.0582 0.0
C359 C 0.1999 0.80166 0.18831 0.0
C360 C 0.21516 0.77375 0.19566 0.0
C361 C 0.22343 0.75548 0.15876 0.0
C362 C 0.21422 0.76318 0.1157 0.0
C363 C 0.19802 0.78999 0.10964 0.0
C364 C 0.19201 0.80976 0.14439 0.0
C365 C 0.17326 0.83665 0.12806 0.0
C366 C 0.14412 0.8409 0.15579 0.0
C367 C 0.19265 0.86578 0.12799 0.0
C368 C 0.16634 0.82651 0.08065 0.0
C369 C 0.18152 0.79984 0.07066 0.0
C370 C 0.17601 0.7837 0.03153 0.0
C371 C 0.15451 0.79512 0.00152 0.0
C372 C 0.13904 0.82255 0.01057 0.0
C373 C 0.14539 0.8388 0.05021 0.0
H374 H 0.44207 0.89035 0.28305 0.0
H375 H 0.40354 0.80232 0.31613 0.0
H376 H 0.4226 0.80693 0.39249 0.0
H377 H 0.50851 0.87714 0.3315 0.0
H378 H 0.51556 0.91504 0.352 0.0
H379 H 0.49146 0.90958 0.30439 0.0
H380 H 0.44719 0.93803 0.34353 0.0
H381 H 0.47172 0.94448 0.3908 0.0
H382 H 0.43532 0.92628 0.39845 0.0
H383 H 0.45507 0.81548 0.45929 0.0
H384 H 0.49701 0.82883 0.51123 0.0
H385 H 0.51552 0.90932 0.43318 0.0
C386 C 0.43632 0.87283 0.30704 0.0
C387 C 0.42074 0.84643 0.29383 0.0
C388 C 0.41448 0.82335 0.32573 0.0
C389 C 0.42547 0.82561 0.36932 0.0
C390 C 0.44233 0.85121 0.38063 0.0
C391 C 0.44741 0.87461 0.35052 0.0
C392 C 0.4702 0.89721 0.36825 0.0
C393 C 0.49806 0.89985 0.33722 0.0
C394 C 0.4552 0.92834 0.37573 0.0
C395 C 0.47818 0.88211 0.41199 0.0
C396 C 0.46151 0.85594 0.41911 0.0
C397 C 0.46743 0.83658 0.45507 0.0
C398 C 0.4911 0.8443 0.48443 0.0
C399 C 0.50852 0.87078 0.47694 0.0
C400 C 0.50177 0.88982 0.44064 0.0
H401 H 0.36974 0.2168 0.66802 0.0
H402 H 0.4532 0.22381 0.74463 0.0
H403 H 0.47934 0.19085 0.69057 0.0
H404 H 0.38561 0.13337 0.63524 0.0
H405 H 0.36732 0.13847 0.58195 0.0
H406 H 0.35397 0.15921 0.63002 0.0
H407 H 0.36094 0.20973 0.58673 0.0
H408 H 0.37474 0.18932 0.53894 0.0
H409 H 0.39768 0.21894 0.56352 0.0
H410 H 0.49817 0.16398 0.62444 0.0
H411 H 0.50812 0.14081 0.55133 0.0
H412 H 0.41256 0.1484 0.51698 0.0
C413 C 0.39321 0.21041 0.67397 0.0
C414 C 0.40947 0.2225 0.71048 0.0
C415 C 0.44026 0.21426 0.71724 0.0
C416 C 0.45533 0.19564 0.68668 0.0
C417 C 0.43896 0.18458 0.65042 0.0
C418 C 0.40839 0.19087 0.64446 0.0
C419 C 0.39661 0.17644 0.60183 0.0
C420 C 0.37456 0.15033 0.61291 0.0
C421 C 0.38164 0.20004 0.57093 0.0
C422 C 0.42601 0.16409 0.58254 0.0
C423 C 0.4499 0.16821 0.61201 0.0
C424 C 0.47954 0.15981 0.60161 0.0
C425 C 0.48494 0.14654 0.56011 0.0
C426 C 0.46097 0.1422 0.52918 0.0
C427 C 0.43112 0.15113 0.54043 0.0
H428 H 0.95914 0.80104 0.17327 0.0
H429 H 0.92402 0.88522 0.22729 0.0
H430 H 0.94089 0.91254 0.15877 0.0
H431 H 0.02156 0.83117 0.13241 0.0
H432 H 0.02274 0.80538 0.08582 0.0
H433 H 0.00342 0.79477 0.13612 0.0
H434 H 0.95343 0.78836 0.08664 0.0
H435 H 0.9795 0.7947 0.04104 0.0
H436 H 0.94602 0.81796 0.04741 0.0
H437 H 0.9723 0.93125 0.09045 0.0
H438 H 0.00697 0.93775 0.03036 0.0
H439 H 0.01742 0.84018 0.02237 0.0
C440 C 0.95414 0.82507 0.17008 0.0
C441 C 0.94042 0.84112 0.20515 0.0
C442 C 0.93432 0.87256 0.20027 0.0
C443 C 0.94389 0.88817 0.16159 0.0
C444 C 0.95881 0.87171 0.12822 0.0
C445 C 0.96326 0.84067 0.13207 0.0
C446 C 0.98258 0.82822 0.09497 0.0
C447 C 0.00824 0.81401 0.11336 0.0
C448 C 0.96443 0.80594 0.06579 0.0
C449 C 0.98911 0.85697 0.06985 0.0
C450 C 0.97539 0.88209 0.08901 0.0
C451 C 0.98216 0.91156 0.07437 0.0
C452 C -5e-05 0.9151 0.04024 0.0
C453 C 0.01399 0.88926 0.02124 0.0
C454 C 0.00579 0.86007 0.03527 0.0
H455 H 0.93017 0.24938 0.83003 0.0
H456 H 0.88942 0.17993 0.74686 0.0
H457 H 0.90364 0.14056 0.80324 0.0
H458 H 0.99419 0.20031 0.87133 0.0
H459 H 0.99359 0.2203 0.92376 0.0
H460 H 0.98294 0.23956 0.87309 0.0
H461 H 0.93111 0.2535 0.91231 0.0
H462 H 0.94248 0.23279 0.96116 0.0
H463 H 0.90733 0.22339 0.93322 0.0
H464 H 0.92206 0.10933 0.87284 0.0
H465 H 0.9423 0.09074 0.94559 0.0
H466 H 0.9676 0.18291 0.98058 0.0
C467 C 0.92443 0.22581 0.82349 0.0
C468 C 0.90856 0.21754 0.78456 0.0
C469 C 0.90171 0.18655 0.77664 0.0
C470 C 0.90966 0.16417 0.80845 0.0
C471 C 0.92483 0.17333 0.84726 0.0
C472 C 0.93251 0.20347 0.85423 0.0
C473 C 0.94839 0.20805 0.89832 0.0
C474 C 0.98173 0.21763 0.89123 0.0
C475 C 0.93127 0.23075 0.92806 0.0
C476 C 0.94665 0.17635 0.91678 0.0
C477 C 0.93395 0.15616 0.8867 0.0
C478 C 0.93172 0.12515 0.89657 0.0
C479 C 0.94302 0.11482 0.93793 0.0
C480 C 0.95544 0.13564 0.96903 0.0
C481 C 0.95709 0.16667 0.95816 0.0
H482 H 0.61716 0.16037 0.7308 0.0
H483 H 0.71077 0.14359 0.69336 0.0
H484 H 0.69296 0.11724 0.62456 0.0
H485 H 0.57811 0.09532 0.6855 0.0
H486 H 0.54739 0.1191 0.66596 0.0
H487 H 0.56873 0.12997 0.71461 0.0
H488 H 0.57959 0.18207 0.67684 0.0
H489 H 0.5598 0.17068 0.62702 0.0
H490 H 0.59883 0.18302 0.62386 0.0
H491 H 0.66351 0.10317 0.55265 0.0
H492 H 0.62569 0.09376 0.49265 0.0
H493 H 0.55296 0.11887 0.58254 0.0
C494 C 0.6339 0.15001 0.70904 0.0
C495 C 0.66507 0.15353 0.71689 0.0
C496 C 0.68663 0.14045 0.68769 0.0
C497 C 0.67671 0.12589 0.6485 0.0
C498 C 0.64545 0.12498 0.63996 0.0
C499 C 0.6245 0.13637 0.67002 0.0
C500 C 0.59278 0.13701 0.65154 0.0
C501 C 0.57046 0.11924 0.68116 0.0
C502 C 0.58213 0.17013 0.64441 0.0
C503 C 0.59837 0.12161 0.60776 0.0
C504 C 0.62893 0.11606 0.60033 0.0
C505 C 0.63944 0.10605 0.55899 0.0
C506 C 0.61787 0.10049 0.52531 0.0
C507 C 0.58644 0.10352 0.53446 0.0
C508 C 0.57679 0.1148 0.57572 0.0
H509 H 0.68669 0.86735 0.46855 0.0
H510 H 0.59815 0.82796 0.49474 0.0
H511 H 0.59814 0.80378 0.42058 0.0
H512 H 0.68401 0.88208 0.35707 0.0
H513 H 0.72038 0.8664 0.34136 0.0
H514 H 0.71456 0.88005 0.39725 0.0
H515 H 0.72896 0.8272 0.43176 0.0
H516 H 0.73805 0.81639 0.37559 0.0
H517 H 0.71221 0.79343 0.40808 0.0
H518 H 0.60467 0.78974 0.34149 0.0
H519 H 0.62394 0.77212 0.26857 0.0
H520 H 0.70988 0.81732 0.29416 0.0
C521 C 0.66766 0.85324 0.45863 0.0
C522 C 0.64145 0.85097 0.48536 0.0
C523 C 0.61742 0.83139 0.47283 0.0
C524 C 0.61736 0.81738 0.43118 0.0
C525 C 0.64242 0.82182 0.40381 0.0
C526 C 0.66787 0.83776 0.41778 0.0
C527 C 0.6928 0.8363 0.38306 0.0
C528 C 0.70352 0.86813 0.36884 0.0
C529 C 0.71955 0.81713 0.40067 0.0
C530 C 0.67608 0.81992 0.3458 0.0
C531 C 0.64719 0.81148 0.35891 0.0
C532 C 0.62742 0.79574 0.33087 0.0
C533 C 0.63826 0.78639 0.28926 0.0
C534 C 0.66842 0.79301 0.2764 0.0
C535 C 0.68701 0.81125 0.30399 0.0
H536 H 0.64224 0.62683 0.24809 0.0
H537 H 0.69215 0.70258 0.3046 0.0
H538 H 0.67616 0.68688 0.38009 0.0
H539 H 0.58039 0.63225 0.30708 0.0
H540 H 0.57283 0.59244 0.31645 0.0
H541 H 0.59478 0.60396 0.26899 0.0
H542 H 0.63937 0.56925 0.29387 0.0
H543 H 0.61727 0.55705 0.34131 0.0
H544 H 0.65468 0.57291 0.34941 0.0
H545 H 0.64449 0.67026 0.44638 0.0
H546 H 0.60436 0.65148 0.49725 0.0
H547 H 0.57592 0.58643 0.39683 0.0
C548 C 0.65089 0.63929 0.27654 0.0
C549 C 0.66826 0.66595 0.27046 0.0
C550 C 0.67895 0.68195 0.30839 0.0
C551 C 0.66994 0.67318 0.35151 0.0
C552 C 0.65102 0.64787 0.35615 0.0
C553 C 0.64246 0.63055 0.31968 0.0
C554 C 0.61949 0.60646 0.3326 0.0
C555 C 0.59016 0.60898 0.30464 0.0
C556 C 0.63355 0.57453 0.32909 0.0
C557 C 0.61408 0.61487 0.38078 0.0
C558 C 0.6331 0.63814 0.39437 0.0
C559 C 0.63014 0.65144 0.43642 0.0
C560 C 0.60712 0.64075 0.465 0.0
C561 C 0.58708 0.61729 0.45114 0.0
C562 C 0.5911 0.60404 0.40873 0.0
H563 H 0.68419 0.29904 0.73121 0.0
H564 H 0.73266 0.23576 0.64578 0.0
H565 H 0.7265 0.27089 0.58244 0.0
H566 H 0.62859 0.31936 0.65542 0.0
H567 H 0.62684 0.35879 0.67172 0.0
H568 H 0.6391 0.33061 0.7112 0.0
H569 H 0.68882 0.36152 0.72318 0.0
H570 H 0.67699 0.38912 0.6821 0.0
H571 H 0.71296 0.36988 0.67618 0.0
H572 H 0.71174 0.30979 0.52743 0.0
H573 H 0.68118 0.34523 0.48189 0.0
H574 H 0.64096 0.38246 0.60167 0.0
C575 C 0.69391 0.29281 0.69933 0.0
C576 C 0.70928 0.26489 0.69349 0.0
C577 C 0.72119 0.25725 0.65112 0.0
C578 C 0.71808 0.27718 0.61505 0.0
C579 C 0.70325 0.30473 0.62201 0.0
C580 C 0.69101 0.31244 0.66293 0.0
C581 C 0.67313 0.3418 0.66018 0.0
C582 C 0.63997 0.33733 0.67549 0.0
C583 C 0.68892 0.36708 0.68701 0.0
C584 C 0.67528 0.348 0.61067 0.0
C585 C 0.69396 0.32714 0.58965 0.0
C586 C 0.69762 0.32669 0.54349 0.0
C587 C 0.68042 0.34702 0.51792 0.0
C588 C 0.6594 0.36665 0.53878 0.0
C589 C 0.65765 0.36807 0.58553 0.0
H590 H -0.003 0.33427 0.97101 0.0
H591 H 0.00745 0.43235 0.9676 0.0
H592 H 0.9818 0.43442 0.89773 0.0
H593 H 0.00289 0.31821 0.86165 0.0
H594 H 0.97647 0.291 0.85684 0.0
H595 H 0.9957 0.29584 0.90939 0.0
H596 H 0.94555 0.30621 0.94827 0.0
H597 H 0.92358 0.30367 0.89735 0.0
H598 H 0.92172 0.33742 0.93079 0.0
H599 H 0.95926 0.42385 0.82076 0.0
H600 H 0.93687 0.40268 0.75128 0.0
H601 H 0.93478 0.31321 0.81221 0.0
C602 C 0.99657 0.35633 0.95621 0.0
C603 C 0.00591 0.38308 0.97364 0.0
C604 C -0.00112 0.41144 0.9537 0.0
C605 C 0.98572 0.41286 0.91421 0.0
C606 C 0.97453 0.38583 0.89641 0.0
C607 C 0.97866 0.35826 0.91781 0.0
C608 C 0.96386 0.33258 0.89232 0.0
C609 C 0.98714 0.30796 0.87935 0.0
C610 C 0.93715 0.31912 0.91884 0.0
C611 C 0.95248 0.34967 0.85195 0.0
C612 C 0.9588 0.38038 0.85466 0.0
C613 C 0.95317 0.40003 0.81895 0.0
C614 C 0.94055 0.38789 0.7797 0.0
C615 C 0.93329 0.35662 0.77707 0.0
C616 C 0.93906 0.33747 0.81389 0.0
H617 H 0.96298 0.74466 0.21062 0.0
H618 H 0.89279 0.6873 0.26572 0.0
H619 H 0.90248 0.6487 0.20807 0.0
H620 H 0.94753 0.73611 0.10572 0.0
H621 H 0.98599 0.73497 0.0846 0.0
H622 H 0.97826 0.7527 0.13715 0.0
H623 H 0.01447 0.71719 0.17417 0.0
H624 H 0.02093 0.69875 0.1213 0.0
H625 H 0.01 0.67655 0.16923 0.0
H626 H 0.91072 0.62356 0.1331 0.0
H627 H 0.92073 0.61237 0.05308 0.0
H628 H 0.98663 0.68559 0.04956 0.0
C629 C 0.95082 0.72324 0.21173 0.0
C630 C 0.92652 0.71919 0.24156 0.0
C631 C 0.91063 0.69129 0.24206 0.0
C632 C 0.91645 0.66894 0.20982 0.0
C633 C 0.93904 0.67455 0.17833 0.0
C634 C 0.95687 0.70054 0.18022 0.0
C635 C 0.97689 0.7032 0.1395 0.0
C636 C 0.97186 0.73353 0.11523 0.0
C637 C 0.00657 0.69864 0.1518 0.0
C638 C 0.96509 0.6769 0.11236 0.0
C639 C 0.94403 0.65983 0.13561 0.0
C640 C 0.92778 0.63632 0.11502 0.0
C641 C 0.93324 0.63036 0.06958 0.0
C642 C 0.9539 0.64862 0.0453 0.0
C643 C 0.97033 0.67161 0.06732 0.0
H644 H 0.52728 0.35831 0.51313 0.0
H645 H 0.53701 0.44913 0.56763 0.0
H646 H 0.50206 0.43567 0.62898 0.0
H647 H 0.44599 0.34452 0.55074 0.0
H648 H 0.45412 0.30537 0.56405 0.0
H649 H 0.47387 0.32382 0.5188 0.0
H650 H 0.52545 0.3096 0.5551 0.0
H651 H 0.50592 0.29139 0.60045 0.0
H652 H 0.53313 0.3211 0.61175 0.0
H653 H 0.47147 0.41073 0.68918 0.0
H654 H 0.44967 0.37538 0.74511 0.0
H655 H 0.46355 0.30001 0.6543 0.0
C656 C 0.52103 0.37573 0.53694 0.0
C657 C 0.53426 0.40503 0.53516 0.0
C658 C 0.52662 0.4268 0.56799 0.0
C659 C 0.50679 0.41934 0.60292 0.0
C660 C 0.49498 0.38993 0.60471 0.0
C661 C 0.50174 0.36843 0.57251 0.0
C662 C 0.48946 0.33738 0.58528 0.0
C663 C 0.46437 0.32719 0.55277 0.0
C664 C 0.51503 0.31349 0.58834 0.0
C665 C 0.47631 0.34449 0.63067 0.0
C666 C 0.47877 0.37508 0.64067 0.0
C667 C 0.46905 0.3868 0.68147 0.0
C668 C 0.45675 0.36665 0.71298 0.0
C669 C 0.45515 0.33516 0.70377 0.0
C670 C 0.4647 0.32406 0.662 0.0
H671 H 0.41429 0.61372 0.44498 0.0
H672 H 0.50604 0.64003 0.48102 0.0
H673 H 0.50306 0.68349 0.42901 0.0
H674 H 0.41774 0.62696 0.33458 0.0
H675 H 0.38026 0.64296 0.32771 0.0
H676 H 0.38767 0.61704 0.37282 0.0
H677 H 0.36899 0.65704 0.42999 0.0
H678 H 0.36098 0.68301 0.38488 0.0
H679 H 0.38554 0.69457 0.42998 0.0
H680 H 0.49321 0.71759 0.36245 0.0
H681 H 0.47488 0.74417 0.29481 0.0
H682 H 0.38799 0.69807 0.30626 0.0
C683 C 0.43353 0.62905 0.44282 0.0
C684 C 0.46076 0.62304 0.46641 0.0
C685 C 0.48522 0.64381 0.46292 0.0
C686 C 0.48362 0.66868 0.4335 0.0
C687 C 0.45696 0.67298 0.40895 0.0
C688 C 0.43197 0.65427 0.41445 0.0
C689 C 0.4065 0.66279 0.3827 0.0
C690 C 0.39755 0.63583 0.35269 0.0
C691 C 0.37887 0.67509 0.40842 0.0
C692 C 0.42182 0.68775 0.35621 0.0
C693 C 0.45082 0.69354 0.3721 0.0
C694 C 0.47033 0.71368 0.35036 0.0
C695 C 0.45987 0.72834 0.31163 0.0
C696 C 0.43012 0.72291 0.29517 0.0
C697 C 0.4108 0.70267 0.31821 0.0
H698 H 0.13801 0.62262 0.23106 0.0
H699 H 0.18513 0.69937 0.17199 0.0
H700 H 0.161 0.6884 0.09952 0.0
H701 H 0.13995 0.57405 0.12441 0.0
H702 H 0.10335 0.55813 0.13794 0.0
H703 H 0.12934 0.56845 0.1819 0.0
H704 H 0.08722 0.60245 0.21671 0.0
H705 H 0.06163 0.59251 0.17238 0.0
H706 H 0.07005 0.63198 0.18326 0.0
H707 H 0.12536 0.67404 0.03692 0.0
H708 H 0.08173 0.65821 0.99146 0.0
H709 H 0.05783 0.59051 0.09075 0.0
C710 C 0.14406 0.6364 0.20245 0.0
C711 C 0.16364 0.66163 0.2071 0.0
C712 C 0.17066 0.67953 0.16908 0.0
C713 C 0.15698 0.67351 0.1277 0.0
C714 C 0.13691 0.64905 0.12458 0.0
C715 C 0.13095 0.63041 0.16078 0.0
C716 C 0.10676 0.6071 0.14972 0.0
C717 C 0.12068 0.57503 0.14842 0.0
C718 C 0.07983 0.60866 0.18245 0.0
C719 C 0.09786 0.61746 0.10338 0.0
C720 C 0.11628 0.64092 0.08867 0.0
C721 C 0.11127 0.65523 0.0477 0.0
C722 C 0.08655 0.64557 0.0215 0.0
C723 C 0.0668 0.62247 0.03706 0.0
C724 C 0.07288 0.60798 0.07806 0.0
H725 H 0.19466 0.25275 0.83447 0.0
H726 H 0.20283 0.32549 0.73753 0.0
H727 H 0.19047 0.36319 0.79664 0.0
H728 H 0.12834 0.28883 0.89035 0.0
H729 H 0.1397 0.26951 0.94086 0.0
H730 H 0.14876 0.25385 0.88716 0.0
H731 H 0.20647 0.25263 0.91745 0.0
H732 H 0.19457 0.27201 0.9673 0.0
H733 H 0.2235 0.28849 0.93216 0.0
H734 H 0.17255 0.39209 0.86719 0.0
H735 H 0.15065 0.40835 0.93968 0.0
H736 H 0.15655 0.31557 0.98794 0.0
C737 C 0.19435 0.27664 0.82567 0.0
C738 C 0.20015 0.28629 0.78164 0.0
C739 C 0.19854 0.31769 0.77122 0.0
C740 C 0.19169 0.3392 0.80459 0.0
C741 C 0.18609 0.32879 0.84788 0.0
C742 C 0.18701 0.29815 0.85808 0.0
C743 C 0.1772 0.29217 0.90549 0.0
C744 C 0.14668 0.27509 0.90619 0.0
C745 C 0.2019 0.27532 0.93216 0.0
C746 C 0.17275 0.32416 0.92172 0.0
C747 C 0.17697 0.34516 0.88791 0.0
C748 C 0.16979 0.37582 0.89399 0.0
C749 C 0.15738 0.38484 0.93519 0.0
C750 C 0.15262 0.36329 0.96971 0.0
C751 C 0.16106 0.33281 0.96294 0.0
H752 H 0.07768 0.30213 0.06919 0.0
H753 H 0.08928 0.32259 0.20962 0.0
H754 H 0.06995 0.27075 0.22865 0.0
H755 H 0.00711 0.27374 0.08097 0.0
H756 H 0.01044 0.24566 0.03746 0.0
H757 H 0.03251 0.28 0.03468 0.0
H758 H 0.08332 0.24977 0.0305 0.0
H759 H 0.0613 0.21529 0.02971 0.0
H760 H 0.09071 0.2203 0.07094 0.0
H761 H 0.04782 0.21374 0.22802 0.0
H762 H 0.02644 0.16292 0.20765 0.0
H763 H 0.01708 0.19339 0.0708 0.0
C764 C 0.07667 0.2958 0.10411 0.0
C765 C 0.08448 0.31628 0.13798 0.0
C766 C 0.08336 0.30689 0.18317 0.0
C767 C 0.07223 0.27769 0.19417 0.0
C768 C 0.06217 0.25895 0.15945 0.0
C769 C 0.06448 0.26805 0.11538 0.0
C770 C 0.04915 0.24675 0.08371 0.0
C771 C 0.02327 0.26249 0.05773 0.0
C772 C 0.0725 0.23217 0.05188 0.0
C773 C 0.03712 0.22416 0.11652 0.0
C774 C 0.04566 0.23029 0.15999 0.0
C775 C 0.04054 0.20917 0.19419 0.0
C776 C 0.02808 0.18059 0.18259 0.0
C777 C 0.02042 0.17441 0.1376 0.0
C778 C 0.02287 0.19741 0.10546 0.0
H779 H 0.99376 0.76617 0.34054 0.0
H780 H 0.99543 0.80396 0.474 0.0
H781 H 0.03918 0.77555 0.48973 0.0
H782 H 0.01727 0.69193 0.36738 0.0
H783 H 0.03946 0.68906 0.317 0.0
H784 H 0.00515 0.71146 0.31751 0.0
H785 H 0.03453 0.75933 0.29068 0.0
H786 H 0.06841 0.73667 0.2877 0.0
H787 H 0.06823 0.77106 0.32038 0.0
H788 H 0.08951 0.7464 0.48647 0.0
H789 H 0.13889 0.72483 0.46183 0.0
H790 H 0.09938 0.70344 0.33335 0.0
C791 C 0.00019 0.76868 0.37314 0.0
C792 C 0.99106 0.787 0.40627 0.0
C793 C 0.00107 0.7895 0.44857 0.0
C794 C 0.02802 0.77342 0.4577 0.0
C795 C 0.03987 0.75469 0.42436 0.0
C796 C 0.02633 0.75257 0.38286 0.0
C797 C 0.0439 0.73274 0.35135 0.0
C798 C 0.02533 0.70462 0.33754 0.0
C799 C 0.0544 0.75104 0.31016 0.0
C800 C 0.07012 0.72435 0.38117 0.0
C801 C 0.06757 0.73698 0.42331 0.0
C802 C 0.09149 0.73587 0.45399 0.0
C803 C 0.11933 0.72345 0.43995 0.0
C804 C 0.12251 0.71285 0.39576 0.0
C805 C 0.09713 0.71124 0.36749 0.0
H806 H 0.54322 0.69114 0.5698 0.0
H807 H 0.49037 0.69222 0.6917 0.0
H808 H 0.52138 0.73559 0.71938 0.0
H809 H 0.61541 0.709 0.61847 0.0
H810 H 0.62709 0.73239 0.57211 0.0
H811 H 0.60132 0.70108 0.5632 0.0
H812 H 0.56129 0.73714 0.52738 0.0
H813 H 0.58768 0.76797 0.53393 0.0
H814 H 0.54992 0.77096 0.55697 0.0
H815 H 0.55733 0.77991 0.73129 0.0
H816 H 0.58553 0.82785 0.71864 0.0
H817 H 0.61538 0.79525 0.59043 0.0
C818 C 0.53766 0.70087 0.60198 0.0
C819 C 0.51477 0.68827 0.62909 0.0
C820 C 0.50843 0.70128 0.67114 0.0
C821 C 0.52601 0.72566 0.68707 0.0
C822 C 0.54985 0.73626 0.66048 0.0
C823 C 0.55511 0.72465 0.6184 0.0
C824 C 0.58057 0.74095 0.59478 0.0
C825 C 0.6077 0.71957 0.58669 0.0
C826 C 0.56918 0.75512 0.55073 0.0
C827 C 0.58811 0.76472 0.62935 0.0
C828 C 0.57078 0.76119 0.66761 0.0
C829 C 0.57133 0.78261 0.70187 0.0
C830 C 0.58773 0.80957 0.69492 0.0
C831 C 0.60241 0.81486 0.6539 0.0
C832 C 0.60487 0.79117 0.62258 0.0
H833 H 0.62756 0.264 0.86255 0.0
H834 H 0.61993 0.18469 0.94739 0.0
H835 H 0.56916 0.20238 0.97258 0.0
H836 H 0.57999 0.32017 0.9221 0.0
H837 H 0.56281 0.33229 0.87038 0.0
H838 H 0.60148 0.31868 0.87094 0.0
H839 H 0.5878 0.27858 0.8107 0.0
H840 H 0.54924 0.29194 0.80996 0.0
H841 H 0.55703 0.25241 0.82106 0.0
H842 H 0.51529 0.22282 0.97469 0.0
H843 H 0.46464 0.24163 0.95126 0.0
H844 H 0.50732 0.30499 0.86043 0.0
C845 C 0.61587 0.25117 0.88826 0.0
C846 C 0.62803 0.22374 0.90455 0.0
C847 C 0.61157 0.20662 0.93634 0.0
C848 C 0.58259 0.21637 0.95033 0.0
C849 C 0.57049 0.24289 0.93149 0.0
C850 C 0.58678 0.25986 0.90083 0.0
C851 C 0.56711 0.28295 0.87727 0.0
C852 C 0.57852 0.31546 0.88574 0.0
C853 C 0.56519 0.27605 0.82683 0.0
C854 C 0.53711 0.27699 0.89988 0.0
C855 C 0.53933 0.2539 0.93123 0.0
C856 C 0.5135 0.24153 0.95135 0.0
C857 C 0.48482 0.25241 0.93808 0.0
C858 C 0.48241 0.27539 0.90528 0.0
C859 C 0.50883 0.28824 0.88689 0.0
H860 H 0.06104 0.81024 0.78715 0.0
H861 H 0.13434 0.80064 0.88214 0.0
H862 H 0.129 0.74489 0.8795 0.0
H863 H 0.01435 0.76636 0.83 0.0
H864 H -0.00187 0.74733 0.78229 0.0
H865 H 0.01552 0.78381 0.77549 0.0
H866 H 0.0523 0.76248 0.71589 0.0
H867 H 0.0343 0.72574 0.72138 0.0
H868 H 0.07489 0.7293 0.72822 0.0
H869 H 0.10535 0.69556 0.88684 0.0
H870 H 0.06722 0.65554 0.90025 0.0
H871 H 0.00799 0.6955 0.8009 0.0
C872 C 0.07725 0.79601 0.80465 0.0
C873 C 0.09846 0.80907 0.83393 0.0
C874 C 0.1186 0.79057 0.85853 0.0
C875 C 0.11568 0.75893 0.85715 0.0
C876 C 0.09291 0.74646 0.83033 0.0
C877 C 0.07455 0.76438 0.80336 0.0
C878 C 0.0481 0.74632 0.78466 0.0
C879 C 0.01725 0.76188 0.79376 0.0
C880 C 0.05267 0.74062 0.73456 0.0
C881 C 0.05172 0.7171 0.81073 0.0
C882 C 0.07862 0.71705 0.83498 0.0
C883 C 0.08497 0.6947 0.86661 0.0
C884 C 0.06314 0.67226 0.87431 0.0
C885 C 0.03528 0.67262 0.8509 0.0
C886 C 0.02971 0.69463 0.81796 0.0
H887 H 0.61532 0.7381 0.04795 0.0
H888 H 0.59534 0.66342 0.13676 0.0
H889 H 0.54032 0.67417 0.12974 0.0
H890 H 0.57524 0.78665 0.09676 0.0
H891 H 0.56082 0.80817 0.05004 0.0
H892 H 0.59527 0.78703 0.04424 0.0
H893 H 0.57267 0.75864 0.97803 0.0
H894 H 0.53786 0.78014 0.9832 0.0
H895 H 0.53678 0.73915 0.98364 0.0
H896 H 0.49117 0.7013 0.13109 0.0
H897 H 0.4546 0.74284 0.14509 0.0
H898 H 0.50848 0.80356 0.06384 0.0
C899 C 0.59898 0.72287 0.06325 0.0
C900 C 0.60899 0.69951 0.09167 0.0
C901 C 0.58771 0.68072 0.11355 0.0
C902 C 0.55646 0.68678 0.10971 0.0
C903 C 0.54718 0.71167 0.08394 0.0
C904 C 0.56796 0.72924 0.06053 0.0
C905 C 0.55391 0.75875 0.04453 0.0
C906 C 0.57239 0.78674 0.05991 0.0
C907 C 0.55006 0.75937 0.99458 0.0
C908 C 0.52334 0.75688 0.06729 0.0
C909 C 0.51906 0.72878 0.08735 0.0
C910 C 0.49394 0.72299 0.11447 0.0
C911 C 0.47343 0.74673 0.12258 0.0
C912 C 0.47871 0.77604 0.10477 0.0
C913 C 0.50345 0.78093 0.07606 0.0
H914 H 0.49625 0.20119 0.39684 0.0
H915 H 0.53731 0.16347 0.27815 0.0
H916 H 0.56089 0.21345 0.26159 0.0
H917 H 0.48991 0.28409 0.36367 0.0
H918 H 0.50193 0.29488 0.41895 0.0
H919 H 0.47994 0.26073 0.41096 0.0
H920 H 0.52217 0.23086 0.45275 0.0
H921 H 0.54519 0.26437 0.45822 0.0
H922 H 0.56043 0.23114 0.4311 0.0
H923 H 0.58853 0.26473 0.26798 0.0
H924 H 0.61297 0.31289 0.2931 0.0
H925 H 0.55838 0.31101 0.41328 0.0
C926 C 0.50866 0.20405 0.36588 0.0
C927 C 0.51498 0.1789 0.33855 0.0
C928 C 0.53195 0.18281 0.29899 0.0
C929 C 0.54566 0.21103 0.28972 0.0
C930 C 0.54193 0.23458 0.32052 0.0
C931 C 0.52334 0.23136 0.35753 0.0
C932 C 0.52757 0.25686 0.3905 0.0
C933 C 0.49808 0.27523 0.39631 0.0
C934 C 0.53955 0.24508 0.43576 0.0
C935 C 0.55146 0.27496 0.36658 0.0
C936 C 0.55938 0.26228 0.32605 0.0
C937 C 0.58197 0.27512 0.29923 0.0
C938 C 0.59576 0.30227 0.31367 0.0
C939 C 0.58722 0.31543 0.35481 0.0
C940 C 0.56538 0.30121 0.38175 0.0
H941 H 0.10777 0.204 0.65857 0.0
H942 H 0.13159 0.22085 0.52082 0.0
H943 H 0.08185 0.24642 0.50894 0.0
H944 H 0.02393 0.19845 0.64924 0.0
H945 H 0.02004 0.2192 0.70074 0.0
H946 H 0.0527 0.1953 0.69193 0.0
H947 H 0.0866 0.24216 0.70993 0.0
H948 H 0.05415 0.26684 0.71473 0.0
H949 H 0.0839 0.27569 0.67547 0.0
H950 H 0.03048 0.27413 0.51615 0.0
H951 H 0.98508 0.29626 0.53991 0.0
H952 H 0.00035 0.26941 0.6764 0.0
C953 C 0.10175 0.21162 0.62536 0.0
C954 C 0.12277 0.2103 0.59044 0.0
C955 C 0.11499 0.22112 0.54752 0.0
C956 C 0.08717 0.23613 0.54082 0.0
C957 C 0.06819 0.24005 0.57765 0.0
C958 C 0.07514 0.22771 0.61892 0.0
C959 C 0.05386 0.23827 0.6548 0.0
C960 C 0.0366 0.2112 0.67535 0.0
C961 C 0.07064 0.25684 0.69081 0.0
C962 C 0.03332 0.2581 0.62734 0.0
C963 C 0.04152 0.25881 0.58285 0.0
C964 C 0.02389 0.27374 0.55092 0.0
C965 C -0.00393 0.28633 0.56464 0.0
C966 C 0.99094 0.28416 0.60982 0.0
C967 C 0.00675 0.2716 0.64166 0.0
H968 H 0.02856 0.05188 0.0289 0.0
H969 H 0.03199 0.99447 0.14195 0.0
H970 H 0.05893 0.95652 0.09441 0.0
H971 H 0.02028 0.01177 0.93928 0.0
H972 H 0.0502 0.02884 0.9066 0.0
H973 H 0.03227 0.05025 0.95027 0.0
H974 H 0.08751 0.0579 0.99087 0.0
H975 H 0.10347 0.03789 0.9436 0.0
H976 H 0.11012 0.02426 -0.00146 0.0
H977 H 0.09922 0.93416 0.03738 0.0
H978 H 0.12274 0.91539 0.96903 0.0
H979 H 0.08439 0.98977 0.8938 0.0
C980 C 0.03494 0.03062 0.04414 0.0
C981 C 0.02871 0.02437 0.08933 0.0
C982 C 0.03695 -0.00425 0.10738 0.0
C983 C 0.0524 0.97841 0.08088 0.0
C984 C 0.05991 0.98654 0.03712 0.0
C985 C 0.0513 0.00988 0.01912 0.0
C986 C 0.06403 0.01534 0.97405 0.0
C987 C 0.04028 0.02723 0.94057 0.0
C988 C 0.09272 0.03541 0.97692 0.0
C989 C 0.07443 0.98787 0.96433 0.0
C990 C 0.07617 0.97026 0.00247 0.0
C991 C 0.09517 0.94522 0.00567 0.0
C992 C 0.10865 0.93542 0.96744 0.0
C993 C 0.10286 0.94958 0.92584 0.0
C994 C 0.08739 0.97737 0.92472 0.0
H995 H 0.2779 0.76834 0.34946 0.0
H996 H 0.26989 0.67205 0.32134 0.0
H997 H 0.30031 0.67875 0.25277 0.0
H998 H 0.2706 0.79558 0.23831 0.0
H999 H 0.2977 0.82551 0.24665 0.0
H1000 H 0.27653 0.81093 0.29341 0.0
H1001 H 0.32882 0.80292 0.33129 0.0
H1002 H 0.3498 0.81356 0.28216 0.0
H1003 H 0.35565 0.77675 0.30772 0.0
H1004 H 0.32243 0.69699 0.18219 0.0
H1005 H 0.34883 0.7236 0.12073 0.0
H1006 H 0.34597 0.8077 0.19592 0.0
C1007 C 0.28398 0.74856 0.32986 0.0
C1008 C 0.27264 0.71952 0.34079 0.0
C1009 C 0.27949 0.69418 0.31381 0.0
C1010 C 0.29629 0.69788 0.27465 0.0
C1011 C 0.30587 0.72708 0.26337 0.0
C1012 C 0.30078 0.75192 0.29065 0.0
C1013 C 0.31311 0.7809 0.27002 0.0
C1014 C 0.28794 0.80456 0.26172 0.0
C1015 C 0.33841 0.79431 0.29942 0.0
C1016 C 0.32513 0.76842 0.22635 0.0
C1017 C 0.31994 0.73749 0.22289 0.0
C1018 C 0.32708 0.7211 0.18459 0.0
C1019 C 0.34144 0.73643 0.1496 0.0
C1020 C 0.3487 0.76755 0.1537 0.0
C1021 C 0.34005 0.78392 0.19208 0.0
H1022 H 0.51794 -0.00159 0.40318 0.0
H1023 H 0.58109 0.07376 0.40117 0.0
H1024 H 0.61019 0.05018 0.4635 0.0
H1025 H 0.50904 0.98316 0.50865 0.0
H1026 H 0.5155 0.94282 0.50414 0.0
H1027 H 0.50249 0.9639 0.45648 0.0
H1028 H 0.54931 0.94556 0.40986 0.0
H1029 H 0.56385 0.92438 0.45717 0.0
H1030 H 0.58704 0.95226 0.43061 0.0
H1031 H 0.62125 0.02612 0.54267 0.0
H1032 H 0.62682 0.9957 0.60829 0.0
H1033 H 0.56016 0.93502 0.55033 0.0
C1034 C 0.53793 0.00991 0.41594 0.0
C1035 C 0.54649 0.03852 0.39951 0.0
C1036 C 0.57354 0.05233 0.41519 0.0
C1037 C 0.58991 0.0395 0.45084 0.0
C1038 C 0.57892 0.01294 0.47006 0.0
C1039 C 0.55478 -0.00259 0.45113 0.0
C1040 C 0.55069 0.97095 0.47271 0.0
C1041 C 0.51747 0.96487 0.48628 0.0
C1042 C 0.56329 0.94679 0.4407 0.0
C1043 C 0.57161 0.97437 0.51241 0.0
C1044 C 0.58892 -0.00349 0.50973 0.0
C1045 C 0.60879 0.0049 0.54417 0.0
C1046 C 0.61152 0.98945 0.5815 0.0
C1047 C 0.59455 0.96209 0.58395 0.0
C1048 C 0.57433 0.95495 0.54888 0.0
H1049 H 0.33512 0.31143 0.79567 0.0
H1050 H 0.34865 0.22969 0.87392 0.0
H1051 H 0.32398 0.19906 0.81431 0.0
H1052 H 0.26244 0.29063 0.76481 0.0
H1053 H 0.26139 0.30549 0.70862 0.0
H1054 H 0.28445 0.32357 0.75064 0.0
H1055 H 0.33751 0.31554 0.7109 0.0
H1056 H 0.31202 0.30743 0.66541 0.0
H1057 H 0.34144 0.28092 0.67875 0.0
H1058 H 0.3017 0.17735 0.74142 0.0
H1059 H 0.27366 0.16816 0.67034 0.0
H1060 H 0.27068 0.26539 0.64677 0.0
C1061 C 0.33278 0.28707 0.80011 0.0
C1062 C 0.3436 0.27268 0.83882 0.0
C1063 C 0.34002 0.24093 0.84433 0.0
C1064 C 0.32649 0.22341 0.81051 0.0
C1065 C 0.31645 0.23826 0.77207 0.0
C1066 C 0.31892 0.26951 0.76724 0.0
C1067 C 0.30315 0.28065 0.72562 0.0
C1068 C 0.2762 0.30127 0.73804 0.0
C1069 C 0.32494 0.29711 0.6935 0.0
C1070 C 0.29283 0.25063 0.70656 0.0
C1071 C 0.301 0.22629 0.73316 0.0
C1072 C 0.29497 0.19626 0.72049 0.0
C1073 C 0.27954 0.19116 0.67996 0.0
C1074 C 0.27037 0.2161 0.65344 0.0
C1075 C 0.27751 0.24597 0.66673 0.0
H1076 H 0.76431 0.26901 0.83879 0.0
H1077 H 0.7853 0.17278 0.83655 0.0
H1078 H 0.81602 0.18028 0.76808 0.0
H1079 H 0.76153 0.28485 0.71572 0.0
H1080 H 0.77656 0.32116 0.72954 0.0
H1081 H 0.75413 0.30085 0.77016 0.0
H1082 H 0.80503 0.31355 0.81714 0.0
H1083 H 0.82705 0.32431 0.76898 0.0
H1084 H 0.83922 0.29312 0.80375 0.0
H1085 H 0.83754 0.1972 0.69412 0.0
H1086 H 0.85982 0.22455 0.62943 0.0
H1087 H 0.82911 0.31028 0.68431 0.0
C1088 C 0.77634 0.2498 0.82461 0.0
C1089 C 0.77341 0.22045 0.84324 0.0
C1090 C 0.78831 0.19552 0.82329 0.0
C1091 C 0.80525 0.19952 0.78409 0.0
C1092 C 0.80696 0.22861 0.76565 0.0
C1093 C 0.79362 0.25353 0.78587 0.0
C1094 C 0.80031 0.28264 0.76046 0.0
C1095 C 0.7713 0.29826 0.74328 0.0
C1096 C 0.81908 0.30468 0.78923 0.0
C1097 C 0.81852 0.26991 0.72199 0.0
C1098 C 0.82149 0.23866 0.72498 0.0
C1099 C 0.83548 0.22167 0.69149 0.0
C1100 C 0.84752 0.23722 0.65458 0.0
C1101 C 0.84541 0.26925 0.65187 0.0
C1102 C 0.83057 0.28569 0.68568 0.0
H1103 H 0.81697 0.80426 0.33971 0.0
H1104 H 0.87858 0.72846 0.35501 0.0
H1105 H 0.85075 0.7008 0.29466 0.0
H1106 H 0.75565 0.74102 0.31801 0.0
H1107 H 0.73497 0.77474 0.30409 0.0
H1108 H 0.7642 0.77668 0.34408 0.0
H1109 H 0.77987 0.82254 0.28537 0.0
H1110 H 0.75521 0.80954 0.24162 0.0
H1111 H 0.79574 0.81092 0.23251 0.0
H1112 H 0.82509 0.68888 0.21605 0.0
H1113 H 0.78811 0.68334 0.1537 0.0
H1114 H 0.74208 0.76502 0.19807 0.0
C1115 C 0.82563 0.78244 0.32873 0.0
C1116 C 0.85061 0.76908 0.34997 0.0
C1117 C 0.85996 0.73946 0.33763 0.0
C1118 C 0.84521 0.72402 0.30252 0.0
C1119 C 0.82199 0.73886 0.27961 0.0
C1120 C 0.81139 0.76671 0.29407 0.0
C1121 C 0.78062 0.77319 0.27486 0.0
C1122 C 0.75748 0.76595 0.31206 0.0
C1123 C 0.77776 0.806 0.25754 0.0
C1124 C 0.77946 0.74953 0.23813 0.0
C1125 C 0.80264 0.72859 0.24298 0.0
C1126 C 0.80633 0.70468 0.21271 0.0
C1127 C 0.78543 0.70188 0.17712 0.0
C1128 C 0.76165 0.72334 0.17146 0.0
C1129 C 0.75921 0.74762 0.20223 0.0
H1130 H 0.57479 0.55022 0.57791 0.0
H1131 H 0.47897 0.52737 0.57979 0.0
H1132 H 0.48649 0.49381 0.51382 0.0
H1133 H 0.58743 0.54952 0.45752 0.0
H1134 H 0.62465 0.53388 0.46593 0.0
H1135 H 0.60785 0.55732 0.50858 0.0
H1136 H 0.6202 0.51179 0.56044 0.0
H1137 H 0.63069 0.48596 0.51648 0.0
H1138 H 0.6 0.47665 0.55407 0.0
H1139 H 0.50468 0.46682 0.44295 0.0
H1140 H 0.53318 0.44136 0.3819 0.0
H1141 H 0.61752 0.47859 0.43286 0.0
C1142 C 0.55551 0.53778 0.56465 0.0
C1143 C 0.52639 0.54095 0.58352 0.0
C1144 C 0.5015 0.52465 0.56575 0.0
C1145 C 0.50555 0.50597 0.52813 0.0
C1146 C 0.53465 0.50378 0.5096 0.0
C1147 C 0.5593 0.51877 0.52799 0.0
C1148 C 0.58858 0.51135 0.50395 0.0
C1149 C 0.60297 0.53978 0.48289 0.0
C1150 C 0.61118 0.49542 0.53549 0.0
C1151 C 0.57656 0.4903 0.46835 0.0
C1152 C 0.54533 0.48662 0.47145 0.0
C1153 C 0.5291 0.46946 0.44037 0.0
C1154 C 0.54532 0.4554 0.40568 0.0
C1155 C 0.5773 0.45851 0.40293 0.0
C1156 C 0.59302 0.47613 0.43447 0.0
H1157 H 0.05532 0.51578 0.89387 0.0
H1158 H 0.99601 0.56775 0.97427 0.0
H1159 H 0.01891 0.55104 0.04113 0.0
H1160 H 0.0523 0.45322 0.97442 0.0
H1161 H 0.09003 0.44088 0.96054 0.0
H1162 H 0.06726 0.46034 0.91948 0.0
H1163 H 0.11262 0.49884 0.91273 0.0
H1164 H 0.13293 0.48009 0.9572 0.0
H1165 H 0.12428 0.52011 0.96127 0.0
H1166 H 0.05296 0.53351 0.09983 0.0
H1167 H 0.07707 0.49618 0.15003 0.0
H1168 H 0.11311 0.44833 0.03528 0.0
C1169 C 0.04756 0.52433 0.92575 0.0
C1170 C 0.02302 0.54512 0.92855 0.0
C1171 C 0.01205 0.5537 0.97101 0.0
C1172 C 0.02732 0.54409 0.00882 0.0
C1173 C 0.05294 0.52591 0.00493 0.0
C1174 C 0.06185 0.51489 0.9654 0.0
C1175 C 0.08529 0.48993 0.97227 0.0
C1176 C 0.07302 0.45926 0.95554 0.0
C1177 C 0.11559 0.49776 0.94953 0.0
C1178 C 0.08813 0.4894 0.02189 0.0
C1179 C 0.07012 0.51183 0.04021 0.0
C1180 C 0.06716 0.51572 0.08615 0.0
C1181 C 0.08109 0.49459 0.11447 0.0
C1182 C 0.09665 0.46945 0.09639 0.0
C1183 C 0.10147 0.46762 0.04975 0.0
H1184 H 0.07812 0.0641 0.32249 0.0
H1185 H 0.10052 0.13295 0.224 0.0
H1186 H 0.13839 0.15495 0.27588 0.0
H1187 H 0.08003 0.11367 0.414 0.0
H1188 H 0.09529 0.08605 0.45246 0.0
H1189 H 0.07274 0.0737 0.40575 0.0
H1190 H 0.11659 0.03855 0.37969 0.0
H1191 H 0.13932 0.05065 0.42648 0.0
H1192 H 0.15391 0.0544 0.37057 0.0
H1193 H 0.17223 0.17063 0.34027 0.0
H1194 H 0.19677 0.18068 0.41298 0.0
H1195 H 0.14983 0.10297 0.47 0.0
C1196 C 0.09152 0.08333 0.31132 0.0
C1197 C 0.08682 0.09648 0.26891 0.0
C1198 C 0.1041 0.12226 0.25616 0.0
C1199 C 0.12564 0.13491 0.28539 0.0
C1200 C 0.12942 0.12159 0.32727 0.0
C1201 C 0.11269 0.09647 0.34025 0.0
C1202 C 0.11906 0.08797 0.38826 0.0
C1203 C 0.09006 0.09052 0.41679 0.0
C1204 C 0.13306 0.05599 0.39142 0.0
C1205 C 0.14201 0.11223 0.40042 0.0
C1206 C 0.14797 0.13122 0.36469 0.0
C1207 C 0.16796 0.15571 0.36832 0.0
C1208 C 0.18195 0.16111 0.40969 0.0
C1209 C 0.17552 0.14234 0.447 0.0
C1210 C 0.15547 0.11748 0.44198 0.0
H1211 H 0.19195 0.82473 0.49765 0.0
H1212 H 0.21664 0.73978 0.56168 0.0
H1213 H 0.20045 0.76015 0.63445 0.0
H1214 H 0.21703 0.87386 0.59128 0.0
H1215 H 0.18633 0.90061 0.58415 0.0
H1216 H 0.20098 0.88018 0.53669 0.0
H1217 H 0.14693 0.85992 0.51888 0.0
H1218 H 0.13211 0.88054 0.56591 0.0
H1219 H 0.12589 0.84011 0.56158 0.0
H1220 H 0.17873 0.78723 0.698 0.0
H1221 H 0.15144 0.82029 0.75088 0.0
H1222 H 0.14259 0.88972 0.64891 0.0
C1223 C 0.19421 0.81078 0.52726 0.0
C1224 C 0.20567 0.78085 0.52469 0.0
C1225 C 0.20811 0.76286 0.56357 0.0
C1226 C 0.19907 0.77424 0.6049 0.0
C1227 C 0.1881 0.80388 0.60676 0.0
C1228 C 0.1857 0.82207 0.56924 0.0
C1229 C 0.17229 0.85288 0.58103 0.0
C1230 C 0.19555 0.87839 0.57279 0.0
C1231 C 0.14254 0.85868 0.55533 0.0
C1232 C 0.16654 0.84858 0.63055 0.0
C1233 C 0.17621 0.82018 0.64454 0.0
C1234 C 0.17165 0.80978 0.68784 0.0
C1235 C 0.15627 0.82868 0.7176 0.0
C1236 C 0.14583 0.85764 0.70399 0.0
C1237 C 0.15139 0.86803 0.66023 0.0
H1238 H 0.43666 0.87781 0.94598 0.0
H1239 H 0.46693 0.78422 0.9352 0.0
H1240 H 0.49172 0.79585 0.86377 0.0
H1241 H 0.42638 0.8908 0.82118 0.0
H1242 H 0.44072 0.92915 0.82435 0.0
H1243 H 0.42035 0.91298 0.87091 0.0
H1244 H 0.46592 0.92484 0.92287 0.0
H1245 H 0.48635 0.94103 0.87665 0.0
H1246 H 0.50318 0.91064 0.90873 0.0
H1247 H 0.51392 0.81627 0.7963 0.0
H1248 H 0.54135 0.84681 0.74152 0.0
H1249 H 0.50312 0.92937 0.79762 0.0
C1250 C 0.44738 0.85966 0.92735 0.0
C1251 C 0.44913 0.8299 0.94501 0.0
C1252 C 0.4647 0.80691 0.92134 0.0
C1253 C 0.4787 0.81323 0.88072 0.0
C1254 C 0.47681 0.84266 0.86402 0.0
C1255 C 0.4619 0.8657 0.8865 0.0
C1256 C 0.4669 0.89607 0.86322 0.0
C1257 C 0.4368 0.90796 0.84377 0.0
C1258 C 0.48148 0.91951 0.89476 0.0
C1259 C 0.48853 0.88658 0.82619 0.0
C1260 C 0.49259 0.85543 0.82642 0.0
C1261 C 0.51114 0.84074 0.79586 0.0
C1262 C 0.52691 0.8584 0.765 0.0
C1263 C 0.52532 0.89058 0.76596 0.0
C1264 C 0.50504 0.90484 0.79617 0.0
H1265 H 0.41931 0.15568 0.23017 0.0
H1266 H 0.48392 0.09764 0.16145 0.0
H1267 H 0.47034 0.12231 0.08993 0.0
H1268 H 0.36161 0.15882 0.14308 0.0
H1269 H 0.35322 0.19832 0.15346 0.0
H1270 H 0.36626 0.17432 0.19833 0.0
H1271 H 0.41064 0.21193 0.21399 0.0
H1272 H 0.39761 0.23594 0.16925 0.0
H1273 H 0.43616 0.222 0.16929 0.0
H1274 H 0.45255 0.15666 0.02704 0.0
H1275 H 0.43111 0.19769 0.97933 0.0
H1276 H 0.37819 0.23112 0.08946 0.0
C1277 C 0.43012 0.14757 0.2 0.0
C1278 C 0.45231 0.12438 0.20131 0.0
C1279 C 0.46638 0.11494 0.16112 0.0
C1280 C 0.45895 0.12894 0.1204 0.0
C1281 C 0.43731 0.15212 0.12055 0.0
C1282 C 0.42302 0.16123 0.15933 0.0
C1283 C 0.40187 0.18777 0.15125 0.0
C1284 C 0.36878 0.17928 0.16217 0.0
C1285 C 0.4122 0.21606 0.1775 0.0
C1286 C 0.40632 0.19213 0.10181 0.0
C1287 C 0.42695 0.17154 0.08458 0.0
C1288 C 0.43602 0.17257 0.04007 0.0
C1289 C 0.42379 0.19542 0.01271 0.0
C1290 C 0.40278 0.21679 0.0301 0.0
C1291 C 0.39371 0.21474 0.075 0.0
H1292 H 0.96025 0.88055 0.53074 0.0
H1293 H 0.90862 0.81566 0.60839 0.0
H1294 H 0.93329 0.83426 0.6774 0.0
H1295 H 0.02318 0.87184 0.58394 0.0
H1296 H 0.03529 0.91101 0.58303 0.0
H1297 H 0.00936 0.8973 0.54128 0.0
H1298 H 0.97437 0.93912 0.56226 0.0
H1299 H -0.00353 0.95338 0.60375 0.0
H1300 H 0.96227 0.94293 0.61942 0.0
H1301 H 0.97027 0.85338 0.73519 0.0
H1302 H 0.00964 0.87415 0.77795 0.0
H1303 H 0.03625 0.92792 0.66291 0.0
C1304 C 0.95288 0.87165 0.56265 0.0
C1305 C 0.93158 0.8477 0.56475 0.0
C1306 C 0.92382 0.83504 0.60659 0.0
C1307 C 0.93799 0.84525 0.64583 0.0
C1308 C 0.95964 0.86836 0.64262 0.0
C1309 C 0.96659 0.88188 0.60216 0.0
C1310 C 0.99263 0.90425 0.60709 0.0
C1311 C 0.0157 0.89555 0.57707 0.0
C1312 C 0.98178 0.93686 0.59757 0.0
C1313 C -0.00373 0.90011 0.65601 0.0
C1314 C 0.9808 0.87955 0.67609 0.0
C1315 C 0.98507 0.87016 0.72013 0.0
C1316 C 0.00583 0.88209 0.74419 0.0
C1317 C 0.02615 0.90308 0.7241 0.0
C1318 C 0.02086 0.91243 0.67962 0.0
H1319 H 0.89949 0.17556 0.48056 0.0
H1320 H 0.89635 0.26202 0.41123 0.0
H1321 H 0.91555 0.2375 0.34275 0.0
H1322 H 0.9672 0.14974 0.43629 0.0
H1323 H 0.9562 0.11043 0.43034 0.0
H1324 H 0.93833 0.13373 0.472 0.0
H1325 H 0.88541 0.12087 0.43903 0.0
H1326 H 0.90308 0.09752 0.39696 0.0
H1327 H 0.87798 0.12803 0.38082 0.0
H1328 H 0.93925 0.20542 0.28496 0.0
H1329 H 0.96853 0.16776 0.24149 0.0
H1330 H 0.95727 0.10157 0.34733 0.0
C1331 C 0.90207 0.18892 0.45042 0.0
C1332 C 0.89595 0.22037 0.45028 0.0
C1333 C 0.90034 0.23768 0.41112 0.0
C1334 C 0.91119 0.22397 0.37224 0.0
C1335 C 0.91713 0.19286 0.3731 0.0
C1336 C 0.91266 0.17544 0.41102 0.0
C1337 C 0.92302 0.14292 0.40366 0.0
C1338 C 0.94766 0.13369 0.43757 0.0
C1339 C 0.89575 0.12104 0.40521 0.0
C1340 C 0.93568 0.14531 0.35674 0.0
C1341 C 0.93123 0.17415 0.33941 0.0
C1342 C 0.94224 0.18255 0.29764 0.0
C1343 C 0.95866 0.16103 0.27312 0.0
C1344 C 0.96416 0.1317 0.2907 0.0
C1345 C 0.95237 0.1236 0.33279 0.0
H1346 H 0.64804 0.1944 0.08453 0.0
H1347 H 0.68871 0.11596 0.02049 0.0
H1348 H 0.66641 0.08248 0.07885 0.0
H1349 H 0.65793 0.16888 0.19955 0.0
H1350 H 0.62209 0.18504 0.21663 0.0
H1351 H 0.64331 0.20223 0.17181 0.0
H1352 H 0.59627 0.19729 0.11975 0.0
H1353 H 0.57507 0.18021 0.16451 0.0
H1354 H 0.57887 0.16052 0.11211 0.0
H1355 H 0.6347 0.05781 0.14026 0.0
H1356 H 0.59851 0.04425 0.20025 0.0
H1357 H 0.58145 0.14009 0.22418 0.0
C1358 C 0.65268 0.17021 0.08313 0.0
C1359 C 0.67011 0.15763 0.04839 0.0
C1360 C 0.67569 0.12594 0.0474 0.0
C1361 C 0.66305 0.10685 0.08022 0.0
C1362 C 0.6455 0.12009 0.11383 0.0
C1363 C 0.64067 0.15113 0.11561 0.0
C1364 C 0.62006 0.15992 0.15368 0.0
C1365 C 0.63686 0.18021 0.18742 0.0
C1366 C 0.59085 0.17538 0.13646 0.0
C1367 C 0.6135 0.12892 0.17288 0.0
C1368 C 0.62826 0.10615 0.14955 0.0
C1369 C 0.62354 0.07549 0.15926 0.0
C1370 C 0.60296 0.06802 0.19332 0.0
C1371 C 0.58754 0.09115 0.21716 0.0
C1372 C 0.59341 0.12192 0.20724 0.0
H1373 H 0.67617 0.89735 0.85022 0.0
H1374 H 0.62044 0.83519 0.7737 0.0
H1375 H 0.636 0.79273 0.82237 0.0
H1376 H 0.73872 0.84034 0.87276 0.0
H1377 H 0.74561 0.85518 0.92787 0.0
H1378 H 0.73242 0.8801 0.88412 0.0
H1379 H 0.68695 0.8961 0.93382 0.0
H1380 H 0.69966 0.87084 0.97733 0.0
H1381 H 0.66165 0.86729 0.95525 0.0
H1382 H 0.65124 0.75919 0.88445 0.0
H1383 H 0.67088 0.73394 0.95158 0.0
H1384 H 0.72083 0.81543 0.98731 0.0
C1385 C 0.668 0.87461 0.84326 0.0
C1386 C 0.64728 0.86928 0.80805 0.0
C1387 C 0.63653 0.83946 0.80018 0.0
C1388 C 0.64521 0.81528 0.82773 0.0
C1389 C 0.6651 0.82122 0.86281 0.0
C1390 C 0.67699 0.84991 0.8702 0.0
C1391 C 0.69739 0.84987 0.91121 0.0
C1392 C 0.7305 0.85678 0.89821 0.0
C1393 C 0.6857 0.87236 0.94649 0.0
C1394 C 0.6939 0.81712 0.92675 0.0
C1395 C 0.6751 0.80115 0.89813 0.0
C1396 C 0.66644 0.77128 0.90667 0.0
C1397 C 0.67747 0.75719 0.94524 0.0
C1398 C 0.69732 0.77265 0.97477 0.0
C1399 C 0.70589 0.80299 0.96513 0.0
H1400 H 0.59124 0.63861 0.76797 0.0
H1401 H 0.57648 0.54674 0.81665 0.0
H1402 H 0.613 0.55583 0.87758 0.0
H1403 H 0.6737 0.64317 0.79927 0.0
H1404 H 0.67058 0.68253 0.8154 0.0
H1405 H 0.64672 0.66765 0.77158 0.0
H1406 H 0.59876 0.6858 0.81394 0.0
H1407 H 0.62241 0.70086 0.85758 0.0
H1408 H 0.59293 0.6738 0.87084 0.0
H1409 H 0.64733 0.57598 0.93721 0.0
H1410 H 0.67353 0.60744 0.99409 0.0
H1411 H 0.66482 0.6863 0.90836 0.0
C1412 C 0.59631 0.62016 0.79076 0.0
C1413 C 0.58125 0.59182 0.7872 0.0
C1414 C 0.58793 0.56853 0.81841 0.0
C1415 C 0.60876 0.57342 0.85308 0.0
C1416 C 0.62293 0.60168 0.85607 0.0
C1417 C 0.61699 0.62471 0.82579 0.0
C1418 C 0.63316 0.65383 0.83891 0.0
C1419 C 0.65748 0.66228 0.80422 0.0
C1420 C 0.61045 0.6801 0.84576 0.0
C1421 C 0.64775 0.64395 0.88245 0.0
C1422 C 0.64236 0.61354 0.89107 0.0
C1423 C 0.65228 0.59966 0.93043 0.0
C1424 C 0.66738 0.61754 0.96236 0.0
C1425 C 0.6718 0.64895 0.95492 0.0
C1426 C 0.66239 0.6621 0.91417 0.0
H1427 H 0.63646 0.37916 0.14516 0.0
H1428 H 0.6806 0.33991 0.26081 0.0
H1429 H 0.71128 0.30687 0.21169 0.0
H1430 H 0.62717 0.31498 0.08528 0.0
H1431 H 0.63594 0.32998 0.03078 0.0
H1432 H 0.62176 0.35487 0.0735 0.0
H1433 H 0.66884 0.38982 0.06473 0.0
H1434 H 0.68282 0.36529 0.02114 0.0
H1435 H 0.70645 0.3737 0.06871 0.0
H1436 H 0.73168 0.27414 0.15266 0.0
H1437 H 0.74274 0.24376 0.08601 0.0
H1438 H 0.68475 0.30277 0.00668 0.0
C1439 C 0.65384 0.36475 0.1597 0.0
C1440 C 0.65738 0.36285 0.20644 0.0
C1441 C 0.67884 0.34258 0.22496 0.0
C1442 C 0.69607 0.32359 0.19734 0.0
C1443 C 0.69167 0.32548 0.15136 0.0
C1444 C 0.6715 0.34587 0.13243 0.0
C1445 C 0.66947 0.34144 0.08224 0.0
C1446 C 0.63664 0.33491 0.06711 0.0
C1447 C 0.68268 0.36921 0.05776 0.0
C1448 C 0.6899 0.3139 0.07657 0.0
C1449 C 0.70304 0.30574 0.11678 0.0
C1450 C 0.72212 0.28068 0.12079 0.0
C1451 C 0.72829 0.26359 0.08266 0.0
C1452 C 0.71496 0.2712 0.04114 0.0
C1453 C 0.69545 0.29669 0.03801 0.0
H1454 H 0.00195 0.37534 0.25022 0.0
H1455 H 0.0549 0.43756 0.33151 0.0
H1456 H 0.02509 0.42303 0.39755 0.0
H1457 H 0.93285 0.39007 0.31085 0.0
H1458 H 0.9202 0.35125 0.30546 0.0
H1459 H 0.94402 0.36794 0.26302 0.0
H1460 H 0.98311 0.32433 0.27262 0.0
H1461 H 0.95931 0.30734 0.31456 0.0
H1462 H 0.9984 0.31635 0.32726 0.0
H1463 H 0.99629 0.39935 0.45618 0.0
H1464 H 0.96353 0.3665 0.5032 0.0
H1465 H 0.93123 0.32005 0.38501 0.0
C1466 C 0.00677 0.38631 0.28177 0.0
C1467 C 0.03045 0.40797 0.28552 0.0
C1468 C 0.03641 0.42149 0.32751 0.0
C1469 C 0.01966 0.4133 0.36537 0.0
C1470 C -0.00354 0.392 0.36071 0.0
C1471 C 0.99373 0.37883 0.31995 0.0
C1472 C 0.96806 0.35594 0.32463 0.0
C1473 C 0.9396 0.36696 0.29948 0.0
C1474 C 0.97784 0.32411 0.30886 0.0
C1475 C 0.96292 0.3569 0.37466 0.0
C1476 C 0.98127 0.37846 0.39468 0.0
C1477 C 0.98131 0.38285 0.44081 0.0
C1478 C 0.96246 0.36437 0.46724 0.0
C1479 C 0.94429 0.34153 0.44744 0.0
C1480 C 0.94433 0.33801 0.40063 0.0
H1481 H 0.97607 0.6063 0.65539 0.0
H1482 H 0.95218 0.66455 0.76631 0.0
H1483 H 0.91889 0.69482 0.71713 0.0
H1484 H 0.98454 0.66254 0.57919 0.0
H1485 H 0.96873 0.64309 0.53161 0.0
H1486 H 0.98506 0.62154 0.57663 0.0
H1487 H 0.93449 0.59176 0.58588 0.0
H1488 H 0.9181 0.61322 0.54052 0.0
H1489 H 0.89947 0.61236 0.59403 0.0
H1490 H 0.89677 0.72394 0.65577 0.0
H1491 H 0.88571 0.75007 0.58507 0.0
H1492 H 0.92257 0.67361 0.51142 0.0
C1493 C 0.96251 0.62447 0.66947 0.0
C1494 C 0.96566 0.63262 0.71476 0.0
C1495 C 0.94915 0.65754 0.73194 0.0
C1496 C 0.93026 0.67485 0.70425 0.0
C1497 C 0.92815 0.66689 0.65942 0.0
C1498 C 0.94352 0.64213 0.64201 0.0
C1499 C 0.94026 0.64106 0.59157 0.0
C1500 C 0.9715 0.64214 0.56842 0.0
C1501 C 0.92199 0.61292 0.57715 0.0
C1502 C 0.92228 0.66998 0.58334 0.0
C1503 C 0.9151 0.68414 0.62313 0.0
C1504 C 0.9015 0.7127 0.62444 0.0
C1505 C 0.89546 0.72743 0.58409 0.0
C1506 C 0.90304 0.71365 0.54292 0.0
C1507 C 0.91589 0.68423 0.54248 0.0
H1508 H 0.47824 0.40136 0.22864 0.0
H1509 H 0.56936 0.39969 0.17251 0.0
H1510 H 0.54865 0.38484 0.10013 0.0
H1511 H 0.45297 0.33603 0.17637 0.0
H1512 H 0.41473 0.34883 0.16525 0.0
H1513 H 0.43571 0.36462 0.21124 0.0
H1514 H 0.42702 0.41877 0.17948 0.0
H1515 H 0.40626 0.40309 0.13292 0.0
H1516 H 0.43865 0.42736 0.12323 0.0
H1517 H 0.52101 0.36522 0.03786 0.0
H1518 H 0.48713 0.33726 0.98952 0.0
H1519 H 0.41257 0.3485 0.08141 0.0
C1520 C 0.49353 0.39875 0.20061 0.0
C1521 C 0.52527 0.40205 0.20593 0.0
C1522 C 0.5449 0.39747 0.1691 0.0
C1523 C 0.53337 0.38929 0.12765 0.0
C1524 C 0.50213 0.38588 0.12337 0.0
C1525 C 0.48234 0.39018 0.15862 0.0
C1526 C 0.45016 0.38127 0.14559 0.0
C1527 C 0.43768 0.35619 0.17644 0.0
C1528 C 0.42928 0.40929 0.14528 0.0
C1529 C 0.45553 0.36961 0.09858 0.0
C1530 C 0.48561 0.37353 0.08633 0.0
C1531 C 0.49725 0.36253 0.04647 0.0
C1532 C 0.47792 0.34611 0.01877 0.0
C1533 C 0.44739 0.34062 0.03122 0.0
C1534 C 0.43565 0.35324 0.07087 0.0
H1535 H 0.41368 0.75292 0.91625 0.0
H1536 H 0.41682 0.68533 0.02151 0.0
H1537 H 0.43025 0.64611 0.96742 0.0
H1538 H 0.38508 0.70458 0.82701 0.0
H1539 H 0.40947 0.72196 0.78592 0.0
H1540 H 0.39637 0.7438 0.83295 0.0
H1541 H 0.45162 0.75674 0.85288 0.0
H1542 H 0.46578 0.7347 0.807 0.0
H1543 H 0.4788 0.72676 0.8629 0.0
H1544 H 0.44483 0.61395 0.89933 0.0
H1545 H 0.46667 0.59467 0.82833 0.0
H1546 H 0.45754 0.68445 0.77014 0.0
C1547 C 0.4168 0.72973 0.92768 0.0
C1548 C 0.41393 0.72224 0.97303 0.0
C1549 C 0.41886 0.69206 0.98754 0.0
C1550 C 0.42625 0.66924 0.95652 0.0
C1551 C 0.42896 0.67737 0.91161 0.0
C1552 C 0.42483 0.70708 0.89754 0.0
C1553 C 0.43232 0.71099 0.8488 0.0
C1554 C 0.40412 0.72091 0.8221 0.0
C1555 C 0.45875 0.73359 0.84255 0.0
C1556 C 0.44164 0.67891 0.83739 0.0
C1557 C 0.43889 0.65956 0.87359 0.0
C1558 C 0.44695 0.62889 0.87078 0.0
C1559 C 0.45907 0.61807 0.83037 0.0
C1560 C 0.46351 0.63814 0.79406 0.0
C1561 C 0.4541 0.66866 0.79745 0.0
H1562 H 0.1534 0.60986 0.51668 0.0
H1563 H 0.19681 0.68836 0.57714 0.0
H1564 H 0.17485 0.67442 0.64992 0.0
H1565 H 0.08543 0.61462 0.57148 0.0
H1566 H 0.07983 0.57436 0.57941 0.0
H1567 H 0.10246 0.58777 0.53354 0.0
H1568 H 0.14787 0.55479 0.56048 0.0
H1569 H 0.12522 0.5411 0.60643 0.0
H1570 H 0.16153 0.55878 0.61689 0.0
H1571 H 0.14212 0.6563 0.71325 0.0
H1572 H 0.10346 0.63366 0.76292 0.0
H1573 H 0.08294 0.56595 0.66193 0.0
C1574 C 0.15898 0.62365 0.54546 0.0
C1575 C 0.17687 0.65018 0.54116 0.0
C1576 C 0.18337 0.6678 0.57959 0.0
C1577 C 0.17097 0.66007 0.62116 0.0
C1578 C 0.15265 0.63429 0.62397 0.0
C1579 C 0.14712 0.61602 0.58732 0.0
C1580 C 0.12515 0.59063 0.59864 0.0
C1581 C 0.09653 0.59196 0.56902 0.0
C1582 C 0.14089 0.55948 0.59541 0.0
C1583 C 0.11793 0.59845 0.64657 0.0
C1584 C 0.13431 0.62346 0.66084 0.0
C1585 C 0.12972 0.63625 0.70283 0.0
C1586 C 0.10768 0.62323 0.73079 0.0
C1587 C 0.09038 0.59781 0.71647 0.0
C1588 C 0.09607 0.58507 0.67411 0.0
H1589 H 0.12446 0.36903 0.36669 0.0
H1590 H 0.17402 0.34572 0.24649 0.0
H1591 H 0.20752 0.31191 0.29039 0.0
H1592 H 0.19344 0.36742 0.44099 0.0
H1593 H 0.17198 0.35268 0.48743 0.0
H1594 H 0.15387 0.37726 0.44717 0.0
H1595 H 0.11258 0.33628 0.43358 0.0
H1596 H 0.13065 0.3115 0.47335 0.0
H1597 H 0.12386 0.29846 0.41722 0.0
H1598 H 0.23234 0.27772 0.34503 0.0
H1599 H 0.24838 0.2454 0.40759 0.0
H1600 H 0.18338 0.29072 0.49404 0.0
C1601 C 0.14289 0.35735 0.34996 0.0
C1602 C 0.14707 0.36024 0.30342 0.0
C1603 C 0.17102 0.34436 0.2823 0.0
C1604 C 0.19 0.32499 0.30691 0.0
C1605 C 0.1851 0.32233 0.35268 0.0
C1606 C 0.16246 0.33838 0.37422 0.0
C1607 C 0.16169 0.33075 0.42361 0.0
C1608 C 0.17078 0.35868 0.45146 0.0
C1609 C 0.13034 0.3185 0.43773 0.0
C1610 C 0.18609 0.30636 0.42581 0.0
C1611 C 0.19967 0.30246 0.38463 0.0
C1612 C 0.22228 0.28088 0.37762 0.0
C1613 C 0.23129 0.26266 0.41353 0.0
C1614 C 0.21741 0.26568 0.45593 0.0
C1615 C 0.19464 0.28807 0.46217 0.0
loop_
_geom_bond_atom_site_label_1
_geom_bond_atom_site_label_2
_geom_bond_distance
_geom_bond_site_symmetry_2
_ccdc_geom_bond_type
Zn0 O6 1.969 1_455 S
Zn0 O7 1.965 . S
Zn0 O11 2.024 . S
Zn0 O16 1.969 . S
Zn1 O8 1.969 . S
Zn1 O14 1.969 . S
Zn1 O15 1.965 . S
Zn1 O17 2.024 1_455 S
C2 O3 1.229 . S
C2 O11 1.058 . S
O3 C2 1.229 . S
C4 O5 1.229 1_655 S
C4 O17 1.058 1_556 S
O5 C4 1.229 1_455 S
O6 Zn0 1.969 1_655 S
O6 C9 1.267 . S
O7 Zn0 1.965 . S
O7 C18 1.260 . S
O8 Zn1 1.969 . S
O8 C18 1.258 . S
C9 O6 1.267 . S
C9 O10 1.228 . S
O10 C9 1.228 . S
O11 Zn0 2.024 . S
O11 C2 1.058 . S
C12 O13 1.228 . S
C12 O14 1.267 1_556 S
O13 C12 1.228 . S
O14 Zn1 1.969 . S
O14 C12 1.267 1_554 S
O15 Zn1 1.965 . S
O15 C19 1.260 . S
O16 Zn0 1.969 . S
O16 C19 1.258 . S
O17 Zn1 2.024 1_655 S
O17 C4 1.058 1_554 S
C18 O7 1.260 . S
C18 O8 1.258 . S
C19 O15 1.260 . S
C19 O16 1.258 . S
Zn20 O26 1.969 . S
Zn20 O27 1.965 . S
Zn20 O31 2.024 . S
Zn20 O36 1.969 . S
Zn21 O28 1.969 . S
Zn21 O34 1.969 . S
Zn21 O35 1.965 . S
Zn21 O37 2.024 . S
C22 O23 1.229 . S
C22 O31 1.058 . S
O23 C22 1.229 . S
C24 O25 1.229 . S
C24 O37 1.058 . S
O25 C24 1.229 . S
O26 Zn20 1.969 . S
O26 C29 1.267 . S
O27 Zn20 1.965 . S
O27 C38 1.260 . S
O28 Zn21 1.969 . S
O28 C38 1.258 . S
C29 O26 1.267 . S
C29 O30 1.228 . S
O30 C29 1.228 . S
O31 Zn20 2.024 . S
O31 C22 1.058 . S
C32 O33 1.228 . S
C32 O34 1.267 . S
O33 C32 1.228 . S
O34 Zn21 1.969 . S
O34 C32 1.267 . S
O35 Zn21 1.965 . S
O35 C39 1.260 . S
O36 Zn20 1.969 . S
O36 C39 1.258 . S
O37 Zn21 2.024 . S
O37 C24 1.058 . S
C38 O27 1.260 . S
C38 O28 1.258 . S
C39 O35 1.260 . S
C39 O36 1.258 . S
Zn40 O46 1.969 . S
Zn40 O47 1.965 . S
Zn40 O51 2.024 . S
Zn40 O56 1.969 . S
Zn41 O48 1.969 . S
Zn41 O54 1.969 . S
Zn41 O55 1.965 . S
Zn41 O57 2.024 . S
C42 O43 1.229 . S
C42 O51 1.058 . S
O43 C42 1.229 . S
C44 O45 1.229 . S
C44 O57 1.058 . S
O45 C44 1.229 . S
O46 Zn40 1.969 . S
O46 C49 1.267 . S
O47 Zn40 1.965 . S
O47 C58 1.260 . S
O48 Zn41 1.969 . S
O48 C58 1.258 . S
C49 O46 1.267 . S
C49 O50 1.228 . S
O50 C49 1.228 . S
O51 Zn40 2.024 . S
O51 C42 1.058 . S
C52 O53 1.228 . S
C52 O54 1.267 . S
O53 C52 1.228 . S
O54 Zn41 1.969 . S
O54 C52 1.267 . S
O55 Zn41 1.965 . S
O55 C59 1.260 . S
O56 Zn40 1.969 . S
O56 C59 1.258 . S
O57 Zn41 2.024 . S
O57 C44 1.058 . S
C58 O47 1.260 . S
C58 O48 1.258 . S
C59 O55 1.260 . S
C59 O56 1.258 . S
Zn60 O66 1.969 . S
Zn60 O67 1.965 . S
Zn60 O71 2.024 . S
Zn60 O76 1.969 . S
Zn61 O68 1.969 . S
Zn61 O74 1.969 . S
Zn61 O75 1.965 . S
Zn61 O77 2.024 . S
C62 O63 1.229 1_556 S
C62 O71 1.058 . S
O63 C62 1.229 1_554 S
C64 O65 1.229 . S
C64 O77 1.058 . S
O65 C64 1.229 . S
O66 Zn60 1.969 . S
O66 C69 1.267 . S
O67 Zn60 1.965 . S
O67 C78 1.260 . S
O68 Zn61 1.969 . S
O68 C78 1.258 . S
C69 O66 1.267 . S
C69 O70 1.228 1_556 S
O70 C69 1.228 1_554 S
O71 Zn60 2.024 . S
O71 C62 1.058 . S
C72 O73 1.228 . S
C72 O74 1.267 . S
O73 C72 1.228 . S
O74 Zn61 1.969 . S
O74 C72 1.267 . S
O75 Zn61 1.965 . S
O75 C79 1.260 . S
O76 Zn60 1.969 . S
O76 C79 1.258 . S
O77 Zn61 2.024 . S
O77 C64 1.058 . S
C78 O67 1.260 . S
C78 O68 1.258 . S
C79 O75 1.260 . S
C79 O76 1.258 . S
Zn80 O86 1.969 . S
Zn80 O87 1.965 . S
Zn80 O91 2.024 . S
Zn80 O96 1.969 . S
Zn81 O88 1.969 . S
Zn81 O94 1.969 . S
Zn81 O95 1.965 . S
Zn81 O97 2.024 . S
C82 O83 1.229 . S
C82 O91 1.058 1_554 S
O83 C82 1.229 . S
C84 O85 1.229 . S
C84 O97 1.058 . S
O85 C84 1.229 . S
O86 Zn80 1.969 . S
O86 C89 1.267 1_556 S
O87 Zn80 1.965 . S
O87 C98 1.260 . S
O88 Zn81 1.969 . S
O88 C98 1.258 . S
C89 O86 1.267 1_554 S
C89 O90 1.228 . S
O90 C89 1.228 . S
O91 Zn80 2.024 . S
O91 C82 1.058 1_556 S
C92 O93 1.228 . S
C92 O94 1.267 . S
O93 C92 1.228 . S
O94 Zn81 1.969 . S
O94 C92 1.267 . S
O95 Zn81 1.965 . S
O95 C99 1.260 . S
O96 Zn80 1.969 . S
O96 C99 1.258 . S
O97 Zn81 2.024 . S
O97 C84 1.058 . S
C98 O87 1.260 . S
C98 O88 1.258 . S
C99 O95 1.260 . S
C99 O96 1.258 . S
Zn100 O106 1.969 . S
Zn100 O107 1.965 . S
Zn100 O111 2.024 . S
Zn100 O116 1.969 . S
Zn101 O108 1.969 . S
Zn101 O114 1.969 . S
Zn101 O115 1.965 . S
Zn101 O117 2.024 . S
C102 O103 1.229 . S
C102 O111 1.058 . S
O103 C102 1.229 . S
C104 O105 1.229 1_554 S
C104 O117 1.058 . S
O105 C104 1.229 1_556 S
O106 Zn100 1.969 . S
O106 C109 1.267 . S
O107 Zn100 1.965 . S
O107 C118 1.260 . S
O108 Zn101 1.969 . S
O108 C118 1.258 . S
C109 O106 1.267 . S
C109 O110 1.228 . S
O110 C109 1.228 . S
O111 Zn100 2.024 . S
O111 C102 1.058 . S
C112 O113 1.228 1_554 S
C112 O114 1.267 . S
O113 C112 1.228 1_556 S
O114 Zn101 1.969 . S
O114 C112 1.267 . S
O115 Zn101 1.965 . S
O115 C119 1.260 . S
O116 Zn100 1.969 . S
O116 C119 1.258 . S
O117 Zn101 2.024 . S
O117 C104 1.058 . S
C118 O107 1.260 . S
C118 O108 1.258 . S
C119 O115 1.260 . S
C119 O116 1.258 . S
Zn120 O126 1.969 . S
Zn120 O127 1.965 . S
Zn120 O131 2.024 . S
Zn120 O136 1.969 . S
Zn121 O128 1.969 . S
Zn121 O134 1.969 . S
Zn121 O135 1.965 . S
Zn121 O137 2.024 . S
C122 O123 1.229 . S
C122 O131 1.058 . S
O123 C122 1.229 . S
C124 O125 1.229 . S
C124 O137 1.058 . S
O125 C124 1.229 . S
O126 Zn120 1.969 . S
O126 C129 1.267 . S
O127 Zn120 1.965 . S
O127 C138 1.260 . S
O128 Zn121 1.969 . S
O128 C138 1.258 . S
C129 O126 1.267 . S
C129 O130 1.228 . S
O130 C129 1.228 . S
O131 Zn120 2.024 . S
O131 C122 1.058 . S
C132 O133 1.228 . S
C132 O134 1.267 . S
O133 C132 1.228 . S
O134 Zn121 1.969 . S
O134 C132 1.267 . S
O135 Zn121 1.965 . S
O135 C139 1.260 . S
O136 Zn120 1.969 . S
O136 C139 1.258 . S
O137 Zn121 2.024 . S
O137 C124 1.058 . S
C138 O127 1.260 . S
C138 O128 1.258 . S
C139 O135 1.260 . S
C139 O136 1.258 . S
Zn140 O146 1.969 . S
Zn140 O147 1.965 . S
Zn140 O151 2.024 . S
Zn140 O156 1.969 . S
Zn141 O148 1.969 . S
Zn141 O154 1.969 . S
Zn141 O155 1.965 . S
Zn141 O157 2.024 . S
C142 O143 1.229 . S
C142 O151 1.058 . S
O143 C142 1.229 . S
C144 O145 1.229 . S
C144 O157 1.058 . S
O145 C144 1.229 . S
O146 Zn140 1.969 . S
O146 C149 1.267 . S
O147 Zn140 1.965 . S
O147 C158 1.260 . S
O148 Zn141 1.969 . S
O148 C158 1.258 . S
C149 O146 1.267 . S
C149 O150 1.228 . S
O150 C149 1.228 . S
O151 Zn140 2.024 . S
O151 C142 1.058 . S
C152 O153 1.228 . S
C152 O154 1.267 . S
O153 C152 1.228 . S
O154 Zn141 1.969 . S
O154 C152 1.267 . S
O155 Zn141 1.965 . S
O155 C159 1.260 . S
O156 Zn140 1.969 . S
O156 C159 1.258 . S
O157 Zn141 2.024 . S
O157 C144 1.058 . S
C158 O147 1.260 . S
C158 O148 1.258 . S
C159 O155 1.260 . S
C159 O156 1.258 . S
Zn160 O166 1.969 . S
Zn160 O167 1.965 . S
Zn160 O171 2.024 . S
Zn160 O176 1.969 . S
Zn161 O168 1.969 . S
Zn161 O174 1.969 . S
Zn161 O175 1.965 . S
Zn161 O177 2.024 . S
C162 O163 1.229 . S
C162 O171 1.058 . S
O163 C162 1.229 . S
C164 O165 1.229 . S
C164 O177 1.058 . S
O165 C164 1.229 . S
O166 Zn160 1.969 . S
O166 C169 1.267 . S
O167 Zn160 1.965 . S
O167 C178 1.260 . S
O168 Zn161 1.969 . S
O168 C178 1.258 . S
C169 O166 1.267 . S
C169 O170 1.228 . S
O170 C169 1.228 . S
O171 Zn160 2.024 . S
O171 C162 1.058 . S
C172 O173 1.228 . S
C172 O174 1.267 . S
O173 C172 1.228 . S
O174 Zn161 1.969 . S
O174 C172 1.267 . S
O175 Zn161 1.965 . S
O175 C179 1.260 . S
O176 Zn160 1.969 . S
O176 C179 1.258 . S
O177 Zn161 2.024 . S
O177 C164 1.058 . S
C178 O167 1.260 . S
C178 O168 1.258 . S
C179 O175 1.260 . S
C179 O176 1.258 . S
Zn180 O186 1.969 . S
Zn180 O187 1.965 . S
Zn180 O191 2.024 . S
Zn180 O196 1.969 . S
Zn181 O188 1.969 . S
Zn181 O194 1.969 . S
Zn181 O195 1.965 . S
Zn181 O197 2.024 . S
C182 O183 1.229 . S
C182 O191 1.058 . S
O183 C182 1.229 . S
C184 O185 1.229 1_554 S
C184 O197 1.058 . S
O185 C184 1.229 1_556 S
O186 Zn180 1.969 . S
O186 C189 1.267 . S
O187 Zn180 1.965 . S
O187 C198 1.260 . S
O188 Zn181 1.969 . S
O188 C198 1.258 . S
C189 O186 1.267 . S
C189 O190 1.228 . S
O190 C189 1.228 . S
O191 Zn180 2.024 . S
O191 C182 1.058 . S
C192 O193 1.228 1_554 S
C192 O194 1.267 . S
O193 C192 1.228 1_556 S
O194 Zn181 1.969 . S
O194 C192 1.267 . S
O195 Zn181 1.965 . S
O195 C199 1.260 . S
O196 Zn180 1.969 . S
O196 C199 1.258 . S
O197 Zn181 2.024 . S
O197 C184 1.058 . S
C198 O187 1.260 . S
C198 O188 1.258 . S
C199 O195 1.260 . S
C199 O196 1.258 . S
Zn200 O206 1.969 . S
Zn200 O207 1.965 . S
Zn200 O211 2.024 . S
Zn200 O216 1.969 . S
Zn201 O208 1.969 . S
Zn201 O214 1.969 . S
Zn201 O215 1.965 . S
Zn201 O217 2.024 . S
C202 O203 1.229 1_556 S
C202 O211 1.058 . S
O203 C202 1.229 1_554 S
C204 O205 1.229 . S
C204 O217 1.058 . S
O205 C204 1.229 . S
O206 Zn200 1.969 . S
O206 C209 1.267 . S
O207 Zn200 1.965 . S
O207 C218 1.260 . S
O208 Zn201 1.969 . S
O208 C218 1.258 . S
C209 O206 1.267 . S
C209 O210 1.228 1_556 S
O210 C209 1.228 1_554 S
O211 Zn200 2.024 . S
O211 C202 1.058 . S
C212 O213 1.228 . S
C212 O214 1.267 . S
O213 C212 1.228 . S
O214 Zn201 1.969 . S
O214 C212 1.267 . S
O215 Zn201 1.965 . S
O215 C219 1.260 . S
O216 Zn200 1.969 . S
O216 C219 1.258 . S
O217 Zn201 2.024 . S
O217 C204 1.058 . S
C218 O207 1.260 . S
C218 O208 1.258 . S
C219 O215 1.260 . S
C219 O216 1.258 . S
Zn220 O226 1.969 . S
Zn220 O227 1.965 . S
Zn220 O231 2.024 . S
Zn220 O236 1.969 . S
Zn221 O228 1.969 . S
Zn221 O234 1.969 . S
Zn221 O235 1.965 . S
Zn221 O237 2.024 . S
C222 O223 1.229 . S
C222 O231 1.058 . S
O223 C222 1.229 . S
C224 O225 1.229 . S
C224 O237 1.058 . S
O225 C224 1.229 . S
O226 Zn220 1.969 . S
O226 C229 1.267 . S
O227 Zn220 1.965 . S
O227 C238 1.260 . S
O228 Zn221 1.969 . S
O228 C238 1.258 . S
C229 O226 1.267 . S
C229 O230 1.228 . S
O230 C229 1.228 . S
O231 Zn220 2.024 . S
O231 C222 1.058 . S
C232 O233 1.228 . S
C232 O234 1.267 . S
O233 C232 1.228 . S
O234 Zn221 1.969 . S
O234 C232 1.267 . S
O235 Zn221 1.965 . S
O235 C239 1.260 . S
O236 Zn220 1.969 . S
O236 C239 1.258 . S
O237 Zn221 2.024 . S
O237 C224 1.058 . S
C238 O227 1.260 . S
C238 O228 1.258 . S
C239 O235 1.260 . S
C239 O236 1.258 . S
Zn240 O246 1.969 . S
Zn240 O247 1.965 . S
Zn240 O251 2.024 . S
Zn240 O256 1.969 . S
Zn241 O248 1.969 . S
Zn241 O254 1.969 . S
Zn241 O255 1.965 . S
Zn241 O257 2.024 . S
C242 O243 1.229 . S
C242 O251 1.058 . S
O243 C242 1.229 . S
C244 O245 1.229 . S
C244 O257 1.058 . S
O245 C244 1.229 . S
O246 Zn240 1.969 . S
O246 C249 1.267 . S
O247 Zn240 1.965 . S
O247 C258 1.260 . S
O248 Zn241 1.969 . S
O248 C258 1.258 . S
C249 O246 1.267 . S
C249 O250 1.228 . S
O250 C249 1.228 . S
O251 Zn240 2.024 . S
O251 C242 1.058 . S
C252 O253 1.228 . S
C252 O254 1.267 . S
O253 C252 1.228 . S
O254 Zn241 1.969 . S
O254 C252 1.267 . S
O255 Zn241 1.965 . S
O255 C259 1.260 . S
O256 Zn240 1.969 . S
O256 C259 1.258 . S
O257 Zn241 2.024 . S
O257 C244 1.058 . S
C258 O247 1.260 . S
C258 O248 1.258 . S
C259 O255 1.260 . S
C259 O256 1.258 . S
Zn260 O266 1.969 . S
Zn260 O267 1.965 . S
Zn260 O271 2.024 . S
Zn260 O276 1.969 . S
Zn261 O268 1.969 . S
Zn261 O274 1.969 . S
Zn261 O275 1.965 . S
Zn261 O277 2.024 . S
C262 O263 1.229 . S
C262 O271 1.058 . S
O263 C262 1.229 . S
C264 O265 1.229 . S
C264 O277 1.058 1_556 S
O265 C264 1.229 . S
O266 Zn260 1.969 . S
O266 C269 1.267 . S
O267 Zn260 1.965 . S
O267 C278 1.260 . S
O268 Zn261 1.969 . S
O268 C278 1.258 . S
C269 O266 1.267 . S
C269 O270 1.228 . S
O270 C269 1.228 . S
O271 Zn260 2.024 . S
O271 C262 1.058 . S
C272 O273 1.228 . S
C272 O274 1.267 1_556 S
O273 C272 1.228 . S
O274 Zn261 1.969 . S
O274 C272 1.267 1_554 S
O275 Zn261 1.965 . S
O275 C279 1.260 . S
O276 Zn260 1.969 . S
O276 C279 1.258 . S
O277 Zn261 2.024 . S
O277 C264 1.058 1_554 S
C278 O267 1.260 . S
C278 O268 1.258 . S
C279 O275 1.260 . S
C279 O276 1.258 . S
Zn280 O286 1.969 . S
Zn280 O287 1.965 . S
Zn280 O291 2.024 . S
Zn280 O296 1.969 . S
Zn281 O288 1.969 . S
Zn281 O294 1.969 . S
Zn281 O295 1.965 . S
Zn281 O297 2.024 . S
C282 O283 1.229 . S
C282 O291 1.058 . S
O283 C282 1.229 . S
C284 O285 1.229 . S
C284 O297 1.058 . S
O285 C284 1.229 . S
O286 Zn280 1.969 . S
O286 C289 1.267 . S
O287 Zn280 1.965 . S
O287 C298 1.260 . S
O288 Zn281 1.969 . S
O288 C298 1.258 . S
C289 O286 1.267 . S
C289 O290 1.228 . S
O290 C289 1.228 . S
O291 Zn280 2.024 . S
O291 C282 1.058 . S
C292 O293 1.228 . S
C292 O294 1.267 . S
O293 C292 1.228 . S
O294 Zn281 1.969 . S
O294 C292 1.267 . S
O295 Zn281 1.965 . S
O295 C299 1.260 . S
O296 Zn280 1.969 . S
O296 C299 1.258 . S
O297 Zn281 2.024 . S
O297 C284 1.058 . S
C298 O287 1.260 . S
C298 O288 1.258 . S
C299 O295 1.260 . S
C299 O296 1.258 . S
Zn300 O306 1.969 . S
Zn300 O307 1.965 . S
Zn300 O311 2.024 1_455 S
Zn300 O316 1.969 . S
Zn301 O308 1.969 . S
Zn301 O314 1.969 1_455 S
Zn301 O315 1.965 . S
Zn301 O317 2.024 . S
C302 O303 1.229 1_655 S
C302 O311 1.058 1_554 S
O303 C302 1.229 1_455 S
C304 O305 1.229 . S
C304 O317 1.058 . S
O305 C304 1.229 . S
O306 Zn300 1.969 . S
O306 C309 1.267 1_556 S
O307 Zn300 1.965 . S
O307 C318 1.260 . S
O308 Zn301 1.969 . S
O308 C318 1.258 . S
C309 O306 1.267 1_554 S
C309 O310 1.228 . S
O310 C309 1.228 . S
O311 Zn300 2.024 1_655 S
O311 C302 1.058 1_556 S
C312 O313 1.228 . S
C312 O314 1.267 . S
O313 C312 1.228 . S
O314 Zn301 1.969 1_655 S
O314 C312 1.267 . S
O315 Zn301 1.965 . S
O315 C319 1.260 . S
O316 Zn300 1.969 . S
O316 C319 1.258 . S
O317 Zn301 2.024 . S
O317 C304 1.058 . S
C318 O307 1.260 . S
C318 O308 1.258 . S
C319 O315 1.260 . S
C319 O316 1.258 . S
H320 C332 0.930 . S
H321 C334 0.930 . S
H322 C335 0.930 . S
H323 C339 0.959 . S
H324 C339 0.959 . S
H325 C339 0.961 . S
H326 C340 0.960 . S
H327 C340 0.961 . S
H328 C340 0.959 . S
H329 C343 0.929 . S
H330 C344 0.931 . S
H331 C346 0.930 . S
C332 H320 0.930 . S
C332 C333 1.399 . S
C332 C337 1.399 . S
C333 C332 1.399 . S
C333 C334 1.376 . S
C334 H321 0.930 . S
C334 C333 1.376 . S
C334 C335 1.388 . S
C335 H322 0.930 . S
C335 C334 1.388 . S
C335 C336 1.390 . S
C336 C335 1.390 . S
C336 C337 1.394 . S
C336 C342 1.465 . S
C337 C332 1.399 . S
C337 C336 1.394 . S
C337 C338 1.516 . S
C338 C337 1.516 . S
C338 C339 1.502 . S
C338 C340 1.561 . S
C338 C341 1.526 . S
C339 H323 0.959 . S
C339 H324 0.959 . S
C339 H325 0.961 . S
C339 C338 1.502 . S
C340 H326 0.960 . S
C340 H327 0.961 . S
C340 H328 0.959 . S
C340 C338 1.561 . S
C341 C338 1.526 . S
C341 C342 1.396 . S
C341 C346 1.390 . S
C342 C336 1.465 . S
C342 C341 1.396 . S
C342 C343 1.399 . S
C343 H329 0.929 . S
C343 C342 1.399 . S
C343 C344 1.385 . S
C344 H330 0.931 . S
C344 C343 1.385 . S
C344 C345 1.389 . S
C345 C344 1.389 . S
C345 C346 1.387 . S
C346 H331 0.930 . S
C346 C341 1.390 . S
C346 C345 1.387 . S
H347 C359 0.930 . S
H348 C361 0.930 . S
H349 C362 0.930 . S
H350 C366 0.959 . S
H351 C366 0.959 . S
H352 C366 0.961 . S
H353 C367 0.960 . S
H354 C367 0.961 . S
H355 C367 0.959 . S
H356 C370 0.929 . S
H357 C371 0.931 1_556 S
H358 C373 0.930 . S
C359 H347 0.930 . S
C359 C360 1.399 . S
C359 C364 1.399 . S
C360 C359 1.399 . S
C360 C361 1.376 . S
C361 H348 0.930 . S
C361 C360 1.376 . S
C361 C362 1.388 . S
C362 H349 0.930 . S
C362 C361 1.388 . S
C362 C363 1.390 . S
C363 C362 1.390 . S
C363 C364 1.394 . S
C363 C369 1.465 . S
C364 C359 1.399 . S
C364 C363 1.394 . S
C364 C365 1.516 . S
C365 C364 1.516 . S
C365 C366 1.502 . S
C365 C367 1.561 . S
C365 C368 1.526 . S
C366 H350 0.959 . S
C366 H351 0.959 . S
C366 H352 0.961 . S
C366 C365 1.502 . S
C367 H353 0.960 . S
C367 H354 0.961 . S
C367 H355 0.959 . S
C367 C365 1.561 . S
C368 C365 1.526 . S
C368 C369 1.396 . S
C368 C373 1.390 . S
C369 C363 1.465 . S
C369 C368 1.396 . S
C369 C370 1.399 . S
C370 H356 0.929 . S
C370 C369 1.399 . S
C370 C371 1.385 . S
C371 H357 0.931 1_554 S
C371 C370 1.385 . S
C371 C372 1.389 . S
C372 C371 1.389 . S
C372 C373 1.387 . S
C373 H358 0.930 . S
C373 C368 1.390 . S
C373 C372 1.387 . S
H374 C386 0.930 . S
H375 C388 0.930 . S
H376 C389 0.930 . S
H377 C393 0.959 . S
H378 C393 0.959 . S
H379 C393 0.961 . S
H380 C394 0.960 . S
H381 C394 0.961 . S
H382 C394 0.959 . S
H383 C397 0.929 . S
H384 C398 0.931 . S
H385 C400 0.930 . S
C386 H374 0.930 . S
C386 C387 1.399 . S
C386 C391 1.399 . S
C387 C386 1.399 . S
C387 C388 1.376 . S
C388 H375 0.930 . S
C388 C387 1.376 . S
C388 C389 1.388 . S
C389 H376 0.930 . S
C389 C388 1.388 . S
C389 C390 1.390 . S
C390 C389 1.390 . S
C390 C391 1.394 . S
C390 C396 1.465 . S
C391 C386 1.399 . S
C391 C390 1.394 . S
C391 C392 1.516 . S
C392 C391 1.516 . S
C392 C393 1.502 . S
C392 C394 1.561 . S
C392 C395 1.526 . S
C393 H377 0.959 . S
C393 H378 0.959 . S
C393 H379 0.961 . S
C393 C392 1.502 . S
C394 H380 0.960 . S
C394 H381 0.961 . S
C394 H382 0.959 . S
C394 C392 1.561 . S
C395 C392 1.526 . S
C395 C396 1.396 . S
C395 C400 1.390 . S
C396 C390 1.465 . S
C396 C395 1.396 . S
C396 C397 1.399 . S
C397 H383 0.929 . S
C397 C396 1.399 . S
C397 C398 1.385 . S
C398 H384 0.931 . S
C398 C397 1.385 . S
C398 C399 1.389 . S
C399 C398 1.389 . S
C399 C400 1.387 . S
C400 H385 0.930 . S
C400 C395 1.390 . S
C400 C399 1.387 . S
H401 C413 0.930 . S
H402 C415 0.930 . S
H403 C416 0.930 . S
H404 C420 0.959 . S
H405 C420 0.959 . S
H406 C420 0.961 . S
H407 C421 0.960 . S
H408 C421 0.961 . S
H409 C421 0.959 . S
H410 C424 0.929 . S
H411 C425 0.931 . S
H412 C427 0.930 . S
C413 H401 0.930 . S
C413 C414 1.399 . S
C413 C418 1.399 . S
C414 C413 1.399 . S
C414 C415 1.376 . S
C415 H402 0.930 . S
C415 C414 1.376 . S
C415 C416 1.388 . S
C416 H403 0.930 . S
C416 C415 1.388 . S
C416 C417 1.390 . S
C417 C416 1.390 . S
C417 C418 1.394 . S
C417 C423 1.465 . S
C418 C413 1.399 . S
C418 C417 1.394 . S
C418 C419 1.516 . S
C419 C418 1.516 . S
C419 C420 1.502 . S
C419 C421 1.561 . S
C419 C422 1.526 . S
C420 H404 0.959 . S
C420 H405 0.959 . S
C420 H406 0.961 . S
C420 C419 1.502 . S
C421 H407 0.960 . S
C421 H408 0.961 . S
C421 H409 0.959 . S
C421 C419 1.561 . S
C422 C419 1.526 . S
C422 C423 1.396 . S
C422 C427 1.390 . S
C423 C417 1.465 . S
C423 C422 1.396 . S
C423 C424 1.399 . S
C424 H410 0.929 . S
C424 C423 1.399 . S
C424 C425 1.385 . S
C425 H411 0.931 . S
C425 C424 1.385 . S
C425 C426 1.389 . S
C426 C425 1.389 . S
C426 C427 1.387 . S
C427 H412 0.930 . S
C427 C422 1.390 . S
C427 C426 1.387 . S
H428 C440 0.930 . S
H429 C442 0.930 . S
H430 C443 0.930 . S
H431 C447 0.959 . S
H432 C447 0.959 . S
H433 C447 0.961 . S
H434 C448 0.960 . S
H435 C448 0.961 . S
H436 C448 0.959 . S
H437 C451 0.929 . S
H438 C452 0.931 . S
H439 C454 0.930 . S
C440 H428 0.930 . S
C440 C441 1.399 . S
C440 C445 1.399 . S
C441 C440 1.399 . S
C441 C442 1.376 . S
C442 H429 0.930 . S
C442 C441 1.376 . S
C442 C443 1.388 . S
C443 H430 0.930 . S
C443 C442 1.388 . S
C443 C444 1.390 . S
C444 C443 1.390 . S
C444 C445 1.394 . S
C444 C450 1.465 . S
C445 C440 1.399 . S
C445 C444 1.394 . S
C445 C446 1.516 1_655 S
C446 C445 1.516 1_455 S
C446 C447 1.502 . S
C446 C448 1.561 1_455 S
C446 C449 1.526 . S
C447 H431 0.959 . S
C447 H432 0.959 . S
C447 H433 0.961 . S
C447 C446 1.502 . S
C448 H434 0.960 . S
C448 H435 0.961 . S
C448 H436 0.959 . S
C448 C446 1.561 1_655 S
C449 C446 1.526 . S
C449 C450 1.396 1_455 S
C449 C454 1.390 . S
C450 C444 1.465 . S
C450 C449 1.396 1_655 S
C450 C451 1.399 . S
C451 H437 0.929 . S
C451 C450 1.399 . S
C451 C452 1.385 1_655 S
C452 H438 0.931 . S
C452 C451 1.385 1_455 S
C452 C453 1.389 . S
C453 C452 1.389 . S
C453 C454 1.387 . S
C454 H439 0.930 . S
C454 C449 1.390 . S
C454 C453 1.387 . S
H455 C467 0.930 . S
H456 C469 0.930 . S
H457 C470 0.930 . S
H458 C474 0.959 1_455 S
H459 C474 0.946 1_455 S
H460 C474 0.961 . S
H461 C475 0.960 . S
H462 C475 0.961 . S
H463 C475 0.959 . S
H464 C478 0.929 . S
H465 C479 0.931 . S
H466 C481 0.930 . S
C467 H455 0.930 . S
C467 C468 1.399 . S
C467 C472 1.399 . S
C468 C467 1.399 . S
C468 C469 1.376 . S
C469 H456 0.930 . S
C469 C468 1.376 . S
C469 C470 1.388 . S
C470 H457 0.930 . S
C470 C469 1.388 . S
C470 C471 1.390 . S
C471 C470 1.390 . S
C471 C472 1.394 . S
C471 C477 1.465 . S
C472 C467 1.399 . S
C472 C471 1.394 . S
C472 C473 1.516 . S
C473 C472 1.516 . S
C473 C474 1.502 . S
C473 C475 1.561 . S
C473 C476 1.526 . S
C474 H458 0.959 1_655 S
C474 H459 0.946 1_655 S
C474 H460 0.961 . S
C474 C473 1.502 . S
C475 H461 0.960 . S
C475 H462 0.961 . S
C475 H463 0.959 . S
C475 C473 1.561 . S
C476 C473 1.526 . S
C476 C477 1.396 . S
C476 C481 1.390 . S
C477 C471 1.465 . S
C477 C476 1.396 . S
C477 C478 1.399 . S
C478 H464 0.929 . S
C478 C477 1.399 . S
C478 C479 1.385 . S
C479 H465 0.931 . S
C479 C478 1.385 . S
C479 C480 1.389 . S
C480 C479 1.389 . S
C480 C481 1.387 . S
C481 H466 0.930 . S
C481 C476 1.390 . S
C481 C480 1.387 . S
H482 C494 0.930 . S
H483 C496 0.930 . S
H484 C497 0.930 . S
H485 C501 0.959 . S
H486 C501 0.959 . S
H487 C501 0.961 . S
H488 C502 0.960 . S
H489 C502 0.961 . S
H490 C502 0.959 . S
H491 C505 0.929 . S
H492 C506 0.931 . S
H493 C508 0.930 . S
C494 H482 0.930 . S
C494 C495 1.399 . S
C494 C499 1.399 . S
C495 C494 1.399 . S
C495 C496 1.376 . S
C496 H483 0.930 . S
C496 C495 1.376 . S
C496 C497 1.388 . S
C497 H484 0.930 . S
C497 C496 1.388 . S
C497 C498 1.390 . S
C498 C497 1.390 . S
C498 C499 1.394 . S
C498 C504 1.465 . S
C499 C494 1.399 . S
C499 C498 1.394 . S
C499 C500 1.516 . S
C500 C499 1.516 . S
C500 C501 1.502 . S
C500 C502 1.561 . S
C500 C503 1.526 . S
C501 H485 0.959 . S
C501 H486 0.959 . S
C501 H487 0.961 . S
C501 C500 1.502 . S
C502 H488 0.960 . S
C502 H489 0.961 . S
C502 H490 0.959 . S
C502 C500 1.561 . S
C503 C500 1.526 . S
C503 C504 1.396 . S
C503 C508 1.390 . S
C504 C498 1.465 . S
C504 C503 1.396 . S
C504 C505 1.399 . S
C505 H491 0.929 . S
C505 C504 1.399 . S
C505 C506 1.385 . S
C506 H492 0.931 . S
C506 C505 1.385 . S
C506 C507 1.389 . S
C507 C506 1.389 . S
C507 C508 1.387 . S
C508 H493 0.930 . S
C508 C503 1.390 . S
C508 C507 1.387 . S
H509 C521 0.930 . S
H510 C523 0.930 . S
H511 C524 0.930 . S
H512 C528 0.959 . S
H513 C528 0.959 . S
H514 C528 0.961 . S
H515 C529 0.960 . S
H516 C529 0.961 . S
H517 C529 0.959 . S
H518 C532 0.929 . S
H519 C533 0.931 . S
H520 C535 0.930 . S
C521 H509 0.930 . S
C521 C522 1.399 . S
C521 C526 1.399 . S
C522 C521 1.399 . S
C522 C523 1.376 . S
C523 H510 0.930 . S
C523 C522 1.376 . S
C523 C524 1.388 . S
C524 H511 0.930 . S
C524 C523 1.388 . S
C524 C525 1.390 . S
C525 C524 1.390 . S
C525 C526 1.394 . S
C525 C531 1.465 . S
C526 C521 1.399 . S
C526 C525 1.394 . S
C526 C527 1.516 . S
C527 C526 1.516 . S
C527 C528 1.502 . S
C527 C529 1.561 . S
C527 C530 1.526 . S
C528 H512 0.959 . S
C528 H513 0.959 . S
C528 H514 0.961 . S
C528 C527 1.502 . S
C529 H515 0.960 . S
C529 H516 0.961 . S
C529 H517 0.959 . S
C529 C527 1.561 . S
C530 C527 1.526 . S
C530 C531 1.396 . S
C530 C535 1.390 . S
C531 C525 1.465 . S
C531 C530 1.396 . S
C531 C532 1.399 . S
C532 H518 0.929 . S
C532 C531 1.399 . S
C532 C533 1.385 . S
C533 H519 0.931 . S
C533 C532 1.385 . S
C533 C534 1.389 . S
C534 C533 1.389 . S
C534 C535 1.387 . S
C535 H520 0.930 . S
C535 C530 1.390 . S
C535 C534 1.387 . S
H536 C548 0.930 . S
H537 C550 0.930 . S
H538 C551 0.930 . S
H539 C555 0.959 . S
H540 C555 0.959 . S
H541 C555 0.961 . S
H542 C556 0.960 . S
H543 C556 0.961 . S
H544 C556 0.959 . S
H545 C559 0.929 . S
H546 C560 0.931 . S
H547 C562 0.930 . S
C548 H536 0.930 . S
C548 C549 1.399 . S
C548 C553 1.399 . S
C549 C548 1.399 . S
C549 C550 1.376 . S
C550 H537 0.930 . S
C550 C549 1.376 . S
C550 C551 1.388 . S
C551 H538 0.930 . S
C551 C550 1.388 . S
C551 C552 1.390 . S
C552 C551 1.390 . S
C552 C553 1.394 . S
C552 C558 1.465 . S
C553 C548 1.399 . S
C553 C552 1.394 . S
C553 C554 1.516 . S
C554 C553 1.516 . S
C554 C555 1.502 . S
C554 C556 1.561 . S
C554 C557 1.526 . S
C555 H539 0.959 . S
C555 H540 0.959 . S
C555 H541 0.961 . S
C555 C554 1.502 . S
C556 H542 0.960 . S
C556 H543 0.961 . S
C556 H544 0.959 . S
C556 C554 1.561 . S
C557 C554 1.526 . S
C557 C558 1.396 . S
C557 C562 1.390 . S
C558 C552 1.465 . S
C558 C557 1.396 . S
C558 C559 1.399 . S
C559 H545 0.929 . S
C559 C558 1.399 . S
C559 C560 1.385 . S
C560 H546 0.931 . S
C560 C559 1.385 . S
C560 C561 1.389 . S
C561 C560 1.389 . S
C561 C562 1.387 . S
C562 H547 0.930 . S
C562 C557 1.390 . S
C562 C561 1.387 . S
H563 C575 0.930 . S
H564 C577 0.930 . S
H565 C578 0.930 . S
H566 C582 0.959 . S
H567 C582 0.959 . S
H568 C582 0.961 . S
H569 C583 0.960 . S
H570 C583 0.961 . S
H571 C583 0.959 . S
H572 C586 0.929 . S
H573 C587 0.931 . S
H574 C589 0.930 . S
C575 H563 0.930 . S
C575 C576 1.399 . S
C575 C580 1.399 . S
C576 C575 1.399 . S
C576 C577 1.376 . S
C577 H564 0.930 . S
C577 C576 1.376 . S
C577 C578 1.388 . S
C578 H565 0.930 . S
C578 C577 1.388 . S
C578 C579 1.390 . S
C579 C578 1.390 . S
C579 C580 1.394 . S
C579 C585 1.465 . S
C580 C575 1.399 . S
C580 C579 1.394 . S
C580 C581 1.516 . S
C581 C580 1.516 . S
C581 C582 1.502 . S
C581 C583 1.561 . S
C581 C584 1.526 . S
C582 H566 0.959 . S
C582 H567 0.959 . S
C582 H568 0.961 . S
C582 C581 1.502 . S
C583 H569 0.960 . S
C583 H570 0.961 . S
C583 H571 0.959 . S
C583 C581 1.561 . S
C584 C581 1.526 . S
C584 C585 1.396 . S
C584 C589 1.390 . S
C585 C579 1.465 . S
C585 C584 1.396 . S
C585 C586 1.399 . S
C586 H572 0.929 . S
C586 C585 1.399 . S
C586 C587 1.385 . S
C587 H573 0.931 . S
C587 C586 1.385 . S
C587 C588 1.389 . S
C588 C587 1.389 . S
C588 C589 1.387 . S
C589 H574 0.930 . S
C589 C584 1.390 . S
C589 C588 1.387 . S
H590 C602 0.930 . S
H591 C604 0.930 . S
H592 C605 0.930 . S
H593 C609 0.959 . S
H594 C609 0.959 1_655 S
H595 C609 0.961 . S
H596 C610 0.960 . S
H597 C610 0.961 . S
H598 C610 0.959 . S
H599 C613 0.929 . S
H600 C614 0.931 . S
H601 C616 0.930 . S
C602 H590 0.930 . S
C602 C603 1.399 . S
C602 C607 1.399 1_455 S
C603 C602 1.399 . S
C603 C604 1.376 . S
C604 H591 0.930 . S
C604 C603 1.376 . S
C604 C605 1.388 . S
C605 H592 0.930 . S
C605 C604 1.388 . S
C605 C606 1.390 1_455 S
C606 C605 1.390 1_655 S
C606 C607 1.394 . S
C606 C612 1.465 . S
C607 C602 1.399 1_655 S
C607 C606 1.394 . S
C607 C608 1.516 . S
C608 C607 1.516 . S
C608 C609 1.502 1_655 S
C608 C610 1.561 . S
C608 C611 1.526 . S
C609 H593 0.959 . S
C609 H594 0.959 1_455 S
C609 H595 0.961 . S
C609 C608 1.502 1_455 S
C610 H596 0.960 . S
C610 H597 0.961 . S
C610 H598 0.959 . S
C610 C608 1.561 . S
C611 C608 1.526 . S
C611 C612 1.396 . S
C611 C616 1.390 . S
C612 C606 1.465 . S
C612 C611 1.396 . S
C612 C613 1.399 . S
C613 H599 0.929 . S
C613 C612 1.399 . S
C613 C614 1.385 . S
C614 H600 0.931 . S
C614 C613 1.385 . S
C614 C615 1.389 . S
C615 C614 1.389 . S
C615 C616 1.387 . S
C616 H601 0.930 . S
C616 C611 1.390 . S
C616 C615 1.387 . S
H617 C629 0.930 . S
H618 C631 0.930 . S
H619 C632 0.930 . S
H620 C636 0.959 . S
H621 C636 0.959 . S
H622 C636 0.961 . S
H623 C637 0.960 . S
H624 C637 0.961 . S
H625 C637 0.959 . S
H626 C640 0.929 . S
H627 C641 0.931 . S
H628 C643 0.930 . S
C629 H617 0.930 . S
C629 C630 1.399 . S
C629 C634 1.399 . S
C630 C629 1.399 . S
C630 C631 1.376 . S
C631 H618 0.930 . S
C631 C630 1.376 . S
C631 C632 1.388 . S
C632 H619 0.930 . S
C632 C631 1.388 . S
C632 C633 1.390 . S
C633 C632 1.390 . S
C633 C634 1.394 . S
C633 C639 1.465 . S
C634 C629 1.399 . S
C634 C633 1.394 . S
C634 C635 1.516 . S
C635 C634 1.516 . S
C635 C636 1.502 . S
C635 C637 1.561 1_655 S
C635 C638 1.526 . S
C636 H620 0.959 . S
C636 H621 0.959 . S
C636 H622 0.961 . S
C636 C635 1.502 . S
C637 H623 0.960 . S
C637 H624 0.961 . S
C637 H625 0.959 . S
C637 C635 1.561 1_455 S
C638 C635 1.526 . S
C638 C639 1.396 . S
C638 C643 1.390 . S
C639 C633 1.465 . S
C639 C638 1.396 . S
C639 C640 1.399 . S
C640 H626 0.929 . S
C640 C639 1.399 . S
C640 C641 1.385 . S
C641 H627 0.931 . S
C641 C640 1.385 . S
C641 C642 1.389 . S
C642 C641 1.389 . S
C642 C643 1.387 . S
C643 H628 0.930 . S
C643 C638 1.390 . S
C643 C642 1.387 . S
H644 C656 0.930 . S
H645 C658 0.930 . S
H646 C659 0.930 . S
H647 C663 0.959 . S
H648 C663 0.959 . S
H649 C663 0.961 . S
H650 C664 0.960 . S
H651 C664 0.961 . S
H652 C664 0.959 . S
H653 C667 0.929 . S
H654 C668 0.931 . S
H655 C670 0.930 . S
C656 H644 0.930 . S
C656 C657 1.399 . S
C656 C661 1.399 . S
C657 C656 1.399 . S
C657 C658 1.376 . S
C658 H645 0.930 . S
C658 C657 1.376 . S
C658 C659 1.388 . S
C659 H646 0.930 . S
C659 C658 1.388 . S
C659 C660 1.390 . S
C660 C659 1.390 . S
C660 C661 1.394 . S
C660 C666 1.465 . S
C661 C656 1.399 . S
C661 C660 1.394 . S
C661 C662 1.516 . S
C662 C661 1.516 . S
C662 C663 1.502 . S
C662 C664 1.561 . S
C662 C665 1.526 . S
C663 H647 0.959 . S
C663 H648 0.959 . S
C663 H649 0.961 . S
C663 C662 1.502 . S
C664 H650 0.960 . S
C664 H651 0.961 . S
C664 H652 0.959 . S
C664 C662 1.561 . S
C665 C662 1.526 . S
C665 C666 1.396 . S
C665 C670 1.390 . S
C666 C660 1.465 . S
C666 C665 1.396 . S
C666 C667 1.399 . S
C667 H653 0.929 . S
C667 C666 1.399 . S
C667 C668 1.385 . S
C668 H654 0.931 . S
C668 C667 1.385 . S
C668 C669 1.389 . S
C669 C668 1.389 . S
C669 C670 1.387 . S
C670 H655 0.930 . S
C670 C665 1.390 . S
C670 C669 1.387 . S
H671 C683 0.930 . S
H672 C685 0.930 . S
H673 C686 0.930 . S
H674 C690 0.959 . S
H675 C690 0.959 . S
H676 C690 0.961 . S
H677 C691 0.960 . S
H678 C691 0.961 . S
H679 C691 0.959 . S
H680 C694 0.929 . S
H681 C695 0.931 . S
H682 C697 0.930 . S
C683 H671 0.930 . S
C683 C684 1.399 . S
C683 C688 1.399 . S
C684 C683 1.399 . S
C684 C685 1.376 . S
C685 H672 0.930 . S
C685 C684 1.376 . S
C685 C686 1.388 . S
C686 H673 0.930 . S
C686 C685 1.388 . S
C686 C687 1.390 . S
C687 C686 1.390 . S
C687 C688 1.394 . S
C687 C693 1.465 . S
C688 C683 1.399 . S
C688 C687 1.394 . S
C688 C689 1.516 . S
C689 C688 1.516 . S
C689 C690 1.502 . S
C689 C691 1.561 . S
C689 C692 1.526 . S
C690 H674 0.959 . S
C690 H675 0.959 . S
C690 H676 0.961 . S
C690 C689 1.502 . S
C691 H677 0.960 . S
C691 H678 0.961 . S
C691 H679 0.959 . S
C691 C689 1.561 . S
C692 C689 1.526 . S
C692 C693 1.396 . S
C692 C697 1.390 . S
C693 C687 1.465 . S
C693 C692 1.396 . S
C693 C694 1.399 . S
C694 H680 0.929 . S
C694 C693 1.399 . S
C694 C695 1.385 . S
C695 H681 0.931 . S
C695 C694 1.385 . S
C695 C696 1.389 . S
C696 C695 1.389 . S
C696 C697 1.387 . S
C697 H682 0.930 . S
C697 C692 1.390 . S
C697 C696 1.387 . S
H698 C710 0.930 . S
H699 C712 0.930 . S
H700 C713 0.930 . S
H701 C717 0.959 . S
H702 C717 0.959 . S
H703 C717 0.961 . S
H704 C718 0.960 . S
H705 C718 0.961 . S
H706 C718 0.959 . S
H707 C721 0.929 . S
H708 C722 0.931 . S
H709 C724 0.930 . S
C710 H698 0.930 . S
C710 C711 1.399 . S
C710 C715 1.399 . S
C711 C710 1.399 . S
C711 C712 1.376 . S
C712 H699 0.930 . S
C712 C711 1.376 . S
C712 C713 1.388 . S
C713 H700 0.930 . S
C713 C712 1.388 . S
C713 C714 1.390 . S
C714 C713 1.390 . S
C714 C715 1.394 . S
C714 C720 1.465 . S
C715 C710 1.399 . S
C715 C714 1.394 . S
C715 C716 1.516 . S
C716 C715 1.516 . S
C716 C717 1.502 . S
C716 C718 1.561 . S
C716 C719 1.526 . S
C717 H701 0.959 . S
C717 H702 0.959 . S
C717 H703 0.961 . S
C717 C716 1.502 . S
C718 H704 0.960 . S
C718 H705 0.961 . S
C718 H706 0.959 . S
C718 C716 1.561 . S
C719 C716 1.526 . S
C719 C720 1.396 . S
C719 C724 1.390 . S
C720 C714 1.465 . S
C720 C719 1.396 . S
C720 C721 1.399 . S
C721 H707 0.929 . S
C721 C720 1.399 . S
C721 C722 1.385 . S
C722 H708 0.931 . S
C722 C721 1.385 . S
C722 C723 1.389 . S
C723 C722 1.389 . S
C723 C724 1.387 . S
C724 H709 0.930 . S
C724 C719 1.390 . S
C724 C723 1.387 . S
H725 C737 0.930 . S
H726 C739 0.930 . S
H727 C740 0.930 . S
H728 C744 0.959 . S
H729 C744 0.959 . S
H730 C744 0.961 . S
H731 C745 0.960 . S
H732 C745 0.961 . S
H733 C745 0.959 . S
H734 C748 0.929 . S
H735 C749 0.931 . S
H736 C751 0.930 . S
C737 H725 0.930 . S
C737 C738 1.399 . S
C737 C742 1.399 . S
C738 C737 1.399 . S
C738 C739 1.376 . S
C739 H726 0.930 . S
C739 C738 1.376 . S
C739 C740 1.388 . S
C740 H727 0.930 . S
C740 C739 1.388 . S
C740 C741 1.390 . S
C741 C740 1.390 . S
C741 C742 1.394 . S
C741 C747 1.465 . S
C742 C737 1.399 . S
C742 C741 1.394 . S
C742 C743 1.516 . S
C743 C742 1.516 . S
C743 C744 1.502 . S
C743 C745 1.561 . S
C743 C746 1.526 . S
C744 H728 0.959 . S
C744 H729 0.959 . S
C744 H730 0.961 . S
C744 C743 1.502 . S
C745 H731 0.960 . S
C745 H732 0.961 . S
C745 H733 0.959 . S
C745 C743 1.561 . S
C746 C743 1.526 . S
C746 C747 1.396 . S
C746 C751 1.390 . S
C747 C741 1.465 . S
C747 C746 1.396 . S
C747 C748 1.399 . S
C748 H734 0.929 . S
C748 C747 1.399 . S
C748 C749 1.385 . S
C749 H735 0.931 . S
C749 C748 1.385 . S
C749 C750 1.389 . S
C750 C749 1.389 . S
C750 C751 1.387 . S
C751 H736 0.930 . S
C751 C746 1.390 . S
C751 C750 1.387 . S
H752 C764 0.930 . S
H753 C766 0.930 . S
H754 C767 0.930 . S
H755 C771 0.959 . S
H756 C771 0.959 . S
H757 C771 0.961 . S
H758 C772 0.960 . S
H759 C772 0.961 . S
H760 C772 0.959 . S
H761 C775 0.929 . S
H762 C776 0.931 . S
H763 C778 0.930 . S
C764 H752 0.930 . S
C764 C765 1.399 . S
C764 C769 1.399 . S
C765 C764 1.399 . S
C765 C766 1.376 . S
C766 H753 0.930 . S
C766 C765 1.376 . S
C766 C767 1.388 . S
C767 H754 0.930 . S
C767 C766 1.388 . S
C767 C768 1.390 . S
C768 C767 1.390 . S
C768 C769 1.394 . S
C768 C774 1.465 . S
C769 C764 1.399 . S
C769 C768 1.394 . S
C769 C770 1.516 . S
C770 C769 1.516 . S
C770 C771 1.502 . S
C770 C772 1.561 . S
C770 C773 1.526 . S
C771 H755 0.959 . S
C771 H756 0.959 . S
C771 H757 0.961 . S
C771 C770 1.502 . S
C772 H758 0.960 . S
C772 H759 0.961 . S
C772 H760 0.959 . S
C772 C770 1.561 . S
C773 C770 1.526 . S
C773 C774 1.396 . S
C773 C778 1.390 . S
C774 C768 1.465 . S
C774 C773 1.396 . S
C774 C775 1.399 . S
C775 H761 0.929 . S
C775 C774 1.399 . S
C775 C776 1.385 . S
C776 H762 0.931 . S
C776 C775 1.385 . S
C776 C777 1.389 . S
C777 C776 1.389 . S
C777 C778 1.387 . S
C778 H763 0.930 . S
C778 C773 1.390 . S
C778 C777 1.387 . S
H779 C791 0.930 1_655 S
H780 C793 0.930 1_655 S
H781 C794 0.930 . S
H782 C798 0.959 . S
H783 C798 0.959 . S
H784 C798 0.961 . S
H785 C799 0.960 . S
H786 C799 0.961 . S
H787 C799 0.959 . S
H788 C802 0.929 . S
H789 C803 0.931 . S
H790 C805 0.930 . S
C791 H779 0.930 1_455 S
C791 C792 1.399 1_455 S
C791 C796 1.399 . S
C792 C791 1.399 1_655 S
C792 C793 1.376 1_655 S
C793 H780 0.930 1_455 S
C793 C792 1.376 1_455 S
C793 C794 1.388 . S
C794 H781 0.930 . S
C794 C793 1.388 . S
C794 C795 1.390 . S
C795 C794 1.390 . S
C795 C796 1.394 . S
C795 C801 1.465 . S
C796 C791 1.399 . S
C796 C795 1.394 . S
C796 C797 1.516 . S
C797 C796 1.516 . S
C797 C798 1.502 . S
C797 C799 1.561 . S
C797 C800 1.526 . S
C798 H782 0.959 . S
C798 H783 0.959 . S
C798 H784 0.961 . S
C798 C797 1.502 . S
C799 H785 0.960 . S
C799 H786 0.961 . S
C799 H787 0.959 . S
C799 C797 1.561 . S
C800 C797 1.526 . S
C800 C801 1.396 . S
C800 C805 1.390 . S
C801 C795 1.465 . S
C801 C800 1.396 . S
C801 C802 1.399 . S
C802 H788 0.929 . S
C802 C801 1.399 . S
C802 C803 1.385 . S
C803 H789 0.931 . S
C803 C802 1.385 . S
C803 C804 1.389 . S
C804 C803 1.389 . S
C804 C805 1.387 . S
C805 H790 0.930 . S
C805 C800 1.390 . S
C805 C804 1.387 . S
H806 C818 0.930 . S
H807 C820 0.930 . S
H808 C821 0.930 . S
H809 C825 0.959 . S
H810 C825 0.959 . S
H811 C825 0.961 . S
H812 C826 0.960 . S
H813 C826 0.961 . S
H814 C826 0.959 . S
H815 C829 0.929 . S
H816 C830 0.931 . S
H817 C832 0.930 . S
C818 H806 0.930 . S
C818 C819 1.399 . S
C818 C823 1.399 . S
C819 C818 1.399 . S
C819 C820 1.376 . S
C820 H807 0.930 . S
C820 C819 1.376 . S
C820 C821 1.388 . S
C821 H808 0.930 . S
C821 C820 1.388 . S
C821 C822 1.390 . S
C822 C821 1.390 . S
C822 C823 1.394 . S
C822 C828 1.465 . S
C823 C818 1.399 . S
C823 C822 1.394 . S
C823 C824 1.516 . S
C824 C823 1.516 . S
C824 C825 1.502 . S
C824 C826 1.561 . S
C824 C827 1.526 . S
C825 H809 0.959 . S
C825 H810 0.959 . S
C825 H811 0.961 . S
C825 C824 1.502 . S
C826 H812 0.960 . S
C826 H813 0.961 . S
C826 H814 0.959 . S
C826 C824 1.561 . S
C827 C824 1.526 . S
C827 C828 1.396 . S
C827 C832 1.390 . S
C828 C822 1.465 . S
C828 C827 1.396 . S
C828 C829 1.399 . S
C829 H815 0.929 . S
C829 C828 1.399 . S
C829 C830 1.385 . S
C830 H816 0.931 . S
C830 C829 1.385 . S
C830 C831 1.389 . S
C831 C830 1.389 . S
C831 C832 1.387 . S
C832 H817 0.930 . S
C832 C827 1.390 . S
C832 C831 1.387 . S
H833 C845 0.930 . S
H834 C847 0.930 . S
H835 C848 0.930 . S
H836 C852 0.959 . S
H837 C852 0.959 . S
H838 C852 0.961 . S
H839 C853 0.960 . S
H840 C853 0.961 . S
H841 C853 0.959 . S
H842 C856 0.929 . S
H843 C857 0.931 . S
H844 C859 0.930 . S
C845 H833 0.930 . S
C845 C846 1.399 . S
C845 C850 1.399 . S
C846 C845 1.399 . S
C846 C847 1.376 . S
C847 H834 0.930 . S
C847 C846 1.376 . S
C847 C848 1.388 . S
C848 H835 0.930 . S
C848 C847 1.388 . S
C848 C849 1.390 . S
C849 C848 1.390 . S
C849 C850 1.394 . S
C849 C855 1.465 . S
C850 C845 1.399 . S
C850 C849 1.394 . S
C850 C851 1.516 . S
C851 C850 1.516 . S
C851 C852 1.502 . S
C851 C853 1.561 . S
C851 C854 1.526 . S
C852 H836 0.959 . S
C852 H837 0.959 . S
C852 H838 0.961 . S
C852 C851 1.502 . S
C853 H839 0.960 . S
C853 H840 0.961 . S
C853 H841 0.959 . S
C853 C851 1.561 . S
C854 C851 1.526 . S
C854 C855 1.396 . S
C854 C859 1.390 . S
C855 C849 1.465 . S
C855 C854 1.396 . S
C855 C856 1.399 . S
C856 H842 0.929 . S
C856 C855 1.399 . S
C856 C857 1.385 . S
C857 H843 0.931 . S
C857 C856 1.385 . S
C857 C858 1.389 . S
C858 C857 1.389 . S
C858 C859 1.387 . S
C859 H844 0.930 . S
C859 C854 1.390 . S
C859 C858 1.387 . S
H860 C872 0.930 . S
H861 C874 0.930 . S
H862 C875 0.930 . S
H863 C879 0.959 . S
H864 C879 0.959 . S
H865 C879 0.961 . S
H866 C880 0.960 . S
H867 C880 0.961 . S
H868 C880 0.959 . S
H869 C883 0.929 . S
H870 C884 0.931 . S
H871 C886 0.930 . S
C872 H860 0.930 . S
C872 C873 1.399 . S
C872 C877 1.399 . S
C873 C872 1.399 . S
C873 C874 1.376 . S
C874 H861 0.930 . S
C874 C873 1.376 . S
C874 C875 1.388 . S
C875 H862 0.930 . S
C875 C874 1.388 . S
C875 C876 1.390 . S
C876 C875 1.390 . S
C876 C877 1.394 . S
C876 C882 1.465 . S
C877 C872 1.399 . S
C877 C876 1.394 . S
C877 C878 1.516 . S
C878 C877 1.516 . S
C878 C879 1.502 . S
C878 C880 1.561 . S
C878 C881 1.526 . S
C879 H863 0.959 . S
C879 H864 0.959 . S
C879 H865 0.961 . S
C879 C878 1.502 . S
C880 H866 0.960 . S
C880 H867 0.961 . S
C880 H868 0.959 . S
C880 C878 1.561 . S
C881 C878 1.526 . S
C881 C882 1.396 . S
C881 C886 1.390 . S
C882 C876 1.465 . S
C882 C881 1.396 . S
C882 C883 1.399 . S
C883 H869 0.929 . S
C883 C882 1.399 . S
C883 C884 1.385 . S
C884 H870 0.931 . S
C884 C883 1.385 . S
C884 C885 1.389 . S
C885 C884 1.389 . S
C885 C886 1.387 . S
C886 H871 0.930 . S
C886 C881 1.390 . S
C886 C885 1.387 . S
H887 C899 0.930 . S
H888 C901 0.930 . S
H889 C902 0.930 . S
H890 C906 0.959 . S
H891 C906 0.959 . S
H892 C906 0.961 . S
H893 C907 0.960 . S
H894 C907 0.961 . S
H895 C907 0.959 . S
H896 C910 0.929 . S
H897 C911 0.931 . S
H898 C913 0.930 . S
C899 H887 0.930 . S
C899 C900 1.399 . S
C899 C904 1.399 . S
C900 C899 1.399 . S
C900 C901 1.376 . S
C901 H888 0.930 . S
C901 C900 1.376 . S
C901 C902 1.388 . S
C902 H889 0.930 . S
C902 C901 1.388 . S
C902 C903 1.390 . S
C903 C902 1.390 . S
C903 C904 1.394 . S
C903 C909 1.465 . S
C904 C899 1.399 . S
C904 C903 1.394 . S
C904 C905 1.516 . S
C905 C904 1.516 . S
C905 C906 1.502 . S
C905 C907 1.561 . S
C905 C908 1.526 . S
C906 H890 0.959 . S
C906 H891 0.959 . S
C906 H892 0.961 . S
C906 C905 1.502 . S
C907 H893 0.960 . S
C907 H894 0.961 . S
C907 H895 0.959 . S
C907 C905 1.561 . S
C908 C905 1.526 . S
C908 C909 1.396 . S
C908 C913 1.390 . S
C909 C903 1.465 . S
C909 C908 1.396 . S
C909 C910 1.399 . S
C910 H896 0.929 . S
C910 C909 1.399 . S
C910 C911 1.385 . S
C911 H897 0.931 . S
C911 C910 1.385 . S
C911 C912 1.389 . S
C912 C911 1.389 . S
C912 C913 1.387 . S
C913 H898 0.930 . S
C913 C908 1.390 . S
C913 C912 1.387 . S
H914 C926 0.930 . S
H915 C928 0.930 . S
H916 C929 0.930 . S
H917 C933 0.959 . S
H918 C933 0.959 . S
H919 C933 0.961 . S
H920 C934 0.960 . S
H921 C934 0.961 . S
H922 C934 0.959 . S
H923 C937 0.929 . S
H924 C938 0.931 . S
H925 C940 0.930 . S
C926 H914 0.930 . S
C926 C927 1.399 . S
C926 C931 1.399 . S
C927 C926 1.399 . S
C927 C928 1.376 . S
C928 H915 0.930 . S
C928 C927 1.376 . S
C928 C929 1.388 . S
C929 H916 0.930 . S
C929 C928 1.388 . S
C929 C930 1.390 . S
C930 C929 1.390 . S
C930 C931 1.394 . S
C930 C936 1.465 . S
C931 C926 1.399 . S
C931 C930 1.394 . S
C931 C932 1.516 . S
C932 C931 1.516 . S
C932 C933 1.502 . S
C932 C934 1.561 . S
C932 C935 1.526 . S
C933 H917 0.959 . S
C933 H918 0.959 . S
C933 H919 0.961 . S
C933 C932 1.502 . S
C934 H920 0.960 . S
C934 H921 0.961 . S
C934 H922 0.959 . S
C934 C932 1.561 . S
C935 C932 1.526 . S
C935 C936 1.396 . S
C935 C940 1.390 . S
C936 C930 1.465 . S
C936 C935 1.396 . S
C936 C937 1.399 . S
C937 H923 0.929 . S
C937 C936 1.399 . S
C937 C938 1.385 . S
C938 H924 0.931 . S
C938 C937 1.385 . S
C938 C939 1.389 . S
C939 C938 1.389 . S
C939 C940 1.387 . S
C940 H925 0.930 . S
C940 C935 1.390 . S
C940 C939 1.387 . S
H941 C953 0.930 . S
H942 C955 0.930 . S
H943 C956 0.930 . S
H944 C960 0.959 . S
H945 C960 0.959 . S
H946 C960 0.961 . S
H947 C961 0.960 . S
H948 C961 0.961 . S
H949 C961 0.959 . S
H950 C964 0.929 . S
H951 C965 0.915 1_655 S
H952 C967 0.930 1_655 S
C953 H941 0.930 . S
C953 C954 1.399 . S
C953 C958 1.399 . S
C954 C953 1.399 . S
C954 C955 1.376 . S
C955 H942 0.930 . S
C955 C954 1.376 . S
C955 C956 1.388 . S
C956 H943 0.930 . S
C956 C955 1.388 . S
C956 C957 1.390 . S
C957 C956 1.390 . S
C957 C958 1.394 . S
C957 C963 1.465 . S
C958 C953 1.399 . S
C958 C957 1.394 . S
C958 C959 1.516 . S
C959 C958 1.516 . S
C959 C960 1.502 . S
C959 C961 1.561 . S
C959 C962 1.526 . S
C960 H944 0.959 . S
C960 H945 0.959 . S
C960 H946 0.961 . S
C960 C959 1.502 . S
C961 H947 0.960 . S
C961 H948 0.961 . S
C961 H949 0.959 . S
C961 C959 1.561 . S
C962 C959 1.526 . S
C962 C963 1.396 . S
C962 C967 1.390 . S
C963 C957 1.465 . S
C963 C962 1.396 . S
C963 C964 1.399 . S
C964 H950 0.929 . S
C964 C963 1.399 . S
C964 C965 1.414 . S
C965 H951 0.915 1_455 S
C965 C964 1.414 . S
C965 C966 1.376 1_455 S
C966 C965 1.376 1_655 S
C966 C967 1.387 1_655 S
C967 H952 0.930 1_455 S
C967 C962 1.390 . S
C967 C966 1.387 1_455 S
H968 C980 0.930 . S
H969 C982 0.930 . S
H970 C983 0.930 . S
H971 C987 0.959 . S
H972 C987 0.959 . S
H973 C987 0.961 . S
H974 C988 0.960 . S
H975 C988 0.961 . S
H976 C988 0.959 1_554 S
H977 C991 0.929 1_554 S
H978 C992 0.931 . S
H979 C994 0.930 . S
C980 H968 0.930 . S
C980 C981 1.399 . S
C980 C985 1.399 . S
C981 C980 1.399 . S
C981 C982 1.376 . S
C982 H969 0.930 . S
C982 C981 1.376 . S
C982 C983 1.388 1_545 S
C983 H970 0.930 . S
C983 C982 1.388 1_565 S
C983 C984 1.390 . S
C984 C983 1.390 . S
C984 C985 1.394 1_565 S
C984 C990 1.465 1_554 S
C985 C980 1.399 . S
C985 C984 1.394 1_545 S
C985 C986 1.516 1_554 S
C986 C985 1.516 1_556 S
C986 C987 1.502 . S
C986 C988 1.561 . S
C986 C989 1.526 1_545 S
C987 H971 0.959 . S
C987 H972 0.959 . S
C987 H973 0.961 . S
C987 C986 1.502 . S
C988 H974 0.960 . S
C988 H975 0.961 . S
C988 H976 0.959 1_556 S
C988 C986 1.561 . S
C989 C986 1.526 1_565 S
C989 C990 1.396 . S
C989 C994 1.390 . S
C990 C984 1.465 1_556 S
C990 C989 1.396 . S
C990 C991 1.399 . S
C991 H977 0.929 1_556 S
C991 C990 1.399 . S
C991 C992 1.385 . S
C992 H978 0.931 . S
C992 C991 1.385 . S
C992 C993 1.389 . S
C993 C992 1.389 . S
C993 C994 1.387 . S
C994 H979 0.930 . S
C994 C989 1.390 . S
C994 C993 1.387 . S
H995 C1007 0.930 . S
H996 C1009 0.930 . S
H997 C1010 0.930 . S
H998 C1014 0.959 . S
H999 C1014 0.959 . S
H1000 C1014 0.961 . S
H1001 C1015 0.960 . S
H1002 C1015 0.961 . S
H1003 C1015 0.959 . S
H1004 C1018 0.929 . S
H1005 C1019 0.931 . S
H1006 C1021 0.930 . S
C1007 H995 0.930 . S
C1007 C1008 1.399 . S
C1007 C1012 1.399 . S
C1008 C1007 1.399 . S
C1008 C1009 1.376 . S
C1009 H996 0.930 . S
C1009 C1008 1.376 . S
C1009 C1010 1.388 . S
C1010 H997 0.930 . S
C1010 C1009 1.388 . S
C1010 C1011 1.390 . S
C1011 C1010 1.390 . S
C1011 C1012 1.394 . S
C1011 C1017 1.465 . S
C1012 C1007 1.399 . S
C1012 C1011 1.394 . S
C1012 C1013 1.516 . S
C1013 C1012 1.516 . S
C1013 C1014 1.502 . S
C1013 C1015 1.561 . S
C1013 C1016 1.526 . S
C1014 H998 0.959 . S
C1014 H999 0.959 . S
C1014 H1000 0.961 . S
C1014 C1013 1.502 . S
C1015 H1001 0.960 . S
C1015 H1002 0.961 . S
C1015 H1003 0.959 . S
C1015 C1013 1.561 . S
C1016 C1013 1.526 . S
C1016 C1017 1.396 . S
C1016 C1021 1.390 . S
C1017 C1011 1.465 . S
C1017 C1016 1.396 . S
C1017 C1018 1.399 . S
C1018 H1004 0.929 . S
C1018 C1017 1.399 . S
C1018 C1019 1.385 . S
C1019 H1005 0.931 . S
C1019 C1018 1.385 . S
C1019 C1020 1.389 . S
C1020 C1019 1.389 . S
C1020 C1021 1.387 . S
C1021 H1006 0.930 . S
C1021 C1016 1.390 . S
C1021 C1020 1.387 . S
H1022 C1034 0.930 . S
H1023 C1036 0.930 . S
H1024 C1037 0.930 . S
H1025 C1041 0.959 . S
H1026 C1041 0.959 . S
H1027 C1041 0.961 . S
H1028 C1042 0.960 . S
H1029 C1042 0.961 . S
H1030 C1042 0.959 . S
H1031 C1045 0.929 . S
H1032 C1046 0.931 . S
H1033 C1048 0.930 . S
C1034 H1022 0.930 . S
C1034 C1035 1.399 . S
C1034 C1039 1.399 . S
C1035 C1034 1.399 . S
C1035 C1036 1.376 . S
C1036 H1023 0.930 . S
C1036 C1035 1.376 . S
C1036 C1037 1.388 . S
C1037 H1024 0.930 . S
C1037 C1036 1.388 . S
C1037 C1038 1.390 . S
C1038 C1037 1.390 . S
C1038 C1039 1.394 . S
C1038 C1044 1.465 . S
C1039 C1034 1.399 . S
C1039 C1038 1.394 . S
C1039 C1040 1.516 1_545 S
C1040 C1039 1.516 1_565 S
C1040 C1041 1.502 . S
C1040 C1042 1.561 . S
C1040 C1043 1.526 . S
C1041 H1025 0.959 . S
C1041 H1026 0.959 . S
C1041 H1027 0.961 . S
C1041 C1040 1.502 . S
C1042 H1028 0.960 . S
C1042 H1029 0.961 . S
C1042 H1030 0.959 . S
C1042 C1040 1.561 . S
C1043 C1040 1.526 . S
C1043 C1044 1.396 1_565 S
C1043 C1048 1.390 . S
C1044 C1038 1.465 . S
C1044 C1043 1.396 1_545 S
C1044 C1045 1.399 . S
C1045 H1031 0.929 . S
C1045 C1044 1.399 . S
C1045 C1046 1.385 1_545 S
C1046 H1032 0.931 . S
C1046 C1045 1.385 1_565 S
C1046 C1047 1.389 . S
C1047 C1046 1.389 . S
C1047 C1048 1.387 . S
C1048 H1033 0.930 . S
C1048 C1043 1.390 . S
C1048 C1047 1.387 . S
H1049 C1061 0.930 . S
H1050 C1063 0.930 . S
H1051 C1064 0.930 . S
H1052 C1068 0.959 . S
H1053 C1068 0.959 . S
H1054 C1068 0.961 . S
H1055 C1069 0.960 . S
H1056 C1069 0.961 . S
H1057 C1069 0.959 . S
H1058 C1072 0.929 . S
H1059 C1073 0.931 . S
H1060 C1075 0.930 . S
C1061 H1049 0.930 . S
C1061 C1062 1.399 . S
C1061 C1066 1.399 . S
C1062 C1061 1.399 . S
C1062 C1063 1.376 . S
C1063 H1050 0.930 . S
C1063 C1062 1.376 . S
C1063 C1064 1.388 . S
C1064 H1051 0.930 . S
C1064 C1063 1.388 . S
C1064 C1065 1.390 . S
C1065 C1064 1.390 . S
C1065 C1066 1.394 . S
C1065 C1071 1.465 . S
C1066 C1061 1.399 . S
C1066 C1065 1.394 . S
C1066 C1067 1.516 . S
C1067 C1066 1.516 . S
C1067 C1068 1.502 . S
C1067 C1069 1.561 . S
C1067 C1070 1.526 . S
C1068 H1052 0.959 . S
C1068 H1053 0.959 . S
C1068 H1054 0.961 . S
C1068 C1067 1.502 . S
C1069 H1055 0.960 . S
C1069 H1056 0.961 . S
C1069 H1057 0.959 . S
C1069 C1067 1.561 . S
C1070 C1067 1.526 . S
C1070 C1071 1.396 . S
C1070 C1075 1.390 . S
C1071 C1065 1.465 . S
C1071 C1070 1.396 . S
C1071 C1072 1.399 . S
C1072 H1058 0.929 . S
C1072 C1071 1.399 . S
C1072 C1073 1.385 . S
C1073 H1059 0.931 . S
C1073 C1072 1.385 . S
C1073 C1074 1.389 . S
C1074 C1073 1.389 . S
C1074 C1075 1.387 . S
C1075 H1060 0.930 . S
C1075 C1070 1.390 . S
C1075 C1074 1.387 . S
H1076 C1088 0.930 . S
H1077 C1090 0.930 . S
H1078 C1091 0.930 . S
H1079 C1095 0.959 . S
H1080 C1095 0.959 . S
H1081 C1095 0.961 . S
H1082 C1096 0.960 . S
H1083 C1096 0.961 . S
H1084 C1096 0.959 . S
H1085 C1099 0.929 . S
H1086 C1100 0.931 . S
H1087 C1102 0.930 . S
C1088 H1076 0.930 . S
C1088 C1089 1.399 . S
C1088 C1093 1.399 . S
C1089 C1088 1.399 . S
C1089 C1090 1.376 . S
C1090 H1077 0.930 . S
C1090 C1089 1.376 . S
C1090 C1091 1.388 . S
C1091 H1078 0.930 . S
C1091 C1090 1.388 . S
C1091 C1092 1.390 . S
C1092 C1091 1.390 . S
C1092 C1093 1.394 . S
C1092 C1098 1.465 . S
C1093 C1088 1.399 . S
C1093 C1092 1.394 . S
C1093 C1094 1.516 . S
C1094 C1093 1.516 . S
C1094 C1095 1.502 . S
C1094 C1096 1.561 . S
C1094 C1097 1.526 . S
C1095 H1079 0.959 . S
C1095 H1080 0.959 . S
C1095 H1081 0.961 . S
C1095 C1094 1.502 . S
C1096 H1082 0.960 . S
C1096 H1083 0.961 . S
C1096 H1084 0.959 . S
C1096 C1094 1.561 . S
C1097 C1094 1.526 . S
C1097 C1098 1.396 . S
C1097 C1102 1.390 . S
C1098 C1092 1.465 . S
C1098 C1097 1.396 . S
C1098 C1099 1.399 . S
C1099 H1085 0.929 . S
C1099 C1098 1.399 . S
C1099 C1100 1.385 . S
C1100 H1086 0.931 . S
C1100 C1099 1.385 . S
C1100 C1101 1.389 . S
C1101 C1100 1.389 . S
C1101 C1102 1.387 . S
C1102 H1087 0.930 . S
C1102 C1097 1.390 . S
C1102 C1101 1.387 . S
H1103 C1115 0.930 . S
H1104 C1117 0.930 . S
H1105 C1118 0.930 . S
H1106 C1122 0.959 . S
H1107 C1122 0.959 . S
H1108 C1122 0.961 . S
H1109 C1123 0.960 . S
H1110 C1123 0.961 . S
H1111 C1123 0.959 . S
H1112 C1126 0.929 . S
H1113 C1127 0.931 . S
H1114 C1129 0.930 . S
C1115 H1103 0.930 . S
C1115 C1116 1.399 . S
C1115 C1120 1.399 . S
C1116 C1115 1.399 . S
C1116 C1117 1.376 . S
C1117 H1104 0.930 . S
C1117 C1116 1.376 . S
C1117 C1118 1.388 . S
C1118 H1105 0.930 . S
C1118 C1117 1.388 . S
C1118 C1119 1.390 . S
C1119 C1118 1.390 . S
C1119 C1120 1.394 . S
C1119 C1125 1.465 . S
C1120 C1115 1.399 . S
C1120 C1119 1.394 . S
C1120 C1121 1.516 . S
C1121 C1120 1.516 . S
C1121 C1122 1.502 . S
C1121 C1123 1.561 . S
C1121 C1124 1.526 . S
C1122 H1106 0.959 . S
C1122 H1107 0.959 . S
C1122 H1108 0.961 . S
C1122 C1121 1.502 . S
C1123 H1109 0.960 . S
C1123 H1110 0.961 . S
C1123 H1111 0.959 . S
C1123 C1121 1.561 . S
C1124 C1121 1.526 . S
C1124 C1125 1.396 . S
C1124 C1129 1.390 . S
C1125 C1119 1.465 . S
C1125 C1124 1.396 . S
C1125 C1126 1.399 . S
C1126 H1112 0.929 . S
C1126 C1125 1.399 . S
C1126 C1127 1.385 . S
C1127 H1113 0.931 . S
C1127 C1126 1.385 . S
C1127 C1128 1.389 . S
C1128 C1127 1.389 . S
C1128 C1129 1.387 . S
C1129 H1114 0.930 . S
C1129 C1124 1.390 . S
C1129 C1128 1.387 . S
H1130 C1142 0.930 . S
H1131 C1144 0.930 . S
H1132 C1145 0.930 . S
H1133 C1149 0.959 . S
H1134 C1149 0.959 . S
H1135 C1149 0.961 . S
H1136 C1150 0.960 . S
H1137 C1150 0.961 . S
H1138 C1150 0.959 . S
H1139 C1153 0.929 . S
H1140 C1154 0.931 . S
H1141 C1156 0.930 . S
C1142 H1130 0.930 . S
C1142 C1143 1.399 . S
C1142 C1147 1.399 . S
C1143 C1142 1.399 . S
C1143 C1144 1.376 . S
C1144 H1131 0.930 . S
C1144 C1143 1.376 . S
C1144 C1145 1.388 . S
C1145 H1132 0.930 . S
C1145 C1144 1.388 . S
C1145 C1146 1.390 . S
C1146 C1145 1.390 . S
C1146 C1147 1.394 . S
C1146 C1152 1.465 . S
C1147 C1142 1.399 . S
C1147 C1146 1.394 . S
C1147 C1148 1.516 . S
C1148 C1147 1.516 . S
C1148 C1149 1.502 . S
C1148 C1150 1.561 . S
C1148 C1151 1.526 . S
C1149 H1133 0.959 . S
C1149 H1134 0.959 . S
C1149 H1135 0.961 . S
C1149 C1148 1.502 . S
C1150 H1136 0.960 . S
C1150 H1137 0.961 . S
C1150 H1138 0.959 . S
C1150 C1148 1.561 . S
C1151 C1148 1.526 . S
C1151 C1152 1.396 . S
C1151 C1156 1.390 . S
C1152 C1146 1.465 . S
C1152 C1151 1.396 . S
C1152 C1153 1.399 . S
C1153 H1139 0.929 . S
C1153 C1152 1.399 . S
C1153 C1154 1.385 . S
C1154 H1140 0.931 . S
C1154 C1153 1.385 . S
C1154 C1155 1.389 . S
C1155 C1154 1.389 . S
C1155 C1156 1.387 . S
C1156 H1141 0.930 . S
C1156 C1151 1.390 . S
C1156 C1155 1.387 . S
H1157 C1169 0.930 . S
H1158 C1171 0.930 . S
H1159 C1172 0.930 1_554 S
H1160 C1176 0.959 . S
H1161 C1176 0.959 . S
H1162 C1176 0.961 . S
H1163 C1177 0.960 . S
H1164 C1177 0.961 . S
H1165 C1177 0.959 . S
H1166 C1180 0.929 . S
H1167 C1181 0.931 . S
H1168 C1183 0.930 . S
C1169 H1157 0.930 . S
C1169 C1170 1.399 . S
C1169 C1174 1.399 . S
C1170 C1169 1.399 . S
C1170 C1171 1.376 . S
C1171 H1158 0.930 . S
C1171 C1170 1.376 . S
C1171 C1172 1.388 . S
C1172 H1159 0.930 1_556 S
C1172 C1171 1.388 . S
C1172 C1173 1.390 . S
C1173 C1172 1.390 . S
C1173 C1174 1.394 . S
C1173 C1179 1.465 1_556 S
C1174 C1169 1.399 . S
C1174 C1173 1.394 . S
C1174 C1175 1.516 . S
C1175 C1174 1.516 . S
C1175 C1176 1.502 . S
C1175 C1177 1.561 . S
C1175 C1178 1.526 1_556 S
C1176 H1160 0.959 . S
C1176 H1161 0.959 . S
C1176 H1162 0.961 . S
C1176 C1175 1.502 . S
C1177 H1163 0.960 . S
C1177 H1164 0.961 . S
C1177 H1165 0.959 . S
C1177 C1175 1.561 . S
C1178 C1175 1.526 1_554 S
C1178 C1179 1.396 . S
C1178 C1183 1.390 . S
C1179 C1173 1.465 1_554 S
C1179 C1178 1.396 . S
C1179 C1180 1.399 . S
C1180 H1166 0.929 . S
C1180 C1179 1.399 . S
C1180 C1181 1.385 . S
C1181 H1167 0.931 . S
C1181 C1180 1.385 . S
C1181 C1182 1.389 . S
C1182 C1181 1.389 . S
C1182 C1183 1.387 . S
C1183 H1168 0.930 . S
C1183 C1178 1.390 . S
C1183 C1182 1.387 . S
H1184 C1196 0.930 . S
H1185 C1198 0.930 . S
H1186 C1199 0.930 . S
H1187 C1203 0.959 . S
H1188 C1203 0.959 . S
H1189 C1203 0.961 . S
H1190 C1204 0.960 . S
H1191 C1204 0.961 . S
H1192 C1204 0.959 . S
H1193 C1207 0.929 . S
H1194 C1208 0.931 . S
H1195 C1210 0.930 . S
C1196 H1184 0.930 . S
C1196 C1197 1.399 . S
C1196 C1201 1.399 . S
C1197 C1196 1.399 . S
C1197 C1198 1.376 . S
C1198 H1185 0.930 . S
C1198 C1197 1.376 . S
C1198 C1199 1.388 . S
C1199 H1186 0.930 . S
C1199 C1198 1.388 . S
C1199 C1200 1.390 . S
C1200 C1199 1.390 . S
C1200 C1201 1.394 . S
C1200 C1206 1.465 . S
C1201 C1196 1.399 . S
C1201 C1200 1.394 . S
C1201 C1202 1.516 . S
C1202 C1201 1.516 . S
C1202 C1203 1.502 . S
C1202 C1204 1.561 . S
C1202 C1205 1.526 . S
C1203 H1187 0.959 . S
C1203 H1188 0.959 . S
C1203 H1189 0.961 . S
C1203 C1202 1.502 . S
C1204 H1190 0.960 . S
C1204 H1191 0.961 . S
C1204 H1192 0.959 . S
C1204 C1202 1.561 . S
C1205 C1202 1.526 . S
C1205 C1206 1.396 . S
C1205 C1210 1.390 . S
C1206 C1200 1.465 . S
C1206 C1205 1.396 . S
C1206 C1207 1.399 . S
C1207 H1193 0.929 . S
C1207 C1206 1.399 . S
C1207 C1208 1.385 . S
C1208 H1194 0.931 . S
C1208 C1207 1.385 . S
C1208 C1209 1.389 . S
C1209 C1208 1.389 . S
C1209 C1210 1.387 . S
C1210 H1195 0.930 . S
C1210 C1205 1.390 . S
C1210 C1209 1.387 . S
H1211 C1223 0.930 . S
H1212 C1225 0.930 . S
H1213 C1226 0.930 . S
H1214 C1230 0.959 . S
H1215 C1230 0.959 . S
H1216 C1230 0.961 . S
H1217 C1231 0.960 . S
H1218 C1231 0.961 . S
H1219 C1231 0.959 . S
H1220 C1234 0.929 . S
H1221 C1235 0.931 . S
H1222 C1237 0.930 . S
C1223 H1211 0.930 . S
C1223 C1224 1.399 . S
C1223 C1228 1.399 . S
C1224 C1223 1.399 . S
C1224 C1225 1.376 . S
C1225 H1212 0.930 . S
C1225 C1224 1.376 . S
C1225 C1226 1.388 . S
C1226 H1213 0.930 . S
C1226 C1225 1.388 . S
C1226 C1227 1.390 . S
C1227 C1226 1.390 . S
C1227 C1228 1.394 . S
C1227 C1233 1.465 . S
C1228 C1223 1.399 . S
C1228 C1227 1.394 . S
C1228 C1229 1.516 . S
C1229 C1228 1.516 . S
C1229 C1230 1.502 . S
C1229 C1231 1.561 . S
C1229 C1232 1.526 . S
C1230 H1214 0.959 . S
C1230 H1215 0.959 . S
C1230 H1216 0.961 . S
C1230 C1229 1.502 . S
C1231 H1217 0.960 . S
C1231 H1218 0.961 . S
C1231 H1219 0.959 . S
C1231 C1229 1.561 . S
C1232 C1229 1.526 . S
C1232 C1233 1.396 . S
C1232 C1237 1.390 . S
C1233 C1227 1.465 . S
C1233 C1232 1.396 . S
C1233 C1234 1.399 . S
C1234 H1220 0.929 . S
C1234 C1233 1.399 . S
C1234 C1235 1.385 . S
C1235 H1221 0.931 . S
C1235 C1234 1.385 . S
C1235 C1236 1.389 . S
C1236 C1235 1.389 . S
C1236 C1237 1.387 . S
C1237 H1222 0.930 . S
C1237 C1232 1.390 . S
C1237 C1236 1.387 . S
H1238 C1250 0.930 . S
H1239 C1252 0.930 . S
H1240 C1253 0.930 . S
H1241 C1257 0.959 . S
H1242 C1257 0.959 . S
H1243 C1257 0.961 . S
H1244 C1258 0.960 . S
H1245 C1258 0.961 . S
H1246 C1258 0.959 . S
H1247 C1261 0.929 . S
H1248 C1262 0.931 . S
H1249 C1264 0.930 . S
C1250 H1238 0.930 . S
C1250 C1251 1.399 . S
C1250 C1255 1.399 . S
C1251 C1250 1.399 . S
C1251 C1252 1.376 . S
C1252 H1239 0.930 . S
C1252 C1251 1.376 . S
C1252 C1253 1.388 . S
C1253 H1240 0.930 . S
C1253 C1252 1.388 . S
C1253 C1254 1.390 . S
C1254 C1253 1.390 . S
C1254 C1255 1.394 . S
C1254 C1260 1.465 . S
C1255 C1250 1.399 . S
C1255 C1254 1.394 . S
C1255 C1256 1.516 . S
C1256 C1255 1.516 . S
C1256 C1257 1.502 . S
C1256 C1258 1.561 . S
C1256 C1259 1.526 . S
C1257 H1241 0.959 . S
C1257 H1242 0.959 . S
C1257 H1243 0.961 . S
C1257 C1256 1.502 . S
C1258 H1244 0.960 . S
C1258 H1245 0.961 . S
C1258 H1246 0.959 . S
C1258 C1256 1.561 . S
C1259 C1256 1.526 . S
C1259 C1260 1.396 . S
C1259 C1264 1.390 . S
C1260 C1254 1.465 . S
C1260 C1259 1.396 . S
C1260 C1261 1.399 . S
C1261 H1247 0.929 . S
C1261 C1260 1.399 . S
C1261 C1262 1.385 . S
C1262 H1248 0.931 . S
C1262 C1261 1.385 . S
C1262 C1263 1.389 . S
C1263 C1262 1.389 . S
C1263 C1264 1.387 . S
C1264 H1249 0.930 . S
C1264 C1259 1.390 . S
C1264 C1263 1.387 . S
H1265 C1277 0.930 . S
H1266 C1279 0.930 . S
H1267 C1280 0.930 . S
H1268 C1284 0.959 . S
H1269 C1284 0.959 . S
H1270 C1284 0.961 . S
H1271 C1285 0.960 . S
H1272 C1285 0.961 . S
H1273 C1285 0.959 . S
H1274 C1288 0.929 . S
H1275 C1289 0.931 1_556 S
H1276 C1291 0.930 . S
C1277 H1265 0.930 . S
C1277 C1278 1.399 . S
C1277 C1282 1.399 . S
C1278 C1277 1.399 . S
C1278 C1279 1.376 . S
C1279 H1266 0.930 . S
C1279 C1278 1.376 . S
C1279 C1280 1.388 . S
C1280 H1267 0.930 . S
C1280 C1279 1.388 . S
C1280 C1281 1.390 . S
C1281 C1280 1.390 . S
C1281 C1282 1.394 . S
C1281 C1287 1.465 . S
C1282 C1277 1.399 . S
C1282 C1281 1.394 . S
C1282 C1283 1.516 . S
C1283 C1282 1.516 . S
C1283 C1284 1.502 . S
C1283 C1285 1.561 . S
C1283 C1286 1.526 . S
C1284 H1268 0.959 . S
C1284 H1269 0.959 . S
C1284 H1270 0.961 . S
C1284 C1283 1.502 . S
C1285 H1271 0.960 . S
C1285 H1272 0.961 . S
C1285 H1273 0.959 . S
C1285 C1283 1.561 . S
C1286 C1283 1.526 . S
C1286 C1287 1.396 . S
C1286 C1291 1.390 . S
C1287 C1281 1.465 . S
C1287 C1286 1.396 . S
C1287 C1288 1.399 . S
C1288 H1274 0.929 . S
C1288 C1287 1.399 . S
C1288 C1289 1.385 . S
C1289 H1275 0.931 1_554 S
C1289 C1288 1.385 . S
C1289 C1290 1.389 . S
C1290 C1289 1.389 . S
C1290 C1291 1.387 . S
C1291 H1276 0.930 . S
C1291 C1286 1.390 . S
C1291 C1290 1.387 . S
H1292 C1304 0.930 . S
H1293 C1306 0.930 . S
H1294 C1307 0.930 . S
H1295 C1311 0.959 . S
H1296 C1311 0.959 . S
H1297 C1311 0.961 . S
H1298 C1312 0.960 . S
H1299 C1312 0.961 . S
H1300 C1312 0.959 . S
H1301 C1315 0.929 . S
H1302 C1316 0.931 . S
H1303 C1318 0.930 . S
C1304 H1292 0.930 . S
C1304 C1305 1.399 . S
C1304 C1309 1.399 . S
C1305 C1304 1.399 . S
C1305 C1306 1.376 . S
C1306 H1293 0.930 . S
C1306 C1305 1.376 . S
C1306 C1307 1.388 . S
C1307 H1294 0.930 . S
C1307 C1306 1.388 . S
C1307 C1308 1.390 . S
C1308 C1307 1.390 . S
C1308 C1309 1.394 . S
C1308 C1314 1.465 . S
C1309 C1304 1.399 . S
C1309 C1308 1.394 . S
C1309 C1310 1.500 1_655 S
C1310 C1309 1.500 1_455 S
C1310 C1311 1.524 . S
C1310 C1312 1.549 1_455 S
C1310 C1313 1.530 . S
C1311 H1295 0.959 . S
C1311 H1296 0.959 . S
C1311 H1297 0.961 . S
C1311 C1310 1.524 . S
C1312 H1298 0.960 . S
C1312 H1299 0.961 . S
C1312 H1300 0.959 . S
C1312 C1310 1.549 1_655 S
C1313 C1310 1.530 . S
C1313 C1314 1.396 1_455 S
C1313 C1318 1.390 . S
C1314 C1308 1.465 . S
C1314 C1313 1.396 1_655 S
C1314 C1315 1.399 . S
C1315 H1301 0.929 . S
C1315 C1314 1.399 . S
C1315 C1316 1.385 1_655 S
C1316 H1302 0.931 . S
C1316 C1315 1.385 1_455 S
C1316 C1317 1.389 . S
C1317 C1316 1.389 . S
C1317 C1318 1.387 . S
C1318 H1303 0.930 . S
C1318 C1313 1.390 . S
C1318 C1317 1.387 . S
H1319 C1331 0.930 . S
H1320 C1333 0.930 . S
H1321 C1334 0.930 . S
H1322 C1338 0.959 . S
H1323 C1338 0.959 . S
H1324 C1338 0.961 . S
H1325 C1339 0.960 . S
H1326 C1339 0.961 . S
H1327 C1339 0.959 . S
H1328 C1342 0.929 . S
H1329 C1343 0.931 . S
H1330 C1345 0.930 . S
C1331 H1319 0.930 . S
C1331 C1332 1.399 . S
C1331 C1336 1.399 . S
C1332 C1331 1.399 . S
C1332 C1333 1.376 . S
C1333 H1320 0.930 . S
C1333 C1332 1.376 . S
C1333 C1334 1.388 . S
C1334 H1321 0.930 . S
C1334 C1333 1.388 . S
C1334 C1335 1.390 . S
C1335 C1334 1.390 . S
C1335 C1336 1.394 . S
C1335 C1341 1.465 . S
C1336 C1331 1.399 . S
C1336 C1335 1.394 . S
C1336 C1337 1.516 . S
C1337 C1336 1.516 . S
C1337 C1338 1.502 . S
C1337 C1339 1.561 . S
C1337 C1340 1.526 . S
C1338 H1322 0.959 . S
C1338 H1323 0.959 . S
C1338 H1324 0.961 . S
C1338 C1337 1.502 . S
C1339 H1325 0.960 . S
C1339 H1326 0.961 . S
C1339 H1327 0.959 . S
C1339 C1337 1.561 . S
C1340 C1337 1.526 . S
C1340 C1341 1.396 . S
C1340 C1345 1.390 . S
C1341 C1335 1.465 . S
C1341 C1340 1.396 . S
C1341 C1342 1.399 . S
C1342 H1328 0.929 . S
C1342 C1341 1.399 . S
C1342 C1343 1.385 . S
C1343 H1329 0.931 . S
C1343 C1342 1.385 . S
C1343 C1344 1.389 . S
C1344 C1343 1.389 . S
C1344 C1345 1.387 . S
C1345 H1330 0.930 . S
C1345 C1340 1.390 . S
C1345 C1344 1.387 . S
H1346 C1358 0.930 . S
H1347 C1360 0.930 . S
H1348 C1361 0.930 . S
H1349 C1365 0.959 . S
H1350 C1365 0.959 . S
H1351 C1365 0.961 . S
H1352 C1366 0.960 . S
H1353 C1366 0.961 . S
H1354 C1366 0.959 . S
H1355 C1369 0.929 . S
H1356 C1370 0.931 . S
H1357 C1372 0.930 . S
C1358 H1346 0.930 . S
C1358 C1359 1.399 . S
C1358 C1363 1.399 . S
C1359 C1358 1.399 . S
C1359 C1360 1.376 . S
C1360 H1347 0.930 . S
C1360 C1359 1.376 . S
C1360 C1361 1.388 . S
C1361 H1348 0.930 . S
C1361 C1360 1.388 . S
C1361 C1362 1.390 . S
C1362 C1361 1.390 . S
C1362 C1363 1.394 . S
C1362 C1368 1.465 . S
C1363 C1358 1.399 . S
C1363 C1362 1.394 . S
C1363 C1364 1.516 . S
C1364 C1363 1.516 . S
C1364 C1365 1.502 . S
C1364 C1366 1.561 . S
C1364 C1367 1.526 . S
C1365 H1349 0.959 . S
C1365 H1350 0.959 . S
C1365 H1351 0.961 . S
C1365 C1364 1.502 . S
C1366 H1352 0.960 . S
C1366 H1353 0.961 . S
C1366 H1354 0.959 . S
C1366 C1364 1.561 . S
C1367 C1364 1.526 . S
C1367 C1368 1.396 . S
C1367 C1372 1.390 . S
C1368 C1362 1.465 . S
C1368 C1367 1.396 . S
C1368 C1369 1.399 . S
C1369 H1355 0.929 . S
C1369 C1368 1.399 . S
C1369 C1370 1.385 . S
C1370 H1356 0.931 . S
C1370 C1369 1.385 . S
C1370 C1371 1.389 . S
C1371 C1370 1.389 . S
C1371 C1372 1.387 . S
C1372 H1357 0.930 . S
C1372 C1367 1.390 . S
C1372 C1371 1.387 . S
H1373 C1385 0.930 . S
H1374 C1387 0.930 . S
H1375 C1388 0.930 . S
H1376 C1392 0.959 . S
H1377 C1392 0.959 . S
H1378 C1392 0.961 . S
H1379 C1393 0.960 . S
H1380 C1393 0.961 . S
H1381 C1393 0.959 . S
H1382 C1396 0.929 . S
H1383 C1397 0.931 . S
H1384 C1399 0.930 . S
C1385 H1373 0.930 . S
C1385 C1386 1.399 . S
C1385 C1390 1.399 . S
C1386 C1385 1.399 . S
C1386 C1387 1.376 . S
C1387 H1374 0.930 . S
C1387 C1386 1.376 . S
C1387 C1388 1.388 . S
C1388 H1375 0.930 . S
C1388 C1387 1.388 . S
C1388 C1389 1.390 . S
C1389 C1388 1.390 . S
C1389 C1390 1.394 . S
C1389 C1395 1.465 . S
C1390 C1385 1.399 . S
C1390 C1389 1.394 . S
C1390 C1391 1.516 . S
C1391 C1390 1.516 . S
C1391 C1392 1.502 . S
C1391 C1393 1.561 . S
C1391 C1394 1.526 . S
C1392 H1376 0.959 . S
C1392 H1377 0.959 . S
C1392 H1378 0.961 . S
C1392 C1391 1.502 . S
C1393 H1379 0.960 . S
C1393 H1380 0.961 . S
C1393 H1381 0.959 . S
C1393 C1391 1.561 . S
C1394 C1391 1.526 . S
C1394 C1395 1.396 . S
C1394 C1399 1.390 . S
C1395 C1389 1.465 . S
C1395 C1394 1.396 . S
C1395 C1396 1.399 . S
C1396 H1382 0.929 . S
C1396 C1395 1.399 . S
C1396 C1397 1.385 . S
C1397 H1383 0.931 . S
C1397 C1396 1.385 . S
C1397 C1398 1.389 . S
C1398 C1397 1.389 . S
C1398 C1399 1.387 . S
C1399 H1384 0.930 . S
C1399 C1394 1.390 . S
C1399 C1398 1.387 . S
H1400 C1412 0.930 . S
H1401 C1414 0.930 . S
H1402 C1415 0.930 . S
H1403 C1419 0.959 . S
H1404 C1419 0.959 . S
H1405 C1419 0.961 . S
H1406 C1420 0.960 . S
H1407 C1420 0.961 . S
H1408 C1420 0.959 . S
H1409 C1423 0.929 . S
H1410 C1424 0.928 1_554 S
H1411 C1426 0.930 . S
C1412 H1400 0.930 . S
C1412 C1413 1.399 . S
C1412 C1417 1.399 . S
C1413 C1412 1.399 . S
C1413 C1414 1.376 . S
C1414 H1401 0.930 . S
C1414 C1413 1.376 . S
C1414 C1415 1.388 . S
C1415 H1402 0.930 . S
C1415 C1414 1.388 . S
C1415 C1416 1.390 . S
C1416 C1415 1.390 . S
C1416 C1417 1.394 . S
C1416 C1422 1.465 . S
C1417 C1412 1.399 . S
C1417 C1416 1.394 . S
C1417 C1418 1.516 . S
C1418 C1417 1.516 . S
C1418 C1419 1.502 . S
C1418 C1420 1.561 . S
C1418 C1421 1.526 . S
C1419 H1403 0.959 . S
C1419 H1404 0.959 . S
C1419 H1405 0.961 . S
C1419 C1418 1.502 . S
C1420 H1406 0.960 . S
C1420 H1407 0.961 . S
C1420 H1408 0.959 . S
C1420 C1418 1.561 . S
C1421 C1418 1.526 . S
C1421 C1422 1.396 . S
C1421 C1426 1.390 . S
C1422 C1416 1.465 . S
C1422 C1421 1.396 . S
C1422 C1423 1.399 . S
C1423 H1409 0.929 . S
C1423 C1422 1.399 . S
C1423 C1424 1.385 . S
C1424 H1410 0.928 1_556 S
C1424 C1423 1.385 . S
C1424 C1425 1.389 . S
C1425 C1424 1.389 . S
C1425 C1426 1.387 . S
C1426 H1411 0.930 . S
C1426 C1421 1.390 . S
C1426 C1425 1.387 . S
H1427 C1439 0.930 . S
H1428 C1441 0.930 . S
H1429 C1442 0.930 . S
H1430 C1446 0.959 . S
H1431 C1446 0.959 . S
H1432 C1446 0.961 . S
H1433 C1447 0.960 . S
H1434 C1447 0.961 . S
H1435 C1447 0.959 . S
H1436 C1450 0.929 . S
H1437 C1451 0.931 . S
H1438 C1453 0.930 . S
C1439 H1427 0.930 . S
C1439 C1440 1.399 . S
C1439 C1444 1.399 . S
C1440 C1439 1.399 . S
C1440 C1441 1.376 . S
C1441 H1428 0.930 . S
C1441 C1440 1.376 . S
C1441 C1442 1.388 . S
C1442 H1429 0.930 . S
C1442 C1441 1.388 . S
C1442 C1443 1.390 . S
C1443 C1442 1.390 . S
C1443 C1444 1.394 . S
C1443 C1449 1.465 . S
C1444 C1439 1.399 . S
C1444 C1443 1.394 . S
C1444 C1445 1.516 . S
C1445 C1444 1.516 . S
C1445 C1446 1.502 . S
C1445 C1447 1.561 . S
C1445 C1448 1.526 . S
C1446 H1430 0.959 . S
C1446 H1431 0.959 . S
C1446 H1432 0.961 . S
C1446 C1445 1.502 . S
C1447 H1433 0.960 . S
C1447 H1434 0.961 . S
C1447 H1435 0.959 . S
C1447 C1445 1.561 . S
C1448 C1445 1.526 . S
C1448 C1449 1.396 . S
C1448 C1453 1.390 . S
C1449 C1443 1.465 . S
C1449 C1448 1.396 . S
C1449 C1450 1.399 . S
C1450 H1436 0.929 . S
C1450 C1449 1.399 . S
C1450 C1451 1.385 . S
C1451 H1437 0.931 . S
C1451 C1450 1.385 . S
C1451 C1452 1.389 . S
C1452 C1451 1.389 . S
C1452 C1453 1.387 . S
C1453 H1438 0.930 . S
C1453 C1448 1.390 . S
C1453 C1452 1.387 . S
H1454 C1466 0.930 1_655 S
H1455 C1468 0.930 . S
H1456 C1469 0.930 . S
H1457 C1473 0.959 . S
H1458 C1473 0.959 . S
H1459 C1473 0.961 . S
H1460 C1474 0.960 . S
H1461 C1474 0.961 . S
H1462 C1474 0.959 . S
H1463 C1477 0.933 1_455 S
H1464 C1478 0.931 . S
H1465 C1480 0.930 . S
C1466 H1454 0.930 1_455 S
C1466 C1467 1.399 . S
C1466 C1471 1.399 1_455 S
C1467 C1466 1.399 . S
C1467 C1468 1.376 . S
C1468 H1455 0.930 . S
C1468 C1467 1.376 . S
C1468 C1469 1.388 . S
C1469 H1456 0.930 . S
C1469 C1468 1.388 . S
C1469 C1470 1.390 . S
C1470 C1469 1.390 . S
C1470 C1471 1.394 1_455 S
C1470 C1476 1.465 1_455 S
C1471 C1466 1.399 1_655 S
C1471 C1470 1.394 1_655 S
C1471 C1472 1.516 . S
C1472 C1471 1.516 . S
C1472 C1473 1.502 . S
C1472 C1474 1.561 . S
C1472 C1475 1.526 . S
C1473 H1457 0.959 . S
C1473 H1458 0.959 . S
C1473 H1459 0.961 . S
C1473 C1472 1.502 . S
C1474 H1460 0.960 . S
C1474 H1461 0.961 . S
C1474 H1462 0.959 . S
C1474 C1472 1.561 . S
C1475 C1472 1.526 . S
C1475 C1476 1.396 . S
C1475 C1480 1.390 . S
C1476 C1470 1.465 1_655 S
C1476 C1475 1.396 . S
C1476 C1477 1.398 . S
C1477 H1463 0.933 1_655 S
C1477 C1476 1.398 . S
C1477 C1478 1.383 . S
C1478 H1464 0.931 . S
C1478 C1477 1.383 . S
C1478 C1479 1.389 . S
C1479 C1478 1.389 . S
C1479 C1480 1.387 . S
C1480 H1465 0.930 . S
C1480 C1475 1.390 . S
C1480 C1479 1.387 . S
H1481 C1493 0.930 . S
H1482 C1495 0.930 . S
H1483 C1496 0.930 . S
H1484 C1500 0.959 . S
H1485 C1500 0.959 . S
H1486 C1500 0.961 . S
H1487 C1501 0.960 . S
H1488 C1501 0.961 . S
H1489 C1501 0.959 . S
H1490 C1504 0.929 . S
H1491 C1505 0.931 . S
H1492 C1507 0.930 . S
C1493 H1481 0.930 . S
C1493 C1494 1.399 . S
C1493 C1498 1.399 . S
C1494 C1493 1.399 . S
C1494 C1495 1.376 . S
C1495 H1482 0.930 . S
C1495 C1494 1.376 . S
C1495 C1496 1.388 . S
C1496 H1483 0.930 . S
C1496 C1495 1.388 . S
C1496 C1497 1.390 . S
C1497 C1496 1.390 . S
C1497 C1498 1.394 . S
C1497 C1503 1.465 . S
C1498 C1493 1.399 . S
C1498 C1497 1.394 . S
C1498 C1499 1.516 . S
C1499 C1498 1.516 . S
C1499 C1500 1.502 . S
C1499 C1501 1.561 . S
C1499 C1502 1.526 . S
C1500 H1484 0.959 . S
C1500 H1485 0.959 . S
C1500 H1486 0.961 . S
C1500 C1499 1.502 . S
C1501 H1487 0.960 . S
C1501 H1488 0.961 . S
C1501 H1489 0.959 . S
C1501 C1499 1.561 . S
C1502 C1499 1.526 . S
C1502 C1503 1.396 . S
C1502 C1507 1.390 . S
C1503 C1497 1.465 . S
C1503 C1502 1.396 . S
C1503 C1504 1.399 . S
C1504 H1490 0.929 . S
C1504 C1503 1.399 . S
C1504 C1505 1.385 . S
C1505 H1491 0.931 . S
C1505 C1504 1.385 . S
C1505 C1506 1.389 . S
C1506 C1505 1.389 . S
C1506 C1507 1.387 . S
C1507 H1492 0.930 . S
C1507 C1502 1.390 . S
C1507 C1506 1.387 . S
H1508 C1520 0.930 . S
H1509 C1522 0.930 . S
H1510 C1523 0.930 . S
H1511 C1527 0.959 . S
H1512 C1527 0.959 . S
H1513 C1527 0.961 . S
H1514 C1528 0.960 . S
H1515 C1528 0.961 . S
H1516 C1528 0.959 . S
H1517 C1531 0.929 . S
H1518 C1532 0.922 1_556 S
H1519 C1534 0.930 . S
C1520 H1508 0.930 . S
C1520 C1521 1.399 . S
C1520 C1525 1.399 . S
C1521 C1520 1.399 . S
C1521 C1522 1.376 . S
C1522 H1509 0.930 . S
C1522 C1521 1.376 . S
C1522 C1523 1.388 . S
C1523 H1510 0.930 . S
C1523 C1522 1.388 . S
C1523 C1524 1.390 . S
C1524 C1523 1.390 . S
C1524 C1525 1.394 . S
C1524 C1530 1.465 . S
C1525 C1520 1.399 . S
C1525 C1524 1.394 . S
C1525 C1526 1.516 . S
C1526 C1525 1.516 . S
C1526 C1527 1.502 . S
C1526 C1528 1.561 . S
C1526 C1529 1.526 . S
C1527 H1511 0.959 . S
C1527 H1512 0.959 . S
C1527 H1513 0.961 . S
C1527 C1526 1.502 . S
C1528 H1514 0.960 . S
C1528 H1515 0.961 . S
C1528 H1516 0.959 . S
C1528 C1526 1.561 . S
C1529 C1526 1.526 . S
C1529 C1530 1.396 . S
C1529 C1534 1.390 . S
C1530 C1524 1.465 . S
C1530 C1529 1.396 . S
C1530 C1531 1.399 . S
C1531 H1517 0.929 . S
C1531 C1530 1.399 . S
C1531 C1532 1.385 . S
C1532 H1518 0.922 1_554 S
C1532 C1531 1.385 . S
C1532 C1533 1.389 . S
C1533 C1532 1.389 . S
C1533 C1534 1.387 . S
C1534 H1519 0.930 . S
C1534 C1529 1.390 . S
C1534 C1533 1.387 . S
H1535 C1547 0.930 . S
H1536 C1549 0.930 1_554 S
H1537 C1550 0.930 . S
H1538 C1554 0.959 . S
H1539 C1554 0.959 . S
H1540 C1554 0.961 . S
H1541 C1555 0.960 . S
H1542 C1555 0.961 . S
H1543 C1555 0.959 . S
H1544 C1558 0.929 . S
H1545 C1559 0.931 . S
H1546 C1561 0.930 . S
C1547 H1535 0.930 . S
C1547 C1548 1.399 . S
C1547 C1552 1.399 . S
C1548 C1547 1.399 . S
C1548 C1549 1.376 . S
C1549 H1536 0.930 1_556 S
C1549 C1548 1.376 . S
C1549 C1550 1.388 . S
C1550 H1537 0.930 . S
C1550 C1549 1.388 . S
C1550 C1551 1.390 . S
C1551 C1550 1.390 . S
C1551 C1552 1.394 . S
C1551 C1557 1.465 . S
C1552 C1547 1.399 . S
C1552 C1551 1.394 . S
C1552 C1553 1.516 . S
C1553 C1552 1.516 . S
C1553 C1554 1.502 . S
C1553 C1555 1.561 . S
C1553 C1556 1.526 . S
C1554 H1538 0.959 . S
C1554 H1539 0.959 . S
C1554 H1540 0.961 . S
C1554 C1553 1.502 . S
C1555 H1541 0.960 . S
C1555 H1542 0.961 . S
C1555 H1543 0.959 . S
C1555 C1553 1.561 . S
C1556 C1553 1.526 . S
C1556 C1557 1.396 . S
C1556 C1561 1.390 . S
C1557 C1551 1.465 . S
C1557 C1556 1.396 . S
C1557 C1558 1.399 . S
C1558 H1544 0.929 . S
C1558 C1557 1.399 . S
C1558 C1559 1.385 . S
C1559 H1545 0.931 . S
C1559 C1558 1.385 . S
C1559 C1560 1.389 . S
C1560 C1559 1.389 . S
C1560 C1561 1.387 . S
C1561 H1546 0.930 . S
C1561 C1556 1.390 . S
C1561 C1560 1.387 . S
H1562 C1574 0.930 . S
H1563 C1576 0.930 . S
H1564 C1577 0.930 . S
H1565 C1581 0.959 . S
H1566 C1581 0.959 . S
H1567 C1581 0.961 . S
H1568 C1582 0.960 . S
H1569 C1582 0.961 . S
H1570 C1582 0.959 . S
H1571 C1585 0.929 . S
H1572 C1586 0.931 . S
H1573 C1588 0.930 . S
C1574 H1562 0.930 . S
C1574 C1575 1.399 . S
C1574 C1579 1.399 . S
C1575 C1574 1.399 . S
C1575 C1576 1.376 . S
C1576 H1563 0.930 . S
C1576 C1575 1.376 . S
C1576 C1577 1.388 . S
C1577 H1564 0.930 . S
C1577 C1576 1.388 . S
C1577 C1578 1.390 . S
C1578 C1577 1.390 . S
C1578 C1579 1.394 . S
C1578 C1584 1.465 . S
C1579 C1574 1.399 . S
C1579 C1578 1.394 . S
C1579 C1580 1.516 . S
C1580 C1579 1.516 . S
C1580 C1581 1.502 . S
C1580 C1582 1.561 . S
C1580 C1583 1.526 . S
C1581 H1565 0.959 . S
C1581 H1566 0.959 . S
C1581 H1567 0.961 . S
C1581 C1580 1.502 . S
C1582 H1568 0.960 . S
C1582 H1569 0.961 . S
C1582 H1570 0.959 . S
C1582 C1580 1.561 . S
C1583 C1580 1.526 . S
C1583 C1584 1.396 . S
C1583 C1588 1.390 . S
C1584 C1578 1.465 . S
C1584 C1583 1.396 . S
C1584 C1585 1.399 . S
C1585 H1571 0.929 . S
C1585 C1584 1.399 . S
C1585 C1586 1.385 . S
C1586 H1572 0.931 . S
C1586 C1585 1.385 . S
C1586 C1587 1.389 . S
C1587 C1586 1.389 . S
C1587 C1588 1.387 . S
C1588 H1573 0.930 . S
C1588 C1583 1.390 . S
C1588 C1587 1.387 . S
H1589 C1601 0.930 . S
H1590 C1603 0.930 . S
H1591 C1604 0.930 . S
H1592 C1608 0.959 . S
H1593 C1608 0.959 . S
H1594 C1608 0.961 . S
H1595 C1609 0.960 . S
H1596 C1609 0.961 . S
H1597 C1609 0.959 . S
H1598 C1612 0.929 . S
H1599 C1613 0.931 . S
H1600 C1615 0.930 . S
C1601 H1589 0.930 . S
C1601 C1602 1.399 . S
C1601 C1606 1.399 . S
C1602 C1601 1.399 . S
C1602 C1603 1.376 . S
C1603 H1590 0.930 . S
C1603 C1602 1.376 . S
C1603 C1604 1.388 . S
C1604 H1591 0.930 . S
C1604 C1603 1.388 . S
C1604 C1605 1.390 . S
C1605 C1604 1.390 . S
C1605 C1606 1.394 . S
C1605 C1611 1.465 . S
C1606 C1601 1.399 . S
C1606 C1605 1.394 . S
C1606 C1607 1.516 . S
C1607 C1606 1.516 . S
C1607 C1608 1.502 . S
C1607 C1609 1.561 . S
C1607 C1610 1.526 . S
C1608 H1592 0.959 . S
C1608 H1593 0.959 . S
C1608 H1594 0.961 . S
C1608 C1607 1.502 . S
C1609 H1595 0.960 . S
C1609 H1596 0.961 . S
C1609 H1597 0.959 . S
C1609 C1607 1.561 . S
C1610 C1607 1.526 . S
C1610 C1611 1.396 . S
C1610 C1615 1.390 . S
C1611 C1605 1.465 . S
C1611 C1610 1.396 . S
C1611 C1612 1.399 . S
C1612 H1598 0.929 . S
C1612 C1611 1.399 . S
C1612 C1613 1.385 . S
C1613 H1599 0.931 . S
C1613 C1612 1.385 . S
C1613 C1614 1.389 . S
C1614 C1613 1.389 . S
C1614 C1615 1.387 . S
C1615 H1600 0.930 . S
C1615 C1610 1.390 . S
C1615 C1614 1.387 . S
C333 C12 1.046 . S
C345 C142 1.028 . S
C360 C32 0.955 . S
C372 C82 0.920 . S
C387 C102 0.865 . S
C399 C52 0.995 . S
C414 C72 0.952 . S
C426 C122 0.837 . S
C441 C224 1.014 . S
C453 C89 1.042 . S
C468 C169 1.048 . S
C480 C4 1.003 . S
C495 C204 0.971 . S
C507 C129 1.054 . S
C522 C44 0.841 . S
C534 C189 0.967 . S
C549 C182 0.889 . S
C561 C252 1.011 . S
C576 C212 0.981 . S
C588 C282 0.971 . S
C603 C272 1.031 . S
C615 C162 1.025 . S
C630 C232 1.056 . S
C642 C302 1.007 . S
C657 C289 0.974 . S
C669 C64 1.007 . S
C684 C244 0.862 . S
C696 C109 0.953 . S
C711 C24 0.835 . S
C723 C309 0.990 . S
C738 C149 1.054 . S
C750 C264 0.983 . S
C765 C278 0.616 . S
C777 C18 0.601 . S
C792 C238 0.611 . S
C804 C38 0.589 . S
C819 C258 0.602 . S
C831 C58 0.572 . S
C846 C218 0.588 . S
C858 C78 0.553 . S
C873 C99 0.500 . S
C885 C319 0.430 . S
C900 C199 0.512 . S
C912 C119 0.433 . S
C927 C139 0.557 . S
C939 C299 0.613 . S
C954 C159 0.570 . S
C966 C179 0.615 . S
C981 C19 1.544 . S
C993 C98 1.487 . S
C1008 C39 1.566 . S
C1020 C118 1.483 . S
C1035 C138 1.472 . S
C1047 C59 1.565 . S
C1062 C79 1.473 . S
C1074 C158 1.561 . S
C1089 C219 1.563 . S
C1101 C178 1.474 . S
C1116 C239 1.490 . S
C1128 C198 1.561 . S
C1143 C259 1.569 . S
C1155 C298 1.474 . S
C1170 C318 1.478 . S
C1182 C279 1.554 . S
C1197 C2 1.594 . S
C1209 C152 1.491 . S
C1224 C22 1.516 . S
C1236 C92 1.487 . S
C1251 C112 1.467 1_556 S
C1263 C42 1.524 . S
C1278 C132 1.469 . S
C1290 C62 1.574 1_554 S
C1305 C229 1.511 . S
C1317 C84 1.584 . S
C1332 C164 1.526 . S
C1344 C9 1.493 . S
C1359 C209 1.551 1_554 S
C1371 C124 1.573 . S
C1386 C49 1.458 . S
C1398 C184 1.521 1_556 S
C1413 C242 1.535 . S
C1425 C192 1.541 1_556 S
C1440 C292 1.541 . S
C1452 C202 1.536 1_554 S
C1467 C262 1.518 . S
C1479 C172 1.509 . S
C1494 C312 1.533 . S
C1506 C222 1.530 . S
C1521 C284 1.523 . S
C1533 C69 1.489 1_554 S
C1548 C104 1.593 1_556 S
C1560 C249 1.523 . S
C1575 C29 1.499 . S
C1587 C304 1.575 . S
C1602 C269 1.494 . S
C1614 C144 1.528 . S
