# Generated by pormake.
# Topology ech, (8)-cn, num edge types: 1
# Building blocks:
#     Node 0, Type 0, BuildingBlock: EBIMEJ_clean_sbu_0, # of connection points: 8
#     Node 1, Type 0, BuildingBlock: EBIMEJ_clean_sbu_0, # of connection points: 8
#     Node 2, Type 0, BuildingBlock: EBIMEJ_clean_sbu_0, # of connection points: 8
#     Node 3, Type 0, BuildingBlock: EBIMEJ_clean_sbu_0, # of connection points: 8
#     Node 4, Type 0, BuildingBlock: EBIMEJ_clean_sbu_0, # of connection points: 8
#     Node 5, Type 0, BuildingBlock: EBIMEJ_clean_sbu_0, # of connection points: 8
#     Node 6, Type 0, BuildingBlock: EBIMEJ_clean_sbu_0, # of connection points: 8
#     Node 7, Type 0, BuildingBlock: EBIMEJ_clean_sbu_0, # of connection points: 8
#     Node 8, Type 0, BuildingBlock: EBIMEJ_clean_sbu_0, # of connection points: 8
#     Node 9, Type 0, BuildingBlock: EBIMEJ_clean_sbu_0, # of connection points: 8
#     Node 10, Type 0, BuildingBlock: EBIMEJ_clean_sbu_0, # of connection points: 8
#     Node 11, Type 0, BuildingBlock: EBIMEJ_clean_sbu_0, # of connection points: 8
#     Node 12, Type 0, BuildingBlock: EBIMEJ_clean_sbu_0, # of connection points: 8
#     Node 13, Type 0, BuildingBlock: EBIMEJ_clean_sbu_0, # of connection points: 8
#     Node 14, Type 0, BuildingBlock: EBIMEJ_clean_sbu_0, # of connection points: 8
#     Node 15, Type 0, BuildingBlock: EBIMEJ_clean_sbu_0, # of connection points: 8
#     Node 16, Type 0, BuildingBlock: EBIMEJ_clean_sbu_0, # of connection points: 8
#     Node 17, Type 0, BuildingBlock: EBIMEJ_clean_sbu_0, # of connection points: 8
#     Node 18, Type 0, BuildingBlock: EBIMEJ_clean_sbu_0, # of connection points: 8
#     Node 19, Type 0, BuildingBlock: EBIMEJ_clean_sbu_0, # of connection points: 8
#     Node 20, Type 0, BuildingBlock: EBIMEJ_clean_sbu_0, # of connection points: 8
#     Node 21, Type 0, BuildingBlock: EBIMEJ_clean_sbu_0, # of connection points: 8
#     Node 22, Type 0, BuildingBlock: EBIMEJ_clean_sbu_0, # of connection points: 8
#     Node 23, Type 0, BuildingBlock: EBIMEJ_clean_sbu_0, # of connection points: 8
#     Edge 24, Type (0, 0), BuildingBlock: ZUJKAS_clean_linker_0, # of connection points: 2
#     Edge 25, Type (0, 0), BuildingBlock: ZUJKAS_clean_linker_0, # of connection points: 2
#     Edge 26, Type (0, 0), BuildingBlock: ZUJKAS_clean_linker_0, # of connection points: 2
#     Edge 27, Type (0, 0), BuildingBlock: ZUJKAS_clean_linker_0, # of connection points: 2
#     Edge 28, Type (0, 0), BuildingBlock: ZUJKAS_clean_linker_0, # of connection points: 2
#     Edge 29, Type (0, 0), BuildingBlock: ZUJKAS_clean_linker_0, # of connection points: 2
#     Edge 30, Type (0, 0), BuildingBlock: ZUJKAS_clean_linker_0, # of connection points: 2
#     Edge 31, Type (0, 0), BuildingBlock: ZUJKAS_clean_linker_0, # of connection points: 2
#     Edge 32, Type (0, 0), BuildingBlock: ZUJKAS_clean_linker_0, # of connection points: 2
#     Edge 33, Type (0, 0), BuildingBlock: ZUJKAS_clean_linker_0, # of connection points: 2
#     Edge 34, Type (0, 0), BuildingBlock: ZUJKAS_clean_linker_0, # of connection points: 2
#     Edge 35, Type (0, 0), BuildingBlock: ZUJKAS_clean_linker_0, # of connection points: 2
#     Edge 36, Type (0, 0), BuildingBlock: ZUJKAS_clean_linker_0, # of connection points: 2
#     Edge 37, Type (0, 0), BuildingBlock: ZUJKAS_clean_linker_0, # of connection points: 2
#     Edge 38, Type (0, 0), BuildingBlock: ZUJKAS_clean_linker_0, # of connection points: 2
#     Edge 39, Type (0, 0), BuildingBlock: ZUJKAS_clean_linker_0, # of connection points: 2
#     Edge 40, Type (0, 0), BuildingBlock: ZUJKAS_clean_linker_0, # of connection points: 2
#     Edge 41, Type (0, 0), BuildingBlock: ZUJKAS_clean_linker_0, # of connection points: 2
#     Edge 42, Type (0, 0), BuildingBlock: ZUJKAS_clean_linker_0, # of connection points: 2
#     Edge 43, Type (0, 0), BuildingBlock: ZUJKAS_clean_linker_0, # of connection points: 2
#     Edge 44, Type (0, 0), BuildingBlock: ZUJKAS_clean_linker_0, # of connection points: 2
#     Edge 45, Type (0, 0), BuildingBlock: ZUJKAS_clean_linker_0, # of connection points: 2
#     Edge 46, Type (0, 0), BuildingBlock: ZUJKAS_clean_linker_0, # of connection points: 2
#     Edge 47, Type (0, 0), BuildingBlock: ZUJKAS_clean_linker_0, # of connection points: 2
#     Edge 48, Type (0, 0), BuildingBlock: ZUJKAS_clean_linker_0, # of connection points: 2
#     Edge 49, Type (0, 0), BuildingBlock: ZUJKAS_clean_linker_0, # of connection points: 2
#     Edge 50, Type (0, 0), BuildingBlock: ZUJKAS_clean_linker_0, # of connection points: 2
#     Edge 51, Type (0, 0), BuildingBlock: ZUJKAS_clean_linker_0, # of connection points: 2
#     Edge 52, Type (0, 0), BuildingBlock: ZUJKAS_clean_linker_0, # of connection points: 2
#     Edge 53, Type (0, 0), BuildingBlock: ZUJKAS_clean_linker_0, # of connection points: 2
#     Edge 54, Type (0, 0), BuildingBlock: ZUJKAS_clean_linker_0, # of connection points: 2
#     Edge 55, Type (0, 0), BuildingBlock: ZUJKAS_clean_linker_0, # of connection points: 2
#     Edge 56, Type (0, 0), BuildingBlock: ZUJKAS_clean_linker_0, # of connection points: 2
#     Edge 57, Type (0, 0), BuildingBlock: ZUJKAS_clean_linker_0, # of connection points: 2
#     Edge 58, Type (0, 0), BuildingBlock: ZUJKAS_clean_linker_0, # of connection points: 2
#     Edge 59, Type (0, 0), BuildingBlock: ZUJKAS_clean_linker_0, # of connection points: 2
#     Edge 60, Type (0, 0), BuildingBlock: ZUJKAS_clean_linker_0, # of connection points: 2
#     Edge 61, Type (0, 0), BuildingBlock: ZUJKAS_clean_linker_0, # of connection points: 2
#     Edge 62, Type (0, 0), BuildingBlock: ZUJKAS_clean_linker_0, # of connection points: 2
#     Edge 63, Type (0, 0), BuildingBlock: ZUJKAS_clean_linker_0, # of connection points: 2
#     Edge 64, Type (0, 0), BuildingBlock: ZUJKAS_clean_linker_0, # of connection points: 2
#     Edge 65, Type (0, 0), BuildingBlock: ZUJKAS_clean_linker_0, # of connection points: 2
#     Edge 66, Type (0, 0), BuildingBlock: ZUJKAS_clean_linker_0, # of connection points: 2
#     Edge 67, Type (0, 0), BuildingBlock: ZUJKAS_clean_linker_0, # of connection points: 2
#     Edge 68, Type (0, 0), BuildingBlock: ZUJKAS_clean_linker_0, # of connection points: 2
#     Edge 69, Type (0, 0), BuildingBlock: ZUJKAS_clean_linker_0, # of connection points: 2
#     Edge 70, Type (0, 0), BuildingBlock: ZUJKAS_clean_linker_0, # of connection points: 2
#     Edge 71, Type (0, 0), BuildingBlock: ZUJKAS_clean_linker_0, # of connection points: 2
#     Edge 72, Type (0, 0), BuildingBlock: ZUJKAS_clean_linker_0, # of connection points: 2
#     Edge 73, Type (0, 0), BuildingBlock: ZUJKAS_clean_linker_0, # of connection points: 2
#     Edge 74, Type (0, 0), BuildingBlock: ZUJKAS_clean_linker_0, # of connection points: 2
#     Edge 75, Type (0, 0), BuildingBlock: ZUJKAS_clean_linker_0, # of connection points: 2
#     Edge 76, Type (0, 0), BuildingBlock: ZUJKAS_clean_linker_0, # of connection points: 2
#     Edge 77, Type (0, 0), BuildingBlock: ZUJKAS_clean_linker_0, # of connection points: 2
#     Edge 78, Type (0, 0), BuildingBlock: ZUJKAS_clean_linker_0, # of connection points: 2
#     Edge 79, Type (0, 0), BuildingBlock: ZUJKAS_clean_linker_0, # of connection points: 2
#     Edge 80, Type (0, 0), BuildingBlock: ZUJKAS_clean_linker_0, # of connection points: 2
#     Edge 81, Type (0, 0), BuildingBlock: ZUJKAS_clean_linker_0, # of connection points: 2
#     Edge 82, Type (0, 0), BuildingBlock: ZUJKAS_clean_linker_0, # of connection points: 2
#     Edge 83, Type (0, 0), BuildingBlock: ZUJKAS_clean_linker_0, # of connection points: 2
#     Edge 84, Type (0, 0), BuildingBlock: ZUJKAS_clean_linker_0, # of connection points: 2
#     Edge 85, Type (0, 0), BuildingBlock: ZUJKAS_clean_linker_0, # of connection points: 2
#     Edge 86, Type (0, 0), BuildingBlock: ZUJKAS_clean_linker_0, # of connection points: 2
#     Edge 87, Type (0, 0), BuildingBlock: ZUJKAS_clean_linker_0, # of connection points: 2
#     Edge 88, Type (0, 0), BuildingBlock: ZUJKAS_clean_linker_0, # of connection points: 2
#     Edge 89, Type (0, 0), BuildingBlock: ZUJKAS_clean_linker_0, # of connection points: 2
#     Edge 90, Type (0, 0), BuildingBlock: ZUJKAS_clean_linker_0, # of connection points: 2
#     Edge 91, Type (0, 0), BuildingBlock: ZUJKAS_clean_linker_0, # of connection points: 2
#     Edge 92, Type (0, 0), BuildingBlock: ZUJKAS_clean_linker_0, # of connection points: 2
#     Edge 93, Type (0, 0), BuildingBlock: ZUJKAS_clean_linker_0, # of connection points: 2
#     Edge 94, Type (0, 0), BuildingBlock: ZUJKAS_clean_linker_0, # of connection points: 2
#     Edge 95, Type (0, 0), BuildingBlock: ZUJKAS_clean_linker_0, # of connection points: 2
#     Edge 96, Type (0, 0), BuildingBlock: ZUJKAS_clean_linker_0, # of connection points: 2
#     Edge 97, Type (0, 0), BuildingBlock: ZUJKAS_clean_linker_0, # of connection points: 2
#     Edge 98, Type (0, 0), BuildingBlock: ZUJKAS_clean_linker_0, # of connection points: 2
#     Edge 99, Type (0, 0), BuildingBlock: ZUJKAS_clean_linker_0, # of connection points: 2
#     Edge 100, Type (0, 0), BuildingBlock: ZUJKAS_clean_linker_0, # of connection points: 2
#     Edge 101, Type (0, 0), BuildingBlock: ZUJKAS_clean_linker_0, # of connection points: 2
#     Edge 102, Type (0, 0), BuildingBlock: ZUJKAS_clean_linker_0, # of connection points: 2
#     Edge 103, Type (0, 0), BuildingBlock: ZUJKAS_clean_linker_0, # of connection points: 2
#     Edge 104, Type (0, 0), BuildingBlock: ZUJKAS_clean_linker_0, # of connection points: 2
#     Edge 105, Type (0, 0), BuildingBlock: ZUJKAS_clean_linker_0, # of connection points: 2
#     Edge 106, Type (0, 0), BuildingBlock: ZUJKAS_clean_linker_0, # of connection points: 2
#     Edge 107, Type (0, 0), BuildingBlock: ZUJKAS_clean_linker_0, # of connection points: 2
#     Edge 108, Type (0, 0), BuildingBlock: ZUJKAS_clean_linker_0, # of connection points: 2
#     Edge 109, Type (0, 0), BuildingBlock: ZUJKAS_clean_linker_0, # of connection points: 2
#     Edge 110, Type (0, 0), BuildingBlock: ZUJKAS_clean_linker_0, # of connection points: 2
#     Edge 111, Type (0, 0), BuildingBlock: ZUJKAS_clean_linker_0, # of connection points: 2
#     Edge 112, Type (0, 0), BuildingBlock: ZUJKAS_clean_linker_0, # of connection points: 2
#     Edge 113, Type (0, 0), BuildingBlock: ZUJKAS_clean_linker_0, # of connection points: 2
#     Edge 114, Type (0, 0), BuildingBlock: ZUJKAS_clean_linker_0, # of connection points: 2
#     Edge 115, Type (0, 0), BuildingBlock: ZUJKAS_clean_linker_0, # of connection points: 2
#     Edge 116, Type (0, 0), BuildingBlock: ZUJKAS_clean_linker_0, # of connection points: 2
#     Edge 117, Type (0, 0), BuildingBlock: ZUJKAS_clean_linker_0, # of connection points: 2
#     Edge 118, Type (0, 0), BuildingBlock: ZUJKAS_clean_linker_0, # of connection points: 2
#     Edge 119, Type (0, 0), BuildingBlock: ZUJKAS_clean_linker_0, # of connection points: 2
# Relax obj value: 0.213
# Max RMSD: 0.240
# Mean RMSD: 0.240
data_MOF--net-ech--node1-EBIMEJ_clean_sbu_0--edge1-ZUJKAS_clean_linker_0
_symmetry_space_group_name_H-M    P1
_symmetry_Int_Tables_number       1
_symmetry_cell_setting            triclinic
loop_
_symmetry_equiv_pos_as_xyz
'x, y, z'
_cell_length_a     62.259606
_cell_length_b     62.20724
_cell_length_c     62.250192
_cell_angle_alpha  90.005811
_cell_angle_beta   89.995147
_cell_angle_gamma 89.975903
loop_
_atom_site_label
_atom_site_type_symbol
_atom_site_fract_x
_atom_site_fract_y
_atom_site_fract_z
_atom_type_partial_charge
Co0 Co 0.16696 0.27765 0.4244 0.0
Co1 Co 0.13774 0.29699 0.46674 0.0
Co2 Co 0.13633 0.31882 0.42364 0.0
H3 H 0.15229 0.29996 0.43014 0.0
O4 O 0.15779 0.30247 0.44261 0.0
H5 H 0.12049 0.31353 0.45817 0.0
O6 O 0.11583 0.3099 0.44567 0.0
Co7 Co 0.10397 0.33502 0.4603 0.0
O8 O 0.09788 0.32386 0.48988 0.0
O9 O 0.11705 0.29325 0.4918 0.0
O10 O 0.10809 0.35889 0.43873 0.0
O11 O 0.11592 0.33929 0.40975 0.0
O12 O 0.18148 0.26418 0.39783 0.0
O13 O 0.19564 0.26099 0.42778 0.0
O14 O 0.12801 0.35108 0.47413 0.0
O15 O 0.15027 0.32372 0.48098 0.0
C16 C 0.17097 0.3148 0.39152 0.0
C17 C 0.17215 0.26523 0.47387 0.0
C18 C 0.06522 0.34172 0.45424 0.0
C19 C 0.1251 0.27554 0.4022 0.0
C20 C 0.10308 0.30651 0.4994 0.0
C21 C 0.10923 0.35667 0.41842 0.0
C22 C 0.19724 0.25685 0.40807 0.0
C23 C 0.14522 0.3437 0.48224 0.0
O24 O 0.17505 0.29548 0.39743 0.0
O25 O 0.15764 0.32668 0.40153 0.0
O26 O 0.15956 0.27945 0.4819 0.0
O27 O 0.17495 0.26278 0.45344 0.0
O28 O 0.07763 0.35465 0.4635 0.0
O29 O 0.07481 0.32493 0.44845 0.0
O30 O 0.14019 0.26484 0.41095 0.0
O31 O 0.1235 0.29588 0.40465 0.0
Co32 Co 0.35465 0.74515 0.92453 0.0
Co33 Co 0.38218 0.72468 0.96711 0.0
Co34 Co 0.38471 0.70349 0.92375 0.0
H35 H 0.36886 0.72249 0.93008 0.0
O36 O 0.3629 0.71982 0.9423 0.0
H37 H 0.39935 0.70802 0.95887 0.0
O38 O 0.40463 0.71169 0.94663 0.0
Co39 Co 0.41498 0.68602 0.96145 0.0
O40 O 0.41645 0.69428 0.99267 0.0
O41 O 0.40208 0.72744 0.99289 0.0
O42 O 0.41095 0.66263 0.93938 0.0
O43 O 0.40524 0.68279 0.91031 0.0
O44 O 0.34175 0.76678 0.90284 0.0
O45 O 0.32222 0.75218 0.92553 0.0
O46 O 0.39003 0.67003 0.9738 0.0
O47 O 0.36864 0.69809 0.98069 0.0
C48 C 0.35101 0.70858 0.89082 0.0
C49 C 0.34922 0.75789 0.97363 0.0
C50 C 0.45394 0.68022 0.95539 0.0
C51 C 0.39704 0.7469 0.90337 0.0
C52 C 0.41256 0.71209 1.00204 0.0
C53 C 0.4108 0.66503 0.91905 0.0
C54 C 0.32291 0.76494 0.90989 0.0
C55 C 0.3729 0.67791 0.98161 0.0
O56 O 0.34677 0.72778 0.8971 0.0
O57 O 0.36403 0.69639 0.90087 0.0
O58 O 0.36007 0.74235 0.98177 0.0
O59 O 0.3479 0.76132 0.9532 0.0
O60 O 0.44208 0.66762 0.96575 0.0
O61 O 0.44371 0.69621 0.94856 0.0
O62 O 0.38228 0.75773 0.91256 0.0
O63 O 0.39809 0.72646 0.90518 0.0
Co64 Co 0.66686 0.24392 0.59624 0.0
Co65 Co 0.63724 0.22423 0.5543 0.0
Co66 Co 0.63635 0.2026 0.59762 0.0
H67 H 0.65216 0.22151 0.59082 0.0
O68 O 0.65755 0.21897 0.5783 0.0
H69 H 0.62047 0.20741 0.56305 0.0
O70 O 0.6157 0.21098 0.57552 0.0
Co71 Co 0.60457 0.1855 0.56111 0.0
O72 O 0.5992 0.19573 0.53104 0.0
O73 O 0.61619 0.22759 0.52949 0.0
O74 O 0.60792 0.16201 0.5832 0.0
O75 O 0.61622 0.18196 0.61187 0.0
O76 O 0.68127 0.25826 0.6224 0.0
O77 O 0.6959 0.25986 0.59254 0.0
O78 O 0.62997 0.16958 0.54966 0.0
O79 O 0.64997 0.19774 0.53979 0.0
C80 C 0.67103 0.2074 0.62969 0.0
C81 C 0.67126 0.25638 0.54673 0.0
C82 C 0.5656 0.17948 0.5662 0.0
C83 C 0.62496 0.24604 0.6186 0.0
C84 C 0.60318 0.21349 0.52167 0.0
C85 C 0.60931 0.16452 0.60347 0.0
C86 C 0.6973 0.26483 0.61207 0.0
C87 C 0.64628 0.17745 0.54026 0.0
O88 O 0.67542 0.22648 0.62328 0.0
O89 O 0.65762 0.1954 0.61997 0.0
O90 O 0.65865 0.24207 0.53889 0.0
O91 O 0.67434 0.25885 0.56711 0.0
O92 O 0.57871 0.16503 0.561 0.0
O93 O 0.5746 0.1974 0.56835 0.0
O94 O 0.64013 0.25667 0.6099 0.0
O95 O 0.62327 0.22571 0.61619 0.0
Co96 Co 0.85388 0.77695 0.09608 0.0
Co97 Co 0.88235 0.79676 0.05361 0.0
Co98 Co 0.88386 0.81854 0.09667 0.0
H99 H 0.86815 0.79948 0.0903 0.0
O100 O 0.86248 0.80194 0.0779 0.0
H101 H 0.89961 0.81317 0.0621 0.0
O102 O 0.90438 0.80966 0.07459 0.0
Co103 Co 0.916 0.83462 0.05954 0.0
O104 O 0.91754 0.82646 0.02832 0.0
O105 O 0.90276 0.79354 0.02826 0.0
O106 O 0.91289 0.85841 0.0814 0.0
O107 O 0.90411 0.83924 0.11045 0.0
O108 O 0.83942 0.76329 0.1226 0.0
O109 O 0.82495 0.76075 0.09273 0.0
O110 O 0.8917 0.85091 0.04648 0.0
O111 O 0.86937 0.8236 0.03972 0.0
C112 C 0.84974 0.81406 0.12907 0.0
C113 C 0.84825 0.76473 0.04662 0.0
C114 C 0.9551 0.83953 0.06513 0.0
C115 C 0.89588 0.77542 0.11787 0.0
C116 C 0.91349 0.80865 0.01907 0.0
C117 C 0.91117 0.85644 0.10172 0.0
C118 C 0.82347 0.75636 0.11239 0.0
C119 C 0.87435 0.84363 0.03859 0.0
O120 O 0.84615 0.79457 0.12333 0.0
O121 O 0.8625 0.82627 0.11874 0.0
O122 O 0.86054 0.77919 0.03855 0.0
O123 O 0.84575 0.76207 0.06706 0.0
O124 O 0.94447 0.84874 0.05067 0.0
O125 O 0.94356 0.82738 0.07635 0.0
O126 O 0.88132 0.76445 0.10855 0.0
O127 O 0.89676 0.79586 0.11593 0.0
Co128 Co 0.42498 0.16753 0.27676 0.0
Co129 Co 0.46724 0.13894 0.29679 0.0
Co130 Co 0.42422 0.13824 0.3188 0.0
H131 H 0.43068 0.15358 0.29947 0.0
O132 O 0.44315 0.15917 0.30179 0.0
H133 H 0.4586 0.12214 0.31364 0.0
O134 O 0.44609 0.11739 0.31019 0.0
Co135 Co 0.46069 0.10634 0.33559 0.0
O136 O 0.48983 0.09891 0.32405 0.0
O137 O 0.4922 0.11804 0.29346 0.0
O138 O 0.44064 0.11459 0.3597 0.0
O139 O 0.41086 0.11852 0.34038 0.0
O140 O 0.39884 0.18179 0.26218 0.0
O141 O 0.42863 0.1966 0.2609 0.0
O142 O 0.47491 0.13043 0.35115 0.0
O143 O 0.48164 0.15202 0.32322 0.0
C144 C 0.39194 0.17241 0.31369 0.0
C145 C 0.47443 0.1726 0.2643 0.0
C146 C 0.45258 0.0681 0.343 0.0
C147 C 0.40305 0.12551 0.27596 0.0
C148 C 0.49948 0.10389 0.30671 0.0
C149 C 0.42022 0.11461 0.35825 0.0
C150 C 0.40914 0.19791 0.25575 0.0
C151 C 0.48301 0.14743 0.3433 0.0
O152 O 0.39761 0.1755 0.2941 0.0
O153 O 0.40232 0.15994 0.32619 0.0
O154 O 0.48243 0.16034 0.27881 0.0
O155 O 0.454 0.17525 0.26169 0.0
O156 O 0.46126 0.08061 0.35624 0.0
O157 O 0.4486 0.07728 0.32549 0.0
O158 O 0.41266 0.13978 0.26484 0.0
O159 O 0.40471 0.125 0.29644 0.0
Co160 Co 0.09629 0.85448 0.77689 0.0
Co161 Co 0.05361 0.88165 0.79736 0.0
Co162 Co 0.0968 0.88414 0.81878 0.0
H163 H 0.09062 0.86842 0.79963 0.0
O164 O 0.07842 0.86239 0.80222 0.0
H165 H 0.06175 0.89895 0.81388 0.0
O166 O 0.07406 0.90414 0.81034 0.0
Co167 Co 0.05889 0.91487 0.83563 0.0
O168 O 0.02779 0.91675 0.82704 0.0
O169 O 0.02788 0.90152 0.7943 0.0
O170 O 0.08024 0.9092 0.8594 0.0
O171 O 0.10987 0.90453 0.83989 0.0
O172 O 0.12158 0.84103 0.7602 0.0
O173 O 0.09279 0.82448 0.76297 0.0
O174 O 0.04554 0.89058 0.85156 0.0
O175 O 0.04013 0.86807 0.82411 0.0
C176 C 0.12977 0.85052 0.81359 0.0
C177 C 0.04709 0.8483 0.76454 0.0
C178 C 0.0653 0.95368 0.84189 0.0
C179 C 0.11771 0.8968 0.77568 0.0
C180 C 0.01866 0.91247 0.80923 0.0
C181 C 0.10065 0.90926 0.85763 0.0
C182 C 0.11164 0.82403 0.75577 0.0
C183 C 0.03842 0.87298 0.8441 0.0
O184 O 0.12372 0.84681 0.79423 0.0
O185 O 0.11956 0.86326 0.82597 0.0
O186 O 0.03894 0.85956 0.77976 0.0
O187 O 0.06754 0.84675 0.76134 0.0
O188 O 0.06276 0.94007 0.85653 0.0
O189 O 0.06396 0.94533 0.82357 0.0
O190 O 0.10878 0.88201 0.7647 0.0
O191 O 0.11556 0.8978 0.79609 0.0
Co192 Co 0.92465 0.35429 0.74342 0.0
Co193 Co 0.96712 0.38271 0.72396 0.0
Co194 Co 0.92411 0.38448 0.70197 0.0
H195 H 0.93044 0.36865 0.72097 0.0
O196 O 0.94282 0.36294 0.71846 0.0
H197 H 0.95885 0.39994 0.70727 0.0
O198 O 0.94639 0.40481 0.71076 0.0
Co199 Co 0.9613 0.41628 0.68567 0.0
O200 O 0.99075 0.42238 0.69732 0.0
O201 O 0.99225 0.40313 0.72789 0.0
O202 O 0.93981 0.41227 0.66171 0.0
O203 O 0.91056 0.4048 0.68109 0.0
O204 O 0.90263 0.34141 0.76465 0.0
O205 O 0.92648 0.32214 0.75156 0.0
O206 O 0.9747 0.39185 0.66972 0.0
O207 O 0.98162 0.37003 0.69743 0.0
C208 C 0.89132 0.35063 0.70676 0.0
C209 C 0.97382 0.34892 0.7564 0.0
C210 C 0.95522 0.45507 0.67914 0.0
C211 C 0.90235 0.39627 0.74503 0.0
C212 C 1.00003 0.41709 0.71477 0.0
C213 C 0.91946 0.41131 0.66376 0.0
C214 C 0.91034 0.32276 0.76368 0.0
C215 C 0.98285 0.37477 0.67739 0.0
O216 O 0.89701 0.34709 0.72626 0.0
O217 O 0.90176 0.36325 0.69447 0.0
O218 O 0.98197 0.36074 0.74161 0.0
O219 O 0.95336 0.34683 0.75918 0.0
O220 O 0.96392 0.44257 0.66588 0.0
O221 O 0.95006 0.44554 0.69615 0.0
O222 O 0.91072 0.38102 0.75583 0.0
O223 O 0.90522 0.3979 0.72475 0.0
Co224 Co 0.5958 0.66721 0.24433 0.0
Co225 Co 0.55361 0.63897 0.22349 0.0
Co226 Co 0.59698 0.63796 0.20228 0.0
H227 H 0.59032 0.65333 0.22153 0.0
O228 O 0.57794 0.65902 0.21899 0.0
H229 H 0.56244 0.62206 0.20673 0.0
O230 O 0.57485 0.61725 0.21045 0.0
Co231 Co 0.5607 0.60618 0.18473 0.0
O232 O 0.53149 0.59877 0.19604 0.0
O233 O 0.52844 0.61824 0.22637 0.0
O234 O 0.58103 0.61522 0.16104 0.0
O235 O 0.61054 0.61818 0.18094 0.0
O236 O 0.62146 0.68077 0.26039 0.0
O237 O 0.59254 0.69718 0.25859 0.0
O238 O 0.5463 0.6301 0.16912 0.0
O239 O 0.53978 0.65213 0.19676 0.0
C240 C 0.62928 0.67209 0.20782 0.0
C241 C 0.54621 0.67228 0.2563 0.0
C242 C 0.56815 0.56772 0.17732 0.0
C243 C 0.61765 0.62513 0.24537 0.0
C244 C 0.52146 0.60393 0.21312 0.0
C245 C 0.60142 0.61514 0.16282 0.0
C246 C 0.61161 0.69772 0.26524 0.0
C247 C 0.53833 0.64728 0.17674 0.0
O248 O 0.62334 0.67524 0.22731 0.0
O249 O 0.61912 0.65952 0.19524 0.0
O250 O 0.5383 0.66056 0.24127 0.0
O251 O 0.56663 0.67447 0.25938 0.0
O252 O 0.56566 0.58174 0.16303 0.0
O253 O 0.56626 0.57549 0.19583 0.0
O254 O 0.60818 0.63955 0.25641 0.0
O255 O 0.61601 0.62453 0.22489 0.0
Co256 Co 0.27722 0.42526 0.16687 0.0
Co257 Co 0.29625 0.46778 0.13775 0.0
Co258 Co 0.31843 0.42481 0.13625 0.0
H259 H 0.29948 0.43115 0.15219 0.0
O260 O 0.3019 0.44363 0.15773 0.0
H261 H 0.31292 0.45943 0.12059 0.0
O262 O 0.30948 0.44693 0.1158 0.0
Co263 Co 0.33451 0.46191 0.10433 0.0
O264 O 0.32295 0.49135 0.09808 0.0
O265 O 0.29228 0.49283 0.11715 0.0
O266 O 0.35857 0.44076 0.10923 0.0
O267 O 0.33931 0.41128 0.11594 0.0
O268 O 0.25956 0.42902 0.19491 0.0
O269 O 0.26521 0.39863 0.18247 0.0
O270 O 0.35054 0.47497 0.12886 0.0
O271 O 0.32273 0.48242 0.15036 0.0
C272 C 0.31428 0.39225 0.17043 0.0
C273 C 0.26439 0.47467 0.17208 0.0
C274 C 0.34144 0.4562 0.06559 0.0
C275 C 0.27532 0.40303 0.12489 0.0
C276 C 0.30548 0.50063 0.10327 0.0
C277 C 0.35673 0.42036 0.10993 0.0
C278 C 0.25675 0.40916 0.19745 0.0
C279 C 0.34283 0.48336 0.14579 0.0
O280 O 0.29483 0.39791 0.17424 0.0
O281 O 0.32631 0.40262 0.15753 0.0
O282 O 0.27857 0.48274 0.1595 0.0
O283 O 0.26205 0.45422 0.17494 0.0
O284 O 0.35173 0.46914 0.07715 0.0
O285 O 0.32713 0.44655 0.07602 0.0
O286 O 0.26466 0.41149 0.14018 0.0
O287 O 0.29561 0.40578 0.12309 0.0
Co288 Co 0.77843 0.09636 0.85377 0.0
Co289 Co 0.79728 0.05395 0.88209 0.0
Co290 Co 0.8195 0.09681 0.88437 0.0
H291 H 0.80072 0.09061 0.86829 0.0
O292 O 0.8033 0.07826 0.86256 0.0
H293 H 0.8133 0.06219 0.89996 0.0
O294 O 0.80979 0.07475 0.90457 0.0
Co295 Co 0.83409 0.05955 0.91728 0.0
O296 O 0.82227 0.03012 0.92308 0.0
O297 O 0.79282 0.02858 0.90218 0.0
O298 O 0.85866 0.08029 0.9127 0.0
O299 O 0.84018 0.11006 0.90506 0.0
O300 O 0.75094 0.10323 0.83601 0.0
O301 O 0.78117 0.10984 0.82374 0.0
O302 O 0.85042 0.0443 0.89432 0.0
O303 O 0.82429 0.03974 0.8701 0.0
C304 C 0.81522 0.12991 0.85119 0.0
C305 C 0.7651 0.04746 0.8482 0.0
C306 C 0.83972 0.06637 0.95604 0.0
C307 C 0.77634 0.11796 0.89583 0.0
C308 C 0.80525 0.02075 0.91673 0.0
C309 C 0.8573 0.10071 0.91153 0.0
C310 C 0.76134 0.1108 0.82041 0.0
C311 C 0.84378 0.03717 0.8764 0.0
O312 O 0.79565 0.12433 0.84776 0.0
O313 O 0.82769 0.119 0.86324 0.0
O314 O 0.78022 0.03924 0.85956 0.0
O315 O 0.76202 0.06794 0.84661 0.0
O316 O 0.84861 0.05144 0.94577 0.0
O317 O 0.82754 0.07738 0.94433 0.0
O318 O 0.76556 0.10828 0.88134 0.0
O319 O 0.79679 0.11639 0.89679 0.0
Co320 Co 0.74434 0.92559 0.35337 0.0
Co321 Co 0.72427 0.96765 0.38218 0.0
Co322 Co 0.70225 0.92468 0.38237 0.0
H323 H 0.72163 0.93126 0.36723 0.0
O324 O 0.71934 0.94378 0.36173 0.0
H325 H 0.70723 0.95895 0.39876 0.0
O326 O 0.71061 0.94639 0.40345 0.0
Co327 Co 0.68514 0.96102 0.41438 0.0
O328 O 0.69666 0.99019 0.42187 0.0
O329 O 0.7276 0.99237 0.40327 0.0
O330 O 0.66115 0.94076 0.40612 0.0
O331 O 0.68066 0.9111 0.4018 0.0
O332 O 0.76643 0.90433 0.34057 0.0
O333 O 0.75142 0.92674 0.32099 0.0
O334 O 0.66967 0.97466 0.38988 0.0
O335 O 0.69798 0.98237 0.36912 0.0
C336 C 0.70793 0.89219 0.34857 0.0
C337 C 0.75708 0.97503 0.34891 0.0
C338 C 0.67819 0.95359 0.45283 0.0
C339 C 0.74499 0.90319 0.39519 0.0
C340 C 0.71416 0.9997 0.41718 0.0
C341 C 0.66272 0.92033 0.40564 0.0
C342 C 0.76447 0.91134 0.32173 0.0
C343 C 0.67777 0.98327 0.37325 0.0
O344 O 0.72769 0.89755 0.34613 0.0
O345 O 0.69512 0.90294 0.36041 0.0
O346 O 0.74244 0.98296 0.36107 0.0
O347 O 0.7597 0.95461 0.34612 0.0
O348 O 0.66374 0.95696 0.43917 0.0
O349 O 0.69661 0.95464 0.4447 0.0
O350 O 0.75618 0.91257 0.38084 0.0
O351 O 0.72454 0.90517 0.39576 0.0
Co352 Co 0.24288 0.5965 0.66716 0.0
Co353 Co 0.22309 0.55417 0.6381 0.0
Co354 Co 0.20181 0.59755 0.63634 0.0
H355 H 0.22065 0.59096 0.65229 0.0
O356 O 0.218 0.57856 0.65786 0.0
H357 H 0.20663 0.56272 0.62085 0.0
O358 O 0.21029 0.57514 0.61599 0.0
Co359 Co 0.18509 0.56044 0.60451 0.0
O360 O 0.19345 0.52931 0.60256 0.0
O361 O 0.22616 0.52871 0.61778 0.0
O362 O 0.16162 0.58263 0.60794 0.0
O363 O 0.1813 0.61154 0.61596 0.0
O364 O 0.27029 0.60173 0.68566 0.0
O365 O 0.24033 0.61103 0.69674 0.0
O366 O 0.16928 0.54578 0.62817 0.0
O367 O 0.1963 0.54037 0.65118 0.0
C368 C 0.20715 0.63082 0.66941 0.0
C369 C 0.25555 0.54711 0.67181 0.0
C370 C 0.17904 0.56711 0.56573 0.0
C371 C 0.24534 0.61863 0.62512 0.0
C372 C 0.21106 0.51978 0.60681 0.0
C373 C 0.16389 0.60295 0.60926 0.0
C374 C 0.26006 0.6106 0.70069 0.0
C375 C 0.17648 0.53833 0.64575 0.0
O376 O 0.22671 0.62515 0.67262 0.0
O377 O 0.19447 0.61997 0.65756 0.0
O378 O 0.24067 0.53914 0.65997 0.0
O379 O 0.25846 0.56755 0.67419 0.0
O380 O 0.16485 0.56064 0.57851 0.0
O381 O 0.19678 0.56974 0.57495 0.0
O382 O 0.25582 0.61024 0.64058 0.0
O383 O 0.22505 0.61599 0.62315 0.0
Co384 Co 0.91545 0.68671 0.5589 0.0
Co385 Co 0.88409 0.70312 0.59631 0.0
Co386 Co 0.88182 0.72471 0.55322 0.0
H387 H 0.89923 0.70831 0.56151 0.0
O388 O 0.90424 0.71191 0.57388 0.0
H389 H 0.86837 0.72232 0.59019 0.0
O390 O 0.86243 0.71979 0.57794 0.0
Co391 Co 0.85432 0.74499 0.596 0.0
O392 O 0.84618 0.72703 0.62294 0.0
O393 O 0.86307 0.69551 0.61876 0.0
O394 O 0.84639 0.76028 0.56709 0.0
O395 O 0.85967 0.74218 0.53845 0.0
O396 O 0.94323 0.66979 0.55333 0.0
O397 O 0.94326 0.69563 0.5745 0.0
O398 O 0.8819 0.75714 0.60843 0.0
O399 O 0.89745 0.72567 0.61546 0.0
C400 C 0.91309 0.71298 0.51853 0.0
C401 C 0.90868 0.66408 0.6 0.0
C402 C 0.82445 0.7662 0.61251 0.0
C403 C 0.87395 0.67792 0.53766 0.0
C404 C 0.85001 0.70763 0.62886 0.0
C405 C 0.84811 0.75719 0.54661 0.0
C406 C 0.95425 0.68103 0.56594 0.0
C407 C 0.89655 0.7461 0.61753 0.0
O408 O 0.91763 0.69532 0.52785 0.0
O409 O 0.9018 0.7278 0.52754 0.0
O410 O 0.90442 0.68191 0.60929 0.0
O411 O 0.90906 0.66253 0.57958 0.0
O412 O 0.83985 0.75815 0.62275 0.0
O413 O 0.8262 0.7626 0.59271 0.0
O414 O 0.89168 0.67072 0.54471 0.0
O415 O 0.86857 0.69777 0.53973 0.0
Co416 Co 0.60487 0.3341 0.05747 0.0
Co417 Co 0.63604 0.31877 0.09585 0.0
Co418 Co 0.6398 0.29685 0.053 0.0
H419 H 0.62181 0.31305 0.06063 0.0
O420 O 0.61667 0.30945 0.07294 0.0
H421 H 0.65249 0.29999 0.09011 0.0
O422 O 0.65855 0.30273 0.07796 0.0
Co423 Co 0.6672 0.27777 0.09613 0.0
O424 O 0.67454 0.29594 0.12305 0.0
O425 O 0.65618 0.32669 0.11905 0.0
O426 O 0.67448 0.26118 0.06779 0.0
O427 O 0.66268 0.27981 0.0389 0.0
O428 O 0.57881 0.35421 0.05559 0.0
O429 O 0.57631 0.32482 0.07134 0.0
O430 O 0.6408 0.26527 0.11055 0.0
O431 O 0.62249 0.29587 0.11437 0.0
C432 C 0.6064 0.30504 0.0188 0.0
C433 C 0.6107 0.35725 0.09854 0.0
C434 C 0.69859 0.25762 0.11088 0.0
C435 C 0.64522 0.34248 0.03386 0.0
C436 C 0.66965 0.31503 0.12918 0.0
C437 C 0.67351 0.26443 0.04731 0.0
C438 C 0.56673 0.34171 0.06583 0.0
C439 C 0.6249 0.27578 0.11803 0.0
O440 O 0.60009 0.32232 0.02778 0.0
O441 O 0.62035 0.29232 0.02722 0.0
O442 O 0.61496 0.3396 0.10817 0.0
O443 O 0.61105 0.35849 0.07808 0.0
O444 O 0.67999 0.25705 0.11869 0.0
O445 O 0.69924 0.26926 0.09438 0.0
O446 O 0.62665 0.34891 0.03932 0.0
O447 O 0.65233 0.32377 0.03896 0.0
Co448 Co 0.41603 0.83486 0.46116 0.0
Co449 Co 0.38403 0.81885 0.42433 0.0
Co450 Co 0.38273 0.79656 0.46721 0.0
H451 H 0.39982 0.81323 0.45879 0.0
O452 O 0.40457 0.8098 0.44627 0.0
H453 H 0.36822 0.79986 0.4307 0.0
O454 O 0.3627 0.80224 0.44318 0.0
Co455 Co 0.35361 0.77757 0.4249 0.0
O456 O 0.34791 0.79442 0.39659 0.0
O457 O 0.36266 0.8267 0.4023 0.0
O458 O 0.34617 0.76177 0.4536 0.0
O459 O 0.361 0.77876 0.48217 0.0
O460 O 0.44276 0.85392 0.46432 0.0
O461 O 0.44465 0.82462 0.44828 0.0
O462 O 0.38075 0.7649 0.41191 0.0
O463 O 0.39688 0.79611 0.40501 0.0
C464 C 0.41728 0.806 0.49994 0.0
C465 C 0.41011 0.85727 0.41987 0.0
C466 C 0.32033 0.76018 0.4106 0.0
C467 C 0.37483 0.84311 0.48316 0.0
C468 C 0.35102 0.8141 0.39117 0.0
C469 C 0.34878 0.76427 0.47405 0.0
C470 C 0.45467 0.84105 0.45434 0.0
C471 C 0.39559 0.7757 0.4028 0.0
O472 O 0.42219 0.82355 0.49064 0.0
O473 O 0.40348 0.79265 0.4922 0.0
O474 O 0.40425 0.8398 0.41076 0.0
O475 O 0.41082 0.85905 0.44025 0.0
O476 O 0.33408 0.7505 0.42184 0.0
O477 O 0.32545 0.77944 0.40785 0.0
O478 O 0.39193 0.85073 0.47508 0.0
O479 O 0.37003 0.82307 0.48178 0.0
Co480 Co 0.1063 0.18511 0.96117 0.0
Co481 Co 0.13715 0.20236 0.92404 0.0
Co482 Co 0.13779 0.22466 0.96691 0.0
H483 H 0.12134 0.20745 0.95854 0.0
O484 O 0.11634 0.21064 0.94606 0.0
H485 H 0.15237 0.22181 0.93035 0.0
O486 O 0.15794 0.21966 0.94286 0.0
Co487 Co 0.16652 0.24437 0.92449 0.0
O488 O 0.17238 0.22804 0.89595 0.0
O489 O 0.15883 0.19527 0.90199 0.0
O490 O 0.17373 0.26023 0.95323 0.0
O491 O 0.15898 0.24321 0.98183 0.0
O492 O 0.07751 0.17181 0.97055 0.0
O493 O 0.07919 0.19083 0.94316 0.0
O494 O 0.13902 0.25629 0.91163 0.0
O495 O 0.12351 0.22474 0.90478 0.0
C496 C 0.10698 0.21188 1.00129 0.0
C497 C 0.11352 0.16269 0.91998 0.0
C498 C 0.19995 0.2619 0.91083 0.0
C499 C 0.14837 0.1782 0.9813 0.0
C500 C 0.17004 0.2082 0.89075 0.0
C501 C 0.17109 0.25779 0.97368 0.0
C502 C 0.0673 0.17973 0.95506 0.0
C503 C 0.12437 0.24518 0.9026 0.0
O504 O 0.10393 0.19374 0.99225 0.0
O505 O 0.11708 0.22739 0.99203 0.0
O506 O 0.11764 0.18058 0.91071 0.0
O507 O 0.11306 0.1611 0.9404 0.0
O508 O 0.18384 0.27211 0.91756 0.0
O509 O 0.19708 0.242 0.9122 0.0
O510 O 0.13206 0.16974 0.97247 0.0
O511 O 0.15155 0.1986 0.98142 0.0
Co512 Co 0.5589 0.91539 0.68468 0.0
Co513 Co 0.59684 0.88511 0.70155 0.0
Co514 Co 0.55384 0.88272 0.72341 0.0
H515 H 0.56183 0.89982 0.70664 0.0
O516 O 0.57414 0.90512 0.71004 0.0
H517 H 0.59081 0.86942 0.72075 0.0
O518 O 0.57855 0.86344 0.7183 0.0
Co519 Co 0.59669 0.85524 0.7433 0.0
O520 O 0.62489 0.84914 0.72651 0.0
O521 O 0.61958 0.86423 0.69429 0.0
O522 O 0.56835 0.84894 0.76021 0.0
O523 O 0.53951 0.86064 0.74133 0.0
O524 O 0.55164 0.94376 0.66935 0.0
O525 O 0.57519 0.94294 0.69301 0.0
O526 O 0.60959 0.88258 0.75551 0.0
O527 O 0.61564 0.89889 0.7242 0.0
C528 C 0.51874 0.91312 0.71129 0.0
C529 C 0.6005 0.91008 0.66247 0.0
C530 C 0.61058 0.82171 0.7605 0.0
C531 C 0.53877 0.87326 0.67685 0.0
C532 C 0.6305 0.85237 0.70692 0.0
C533 C 0.54787 0.85007 0.75694 0.0
C534 C 0.56528 0.95441 0.67972 0.0
C535 C 0.61817 0.89762 0.74457 0.0
O536 O 0.52782 0.91698 0.69335 0.0
O537 O 0.5281 0.90263 0.72648 0.0
O538 O 0.60975 0.90537 0.68021 0.0
O539 O 0.58009 0.91015 0.66075 0.0
O540 O 0.60406 0.83783 0.77085 0.0
O541 O 0.60885 0.82462 0.74064 0.0
O542 O 0.54636 0.89045 0.66888 0.0
O543 O 0.53998 0.86903 0.69701 0.0
Co544 Co 0.96088 0.10432 0.18657 0.0
Co545 Co 0.92399 0.1368 0.20259 0.0
Co546 Co 0.96728 0.13889 0.22391 0.0
H547 H 0.95876 0.12129 0.20772 0.0
O548 O 0.94633 0.1166 0.21151 0.0
H549 H 0.93059 0.15312 0.22111 0.0
O550 O 0.94298 0.15865 0.21831 0.0
Co551 Co 0.92512 0.16827 0.24317 0.0
O552 O 0.89688 0.17428 0.22647 0.0
O553 O 0.90146 0.15777 0.19486 0.0
O554 O 0.95403 0.1757 0.25856 0.0
O555 O 0.98235 0.16106 0.24101 0.0
O556 O 0.96054 0.0786 0.16594 0.0
O557 O 0.95217 0.07456 0.19805 0.0
O558 O 0.91109 0.14197 0.25651 0.0
O559 O 0.90558 0.12408 0.22597 0.0
C560 C 1.00007 0.10422 0.21495 0.0
C561 C 0.91864 0.10915 0.16524 0.0
C562 C 0.91126 0.20148 0.26106 0.0
C563 C 0.98274 0.1455 0.17706 0.0
C564 C 0.89088 0.17026 0.20715 0.0
C565 C 0.97443 0.17319 0.25568 0.0
C566 C 0.95448 0.0656 0.18013 0.0
C567 C 0.90279 0.12633 0.24619 0.0
O568 O 0.99048 0.09843 0.19784 0.0
O569 O 0.9925 0.1185 0.22786 0.0
O570 O 0.91005 0.116 0.18258 0.0
O571 O 0.93895 0.10797 0.16291 0.0
O572 O 0.92133 0.18685 0.27075 0.0
O573 O 0.90945 0.19729 0.24145 0.0
O574 O 0.97497 0.12794 0.17013 0.0
O575 O 0.98122 0.15111 0.19687 0.0
Co576 Co 0.05891 0.60447 0.33368 0.0
Co577 Co 0.09633 0.63626 0.31818 0.0
Co578 Co 0.05331 0.63935 0.29656 0.0
H579 H 0.06143 0.62146 0.31261 0.0
O580 O 0.07378 0.61653 0.30886 0.0
H581 H 0.09025 0.65267 0.29953 0.0
O582 O 0.078 0.65855 0.30227 0.0
Co583 Co 0.0961 0.66746 0.27733 0.0
O584 O 0.12285 0.67522 0.29562 0.0
O585 O 0.11906 0.65676 0.32627 0.0
O586 O 0.06735 0.67537 0.26176 0.0
O587 O 0.03869 0.66198 0.27967 0.0
O588 O 0.05391 0.57721 0.35156 0.0
O589 O 0.07356 0.57628 0.32453 0.0
O590 O 0.10958 0.64071 0.26439 0.0
O591 O 0.11505 0.62324 0.29516 0.0
C592 C 0.02005 0.60498 0.30485 0.0
C593 C 0.10027 0.6097 0.35614 0.0
C594 C 0.11255 0.6979 0.25693 0.0
C595 C 0.03724 0.64569 0.3433 0.0
C596 C 0.129 0.67038 0.31469 0.0
C597 C 0.04687 0.67362 0.26477 0.0
C598 C 0.06567 0.56576 0.33982 0.0
C599 C 0.11787 0.62521 0.27492 0.0
O600 O 0.0295 0.5987 0.32187 0.0
O601 O 0.02776 0.6195 0.29232 0.0
O602 O 0.10941 0.61522 0.3386 0.0
O603 O 0.07987 0.60944 0.35792 0.0
O604 O 0.12286 0.68256 0.26499 0.0
O605 O 0.0927 0.6958 0.26007 0.0
O606 O 0.04437 0.62782 0.3501 0.0
O607 O 0.03947 0.65164 0.32365 0.0
Co608 Co 0.46152 0.41826 0.83234 0.0
Co609 Co 0.42373 0.38581 0.81749 0.0
Co610 Co 0.46683 0.38258 0.7959 0.0
H611 H 0.45875 0.40068 0.81176 0.0
O612 O 0.44634 0.40547 0.80803 0.0
H613 H 0.42994 0.36914 0.79908 0.0
O614 O 0.44221 0.36336 0.80195 0.0
Co615 Co 0.42423 0.35401 0.77706 0.0
O616 O 0.39778 0.34589 0.7955 0.0
O617 O 0.40078 0.36545 0.82559 0.0
O618 O 0.45298 0.34576 0.76172 0.0
O619 O 0.48153 0.35989 0.77921 0.0
O620 O 0.46165 0.44427 0.85256 0.0
O621 O 0.45055 0.44741 0.82117 0.0
O622 O 0.41016 0.38031 0.76378 0.0
O623 O 0.40528 0.39861 0.79418 0.0
C624 C 0.50035 0.41686 0.80366 0.0
C625 C 0.41959 0.41391 0.85455 0.0
C626 C 0.4079 0.32364 0.75652 0.0
C627 C 0.48555 0.37823 0.84173 0.0
C628 C 0.39126 0.35128 0.81428 0.0
C629 C 0.47342 0.34787 0.76458 0.0
C630 C 0.45398 0.45677 0.83871 0.0
C631 C 0.40218 0.39614 0.77404 0.0
O632 O 0.49111 0.42338 0.82069 0.0
O633 O 0.49231 0.40243 0.79123 0.0
O634 O 0.41047 0.40711 0.83747 0.0
O635 O 0.43997 0.41468 0.8564 0.0
O636 O 0.39761 0.33933 0.76395 0.0
O637 O 0.42765 0.32536 0.76039 0.0
O638 O 0.47956 0.39678 0.84778 0.0
O639 O 0.48092 0.3707 0.82308 0.0
Co640 Co 0.68453 0.55981 0.9142 0.0
Co641 Co 0.70207 0.5976 0.88394 0.0
Co642 Co 0.72377 0.55432 0.88226 0.0
H643 H 0.70671 0.56256 0.89893 0.0
O644 O 0.71008 0.57491 0.90415 0.0
H645 H 0.72115 0.59116 0.86811 0.0
O646 O 0.71865 0.57874 0.86249 0.0
Co647 Co 0.74354 0.59668 0.85333 0.0
O648 O 0.72647 0.62417 0.84557 0.0
O649 O 0.69526 0.62057 0.86316 0.0
O650 O 0.75895 0.56781 0.84569 0.0
O651 O 0.74197 0.5394 0.86078 0.0
O652 O 0.67204 0.5489 0.94283 0.0
O653 O 0.68997 0.57707 0.94183 0.0
O654 O 0.75588 0.61086 0.87998 0.0
O655 O 0.7251 0.6158 0.89767 0.0
C656 C 0.71096 0.51948 0.91238 0.0
C657 C 0.6635 0.60251 0.91037 0.0
C658 C 0.7637 0.61068 0.82157 0.0
C659 C 0.6773 0.5404 0.87181 0.0
C660 C 0.70741 0.63055 0.85006 0.0
C661 C 0.75643 0.54739 0.84846 0.0
C662 C 0.67953 0.56435 0.95345 0.0
C663 C 0.7453 0.61887 0.89559 0.0
O664 O 0.69283 0.52854 0.91547 0.0
O665 O 0.72656 0.52894 0.90262 0.0
O666 O 0.68106 0.61124 0.90415 0.0
O667 O 0.66117 0.58215 0.9111 0.0
O668 O 0.76584 0.61765 0.8404 0.0
O669 O 0.75047 0.59544 0.82089 0.0
O670 O 0.66892 0.54925 0.88817 0.0
O671 O 0.69765 0.54006 0.86863 0.0
Co672 Co 0.18698 0.96096 0.10493 0.0
Co673 Co 0.20276 0.92417 0.13784 0.0
Co674 Co 0.22513 0.96703 0.13849 0.0
H675 H 0.20848 0.95846 0.12138 0.0
O676 O 0.2118 0.94581 0.11686 0.0
H677 H 0.22188 0.93077 0.15331 0.0
O678 O 0.21952 0.94326 0.15883 0.0
Co679 Co 0.24461 0.92515 0.1672 0.0
O680 O 0.22698 0.89799 0.17547 0.0
O681 O 0.19499 0.90264 0.15973 0.0
O682 O 0.26005 0.95394 0.17492 0.0
O683 O 0.24283 0.98234 0.16011 0.0
O684 O 0.1658 0.9609 0.07966 0.0
O685 O 0.19834 0.95556 0.07432 0.0
O686 O 0.25682 0.91402 0.13907 0.0
O687 O 0.22529 0.90434 0.12538 0.0
C688 C 0.21554 0.99994 0.1044 0.0
C689 C 0.16514 0.9187 0.10991 0.0
C690 C 0.26569 0.90885 0.19724 0.0
C691 C 0.17845 0.9818 0.14664 0.0
C692 C 0.20738 0.89236 0.17237 0.0
C693 C 0.25739 0.97438 0.17235 0.0
C694 C 0.18006 0.95704 0.06593 0.0
C695 C 0.24581 0.90359 0.12534 0.0
O696 O 0.19784 0.99091 0.09958 0.0
O697 O 0.22916 0.99172 0.11759 0.0
O698 O 0.18193 0.91002 0.11793 0.0
O699 O 0.16328 0.93897 0.10755 0.0
O700 O 0.25856 0.89862 0.18137 0.0
O701 O 0.26117 0.9285 0.19589 0.0
O702 O 0.17081 0.97263 0.13009 0.0
O703 O 0.19864 0.98187 0.15081 0.0
Co704 Co 0.33516 0.05975 0.606 0.0
Co705 Co 0.31786 0.09728 0.63669 0.0
Co706 Co 0.29679 0.05383 0.63903 0.0
H707 H 0.31329 0.06221 0.62181 0.0
O708 O 0.30963 0.07451 0.61663 0.0
H709 H 0.29872 0.09098 0.65239 0.0
O710 O 0.30133 0.07873 0.65833 0.0
Co711 Co 0.27609 0.09665 0.66658 0.0
O712 O 0.2934 0.124 0.6744 0.0
O713 O 0.32499 0.12 0.65765 0.0
O714 O 0.26099 0.06763 0.67427 0.0
O715 O 0.27923 0.03904 0.66105 0.0
O716 O 0.3563 0.06367 0.58102 0.0
O717 O 0.32341 0.06486 0.57544 0.0
O718 O 0.26388 0.11023 0.63964 0.0
O719 O 0.29504 0.11584 0.62292 0.0
C720 C 0.30951 0.01896 0.60837 0.0
C721 C 0.35678 0.10156 0.61169 0.0
C722 C 0.25502 0.11244 0.6969 0.0
C723 C 0.3436 0.03916 0.64789 0.0
C724 C 0.31273 0.13005 0.67063 0.0
C725 C 0.26415 0.04716 0.67253 0.0
C726 C 0.3418 0.06621 0.56726 0.0
C727 C 0.27474 0.11862 0.62446 0.0
O728 O 0.32703 0.02861 0.60408 0.0
O729 O 0.29428 0.02787 0.6192 0.0
O730 O 0.33895 0.11061 0.61642 0.0
O731 O 0.35875 0.08117 0.61185 0.0
O732 O 0.25998 0.12233 0.68003 0.0
O733 O 0.26164 0.09335 0.69639 0.0
O734 O 0.35105 0.04641 0.63034 0.0
O735 O 0.32359 0.04068 0.65274 0.0
Co736 Co 0.83463 0.4631 0.41552 0.0
Co737 Co 0.81768 0.42487 0.38566 0.0
Co738 Co 0.79605 0.468 0.38254 0.0
H739 H 0.81275 0.46016 0.39982 0.0
O740 O 0.80918 0.44794 0.40522 0.0
H741 H 0.79894 0.43091 0.3693 0.0
O742 O 0.80159 0.44319 0.36345 0.0
Co743 Co 0.77689 0.425 0.35419 0.0
O744 O 0.79376 0.3968 0.34855 0.0
O745 O 0.82516 0.40165 0.36539 0.0
O746 O 0.76041 0.45346 0.34719 0.0
O747 O 0.77832 0.48228 0.36029 0.0
O748 O 0.85163 0.46974 0.44307 0.0
O749 O 0.82584 0.44854 0.44388 0.0
O750 O 0.76402 0.41071 0.38055 0.0
O751 O 0.79439 0.40681 0.39918 0.0
C752 C 0.80786 0.50326 0.4127 0.0
C753 C 0.8557 0.42056 0.4126 0.0
C754 C 0.76 0.41151 0.32031 0.0
C755 C 0.84267 0.48257 0.37317 0.0
C756 C 0.81302 0.39087 0.35294 0.0
C757 C 0.76328 0.47396 0.34892 0.0
C758 C 0.84046 0.45746 0.45453 0.0
C759 C 0.77432 0.40325 0.3966 0.0
O760 O 0.82587 0.49429 0.41658 0.0
O761 O 0.79269 0.49377 0.40231 0.0
O762 O 0.83814 0.41171 0.40664 0.0
O763 O 0.85812 0.44091 0.41255 0.0
O764 O 0.74965 0.42005 0.33544 0.0
O765 O 0.77972 0.411 0.32439 0.0
O766 O 0.8506 0.47457 0.39018 0.0
O767 O 0.82247 0.48201 0.36912 0.0
H768 H 0.04962 0.5409 0.37198 0.0
H769 H 0.05753 0.50309 0.37931 0.0
H770 H 0.0995 0.50096 0.32421 0.0
H771 H 0.09182 0.53895 0.3169 0.0
H772 H 0.05116 0.467 0.35228 0.0
H773 H 0.13725 0.47831 0.37374 0.0
H774 H 0.11854 0.50044 0.37241 0.0
H775 H 0.12897 0.48884 0.34814 0.0
C776 C 0.06053 0.53238 0.36143 0.0
C777 C 0.07015 0.54284 0.34391 0.0
C778 C 0.065 0.51079 0.3656 0.0
C779 C 0.07924 0.49931 0.35242 0.0
C780 C 0.08871 0.50964 0.33475 0.0
H781 H 0.12369 0.36703 0.37806 0.0
H782 H 0.11593 0.40016 0.35789 0.0
C783 C 0.08422 0.53127 0.33055 0.0
C784 C 0.08402 0.47653 0.35734 0.0
H785 H 0.12353 0.44315 0.37567 0.0
C786 C 0.06703 0.46171 0.35717 0.0
C787 C 0.10478 0.4697 0.36361 0.0
C788 C 0.12346 0.48512 0.36468 0.0
C789 C 0.0701 0.44037 0.36373 0.0
C790 C 0.09062 0.43377 0.37083 0.0
C791 C 0.10784 0.44829 0.37009 0.0
C792 C 0.09391 0.41286 0.38161 0.0
C793 C 0.05126 0.42513 0.3635 0.0
C794 C 0.08404 0.40912 0.40149 0.0
C795 C 0.08856 0.39048 0.41304 0.0
C796 C 0.103 0.37514 0.4049 0.0
C797 C 0.11238 0.37853 0.38463 0.0
C798 C 0.10803 0.39742 0.37315 0.0
H799 H 0.0386 0.43056 0.35215 0.0
H800 H 0.0564 0.40864 0.359 0.0
H801 H 0.04409 0.42445 0.37981 0.0
H802 H 0.07334 0.42098 0.40842 0.0
H803 H 0.08101 0.38827 0.42857 0.0
H804 H 0.4309 0.62856 0.93202 0.0
H805 H 0.43641 0.59563 0.91168 0.0
H806 H 0.40872 0.62523 0.85552 0.0
H807 H 0.40302 0.65866 0.87591 0.0
H808 H 0.39844 0.57395 0.8895 0.0
H809 H 0.4684 0.59417 0.83728 0.0
H810 H 0.46418 0.60771 0.86261 0.0
H811 H 0.44665 0.6131 0.84045 0.0
C812 C 0.4261 0.62825 0.91529 0.0
C813 C 0.41628 0.64618 0.90564 0.0
C814 C 0.42932 0.6094 0.9037 0.0
C815 C 0.42292 0.60806 0.88219 0.0
C816 C 0.41385 0.62609 0.87213 0.0
H817 H 0.43948 0.48694 0.81023 0.0
H818 H 0.42989 0.52449 0.81799 0.0
C819 C 0.41061 0.64512 0.88377 0.0
C820 C 0.42462 0.58713 0.87116 0.0
H821 H 0.45734 0.55794 0.83823 0.0
C822 C 0.41105 0.57049 0.87798 0.0
C823 C 0.44105 0.58281 0.85613 0.0
C824 C 0.45602 0.60029 0.84859 0.0
C825 C 0.41411 0.54934 0.87088 0.0
C826 C 0.43136 0.54475 0.85687 0.0
C827 C 0.44419 0.56158 0.84906 0.0
C828 C 0.43745 0.52236 0.85184 0.0
C829 C 0.39928 0.53195 0.87895 0.0
C830 C 0.44515 0.50899 0.86825 0.0
C831 C 0.45073 0.48772 0.86388 0.0
C832 C 0.44866 0.47946 0.843 0.0
C833 C 0.44117 0.49293 0.82649 0.0
C834 C 0.43572 0.51432 0.83086 0.0
H835 H 0.38378 0.53869 0.88469 0.0
H836 H 0.39598 0.51993 0.86618 0.0
H837 H 0.40702 0.5235 0.89261 0.0
H838 H 0.44684 0.51503 0.88449 0.0
H839 H 0.45648 0.47771 0.87691 0.0
H840 H 0.54449 0.98166 0.65248 0.0
H841 H 0.55282 0.01944 0.6453 0.0
H842 H 0.60444 0.01697 0.69143 0.0
H843 H 0.59631 0.97906 0.69855 0.0
H844 H 0.55386 0.05487 0.67377 0.0
H845 H 0.63363 0.0394 0.63645 0.0
H846 H 0.61415 0.01836 0.64076 0.0
H847 H 0.62977 0.02837 0.66285 0.0
C848 C 0.55759 0.98918 0.66112 0.0
C849 C 0.5698 0.97742 0.67601 0.0
C850 C 0.5623 0.01075 0.65703 0.0
C851 C 0.57939 0.02093 0.66766 0.0
C852 C 0.59139 1.00933 0.68283 0.0
H853 H 0.62702 0.15205 0.64182 0.0
H854 H 0.6198 0.11846 0.66145 0.0
C855 C 0.58666 0.98773 0.68695 0.0
C856 C 0.58461 0.04362 0.66259 0.0
H857 H 0.6225 0.07549 0.63891 0.0
C858 C 0.56895 0.05942 0.66633 0.0
C859 C 0.60434 0.0495 0.65294 0.0
C860 C 0.62142 0.03305 0.64782 0.0
C861 C 0.57228 0.08088 0.6602 0.0
C862 C 0.5917 0.0866 0.64996 0.0
C863 C 0.6077 0.07102 0.64695 0.0
C864 C 0.59465 0.10794 0.6399 0.0
C865 C 0.55488 0.09724 0.66428 0.0
C866 C 0.58277 0.11312 0.62149 0.0
C867 C 0.58704 0.132 0.6102 0.0
C868 C 0.60313 0.14619 0.61722 0.0
C869 C 0.61441 0.14148 0.63621 0.0
C870 C 0.61037 0.12231 0.64734 0.0
H871 H 0.54337 0.09167 0.67674 0.0
H872 H 0.56191 0.11282 0.66944 0.0
H873 H 0.54582 0.10004 0.64919 0.0
H874 H 0.57073 0.10213 0.61538 0.0
H875 H 0.57805 0.13525 0.59567 0.0
H876 H 0.89745 0.86597 0.14259 0.0
H877 H 0.90382 0.89958 0.16248 0.0
H878 H 0.94394 0.92256 0.11095 0.0
H879 H 0.9377 0.88936 0.09102 0.0
H880 H 0.95553 0.92585 0.16471 0.0
H881 H 0.88193 0.96192 0.12849 0.0
H882 H 0.88282 0.934 0.13645 0.0
H883 H 0.89747 0.94272 0.11328 0.0
C884 C 0.90794 0.87804 0.13572 0.0
C885 C 0.91693 0.87514 0.11517 0.0
C886 C 0.91151 0.89718 0.14706 0.0
C887 C 0.92427 0.91343 0.13806 0.0
C888 C 0.93404 0.91013 0.11808 0.0
H889 H 0.95463 0.04521 0.14151 0.0
H890 H 0.94615 1.0075 0.13424 0.0
C891 C 0.93037 0.8912 0.1067 0.0
C892 C 0.92636 0.93463 0.14842 0.0
H893 H 0.90577 0.9854 0.14621 0.0
C894 C 0.94446 0.93883 0.16114 0.0
C895 C 0.91194 0.95142 0.14342 0.0
C896 C 0.89236 0.94747 0.1297 0.0
C897 C 0.94894 0.95976 0.16835 0.0
C898 C 0.93491 0.97671 0.16266 0.0
C899 C 0.91642 0.97231 0.15057 0.0
C900 C 0.94009 0.99938 0.16748 0.0
C901 C 0.96916 0.96386 0.18105 0.0
C902 C 0.93935 1.00725 0.18859 0.0
C903 C 0.94413 0.02882 0.19279 0.0
C904 C 0.94976 0.04276 0.17592 0.0
C905 C 0.95045 0.0348 0.15482 0.0
C906 C 0.94557 0.01331 0.15064 0.0
H907 H 0.97961 0.9494 0.18195 0.0
H908 H 0.97843 0.97723 0.17372 0.0
H909 H 0.96483 0.96874 0.19764 0.0
H910 H 0.93493 0.99675 0.20174 0.0
H911 H 0.94339 0.03459 0.20919 0.0
H912 H 0.38021 0.07583 0.54902 0.0
H913 H 0.38773 0.0831 0.5112 0.0
H914 H 0.3208 0.07377 0.49588 0.0
H915 H 0.31307 0.0669 0.53396 0.0
H916 H 0.38108 0.05542 0.47687 0.0
H917 H 0.33432 0.13105 0.46644 0.0
H918 H 0.34074 0.12029 0.49261 0.0
H919 H 0.31985 0.10828 0.47676 0.0
C920 C 0.36708 0.07538 0.53761 0.0
C921 C 0.34607 0.07075 0.54439 0.0
C922 C 0.37138 0.07956 0.51602 0.0
C923 C 0.3548 0.07917 0.50074 0.0
C924 C 0.33376 0.07455 0.50745 0.0
H925 H 0.37713 0.1046 0.36212 0.0
H926 H 0.35799 0.0946 0.39532 0.0
C927 C 0.3294 0.0705 0.52915 0.0
C928 C 0.36 0.08286 0.47779 0.0
H929 H 0.35377 0.11854 0.43647 0.0
C930 C 0.3749 0.06909 0.46797 0.0
C931 C 0.35174 0.10057 0.46611 0.0
C932 C 0.33588 0.11603 0.47598 0.0
C933 C 0.38246 0.073 0.44713 0.0
C934 C 0.37512 0.09135 0.43591 0.0
C935 C 0.35934 0.1045 0.44519 0.0
C936 C 0.38576 0.09843 0.41586 0.0
C937 C 0.39874 0.0578 0.43753 0.0
C938 C 0.40741 0.10443 0.41662 0.0
C939 C 0.41828 0.11001 0.39792 0.0
C940 C 0.40772 0.10992 0.37794 0.0
C941 C 0.38572 0.10473 0.37725 0.0
C942 C 0.3748 0.09902 0.39614 0.0
H943 H 0.39789 0.04164 0.44507 0.0
H944 H 0.39635 0.05607 0.41993 0.0
H945 H 0.41512 0.06427 0.44031 0.0
H946 H 0.41602 0.10453 0.43175 0.0
H947 H 0.43511 0.11425 0.39918 0.0
H948 H 0.20902 0.95089 0.03346 0.0
H949 H 0.20123 0.9452 0.9952 0.0
H950 H 0.13336 0.94941 1.00849 0.0
H951 H 0.14102 0.95554 0.04646 0.0
H952 H 0.17769 0.91288 0.97559 0.0
H953 H 0.14041 0.992 0.95964 0.0
H954 H 0.15597 0.9867 0.98355 0.0
H955 H 0.12823 0.97866 0.98207 0.0
C956 C 0.19246 0.95076 0.02813 0.0
C957 C 0.17562 0.95384 0.04286 0.0
C958 C 0.18804 0.94748 1.00632 0.0
C959 C 0.16674 0.94731 0.99894 0.0
C960 C 0.14993 0.95006 0.01373 0.0
H961 H 0.08533 0.91765 0.89762 0.0
H962 H 0.10524 0.92738 0.92962 0.0
C963 C 0.15433 0.95344 0.03545 0.0
C964 C 0.1618 0.94363 0.97593 0.0
H965 H 0.13225 0.96381 0.93443 0.0
C966 C 0.16812 0.92416 0.96638 0.0
C967 C 0.14953 0.9585 0.9639 0.0
C968 C 0.14334 0.98023 0.97275 0.0
C969 C 0.16112 0.91851 0.94565 0.0
C970 C 0.14768 0.93283 0.93423 0.0
C971 C 0.14249 0.95282 0.94329 0.0
C972 C 0.13639 0.92636 0.91431 0.0
C973 C 0.16702 0.89679 0.93664 0.0
C974 C 0.14736 0.92247 0.89496 0.0
C975 C 0.13593 0.91675 0.87637 0.0
C976 C 0.11339 0.91499 0.87694 0.0
C977 C 0.10264 0.9189 0.89645 0.0
C978 C 0.114 0.9245 0.91484 0.0
H979 H 0.17552 0.88659 0.94859 0.0
H980 H 0.1524 0.88819 0.93113 0.0
H981 H 0.17769 0.89895 0.92253 0.0
H982 H 0.16466 0.92408 0.89418 0.0
H983 H 0.14468 0.91389 0.86161 0.0
H984 H 0.87103 0.47581 0.4799 0.0
H985 H 0.87931 0.46736 0.51741 0.0
H986 H 0.82823 0.42055 0.51832 0.0
H987 H 0.81996 0.42882 0.4807 0.0
H988 H 0.85224 0.46982 0.55407 0.0
H989 H 0.88134 0.38655 0.53902 0.0
H990 H 0.87818 0.40604 0.51777 0.0
H991 H 0.85506 0.39277 0.52878 0.0
C992 C 0.86153 0.46376 0.48811 0.0
C993 C 0.84487 0.45296 0.4774 0.0
C994 C 0.86626 0.45896 0.50952 0.0
C995 C 0.85453 0.44318 0.52056 0.0
C996 C 0.83767 0.43257 0.51 0.0
H997 H 0.87997 0.39574 0.6518 0.0
H998 H 0.86056 0.40364 0.61823 0.0
C999 C 0.83289 0.4374 0.48857 0.0
C1000 C 0.86008 0.43793 0.54311 0.0
H1001 H 0.88123 0.3985 0.57494 0.0
C1002 C 0.85841 0.45417 0.55868 0.0
C1003 C 0.86808 0.41748 0.54907 0.0
C1004 C 0.87097 0.3997 0.53281 0.0
C1005 C 0.86493 0.45064 0.57997 0.0
C1006 C 0.87348 0.43042 0.58577 0.0
C1007 C 0.87448 0.41393 0.57042 0.0
C1008 C 0.8838 0.42687 0.60689 0.0
C1009 C 0.86301 0.46865 0.59607 0.0
C1010 C 0.90313 0.4374 0.61156 0.0
C1011 C 0.91427 0.43278 0.63042 0.0
C1012 C 0.90621 0.41763 0.64511 0.0
C1013 C 0.88643 0.40761 0.64083 0.0
C1014 C 0.87541 0.41203 0.62168 0.0
H1015 H 0.85137 0.48109 0.59073 0.0
H1016 H 0.85792 0.46241 0.61199 0.0
H1017 H 0.87892 0.47645 0.59805 0.0
H1018 H 0.90998 0.44872 0.60024 0.0
H1019 H 0.92942 0.44083 0.63334 0.0
H1020 H 0.6873 0.60069 0.97653 0.0
H1021 H 0.67792 0.60771 0.01401 0.0
H1022 H 0.65322 0.54317 0.01995 0.0
H1023 H 0.66184 0.53637 0.98217 0.0
H1024 H 0.62575 0.57052 0.03545 0.0
H1025 H 0.70519 0.59064 0.06951 0.0
H1026 H 0.69896 0.60734 0.04689 0.0
H1027 H 0.70215 0.57879 0.04323 0.0
C1028 C 0.68012 0.58792 0.98593 0.0
C1029 C 0.67534 0.56796 0.9765 0.0
C1030 C 0.67493 0.59188 1.00742 0.0
C1031 C 0.66527 0.57583 0.02 0.0
C1032 C 0.66081 0.55576 0.01063 0.0
H1033 H 0.63805 0.59103 0.15803 0.0
H1034 H 0.65505 0.5807 0.12381 0.0
C1035 C 0.66573 0.55188 0.98906 0.0
C1036 C 0.65816 0.58054 0.0423 0.0
H1037 H 0.67443 0.60166 0.09033 0.0
C1038 C 0.6365 0.57707 0.04749 0.0
C1039 C 0.6722 0.58879 0.05821 0.0
C1040 C 0.69596 0.59138 0.05425 0.0
C1041 C 0.62834 0.58225 0.06782 0.0
C1042 C 0.64203 0.5919 0.08322 0.0
C1043 C 0.66387 0.59463 0.07838 0.0
C1044 C 0.63362 0.59977 0.1041 0.0
C1045 C 0.60509 0.57719 0.07258 0.0
C1046 C 0.61664 0.61459 0.1044 0.0
C1047 C 0.60679 0.62013 0.12371 0.0
C1048 C 0.61413 0.61148 0.1432 0.0
C1049 C 0.63216 0.59792 0.14317 0.0
C1050 C 0.6418 0.59199 0.12368 0.0
H1051 H 0.59908 0.5639 0.06228 0.0
H1052 H 0.60278 0.57262 0.08966 0.0
H1053 H 0.59513 0.59159 0.06917 0.0
H1054 H 0.61054 0.62137 0.08958 0.0
H1055 H 0.59309 0.63088 0.12336 0.0
H1056 H 0.38967 0.43233 0.08421 0.0
H1057 H 0.4236 0.4137 0.07848 0.0
H1058 H 0.40152 0.36078 0.11738 0.0
H1059 H 0.36712 0.37942 0.12316 0.0
H1060 H 0.45071 0.40212 0.11429 0.0
H1061 H 0.42895 0.33224 0.06263 0.0
H1062 H 0.41221 0.35591 0.06436 0.0
H1063 H 0.41308 0.33727 0.0863 0.0
C1064 C 0.39187 0.4166 0.09136 0.0
C1065 C 0.37581 0.40741 0.1043 0.0
C1066 C 0.41126 0.40598 0.08803 0.0
C1067 C 0.41506 0.38592 0.09752 0.0
C1068 C 0.39877 0.37617 0.10974 0.0
H1069 H 0.53828 0.31683 0.08825 0.0
H1070 H 0.50114 0.32591 0.09803 0.0
C1071 C 0.37917 0.38682 0.11302 0.0
C1072 C 0.43677 0.37639 0.09581 0.0
H1073 H 0.4656 0.33697 0.07079 0.0
C1074 C 0.45396 0.38774 0.10497 0.0
C1075 C 0.44088 0.35755 0.08382 0.0
C1076 C 0.4229 0.34498 0.07357 0.0
C1077 C 0.47526 0.38117 0.10183 0.0
C1078 C 0.47948 0.36298 0.08889 0.0
C1079 C 0.46226 0.351 0.08058 0.0
C1080 C 0.50168 0.35712 0.0827 0.0
C1081 C 0.49308 0.39397 0.11216 0.0
C1082 C 0.51408 0.37151 0.07057 0.0
C1083 C 0.53518 0.3664 0.06499 0.0
C1084 C 0.54423 0.34672 0.07133 0.0
C1085 C 0.53169 0.33213 0.08318 0.0
C1086 C 0.51051 0.33727 0.08875 0.0
H1087 H 0.4872 0.40318 0.12628 0.0
H1088 H 0.50644 0.38335 0.11738 0.0
H1089 H 0.49952 0.40565 0.10033 0.0
H1090 H 0.50742 0.38676 0.06542 0.0
H1091 H 0.54444 0.37791 0.05578 0.0
H1092 H 0.04419 0.19167 0.91979 0.0
H1093 H 1.00645 0.18361 0.91199 0.0
H1094 H 1.00099 0.15032 0.97251 0.0
H1095 H 0.03868 0.15834 0.98043 0.0
H1096 H 0.98826 0.14209 0.90909 0.0
H1097 H 0.94836 0.19081 0.97219 0.0
H1098 H 0.97586 0.19525 0.96401 0.0
H1099 H 0.96939 0.17367 0.98209 0.0
C1100 C 0.03487 0.18283 0.93153 0.0
C1101 C 0.04432 0.1757 0.95076 0.0
C1102 C 0.01334 0.17824 0.92704 0.0
C1103 C 1.00084 0.16667 0.94182 0.0
C1104 C 1.01022 0.15965 0.96109 0.0
H1105 H 0.89106 0.08769 0.93591 0.0
H1106 H 0.92473 0.10661 0.94243 0.0
C1107 C 0.03178 0.16413 0.96554 0.0
C1108 C 0.9784 0.16072 0.93655 0.0
H1109 H 0.92674 0.16406 0.95485 0.0
C1110 C 0.97477 0.14718 0.91888 0.0
C1111 C 0.96082 0.16746 0.94929 0.0
C1112 C 0.9637 0.18277 0.96785 0.0
C1113 C 0.95414 0.1394 0.91424 0.0
C1114 C 0.93676 0.14536 0.92756 0.0
C1115 C 0.94017 0.15956 0.9447 0.0
C1116 C 0.91547 0.1352 0.92502 0.0
C1117 C 0.95104 0.12426 0.89557 0.0
C1118 C 0.89896 0.14532 0.91347 0.0
C1119 C 0.87954 0.13452 0.90968 0.0
C1120 C 0.87655 0.11344 0.91732 0.0
C1121 C 0.89293 0.1038 0.92957 0.0
C1122 C 0.91216 0.11458 0.93338 0.0
H1123 H 0.96554 0.1233 0.8852 0.0
H1124 H 0.94743 0.10791 0.90175 0.0
H1125 H 0.93716 0.12948 0.88565 0.0
H1126 H 0.90133 0.16126 0.9069 0.0
H1127 H 0.86726 0.14233 0.90014 0.0
H1128 H 0.62158 0.93462 0.40408 0.0
H1129 H 0.58884 0.91468 0.41159 0.0
H1130 H 0.62592 0.85733 0.4233 0.0
H1131 H 0.65921 0.87729 0.41561 0.0
H1132 H 0.57434 0.8734 0.39055 0.0
H1133 H 0.58712 0.87062 0.47919 0.0
H1134 H 0.60032 0.89034 0.4625 0.0
H1135 H 0.60874 0.86281 0.46155 0.0
C1136 C 0.6229 0.91775 0.40821 0.0
C1137 C 0.64304 0.90756 0.4094 0.0
C1138 C 0.60413 0.90638 0.4124 0.0
C1139 C 0.60503 0.88464 0.41807 0.0
C1140 C 0.625 0.87418 0.41901 0.0
H1141 H 0.48258 0.81519 0.43248 0.0
H1142 H 0.52024 0.82269 0.42371 0.0
C1143 C 0.64393 0.88556 0.41458 0.0
C1144 C 0.58482 0.87346 0.42347 0.0
H1145 H 0.55358 0.8592 0.46618 0.0
C1146 C 0.56987 0.86983 0.40702 0.0
C1147 C 0.5791 0.86924 0.44501 0.0
C1148 C 0.59454 0.87347 0.46321 0.0
C1149 C 0.54898 0.86274 0.41162 0.0
C1150 C 0.54306 0.85901 0.43324 0.0
C1151 C 0.55826 0.86198 0.44963 0.0
C1152 C 0.52069 0.85377 0.43929 0.0
C1153 C 0.53307 0.86041 0.39348 0.0
C1154 C 0.50867 0.86858 0.45133 0.0
C1155 C 0.48724 0.86433 0.4564 0.0
C1156 C 0.47751 0.84514 0.44959 0.0
C1157 C 0.48968 0.83014 0.43787 0.0
C1158 C 0.51114 0.83442 0.43279 0.0
H1159 H 0.53911 0.86757 0.37828 0.0
H1160 H 0.52992 0.8431 0.3906 0.0
H1161 H 0.51758 0.8682 0.39768 0.0
H1162 H 0.51578 0.88362 0.45647 0.0
H1163 H 0.47824 0.87617 0.46545 0.0
H1164 H 0.98033 0.70273 0.5939 0.0
H1165 H 0.01843 0.69576 0.60142 0.0
H1166 H 0.01774 0.64326 0.55617 0.0
H1167 H 0.9799 0.65025 0.54845 0.0
H1168 H 0.03751 0.6582 0.6171 0.0
H1169 H 0.06964 0.67837 0.53669 0.0
H1170 H 0.04304 0.68617 0.54527 0.0
H1171 H 0.04798 0.65938 0.5355 0.0
C1172 C 0.98839 0.68982 0.58546 0.0
C1173 C 0.97722 0.67714 0.57046 0.0
C1174 C 1.01011 0.68585 0.58978 0.0
C1175 C 0.02102 0.66927 0.57903 0.0
C1176 C 1.00979 0.65647 0.56424 0.0
H1177 H 0.13166 0.59287 0.58171 0.0
H1178 H 0.09866 0.61286 0.57501 0.0
C1179 C 0.98813 0.66041 0.55994 0.0
C1180 C 0.04392 0.66465 0.58373 0.0
H1181 H 0.09246 0.65694 0.55937 0.0
C1182 C 0.04966 0.65833 0.60461 0.0
C1183 C 0.05975 0.66497 0.56743 0.0
C1184 C 0.05487 0.6728 0.54502 0.0
C1185 C 0.07051 0.65101 0.60927 0.0
C1186 C 0.086 0.65025 0.59266 0.0
C1187 C 0.08053 0.65754 0.57205 0.0
C1188 C 0.10701 0.63951 0.5957 0.0
C1189 C 0.07553 0.64298 0.63158 0.0
C1190 C 0.12293 0.64819 0.60914 0.0
C1191 C 0.14202 0.63681 0.61291 0.0
C1192 C 0.14526 0.61653 0.60344 0.0
C1193 C 0.12957 0.60835 0.58941 0.0
C1194 C 0.11071 0.61977 0.58551 0.0
H1195 H 0.06103 0.64238 0.64197 0.0
H1196 H 0.0827 0.62665 0.63081 0.0
H1197 H 0.08746 0.65379 0.63922 0.0
H1198 H 0.12041 0.66352 0.61698 0.0
H1199 H 0.15381 0.64346 0.62384 0.0
H1200 H 0.93668 0.48436 0.70606 0.0
H1201 H 0.92856 0.52218 0.69841 0.0
H1202 H 0.95536 0.51509 0.63491 0.0
H1203 H 0.96369 0.47739 0.6425 0.0
H1204 H 0.96893 0.55283 0.65743 0.0
H1205 H 0.88006 0.54255 0.65761 0.0
H1206 H 0.8942 0.53315 0.68098 0.0
H1207 H 0.89829 0.52005 0.65562 0.0
C1208 C 0.94088 0.49091 0.6905 0.0
C1209 C 0.95079 0.47797 0.67485 0.0
C1210 C 0.93616 0.51246 0.68614 0.0
C1211 C 0.9412 0.52134 0.66604 0.0
C1212 C 0.95137 0.50852 0.65053 0.0
H1213 H 0.90648 0.62292 0.58582 0.0
H1214 H 0.91394 0.59006 0.60566 0.0
C1215 C 0.95609 0.487 0.65487 0.0
C1216 C 0.9357 0.54392 0.66088 0.0
H1217 H 0.89338 0.57707 0.64985 0.0
C1218 C 0.95243 0.55827 0.6561 0.0
C1219 C 0.91413 0.55085 0.65906 0.0
C1220 C 0.89557 0.53588 0.66342 0.0
C1221 C 0.94813 0.57922 0.64893 0.0
C1222 C 0.9266 0.58594 0.64659 0.0
C1223 C 0.90987 0.57186 0.65199 0.0
C1224 C 0.92122 0.60622 0.63551 0.0
C1225 C 0.96653 0.59375 0.64281 0.0
C1226 C 0.92265 0.6262 0.6459 0.0
C1227 C 0.91823 0.64521 0.63459 0.0
C1228 C 0.91262 0.64437 0.61271 0.0
C1229 C 0.91099 0.62421 0.60258 0.0
C1230 C 0.91514 0.60537 0.6139 0.0
H1231 H 0.9824 0.58594 0.6452 0.0
H1232 H 0.965 0.59853 0.62568 0.0
H1233 H 0.96592 0.60865 0.6526 0.0
H1234 H 0.92733 0.62707 0.66264 0.0
H1235 H 0.91961 0.66049 0.6428 0.0
H1236 H 0.57761 0.54968 0.13862 0.0
H1237 H 0.58575 0.51194 0.13103 0.0
H1238 H 0.57808 0.49655 0.19814 0.0
H1239 H 0.56987 0.53438 0.20587 0.0
H1240 H 0.61979 0.48619 0.15006 0.0
H1241 H 0.53792 0.45351 0.1656 0.0
H1242 H 0.54263 0.4817 0.16053 0.0
H1243 H 0.54966 0.47028 0.18603 0.0
C1244 C 0.57757 0.53825 0.15175 0.0
C1245 C 0.573 0.54492 0.17282 0.0
C1246 C 0.58227 0.51672 0.1474 0.0
C1247 C 0.5823 0.50145 0.16399 0.0
C1248 C 0.57786 0.50806 0.18508 0.0
H1249 H 0.60793 0.36264 0.14255 0.0
H1250 H 0.60193 0.39656 0.16207 0.0
C1251 C 0.57326 0.52965 0.18947 0.0
C1252 C 0.58724 0.47869 0.15901 0.0
H1253 H 0.56423 0.42911 0.15363 0.0
C1254 C 0.60774 0.47365 0.15111 0.0
C1255 C 0.5715 0.46236 0.16052 0.0
C1256 C 0.54912 0.4671 0.1685 0.0
C1257 C 0.61269 0.45283 0.14399 0.0
C1258 C 0.59667 0.43676 0.14457 0.0
C1259 C 0.57648 0.4415 0.15336 0.0
C1260 C 0.59975 0.41602 0.13336 0.0
C1261 C 0.63482 0.44829 0.13523 0.0
C1262 C 0.60008 0.41582 0.11089 0.0
C1263 C 0.60329 0.39666 0.09978 0.0
C1264 C 0.60633 0.37718 0.11089 0.0
C1265 C 0.60568 0.37734 0.13351 0.0
C1266 C 0.60227 0.39666 0.14467 0.0
H1267 H 0.64667 0.46054 0.14053 0.0
H1268 H 0.64047 0.43214 0.14036 0.0
H1269 H 0.63421 0.44848 0.11741 0.0
H1270 H 0.59795 0.43059 0.10191 0.0
H1271 H 0.60361 0.39725 0.08239 0.0
H1272 H 0.43395 0.03869 0.31622 0.0
H1273 H 0.42429 1.00136 0.32464 0.0
H1274 H 0.44957 1.00931 0.38866 0.0
H1275 H 0.45903 0.04655 0.38046 0.0
H1276 H 0.45079 0.96694 0.33861 0.0
H1277 H 0.38845 0.98691 0.39889 0.0
H1278 H 0.39881 1.00647 0.38013 0.0
H1279 H 0.4136 0.99999 0.4041 0.0
C1280 C 0.43742 0.03244 0.33209 0.0
C1281 C 0.44716 0.0455 0.34773 0.0
C1282 C 0.43191 0.01115 0.33685 0.0
C1283 C 0.43592 1.00271 0.35736 0.0
C1284 C 0.44596 0.01565 0.37286 0.0
H1285 H 0.43432 0.8912 0.43238 0.0
H1286 H 0.43957 0.92515 0.41367 0.0
C1287 C 0.45147 0.03688 0.36812 0.0
C1288 C 0.42988 0.98032 0.36272 0.0
H1289 H 0.402 0.95082 0.39952 0.0
C1290 C 0.43984 0.96333 0.35167 0.0
C1291 C 0.41541 0.97572 0.37961 0.0
C1292 C 0.40328 0.99323 0.39123 0.0
C1293 C 0.43671 0.94186 0.35802 0.0
C1294 C 0.42323 0.93743 0.37571 0.0
C1295 C 0.41244 0.95434 0.38601 0.0
C1296 C 0.42175 0.91577 0.38538 0.0
C1297 C 0.44866 0.92414 0.3466 0.0
C1298 C 0.41037 0.89905 0.37538 0.0
C1299 C 0.40732 0.87943 0.38609 0.0
C1300 C 0.41548 0.87649 0.40696 0.0
C1301 C 0.4276 0.89304 0.41642 0.0
C1302 C 0.43067 0.91245 0.40576 0.0
H1303 H 0.4598 0.93044 0.33416 0.0
H1304 H 0.458 0.9145 0.35836 0.0
H1305 H 0.43698 0.9132 0.33875 0.0
H1306 H 0.40323 0.90143 0.3597 0.0
H1307 H 0.39783 0.86699 0.37846 0.0
H1308 H 0.10363 0.15908 0.87683 0.0
H1309 H 0.09395 0.12593 0.8574 0.0
H1310 H 0.10425 0.08907 0.91513 0.0
H1311 H 0.11367 0.12161 0.9345 0.0
H1312 H 0.11828 0.08435 0.85323 0.0
H1313 H 0.04102 0.07638 0.89676 0.0
H1314 H 0.05554 0.10148 0.89513 0.0
H1315 H 0.06359 0.08118 0.91406 0.0
C1316 C 0.10392 0.14387 0.88529 0.0
C1317 C 0.10907 0.14304 0.90729 0.0
C1318 C 0.09841 0.125 0.87419 0.0
C1319 C 0.09801 0.10519 0.885 0.0
C1320 C 0.10404 0.10428 0.90664 0.0
H1321 H 0.07458 0.97233 0.88018 0.0
H1322 H 0.08203 1.01021 0.88732 0.0
C1323 C 0.10941 0.12296 0.91768 0.0
C1324 C 0.09089 0.08519 0.87428 0.0
H1325 H 0.05464 0.04452 0.88001 0.0
C1326 C 0.10413 0.07576 0.85867 0.0
C1327 C 0.07241 0.07413 0.88146 0.0
C1328 C 0.05719 0.08389 0.89763 0.0
C1329 C 0.10012 0.05482 0.85111 0.0
C1330 C 0.08227 0.0433 0.85923 0.0
C1331 C 0.06841 0.0533 0.87393 0.0
C1332 C 0.07852 0.0203 0.85423 0.0
C1333 C 0.11567 0.04474 0.83548 0.0
C1334 C 0.07408 0.01339 0.83322 0.0
C1335 C 0.06992 0.99164 0.82907 0.0
C1336 C 0.06989 0.9766 0.84593 0.0
C1337 C 0.07435 0.98359 0.8669 0.0
C1338 C 0.07863 1.00522 0.87099 0.0
H1339 H 0.13072 0.05421 0.83397 0.0
H1340 H 0.11982 0.02813 0.84052 0.0
H1341 H 0.10806 0.04384 0.81939 0.0
H1342 H 0.07352 0.02481 0.82011 0.0
H1343 H 0.06647 0.98666 0.81276 0.0
H1344 H 0.70742 0.94897 0.48524 0.0
H1345 H 0.70016 0.93955 0.52286 0.0
H1346 H 0.63231 0.9371 0.50913 0.0
H1347 H 0.63942 0.9464 0.47163 0.0
H1348 H 0.67327 0.96176 0.55318 0.0
H1349 H 0.64531 0.8786 0.53788 0.0
H1350 H 0.66057 0.89379 0.51843 0.0
H1351 H 0.63218 0.89828 0.52137 0.0
C1352 C 0.69097 0.94638 0.49028 0.0
C1353 C 0.67397 0.94835 0.47555 0.0
C1354 C 0.68687 0.94103 0.51173 0.0
C1355 C 0.66575 0.93733 0.51865 0.0
C1356 C 0.64876 0.93952 0.504 0.0
H1357 H 0.58522 0.92239 0.62347 0.0
H1358 H 0.60514 0.92807 0.59044 0.0
C1359 C 0.65283 0.94497 0.48263 0.0
C1360 C 0.66119 0.9316 0.54127 0.0
H1361 H 0.63564 0.89402 0.57192 0.0
C1362 C 0.66547 0.94677 0.55742 0.0
C1363 C 0.65117 0.91195 0.54671 0.0
C1364 C 0.64722 0.89462 0.53022 0.0
C1365 C 0.65862 0.94337 0.57866 0.0
C1366 C 0.64744 0.9243 0.58376 0.0
C1367 C 0.64425 0.90863 0.56789 0.0
C1368 C 0.63621 0.92163 0.60449 0.0
C1369 C 0.66214 0.96066 0.59527 0.0
C1370 C 0.64721 0.91627 0.62344 0.0
C1371 C 0.6358 0.91287 0.64259 0.0
C1372 C 0.61327 0.91483 0.64293 0.0
C1373 C 0.60253 0.92063 0.62389 0.0
C1374 C 0.61387 0.92391 0.60492 0.0
H1375 H 0.67069 0.97484 0.58859 0.0
H1376 H 0.64644 0.96601 0.60185 0.0
H1377 H 0.67167 0.95407 0.60882 0.0
H1378 H 0.66451 0.91437 0.62331 0.0
H1379 H 0.64454 0.90837 0.65695 0.0
H1380 H 0.87933 0.12555 0.15399 0.0
H1381 H 0.85973 0.11888 0.12028 0.0
H1382 H 0.90783 0.07275 0.10137 0.0
H1383 H 0.9276 0.07953 0.13456 0.0
H1384 H 0.8887 0.12072 0.0748 0.0
H1385 H 0.83999 0.04806 0.09365 0.0
H1386 H 0.84615 0.06822 0.11366 0.0
H1387 H 0.86668 0.05009 0.10476 0.0
C1388 C 0.88546 0.11371 0.14279 0.0
C1389 C 0.90504 0.10316 0.14677 0.0
C1390 C 0.87432 0.10998 0.12359 0.0
C1391 C 0.88242 0.09534 0.10848 0.0
C1392 C 0.90137 0.08407 0.11292 0.0
H1393 H 0.86359 0.04272 0.98405 0.0
H1394 H 0.87168 0.05111 0.02162 0.0
C1395 C 0.91265 0.08801 0.13185 0.0
C1396 C 0.87237 0.0929 0.08718 0.0
H1397 H 0.84279 0.05801 0.05701 0.0
C1398 C 0.8783 0.10729 0.0709 0.0
C1399 C 0.85914 0.07516 0.08229 0.0
C1400 C 0.85245 0.05945 0.09945 0.0
C1401 C 0.87196 0.10392 0.04953 0.0
C1402 C 0.85905 0.08589 0.04452 0.0
C1403 C 0.85262 0.07185 0.06096 0.0
C1404 C 0.85325 0.0806 0.02209 0.0
C1405 C 0.88002 0.119 0.03234 0.0
C1406 C 0.83999 0.0943 1.01005 0.0
C1407 C 0.83532 0.08953 0.9886 0.0
C1408 C 0.84386 0.07099 0.9789 0.0
C1409 C 0.85684 0.05714 0.99111 0.0
C1410 C 0.86142 0.06187 0.01255 0.0
H1411 H 0.89309 0.1296 0.03829 0.0
H1412 H 0.88606 0.10983 0.01827 0.0
H1413 H 0.86659 0.12934 0.02679 0.0
H1414 H 0.83335 0.10871 0.01721 0.0
H1415 H 0.82526 0.10047 0.97954 0.0
H1416 H 0.14071 0.56581 0.54495 0.0
H1417 H 0.13345 0.57448 0.50734 0.0
H1418 H 0.20055 0.58839 0.49732 0.0
H1419 H 0.208 0.57964 0.53509 0.0
H1420 H 0.14292 0.61504 0.4865 0.0
H1421 H 0.18407 0.54521 0.4483 0.0
H1422 H 0.17622 0.5451 0.47624 0.0
H1423 H 0.19891 0.56067 0.46774 0.0
C1424 C 0.15396 0.57057 0.53472 0.0
C1425 C 0.17493 0.57194 0.54289 0.0
C1426 C 0.14978 0.57556 0.51327 0.0
C1427 C 0.1665 0.58187 0.49954 0.0
C1428 C 0.1875 0.58327 0.50761 0.0
H1429 H 0.14337 0.61707 0.36336 0.0
H1430 H 0.16305 0.6114 0.3972 0.0
C1431 C 0.19169 0.57834 0.52916 0.0
C1432 C 0.16153 0.58746 0.47697 0.0
H1433 H 0.1653 0.56883 0.42546 0.0
C1434 C 0.14808 0.60513 0.47311 0.0
C1435 C 0.16839 0.57455 0.45956 0.0
C1436 C 0.18261 0.55522 0.46301 0.0
C1437 C 0.14061 0.60975 0.45239 0.0
C1438 C 0.14656 0.59621 0.43516 0.0
C1439 C 0.16086 0.57917 0.43877 0.0
C1440 C 0.1358 0.59802 0.41409 0.0
C1441 C 0.12574 0.62863 0.44912 0.0
C1442 C 0.11426 0.59181 0.41237 0.0
C1443 C 0.10307 0.59497 0.39327 0.0
C1444 C 0.1132 0.60442 0.3754 0.0
C1445 C 0.13512 0.60979 0.37684 0.0
C1446 C 0.14637 0.6066 0.39611 0.0
H1447 H 0.12659 0.64018 0.4627 0.0
H1448 H 0.12967 0.63722 0.43398 0.0
H1449 H 0.10897 0.62272 0.44788 0.0
H1450 H 0.10594 0.58496 0.42604 0.0
H1451 H 0.0863 0.59038 0.39268 0.0
H1452 H 0.32246 0.42698 0.03887 0.0
H1453 H 0.33212 0.41896 1.00147 0.0
H1454 H 0.38086 0.46815 1.00355 0.0
H1455 H 0.37148 0.47609 0.04087 0.0
H1456 H 0.33378 0.44671 0.96412 0.0
H1457 H 0.41334 0.4129 0.98579 0.0
H1458 H 0.39223 0.41689 1.00528 0.0
H1459 H 0.40846 0.43919 0.99666 0.0
C1460 C 0.33516 0.43613 0.03128 0.0
C1461 C 0.34633 0.45206 0.04277 0.0
C1462 C 0.34062 0.43156 1.00996 0.0
C1463 C 0.35737 0.44278 0.9999 0.0
C1464 C 0.36811 0.45909 0.01117 0.0
H1465 H 0.42942 0.44428 0.8841 0.0
H1466 H 0.41141 0.45124 0.91814 0.0
C1467 C 0.36269 0.46365 0.03244 0.0
C1468 C 0.3641 0.43723 0.97778 0.0
H1469 H 0.4074 0.42034 0.94883 0.0
C1470 C 0.3498 0.44077 0.9607 0.0
C1471 C 0.38492 0.42927 0.97348 0.0
C1472 C 0.40058 0.42412 0.99127 0.0
C1473 C 0.3562 0.43759 0.93926 0.0
C1474 C 0.37733 0.4304 0.93495 0.0
C1475 C 0.39128 0.42609 0.95214 0.0
C1476 C 0.38595 0.42816 0.91286 0.0
C1477 C 0.34063 0.44271 0.92142 0.0
C1478 C 0.37723 0.41332 0.89822 0.0
C1479 C 0.3874 0.40954 0.87848 0.0
C1480 C 0.40662 0.42023 0.87337 0.0
C1481 C 0.41474 0.43568 0.88768 0.0
C1482 C 0.40446 0.43966 0.90715 0.0
H1483 H 0.32692 0.45259 0.92718 0.0
H1484 H 0.3488 0.45142 0.90816 0.0
H1485 H 0.33409 0.42749 0.91482 0.0
H1486 H 0.36318 0.40398 0.90244 0.0
H1487 H 0.38094 0.39741 0.8678 0.0
H1488 H 0.65345 0.64377 0.89788 0.0
H1489 H 0.6203 0.6637 0.90625 0.0
H1490 H 0.59871 0.61099 0.94571 0.0
H1491 H 0.63145 0.59121 0.93756 0.0
H1492 H 0.57773 0.64831 0.89708 0.0
H1493 H 0.58843 0.66386 0.98396 0.0
H1494 H 0.6106 0.65733 0.96639 0.0
H1495 H 0.59359 0.6364 0.97679 0.0
C1496 C 0.64179 0.63667 0.90865 0.0
C1497 C 0.64501 0.61591 0.917 0.0
C1498 C 0.62286 0.64801 0.91335 0.0
C1499 C 0.60717 0.6389 0.92679 0.0
C1500 C 0.61074 0.61848 0.9356 0.0
H1501 H 0.47801 0.64616 0.96864 0.0
H1502 H 0.51586 0.63899 0.96084 0.0
C1503 C 0.62941 0.60712 0.93078 0.0
C1504 C 0.58626 0.64968 0.93055 0.0
H1505 H 0.55211 0.66468 0.97076 0.0
C1506 C 0.57223 0.65237 0.91311 0.0
C1507 C 0.57914 0.65484 0.9515 0.0
C1508 C 0.59381 0.65316 0.97071 0.0
C1509 C 0.55081 0.65884 0.91623 0.0
C1510 C 0.54342 0.66305 0.93732 0.0
C1511 C 0.55777 0.66132 0.95463 0.0
C1512 C 0.52055 0.66783 0.94199 0.0
C1513 C 0.53595 0.65996 0.89711 0.0
C1514 C 0.51068 0.68654 0.93413 0.0
C1515 C 0.48902 0.69068 0.93857 0.0
C1516 C 0.47693 0.6762 0.95102 0.0
C1517 C 0.48692 0.65761 0.95902 0.0
C1518 C 0.50854 0.6535 0.9546 0.0
H1519 H 0.54305 0.65229 0.88264 0.0
H1520 H 0.52041 0.652 0.90076 0.0
H1521 H 0.53259 0.67705 0.89326 0.0
H1522 H 0.51974 0.69797 0.92464 0.0
H1523 H 0.48173 0.70515 0.93222 0.0
H1524 H 0.98226 0.86442 0.04163 0.0
H1525 H 0.01961 0.87344 0.04981 0.0
H1526 H 0.01694 0.83384 0.10662 0.0
H1527 H 0.97956 0.82451 0.09836 0.0
H1528 H 0.03278 0.89405 0.08791 0.0
H1529 H 0.07367 0.81514 0.0778 0.0
H1530 H 0.04732 0.82051 0.06688 0.0
H1531 H 0.05055 0.81548 0.0951 0.0
C1532 C 0.98971 0.85742 0.05572 0.0
C1533 C 0.97805 0.84374 0.06934 0.0
C1534 C 0.01103 0.86258 0.06037 0.0
C1535 C 0.02111 0.85411 0.07867 0.0
C1536 C 1.0096 0.84019 0.09217 0.0
H1537 H 0.1488 0.88363 0.13089 0.0
H1538 H 0.11402 0.8662 0.12387 0.0
C1539 C 0.98824 0.83498 0.0875 0.0
C1540 C 0.04311 0.86123 0.0843 0.0
H1541 H 0.09502 0.84422 0.08979 0.0
C1542 C 0.04639 0.88315 0.08832 0.0
C1543 C 0.06074 0.8469 0.08518 0.0
C1544 C 0.05805 0.8232 0.08088 0.0
C1545 C 0.06687 0.89125 0.09292 0.0
C1546 C 0.08471 0.87711 0.09291 0.0
C1547 C 0.08136 0.85504 0.08956 0.0
C1548 C 0.10691 0.88529 0.09566 0.0
C1549 C 0.06911 0.9149 0.09794 0.0
C1550 C 0.11484 0.90098 0.08156 0.0
C1551 C 0.13437 0.91109 0.08572 0.0
C1552 C 0.14664 0.9053 0.10373 0.0
C1553 C 0.13961 0.88834 0.11688 0.0
C1554 C 0.11977 0.87845 0.11292 0.0
H1555 H 0.05376 0.92184 0.10385 0.0
H1556 H 0.08173 0.91776 0.11021 0.0
H1557 H 0.07361 0.92365 0.08307 0.0
H1558 H 0.10551 0.90602 0.06776 0.0
H1559 H 0.13961 0.92389 0.07516 0.0
H1560 H 0.36182 0.14577 0.61161 0.0
H1561 H 0.39448 0.16595 0.6019 0.0
H1562 H 0.42745 0.10633 0.58919 0.0
H1563 H 0.39544 0.08629 0.59846 0.0
H1564 H 0.43721 0.16161 0.62077 0.0
H1565 H 0.43707 0.14164 0.53414 0.0
H1566 H 0.41335 0.13939 0.55073 0.0
H1567 H 0.43331 0.11846 0.55086 0.0
C1568 C 0.37601 0.13703 0.60659 0.0
C1569 C 0.37592 0.11442 0.6057 0.0
C1570 C 0.39461 0.14855 0.60109 0.0
C1571 C 0.4132 0.13759 0.59446 0.0
C1572 C 0.41313 0.11511 0.5938 0.0
H1573 H 0.54469 0.14112 0.56561 0.0
H1574 H 0.50656 0.1345 0.57232 0.0
C1575 C 0.39475 0.10367 0.59925 0.0
C1576 C 0.43322 0.1491 0.58879 0.0
H1577 H 0.47128 0.15131 0.54944 0.0
C1578 C 0.44451 0.15989 0.60504 0.0
C1579 C 0.44264 0.14675 0.56826 0.0
C1580 C 0.43087 0.13611 0.54994 0.0
C1581 C 0.46568 0.16703 0.60172 0.0
C1582 C 0.47555 0.16349 0.58154 0.0
C1583 C 0.46374 0.15385 0.56495 0.0
C1584 C 0.49861 0.16794 0.57775 0.0
C1585 C 0.47777 0.17708 0.62017 0.0
C1586 C 0.50674 0.18897 0.57848 0.0
C1587 C 0.52858 0.19278 0.5747 0.0
C1588 C 0.54253 0.17563 0.56998 0.0
C1589 C 0.5343 0.15464 0.56913 0.0
C1590 C 0.51254 0.15085 0.57297 0.0
H1591 H 0.46914 0.17519 0.63568 0.0
H1592 H 0.49399 0.16983 0.62172 0.0
H1593 H 0.47983 0.19452 0.61706 0.0
H1594 H 0.4962 0.20241 0.58179 0.0
H1595 H 0.53451 0.20913 0.57539 0.0
H1596 H 0.86436 0.37831 0.40268 0.0
H1597 H 0.89738 0.35824 0.4111 0.0
H1598 H 0.92177 0.41313 0.44569 0.0
H1599 H 0.88915 0.43304 0.43754 0.0
H1600 H 0.93952 0.37154 0.39899 0.0
H1601 H 0.93287 0.36331 0.48723 0.0
H1602 H 0.91002 0.36923 0.47034 0.0
H1603 H 0.92814 0.39032 0.47827 0.0
C1604 C 0.87663 0.38589 0.4124 0.0
C1605 C 0.87421 0.40727 0.41937 0.0
C1606 C 0.89547 0.37447 0.41714 0.0
C1607 C 0.91189 0.38413 0.42923 0.0
C1608 C 0.90916 0.40522 0.43667 0.0
H1609 H 0.04266 0.37762 0.46492 0.0
H1610 H 1.00465 0.38499 0.45819 0.0
C1611 C 0.89054 0.41665 0.43184 0.0
C1612 C 0.9327 0.37317 0.43285 0.0
H1613 H 0.96854 0.36075 0.47242 0.0
C1614 C 0.94575 0.36869 0.41501 0.0
C1615 C 0.94076 0.36957 0.45377 0.0
C1616 C 0.92713 0.37316 0.47349 0.0
C1617 C 0.96715 0.36199 0.41759 0.0
C1618 C 0.97551 0.3594 0.43857 0.0
C1619 C 0.96212 0.36288 0.45636 0.0
C1620 C 0.99848 0.35458 0.44247 0.0
C1621 C 0.981 0.3589 0.39793 0.0
C1622 C 1.00756 0.33498 0.43596 0.0
C1623 C 0.02931 0.33074 0.43978 0.0
C1624 C 0.04225 0.34601 0.45026 0.0
C1625 C 0.03307 0.36555 0.45685 0.0
C1626 C 0.01137 0.36977 0.45303 0.0
H1627 H 0.97326 0.36532 0.38319 0.0
H1628 H 0.99679 0.36693 0.40006 0.0
H1629 H 0.984 0.34149 0.39551 0.0
H1630 H 0.99781 0.32293 0.42805 0.0
H1631 H 0.03598 0.31552 0.43457 0.0
H1632 H 0.25601 0.36663 0.20795 0.0
H1633 H 0.24166 0.35 0.24059 0.0
H1634 H 0.22085 0.41211 0.26319 0.0
H1635 H 0.23546 0.42896 0.2306 0.0
H1636 H 0.25352 0.36147 0.28531 0.0
H1637 H 0.16664 0.37155 0.26725 0.0
H1638 H 0.18705 0.37236 0.24664 0.0
H1639 H 0.1832 0.39503 0.26404 0.0
C1640 C 0.24826 0.37676 0.21979 0.0
C1641 C 0.24682 0.39912 0.21667 0.0
C1642 C 0.24012 0.36722 0.23847 0.0
C1643 C 0.23008 0.37977 0.25427 0.0
C1644 C 0.22837 0.40209 0.2511 0.0
H1645 H 0.16722 0.35559 0.37553 0.0
H1646 H 0.18241 0.37027 0.34264 0.0
C1647 C 0.23673 0.41169 0.2325 0.0
C1648 C 0.2218 0.36955 0.27424 0.0
H1649 H 0.17562 0.35827 0.30165 0.0
C1650 C 0.23649 0.36067 0.28889 0.0
C1651 C 0.19959 0.36853 0.27885 0.0
C1652 C 0.18311 0.37721 0.26335 0.0
C1653 C 0.22959 0.35131 0.3083 0.0
C1654 C 0.20734 0.3503 0.31297 0.0
C1655 C 0.19267 0.359 0.29814 0.0
C1656 C 0.19888 0.34107 0.33343 0.0
C1657 C 0.24627 0.34325 0.32394 0.0
C1658 C 0.20302 0.31964 0.3394 0.0
C1659 C 0.19441 0.31112 0.35844 0.0
C1660 C 0.18129 0.3238 0.37183 0.0
C1661 C 0.17726 0.34526 0.36576 0.0
C1662 C 0.18591 0.35373 0.34684 0.0
H1663 H 0.26233 0.3503 0.32068 0.0
H1664 H 0.24167 0.34708 0.34075 0.0
H1665 H 0.24766 0.32553 0.32243 0.0
H1666 H 0.2126 0.30936 0.32914 0.0
H1667 H 0.19774 0.29452 0.36247 0.0
H1668 H 0.31438 0.72205 0.86946 0.0
H1669 H 0.29826 0.70592 0.83715 0.0
H1670 H 0.35036 0.66034 0.83388 0.0
H1671 H 0.36593 0.67563 0.86625 0.0
H1672 H 0.31139 0.70092 0.79649 0.0
H1673 H 0.301 0.61989 0.8314 0.0
H1674 H 0.30819 0.64283 0.84756 0.0
H1675 H 0.32845 0.62838 0.83273 0.0
C1676 C 0.3223 0.70852 0.86188 0.0
C1677 C 0.34124 0.69991 0.87074 0.0
C1678 C 0.31309 0.69931 0.8434 0.0
C1679 C 0.32271 0.68143 0.83334 0.0
C1680 C 0.3421 0.67352 0.8417 0.0
H1681 H 0.30143 0.60717 0.71594 0.0
H1682 H 0.31677 0.62492 0.74781 0.0
C1683 C 0.35108 0.68243 0.86023 0.0
C1684 C 0.31286 0.6711 0.814 0.0
H1685 H 0.29786 0.62238 0.79318 0.0
C1686 C 0.30827 0.68378 0.79588 0.0
C1687 C 0.30864 0.64868 0.81308 0.0
C1688 C 0.31162 0.63421 0.83232 0.0
C1689 C 0.30016 0.67463 0.77682 0.0
C1690 C 0.29656 0.65219 0.77579 0.0
C1691 C 0.30093 0.63953 0.7939 0.0
C1692 C 0.2875 0.64167 0.75631 0.0
C1693 C 0.29578 0.68891 0.75774 0.0
C1694 C 0.26594 0.64497 0.75069 0.0
C1695 C 0.25713 0.63468 0.73274 0.0
C1696 C 0.26972 0.62095 0.7199 0.0
C1697 C 0.29135 0.61766 0.7255 0.0
C1698 C 0.30011 0.6278 0.74367 0.0
H1699 H 0.30286 0.70518 0.75977 0.0
H1700 H 0.3023 0.68157 0.74284 0.0
H1701 H 0.27817 0.6907 0.75567 0.0
H1702 H 0.25586 0.65541 0.7603 0.0
H1703 H 0.24043 0.63765 0.72882 0.0
H1704 H 0.70866 0.21988 0.64977 0.0
H1705 H 0.72482 0.20401 0.68219 0.0
H1706 H 0.67091 0.16088 0.68794 0.0
H1707 H 0.65529 0.17592 0.65547 0.0
H1708 H 0.71236 0.20076 0.72322 0.0
H1709 H 0.71859 0.11841 0.69039 0.0
H1710 H 0.71204 0.1412 0.67374 0.0
H1711 H 0.6915 0.12805 0.68935 0.0
C1712 C 0.70038 0.2069 0.6579 0.0
C1713 C 0.68092 0.19883 0.6497 0.0
C1714 C 0.7096 0.19786 0.67645 0.0
C1715 C 0.69944 0.18073 0.68721 0.0
C1716 C 0.67956 0.17343 0.67953 0.0
H1717 H 0.71916 0.11083 0.80727 0.0
H1718 H 0.70406 0.12846 0.77522 0.0
C1719 C 0.67057 0.18216 0.66094 0.0
C1720 C 0.70927 0.17054 0.7066 0.0
H1721 H 0.72258 0.12181 0.72847 0.0
C1722 C 0.71476 0.18352 0.72426 0.0
C1723 C 0.71255 0.148 0.70805 0.0
C1724 C 0.70857 0.13316 0.68927 0.0
C1725 C 0.72286 0.17454 0.74339 0.0
C1726 C 0.72547 0.15201 0.74496 0.0
C1727 C 0.72024 0.13905 0.72731 0.0
C1728 C 0.73438 0.14165 0.76454 0.0
C1729 C 0.72836 0.18908 0.76197 0.0
C1730 C 0.75641 0.14304 0.76896 0.0
C1731 C 0.76507 0.1328 0.78701 0.0
C1732 C 0.75184 0.12109 0.80112 0.0
C1733 C 0.72973 0.11975 0.79671 0.0
C1734 C 0.72111 0.12982 0.77845 0.0
H1735 H 0.72274 0.20583 0.75932 0.0
H1736 H 0.72111 0.18285 0.77703 0.0
H1737 H 0.74605 0.18935 0.7642 0.0
H1738 H 0.76696 0.15193 0.75835 0.0
H1739 H 0.78215 0.1342 0.78998 0.0
H1740 H 0.85367 0.85466 0.14546 0.0
H1741 H 0.83903 0.86892 0.17876 0.0
H1742 H 0.80856 0.80809 0.19177 0.0
H1743 H 0.82301 0.79356 0.15804 0.0
H1744 H 0.78183 0.84332 0.19987 0.0
H1745 H 0.86092 0.85502 0.23884 0.0
H1746 H 0.85915 0.86781 0.21307 0.0
H1747 H 0.85757 0.83898 0.21491 0.0
C1748 C 0.84383 0.84419 0.15528 0.0
C1749 C 0.83968 0.82282 0.14899 0.0
C1750 C 0.83558 0.8524 0.17448 0.0
C1751 C 0.82308 0.83948 0.18805 0.0
C1752 C 0.81835 0.81832 0.18164 0.0
H1753 H 0.7912 0.87644 0.3203 0.0
H1754 H 0.80502 0.85799 0.28832 0.0
C1755 C 0.82662 0.81004 0.16234 0.0
C1756 C 0.81487 0.84833 0.20875 0.0
H1757 H 0.83104 0.87267 0.25529 0.0
C1758 C 0.79259 0.84958 0.21207 0.0
C1759 C 0.82888 0.85624 0.22485 0.0
C1760 C 0.85296 0.85427 0.22288 0.0
C1761 C 0.78398 0.85918 0.23065 0.0
C1762 C 0.798 0.86808 0.24622 0.0
C1763 C 0.82027 0.86614 0.24325 0.0
C1764 C 0.78989 0.87956 0.26562 0.0
C1765 C 0.75992 0.85959 0.23352 0.0
C1766 C 0.77722 0.89814 0.26357 0.0
C1767 C 0.76939 0.90876 0.28181 0.0
C1768 C 0.77415 0.90107 0.30251 0.0
C1769 C 0.78727 0.88277 0.30457 0.0
C1770 C 0.79513 0.87218 0.28631 0.0
H1771 H 0.7519 0.84716 0.22352 0.0
H1772 H 0.75545 0.85697 0.25059 0.0
H1773 H 0.75369 0.87554 0.22852 0.0
H1774 H 0.77335 0.90444 0.24782 0.0
H1775 H 0.75937 0.92284 0.27968 0.0
H1776 H 0.36116 0.19597 0.29194 0.0
H1777 H 0.32783 0.21129 0.30661 0.0
H1778 H 0.3444 0.18742 0.36944 0.0
H1779 H 0.37747 0.17218 0.35516 0.0
H1780 H 0.2938 0.18805 0.32943 0.0
H1781 H 0.33065 0.25183 0.37966 0.0
H1782 H 0.34483 0.23895 0.35786 0.0
H1783 H 0.34204 0.22553 0.38327 0.0
C1784 C 0.35781 0.19415 0.30892 0.0
C1785 C 0.37216 0.18288 0.32233 0.0
C1786 C 0.33871 0.20286 0.31726 0.0
C1787 C 0.33373 0.20072 0.33919 0.0
C1788 C 0.34804 0.18959 0.35256 0.0
H1789 H 0.23231 0.23857 0.42747 0.0
H1790 H 0.26469 0.22431 0.41007 0.0
C1791 C 0.36697 0.1808 0.34428 0.0
C1792 C 0.31334 0.20946 0.34822 0.0
H1793 H 0.29374 0.24444 0.38578 0.0
C1794 C 0.29373 0.20053 0.3416 0.0
C1795 C 0.31328 0.2256 0.36425 0.0
C1796 C 0.33379 0.23621 0.3716 0.0
C1797 C 0.27413 0.20683 0.35102 0.0
C1798 C 0.27405 0.22294 0.36715 0.0
C1799 C 0.2937 0.23205 0.37353 0.0
C1800 C 0.25385 0.23066 0.37762 0.0
C1801 C 0.25382 0.19554 0.34411 0.0
C1802 C 0.2369 0.23904 0.36529 0.0
C1803 C 0.21829 0.24691 0.3752 0.0
C1804 C 0.21634 0.24697 0.39772 0.0
C1805 C 0.23329 0.23865 0.41009 0.0
C1806 C 0.25184 0.23056 0.40015 0.0
H1807 H 0.25729 0.17956 0.33693 0.0
H1808 H 0.24265 0.1933 0.35783 0.0
H1809 H 0.2456 0.20538 0.33171 0.0
H1810 H 0.2382 0.23991 0.34797 0.0
H1811 H 0.20562 0.25343 0.36521 0.0
H1812 H 0.14717 0.85518 0.85367 0.0
H1813 H 0.18057 0.84037 0.86752 0.0
H1814 H 0.19195 0.80851 0.80709 0.0
H1815 H 0.15812 0.82317 0.79295 0.0
H1816 H 0.20026 0.78228 0.84286 0.0
H1817 H 0.24077 0.86097 0.85197 0.0
H1818 H 0.21517 0.85999 0.86518 0.0
H1819 H 0.21653 0.85765 0.8364 0.0
C1820 C 0.15666 0.84501 0.8432 0.0
C1821 C 0.14987 0.84051 0.82206 0.0
C1822 C 0.17591 0.83665 0.85117 0.0
C1823 C 0.18905 0.82368 0.83825 0.0
C1824 C 0.18217 0.81865 0.81732 0.0
H1825 H 0.32137 0.79091 0.87443 0.0
H1826 H 0.28938 0.8046 0.85594 0.0
C1827 C 0.16281 0.82705 0.80925 0.0
C1828 C 0.20978 0.81529 0.84689 0.0
H1829 H 0.25697 0.83123 0.8701 0.0
C1830 C 0.21274 0.79298 0.84864 0.0
C1831 C 0.22625 0.82921 0.8542 0.0
C1832 C 0.22467 0.85328 0.85166 0.0
C1833 C 0.23132 0.78426 0.85818 0.0
C1834 C 0.24727 0.79822 0.8665 0.0
C1835 C 0.24465 0.82051 0.86403 0.0
C1836 C 0.26671 0.79006 0.87792 0.0
C1837 C 0.23377 0.76015 0.85913 0.0
C1838 C 0.2647 0.77772 0.89673 0.0
C1839 C 0.28297 0.76995 0.90736 0.0
C1840 C 0.30366 0.77445 0.89948 0.0
C1841 C 0.30567 0.78719 0.88093 0.0
C1842 C 0.28738 0.79498 0.87031 0.0
H1843 H 0.22354 0.75202 0.84696 0.0
H1844 H 0.25073 0.75529 0.85651 0.0
H1845 H 0.22874 0.75438 0.87523 0.0
H1846 H 0.24898 0.77411 0.90323 0.0
H1847 H 0.28087 0.76022 0.92164 0.0
H1848 H 0.73309 0.2814 0.59244 0.0
H1849 H 0.76552 0.29577 0.60976 0.0
H1850 H 0.7373 0.28469 0.67202 0.0
H1851 H 0.70493 0.27037 0.65486 0.0
H1852 H 0.76914 0.33115 0.64015 0.0
H1853 H 0.7963 0.25349 0.67499 0.0
H1854 H 0.77684 0.25496 0.65352 0.0
H1855 H 0.76898 0.26098 0.68061 0.0
C1856 C 0.73378 0.28213 0.60981 0.0
C1857 C 0.71645 0.27475 0.62227 0.0
C1858 C 0.75231 0.29031 0.61969 0.0
C1859 C 0.75399 0.29102 0.6422 0.0
C1860 C 0.73654 0.28399 0.65465 0.0
H1861 H 0.8591 0.32921 0.72854 0.0
H1862 H 0.82538 0.31512 0.71366 0.0
C1863 C 0.71797 0.27596 0.6448 0.0
C1864 C 0.77387 0.29928 0.65266 0.0
H1865 H 0.81629 0.2844 0.68429 0.0
C1866 C 0.77948 0.32093 0.64976 0.0
C1867 C 0.78723 0.286 0.66542 0.0
C1868 C 0.78221 0.26251 0.66876 0.0
C1869 C 0.79797 0.3297 0.65936 0.0
C1870 C 0.81169 0.3163 0.6717 0.0
C1871 C 0.80589 0.29469 0.67483 0.0
C1872 C 0.83241 0.32426 0.68084 0.0
C1873 C 0.80234 0.3534 0.6565 0.0
C1874 C 0.84792 0.33353 0.66735 0.0
C1875 C 0.86705 0.34171 0.6758 0.0
C1876 C 0.87144 0.34053 0.69798 0.0
C1877 C 0.85628 0.33046 0.71141 0.0
C1878 C 0.83696 0.32242 0.70292 0.0
H1879 H 0.78733 0.36244 0.65307 0.0
H1880 H 0.80999 0.36041 0.67101 0.0
H1881 H 0.8133 0.35571 0.64264 0.0
H1882 H 0.84522 0.33453 0.6502 0.0
H1883 H 0.87839 0.34908 0.66485 0.0
H1884 H 0.64363 0.67272 0.16633 0.0
H1885 H 0.6768 0.68802 0.15231 0.0
H1886 H 0.69349 0.71058 0.2156 0.0
H1887 H 0.66007 0.69522 0.22997 0.0
H1888 H 0.69151 0.7321 0.15437 0.0
H1889 H 0.74684 0.67492 0.1952 0.0
H1890 H 0.71851 0.6695 0.19207 0.0
H1891 H 0.72745 0.68854 0.21178 0.0
C1892 C 0.65424 0.68096 0.17738 0.0
C1893 C 0.6491 0.68261 0.19938 0.0
C1894 C 0.67325 0.68973 0.16927 0.0
C1895 C 0.68778 0.70023 0.1829 0.0
C1896 C 0.68265 0.70228 0.20481 0.0
H1897 H 0.81547 0.75214 0.15529 0.0
H1898 H 0.78262 0.73922 0.17259 0.0
C1899 C 0.66347 0.6936 0.21298 0.0
C1900 C 0.70817 0.70895 0.17389 0.0
H1901 H 0.76257 0.70135 0.17319 0.0
C1902 C 0.70707 0.72545 0.15854 0.0
C1903 C 0.72847 0.7003 0.17936 0.0
C1904 C 0.73055 0.68223 0.19539 0.0
C1905 C 0.72566 0.73358 0.14856 0.0
C1906 C 0.74596 0.72452 0.15356 0.0
C1907 C 0.74707 0.70823 0.1692 0.0
C1908 C 0.76619 0.73178 0.14286 0.0
C1909 C 0.72333 0.7521 0.13308 0.0
C1910 C 0.76825 0.73147 0.12035 0.0
C1911 C 0.78699 0.73906 0.11039 0.0
C1912 C 0.80423 0.74677 0.12276 0.0
C1913 C 0.80247 0.74633 0.14529 0.0
C1914 C 0.78367 0.73894 0.15522 0.0
H1915 H 0.70831 0.76128 0.13606 0.0
H1916 H 0.73715 0.76331 0.13425 0.0
H1917 H 0.7226 0.74576 0.11644 0.0
H1918 H 0.75531 0.72544 0.11042 0.0
H1919 H 0.78792 0.73906 0.09302 0.0
H1920 H 0.42886 0.23394 0.23986 0.0
H1921 H 0.41166 0.26644 0.22548 0.0
H1922 H 0.34937 0.23774 0.23491 0.0
H1923 H 0.36641 0.20526 0.24925 0.0
H1924 H 0.38205 0.27049 0.18959 0.0
H1925 H 0.34547 0.2963 0.26687 0.0
H1926 H 0.36704 0.27692 0.26554 0.0
H1927 H 0.34012 0.26906 0.25886 0.0
C1928 C 0.41151 0.23453 0.23876 0.0
C1929 C 0.399 0.21705 0.24572 0.0
C1930 C 0.4017 0.25311 0.23057 0.0
C1931 C 0.3792 0.25467 0.22942 0.0
C1932 C 0.36672 0.23706 0.23597 0.0
H1933 H 0.29274 0.35951 0.19118 0.0
H1934 H 0.30786 0.32583 0.20512 0.0
C1935 C 0.3765 0.21844 0.24402 0.0
C1936 C 0.36882 0.27465 0.22123 0.0
H1937 H 0.33668 0.31672 0.2361 0.0
C1938 C 0.37216 0.28063 0.19976 0.0
C1939 C 0.35573 0.28776 0.23445 0.0
C1940 C 0.35194 0.28236 0.25777 0.0
C1941 C 0.36267 0.29924 0.19108 0.0
C1942 C 0.34996 0.31268 0.20442 0.0
C1943 C 0.34643 0.30653 0.22586 0.0
C1944 C 0.34071 0.33342 0.19656 0.0
C1945 C 0.36599 0.30398 0.16753 0.0
C1946 C 0.35411 0.34923 0.18766 0.0
C1947 C 0.34551 0.36835 0.17957 0.0
C1948 C 0.32326 0.37243 0.18051 0.0
C1949 C 0.30991 0.35696 0.1902 0.0
C1950 C 0.31855 0.33766 0.19814 0.0
H1951 H 0.36977 0.28913 0.15836 0.0
H1952 H 0.35157 0.31161 0.16032 0.0
H1953 H 0.37979 0.31512 0.16569 0.0
H1954 H 0.3713 0.34676 0.18687 0.0
H1955 H 0.35638 0.37994 0.17246 0.0
H1956 H 0.855 0.14773 0.85692 0.0
H1957 H 0.86903 0.18108 0.842 0.0
H1958 H 0.80934 0.19163 0.80854 0.0
H1959 H 0.79503 0.15799 0.82338 0.0
H1960 H 0.84615 0.19904 0.78298 0.0
H1961 H 0.8522 0.24198 0.86073 0.0
H1962 H 0.86536 0.21629 0.86077 0.0
H1963 H 0.83669 0.21768 0.85747 0.0
C1964 C 0.84475 0.15705 0.84638 0.0
C1965 C 0.82378 0.15008 0.84144 0.0
C1966 C 0.85281 0.17626 0.83796 0.0
C1967 C 0.84014 0.1891 0.82444 0.0
C1968 C 0.81936 0.18207 0.81908 0.0
H1969 H 0.87397 0.32103 0.78828 0.0
H1970 H 0.85606 0.28896 0.80255 0.0
C1971 C 0.81121 0.16281 0.82758 0.0
C1972 C 0.84887 0.20965 0.81577 0.0
H1973 H 0.87055 0.25781 0.83103 0.0
C1974 C 0.85134 0.21196 0.79347 0.0
C1975 C 0.85539 0.22666 0.82942 0.0
C1976 C 0.8521 0.22569 0.85342 0.0
C1977 C 0.8608 0.23046 0.78452 0.0
C1978 C 0.86826 0.24702 0.79826 0.0
C1979 C 0.86511 0.24502 0.82051 0.0
C1980 C 0.8794 0.26651 0.78987 0.0
C1981 C 0.86257 0.23219 0.76042 0.0
C1982 C 0.89875 0.26466 0.7784 0.0
C1983 C 0.90905 0.28297 0.7703 0.0
C1984 C 0.90027 0.30354 0.77359 0.0
C1985 C 0.88116 0.30541 0.7855 0.0
C1986 C 0.87088 0.28709 0.79362 0.0
H1987 H 0.85109 0.22129 0.75217 0.0
H1988 H 0.85953 0.24891 0.75495 0.0
H1989 H 0.87905 0.2276 0.75541 0.0
H1990 H 0.90591 0.24902 0.77569 0.0
H1991 H 0.92378 0.28099 0.76124 0.0
H1992 H 0.59296 0.73591 0.27686 0.0
H1993 H 0.61085 0.76822 0.29076 0.0
H1994 H 0.6717 0.73514 0.28942 0.0
H1995 H 0.65396 0.70288 0.27546 0.0
H1996 H 0.63623 0.77335 0.32872 0.0
H1997 H 0.68369 0.79063 0.25512 0.0
H1998 H 0.66107 0.77247 0.25513 0.0
H1999 H 0.68648 0.76392 0.26577 0.0
C2000 C 0.61014 0.7355 0.27962 0.0
C2001 C 0.62204 0.71684 0.27504 0.0
C2002 C 0.62035 0.75398 0.28753 0.0
C2003 C 0.6427 0.75426 0.29081 0.0
C2004 C 0.65453 0.73549 0.28665 0.0
H2005 H 0.7303 0.8574 0.33239 0.0
H2006 H 0.71527 0.82349 0.31875 0.0
C2007 C 0.64432 0.71699 0.27884 0.0
C2008 C 0.65352 0.7741 0.29883 0.0
H2009 H 0.69009 0.81286 0.28524 0.0
C2010 C 0.64798 0.78201 0.3192 0.0
C2011 C 0.66906 0.78528 0.28653 0.0
C2012 C 0.67538 0.77781 0.26435 0.0
C2013 C 0.65756 0.80067 0.32766 0.0
C2014 C 0.67269 0.81224 0.31512 0.0
C2015 C 0.67848 0.80412 0.29486 0.0
C2016 C 0.68205 0.83313 0.3225 0.0
C2017 C 0.65164 0.80748 0.35017 0.0
C2018 C 0.66851 0.85016 0.32848 0.0
C2019 C 0.67702 0.86936 0.33645 0.0
C2020 C 0.69937 0.87232 0.33826 0.0
C2021 C 0.71302 0.85568 0.33126 0.0
C2022 C 0.70443 0.83626 0.3235 0.0
H2023 H 0.64596 0.79362 0.35988 0.0
H2024 H 0.66546 0.815 0.35856 0.0
H2025 H 0.63834 0.81934 0.3494 0.0
H2026 H 0.65124 0.84856 0.32716 0.0
H2027 H 0.66597 0.8819 0.34136 0.0
H2028 H 0.15352 0.81906 0.7437 0.0
H2029 H 0.17069 0.78689 0.72875 0.0
H2030 H 0.10997 0.75362 0.7304 0.0
H2031 H 0.09268 0.78579 0.74523 0.0
H2032 H 0.17241 0.74495 0.74753 0.0
H2033 H 0.13135 0.74409 0.66837 0.0
H2034 H 0.13182 0.76758 0.68543 0.0
H2035 H 0.11376 0.74581 0.69118 0.0
C2036 C 0.14378 0.80497 0.74065 0.0
C2037 C 0.1217 0.80501 0.74549 0.0
C2038 C 0.15363 0.78657 0.7322 0.0
C2039 C 0.1416 0.7679 0.72824 0.0
C2040 C 0.11952 0.76794 0.73298 0.0
H2041 H 0.16521 0.64147 0.67621 0.0
H2042 H 0.15072 0.67451 0.6914 0.0
C2043 C 0.10966 0.78632 0.7415 0.0
C2044 C 0.15222 0.74823 0.71968 0.0
H2045 H 0.15223 0.71355 0.67717 0.0
C2046 C 0.16811 0.7381 0.7321 0.0
C2047 C 0.14656 0.73931 0.69957 0.0
C2048 C 0.13008 0.74981 0.68523 0.0
C2049 C 0.178 0.7189 0.72529 0.0
C2050 C 0.1723 0.70989 0.70515 0.0
C2051 C 0.15663 0.72031 0.69261 0.0
C2052 C 0.18168 0.68934 0.69696 0.0
C2053 C 0.19384 0.70813 0.74014 0.0
C2054 C 0.20403 0.68639 0.69504 0.0
C2055 C 0.21244 0.66717 0.68669 0.0
C2056 C 0.19865 0.65073 0.67957 0.0
C2057 C 0.17633 0.65378 0.68146 0.0
C2058 C 0.16799 0.67275 0.69013 0.0
H2059 H 0.19154 0.71331 0.75707 0.0
H2060 H 0.1924 0.69036 0.73941 0.0
H2061 H 0.21039 0.71265 0.73532 0.0
H2062 H 0.215 0.69909 0.69957 0.0
H2063 H 0.22969 0.66544 0.68526 0.0
H2064 H 0.75842 0.59914 0.77954 0.0
H2065 H 0.77295 0.617 0.7476 0.0
H2066 H 0.80506 0.66325 0.78795 0.0
H2067 H 0.79074 0.64533 0.81997 0.0
H2068 H 0.76705 0.65934 0.73387 0.0
H2069 H 0.85337 0.64242 0.74855 0.0
H2070 H 0.83218 0.62866 0.76277 0.0
H2071 H 0.8398 0.65545 0.77043 0.0
C2072 C 0.76877 0.61298 0.78162 0.0
C2073 C 0.77357 0.62072 0.8023 0.0
C2074 C 0.77698 0.62324 0.76334 0.0
C2075 C 0.79029 0.64137 0.76532 0.0
C2076 C 0.79515 0.64909 0.78597 0.0
H2077 H 0.82313 0.72808 0.65777 0.0
H2078 H 0.80814 0.71337 0.69114 0.0
C2079 C 0.78691 0.63885 0.80428 0.0
C2080 C 0.79875 0.65232 0.74574 0.0
H2081 H 0.84514 0.6654 0.71942 0.0
C2082 C 0.78413 0.6607 0.73071 0.0
C2083 C 0.82104 0.65397 0.74153 0.0
C2084 C 0.83755 0.6445 0.75654 0.0
C2085 C 0.79115 0.67062 0.71161 0.0
C2086 C 0.81345 0.67248 0.70751 0.0
C2087 C 0.82806 0.66415 0.7226 0.0
C2088 C 0.82204 0.68171 0.6871 0.0
C2089 C 0.77462 0.67841 0.6957 0.0
C2090 C 0.83509 0.66901 0.67382 0.0
C2091 C 0.84377 0.67738 0.65488 0.0
C2092 C 0.8397 0.69879 0.64864 0.0
C2093 C 0.82651 0.71152 0.66192 0.0
C2094 C 0.81784 0.70309 0.68099 0.0
H2095 H 0.75854 0.67134 0.69883 0.0
H2096 H 0.77317 0.69615 0.69695 0.0
H2097 H 0.77947 0.67441 0.67901 0.0
H2098 H 0.83861 0.6525 0.67813 0.0
H2099 H 0.85385 0.667 0.6452 0.0
H2100 H 0.70397 0.29961 0.15275 0.0
H2101 H 0.7194 0.31512 0.18567 0.0
H2102 H 0.67246 0.36598 0.18398 0.0
H2103 H 0.6571 0.35094 0.1512 0.0
H2104 H 0.73175 0.36667 0.18927 0.0
H2105 H 0.67268 0.3328 0.24729 0.0
H2106 H 0.6796 0.31902 0.22266 0.0
H2107 H 0.66322 0.34269 0.22175 0.0
C2108 C 0.69692 0.31409 0.15937 0.0
C2109 C 0.67933 0.32404 0.14917 0.0
C2110 C 0.70576 0.32292 0.17819 0.0
C2111 C 0.69699 0.34165 0.18728 0.0
C2112 C 0.67941 0.3515 0.17726 0.0
H2113 H 0.71838 0.41429 0.30564 0.0
H2114 H 0.70329 0.39777 0.27308 0.0
C2115 C 0.67072 0.34286 0.15842 0.0
C2116 C 0.70637 0.35138 0.20697 0.0
H2117 H 0.69832 0.35706 0.26099 0.0
C2118 C 0.72458 0.36448 0.205 0.0
C2119 C 0.6967 0.34882 0.22735 0.0
C2120 C 0.67699 0.33503 0.23012 0.0
C2121 C 0.7333 0.37528 0.22286 0.0
C2122 C 0.72392 0.3724 0.24345 0.0
C2123 C 0.70561 0.35928 0.24533 0.0
C2124 C 0.73302 0.38259 0.26322 0.0
C2125 C 0.75204 0.39023 0.21925 0.0
C2126 C 0.75466 0.37941 0.26879 0.0
C2127 C 0.76333 0.38912 0.2871 0.0
C2128 C 0.75049 0.40184 0.30067 0.0
C2129 C 0.7287 0.40466 0.29545 0.0
C2130 C 0.72007 0.39517 0.27688 0.0
H2131 H 0.75259 0.39607 0.20239 0.0
H2132 H 0.75131 0.40436 0.23012 0.0
H2133 H 0.76723 0.38143 0.22239 0.0
H2134 H 0.76488 0.36926 0.25903 0.0
H2135 H 0.78012 0.38642 0.29076 0.0
H2136 H 0.28298 0.92832 0.23271 0.0
H2137 H 0.29761 0.91093 0.26492 0.0
H2138 H 0.28462 0.84869 0.23729 0.0
H2139 H 0.2706 0.86596 0.20491 0.0
H2140 H 0.2778 0.88494 0.29331 0.0
H2141 H 0.34561 0.84037 0.25659 0.0
H2142 H 0.33113 0.86107 0.24237 0.0
H2143 H 0.32022 0.83436 0.24438 0.0
C2144 C 0.28354 0.91093 0.2334 0.0
C2145 C 0.2758 0.89852 0.2162 0.0
C2146 C 0.29183 0.90099 0.25185 0.0
C2147 C 0.29257 0.87845 0.25348 0.0
C2148 C 0.2848 0.86606 0.23627 0.0
H2149 H 0.32927 0.79217 0.35932 0.0
H2150 H 0.31405 0.80699 0.32604 0.0
C2151 C 0.27667 0.87598 0.21778 0.0
C2152 C 0.30056 0.86796 0.27352 0.0
H2153 H 0.33721 0.83177 0.29287 0.0
C2154 C 0.29085 0.87338 0.29318 0.0
C2155 C 0.31753 0.85275 0.27344 0.0
C2156 C 0.32937 0.84692 0.2531 0.0
C2157 C 0.29755 0.86402 0.31262 0.0
C2158 C 0.31454 0.84891 0.31252 0.0
C2159 C 0.32409 0.84325 0.2929 0.0
C2160 C 0.32339 0.83979 0.33279 0.0
C2161 C 0.28629 0.87025 0.33316 0.0
C2162 C 0.33383 0.85325 0.34752 0.0
C2163 C 0.34256 0.84488 0.36644 0.0
C2164 C 0.34107 0.82277 0.37116 0.0
C2165 C 0.33058 0.80927 0.35634 0.0
C2166 C 0.32194 0.81769 0.33727 0.0
H2167 H 0.27043 0.87781 0.33001 0.0
H2168 H 0.2839 0.85601 0.34366 0.0
H2169 H 0.29634 0.88201 0.34202 0.0
H2170 H 0.33544 0.87029 0.34426 0.0
H2171 H 0.35059 0.85583 0.37733 0.0
H2172 H 0.18641 0.23066 0.85616 0.0
H2173 H 0.20023 0.21576 0.82231 0.0
H2174 H 0.1911 0.15157 0.84679 0.0
H2175 H 0.17668 0.16618 0.88006 0.0
H2176 H 0.23374 0.19046 0.81207 0.0
H2177 H 0.1592 0.14682 0.79138 0.0
H2178 H 0.16028 0.16618 0.81292 0.0
H2179 H 0.16924 0.13896 0.81718 0.0
C2180 C 0.18735 0.21338 0.8543 0.0
C2181 C 0.18011 0.19966 0.87077 0.0
C2182 C 0.19524 0.20486 0.83492 0.0
C2183 C 0.19614 0.18248 0.83166 0.0
C2184 C 0.18986 0.16885 0.84849 0.0
H2185 H 0.24297 0.09367 0.73484 0.0
H2186 H 0.22871 0.1115 0.76702 0.0
C2187 C 0.18175 0.17729 0.86766 0.0
C2188 C 0.20379 0.17321 0.81086 0.0
H2189 H 0.19063 0.13701 0.77157 0.0
C2190 C 0.2242 0.17895 0.80311 0.0
C2191 C 0.19136 0.15821 0.79901 0.0
C2192 C 0.16873 0.15236 0.80543 0.0
C2193 C 0.23278 0.16959 0.78436 0.0
C2194 C 0.22058 0.15417 0.77291 0.0
C2195 C 0.20006 0.14868 0.78044 0.0
C2196 C 0.22886 0.1434 0.75318 0.0
C2197 C 0.2551 0.17584 0.77727 0.0
C2198 C 0.23326 0.15531 0.73453 0.0
C2199 C 0.24128 0.14515 0.7161 0.0
C2200 C 0.24504 0.12284 0.71593 0.0
C2201 C 0.24023 0.11087 0.73447 0.0
C2202 C 0.23212 0.12104 0.75287 0.0
H2203 H 0.26415 0.18411 0.79025 0.0
H2204 H 0.26435 0.16149 0.77205 0.0
H2205 H 0.25394 0.18698 0.7634 0.0
H2206 H 0.23051 0.1725 0.73422 0.0
H2207 H 0.24483 0.15483 0.70208 0.0
H2208 H 0.79008 0.78583 0.59318 0.0
H2209 H 0.7579 0.80055 0.61057 0.0
H2210 H 0.78329 0.78285 0.67256 0.0
H2211 H 0.8157 0.76889 0.65536 0.0
H2212 H 0.72804 0.78069 0.63411 0.0
H2213 H 0.76576 0.84346 0.68471 0.0
H2214 H 0.78023 0.82978 0.66365 0.0
H2215 H 0.77671 0.81723 0.68948 0.0
C2216 C 0.78891 0.78539 0.61054 0.0
C2217 C 0.80551 0.77635 0.6229 0.0
C2218 C 0.77048 0.79373 0.62047 0.0
C2219 C 0.76821 0.79318 0.64297 0.0
C2220 C 0.78481 0.78408 0.65528 0.0
H2221 H 0.66065 0.8277 0.72829 0.0
H2222 H 0.69392 0.8123 0.71357 0.0
C2223 C 0.80331 0.77595 0.64539 0.0
C2224 C 0.74813 0.80122 0.65341 0.0
H2225 H 0.72898 0.83578 0.69173 0.0
C2226 C 0.7283 0.7928 0.64664 0.0
C2227 C 0.74834 0.81698 0.66989 0.0
C2228 C 0.76888 0.82755 0.67723 0.0
C2229 C 0.70882 0.79958 0.65589 0.0
C2230 C 0.70905 0.81533 0.67228 0.0
C2231 C 0.72883 0.82358 0.67928 0.0
C2232 C 0.68884 0.82437 0.68137 0.0
C2233 C 0.68808 0.78974 0.64812 0.0
C2234 C 0.67506 0.83641 0.66825 0.0
C2235 C 0.65618 0.84529 0.67658 0.0
C2236 C 0.65053 0.84236 0.69832 0.0
C2237 C 0.6644 0.83026 0.7115 0.0
C2238 C 0.68345 0.82146 0.70312 0.0
H2239 H 0.69087 0.77434 0.6395 0.0
H2240 H 0.67696 0.78677 0.66174 0.0
H2241 H 0.68011 0.80103 0.63685 0.0
H2242 H 0.67903 0.83916 0.65153 0.0
H2243 H 0.64606 0.85456 0.66588 0.0
H2244 H 0.70029 0.2342 0.14802 0.0
H2245 H 0.73226 0.21999 0.16614 0.0
H2246 H 0.77213 0.24459 0.11513 0.0
H2247 H 0.74026 0.25899 0.09705 0.0
H2248 H 0.7629 0.19051 0.15222 0.0
H2249 H 0.80063 0.26948 0.16899 0.0
H2250 H 0.77291 0.26685 0.16088 0.0
H2251 H 0.79401 0.26541 0.14121 0.0
C2252 C 0.71586 0.2365 0.14062 0.0
C2253 C 0.71775 0.24777 0.12112 0.0
C2254 C 0.73413 0.22841 0.15102 0.0
C2255 C 0.75468 0.23155 0.14222 0.0
C2256 C 0.75653 0.24237 0.12249 0.0
H2257 H 0.87328 0.1648 0.16723 0.0
H2258 H 0.83995 0.17965 0.15314 0.0
C2259 C 0.73827 0.25044 0.11208 0.0
C2260 C 0.77411 0.22322 0.15349 0.0
H2261 H 0.82237 0.23848 0.17493 0.0
C2262 C 0.77584 0.20103 0.15728 0.0
C2263 C 0.79089 0.23694 0.16044 0.0
C2264 C 0.7895 0.26102 0.15789 0.0
C2265 C 0.79413 0.19215 0.16716 0.0
C2266 C 0.8113 0.20577 0.17324 0.0
C2267 C 0.8093 0.22803 0.17011 0.0
C2268 C 0.83177 0.19705 0.18208 0.0
C2269 C 0.79492 0.16822 0.17105 0.0
C2270 C 0.83862 0.20225 0.20296 0.0
C2271 C 0.85782 0.19369 0.2112 0.0
C2272 C 0.87069 0.17998 0.19859 0.0
C2273 C 0.86386 0.17519 0.17753 0.0
C2274 C 0.84468 0.18361 0.16942 0.0
H2275 H 0.77862 0.16096 0.17079 0.0
H2276 H 0.80459 0.1605 0.15822 0.0
H2277 H 0.80258 0.16455 0.18674 0.0
H2278 H 0.82896 0.21269 0.213 0.0
H2279 H 0.86246 0.19769 0.22747 0.0
H2280 H 0.15274 0.70453 0.29911 0.0
H2281 H 0.18585 0.71969 0.31443 0.0
H2282 H 0.18358 0.6732 0.36569 0.0
H2283 H 0.15069 0.65812 0.35081 0.0
H2284 H 0.19106 0.7355 0.36043 0.0
H2285 H 0.24572 0.66833 0.33837 0.0
H2286 H 0.22071 0.6733 0.32448 0.0
H2287 H 0.22056 0.66098 0.35054 0.0
C2288 C 0.15929 0.69753 0.31363 0.0
C2289 C 0.14894 0.68011 0.3237 0.0
C2290 C 0.17821 0.70621 0.32236 0.0
C2291 C 0.18729 0.6974 0.34107 0.0
C2292 C 0.17701 0.68008 0.35112 0.0
H2293 H 0.302 0.72071 0.41878 0.0
H2294 H 0.26942 0.70562 0.40221 0.0
C2295 C 0.15807 0.67157 0.34259 0.0
C2296 C 0.20717 0.70655 0.35063 0.0
H2297 H 0.25972 0.69498 0.36158 0.0
C2298 C 0.20613 0.72676 0.36055 0.0
C2299 C 0.22669 0.69493 0.35107 0.0
C2300 C 0.22868 0.67323 0.34044 0.0
C2301 C 0.22401 0.73553 0.37124 0.0
C2302 C 0.24372 0.72406 0.37145 0.0
C2303 C 0.2447 0.70381 0.36147 0.0
C2304 C 0.26357 0.73301 0.38152 0.0
C2305 C 0.22131 0.75669 0.38279 0.0
C2306 C 0.2714 0.75319 0.37519 0.0
C2307 C 0.2897 0.76189 0.38482 0.0
C2308 C 0.30098 0.75042 0.4007 0.0
C2309 C 0.29358 0.72994 0.40666 0.0
C2310 C 0.275 0.72132 0.39717 0.0
H2311 H 0.20424 0.75966 0.38711 0.0
H2312 H 0.2311 0.75728 0.39768 0.0
H2313 H 0.22651 0.76994 0.37206 0.0
H2314 H 0.26339 0.76226 0.36269 0.0
H2315 H 0.29513 0.77761 0.37966 0.0
H2316 H 0.23171 0.24124 0.88909 0.0
H2317 H 0.26352 0.25681 0.87203 0.0
H2318 H 0.24402 0.31994 0.89286 0.0
H2319 H 0.21187 0.30444 0.9099 0.0
H2320 H 0.26374 0.29322 0.8391 0.0
H2321 H 0.30842 0.30952 0.91484 0.0
H2322 H 0.2872 0.28976 0.91336 0.0
H2323 H 0.28075 0.31785 0.91344 0.0
C2324 C 0.2342 0.25845 0.89013 0.0
C2325 C 0.21934 0.27162 0.90096 0.0
C2326 C 0.25235 0.26731 0.88028 0.0
C2327 C 0.25619 0.28949 0.88126 0.0
C2328 C 0.24141 0.30275 0.89204 0.0
H2329 H 0.36479 0.36831 0.84464 0.0
H2330 H 0.33185 0.35328 0.85938 0.0
C2331 C 0.22307 0.2939 0.90175 0.0
C2332 C 0.27575 0.29862 0.87103 0.0
H2333 H 0.32494 0.31991 0.88253 0.0
C2334 C 0.27715 0.29911 0.84853 0.0
C2335 C 0.29316 0.30628 0.88339 0.0
C2336 C 0.29254 0.30579 0.90761 0.0
C2337 C 0.29536 0.30749 0.83803 0.0
C2338 C 0.31302 0.3149 0.85039 0.0
C2339 C 0.31154 0.31425 0.87295 0.0
C2340 C 0.33292 0.32407 0.84049 0.0
C2341 C 0.2951 0.30891 0.81383 0.0
C2342 C 0.34475 0.31276 0.82484 0.0
C2343 C 0.36356 0.3216 0.81601 0.0
C2344 C 0.37126 0.34163 0.82313 0.0
C2345 C 0.35951 0.35274 0.83894 0.0
C2346 C 0.34058 0.34414 0.8474 0.0
H2347 H 0.27843 0.30901 0.80746 0.0
H2348 H 0.30343 0.32361 0.80809 0.0
H2349 H 0.30339 0.29466 0.80703 0.0
H2350 H 0.33965 0.29698 0.81962 0.0
H2351 H 0.37228 0.31257 0.80394 0.0
H2352 H 0.61261 0.8099 0.80301 0.0
H2353 H 0.63014 0.77783 0.81818 0.0
H2354 H 0.64922 0.75804 0.75463 0.0
H2355 H 0.63167 0.78978 0.7394 0.0
H2356 H 0.62125 0.73164 0.80427 0.0
H2357 H 0.70587 0.75799 0.79279 0.0
H2358 H 0.6838 0.77682 0.79428 0.0
H2359 H 0.68785 0.7612 0.7704 0.0
C2360 C 0.62053 0.79868 0.79231 0.0
C2361 C 0.6207 0.80232 0.77002 0.0
C2362 C 0.63054 0.78041 0.80098 0.0
C2363 C 0.64118 0.76569 0.78754 0.0
C2364 C 0.64133 0.76931 0.76531 0.0
H2365 H 0.717 0.64905 0.81091 0.0
H2366 H 0.7008 0.68156 0.79525 0.0
C2367 C 0.63117 0.7874 0.75663 0.0
C2368 C 0.6516 0.74617 0.79658 0.0
H2369 H 0.70044 0.72259 0.80531 0.0
C2370 C 0.63856 0.72966 0.80461 0.0
C2371 C 0.67416 0.74349 0.79663 0.0
C2372 C 0.68885 0.76081 0.7882 0.0
C2373 C 0.64743 0.71042 0.8125 0.0
C2374 C 0.6701 0.70789 0.81315 0.0
C2375 C 0.68312 0.72443 0.80494 0.0
C2376 C 0.68053 0.68845 0.82271 0.0
C2377 C 0.63228 0.69279 0.81942 0.0
C2378 C 0.6751 0.68177 0.84356 0.0
C2379 C 0.68394 0.66305 0.85225 0.0
C2380 C 0.69899 0.65081 0.84063 0.0
C2381 C 0.70535 0.65804 0.82019 0.0
C2382 C 0.69609 0.67663 0.81126 0.0
H2383 H 0.61654 0.69412 0.8111 0.0
H2384 H 0.63906 0.67662 0.8161 0.0
H2385 H 0.6292 0.69422 0.83692 0.0
H2386 H 0.66392 0.69099 0.85317 0.0
H2387 H 0.67908 0.65824 0.86825 0.0
H2388 H 0.16588 0.87804 0.17215 0.0
H2389 H 0.15154 0.84489 0.18711 0.0
H2390 H 0.21447 0.82794 0.21058 0.0
H2391 H 0.22901 0.86154 0.19594 0.0
H2392 H 0.16143 0.80408 0.17693 0.0
H2393 H 0.17824 0.8176 0.26345 0.0
H2394 H 0.18027 0.83878 0.24375 0.0
H2395 H 0.2015 0.81937 0.2465 0.0
C2396 C 0.17674 0.86745 0.18068 0.0
C2397 C 0.19868 0.87263 0.18286 0.0
C2398 C 0.16846 0.84839 0.1892 0.0
C2399 C 0.1818 0.83392 0.2002 0.0
C2400 C 0.2037 0.83901 0.20257 0.0
H2401 H 0.1553 0.70722 0.25508 0.0
H2402 H 0.1724 0.73969 0.24083 0.0
C2403 C 0.21204 0.85823 0.1941 0.0
C2404 C 0.1727 0.81325 0.20835 0.0
H2405 H 0.16462 0.78335 0.25378 0.0
C2406 C 0.16212 0.79961 0.19376 0.0
C2407 C 0.17357 0.80729 0.2303 0.0
C2408 C 0.18383 0.82159 0.24697 0.0
C2409 C 0.15248 0.78028 0.20046 0.0
C2410 C 0.15321 0.77444 0.2224 0.0
C2411 C 0.16404 0.78786 0.23696 0.0
C2412 C 0.14271 0.75452 0.23056 0.0
C2413 C 0.14181 0.76611 0.18394 0.0
C2414 C 0.12028 0.75204 0.22961 0.0
C2415 C 0.11043 0.7335 0.23783 0.0
C2416 C 0.12284 0.71706 0.2471 0.0
C2417 C 0.14529 0.71952 0.24789 0.0
C2418 C 0.1551 0.73811 0.23983 0.0
H2419 H 0.14694 0.77021 0.16735 0.0
H2420 H 0.14549 0.7489 0.187 0.0
H2421 H 0.12414 0.76823 0.18495 0.0
H2422 H 0.11034 0.76461 0.22281 0.0
H2423 H 0.0931 0.73213 0.23711 0.0
H2424 H 0.35437 0.14382 0.67138 0.0
H2425 H 0.36874 0.17683 0.68665 0.0
H2426 H 0.30533 0.19491 0.70792 0.0
H2427 H 0.29079 0.16139 0.69315 0.0
H2428 H 0.36052 0.21729 0.67608 0.0
H2429 H 0.33912 0.20559 0.76181 0.0
H2430 H 0.33716 0.18423 0.74231 0.0
H2431 H 0.31653 0.20442 0.74395 0.0
C2432 C 0.34341 0.15465 0.67949 0.0
C2433 C 0.32137 0.14981 0.68106 0.0
C2434 C 0.35171 0.17362 0.6882 0.0
C2435 C 0.33824 0.18836 0.69869 0.0
C2436 C 0.3162 0.18362 0.70037 0.0
H2437 H 0.36506 0.31525 0.75301 0.0
H2438 H 0.34786 0.28295 0.73847 0.0
C2439 C 0.30786 0.16446 0.6918 0.0
C2440 C 0.3474 0.20894 0.707 0.0
H2441 H 0.3538 0.23946 0.7523 0.0
C2442 C 0.35906 0.22207 0.69277 0.0
C2443 C 0.34552 0.21531 0.72878 0.0
C2444 C 0.33408 0.20158 0.74516 0.0
C2445 C 0.36883 0.24125 0.69965 0.0
C2446 C 0.36708 0.24751 0.72142 0.0
C2447 C 0.35515 0.23463 0.73561 0.0
C2448 C 0.37764 0.26729 0.72979 0.0
C2449 C 0.38074 0.25483 0.68348 0.0
C2450 C 0.40015 0.26923 0.72983 0.0
C2451 C 0.41004 0.28769 0.73817 0.0
C2452 C 0.3976 0.30456 0.74659 0.0
C2453 C 0.37508 0.30261 0.74645 0.0
C2454 C 0.36522 0.28412 0.73824 0.0
H2455 H 0.3763 0.25062 0.66672 0.0
H2456 H 0.37748 0.27219 0.68611 0.0
H2457 H 0.39826 0.25215 0.68538 0.0
H2458 H 0.41008 0.25632 0.7237 0.0
H2459 H 0.42741 0.28865 0.73821 0.0
H2460 H 0.85071 0.37077 0.36321 0.0
H2461 H 0.86582 0.33803 0.34783 0.0
H2462 H 0.81108 0.33208 0.30594 0.0
H2463 H 0.79546 0.36488 0.32152 0.0
H2464 H 0.84002 0.29313 0.34263 0.0
H2465 H 0.87241 0.33304 0.26933 0.0
H2466 H 0.86869 0.34765 0.29415 0.0
H2467 H 0.84579 0.33971 0.27866 0.0
C2468 C 0.84176 0.36259 0.35074 0.0
C2469 C 0.82186 0.37067 0.34352 0.0
C2470 C 0.85046 0.34379 0.34202 0.0
C2471 C 0.83962 0.33269 0.32573 0.0
C2472 C 0.81971 0.34049 0.3185 0.0
H2473 H 0.88277 0.2291 0.24296 0.0
H2474 H 0.86493 0.25987 0.25939 0.0
C2475 C 0.81083 0.35925 0.32739 0.0
C2476 C 0.8495 0.31318 0.31616 0.0
H2477 H 0.87942 0.2962 0.27345 0.0
C2478 C 0.84857 0.29369 0.32746 0.0
C2479 C 0.8606 0.31403 0.2964 0.0
C2480 C 0.86211 0.33468 0.28381 0.0
C2481 C 0.85827 0.2749 0.31938 0.0
C2482 C 0.86986 0.2758 0.29977 0.0
C2483 C 0.87067 0.2954 0.2885 0.0
C2484 C 0.8807 0.25658 0.29021 0.0
C2485 C 0.85546 0.2542 0.33169 0.0
C2486 C 0.89577 0.24438 0.3019 0.0
C2487 C 0.90576 0.22639 0.29259 0.0
C2488 C 0.90124 0.22058 0.27125 0.0
C2489 C 0.88657 0.23309 0.25946 0.0
C2490 C 0.87637 0.25077 0.26885 0.0
H2491 H 0.84112 0.25479 0.3423 0.0
H2492 H 0.85381 0.24025 0.32068 0.0
H2493 H 0.86973 0.25155 0.34204 0.0
H2494 H 0.89997 0.24884 0.31817 0.0
H2495 H 0.91714 0.21718 0.30199 0.0
H2496 H 0.1805 0.33526 0.50811 0.0
H2497 H 0.20064 0.36106 0.53023 0.0
H2498 H 0.16079 0.41258 0.50657 0.0
H2499 H 0.14115 0.38733 0.48426 0.0
H2500 H 0.20219 0.42489 0.50862 0.0
H2501 H 0.17805 0.38674 0.5857 0.0
H2502 H 0.19241 0.36972 0.56734 0.0
H2503 H 0.16611 0.37936 0.56037 0.0
C2504 C 0.17619 0.35212 0.50746 0.0
C2505 C 0.15901 0.35908 0.49448 0.0
C2506 C 0.18762 0.36685 0.52027 0.0
C2507 C 0.18203 0.38879 0.52042 0.0
C2508 C 0.16544 0.39579 0.50687 0.0
H2509 H 0.17973 0.49017 0.60785 0.0
H2510 H 0.17772 0.45656 0.58807 0.0
C2511 C 0.15411 0.3812 0.49412 0.0
C2512 C 0.19266 0.40468 0.53499 0.0
H2513 H 0.19785 0.41868 0.58788 0.0
C2514 C 0.20157 0.42339 0.52597 0.0
C2515 C 0.19168 0.40286 0.55765 0.0
C2516 C 0.18141 0.38371 0.56844 0.0
C2517 C 0.2085 0.44067 0.53885 0.0
C2518 C 0.2071 0.43904 0.56152 0.0
C2519 C 0.19918 0.41988 0.57055 0.0
C2520 C 0.21023 0.45809 0.57586 0.0
C2521 C 0.21587 0.46107 0.52798 0.0
C2522 C 0.22955 0.46994 0.57649 0.0
C2523 C 0.23074 0.48946 0.58795 0.0
C2524 C 0.21263 0.49731 0.59892 0.0
C2525 C 0.19394 0.48462 0.59944 0.0
C2526 C 0.19277 0.46532 0.58812 0.0
H2527 H 0.21235 0.46102 0.51048 0.0
H2528 H 0.20798 0.47532 0.53528 0.0
H2529 H 0.23348 0.46282 0.53006 0.0
H2530 H 0.24343 0.4645 0.56755 0.0
H2531 H 0.2453 0.49895 0.58719 0.0
H2532 H 0.30666 0.50768 0.06065 0.0
H2533 H 0.31069 0.54219 0.04247 0.0
H2534 H 0.30099 0.57515 0.10266 0.0
H2535 H 0.29708 0.54026 0.12105 0.0
H2536 H 0.28691 0.57928 0.0373 0.0
H2537 H 0.36118 0.59474 0.08458 0.0
H2538 H 0.34787 0.569 0.0846 0.0
H2539 H 0.33706 0.59091 0.09997 0.0
C2540 C 0.30467 0.52231 0.0699 0.0
C2541 C 0.30135 0.5213 0.09222 0.0
C2542 C 0.3071 0.54205 0.05951 0.0
C2543 C 0.30657 0.56133 0.0712 0.0
C2544 C 0.30181 0.56049 0.09332 0.0
H2545 H 0.34693 0.68683 0.0163 0.0
H2546 H 0.32794 0.66072 0.0392 0.0
C2547 C 0.29921 0.54059 0.10378 0.0
C2548 C 0.3127 0.58179 0.06021 0.0
H2549 H 0.35273 0.61945 0.05737 0.0
C2550 C 0.3011 0.58825 0.04192 0.0
C2551 C 0.33142 0.59342 0.06601 0.0
C2552 C 0.34527 0.58666 0.08474 0.0
C2553 C 0.30797 0.60559 0.0291 0.0
C2554 C 0.3269 0.61682 0.03463 0.0
C2555 C 0.33808 0.61093 0.0533 0.0
C2556 C 0.33661 0.63307 0.02001 0.0
C2557 C 0.29532 0.61148 1.00931 0.0
C2558 C 0.34758 0.62621 1.00156 0.0
C2559 C 0.35854 0.64097 0.98864 0.0
C2560 C 0.35864 0.66303 0.99373 0.0
C2561 C 0.34695 0.67002 0.01179 0.0
C2562 C 0.33621 0.65511 0.02495 0.0
H2563 H 0.27919 0.60384 1.00917 0.0
H2564 H 0.29337 0.6292 1.00822 0.0
H2565 H 0.30424 0.6061 0.99483 0.0
H2566 H 0.3482 0.60928 0.99751 0.0
H2567 H 0.36739 0.63503 0.97488 0.0
H2568 H 0.6701 0.1849 0.50364 0.0
H2569 H 0.68728 0.15769 0.4806 0.0
H2570 H 0.67093 0.10849 0.52654 0.0
H2571 H 0.65343 0.13528 0.54918 0.0
H2572 H 0.71995 0.12613 0.4855 0.0
H2573 H 0.64075 0.08797 0.4723 0.0
H2574 H 0.64351 0.11416 0.48445 0.0
H2575 H 0.64723 0.09021 0.50027 0.0
C2576 C 0.67054 0.16834 0.50898 0.0
C2577 C 0.66016 0.16222 0.52812 0.0
C2578 C 0.6803 0.15278 0.49576 0.0
C2579 C 0.67991 0.13092 0.50155 0.0
C2580 C 0.67093 0.12513 0.52141 0.0
H2581 H 0.71205 1.00555 0.45991 0.0
H2582 H 0.70693 0.03955 0.47882 0.0
C2583 C 0.66102 0.14052 0.53441 0.0
C2584 C 0.68764 0.11384 0.48656 0.0
H2585 H 0.6715 0.06721 0.4624 0.0
C2586 C 0.70932 0.11339 0.48019 0.0
C2587 C 0.67372 0.09732 0.47934 0.0
C2588 C 0.64997 0.09752 0.48424 0.0
C2589 C 0.71761 0.09625 0.46782 0.0
C2590 C 0.70389 0.07923 0.46168 0.0
C2591 C 0.68208 0.08017 0.4673 0.0
C2592 C 0.71176 0.05943 0.45075 0.0
C2593 C 0.74111 0.09591 0.46206 0.0
C2594 C 0.71707 0.05928 0.42877 0.0
C2595 C 0.72027 0.03968 0.41787 0.0
C2596 C 0.71803 0.02006 0.42886 0.0
C2597 C 0.71415 0.02044 0.45111 0.0
C2598 C 0.71108 0.03986 0.46191 0.0
H2599 H 0.75004 0.10953 0.46937 0.0
H2600 H 0.74848 0.08057 0.46744 0.0
H2601 H 0.74288 0.09679 0.44434 0.0
H2602 H 0.71739 0.07418 0.41977 0.0
H2603 H 0.72271 0.03983 0.40065 0.0
H2604 H 0.87762 0.88731 0.03817 0.0
H2605 H 0.85922 0.91286 0.01506 0.0
H2606 H 0.82207 0.86147 0.9873 0.0
H2607 H 0.84069 0.83536 0.01054 0.0
H2608 H 0.85987 0.91005 0.96825 0.0
H2609 H 0.77745 0.91072 1.00303 0.0
H2610 H 0.80053 0.90206 0.01835 0.0
H2611 H 0.78993 0.88513 0.99761 0.0
C2612 C 0.8654 0.88128 0.02735 0.0
C2613 C 0.86078 0.85912 0.02623 0.0
C2614 C 0.85488 0.89601 0.01409 0.0
C2615 C 0.83927 0.88915 0.99941 0.0
C2616 C 0.83396 0.86717 0.99863 0.0
H2617 H 0.80311 0.98137 0.89725 0.0
H2618 H 0.8081 0.94646 0.91527 0.0
C2619 C 0.8446 0.85227 0.01196 0.0
C2620 C 0.8297 0.90515 0.98434 0.0
H2621 H 0.78448 0.935 0.97486 0.0
C2622 C 0.84327 0.91524 0.9694 0.0
C2623 C 0.80812 0.91208 0.98604 0.0
C2624 C 0.79305 0.9021 1.00215 0.0
C2625 C 0.83607 0.93242 0.95658 0.0
C2626 C 0.81459 0.93966 0.95855 0.0
C2627 C 0.80084 0.92925 0.97314 0.0
C2628 C 0.80715 0.95958 0.94746 0.0
C2629 C 0.85183 0.94346 0.94183 0.0
C2630 C 0.8039 0.97835 0.95953 0.0
C2631 C 0.80105 0.99817 0.94929 0.0
C2632 C 0.80097 0.99962 0.92675 0.0
C2633 C 0.80254 0.98063 0.91463 0.0
C2634 C 0.80567 0.96074 0.92492 0.0
H2635 H 0.86857 0.93785 0.94441 0.0
H2636 H 0.84738 0.94016 0.92489 0.0
H2637 H 0.8513 0.96115 0.94426 0.0
H2638 H 0.80506 0.97792 0.97689 0.0
H2639 H 0.80033 0.01262 0.959 0.0
H2640 H 0.56239 0.20191 0.51353 0.0
H2641 H 0.54439 0.19962 0.47903 0.0
H2642 H 0.59856 0.23018 0.44847 0.0
H2643 H 0.61717 0.23198 0.48348 0.0
H2644 H 0.531 0.22768 0.44938 0.0
H2645 H 0.59417 0.17489 0.41423 0.0
H2646 H 0.59367 0.18159 0.44242 0.0
H2647 H 0.60263 0.20105 0.42308 0.0
C2648 C 0.57044 0.20847 0.49954 0.0
C2649 C 0.59131 0.21701 0.50125 0.0
C2650 C 0.56007 0.20715 0.47975 0.0
C2651 C 0.57019 0.21429 0.46094 0.0
C2652 C 0.59056 0.22409 0.46266 0.0
H2653 H 0.51438 0.17766 0.33423 0.0
H2654 H 0.5363 0.19792 0.36028 0.0
C2655 C 0.60107 0.22544 0.4827 0.0
C2656 C 0.55934 0.21023 0.43986 0.0
H2657 H 0.56237 0.17905 0.39459 0.0
C2658 C 0.53806 0.21737 0.43722 0.0
C2659 C 0.56842 0.19673 0.42389 0.0
C2660 C 0.59091 0.18794 0.42598 0.0
C2661 C 0.52536 0.21057 0.41981 0.0
C2662 C 0.53405 0.19617 0.40451 0.0
C2663 C 0.55572 0.19011 0.40631 0.0
C2664 C 0.5202 0.18516 0.38832 0.0
C2665 C 0.50243 0.21826 0.41837 0.0
C2666 C 0.50391 0.17129 0.39537 0.0
C2667 C 0.49153 0.15973 0.38066 0.0
C2668 C 0.49505 0.16166 0.35838 0.0
C2669 C 0.5111 0.17592 0.35123 0.0
C2670 C 0.52371 0.18742 0.3661 0.0
H2671 H 0.50018 0.23376 0.42697 0.0
H2672 H 0.49736 0.22029 0.40139 0.0
H2673 H 0.49174 0.20619 0.42598 0.0
H2674 H 0.50108 0.16898 0.41239 0.0
H2675 H 0.47935 0.14894 0.38684 0.0
H2676 H 0.91159 0.83913 0.98855 0.0
H2677 H 0.93114 0.84058 0.9548 0.0
H2678 H 0.95413 0.77597 0.96511 0.0
H2679 H 0.93453 0.77462 0.99958 0.0
H2680 H 0.98669 0.80318 0.95593 0.0
H2681 H 0.9233 0.81656 0.89571 0.0
H2682 H 0.92047 0.83537 0.91731 0.0
H2683 H 0.91738 0.80701 0.92246 0.0
C2684 C 0.92032 0.82496 0.98338 0.0
C2685 C 0.92142 0.8067 0.99667 0.0
C2686 C 0.93143 0.82576 0.96393 0.0
C2687 C 0.94393 0.80829 0.95708 0.0
C2688 C 0.94442 0.7896 0.96991 0.0
H2689 H 0.01255 0.83768 0.83552 0.0
H2690 H 0.99075 0.81718 0.8614 0.0
C2691 C 0.93309 0.78874 0.9895 0.0
C2692 C 0.95818 0.8109 0.93791 0.0
H2693 H 0.95856 0.83124 0.88685 0.0
C2694 C 0.98048 0.8088 0.94065 0.0
C2695 C 0.95025 0.81799 0.91777 0.0
C2696 C 0.92651 0.81913 0.91308 0.0
C2697 C 0.99499 0.81504 0.92446 0.0
C2698 C 0.98708 0.82407 0.90509 0.0
C2699 C 0.96477 0.82465 0.90174 0.0
C2700 C 1.00148 0.83502 0.88928 0.0
C2701 C 0.01872 0.81233 0.92855 0.0
C2702 C 0.01473 0.85188 0.89619 0.0
C2703 C 0.02719 0.86344 0.88157 0.0
C2704 C 0.02662 0.85875 0.85942 0.0
C2705 C 0.01355 0.84165 0.85243 0.0
C2706 C 1.00102 0.82997 0.86722 0.0
H2707 H 0.02181 0.79849 0.9394 0.0
H2708 H 0.02777 0.80985 0.91338 0.0
H2709 H 0.02498 0.82696 0.93661 0.0
H2710 H 0.015 0.8566 0.91294 0.0
H2711 H 0.03694 0.8765 0.8877 0.0
H2712 H 0.11989 0.2956 0.53899 0.0
H2713 H 0.1012 0.29873 0.57383 0.0
H2714 H 0.04233 0.31401 0.54065 0.0
H2715 H 0.06067 0.31059 0.50633 0.0
H2716 H 0.0829 0.33535 0.58923 0.0
H2717 H 0.01968 0.27349 0.58501 0.0
H2718 H 0.04252 0.27339 0.56712 0.0
H2719 H 0.01935 0.2898 0.56131 0.0
C2720 C 0.10277 0.29869 0.53922 0.0
C2721 C 0.09166 0.3025 0.51994 0.0
C2722 C 0.09214 0.30074 0.55912 0.0
C2723 C 0.07019 0.30632 0.55998 0.0
C2724 C 0.05903 0.30912 0.5406 0.0
H2725 H 0.97806 0.3719 0.63398 0.0
H2726 H 1.00048 0.35248 0.60831 0.0
C2727 C 0.06958 0.30719 0.5209 0.0
C2728 C 0.05923 0.31159 0.58073 0.0
H2729 H 0.01186 0.30438 0.60774 0.0
C2730 C 0.06766 0.32815 0.59361 0.0
C2731 C 0.03924 0.30233 0.58653 0.0
C2732 C 0.02981 0.28362 0.57435 0.0
C2733 C 0.05606 0.33653 0.61118 0.0
C2734 C 0.03554 0.3281 0.61611 0.0
C2735 C 0.02756 0.31089 0.60392 0.0
C2736 C 0.02126 0.33845 0.63233 0.0
C2737 C 0.06521 0.35521 0.62363 0.0
C2738 C 0.02514 0.33664 0.65452 0.0
C2739 C 0.01211 0.34761 0.66939 0.0
C2740 C 0.99513 0.36079 0.66229 0.0
C2741 C 0.99103 0.36201 0.64007 0.0
C2742 C 1.00383 0.35089 0.62532 0.0
H2743 H 0.08072 0.36089 0.61689 0.0
H2744 H 0.05363 0.36879 0.62365 0.0
H2745 H 0.06782 0.35034 0.64058 0.0
H2746 H 0.03845 0.32703 0.66029 0.0
H2747 H 0.01581 0.34642 0.68635 0.0
H2748 H 0.53703 0.64409 0.13307 0.0
H2749 H 0.5148 0.66382 0.10792 0.0
H2750 H 0.48938 0.7021 0.15976 0.0
H2751 H 0.51148 0.68179 0.18553 0.0
H2752 H 0.45766 0.68774 0.13396 0.0
H2753 H 0.52057 0.72246 0.08227 0.0
H2754 H 0.52427 0.69401 0.08471 0.0
H2755 H 0.52657 0.71086 0.10817 0.0
C2756 C 0.52695 0.65685 0.13929 0.0
C2757 C 0.52615 0.66128 0.16149 0.0
C2758 C 0.51432 0.66832 0.12472 0.0
C2759 C 0.50066 0.68482 0.13175 0.0
C2760 C 0.49995 0.68959 0.15386 0.0
H2761 H 0.43328 0.74601 0.02209 0.0
H2762 H 0.45283 0.74429 0.05656 0.0
C2763 C 0.51266 0.67802 0.16859 0.0
C2764 C 0.48613 0.69571 0.11598 0.0
H2765 H 0.48563 0.7175 0.06553 0.0
C2766 C 0.46382 0.69469 0.11921 0.0
C2767 C 0.49398 0.7052 0.09682 0.0
C2768 C 0.51768 0.70841 0.09291 0.0
C2769 C 0.44926 0.70141 0.10324 0.0
C2770 C 0.45716 0.70899 0.08326 0.0
C2771 C 0.47944 0.71149 0.08067 0.0
C2772 C 0.44294 0.71176 0.06408 0.0
C2773 C 0.42553 0.69982 0.10782 0.0
C2774 C 0.43061 0.6943 0.05693 0.0
C2775 C 0.4195 0.69532 0.0375 0.0
C2776 C 0.42046 0.71378 0.02448 0.0
C2777 C 0.43196 0.73172 0.03194 0.0
C2778 C 0.44326 0.73065 0.05154 0.0
H2779 H 0.42222 0.7021 0.12521 0.0
H2780 H 0.41622 0.71191 0.09858 0.0
H2781 H 0.41978 0.68353 0.10336 0.0
H2782 H 0.43046 0.67934 0.06583 0.0
H2783 H 0.4109 0.68116 0.03213 0.0
H2784 H 0.51413 0.56187 0.20606 0.0
H2785 H 0.47965 0.54384 0.20252 0.0
H2786 H 0.44725 0.60141 0.22362 0.0
H2787 H 0.4822 0.61987 0.22674 0.0
H2788 H 0.44653 0.53389 0.22824 0.0
H2789 H 0.41961 0.59161 0.16545 0.0
H2790 H 0.44679 0.59123 0.17543 0.0
H2791 H 0.42572 0.60304 0.19123 0.0
C2792 C 0.4997 0.57062 0.2104 0.0
C2793 C 0.5009 0.59233 0.21664 0.0
C2794 C 0.47993 0.56027 0.20833 0.0
C2795 C 0.46069 0.57131 0.21231 0.0
C2796 C 0.46182 0.59263 0.21997 0.0
H2797 H 0.33423 0.517 0.17347 0.0
H2798 H 0.36053 0.53929 0.19294 0.0
C2799 C 0.4818 0.60309 0.22212 0.0
C2800 C 0.43986 0.56047 0.2071 0.0
H2801 H 0.3976 0.56171 0.17186 0.0
C2802 C 0.43566 0.54019 0.21616 0.0
C2803 C 0.42563 0.56851 0.1912 0.0
C2804 C 0.42964 0.5897 0.18009 0.0
C2805 C 0.41826 0.52749 0.20927 0.0
C2806 C 0.40457 0.53519 0.19285 0.0
C2807 C 0.40804 0.55588 0.18453 0.0
C2808 C 0.38822 0.52107 0.18245 0.0
C2809 C 0.415 0.50562 0.21918 0.0
C2810 C 0.395 0.50342 0.17016 0.0
C2811 C 0.38012 0.49086 0.15896 0.0
C2812 C 0.35799 0.4955 0.15982 0.0
C2813 C 0.3511 0.51284 0.17263 0.0
C2814 C 0.36612 0.52566 0.18366 0.0
H2815 H 0.42303 0.50432 0.23506 0.0
H2816 H 0.39763 0.50206 0.22116 0.0
H2817 H 0.42199 0.49322 0.20842 0.0
H2818 H 0.41194 0.49969 0.16875 0.0
H2819 H 0.38605 0.47765 0.14928 0.0
H2820 H 0.8861 0.02989 0.88515 0.0
H2821 H 0.91176 1.0084 0.86525 0.0
H2822 H 0.86368 0.99445 0.81744 0.0
H2823 H 0.83731 0.01589 0.83773 0.0
H2824 H 0.88614 0.95821 0.82985 0.0
H2825 H 0.94393 0.02275 0.81089 0.0
H2826 H 0.93801 0.02205 0.83906 0.0
H2827 H 0.91701 0.02834 0.82015 0.0
C2828 C 0.88082 0.02249 0.87031 0.0
C2829 C 0.85949 0.02482 0.86306 0.0
C2830 C 0.89571 1.01026 0.85881 0.0
C2831 C 0.8899 1.00014 0.83955 0.0
C2832 C 0.86863 1.0023 0.83216 0.0
H2833 H 1.00121 0.93751 0.77715 0.0
H2834 H 0.96712 0.95763 0.77933 0.0
C2835 C 0.85358 0.0146 0.84375 0.0
C2836 C 0.90598 0.9865 0.82806 0.0
H2837 H 0.95816 0.98654 0.81091 0.0
C2838 C 0.90172 0.9645 0.82528 0.0
C2839 C 0.92627 0.99464 0.82171 0.0
C2840 C 0.9315 0.01829 0.82289 0.0
C2841 C 0.91765 0.95026 0.81777 0.0
C2842 C 0.93852 0.95813 0.81319 0.0
C2843 C 0.94228 0.98036 0.81454 0.0
C2844 C 0.95723 0.94353 0.80957 0.0
C2845 C 0.91208 0.9268 0.81531 0.0
C2846 C 0.96287 0.92863 0.82554 0.0
C2847 C 0.98216 0.91725 0.82427 0.0
C2848 C 0.99635 0.92039 0.80699 0.0
C2849 C 0.99033 0.93443 0.79037 0.0
C2850 C 0.97097 0.94605 0.79174 0.0
H2851 H 0.89475 0.92468 0.81162 0.0
H2852 H 0.9217 0.9191 0.8024 0.0
H2853 H 0.9154 0.91834 0.83065 0.0
H2854 H 0.95297 0.92672 0.83971 0.0
H2855 H 0.98656 0.90677 0.83746 0.0
H2856 H 0.53884 0.12007 0.29407 0.0
H2857 H 0.57369 0.10129 0.29669 0.0
H2858 H 0.54084 0.04318 0.31532 0.0
H2859 H 0.5065 0.0616 0.31247 0.0
H2860 H 0.59024 0.08386 0.33363 0.0
H2861 H 0.58355 0.01916 0.27347 0.0
H2862 H 0.56594 0.04225 0.27335 0.0
H2863 H 0.56038 0.01959 0.29053 0.0
C2864 C 0.53911 0.10308 0.29786 0.0
C2865 C 0.51993 0.09223 0.30279 0.0
C2866 C 0.55902 0.0924 0.2996 0.0
C2867 C 0.55998 0.07065 0.30593 0.0
C2868 C 0.54067 0.05972 0.30987 0.0
H2869 H 0.63466 0.97754 0.36884 0.0
H2870 H 0.60904 1.00002 0.34951 0.0
C2871 C 0.52097 0.07032 0.30829 0.0
C2872 C 0.58085 0.05971 0.31071 0.0
H2873 H 0.60732 0.01199 0.30362 0.0
C2874 C 0.5943 0.06842 0.32664 0.0
C2875 C 0.58623 0.03947 0.3017 0.0
C2876 C 0.57335 0.0297 0.28366 0.0
C2877 C 0.61203 0.05686 0.33474 0.0
C2878 C 0.6166 0.0361 0.32659 0.0
C2879 C 0.60382 0.02787 0.30993 0.0
C2880 C 0.63292 0.02179 0.3368 0.0
C2881 C 0.62499 0.06631 0.35291 0.0
C2882 C 0.65507 0.02617 0.33567 0.0
C2883 C 0.66995 0.0131 0.34664 0.0
C2884 C 0.66287 0.99559 0.3591 0.0
C2885 C 0.64073 0.99095 0.35954 0.0
C2886 C 0.626 1.00379 0.34845 0.0
H2887 H 0.61797 0.08156 0.35901 0.0
H2888 H 0.62607 0.05468 0.3664 0.0
H2889 H 0.64157 0.06961 0.34726 0.0
H2890 H 0.66082 0.03986 0.32661 0.0
H2891 H 0.68684 0.0172 0.34603 0.0
H2892 H 0.13426 0.53027 0.6374 0.0
H2893 H 0.10953 0.50726 0.65683 0.0
H2894 H 0.15845 0.49354 0.70382 0.0
H2895 H 0.18386 0.51672 0.68415 0.0
H2896 H 0.11797 0.4611 0.66675 0.0
H2897 H 0.10152 0.51288 0.73791 0.0
H2898 H 0.11111 0.52402 0.71289 0.0
H2899 H 0.12892 0.50866 0.72948 0.0
C2900 C 0.13995 0.52257 0.65194 0.0
C2901 C 0.16124 0.52545 0.65912 0.0
C2902 C 0.12567 0.50932 0.66302 0.0
C2903 C 0.13208 0.49866 0.68176 0.0
C2904 C 0.15313 0.50171 0.68941 0.0
H2905 H 0.0392 0.39912 0.72478 0.0
H2906 H 0.0744 0.41697 0.72126 0.0
C2907 C 0.16763 0.51498 0.67816 0.0
C2908 C 0.11653 0.48401 0.69256 0.0
H2909 H 0.08022 0.48195 0.73373 0.0
C2910 C 0.11003 0.46534 0.68167 0.0
C2911 C 0.10602 0.48977 0.71185 0.0
C2912 C 0.11207 0.50994 0.72382 0.0
C2913 C 0.09276 0.45276 0.68905 0.0
C2914 C 0.08177 0.45885 0.70805 0.0
C2915 C 0.08881 0.4771 0.71937 0.0
C2916 C 0.06113 0.44843 0.71441 0.0
C2917 C 0.0855 0.43387 0.67567 0.0
C2918 C 0.04205 0.46033 0.71293 0.0
C2919 C 0.02213 0.45024 0.71503 0.0
C2920 C 0.02075 0.42802 0.71896 0.0
C2921 C 0.0398 0.41631 0.72212 0.0
C2922 C 0.05988 0.42646 0.71981 0.0
H2923 H 0.09365 0.43329 0.65981 0.0
H2924 H 0.08914 0.41872 0.68434 0.0
H2925 H 0.06788 0.43454 0.67297 0.0
H2926 H 0.04252 0.47725 0.70878 0.0
H2927 H 1.0077 0.45961 0.71232 0.0
H2928 H 0.77492 0.52148 0.43619 0.0
H2929 H 0.77667 0.55577 0.45604 0.0
H2930 H 0.83871 0.56863 0.42802 0.0
H2931 H 0.83686 0.53493 0.40825 0.0
H2932 H 0.80628 0.56487 0.48639 0.0
H2933 H 0.81227 0.62724 0.42385 0.0
H2934 H 0.80306 0.60033 0.41801 0.0
H2935 H 0.83139 0.60628 0.41893 0.0
C2936 C 0.78847 0.5321 0.43368 0.0
C2937 C 0.80566 0.52566 0.42054 0.0
C2938 C 0.78958 0.55159 0.44516 0.0
C2939 C 0.80772 0.56505 0.44337 0.0
C2940 C 0.8243 0.55898 0.42935 0.0
H2941 H 0.88015 0.63479 0.53303 0.0
H2942 H 0.8602 0.60951 0.51124 0.0
C2943 C 0.82327 0.5396 0.41809 0.0
C2944 C 0.81091 0.58394 0.45788 0.0
H2945 H 0.82913 0.63584 0.45815 0.0
C2946 C 0.81076 0.58054 0.48019 0.0
C2947 C 0.81655 0.60456 0.45 0.0
C2948 C 0.8156 0.60987 0.42638 0.0
C2949 C 0.81751 0.59659 0.49463 0.0
C2950 C 0.82502 0.61655 0.48659 0.0
C2951 C 0.82369 0.62051 0.46441 0.0
C2952 C 0.83635 0.63245 0.5006 0.0
C2953 C 0.81697 0.59175 0.51837 0.0
C2954 C 0.83007 0.65419 0.50159 0.0
C2955 C 0.84176 0.66905 0.51405 0.0
C2956 C 0.86008 0.66246 0.52559 0.0
C2957 C 0.86612 0.64063 0.52456 0.0
C2958 C 0.85455 0.62595 0.51217 0.0
H2959 H 0.80405 0.58006 0.52225 0.0
H2960 H 0.83248 0.58438 0.5232 0.0
H2961 H 0.81443 0.60654 0.52803 0.0
H2962 H 0.81621 0.65968 0.49263 0.0
H2963 H 0.83671 0.68571 0.5143 0.0
H2964 H 0.74428 0.49987 0.9344 0.0
H2965 H 0.74251 0.46498 0.95328 0.0
H2966 H 0.67888 0.45468 0.92792 0.0
H2967 H 0.68071 0.48886 0.90911 0.0
H2968 H 0.71296 0.45469 0.98479 0.0
H2969 H 0.70478 0.39622 0.91868 0.0
H2970 H 0.71439 0.42327 0.91428 0.0
H2971 H 0.68598 0.41781 0.91561 0.0
C2972 C 0.73029 0.48974 0.93233 0.0
C2973 C 0.71269 0.49701 0.92019 0.0
C2974 C 0.72919 0.46991 0.94325 0.0
C2975 C 0.71066 0.45696 0.94182 0.0
C2976 C 0.69356 0.46396 0.92892 0.0
H2977 H 0.63095 0.37739 0.01177 0.0
H2978 H 0.65141 0.40279 0.99029 0.0
C2979 C 0.69459 0.48364 0.91824 0.0
C2980 C 0.70781 0.4373 0.95531 0.0
H2981 H 0.68868 0.38578 0.95287 0.0
C2982 C 0.70831 0.43942 0.9778 0.0
C2983 C 0.70167 0.41728 0.9463 0.0
C2984 C 0.70189 0.41345 0.92238 0.0
C2985 C 0.70134 0.42266 0.99133 0.0
C2986 C 0.69376 0.4033 0.98221 0.0
C2987 C 0.69453 0.40064 0.95985 0.0
C2988 C 0.68197 0.38718 0.99532 0.0
C2989 C 0.70082 0.42614 0.01529 0.0
C2990 C 0.69238 0.36971 1.00519 0.0
C2991 C 0.68062 0.35487 0.01761 0.0
C2992 C 0.65831 0.35743 0.02044 0.0
C2993 C 0.64811 0.37493 1.01027 0.0
C2994 C 0.65977 0.38952 0.99787 0.0
H2995 H 0.70906 0.44123 0.0201 0.0
H2996 H 0.68387 0.4269 0.02079 0.0
H2997 H 0.70855 0.41237 0.02361 0.0
H2998 H 0.70956 0.36763 1.00338 0.0
H2999 H 0.68899 0.34163 0.0252 0.0
H3000 H 0.34162 0.99012 0.60787 0.0
H3001 H 0.34355 0.95649 0.58823 0.0
H3002 H 0.27671 0.96255 0.57097 0.0
H3003 H 0.27491 0.99714 0.59039 0.0
H3004 H 0.32488 0.91833 0.58955 0.0
H3005 H 0.30435 0.9586 0.51241 0.0
H3006 H 0.30954 0.97354 0.53667 0.0
H3007 H 0.28431 0.95997 0.53312 0.0
C3008 C 0.32717 0.9842 0.60017 0.0
C3009 C 0.30815 0.99644 0.60049 0.0
C3010 C 0.3283 0.96486 0.58893 0.0
C3011 C 0.31045 0.95706 0.57763 0.0
C3012 C 0.29088 0.96844 0.57912 0.0
H3013 H 0.34097 0.83401 0.51062 0.0
H3014 H 0.3209 0.85957 0.53313 0.0
C3015 C 0.28974 0.98805 0.59047 0.0
C3016 C 0.31338 0.93785 0.56343 0.0
H3017 H 0.31576 0.92282 0.51059 0.0
C3018 C 0.3225 0.91915 0.57231 0.0
C3019 C 0.3106 0.93897 0.54086 0.0
C3020 C 0.30183 0.95886 0.53008 0.0
C3021 C 0.32992 0.90217 0.5593 0.0
C3022 C 0.32756 0.9035 0.53671 0.0
C3023 C 0.31744 0.9217 0.5279 0.0
C3024 C 0.33796 0.88772 0.52184 0.0
C3025 C 0.34156 0.88365 0.56979 0.0
C3026 C 0.3536 0.895 0.50735 0.0
C3027 C 0.36489 0.88054 0.49441 0.0
C3028 C 0.36088 0.85827 0.4955 0.0
C3029 C 0.34456 0.85099 0.50938 0.0
C3030 C 0.33319 0.8656 0.52241 0.0
H3031 H 0.34576 0.88713 0.58679 0.0
H3032 H 0.33112 0.86921 0.56954 0.0
H3033 H 0.35656 0.87978 0.56094 0.0
H3034 H 0.35759 0.91194 0.50648 0.0
H3035 H 0.37715 0.88689 0.48382 0.0
H3036 H 0.21488 0.04013 0.12204 0.0
H3037 H 0.20897 0.07383 0.10212 0.0
H3038 H 0.21697 0.03974 0.04236 0.0
H3039 H 0.22249 1.0062 0.06216 0.0
H3040 H 0.23151 0.09788 0.06675 0.0
H3041 H 0.15361 0.06177 0.04266 0.0
H3042 H 0.16969 0.05108 0.0643 0.0
H3043 H 0.17672 0.04548 0.03687 0.0
C3044 C 0.21636 0.04011 0.1047 0.0
C3045 C 0.21958 0.02068 0.09362 0.0
C3046 C 0.21277 0.0593 0.09331 0.0
C3047 C 0.21224 0.05926 0.07072 0.0
C3048 C 0.21713 0.04015 0.05976 0.0
H3049 H 0.16164 0.13847 0.96931 0.0
H3050 H 0.17944 0.11139 0.99143 0.0
C3051 C 0.22055 0.02104 0.07108 0.0
C3052 C 0.20427 0.0783 0.05853 0.0
H3053 H 0.16316 0.09445 0.02597 0.0
C3054 C 0.21654 0.09723 0.05788 0.0
C3055 C 0.18464 0.07749 0.0471 0.0
C3056 C 0.17026 0.05796 0.04785 0.0
C3057 C 0.21012 0.11505 0.04536 0.0
C3058 C 0.19066 0.11406 0.03354 0.0
C3059 C 0.17819 0.09526 0.03476 0.0
C3060 C 0.18287 0.13188 0.01935 0.0
C3061 C 0.22463 0.13442 0.04437 0.0
C3062 C 0.17936 0.15281 0.02728 0.0
C3063 C 0.16961 0.16857 0.01434 0.0
C3064 C 0.16274 0.16354 0.99342 0.0
C3065 C 0.16687 0.14286 0.98532 0.0
C3066 C 0.17695 0.12732 0.99804 0.0
H3067 H 0.24137 0.13033 0.049 0.0
H3068 H 0.22481 0.14154 0.02801 0.0
H3069 H 0.21869 0.14677 0.05578 0.0
H3070 H 0.18319 0.15671 0.04379 0.0
H3071 H 0.16619 0.18422 0.02116 0.0
H3072 H 0.50524 0.84582 0.68612 0.0
H3073 H 0.48273 0.82605 0.66024 0.0
H3074 H 0.52239 0.84887 0.60829 0.0
H3075 H 0.54464 0.86867 0.63379 0.0
H3076 H 0.46056 0.8471 0.62296 0.0
H3077 H 0.51661 0.78236 0.59827 0.0
H3078 H 0.5192 0.79657 0.62348 0.0
H3079 H 0.52817 0.80883 0.59893 0.0
C3080 C 0.50939 0.84624 0.66923 0.0
C3081 C 0.52679 0.85878 0.66205 0.0
C3082 C 0.49644 0.83505 0.65445 0.0
C3083 C 0.50096 0.83584 0.63233 0.0
C3084 C 0.51872 0.84779 0.62527 0.0
H3085 H 0.45948 0.81158 0.507 0.0
H3086 H 0.47767 0.81483 0.54143 0.0
C3087 C 0.53141 0.85916 0.63991 0.0
C3088 C 0.48661 0.82544 0.61622 0.0
H3089 H 0.48706 0.78936 0.57482 0.0
C3090 C 0.46609 0.83414 0.6127 0.0
C3091 C 0.49392 0.80865 0.60277 0.0
C3092 C 0.51561 0.79839 0.6061 0.0
C3093 C 0.45328 0.82747 0.59524 0.0
C3094 C 0.46095 0.81117 0.58124 0.0
C3095 C 0.48104 0.80174 0.58552 0.0
C3096 C 0.45 0.80594 0.56049 0.0
C3097 C 0.43235 0.839 0.59111 0.0
C3098 C 0.42851 0.79883 0.55945 0.0
C3099 C 0.41797 0.79684 0.5395 0.0
C3100 C 0.42884 0.80189 0.52037 0.0
C3101 C 0.4507 0.80751 0.52147 0.0
C3102 C 0.46113 0.80944 0.54121 0.0
H3103 H 0.43078 0.85383 0.60093 0.0
H3104 H 0.43089 0.84344 0.57389 0.0
H3105 H 0.41878 0.8282 0.59521 0.0
H3106 H 0.41966 0.79555 0.57406 0.0
H3107 H 0.40107 0.79275 0.53916 0.0
H3108 H 1.00683 0.18231 0.18431 0.0
H3109 H 0.02804 0.20266 0.15787 0.0
H3110 H 1.00756 0.15917 0.108 0.0
H3111 H 0.98623 0.13929 0.1338 0.0
H3112 H 0.06164 0.18944 0.1335 0.0
H3113 H 0.99702 0.2157 0.07892 0.0
H3114 H 0.99154 0.20519 0.10539 0.0
H3115 H 0.99581 0.18723 0.08306 0.0
C3116 C 1.00658 0.17731 0.16764 0.0
C3117 C 0.99467 0.15914 0.1613 0.0
C3118 C 0.01877 0.18894 0.15254 0.0
C3119 C 0.01911 0.18277 0.13077 0.0
C3120 C 1.00714 0.16473 0.12449 0.0
H3121 H 0.1106 0.18225 0.03247 0.0
H3122 H 0.09066 0.18012 0.06599 0.0
C3123 C 0.99503 0.1532 0.13944 0.0
C3124 C 0.03298 0.19398 0.11467 0.0
H3125 H 0.03264 0.21327 0.06321 0.0
C3126 C 0.05522 0.19508 0.11832 0.0
C3127 C 0.02473 0.20178 0.09491 0.0
C3128 C 1.00093 0.20263 0.09044 0.0
C3129 C 0.06947 0.20226 0.10227 0.0
C3130 C 0.06136 0.20818 0.08183 0.0
C3131 C 0.03901 0.20856 0.07873 0.0
C3132 C 0.07568 0.21137 0.06281 0.0
C3133 C 0.09316 0.20294 0.10728 0.0
C3134 C 0.07409 0.22971 0.04958 0.0
C3135 C 0.08565 0.23098 0.03016 0.0
C3136 C 0.09866 0.21374 0.02355 0.0
C3137 C 0.10083 0.19588 0.03723 0.0
C3138 C 0.08949 0.19468 0.05652 0.0
H3139 H 0.09594 0.20611 0.12462 0.0
H3140 H 0.10041 0.18709 0.10348 0.0
H3141 H 0.10152 0.21549 0.09774 0.0
H3142 H 0.06337 0.24272 0.05394 0.0
H3143 H 0.08337 0.24475 0.01975 0.0
H3144 H 0.01402 0.68309 0.33609 0.0
H3145 H 0.99271 0.70355 0.36241 0.0
H3146 H 0.01137 0.65898 0.41205 0.0
H3147 H 0.03277 0.63897 0.38638 0.0
H3148 H 0.95833 0.69058 0.38623 0.0
H3149 H 0.02281 0.71508 0.44181 0.0
H3150 H 0.02839 0.7048 0.41526 0.0
H3151 H 0.02353 0.68664 0.4373 0.0
C3152 C 0.01384 0.67787 0.35269 0.0
C3153 C 0.02526 0.65937 0.359 0.0
C3154 C 1.0016 0.68955 0.36772 0.0
C3155 C 1.00072 0.6831 0.38939 0.0
C3156 C 0.01219 0.66473 0.39565 0.0
H3157 H 0.9085 0.68377 0.48714 0.0
H3158 H 0.92835 0.68147 0.45354 0.0
C3159 C 0.02435 0.65314 0.38077 0.0
C3160 C 0.98686 0.69445 0.40541 0.0
H3161 H 0.98698 0.71335 0.45702 0.0
C3162 C 0.96468 0.69599 0.40153 0.0
C3163 C 0.99502 0.70192 0.42532 0.0
C3164 C 0.01878 0.70224 0.43007 0.0
C3165 C 0.95039 0.70332 0.41748 0.0
C3166 C 0.95838 0.70896 0.43804 0.0
C3167 C 0.9807 0.70887 0.44139 0.0
C3168 C 0.94393 0.71239 0.45693 0.0
C3169 C 0.92677 0.70448 0.41223 0.0
C3170 C 0.94583 0.73064 0.47024 0.0
C3171 C 0.93429 0.73201 0.48967 0.0
C3172 C 0.92095 0.715 0.49616 0.0
C3173 C 0.91844 0.69727 0.48239 0.0
C3174 C 0.92976 0.69597 0.46307 0.0
H3175 H 0.92422 0.70774 0.39487 0.0
H3176 H 0.91917 0.68878 0.41593 0.0
H3177 H 0.91855 0.71717 0.42172 0.0
H3178 H 0.95683 0.74343 0.466 0.0
H3179 H 0.93688 0.74563 0.5002 0.0
H3180 H 0.50955 0.39419 0.8744 0.0
H3181 H 0.53034 0.37491 0.90114 0.0
H3182 H 0.51297 0.31463 0.87167 0.0
H3183 H 0.4923 0.33414 0.84411 0.0
H3184 H 0.51612 0.34766 0.93046 0.0
H3185 H 0.57704 0.30643 0.87991 0.0
H3186 H 0.56003 0.32757 0.86965 0.0
H3187 H 0.54958 0.30086 0.87298 0.0
C3188 C 0.51015 0.37681 0.87341 0.0
C3189 C 0.49906 0.36574 0.85709 0.0
C3190 C 0.52214 0.36577 0.8888 0.0
C3191 C 0.5234 0.34326 0.88852 0.0
C3192 C 0.51262 0.33202 0.87208 0.0
H3193 H 0.56846 0.28575 1.00942 0.0
H3194 H 0.54781 0.29068 0.9762 0.0
C3195 C 0.5007 0.34317 0.85638 0.0
C3196 C 0.53523 0.33207 0.90621 0.0
H3197 H 0.57835 0.29967 0.91727 0.0
C3198 C 0.52961 0.33702 0.92752 0.0
C3199 C 0.55302 0.31834 0.90249 0.0
C3200 C 0.56047 0.31308 0.88005 0.0
C3201 C 0.54148 0.3292 0.94507 0.0
C3202 C 0.55918 0.31534 0.9414 0.0
C3203 C 0.56463 0.31003 0.92012 0.0
C3204 C 0.57307 0.30774 0.95946 0.0
C3205 C 0.53554 0.33679 0.96735 0.0
C3206 C 0.59468 0.3142 0.96058 0.0
C3207 C 0.60664 0.3109 0.97939 0.0
C3208 C 0.59728 0.3009 0.99733 0.0
C3209 C 0.57623 0.29297 0.99562 0.0
C3210 C 0.56432 0.29613 0.97676 0.0
H3211 H 0.52508 0.35127 0.9669 0.0
H3212 H 0.52663 0.32387 0.97579 0.0
H3213 H 0.5501 0.34068 0.97688 0.0
H3214 H 0.60182 0.32321 0.94751 0.0
H3215 H 0.6226 0.31776 0.98055 0.0
H3216 H 0.50762 0.45815 0.79304 0.0
H3217 H 0.54115 0.47789 0.79854 0.0
H3218 H 0.57366 0.41848 0.81328 0.0
H3219 H 0.54001 0.39865 0.80743 0.0
H3220 H 0.55981 0.47616 0.83973 0.0
H3221 H 0.61891 0.45174 0.77736 0.0
H3222 H 0.59029 0.44835 0.77381 0.0
H3223 H 0.60495 0.43043 0.791 0.0
C3224 C 0.52219 0.4492 0.79633 0.0
C3225 C 0.52138 0.42683 0.79921 0.0
C3226 C 0.54131 0.46051 0.79973 0.0
C3227 C 0.56002 0.44972 0.80623 0.0
C3228 C 0.5596 0.42715 0.80782 0.0
H3229 H 0.68151 0.49879 0.85847 0.0
H3230 H 0.65362 0.47639 0.84174 0.0
C3231 C 0.5404 0.41578 0.80431 0.0
C3232 C 0.57871 0.46239 0.81427 0.0
H3233 H 0.63165 0.47412 0.80539 0.0
C3234 C 0.5755 0.47578 0.83214 0.0
C3235 C 0.5993 0.46155 0.8047 0.0
C3236 C 0.60367 0.44737 0.78556 0.0
C3237 C 0.59218 0.48835 0.84069 0.0
C3238 C 0.61263 0.48826 0.83062 0.0
C3239 C 0.61598 0.4745 0.81297 0.0
C3240 C 0.63058 0.50226 0.83835 0.0
C3241 C 0.58773 0.50108 0.86088 0.0
C3242 C 0.62743 0.52448 0.84116 0.0
C3243 C 0.64314 0.53714 0.85109 0.0
C3244 C 0.66273 0.52807 0.85762 0.0
C3245 C 0.66664 0.50624 0.8533 0.0
C3246 C 0.65066 0.49341 0.84385 0.0
H3247 H 0.57431 0.49397 0.87026 0.0
H3248 H 0.60211 0.5019 0.87139 0.0
H3249 H 0.58295 0.51768 0.85644 0.0
H3250 H 0.61248 0.53195 0.83635 0.0
H3251 H 0.63975 0.55394 0.85421 0.0
H3252 H 0.04016 0.12225 0.21837 0.0
H3253 H 0.07439 0.10314 0.21247 0.0
H3254 H 0.04064 0.04268 0.21238 0.0
H3255 H 1.00668 0.06159 0.21804 0.0
H3256 H 0.09563 0.06053 0.23404 0.0
H3257 H 0.06771 0.0553 0.14934 0.0
H3258 H 0.05775 0.0754 0.16778 0.0
H3259 H 0.04848 0.04816 0.1697 0.0
C3260 C 0.04026 0.10484 0.21812 0.0
C3261 C 0.02083 0.09336 0.21898 0.0
C3262 C 0.05977 0.09394 0.21455 0.0
C3263 C 0.06003 0.07148 0.21185 0.0
C3264 C 0.04084 0.05998 0.21442 0.0
H3265 H 0.13609 0.97328 0.15288 0.0
H3266 H 0.1093 0.99568 0.17065 0.0
C3267 C 0.02146 0.07079 0.21783 0.0
C3268 C 0.07942 0.06014 0.20356 0.0
H3269 H 0.09827 0.03492 0.15861 0.0
C3270 C 0.09641 0.05509 0.21751 0.0
C3271 C 0.08035 0.05304 0.182 0.0
C3272 C 0.06271 0.05832 0.16621 0.0
C3273 C 0.11391 0.04236 0.21063 0.0
C3274 C 0.11459 0.03482 0.18913 0.0
C3275 C 0.09782 0.04052 0.17511 0.0
C3276 C 0.13179 0.02018 0.18081 0.0
C3277 C 0.13103 0.03638 0.22669 0.0
C3278 C 0.15363 0.02607 0.18097 0.0
C3279 C 0.16917 0.01298 0.17102 0.0
C3280 C 0.16309 0.99397 0.16037 0.0
C3281 C 0.14135 0.98784 0.16086 0.0
C3282 C 0.12596 1.0007 0.17099 0.0
H3283 H 0.12543 0.03865 0.24349 0.0
H3284 H 0.13614 0.01941 0.2246 0.0
H3285 H 0.14525 0.04683 0.22421 0.0
H3286 H 0.15858 0.0412 0.18798 0.0
H3287 H 0.18573 0.01832 0.17067 0.0
H3288 H 0.48823 0.91213 0.68076 0.0
H3289 H 0.45482 0.93231 0.67956 0.0
H3290 H 0.46494 0.95331 0.74483 0.0
H3291 H 0.49914 0.93324 0.74588 0.0
H3292 H 0.41749 0.93329 0.70099 0.0
H3293 H 0.46163 1.01011 0.71298 0.0
H3294 H 0.4753 0.98498 0.70841 0.0
H3295 H 0.46388 0.99077 0.73429 0.0
C3296 C 0.48319 0.92072 0.69505 0.0
C3297 C 0.49641 0.92124 0.71337 0.0
C3298 C 0.46401 0.93227 0.69435 0.0
C3299 C 0.45746 0.94477 0.71191 0.0
C3300 C 0.46985 0.94416 0.73088 0.0
H3301 H 0.33508 0.0141 0.68379 0.0
H3302 H 0.36078 0.99192 0.70405 0.0
C3303 C 0.48923 0.93245 0.73161 0.0
C3304 C 0.43858 0.9594 0.70921 0.0
H3305 H 0.42523 0.01251 0.70415 0.0
C3306 C 0.41903 0.95062 0.70206 0.0
C3307 C 0.44066 0.98206 0.71028 0.0
C3308 C 0.4615 0.99265 0.71673 0.0
C3309 C 0.402 0.96374 0.69495 0.0
C3310 C 0.40426 0.9864 0.69559 0.0
C3311 C 0.42339 0.99518 0.7038 0.0
C3312 C 0.38845 1.00115 0.68508 0.0
C3313 C 0.38238 0.95316 0.68543 0.0
C3314 C 0.39547 0.01448 0.66832 0.0
C3315 C 0.38097 0.02731 0.65701 0.0
C3316 C 0.35889 0.02722 0.66202 0.0
C3317 C 0.35191 0.01453 0.6794 0.0
C3318 C 0.36658 1.00167 0.69087 0.0
H3319 H 0.38501 0.93579 0.6822 0.0
H3320 H 0.36878 0.95464 0.69684 0.0
H3321 H 0.37769 0.96111 0.67016 0.0
H3322 H 0.41219 0.0145 0.6635 0.0
H3323 H 0.38713 0.03694 0.64388 0.0
H3324 H 0.98009 0.62336 0.30356 0.0
H3325 H 0.94596 0.6041 0.30926 0.0
H3326 H 0.97934 0.54359 0.30444 0.0
H3327 H 0.01324 0.56268 0.299 0.0
H3328 H 0.92343 0.56362 0.28614 0.0
H3329 H 0.95499 0.55197 0.3689 0.0
H3330 H 0.96465 0.57301 0.35139 0.0
H3331 H 0.97314 0.54574 0.3473 0.0
C3332 C 0.97989 0.60597 0.30266 0.0
C3333 C 0.99922 0.59448 0.30049 0.0
C3334 C 0.96045 0.59498 0.30611 0.0
C3335 C 0.96015 0.5724 0.30741 0.0
C3336 C 0.97918 0.56098 0.30349 0.0
H3337 H 0.88423 0.47276 0.36443 0.0
H3338 H 0.91088 0.49506 0.34629 0.0
C3339 C 0.99852 0.5719 0.30019 0.0
C3340 C 0.94102 0.56072 0.31571 0.0
H3341 H 0.92363 0.53291 0.35969 0.0
C3342 C 0.9233 0.55702 0.30226 0.0
C3343 C 0.94092 0.55215 0.33676 0.0
C3344 C 0.95934 0.55598 0.35206 0.0
C3345 C 0.90583 0.54422 0.30906 0.0
C3346 C 0.90596 0.53524 0.33001 0.0
C3347 C 0.92348 0.53957 0.34358 0.0
C3348 C 0.88871 0.52064 0.33822 0.0
C3349 C 0.88787 0.53977 0.29344 0.0
C3350 C 0.86706 0.52715 0.33928 0.0
C3351 C 0.8516 0.51409 0.34933 0.0
C3352 C 0.85761 0.4945 0.3589 0.0
C3353 C 0.87909 0.48775 0.3572 0.0
C3354 C 0.89438 0.50056 0.34689 0.0
H3355 H 0.89289 0.54277 0.27658 0.0
H3356 H 0.88219 0.52292 0.29481 0.0
H3357 H 0.87418 0.55061 0.29707 0.0
H3358 H 0.86226 0.54274 0.33324 0.0
H3359 H 0.83526 0.5199 0.35074 0.0
H3360 H 0.28995 0.13246 0.58538 0.0
H3361 H 0.27271 0.15696 0.5598 0.0
H3362 H 0.21775 0.16214 0.60151 0.0
H3363 H 0.23473 0.13743 0.62713 0.0
H3364 H 0.22779 0.15225 0.53991 0.0
H3365 H 0.24 0.22614 0.58874 0.0
H3366 H 0.25638 0.20239 0.59216 0.0
H3367 H 0.22939 0.20283 0.60221 0.0
C3368 C 0.27415 0.13871 0.58914 0.0
C3369 C 0.26378 0.13286 0.60842 0.0
C3370 C 0.26431 0.15274 0.57444 0.0
C3371 C 0.24399 0.16157 0.57876 0.0
C3372 C 0.23349 0.15567 0.59786 0.0
H3373 H 0.16439 0.25898 0.51687 0.0
H3374 H 0.18171 0.23369 0.54134 0.0
C3375 C 0.24321 0.14142 0.61247 0.0
C3376 C 0.23383 0.17693 0.56329 0.0
H3377 H 0.22048 0.22987 0.55656 0.0
C3378 C 0.22622 0.16924 0.5435 0.0
C3379 C 0.23166 0.19908 0.568 0.0
C3380 C 0.23986 0.20828 0.58885 0.0
C3381 C 0.21612 0.18295 0.52851 0.0
C3382 C 0.21419 0.20526 0.53304 0.0
C3383 C 0.22192 0.21289 0.55289 0.0
C3384 C 0.2038 0.22085 0.51775 0.0
C3385 C 0.20698 0.17316 0.5083 0.0
C3386 C 0.21051 0.22257 0.49621 0.0
C3387 C 0.20039 0.23693 0.48199 0.0
C3388 C 0.18354 0.25034 0.48903 0.0
C3389 C 0.17728 0.24901 0.51075 0.0
C3390 C 0.18722 0.23448 0.52486 0.0
H3391 H 0.20374 0.15571 0.51036 0.0
H3392 H 0.19182 0.18121 0.50348 0.0
H3393 H 0.21879 0.17491 0.49507 0.0
H3394 H 0.2237 0.21287 0.49033 0.0
H3395 H 0.20587 0.23757 0.4655 0.0
H3396 H 0.28857 0.90292 0.11348 0.0
H3397 H 0.30603 0.87954 0.08699 0.0
H3398 H 0.24572 0.84749 0.0755 0.0
H3399 H 0.22808 0.87137 0.10107 0.0
H3400 H 0.31341 0.83897 0.08449 0.0
H3401 H 0.26159 0.85804 0.01517 0.0
H3402 H 0.26019 0.873 0.03992 0.0
H3403 H 0.24594 0.84791 0.03708 0.0
C3404 C 0.27898 0.89103 0.10516 0.0
C3405 C 0.2568 0.88932 0.10932 0.0
C3406 C 0.28901 0.87758 0.08998 0.0
C3407 C 0.27721 0.86192 0.07864 0.0
C3408 C 0.25518 0.85985 0.08325 0.0
H3409 H 0.33772 0.75095 0.01567 0.0
H3410 H 0.32033 0.7758 0.04057 0.0
C3411 C 0.24509 0.87349 0.09812 0.0
C3412 C 0.28801 0.84735 0.06257 0.0
H3413 H 0.28342 0.82656 0.01179 0.0
C3414 C 0.30689 0.83644 0.06854 0.0
C3415 C 0.27994 0.84414 0.04147 0.0
C3416 C 0.26095 0.85658 0.03295 0.0
C3417 C 0.31756 0.82228 0.05438 0.0
C3418 C 0.30877 0.81808 0.03375 0.0
C3419 C 0.29013 0.82933 0.02762 0.0
C3420 C 0.31873 0.80242 0.01818 0.0
C3421 C 0.33854 0.8125 0.06163 0.0
C3422 C 0.32271 0.80837 0.99671 0.0
C3423 C 0.33214 0.79387 0.98216 0.0
C3424 C 0.33809 0.77302 0.98871 0.0
C3425 C 0.33371 0.76694 1.01007 0.0
C3426 C 0.32391 0.7813 0.02447 0.0
H3427 H 0.34652 0.82265 0.07394 0.0
H3428 H 0.33536 0.79659 0.06903 0.0
H3429 H 0.34979 0.8103 0.04797 0.0
H3430 H 0.31879 0.82442 0.99121 0.0
H3431 H 0.3352 0.79918 0.96587 0.0
H3432 H 0.70398 0.28526 0.55495 0.0
H3433 H 0.72124 0.3102 0.52978 0.0
H3434 H 0.68108 0.28663 0.47861 0.0
H3435 H 0.66384 0.26157 0.50348 0.0
H3436 H 0.74298 0.29957 0.48803 0.0
H3437 H 0.67271 0.35392 0.47875 0.0
H3438 H 0.67565 0.336 0.5014 0.0
H3439 H 0.66766 0.3256 0.47573 0.0
C3440 C 0.69879 0.2853 0.53835 0.0
C3441 C 0.6824 0.27128 0.53139 0.0
C3442 C 0.70872 0.29961 0.52394 0.0
C3443 C 0.70233 0.30052 0.5023 0.0
C3444 C 0.68615 0.28646 0.49525 0.0
H3445 H 0.73552 0.38223 0.39242 0.0
H3446 H 0.71865 0.35725 0.41778 0.0
C3447 C 0.67637 0.27201 0.50955 0.0
C3448 C 0.71263 0.316 0.48703 0.0
H3449 H 0.70269 0.36075 0.45658 0.0
C3450 C 0.73421 0.31301 0.48122 0.0
C3451 C 0.70117 0.33342 0.47792 0.0
C3452 C 0.67805 0.33764 0.4838 0.0
C3453 C 0.74451 0.32666 0.46632 0.0
C3454 C 0.73318 0.3444 0.45743 0.0
C3455 C 0.71153 0.34732 0.46329 0.0
C3456 C 0.7434 0.36003 0.44206 0.0
C3457 C 0.76725 0.32139 0.45975 0.0
C3458 C 0.76275 0.37049 0.44723 0.0
C3459 C 0.77257 0.3846 0.43262 0.0
C3460 C 0.7631 0.3891 0.41255 0.0
C3461 C 0.74332 0.37924 0.40769 0.0
C3462 C 0.73364 0.36487 0.42222 0.0
H3463 H 0.77092 0.30408 0.46221 0.0
H3464 H 0.77018 0.32541 0.44262 0.0
H3465 H 0.77857 0.33078 0.46982 0.0
H3466 H 0.77034 0.36779 0.46263 0.0
H3467 H 0.78765 0.39203 0.43711 0.0
H3468 H 0.73065 0.63213 0.93507 0.0
H3469 H 0.74806 0.65642 0.96066 0.0
H3470 H 0.80241 0.66238 0.91826 0.0
H3471 H 0.78521 0.63789 0.89257 0.0
H3472 H 0.79178 0.65212 0.98057 0.0
H3473 H 0.78145 0.72591 0.93124 0.0
H3474 H 0.76534 0.7021 0.92717 0.0
H3475 H 0.79264 0.70277 0.91797 0.0
C3476 C 0.74635 0.63851 0.93114 0.0
C3477 C 0.75646 0.63296 0.91163 0.0
C3478 C 0.7563 0.65242 0.94586 0.0
C3479 C 0.77648 0.66144 0.94136 0.0
C3480 C 0.78675 0.6558 0.92204 0.0
H3481 H 0.85655 0.758 1.00383 0.0
H3482 H 0.83926 0.73276 0.97931 0.0
C3483 C 0.77692 0.64168 0.90739 0.0
C3484 C 0.7867 0.67672 0.95687 0.0
H3485 H 0.8009 0.72944 0.96351 0.0
C3486 C 0.79376 0.66904 0.97688 0.0
C3487 C 0.78937 0.6988 0.95207 0.0
C3488 C 0.78171 0.70805 0.93103 0.0
C3489 C 0.80381 0.68267 0.99198 0.0
C3490 C 0.80627 0.70489 0.98733 0.0
C3491 C 0.79908 0.71252 0.96727 0.0
C3492 C 0.81667 0.72041 1.00268 0.0
C3493 C 0.81234 0.67284 0.01243 0.0
C3494 C 0.80969 0.72238 0.02412 0.0
C3495 C 0.81983 0.73669 0.03838 0.0
C3496 C 0.83692 0.74982 0.03147 0.0
C3497 C 0.84345 0.74825 1.00984 0.0
C3498 C 0.83353 0.73374 0.99571 0.0
H3499 H 0.81532 0.65533 0.01055 0.0
H3500 H 0.82754 0.68064 0.01754 0.0
H3501 H 0.80028 0.6749 0.02539 0.0
H3502 H 0.79629 0.71292 0.02988 0.0
H3503 H 0.81414 0.73755 0.0548 0.0
H3504 H 0.46557 0.20388 0.234 0.0
H3505 H 0.49065 0.2213 0.20908 0.0
H3506 H 0.54283 0.1843 0.2355 0.0
H3507 H 0.51806 0.16689 0.26049 0.0
H3508 H 0.53044 0.2454 0.21936 0.0
H3509 H 0.54569 0.17309 0.16924 0.0
H3510 H 0.52256 0.1754 0.18662 0.0
H3511 H 0.54849 0.16955 0.19777 0.0
C3512 C 0.48237 0.19942 0.23458 0.0
C3513 C 0.48965 0.18384 0.24936 0.0
C3514 C 0.49672 0.20944 0.22028 0.0
C3515 C 0.51863 0.20395 0.22017 0.0
C3516 C 0.52598 0.18862 0.23502 0.0
H3517 H 0.62977 0.23828 0.14105 0.0
H3518 H 0.60419 0.2216 0.16588 0.0
C3519 C 0.51173 0.17874 0.24942 0.0
C3520 C 0.53388 0.21431 0.20471 0.0
H3521 H 0.56674 0.20378 0.16189 0.0
C3522 C 0.53831 0.23634 0.20671 0.0
C3523 C 0.54436 0.20248 0.18834 0.0
C3524 C 0.53999 0.17885 0.18515 0.0
C3525 C 0.55321 0.24676 0.19315 0.0
C3526 C 0.56351 0.23502 0.17648 0.0
C3527 C 0.55897 0.21293 0.17451 0.0
C3528 C 0.57908 0.24521 0.16103 0.0
C3529 C 0.55827 0.27009 0.19746 0.0
C3530 C 0.57358 0.26388 0.14948 0.0
C3531 C 0.58836 0.27364 0.13551 0.0
C3532 C 0.6089 0.26472 0.13219 0.0
C3533 C 0.61413 0.24561 0.14312 0.0
C3534 C 0.59945 0.23604 0.1574 0.0
H3535 H 0.55488 0.27448 0.21443 0.0
H3536 H 0.57536 0.27381 0.19398 0.0
H3537 H 0.54798 0.28034 0.18712 0.0
H3538 H 0.55779 0.27095 0.1512 0.0
H3539 H 0.58361 0.28818 0.12719 0.0
H3540 H 0.90062 0.78934 0.62706 0.0
H3541 H 0.9264 0.80648 0.65141 0.0
H3542 H 0.95481 0.74478 0.66496 0.0
H3543 H 0.9291 0.72751 0.64086 0.0
H3544 H 0.94766 0.76827 0.70186 0.0
H3545 H 0.99023 0.81839 0.64174 0.0
H3546 H 0.96163 0.82215 0.64215 0.0
H3547 H 0.9726 0.79663 0.6342 0.0
C3548 C 0.91243 0.77939 0.63507 0.0
C3549 C 0.9127 0.75697 0.63178 0.0
C3550 C 0.92729 0.78927 0.64897 0.0
C3551 C 0.94285 0.77702 0.65991 0.0
C3552 C 0.94309 0.75466 0.65671 0.0
H3553 H 0.05675 0.82449 0.72831 0.0
H3554 H 0.03178 0.80694 0.70342 0.0
C3555 C 0.92832 0.74479 0.64281 0.0
C3556 C 0.95851 0.7873 0.6751 0.0
H3557 H 0.99886 0.82462 0.67837 0.0
C3558 C 0.95885 0.78058 0.69668 0.0
C3559 C 0.97341 0.80318 0.66843 0.0
C3560 C 0.97468 0.81042 0.64534 0.0
C3561 C 0.9733 0.78948 0.71171 0.0
C3562 C 0.98778 0.8058 0.70517 0.0
C3563 C 0.98771 0.81226 0.68352 0.0
C3564 C 1.00305 0.81636 0.72055 0.0
C3565 C 0.97317 0.78102 0.73442 0.0
C3566 C 0.99536 0.82772 0.7385 0.0
C3567 C 1.0096 0.83781 0.75278 0.0
C3568 C 0.03201 0.83691 0.74953 0.0
C3569 C 0.03968 0.82553 0.73149 0.0
C3570 C 0.02538 0.8155 0.71715 0.0
H3571 H 0.96552 0.76492 0.73543 0.0
H3572 H 0.98973 0.77989 0.74094 0.0
H3573 H 0.96386 0.79218 0.74476 0.0
H3574 H 0.97825 0.82903 0.74135 0.0
H3575 H 1.00295 0.84646 0.76634 0.0
H3576 H 0.96407 0.32454 0.79221 0.0
H3577 H 0.98895 0.30699 0.81716 0.0
H3578 H 0.04264 0.32976 0.7799 0.0
H3579 H 0.01799 0.34724 0.75483 0.0
H3580 H 0.04702 0.28686 0.79159 0.0
H3581 H 0.02628 0.3364 0.86275 0.0
H3582 H 1.00374 0.32347 0.8502 0.0
H3583 H 0.01841 0.34376 0.83582 0.0
C3584 C 0.98116 0.32586 0.78926 0.0
C3585 C 0.98888 0.33751 0.77142 0.0
C3586 C 0.99542 0.31588 0.80369 0.0
C3587 C 0.01779 0.31728 0.80071 0.0
C3588 C 0.02551 0.3285 0.78271 0.0
H3589 H 0.12019 0.28841 0.89318 0.0
H3590 H 0.09458 0.30557 0.86865 0.0
C3591 C 0.0113 0.33855 0.76834 0.0
C3592 C 0.03318 0.3069 0.81613 0.0
H3593 H 0.04963 0.30685 0.86868 0.0
C3594 C 0.04756 0.29125 0.80845 0.0
C3595 C 0.03421 0.31276 0.83813 0.0
C3596 C 0.02 0.33015 0.84725 0.0
C3597 C 0.06259 0.28113 0.82209 0.0
C3598 C 0.06324 0.28657 0.84421 0.0
C3599 C 0.0491 0.30247 0.85183 0.0
C3600 C 0.07859 0.27607 0.85959 0.0
C3601 C 0.07795 0.26498 0.81255 0.0
C3602 C 0.07803 0.25375 0.86312 0.0
C3603 C 0.09264 0.24387 0.8772 0.0
C3604 C 0.10825 0.25601 0.88827 0.0
C3605 C 0.10852 0.27844 0.885 0.0
C3606 C 0.09382 0.28833 0.87093 0.0
H3607 H 0.07927 0.26678 0.79484 0.0
H3608 H 0.09421 0.26663 0.81969 0.0
H3609 H 0.07203 0.24852 0.81597 0.0
H3610 H 0.06622 0.24391 0.85498 0.0
H3611 H 0.09175 0.22661 0.87927 0.0
H3612 H 0.55547 0.69639 0.2924 0.0
H3613 H 0.5303 0.71359 0.31728 0.0
H3614 H 0.47705 0.69088 0.27936 0.0
H3615 H 0.50202 0.67375 0.25434 0.0
H3616 H 0.47233 0.73366 0.29146 0.0
H3617 H 0.49278 0.68364 0.36232 0.0
H3618 H 0.51538 0.69675 0.35008 0.0
H3619 H 0.50089 0.67655 0.33539 0.0
C3620 C 0.53842 0.69501 0.28928 0.0
C3621 C 0.53092 0.68348 0.27126 0.0
C3622 C 0.52398 0.70478 0.30368 0.0
C3623 C 0.50165 0.7033 0.30051 0.0
C3624 C 0.49414 0.6922 0.28233 0.0
H3625 H 0.39908 0.7324 0.39319 0.0
H3626 H 0.42441 0.71496 0.36849 0.0
C3627 C 0.50853 0.68236 0.26798 0.0
C3628 C 0.4861 0.71347 0.31591 0.0
H3629 H 0.4695 0.71325 0.36843 0.0
C3630 C 0.47173 0.72916 0.30828 0.0
C3631 C 0.48498 0.70749 0.33787 0.0
C3632 C 0.49917 0.69005 0.34694 0.0
C3633 C 0.45668 0.73922 0.32195 0.0
C3634 C 0.45598 0.73368 0.34404 0.0
C3635 C 0.47007 0.7177 0.3516 0.0
C3636 C 0.44076 0.74429 0.35949 0.0
C3637 C 0.44138 0.75547 0.31248 0.0
C3638 C 0.44162 0.76657 0.36309 0.0
C3639 C 0.42719 0.7766 0.37725 0.0
C3640 C 0.41145 0.76463 0.38834 0.0
C3641 C 0.41086 0.74222 0.38499 0.0
C3642 C 0.42539 0.73219 0.37084 0.0
H3643 H 0.44002 0.75371 0.29476 0.0
H3644 H 0.42512 0.75389 0.31964 0.0
H3645 H 0.4474 0.7719 0.31591 0.0
H3646 H 0.45354 0.77629 0.35496 0.0
H3647 H 0.42834 0.79384 0.37938 0.0
H3648 H 0.13698 0.62822 0.23501 0.0
H3649 H 0.16141 0.60239 0.21783 0.0
H3650 H 0.15526 0.56008 0.27225 0.0
H3651 H 0.13107 0.58577 0.28961 0.0
H3652 H 0.20228 0.58493 0.23732 0.0
H3653 H 0.14229 0.52176 0.21765 0.0
H3654 H 0.13478 0.54943 0.22236 0.0
H3655 H 0.14173 0.53237 0.24454 0.0
C3656 C 0.14066 0.61335 0.24327 0.0
C3657 C 0.13191 0.60915 0.26373 0.0
C3658 C 0.15472 0.59861 0.23344 0.0
C3659 C 0.16009 0.57916 0.24363 0.0
C3660 C 0.15123 0.57483 0.26393 0.0
H3661 H 0.23689 0.4667 0.2061 0.0
H3662 H 0.21251 0.49197 0.22396 0.0
C3663 C 0.13741 0.58963 0.27387 0.0
C3664 C 0.17538 0.56364 0.23341 0.0
H3665 H 0.17867 0.51349 0.21099 0.0
C3666 C 0.19712 0.56934 0.23147 0.0
C3667 C 0.16876 0.54315 0.22607 0.0
C3668 C 0.1456 0.53623 0.22757 0.0
C3669 C 0.21241 0.55509 0.22266 0.0
C3670 C 0.20574 0.53471 0.21479 0.0
C3671 C 0.18395 0.52902 0.21688 0.0
C3672 C 0.22095 0.51927 0.20409 0.0
C3673 C 0.23568 0.56185 0.22258 0.0
C3674 C 0.23378 0.52586 0.1867 0.0
C3675 C 0.24799 0.51151 0.17667 0.0
C3676 C 0.2495 0.48991 0.18337 0.0
C3677 C 0.23632 0.48316 0.20049 0.0
C3678 C 0.22228 0.49765 0.21073 0.0
H3679 H 0.23902 0.57385 0.23538 0.0
H3680 H 0.24656 0.5479 0.22491 0.0
H3681 H 0.23951 0.5695 0.20694 0.0
H3682 H 0.23266 0.54213 0.18063 0.0
H3683 H 0.25754 0.51734 0.16335 0.0
H3684 H 0.64015 0.9314 0.72638 0.0
H3685 H 0.66456 0.95679 0.74371 0.0
H3686 H 0.65357 0.92603 0.80473 0.0
H3687 H 0.6289 0.90057 0.78755 0.0
H3688 H 0.65291 0.97078 0.80773 0.0
H3689 H 0.72565 0.94409 0.76379 0.0
H3690 H 0.70378 0.9517 0.74661 0.0
H3691 H 0.70107 0.92873 0.76393 0.0
C3692 C 0.64283 0.92996 0.74351 0.0
C3693 C 0.63247 0.91372 0.75547 0.0
C3694 C 0.65698 0.94448 0.7534 0.0
C3695 C 0.66132 0.9432 0.77553 0.0
C3696 C 0.65066 0.92735 0.78763 0.0
H3697 H 0.76746 1.00336 0.84504 0.0
H3698 H 0.74227 0.97877 0.82763 0.0
C3699 C 0.63651 0.91275 0.77774 0.0
C3700 C 0.67681 0.95844 0.78601 0.0
H3701 H 0.72908 0.9757 0.78489 0.0
C3702 C 0.66956 0.97182 0.80272 0.0
C3703 C 0.69868 0.95974 0.77976 0.0
C3704 C 0.70787 0.94518 0.76269 0.0
C3705 C 0.68338 0.98658 0.81302 0.0
C3706 C 0.70509 0.98829 0.80637 0.0
C3707 C 0.71243 0.97466 0.7899 0.0
C3708 C 0.72058 1.00363 0.81668 0.0
C3709 C 0.67469 0.99995 0.83128 0.0
C3710 C 0.71714 0.02598 0.81612 0.0
C3711 C 0.73164 0.0402 0.82604 0.0
C3712 C 0.75 0.03246 0.83683 0.0
C3713 C 0.75354 1.01006 0.83703 0.0
C3714 C 0.7391 0.99589 0.82702 0.0
H3715 H 0.65956 0.99315 0.83786 0.0
H3716 H 0.68661 1.00121 0.84449 0.0
H3717 H 0.67122 0.01642 0.82537 0.0
H3718 H 0.70324 0.03247 0.80792 0.0
H3719 H 0.72832 0.05728 0.82538 0.0
H3720 H 0.78622 0.96687 0.31641 0.0
H3721 H 0.81114 0.99223 0.29928 0.0
H3722 H 0.78725 0.04323 0.33954 0.0
H3723 H 0.76224 0.01822 0.35659 0.0
H3724 H 0.79952 0.03483 0.27798 0.0
H3725 H 0.85501 0.04272 0.34752 0.0
H3726 H 0.83746 0.01983 0.34416 0.0
H3727 H 0.82672 0.04509 0.35298 0.0
C3728 C 0.78623 0.98347 0.32165 0.0
C3729 C 0.77212 0.99037 0.33799 0.0
C3730 C 0.8005 0.99798 0.3118 0.0
C3731 C 0.80126 0.01963 0.31825 0.0
C3732 C 0.78716 0.02658 0.33442 0.0
H3733 H 0.88267 0.13012 0.28558 0.0
H3734 H 0.8579 0.10459 0.30261 0.0
C3735 C 0.77275 0.0122 0.3441 0.0
C3736 C 0.81658 0.03507 0.30799 0.0
H3737 H 0.86145 0.06533 0.31778 0.0
C3738 C 0.81314 0.04143 0.28663 0.0
C3739 C 0.83418 0.04394 0.31933 0.0
C3740 C 0.83878 0.03753 0.34224 0.0
C3741 C 0.82655 0.05661 0.27643 0.0
C3742 C 0.8445 0.06521 0.28762 0.0
C3743 C 0.84785 0.05883 0.30905 0.0
C3744 C 0.85999 0.0807 0.27738 0.0
C3745 C 0.8208 0.06376 0.25399 0.0
C3746 C 0.87 0.07579 0.25773 0.0
C3747 C 0.88394 0.09048 0.24784 0.0
C3748 C 0.88876 0.11039 0.25753 0.0
C3749 C 0.8794 0.11499 0.27761 0.0
C3750 C 0.86517 0.10036 0.28737 0.0
H3751 H 0.80341 0.06149 0.25068 0.0
H3752 H 0.82485 0.08094 0.25137 0.0
H3753 H 0.82985 0.0539 0.2422 0.0
H3754 H 0.86705 0.06052 0.24994 0.0
H3755 H 0.89102 0.08616 0.23254 0.0
H3756 H 0.28603 0.55572 0.70293 0.0
H3757 H 0.3111 0.53045 0.71998 0.0
H3758 H 0.28459 0.47858 0.6826 0.0
H3759 H 0.25945 0.50352 0.66561 0.0
H3760 H 0.30042 0.48987 0.74357 0.0
H3761 H 0.35121 0.47627 0.67143 0.0
H3762 H 0.33401 0.49951 0.67421 0.0
H3763 H 0.32266 0.47381 0.66769 0.0
C3764 C 0.28548 0.53894 0.69831 0.0
C3765 C 0.27062 0.5318 0.68278 0.0
C3766 C 0.29985 0.52449 0.70811 0.0
C3767 C 0.29996 0.50261 0.70242 0.0
C3768 C 0.28506 0.4954 0.6871 0.0
H3769 H 0.37987 0.39131 0.73602 0.0
H3770 H 0.35498 0.41685 0.71919 0.0
C3771 C 0.27057 0.50975 0.67745 0.0
C3772 C 0.31542 0.48723 0.7126 0.0
H3773 H 0.35858 0.45484 0.70184 0.0
C3774 C 0.31321 0.48228 0.73449 0.0
C3775 C 0.33197 0.47708 0.70073 0.0
C3776 C 0.33532 0.48197 0.67724 0.0
C3777 C 0.32677 0.46724 0.74472 0.0
C3778 C 0.34366 0.45732 0.73296 0.0
C3779 C 0.3458 0.46233 0.71101 0.0
C3780 C 0.35924 0.44181 0.74308 0.0
C3781 C 0.32225 0.46164 0.76787 0.0
C3782 C 0.37052 0.44728 0.76189 0.0
C3783 C 0.38451 0.43256 0.7717 0.0
C3784 C 0.38814 0.41208 0.76272 0.0
C3785 C 0.37754 0.4069 0.74341 0.0
C3786 C 0.36324 0.42154 0.73377 0.0
H3787 H 0.30518 0.46471 0.77211 0.0
H3788 H 0.32592 0.44451 0.77129 0.0
H3789 H 0.33231 0.47186 0.77845 0.0
H3790 H 0.36853 0.463 0.76907 0.0
H3791 H 0.39257 0.4373 0.78638 0.0
H3792 H 0.84541 0.75481 0.50253 0.0
H3793 H 0.82798 0.77979 0.47776 0.0
H3794 H 0.80702 0.81853 0.53118 0.0
H3795 H 0.82456 0.79367 0.55618 0.0
H3796 H 0.78547 0.79235 0.47375 0.0
H3797 H 0.83656 0.86289 0.49264 0.0
H3798 H 0.84347 0.83596 0.50092 0.0
H3799 H 0.82367 0.85103 0.51557 0.0
C3800 C 0.83712 0.76862 0.50913 0.0
C3801 C 0.8366 0.77213 0.53152 0.0
C3802 C 0.8271 0.78294 0.49485 0.0
C3803 C 0.81641 0.80134 0.50244 0.0
C3804 C 0.81551 0.80474 0.52478 0.0
H3805 H 0.72629 0.88016 0.42795 0.0
H3806 H 0.7434 0.85591 0.45365 0.0
C3807 C 0.82546 0.79036 0.53912 0.0
C3808 C 0.80611 0.81674 0.48695 0.0
H3809 H 0.80683 0.86904 0.46962 0.0
C3810 C 0.79016 0.80912 0.47289 0.0
C3811 C 0.81235 0.83861 0.48547 0.0
C3812 C 0.83008 0.84764 0.49929 0.0
C3813 C 0.78013 0.82271 0.45774 0.0
C3814 C 0.78596 0.84473 0.45664 0.0
C3815 C 0.80215 0.85228 0.47048 0.0
C3816 C 0.77556 0.86009 0.44116 0.0
C3817 C 0.76368 0.81319 0.44271 0.0
C3818 C 0.78788 0.87122 0.42581 0.0
C3819 C 0.7781 0.88529 0.41104 0.0
C3820 C 0.75572 0.88877 0.41132 0.0
C3821 C 0.74352 0.8779 0.42702 0.0
C3822 C 0.75329 0.86384 0.44173 0.0
H3823 H 0.76527 0.79544 0.44155 0.0
H3824 H 0.74735 0.81683 0.44886 0.0
H3825 H 0.76515 0.82014 0.42634 0.0
H3826 H 0.80508 0.86877 0.42503 0.0
H3827 H 0.78811 0.89332 0.39928 0.0
H3828 H 0.68736 0.22313 0.05537 0.0
H3829 H 0.70408 0.19784 0.03033 0.0
H3830 H 0.70301 0.24623 0.98072 0.0
H3831 H 0.68528 0.27113 1.00534 0.0
H3832 H 0.69201 0.21091 0.96348 0.0
H3833 H 0.76412 0.19217 0.01165 0.0
H3834 H 0.74005 0.18553 0.02594 0.0
H3835 H 0.74565 0.21315 0.01919 0.0
C3836 C 0.69083 0.22846 0.03917 0.0
C3837 C 0.68498 0.24929 0.03249 0.0
C3838 C 0.70059 0.21397 0.02482 0.0
C3839 C 0.70538 0.22006 1.00354 0.0
C3840 C 0.69963 0.24093 0.99694 0.0
H3841 H 0.79414 0.1497 0.92057 0.0
H3842 H 0.77644 0.17402 0.94567 0.0
C3843 C 0.6895 0.25527 0.01113 0.0
C3844 C 0.71568 0.20466 0.98793 0.0
H3845 H 0.75761 0.16955 0.98149 0.0
C3846 C 0.70644 0.20198 0.96745 0.0
C3847 C 0.73476 0.19309 0.9927 0.0
C3848 C 0.74685 0.19629 0.01347 0.0
C3849 C 0.71552 0.18823 0.95185 0.0
C3850 C 0.73402 0.1759 0.95698 0.0
C3851 C 0.74331 0.17864 0.97743 0.0
C3852 C 0.74458 0.1608 0.94122 0.0
C3853 C 0.70554 0.18779 0.92976 0.0
C3854 C 0.73284 0.14488 0.93017 0.0
C3855 C 0.74296 0.13109 0.91533 0.0
C3856 C 0.76522 0.13245 0.91156 0.0
C3857 C 0.777 0.14804 0.92301 0.0
C3858 C 0.76684 0.16203 0.93749 0.0
H3859 H 0.69642 0.20278 0.92641 0.0
H3860 H 0.71789 0.18578 0.91706 0.0
H3861 H 0.69408 0.17418 0.92877 0.0
H3862 H 0.71582 0.14292 0.93312 0.0
H3863 H 0.73337 0.11918 0.90703 0.0
H3864 H 0.23181 0.63036 0.58482 0.0
H3865 H 0.24967 0.65391 0.55898 0.0
H3866 H 0.30171 0.6635 0.60367 0.0
H3867 H 0.28435 0.63914 0.6292 0.0
H3868 H 0.25914 0.69426 0.55928 0.0
H3869 H 0.3364 0.65097 0.55212 0.0
H3870 H 0.31369 0.6396 0.56601 0.0
H3871 H 0.33102 0.65861 0.57933 0.0
C3872 C 0.24719 0.63727 0.5891 0.0
C3873 C 0.25669 0.63258 0.60911 0.0
C3874 C 0.25741 0.65085 0.57426 0.0
C3875 C 0.27738 0.66034 0.57898 0.0
C3876 C 0.28674 0.65593 0.59912 0.0
H3877 H 0.3557 0.75893 0.51734 0.0
H3878 H 0.33806 0.73393 0.54199 0.0
C3879 C 0.27669 0.64204 0.61386 0.0
C3880 C 0.28789 0.67533 0.56314 0.0
H3881 H 0.33525 0.68629 0.53718 0.0
C3882 C 0.27574 0.69231 0.55436 0.0
C3883 C 0.30959 0.673 0.55646 0.0
C3884 C 0.32335 0.65443 0.5638 0.0
C3885 C 0.28468 0.70705 0.53962 0.0
C3886 C 0.30643 0.70493 0.53336 0.0
C3887 C 0.3186 0.68801 0.54203 0.0
C3888 C 0.31691 0.72029 0.51808 0.0
C3889 C 0.27093 0.72511 0.53112 0.0
C3890 C 0.31104 0.72097 0.49627 0.0
C3891 C 0.32125 0.7352 0.48197 0.0
C3892 C 0.3375 0.74925 0.48918 0.0
C3893 C 0.34322 0.74853 0.5111 0.0
C3894 C 0.33318 0.73416 0.52529 0.0
H3895 H 0.25565 0.72676 0.5402 0.0
H3896 H 0.27976 0.7406 0.53188 0.0
H3897 H 0.26698 0.72193 0.51403 0.0
H3898 H 0.29869 0.71031 0.49023 0.0
H3899 H 0.31637 0.73519 0.46527 0.0
H3900 H 0.28837 0.39222 0.08414 0.0
H3901 H 0.27042 0.36877 0.05819 0.0
H3902 H 0.21974 0.35701 0.10394 0.0
H3903 H 0.23709 0.38132 0.1295 0.0
H3904 H 0.26178 0.32846 0.05734 0.0
H3905 H 0.18323 0.36975 0.05398 0.0
H3906 H 0.20602 0.38132 0.06756 0.0
H3907 H 0.18956 0.36148 0.0808 0.0
C3908 C 0.27326 0.38484 0.08862 0.0
C3909 C 0.2641 0.38894 0.10891 0.0
C3910 C 0.26299 0.37133 0.07372 0.0
C3911 C 0.24333 0.36129 0.0787 0.0
C3912 C 0.2344 0.36504 0.09917 0.0
H3913 H 0.16479 0.26271 0.01715 0.0
H3914 H 0.18264 0.28761 0.04176 0.0
C3915 C 0.24446 0.37889 0.11392 0.0
C3916 C 0.23269 0.34645 0.06277 0.0
H3917 H 0.18471 0.33476 0.03829 0.0
C3918 C 0.24497 0.33005 0.05309 0.0
C3919 C 0.21069 0.34831 0.05693 0.0
C3920 C 0.19669 0.3663 0.06519 0.0
C3921 C 0.23589 0.31542 0.03831 0.0
C3922 C 0.21386 0.31704 0.03291 0.0
C3923 C 0.20157 0.33339 0.04247 0.0
C3924 C 0.20321 0.30175 0.01763 0.0
C3925 C 0.24985 0.29799 0.02886 0.0
C3926 C 0.20864 0.30139 0.9957 0.0
C3927 C 0.19832 0.2872 0.98143 0.0
C3928 C 0.18236 0.27288 0.98877 0.0
C3929 C 0.17703 0.27332 0.0108 0.0
C3930 C 0.1872 0.28764 0.02496 0.0
H3931 H 0.26534 0.29636 0.03756 0.0
H3932 H 0.24138 0.28228 0.02919 0.0
H3933 H 0.2534 0.30191 0.01184 0.0
H3934 H 0.22075 0.31226 0.98953 0.0
H3935 H 0.20289 0.28744 0.96465 0.0
H3936 H 0.50617 0.83752 0.75011 0.0
H3937 H 0.48152 0.82024 0.77524 0.0
H3938 H 0.53062 0.82103 0.82412 0.0
H3939 H 0.55575 0.83729 0.79858 0.0
H3940 H 0.5108 0.78538 0.82719 0.0
H3941 H 0.44725 0.84694 0.82103 0.0
H3942 H 0.45255 0.83516 0.79533 0.0
H3943 H 0.47321 0.85044 0.80874 0.0
C3944 C 0.51176 0.83405 0.76622 0.0
C3945 C 0.53299 0.83902 0.77229 0.0
C3946 C 0.4975 0.82432 0.78073 0.0
C3947 C 0.50378 0.81983 0.802 0.0
C3948 C 0.52513 0.82441 0.80795 0.0
H3949 H 0.40764 0.79001 0.90176 0.0
H3950 H 0.43411 0.80757 0.87844 0.0
C3951 C 0.53956 0.83375 0.79329 0.0
C3952 C 0.48832 0.80997 0.8178 0.0
H3953 H 0.43725 0.81394 0.83798 0.0
C3954 C 0.49478 0.7918 0.82962 0.0
C3955 C 0.46744 0.81839 0.82155 0.0
C3956 C 0.4598 0.83894 0.81117 0.0
C3957 C 0.48103 0.78168 0.84455 0.0
C3958 C 0.45969 0.7893 0.84729 0.0
C3959 C 0.45338 0.80774 0.83582 0.0
C3960 C 0.4437 0.77847 0.86188 0.0
C3961 C 0.48989 0.76326 0.85761 0.0
C3962 C 0.4398 0.75624 0.8604 0.0
C3963 C 0.42498 0.74612 0.87403 0.0
C3964 C 0.41309 0.75797 0.88924 0.0
C3965 C 0.41652 0.78032 0.89036 0.0
C3966 C 0.43169 0.7904 0.87694 0.0
H3967 H 0.50761 0.76447 0.85932 0.0
H3968 H 0.48268 0.76271 0.87391 0.0
H3969 H 0.48637 0.7479 0.84926 0.0
H3970 H 0.44805 0.74664 0.84848 0.0
H3971 H 0.42257 0.72896 0.87235 0.0
H3972 H 0.96674 0.20731 0.28305 0.0
H3973 H 0.99215 0.22504 0.30739 0.0
H3974 H 0.04186 0.18107 0.28744 0.0
H3975 H 0.01695 0.16399 0.26255 0.0
H3976 H 0.01331 0.2123 0.34122 0.0
H3977 H 0.07435 0.23518 0.28099 0.0
H3978 H 0.04838 0.22492 0.27338 0.0
H3979 H 0.06971 0.20677 0.2808 0.0
C3980 C 0.98315 0.20155 0.28368 0.0
C3981 C 0.98976 0.18433 0.27053 0.0
C3982 C 0.99771 0.2117 0.29768 0.0
C3983 C 0.01925 0.20485 0.29904 0.0
C3984 C 0.02568 0.18733 0.28627 0.0
H3985 H 0.12765 0.23521 0.38385 0.0
H3986 H 0.10187 0.21805 0.35938 0.0
C3987 C 0.01127 0.17741 0.27207 0.0
C3988 C 0.03475 0.21548 0.31424 0.0
H3989 H 0.0852 0.23737 0.31777 0.0
C3990 C 0.02894 0.21792 0.33597 0.0
C3991 C 0.05527 0.22299 0.30761 0.0
C3992 C 0.0622 0.22255 0.28439 0.0
C3993 C 0.04306 0.22713 0.35113 0.0
C3994 C 0.06367 0.23411 0.34456 0.0
C3995 C 0.06951 0.2318 0.3229 0.0
C3996 C 0.07916 0.24436 0.35984 0.0
C3997 C 0.03598 0.22907 0.37422 0.0
C3998 C 0.07511 0.26492 0.36822 0.0
C3999 C 0.08989 0.27486 0.38205 0.0
C4000 C 0.1091 0.26443 0.38805 0.0
C4001 C 0.11302 0.2437 0.37978 0.0
C4002 C 0.09831 0.23388 0.36569 0.0
H4003 H 0.0213 0.21948 0.37755 0.0
H4004 H 0.04897 0.22373 0.38521 0.0
H4005 H 0.03243 0.24617 0.37785 0.0
H4006 H 0.06059 0.27345 0.36381 0.0
H4007 H 0.08624 0.2908 0.38803 0.0
H4008 H 0.05646 0.69821 0.22901 0.0
H4009 H 0.03139 0.71572 0.20417 0.0
H4010 H 0.97795 0.69214 0.24128 0.0
H4011 H 1.00273 0.67482 0.26624 0.0
H4012 H 0.99917 0.69798 0.17852 0.0
H4013 H 0.9638 0.75588 0.23622 0.0
H4014 H 0.98821 0.74125 0.24183 0.0
H4015 H 0.96253 0.72845 0.24508 0.0
C4016 C 0.03939 0.69686 0.23204 0.0
C4017 C 0.03177 0.6851 0.24985 0.0
C4018 C 0.02503 0.70686 0.21772 0.0
C4019 C 1.00268 0.70556 0.2209 0.0
C4020 C 0.99506 0.69382 0.23861 0.0
H4021 H 0.90051 0.73206 0.12677 0.0
H4022 H 0.92636 0.71494 0.15112 0.0
C4023 C 1.00935 0.68379 0.25289 0.0
C4024 C 0.98734 0.71604 0.20553 0.0
H4025 H 0.94626 0.75258 0.20246 0.0
C4026 C 0.98765 0.70996 0.18377 0.0
C4027 C 0.97235 0.73186 0.21221 0.0
C4028 C 0.97177 0.73993 0.23506 0.0
C4029 C 0.97326 0.71894 0.16869 0.0
C4030 C 0.95788 0.73431 0.17549 0.0
C4031 C 0.95782 0.74065 0.19719 0.0
C4032 C 0.94217 0.74453 0.1603 0.0
C4033 C 0.97494 0.71217 0.14549 0.0
C4034 C 0.94204 0.76694 0.15749 0.0
C4035 C 0.92726 0.77678 0.14359 0.0
C4036 C 0.91197 0.76454 0.13218 0.0
C4037 C 0.91205 0.74206 0.1351 0.0
C4038 C 0.92694 0.73221 0.14899 0.0
H4039 H 0.99068 0.70453 0.14193 0.0
H4040 H 0.96214 0.7003 0.1419 0.0
H4041 H 0.97277 0.72615 0.13461 0.0
H4042 H 0.95349 0.77688 0.16602 0.0
H4043 H 0.92777 0.7941 0.14194 0.0
H4044 H 0.51648 0.35536 0.75898 0.0
H4045 H 0.5411 0.3384 0.73366 0.0
H4046 H 0.49006 0.2972 0.71139 0.0
H4047 H 0.46504 0.31476 0.73615 0.0
H4048 H 0.55616 0.2998 0.72933 0.0
H4049 H 0.51098 0.31797 0.65493 0.0
H4050 H 0.50376 0.32945 0.68052 0.0
H4051 H 0.49543 0.30258 0.67364 0.0
C4052 C 0.51038 0.34271 0.7487 0.0
C4053 C 0.4886 0.3366 0.74964 0.0
C4054 C 0.52457 0.33298 0.73414 0.0
C4055 C 0.51752 0.31673 0.72011 0.0
C4056 C 0.49591 0.31014 0.72143 0.0
H4057 H 0.58568 0.23125 0.63202 0.0
H4058 H 0.56003 0.24867 0.65624 0.0
C4059 C 0.48158 0.3201 0.73581 0.0
C4060 C 0.53297 0.30656 0.70454 0.0
H4061 H 0.54055 0.29391 0.65144 0.0
C4062 C 0.55272 0.29868 0.71229 0.0
C4063 C 0.52875 0.30506 0.68216 0.0
C4064 C 0.50869 0.31441 0.67227 0.0
C4065 C 0.56802 0.2892 0.69852 0.0
C4066 C 0.5636 0.28742 0.6763 0.0
C4067 C 0.54392 0.2952 0.66848 0.0
C4068 C 0.57914 0.27726 0.66103 0.0
C4069 C 0.58875 0.28081 0.70783 0.0
C4070 C 0.59838 0.28763 0.65533 0.0
C4071 C 0.61306 0.2778 0.64122 0.0
C4072 C 0.60894 0.25724 0.63266 0.0
C4073 C 0.58952 0.24703 0.6383 0.0
C4074 C 0.57476 0.25698 0.65216 0.0
H4075 H 0.58851 0.28058 0.72567 0.0
H4076 H 0.59199 0.26428 0.70189 0.0
H4077 H 0.60222 0.29121 0.70251 0.0
H4078 H 0.60207 0.30335 0.66185 0.0
H4079 H 0.62783 0.28615 0.63736 0.0
H4080 H 0.78425 0.55544 0.81478 0.0
H4081 H 0.8085 0.53013 0.79675 0.0
H4082 H 0.78766 0.47969 0.83941 0.0
H4083 H 0.76293 0.50455 0.85687 0.0
H4084 H 0.84209 0.50807 0.80939 0.0
H4085 H 0.78111 0.44864 0.78431 0.0
H4086 H 0.77384 0.47454 0.79507 0.0
H4087 H 0.78067 0.45266 0.8128 0.0
C4088 C 0.78467 0.53891 0.82022 0.0
C4089 C 0.77133 0.5321 0.8372 0.0
C4090 C 0.79863 0.52439 0.80988 0.0
C4091 C 0.79971 0.50268 0.81626 0.0
C4092 C 0.78674 0.49603 0.83353 0.0
H4093 H 0.88333 0.39363 0.78499 0.0
H4094 H 0.85897 0.41957 0.80207 0.0
C4095 C 0.77262 0.51042 0.84367 0.0
C4096 C 0.81479 0.48719 0.80537 0.0
H4097 H 0.81773 0.43721 0.7822 0.0
C4098 C 0.83664 0.49268 0.8033 0.0
C4099 C 0.80792 0.46698 0.79723 0.0
C4100 C 0.78457 0.46045 0.79725 0.0
C4101 C 0.85168 0.4785 0.79391 0.0
C4102 C 0.84485 0.45817 0.78632 0.0
C4103 C 0.82306 0.45268 0.78822 0.0
C4104 C 0.86004 0.44255 0.77604 0.0
C4105 C 0.87491 0.48519 0.79245 0.0
C4106 C 0.86874 0.44668 0.75563 0.0
C4107 C 0.88253 0.43178 0.74571 0.0
C4108 C 0.88817 0.41239 0.75602 0.0
C4109 C 0.87955 0.40839 0.77658 0.0
C4110 C 0.86552 0.4232 0.78637 0.0
H4111 H 0.87832 0.49975 0.80221 0.0
H4112 H 0.88555 0.47194 0.79789 0.0
H4113 H 0.87893 0.48876 0.77545 0.0
H4114 H 0.86465 0.46136 0.74721 0.0
H4115 H 0.88877 0.4355 0.7299 0.0
H4116 H 0.25729 0.01864 0.17134 0.0
H4117 H 0.28225 0.04349 0.18867 0.0
H4118 H 0.31619 0.99005 0.21675 0.0
H4119 H 0.29144 0.96498 0.19926 0.0
H4120 H 0.2916 0.05069 0.23115 0.0
H4121 H 0.36495 0.02333 0.18861 0.0
H4122 H 0.3383 0.01566 0.18016 0.0
H4123 H 0.35089 1.00229 0.20246 0.0
C4124 C 0.27004 0.01206 0.18117 0.0
C4125 C 0.27227 0.98963 0.18369 0.0
C4126 C 0.28436 0.02638 0.19113 0.0
C4127 C 0.30144 0.01877 0.20379 0.0
C4128 C 0.3035 0.99643 0.2067 0.0
H4129 H 0.37739 0.09478 0.29465 0.0
H4130 H 0.3531 0.06934 0.27721 0.0
C4131 C 0.28917 0.98205 0.19676 0.0
C4132 C 0.31681 0.03427 0.21409 0.0
H4133 H 0.36997 0.04837 0.21697 0.0
C4134 C 0.30873 0.05014 0.22802 0.0
C4135 C 0.3392 0.0339 0.20987 0.0
C4136 C 0.34889 0.01803 0.19431 0.0
C4137 C 0.32233 0.06528 0.23802 0.0
C4138 C 0.34478 0.06454 0.23425 0.0
C4139 C 0.35283 0.04891 0.22006 0.0
C4140 C 0.36007 0.07988 0.24485 0.0
C4141 C 0.31246 0.08224 0.25227 0.0
C4142 C 0.37265 0.09409 0.23256 0.0
C4143 C 0.38666 0.10877 0.24253 0.0
C4144 C 0.38867 0.10948 0.26508 0.0
C4145 C 0.37634 0.09489 0.27729 0.0
C4146 C 0.36227 0.08033 0.26732 0.0
H4147 H 0.29496 0.08403 0.24929 0.0
H4148 H 0.3147 0.07758 0.26932 0.0
H4149 H 0.32034 0.09806 0.24976 0.0
H4150 H 0.37138 0.09404 0.21521 0.0
H4151 H 0.39585 0.11964 0.23253 0.0
H4152 H 0.22816 0.05682 0.69665 0.0
H4153 H 0.20342 0.03184 0.71437 0.0
H4154 H 0.24108 0.97825 0.69186 0.0
H4155 H 0.26594 1.00298 0.67426 0.0
H4156 H 0.17822 0.99897 0.69677 0.0
H4157 H 0.23565 0.96545 0.75602 0.0
H4158 H 0.24107 0.98971 0.74106 0.0
H4159 H 0.24476 0.96385 0.7287 0.0
C4160 C 0.23133 0.03973 0.69555 0.0
C4161 C 0.24925 0.03206 0.684 0.0
C4162 C 0.21707 0.02542 0.70568 0.0
C4163 C 0.22044 1.00308 0.70475 0.0
C4164 C 0.23827 0.99538 0.69323 0.0
H4165 H 0.12707 0.90078 0.73245 0.0
H4166 H 0.15136 0.92652 0.71518 0.0
C4167 C 0.25247 1.00963 0.68304 0.0
C4168 C 0.20512 0.98783 0.7154 0.0
H4169 H 0.20198 0.94774 0.753 0.0
C4170 C 0.18343 0.98781 0.7091 0.0
C4171 C 0.21174 0.97334 0.73168 0.0
C4172 C 0.23452 0.97314 0.73996 0.0
C4173 C 0.16837 0.97356 0.7183 0.0
C4174 C 0.17512 0.95866 0.73416 0.0
C4175 C 0.19674 0.95894 0.74072 0.0
C4176 C 0.15997 0.94304 0.74454 0.0
C4177 C 0.14524 0.97487 0.71123 0.0
C4178 C 0.15685 0.94334 0.76689 0.0
C4179 C 0.14297 0.92861 0.77685 0.0
C4180 C 0.13189 0.91296 0.76476 0.0
C4181 C 0.13511 0.91263 0.74234 0.0
C4182 C 0.14898 0.92745 0.73238 0.0
H4183 H 0.14162 0.99043 0.70325 0.0
H4184 H 0.14194 0.9618 0.69957 0.0
H4185 H 0.1342 0.97287 0.7251 0.0
H4186 H 0.16514 0.95509 0.77671 0.0
H4187 H 0.14108 0.92942 0.79412 0.0
H4188 H 0.62698 0.62106 0.28861 0.0
H4189 H 0.65132 0.59528 0.30586 0.0
H4190 H 0.66473 0.56653 0.24433 0.0
H4191 H 0.64069 0.59223 0.22696 0.0
H4192 H 0.65106 0.55042 0.30743 0.0
H4193 H 0.72492 0.57916 0.26685 0.0
H4194 H 0.70017 0.59428 0.26663 0.0
H4195 H 0.70375 0.57192 0.24866 0.0
C4196 C 0.63507 0.60926 0.27871 0.0
C4197 C 0.63183 0.60894 0.25629 0.0
C4198 C 0.64902 0.59448 0.28863 0.0
C4199 C 0.66024 0.57909 0.27642 0.0
C4200 C 0.65671 0.57847 0.25413 0.0
H4201 H 0.72696 0.46413 0.32529 0.0
H4202 H 0.70194 0.48904 0.30781 0.0
C4203 C 0.64277 0.59318 0.24421 0.0
C4204 C 0.67553 0.56366 0.28692 0.0
H4205 H 0.72794 0.54681 0.28685 0.0
C4206 C 0.66787 0.54966 0.30293 0.0
C4207 C 0.69759 0.56272 0.28132 0.0
C4208 C 0.7072 0.57794 0.26508 0.0
C4209 C 0.68148 0.53466 0.31316 0.0
C4210 C 0.70341 0.53333 0.30713 0.0
C4211 C 0.71113 0.54755 0.29136 0.0
C4212 C 0.71878 0.51789 0.3175 0.0
C4213 C 0.67235 0.52065 0.3307 0.0
C4214 C 0.737 0.5256 0.32835 0.0
C4215 C 0.7514 0.51139 0.33833 0.0
C4216 C 0.74813 0.48896 0.33761 0.0
C4217 C 0.73005 0.48123 0.32635 0.0
C4218 C 0.71559 0.49551 0.31643 0.0
H4219 H 0.65699 0.52717 0.33705 0.0
H4220 H 0.66915 0.50438 0.32414 0.0
H4221 H 0.68388 0.51901 0.34421 0.0
H4222 H 0.73997 0.54273 0.32936 0.0
H4223 H 0.76509 0.51808 0.34671 0.0
loop_
_geom_bond_atom_site_label_1
_geom_bond_atom_site_label_2
_geom_bond_distance
_geom_bond_site_symmetry_2
_ccdc_geom_bond_type
Co0 H3 2.400 . S
Co0 O4 2.009 . S
Co0 O12 2.115 . S
Co0 O13 2.315 . S
Co0 O24 2.053 . S
Co0 O27 2.094 . S
Co0 O30 2.122 . S
Co1 O4 2.126 . S
Co1 H5 2.388 . S
Co1 O6 2.053 . S
Co1 O9 2.047 . S
Co1 O15 2.113 . S
Co1 O26 2.063 . S
Co2 H3 2.388 . S
Co2 O4 2.053 . S
Co2 O6 2.126 . S
Co2 O11 2.063 . S
Co2 O25 2.047 . S
Co2 O31 2.113 . S
H3 Co0 2.400 . S
H3 Co2 2.388 . S
H3 O4 0.760 . S
O4 Co0 2.009 . S
O4 Co1 2.126 . S
O4 Co2 2.053 . S
O4 H3 0.760 . S
H5 Co1 2.388 . S
H5 O6 0.760 . S
H5 Co7 2.400 . S
O6 Co1 2.053 . S
O6 Co2 2.126 . S
O6 H5 0.760 . S
O6 Co7 2.009 . S
Co7 H5 2.400 . S
Co7 O6 2.009 . S
Co7 O8 2.053 . S
Co7 O10 2.094 . S
Co7 O14 2.122 . S
Co7 O28 2.115 . S
Co7 O29 2.315 . S
O8 Co7 2.053 . S
O8 C20 1.259 . S
O9 Co1 2.047 . S
O9 C20 1.257 . S
O10 Co7 2.094 . S
O10 C21 1.253 . S
O11 Co2 2.063 . S
O11 C21 1.268 . S
O12 Co0 2.115 . S
O12 C22 1.281 . S
O13 Co0 2.315 . S
O13 C22 1.252 . S
O14 Co7 2.122 . S
O14 C23 1.272 . S
O15 Co1 2.113 . S
O15 C23 1.245 . S
C16 O24 1.259 . S
C16 O25 1.257 . S
C17 O26 1.268 . S
C17 O27 1.253 . S
C18 O28 1.281 . S
C18 O29 1.252 . S
C19 O30 1.272 . S
C19 O31 1.245 . S
C20 O8 1.259 . S
C20 O9 1.257 . S
C21 O10 1.253 . S
C21 O11 1.268 . S
C22 O12 1.281 . S
C22 O13 1.252 . S
C23 O14 1.272 . S
C23 O15 1.245 . S
O24 Co0 2.053 . S
O24 C16 1.259 . S
O25 Co2 2.047 . S
O25 C16 1.257 . S
O26 Co1 2.063 . S
O26 C17 1.268 . S
O27 Co0 2.094 . S
O27 C17 1.253 . S
O28 Co7 2.115 . S
O28 C18 1.281 . S
O29 Co7 2.315 . S
O29 C18 1.252 . S
O30 Co0 2.122 . S
O30 C19 1.272 . S
O31 Co2 2.113 . S
O31 C19 1.245 . S
Co32 H35 2.400 . S
Co32 O36 2.009 . S
Co32 O44 2.115 . S
Co32 O45 2.315 . S
Co32 O56 2.053 . S
Co32 O59 2.094 . S
Co32 O62 2.122 . S
Co33 O36 2.126 . S
Co33 H37 2.388 . S
Co33 O38 2.053 . S
Co33 O41 2.047 . S
Co33 O47 2.113 . S
Co33 O58 2.063 . S
Co34 H35 2.388 . S
Co34 O36 2.053 . S
Co34 O38 2.126 . S
Co34 O43 2.063 . S
Co34 O57 2.047 . S
Co34 O63 2.113 . S
H35 Co32 2.400 . S
H35 Co34 2.388 . S
H35 O36 0.760 . S
O36 Co32 2.009 . S
O36 Co33 2.126 . S
O36 Co34 2.053 . S
O36 H35 0.760 . S
H37 Co33 2.388 . S
H37 O38 0.760 . S
H37 Co39 2.400 . S
O38 Co33 2.053 . S
O38 Co34 2.126 . S
O38 H37 0.760 . S
O38 Co39 2.009 . S
Co39 H37 2.400 . S
Co39 O38 2.009 . S
Co39 O40 2.053 . S
Co39 O42 2.094 . S
Co39 O46 2.122 . S
Co39 O60 2.115 . S
Co39 O61 2.315 . S
O40 Co39 2.053 . S
O40 C52 1.259 . S
O41 Co33 2.047 . S
O41 C52 1.257 . S
O42 Co39 2.094 . S
O42 C53 1.253 . S
O43 Co34 2.063 . S
O43 C53 1.268 . S
O44 Co32 2.115 . S
O44 C54 1.281 . S
O45 Co32 2.315 . S
O45 C54 1.252 . S
O46 Co39 2.122 . S
O46 C55 1.272 . S
O47 Co33 2.113 . S
O47 C55 1.245 . S
C48 O56 1.259 . S
C48 O57 1.257 . S
C49 O58 1.268 . S
C49 O59 1.253 . S
C50 O60 1.281 . S
C50 O61 1.252 . S
C51 O62 1.272 . S
C51 O63 1.245 . S
C52 O40 1.259 . S
C52 O41 1.257 . S
C53 O42 1.253 . S
C53 O43 1.268 . S
C54 O44 1.281 . S
C54 O45 1.252 . S
C55 O46 1.272 . S
C55 O47 1.245 . S
O56 Co32 2.053 . S
O56 C48 1.259 . S
O57 Co34 2.047 . S
O57 C48 1.257 . S
O58 Co33 2.063 . S
O58 C49 1.268 . S
O59 Co32 2.094 . S
O59 C49 1.253 . S
O60 Co39 2.115 . S
O60 C50 1.281 . S
O61 Co39 2.315 . S
O61 C50 1.252 . S
O62 Co32 2.122 . S
O62 C51 1.272 . S
O63 Co34 2.113 . S
O63 C51 1.245 . S
Co64 H67 2.400 . S
Co64 O68 2.009 . S
Co64 O76 2.115 . S
Co64 O77 2.315 . S
Co64 O88 2.053 . S
Co64 O91 2.094 . S
Co64 O94 2.122 . S
Co65 O68 2.126 . S
Co65 H69 2.388 . S
Co65 O70 2.053 . S
Co65 O73 2.047 . S
Co65 O79 2.113 . S
Co65 O90 2.063 . S
Co66 H67 2.388 . S
Co66 O68 2.053 . S
Co66 O70 2.126 . S
Co66 O75 2.063 . S
Co66 O89 2.047 . S
Co66 O95 2.113 . S
H67 Co64 2.400 . S
H67 Co66 2.388 . S
H67 O68 0.760 . S
O68 Co64 2.009 . S
O68 Co65 2.126 . S
O68 Co66 2.053 . S
O68 H67 0.760 . S
H69 Co65 2.388 . S
H69 O70 0.760 . S
H69 Co71 2.400 . S
O70 Co65 2.053 . S
O70 Co66 2.126 . S
O70 H69 0.760 . S
O70 Co71 2.009 . S
Co71 H69 2.400 . S
Co71 O70 2.009 . S
Co71 O72 2.053 . S
Co71 O74 2.094 . S
Co71 O78 2.122 . S
Co71 O92 2.115 . S
Co71 O93 2.315 . S
O72 Co71 2.053 . S
O72 C84 1.259 . S
O73 Co65 2.047 . S
O73 C84 1.257 . S
O74 Co71 2.094 . S
O74 C85 1.253 . S
O75 Co66 2.063 . S
O75 C85 1.268 . S
O76 Co64 2.115 . S
O76 C86 1.281 . S
O77 Co64 2.315 . S
O77 C86 1.252 . S
O78 Co71 2.122 . S
O78 C87 1.272 . S
O79 Co65 2.113 . S
O79 C87 1.245 . S
C80 O88 1.259 . S
C80 O89 1.257 . S
C81 O90 1.268 . S
C81 O91 1.253 . S
C82 O92 1.281 . S
C82 O93 1.252 . S
C83 O94 1.272 . S
C83 O95 1.245 . S
C84 O72 1.259 . S
C84 O73 1.257 . S
C85 O74 1.253 . S
C85 O75 1.268 . S
C86 O76 1.281 . S
C86 O77 1.252 . S
C87 O78 1.272 . S
C87 O79 1.245 . S
O88 Co64 2.053 . S
O88 C80 1.259 . S
O89 Co66 2.047 . S
O89 C80 1.257 . S
O90 Co65 2.063 . S
O90 C81 1.268 . S
O91 Co64 2.094 . S
O91 C81 1.253 . S
O92 Co71 2.115 . S
O92 C82 1.281 . S
O93 Co71 2.315 . S
O93 C82 1.252 . S
O94 Co64 2.122 . S
O94 C83 1.272 . S
O95 Co66 2.113 . S
O95 C83 1.245 . S
Co96 H99 2.400 . S
Co96 O100 2.009 . S
Co96 O108 2.115 . S
Co96 O109 2.315 . S
Co96 O120 2.053 . S
Co96 O123 2.094 . S
Co96 O126 2.122 . S
Co97 O100 2.126 . S
Co97 H101 2.388 . S
Co97 O102 2.053 . S
Co97 O105 2.047 . S
Co97 O111 2.113 . S
Co97 O122 2.063 . S
Co98 H99 2.388 . S
Co98 O100 2.053 . S
Co98 O102 2.126 . S
Co98 O107 2.063 . S
Co98 O121 2.047 . S
Co98 O127 2.113 . S
H99 Co96 2.400 . S
H99 Co98 2.388 . S
H99 O100 0.760 . S
O100 Co96 2.009 . S
O100 Co97 2.126 . S
O100 Co98 2.053 . S
O100 H99 0.760 . S
H101 Co97 2.388 . S
H101 O102 0.760 . S
H101 Co103 2.400 . S
O102 Co97 2.053 . S
O102 Co98 2.126 . S
O102 H101 0.760 . S
O102 Co103 2.009 . S
Co103 H101 2.400 . S
Co103 O102 2.009 . S
Co103 O104 2.053 . S
Co103 O106 2.094 . S
Co103 O110 2.122 . S
Co103 O124 2.115 . S
Co103 O125 2.315 . S
O104 Co103 2.053 . S
O104 C116 1.259 . S
O105 Co97 2.047 . S
O105 C116 1.257 . S
O106 Co103 2.094 . S
O106 C117 1.253 . S
O107 Co98 2.063 . S
O107 C117 1.268 . S
O108 Co96 2.115 . S
O108 C118 1.281 . S
O109 Co96 2.315 . S
O109 C118 1.252 . S
O110 Co103 2.122 . S
O110 C119 1.272 . S
O111 Co97 2.113 . S
O111 C119 1.245 . S
C112 O120 1.259 . S
C112 O121 1.257 . S
C113 O122 1.268 . S
C113 O123 1.253 . S
C114 O124 1.281 . S
C114 O125 1.252 . S
C115 O126 1.272 . S
C115 O127 1.245 . S
C116 O104 1.259 . S
C116 O105 1.257 . S
C117 O106 1.253 . S
C117 O107 1.268 . S
C118 O108 1.281 . S
C118 O109 1.252 . S
C119 O110 1.272 . S
C119 O111 1.245 . S
O120 Co96 2.053 . S
O120 C112 1.259 . S
O121 Co98 2.047 . S
O121 C112 1.257 . S
O122 Co97 2.063 . S
O122 C113 1.268 . S
O123 Co96 2.094 . S
O123 C113 1.253 . S
O124 Co103 2.115 . S
O124 C114 1.281 . S
O125 Co103 2.315 . S
O125 C114 1.252 . S
O126 Co96 2.122 . S
O126 C115 1.272 . S
O127 Co98 2.113 . S
O127 C115 1.245 . S
Co128 H131 2.400 . S
Co128 O132 2.009 . S
Co128 O140 2.115 . S
Co128 O141 2.315 . S
Co128 O152 2.053 . S
Co128 O155 2.094 . S
Co128 O158 2.122 . S
Co129 O132 2.126 . S
Co129 H133 2.388 . S
Co129 O134 2.053 . S
Co129 O137 2.047 . S
Co129 O143 2.113 . S
Co129 O154 2.063 . S
Co130 H131 2.388 . S
Co130 O132 2.053 . S
Co130 O134 2.126 . S
Co130 O139 2.063 . S
Co130 O153 2.047 . S
Co130 O159 2.113 . S
H131 Co128 2.400 . S
H131 Co130 2.388 . S
H131 O132 0.760 . S
O132 Co128 2.009 . S
O132 Co129 2.126 . S
O132 Co130 2.053 . S
O132 H131 0.760 . S
H133 Co129 2.388 . S
H133 O134 0.760 . S
H133 Co135 2.400 . S
O134 Co129 2.053 . S
O134 Co130 2.126 . S
O134 H133 0.760 . S
O134 Co135 2.009 . S
Co135 H133 2.400 . S
Co135 O134 2.009 . S
Co135 O136 2.053 . S
Co135 O138 2.094 . S
Co135 O142 2.122 . S
Co135 O156 2.115 . S
Co135 O157 2.315 . S
O136 Co135 2.053 . S
O136 C148 1.259 . S
O137 Co129 2.047 . S
O137 C148 1.257 . S
O138 Co135 2.094 . S
O138 C149 1.253 . S
O139 Co130 2.063 . S
O139 C149 1.268 . S
O140 Co128 2.115 . S
O140 C150 1.281 . S
O141 Co128 2.315 . S
O141 C150 1.252 . S
O142 Co135 2.122 . S
O142 C151 1.272 . S
O143 Co129 2.113 . S
O143 C151 1.245 . S
C144 O152 1.259 . S
C144 O153 1.257 . S
C145 O154 1.268 . S
C145 O155 1.253 . S
C146 O156 1.281 . S
C146 O157 1.252 . S
C147 O158 1.272 . S
C147 O159 1.245 . S
C148 O136 1.259 . S
C148 O137 1.257 . S
C149 O138 1.253 . S
C149 O139 1.268 . S
C150 O140 1.281 . S
C150 O141 1.252 . S
C151 O142 1.272 . S
C151 O143 1.245 . S
O152 Co128 2.053 . S
O152 C144 1.259 . S
O153 Co130 2.047 . S
O153 C144 1.257 . S
O154 Co129 2.063 . S
O154 C145 1.268 . S
O155 Co128 2.094 . S
O155 C145 1.253 . S
O156 Co135 2.115 . S
O156 C146 1.281 . S
O157 Co135 2.315 . S
O157 C146 1.252 . S
O158 Co128 2.122 . S
O158 C147 1.272 . S
O159 Co130 2.113 . S
O159 C147 1.245 . S
Co160 H163 2.400 . S
Co160 O164 2.009 . S
Co160 O172 2.115 . S
Co160 O173 2.315 . S
Co160 O184 2.053 . S
Co160 O187 2.094 . S
Co160 O190 2.122 . S
Co161 O164 2.126 . S
Co161 H165 2.388 . S
Co161 O166 2.053 . S
Co161 O169 2.047 . S
Co161 O175 2.113 . S
Co161 O186 2.063 . S
Co162 H163 2.388 . S
Co162 O164 2.053 . S
Co162 O166 2.126 . S
Co162 O171 2.063 . S
Co162 O185 2.047 . S
Co162 O191 2.113 . S
H163 Co160 2.400 . S
H163 Co162 2.388 . S
H163 O164 0.760 . S
O164 Co160 2.009 . S
O164 Co161 2.126 . S
O164 Co162 2.053 . S
O164 H163 0.760 . S
H165 Co161 2.388 . S
H165 O166 0.760 . S
H165 Co167 2.400 . S
O166 Co161 2.053 . S
O166 Co162 2.126 . S
O166 H165 0.760 . S
O166 Co167 2.009 . S
Co167 H165 2.400 . S
Co167 O166 2.009 . S
Co167 O168 2.053 . S
Co167 O170 2.094 . S
Co167 O174 2.122 . S
Co167 O188 2.115 . S
Co167 O189 2.315 . S
O168 Co167 2.053 . S
O168 C180 1.259 . S
O169 Co161 2.047 . S
O169 C180 1.257 . S
O170 Co167 2.094 . S
O170 C181 1.253 . S
O171 Co162 2.063 . S
O171 C181 1.268 . S
O172 Co160 2.115 . S
O172 C182 1.281 . S
O173 Co160 2.315 . S
O173 C182 1.252 . S
O174 Co167 2.122 . S
O174 C183 1.272 . S
O175 Co161 2.113 . S
O175 C183 1.245 . S
C176 O184 1.259 . S
C176 O185 1.257 . S
C177 O186 1.268 . S
C177 O187 1.253 . S
C178 O188 1.281 . S
C178 O189 1.252 . S
C179 O190 1.272 . S
C179 O191 1.245 . S
C180 O168 1.259 . S
C180 O169 1.257 . S
C181 O170 1.253 . S
C181 O171 1.268 . S
C182 O172 1.281 . S
C182 O173 1.252 . S
C183 O174 1.272 . S
C183 O175 1.245 . S
O184 Co160 2.053 . S
O184 C176 1.259 . S
O185 Co162 2.047 . S
O185 C176 1.257 . S
O186 Co161 2.063 . S
O186 C177 1.268 . S
O187 Co160 2.094 . S
O187 C177 1.253 . S
O188 Co167 2.115 . S
O188 C178 1.281 . S
O189 Co167 2.315 . S
O189 C178 1.252 . S
O190 Co160 2.122 . S
O190 C179 1.272 . S
O191 Co162 2.113 . S
O191 C179 1.245 . S
Co192 H195 2.400 . S
Co192 O196 2.009 . S
Co192 O204 2.115 . S
Co192 O205 2.315 . S
Co192 O216 2.053 . S
Co192 O219 2.094 . S
Co192 O222 2.122 . S
Co193 O196 2.126 . S
Co193 H197 2.388 . S
Co193 O198 2.053 . S
Co193 O201 2.047 . S
Co193 O207 2.113 . S
Co193 O218 2.063 . S
Co194 H195 2.388 . S
Co194 O196 2.053 . S
Co194 O198 2.126 . S
Co194 O203 2.063 . S
Co194 O217 2.047 . S
Co194 O223 2.113 . S
H195 Co192 2.400 . S
H195 Co194 2.388 . S
H195 O196 0.760 . S
O196 Co192 2.009 . S
O196 Co193 2.126 . S
O196 Co194 2.053 . S
O196 H195 0.760 . S
H197 Co193 2.388 . S
H197 O198 0.760 . S
H197 Co199 2.400 . S
O198 Co193 2.053 . S
O198 Co194 2.126 . S
O198 H197 0.760 . S
O198 Co199 2.009 . S
Co199 H197 2.400 . S
Co199 O198 2.009 . S
Co199 O200 2.053 . S
Co199 O202 2.094 . S
Co199 O206 2.122 . S
Co199 O220 2.115 . S
Co199 O221 2.315 . S
O200 Co199 2.053 . S
O200 C212 1.259 . S
O201 Co193 2.047 . S
O201 C212 1.257 . S
O202 Co199 2.094 . S
O202 C213 1.253 . S
O203 Co194 2.063 . S
O203 C213 1.268 . S
O204 Co192 2.115 . S
O204 C214 1.281 . S
O205 Co192 2.315 . S
O205 C214 1.252 . S
O206 Co199 2.122 . S
O206 C215 1.272 . S
O207 Co193 2.113 . S
O207 C215 1.245 . S
C208 O216 1.259 . S
C208 O217 1.257 . S
C209 O218 1.268 . S
C209 O219 1.253 . S
C210 O220 1.281 . S
C210 O221 1.252 . S
C211 O222 1.272 . S
C211 O223 1.245 . S
C212 O200 1.259 . S
C212 O201 1.257 . S
C213 O202 1.253 . S
C213 O203 1.268 . S
C214 O204 1.281 . S
C214 O205 1.252 . S
C215 O206 1.272 . S
C215 O207 1.245 . S
O216 Co192 2.053 . S
O216 C208 1.259 . S
O217 Co194 2.047 . S
O217 C208 1.257 . S
O218 Co193 2.063 . S
O218 C209 1.268 . S
O219 Co192 2.094 . S
O219 C209 1.253 . S
O220 Co199 2.115 . S
O220 C210 1.281 . S
O221 Co199 2.315 . S
O221 C210 1.252 . S
O222 Co192 2.122 . S
O222 C211 1.272 . S
O223 Co194 2.113 . S
O223 C211 1.245 . S
Co224 H227 2.400 . S
Co224 O228 2.009 . S
Co224 O236 2.115 . S
Co224 O237 2.315 . S
Co224 O248 2.053 . S
Co224 O251 2.094 . S
Co224 O254 2.122 . S
Co225 O228 2.126 . S
Co225 H229 2.388 . S
Co225 O230 2.053 . S
Co225 O233 2.047 . S
Co225 O239 2.113 . S
Co225 O250 2.063 . S
Co226 H227 2.388 . S
Co226 O228 2.053 . S
Co226 O230 2.126 . S
Co226 O235 2.063 . S
Co226 O249 2.047 . S
Co226 O255 2.113 . S
H227 Co224 2.400 . S
H227 Co226 2.388 . S
H227 O228 0.760 . S
O228 Co224 2.009 . S
O228 Co225 2.126 . S
O228 Co226 2.053 . S
O228 H227 0.760 . S
H229 Co225 2.388 . S
H229 O230 0.760 . S
H229 Co231 2.400 . S
O230 Co225 2.053 . S
O230 Co226 2.126 . S
O230 H229 0.760 . S
O230 Co231 2.009 . S
Co231 H229 2.400 . S
Co231 O230 2.009 . S
Co231 O232 2.053 . S
Co231 O234 2.094 . S
Co231 O238 2.122 . S
Co231 O252 2.115 . S
Co231 O253 2.315 . S
O232 Co231 2.053 . S
O232 C244 1.259 . S
O233 Co225 2.047 . S
O233 C244 1.257 . S
O234 Co231 2.094 . S
O234 C245 1.253 . S
O235 Co226 2.063 . S
O235 C245 1.268 . S
O236 Co224 2.115 . S
O236 C246 1.281 . S
O237 Co224 2.315 . S
O237 C246 1.252 . S
O238 Co231 2.122 . S
O238 C247 1.272 . S
O239 Co225 2.113 . S
O239 C247 1.245 . S
C240 O248 1.259 . S
C240 O249 1.257 . S
C241 O250 1.268 . S
C241 O251 1.253 . S
C242 O252 1.281 . S
C242 O253 1.252 . S
C243 O254 1.272 . S
C243 O255 1.245 . S
C244 O232 1.259 . S
C244 O233 1.257 . S
C245 O234 1.253 . S
C245 O235 1.268 . S
C246 O236 1.281 . S
C246 O237 1.252 . S
C247 O238 1.272 . S
C247 O239 1.245 . S
O248 Co224 2.053 . S
O248 C240 1.259 . S
O249 Co226 2.047 . S
O249 C240 1.257 . S
O250 Co225 2.063 . S
O250 C241 1.268 . S
O251 Co224 2.094 . S
O251 C241 1.253 . S
O252 Co231 2.115 . S
O252 C242 1.281 . S
O253 Co231 2.315 . S
O253 C242 1.252 . S
O254 Co224 2.122 . S
O254 C243 1.272 . S
O255 Co226 2.113 . S
O255 C243 1.245 . S
Co256 H259 2.400 . S
Co256 O260 2.009 . S
Co256 O268 2.115 . S
Co256 O269 2.315 . S
Co256 O280 2.053 . S
Co256 O283 2.094 . S
Co256 O286 2.122 . S
Co257 O260 2.126 . S
Co257 H261 2.388 . S
Co257 O262 2.053 . S
Co257 O265 2.047 . S
Co257 O271 2.113 . S
Co257 O282 2.063 . S
Co258 H259 2.388 . S
Co258 O260 2.053 . S
Co258 O262 2.126 . S
Co258 O267 2.063 . S
Co258 O281 2.047 . S
Co258 O287 2.113 . S
H259 Co256 2.400 . S
H259 Co258 2.388 . S
H259 O260 0.760 . S
O260 Co256 2.009 . S
O260 Co257 2.126 . S
O260 Co258 2.053 . S
O260 H259 0.760 . S
H261 Co257 2.388 . S
H261 O262 0.760 . S
H261 Co263 2.400 . S
O262 Co257 2.053 . S
O262 Co258 2.126 . S
O262 H261 0.760 . S
O262 Co263 2.009 . S
Co263 H261 2.400 . S
Co263 O262 2.009 . S
Co263 O264 2.053 . S
Co263 O266 2.094 . S
Co263 O270 2.122 . S
Co263 O284 2.115 . S
Co263 O285 2.315 . S
O264 Co263 2.053 . S
O264 C276 1.259 . S
O265 Co257 2.047 . S
O265 C276 1.257 . S
O266 Co263 2.094 . S
O266 C277 1.253 . S
O267 Co258 2.063 . S
O267 C277 1.268 . S
O268 Co256 2.115 . S
O268 C278 1.281 . S
O269 Co256 2.315 . S
O269 C278 1.252 . S
O270 Co263 2.122 . S
O270 C279 1.272 . S
O271 Co257 2.113 . S
O271 C279 1.245 . S
C272 O280 1.259 . S
C272 O281 1.257 . S
C273 O282 1.268 . S
C273 O283 1.253 . S
C274 O284 1.281 . S
C274 O285 1.252 . S
C275 O286 1.272 . S
C275 O287 1.245 . S
C276 O264 1.259 . S
C276 O265 1.257 . S
C277 O266 1.253 . S
C277 O267 1.268 . S
C278 O268 1.281 . S
C278 O269 1.252 . S
C279 O270 1.272 . S
C279 O271 1.245 . S
O280 Co256 2.053 . S
O280 C272 1.259 . S
O281 Co258 2.047 . S
O281 C272 1.257 . S
O282 Co257 2.063 . S
O282 C273 1.268 . S
O283 Co256 2.094 . S
O283 C273 1.253 . S
O284 Co263 2.115 . S
O284 C274 1.281 . S
O285 Co263 2.315 . S
O285 C274 1.252 . S
O286 Co256 2.122 . S
O286 C275 1.272 . S
O287 Co258 2.113 . S
O287 C275 1.245 . S
Co288 H291 2.400 . S
Co288 O292 2.009 . S
Co288 O300 2.115 . S
Co288 O301 2.315 . S
Co288 O312 2.053 . S
Co288 O315 2.094 . S
Co288 O318 2.122 . S
Co289 O292 2.126 . S
Co289 H293 2.388 . S
Co289 O294 2.053 . S
Co289 O297 2.047 . S
Co289 O303 2.113 . S
Co289 O314 2.063 . S
Co290 H291 2.388 . S
Co290 O292 2.053 . S
Co290 O294 2.126 . S
Co290 O299 2.063 . S
Co290 O313 2.047 . S
Co290 O319 2.113 . S
H291 Co288 2.400 . S
H291 Co290 2.388 . S
H291 O292 0.760 . S
O292 Co288 2.009 . S
O292 Co289 2.126 . S
O292 Co290 2.053 . S
O292 H291 0.760 . S
H293 Co289 2.388 . S
H293 O294 0.760 . S
H293 Co295 2.400 . S
O294 Co289 2.053 . S
O294 Co290 2.126 . S
O294 H293 0.760 . S
O294 Co295 2.009 . S
Co295 H293 2.400 . S
Co295 O294 2.009 . S
Co295 O296 2.053 . S
Co295 O298 2.094 . S
Co295 O302 2.122 . S
Co295 O316 2.115 . S
Co295 O317 2.315 . S
O296 Co295 2.053 . S
O296 C308 1.259 . S
O297 Co289 2.047 . S
O297 C308 1.257 . S
O298 Co295 2.094 . S
O298 C309 1.253 . S
O299 Co290 2.063 . S
O299 C309 1.268 . S
O300 Co288 2.115 . S
O300 C310 1.281 . S
O301 Co288 2.315 . S
O301 C310 1.252 . S
O302 Co295 2.122 . S
O302 C311 1.272 . S
O303 Co289 2.113 . S
O303 C311 1.245 . S
C304 O312 1.259 . S
C304 O313 1.257 . S
C305 O314 1.268 . S
C305 O315 1.253 . S
C306 O316 1.281 . S
C306 O317 1.252 . S
C307 O318 1.272 . S
C307 O319 1.245 . S
C308 O296 1.259 . S
C308 O297 1.257 . S
C309 O298 1.253 . S
C309 O299 1.268 . S
C310 O300 1.281 . S
C310 O301 1.252 . S
C311 O302 1.272 . S
C311 O303 1.245 . S
O312 Co288 2.053 . S
O312 C304 1.259 . S
O313 Co290 2.047 . S
O313 C304 1.257 . S
O314 Co289 2.063 . S
O314 C305 1.268 . S
O315 Co288 2.094 . S
O315 C305 1.253 . S
O316 Co295 2.115 . S
O316 C306 1.281 . S
O317 Co295 2.315 . S
O317 C306 1.252 . S
O318 Co288 2.122 . S
O318 C307 1.272 . S
O319 Co290 2.113 . S
O319 C307 1.245 . S
Co320 H323 2.400 . S
Co320 O324 2.009 . S
Co320 O332 2.115 . S
Co320 O333 2.315 . S
Co320 O344 2.053 . S
Co320 O347 2.094 . S
Co320 O350 2.122 . S
Co321 O324 2.126 . S
Co321 H325 2.388 . S
Co321 O326 2.053 . S
Co321 O329 2.047 . S
Co321 O335 2.113 . S
Co321 O346 2.063 . S
Co322 H323 2.388 . S
Co322 O324 2.053 . S
Co322 O326 2.126 . S
Co322 O331 2.063 . S
Co322 O345 2.047 . S
Co322 O351 2.113 . S
H323 Co320 2.400 . S
H323 Co322 2.388 . S
H323 O324 0.760 . S
O324 Co320 2.009 . S
O324 Co321 2.126 . S
O324 Co322 2.053 . S
O324 H323 0.760 . S
H325 Co321 2.388 . S
H325 O326 0.760 . S
H325 Co327 2.400 . S
O326 Co321 2.053 . S
O326 Co322 2.126 . S
O326 H325 0.760 . S
O326 Co327 2.009 . S
Co327 H325 2.400 . S
Co327 O326 2.009 . S
Co327 O328 2.053 . S
Co327 O330 2.094 . S
Co327 O334 2.122 . S
Co327 O348 2.115 . S
Co327 O349 2.315 . S
O328 Co327 2.053 . S
O328 C340 1.259 . S
O329 Co321 2.047 . S
O329 C340 1.257 . S
O330 Co327 2.094 . S
O330 C341 1.253 . S
O331 Co322 2.063 . S
O331 C341 1.268 . S
O332 Co320 2.115 . S
O332 C342 1.281 . S
O333 Co320 2.315 . S
O333 C342 1.252 . S
O334 Co327 2.122 . S
O334 C343 1.272 . S
O335 Co321 2.113 . S
O335 C343 1.245 . S
C336 O344 1.259 . S
C336 O345 1.257 . S
C337 O346 1.268 . S
C337 O347 1.253 . S
C338 O348 1.281 . S
C338 O349 1.252 . S
C339 O350 1.272 . S
C339 O351 1.245 . S
C340 O328 1.259 . S
C340 O329 1.257 . S
C341 O330 1.253 . S
C341 O331 1.268 . S
C342 O332 1.281 . S
C342 O333 1.252 . S
C343 O334 1.272 . S
C343 O335 1.245 . S
O344 Co320 2.053 . S
O344 C336 1.259 . S
O345 Co322 2.047 . S
O345 C336 1.257 . S
O346 Co321 2.063 . S
O346 C337 1.268 . S
O347 Co320 2.094 . S
O347 C337 1.253 . S
O348 Co327 2.115 . S
O348 C338 1.281 . S
O349 Co327 2.315 . S
O349 C338 1.252 . S
O350 Co320 2.122 . S
O350 C339 1.272 . S
O351 Co322 2.113 . S
O351 C339 1.245 . S
Co352 H355 2.400 . S
Co352 O356 2.009 . S
Co352 O364 2.115 . S
Co352 O365 2.315 . S
Co352 O376 2.053 . S
Co352 O379 2.094 . S
Co352 O382 2.122 . S
Co353 O356 2.126 . S
Co353 H357 2.388 . S
Co353 O358 2.053 . S
Co353 O361 2.047 . S
Co353 O367 2.113 . S
Co353 O378 2.063 . S
Co354 H355 2.388 . S
Co354 O356 2.053 . S
Co354 O358 2.126 . S
Co354 O363 2.063 . S
Co354 O377 2.047 . S
Co354 O383 2.113 . S
H355 Co352 2.400 . S
H355 Co354 2.388 . S
H355 O356 0.760 . S
O356 Co352 2.009 . S
O356 Co353 2.126 . S
O356 Co354 2.053 . S
O356 H355 0.760 . S
H357 Co353 2.388 . S
H357 O358 0.760 . S
H357 Co359 2.400 . S
O358 Co353 2.053 . S
O358 Co354 2.126 . S
O358 H357 0.760 . S
O358 Co359 2.009 . S
Co359 H357 2.400 . S
Co359 O358 2.009 . S
Co359 O360 2.053 . S
Co359 O362 2.094 . S
Co359 O366 2.122 . S
Co359 O380 2.115 . S
Co359 O381 2.315 . S
O360 Co359 2.053 . S
O360 C372 1.259 . S
O361 Co353 2.047 . S
O361 C372 1.257 . S
O362 Co359 2.094 . S
O362 C373 1.253 . S
O363 Co354 2.063 . S
O363 C373 1.268 . S
O364 Co352 2.115 . S
O364 C374 1.281 . S
O365 Co352 2.315 . S
O365 C374 1.252 . S
O366 Co359 2.122 . S
O366 C375 1.272 . S
O367 Co353 2.113 . S
O367 C375 1.245 . S
C368 O376 1.259 . S
C368 O377 1.257 . S
C369 O378 1.268 . S
C369 O379 1.253 . S
C370 O380 1.281 . S
C370 O381 1.252 . S
C371 O382 1.272 . S
C371 O383 1.245 . S
C372 O360 1.259 . S
C372 O361 1.257 . S
C373 O362 1.253 . S
C373 O363 1.268 . S
C374 O364 1.281 . S
C374 O365 1.252 . S
C375 O366 1.272 . S
C375 O367 1.245 . S
O376 Co352 2.053 . S
O376 C368 1.259 . S
O377 Co354 2.047 . S
O377 C368 1.257 . S
O378 Co353 2.063 . S
O378 C369 1.268 . S
O379 Co352 2.094 . S
O379 C369 1.253 . S
O380 Co359 2.115 . S
O380 C370 1.281 . S
O381 Co359 2.315 . S
O381 C370 1.252 . S
O382 Co352 2.122 . S
O382 C371 1.272 . S
O383 Co354 2.113 . S
O383 C371 1.245 . S
Co384 H387 2.400 . S
Co384 O388 2.009 . S
Co384 O396 2.115 . S
Co384 O397 2.315 . S
Co384 O408 2.053 . S
Co384 O411 2.094 . S
Co384 O414 2.122 . S
Co385 O388 2.126 . S
Co385 H389 2.388 . S
Co385 O390 2.053 . S
Co385 O393 2.047 . S
Co385 O399 2.113 . S
Co385 O410 2.063 . S
Co386 H387 2.388 . S
Co386 O388 2.053 . S
Co386 O390 2.126 . S
Co386 O395 2.063 . S
Co386 O409 2.047 . S
Co386 O415 2.113 . S
H387 Co384 2.400 . S
H387 Co386 2.388 . S
H387 O388 0.760 . S
O388 Co384 2.009 . S
O388 Co385 2.126 . S
O388 Co386 2.053 . S
O388 H387 0.760 . S
H389 Co385 2.388 . S
H389 O390 0.760 . S
H389 Co391 2.400 . S
O390 Co385 2.053 . S
O390 Co386 2.126 . S
O390 H389 0.760 . S
O390 Co391 2.009 . S
Co391 H389 2.400 . S
Co391 O390 2.009 . S
Co391 O392 2.053 . S
Co391 O394 2.094 . S
Co391 O398 2.122 . S
Co391 O412 2.115 . S
Co391 O413 2.315 . S
O392 Co391 2.053 . S
O392 C404 1.259 . S
O393 Co385 2.047 . S
O393 C404 1.257 . S
O394 Co391 2.094 . S
O394 C405 1.253 . S
O395 Co386 2.063 . S
O395 C405 1.268 . S
O396 Co384 2.115 . S
O396 C406 1.281 . S
O397 Co384 2.315 . S
O397 C406 1.252 . S
O398 Co391 2.122 . S
O398 C407 1.272 . S
O399 Co385 2.113 . S
O399 C407 1.245 . S
C400 O408 1.259 . S
C400 O409 1.257 . S
C401 O410 1.268 . S
C401 O411 1.253 . S
C402 O412 1.281 . S
C402 O413 1.252 . S
C403 O414 1.272 . S
C403 O415 1.245 . S
C404 O392 1.259 . S
C404 O393 1.257 . S
C405 O394 1.253 . S
C405 O395 1.268 . S
C406 O396 1.281 . S
C406 O397 1.252 . S
C407 O398 1.272 . S
C407 O399 1.245 . S
O408 Co384 2.053 . S
O408 C400 1.259 . S
O409 Co386 2.047 . S
O409 C400 1.257 . S
O410 Co385 2.063 . S
O410 C401 1.268 . S
O411 Co384 2.094 . S
O411 C401 1.253 . S
O412 Co391 2.115 . S
O412 C402 1.281 . S
O413 Co391 2.315 . S
O413 C402 1.252 . S
O414 Co384 2.122 . S
O414 C403 1.272 . S
O415 Co386 2.113 . S
O415 C403 1.245 . S
Co416 H419 2.400 . S
Co416 O420 2.009 . S
Co416 O428 2.115 . S
Co416 O429 2.315 . S
Co416 O440 2.053 . S
Co416 O443 2.094 . S
Co416 O446 2.122 . S
Co417 O420 2.126 . S
Co417 H421 2.388 . S
Co417 O422 2.053 . S
Co417 O425 2.047 . S
Co417 O431 2.113 . S
Co417 O442 2.063 . S
Co418 H419 2.388 . S
Co418 O420 2.053 . S
Co418 O422 2.126 . S
Co418 O427 2.063 . S
Co418 O441 2.047 . S
Co418 O447 2.113 . S
H419 Co416 2.400 . S
H419 Co418 2.388 . S
H419 O420 0.760 . S
O420 Co416 2.009 . S
O420 Co417 2.126 . S
O420 Co418 2.053 . S
O420 H419 0.760 . S
H421 Co417 2.388 . S
H421 O422 0.760 . S
H421 Co423 2.400 . S
O422 Co417 2.053 . S
O422 Co418 2.126 . S
O422 H421 0.760 . S
O422 Co423 2.009 . S
Co423 H421 2.400 . S
Co423 O422 2.009 . S
Co423 O424 2.053 . S
Co423 O426 2.094 . S
Co423 O430 2.122 . S
Co423 O444 2.115 . S
Co423 O445 2.315 . S
O424 Co423 2.053 . S
O424 C436 1.259 . S
O425 Co417 2.047 . S
O425 C436 1.257 . S
O426 Co423 2.094 . S
O426 C437 1.253 . S
O427 Co418 2.063 . S
O427 C437 1.268 . S
O428 Co416 2.115 . S
O428 C438 1.281 . S
O429 Co416 2.315 . S
O429 C438 1.252 . S
O430 Co423 2.122 . S
O430 C439 1.272 . S
O431 Co417 2.113 . S
O431 C439 1.245 . S
C432 O440 1.259 . S
C432 O441 1.257 . S
C433 O442 1.268 . S
C433 O443 1.253 . S
C434 O444 1.281 . S
C434 O445 1.252 . S
C435 O446 1.272 . S
C435 O447 1.245 . S
C436 O424 1.259 . S
C436 O425 1.257 . S
C437 O426 1.253 . S
C437 O427 1.268 . S
C438 O428 1.281 . S
C438 O429 1.252 . S
C439 O430 1.272 . S
C439 O431 1.245 . S
O440 Co416 2.053 . S
O440 C432 1.259 . S
O441 Co418 2.047 . S
O441 C432 1.257 . S
O442 Co417 2.063 . S
O442 C433 1.268 . S
O443 Co416 2.094 . S
O443 C433 1.253 . S
O444 Co423 2.115 . S
O444 C434 1.281 . S
O445 Co423 2.315 . S
O445 C434 1.252 . S
O446 Co416 2.122 . S
O446 C435 1.272 . S
O447 Co418 2.113 . S
O447 C435 1.245 . S
Co448 H451 2.400 . S
Co448 O452 2.009 . S
Co448 O460 2.115 . S
Co448 O461 2.315 . S
Co448 O472 2.053 . S
Co448 O475 2.094 . S
Co448 O478 2.122 . S
Co449 O452 2.126 . S
Co449 H453 2.388 . S
Co449 O454 2.053 . S
Co449 O457 2.047 . S
Co449 O463 2.113 . S
Co449 O474 2.063 . S
Co450 H451 2.388 . S
Co450 O452 2.053 . S
Co450 O454 2.126 . S
Co450 O459 2.063 . S
Co450 O473 2.047 . S
Co450 O479 2.113 . S
H451 Co448 2.400 . S
H451 Co450 2.388 . S
H451 O452 0.760 . S
O452 Co448 2.009 . S
O452 Co449 2.126 . S
O452 Co450 2.053 . S
O452 H451 0.760 . S
H453 Co449 2.388 . S
H453 O454 0.760 . S
H453 Co455 2.400 . S
O454 Co449 2.053 . S
O454 Co450 2.126 . S
O454 H453 0.760 . S
O454 Co455 2.009 . S
Co455 H453 2.400 . S
Co455 O454 2.009 . S
Co455 O456 2.053 . S
Co455 O458 2.094 . S
Co455 O462 2.122 . S
Co455 O476 2.115 . S
Co455 O477 2.315 . S
O456 Co455 2.053 . S
O456 C468 1.259 . S
O457 Co449 2.047 . S
O457 C468 1.257 . S
O458 Co455 2.094 . S
O458 C469 1.253 . S
O459 Co450 2.063 . S
O459 C469 1.268 . S
O460 Co448 2.115 . S
O460 C470 1.281 . S
O461 Co448 2.315 . S
O461 C470 1.252 . S
O462 Co455 2.122 . S
O462 C471 1.272 . S
O463 Co449 2.113 . S
O463 C471 1.245 . S
C464 O472 1.259 . S
C464 O473 1.257 . S
C465 O474 1.268 . S
C465 O475 1.253 . S
C466 O476 1.281 . S
C466 O477 1.252 . S
C467 O478 1.272 . S
C467 O479 1.245 . S
C468 O456 1.259 . S
C468 O457 1.257 . S
C469 O458 1.253 . S
C469 O459 1.268 . S
C470 O460 1.281 . S
C470 O461 1.252 . S
C471 O462 1.272 . S
C471 O463 1.245 . S
O472 Co448 2.053 . S
O472 C464 1.259 . S
O473 Co450 2.047 . S
O473 C464 1.257 . S
O474 Co449 2.063 . S
O474 C465 1.268 . S
O475 Co448 2.094 . S
O475 C465 1.253 . S
O476 Co455 2.115 . S
O476 C466 1.281 . S
O477 Co455 2.315 . S
O477 C466 1.252 . S
O478 Co448 2.122 . S
O478 C467 1.272 . S
O479 Co450 2.113 . S
O479 C467 1.245 . S
Co480 H483 2.400 . S
Co480 O484 2.009 . S
Co480 O492 2.115 . S
Co480 O493 2.315 . S
Co480 O504 2.053 . S
Co480 O507 2.094 . S
Co480 O510 2.122 . S
Co481 O484 2.126 . S
Co481 H485 2.388 . S
Co481 O486 2.053 . S
Co481 O489 2.047 . S
Co481 O495 2.113 . S
Co481 O506 2.063 . S
Co482 H483 2.388 . S
Co482 O484 2.053 . S
Co482 O486 2.126 . S
Co482 O491 2.063 . S
Co482 O505 2.047 . S
Co482 O511 2.113 . S
H483 Co480 2.400 . S
H483 Co482 2.388 . S
H483 O484 0.760 . S
O484 Co480 2.009 . S
O484 Co481 2.126 . S
O484 Co482 2.053 . S
O484 H483 0.760 . S
H485 Co481 2.388 . S
H485 O486 0.760 . S
H485 Co487 2.400 . S
O486 Co481 2.053 . S
O486 Co482 2.126 . S
O486 H485 0.760 . S
O486 Co487 2.009 . S
Co487 H485 2.400 . S
Co487 O486 2.009 . S
Co487 O488 2.053 . S
Co487 O490 2.094 . S
Co487 O494 2.122 . S
Co487 O508 2.115 . S
Co487 O509 2.315 . S
O488 Co487 2.053 . S
O488 C500 1.259 . S
O489 Co481 2.047 . S
O489 C500 1.257 . S
O490 Co487 2.094 . S
O490 C501 1.253 . S
O491 Co482 2.063 . S
O491 C501 1.268 . S
O492 Co480 2.115 . S
O492 C502 1.281 . S
O493 Co480 2.315 . S
O493 C502 1.252 . S
O494 Co487 2.122 . S
O494 C503 1.272 . S
O495 Co481 2.113 . S
O495 C503 1.245 . S
C496 O504 1.259 . S
C496 O505 1.257 . S
C497 O506 1.268 . S
C497 O507 1.253 . S
C498 O508 1.281 . S
C498 O509 1.252 . S
C499 O510 1.272 . S
C499 O511 1.245 . S
C500 O488 1.259 . S
C500 O489 1.257 . S
C501 O490 1.253 . S
C501 O491 1.268 . S
C502 O492 1.281 . S
C502 O493 1.252 . S
C503 O494 1.272 . S
C503 O495 1.245 . S
O504 Co480 2.053 . S
O504 C496 1.259 . S
O505 Co482 2.047 . S
O505 C496 1.257 . S
O506 Co481 2.063 . S
O506 C497 1.268 . S
O507 Co480 2.094 . S
O507 C497 1.253 . S
O508 Co487 2.115 . S
O508 C498 1.281 . S
O509 Co487 2.315 . S
O509 C498 1.252 . S
O510 Co480 2.122 . S
O510 C499 1.272 . S
O511 Co482 2.113 . S
O511 C499 1.245 . S
Co512 H515 2.400 . S
Co512 O516 2.009 . S
Co512 O524 2.115 . S
Co512 O525 2.315 . S
Co512 O536 2.053 . S
Co512 O539 2.094 . S
Co512 O542 2.122 . S
Co513 O516 2.126 . S
Co513 H517 2.388 . S
Co513 O518 2.053 . S
Co513 O521 2.047 . S
Co513 O527 2.113 . S
Co513 O538 2.063 . S
Co514 H515 2.388 . S
Co514 O516 2.053 . S
Co514 O518 2.126 . S
Co514 O523 2.063 . S
Co514 O537 2.047 . S
Co514 O543 2.113 . S
H515 Co512 2.400 . S
H515 Co514 2.388 . S
H515 O516 0.760 . S
O516 Co512 2.009 . S
O516 Co513 2.126 . S
O516 Co514 2.053 . S
O516 H515 0.760 . S
H517 Co513 2.388 . S
H517 O518 0.760 . S
H517 Co519 2.400 . S
O518 Co513 2.053 . S
O518 Co514 2.126 . S
O518 H517 0.760 . S
O518 Co519 2.009 . S
Co519 H517 2.400 . S
Co519 O518 2.009 . S
Co519 O520 2.053 . S
Co519 O522 2.094 . S
Co519 O526 2.122 . S
Co519 O540 2.115 . S
Co519 O541 2.315 . S
O520 Co519 2.053 . S
O520 C532 1.259 . S
O521 Co513 2.047 . S
O521 C532 1.257 . S
O522 Co519 2.094 . S
O522 C533 1.253 . S
O523 Co514 2.063 . S
O523 C533 1.268 . S
O524 Co512 2.115 . S
O524 C534 1.281 . S
O525 Co512 2.315 . S
O525 C534 1.252 . S
O526 Co519 2.122 . S
O526 C535 1.272 . S
O527 Co513 2.113 . S
O527 C535 1.245 . S
C528 O536 1.259 . S
C528 O537 1.257 . S
C529 O538 1.268 . S
C529 O539 1.253 . S
C530 O540 1.281 . S
C530 O541 1.252 . S
C531 O542 1.272 . S
C531 O543 1.245 . S
C532 O520 1.259 . S
C532 O521 1.257 . S
C533 O522 1.253 . S
C533 O523 1.268 . S
C534 O524 1.281 . S
C534 O525 1.252 . S
C535 O526 1.272 . S
C535 O527 1.245 . S
O536 Co512 2.053 . S
O536 C528 1.259 . S
O537 Co514 2.047 . S
O537 C528 1.257 . S
O538 Co513 2.063 . S
O538 C529 1.268 . S
O539 Co512 2.094 . S
O539 C529 1.253 . S
O540 Co519 2.115 . S
O540 C530 1.281 . S
O541 Co519 2.315 . S
O541 C530 1.252 . S
O542 Co512 2.122 . S
O542 C531 1.272 . S
O543 Co514 2.113 . S
O543 C531 1.245 . S
Co544 H547 2.400 . S
Co544 O548 2.009 . S
Co544 O556 2.115 . S
Co544 O557 2.315 . S
Co544 O568 2.053 . S
Co544 O571 2.094 . S
Co544 O574 2.122 . S
Co545 O548 2.126 . S
Co545 H549 2.388 . S
Co545 O550 2.053 . S
Co545 O553 2.047 . S
Co545 O559 2.113 . S
Co545 O570 2.063 . S
Co546 H547 2.388 . S
Co546 O548 2.053 . S
Co546 O550 2.126 . S
Co546 O555 2.063 . S
Co546 O569 2.047 . S
Co546 O575 2.113 . S
H547 Co544 2.400 . S
H547 Co546 2.388 . S
H547 O548 0.760 . S
O548 Co544 2.009 . S
O548 Co545 2.126 . S
O548 Co546 2.053 . S
O548 H547 0.760 . S
H549 Co545 2.388 . S
H549 O550 0.760 . S
H549 Co551 2.400 . S
O550 Co545 2.053 . S
O550 Co546 2.126 . S
O550 H549 0.760 . S
O550 Co551 2.009 . S
Co551 H549 2.400 . S
Co551 O550 2.009 . S
Co551 O552 2.053 . S
Co551 O554 2.094 . S
Co551 O558 2.122 . S
Co551 O572 2.115 . S
Co551 O573 2.315 . S
O552 Co551 2.053 . S
O552 C564 1.259 . S
O553 Co545 2.047 . S
O553 C564 1.257 . S
O554 Co551 2.094 . S
O554 C565 1.253 . S
O555 Co546 2.063 . S
O555 C565 1.268 . S
O556 Co544 2.115 . S
O556 C566 1.281 . S
O557 Co544 2.315 . S
O557 C566 1.252 . S
O558 Co551 2.122 . S
O558 C567 1.272 . S
O559 Co545 2.113 . S
O559 C567 1.245 . S
C560 O568 1.259 . S
C560 O569 1.257 . S
C561 O570 1.268 . S
C561 O571 1.253 . S
C562 O572 1.281 . S
C562 O573 1.252 . S
C563 O574 1.272 . S
C563 O575 1.245 . S
C564 O552 1.259 . S
C564 O553 1.257 . S
C565 O554 1.253 . S
C565 O555 1.268 . S
C566 O556 1.281 . S
C566 O557 1.252 . S
C567 O558 1.272 . S
C567 O559 1.245 . S
O568 Co544 2.053 . S
O568 C560 1.259 . S
O569 Co546 2.047 . S
O569 C560 1.257 . S
O570 Co545 2.063 . S
O570 C561 1.268 . S
O571 Co544 2.094 . S
O571 C561 1.253 . S
O572 Co551 2.115 . S
O572 C562 1.281 . S
O573 Co551 2.315 . S
O573 C562 1.252 . S
O574 Co544 2.122 . S
O574 C563 1.272 . S
O575 Co546 2.113 . S
O575 C563 1.245 . S
Co576 H579 2.400 . S
Co576 O580 2.009 . S
Co576 O588 2.115 . S
Co576 O589 2.315 . S
Co576 O600 2.053 . S
Co576 O603 2.094 . S
Co576 O606 2.122 . S
Co577 O580 2.126 . S
Co577 H581 2.388 . S
Co577 O582 2.053 . S
Co577 O585 2.047 . S
Co577 O591 2.113 . S
Co577 O602 2.063 . S
Co578 H579 2.388 . S
Co578 O580 2.053 . S
Co578 O582 2.126 . S
Co578 O587 2.063 . S
Co578 O601 2.047 . S
Co578 O607 2.113 . S
H579 Co576 2.400 . S
H579 Co578 2.388 . S
H579 O580 0.760 . S
O580 Co576 2.009 . S
O580 Co577 2.126 . S
O580 Co578 2.053 . S
O580 H579 0.760 . S
H581 Co577 2.388 . S
H581 O582 0.760 . S
H581 Co583 2.400 . S
O582 Co577 2.053 . S
O582 Co578 2.126 . S
O582 H581 0.760 . S
O582 Co583 2.009 . S
Co583 H581 2.400 . S
Co583 O582 2.009 . S
Co583 O584 2.053 . S
Co583 O586 2.094 . S
Co583 O590 2.122 . S
Co583 O604 2.115 . S
Co583 O605 2.315 . S
O584 Co583 2.053 . S
O584 C596 1.259 . S
O585 Co577 2.047 . S
O585 C596 1.257 . S
O586 Co583 2.094 . S
O586 C597 1.253 . S
O587 Co578 2.063 . S
O587 C597 1.268 . S
O588 Co576 2.115 . S
O588 C598 1.281 . S
O589 Co576 2.315 . S
O589 C598 1.252 . S
O590 Co583 2.122 . S
O590 C599 1.272 . S
O591 Co577 2.113 . S
O591 C599 1.245 . S
C592 O600 1.259 . S
C592 O601 1.257 . S
C593 O602 1.268 . S
C593 O603 1.253 . S
C594 O604 1.281 . S
C594 O605 1.252 . S
C595 O606 1.272 . S
C595 O607 1.245 . S
C596 O584 1.259 . S
C596 O585 1.257 . S
C597 O586 1.253 . S
C597 O587 1.268 . S
C598 O588 1.281 . S
C598 O589 1.252 . S
C599 O590 1.272 . S
C599 O591 1.245 . S
O600 Co576 2.053 . S
O600 C592 1.259 . S
O601 Co578 2.047 . S
O601 C592 1.257 . S
O602 Co577 2.063 . S
O602 C593 1.268 . S
O603 Co576 2.094 . S
O603 C593 1.253 . S
O604 Co583 2.115 . S
O604 C594 1.281 . S
O605 Co583 2.315 . S
O605 C594 1.252 . S
O606 Co576 2.122 . S
O606 C595 1.272 . S
O607 Co578 2.113 . S
O607 C595 1.245 . S
Co608 H611 2.400 . S
Co608 O612 2.009 . S
Co608 O620 2.115 . S
Co608 O621 2.315 . S
Co608 O632 2.053 . S
Co608 O635 2.094 . S
Co608 O638 2.122 . S
Co609 O612 2.126 . S
Co609 H613 2.388 . S
Co609 O614 2.053 . S
Co609 O617 2.047 . S
Co609 O623 2.113 . S
Co609 O634 2.063 . S
Co610 H611 2.388 . S
Co610 O612 2.053 . S
Co610 O614 2.126 . S
Co610 O619 2.063 . S
Co610 O633 2.047 . S
Co610 O639 2.113 . S
H611 Co608 2.400 . S
H611 Co610 2.388 . S
H611 O612 0.760 . S
O612 Co608 2.009 . S
O612 Co609 2.126 . S
O612 Co610 2.053 . S
O612 H611 0.760 . S
H613 Co609 2.388 . S
H613 O614 0.760 . S
H613 Co615 2.400 . S
O614 Co609 2.053 . S
O614 Co610 2.126 . S
O614 H613 0.760 . S
O614 Co615 2.009 . S
Co615 H613 2.400 . S
Co615 O614 2.009 . S
Co615 O616 2.053 . S
Co615 O618 2.094 . S
Co615 O622 2.122 . S
Co615 O636 2.115 . S
Co615 O637 2.315 . S
O616 Co615 2.053 . S
O616 C628 1.259 . S
O617 Co609 2.047 . S
O617 C628 1.257 . S
O618 Co615 2.094 . S
O618 C629 1.253 . S
O619 Co610 2.063 . S
O619 C629 1.268 . S
O620 Co608 2.115 . S
O620 C630 1.281 . S
O621 Co608 2.315 . S
O621 C630 1.252 . S
O622 Co615 2.122 . S
O622 C631 1.272 . S
O623 Co609 2.113 . S
O623 C631 1.245 . S
C624 O632 1.259 . S
C624 O633 1.257 . S
C625 O634 1.268 . S
C625 O635 1.253 . S
C626 O636 1.281 . S
C626 O637 1.252 . S
C627 O638 1.272 . S
C627 O639 1.245 . S
C628 O616 1.259 . S
C628 O617 1.257 . S
C629 O618 1.253 . S
C629 O619 1.268 . S
C630 O620 1.281 . S
C630 O621 1.252 . S
C631 O622 1.272 . S
C631 O623 1.245 . S
O632 Co608 2.053 . S
O632 C624 1.259 . S
O633 Co610 2.047 . S
O633 C624 1.257 . S
O634 Co609 2.063 . S
O634 C625 1.268 . S
O635 Co608 2.094 . S
O635 C625 1.253 . S
O636 Co615 2.115 . S
O636 C626 1.281 . S
O637 Co615 2.315 . S
O637 C626 1.252 . S
O638 Co608 2.122 . S
O638 C627 1.272 . S
O639 Co610 2.113 . S
O639 C627 1.245 . S
Co640 H643 2.400 . S
Co640 O644 2.009 . S
Co640 O652 2.115 . S
Co640 O653 2.315 . S
Co640 O664 2.053 . S
Co640 O667 2.094 . S
Co640 O670 2.122 . S
Co641 O644 2.126 . S
Co641 H645 2.388 . S
Co641 O646 2.053 . S
Co641 O649 2.047 . S
Co641 O655 2.113 . S
Co641 O666 2.063 . S
Co642 H643 2.388 . S
Co642 O644 2.053 . S
Co642 O646 2.126 . S
Co642 O651 2.063 . S
Co642 O665 2.047 . S
Co642 O671 2.113 . S
H643 Co640 2.400 . S
H643 Co642 2.388 . S
H643 O644 0.760 . S
O644 Co640 2.009 . S
O644 Co641 2.126 . S
O644 Co642 2.053 . S
O644 H643 0.760 . S
H645 Co641 2.388 . S
H645 O646 0.760 . S
H645 Co647 2.400 . S
O646 Co641 2.053 . S
O646 Co642 2.126 . S
O646 H645 0.760 . S
O646 Co647 2.009 . S
Co647 H645 2.400 . S
Co647 O646 2.009 . S
Co647 O648 2.053 . S
Co647 O650 2.094 . S
Co647 O654 2.122 . S
Co647 O668 2.115 . S
Co647 O669 2.315 . S
O648 Co647 2.053 . S
O648 C660 1.259 . S
O649 Co641 2.047 . S
O649 C660 1.257 . S
O650 Co647 2.094 . S
O650 C661 1.253 . S
O651 Co642 2.063 . S
O651 C661 1.268 . S
O652 Co640 2.115 . S
O652 C662 1.281 . S
O653 Co640 2.315 . S
O653 C662 1.252 . S
O654 Co647 2.122 . S
O654 C663 1.272 . S
O655 Co641 2.113 . S
O655 C663 1.245 . S
C656 O664 1.259 . S
C656 O665 1.257 . S
C657 O666 1.268 . S
C657 O667 1.253 . S
C658 O668 1.281 . S
C658 O669 1.252 . S
C659 O670 1.272 . S
C659 O671 1.245 . S
C660 O648 1.259 . S
C660 O649 1.257 . S
C661 O650 1.253 . S
C661 O651 1.268 . S
C662 O652 1.281 . S
C662 O653 1.252 . S
C663 O654 1.272 . S
C663 O655 1.245 . S
O664 Co640 2.053 . S
O664 C656 1.259 . S
O665 Co642 2.047 . S
O665 C656 1.257 . S
O666 Co641 2.063 . S
O666 C657 1.268 . S
O667 Co640 2.094 . S
O667 C657 1.253 . S
O668 Co647 2.115 . S
O668 C658 1.281 . S
O669 Co647 2.315 . S
O669 C658 1.252 . S
O670 Co640 2.122 . S
O670 C659 1.272 . S
O671 Co642 2.113 . S
O671 C659 1.245 . S
Co672 H675 2.400 . S
Co672 O676 2.009 . S
Co672 O684 2.115 . S
Co672 O685 2.315 . S
Co672 O696 2.053 . S
Co672 O699 2.094 . S
Co672 O702 2.122 . S
Co673 O676 2.126 . S
Co673 H677 2.388 . S
Co673 O678 2.053 . S
Co673 O681 2.047 . S
Co673 O687 2.113 . S
Co673 O698 2.063 . S
Co674 H675 2.388 . S
Co674 O676 2.053 . S
Co674 O678 2.126 . S
Co674 O683 2.063 . S
Co674 O697 2.047 . S
Co674 O703 2.113 . S
H675 Co672 2.400 . S
H675 Co674 2.388 . S
H675 O676 0.760 . S
O676 Co672 2.009 . S
O676 Co673 2.126 . S
O676 Co674 2.053 . S
O676 H675 0.760 . S
H677 Co673 2.388 . S
H677 O678 0.760 . S
H677 Co679 2.400 . S
O678 Co673 2.053 . S
O678 Co674 2.126 . S
O678 H677 0.760 . S
O678 Co679 2.009 . S
Co679 H677 2.400 . S
Co679 O678 2.009 . S
Co679 O680 2.053 . S
Co679 O682 2.094 . S
Co679 O686 2.122 . S
Co679 O700 2.115 . S
Co679 O701 2.315 . S
O680 Co679 2.053 . S
O680 C692 1.259 . S
O681 Co673 2.047 . S
O681 C692 1.257 . S
O682 Co679 2.094 . S
O682 C693 1.253 . S
O683 Co674 2.063 . S
O683 C693 1.268 . S
O684 Co672 2.115 . S
O684 C694 1.281 . S
O685 Co672 2.315 . S
O685 C694 1.252 . S
O686 Co679 2.122 . S
O686 C695 1.272 . S
O687 Co673 2.113 . S
O687 C695 1.245 . S
C688 O696 1.259 . S
C688 O697 1.257 . S
C689 O698 1.268 . S
C689 O699 1.253 . S
C690 O700 1.281 . S
C690 O701 1.252 . S
C691 O702 1.272 . S
C691 O703 1.245 . S
C692 O680 1.259 . S
C692 O681 1.257 . S
C693 O682 1.253 . S
C693 O683 1.268 . S
C694 O684 1.281 . S
C694 O685 1.252 . S
C695 O686 1.272 . S
C695 O687 1.245 . S
O696 Co672 2.053 . S
O696 C688 1.259 . S
O697 Co674 2.047 . S
O697 C688 1.257 . S
O698 Co673 2.063 . S
O698 C689 1.268 . S
O699 Co672 2.094 . S
O699 C689 1.253 . S
O700 Co679 2.115 . S
O700 C690 1.281 . S
O701 Co679 2.315 . S
O701 C690 1.252 . S
O702 Co672 2.122 . S
O702 C691 1.272 . S
O703 Co674 2.113 . S
O703 C691 1.245 . S
Co704 H707 2.400 . S
Co704 O708 2.009 . S
Co704 O716 2.115 . S
Co704 O717 2.315 . S
Co704 O728 2.053 . S
Co704 O731 2.094 . S
Co704 O734 2.122 . S
Co705 O708 2.126 . S
Co705 H709 2.388 . S
Co705 O710 2.053 . S
Co705 O713 2.047 . S
Co705 O719 2.113 . S
Co705 O730 2.063 . S
Co706 H707 2.388 . S
Co706 O708 2.053 . S
Co706 O710 2.126 . S
Co706 O715 2.063 . S
Co706 O729 2.047 . S
Co706 O735 2.113 . S
H707 Co704 2.400 . S
H707 Co706 2.388 . S
H707 O708 0.760 . S
O708 Co704 2.009 . S
O708 Co705 2.126 . S
O708 Co706 2.053 . S
O708 H707 0.760 . S
H709 Co705 2.388 . S
H709 O710 0.760 . S
H709 Co711 2.400 . S
O710 Co705 2.053 . S
O710 Co706 2.126 . S
O710 H709 0.760 . S
O710 Co711 2.009 . S
Co711 H709 2.400 . S
Co711 O710 2.009 . S
Co711 O712 2.053 . S
Co711 O714 2.094 . S
Co711 O718 2.122 . S
Co711 O732 2.115 . S
Co711 O733 2.315 . S
O712 Co711 2.053 . S
O712 C724 1.259 . S
O713 Co705 2.047 . S
O713 C724 1.257 . S
O714 Co711 2.094 . S
O714 C725 1.253 . S
O715 Co706 2.063 . S
O715 C725 1.268 . S
O716 Co704 2.115 . S
O716 C726 1.281 . S
O717 Co704 2.315 . S
O717 C726 1.252 . S
O718 Co711 2.122 . S
O718 C727 1.272 . S
O719 Co705 2.113 . S
O719 C727 1.245 . S
C720 O728 1.259 . S
C720 O729 1.257 . S
C721 O730 1.268 . S
C721 O731 1.253 . S
C722 O732 1.281 . S
C722 O733 1.252 . S
C723 O734 1.272 . S
C723 O735 1.245 . S
C724 O712 1.259 . S
C724 O713 1.257 . S
C725 O714 1.253 . S
C725 O715 1.268 . S
C726 O716 1.281 . S
C726 O717 1.252 . S
C727 O718 1.272 . S
C727 O719 1.245 . S
O728 Co704 2.053 . S
O728 C720 1.259 . S
O729 Co706 2.047 . S
O729 C720 1.257 . S
O730 Co705 2.063 . S
O730 C721 1.268 . S
O731 Co704 2.094 . S
O731 C721 1.253 . S
O732 Co711 2.115 . S
O732 C722 1.281 . S
O733 Co711 2.315 . S
O733 C722 1.252 . S
O734 Co704 2.122 . S
O734 C723 1.272 . S
O735 Co706 2.113 . S
O735 C723 1.245 . S
Co736 H739 2.400 . S
Co736 O740 2.009 . S
Co736 O748 2.115 . S
Co736 O749 2.315 . S
Co736 O760 2.053 . S
Co736 O763 2.094 . S
Co736 O766 2.122 . S
Co737 O740 2.126 . S
Co737 H741 2.388 . S
Co737 O742 2.053 . S
Co737 O745 2.047 . S
Co737 O751 2.113 . S
Co737 O762 2.063 . S
Co738 H739 2.388 . S
Co738 O740 2.053 . S
Co738 O742 2.126 . S
Co738 O747 2.063 . S
Co738 O761 2.047 . S
Co738 O767 2.113 . S
H739 Co736 2.400 . S
H739 Co738 2.388 . S
H739 O740 0.760 . S
O740 Co736 2.009 . S
O740 Co737 2.126 . S
O740 Co738 2.053 . S
O740 H739 0.760 . S
H741 Co737 2.388 . S
H741 O742 0.760 . S
H741 Co743 2.400 . S
O742 Co737 2.053 . S
O742 Co738 2.126 . S
O742 H741 0.760 . S
O742 Co743 2.009 . S
Co743 H741 2.400 . S
Co743 O742 2.009 . S
Co743 O744 2.053 . S
Co743 O746 2.094 . S
Co743 O750 2.122 . S
Co743 O764 2.115 . S
Co743 O765 2.315 . S
O744 Co743 2.053 . S
O744 C756 1.259 . S
O745 Co737 2.047 . S
O745 C756 1.257 . S
O746 Co743 2.094 . S
O746 C757 1.253 . S
O747 Co738 2.063 . S
O747 C757 1.268 . S
O748 Co736 2.115 . S
O748 C758 1.281 . S
O749 Co736 2.315 . S
O749 C758 1.252 . S
O750 Co743 2.122 . S
O750 C759 1.272 . S
O751 Co737 2.113 . S
O751 C759 1.245 . S
C752 O760 1.259 . S
C752 O761 1.257 . S
C753 O762 1.268 . S
C753 O763 1.253 . S
C754 O764 1.281 . S
C754 O765 1.252 . S
C755 O766 1.272 . S
C755 O767 1.245 . S
C756 O744 1.259 . S
C756 O745 1.257 . S
C757 O746 1.253 . S
C757 O747 1.268 . S
C758 O748 1.281 . S
C758 O749 1.252 . S
C759 O750 1.272 . S
C759 O751 1.245 . S
O760 Co736 2.053 . S
O760 C752 1.259 . S
O761 Co738 2.047 . S
O761 C752 1.257 . S
O762 Co737 2.063 . S
O762 C753 1.268 . S
O763 Co736 2.094 . S
O763 C753 1.253 . S
O764 Co743 2.115 . S
O764 C754 1.281 . S
O765 Co743 2.315 . S
O765 C754 1.252 . S
O766 Co736 2.122 . S
O766 C755 1.272 . S
O767 Co738 2.113 . S
O767 C755 1.245 . S
H768 C776 0.929 . S
H769 C778 0.930 . S
H770 C780 0.930 . S
H771 C783 0.929 . S
H772 C786 0.930 . S
H773 C788 0.960 . S
H774 C788 0.960 . S
H775 C788 0.960 . S
C776 H768 0.929 . S
C776 C777 1.377 . S
C776 C778 1.384 . S
C777 C776 1.377 . S
C777 C783 1.390 . S
C778 H769 0.930 . S
C778 C776 1.384 . S
C778 C779 1.372 . S
C779 C778 1.372 . S
C779 C780 1.400 . S
C779 C784 1.490 . S
C780 H770 0.930 . S
C780 C779 1.400 . S
C780 C783 1.386 . S
H781 C797 0.930 . S
H782 C798 0.931 . S
C783 H771 0.929 . S
C783 C777 1.390 . S
C783 C780 1.386 . S
C784 C779 1.490 . S
C784 C786 1.395 . S
C784 C787 1.403 . S
H785 C791 0.930 . S
C786 H772 0.930 . S
C786 C784 1.395 . S
C786 C789 1.403 . S
C787 C784 1.403 . S
C787 C788 1.524 . S
C787 C791 1.400 . S
C788 H773 0.960 . S
C788 H774 0.960 . S
C788 H775 0.960 . S
C788 C787 1.524 . S
C789 C786 1.403 . S
C789 C790 1.392 . S
C789 C793 1.495 . S
C790 C789 1.392 . S
C790 C791 1.385 . S
C790 C792 1.478 . S
C791 H785 0.930 . S
C791 C787 1.400 . S
C791 C790 1.385 . S
C792 C790 1.478 . S
C792 C794 1.381 . S
C792 C798 1.383 . S
C793 C789 1.495 . S
C793 H799 0.959 . S
C793 H800 0.961 . S
C793 H801 0.960 . S
C794 C792 1.381 . S
C794 C795 1.394 . S
C794 H802 0.930 . S
C795 C794 1.394 . S
C795 C796 1.383 . S
C795 H803 0.929 . S
C796 C795 1.383 . S
C796 C797 1.377 . S
C797 H781 0.930 . S
C797 C796 1.377 . S
C797 C798 1.379 . S
C798 H782 0.931 . S
C798 C792 1.383 . S
C798 C797 1.379 . S
H799 C793 0.959 . S
H800 C793 0.961 . S
H801 C793 0.960 . S
H802 C794 0.930 . S
H803 C795 0.929 . S
H804 C812 0.929 . S
H805 C814 0.930 . S
H806 C816 0.930 . S
H807 C819 0.929 . S
H808 C822 0.930 . S
H809 C824 0.960 . S
H810 C824 0.960 . S
H811 C824 0.960 . S
C812 H804 0.929 . S
C812 C813 1.377 . S
C812 C814 1.384 . S
C813 C812 1.377 . S
C813 C819 1.390 . S
C814 H805 0.930 . S
C814 C812 1.384 . S
C814 C815 1.372 . S
C815 C814 1.372 . S
C815 C816 1.400 . S
C815 C820 1.490 . S
C816 H806 0.930 . S
C816 C815 1.400 . S
C816 C819 1.386 . S
H817 C833 0.930 . S
H818 C834 0.931 . S
C819 H807 0.929 . S
C819 C813 1.390 . S
C819 C816 1.386 . S
C820 C815 1.490 . S
C820 C822 1.395 . S
C820 C823 1.403 . S
H821 C827 0.930 . S
C822 H808 0.930 . S
C822 C820 1.395 . S
C822 C825 1.403 . S
C823 C820 1.403 . S
C823 C824 1.524 . S
C823 C827 1.400 . S
C824 H809 0.960 . S
C824 H810 0.960 . S
C824 H811 0.960 . S
C824 C823 1.524 . S
C825 C822 1.403 . S
C825 C826 1.392 . S
C825 C829 1.495 . S
C826 C825 1.392 . S
C826 C827 1.385 . S
C826 C828 1.478 . S
C827 H821 0.930 . S
C827 C823 1.400 . S
C827 C826 1.385 . S
C828 C826 1.478 . S
C828 C830 1.381 . S
C828 C834 1.383 . S
C829 C825 1.495 . S
C829 H835 0.959 . S
C829 H836 0.961 . S
C829 H837 0.960 . S
C830 C828 1.381 . S
C830 C831 1.394 . S
C830 H838 0.930 . S
C831 C830 1.394 . S
C831 C832 1.383 . S
C831 H839 0.929 . S
C832 C831 1.383 . S
C832 C833 1.377 . S
C833 H817 0.930 . S
C833 C832 1.377 . S
C833 C834 1.379 . S
C834 H818 0.931 . S
C834 C828 1.383 . S
C834 C833 1.379 . S
H835 C829 0.959 . S
H836 C829 0.961 . S
H837 C829 0.960 . S
H838 C830 0.930 . S
H839 C831 0.929 . S
H840 C848 0.929 . S
H841 C850 0.930 1_545 S
H842 C852 0.930 . S
H843 C855 0.929 . S
H844 C858 0.930 . S
H845 C860 0.960 . S
H846 C860 0.960 . S
H847 C860 0.960 . S
C848 H840 0.929 . S
C848 C849 1.377 . S
C848 C850 1.384 . S
C849 C848 1.377 . S
C849 C855 1.390 . S
C850 H841 0.930 1_565 S
C850 C848 1.384 . S
C850 C851 1.372 1_565 S
C851 C850 1.372 1_545 S
C851 C852 1.400 1_545 S
C851 C856 1.490 . S
C852 H842 0.930 . S
C852 C851 1.400 1_565 S
C852 C855 1.386 . S
H853 C869 0.930 . S
H854 C870 0.931 . S
C855 H843 0.929 . S
C855 C849 1.390 . S
C855 C852 1.386 . S
C856 C851 1.490 . S
C856 C858 1.395 . S
C856 C859 1.403 . S
H857 C863 0.930 . S
C858 H844 0.930 . S
C858 C856 1.395 . S
C858 C861 1.403 . S
C859 C856 1.403 . S
C859 C860 1.524 . S
C859 C863 1.400 . S
C860 H845 0.960 . S
C860 H846 0.960 . S
C860 H847 0.960 . S
C860 C859 1.524 . S
C861 C858 1.403 . S
C861 C862 1.392 . S
C861 C865 1.495 . S
C862 C861 1.392 . S
C862 C863 1.385 . S
C862 C864 1.478 . S
C863 H857 0.930 . S
C863 C859 1.400 . S
C863 C862 1.385 . S
C864 C862 1.478 . S
C864 C866 1.381 . S
C864 C870 1.383 . S
C865 C861 1.495 . S
C865 H871 0.959 . S
C865 H872 0.961 . S
C865 H873 0.960 . S
C866 C864 1.381 . S
C866 C867 1.394 . S
C866 H874 0.930 . S
C867 C866 1.394 . S
C867 C868 1.383 . S
C867 H875 0.929 . S
C868 C867 1.383 . S
C868 C869 1.377 . S
C869 H853 0.930 . S
C869 C868 1.377 . S
C869 C870 1.379 . S
C870 H854 0.931 . S
C870 C864 1.383 . S
C870 C869 1.379 . S
H871 C865 0.959 . S
H872 C865 0.961 . S
H873 C865 0.960 . S
H874 C866 0.930 . S
H875 C867 0.929 . S
H876 C884 0.929 . S
H877 C886 0.930 . S
H878 C888 0.930 . S
H879 C891 0.929 . S
H880 C894 0.930 . S
H881 C896 0.960 . S
H882 C896 0.960 . S
H883 C896 0.960 . S
C884 H876 0.929 . S
C884 C885 1.377 . S
C884 C886 1.384 . S
C885 C884 1.377 . S
C885 C891 1.390 . S
C886 H877 0.930 . S
C886 C884 1.384 . S
C886 C887 1.372 . S
C887 C886 1.372 . S
C887 C888 1.400 . S
C887 C892 1.490 . S
C888 H878 0.930 . S
C888 C887 1.400 . S
C888 C891 1.386 . S
H889 C905 0.930 . S
H890 C906 0.931 . S
C891 H879 0.929 . S
C891 C885 1.390 . S
C891 C888 1.386 . S
C892 C887 1.490 . S
C892 C894 1.395 . S
C892 C895 1.403 . S
H893 C899 0.930 . S
C894 H880 0.930 . S
C894 C892 1.395 . S
C894 C897 1.403 . S
C895 C892 1.403 . S
C895 C896 1.524 . S
C895 C899 1.400 . S
C896 H881 0.960 . S
C896 H882 0.960 . S
C896 H883 0.960 . S
C896 C895 1.524 . S
C897 C894 1.403 . S
C897 C898 1.392 . S
C897 C901 1.495 . S
C898 C897 1.392 . S
C898 C899 1.385 . S
C898 C900 1.478 . S
C899 H893 0.930 . S
C899 C895 1.400 . S
C899 C898 1.385 . S
C900 C898 1.478 . S
C900 C902 1.381 1_565 S
C900 C906 1.383 1_565 S
C901 C897 1.495 . S
C901 H907 0.959 . S
C901 H908 0.961 . S
C901 H909 0.960 . S
C902 C900 1.381 1_545 S
C902 C903 1.394 . S
C902 H910 0.930 1_545 S
C903 C902 1.394 . S
C903 C904 1.383 . S
C903 H911 0.929 . S
C904 C903 1.383 . S
C904 C905 1.377 . S
C905 H889 0.930 . S
C905 C904 1.377 . S
C905 C906 1.379 . S
C906 H890 0.931 . S
C906 C900 1.383 1_545 S
C906 C905 1.379 . S
H907 C901 0.959 . S
H908 C901 0.961 . S
H909 C901 0.960 . S
H910 C902 0.930 1_565 S
H911 C903 0.929 . S
H912 C920 0.929 . S
H913 C922 0.930 . S
H914 C924 0.930 . S
H915 C927 0.929 . S
H916 C930 0.930 . S
H917 C932 0.960 . S
H918 C932 0.960 . S
H919 C932 0.960 . S
C920 H912 0.929 . S
C920 C921 1.377 . S
C920 C922 1.384 . S
C921 C920 1.377 . S
C921 C927 1.390 . S
C922 H913 0.930 . S
C922 C920 1.384 . S
C922 C923 1.372 . S
C923 C922 1.372 . S
C923 C924 1.400 . S
C923 C928 1.490 . S
C924 H914 0.930 . S
C924 C923 1.400 . S
C924 C927 1.386 . S
H925 C941 0.930 . S
H926 C942 0.931 . S
C927 H915 0.929 . S
C927 C921 1.390 . S
C927 C924 1.386 . S
C928 C923 1.490 . S
C928 C930 1.395 . S
C928 C931 1.403 . S
H929 C935 0.930 . S
C930 H916 0.930 . S
C930 C928 1.395 . S
C930 C933 1.403 . S
C931 C928 1.403 . S
C931 C932 1.524 . S
C931 C935 1.400 . S
C932 H917 0.960 . S
C932 H918 0.960 . S
C932 H919 0.960 . S
C932 C931 1.524 . S
C933 C930 1.403 . S
C933 C934 1.392 . S
C933 C937 1.495 . S
C934 C933 1.392 . S
C934 C935 1.385 . S
C934 C936 1.478 . S
C935 H929 0.930 . S
C935 C931 1.400 . S
C935 C934 1.385 . S
C936 C934 1.478 . S
C936 C938 1.381 . S
C936 C942 1.383 . S
C937 C933 1.495 . S
C937 H943 0.959 . S
C937 H944 0.961 . S
C937 H945 0.960 . S
C938 C936 1.381 . S
C938 C939 1.394 . S
C938 H946 0.930 . S
C939 C938 1.394 . S
C939 C940 1.383 . S
C939 H947 0.929 . S
C940 C939 1.383 . S
C940 C941 1.377 . S
C941 H925 0.930 . S
C941 C940 1.377 . S
C941 C942 1.379 . S
C942 H926 0.931 . S
C942 C936 1.383 . S
C942 C941 1.379 . S
H943 C937 0.959 . S
H944 C937 0.961 . S
H945 C937 0.960 . S
H946 C938 0.930 . S
H947 C939 0.929 . S
H948 C956 0.929 . S
H949 C958 0.930 1_556 S
H950 C960 0.930 . S
H951 C963 0.929 . S
H952 C966 0.930 . S
H953 C968 0.960 . S
H954 C968 0.960 . S
H955 C968 0.960 . S
C956 H948 0.929 . S
C956 C957 1.377 . S
C956 C958 1.384 . S
C957 C956 1.377 . S
C957 C963 1.390 . S
C958 H949 0.930 1_554 S
C958 C956 1.384 . S
C958 C959 1.372 1_554 S
C959 C958 1.372 1_556 S
C959 C960 1.400 1_556 S
C959 C964 1.490 . S
C960 H950 0.930 . S
C960 C959 1.400 1_554 S
C960 C963 1.386 . S
H961 C977 0.930 . S
H962 C978 0.931 . S
C963 H951 0.929 . S
C963 C957 1.390 . S
C963 C960 1.386 . S
C964 C959 1.490 . S
C964 C966 1.395 . S
C964 C967 1.403 . S
H965 C971 0.930 . S
C966 H952 0.930 . S
C966 C964 1.395 . S
C966 C969 1.403 . S
C967 C964 1.403 . S
C967 C968 1.524 . S
C967 C971 1.400 . S
C968 H953 0.960 . S
C968 H954 0.960 . S
C968 H955 0.960 . S
C968 C967 1.524 . S
C969 C966 1.403 . S
C969 C970 1.392 . S
C969 C973 1.495 . S
C970 C969 1.392 . S
C970 C971 1.385 . S
C970 C972 1.478 . S
C971 H965 0.930 . S
C971 C967 1.400 . S
C971 C970 1.385 . S
C972 C970 1.478 . S
C972 C974 1.381 . S
C972 C978 1.383 . S
C973 C969 1.495 . S
C973 H979 0.959 . S
C973 H980 0.961 . S
C973 H981 0.960 . S
C974 C972 1.381 . S
C974 C975 1.394 . S
C974 H982 0.930 . S
C975 C974 1.394 . S
C975 C976 1.383 . S
C975 H983 0.929 . S
C976 C975 1.383 . S
C976 C977 1.377 . S
C977 H961 0.930 . S
C977 C976 1.377 . S
C977 C978 1.379 . S
C978 H962 0.931 . S
C978 C972 1.383 . S
C978 C977 1.379 . S
H979 C973 0.959 . S
H980 C973 0.961 . S
H981 C973 0.960 . S
H982 C974 0.930 . S
H983 C975 0.929 . S
H984 C992 0.929 . S
H985 C994 0.930 . S
H986 C996 0.930 . S
H987 C999 0.929 . S
H988 C1002 0.930 . S
H989 C1004 0.960 . S
H990 C1004 0.960 . S
H991 C1004 0.960 . S
C992 H984 0.929 . S
C992 C993 1.377 . S
C992 C994 1.384 . S
C993 C992 1.377 . S
C993 C999 1.390 . S
C994 H985 0.930 . S
C994 C992 1.384 . S
C994 C995 1.372 . S
C995 C994 1.372 . S
C995 C996 1.400 . S
C995 C1000 1.490 . S
C996 H986 0.930 . S
C996 C995 1.400 . S
C996 C999 1.386 . S
H997 C1013 0.930 . S
H998 C1014 0.931 . S
C999 H987 0.929 . S
C999 C993 1.390 . S
C999 C996 1.386 . S
C1000 C995 1.490 . S
C1000 C1002 1.395 . S
C1000 C1003 1.403 . S
H1001 C1007 0.930 . S
C1002 H988 0.930 . S
C1002 C1000 1.395 . S
C1002 C1005 1.403 . S
C1003 C1000 1.403 . S
C1003 C1004 1.524 . S
C1003 C1007 1.400 . S
C1004 H989 0.960 . S
C1004 H990 0.960 . S
C1004 H991 0.960 . S
C1004 C1003 1.524 . S
C1005 C1002 1.403 . S
C1005 C1006 1.392 . S
C1005 C1009 1.495 . S
C1006 C1005 1.392 . S
C1006 C1007 1.385 . S
C1006 C1008 1.478 . S
C1007 H1001 0.930 . S
C1007 C1003 1.400 . S
C1007 C1006 1.385 . S
C1008 C1006 1.478 . S
C1008 C1010 1.381 . S
C1008 C1014 1.383 . S
C1009 C1005 1.495 . S
C1009 H1015 0.959 . S
C1009 H1016 0.961 . S
C1009 H1017 0.960 . S
C1010 C1008 1.381 . S
C1010 C1011 1.394 . S
C1010 H1018 0.930 . S
C1011 C1010 1.394 . S
C1011 C1012 1.383 . S
C1011 H1019 0.929 . S
C1012 C1011 1.383 . S
C1012 C1013 1.377 . S
C1013 H997 0.930 . S
C1013 C1012 1.377 . S
C1013 C1014 1.379 . S
C1014 H998 0.931 . S
C1014 C1008 1.383 . S
C1014 C1013 1.379 . S
H1015 C1009 0.959 . S
H1016 C1009 0.961 . S
H1017 C1009 0.960 . S
H1018 C1010 0.930 . S
H1019 C1011 0.929 . S
H1020 C1028 0.929 . S
H1021 C1030 0.930 . S
H1022 C1032 0.930 1_554 S
H1023 C1035 0.929 . S
H1024 C1038 0.930 . S
H1025 C1040 0.960 . S
H1026 C1040 0.960 . S
H1027 C1040 0.960 . S
C1028 H1020 0.929 . S
C1028 C1029 1.377 . S
C1028 C1030 1.384 . S
C1029 C1028 1.377 . S
C1029 C1035 1.390 . S
C1030 H1021 0.930 . S
C1030 C1028 1.384 . S
C1030 C1031 1.372 1_556 S
C1031 C1030 1.372 1_554 S
C1031 C1032 1.400 1_554 S
C1031 C1036 1.490 . S
C1032 H1022 0.930 1_556 S
C1032 C1031 1.400 1_556 S
C1032 C1035 1.386 . S
H1033 C1049 0.930 . S
H1034 C1050 0.931 . S
C1035 H1023 0.929 . S
C1035 C1029 1.390 . S
C1035 C1032 1.386 . S
C1036 C1031 1.490 . S
C1036 C1038 1.395 . S
C1036 C1039 1.403 . S
H1037 C1043 0.930 . S
C1038 H1024 0.930 . S
C1038 C1036 1.395 . S
C1038 C1041 1.403 . S
C1039 C1036 1.403 . S
C1039 C1040 1.524 . S
C1039 C1043 1.400 . S
C1040 H1025 0.960 . S
C1040 H1026 0.960 . S
C1040 H1027 0.960 . S
C1040 C1039 1.524 . S
C1041 C1038 1.403 . S
C1041 C1042 1.392 . S
C1041 C1045 1.495 . S
C1042 C1041 1.392 . S
C1042 C1043 1.385 . S
C1042 C1044 1.478 . S
C1043 H1037 0.930 . S
C1043 C1039 1.400 . S
C1043 C1042 1.385 . S
C1044 C1042 1.478 . S
C1044 C1046 1.381 . S
C1044 C1050 1.383 . S
C1045 C1041 1.495 . S
C1045 H1051 0.959 . S
C1045 H1052 0.961 . S
C1045 H1053 0.960 . S
C1046 C1044 1.381 . S
C1046 C1047 1.394 . S
C1046 H1054 0.930 . S
C1047 C1046 1.394 . S
C1047 C1048 1.383 . S
C1047 H1055 0.929 . S
C1048 C1047 1.383 . S
C1048 C1049 1.377 . S
C1049 H1033 0.930 . S
C1049 C1048 1.377 . S
C1049 C1050 1.379 . S
C1050 H1034 0.931 . S
C1050 C1044 1.383 . S
C1050 C1049 1.379 . S
H1051 C1045 0.959 . S
H1052 C1045 0.961 . S
H1053 C1045 0.960 . S
H1054 C1046 0.930 . S
H1055 C1047 0.929 . S
H1056 C1064 0.929 . S
H1057 C1066 0.930 . S
H1058 C1068 0.930 . S
H1059 C1071 0.929 . S
H1060 C1074 0.930 . S
H1061 C1076 0.960 . S
H1062 C1076 0.960 . S
H1063 C1076 0.960 . S
C1064 H1056 0.929 . S
C1064 C1065 1.377 . S
C1064 C1066 1.384 . S
C1065 C1064 1.377 . S
C1065 C1071 1.390 . S
C1066 H1057 0.930 . S
C1066 C1064 1.384 . S
C1066 C1067 1.372 . S
C1067 C1066 1.372 . S
C1067 C1068 1.400 . S
C1067 C1072 1.490 . S
C1068 H1058 0.930 . S
C1068 C1067 1.400 . S
C1068 C1071 1.386 . S
H1069 C1085 0.930 . S
H1070 C1086 0.931 . S
C1071 H1059 0.929 . S
C1071 C1065 1.390 . S
C1071 C1068 1.386 . S
C1072 C1067 1.490 . S
C1072 C1074 1.395 . S
C1072 C1075 1.403 . S
H1073 C1079 0.930 . S
C1074 H1060 0.930 . S
C1074 C1072 1.395 . S
C1074 C1077 1.403 . S
C1075 C1072 1.403 . S
C1075 C1076 1.524 . S
C1075 C1079 1.400 . S
C1076 H1061 0.960 . S
C1076 H1062 0.960 . S
C1076 H1063 0.960 . S
C1076 C1075 1.524 . S
C1077 C1074 1.403 . S
C1077 C1078 1.392 . S
C1077 C1081 1.495 . S
C1078 C1077 1.392 . S
C1078 C1079 1.385 . S
C1078 C1080 1.478 . S
C1079 H1073 0.930 . S
C1079 C1075 1.400 . S
C1079 C1078 1.385 . S
C1080 C1078 1.478 . S
C1080 C1082 1.381 . S
C1080 C1086 1.383 . S
C1081 C1077 1.495 . S
C1081 H1087 0.959 . S
C1081 H1088 0.961 . S
C1081 H1089 0.960 . S
C1082 C1080 1.381 . S
C1082 C1083 1.394 . S
C1082 H1090 0.930 . S
C1083 C1082 1.394 . S
C1083 C1084 1.383 . S
C1083 H1091 0.929 . S
C1084 C1083 1.383 . S
C1084 C1085 1.377 . S
C1085 H1069 0.930 . S
C1085 C1084 1.377 . S
C1085 C1086 1.379 . S
C1086 H1070 0.931 . S
C1086 C1080 1.383 . S
C1086 C1085 1.379 . S
H1087 C1081 0.959 . S
H1088 C1081 0.961 . S
H1089 C1081 0.960 . S
H1090 C1082 0.930 . S
H1091 C1083 0.929 . S
H1092 C1100 0.929 . S
H1093 C1102 0.930 . S
H1094 C1104 0.930 1_655 S
H1095 C1107 0.929 . S
H1096 C1110 0.930 . S
H1097 C1112 0.960 . S
H1098 C1112 0.960 . S
H1099 C1112 0.960 . S
C1100 H1092 0.929 . S
C1100 C1101 1.377 . S
C1100 C1102 1.384 . S
C1101 C1100 1.377 . S
C1101 C1107 1.390 . S
C1102 H1093 0.930 . S
C1102 C1100 1.384 . S
C1102 C1103 1.372 1_455 S
C1103 C1102 1.372 1_655 S
C1103 C1104 1.400 1_655 S
C1103 C1108 1.490 . S
C1104 H1094 0.930 1_455 S
C1104 C1103 1.400 1_455 S
C1104 C1107 1.386 . S
H1105 C1121 0.930 . S
H1106 C1122 0.931 . S
C1107 H1095 0.929 . S
C1107 C1101 1.390 . S
C1107 C1104 1.386 . S
C1108 C1103 1.490 . S
C1108 C1110 1.395 . S
C1108 C1111 1.403 . S
H1109 C1115 0.930 . S
C1110 H1096 0.930 . S
C1110 C1108 1.395 . S
C1110 C1113 1.403 . S
C1111 C1108 1.403 . S
C1111 C1112 1.524 . S
C1111 C1115 1.400 . S
C1112 H1097 0.960 . S
C1112 H1098 0.960 . S
C1112 H1099 0.960 . S
C1112 C1111 1.524 . S
C1113 C1110 1.403 . S
C1113 C1114 1.392 . S
C1113 C1117 1.495 . S
C1114 C1113 1.392 . S
C1114 C1115 1.385 . S
C1114 C1116 1.478 . S
C1115 H1109 0.930 . S
C1115 C1111 1.400 . S
C1115 C1114 1.385 . S
C1116 C1114 1.478 . S
C1116 C1118 1.381 . S
C1116 C1122 1.383 . S
C1117 C1113 1.495 . S
C1117 H1123 0.959 . S
C1117 H1124 0.961 . S
C1117 H1125 0.960 . S
C1118 C1116 1.381 . S
C1118 C1119 1.394 . S
C1118 H1126 0.930 . S
C1119 C1118 1.394 . S
C1119 C1120 1.383 . S
C1119 H1127 0.929 . S
C1120 C1119 1.383 . S
C1120 C1121 1.377 . S
C1121 H1105 0.930 . S
C1121 C1120 1.377 . S
C1121 C1122 1.379 . S
C1122 H1106 0.931 . S
C1122 C1116 1.383 . S
C1122 C1121 1.379 . S
H1123 C1117 0.959 . S
H1124 C1117 0.961 . S
H1125 C1117 0.960 . S
H1126 C1118 0.930 . S
H1127 C1119 0.929 . S
H1128 C1136 0.929 . S
H1129 C1138 0.930 . S
H1130 C1140 0.930 . S
H1131 C1143 0.929 . S
H1132 C1146 0.930 . S
H1133 C1148 0.960 . S
H1134 C1148 0.960 . S
H1135 C1148 0.960 . S
C1136 H1128 0.929 . S
C1136 C1137 1.377 . S
C1136 C1138 1.384 . S
C1137 C1136 1.377 . S
C1137 C1143 1.390 . S
C1138 H1129 0.930 . S
C1138 C1136 1.384 . S
C1138 C1139 1.372 . S
C1139 C1138 1.372 . S
C1139 C1140 1.400 . S
C1139 C1144 1.490 . S
C1140 H1130 0.930 . S
C1140 C1139 1.400 . S
C1140 C1143 1.386 . S
H1141 C1157 0.930 . S
H1142 C1158 0.931 . S
C1143 H1131 0.929 . S
C1143 C1137 1.390 . S
C1143 C1140 1.386 . S
C1144 C1139 1.490 . S
C1144 C1146 1.395 . S
C1144 C1147 1.403 . S
H1145 C1151 0.930 . S
C1146 H1132 0.930 . S
C1146 C1144 1.395 . S
C1146 C1149 1.403 . S
C1147 C1144 1.403 . S
C1147 C1148 1.524 . S
C1147 C1151 1.400 . S
C1148 H1133 0.960 . S
C1148 H1134 0.960 . S
C1148 H1135 0.960 . S
C1148 C1147 1.524 . S
C1149 C1146 1.403 . S
C1149 C1150 1.392 . S
C1149 C1153 1.495 . S
C1150 C1149 1.392 . S
C1150 C1151 1.385 . S
C1150 C1152 1.478 . S
C1151 H1145 0.930 . S
C1151 C1147 1.400 . S
C1151 C1150 1.385 . S
C1152 C1150 1.478 . S
C1152 C1154 1.381 . S
C1152 C1158 1.383 . S
C1153 C1149 1.495 . S
C1153 H1159 0.959 . S
C1153 H1160 0.961 . S
C1153 H1161 0.960 . S
C1154 C1152 1.381 . S
C1154 C1155 1.394 . S
C1154 H1162 0.930 . S
C1155 C1154 1.394 . S
C1155 C1156 1.383 . S
C1155 H1163 0.929 . S
C1156 C1155 1.383 . S
C1156 C1157 1.377 . S
C1157 H1141 0.930 . S
C1157 C1156 1.377 . S
C1157 C1158 1.379 . S
C1158 H1142 0.931 . S
C1158 C1152 1.383 . S
C1158 C1157 1.379 . S
H1159 C1153 0.959 . S
H1160 C1153 0.961 . S
H1161 C1153 0.960 . S
H1162 C1154 0.930 . S
H1163 C1155 0.929 . S
H1164 C1172 0.929 . S
H1165 C1174 0.930 . S
H1166 C1176 0.933 . S
H1167 C1179 0.929 . S
H1168 C1182 0.930 . S
H1169 C1184 0.960 . S
H1170 C1184 0.960 . S
H1171 C1184 0.960 . S
C1172 H1164 0.929 . S
C1172 C1173 1.377 . S
C1172 C1174 1.384 . S
C1173 C1172 1.377 . S
C1173 C1179 1.390 . S
C1174 H1165 0.930 . S
C1174 C1172 1.384 . S
C1174 C1175 1.372 1_655 S
C1175 C1174 1.372 1_455 S
C1175 C1176 1.400 1_455 S
C1175 C1180 1.490 . S
C1176 H1166 0.933 . S
C1176 C1175 1.400 1_655 S
C1176 C1179 1.386 . S
H1177 C1193 0.930 . S
H1178 C1194 0.931 . S
C1179 H1167 0.929 . S
C1179 C1173 1.390 . S
C1179 C1176 1.386 . S
C1180 C1175 1.490 . S
C1180 C1182 1.395 . S
C1180 C1183 1.403 . S
H1181 C1187 0.930 . S
C1182 H1168 0.930 . S
C1182 C1180 1.395 . S
C1182 C1185 1.403 . S
C1183 C1180 1.403 . S
C1183 C1184 1.524 . S
C1183 C1187 1.400 . S
C1184 H1169 0.960 . S
C1184 H1170 0.960 . S
C1184 H1171 0.960 . S
C1184 C1183 1.524 . S
C1185 C1182 1.403 . S
C1185 C1186 1.392 . S
C1185 C1189 1.495 . S
C1186 C1185 1.392 . S
C1186 C1187 1.385 . S
C1186 C1188 1.478 . S
C1187 H1181 0.930 . S
C1187 C1183 1.400 . S
C1187 C1186 1.385 . S
C1188 C1186 1.478 . S
C1188 C1190 1.381 . S
C1188 C1194 1.383 . S
C1189 C1185 1.495 . S
C1189 H1195 0.959 . S
C1189 H1196 0.961 . S
C1189 H1197 0.960 . S
C1190 C1188 1.381 . S
C1190 C1191 1.394 . S
C1190 H1198 0.930 . S
C1191 C1190 1.394 . S
C1191 C1192 1.383 . S
C1191 H1199 0.929 . S
C1192 C1191 1.383 . S
C1192 C1193 1.377 . S
C1193 H1177 0.930 . S
C1193 C1192 1.377 . S
C1193 C1194 1.379 . S
C1194 H1178 0.931 . S
C1194 C1188 1.383 . S
C1194 C1193 1.379 . S
H1195 C1189 0.959 . S
H1196 C1189 0.961 . S
H1197 C1189 0.960 . S
H1198 C1190 0.930 . S
H1199 C1191 0.929 . S
H1200 C1208 0.929 . S
H1201 C1210 0.930 . S
H1202 C1212 0.930 . S
H1203 C1215 0.929 . S
H1204 C1218 0.930 . S
H1205 C1220 0.960 . S
H1206 C1220 0.960 . S
H1207 C1220 0.960 . S
C1208 H1200 0.929 . S
C1208 C1209 1.377 . S
C1208 C1210 1.384 . S
C1209 C1208 1.377 . S
C1209 C1215 1.390 . S
C1210 H1201 0.930 . S
C1210 C1208 1.384 . S
C1210 C1211 1.372 . S
C1211 C1210 1.372 . S
C1211 C1212 1.400 . S
C1211 C1216 1.490 . S
C1212 H1202 0.930 . S
C1212 C1211 1.400 . S
C1212 C1215 1.386 . S
H1213 C1229 0.930 . S
H1214 C1230 0.931 . S
C1215 H1203 0.929 . S
C1215 C1209 1.390 . S
C1215 C1212 1.386 . S
C1216 C1211 1.490 . S
C1216 C1218 1.395 . S
C1216 C1219 1.403 . S
H1217 C1223 0.930 . S
C1218 H1204 0.930 . S
C1218 C1216 1.395 . S
C1218 C1221 1.403 . S
C1219 C1216 1.403 . S
C1219 C1220 1.524 . S
C1219 C1223 1.400 . S
C1220 H1205 0.960 . S
C1220 H1206 0.960 . S
C1220 H1207 0.960 . S
C1220 C1219 1.524 . S
C1221 C1218 1.403 . S
C1221 C1222 1.392 . S
C1221 C1225 1.495 . S
C1222 C1221 1.392 . S
C1222 C1223 1.385 . S
C1222 C1224 1.478 . S
C1223 H1217 0.930 . S
C1223 C1219 1.400 . S
C1223 C1222 1.385 . S
C1224 C1222 1.478 . S
C1224 C1226 1.381 . S
C1224 C1230 1.383 . S
C1225 C1221 1.495 . S
C1225 H1231 0.959 . S
C1225 H1232 0.961 . S
C1225 H1233 0.960 . S
C1226 C1224 1.381 . S
C1226 C1227 1.394 . S
C1226 H1234 0.930 . S
C1227 C1226 1.394 . S
C1227 C1228 1.383 . S
C1227 H1235 0.929 . S
C1228 C1227 1.383 . S
C1228 C1229 1.377 . S
C1229 H1213 0.930 . S
C1229 C1228 1.377 . S
C1229 C1230 1.379 . S
C1230 H1214 0.931 . S
C1230 C1224 1.383 . S
C1230 C1229 1.379 . S
H1231 C1225 0.959 . S
H1232 C1225 0.961 . S
H1233 C1225 0.960 . S
H1234 C1226 0.930 . S
H1235 C1227 0.929 . S
H1236 C1244 0.929 . S
H1237 C1246 0.930 . S
H1238 C1248 0.930 . S
H1239 C1251 0.929 . S
H1240 C1254 0.930 . S
H1241 C1256 0.960 . S
H1242 C1256 0.960 . S
H1243 C1256 0.960 . S
C1244 H1236 0.929 . S
C1244 C1245 1.377 . S
C1244 C1246 1.384 . S
C1245 C1244 1.377 . S
C1245 C1251 1.390 . S
C1246 H1237 0.930 . S
C1246 C1244 1.384 . S
C1246 C1247 1.372 . S
C1247 C1246 1.372 . S
C1247 C1248 1.400 . S
C1247 C1252 1.490 . S
C1248 H1238 0.930 . S
C1248 C1247 1.400 . S
C1248 C1251 1.386 . S
H1249 C1265 0.930 . S
H1250 C1266 0.931 . S
C1251 H1239 0.929 . S
C1251 C1245 1.390 . S
C1251 C1248 1.386 . S
C1252 C1247 1.490 . S
C1252 C1254 1.395 . S
C1252 C1255 1.403 . S
H1253 C1259 0.930 . S
C1254 H1240 0.930 . S
C1254 C1252 1.395 . S
C1254 C1257 1.403 . S
C1255 C1252 1.403 . S
C1255 C1256 1.524 . S
C1255 C1259 1.400 . S
C1256 H1241 0.960 . S
C1256 H1242 0.960 . S
C1256 H1243 0.960 . S
C1256 C1255 1.524 . S
C1257 C1254 1.403 . S
C1257 C1258 1.392 . S
C1257 C1261 1.495 . S
C1258 C1257 1.392 . S
C1258 C1259 1.385 . S
C1258 C1260 1.478 . S
C1259 H1253 0.930 . S
C1259 C1255 1.400 . S
C1259 C1258 1.385 . S
C1260 C1258 1.478 . S
C1260 C1262 1.381 . S
C1260 C1266 1.383 . S
C1261 C1257 1.495 . S
C1261 H1267 0.959 . S
C1261 H1268 0.961 . S
C1261 H1269 0.960 . S
C1262 C1260 1.381 . S
C1262 C1263 1.394 . S
C1262 H1270 0.930 . S
C1263 C1262 1.394 . S
C1263 C1264 1.383 . S
C1263 H1271 0.929 . S
C1264 C1263 1.383 . S
C1264 C1265 1.377 . S
C1265 H1249 0.930 . S
C1265 C1264 1.377 . S
C1265 C1266 1.379 . S
C1266 H1250 0.931 . S
C1266 C1260 1.383 . S
C1266 C1265 1.379 . S
H1267 C1261 0.959 . S
H1268 C1261 0.961 . S
H1269 C1261 0.960 . S
H1270 C1262 0.930 . S
H1271 C1263 0.929 . S
H1272 C1280 0.929 . S
H1273 C1282 0.941 . S
H1274 C1284 0.930 . S
H1275 C1287 0.929 . S
H1276 C1290 0.930 . S
H1277 C1292 0.960 . S
H1278 C1292 0.960 . S
H1279 C1292 0.960 . S
C1280 H1272 0.929 . S
C1280 C1281 1.377 . S
C1280 C1282 1.384 . S
C1281 C1280 1.377 . S
C1281 C1287 1.390 . S
C1282 H1273 0.941 . S
C1282 C1280 1.384 . S
C1282 C1283 1.372 1_545 S
C1283 C1282 1.372 1_565 S
C1283 C1284 1.400 1_565 S
C1283 C1288 1.490 . S
C1284 H1274 0.930 . S
C1284 C1283 1.400 1_545 S
C1284 C1287 1.386 . S
H1285 C1301 0.930 . S
H1286 C1302 0.931 . S
C1287 H1275 0.929 . S
C1287 C1281 1.390 . S
C1287 C1284 1.386 . S
C1288 C1283 1.490 . S
C1288 C1290 1.395 . S
C1288 C1291 1.403 . S
H1289 C1295 0.930 . S
C1290 H1276 0.930 . S
C1290 C1288 1.395 . S
C1290 C1293 1.403 . S
C1291 C1288 1.403 . S
C1291 C1292 1.524 . S
C1291 C1295 1.400 . S
C1292 H1277 0.960 . S
C1292 H1278 0.960 . S
C1292 H1279 0.960 . S
C1292 C1291 1.524 . S
C1293 C1290 1.403 . S
C1293 C1294 1.392 . S
C1293 C1297 1.495 . S
C1294 C1293 1.392 . S
C1294 C1295 1.385 . S
C1294 C1296 1.478 . S
C1295 H1289 0.930 . S
C1295 C1291 1.400 . S
C1295 C1294 1.385 . S
C1296 C1294 1.478 . S
C1296 C1298 1.381 . S
C1296 C1302 1.383 . S
C1297 C1293 1.495 . S
C1297 H1303 0.959 . S
C1297 H1304 0.961 . S
C1297 H1305 0.960 . S
C1298 C1296 1.381 . S
C1298 C1299 1.394 . S
C1298 H1306 0.930 . S
C1299 C1298 1.394 . S
C1299 C1300 1.383 . S
C1299 H1307 0.929 . S
C1300 C1299 1.383 . S
C1300 C1301 1.377 . S
C1301 H1285 0.930 . S
C1301 C1300 1.377 . S
C1301 C1302 1.379 . S
C1302 H1286 0.931 . S
C1302 C1296 1.383 . S
C1302 C1301 1.379 . S
H1303 C1297 0.959 . S
H1304 C1297 0.961 . S
H1305 C1297 0.960 . S
H1306 C1298 0.930 . S
H1307 C1299 0.929 . S
H1308 C1316 0.929 . S
H1309 C1318 0.930 . S
H1310 C1320 0.930 . S
H1311 C1323 0.929 . S
H1312 C1326 0.930 . S
H1313 C1328 0.960 . S
H1314 C1328 0.960 . S
H1315 C1328 0.960 . S
C1316 H1308 0.929 . S
C1316 C1317 1.377 . S
C1316 C1318 1.384 . S
C1317 C1316 1.377 . S
C1317 C1323 1.390 . S
C1318 H1309 0.930 . S
C1318 C1316 1.384 . S
C1318 C1319 1.372 . S
C1319 C1318 1.372 . S
C1319 C1320 1.400 . S
C1319 C1324 1.490 . S
C1320 H1310 0.930 . S
C1320 C1319 1.400 . S
C1320 C1323 1.386 . S
H1321 C1337 0.930 . S
H1322 C1338 0.931 . S
C1323 H1311 0.929 . S
C1323 C1317 1.390 . S
C1323 C1320 1.386 . S
C1324 C1319 1.490 . S
C1324 C1326 1.395 . S
C1324 C1327 1.403 . S
H1325 C1331 0.930 . S
C1326 H1312 0.930 . S
C1326 C1324 1.395 . S
C1326 C1329 1.403 . S
C1327 C1324 1.403 . S
C1327 C1328 1.524 . S
C1327 C1331 1.400 . S
C1328 H1313 0.960 . S
C1328 H1314 0.960 . S
C1328 H1315 0.960 . S
C1328 C1327 1.524 . S
C1329 C1326 1.403 . S
C1329 C1330 1.392 . S
C1329 C1333 1.495 . S
C1330 C1329 1.392 . S
C1330 C1331 1.385 . S
C1330 C1332 1.478 . S
C1331 H1325 0.930 . S
C1331 C1327 1.400 . S
C1331 C1330 1.385 . S
C1332 C1330 1.478 . S
C1332 C1334 1.381 1_545 S
C1332 C1338 1.383 1_545 S
C1333 C1329 1.495 . S
C1333 H1339 0.959 . S
C1333 H1340 0.961 . S
C1333 H1341 0.960 . S
C1334 C1332 1.381 1_565 S
C1334 C1335 1.394 . S
C1334 H1342 0.930 1_565 S
C1335 C1334 1.394 . S
C1335 C1336 1.383 . S
C1335 H1343 0.929 . S
C1336 C1335 1.383 . S
C1336 C1337 1.377 . S
C1337 H1321 0.930 . S
C1337 C1336 1.377 . S
C1337 C1338 1.379 . S
C1338 H1322 0.931 . S
C1338 C1332 1.383 1_565 S
C1338 C1337 1.379 . S
H1339 C1333 0.959 . S
H1340 C1333 0.961 . S
H1341 C1333 0.960 . S
H1342 C1334 0.930 1_545 S
H1343 C1335 0.929 . S
H1344 C1352 0.929 . S
H1345 C1354 0.930 . S
H1346 C1356 0.930 . S
H1347 C1359 0.929 . S
H1348 C1362 0.930 . S
H1349 C1364 0.960 . S
H1350 C1364 0.960 . S
H1351 C1364 0.960 . S
C1352 H1344 0.929 . S
C1352 C1353 1.377 . S
C1352 C1354 1.384 . S
C1353 C1352 1.377 . S
C1353 C1359 1.390 . S
C1354 H1345 0.930 . S
C1354 C1352 1.384 . S
C1354 C1355 1.372 . S
C1355 C1354 1.372 . S
C1355 C1356 1.400 . S
C1355 C1360 1.490 . S
C1356 H1346 0.930 . S
C1356 C1355 1.400 . S
C1356 C1359 1.386 . S
H1357 C1373 0.930 . S
H1358 C1374 0.931 . S
C1359 H1347 0.929 . S
C1359 C1353 1.390 . S
C1359 C1356 1.386 . S
C1360 C1355 1.490 . S
C1360 C1362 1.395 . S
C1360 C1363 1.403 . S
H1361 C1367 0.930 . S
C1362 H1348 0.930 . S
C1362 C1360 1.395 . S
C1362 C1365 1.403 . S
C1363 C1360 1.403 . S
C1363 C1364 1.524 . S
C1363 C1367 1.400 . S
C1364 H1349 0.960 . S
C1364 H1350 0.960 . S
C1364 H1351 0.960 . S
C1364 C1363 1.524 . S
C1365 C1362 1.403 . S
C1365 C1366 1.392 . S
C1365 C1369 1.495 . S
C1366 C1365 1.392 . S
C1366 C1367 1.385 . S
C1366 C1368 1.478 . S
C1367 H1361 0.930 . S
C1367 C1363 1.400 . S
C1367 C1366 1.385 . S
C1368 C1366 1.478 . S
C1368 C1370 1.381 . S
C1368 C1374 1.383 . S
C1369 C1365 1.495 . S
C1369 H1375 0.959 . S
C1369 H1376 0.961 . S
C1369 H1377 0.960 . S
C1370 C1368 1.381 . S
C1370 C1371 1.394 . S
C1370 H1378 0.930 . S
C1371 C1370 1.394 . S
C1371 C1372 1.383 . S
C1371 H1379 0.929 . S
C1372 C1371 1.383 . S
C1372 C1373 1.377 . S
C1373 H1357 0.930 . S
C1373 C1372 1.377 . S
C1373 C1374 1.379 . S
C1374 H1358 0.931 . S
C1374 C1368 1.383 . S
C1374 C1373 1.379 . S
H1375 C1369 0.959 . S
H1376 C1369 0.961 . S
H1377 C1369 0.960 . S
H1378 C1370 0.930 . S
H1379 C1371 0.929 . S
H1380 C1388 0.929 . S
H1381 C1390 0.930 . S
H1382 C1392 0.930 . S
H1383 C1395 0.929 . S
H1384 C1398 0.930 . S
H1385 C1400 0.960 . S
H1386 C1400 0.960 . S
H1387 C1400 0.960 . S
C1388 H1380 0.929 . S
C1388 C1389 1.377 . S
C1388 C1390 1.384 . S
C1389 C1388 1.377 . S
C1389 C1395 1.390 . S
C1390 H1381 0.930 . S
C1390 C1388 1.384 . S
C1390 C1391 1.372 . S
C1391 C1390 1.372 . S
C1391 C1392 1.400 . S
C1391 C1396 1.490 . S
C1392 H1382 0.930 . S
C1392 C1391 1.400 . S
C1392 C1395 1.386 . S
H1393 C1409 0.930 . S
H1394 C1410 0.931 1_554 S
C1395 H1383 0.929 . S
C1395 C1389 1.390 . S
C1395 C1392 1.386 . S
C1396 C1391 1.490 . S
C1396 C1398 1.395 . S
C1396 C1399 1.403 . S
H1397 C1403 0.930 . S
C1398 H1384 0.930 . S
C1398 C1396 1.395 . S
C1398 C1401 1.403 . S
C1399 C1396 1.403 . S
C1399 C1400 1.524 . S
C1399 C1403 1.400 . S
C1400 H1385 0.960 . S
C1400 H1386 0.960 . S
C1400 H1387 0.960 . S
C1400 C1399 1.524 . S
C1401 C1398 1.403 . S
C1401 C1402 1.392 . S
C1401 C1405 1.495 . S
C1402 C1401 1.392 . S
C1402 C1403 1.385 . S
C1402 C1404 1.493 . S
C1403 H1397 0.930 . S
C1403 C1399 1.400 . S
C1403 C1402 1.385 . S
C1404 C1402 1.493 . S
C1404 C1406 1.369 1_554 S
C1404 C1410 1.379 1_554 S
C1405 C1401 1.495 . S
C1405 H1411 0.959 . S
C1405 H1412 0.961 . S
C1405 H1413 0.960 . S
C1406 C1404 1.369 1_556 S
C1406 C1407 1.394 . S
C1406 H1414 0.930 . S
C1407 C1406 1.394 . S
C1407 C1408 1.383 . S
C1407 H1415 0.929 . S
C1408 C1407 1.383 . S
C1408 C1409 1.377 . S
C1409 H1393 0.930 . S
C1409 C1408 1.377 . S
C1409 C1410 1.379 . S
C1410 H1394 0.931 1_556 S
C1410 C1404 1.379 1_556 S
C1410 C1409 1.379 . S
H1411 C1405 0.959 . S
H1412 C1405 0.961 . S
H1413 C1405 0.960 . S
H1414 C1406 0.930 . S
H1415 C1407 0.929 . S
H1416 C1424 0.929 . S
H1417 C1426 0.930 . S
H1418 C1428 0.930 . S
H1419 C1431 0.929 . S
H1420 C1434 0.930 . S
H1421 C1436 0.960 . S
H1422 C1436 0.960 . S
H1423 C1436 0.960 . S
C1424 H1416 0.929 . S
C1424 C1425 1.377 . S
C1424 C1426 1.384 . S
C1425 C1424 1.377 . S
C1425 C1431 1.390 . S
C1426 H1417 0.930 . S
C1426 C1424 1.384 . S
C1426 C1427 1.372 . S
C1427 C1426 1.372 . S
C1427 C1428 1.400 . S
C1427 C1432 1.490 . S
C1428 H1418 0.930 . S
C1428 C1427 1.400 . S
C1428 C1431 1.386 . S
H1429 C1445 0.930 . S
H1430 C1446 0.931 . S
C1431 H1419 0.929 . S
C1431 C1425 1.390 . S
C1431 C1428 1.386 . S
C1432 C1427 1.490 . S
C1432 C1434 1.395 . S
C1432 C1435 1.403 . S
H1433 C1439 0.930 . S
C1434 H1420 0.930 . S
C1434 C1432 1.395 . S
C1434 C1437 1.403 . S
C1435 C1432 1.403 . S
C1435 C1436 1.524 . S
C1435 C1439 1.400 . S
C1436 H1421 0.960 . S
C1436 H1422 0.960 . S
C1436 H1423 0.960 . S
C1436 C1435 1.524 . S
C1437 C1434 1.403 . S
C1437 C1438 1.392 . S
C1437 C1441 1.495 . S
C1438 C1437 1.392 . S
C1438 C1439 1.385 . S
C1438 C1440 1.478 . S
C1439 H1433 0.930 . S
C1439 C1435 1.400 . S
C1439 C1438 1.385 . S
C1440 C1438 1.478 . S
C1440 C1442 1.381 . S
C1440 C1446 1.383 . S
C1441 C1437 1.495 . S
C1441 H1447 0.959 . S
C1441 H1448 0.961 . S
C1441 H1449 0.960 . S
C1442 C1440 1.381 . S
C1442 C1443 1.394 . S
C1442 H1450 0.930 . S
C1443 C1442 1.394 . S
C1443 C1444 1.383 . S
C1443 H1451 0.929 . S
C1444 C1443 1.383 . S
C1444 C1445 1.377 . S
C1445 H1429 0.930 . S
C1445 C1444 1.377 . S
C1445 C1446 1.379 . S
C1446 H1430 0.931 . S
C1446 C1440 1.383 . S
C1446 C1445 1.379 . S
H1447 C1441 0.959 . S
H1448 C1441 0.961 . S
H1449 C1441 0.960 . S
H1450 C1442 0.930 . S
H1451 C1443 0.929 . S
H1452 C1460 0.929 . S
H1453 C1462 0.930 . S
H1454 C1464 0.930 1_556 S
H1455 C1467 0.929 . S
H1456 C1470 0.930 . S
H1457 C1472 0.960 . S
H1458 C1472 0.960 . S
H1459 C1472 0.960 . S
C1460 H1452 0.929 . S
C1460 C1461 1.377 . S
C1460 C1462 1.384 . S
C1461 C1460 1.377 . S
C1461 C1467 1.390 . S
C1462 H1453 0.930 . S
C1462 C1460 1.384 . S
C1462 C1463 1.372 1_554 S
C1463 C1462 1.372 1_556 S
C1463 C1464 1.400 1_556 S
C1463 C1468 1.490 . S
C1464 H1454 0.930 1_554 S
C1464 C1463 1.400 1_554 S
C1464 C1467 1.386 . S
H1465 C1481 0.930 . S
H1466 C1482 0.931 . S
C1467 H1455 0.929 . S
C1467 C1461 1.390 . S
C1467 C1464 1.386 . S
C1468 C1463 1.490 . S
C1468 C1470 1.395 . S
C1468 C1471 1.403 . S
H1469 C1475 0.930 . S
C1470 H1456 0.930 . S
C1470 C1468 1.395 . S
C1470 C1473 1.403 . S
C1471 C1468 1.403 . S
C1471 C1472 1.524 . S
C1471 C1475 1.400 . S
C1472 H1457 0.960 . S
C1472 H1458 0.960 . S
C1472 H1459 0.960 . S
C1472 C1471 1.524 . S
C1473 C1470 1.403 . S
C1473 C1474 1.392 . S
C1473 C1477 1.495 . S
C1474 C1473 1.392 . S
C1474 C1475 1.385 . S
C1474 C1476 1.478 . S
C1475 H1469 0.930 . S
C1475 C1471 1.400 . S
C1475 C1474 1.385 . S
C1476 C1474 1.478 . S
C1476 C1478 1.381 . S
C1476 C1482 1.383 . S
C1477 C1473 1.495 . S
C1477 H1483 0.959 . S
C1477 H1484 0.961 . S
C1477 H1485 0.960 . S
C1478 C1476 1.381 . S
C1478 C1479 1.394 . S
C1478 H1486 0.930 . S
C1479 C1478 1.394 . S
C1479 C1480 1.383 . S
C1479 H1487 0.929 . S
C1480 C1479 1.383 . S
C1480 C1481 1.377 . S
C1481 H1465 0.930 . S
C1481 C1480 1.377 . S
C1481 C1482 1.379 . S
C1482 H1466 0.931 . S
C1482 C1476 1.383 . S
C1482 C1481 1.379 . S
H1483 C1477 0.959 . S
H1484 C1477 0.961 . S
H1485 C1477 0.960 . S
H1486 C1478 0.930 . S
H1487 C1479 0.929 . S
H1488 C1496 0.929 . S
H1489 C1498 0.930 . S
H1490 C1500 0.930 . S
H1491 C1503 0.929 . S
H1492 C1506 0.930 . S
H1493 C1508 0.960 . S
H1494 C1508 0.960 . S
H1495 C1508 0.960 . S
C1496 H1488 0.929 . S
C1496 C1497 1.377 . S
C1496 C1498 1.384 . S
C1497 C1496 1.377 . S
C1497 C1503 1.390 . S
C1498 H1489 0.930 . S
C1498 C1496 1.384 . S
C1498 C1499 1.372 . S
C1499 C1498 1.372 . S
C1499 C1500 1.400 . S
C1499 C1504 1.490 . S
C1500 H1490 0.930 . S
C1500 C1499 1.400 . S
C1500 C1503 1.386 . S
H1501 C1517 0.930 . S
H1502 C1518 0.931 . S
C1503 H1491 0.929 . S
C1503 C1497 1.390 . S
C1503 C1500 1.386 . S
C1504 C1499 1.490 . S
C1504 C1506 1.395 . S
C1504 C1507 1.403 . S
H1505 C1511 0.930 . S
C1506 H1492 0.930 . S
C1506 C1504 1.395 . S
C1506 C1509 1.403 . S
C1507 C1504 1.403 . S
C1507 C1508 1.524 . S
C1507 C1511 1.400 . S
C1508 H1493 0.960 . S
C1508 H1494 0.960 . S
C1508 H1495 0.960 . S
C1508 C1507 1.524 . S
C1509 C1506 1.403 . S
C1509 C1510 1.392 . S
C1509 C1513 1.495 . S
C1510 C1509 1.392 . S
C1510 C1511 1.385 . S
C1510 C1512 1.478 . S
C1511 H1505 0.930 . S
C1511 C1507 1.400 . S
C1511 C1510 1.385 . S
C1512 C1510 1.478 . S
C1512 C1514 1.381 . S
C1512 C1518 1.383 . S
C1513 C1509 1.495 . S
C1513 H1519 0.959 . S
C1513 H1520 0.961 . S
C1513 H1521 0.960 . S
C1514 C1512 1.381 . S
C1514 C1515 1.394 . S
C1514 H1522 0.930 . S
C1515 C1514 1.394 . S
C1515 C1516 1.383 . S
C1515 H1523 0.929 . S
C1516 C1515 1.383 . S
C1516 C1517 1.377 . S
C1517 H1501 0.930 . S
C1517 C1516 1.377 . S
C1517 C1518 1.379 . S
C1518 H1502 0.931 . S
C1518 C1512 1.383 . S
C1518 C1517 1.379 . S
H1519 C1513 0.959 . S
H1520 C1513 0.961 . S
H1521 C1513 0.960 . S
H1522 C1514 0.930 . S
H1523 C1515 0.929 . S
H1524 C1532 0.929 . S
H1525 C1534 0.930 1_455 S
H1526 C1536 0.930 . S
H1527 C1539 0.929 . S
H1528 C1542 0.930 . S
H1529 C1544 0.960 . S
H1530 C1544 0.960 . S
H1531 C1544 0.960 . S
C1532 H1524 0.929 . S
C1532 C1533 1.377 . S
C1532 C1534 1.384 . S
C1533 C1532 1.377 . S
C1533 C1539 1.390 . S
C1534 H1525 0.930 1_655 S
C1534 C1532 1.384 . S
C1534 C1535 1.372 1_655 S
C1535 C1534 1.372 1_455 S
C1535 C1536 1.400 1_455 S
C1535 C1540 1.490 . S
C1536 H1526 0.930 . S
C1536 C1535 1.400 1_655 S
C1536 C1539 1.386 . S
H1537 C1553 0.930 . S
H1538 C1554 0.931 . S
C1539 H1527 0.929 . S
C1539 C1533 1.390 . S
C1539 C1536 1.386 . S
C1540 C1535 1.490 . S
C1540 C1542 1.395 . S
C1540 C1543 1.403 . S
H1541 C1547 0.930 . S
C1542 H1528 0.930 . S
C1542 C1540 1.395 . S
C1542 C1545 1.403 . S
C1543 C1540 1.403 . S
C1543 C1544 1.524 . S
C1543 C1547 1.400 . S
C1544 H1529 0.960 . S
C1544 H1530 0.960 . S
C1544 H1531 0.960 . S
C1544 C1543 1.524 . S
C1545 C1542 1.403 . S
C1545 C1546 1.392 . S
C1545 C1549 1.495 . S
C1546 C1545 1.392 . S
C1546 C1547 1.385 . S
C1546 C1548 1.478 . S
C1547 H1541 0.930 . S
C1547 C1543 1.400 . S
C1547 C1546 1.385 . S
C1548 C1546 1.478 . S
C1548 C1550 1.381 . S
C1548 C1554 1.383 . S
C1549 C1545 1.495 . S
C1549 H1555 0.959 . S
C1549 H1556 0.961 . S
C1549 H1557 0.960 . S
C1550 C1548 1.381 . S
C1550 C1551 1.394 . S
C1550 H1558 0.930 . S
C1551 C1550 1.394 . S
C1551 C1552 1.383 . S
C1551 H1559 0.929 . S
C1552 C1551 1.383 . S
C1552 C1553 1.377 . S
C1553 H1537 0.930 . S
C1553 C1552 1.377 . S
C1553 C1554 1.379 . S
C1554 H1538 0.931 . S
C1554 C1548 1.383 . S
C1554 C1553 1.379 . S
H1555 C1549 0.959 . S
H1556 C1549 0.961 . S
H1557 C1549 0.960 . S
H1558 C1550 0.930 . S
H1559 C1551 0.929 . S
H1560 C1568 0.929 . S
H1561 C1570 0.930 . S
H1562 C1572 0.930 . S
H1563 C1575 0.929 . S
H1564 C1578 0.930 . S
H1565 C1580 0.960 . S
H1566 C1580 0.960 . S
H1567 C1580 0.960 . S
C1568 H1560 0.929 . S
C1568 C1569 1.377 . S
C1568 C1570 1.384 . S
C1569 C1568 1.377 . S
C1569 C1575 1.390 . S
C1570 H1561 0.930 . S
C1570 C1568 1.384 . S
C1570 C1571 1.372 . S
C1571 C1570 1.372 . S
C1571 C1572 1.400 . S
C1571 C1576 1.490 . S
C1572 H1562 0.930 . S
C1572 C1571 1.400 . S
C1572 C1575 1.386 . S
H1573 C1589 0.930 . S
H1574 C1590 0.931 . S
C1575 H1563 0.929 . S
C1575 C1569 1.390 . S
C1575 C1572 1.386 . S
C1576 C1571 1.490 . S
C1576 C1578 1.395 . S
C1576 C1579 1.403 . S
H1577 C1583 0.930 . S
C1578 H1564 0.930 . S
C1578 C1576 1.395 . S
C1578 C1581 1.403 . S
C1579 C1576 1.403 . S
C1579 C1580 1.524 . S
C1579 C1583 1.400 . S
C1580 H1565 0.960 . S
C1580 H1566 0.960 . S
C1580 H1567 0.960 . S
C1580 C1579 1.524 . S
C1581 C1578 1.403 . S
C1581 C1582 1.392 . S
C1581 C1585 1.495 . S
C1582 C1581 1.392 . S
C1582 C1583 1.385 . S
C1582 C1584 1.478 . S
C1583 H1577 0.930 . S
C1583 C1579 1.400 . S
C1583 C1582 1.385 . S
C1584 C1582 1.478 . S
C1584 C1586 1.381 . S
C1584 C1590 1.383 . S
C1585 C1581 1.495 . S
C1585 H1591 0.959 . S
C1585 H1592 0.961 . S
C1585 H1593 0.960 . S
C1586 C1584 1.381 . S
C1586 C1587 1.394 . S
C1586 H1594 0.930 . S
C1587 C1586 1.394 . S
C1587 C1588 1.383 . S
C1587 H1595 0.929 . S
C1588 C1587 1.383 . S
C1588 C1589 1.377 . S
C1589 H1573 0.930 . S
C1589 C1588 1.377 . S
C1589 C1590 1.379 . S
C1590 H1574 0.931 . S
C1590 C1584 1.383 . S
C1590 C1589 1.379 . S
H1591 C1585 0.959 . S
H1592 C1585 0.961 . S
H1593 C1585 0.960 . S
H1594 C1586 0.930 . S
H1595 C1587 0.929 . S
H1596 C1604 0.929 . S
H1597 C1606 0.930 . S
H1598 C1608 0.930 . S
H1599 C1611 0.929 . S
H1600 C1614 0.930 . S
H1601 C1616 0.960 . S
H1602 C1616 0.960 . S
H1603 C1616 0.960 . S
C1604 H1596 0.929 . S
C1604 C1605 1.377 . S
C1604 C1606 1.384 . S
C1605 C1604 1.377 . S
C1605 C1611 1.390 . S
C1606 H1597 0.930 . S
C1606 C1604 1.384 . S
C1606 C1607 1.372 . S
C1607 C1606 1.372 . S
C1607 C1608 1.400 . S
C1607 C1612 1.490 . S
C1608 H1598 0.930 . S
C1608 C1607 1.400 . S
C1608 C1611 1.386 . S
H1609 C1625 0.930 . S
H1610 C1626 0.931 . S
C1611 H1599 0.929 . S
C1611 C1605 1.390 . S
C1611 C1608 1.386 . S
C1612 C1607 1.490 . S
C1612 C1614 1.395 . S
C1612 C1615 1.403 . S
H1613 C1619 0.930 . S
C1614 H1600 0.930 . S
C1614 C1612 1.395 . S
C1614 C1617 1.403 . S
C1615 C1612 1.403 . S
C1615 C1616 1.524 . S
C1615 C1619 1.400 . S
C1616 H1601 0.960 . S
C1616 H1602 0.960 . S
C1616 H1603 0.960 . S
C1616 C1615 1.524 . S
C1617 C1614 1.403 . S
C1617 C1618 1.392 . S
C1617 C1621 1.495 . S
C1618 C1617 1.392 . S
C1618 C1619 1.385 . S
C1618 C1620 1.512 . S
C1619 H1613 0.930 . S
C1619 C1615 1.400 . S
C1619 C1618 1.385 . S
C1620 C1618 1.512 . S
C1620 C1622 1.368 1_655 S
C1620 C1626 1.362 1_655 S
C1621 C1617 1.495 . S
C1621 H1627 0.959 . S
C1621 H1628 0.961 . S
C1621 H1629 0.960 . S
C1622 C1620 1.368 1_455 S
C1622 C1623 1.394 . S
C1622 H1630 0.912 1_455 S
C1623 C1622 1.394 . S
C1623 C1624 1.383 . S
C1623 H1631 0.929 . S
C1624 C1623 1.383 . S
C1624 C1625 1.377 . S
C1625 H1609 0.930 . S
C1625 C1624 1.377 . S
C1625 C1626 1.379 . S
C1626 H1610 0.931 . S
C1626 C1620 1.362 1_455 S
C1626 C1625 1.379 . S
H1627 C1621 0.959 . S
H1628 C1621 0.961 . S
H1629 C1621 0.960 . S
H1630 C1622 0.912 1_655 S
H1631 C1623 0.929 . S
H1632 C1640 0.929 . S
H1633 C1642 0.930 . S
H1634 C1644 0.930 . S
H1635 C1647 0.929 . S
H1636 C1650 0.930 . S
H1637 C1652 0.960 . S
H1638 C1652 0.960 . S
H1639 C1652 0.960 . S
C1640 H1632 0.929 . S
C1640 C1641 1.377 . S
C1640 C1642 1.384 . S
C1641 C1640 1.377 . S
C1641 C1647 1.390 . S
C1642 H1633 0.930 . S
C1642 C1640 1.384 . S
C1642 C1643 1.372 . S
C1643 C1642 1.372 . S
C1643 C1644 1.400 . S
C1643 C1648 1.490 . S
C1644 H1634 0.930 . S
C1644 C1643 1.400 . S
C1644 C1647 1.386 . S
H1645 C1661 0.930 . S
H1646 C1662 0.931 . S
C1647 H1635 0.929 . S
C1647 C1641 1.390 . S
C1647 C1644 1.386 . S
C1648 C1643 1.490 . S
C1648 C1650 1.395 . S
C1648 C1651 1.403 . S
H1649 C1655 0.930 . S
C1650 H1636 0.930 . S
C1650 C1648 1.395 . S
C1650 C1653 1.403 . S
C1651 C1648 1.403 . S
C1651 C1652 1.524 . S
C1651 C1655 1.400 . S
C1652 H1637 0.960 . S
C1652 H1638 0.960 . S
C1652 H1639 0.960 . S
C1652 C1651 1.524 . S
C1653 C1650 1.403 . S
C1653 C1654 1.392 . S
C1653 C1657 1.495 . S
C1654 C1653 1.392 . S
C1654 C1655 1.385 . S
C1654 C1656 1.478 . S
C1655 H1649 0.930 . S
C1655 C1651 1.400 . S
C1655 C1654 1.385 . S
C1656 C1654 1.478 . S
C1656 C1658 1.381 . S
C1656 C1662 1.383 . S
C1657 C1653 1.495 . S
C1657 H1663 0.959 . S
C1657 H1664 0.961 . S
C1657 H1665 0.960 . S
C1658 C1656 1.381 . S
C1658 C1659 1.394 . S
C1658 H1666 0.930 . S
C1659 C1658 1.394 . S
C1659 C1660 1.383 . S
C1659 H1667 0.929 . S
C1660 C1659 1.383 . S
C1660 C1661 1.377 . S
C1661 H1645 0.930 . S
C1661 C1660 1.377 . S
C1661 C1662 1.379 . S
C1662 H1646 0.931 . S
C1662 C1656 1.383 . S
C1662 C1661 1.379 . S
H1663 C1657 0.959 . S
H1664 C1657 0.961 . S
H1665 C1657 0.960 . S
H1666 C1658 0.930 . S
H1667 C1659 0.929 . S
H1668 C1676 0.929 . S
H1669 C1678 0.930 . S
H1670 C1680 0.930 . S
H1671 C1683 0.929 . S
H1672 C1686 0.930 . S
H1673 C1688 0.960 . S
H1674 C1688 0.960 . S
H1675 C1688 0.960 . S
C1676 H1668 0.929 . S
C1676 C1677 1.377 . S
C1676 C1678 1.384 . S
C1677 C1676 1.377 . S
C1677 C1683 1.390 . S
C1678 H1669 0.930 . S
C1678 C1676 1.384 . S
C1678 C1679 1.372 . S
C1679 C1678 1.372 . S
C1679 C1680 1.400 . S
C1679 C1684 1.490 . S
C1680 H1670 0.930 . S
C1680 C1679 1.400 . S
C1680 C1683 1.386 . S
H1681 C1697 0.930 . S
H1682 C1698 0.931 . S
C1683 H1671 0.929 . S
C1683 C1677 1.390 . S
C1683 C1680 1.386 . S
C1684 C1679 1.490 . S
C1684 C1686 1.395 . S
C1684 C1687 1.403 . S
H1685 C1691 0.930 . S
C1686 H1672 0.930 . S
C1686 C1684 1.395 . S
C1686 C1689 1.403 . S
C1687 C1684 1.403 . S
C1687 C1688 1.524 . S
C1687 C1691 1.400 . S
C1688 H1673 0.960 . S
C1688 H1674 0.960 . S
C1688 H1675 0.960 . S
C1688 C1687 1.524 . S
C1689 C1686 1.403 . S
C1689 C1690 1.392 . S
C1689 C1693 1.495 . S
C1690 C1689 1.392 . S
C1690 C1691 1.385 . S
C1690 C1692 1.478 . S
C1691 H1685 0.930 . S
C1691 C1687 1.400 . S
C1691 C1690 1.385 . S
C1692 C1690 1.478 . S
C1692 C1694 1.381 . S
C1692 C1698 1.383 . S
C1693 C1689 1.495 . S
C1693 H1699 0.959 . S
C1693 H1700 0.961 . S
C1693 H1701 0.960 . S
C1694 C1692 1.381 . S
C1694 C1695 1.394 . S
C1694 H1702 0.930 . S
C1695 C1694 1.394 . S
C1695 C1696 1.383 . S
C1695 H1703 0.929 . S
C1696 C1695 1.383 . S
C1696 C1697 1.377 . S
C1697 H1681 0.930 . S
C1697 C1696 1.377 . S
C1697 C1698 1.379 . S
C1698 H1682 0.931 . S
C1698 C1692 1.383 . S
C1698 C1697 1.379 . S
H1699 C1693 0.959 . S
H1700 C1693 0.961 . S
H1701 C1693 0.960 . S
H1702 C1694 0.930 . S
H1703 C1695 0.929 . S
H1704 C1712 0.929 . S
H1705 C1714 0.930 . S
H1706 C1716 0.930 . S
H1707 C1719 0.929 . S
H1708 C1722 0.930 . S
H1709 C1724 0.960 . S
H1710 C1724 0.960 . S
H1711 C1724 0.960 . S
C1712 H1704 0.929 . S
C1712 C1713 1.377 . S
C1712 C1714 1.384 . S
C1713 C1712 1.377 . S
C1713 C1719 1.390 . S
C1714 H1705 0.930 . S
C1714 C1712 1.384 . S
C1714 C1715 1.372 . S
C1715 C1714 1.372 . S
C1715 C1716 1.400 . S
C1715 C1720 1.490 . S
C1716 H1706 0.930 . S
C1716 C1715 1.400 . S
C1716 C1719 1.386 . S
H1717 C1733 0.930 . S
H1718 C1734 0.931 . S
C1719 H1707 0.929 . S
C1719 C1713 1.390 . S
C1719 C1716 1.386 . S
C1720 C1715 1.490 . S
C1720 C1722 1.395 . S
C1720 C1723 1.403 . S
H1721 C1727 0.930 . S
C1722 H1708 0.930 . S
C1722 C1720 1.395 . S
C1722 C1725 1.403 . S
C1723 C1720 1.403 . S
C1723 C1724 1.524 . S
C1723 C1727 1.400 . S
C1724 H1709 0.960 . S
C1724 H1710 0.960 . S
C1724 H1711 0.960 . S
C1724 C1723 1.524 . S
C1725 C1722 1.403 . S
C1725 C1726 1.392 . S
C1725 C1729 1.495 . S
C1726 C1725 1.392 . S
C1726 C1727 1.385 . S
C1726 C1728 1.478 . S
C1727 H1721 0.930 . S
C1727 C1723 1.400 . S
C1727 C1726 1.385 . S
C1728 C1726 1.478 . S
C1728 C1730 1.381 . S
C1728 C1734 1.383 . S
C1729 C1725 1.495 . S
C1729 H1735 0.959 . S
C1729 H1736 0.961 . S
C1729 H1737 0.960 . S
C1730 C1728 1.381 . S
C1730 C1731 1.394 . S
C1730 H1738 0.930 . S
C1731 C1730 1.394 . S
C1731 C1732 1.383 . S
C1731 H1739 0.929 . S
C1732 C1731 1.383 . S
C1732 C1733 1.377 . S
C1733 H1717 0.930 . S
C1733 C1732 1.377 . S
C1733 C1734 1.379 . S
C1734 H1718 0.931 . S
C1734 C1728 1.383 . S
C1734 C1733 1.379 . S
H1735 C1729 0.959 . S
H1736 C1729 0.961 . S
H1737 C1729 0.960 . S
H1738 C1730 0.930 . S
H1739 C1731 0.929 . S
H1740 C1748 0.929 . S
H1741 C1750 0.930 . S
H1742 C1752 0.930 . S
H1743 C1755 0.929 . S
H1744 C1758 0.930 . S
H1745 C1760 0.960 . S
H1746 C1760 0.960 . S
H1747 C1760 0.960 . S
C1748 H1740 0.929 . S
C1748 C1749 1.377 . S
C1748 C1750 1.384 . S
C1749 C1748 1.377 . S
C1749 C1755 1.390 . S
C1750 H1741 0.930 . S
C1750 C1748 1.384 . S
C1750 C1751 1.372 . S
C1751 C1750 1.372 . S
C1751 C1752 1.400 . S
C1751 C1756 1.490 . S
C1752 H1742 0.930 . S
C1752 C1751 1.400 . S
C1752 C1755 1.386 . S
H1753 C1769 0.930 . S
H1754 C1770 0.931 . S
C1755 H1743 0.929 . S
C1755 C1749 1.390 . S
C1755 C1752 1.386 . S
C1756 C1751 1.490 . S
C1756 C1758 1.395 . S
C1756 C1759 1.403 . S
H1757 C1763 0.930 . S
C1758 H1744 0.930 . S
C1758 C1756 1.395 . S
C1758 C1761 1.403 . S
C1759 C1756 1.403 . S
C1759 C1760 1.524 . S
C1759 C1763 1.400 . S
C1760 H1745 0.960 . S
C1760 H1746 0.960 . S
C1760 H1747 0.960 . S
C1760 C1759 1.524 . S
C1761 C1758 1.403 . S
C1761 C1762 1.392 . S
C1761 C1765 1.495 . S
C1762 C1761 1.392 . S
C1762 C1763 1.385 . S
C1762 C1764 1.478 . S
C1763 H1757 0.930 . S
C1763 C1759 1.400 . S
C1763 C1762 1.385 . S
C1764 C1762 1.478 . S
C1764 C1766 1.381 . S
C1764 C1770 1.383 . S
C1765 C1761 1.495 . S
C1765 H1771 0.959 . S
C1765 H1772 0.961 . S
C1765 H1773 0.960 . S
C1766 C1764 1.381 . S
C1766 C1767 1.394 . S
C1766 H1774 0.930 . S
C1767 C1766 1.394 . S
C1767 C1768 1.383 . S
C1767 H1775 0.929 . S
C1768 C1767 1.383 . S
C1768 C1769 1.377 . S
C1769 H1753 0.930 . S
C1769 C1768 1.377 . S
C1769 C1770 1.379 . S
C1770 H1754 0.931 . S
C1770 C1764 1.383 . S
C1770 C1769 1.379 . S
H1771 C1765 0.959 . S
H1772 C1765 0.961 . S
H1773 C1765 0.960 . S
H1774 C1766 0.930 . S
H1775 C1767 0.929 . S
H1776 C1784 0.929 . S
H1777 C1786 0.930 . S
H1778 C1788 0.930 . S
H1779 C1791 0.929 . S
H1780 C1794 0.930 . S
H1781 C1796 0.960 . S
H1782 C1796 0.960 . S
H1783 C1796 0.960 . S
C1784 H1776 0.929 . S
C1784 C1785 1.377 . S
C1784 C1786 1.384 . S
C1785 C1784 1.377 . S
C1785 C1791 1.390 . S
C1786 H1777 0.930 . S
C1786 C1784 1.384 . S
C1786 C1787 1.372 . S
C1787 C1786 1.372 . S
C1787 C1788 1.400 . S
C1787 C1792 1.490 . S
C1788 H1778 0.930 . S
C1788 C1787 1.400 . S
C1788 C1791 1.386 . S
H1789 C1805 0.930 . S
H1790 C1806 0.931 . S
C1791 H1779 0.929 . S
C1791 C1785 1.390 . S
C1791 C1788 1.386 . S
C1792 C1787 1.490 . S
C1792 C1794 1.395 . S
C1792 C1795 1.403 . S
H1793 C1799 0.930 . S
C1794 H1780 0.930 . S
C1794 C1792 1.395 . S
C1794 C1797 1.403 . S
C1795 C1792 1.403 . S
C1795 C1796 1.524 . S
C1795 C1799 1.400 . S
C1796 H1781 0.960 . S
C1796 H1782 0.960 . S
C1796 H1783 0.960 . S
C1796 C1795 1.524 . S
C1797 C1794 1.403 . S
C1797 C1798 1.392 . S
C1797 C1801 1.495 . S
C1798 C1797 1.392 . S
C1798 C1799 1.385 . S
C1798 C1800 1.478 . S
C1799 H1793 0.930 . S
C1799 C1795 1.400 . S
C1799 C1798 1.385 . S
C1800 C1798 1.478 . S
C1800 C1802 1.381 . S
C1800 C1806 1.383 . S
C1801 C1797 1.495 . S
C1801 H1807 0.959 . S
C1801 H1808 0.961 . S
C1801 H1809 0.960 . S
C1802 C1800 1.381 . S
C1802 C1803 1.394 . S
C1802 H1810 0.930 . S
C1803 C1802 1.394 . S
C1803 C1804 1.383 . S
C1803 H1811 0.929 . S
C1804 C1803 1.383 . S
C1804 C1805 1.377 . S
C1805 H1789 0.930 . S
C1805 C1804 1.377 . S
C1805 C1806 1.379 . S
C1806 H1790 0.931 . S
C1806 C1800 1.383 . S
C1806 C1805 1.379 . S
H1807 C1801 0.959 . S
H1808 C1801 0.961 . S
H1809 C1801 0.960 . S
H1810 C1802 0.930 . S
H1811 C1803 0.929 . S
H1812 C1820 0.929 . S
H1813 C1822 0.930 . S
H1814 C1824 0.930 . S
H1815 C1827 0.929 . S
H1816 C1830 0.930 . S
H1817 C1832 0.960 . S
H1818 C1832 0.960 . S
H1819 C1832 0.960 . S
C1820 H1812 0.929 . S
C1820 C1821 1.377 . S
C1820 C1822 1.384 . S
C1821 C1820 1.377 . S
C1821 C1827 1.390 . S
C1822 H1813 0.930 . S
C1822 C1820 1.384 . S
C1822 C1823 1.372 . S
C1823 C1822 1.372 . S
C1823 C1824 1.400 . S
C1823 C1828 1.490 . S
C1824 H1814 0.930 . S
C1824 C1823 1.400 . S
C1824 C1827 1.386 . S
H1825 C1841 0.930 . S
H1826 C1842 0.931 . S
C1827 H1815 0.929 . S
C1827 C1821 1.390 . S
C1827 C1824 1.386 . S
C1828 C1823 1.490 . S
C1828 C1830 1.395 . S
C1828 C1831 1.403 . S
H1829 C1835 0.930 . S
C1830 H1816 0.930 . S
C1830 C1828 1.395 . S
C1830 C1833 1.403 . S
C1831 C1828 1.403 . S
C1831 C1832 1.524 . S
C1831 C1835 1.400 . S
C1832 H1817 0.960 . S
C1832 H1818 0.960 . S
C1832 H1819 0.960 . S
C1832 C1831 1.524 . S
C1833 C1830 1.403 . S
C1833 C1834 1.392 . S
C1833 C1837 1.495 . S
C1834 C1833 1.392 . S
C1834 C1835 1.385 . S
C1834 C1836 1.478 . S
C1835 H1829 0.930 . S
C1835 C1831 1.400 . S
C1835 C1834 1.385 . S
C1836 C1834 1.478 . S
C1836 C1838 1.381 . S
C1836 C1842 1.383 . S
C1837 C1833 1.495 . S
C1837 H1843 0.959 . S
C1837 H1844 0.961 . S
C1837 H1845 0.960 . S
C1838 C1836 1.381 . S
C1838 C1839 1.394 . S
C1838 H1846 0.930 . S
C1839 C1838 1.394 . S
C1839 C1840 1.383 . S
C1839 H1847 0.929 . S
C1840 C1839 1.383 . S
C1840 C1841 1.377 . S
C1841 H1825 0.930 . S
C1841 C1840 1.377 . S
C1841 C1842 1.379 . S
C1842 H1826 0.931 . S
C1842 C1836 1.383 . S
C1842 C1841 1.379 . S
H1843 C1837 0.959 . S
H1844 C1837 0.961 . S
H1845 C1837 0.960 . S
H1846 C1838 0.930 . S
H1847 C1839 0.929 . S
H1848 C1856 0.929 . S
H1849 C1858 0.930 . S
H1850 C1860 0.930 . S
H1851 C1863 0.929 . S
H1852 C1866 0.930 . S
H1853 C1868 0.960 . S
H1854 C1868 0.960 . S
H1855 C1868 0.960 . S
C1856 H1848 0.929 . S
C1856 C1857 1.377 . S
C1856 C1858 1.384 . S
C1857 C1856 1.377 . S
C1857 C1863 1.390 . S
C1858 H1849 0.930 . S
C1858 C1856 1.384 . S
C1858 C1859 1.372 . S
C1859 C1858 1.372 . S
C1859 C1860 1.400 . S
C1859 C1864 1.490 . S
C1860 H1850 0.930 . S
C1860 C1859 1.400 . S
C1860 C1863 1.386 . S
H1861 C1877 0.930 . S
H1862 C1878 0.931 . S
C1863 H1851 0.929 . S
C1863 C1857 1.390 . S
C1863 C1860 1.386 . S
C1864 C1859 1.490 . S
C1864 C1866 1.395 . S
C1864 C1867 1.403 . S
H1865 C1871 0.930 . S
C1866 H1852 0.930 . S
C1866 C1864 1.395 . S
C1866 C1869 1.403 . S
C1867 C1864 1.403 . S
C1867 C1868 1.524 . S
C1867 C1871 1.400 . S
C1868 H1853 0.960 . S
C1868 H1854 0.960 . S
C1868 H1855 0.960 . S
C1868 C1867 1.524 . S
C1869 C1866 1.403 . S
C1869 C1870 1.392 . S
C1869 C1873 1.495 . S
C1870 C1869 1.392 . S
C1870 C1871 1.385 . S
C1870 C1872 1.478 . S
C1871 H1865 0.930 . S
C1871 C1867 1.400 . S
C1871 C1870 1.385 . S
C1872 C1870 1.478 . S
C1872 C1874 1.381 . S
C1872 C1878 1.383 . S
C1873 C1869 1.495 . S
C1873 H1879 0.959 . S
C1873 H1880 0.961 . S
C1873 H1881 0.960 . S
C1874 C1872 1.381 . S
C1874 C1875 1.394 . S
C1874 H1882 0.930 . S
C1875 C1874 1.394 . S
C1875 C1876 1.383 . S
C1875 H1883 0.929 . S
C1876 C1875 1.383 . S
C1876 C1877 1.377 . S
C1877 H1861 0.930 . S
C1877 C1876 1.377 . S
C1877 C1878 1.379 . S
C1878 H1862 0.931 . S
C1878 C1872 1.383 . S
C1878 C1877 1.379 . S
H1879 C1873 0.959 . S
H1880 C1873 0.961 . S
H1881 C1873 0.960 . S
H1882 C1874 0.930 . S
H1883 C1875 0.929 . S
H1884 C1892 0.929 . S
H1885 C1894 0.930 . S
H1886 C1896 0.930 . S
H1887 C1899 0.929 . S
H1888 C1902 0.930 . S
H1889 C1904 0.960 . S
H1890 C1904 0.960 . S
H1891 C1904 0.960 . S
C1892 H1884 0.929 . S
C1892 C1893 1.377 . S
C1892 C1894 1.384 . S
C1893 C1892 1.377 . S
C1893 C1899 1.390 . S
C1894 H1885 0.930 . S
C1894 C1892 1.384 . S
C1894 C1895 1.372 . S
C1895 C1894 1.372 . S
C1895 C1896 1.400 . S
C1895 C1900 1.490 . S
C1896 H1886 0.930 . S
C1896 C1895 1.400 . S
C1896 C1899 1.386 . S
H1897 C1913 0.930 . S
H1898 C1914 0.931 . S
C1899 H1887 0.929 . S
C1899 C1893 1.390 . S
C1899 C1896 1.386 . S
C1900 C1895 1.490 . S
C1900 C1902 1.395 . S
C1900 C1903 1.403 . S
H1901 C1907 0.930 . S
C1902 H1888 0.930 . S
C1902 C1900 1.395 . S
C1902 C1905 1.403 . S
C1903 C1900 1.403 . S
C1903 C1904 1.524 . S
C1903 C1907 1.400 . S
C1904 H1889 0.960 . S
C1904 H1890 0.960 . S
C1904 H1891 0.960 . S
C1904 C1903 1.524 . S
C1905 C1902 1.403 . S
C1905 C1906 1.392 . S
C1905 C1909 1.495 . S
C1906 C1905 1.392 . S
C1906 C1907 1.385 . S
C1906 C1908 1.478 . S
C1907 H1901 0.930 . S
C1907 C1903 1.400 . S
C1907 C1906 1.385 . S
C1908 C1906 1.478 . S
C1908 C1910 1.381 . S
C1908 C1914 1.383 . S
C1909 C1905 1.495 . S
C1909 H1915 0.959 . S
C1909 H1916 0.961 . S
C1909 H1917 0.960 . S
C1910 C1908 1.381 . S
C1910 C1911 1.394 . S
C1910 H1918 0.930 . S
C1911 C1910 1.394 . S
C1911 C1912 1.383 . S
C1911 H1919 0.929 . S
C1912 C1911 1.383 . S
C1912 C1913 1.377 . S
C1913 H1897 0.930 . S
C1913 C1912 1.377 . S
C1913 C1914 1.379 . S
C1914 H1898 0.931 . S
C1914 C1908 1.383 . S
C1914 C1913 1.379 . S
H1915 C1909 0.959 . S
H1916 C1909 0.961 . S
H1917 C1909 0.960 . S
H1918 C1910 0.930 . S
H1919 C1911 0.929 . S
H1920 C1928 0.929 . S
H1921 C1930 0.930 . S
H1922 C1932 0.930 . S
H1923 C1935 0.929 . S
H1924 C1938 0.930 . S
H1925 C1940 0.960 . S
H1926 C1940 0.960 . S
H1927 C1940 0.960 . S
C1928 H1920 0.929 . S
C1928 C1929 1.377 . S
C1928 C1930 1.384 . S
C1929 C1928 1.377 . S
C1929 C1935 1.390 . S
C1930 H1921 0.930 . S
C1930 C1928 1.384 . S
C1930 C1931 1.372 . S
C1931 C1930 1.372 . S
C1931 C1932 1.400 . S
C1931 C1936 1.490 . S
C1932 H1922 0.930 . S
C1932 C1931 1.400 . S
C1932 C1935 1.386 . S
H1933 C1949 0.930 . S
H1934 C1950 0.931 . S
C1935 H1923 0.929 . S
C1935 C1929 1.390 . S
C1935 C1932 1.386 . S
C1936 C1931 1.490 . S
C1936 C1938 1.395 . S
C1936 C1939 1.403 . S
H1937 C1943 0.930 . S
C1938 H1924 0.930 . S
C1938 C1936 1.395 . S
C1938 C1941 1.403 . S
C1939 C1936 1.403 . S
C1939 C1940 1.524 . S
C1939 C1943 1.400 . S
C1940 H1925 0.960 . S
C1940 H1926 0.960 . S
C1940 H1927 0.960 . S
C1940 C1939 1.524 . S
C1941 C1938 1.403 . S
C1941 C1942 1.392 . S
C1941 C1945 1.495 . S
C1942 C1941 1.392 . S
C1942 C1943 1.385 . S
C1942 C1944 1.478 . S
C1943 H1937 0.930 . S
C1943 C1939 1.400 . S
C1943 C1942 1.385 . S
C1944 C1942 1.478 . S
C1944 C1946 1.381 . S
C1944 C1950 1.383 . S
C1945 C1941 1.495 . S
C1945 H1951 0.959 . S
C1945 H1952 0.961 . S
C1945 H1953 0.960 . S
C1946 C1944 1.381 . S
C1946 C1947 1.394 . S
C1946 H1954 0.930 . S
C1947 C1946 1.394 . S
C1947 C1948 1.383 . S
C1947 H1955 0.929 . S
C1948 C1947 1.383 . S
C1948 C1949 1.377 . S
C1949 H1933 0.930 . S
C1949 C1948 1.377 . S
C1949 C1950 1.379 . S
C1950 H1934 0.931 . S
C1950 C1944 1.383 . S
C1950 C1949 1.379 . S
H1951 C1945 0.959 . S
H1952 C1945 0.961 . S
H1953 C1945 0.960 . S
H1954 C1946 0.930 . S
H1955 C1947 0.929 . S
H1956 C1964 0.929 . S
H1957 C1966 0.930 . S
H1958 C1968 0.930 . S
H1959 C1971 0.929 . S
H1960 C1974 0.930 . S
H1961 C1976 0.960 . S
H1962 C1976 0.960 . S
H1963 C1976 0.960 . S
C1964 H1956 0.929 . S
C1964 C1965 1.377 . S
C1964 C1966 1.384 . S
C1965 C1964 1.377 . S
C1965 C1971 1.390 . S
C1966 H1957 0.930 . S
C1966 C1964 1.384 . S
C1966 C1967 1.372 . S
C1967 C1966 1.372 . S
C1967 C1968 1.400 . S
C1967 C1972 1.490 . S
C1968 H1958 0.930 . S
C1968 C1967 1.400 . S
C1968 C1971 1.386 . S
H1969 C1985 0.930 . S
H1970 C1986 0.931 . S
C1971 H1959 0.929 . S
C1971 C1965 1.390 . S
C1971 C1968 1.386 . S
C1972 C1967 1.490 . S
C1972 C1974 1.395 . S
C1972 C1975 1.403 . S
H1973 C1979 0.930 . S
C1974 H1960 0.930 . S
C1974 C1972 1.395 . S
C1974 C1977 1.403 . S
C1975 C1972 1.403 . S
C1975 C1976 1.524 . S
C1975 C1979 1.400 . S
C1976 H1961 0.960 . S
C1976 H1962 0.960 . S
C1976 H1963 0.960 . S
C1976 C1975 1.524 . S
C1977 C1974 1.403 . S
C1977 C1978 1.392 . S
C1977 C1981 1.495 . S
C1978 C1977 1.392 . S
C1978 C1979 1.385 . S
C1978 C1980 1.478 . S
C1979 H1973 0.930 . S
C1979 C1975 1.400 . S
C1979 C1978 1.385 . S
C1980 C1978 1.478 . S
C1980 C1982 1.381 . S
C1980 C1986 1.383 . S
C1981 C1977 1.495 . S
C1981 H1987 0.959 . S
C1981 H1988 0.961 . S
C1981 H1989 0.960 . S
C1982 C1980 1.381 . S
C1982 C1983 1.394 . S
C1982 H1990 0.930 . S
C1983 C1982 1.394 . S
C1983 C1984 1.383 . S
C1983 H1991 0.929 . S
C1984 C1983 1.383 . S
C1984 C1985 1.377 . S
C1985 H1969 0.930 . S
C1985 C1984 1.377 . S
C1985 C1986 1.379 . S
C1986 H1970 0.931 . S
C1986 C1980 1.383 . S
C1986 C1985 1.379 . S
H1987 C1981 0.959 . S
H1988 C1981 0.961 . S
H1989 C1981 0.960 . S
H1990 C1982 0.930 . S
H1991 C1983 0.929 . S
H1992 C2000 0.929 . S
H1993 C2002 0.930 . S
H1994 C2004 0.930 . S
H1995 C2007 0.929 . S
H1996 C2010 0.930 . S
H1997 C2012 0.960 . S
H1998 C2012 0.960 . S
H1999 C2012 0.960 . S
C2000 H1992 0.929 . S
C2000 C2001 1.377 . S
C2000 C2002 1.384 . S
C2001 C2000 1.377 . S
C2001 C2007 1.390 . S
C2002 H1993 0.930 . S
C2002 C2000 1.384 . S
C2002 C2003 1.372 . S
C2003 C2002 1.372 . S
C2003 C2004 1.400 . S
C2003 C2008 1.490 . S
C2004 H1994 0.930 . S
C2004 C2003 1.400 . S
C2004 C2007 1.386 . S
H2005 C2021 0.930 . S
H2006 C2022 0.931 . S
C2007 H1995 0.929 . S
C2007 C2001 1.390 . S
C2007 C2004 1.386 . S
C2008 C2003 1.490 . S
C2008 C2010 1.395 . S
C2008 C2011 1.403 . S
H2009 C2015 0.930 . S
C2010 H1996 0.930 . S
C2010 C2008 1.395 . S
C2010 C2013 1.403 . S
C2011 C2008 1.403 . S
C2011 C2012 1.524 . S
C2011 C2015 1.400 . S
C2012 H1997 0.960 . S
C2012 H1998 0.960 . S
C2012 H1999 0.960 . S
C2012 C2011 1.524 . S
C2013 C2010 1.403 . S
C2013 C2014 1.392 . S
C2013 C2017 1.495 . S
C2014 C2013 1.392 . S
C2014 C2015 1.385 . S
C2014 C2016 1.478 . S
C2015 H2009 0.930 . S
C2015 C2011 1.400 . S
C2015 C2014 1.385 . S
C2016 C2014 1.478 . S
C2016 C2018 1.381 . S
C2016 C2022 1.383 . S
C2017 C2013 1.495 . S
C2017 H2023 0.959 . S
C2017 H2024 0.961 . S
C2017 H2025 0.960 . S
C2018 C2016 1.381 . S
C2018 C2019 1.394 . S
C2018 H2026 0.930 . S
C2019 C2018 1.394 . S
C2019 C2020 1.383 . S
C2019 H2027 0.929 . S
C2020 C2019 1.383 . S
C2020 C2021 1.377 . S
C2021 H2005 0.930 . S
C2021 C2020 1.377 . S
C2021 C2022 1.379 . S
C2022 H2006 0.931 . S
C2022 C2016 1.383 . S
C2022 C2021 1.379 . S
H2023 C2017 0.959 . S
H2024 C2017 0.961 . S
H2025 C2017 0.960 . S
H2026 C2018 0.930 . S
H2027 C2019 0.929 . S
H2028 C2036 0.929 . S
H2029 C2038 0.930 . S
H2030 C2040 0.930 . S
H2031 C2043 0.929 . S
H2032 C2046 0.930 . S
H2033 C2048 0.960 . S
H2034 C2048 0.960 . S
H2035 C2048 0.960 . S
C2036 H2028 0.929 . S
C2036 C2037 1.377 . S
C2036 C2038 1.384 . S
C2037 C2036 1.377 . S
C2037 C2043 1.390 . S
C2038 H2029 0.930 . S
C2038 C2036 1.384 . S
C2038 C2039 1.372 . S
C2039 C2038 1.372 . S
C2039 C2040 1.400 . S
C2039 C2044 1.490 . S
C2040 H2030 0.930 . S
C2040 C2039 1.400 . S
C2040 C2043 1.386 . S
H2041 C2057 0.930 . S
H2042 C2058 0.931 . S
C2043 H2031 0.929 . S
C2043 C2037 1.390 . S
C2043 C2040 1.386 . S
C2044 C2039 1.490 . S
C2044 C2046 1.395 . S
C2044 C2047 1.403 . S
H2045 C2051 0.930 . S
C2046 H2032 0.930 . S
C2046 C2044 1.395 . S
C2046 C2049 1.403 . S
C2047 C2044 1.403 . S
C2047 C2048 1.524 . S
C2047 C2051 1.400 . S
C2048 H2033 0.960 . S
C2048 H2034 0.960 . S
C2048 H2035 0.960 . S
C2048 C2047 1.524 . S
C2049 C2046 1.403 . S
C2049 C2050 1.392 . S
C2049 C2053 1.495 . S
C2050 C2049 1.392 . S
C2050 C2051 1.385 . S
C2050 C2052 1.478 . S
C2051 H2045 0.930 . S
C2051 C2047 1.400 . S
C2051 C2050 1.385 . S
C2052 C2050 1.478 . S
C2052 C2054 1.381 . S
C2052 C2058 1.383 . S
C2053 C2049 1.495 . S
C2053 H2059 0.959 . S
C2053 H2060 0.961 . S
C2053 H2061 0.960 . S
C2054 C2052 1.381 . S
C2054 C2055 1.394 . S
C2054 H2062 0.930 . S
C2055 C2054 1.394 . S
C2055 C2056 1.383 . S
C2055 H2063 0.929 . S
C2056 C2055 1.383 . S
C2056 C2057 1.377 . S
C2057 H2041 0.930 . S
C2057 C2056 1.377 . S
C2057 C2058 1.379 . S
C2058 H2042 0.931 . S
C2058 C2052 1.383 . S
C2058 C2057 1.379 . S
H2059 C2053 0.959 . S
H2060 C2053 0.961 . S
H2061 C2053 0.960 . S
H2062 C2054 0.930 . S
H2063 C2055 0.929 . S
H2064 C2072 0.929 . S
H2065 C2074 0.930 . S
H2066 C2076 0.930 . S
H2067 C2079 0.929 . S
H2068 C2082 0.930 . S
H2069 C2084 0.960 . S
H2070 C2084 0.960 . S
H2071 C2084 0.960 . S
C2072 H2064 0.929 . S
C2072 C2073 1.377 . S
C2072 C2074 1.384 . S
C2073 C2072 1.377 . S
C2073 C2079 1.390 . S
C2074 H2065 0.930 . S
C2074 C2072 1.384 . S
C2074 C2075 1.372 . S
C2075 C2074 1.372 . S
C2075 C2076 1.400 . S
C2075 C2080 1.490 . S
C2076 H2066 0.930 . S
C2076 C2075 1.400 . S
C2076 C2079 1.386 . S
H2077 C2093 0.930 . S
H2078 C2094 0.931 . S
C2079 H2067 0.929 . S
C2079 C2073 1.390 . S
C2079 C2076 1.386 . S
C2080 C2075 1.490 . S
C2080 C2082 1.395 . S
C2080 C2083 1.403 . S
H2081 C2087 0.930 . S
C2082 H2068 0.930 . S
C2082 C2080 1.395 . S
C2082 C2085 1.403 . S
C2083 C2080 1.403 . S
C2083 C2084 1.524 . S
C2083 C2087 1.400 . S
C2084 H2069 0.960 . S
C2084 H2070 0.960 . S
C2084 H2071 0.960 . S
C2084 C2083 1.524 . S
C2085 C2082 1.403 . S
C2085 C2086 1.392 . S
C2085 C2089 1.495 . S
C2086 C2085 1.392 . S
C2086 C2087 1.385 . S
C2086 C2088 1.478 . S
C2087 H2081 0.930 . S
C2087 C2083 1.400 . S
C2087 C2086 1.385 . S
C2088 C2086 1.478 . S
C2088 C2090 1.381 . S
C2088 C2094 1.383 . S
C2089 C2085 1.495 . S
C2089 H2095 0.959 . S
C2089 H2096 0.961 . S
C2089 H2097 0.960 . S
C2090 C2088 1.381 . S
C2090 C2091 1.394 . S
C2090 H2098 0.930 . S
C2091 C2090 1.394 . S
C2091 C2092 1.383 . S
C2091 H2099 0.929 . S
C2092 C2091 1.383 . S
C2092 C2093 1.377 . S
C2093 H2077 0.930 . S
C2093 C2092 1.377 . S
C2093 C2094 1.379 . S
C2094 H2078 0.931 . S
C2094 C2088 1.383 . S
C2094 C2093 1.379 . S
H2095 C2089 0.959 . S
H2096 C2089 0.961 . S
H2097 C2089 0.960 . S
H2098 C2090 0.930 . S
H2099 C2091 0.929 . S
H2100 C2108 0.929 . S
H2101 C2110 0.930 . S
H2102 C2112 0.930 . S
H2103 C2115 0.929 . S
H2104 C2118 0.930 . S
H2105 C2120 0.960 . S
H2106 C2120 0.960 . S
H2107 C2120 0.960 . S
C2108 H2100 0.929 . S
C2108 C2109 1.377 . S
C2108 C2110 1.384 . S
C2109 C2108 1.377 . S
C2109 C2115 1.390 . S
C2110 H2101 0.930 . S
C2110 C2108 1.384 . S
C2110 C2111 1.372 . S
C2111 C2110 1.372 . S
C2111 C2112 1.400 . S
C2111 C2116 1.490 . S
C2112 H2102 0.930 . S
C2112 C2111 1.400 . S
C2112 C2115 1.386 . S
H2113 C2129 0.930 . S
H2114 C2130 0.931 . S
C2115 H2103 0.929 . S
C2115 C2109 1.390 . S
C2115 C2112 1.386 . S
C2116 C2111 1.490 . S
C2116 C2118 1.395 . S
C2116 C2119 1.403 . S
H2117 C2123 0.930 . S
C2118 H2104 0.930 . S
C2118 C2116 1.395 . S
C2118 C2121 1.403 . S
C2119 C2116 1.403 . S
C2119 C2120 1.524 . S
C2119 C2123 1.400 . S
C2120 H2105 0.960 . S
C2120 H2106 0.960 . S
C2120 H2107 0.960 . S
C2120 C2119 1.524 . S
C2121 C2118 1.403 . S
C2121 C2122 1.392 . S
C2121 C2125 1.495 . S
C2122 C2121 1.392 . S
C2122 C2123 1.385 . S
C2122 C2124 1.478 . S
C2123 H2117 0.930 . S
C2123 C2119 1.400 . S
C2123 C2122 1.385 . S
C2124 C2122 1.478 . S
C2124 C2126 1.381 . S
C2124 C2130 1.383 . S
C2125 C2121 1.495 . S
C2125 H2131 0.959 . S
C2125 H2132 0.961 . S
C2125 H2133 0.960 . S
C2126 C2124 1.381 . S
C2126 C2127 1.394 . S
C2126 H2134 0.930 . S
C2127 C2126 1.394 . S
C2127 C2128 1.383 . S
C2127 H2135 0.929 . S
C2128 C2127 1.383 . S
C2128 C2129 1.377 . S
C2129 H2113 0.930 . S
C2129 C2128 1.377 . S
C2129 C2130 1.379 . S
C2130 H2114 0.931 . S
C2130 C2124 1.383 . S
C2130 C2129 1.379 . S
H2131 C2125 0.959 . S
H2132 C2125 0.961 . S
H2133 C2125 0.960 . S
H2134 C2126 0.930 . S
H2135 C2127 0.929 . S
H2136 C2144 0.929 . S
H2137 C2146 0.930 . S
H2138 C2148 0.930 . S
H2139 C2151 0.929 . S
H2140 C2154 0.930 . S
H2141 C2156 0.960 . S
H2142 C2156 0.960 . S
H2143 C2156 0.960 . S
C2144 H2136 0.929 . S
C2144 C2145 1.377 . S
C2144 C2146 1.384 . S
C2145 C2144 1.377 . S
C2145 C2151 1.390 . S
C2146 H2137 0.930 . S
C2146 C2144 1.384 . S
C2146 C2147 1.372 . S
C2147 C2146 1.372 . S
C2147 C2148 1.400 . S
C2147 C2152 1.490 . S
C2148 H2138 0.930 . S
C2148 C2147 1.400 . S
C2148 C2151 1.386 . S
H2149 C2165 0.930 . S
H2150 C2166 0.931 . S
C2151 H2139 0.929 . S
C2151 C2145 1.390 . S
C2151 C2148 1.386 . S
C2152 C2147 1.490 . S
C2152 C2154 1.395 . S
C2152 C2155 1.403 . S
H2153 C2159 0.930 . S
C2154 H2140 0.930 . S
C2154 C2152 1.395 . S
C2154 C2157 1.403 . S
C2155 C2152 1.403 . S
C2155 C2156 1.524 . S
C2155 C2159 1.400 . S
C2156 H2141 0.960 . S
C2156 H2142 0.960 . S
C2156 H2143 0.960 . S
C2156 C2155 1.524 . S
C2157 C2154 1.403 . S
C2157 C2158 1.392 . S
C2157 C2161 1.495 . S
C2158 C2157 1.392 . S
C2158 C2159 1.385 . S
C2158 C2160 1.478 . S
C2159 H2153 0.930 . S
C2159 C2155 1.400 . S
C2159 C2158 1.385 . S
C2160 C2158 1.478 . S
C2160 C2162 1.381 . S
C2160 C2166 1.383 . S
C2161 C2157 1.495 . S
C2161 H2167 0.959 . S
C2161 H2168 0.961 . S
C2161 H2169 0.960 . S
C2162 C2160 1.381 . S
C2162 C2163 1.394 . S
C2162 H2170 0.930 . S
C2163 C2162 1.394 . S
C2163 C2164 1.383 . S
C2163 H2171 0.929 . S
C2164 C2163 1.383 . S
C2164 C2165 1.377 . S
C2165 H2149 0.930 . S
C2165 C2164 1.377 . S
C2165 C2166 1.379 . S
C2166 H2150 0.931 . S
C2166 C2160 1.383 . S
C2166 C2165 1.379 . S
H2167 C2161 0.959 . S
H2168 C2161 0.961 . S
H2169 C2161 0.960 . S
H2170 C2162 0.930 . S
H2171 C2163 0.929 . S
H2172 C2180 0.929 . S
H2173 C2182 0.930 . S
H2174 C2184 0.930 . S
H2175 C2187 0.929 . S
H2176 C2190 0.930 . S
H2177 C2192 0.960 . S
H2178 C2192 0.960 . S
H2179 C2192 0.960 . S
C2180 H2172 0.929 . S
C2180 C2181 1.377 . S
C2180 C2182 1.384 . S
C2181 C2180 1.377 . S
C2181 C2187 1.390 . S
C2182 H2173 0.930 . S
C2182 C2180 1.384 . S
C2182 C2183 1.372 . S
C2183 C2182 1.372 . S
C2183 C2184 1.400 . S
C2183 C2188 1.490 . S
C2184 H2174 0.930 . S
C2184 C2183 1.400 . S
C2184 C2187 1.386 . S
H2185 C2201 0.930 . S
H2186 C2202 0.931 . S
C2187 H2175 0.929 . S
C2187 C2181 1.390 . S
C2187 C2184 1.386 . S
C2188 C2183 1.490 . S
C2188 C2190 1.395 . S
C2188 C2191 1.403 . S
H2189 C2195 0.930 . S
C2190 H2176 0.930 . S
C2190 C2188 1.395 . S
C2190 C2193 1.403 . S
C2191 C2188 1.403 . S
C2191 C2192 1.524 . S
C2191 C2195 1.400 . S
C2192 H2177 0.960 . S
C2192 H2178 0.960 . S
C2192 H2179 0.960 . S
C2192 C2191 1.524 . S
C2193 C2190 1.403 . S
C2193 C2194 1.392 . S
C2193 C2197 1.495 . S
C2194 C2193 1.392 . S
C2194 C2195 1.385 . S
C2194 C2196 1.478 . S
C2195 H2189 0.930 . S
C2195 C2191 1.400 . S
C2195 C2194 1.385 . S
C2196 C2194 1.478 . S
C2196 C2198 1.381 . S
C2196 C2202 1.383 . S
C2197 C2193 1.495 . S
C2197 H2203 0.959 . S
C2197 H2204 0.961 . S
C2197 H2205 0.960 . S
C2198 C2196 1.381 . S
C2198 C2199 1.394 . S
C2198 H2206 0.930 . S
C2199 C2198 1.394 . S
C2199 C2200 1.383 . S
C2199 H2207 0.929 . S
C2200 C2199 1.383 . S
C2200 C2201 1.377 . S
C2201 H2185 0.930 . S
C2201 C2200 1.377 . S
C2201 C2202 1.379 . S
C2202 H2186 0.931 . S
C2202 C2196 1.383 . S
C2202 C2201 1.379 . S
H2203 C2197 0.959 . S
H2204 C2197 0.961 . S
H2205 C2197 0.960 . S
H2206 C2198 0.930 . S
H2207 C2199 0.929 . S
H2208 C2216 0.929 . S
H2209 C2218 0.930 . S
H2210 C2220 0.930 . S
H2211 C2223 0.929 . S
H2212 C2226 0.930 . S
H2213 C2228 0.960 . S
H2214 C2228 0.960 . S
H2215 C2228 0.960 . S
C2216 H2208 0.929 . S
C2216 C2217 1.377 . S
C2216 C2218 1.384 . S
C2217 C2216 1.377 . S
C2217 C2223 1.390 . S
C2218 H2209 0.930 . S
C2218 C2216 1.384 . S
C2218 C2219 1.372 . S
C2219 C2218 1.372 . S
C2219 C2220 1.400 . S
C2219 C2224 1.490 . S
C2220 H2210 0.930 . S
C2220 C2219 1.400 . S
C2220 C2223 1.386 . S
H2221 C2237 0.930 . S
H2222 C2238 0.931 . S
C2223 H2211 0.929 . S
C2223 C2217 1.390 . S
C2223 C2220 1.386 . S
C2224 C2219 1.490 . S
C2224 C2226 1.395 . S
C2224 C2227 1.403 . S
H2225 C2231 0.930 . S
C2226 H2212 0.930 . S
C2226 C2224 1.395 . S
C2226 C2229 1.403 . S
C2227 C2224 1.403 . S
C2227 C2228 1.524 . S
C2227 C2231 1.400 . S
C2228 H2213 0.960 . S
C2228 H2214 0.960 . S
C2228 H2215 0.960 . S
C2228 C2227 1.524 . S
C2229 C2226 1.403 . S
C2229 C2230 1.392 . S
C2229 C2233 1.495 . S
C2230 C2229 1.392 . S
C2230 C2231 1.385 . S
C2230 C2232 1.478 . S
C2231 H2225 0.930 . S
C2231 C2227 1.400 . S
C2231 C2230 1.385 . S
C2232 C2230 1.478 . S
C2232 C2234 1.381 . S
C2232 C2238 1.383 . S
C2233 C2229 1.495 . S
C2233 H2239 0.959 . S
C2233 H2240 0.961 . S
C2233 H2241 0.960 . S
C2234 C2232 1.381 . S
C2234 C2235 1.394 . S
C2234 H2242 0.930 . S
C2235 C2234 1.394 . S
C2235 C2236 1.383 . S
C2235 H2243 0.929 . S
C2236 C2235 1.383 . S
C2236 C2237 1.377 . S
C2237 H2221 0.930 . S
C2237 C2236 1.377 . S
C2237 C2238 1.379 . S
C2238 H2222 0.931 . S
C2238 C2232 1.383 . S
C2238 C2237 1.379 . S
H2239 C2233 0.959 . S
H2240 C2233 0.961 . S
H2241 C2233 0.960 . S
H2242 C2234 0.930 . S
H2243 C2235 0.929 . S
H2244 C2252 0.929 . S
H2245 C2254 0.930 . S
H2246 C2256 0.930 . S
H2247 C2259 0.929 . S
H2248 C2262 0.930 . S
H2249 C2264 0.960 . S
H2250 C2264 0.960 . S
H2251 C2264 0.960 . S
C2252 H2244 0.929 . S
C2252 C2253 1.377 . S
C2252 C2254 1.384 . S
C2253 C2252 1.377 . S
C2253 C2259 1.390 . S
C2254 H2245 0.930 . S
C2254 C2252 1.384 . S
C2254 C2255 1.372 . S
C2255 C2254 1.372 . S
C2255 C2256 1.400 . S
C2255 C2260 1.490 . S
C2256 H2246 0.930 . S
C2256 C2255 1.400 . S
C2256 C2259 1.386 . S
H2257 C2273 0.930 . S
H2258 C2274 0.931 . S
C2259 H2247 0.929 . S
C2259 C2253 1.390 . S
C2259 C2256 1.386 . S
C2260 C2255 1.490 . S
C2260 C2262 1.395 . S
C2260 C2263 1.403 . S
H2261 C2267 0.930 . S
C2262 H2248 0.930 . S
C2262 C2260 1.395 . S
C2262 C2265 1.403 . S
C2263 C2260 1.403 . S
C2263 C2264 1.524 . S
C2263 C2267 1.400 . S
C2264 H2249 0.960 . S
C2264 H2250 0.960 . S
C2264 H2251 0.960 . S
C2264 C2263 1.524 . S
C2265 C2262 1.403 . S
C2265 C2266 1.392 . S
C2265 C2269 1.495 . S
C2266 C2265 1.392 . S
C2266 C2267 1.385 . S
C2266 C2268 1.478 . S
C2267 H2261 0.930 . S
C2267 C2263 1.400 . S
C2267 C2266 1.385 . S
C2268 C2266 1.478 . S
C2268 C2270 1.381 . S
C2268 C2274 1.383 . S
C2269 C2265 1.495 . S
C2269 H2275 0.959 . S
C2269 H2276 0.961 . S
C2269 H2277 0.960 . S
C2270 C2268 1.381 . S
C2270 C2271 1.394 . S
C2270 H2278 0.930 . S
C2271 C2270 1.394 . S
C2271 C2272 1.383 . S
C2271 H2279 0.929 . S
C2272 C2271 1.383 . S
C2272 C2273 1.377 . S
C2273 H2257 0.930 . S
C2273 C2272 1.377 . S
C2273 C2274 1.379 . S
C2274 H2258 0.931 . S
C2274 C2268 1.383 . S
C2274 C2273 1.379 . S
H2275 C2269 0.959 . S
H2276 C2269 0.961 . S
H2277 C2269 0.960 . S
H2278 C2270 0.930 . S
H2279 C2271 0.929 . S
H2280 C2288 0.929 . S
H2281 C2290 0.930 . S
H2282 C2292 0.930 . S
H2283 C2295 0.929 . S
H2284 C2298 0.930 . S
H2285 C2300 0.960 . S
H2286 C2300 0.960 . S
H2287 C2300 0.960 . S
C2288 H2280 0.929 . S
C2288 C2289 1.377 . S
C2288 C2290 1.384 . S
C2289 C2288 1.377 . S
C2289 C2295 1.390 . S
C2290 H2281 0.930 . S
C2290 C2288 1.384 . S
C2290 C2291 1.372 . S
C2291 C2290 1.372 . S
C2291 C2292 1.400 . S
C2291 C2296 1.490 . S
C2292 H2282 0.930 . S
C2292 C2291 1.400 . S
C2292 C2295 1.386 . S
H2293 C2309 0.930 . S
H2294 C2310 0.931 . S
C2295 H2283 0.929 . S
C2295 C2289 1.390 . S
C2295 C2292 1.386 . S
C2296 C2291 1.490 . S
C2296 C2298 1.395 . S
C2296 C2299 1.403 . S
H2297 C2303 0.930 . S
C2298 H2284 0.930 . S
C2298 C2296 1.395 . S
C2298 C2301 1.403 . S
C2299 C2296 1.403 . S
C2299 C2300 1.524 . S
C2299 C2303 1.400 . S
C2300 H2285 0.960 . S
C2300 H2286 0.960 . S
C2300 H2287 0.960 . S
C2300 C2299 1.524 . S
C2301 C2298 1.403 . S
C2301 C2302 1.392 . S
C2301 C2305 1.495 . S
C2302 C2301 1.392 . S
C2302 C2303 1.385 . S
C2302 C2304 1.478 . S
C2303 H2297 0.930 . S
C2303 C2299 1.400 . S
C2303 C2302 1.385 . S
C2304 C2302 1.478 . S
C2304 C2306 1.381 . S
C2304 C2310 1.383 . S
C2305 C2301 1.495 . S
C2305 H2311 0.959 . S
C2305 H2312 0.961 . S
C2305 H2313 0.960 . S
C2306 C2304 1.381 . S
C2306 C2307 1.394 . S
C2306 H2314 0.930 . S
C2307 C2306 1.394 . S
C2307 C2308 1.383 . S
C2307 H2315 0.929 . S
C2308 C2307 1.383 . S
C2308 C2309 1.377 . S
C2309 H2293 0.930 . S
C2309 C2308 1.377 . S
C2309 C2310 1.379 . S
C2310 H2294 0.931 . S
C2310 C2304 1.383 . S
C2310 C2309 1.379 . S
H2311 C2305 0.959 . S
H2312 C2305 0.961 . S
H2313 C2305 0.960 . S
H2314 C2306 0.930 . S
H2315 C2307 0.929 . S
H2316 C2324 0.929 . S
H2317 C2326 0.930 . S
H2318 C2328 0.930 . S
H2319 C2331 0.929 . S
H2320 C2334 0.930 . S
H2321 C2336 0.960 . S
H2322 C2336 0.960 . S
H2323 C2336 0.960 . S
C2324 H2316 0.929 . S
C2324 C2325 1.377 . S
C2324 C2326 1.384 . S
C2325 C2324 1.377 . S
C2325 C2331 1.390 . S
C2326 H2317 0.930 . S
C2326 C2324 1.384 . S
C2326 C2327 1.372 . S
C2327 C2326 1.372 . S
C2327 C2328 1.400 . S
C2327 C2332 1.490 . S
C2328 H2318 0.930 . S
C2328 C2327 1.400 . S
C2328 C2331 1.386 . S
H2329 C2345 0.930 . S
H2330 C2346 0.931 . S
C2331 H2319 0.929 . S
C2331 C2325 1.390 . S
C2331 C2328 1.386 . S
C2332 C2327 1.490 . S
C2332 C2334 1.395 . S
C2332 C2335 1.403 . S
H2333 C2339 0.930 . S
C2334 H2320 0.930 . S
C2334 C2332 1.395 . S
C2334 C2337 1.403 . S
C2335 C2332 1.403 . S
C2335 C2336 1.524 . S
C2335 C2339 1.400 . S
C2336 H2321 0.960 . S
C2336 H2322 0.960 . S
C2336 H2323 0.960 . S
C2336 C2335 1.524 . S
C2337 C2334 1.403 . S
C2337 C2338 1.392 . S
C2337 C2341 1.495 . S
C2338 C2337 1.392 . S
C2338 C2339 1.385 . S
C2338 C2340 1.478 . S
C2339 H2333 0.930 . S
C2339 C2335 1.400 . S
C2339 C2338 1.385 . S
C2340 C2338 1.478 . S
C2340 C2342 1.381 . S
C2340 C2346 1.383 . S
C2341 C2337 1.495 . S
C2341 H2347 0.959 . S
C2341 H2348 0.961 . S
C2341 H2349 0.960 . S
C2342 C2340 1.381 . S
C2342 C2343 1.394 . S
C2342 H2350 0.930 . S
C2343 C2342 1.394 . S
C2343 C2344 1.383 . S
C2343 H2351 0.929 . S
C2344 C2343 1.383 . S
C2344 C2345 1.377 . S
C2345 H2329 0.930 . S
C2345 C2344 1.377 . S
C2345 C2346 1.379 . S
C2346 H2330 0.931 . S
C2346 C2340 1.383 . S
C2346 C2345 1.379 . S
H2347 C2341 0.959 . S
H2348 C2341 0.961 . S
H2349 C2341 0.960 . S
H2350 C2342 0.930 . S
H2351 C2343 0.929 . S
H2352 C2360 0.929 . S
H2353 C2362 0.930 . S
H2354 C2364 0.930 . S
H2355 C2367 0.929 . S
H2356 C2370 0.930 . S
H2357 C2372 0.960 . S
H2358 C2372 0.960 . S
H2359 C2372 0.960 . S
C2360 H2352 0.929 . S
C2360 C2361 1.377 . S
C2360 C2362 1.384 . S
C2361 C2360 1.377 . S
C2361 C2367 1.390 . S
C2362 H2353 0.930 . S
C2362 C2360 1.384 . S
C2362 C2363 1.372 . S
C2363 C2362 1.372 . S
C2363 C2364 1.400 . S
C2363 C2368 1.490 . S
C2364 H2354 0.930 . S
C2364 C2363 1.400 . S
C2364 C2367 1.386 . S
H2365 C2381 0.930 . S
H2366 C2382 0.931 . S
C2367 H2355 0.929 . S
C2367 C2361 1.390 . S
C2367 C2364 1.386 . S
C2368 C2363 1.490 . S
C2368 C2370 1.395 . S
C2368 C2371 1.403 . S
H2369 C2375 0.930 . S
C2370 H2356 0.930 . S
C2370 C2368 1.395 . S
C2370 C2373 1.403 . S
C2371 C2368 1.403 . S
C2371 C2372 1.524 . S
C2371 C2375 1.400 . S
C2372 H2357 0.960 . S
C2372 H2358 0.960 . S
C2372 H2359 0.960 . S
C2372 C2371 1.524 . S
C2373 C2370 1.403 . S
C2373 C2374 1.392 . S
C2373 C2377 1.495 . S
C2374 C2373 1.392 . S
C2374 C2375 1.385 . S
C2374 C2376 1.478 . S
C2375 H2369 0.930 . S
C2375 C2371 1.400 . S
C2375 C2374 1.385 . S
C2376 C2374 1.478 . S
C2376 C2378 1.381 . S
C2376 C2382 1.383 . S
C2377 C2373 1.495 . S
C2377 H2383 0.959 . S
C2377 H2384 0.961 . S
C2377 H2385 0.960 . S
C2378 C2376 1.381 . S
C2378 C2379 1.394 . S
C2378 H2386 0.930 . S
C2379 C2378 1.394 . S
C2379 C2380 1.383 . S
C2379 H2387 0.929 . S
C2380 C2379 1.383 . S
C2380 C2381 1.377 . S
C2381 H2365 0.930 . S
C2381 C2380 1.377 . S
C2381 C2382 1.379 . S
C2382 H2366 0.931 . S
C2382 C2376 1.383 . S
C2382 C2381 1.379 . S
H2383 C2377 0.959 . S
H2384 C2377 0.961 . S
H2385 C2377 0.960 . S
H2386 C2378 0.930 . S
H2387 C2379 0.929 . S
H2388 C2396 0.929 . S
H2389 C2398 0.930 . S
H2390 C2400 0.930 . S
H2391 C2403 0.929 . S
H2392 C2406 0.930 . S
H2393 C2408 0.960 . S
H2394 C2408 0.960 . S
H2395 C2408 0.960 . S
C2396 H2388 0.929 . S
C2396 C2397 1.377 . S
C2396 C2398 1.384 . S
C2397 C2396 1.377 . S
C2397 C2403 1.390 . S
C2398 H2389 0.930 . S
C2398 C2396 1.384 . S
C2398 C2399 1.372 . S
C2399 C2398 1.372 . S
C2399 C2400 1.400 . S
C2399 C2404 1.490 . S
C2400 H2390 0.930 . S
C2400 C2399 1.400 . S
C2400 C2403 1.386 . S
H2401 C2417 0.930 . S
H2402 C2418 0.931 . S
C2403 H2391 0.929 . S
C2403 C2397 1.390 . S
C2403 C2400 1.386 . S
C2404 C2399 1.490 . S
C2404 C2406 1.395 . S
C2404 C2407 1.403 . S
H2405 C2411 0.930 . S
C2406 H2392 0.930 . S
C2406 C2404 1.395 . S
C2406 C2409 1.403 . S
C2407 C2404 1.403 . S
C2407 C2408 1.524 . S
C2407 C2411 1.400 . S
C2408 H2393 0.960 . S
C2408 H2394 0.960 . S
C2408 H2395 0.960 . S
C2408 C2407 1.524 . S
C2409 C2406 1.403 . S
C2409 C2410 1.392 . S
C2409 C2413 1.495 . S
C2410 C2409 1.392 . S
C2410 C2411 1.385 . S
C2410 C2412 1.478 . S
C2411 H2405 0.930 . S
C2411 C2407 1.400 . S
C2411 C2410 1.385 . S
C2412 C2410 1.478 . S
C2412 C2414 1.381 . S
C2412 C2418 1.383 . S
C2413 C2409 1.495 . S
C2413 H2419 0.959 . S
C2413 H2420 0.961 . S
C2413 H2421 0.960 . S
C2414 C2412 1.381 . S
C2414 C2415 1.394 . S
C2414 H2422 0.930 . S
C2415 C2414 1.394 . S
C2415 C2416 1.383 . S
C2415 H2423 0.929 . S
C2416 C2415 1.383 . S
C2416 C2417 1.377 . S
C2417 H2401 0.930 . S
C2417 C2416 1.377 . S
C2417 C2418 1.379 . S
C2418 H2402 0.931 . S
C2418 C2412 1.383 . S
C2418 C2417 1.379 . S
H2419 C2413 0.959 . S
H2420 C2413 0.961 . S
H2421 C2413 0.960 . S
H2422 C2414 0.930 . S
H2423 C2415 0.929 . S
H2424 C2432 0.929 . S
H2425 C2434 0.930 . S
H2426 C2436 0.930 . S
H2427 C2439 0.929 . S
H2428 C2442 0.930 . S
H2429 C2444 0.960 . S
H2430 C2444 0.960 . S
H2431 C2444 0.960 . S
C2432 H2424 0.929 . S
C2432 C2433 1.377 . S
C2432 C2434 1.384 . S
C2433 C2432 1.377 . S
C2433 C2439 1.390 . S
C2434 H2425 0.930 . S
C2434 C2432 1.384 . S
C2434 C2435 1.372 . S
C2435 C2434 1.372 . S
C2435 C2436 1.400 . S
C2435 C2440 1.490 . S
C2436 H2426 0.930 . S
C2436 C2435 1.400 . S
C2436 C2439 1.386 . S
H2437 C2453 0.930 . S
H2438 C2454 0.931 . S
C2439 H2427 0.929 . S
C2439 C2433 1.390 . S
C2439 C2436 1.386 . S
C2440 C2435 1.490 . S
C2440 C2442 1.395 . S
C2440 C2443 1.403 . S
H2441 C2447 0.930 . S
C2442 H2428 0.930 . S
C2442 C2440 1.395 . S
C2442 C2445 1.403 . S
C2443 C2440 1.403 . S
C2443 C2444 1.524 . S
C2443 C2447 1.400 . S
C2444 H2429 0.960 . S
C2444 H2430 0.960 . S
C2444 H2431 0.960 . S
C2444 C2443 1.524 . S
C2445 C2442 1.403 . S
C2445 C2446 1.392 . S
C2445 C2449 1.495 . S
C2446 C2445 1.392 . S
C2446 C2447 1.385 . S
C2446 C2448 1.478 . S
C2447 H2441 0.930 . S
C2447 C2443 1.400 . S
C2447 C2446 1.385 . S
C2448 C2446 1.478 . S
C2448 C2450 1.381 . S
C2448 C2454 1.383 . S
C2449 C2445 1.495 . S
C2449 H2455 0.959 . S
C2449 H2456 0.961 . S
C2449 H2457 0.960 . S
C2450 C2448 1.381 . S
C2450 C2451 1.394 . S
C2450 H2458 0.930 . S
C2451 C2450 1.394 . S
C2451 C2452 1.383 . S
C2451 H2459 0.929 . S
C2452 C2451 1.383 . S
C2452 C2453 1.377 . S
C2453 H2437 0.930 . S
C2453 C2452 1.377 . S
C2453 C2454 1.379 . S
C2454 H2438 0.931 . S
C2454 C2448 1.383 . S
C2454 C2453 1.379 . S
H2455 C2449 0.959 . S
H2456 C2449 0.961 . S
H2457 C2449 0.960 . S
H2458 C2450 0.930 . S
H2459 C2451 0.929 . S
H2460 C2468 0.929 . S
H2461 C2470 0.930 . S
H2462 C2472 0.930 . S
H2463 C2475 0.929 . S
H2464 C2478 0.930 . S
H2465 C2480 0.960 . S
H2466 C2480 0.960 . S
H2467 C2480 0.960 . S
C2468 H2460 0.929 . S
C2468 C2469 1.377 . S
C2468 C2470 1.384 . S
C2469 C2468 1.377 . S
C2469 C2475 1.390 . S
C2470 H2461 0.930 . S
C2470 C2468 1.384 . S
C2470 C2471 1.372 . S
C2471 C2470 1.372 . S
C2471 C2472 1.400 . S
C2471 C2476 1.490 . S
C2472 H2462 0.930 . S
C2472 C2471 1.400 . S
C2472 C2475 1.386 . S
H2473 C2489 0.930 . S
H2474 C2490 0.931 . S
C2475 H2463 0.929 . S
C2475 C2469 1.390 . S
C2475 C2472 1.386 . S
C2476 C2471 1.490 . S
C2476 C2478 1.395 . S
C2476 C2479 1.403 . S
H2477 C2483 0.930 . S
C2478 H2464 0.930 . S
C2478 C2476 1.395 . S
C2478 C2481 1.403 . S
C2479 C2476 1.403 . S
C2479 C2480 1.524 . S
C2479 C2483 1.400 . S
C2480 H2465 0.960 . S
C2480 H2466 0.960 . S
C2480 H2467 0.960 . S
C2480 C2479 1.524 . S
C2481 C2478 1.403 . S
C2481 C2482 1.392 . S
C2481 C2485 1.495 . S
C2482 C2481 1.392 . S
C2482 C2483 1.385 . S
C2482 C2484 1.478 . S
C2483 H2477 0.930 . S
C2483 C2479 1.400 . S
C2483 C2482 1.385 . S
C2484 C2482 1.478 . S
C2484 C2486 1.381 . S
C2484 C2490 1.383 . S
C2485 C2481 1.495 . S
C2485 H2491 0.959 . S
C2485 H2492 0.961 . S
C2485 H2493 0.960 . S
C2486 C2484 1.381 . S
C2486 C2487 1.394 . S
C2486 H2494 0.930 . S
C2487 C2486 1.394 . S
C2487 C2488 1.383 . S
C2487 H2495 0.929 . S
C2488 C2487 1.383 . S
C2488 C2489 1.377 . S
C2489 H2473 0.930 . S
C2489 C2488 1.377 . S
C2489 C2490 1.379 . S
C2490 H2474 0.931 . S
C2490 C2484 1.383 . S
C2490 C2489 1.379 . S
H2491 C2485 0.959 . S
H2492 C2485 0.961 . S
H2493 C2485 0.960 . S
H2494 C2486 0.930 . S
H2495 C2487 0.929 . S
H2496 C2504 0.929 . S
H2497 C2506 0.930 . S
H2498 C2508 0.930 . S
H2499 C2511 0.929 . S
H2500 C2514 0.930 . S
H2501 C2516 0.960 . S
H2502 C2516 0.960 . S
H2503 C2516 0.960 . S
C2504 H2496 0.929 . S
C2504 C2505 1.377 . S
C2504 C2506 1.384 . S
C2505 C2504 1.377 . S
C2505 C2511 1.390 . S
C2506 H2497 0.930 . S
C2506 C2504 1.384 . S
C2506 C2507 1.372 . S
C2507 C2506 1.372 . S
C2507 C2508 1.400 . S
C2507 C2512 1.490 . S
C2508 H2498 0.930 . S
C2508 C2507 1.400 . S
C2508 C2511 1.386 . S
H2509 C2525 0.930 . S
H2510 C2526 0.931 . S
C2511 H2499 0.929 . S
C2511 C2505 1.390 . S
C2511 C2508 1.386 . S
C2512 C2507 1.490 . S
C2512 C2514 1.395 . S
C2512 C2515 1.403 . S
H2513 C2519 0.930 . S
C2514 H2500 0.930 . S
C2514 C2512 1.395 . S
C2514 C2517 1.403 . S
C2515 C2512 1.403 . S
C2515 C2516 1.524 . S
C2515 C2519 1.400 . S
C2516 H2501 0.960 . S
C2516 H2502 0.960 . S
C2516 H2503 0.960 . S
C2516 C2515 1.524 . S
C2517 C2514 1.403 . S
C2517 C2518 1.392 . S
C2517 C2521 1.495 . S
C2518 C2517 1.392 . S
C2518 C2519 1.385 . S
C2518 C2520 1.478 . S
C2519 H2513 0.930 . S
C2519 C2515 1.400 . S
C2519 C2518 1.385 . S
C2520 C2518 1.478 . S
C2520 C2522 1.381 . S
C2520 C2526 1.383 . S
C2521 C2517 1.495 . S
C2521 H2527 0.959 . S
C2521 H2528 0.961 . S
C2521 H2529 0.960 . S
C2522 C2520 1.381 . S
C2522 C2523 1.394 . S
C2522 H2530 0.930 . S
C2523 C2522 1.394 . S
C2523 C2524 1.383 . S
C2523 H2531 0.929 . S
C2524 C2523 1.383 . S
C2524 C2525 1.377 . S
C2525 H2509 0.930 . S
C2525 C2524 1.377 . S
C2525 C2526 1.379 . S
C2526 H2510 0.931 . S
C2526 C2520 1.383 . S
C2526 C2525 1.379 . S
H2527 C2521 0.959 . S
H2528 C2521 0.961 . S
H2529 C2521 0.960 . S
H2530 C2522 0.930 . S
H2531 C2523 0.929 . S
H2532 C2540 0.929 . S
H2533 C2542 0.930 . S
H2534 C2544 0.930 . S
H2535 C2547 0.929 . S
H2536 C2550 0.930 . S
H2537 C2552 0.960 . S
H2538 C2552 0.960 . S
H2539 C2552 0.960 . S
C2540 H2532 0.929 . S
C2540 C2541 1.377 . S
C2540 C2542 1.384 . S
C2541 C2540 1.377 . S
C2541 C2547 1.390 . S
C2542 H2533 0.930 . S
C2542 C2540 1.384 . S
C2542 C2543 1.372 . S
C2543 C2542 1.372 . S
C2543 C2544 1.400 . S
C2543 C2548 1.490 . S
C2544 H2534 0.930 . S
C2544 C2543 1.400 . S
C2544 C2547 1.386 . S
H2545 C2561 0.930 . S
H2546 C2562 0.931 . S
C2547 H2535 0.929 . S
C2547 C2541 1.390 . S
C2547 C2544 1.386 . S
C2548 C2543 1.490 . S
C2548 C2550 1.395 . S
C2548 C2551 1.403 . S
H2549 C2555 0.930 . S
C2550 H2536 0.930 . S
C2550 C2548 1.395 . S
C2550 C2553 1.403 . S
C2551 C2548 1.403 . S
C2551 C2552 1.524 . S
C2551 C2555 1.400 . S
C2552 H2537 0.960 . S
C2552 H2538 0.960 . S
C2552 H2539 0.960 . S
C2552 C2551 1.524 . S
C2553 C2550 1.403 . S
C2553 C2554 1.392 . S
C2553 C2557 1.495 . S
C2554 C2553 1.392 . S
C2554 C2555 1.385 . S
C2554 C2556 1.478 . S
C2555 H2549 0.930 . S
C2555 C2551 1.400 . S
C2555 C2554 1.385 . S
C2556 C2554 1.478 . S
C2556 C2558 1.381 1_554 S
C2556 C2562 1.383 . S
C2557 C2553 1.495 . S
C2557 H2563 0.959 . S
C2557 H2564 0.961 . S
C2557 H2565 0.974 . S
C2558 C2556 1.381 1_556 S
C2558 C2559 1.394 . S
C2558 H2566 0.930 . S
C2559 C2558 1.394 . S
C2559 C2560 1.383 . S
C2559 H2567 0.929 . S
C2560 C2559 1.383 . S
C2560 C2561 1.377 1_556 S
C2561 H2545 0.930 . S
C2561 C2560 1.377 1_554 S
C2561 C2562 1.379 . S
C2562 H2546 0.931 . S
C2562 C2556 1.383 . S
C2562 C2561 1.379 . S
H2563 C2557 0.959 . S
H2564 C2557 0.961 . S
H2565 C2557 0.974 . S
H2566 C2558 0.930 . S
H2567 C2559 0.929 . S
H2568 C2576 0.929 . S
H2569 C2578 0.930 . S
H2570 C2580 0.930 . S
H2571 C2583 0.929 . S
H2572 C2586 0.930 . S
H2573 C2588 0.960 . S
H2574 C2588 0.960 . S
H2575 C2588 0.960 . S
C2576 H2568 0.929 . S
C2576 C2577 1.377 . S
C2576 C2578 1.384 . S
C2577 C2576 1.377 . S
C2577 C2583 1.390 . S
C2578 H2569 0.930 . S
C2578 C2576 1.384 . S
C2578 C2579 1.372 . S
C2579 C2578 1.372 . S
C2579 C2580 1.400 . S
C2579 C2584 1.490 . S
C2580 H2570 0.930 . S
C2580 C2579 1.400 . S
C2580 C2583 1.386 . S
H2581 C2597 0.930 1_565 S
H2582 C2598 0.931 . S
C2583 H2571 0.929 . S
C2583 C2577 1.390 . S
C2583 C2580 1.386 . S
C2584 C2579 1.490 . S
C2584 C2586 1.395 . S
C2584 C2587 1.403 . S
H2585 C2591 0.930 . S
C2586 H2572 0.930 . S
C2586 C2584 1.395 . S
C2586 C2589 1.403 . S
C2587 C2584 1.403 . S
C2587 C2588 1.524 . S
C2587 C2591 1.400 . S
C2588 H2573 0.960 . S
C2588 H2574 0.960 . S
C2588 H2575 0.960 . S
C2588 C2587 1.524 . S
C2589 C2586 1.403 . S
C2589 C2590 1.392 . S
C2589 C2593 1.495 . S
C2590 C2589 1.392 . S
C2590 C2591 1.385 . S
C2590 C2592 1.478 . S
C2591 H2585 0.930 . S
C2591 C2587 1.400 . S
C2591 C2590 1.385 . S
C2592 C2590 1.478 . S
C2592 C2594 1.381 . S
C2592 C2598 1.383 . S
C2593 C2589 1.495 . S
C2593 H2599 0.959 . S
C2593 H2600 0.961 . S
C2593 H2601 0.960 . S
C2594 C2592 1.381 . S
C2594 C2595 1.394 . S
C2594 H2602 0.930 . S
C2595 C2594 1.394 . S
C2595 C2596 1.383 . S
C2595 H2603 0.929 . S
C2596 C2595 1.383 . S
C2596 C2597 1.377 . S
C2597 H2581 0.930 1_545 S
C2597 C2596 1.377 . S
C2597 C2598 1.379 . S
C2598 H2582 0.931 . S
C2598 C2592 1.383 . S
C2598 C2597 1.379 . S
H2599 C2593 0.959 . S
H2600 C2593 0.961 . S
H2601 C2593 0.960 . S
H2602 C2594 0.930 . S
H2603 C2595 0.929 . S
H2604 C2612 0.929 . S
H2605 C2614 0.930 . S
H2606 C2616 0.930 . S
H2607 C2619 0.929 . S
H2608 C2622 0.930 . S
H2609 C2624 0.960 . S
H2610 C2624 0.960 1_554 S
H2611 C2624 0.960 . S
C2612 H2604 0.929 . S
C2612 C2613 1.377 . S
C2612 C2614 1.384 . S
C2613 C2612 1.377 . S
C2613 C2619 1.390 1_554 S
C2614 H2605 0.930 . S
C2614 C2612 1.384 . S
C2614 C2615 1.372 1_554 S
C2615 C2614 1.372 1_556 S
C2615 C2616 1.400 . S
C2615 C2620 1.490 . S
C2616 H2606 0.930 . S
C2616 C2615 1.400 . S
C2616 C2619 1.386 . S
H2617 C2633 0.930 . S
H2618 C2634 0.931 . S
C2619 H2607 0.929 . S
C2619 C2613 1.390 1_556 S
C2619 C2616 1.386 . S
C2620 C2615 1.490 . S
C2620 C2622 1.395 . S
C2620 C2623 1.403 . S
H2621 C2627 0.930 . S
C2622 H2608 0.930 . S
C2622 C2620 1.395 . S
C2622 C2625 1.403 . S
C2623 C2620 1.403 . S
C2623 C2624 1.524 . S
C2623 C2627 1.400 . S
C2624 H2609 0.960 . S
C2624 H2610 0.960 1_556 S
C2624 H2611 0.960 . S
C2624 C2623 1.524 . S
C2625 C2622 1.403 . S
C2625 C2626 1.392 . S
C2625 C2629 1.495 . S
C2626 C2625 1.392 . S
C2626 C2627 1.385 . S
C2626 C2628 1.478 . S
C2627 H2621 0.930 . S
C2627 C2623 1.400 . S
C2627 C2626 1.385 . S
C2628 C2626 1.478 . S
C2628 C2630 1.381 . S
C2628 C2634 1.383 . S
C2629 C2625 1.495 . S
C2629 H2635 0.959 . S
C2629 H2636 0.961 . S
C2629 H2637 0.960 . S
C2630 C2628 1.381 . S
C2630 C2631 1.395 . S
C2630 H2638 0.930 . S
C2631 C2630 1.395 . S
C2631 C2632 1.384 . S
C2631 H2639 0.928 1_565 S
C2632 C2631 1.384 . S
C2632 C2633 1.377 . S
C2633 H2617 0.930 . S
C2633 C2632 1.377 . S
C2633 C2634 1.379 . S
C2634 H2618 0.931 . S
C2634 C2628 1.383 . S
C2634 C2633 1.379 . S
H2635 C2629 0.959 . S
H2636 C2629 0.961 . S
H2637 C2629 0.960 . S
H2638 C2630 0.930 . S
H2639 C2631 0.928 1_545 S
H2640 C2648 0.929 . S
H2641 C2650 0.930 . S
H2642 C2652 0.930 . S
H2643 C2655 0.929 . S
H2644 C2658 0.930 . S
H2645 C2660 0.960 . S
H2646 C2660 0.960 . S
H2647 C2660 0.960 . S
C2648 H2640 0.929 . S
C2648 C2649 1.377 . S
C2648 C2650 1.384 . S
C2649 C2648 1.377 . S
C2649 C2655 1.390 . S
C2650 H2641 0.930 . S
C2650 C2648 1.384 . S
C2650 C2651 1.372 . S
C2651 C2650 1.372 . S
C2651 C2652 1.400 . S
C2651 C2656 1.490 . S
C2652 H2642 0.930 . S
C2652 C2651 1.400 . S
C2652 C2655 1.386 . S
H2653 C2669 0.930 . S
H2654 C2670 0.931 . S
C2655 H2643 0.929 . S
C2655 C2649 1.390 . S
C2655 C2652 1.386 . S
C2656 C2651 1.490 . S
C2656 C2658 1.395 . S
C2656 C2659 1.403 . S
H2657 C2663 0.930 . S
C2658 H2644 0.930 . S
C2658 C2656 1.395 . S
C2658 C2661 1.403 . S
C2659 C2656 1.403 . S
C2659 C2660 1.524 . S
C2659 C2663 1.400 . S
C2660 H2645 0.960 . S
C2660 H2646 0.960 . S
C2660 H2647 0.960 . S
C2660 C2659 1.524 . S
C2661 C2658 1.403 . S
C2661 C2662 1.392 . S
C2661 C2665 1.495 . S
C2662 C2661 1.392 . S
C2662 C2663 1.385 . S
C2662 C2664 1.478 . S
C2663 H2657 0.930 . S
C2663 C2659 1.400 . S
C2663 C2662 1.385 . S
C2664 C2662 1.478 . S
C2664 C2666 1.381 . S
C2664 C2670 1.383 . S
C2665 C2661 1.495 . S
C2665 H2671 0.959 . S
C2665 H2672 0.961 . S
C2665 H2673 0.960 . S
C2666 C2664 1.381 . S
C2666 C2667 1.394 . S
C2666 H2674 0.930 . S
C2667 C2666 1.394 . S
C2667 C2668 1.383 . S
C2667 H2675 0.929 . S
C2668 C2667 1.383 . S
C2668 C2669 1.377 . S
C2669 H2653 0.930 . S
C2669 C2668 1.377 . S
C2669 C2670 1.379 . S
C2670 H2654 0.931 . S
C2670 C2664 1.383 . S
C2670 C2669 1.379 . S
H2671 C2665 0.959 . S
H2672 C2665 0.961 . S
H2673 C2665 0.960 . S
H2674 C2666 0.930 . S
H2675 C2667 0.929 . S
H2676 C2684 0.929 1_554 S
H2677 C2686 0.930 . S
H2678 C2688 0.930 . S
H2679 C2691 0.929 . S
H2680 C2694 0.930 . S
H2681 C2696 0.960 . S
H2682 C2696 0.960 . S
H2683 C2696 0.960 . S
C2684 H2676 0.929 1_556 S
C2684 C2685 1.377 . S
C2684 C2686 1.384 . S
C2685 C2684 1.377 . S
C2685 C2691 1.390 . S
C2686 H2677 0.930 . S
C2686 C2684 1.384 . S
C2686 C2687 1.372 . S
C2687 C2686 1.372 . S
C2687 C2688 1.400 . S
C2687 C2692 1.490 . S
C2688 H2678 0.930 . S
C2688 C2687 1.400 . S
C2688 C2691 1.386 . S
H2689 C2705 0.930 . S
H2690 C2706 0.931 . S
C2691 H2679 0.929 . S
C2691 C2685 1.390 . S
C2691 C2688 1.386 . S
C2692 C2687 1.490 . S
C2692 C2694 1.395 . S
C2692 C2695 1.403 . S
H2693 C2699 0.930 . S
C2694 H2680 0.930 . S
C2694 C2692 1.395 . S
C2694 C2697 1.403 . S
C2695 C2692 1.403 . S
C2695 C2696 1.524 . S
C2695 C2699 1.400 . S
C2696 H2681 0.960 . S
C2696 H2682 0.960 . S
C2696 H2683 0.960 . S
C2696 C2695 1.524 . S
C2697 C2694 1.403 . S
C2697 C2698 1.392 . S
C2697 C2701 1.495 1_655 S
C2698 C2697 1.392 . S
C2698 C2699 1.385 . S
C2698 C2700 1.478 . S
C2699 H2693 0.930 . S
C2699 C2695 1.400 . S
C2699 C2698 1.385 . S
C2700 C2698 1.478 . S
C2700 C2702 1.377 1_655 S
C2700 C2706 1.383 . S
C2701 C2697 1.495 1_455 S
C2701 H2707 0.959 . S
C2701 H2708 0.961 . S
C2701 H2709 0.960 . S
C2702 C2700 1.377 1_455 S
C2702 C2703 1.401 . S
C2702 H2710 0.928 1_455 S
C2703 C2702 1.401 . S
C2703 C2704 1.383 . S
C2703 H2711 0.929 . S
C2704 C2703 1.383 . S
C2704 C2705 1.377 . S
C2705 H2689 0.930 . S
C2705 C2704 1.377 . S
C2705 C2706 1.379 1_455 S
C2706 H2690 0.931 . S
C2706 C2700 1.383 . S
C2706 C2705 1.379 1_655 S
H2707 C2701 0.959 . S
H2708 C2701 0.961 . S
H2709 C2701 0.960 . S
H2710 C2702 0.928 1_655 S
H2711 C2703 0.929 . S
H2712 C2720 0.929 . S
H2713 C2722 0.930 . S
H2714 C2724 0.930 . S
H2715 C2727 0.929 . S
H2716 C2730 0.930 . S
H2717 C2732 0.960 1_655 S
H2718 C2732 0.960 . S
H2719 C2732 0.960 . S
C2720 H2712 0.929 . S
C2720 C2721 1.377 . S
C2720 C2722 1.384 . S
C2721 C2720 1.377 . S
C2721 C2727 1.390 . S
C2722 H2713 0.930 . S
C2722 C2720 1.384 . S
C2722 C2723 1.372 . S
C2723 C2722 1.372 . S
C2723 C2724 1.400 . S
C2723 C2728 1.490 . S
C2724 H2714 0.930 . S
C2724 C2723 1.400 . S
C2724 C2727 1.386 . S
H2725 C2741 0.930 . S
H2726 C2742 0.931 . S
C2727 H2715 0.929 . S
C2727 C2721 1.390 . S
C2727 C2724 1.386 . S
C2728 C2723 1.490 . S
C2728 C2730 1.395 . S
C2728 C2731 1.403 . S
H2729 C2735 0.919 1_655 S
C2730 H2716 0.930 . S
C2730 C2728 1.395 . S
C2730 C2733 1.403 . S
C2731 C2728 1.403 . S
C2731 C2732 1.524 . S
C2731 C2735 1.400 . S
C2732 H2717 0.960 1_455 S
C2732 H2718 0.960 . S
C2732 H2719 0.960 . S
C2732 C2731 1.524 . S
C2733 C2730 1.403 . S
C2733 C2734 1.392 . S
C2733 C2737 1.495 . S
C2734 C2733 1.392 . S
C2734 C2735 1.385 . S
C2734 C2736 1.478 . S
C2735 H2729 0.919 1_455 S
C2735 C2731 1.400 . S
C2735 C2734 1.385 . S
C2736 C2734 1.478 . S
C2736 C2738 1.381 . S
C2736 C2742 1.383 1_455 S
C2737 C2733 1.495 . S
C2737 H2743 0.959 . S
C2737 H2744 0.961 . S
C2737 H2745 0.960 . S
C2738 C2736 1.381 . S
C2738 C2739 1.394 . S
C2738 H2746 0.930 . S
C2739 C2738 1.394 . S
C2739 C2740 1.383 1_455 S
C2739 H2747 0.929 . S
C2740 C2739 1.383 1_655 S
C2740 C2741 1.377 . S
C2741 H2725 0.930 . S
C2741 C2740 1.377 . S
C2741 C2742 1.379 . S
C2742 H2726 0.931 . S
C2742 C2736 1.383 1_655 S
C2742 C2741 1.379 . S
H2743 C2737 0.959 . S
H2744 C2737 0.961 . S
H2745 C2737 0.960 . S
H2746 C2738 0.930 . S
H2747 C2739 0.929 . S
H2748 C2756 0.929 . S
H2749 C2758 0.930 . S
H2750 C2760 0.930 . S
H2751 C2763 0.929 . S
H2752 C2766 0.930 . S
H2753 C2768 0.960 . S
H2754 C2768 0.960 . S
H2755 C2768 0.960 . S
C2756 H2748 0.929 . S
C2756 C2757 1.377 . S
C2756 C2758 1.384 . S
C2757 C2756 1.377 . S
C2757 C2763 1.390 . S
C2758 H2749 0.930 . S
C2758 C2756 1.384 . S
C2758 C2759 1.372 . S
C2759 C2758 1.372 . S
C2759 C2760 1.400 . S
C2759 C2764 1.490 . S
C2760 H2750 0.930 . S
C2760 C2759 1.400 . S
C2760 C2763 1.386 . S
H2761 C2777 0.930 . S
H2762 C2778 0.931 . S
C2763 H2751 0.929 . S
C2763 C2757 1.390 . S
C2763 C2760 1.386 . S
C2764 C2759 1.490 . S
C2764 C2766 1.395 . S
C2764 C2767 1.403 . S
H2765 C2771 0.930 . S
C2766 H2752 0.930 . S
C2766 C2764 1.395 . S
C2766 C2769 1.403 . S
C2767 C2764 1.403 . S
C2767 C2768 1.524 . S
C2767 C2771 1.400 . S
C2768 H2753 0.960 . S
C2768 H2754 0.960 . S
C2768 H2755 0.960 . S
C2768 C2767 1.524 . S
C2769 C2766 1.403 . S
C2769 C2770 1.392 . S
C2769 C2773 1.495 . S
C2770 C2769 1.392 . S
C2770 C2771 1.385 . S
C2770 C2772 1.478 . S
C2771 H2765 0.930 . S
C2771 C2767 1.400 . S
C2771 C2770 1.385 . S
C2772 C2770 1.478 . S
C2772 C2774 1.381 . S
C2772 C2778 1.383 . S
C2773 C2769 1.495 . S
C2773 H2779 0.959 . S
C2773 H2780 0.961 . S
C2773 H2781 0.960 . S
C2774 C2772 1.381 . S
C2774 C2775 1.394 . S
C2774 H2782 0.930 . S
C2775 C2774 1.394 . S
C2775 C2776 1.383 . S
C2775 H2783 0.929 1_554 S
C2776 C2775 1.383 . S
C2776 C2777 1.377 . S
C2777 H2761 0.930 . S
C2777 C2776 1.377 . S
C2777 C2778 1.379 . S
C2778 H2762 0.931 . S
C2778 C2772 1.383 . S
C2778 C2777 1.379 . S
H2779 C2773 0.959 . S
H2780 C2773 0.961 . S
H2781 C2773 0.960 . S
H2782 C2774 0.930 . S
H2783 C2775 0.929 1_556 S
H2784 C2792 0.929 . S
H2785 C2794 0.930 . S
H2786 C2796 0.930 . S
H2787 C2799 0.929 . S
H2788 C2802 0.930 . S
H2789 C2804 0.960 . S
H2790 C2804 0.960 . S
H2791 C2804 0.960 . S
C2792 H2784 0.929 . S
C2792 C2793 1.377 . S
C2792 C2794 1.384 . S
C2793 C2792 1.377 . S
C2793 C2799 1.390 . S
C2794 H2785 0.930 . S
C2794 C2792 1.384 . S
C2794 C2795 1.372 . S
C2795 C2794 1.372 . S
C2795 C2796 1.400 . S
C2795 C2800 1.490 . S
C2796 H2786 0.930 . S
C2796 C2795 1.400 . S
C2796 C2799 1.386 . S
H2797 C2813 0.930 . S
H2798 C2814 0.931 . S
C2799 H2787 0.929 . S
C2799 C2793 1.390 . S
C2799 C2796 1.386 . S
C2800 C2795 1.490 . S
C2800 C2802 1.395 . S
C2800 C2803 1.403 . S
H2801 C2807 0.930 . S
C2802 H2788 0.930 . S
C2802 C2800 1.395 . S
C2802 C2805 1.403 . S
C2803 C2800 1.403 . S
C2803 C2804 1.524 . S
C2803 C2807 1.400 . S
C2804 H2789 0.960 . S
C2804 H2790 0.960 . S
C2804 H2791 0.960 . S
C2804 C2803 1.524 . S
C2805 C2802 1.403 . S
C2805 C2806 1.392 . S
C2805 C2809 1.495 . S
C2806 C2805 1.392 . S
C2806 C2807 1.385 . S
C2806 C2808 1.478 . S
C2807 H2801 0.930 . S
C2807 C2803 1.400 . S
C2807 C2806 1.385 . S
C2808 C2806 1.478 . S
C2808 C2810 1.381 . S
C2808 C2814 1.383 . S
C2809 C2805 1.495 . S
C2809 H2815 0.959 . S
C2809 H2816 0.961 . S
C2809 H2817 0.960 . S
C2810 C2808 1.381 . S
C2810 C2811 1.394 . S
C2810 H2818 0.930 . S
C2811 C2810 1.394 . S
C2811 C2812 1.383 . S
C2811 H2819 0.929 . S
C2812 C2811 1.383 . S
C2812 C2813 1.377 . S
C2813 H2797 0.930 . S
C2813 C2812 1.377 . S
C2813 C2814 1.379 . S
C2814 H2798 0.931 . S
C2814 C2808 1.383 . S
C2814 C2813 1.379 . S
H2815 C2809 0.959 . S
H2816 C2809 0.961 . S
H2817 C2809 0.960 . S
H2818 C2810 0.930 . S
H2819 C2811 0.929 . S
H2820 C2828 0.929 . S
H2821 C2830 0.930 . S
H2822 C2832 0.930 . S
H2823 C2835 0.929 . S
H2824 C2838 0.930 . S
H2825 C2840 0.960 . S
H2826 C2840 0.960 . S
H2827 C2840 0.960 . S
C2828 H2820 0.929 . S
C2828 C2829 1.377 1_565 S
C2828 C2830 1.384 . S
C2829 C2828 1.377 1_545 S
C2829 C2835 1.390 . S
C2830 H2821 0.930 . S
C2830 C2828 1.384 . S
C2830 C2831 1.372 . S
C2831 C2830 1.372 . S
C2831 C2832 1.400 1_565 S
C2831 C2836 1.490 . S
C2832 H2822 0.930 . S
C2832 C2831 1.400 1_545 S
C2832 C2835 1.386 . S
H2833 C2849 0.930 . S
H2834 C2850 0.931 . S
C2835 H2823 0.929 . S
C2835 C2829 1.390 . S
C2835 C2832 1.386 . S
C2836 C2831 1.490 . S
C2836 C2838 1.395 . S
C2836 C2839 1.403 . S
H2837 C2843 0.930 . S
C2838 H2824 0.930 . S
C2838 C2836 1.395 . S
C2838 C2841 1.403 . S
C2839 C2836 1.403 . S
C2839 C2840 1.524 1_565 S
C2839 C2843 1.400 . S
C2840 H2825 0.960 . S
C2840 H2826 0.960 . S
C2840 H2827 0.960 . S
C2840 C2839 1.524 1_545 S
C2841 C2838 1.403 . S
C2841 C2842 1.392 . S
C2841 C2845 1.495 . S
C2842 C2841 1.392 . S
C2842 C2843 1.385 . S
C2842 C2844 1.478 . S
C2843 H2837 0.930 . S
C2843 C2839 1.400 . S
C2843 C2842 1.385 . S
C2844 C2842 1.478 . S
C2844 C2846 1.381 . S
C2844 C2850 1.383 . S
C2845 C2841 1.495 . S
C2845 H2851 0.959 . S
C2845 H2852 0.961 . S
C2845 H2853 0.960 . S
C2846 C2844 1.381 . S
C2846 C2847 1.394 . S
C2846 H2854 0.930 . S
C2847 C2846 1.394 . S
C2847 C2848 1.383 . S
C2847 H2855 0.929 . S
C2848 C2847 1.383 . S
C2848 C2849 1.377 . S
C2849 H2833 0.930 . S
C2849 C2848 1.377 . S
C2849 C2850 1.379 . S
C2850 H2834 0.931 . S
C2850 C2844 1.383 . S
C2850 C2849 1.379 . S
H2851 C2845 0.959 . S
H2852 C2845 0.961 . S
H2853 C2845 0.960 . S
H2854 C2846 0.930 . S
H2855 C2847 0.929 . S
H2856 C2864 0.929 . S
H2857 C2866 0.930 . S
H2858 C2868 0.930 . S
H2859 C2871 0.929 . S
H2860 C2874 0.930 . S
H2861 C2876 0.960 1_565 S
H2862 C2876 0.960 . S
H2863 C2876 0.960 . S
C2864 H2856 0.929 . S
C2864 C2865 1.377 . S
C2864 C2866 1.384 . S
C2865 C2864 1.377 . S
C2865 C2871 1.390 . S
C2866 H2857 0.930 . S
C2866 C2864 1.384 . S
C2866 C2867 1.372 . S
C2867 C2866 1.372 . S
C2867 C2868 1.400 . S
C2867 C2872 1.490 . S
C2868 H2858 0.930 . S
C2868 C2867 1.400 . S
C2868 C2871 1.386 . S
H2869 C2885 0.930 . S
H2870 C2886 0.931 . S
C2871 H2859 0.929 . S
C2871 C2865 1.390 . S
C2871 C2868 1.386 . S
C2872 C2867 1.490 . S
C2872 C2874 1.395 . S
C2872 C2875 1.403 . S
H2873 C2879 0.894 1_565 S
C2874 H2860 0.930 . S
C2874 C2872 1.395 . S
C2874 C2877 1.403 . S
C2875 C2872 1.403 . S
C2875 C2876 1.524 . S
C2875 C2879 1.400 . S
C2876 H2861 0.960 1_545 S
C2876 H2862 0.960 . S
C2876 H2863 0.960 . S
C2876 C2875 1.524 . S
C2877 C2874 1.403 . S
C2877 C2878 1.392 . S
C2877 C2881 1.495 . S
C2878 C2877 1.392 . S
C2878 C2879 1.385 . S
C2878 C2880 1.478 . S
C2879 H2873 0.894 1_545 S
C2879 C2875 1.400 . S
C2879 C2878 1.385 . S
C2880 C2878 1.478 . S
C2880 C2882 1.381 . S
C2880 C2886 1.383 . S
C2881 C2877 1.495 . S
C2881 H2887 0.959 . S
C2881 H2888 0.961 . S
C2881 H2889 0.960 . S
C2882 C2880 1.381 . S
C2882 C2883 1.371 1_545 S
C2882 H2890 0.930 . S
C2883 C2882 1.371 1_565 S
C2883 C2884 1.404 . S
C2883 H2891 0.933 . S
C2884 C2883 1.404 . S
C2884 C2885 1.377 . S
C2885 H2869 0.930 . S
C2885 C2884 1.377 . S
C2885 C2886 1.379 1_565 S
C2886 H2870 0.931 . S
C2886 C2880 1.383 . S
C2886 C2885 1.379 1_545 S
H2887 C2881 0.959 . S
H2888 C2881 0.961 . S
H2889 C2881 0.960 . S
H2890 C2882 0.930 . S
H2891 C2883 0.933 . S
H2892 C2900 0.929 . S
H2893 C2902 0.930 . S
H2894 C2904 0.930 . S
H2895 C2907 0.929 . S
H2896 C2910 0.930 . S
H2897 C2912 0.960 . S
H2898 C2912 0.960 . S
H2899 C2912 0.960 . S
C2900 H2892 0.929 . S
C2900 C2901 1.377 . S
C2900 C2902 1.384 . S
C2901 C2900 1.377 . S
C2901 C2907 1.390 . S
C2902 H2893 0.930 . S
C2902 C2900 1.384 . S
C2902 C2903 1.372 . S
C2903 C2902 1.372 . S
C2903 C2904 1.400 . S
C2903 C2908 1.490 . S
C2904 H2894 0.930 . S
C2904 C2903 1.400 . S
C2904 C2907 1.386 . S
H2905 C2921 0.930 . S
H2906 C2922 0.931 . S
C2907 H2895 0.929 . S
C2907 C2901 1.390 . S
C2907 C2904 1.386 . S
C2908 C2903 1.490 . S
C2908 C2910 1.395 . S
C2908 C2911 1.403 . S
H2909 C2915 0.930 . S
C2910 H2896 0.930 . S
C2910 C2908 1.395 . S
C2910 C2913 1.403 . S
C2911 C2908 1.403 . S
C2911 C2912 1.524 . S
C2911 C2915 1.400 . S
C2912 H2897 0.960 . S
C2912 H2898 0.960 . S
C2912 H2899 0.960 . S
C2912 C2911 1.524 . S
C2913 C2910 1.403 . S
C2913 C2914 1.392 . S
C2913 C2917 1.495 . S
C2914 C2913 1.392 . S
C2914 C2915 1.385 . S
C2914 C2916 1.478 . S
C2915 H2909 0.930 . S
C2915 C2911 1.400 . S
C2915 C2914 1.385 . S
C2916 C2914 1.478 . S
C2916 C2918 1.381 . S
C2916 C2922 1.383 . S
C2917 C2913 1.495 . S
C2917 H2923 0.959 . S
C2917 H2924 0.961 . S
C2917 H2925 0.960 . S
C2918 C2916 1.381 . S
C2918 C2919 1.394 . S
C2918 H2926 0.930 . S
C2919 C2918 1.394 . S
C2919 C2920 1.383 . S
C2919 H2927 0.929 1_455 S
C2920 C2919 1.383 . S
C2920 C2921 1.377 . S
C2921 H2905 0.930 . S
C2921 C2920 1.377 . S
C2921 C2922 1.379 . S
C2922 H2906 0.931 . S
C2922 C2916 1.383 . S
C2922 C2921 1.379 . S
H2923 C2917 0.959 . S
H2924 C2917 0.961 . S
H2925 C2917 0.960 . S
H2926 C2918 0.930 . S
H2927 C2919 0.929 1_655 S
H2928 C2936 0.929 . S
H2929 C2938 0.930 . S
H2930 C2940 0.930 . S
H2931 C2943 0.929 . S
H2932 C2946 0.930 . S
H2933 C2948 0.960 . S
H2934 C2948 0.960 . S
H2935 C2948 0.960 . S
C2936 H2928 0.929 . S
C2936 C2937 1.377 . S
C2936 C2938 1.384 . S
C2937 C2936 1.377 . S
C2937 C2943 1.390 . S
C2938 H2929 0.930 . S
C2938 C2936 1.384 . S
C2938 C2939 1.372 . S
C2939 C2938 1.372 . S
C2939 C2940 1.400 . S
C2939 C2944 1.490 . S
C2940 H2930 0.930 . S
C2940 C2939 1.400 . S
C2940 C2943 1.386 . S
H2941 C2957 0.930 . S
H2942 C2958 0.931 . S
C2943 H2931 0.929 . S
C2943 C2937 1.390 . S
C2943 C2940 1.386 . S
C2944 C2939 1.490 . S
C2944 C2946 1.395 . S
C2944 C2947 1.403 . S
H2945 C2951 0.930 . S
C2946 H2932 0.930 . S
C2946 C2944 1.395 . S
C2946 C2949 1.403 . S
C2947 C2944 1.403 . S
C2947 C2948 1.524 . S
C2947 C2951 1.400 . S
C2948 H2933 0.960 . S
C2948 H2934 0.960 . S
C2948 H2935 0.960 . S
C2948 C2947 1.524 . S
C2949 C2946 1.403 . S
C2949 C2950 1.392 . S
C2949 C2953 1.495 . S
C2950 C2949 1.392 . S
C2950 C2951 1.385 . S
C2950 C2952 1.478 . S
C2951 H2945 0.930 . S
C2951 C2947 1.400 . S
C2951 C2950 1.385 . S
C2952 C2950 1.478 . S
C2952 C2954 1.381 . S
C2952 C2958 1.383 . S
C2953 C2949 1.495 . S
C2953 H2959 0.959 . S
C2953 H2960 0.961 . S
C2953 H2961 0.960 . S
C2954 C2952 1.381 . S
C2954 C2955 1.394 . S
C2954 H2962 0.930 . S
C2955 C2954 1.394 . S
C2955 C2956 1.383 . S
C2955 H2963 0.929 . S
C2956 C2955 1.383 . S
C2956 C2957 1.377 . S
C2957 H2941 0.930 . S
C2957 C2956 1.377 . S
C2957 C2958 1.379 . S
C2958 H2942 0.931 . S
C2958 C2952 1.383 . S
C2958 C2957 1.379 . S
H2959 C2953 0.959 . S
H2960 C2953 0.961 . S
H2961 C2953 0.960 . S
H2962 C2954 0.930 . S
H2963 C2955 0.929 . S
H2964 C2972 0.929 . S
H2965 C2974 0.930 . S
H2966 C2976 0.930 . S
H2967 C2979 0.929 . S
H2968 C2982 0.930 . S
H2969 C2984 0.960 . S
H2970 C2984 0.960 . S
H2971 C2984 0.960 . S
C2972 H2964 0.929 . S
C2972 C2973 1.377 . S
C2972 C2974 1.384 . S
C2973 C2972 1.377 . S
C2973 C2979 1.390 . S
C2974 H2965 0.930 . S
C2974 C2972 1.384 . S
C2974 C2975 1.372 . S
C2975 C2974 1.372 . S
C2975 C2976 1.400 . S
C2975 C2980 1.490 . S
C2976 H2966 0.930 . S
C2976 C2975 1.400 . S
C2976 C2979 1.386 . S
H2977 C2993 0.930 . S
H2978 C2994 0.931 . S
C2979 H2967 0.929 . S
C2979 C2973 1.390 . S
C2979 C2976 1.386 . S
C2980 C2975 1.490 . S
C2980 C2982 1.395 . S
C2980 C2983 1.403 . S
H2981 C2987 0.930 . S
C2982 H2968 0.930 . S
C2982 C2980 1.395 . S
C2982 C2985 1.403 . S
C2983 C2980 1.403 . S
C2983 C2984 1.524 . S
C2983 C2987 1.400 . S
C2984 H2969 0.960 . S
C2984 H2970 0.960 . S
C2984 H2971 0.960 . S
C2984 C2983 1.524 . S
C2985 C2982 1.403 . S
C2985 C2986 1.392 . S
C2985 C2989 1.495 1_556 S
C2986 C2985 1.392 . S
C2986 C2987 1.385 . S
C2986 C2988 1.478 . S
C2987 H2981 0.930 . S
C2987 C2983 1.400 . S
C2987 C2986 1.385 . S
C2988 C2986 1.478 . S
C2988 C2990 1.381 1_556 S
C2988 C2994 1.383 . S
C2989 C2985 1.495 1_554 S
C2989 H2995 0.959 . S
C2989 H2996 0.961 . S
C2989 H2997 0.960 . S
C2990 C2988 1.381 1_554 S
C2990 C2991 1.394 . S
C2990 H2998 0.930 . S
C2991 C2990 1.394 . S
C2991 C2992 1.383 . S
C2991 H2999 0.929 . S
C2992 C2991 1.383 . S
C2992 C2993 1.377 . S
C2993 H2977 0.930 . S
C2993 C2992 1.377 . S
C2993 C2994 1.379 1_554 S
C2994 H2978 0.931 . S
C2994 C2988 1.383 . S
C2994 C2993 1.379 1_556 S
H2995 C2989 0.959 . S
H2996 C2989 0.961 . S
H2997 C2989 0.960 . S
H2998 C2990 0.930 . S
H2999 C2991 0.929 . S
H3000 C3008 0.929 1_545 S
H3001 C3010 0.930 . S
H3002 C3012 0.930 . S
H3003 C3015 0.929 . S
H3004 C3018 0.930 . S
H3005 C3020 0.960 . S
H3006 C3020 0.960 . S
H3007 C3020 0.960 . S
C3008 H3000 0.929 1_565 S
C3008 C3009 1.377 . S
C3008 C3010 1.384 . S
C3009 C3008 1.377 . S
C3009 C3015 1.390 . S
C3010 H3001 0.930 . S
C3010 C3008 1.384 . S
C3010 C3011 1.372 . S
C3011 C3010 1.372 . S
C3011 C3012 1.400 . S
C3011 C3016 1.490 . S
C3012 H3002 0.930 . S
C3012 C3011 1.400 . S
C3012 C3015 1.386 . S
H3013 C3029 0.930 . S
H3014 C3030 0.931 . S
C3015 H3003 0.929 . S
C3015 C3009 1.390 . S
C3015 C3012 1.386 . S
C3016 C3011 1.490 . S
C3016 C3018 1.395 . S
C3016 C3019 1.403 . S
H3017 C3023 0.930 . S
C3018 H3004 0.930 . S
C3018 C3016 1.395 . S
C3018 C3021 1.403 . S
C3019 C3016 1.403 . S
C3019 C3020 1.524 . S
C3019 C3023 1.400 . S
C3020 H3005 0.960 . S
C3020 H3006 0.960 . S
C3020 H3007 0.960 . S
C3020 C3019 1.524 . S
C3021 C3018 1.403 . S
C3021 C3022 1.392 . S
C3021 C3025 1.495 . S
C3022 C3021 1.392 . S
C3022 C3023 1.385 . S
C3022 C3024 1.478 . S
C3023 H3017 0.930 . S
C3023 C3019 1.400 . S
C3023 C3022 1.385 . S
C3024 C3022 1.478 . S
C3024 C3026 1.381 . S
C3024 C3030 1.383 . S
C3025 C3021 1.495 . S
C3025 H3031 0.959 . S
C3025 H3032 0.961 . S
C3025 H3033 0.960 . S
C3026 C3024 1.381 . S
C3026 C3027 1.394 . S
C3026 H3034 0.930 . S
C3027 C3026 1.394 . S
C3027 C3028 1.383 . S
C3027 H3035 0.929 . S
C3028 C3027 1.383 . S
C3028 C3029 1.377 . S
C3029 H3013 0.930 . S
C3029 C3028 1.377 . S
C3029 C3030 1.379 . S
C3030 H3014 0.931 . S
C3030 C3024 1.383 . S
C3030 C3029 1.379 . S
H3031 C3025 0.959 . S
H3032 C3025 0.961 . S
H3033 C3025 0.960 . S
H3034 C3026 0.930 . S
H3035 C3027 0.929 . S
H3036 C3044 0.929 . S
H3037 C3046 0.930 . S
H3038 C3048 0.930 . S
H3039 C3051 0.929 1_565 S
H3040 C3054 0.930 . S
H3041 C3056 0.960 . S
H3042 C3056 0.960 . S
H3043 C3056 0.960 . S
C3044 H3036 0.929 . S
C3044 C3045 1.377 . S
C3044 C3046 1.384 . S
C3045 C3044 1.377 . S
C3045 C3051 1.390 . S
C3046 H3037 0.930 . S
C3046 C3044 1.384 . S
C3046 C3047 1.372 . S
C3047 C3046 1.372 . S
C3047 C3048 1.400 . S
C3047 C3052 1.490 . S
C3048 H3038 0.930 . S
C3048 C3047 1.400 . S
C3048 C3051 1.386 . S
H3049 C3065 0.930 . S
H3050 C3066 0.931 . S
C3051 H3039 0.929 1_545 S
C3051 C3045 1.390 . S
C3051 C3048 1.386 . S
C3052 C3047 1.490 . S
C3052 C3054 1.395 . S
C3052 C3055 1.403 . S
H3053 C3059 0.930 . S
C3054 H3040 0.930 . S
C3054 C3052 1.395 . S
C3054 C3057 1.403 . S
C3055 C3052 1.403 . S
C3055 C3056 1.524 . S
C3055 C3059 1.400 . S
C3056 H3041 0.960 . S
C3056 H3042 0.960 . S
C3056 H3043 0.960 . S
C3056 C3055 1.524 . S
C3057 C3054 1.403 . S
C3057 C3058 1.392 . S
C3057 C3061 1.495 . S
C3058 C3057 1.392 . S
C3058 C3059 1.385 . S
C3058 C3060 1.478 . S
C3059 H3053 0.930 . S
C3059 C3055 1.400 . S
C3059 C3058 1.385 . S
C3060 C3058 1.478 . S
C3060 C3062 1.381 . S
C3060 C3066 1.383 1_554 S
C3061 C3057 1.495 . S
C3061 H3067 0.959 . S
C3061 H3068 0.961 . S
C3061 H3069 0.960 . S
C3062 C3060 1.381 . S
C3062 C3063 1.394 . S
C3062 H3070 0.930 . S
C3063 C3062 1.394 . S
C3063 C3064 1.383 1_554 S
C3063 H3071 0.929 . S
C3064 C3063 1.383 1_556 S
C3064 C3065 1.377 . S
C3065 H3049 0.930 . S
C3065 C3064 1.377 . S
C3065 C3066 1.379 . S
C3066 H3050 0.931 . S
C3066 C3060 1.383 1_556 S
C3066 C3065 1.379 . S
H3067 C3061 0.959 . S
H3068 C3061 0.961 . S
H3069 C3061 0.960 . S
H3070 C3062 0.930 . S
H3071 C3063 0.929 . S
H3072 C3080 0.929 . S
H3073 C3082 0.930 . S
H3074 C3084 0.930 . S
H3075 C3087 0.929 . S
H3076 C3090 0.930 . S
H3077 C3092 0.960 . S
H3078 C3092 0.960 . S
H3079 C3092 0.960 . S
C3080 H3072 0.929 . S
C3080 C3081 1.377 . S
C3080 C3082 1.384 . S
C3081 C3080 1.377 . S
C3081 C3087 1.390 . S
C3082 H3073 0.930 . S
C3082 C3080 1.384 . S
C3082 C3083 1.372 . S
C3083 C3082 1.372 . S
C3083 C3084 1.400 . S
C3083 C3088 1.490 . S
C3084 H3074 0.930 . S
C3084 C3083 1.400 . S
C3084 C3087 1.386 . S
H3085 C3101 0.930 . S
H3086 C3102 0.931 . S
C3087 H3075 0.929 . S
C3087 C3081 1.390 . S
C3087 C3084 1.386 . S
C3088 C3083 1.490 . S
C3088 C3090 1.395 . S
C3088 C3091 1.403 . S
H3089 C3095 0.930 . S
C3090 H3076 0.930 . S
C3090 C3088 1.395 . S
C3090 C3093 1.403 . S
C3091 C3088 1.403 . S
C3091 C3092 1.524 . S
C3091 C3095 1.400 . S
C3092 H3077 0.960 . S
C3092 H3078 0.960 . S
C3092 H3079 0.960 . S
C3092 C3091 1.524 . S
C3093 C3090 1.403 . S
C3093 C3094 1.392 . S
C3093 C3097 1.495 . S
C3094 C3093 1.392 . S
C3094 C3095 1.385 . S
C3094 C3096 1.478 . S
C3095 H3089 0.930 . S
C3095 C3091 1.400 . S
C3095 C3094 1.385 . S
C3096 C3094 1.478 . S
C3096 C3098 1.381 . S
C3096 C3102 1.383 . S
C3097 C3093 1.495 . S
C3097 H3103 0.959 . S
C3097 H3104 0.961 . S
C3097 H3105 0.960 . S
C3098 C3096 1.381 . S
C3098 C3099 1.394 . S
C3098 H3106 0.930 . S
C3099 C3098 1.394 . S
C3099 C3100 1.383 . S
C3099 H3107 0.929 . S
C3100 C3099 1.383 . S
C3100 C3101 1.377 . S
C3101 H3085 0.930 . S
C3101 C3100 1.377 . S
C3101 C3102 1.379 . S
C3102 H3086 0.931 . S
C3102 C3096 1.383 . S
C3102 C3101 1.379 . S
H3103 C3097 0.959 . S
H3104 C3097 0.961 . S
H3105 C3097 0.960 . S
H3106 C3098 0.930 . S
H3107 C3099 0.929 . S
H3108 C3116 0.929 . S
H3109 C3118 0.930 . S
H3110 C3120 0.930 . S
H3111 C3123 0.929 . S
H3112 C3126 0.930 . S
H3113 C3128 0.960 . S
H3114 C3128 0.960 . S
H3115 C3128 0.960 . S
C3116 H3108 0.929 . S
C3116 C3117 1.377 . S
C3116 C3118 1.384 1_655 S
C3117 C3116 1.377 . S
C3117 C3123 1.390 . S
C3118 H3109 0.930 . S
C3118 C3116 1.384 1_455 S
C3118 C3119 1.372 . S
C3119 C3118 1.372 . S
C3119 C3120 1.400 . S
C3119 C3124 1.490 . S
C3120 H3110 0.930 . S
C3120 C3119 1.400 . S
C3120 C3123 1.386 1_455 S
H3121 C3137 0.930 1_556 S
H3122 C3138 0.931 . S
C3123 H3111 0.929 . S
C3123 C3117 1.390 . S
C3123 C3120 1.386 1_655 S
C3124 C3119 1.490 . S
C3124 C3126 1.395 . S
C3124 C3127 1.403 . S
H3125 C3131 0.930 . S
C3126 H3112 0.930 . S
C3126 C3124 1.395 . S
C3126 C3129 1.403 . S
C3127 C3124 1.403 . S
C3127 C3128 1.524 1_455 S
C3127 C3131 1.400 . S
C3128 H3113 0.960 . S
C3128 H3114 0.960 . S
C3128 H3115 0.960 . S
C3128 C3127 1.524 1_655 S
C3129 C3126 1.403 . S
C3129 C3130 1.392 . S
C3129 C3133 1.495 . S
C3130 C3129 1.392 . S
C3130 C3131 1.385 . S
C3130 C3132 1.478 . S
C3131 H3125 0.930 . S
C3131 C3127 1.400 . S
C3131 C3130 1.385 . S
C3132 C3130 1.478 . S
C3132 C3134 1.381 . S
C3132 C3138 1.383 . S
C3133 C3129 1.495 . S
C3133 H3139 0.959 . S
C3133 H3140 0.961 . S
C3133 H3141 0.960 . S
C3134 C3132 1.381 . S
C3134 C3135 1.394 . S
C3134 H3142 0.930 . S
C3135 C3134 1.394 . S
C3135 C3136 1.383 . S
C3135 H3143 0.929 . S
C3136 C3135 1.383 . S
C3136 C3137 1.377 . S
C3137 H3121 0.930 1_554 S
C3137 C3136 1.377 . S
C3137 C3138 1.379 . S
C3138 H3122 0.931 . S
C3138 C3132 1.383 . S
C3138 C3137 1.379 . S
H3139 C3133 0.959 . S
H3140 C3133 0.961 . S
H3141 C3133 0.960 . S
H3142 C3134 0.930 . S
H3143 C3135 0.929 . S
H3144 C3152 0.929 . S
H3145 C3154 0.930 . S
H3146 C3156 0.930 . S
H3147 C3159 0.929 . S
H3148 C3162 0.930 . S
H3149 C3164 0.960 . S
H3150 C3164 0.960 . S
H3151 C3164 0.960 . S
C3152 H3144 0.929 . S
C3152 C3153 1.377 . S
C3152 C3154 1.384 1_455 S
C3153 C3152 1.377 . S
C3153 C3159 1.390 . S
C3154 H3145 0.930 . S
C3154 C3152 1.384 1_655 S
C3154 C3155 1.372 . S
C3155 C3154 1.372 . S
C3155 C3156 1.400 . S
C3155 C3160 1.490 . S
C3156 H3146 0.930 . S
C3156 C3155 1.400 . S
C3156 C3159 1.386 1_655 S
H3157 C3173 0.930 . S
H3158 C3174 0.931 . S
C3159 H3147 0.929 . S
C3159 C3153 1.390 . S
C3159 C3156 1.386 1_455 S
C3160 C3155 1.490 . S
C3160 C3162 1.395 . S
C3160 C3163 1.403 . S
H3161 C3167 0.930 . S
C3162 H3148 0.930 . S
C3162 C3160 1.395 . S
C3162 C3165 1.403 . S
C3163 C3160 1.403 . S
C3163 C3164 1.524 1_655 S
C3163 C3167 1.400 . S
C3164 H3149 0.960 . S
C3164 H3150 0.960 . S
C3164 H3151 0.960 . S
C3164 C3163 1.524 1_455 S
C3165 C3162 1.403 . S
C3165 C3166 1.392 . S
C3165 C3169 1.495 . S
C3166 C3165 1.392 . S
C3166 C3167 1.385 . S
C3166 C3168 1.478 . S
C3167 H3161 0.930 . S
C3167 C3163 1.400 . S
C3167 C3166 1.385 . S
C3168 C3166 1.478 . S
C3168 C3170 1.381 . S
C3168 C3174 1.383 . S
C3169 C3165 1.495 . S
C3169 H3175 0.959 . S
C3169 H3176 0.961 . S
C3169 H3177 0.960 . S
C3170 C3168 1.381 . S
C3170 C3171 1.394 . S
C3170 H3178 0.930 . S
C3171 C3170 1.394 . S
C3171 C3172 1.383 . S
C3171 H3179 0.929 . S
C3172 C3171 1.383 . S
C3172 C3173 1.377 . S
C3173 H3157 0.930 . S
C3173 C3172 1.377 . S
C3173 C3174 1.379 . S
C3174 H3158 0.931 . S
C3174 C3168 1.383 . S
C3174 C3173 1.379 . S
H3175 C3169 0.959 . S
H3176 C3169 0.961 . S
H3177 C3169 0.960 . S
H3178 C3170 0.930 . S
H3179 C3171 0.929 . S
H3180 C3188 0.929 . S
H3181 C3190 0.930 . S
H3182 C3192 0.930 . S
H3183 C3195 0.929 . S
H3184 C3198 0.930 . S
H3185 C3200 0.960 . S
H3186 C3200 0.960 . S
H3187 C3200 0.960 . S
C3188 H3180 0.929 . S
C3188 C3189 1.377 . S
C3188 C3190 1.384 . S
C3189 C3188 1.377 . S
C3189 C3195 1.390 . S
C3190 H3181 0.930 . S
C3190 C3188 1.384 . S
C3190 C3191 1.372 . S
C3191 C3190 1.372 . S
C3191 C3192 1.400 . S
C3191 C3196 1.490 . S
C3192 H3182 0.930 . S
C3192 C3191 1.400 . S
C3192 C3195 1.386 . S
H3193 C3209 0.930 . S
H3194 C3210 0.931 . S
C3195 H3183 0.929 . S
C3195 C3189 1.390 . S
C3195 C3192 1.386 . S
C3196 C3191 1.490 . S
C3196 C3198 1.395 . S
C3196 C3199 1.403 . S
H3197 C3203 0.930 . S
C3198 H3184 0.930 . S
C3198 C3196 1.395 . S
C3198 C3201 1.403 . S
C3199 C3196 1.403 . S
C3199 C3200 1.524 . S
C3199 C3203 1.400 . S
C3200 H3185 0.960 . S
C3200 H3186 0.960 . S
C3200 H3187 0.960 . S
C3200 C3199 1.524 . S
C3201 C3198 1.403 . S
C3201 C3202 1.392 . S
C3201 C3205 1.495 . S
C3202 C3201 1.392 . S
C3202 C3203 1.385 . S
C3202 C3204 1.478 . S
C3203 H3197 0.930 . S
C3203 C3199 1.400 . S
C3203 C3202 1.385 . S
C3204 C3202 1.478 . S
C3204 C3206 1.381 . S
C3204 C3210 1.383 . S
C3205 C3201 1.495 . S
C3205 H3211 0.959 . S
C3205 H3212 0.961 . S
C3205 H3213 0.960 . S
C3206 C3204 1.381 . S
C3206 C3207 1.394 . S
C3206 H3214 0.930 . S
C3207 C3206 1.394 . S
C3207 C3208 1.383 . S
C3207 H3215 0.929 . S
C3208 C3207 1.383 . S
C3208 C3209 1.377 . S
C3209 H3193 0.930 . S
C3209 C3208 1.377 . S
C3209 C3210 1.379 . S
C3210 H3194 0.931 . S
C3210 C3204 1.383 . S
C3210 C3209 1.379 . S
H3211 C3205 0.959 . S
H3212 C3205 0.961 . S
H3213 C3205 0.960 . S
H3214 C3206 0.930 . S
H3215 C3207 0.929 . S
H3216 C3224 0.929 . S
H3217 C3226 0.930 . S
H3218 C3228 0.930 . S
H3219 C3231 0.929 . S
H3220 C3234 0.930 . S
H3221 C3236 0.960 . S
H3222 C3236 0.960 . S
H3223 C3236 0.960 . S
C3224 H3216 0.929 . S
C3224 C3225 1.377 . S
C3224 C3226 1.384 . S
C3225 C3224 1.377 . S
C3225 C3231 1.390 . S
C3226 H3217 0.930 . S
C3226 C3224 1.384 . S
C3226 C3227 1.372 . S
C3227 C3226 1.372 . S
C3227 C3228 1.400 . S
C3227 C3232 1.490 . S
C3228 H3218 0.930 . S
C3228 C3227 1.400 . S
C3228 C3231 1.386 . S
H3229 C3245 0.930 . S
H3230 C3246 0.931 . S
C3231 H3219 0.929 . S
C3231 C3225 1.390 . S
C3231 C3228 1.386 . S
C3232 C3227 1.490 . S
C3232 C3234 1.395 . S
C3232 C3235 1.403 . S
H3233 C3239 0.930 . S
C3234 H3220 0.930 . S
C3234 C3232 1.395 . S
C3234 C3237 1.403 . S
C3235 C3232 1.403 . S
C3235 C3236 1.524 . S
C3235 C3239 1.400 . S
C3236 H3221 0.960 . S
C3236 H3222 0.960 . S
C3236 H3223 0.960 . S
C3236 C3235 1.524 . S
C3237 C3234 1.403 . S
C3237 C3238 1.392 . S
C3237 C3241 1.495 . S
C3238 C3237 1.392 . S
C3238 C3239 1.385 . S
C3238 C3240 1.478 . S
C3239 H3233 0.930 . S
C3239 C3235 1.400 . S
C3239 C3238 1.385 . S
C3240 C3238 1.478 . S
C3240 C3242 1.381 . S
C3240 C3246 1.383 . S
C3241 C3237 1.495 . S
C3241 H3247 0.959 . S
C3241 H3248 0.961 . S
C3241 H3249 0.960 . S
C3242 C3240 1.381 . S
C3242 C3243 1.394 . S
C3242 H3250 0.930 . S
C3243 C3242 1.394 . S
C3243 C3244 1.383 . S
C3243 H3251 0.929 . S
C3244 C3243 1.383 . S
C3244 C3245 1.377 . S
C3245 H3229 0.930 . S
C3245 C3244 1.377 . S
C3245 C3246 1.379 . S
C3246 H3230 0.931 . S
C3246 C3240 1.383 . S
C3246 C3245 1.379 . S
H3247 C3241 0.959 . S
H3248 C3241 0.961 . S
H3249 C3241 0.960 . S
H3250 C3242 0.930 . S
H3251 C3243 0.929 . S
H3252 C3260 0.929 . S
H3253 C3262 0.930 . S
H3254 C3264 0.930 . S
H3255 C3267 0.929 1_655 S
H3256 C3270 0.930 . S
H3257 C3272 0.960 . S
H3258 C3272 0.960 . S
H3259 C3272 0.960 . S
C3260 H3252 0.929 . S
C3260 C3261 1.377 . S
C3260 C3262 1.384 . S
C3261 C3260 1.377 . S
C3261 C3267 1.390 . S
C3262 H3253 0.930 . S
C3262 C3260 1.384 . S
C3262 C3263 1.372 . S
C3263 C3262 1.372 . S
C3263 C3264 1.400 . S
C3263 C3268 1.490 . S
C3264 H3254 0.930 . S
C3264 C3263 1.400 . S
C3264 C3267 1.386 . S
H3265 C3281 0.930 . S
H3266 C3282 0.931 . S
C3267 H3255 0.929 1_455 S
C3267 C3261 1.390 . S
C3267 C3264 1.386 . S
C3268 C3263 1.490 . S
C3268 C3270 1.395 . S
C3268 C3271 1.403 . S
H3269 C3275 0.930 . S
C3270 H3256 0.930 . S
C3270 C3268 1.395 . S
C3270 C3273 1.403 . S
C3271 C3268 1.403 . S
C3271 C3272 1.524 . S
C3271 C3275 1.400 . S
C3272 H3257 0.960 . S
C3272 H3258 0.960 . S
C3272 H3259 0.960 . S
C3272 C3271 1.524 . S
C3273 C3270 1.403 . S
C3273 C3274 1.392 . S
C3273 C3277 1.495 . S
C3274 C3273 1.392 . S
C3274 C3275 1.385 . S
C3274 C3276 1.478 . S
C3275 H3269 0.930 . S
C3275 C3271 1.400 . S
C3275 C3274 1.385 . S
C3276 C3274 1.478 . S
C3276 C3278 1.381 . S
C3276 C3282 1.383 1_545 S
C3277 C3273 1.495 . S
C3277 H3283 0.959 . S
C3277 H3284 0.961 . S
C3277 H3285 0.960 . S
C3278 C3276 1.381 . S
C3278 C3279 1.394 . S
C3278 H3286 0.930 . S
C3279 C3278 1.394 . S
C3279 C3280 1.383 1_545 S
C3279 H3287 0.929 . S
C3280 C3279 1.383 1_565 S
C3280 C3281 1.377 . S
C3281 H3265 0.930 . S
C3281 C3280 1.377 . S
C3281 C3282 1.379 . S
C3282 H3266 0.931 . S
C3282 C3276 1.383 1_565 S
C3282 C3281 1.379 . S
H3283 C3277 0.959 . S
H3284 C3277 0.961 . S
H3285 C3277 0.960 . S
H3286 C3278 0.930 . S
H3287 C3279 0.929 . S
H3288 C3296 0.929 . S
H3289 C3298 0.930 . S
H3290 C3300 0.930 . S
H3291 C3303 0.929 . S
H3292 C3306 0.930 . S
H3293 C3308 0.960 1_545 S
H3294 C3308 0.960 . S
H3295 C3308 0.960 . S
C3296 H3288 0.929 . S
C3296 C3297 1.377 . S
C3296 C3298 1.384 . S
C3297 C3296 1.377 . S
C3297 C3303 1.390 . S
C3298 H3289 0.930 . S
C3298 C3296 1.384 . S
C3298 C3299 1.372 . S
C3299 C3298 1.372 . S
C3299 C3300 1.400 . S
C3299 C3304 1.490 . S
C3300 H3290 0.930 . S
C3300 C3299 1.400 . S
C3300 C3303 1.386 . S
H3301 C3317 0.930 . S
H3302 C3318 0.931 . S
C3303 H3291 0.929 . S
C3303 C3297 1.390 . S
C3303 C3300 1.386 . S
C3304 C3299 1.490 . S
C3304 C3306 1.395 . S
C3304 C3307 1.403 . S
H3305 C3311 0.929 1_545 S
C3306 H3292 0.930 . S
C3306 C3304 1.395 . S
C3306 C3309 1.403 . S
C3307 C3304 1.403 . S
C3307 C3308 1.524 . S
C3307 C3311 1.400 . S
C3308 H3293 0.960 1_565 S
C3308 H3294 0.960 . S
C3308 H3295 0.960 . S
C3308 C3307 1.524 . S
C3309 C3306 1.403 . S
C3309 C3310 1.392 . S
C3309 C3313 1.495 . S
C3310 C3309 1.392 . S
C3310 C3311 1.385 . S
C3310 C3312 1.478 . S
C3311 H3305 0.929 1_565 S
C3311 C3307 1.400 . S
C3311 C3310 1.385 . S
C3312 C3310 1.478 . S
C3312 C3314 1.381 . S
C3312 C3318 1.383 . S
C3313 C3309 1.495 . S
C3313 H3319 0.959 . S
C3313 H3320 0.961 . S
C3313 H3321 0.960 . S
C3314 C3312 1.381 . S
C3314 C3315 1.394 1_565 S
C3314 H3322 0.930 . S
C3315 C3314 1.394 1_545 S
C3315 C3316 1.383 . S
C3315 H3323 0.929 . S
C3316 C3315 1.383 . S
C3316 C3317 1.377 . S
C3317 H3301 0.930 . S
C3317 C3316 1.377 . S
C3317 C3318 1.379 1_545 S
C3318 H3302 0.931 . S
C3318 C3312 1.383 . S
C3318 C3317 1.379 1_565 S
H3319 C3313 0.959 . S
H3320 C3313 0.961 . S
H3321 C3313 0.960 . S
H3322 C3314 0.930 . S
H3323 C3315 0.929 . S
H3324 C3332 0.929 . S
H3325 C3334 0.930 . S
H3326 C3336 0.930 . S
H3327 C3339 0.929 1_455 S
H3328 C3342 0.930 . S
H3329 C3344 0.960 . S
H3330 C3344 0.960 . S
H3331 C3344 0.960 . S
C3332 H3324 0.929 . S
C3332 C3333 1.377 . S
C3332 C3334 1.384 . S
C3333 C3332 1.377 . S
C3333 C3339 1.390 . S
C3334 H3325 0.930 . S
C3334 C3332 1.384 . S
C3334 C3335 1.372 . S
C3335 C3334 1.372 . S
C3335 C3336 1.400 . S
C3335 C3340 1.490 . S
C3336 H3326 0.930 . S
C3336 C3335 1.400 . S
C3336 C3339 1.386 . S
H3337 C3353 0.930 . S
H3338 C3354 0.931 . S
C3339 H3327 0.929 1_655 S
C3339 C3333 1.390 . S
C3339 C3336 1.386 . S
C3340 C3335 1.490 . S
C3340 C3342 1.395 . S
C3340 C3343 1.403 . S
H3341 C3347 0.930 . S
C3342 H3328 0.930 . S
C3342 C3340 1.395 . S
C3342 C3345 1.403 . S
C3343 C3340 1.403 . S
C3343 C3344 1.524 . S
C3343 C3347 1.400 . S
C3344 H3329 0.960 . S
C3344 H3330 0.960 . S
C3344 H3331 0.960 . S
C3344 C3343 1.524 . S
C3345 C3342 1.403 . S
C3345 C3346 1.392 . S
C3345 C3349 1.495 . S
C3346 C3345 1.392 . S
C3346 C3347 1.385 . S
C3346 C3348 1.478 . S
C3347 H3341 0.930 . S
C3347 C3343 1.400 . S
C3347 C3346 1.385 . S
C3348 C3346 1.478 . S
C3348 C3350 1.381 . S
C3348 C3354 1.383 . S
C3349 C3345 1.495 . S
C3349 H3355 0.959 . S
C3349 H3356 0.961 . S
C3349 H3357 0.960 . S
C3350 C3348 1.381 . S
C3350 C3351 1.394 . S
C3350 H3358 0.930 . S
C3351 C3350 1.394 . S
C3351 C3352 1.383 . S
C3351 H3359 0.929 . S
C3352 C3351 1.383 . S
C3352 C3353 1.377 . S
C3353 H3337 0.930 . S
C3353 C3352 1.377 . S
C3353 C3354 1.379 . S
C3354 H3338 0.931 . S
C3354 C3348 1.383 . S
C3354 C3353 1.379 . S
H3355 C3349 0.959 . S
H3356 C3349 0.961 . S
H3357 C3349 0.960 . S
H3358 C3350 0.930 . S
H3359 C3351 0.929 . S
H3360 C3368 0.929 . S
H3361 C3370 0.930 . S
H3362 C3372 0.930 . S
H3363 C3375 0.929 . S
H3364 C3378 0.930 . S
H3365 C3380 0.960 . S
H3366 C3380 0.960 . S
H3367 C3380 0.960 . S
C3368 H3360 0.929 . S
C3368 C3369 1.377 . S
C3368 C3370 1.384 . S
C3369 C3368 1.377 . S
C3369 C3375 1.390 . S
C3370 H3361 0.930 . S
C3370 C3368 1.384 . S
C3370 C3371 1.372 . S
C3371 C3370 1.372 . S
C3371 C3372 1.400 . S
C3371 C3376 1.490 . S
C3372 H3362 0.930 . S
C3372 C3371 1.400 . S
C3372 C3375 1.386 . S
H3373 C3389 0.930 . S
H3374 C3390 0.931 . S
C3375 H3363 0.929 . S
C3375 C3369 1.390 . S
C3375 C3372 1.386 . S
C3376 C3371 1.490 . S
C3376 C3378 1.395 . S
C3376 C3379 1.403 . S
H3377 C3383 0.930 . S
C3378 H3364 0.930 . S
C3378 C3376 1.395 . S
C3378 C3381 1.403 . S
C3379 C3376 1.403 . S
C3379 C3380 1.524 . S
C3379 C3383 1.400 . S
C3380 H3365 0.960 . S
C3380 H3366 0.960 . S
C3380 H3367 0.960 . S
C3380 C3379 1.524 . S
C3381 C3378 1.403 . S
C3381 C3382 1.392 . S
C3381 C3385 1.495 . S
C3382 C3381 1.392 . S
C3382 C3383 1.385 . S
C3382 C3384 1.478 . S
C3383 H3377 0.930 . S
C3383 C3379 1.400 . S
C3383 C3382 1.385 . S
C3384 C3382 1.478 . S
C3384 C3386 1.381 . S
C3384 C3390 1.383 . S
C3385 C3381 1.495 . S
C3385 H3391 0.959 . S
C3385 H3392 0.961 . S
C3385 H3393 0.960 . S
C3386 C3384 1.381 . S
C3386 C3387 1.394 . S
C3386 H3394 0.930 . S
C3387 C3386 1.394 . S
C3387 C3388 1.383 . S
C3387 H3395 0.929 . S
C3388 C3387 1.383 . S
C3388 C3389 1.377 . S
C3389 H3373 0.930 . S
C3389 C3388 1.377 . S
C3389 C3390 1.379 . S
C3390 H3374 0.931 . S
C3390 C3384 1.383 . S
C3390 C3389 1.379 . S
H3391 C3385 0.959 . S
H3392 C3385 0.961 . S
H3393 C3385 0.960 . S
H3394 C3386 0.930 . S
H3395 C3387 0.929 . S
H3396 C3404 0.929 . S
H3397 C3406 0.930 . S
H3398 C3408 0.930 . S
H3399 C3411 0.929 . S
H3400 C3414 0.930 . S
H3401 C3416 0.960 . S
H3402 C3416 0.960 . S
H3403 C3416 0.960 . S
C3404 H3396 0.929 . S
C3404 C3405 1.377 . S
C3404 C3406 1.384 . S
C3405 C3404 1.377 . S
C3405 C3411 1.390 . S
C3406 H3397 0.930 . S
C3406 C3404 1.384 . S
C3406 C3407 1.372 . S
C3407 C3406 1.372 . S
C3407 C3408 1.400 . S
C3407 C3412 1.490 . S
C3408 H3398 0.930 . S
C3408 C3407 1.400 . S
C3408 C3411 1.386 . S
H3409 C3425 0.930 . S
H3410 C3426 0.931 . S
C3411 H3399 0.929 . S
C3411 C3405 1.390 . S
C3411 C3408 1.386 . S
C3412 C3407 1.490 . S
C3412 C3414 1.395 . S
C3412 C3415 1.403 . S
H3413 C3419 0.930 . S
C3414 H3400 0.930 . S
C3414 C3412 1.395 . S
C3414 C3417 1.403 . S
C3415 C3412 1.403 . S
C3415 C3416 1.524 . S
C3415 C3419 1.400 . S
C3416 H3401 0.960 . S
C3416 H3402 0.960 . S
C3416 H3403 0.960 . S
C3416 C3415 1.524 . S
C3417 C3414 1.403 . S
C3417 C3418 1.392 . S
C3417 C3421 1.495 . S
C3418 C3417 1.392 . S
C3418 C3419 1.385 . S
C3418 C3420 1.478 . S
C3419 H3413 0.930 . S
C3419 C3415 1.400 . S
C3419 C3418 1.385 . S
C3420 C3418 1.478 . S
C3420 C3422 1.381 . S
C3420 C3426 1.383 . S
C3421 C3417 1.495 . S
C3421 H3427 0.959 . S
C3421 H3428 0.961 . S
C3421 H3429 0.960 . S
C3422 C3420 1.381 . S
C3422 C3423 1.394 1_554 S
C3422 H3430 0.930 . S
C3423 C3422 1.394 1_556 S
C3423 C3424 1.383 . S
C3423 H3431 0.929 . S
C3424 C3423 1.383 . S
C3424 C3425 1.377 1_556 S
C3425 H3409 0.930 . S
C3425 C3424 1.377 1_554 S
C3425 C3426 1.379 . S
C3426 H3410 0.931 . S
C3426 C3420 1.383 . S
C3426 C3425 1.379 . S
H3427 C3421 0.959 . S
H3428 C3421 0.961 . S
H3429 C3421 0.960 . S
H3430 C3422 0.930 . S
H3431 C3423 0.929 . S
H3432 C3440 0.929 . S
H3433 C3442 0.930 . S
H3434 C3444 0.930 . S
H3435 C3447 0.929 . S
H3436 C3450 0.930 . S
H3437 C3452 0.960 . S
H3438 C3452 0.960 . S
H3439 C3452 0.960 . S
C3440 H3432 0.929 . S
C3440 C3441 1.377 . S
C3440 C3442 1.384 . S
C3441 C3440 1.377 . S
C3441 C3447 1.390 . S
C3442 H3433 0.930 . S
C3442 C3440 1.384 . S
C3442 C3443 1.372 . S
C3443 C3442 1.372 . S
C3443 C3444 1.400 . S
C3443 C3448 1.490 . S
C3444 H3434 0.930 . S
C3444 C3443 1.400 . S
C3444 C3447 1.386 . S
H3445 C3461 0.930 . S
H3446 C3462 0.931 . S
C3447 H3435 0.929 . S
C3447 C3441 1.390 . S
C3447 C3444 1.386 . S
C3448 C3443 1.490 . S
C3448 C3450 1.395 . S
C3448 C3451 1.403 . S
H3449 C3455 0.930 . S
C3450 H3436 0.930 . S
C3450 C3448 1.395 . S
C3450 C3453 1.403 . S
C3451 C3448 1.403 . S
C3451 C3452 1.524 . S
C3451 C3455 1.400 . S
C3452 H3437 0.960 . S
C3452 H3438 0.960 . S
C3452 H3439 0.960 . S
C3452 C3451 1.524 . S
C3453 C3450 1.403 . S
C3453 C3454 1.392 . S
C3453 C3457 1.495 . S
C3454 C3453 1.392 . S
C3454 C3455 1.385 . S
C3454 C3456 1.478 . S
C3455 H3449 0.930 . S
C3455 C3451 1.400 . S
C3455 C3454 1.385 . S
C3456 C3454 1.478 . S
C3456 C3458 1.381 . S
C3456 C3462 1.383 . S
C3457 C3453 1.495 . S
C3457 H3463 0.959 . S
C3457 H3464 0.961 . S
C3457 H3465 0.960 . S
C3458 C3456 1.381 . S
C3458 C3459 1.394 . S
C3458 H3466 0.930 . S
C3459 C3458 1.394 . S
C3459 C3460 1.383 . S
C3459 H3467 0.929 . S
C3460 C3459 1.383 . S
C3460 C3461 1.377 . S
C3461 H3445 0.930 . S
C3461 C3460 1.377 . S
C3461 C3462 1.379 . S
C3462 H3446 0.931 . S
C3462 C3456 1.383 . S
C3462 C3461 1.379 . S
H3463 C3457 0.959 . S
H3464 C3457 0.961 . S
H3465 C3457 0.960 . S
H3466 C3458 0.930 . S
H3467 C3459 0.929 . S
H3468 C3476 0.929 . S
H3469 C3478 0.930 . S
H3470 C3480 0.930 . S
H3471 C3483 0.929 . S
H3472 C3486 0.930 . S
H3473 C3488 0.960 . S
H3474 C3488 0.960 . S
H3475 C3488 0.960 . S
C3476 H3468 0.929 . S
C3476 C3477 1.377 . S
C3476 C3478 1.384 . S
C3477 C3476 1.377 . S
C3477 C3483 1.390 . S
C3478 H3469 0.930 . S
C3478 C3476 1.384 . S
C3478 C3479 1.372 . S
C3479 C3478 1.372 . S
C3479 C3480 1.400 . S
C3479 C3484 1.490 . S
C3480 H3470 0.930 . S
C3480 C3479 1.400 . S
C3480 C3483 1.386 . S
H3481 C3497 0.930 . S
H3482 C3498 0.931 . S
C3483 H3471 0.929 . S
C3483 C3477 1.390 . S
C3483 C3480 1.386 . S
C3484 C3479 1.490 . S
C3484 C3486 1.395 . S
C3484 C3487 1.403 . S
H3485 C3491 0.930 . S
C3486 H3472 0.930 . S
C3486 C3484 1.395 . S
C3486 C3489 1.403 . S
C3487 C3484 1.403 . S
C3487 C3488 1.524 . S
C3487 C3491 1.400 . S
C3488 H3473 0.960 . S
C3488 H3474 0.960 . S
C3488 H3475 0.960 . S
C3488 C3487 1.524 . S
C3489 C3486 1.403 . S
C3489 C3490 1.392 . S
C3489 C3493 1.495 1_556 S
C3490 C3489 1.392 . S
C3490 C3491 1.385 . S
C3490 C3492 1.478 . S
C3491 H3485 0.930 . S
C3491 C3487 1.400 . S
C3491 C3490 1.385 . S
C3492 C3490 1.478 . S
C3492 C3494 1.381 1_556 S
C3492 C3498 1.383 . S
C3493 C3489 1.495 1_554 S
C3493 H3499 0.959 . S
C3493 H3500 0.961 . S
C3493 H3501 0.960 . S
C3494 C3492 1.381 1_554 S
C3494 C3495 1.394 . S
C3494 H3502 0.930 . S
C3495 C3494 1.394 . S
C3495 C3496 1.383 . S
C3495 H3503 0.929 . S
C3496 C3495 1.383 . S
C3496 C3497 1.377 1_554 S
C3497 H3481 0.930 . S
C3497 C3496 1.377 1_556 S
C3497 C3498 1.379 . S
C3498 H3482 0.931 . S
C3498 C3492 1.383 . S
C3498 C3497 1.379 . S
H3499 C3493 0.959 . S
H3500 C3493 0.961 . S
H3501 C3493 0.960 . S
H3502 C3494 0.930 . S
H3503 C3495 0.929 . S
H3504 C3512 0.929 . S
H3505 C3514 0.930 . S
H3506 C3516 0.930 . S
H3507 C3519 0.929 . S
H3508 C3522 0.930 . S
H3509 C3524 0.960 . S
H3510 C3524 0.960 . S
H3511 C3524 0.960 . S
C3512 H3504 0.929 . S
C3512 C3513 1.377 . S
C3512 C3514 1.384 . S
C3513 C3512 1.377 . S
C3513 C3519 1.390 . S
C3514 H3505 0.930 . S
C3514 C3512 1.384 . S
C3514 C3515 1.372 . S
C3515 C3514 1.372 . S
C3515 C3516 1.400 . S
C3515 C3520 1.490 . S
C3516 H3506 0.930 . S
C3516 C3515 1.400 . S
C3516 C3519 1.386 . S
H3517 C3533 0.930 . S
H3518 C3534 0.931 . S
C3519 H3507 0.929 . S
C3519 C3513 1.390 . S
C3519 C3516 1.386 . S
C3520 C3515 1.490 . S
C3520 C3522 1.395 . S
C3520 C3523 1.403 . S
H3521 C3527 0.930 . S
C3522 H3508 0.930 . S
C3522 C3520 1.395 . S
C3522 C3525 1.403 . S
C3523 C3520 1.403 . S
C3523 C3524 1.524 . S
C3523 C3527 1.400 . S
C3524 H3509 0.960 . S
C3524 H3510 0.960 . S
C3524 H3511 0.960 . S
C3524 C3523 1.524 . S
C3525 C3522 1.403 . S
C3525 C3526 1.392 . S
C3525 C3529 1.495 . S
C3526 C3525 1.392 . S
C3526 C3527 1.385 . S
C3526 C3528 1.478 . S
C3527 H3521 0.930 . S
C3527 C3523 1.400 . S
C3527 C3526 1.385 . S
C3528 C3526 1.478 . S
C3528 C3530 1.381 . S
C3528 C3534 1.383 . S
C3529 C3525 1.495 . S
C3529 H3535 0.959 . S
C3529 H3536 0.961 . S
C3529 H3537 0.960 . S
C3530 C3528 1.381 . S
C3530 C3531 1.394 . S
C3530 H3538 0.930 . S
C3531 C3530 1.394 . S
C3531 C3532 1.383 . S
C3531 H3539 0.929 . S
C3532 C3531 1.383 . S
C3532 C3533 1.377 . S
C3533 H3517 0.930 . S
C3533 C3532 1.377 . S
C3533 C3534 1.379 . S
C3534 H3518 0.931 . S
C3534 C3528 1.383 . S
C3534 C3533 1.379 . S
H3535 C3529 0.959 . S
H3536 C3529 0.961 . S
H3537 C3529 0.960 . S
H3538 C3530 0.930 . S
H3539 C3531 0.929 . S
H3540 C3548 0.929 . S
H3541 C3550 0.930 . S
H3542 C3552 0.930 . S
H3543 C3555 0.929 . S
H3544 C3558 0.930 . S
H3545 C3560 0.960 . S
H3546 C3560 0.960 . S
H3547 C3560 0.960 . S
C3548 H3540 0.929 . S
C3548 C3549 1.377 . S
C3548 C3550 1.384 . S
C3549 C3548 1.377 . S
C3549 C3555 1.390 . S
C3550 H3541 0.930 . S
C3550 C3548 1.384 . S
C3550 C3551 1.372 . S
C3551 C3550 1.372 . S
C3551 C3552 1.400 . S
C3551 C3556 1.490 . S
C3552 H3542 0.930 . S
C3552 C3551 1.400 . S
C3552 C3555 1.386 . S
H3553 C3569 0.930 . S
H3554 C3570 0.931 . S
C3555 H3543 0.929 . S
C3555 C3549 1.390 . S
C3555 C3552 1.386 . S
C3556 C3551 1.490 . S
C3556 C3558 1.395 . S
C3556 C3559 1.403 . S
H3557 C3563 0.930 . S
C3558 H3544 0.930 . S
C3558 C3556 1.395 . S
C3558 C3561 1.403 . S
C3559 C3556 1.403 . S
C3559 C3560 1.524 . S
C3559 C3563 1.400 . S
C3560 H3545 0.960 . S
C3560 H3546 0.960 . S
C3560 H3547 0.960 . S
C3560 C3559 1.524 . S
C3561 C3558 1.403 . S
C3561 C3562 1.392 . S
C3561 C3565 1.495 . S
C3562 C3561 1.392 . S
C3562 C3563 1.385 . S
C3562 C3564 1.478 . S
C3563 H3557 0.930 . S
C3563 C3559 1.400 . S
C3563 C3562 1.385 . S
C3564 C3562 1.478 . S
C3564 C3566 1.381 . S
C3564 C3570 1.383 1_655 S
C3565 C3561 1.495 . S
C3565 H3571 0.959 . S
C3565 H3572 0.961 . S
C3565 H3573 0.960 . S
C3566 C3564 1.381 . S
C3566 C3567 1.394 . S
C3566 H3574 0.930 . S
C3567 C3566 1.394 . S
C3567 C3568 1.383 1_655 S
C3567 H3575 0.929 . S
C3568 C3567 1.383 1_455 S
C3568 C3569 1.377 . S
C3569 H3553 0.930 . S
C3569 C3568 1.377 . S
C3569 C3570 1.379 . S
C3570 H3554 0.931 . S
C3570 C3564 1.383 1_455 S
C3570 C3569 1.379 . S
H3571 C3565 0.959 . S
H3572 C3565 0.961 . S
H3573 C3565 0.960 . S
H3574 C3566 0.930 . S
H3575 C3567 0.929 . S
H3576 C3584 0.929 . S
H3577 C3586 0.930 . S
H3578 C3588 0.930 . S
H3579 C3591 0.929 . S
H3580 C3594 0.930 . S
H3581 C3596 0.960 . S
H3582 C3596 0.960 1_655 S
H3583 C3596 0.960 . S
C3584 H3576 0.929 . S
C3584 C3585 1.377 . S
C3584 C3586 1.384 1_655 S
C3585 C3584 1.377 . S
C3585 C3591 1.390 . S
C3586 H3577 0.930 . S
C3586 C3584 1.384 1_455 S
C3586 C3587 1.372 . S
C3587 C3586 1.372 . S
C3587 C3588 1.400 . S
C3587 C3592 1.490 . S
C3588 H3578 0.930 . S
C3588 C3587 1.400 . S
C3588 C3591 1.386 1_455 S
H3589 C3605 0.930 . S
H3590 C3606 0.931 . S
C3591 H3579 0.929 . S
C3591 C3585 1.390 . S
C3591 C3588 1.386 1_655 S
C3592 C3587 1.490 . S
C3592 C3594 1.395 . S
C3592 C3595 1.403 . S
H3593 C3599 0.930 . S
C3594 H3580 0.930 . S
C3594 C3592 1.395 . S
C3594 C3597 1.403 . S
C3595 C3592 1.403 . S
C3595 C3596 1.524 . S
C3595 C3599 1.400 . S
C3596 H3581 0.960 . S
C3596 H3582 0.960 1_455 S
C3596 H3583 0.960 . S
C3596 C3595 1.524 . S
C3597 C3594 1.403 . S
C3597 C3598 1.392 . S
C3597 C3601 1.495 . S
C3598 C3597 1.392 . S
C3598 C3599 1.385 . S
C3598 C3600 1.478 . S
C3599 H3593 0.930 . S
C3599 C3595 1.400 . S
C3599 C3598 1.385 . S
C3600 C3598 1.478 . S
C3600 C3602 1.381 . S
C3600 C3606 1.383 . S
C3601 C3597 1.495 . S
C3601 H3607 0.959 . S
C3601 H3608 0.961 . S
C3601 H3609 0.960 . S
C3602 C3600 1.381 . S
C3602 C3603 1.394 . S
C3602 H3610 0.930 . S
C3603 C3602 1.394 . S
C3603 C3604 1.383 . S
C3603 H3611 0.929 . S
C3604 C3603 1.383 . S
C3604 C3605 1.377 . S
C3605 H3589 0.930 . S
C3605 C3604 1.377 . S
C3605 C3606 1.379 . S
C3606 H3590 0.931 . S
C3606 C3600 1.383 . S
C3606 C3605 1.379 . S
H3607 C3601 0.959 . S
H3608 C3601 0.961 . S
H3609 C3601 0.960 . S
H3610 C3602 0.930 . S
H3611 C3603 0.929 . S
H3612 C3620 0.929 . S
H3613 C3622 0.930 . S
H3614 C3624 0.930 . S
H3615 C3627 0.929 . S
H3616 C3630 0.930 . S
H3617 C3632 0.960 . S
H3618 C3632 0.960 . S
H3619 C3632 0.960 . S
C3620 H3612 0.929 . S
C3620 C3621 1.377 . S
C3620 C3622 1.384 . S
C3621 C3620 1.377 . S
C3621 C3627 1.390 . S
C3622 H3613 0.930 . S
C3622 C3620 1.384 . S
C3622 C3623 1.372 . S
C3623 C3622 1.372 . S
C3623 C3624 1.400 . S
C3623 C3628 1.490 . S
C3624 H3614 0.930 . S
C3624 C3623 1.400 . S
C3624 C3627 1.386 . S
H3625 C3641 0.930 . S
H3626 C3642 0.931 . S
C3627 H3615 0.929 . S
C3627 C3621 1.390 . S
C3627 C3624 1.386 . S
C3628 C3623 1.490 . S
C3628 C3630 1.395 . S
C3628 C3631 1.403 . S
H3629 C3635 0.930 . S
C3630 H3616 0.930 . S
C3630 C3628 1.395 . S
C3630 C3633 1.403 . S
C3631 C3628 1.403 . S
C3631 C3632 1.524 . S
C3631 C3635 1.400 . S
C3632 H3617 0.960 . S
C3632 H3618 0.960 . S
C3632 H3619 0.960 . S
C3632 C3631 1.524 . S
C3633 C3630 1.403 . S
C3633 C3634 1.392 . S
C3633 C3637 1.495 . S
C3634 C3633 1.392 . S
C3634 C3635 1.385 . S
C3634 C3636 1.478 . S
C3635 H3629 0.930 . S
C3635 C3631 1.400 . S
C3635 C3634 1.385 . S
C3636 C3634 1.478 . S
C3636 C3638 1.381 . S
C3636 C3642 1.383 . S
C3637 C3633 1.495 . S
C3637 H3643 0.959 . S
C3637 H3644 0.961 . S
C3637 H3645 0.960 . S
C3638 C3636 1.381 . S
C3638 C3639 1.394 . S
C3638 H3646 0.930 . S
C3639 C3638 1.394 . S
C3639 C3640 1.383 . S
C3639 H3647 0.929 . S
C3640 C3639 1.383 . S
C3640 C3641 1.377 . S
C3641 H3625 0.930 . S
C3641 C3640 1.377 . S
C3641 C3642 1.379 . S
C3642 H3626 0.931 . S
C3642 C3636 1.383 . S
C3642 C3641 1.379 . S
H3643 C3637 0.959 . S
H3644 C3637 0.961 . S
H3645 C3637 0.960 . S
H3646 C3638 0.930 . S
H3647 C3639 0.929 . S
H3648 C3656 0.929 . S
H3649 C3658 0.930 . S
H3650 C3660 0.930 . S
H3651 C3663 0.929 . S
H3652 C3666 0.930 . S
H3653 C3668 0.960 . S
H3654 C3668 0.960 . S
H3655 C3668 0.960 . S
C3656 H3648 0.929 . S
C3656 C3657 1.377 . S
C3656 C3658 1.384 . S
C3657 C3656 1.377 . S
C3657 C3663 1.390 . S
C3658 H3649 0.930 . S
C3658 C3656 1.384 . S
C3658 C3659 1.372 . S
C3659 C3658 1.372 . S
C3659 C3660 1.400 . S
C3659 C3664 1.490 . S
C3660 H3650 0.930 . S
C3660 C3659 1.400 . S
C3660 C3663 1.386 . S
H3661 C3677 0.930 . S
H3662 C3678 0.931 . S
C3663 H3651 0.929 . S
C3663 C3657 1.390 . S
C3663 C3660 1.386 . S
C3664 C3659 1.490 . S
C3664 C3666 1.395 . S
C3664 C3667 1.403 . S
H3665 C3671 0.930 . S
C3666 H3652 0.930 . S
C3666 C3664 1.395 . S
C3666 C3669 1.403 . S
C3667 C3664 1.403 . S
C3667 C3668 1.524 . S
C3667 C3671 1.400 . S
C3668 H3653 0.960 . S
C3668 H3654 0.960 . S
C3668 H3655 0.960 . S
C3668 C3667 1.524 . S
C3669 C3666 1.403 . S
C3669 C3670 1.392 . S
C3669 C3673 1.495 . S
C3670 C3669 1.392 . S
C3670 C3671 1.385 . S
C3670 C3672 1.478 . S
C3671 H3665 0.930 . S
C3671 C3667 1.400 . S
C3671 C3670 1.385 . S
C3672 C3670 1.478 . S
C3672 C3674 1.381 . S
C3672 C3678 1.383 . S
C3673 C3669 1.495 . S
C3673 H3679 0.959 . S
C3673 H3680 0.961 . S
C3673 H3681 0.960 . S
C3674 C3672 1.381 . S
C3674 C3675 1.394 . S
C3674 H3682 0.930 . S
C3675 C3674 1.394 . S
C3675 C3676 1.383 . S
C3675 H3683 0.929 . S
C3676 C3675 1.383 . S
C3676 C3677 1.377 . S
C3677 H3661 0.930 . S
C3677 C3676 1.377 . S
C3677 C3678 1.379 . S
C3678 H3662 0.931 . S
C3678 C3672 1.383 . S
C3678 C3677 1.379 . S
H3679 C3673 0.959 . S
H3680 C3673 0.961 . S
H3681 C3673 0.960 . S
H3682 C3674 0.930 . S
H3683 C3675 0.929 . S
H3684 C3692 0.929 . S
H3685 C3694 0.930 . S
H3686 C3696 0.930 . S
H3687 C3699 0.929 . S
H3688 C3702 0.930 . S
H3689 C3704 0.960 . S
H3690 C3704 0.960 . S
H3691 C3704 0.960 . S
C3692 H3684 0.929 . S
C3692 C3693 1.377 . S
C3692 C3694 1.384 . S
C3693 C3692 1.377 . S
C3693 C3699 1.390 . S
C3694 H3685 0.930 . S
C3694 C3692 1.384 . S
C3694 C3695 1.372 . S
C3695 C3694 1.372 . S
C3695 C3696 1.400 . S
C3695 C3700 1.490 . S
C3696 H3686 0.930 . S
C3696 C3695 1.400 . S
C3696 C3699 1.386 . S
H3697 C3713 0.930 . S
H3698 C3714 0.931 . S
C3699 H3687 0.929 . S
C3699 C3693 1.390 . S
C3699 C3696 1.386 . S
C3700 C3695 1.490 . S
C3700 C3702 1.395 . S
C3700 C3703 1.403 . S
H3701 C3707 0.930 . S
C3702 H3688 0.930 . S
C3702 C3700 1.395 . S
C3702 C3705 1.403 . S
C3703 C3700 1.403 . S
C3703 C3704 1.524 . S
C3703 C3707 1.400 . S
C3704 H3689 0.960 . S
C3704 H3690 0.960 . S
C3704 H3691 0.960 . S
C3704 C3703 1.524 . S
C3705 C3702 1.403 . S
C3705 C3706 1.392 . S
C3705 C3709 1.495 . S
C3706 C3705 1.392 . S
C3706 C3707 1.385 . S
C3706 C3708 1.478 . S
C3707 H3701 0.930 . S
C3707 C3703 1.400 . S
C3707 C3706 1.385 . S
C3708 C3706 1.478 . S
C3708 C3710 1.381 1_565 S
C3708 C3714 1.383 . S
C3709 C3705 1.495 . S
C3709 H3715 0.959 . S
C3709 H3716 0.961 . S
C3709 H3717 0.960 . S
C3710 C3708 1.381 1_545 S
C3710 C3711 1.394 . S
C3710 H3718 0.930 . S
C3711 C3710 1.394 . S
C3711 C3712 1.383 . S
C3711 H3719 0.929 . S
C3712 C3711 1.383 . S
C3712 C3713 1.377 1_545 S
C3713 H3697 0.930 . S
C3713 C3712 1.377 1_565 S
C3713 C3714 1.379 . S
C3714 H3698 0.931 . S
C3714 C3708 1.383 . S
C3714 C3713 1.379 . S
H3715 C3709 0.959 . S
H3716 C3709 0.961 . S
H3717 C3709 0.960 . S
H3718 C3710 0.930 . S
H3719 C3711 0.929 . S
H3720 C3728 0.929 . S
H3721 C3730 0.930 . S
H3722 C3732 0.930 . S
H3723 C3735 0.929 . S
H3724 C3738 0.930 . S
H3725 C3740 0.960 . S
H3726 C3740 0.951 1_565 S
H3727 C3740 0.960 . S
C3728 H3720 0.929 . S
C3728 C3729 1.377 . S
C3728 C3730 1.384 . S
C3729 C3728 1.377 . S
C3729 C3735 1.390 1_565 S
C3730 H3721 0.930 . S
C3730 C3728 1.384 . S
C3730 C3731 1.372 1_565 S
C3731 C3730 1.372 1_545 S
C3731 C3732 1.400 . S
C3731 C3736 1.490 . S
C3732 H3722 0.930 . S
C3732 C3731 1.400 . S
C3732 C3735 1.386 . S
H3733 C3749 0.930 . S
H3734 C3750 0.931 . S
C3735 H3723 0.929 . S
C3735 C3729 1.390 1_545 S
C3735 C3732 1.386 . S
C3736 C3731 1.490 . S
C3736 C3738 1.395 . S
C3736 C3739 1.403 . S
H3737 C3743 0.930 . S
C3738 H3724 0.930 . S
C3738 C3736 1.395 . S
C3738 C3741 1.403 . S
C3739 C3736 1.403 . S
C3739 C3740 1.524 . S
C3739 C3743 1.400 . S
C3740 H3725 0.960 . S
C3740 H3726 0.951 1_545 S
C3740 H3727 0.960 . S
C3740 C3739 1.524 . S
C3741 C3738 1.403 . S
C3741 C3742 1.392 . S
C3741 C3745 1.495 . S
C3742 C3741 1.392 . S
C3742 C3743 1.385 . S
C3742 C3744 1.478 . S
C3743 H3737 0.930 . S
C3743 C3739 1.400 . S
C3743 C3742 1.385 . S
C3744 C3742 1.478 . S
C3744 C3746 1.381 . S
C3744 C3750 1.383 . S
C3745 C3741 1.495 . S
C3745 H3751 0.959 . S
C3745 H3752 0.961 . S
C3745 H3753 0.960 . S
C3746 C3744 1.381 . S
C3746 C3747 1.394 . S
C3746 H3754 0.930 . S
C3747 C3746 1.394 . S
C3747 C3748 1.383 . S
C3747 H3755 0.929 . S
C3748 C3747 1.383 . S
C3748 C3749 1.377 . S
C3749 H3733 0.930 . S
C3749 C3748 1.377 . S
C3749 C3750 1.379 . S
C3750 H3734 0.931 . S
C3750 C3744 1.383 . S
C3750 C3749 1.379 . S
H3751 C3745 0.959 . S
H3752 C3745 0.961 . S
H3753 C3745 0.960 . S
H3754 C3746 0.930 . S
H3755 C3747 0.929 . S
H3756 C3764 0.929 . S
H3757 C3766 0.930 . S
H3758 C3768 0.930 . S
H3759 C3771 0.929 . S
H3760 C3774 0.930 . S
H3761 C3776 0.960 . S
H3762 C3776 0.960 . S
H3763 C3776 0.960 . S
C3764 H3756 0.929 . S
C3764 C3765 1.377 . S
C3764 C3766 1.384 . S
C3765 C3764 1.377 . S
C3765 C3771 1.390 . S
C3766 H3757 0.930 . S
C3766 C3764 1.384 . S
C3766 C3767 1.372 . S
C3767 C3766 1.372 . S
C3767 C3768 1.400 . S
C3767 C3772 1.490 . S
C3768 H3758 0.930 . S
C3768 C3767 1.400 . S
C3768 C3771 1.386 . S
H3769 C3785 0.930 . S
H3770 C3786 0.931 . S
C3771 H3759 0.929 . S
C3771 C3765 1.390 . S
C3771 C3768 1.386 . S
C3772 C3767 1.490 . S
C3772 C3774 1.395 . S
C3772 C3775 1.403 . S
H3773 C3779 0.930 . S
C3774 H3760 0.930 . S
C3774 C3772 1.395 . S
C3774 C3777 1.403 . S
C3775 C3772 1.403 . S
C3775 C3776 1.524 . S
C3775 C3779 1.400 . S
C3776 H3761 0.960 . S
C3776 H3762 0.960 . S
C3776 H3763 0.960 . S
C3776 C3775 1.524 . S
C3777 C3774 1.403 . S
C3777 C3778 1.392 . S
C3777 C3781 1.495 . S
C3778 C3777 1.392 . S
C3778 C3779 1.385 . S
C3778 C3780 1.478 . S
C3779 H3773 0.930 . S
C3779 C3775 1.400 . S
C3779 C3778 1.385 . S
C3780 C3778 1.478 . S
C3780 C3782 1.381 . S
C3780 C3786 1.383 . S
C3781 C3777 1.495 . S
C3781 H3787 0.959 . S
C3781 H3788 0.961 . S
C3781 H3789 0.960 . S
C3782 C3780 1.381 . S
C3782 C3783 1.394 . S
C3782 H3790 0.930 . S
C3783 C3782 1.394 . S
C3783 C3784 1.383 . S
C3783 H3791 0.929 . S
C3784 C3783 1.383 . S
C3784 C3785 1.377 . S
C3785 H3769 0.930 . S
C3785 C3784 1.377 . S
C3785 C3786 1.379 . S
C3786 H3770 0.931 . S
C3786 C3780 1.383 . S
C3786 C3785 1.379 . S
H3787 C3781 0.959 . S
H3788 C3781 0.961 . S
H3789 C3781 0.960 . S
H3790 C3782 0.930 . S
H3791 C3783 0.929 . S
H3792 C3800 0.929 . S
H3793 C3802 0.930 . S
H3794 C3804 0.930 . S
H3795 C3807 0.929 . S
H3796 C3810 0.930 . S
H3797 C3812 0.960 . S
H3798 C3812 0.960 . S
H3799 C3812 0.960 . S
C3800 H3792 0.929 . S
C3800 C3801 1.377 . S
C3800 C3802 1.384 . S
C3801 C3800 1.377 . S
C3801 C3807 1.390 . S
C3802 H3793 0.930 . S
C3802 C3800 1.384 . S
C3802 C3803 1.372 . S
C3803 C3802 1.372 . S
C3803 C3804 1.400 . S
C3803 C3808 1.490 . S
C3804 H3794 0.930 . S
C3804 C3803 1.400 . S
C3804 C3807 1.386 . S
H3805 C3821 0.930 . S
H3806 C3822 0.931 . S
C3807 H3795 0.929 . S
C3807 C3801 1.390 . S
C3807 C3804 1.386 . S
C3808 C3803 1.490 . S
C3808 C3810 1.395 . S
C3808 C3811 1.403 . S
H3809 C3815 0.930 . S
C3810 H3796 0.930 . S
C3810 C3808 1.395 . S
C3810 C3813 1.403 . S
C3811 C3808 1.403 . S
C3811 C3812 1.524 . S
C3811 C3815 1.400 . S
C3812 H3797 0.960 . S
C3812 H3798 0.960 . S
C3812 H3799 0.960 . S
C3812 C3811 1.524 . S
C3813 C3810 1.403 . S
C3813 C3814 1.392 . S
C3813 C3817 1.495 . S
C3814 C3813 1.392 . S
C3814 C3815 1.385 . S
C3814 C3816 1.478 . S
C3815 H3809 0.930 . S
C3815 C3811 1.400 . S
C3815 C3814 1.385 . S
C3816 C3814 1.478 . S
C3816 C3818 1.381 . S
C3816 C3822 1.383 . S
C3817 C3813 1.495 . S
C3817 H3823 0.959 . S
C3817 H3824 0.961 . S
C3817 H3825 0.960 . S
C3818 C3816 1.381 . S
C3818 C3819 1.394 . S
C3818 H3826 0.930 . S
C3819 C3818 1.394 . S
C3819 C3820 1.383 . S
C3819 H3827 0.929 . S
C3820 C3819 1.383 . S
C3820 C3821 1.377 . S
C3821 H3805 0.930 . S
C3821 C3820 1.377 . S
C3821 C3822 1.379 . S
C3822 H3806 0.931 . S
C3822 C3816 1.383 . S
C3822 C3821 1.379 . S
H3823 C3817 0.959 . S
H3824 C3817 0.961 . S
H3825 C3817 0.960 . S
H3826 C3818 0.930 . S
H3827 C3819 0.929 . S
H3828 C3836 0.929 . S
H3829 C3838 0.930 . S
H3830 C3840 0.930 . S
H3831 C3843 0.929 1_554 S
H3832 C3846 0.930 . S
H3833 C3848 0.960 . S
H3834 C3848 0.960 1_554 S
H3835 C3848 0.960 . S
C3836 H3828 0.929 . S
C3836 C3837 1.377 . S
C3836 C3838 1.384 1_554 S
C3837 C3836 1.377 . S
C3837 C3843 1.387 1_554 S
C3838 H3829 0.930 . S
C3838 C3836 1.384 1_556 S
C3838 C3839 1.372 . S
C3839 C3838 1.372 . S
C3839 C3840 1.400 . S
C3839 C3844 1.490 . S
C3840 H3830 0.930 . S
C3840 C3839 1.400 . S
C3840 C3843 1.388 . S
H3841 C3857 0.930 . S
H3842 C3858 0.931 . S
C3843 H3831 0.929 1_556 S
C3843 C3837 1.387 1_556 S
C3843 C3840 1.388 . S
C3844 C3839 1.490 . S
C3844 C3846 1.395 . S
C3844 C3847 1.403 . S
H3845 C3851 0.930 . S
C3846 H3832 0.930 . S
C3846 C3844 1.395 . S
C3846 C3849 1.403 . S
C3847 C3844 1.403 . S
C3847 C3848 1.524 . S
C3847 C3851 1.400 . S
C3848 H3833 0.960 . S
C3848 H3834 0.960 1_556 S
C3848 H3835 0.960 . S
C3848 C3847 1.524 . S
C3849 C3846 1.403 . S
C3849 C3850 1.392 . S
C3849 C3853 1.495 . S
C3850 C3849 1.392 . S
C3850 C3851 1.385 . S
C3850 C3852 1.478 . S
C3851 H3845 0.930 . S
C3851 C3847 1.400 . S
C3851 C3850 1.385 . S
C3852 C3850 1.478 . S
C3852 C3854 1.381 . S
C3852 C3858 1.383 . S
C3853 C3849 1.495 . S
C3853 H3859 0.959 . S
C3853 H3860 0.961 . S
C3853 H3861 0.960 . S
C3854 C3852 1.381 . S
C3854 C3855 1.394 . S
C3854 H3862 0.930 . S
C3855 C3854 1.394 . S
C3855 C3856 1.383 . S
C3855 H3863 0.929 . S
C3856 C3855 1.383 . S
C3856 C3857 1.377 . S
C3857 H3841 0.930 . S
C3857 C3856 1.377 . S
C3857 C3858 1.379 . S
C3858 H3842 0.931 . S
C3858 C3852 1.383 . S
C3858 C3857 1.379 . S
H3859 C3853 0.959 . S
H3860 C3853 0.961 . S
H3861 C3853 0.960 . S
H3862 C3854 0.930 . S
H3863 C3855 0.929 . S
H3864 C3872 0.929 . S
H3865 C3874 0.930 . S
H3866 C3876 0.930 . S
H3867 C3879 0.929 . S
H3868 C3882 0.930 . S
H3869 C3884 0.960 . S
H3870 C3884 0.960 . S
H3871 C3884 0.960 . S
C3872 H3864 0.929 . S
C3872 C3873 1.377 . S
C3872 C3874 1.384 . S
C3873 C3872 1.377 . S
C3873 C3879 1.390 . S
C3874 H3865 0.930 . S
C3874 C3872 1.384 . S
C3874 C3875 1.372 . S
C3875 C3874 1.372 . S
C3875 C3876 1.400 . S
C3875 C3880 1.490 . S
C3876 H3866 0.930 . S
C3876 C3875 1.400 . S
C3876 C3879 1.386 . S
H3877 C3893 0.930 . S
H3878 C3894 0.931 . S
C3879 H3867 0.929 . S
C3879 C3873 1.390 . S
C3879 C3876 1.386 . S
C3880 C3875 1.490 . S
C3880 C3882 1.395 . S
C3880 C3883 1.403 . S
H3881 C3887 0.930 . S
C3882 H3868 0.930 . S
C3882 C3880 1.395 . S
C3882 C3885 1.403 . S
C3883 C3880 1.403 . S
C3883 C3884 1.524 . S
C3883 C3887 1.400 . S
C3884 H3869 0.960 . S
C3884 H3870 0.960 . S
C3884 H3871 0.960 . S
C3884 C3883 1.524 . S
C3885 C3882 1.403 . S
C3885 C3886 1.392 . S
C3885 C3889 1.495 . S
C3886 C3885 1.392 . S
C3886 C3887 1.385 . S
C3886 C3888 1.478 . S
C3887 H3881 0.930 . S
C3887 C3883 1.400 . S
C3887 C3886 1.385 . S
C3888 C3886 1.478 . S
C3888 C3890 1.381 . S
C3888 C3894 1.383 . S
C3889 C3885 1.495 . S
C3889 H3895 0.959 . S
C3889 H3896 0.961 . S
C3889 H3897 0.960 . S
C3890 C3888 1.381 . S
C3890 C3891 1.394 . S
C3890 H3898 0.930 . S
C3891 C3890 1.394 . S
C3891 C3892 1.383 . S
C3891 H3899 0.929 . S
C3892 C3891 1.383 . S
C3892 C3893 1.377 . S
C3893 H3877 0.930 . S
C3893 C3892 1.377 . S
C3893 C3894 1.379 . S
C3894 H3878 0.931 . S
C3894 C3888 1.383 . S
C3894 C3893 1.379 . S
H3895 C3889 0.959 . S
H3896 C3889 0.961 . S
H3897 C3889 0.960 . S
H3898 C3890 0.930 . S
H3899 C3891 0.929 . S
H3900 C3908 0.929 . S
H3901 C3910 0.930 . S
H3902 C3912 0.930 . S
H3903 C3915 0.929 . S
H3904 C3918 0.930 . S
H3905 C3920 0.960 . S
H3906 C3920 0.960 . S
H3907 C3920 0.960 . S
C3908 H3900 0.929 . S
C3908 C3909 1.377 . S
C3908 C3910 1.384 . S
C3909 C3908 1.377 . S
C3909 C3915 1.390 . S
C3910 H3901 0.930 . S
C3910 C3908 1.384 . S
C3910 C3911 1.372 . S
C3911 C3910 1.372 . S
C3911 C3912 1.400 . S
C3911 C3916 1.490 . S
C3912 H3902 0.930 . S
C3912 C3911 1.400 . S
C3912 C3915 1.386 . S
H3913 C3929 0.930 . S
H3914 C3930 0.931 . S
C3915 H3903 0.929 . S
C3915 C3909 1.390 . S
C3915 C3912 1.386 . S
C3916 C3911 1.490 . S
C3916 C3918 1.395 . S
C3916 C3919 1.403 . S
H3917 C3923 0.930 . S
C3918 H3904 0.930 . S
C3918 C3916 1.395 . S
C3918 C3921 1.403 . S
C3919 C3916 1.403 . S
C3919 C3920 1.524 . S
C3919 C3923 1.400 . S
C3920 H3905 0.960 . S
C3920 H3906 0.960 . S
C3920 H3907 0.960 . S
C3920 C3919 1.524 . S
C3921 C3918 1.403 . S
C3921 C3922 1.392 . S
C3921 C3925 1.495 . S
C3922 C3921 1.392 . S
C3922 C3923 1.385 . S
C3922 C3924 1.478 . S
C3923 H3917 0.930 . S
C3923 C3919 1.400 . S
C3923 C3922 1.385 . S
C3924 C3922 1.478 . S
C3924 C3926 1.381 1_554 S
C3924 C3930 1.383 . S
C3925 C3921 1.495 . S
C3925 H3931 0.959 . S
C3925 H3932 0.961 . S
C3925 H3933 0.960 1_554 S
C3926 C3924 1.381 1_556 S
C3926 C3927 1.394 . S
C3926 H3934 0.930 . S
C3927 C3926 1.394 . S
C3927 C3928 1.383 . S
C3927 H3935 0.929 . S
C3928 C3927 1.383 . S
C3928 C3929 1.377 1_556 S
C3929 H3913 0.930 . S
C3929 C3928 1.377 1_554 S
C3929 C3930 1.379 . S
C3930 H3914 0.931 . S
C3930 C3924 1.383 . S
C3930 C3929 1.379 . S
H3931 C3925 0.959 . S
H3932 C3925 0.961 . S
H3933 C3925 0.960 1_556 S
H3934 C3926 0.930 . S
H3935 C3927 0.929 . S
H3936 C3944 0.929 . S
H3937 C3946 0.930 . S
H3938 C3948 0.930 . S
H3939 C3951 0.929 . S
H3940 C3954 0.930 . S
H3941 C3956 0.960 . S
H3942 C3956 0.960 . S
H3943 C3956 0.960 . S
C3944 H3936 0.929 . S
C3944 C3945 1.377 . S
C3944 C3946 1.384 . S
C3945 C3944 1.377 . S
C3945 C3951 1.390 . S
C3946 H3937 0.930 . S
C3946 C3944 1.384 . S
C3946 C3947 1.372 . S
C3947 C3946 1.372 . S
C3947 C3948 1.400 . S
C3947 C3952 1.490 . S
C3948 H3938 0.930 . S
C3948 C3947 1.400 . S
C3948 C3951 1.386 . S
H3949 C3965 0.930 . S
H3950 C3966 0.931 . S
C3951 H3939 0.929 . S
C3951 C3945 1.390 . S
C3951 C3948 1.386 . S
C3952 C3947 1.490 . S
C3952 C3954 1.395 . S
C3952 C3955 1.403 . S
H3953 C3959 0.930 . S
C3954 H3940 0.930 . S
C3954 C3952 1.395 . S
C3954 C3957 1.403 . S
C3955 C3952 1.403 . S
C3955 C3956 1.524 . S
C3955 C3959 1.400 . S
C3956 H3941 0.960 . S
C3956 H3942 0.960 . S
C3956 H3943 0.960 . S
C3956 C3955 1.524 . S
C3957 C3954 1.403 . S
C3957 C3958 1.392 . S
C3957 C3961 1.495 . S
C3958 C3957 1.392 . S
C3958 C3959 1.385 . S
C3958 C3960 1.478 . S
C3959 H3953 0.930 . S
C3959 C3955 1.400 . S
C3959 C3958 1.385 . S
C3960 C3958 1.478 . S
C3960 C3962 1.381 . S
C3960 C3966 1.383 . S
C3961 C3957 1.495 . S
C3961 H3967 0.959 . S
C3961 H3968 0.961 . S
C3961 H3969 0.960 . S
C3962 C3960 1.381 . S
C3962 C3963 1.394 . S
C3962 H3970 0.930 . S
C3963 C3962 1.394 . S
C3963 C3964 1.383 . S
C3963 H3971 0.929 . S
C3964 C3963 1.383 . S
C3964 C3965 1.377 . S
C3965 H3949 0.930 . S
C3965 C3964 1.377 . S
C3965 C3966 1.379 . S
C3966 H3950 0.931 . S
C3966 C3960 1.383 . S
C3966 C3965 1.379 . S
H3967 C3961 0.959 . S
H3968 C3961 0.961 . S
H3969 C3961 0.960 . S
H3970 C3962 0.930 . S
H3971 C3963 0.929 . S
H3972 C3980 0.929 . S
H3973 C3982 0.930 . S
H3974 C3984 0.930 . S
H3975 C3987 0.929 . S
H3976 C3990 0.985 . S
H3977 C3992 0.960 . S
H3978 C3992 0.960 . S
H3979 C3992 0.960 . S
C3980 H3972 0.929 . S
C3980 C3981 1.377 . S
C3980 C3982 1.384 . S
C3981 C3980 1.377 . S
C3981 C3987 1.390 1_655 S
C3982 H3973 0.930 . S
C3982 C3980 1.384 . S
C3982 C3983 1.372 1_655 S
C3983 C3982 1.372 1_455 S
C3983 C3984 1.400 . S
C3983 C3988 1.490 . S
C3984 H3974 0.930 . S
C3984 C3983 1.400 . S
C3984 C3987 1.386 . S
H3985 C4001 0.930 . S
H3986 C4002 0.931 . S
C3987 H3975 0.929 . S
C3987 C3981 1.390 1_455 S
C3987 C3984 1.386 . S
C3988 C3983 1.490 . S
C3988 C3990 1.395 . S
C3988 C3991 1.403 . S
H3989 C3995 0.930 . S
C3990 H3976 0.985 . S
C3990 C3988 1.395 . S
C3990 C3993 1.403 . S
C3991 C3988 1.403 . S
C3991 C3992 1.524 . S
C3991 C3995 1.400 . S
C3992 H3977 0.960 . S
C3992 H3978 0.960 . S
C3992 H3979 0.960 . S
C3992 C3991 1.524 . S
C3993 C3990 1.403 . S
C3993 C3994 1.392 . S
C3993 C3997 1.495 . S
C3994 C3993 1.392 . S
C3994 C3995 1.385 . S
C3994 C3996 1.478 . S
C3995 H3989 0.930 . S
C3995 C3991 1.400 . S
C3995 C3994 1.385 . S
C3996 C3994 1.478 . S
C3996 C3998 1.381 . S
C3996 C4002 1.383 . S
C3997 C3993 1.495 . S
C3997 H4003 0.932 1_455 S
C3997 H4004 0.961 . S
C3997 H4005 0.960 . S
C3998 C3996 1.381 . S
C3998 C3999 1.394 . S
C3998 H4006 0.930 . S
C3999 C3998 1.394 . S
C3999 C4000 1.383 . S
C3999 H4007 0.929 . S
C4000 C3999 1.383 . S
C4000 C4001 1.377 . S
C4001 H3985 0.930 . S
C4001 C4000 1.377 . S
C4001 C4002 1.379 . S
C4002 H3986 0.931 . S
C4002 C3996 1.383 . S
C4002 C4001 1.379 . S
H4003 C3997 0.932 1_655 S
H4004 C3997 0.961 . S
H4005 C3997 0.960 . S
H4006 C3998 0.930 . S
H4007 C3999 0.929 . S
H4008 C4016 0.929 . S
H4009 C4018 0.930 . S
H4010 C4020 0.930 . S
H4011 C4023 0.929 . S
H4012 C4026 0.930 . S
H4013 C4028 0.960 . S
H4014 C4028 0.960 . S
H4015 C4028 0.960 . S
C4016 H4008 0.929 . S
C4016 C4017 1.377 . S
C4016 C4018 1.384 . S
C4017 C4016 1.377 . S
C4017 C4023 1.390 1_455 S
C4018 H4009 0.930 . S
C4018 C4016 1.384 . S
C4018 C4019 1.372 1_455 S
C4019 C4018 1.372 1_655 S
C4019 C4020 1.400 . S
C4019 C4024 1.490 . S
C4020 H4010 0.930 . S
C4020 C4019 1.400 . S
C4020 C4023 1.386 . S
H4021 C4037 0.930 . S
H4022 C4038 0.931 . S
C4023 H4011 0.929 . S
C4023 C4017 1.390 1_655 S
C4023 C4020 1.386 . S
C4024 C4019 1.490 . S
C4024 C4026 1.395 . S
C4024 C4027 1.403 . S
H4025 C4031 0.930 . S
C4026 H4012 0.930 . S
C4026 C4024 1.395 . S
C4026 C4029 1.403 . S
C4027 C4024 1.403 . S
C4027 C4028 1.524 . S
C4027 C4031 1.400 . S
C4028 H4013 0.960 . S
C4028 H4014 0.960 . S
C4028 H4015 0.960 . S
C4028 C4027 1.524 . S
C4029 C4026 1.403 . S
C4029 C4030 1.392 . S
C4029 C4033 1.495 . S
C4030 C4029 1.392 . S
C4030 C4031 1.385 . S
C4030 C4032 1.478 . S
C4031 H4025 0.930 . S
C4031 C4027 1.400 . S
C4031 C4030 1.385 . S
C4032 C4030 1.478 . S
C4032 C4034 1.381 . S
C4032 C4038 1.383 . S
C4033 C4029 1.495 . S
C4033 H4039 0.959 . S
C4033 H4040 0.961 . S
C4033 H4041 0.960 . S
C4034 C4032 1.381 . S
C4034 C4035 1.394 . S
C4034 H4042 0.930 . S
C4035 C4034 1.394 . S
C4035 C4036 1.383 . S
C4035 H4043 0.929 . S
C4036 C4035 1.383 . S
C4036 C4037 1.377 . S
C4037 H4021 0.930 . S
C4037 C4036 1.377 . S
C4037 C4038 1.379 . S
C4038 H4022 0.931 . S
C4038 C4032 1.383 . S
C4038 C4037 1.379 . S
H4039 C4033 0.959 . S
H4040 C4033 0.961 . S
H4041 C4033 0.960 . S
H4042 C4034 0.930 . S
H4043 C4035 0.929 . S
H4044 C4052 0.929 . S
H4045 C4054 0.930 . S
H4046 C4056 0.930 . S
H4047 C4059 0.929 . S
H4048 C4062 0.930 . S
H4049 C4064 0.960 . S
H4050 C4064 0.960 . S
H4051 C4064 0.960 . S
C4052 H4044 0.929 . S
C4052 C4053 1.377 . S
C4052 C4054 1.384 . S
C4053 C4052 1.377 . S
C4053 C4059 1.390 . S
C4054 H4045 0.930 . S
C4054 C4052 1.384 . S
C4054 C4055 1.372 . S
C4055 C4054 1.372 . S
C4055 C4056 1.400 . S
C4055 C4060 1.490 . S
C4056 H4046 0.930 . S
C4056 C4055 1.400 . S
C4056 C4059 1.386 . S
H4057 C4073 0.930 . S
H4058 C4074 0.931 . S
C4059 H4047 0.929 . S
C4059 C4053 1.390 . S
C4059 C4056 1.386 . S
C4060 C4055 1.490 . S
C4060 C4062 1.395 . S
C4060 C4063 1.403 . S
H4061 C4067 0.930 . S
C4062 H4048 0.930 . S
C4062 C4060 1.395 . S
C4062 C4065 1.403 . S
C4063 C4060 1.403 . S
C4063 C4064 1.524 . S
C4063 C4067 1.400 . S
C4064 H4049 0.960 . S
C4064 H4050 0.960 . S
C4064 H4051 0.960 . S
C4064 C4063 1.524 . S
C4065 C4062 1.403 . S
C4065 C4066 1.392 . S
C4065 C4069 1.495 . S
C4066 C4065 1.392 . S
C4066 C4067 1.385 . S
C4066 C4068 1.478 . S
C4067 H4061 0.930 . S
C4067 C4063 1.400 . S
C4067 C4066 1.385 . S
C4068 C4066 1.478 . S
C4068 C4070 1.381 . S
C4068 C4074 1.383 . S
C4069 C4065 1.495 . S
C4069 H4075 0.959 . S
C4069 H4076 0.961 . S
C4069 H4077 0.960 . S
C4070 C4068 1.381 . S
C4070 C4071 1.394 . S
C4070 H4078 0.930 . S
C4071 C4070 1.394 . S
C4071 C4072 1.383 . S
C4071 H4079 0.929 . S
C4072 C4071 1.383 . S
C4072 C4073 1.377 . S
C4073 H4057 0.930 . S
C4073 C4072 1.377 . S
C4073 C4074 1.379 . S
C4074 H4058 0.931 . S
C4074 C4068 1.383 . S
C4074 C4073 1.379 . S
H4075 C4069 0.959 . S
H4076 C4069 0.961 . S
H4077 C4069 0.960 . S
H4078 C4070 0.930 . S
H4079 C4071 0.929 . S
H4080 C4088 0.929 . S
H4081 C4090 0.930 . S
H4082 C4092 0.930 . S
H4083 C4095 0.929 . S
H4084 C4098 0.930 . S
H4085 C4100 0.960 . S
H4086 C4100 0.960 . S
H4087 C4100 0.960 . S
C4088 H4080 0.929 . S
C4088 C4089 1.377 . S
C4088 C4090 1.384 . S
C4089 C4088 1.377 . S
C4089 C4095 1.390 . S
C4090 H4081 0.930 . S
C4090 C4088 1.384 . S
C4090 C4091 1.372 . S
C4091 C4090 1.372 . S
C4091 C4092 1.400 . S
C4091 C4096 1.490 . S
C4092 H4082 0.930 . S
C4092 C4091 1.400 . S
C4092 C4095 1.386 . S
H4093 C4109 0.930 . S
H4094 C4110 0.931 . S
C4095 H4083 0.929 . S
C4095 C4089 1.390 . S
C4095 C4092 1.386 . S
C4096 C4091 1.490 . S
C4096 C4098 1.395 . S
C4096 C4099 1.403 . S
H4097 C4103 0.930 . S
C4098 H4084 0.930 . S
C4098 C4096 1.395 . S
C4098 C4101 1.403 . S
C4099 C4096 1.403 . S
C4099 C4100 1.524 . S
C4099 C4103 1.400 . S
C4100 H4085 0.960 . S
C4100 H4086 0.960 . S
C4100 H4087 0.960 . S
C4100 C4099 1.524 . S
C4101 C4098 1.403 . S
C4101 C4102 1.392 . S
C4101 C4105 1.495 . S
C4102 C4101 1.392 . S
C4102 C4103 1.385 . S
C4102 C4104 1.478 . S
C4103 H4097 0.930 . S
C4103 C4099 1.400 . S
C4103 C4102 1.385 . S
C4104 C4102 1.478 . S
C4104 C4106 1.381 . S
C4104 C4110 1.383 . S
C4105 C4101 1.495 . S
C4105 H4111 0.959 . S
C4105 H4112 0.961 . S
C4105 H4113 0.960 . S
C4106 C4104 1.381 . S
C4106 C4107 1.394 . S
C4106 H4114 0.930 . S
C4107 C4106 1.394 . S
C4107 C4108 1.383 . S
C4107 H4115 0.929 . S
C4108 C4107 1.383 . S
C4108 C4109 1.377 . S
C4109 H4093 0.930 . S
C4109 C4108 1.377 . S
C4109 C4110 1.379 . S
C4110 H4094 0.931 . S
C4110 C4104 1.383 . S
C4110 C4109 1.379 . S
H4111 C4105 0.959 . S
H4112 C4105 0.961 . S
H4113 C4105 0.960 . S
H4114 C4106 0.930 . S
H4115 C4107 0.929 . S
H4116 C4124 0.929 . S
H4117 C4126 0.930 . S
H4118 C4128 0.930 . S
H4119 C4131 0.929 . S
H4120 C4134 0.930 . S
H4121 C4136 0.960 . S
H4122 C4136 0.960 . S
H4123 C4136 0.960 . S
C4124 H4116 0.929 . S
C4124 C4125 1.377 1_545 S
C4124 C4126 1.384 . S
C4125 C4124 1.377 1_565 S
C4125 C4131 1.390 . S
C4126 H4117 0.930 . S
C4126 C4124 1.384 . S
C4126 C4127 1.372 . S
C4127 C4126 1.372 . S
C4127 C4128 1.400 1_545 S
C4127 C4132 1.490 . S
C4128 H4118 0.930 . S
C4128 C4127 1.400 1_565 S
C4128 C4131 1.386 . S
H4129 C4145 0.930 . S
H4130 C4146 0.931 . S
C4131 H4119 0.929 . S
C4131 C4125 1.390 . S
C4131 C4128 1.386 . S
C4132 C4127 1.490 . S
C4132 C4134 1.395 . S
C4132 C4135 1.403 . S
H4133 C4139 0.930 . S
C4134 H4120 0.930 . S
C4134 C4132 1.395 . S
C4134 C4137 1.403 . S
C4135 C4132 1.403 . S
C4135 C4136 1.524 . S
C4135 C4139 1.400 . S
C4136 H4121 0.960 . S
C4136 H4122 0.960 . S
C4136 H4123 0.960 . S
C4136 C4135 1.524 . S
C4137 C4134 1.403 . S
C4137 C4138 1.392 . S
C4137 C4141 1.495 . S
C4138 C4137 1.392 . S
C4138 C4139 1.385 . S
C4138 C4140 1.478 . S
C4139 H4133 0.930 . S
C4139 C4135 1.400 . S
C4139 C4138 1.385 . S
C4140 C4138 1.478 . S
C4140 C4142 1.381 . S
C4140 C4146 1.383 . S
C4141 C4137 1.495 . S
C4141 H4147 0.959 . S
C4141 H4148 0.961 . S
C4141 H4149 0.960 . S
C4142 C4140 1.381 . S
C4142 C4143 1.394 . S
C4142 H4150 0.930 . S
C4143 C4142 1.394 . S
C4143 C4144 1.383 . S
C4143 H4151 0.929 . S
C4144 C4143 1.383 . S
C4144 C4145 1.377 . S
C4145 H4129 0.930 . S
C4145 C4144 1.377 . S
C4145 C4146 1.379 . S
C4146 H4130 0.931 . S
C4146 C4140 1.383 . S
C4146 C4145 1.379 . S
H4147 C4141 0.959 . S
H4148 C4141 0.961 . S
H4149 C4141 0.960 . S
H4150 C4142 0.930 . S
H4151 C4143 0.929 . S
H4152 C4160 0.929 . S
H4153 C4162 0.930 . S
H4154 C4164 0.930 . S
H4155 C4167 0.929 . S
H4156 C4170 0.930 . S
H4157 C4172 0.960 . S
H4158 C4172 0.960 . S
H4159 C4172 0.960 . S
C4160 H4152 0.929 . S
C4160 C4161 1.377 . S
C4160 C4162 1.384 . S
C4161 C4160 1.377 . S
C4161 C4167 1.390 1_545 S
C4162 H4153 0.930 . S
C4162 C4160 1.384 . S
C4162 C4163 1.372 1_545 S
C4163 C4162 1.372 1_565 S
C4163 C4164 1.400 . S
C4163 C4168 1.490 . S
C4164 H4154 0.930 . S
C4164 C4163 1.400 . S
C4164 C4167 1.386 . S
H4165 C4181 0.930 . S
H4166 C4182 0.931 . S
C4167 H4155 0.929 . S
C4167 C4161 1.390 1_565 S
C4167 C4164 1.386 . S
C4168 C4163 1.490 . S
C4168 C4170 1.395 . S
C4168 C4171 1.403 . S
H4169 C4175 0.930 . S
C4170 H4156 0.930 . S
C4170 C4168 1.395 . S
C4170 C4173 1.403 . S
C4171 C4168 1.403 . S
C4171 C4172 1.524 . S
C4171 C4175 1.400 . S
C4172 H4157 0.960 . S
C4172 H4158 0.960 . S
C4172 H4159 0.960 . S
C4172 C4171 1.524 . S
C4173 C4170 1.403 . S
C4173 C4174 1.392 . S
C4173 C4177 1.495 . S
C4174 C4173 1.392 . S
C4174 C4175 1.385 . S
C4174 C4176 1.478 . S
C4175 H4169 0.930 . S
C4175 C4171 1.400 . S
C4175 C4174 1.385 . S
C4176 C4174 1.478 . S
C4176 C4178 1.381 . S
C4176 C4182 1.383 . S
C4177 C4173 1.495 . S
C4177 H4183 0.959 . S
C4177 H4184 0.961 . S
C4177 H4185 0.960 . S
C4178 C4176 1.381 . S
C4178 C4179 1.394 . S
C4178 H4186 0.930 . S
C4179 C4178 1.394 . S
C4179 C4180 1.383 . S
C4179 H4187 0.929 . S
C4180 C4179 1.383 . S
C4180 C4181 1.377 . S
C4181 H4165 0.930 . S
C4181 C4180 1.377 . S
C4181 C4182 1.379 . S
C4182 H4166 0.931 . S
C4182 C4176 1.383 . S
C4182 C4181 1.379 . S
H4183 C4177 0.959 . S
H4184 C4177 0.961 . S
H4185 C4177 0.960 . S
H4186 C4178 0.930 . S
H4187 C4179 0.929 . S
H4188 C4196 0.929 . S
H4189 C4198 0.930 . S
H4190 C4200 0.930 . S
H4191 C4203 0.929 . S
H4192 C4206 0.930 . S
H4193 C4208 0.960 . S
H4194 C4208 0.960 . S
H4195 C4208 0.960 . S
C4196 H4188 0.929 . S
C4196 C4197 1.377 . S
C4196 C4198 1.384 . S
C4197 C4196 1.377 . S
C4197 C4203 1.390 . S
C4198 H4189 0.930 . S
C4198 C4196 1.384 . S
C4198 C4199 1.372 . S
C4199 C4198 1.372 . S
C4199 C4200 1.400 . S
C4199 C4204 1.490 . S
C4200 H4190 0.930 . S
C4200 C4199 1.400 . S
C4200 C4203 1.386 . S
H4201 C4217 0.930 . S
H4202 C4218 0.931 . S
C4203 H4191 0.929 . S
C4203 C4197 1.390 . S
C4203 C4200 1.386 . S
C4204 C4199 1.490 . S
C4204 C4206 1.395 . S
C4204 C4207 1.403 . S
H4205 C4211 0.930 . S
C4206 H4192 0.930 . S
C4206 C4204 1.395 . S
C4206 C4209 1.403 . S
C4207 C4204 1.403 . S
C4207 C4208 1.524 . S
C4207 C4211 1.400 . S
C4208 H4193 0.960 . S
C4208 H4194 0.960 . S
C4208 H4195 0.960 . S
C4208 C4207 1.524 . S
C4209 C4206 1.403 . S
C4209 C4210 1.392 . S
C4209 C4213 1.495 . S
C4210 C4209 1.392 . S
C4210 C4211 1.385 . S
C4210 C4212 1.478 . S
C4211 H4205 0.930 . S
C4211 C4207 1.400 . S
C4211 C4210 1.385 . S
C4212 C4210 1.478 . S
C4212 C4214 1.381 . S
C4212 C4218 1.383 . S
C4213 C4209 1.495 . S
C4213 H4219 0.959 . S
C4213 H4220 0.961 . S
C4213 H4221 0.960 . S
C4214 C4212 1.381 . S
C4214 C4215 1.394 . S
C4214 H4222 0.930 . S
C4215 C4214 1.394 . S
C4215 C4216 1.383 . S
C4215 H4223 0.929 . S
C4216 C4215 1.383 . S
C4216 C4217 1.377 . S
C4217 H4201 0.930 . S
C4217 C4216 1.377 . S
C4217 C4218 1.379 . S
C4218 H4202 0.931 . S
C4218 C4212 1.383 . S
C4218 C4217 1.379 . S
H4219 C4213 0.959 . S
H4220 C4213 0.961 . S
H4221 C4213 0.960 . S
H4222 C4214 0.930 . S
H4223 C4215 0.929 . S
C777 C598 0.833 . S
C796 C21 0.858 . S
C813 C53 0.818 . S
C832 C630 0.828 . S
C849 C534 0.833 . S
C868 C85 0.868 . S
C885 C117 0.823 . S
C904 C566 0.816 . S
C921 C726 0.823 . S
C940 C149 0.785 . S
C957 C694 0.827 . S
C976 C181 0.847 . S
C993 C758 0.834 . S
C1012 C213 0.866 . S
C1029 C662 0.822 . S
C1048 C245 0.780 . S
C1065 C277 0.824 . S
C1084 C438 0.850 . S
C1101 C502 0.819 . S
C1120 C309 0.772 . S
C1137 C341 0.815 . S
C1156 C470 0.817 . S
C1173 C406 0.818 . S
C1192 C373 0.783 . S
C1209 C210 0.818 . S
C1228 C401 0.822 . S
C1245 C242 0.833 . S
C1264 C433 0.803 . S
C1281 C146 0.823 . S
C1300 C465 0.868 . S
C1317 C497 0.824 . S
C1336 C178 0.787 . S
C1353 C338 0.819 . S
C1372 C529 0.847 . S
C1389 C561 0.823 . S
C1408 C306 0.861 . S
C1425 C370 0.832 . S
C1444 C593 0.789 . S
C1461 C274 0.828 . S
C1480 C625 0.865 . S
C1497 C657 0.831 . S
C1516 C50 0.827 . S
C1533 C114 0.821 . S
C1552 C689 0.788 . S
C1569 C721 0.829 . S
C1588 C82 0.798 . S
C1605 C753 0.831 . S
C1624 C18 0.816 . S
C1641 C278 2.205 . S
C1660 C16 2.277 . S
C1677 C48 2.285 . S
C1696 C374 2.185 . S
C1713 C80 2.285 . S
C1732 C310 2.185 . S
C1749 C112 2.284 . S
C1768 C342 2.191 . S
C1785 C144 2.287 . S
C1804 C22 2.200 . S
C1821 C176 2.284 . S
C1840 C54 2.193 . S
C1857 C86 2.209 . S
C1876 C208 2.277 . S
C1893 C240 2.285 . S
C1912 C118 2.206 . S
C1929 C150 2.209 . S
C1948 C272 2.276 . S
C1965 C304 2.284 . S
C1984 C214 2.196 . S
C2001 C246 2.207 . S
C2020 C336 2.273 . S
C2037 C182 2.211 . S
C2056 C368 2.291 . S
C2073 C658 2.213 . S
C2092 C404 2.283 . S
C2109 C436 2.288 . S
C2128 C754 2.210 . S
C2145 C690 2.212 . S
C2164 C468 2.277 . S
C2181 C500 2.286 . S
C2200 C722 2.184 . S
C2217 C402 2.212 . S
C2236 C532 2.275 . S
C2253 C434 2.205 . S
C2272 C564 2.284 . S
C2289 C596 2.288 . S
C2308 C466 2.209 . S
C2325 C498 2.212 . S
C2344 C628 2.288 . S
C2361 C530 2.205 . S
C2380 C660 2.275 . S
C2397 C692 2.284 . S
C2416 C594 2.208 . S
C2433 C724 2.285 . S
C2452 C626 2.218 . S
C2469 C756 2.284 . S
C2488 C562 2.198 . S
C2505 C23 0.823 . S
C2524 C372 0.826 . S
C2541 C276 0.808 . S
C2560 C55 0.854 . S
C2577 C87 0.812 . S
C2596 C340 0.859 1_545 S
C2613 C119 0.811 . S
C2632 C308 0.774 1_565 S
C2649 C84 0.808 . S
C2668 C151 0.786 . S
C2685 C116 0.808 1_556 S
C2704 C183 0.785 . S
C2721 C20 0.823 . S
C2740 C215 0.821 . S
C2757 C247 0.805 . S
C2776 C52 0.806 1_554 S
C2793 C244 0.805 . S
C2812 C279 0.809 . S
C2829 C311 0.805 . S
C2848 C180 0.830 1_655 S
C2865 C148 0.822 . S
C2884 C343 0.831 . S
C2901 C375 0.806 . S
C2920 C212 0.796 1_455 S
C2937 C752 0.823 . S
C2956 C403 0.793 . S
C2973 C656 0.823 . S
C2992 C435 0.793 . S
C3009 C720 0.808 1_565 S
C3028 C467 0.808 . S
C3045 C688 0.805 1_545 S
C3064 C499 0.856 . S
C3081 C531 0.822 . S
C3100 C464 0.806 . S
C3117 C563 0.817 . S
C3136 C496 0.833 1_554 S
C3153 C595 0.817 . S
C3172 C400 0.833 . S
C3189 C627 0.817 . S
C3208 C432 0.773 1_556 S
C3225 C624 0.823 . S
C3244 C659 0.776 . S
C3261 C560 0.806 1_455 S
C3280 C691 0.858 . S
C3297 C528 0.806 . S
C3316 C723 0.826 . S
C3333 C592 0.805 1_655 S
C3352 C755 0.857 . S
C3369 C727 2.465 . S
C3388 C17 2.461 . S
C3405 C695 2.464 . S
C3424 C49 2.463 . S
C3441 C81 2.463 . S
C3460 C759 2.459 . S
C3477 C663 2.464 . S
C3496 C113 2.459 . S
C3513 C145 2.464 . S
C3532 C439 2.463 . S
C3549 C407 2.463 . S
C3568 C177 2.456 . S
C3585 C209 2.463 . S
C3604 C503 2.457 . S
C3621 C241 2.463 . S
C3640 C471 2.457 . S
C3657 C599 2.464 . S
C3676 C273 2.459 . S
C3693 C535 2.465 . S
C3712 C305 2.463 . S
C3729 C337 2.463 . S
C3748 C567 2.459 . S
C3765 C369 2.464 . S
C3784 C631 2.461 . S
C3801 C405 2.464 . S
C3820 C339 2.460 . S
C3837 C437 2.463 . S
C3856 C307 2.456 . S
C3873 C371 2.464 . S
C3892 C469 2.456 . S
C3909 C275 2.464 . S
C3928 C501 2.455 . S
C3945 C533 2.464 . S
C3964 C51 2.463 . S
C3981 C565 2.463 . S
C4000 C19 2.462 . S
C4017 C597 2.463 . S
C4036 C115 2.459 . S
C4053 C629 2.464 . S
C4072 C83 2.458 . S
C4089 C661 2.463 . S
C4108 C211 2.460 . S
C4125 C693 2.464 . S
C4144 C147 2.460 . S
C4161 C725 2.463 . S
C4180 C179 2.459 . S
C4197 C243 2.463 . S
C4216 C757 2.460 . S
