# Generated by pormake.
# Topology gis, (4)-cn, num edge types: 1
# Building blocks:
#     Node 0, Type 0, BuildingBlock: ICAMEG_clean_sbu_1, # of connection points: 4
#     Node 1, Type 0, BuildingBlock: ICAMEG_clean_sbu_1, # of connection points: 4
#     Node 2, Type 0, BuildingBlock: ICAMEG_clean_sbu_1, # of connection points: 4
#     Node 3, Type 0, BuildingBlock: ICAMEG_clean_sbu_1, # of connection points: 4
#     Node 4, Type 0, BuildingBlock: ICAMEG_clean_sbu_1, # of connection points: 4
#     Node 5, Type 0, BuildingBlock: ICAMEG_clean_sbu_1, # of connection points: 4
#     Node 6, Type 0, BuildingBlock: ICAMEG_clean_sbu_1, # of connection points: 4
#     Node 7, Type 0, BuildingBlock: ICAMEG_clean_sbu_1, # of connection points: 4
#     Node 8, Type 0, BuildingBlock: ICAMEG_clean_sbu_1, # of connection points: 4
#     Node 9, Type 0, BuildingBlock: ICAMEG_clean_sbu_1, # of connection points: 4
#     Node 10, Type 0, BuildingBlock: ICAMEG_clean_sbu_1, # of connection points: 4
#     Node 11, Type 0, BuildingBlock: ICAMEG_clean_sbu_1, # of connection points: 4
#     Node 12, Type 0, BuildingBlock: ICAMEG_clean_sbu_1, # of connection points: 4
#     Node 13, Type 0, BuildingBlock: ICAMEG_clean_sbu_1, # of connection points: 4
#     Node 14, Type 0, BuildingBlock: ICAMEG_clean_sbu_1, # of connection points: 4
#     Node 15, Type 0, BuildingBlock: ICAMEG_clean_sbu_1, # of connection points: 4
#     Edge 16, Type (0, 0), BuildingBlock: UVAHIK_clean_linker_0, # of connection points: 2
#     Edge 17, Type (0, 0), BuildingBlock: UVAHIK_clean_linker_0, # of connection points: 2
#     Edge 18, Type (0, 0), BuildingBlock: UVAHIK_clean_linker_0, # of connection points: 2
#     Edge 19, Type (0, 0), BuildingBlock: UVAHIK_clean_linker_0, # of connection points: 2
#     Edge 20, Type (0, 0), BuildingBlock: UVAHIK_clean_linker_0, # of connection points: 2
#     Edge 21, Type (0, 0), BuildingBlock: UVAHIK_clean_linker_0, # of connection points: 2
#     Edge 22, Type (0, 0), BuildingBlock: UVAHIK_clean_linker_0, # of connection points: 2
#     Edge 23, Type (0, 0), BuildingBlock: UVAHIK_clean_linker_0, # of connection points: 2
#     Edge 24, Type (0, 0), BuildingBlock: UVAHIK_clean_linker_0, # of connection points: 2
#     Edge 25, Type (0, 0), BuildingBlock: UVAHIK_clean_linker_0, # of connection points: 2
#     Edge 26, Type (0, 0), BuildingBlock: UVAHIK_clean_linker_0, # of connection points: 2
#     Edge 27, Type (0, 0), BuildingBlock: UVAHIK_clean_linker_0, # of connection points: 2
#     Edge 28, Type (0, 0), BuildingBlock: UVAHIK_clean_linker_0, # of connection points: 2
#     Edge 29, Type (0, 0), BuildingBlock: UVAHIK_clean_linker_0, # of connection points: 2
#     Edge 30, Type (0, 0), BuildingBlock: UVAHIK_clean_linker_0, # of connection points: 2
#     Edge 31, Type (0, 0), BuildingBlock: UVAHIK_clean_linker_0, # of connection points: 2
#     Edge 32, Type (0, 0), BuildingBlock: UVAHIK_clean_linker_0, # of connection points: 2
#     Edge 33, Type (0, 0), BuildingBlock: UVAHIK_clean_linker_0, # of connection points: 2
#     Edge 34, Type (0, 0), BuildingBlock: UVAHIK_clean_linker_0, # of connection points: 2
#     Edge 35, Type (0, 0), BuildingBlock: UVAHIK_clean_linker_0, # of connection points: 2
#     Edge 36, Type (0, 0), BuildingBlock: UVAHIK_clean_linker_0, # of connection points: 2
#     Edge 37, Type (0, 0), BuildingBlock: UVAHIK_clean_linker_0, # of connection points: 2
#     Edge 38, Type (0, 0), BuildingBlock: UVAHIK_clean_linker_0, # of connection points: 2
#     Edge 39, Type (0, 0), BuildingBlock: UVAHIK_clean_linker_0, # of connection points: 2
#     Edge 40, Type (0, 0), BuildingBlock: UVAHIK_clean_linker_0, # of connection points: 2
#     Edge 41, Type (0, 0), BuildingBlock: UVAHIK_clean_linker_0, # of connection points: 2
#     Edge 42, Type (0, 0), BuildingBlock: UVAHIK_clean_linker_0, # of connection points: 2
#     Edge 43, Type (0, 0), BuildingBlock: UVAHIK_clean_linker_0, # of connection points: 2
#     Edge 44, Type (0, 0), BuildingBlock: UVAHIK_clean_linker_0, # of connection points: 2
#     Edge 45, Type (0, 0), BuildingBlock: UVAHIK_clean_linker_0, # of connection points: 2
#     Edge 46, Type (0, 0), BuildingBlock: UVAHIK_clean_linker_0, # of connection points: 2
#     Edge 47, Type (0, 0), BuildingBlock: UVAHIK_clean_linker_0, # of connection points: 2
# Relax obj value: 0.027
# Max RMSD: 0.090
# Mean RMSD: 0.089
data_MOF--net-gis--node1-ICAMEG_clean_sbu_1--edge1-UVAHIK_clean_linker_0
_symmetry_space_group_name_H-M    P1
_symmetry_Int_Tables_number       1
_symmetry_cell_setting            triclinic
loop_
_symmetry_equiv_pos_as_xyz
'x, y, z'
_cell_length_a     74.490699
_cell_length_b     74.432439
_cell_length_c     45.238028
_cell_angle_alpha  90.077561
_cell_angle_beta   90.040185
_cell_angle_gamma 89.993464
loop_
_atom_site_label
_atom_site_type_symbol
_atom_site_fract_x
_atom_site_fract_y
_atom_site_fract_z
_atom_type_partial_charge
Co0 Co 0.12736 0.61711 0.08549 0.0
Co1 Co 0.12496 0.61455 0.16179 0.0
O2 O 0.13475 0.60719 0.12358 0.0
C3 C 0.12031 0.57834 0.08072 0.0
O4 O 0.11363 0.57927 0.10752 0.0
C5 C 0.16374 0.62141 0.16645 0.0
O6 O 0.16285 0.62808 0.13966 0.0
O7 O 0.12725 0.64044 0.15155 0.0
O8 O 0.12786 0.64195 0.10194 0.0
H9 H 0.08475 0.6498 0.22955 0.0
H10 H 0.15866 0.59258 0.08852 0.0
O11 O 0.12658 0.59235 0.06831 0.0
H12 H 0.1823 0.6495 0.04872 0.0
H13 H 0.12812 0.62126 0.97444 0.0
H14 H 0.10175 0.6453 0.06632 0.0
H15 H 0.15013 0.64635 0.06052 0.0
H16 H 0.13736 0.60932 0.02298 0.0
O17 O 0.14973 0.61514 0.17883 0.0
H18 H 0.09703 0.64033 0.18135 0.0
H19 H 0.13277 0.6043 0.22416 0.0
H20 H 0.09223 0.65773 0.01827 0.0
H21 H 0.1909 0.5951 0.0768 0.0
H22 H 0.10545 0.64569 0.97189 0.0
H23 H 0.20292 0.62375 0.05685 0.0
O24 O 0.10149 0.61499 0.09591 0.0
H25 H 0.14657 0.5508 0.1698 0.0
H26 H 0.09564 0.59186 0.18672 0.0
H27 H 0.09231 0.55965 0.19825 0.0
H28 H 0.11791 0.53889 0.18979 0.0
H29 H 0.14927 0.58308 0.15837 0.0
H30 H 0.12099 0.61349 0.27285 0.0
H31 H 0.09675 0.63635 0.27574 0.0
O32 O 0.10011 0.61427 0.14552 0.0
C33 C 0.12788 0.64928 0.12744 0.0
C34 C 0.09527 0.63979 0.22858 0.0
C35 C 0.11563 0.61942 0.25288 0.0
N36 N 0.11549 0.62167 0.19995 0.0
C37 C 0.10224 0.63433 0.20135 0.0
C38 C 0.12227 0.6143 0.22526 0.0
C39 C 0.10202 0.63224 0.25449 0.0
C40 C 0.16376 0.60503 0.07956 0.0
N41 N 0.15252 0.61927 0.07508 0.0
C42 C 0.18204 0.6064 0.07308 0.0
C43 C 0.18878 0.62249 0.06193 0.0
C44 C 0.17722 0.63695 0.05738 0.0
C45 C 0.15903 0.6351 0.06416 0.0
C46 C 0.12229 0.62664 0.99449 0.0
C47 C 0.10765 0.64007 0.04623 0.0
C48 C 0.12744 0.61991 0.02203 0.0
N49 N 0.1202 0.62671 0.04744 0.0
C50 C 0.10217 0.64713 0.01909 0.0
C51 C 0.10957 0.64035 0.99308 0.0
C52 C 0.09272 0.61439 0.12009 0.0
C53 C 0.13534 0.55972 0.17366 0.0
C54 C 0.10682 0.5829 0.18294 0.0
C55 C 0.10487 0.56469 0.18956 0.0
C56 C 0.11925 0.55304 0.18484 0.0
N57 N 0.12266 0.58935 0.17201 0.0
C58 C 0.13682 0.57803 0.16735 0.0
Co59 Co 0.62881 0.87497 0.4129 0.0
Co60 Co 0.62582 0.87868 0.33678 0.0
O61 O 0.63601 0.88535 0.37506 0.0
C62 C 0.62228 0.9137 0.41934 0.0
O63 O 0.61536 0.91319 0.39267 0.0
C64 C 0.66451 0.87164 0.33095 0.0
O65 O 0.66382 0.86449 0.35743 0.0
O66 O 0.62795 0.85261 0.34589 0.0
O67 O 0.62878 0.8504 0.39542 0.0
H68 H 0.5847 0.84485 0.26845 0.0
H69 H 0.66044 0.89909 0.41023 0.0
O70 O 0.62853 0.89948 0.43109 0.0
H71 H 0.68361 0.84122 0.44701 0.0
H72 H 0.63054 0.86909 0.52371 0.0
H73 H 0.60297 0.84688 0.4315 0.0
H74 H 0.65139 0.84501 0.43606 0.0
H75 H 0.63949 0.88165 0.47547 0.0
O76 O 0.65042 0.87817 0.31916 0.0
H77 H 0.5975 0.85345 0.31675 0.0
H78 H 0.63315 0.88985 0.2747 0.0
H79 H 0.59373 0.83384 0.47922 0.0
H80 H 0.69274 0.89593 0.42111 0.0
H81 H 0.60755 0.84496 0.52576 0.0
H82 H 0.70452 0.8668 0.43954 0.0
O83 O 0.60289 0.87761 0.40315 0.0
H84 H 0.6479 0.94236 0.33102 0.0
H85 H 0.59647 0.902 0.31349 0.0
H86 H 0.59331 0.93441 0.30345 0.0
H87 H 0.61915 0.95482 0.31222 0.0
H88 H 0.65042 0.90988 0.34099 0.0
H89 H 0.62085 0.88154 0.22591 0.0
H90 H 0.59639 0.85895 0.22259 0.0
O91 O 0.60112 0.87891 0.35361 0.0
C92 C 0.62855 0.84343 0.36965 0.0
C93 C 0.59531 0.85476 0.26961 0.0
C94 C 0.61562 0.87534 0.24574 0.0
N95 N 0.61594 0.87224 0.29854 0.0
C96 C 0.60257 0.85972 0.2969 0.0
C97 C 0.62255 0.87996 0.27341 0.0
C98 C 0.60189 0.86266 0.24389 0.0
C99 C 0.66544 0.88644 0.41854 0.0
N100 N 0.65403 0.87229 0.42265 0.0
C101 C 0.68375 0.8847 0.42454 0.0
C102 C 0.69036 0.86834 0.43484 0.0
C103 C 0.67863 0.85398 0.43901 0.0
C104 C 0.66041 0.8562 0.43272 0.0
C105 C 0.62445 0.86411 0.50358 0.0
C106 C 0.60913 0.8517 0.45165 0.0
C107 C 0.62944 0.8712 0.47621 0.0
N108 N 0.62186 0.8649 0.4507 0.0
C109 C 0.6038 0.84431 0.47861 0.0
C110 C 0.61155 0.85056 0.50471 0.0
C111 C 0.59393 0.87858 0.37917 0.0
C112 C 0.63656 0.93359 0.32703 0.0
C113 C 0.60776 0.9108 0.31739 0.0
C114 C 0.60591 0.92913 0.31162 0.0
C115 C 0.62042 0.94058 0.31652 0.0
N116 N 0.62364 0.90405 0.32769 0.0
C117 C 0.63794 0.91518 0.33251 0.0
Co118 Co 0.36895 0.37825 0.66253 0.0
Co119 Co 0.36493 0.37482 0.58648 0.0
O120 O 0.3587 0.38552 0.62461 0.0
C121 C 0.33005 0.37318 0.66943 0.0
O122 O 0.33017 0.36606 0.64287 0.0
C123 C 0.37311 0.41327 0.57999 0.0
O124 O 0.38039 0.41248 0.60638 0.0
O125 O 0.39107 0.37624 0.59541 0.0
O126 O 0.39342 0.37721 0.64492 0.0
H127 H 0.39717 0.33209 0.51878 0.0
H128 H 0.346 0.41072 0.65935 0.0
O129 O 0.34454 0.379 0.68091 0.0
H130 H 0.40476 0.43209 0.69526 0.0
H131 H 0.37536 0.38063 0.77325 0.0
H132 H 0.39612 0.35151 0.68144 0.0
H133 H 0.39976 0.39992 0.68506 0.0
H134 H 0.36294 0.38967 0.72493 0.0
O135 O 0.36614 0.39931 0.56842 0.0
H136 H 0.38916 0.34554 0.56688 0.0
H137 H 0.35384 0.38208 0.52431 0.0
H138 H 0.40901 0.34216 0.72926 0.0
H139 H 0.35037 0.44301 0.66948 0.0
H140 H 0.39862 0.35677 0.77559 0.0
H141 H 0.37995 0.45388 0.68747 0.0
O142 O 0.36531 0.35236 0.6533 0.0
H143 H 0.302 0.39884 0.58064 0.0
H144 H 0.34066 0.34604 0.56379 0.0
H145 H 0.30817 0.34381 0.55397 0.0
H146 H 0.2886 0.37035 0.56239 0.0
H147 H 0.33454 0.40043 0.5904 0.0
H148 H 0.36157 0.36914 0.47572 0.0
H149 H 0.38333 0.34391 0.47277 0.0
O150 O 0.36396 0.35023 0.60379 0.0
C151 C 0.40032 0.37668 0.61914 0.0
C152 C 0.38763 0.34304 0.51979 0.0
C153 C 0.36767 0.36385 0.49562 0.0
N154 N 0.37094 0.36447 0.5484 0.0
C155 C 0.383 0.35067 0.54696 0.0
C156 C 0.36337 0.37115 0.52318 0.0
C157 C 0.37987 0.34969 0.49398 0.0
C158 C 0.35884 0.41533 0.66747 0.0
N159 N 0.37258 0.40345 0.67175 0.0
C160 C 0.36127 0.43364 0.67304 0.0
C161 C 0.37788 0.43973 0.68309 0.0
C162 C 0.39181 0.42752 0.68745 0.0
C163 C 0.38891 0.40932 0.68159 0.0
C164 C 0.38002 0.37419 0.75321 0.0
C165 C 0.39162 0.358 0.7015 0.0
C166 C 0.37301 0.37923 0.7258 0.0
N167 N 0.37891 0.37122 0.70039 0.0
C168 C 0.39892 0.35261 0.72851 0.0
C169 C 0.39308 0.3608 0.75451 0.0
C170 C 0.36399 0.34324 0.62951 0.0
C171 C 0.31039 0.3872 0.5768 0.0
C172 C 0.33223 0.35763 0.56755 0.0
C173 C 0.31385 0.35631 0.56189 0.0
C174 C 0.30288 0.37121 0.56661 0.0
N175 N 0.3395 0.37337 0.57754 0.0
C176 C 0.32884 0.38805 0.58216 0.0
Co177 Co 0.8679 0.11549 0.83703 0.0
Co178 Co 0.86493 0.11868 0.91322 0.0
O179 O 0.85809 0.1082 0.87522 0.0
C180 C 0.82898 0.12115 0.83172 0.0
O181 O 0.8296 0.12813 0.85835 0.0
C182 C 0.87304 0.08018 0.91883 0.0
O183 O 0.8799 0.0811 0.89216 0.0
O184 O 0.89091 0.1172 0.90329 0.0
O185 O 0.89265 0.11609 0.85372 0.0
H186 H 0.89839 0.16092 0.9802 0.0
H187 H 0.84452 0.08335 0.8407 0.0
O188 O 0.84321 0.11519 0.81959 0.0
H189 H 0.90241 0.06127 0.80226 0.0
H190 H 0.87258 0.11355 0.72607 0.0
H191 H 0.89518 0.1419 0.81739 0.0
H192 H 0.89804 0.09347 0.81305 0.0
H193 H 0.86077 0.10446 0.77475 0.0
O194 O 0.86631 0.0941 0.9309 0.0
H195 H 0.88957 0.14777 0.93225 0.0
H196 H 0.85475 0.11117 0.9757 0.0
H197 H 0.90748 0.15129 0.7692 0.0
H198 H 0.84826 0.05105 0.83001 0.0
H199 H 0.89616 0.13707 0.7231 0.0
H200 H 0.8774 0.03982 0.81074 0.0
O201 O 0.86478 0.14139 0.84669 0.0
H202 H 0.80199 0.09493 0.92119 0.0
H203 H 0.84115 0.14747 0.93719 0.0
H204 H 0.80882 0.14981 0.94831 0.0
H205 H 0.78901 0.1234 0.94032 0.0
H206 H 0.83437 0.09323 0.91014 0.0
H207 H 0.86329 0.12382 0.02415 0.0
H208 H 0.88521 0.14893 0.02658 0.0
O209 O 0.86381 0.14335 0.89625 0.0
C210 C 0.89986 0.11663 0.87928 0.0
C211 C 0.88878 0.15003 0.97942 0.0
C212 C 0.8691 0.12918 0.00409 0.0
N213 N 0.87155 0.12883 0.95119 0.0
C214 C 0.8837 0.14256 0.95234 0.0
C215 C 0.86434 0.12205 0.97661 0.0
C216 C 0.88139 0.14328 0.00544 0.0
C217 C 0.85718 0.07858 0.83203 0.0
N218 N 0.87101 0.09029 0.82737 0.0
C219 C 0.85924 0.06028 0.82614 0.0
C220 C 0.8756 0.05398 0.81537 0.0
C221 C 0.88964 0.066 0.81063 0.0
C222 C 0.8871 0.08421 0.81683 0.0
C223 C 0.87765 0.11982 0.746 0.0
C224 C 0.89028 0.13557 0.79743 0.0
C225 C 0.87099 0.11475 0.77361 0.0
N226 N 0.87739 0.12255 0.79887 0.0
C227 C 0.89725 0.14098 0.77021 0.0
C228 C 0.89088 0.13301 0.74435 0.0
C229 C 0.86372 0.15043 0.87059 0.0
C230 C 0.81049 0.10651 0.92485 0.0
C231 C 0.83261 0.13593 0.93361 0.0
C232 C 0.81432 0.13732 0.94 0.0
C233 C 0.80322 0.1225 0.93554 0.0
N234 N 0.83965 0.12021 0.92314 0.0
C235 C 0.82885 0.10561 0.91875 0.0
Co236 Co 0.12826 0.37295 0.91377 0.0
Co237 Co 0.12559 0.37699 0.83766 0.0
O238 O 0.1352 0.3839 0.87624 0.0
C239 C 0.11997 0.41132 0.92064 0.0
O240 O 0.11309 0.41061 0.89394 0.0
C241 C 0.1646 0.37182 0.83258 0.0
O242 O 0.164 0.36447 0.85891 0.0
O243 O 0.12893 0.351 0.8464 0.0
O244 O 0.12953 0.3485 0.89591 0.0
H245 H 0.08661 0.34165 0.768 0.0
H246 H 0.15876 0.39851 0.91197 0.0
O247 O 0.12676 0.39732 0.93231 0.0
H248 H 0.18432 0.3416 0.9485 0.0
H249 H 0.12948 0.3665 0.02451 0.0
H250 H 0.10366 0.34356 0.93141 0.0
H251 H 0.15204 0.34396 0.93704 0.0
H252 H 0.13816 0.37976 0.97665 0.0
O253 O 0.15033 0.37775 0.82054 0.0
H254 H 0.09864 0.35056 0.81669 0.0
H255 H 0.13283 0.38886 0.77591 0.0
H256 H 0.09471 0.3298 0.97874 0.0
H257 H 0.1911 0.39679 0.92339 0.0
H258 H 0.10765 0.34128 0.02573 0.0
H259 H 0.20409 0.36815 0.9417 0.0
O260 O 0.10231 0.37447 0.90357 0.0
H261 H 0.14462 0.44168 0.83343 0.0
H262 H 0.09533 0.39902 0.81413 0.0
H263 H 0.09068 0.4313 0.80458 0.0
H264 H 0.11545 0.45288 0.81425 0.0
H265 H 0.14864 0.4093 0.84288 0.0
H266 H 0.12128 0.38027 0.72675 0.0
H267 H 0.09795 0.35656 0.7226 0.0
O268 O 0.10078 0.37595 0.85401 0.0
C269 C 0.12987 0.3417 0.87001 0.0
C270 C 0.09673 0.35205 0.76953 0.0
C271 C 0.11621 0.37371 0.74638 0.0
N272 N 0.1163 0.37032 0.79914 0.0
C273 C 0.10355 0.35718 0.79704 0.0
C274 C 0.12272 0.37849 0.77426 0.0
C275 C 0.10312 0.3604 0.74406 0.0
C276 C 0.16428 0.38606 0.92022 0.0
N277 N 0.15351 0.37139 0.92395 0.0
C278 C 0.18261 0.38514 0.92653 0.0
C279 C 0.1899 0.36906 0.93675 0.0
C280 C 0.17882 0.35416 0.94056 0.0
C281 C 0.16055 0.35556 0.93397 0.0
C282 C 0.12377 0.36136 0.00418 0.0
C283 C 0.10943 0.34854 0.95175 0.0
C284 C 0.12861 0.36883 0.97703 0.0
N285 N 0.12153 0.36234 0.95127 0.0
C286 C 0.10427 0.34074 0.97849 0.0
C287 C 0.11153 0.3472 0.00485 0.0
C288 C 0.09346 0.37519 0.87945 0.0
C289 C 0.13375 0.43241 0.82905 0.0
C290 C 0.10616 0.40833 0.81842 0.0
C291 C 0.10346 0.42659 0.81292 0.0
C292 C 0.11737 0.43868 0.81833 0.0
N293 N 0.12227 0.40228 0.82893 0.0
C294 C 0.13597 0.41405 0.83423 0.0
Co295 Co 0.86534 0.87488 0.0849 0.0
Co296 Co 0.86862 0.87856 0.16101 0.0
O297 O 0.85866 0.88562 0.12278 0.0
C298 C 0.87354 0.9133 0.07858 0.0
O299 O 0.88052 0.91248 0.10518 0.0
C300 C 0.82973 0.87296 0.16693 0.0
O301 O 0.83017 0.86591 0.14034 0.0
O302 O 0.86541 0.85261 0.15184 0.0
O303 O 0.86423 0.85032 0.10232 0.0
H304 H 0.90846 0.84314 0.22906 0.0
H305 H 0.83485 0.90043 0.08777 0.0
O306 O 0.8667 0.89934 0.06677 0.0
H307 H 0.80901 0.84367 0.05085 0.0
H308 H 0.86322 0.869 0.97408 0.0
H309 H 0.88981 0.84558 0.06617 0.0
H310 H 0.84139 0.84599 0.06166 0.0
H311 H 0.85493 0.88202 0.02237 0.0
O312 O 0.84403 0.87901 0.17874 0.0
H313 H 0.89593 0.85221 0.18084 0.0
H314 H 0.86185 0.89006 0.22316 0.0
H315 H 0.89837 0.83207 0.01838 0.0
H316 H 0.80242 0.89875 0.07701 0.0
H317 H 0.88503 0.84379 0.97191 0.0
H318 H 0.7893 0.87019 0.05851 0.0
O319 O 0.89138 0.87635 0.09456 0.0
H320 H 0.84913 0.94308 0.167 0.0
H321 H 0.89893 0.90069 0.18422 0.0
H322 H 0.90341 0.93296 0.19429 0.0
H323 H 0.87839 0.9544 0.18567 0.0
H324 H 0.84528 0.91072 0.15702 0.0
H325 H 0.8739 0.8813 0.27187 0.0
H326 H 0.89744 0.85773 0.27501 0.0
O327 O 0.89327 0.87779 0.14409 0.0
C328 C 0.86422 0.84341 0.12811 0.0
C329 C 0.89825 0.85346 0.22797 0.0
C330 C 0.87884 0.87487 0.252 0.0
N331 N 0.87829 0.87175 0.19919 0.0
C332 C 0.89115 0.85869 0.20073 0.0
C333 C 0.87204 0.87975 0.22437 0.0
C334 C 0.89205 0.86164 0.25374 0.0
C335 C 0.82927 0.88801 0.07943 0.0
N336 N 0.84001 0.87335 0.07522 0.0
C337 C 0.81089 0.88712 0.0735 0.0
C338 C 0.80352 0.87108 0.06317 0.0
C339 C 0.81458 0.8562 0.05888 0.0
C340 C 0.83289 0.85758 0.06509 0.0
C341 C 0.86909 0.86375 0.99418 0.0
C342 C 0.88387 0.85068 0.04604 0.0
C343 C 0.86448 0.87109 0.02158 0.0
N344 N 0.87178 0.86446 0.04705 0.0
C345 C 0.88881 0.84301 0.01905 0.0
C346 C 0.88133 0.8496 0.99298 0.0
C347 C 0.9004 0.87706 0.1185 0.0
C348 C 0.86011 0.93387 0.17093 0.0
C349 C 0.88798 0.90994 0.18039 0.0
C350 C 0.89059 0.92819 0.18618 0.0
C351 C 0.87654 0.94021 0.18136 0.0
N352 N 0.87182 0.90383 0.17017 0.0
C353 C 0.85798 0.91552 0.16544 0.0
Co354 Co 0.36813 0.61484 0.33589 0.0
Co355 Co 0.36429 0.61804 0.412 0.0
O356 O 0.35749 0.60792 0.37369 0.0
C357 C 0.32959 0.6223 0.3292 0.0
O358 O 0.33013 0.62918 0.35591 0.0
C359 C 0.37084 0.57924 0.41771 0.0
O360 O 0.37784 0.57989 0.39113 0.0
O361 O 0.39031 0.6155 0.40295 0.0
O362 O 0.39264 0.61419 0.35346 0.0
H363 H 0.39856 0.6588 0.48031 0.0
H364 H 0.34321 0.58384 0.33851 0.0
O365 O 0.34371 0.61574 0.31756 0.0
H366 H 0.40045 0.55912 0.30183 0.0
H367 H 0.37423 0.61293 0.22511 0.0
H368 H 0.39691 0.63994 0.31747 0.0
H369 H 0.39749 0.59146 0.31272 0.0
H370 H 0.36132 0.60432 0.27327 0.0
O371 O 0.3645 0.59339 0.42963 0.0
H372 H 0.38984 0.64607 0.43201 0.0
H373 H 0.35302 0.61086 0.47408 0.0
H374 H 0.41031 0.64883 0.26983 0.0
H375 H 0.34554 0.55143 0.32767 0.0
H376 H 0.39896 0.63528 0.22321 0.0
H377 H 0.37435 0.53887 0.30929 0.0
O378 O 0.36609 0.64085 0.34564 0.0
H379 H 0.30036 0.59681 0.41764 0.0
H380 H 0.34136 0.64772 0.43532 0.0
H381 H 0.30902 0.65132 0.4453 0.0
H382 H 0.28828 0.62574 0.43645 0.0
H383 H 0.33279 0.59383 0.40773 0.0
H384 H 0.36145 0.62309 0.52287 0.0
H385 H 0.38432 0.6473 0.52617 0.0
O386 O 0.36436 0.64275 0.39514 0.0
C387 C 0.39953 0.61441 0.37927 0.0
C388 C 0.38854 0.6483 0.47915 0.0
C389 C 0.36772 0.62824 0.50304 0.0
N390 N 0.37083 0.62785 0.45023 0.0
C391 C 0.3835 0.64108 0.45186 0.0
C392 C 0.36303 0.62134 0.47537 0.0
C393 C 0.38055 0.64183 0.50488 0.0
C394 C 0.35573 0.5785 0.33023 0.0
N395 N 0.37017 0.58954 0.32613 0.0
C396 C 0.357 0.56013 0.32425 0.0
C397 C 0.37317 0.55308 0.31398 0.0
C398 C 0.38783 0.56443 0.30981 0.0
C399 C 0.38608 0.58273 0.31607 0.0
C400 C 0.37931 0.6189 0.24528 0.0
C401 C 0.39198 0.63391 0.29729 0.0
C402 C 0.37203 0.61411 0.27259 0.0
N403 N 0.37846 0.62153 0.29815 0.0
C404 C 0.39958 0.63903 0.27037 0.0
C405 C 0.39319 0.63144 0.24423 0.0
C406 C 0.36499 0.64988 0.36955 0.0
C407 C 0.30927 0.60803 0.42166 0.0
C408 C 0.33242 0.63653 0.43138 0.0
C409 C 0.31412 0.63864 0.43713 0.0
C410 C 0.3025 0.62428 0.43217 0.0
N411 N 0.33897 0.62055 0.42107 0.0
C412 C 0.32766 0.6064 0.41622 0.0
Co413 Co 0.62419 0.11584 0.66307 0.0
Co414 Co 0.62785 0.11868 0.58694 0.0
O415 O 0.63448 0.1085 0.62521 0.0
C416 C 0.66298 0.12193 0.66948 0.0
O417 O 0.66254 0.12892 0.64287 0.0
C418 C 0.6206 0.08001 0.58125 0.0
O419 O 0.61337 0.08086 0.60766 0.0
O420 O 0.60179 0.1167 0.59611 0.0
O421 O 0.59963 0.11614 0.64565 0.0
H422 H 0.59425 0.15994 0.51866 0.0
H423 H 0.64793 0.08391 0.66029 0.0
O424 O 0.64869 0.11583 0.68121 0.0
H425 H 0.58985 0.06142 0.69713 0.0
H426 H 0.61832 0.11425 0.77388 0.0
H427 H 0.59644 0.14205 0.68175 0.0
H428 H 0.59401 0.09362 0.68627 0.0
H429 H 0.63076 0.10511 0.72561 0.0
O430 O 0.62721 0.09403 0.56938 0.0
H431 H 0.60279 0.14715 0.56696 0.0
H432 H 0.63892 0.11117 0.52484 0.0
H433 H 0.58352 0.15149 0.72952 0.0
H434 H 0.64439 0.05163 0.67108 0.0
H435 H 0.59448 0.13755 0.77602 0.0
H436 H 0.61516 0.04019 0.68954 0.0
O437 O 0.62713 0.14174 0.65333 0.0
H438 H 0.69137 0.09626 0.58107 0.0
H439 H 0.65128 0.1479 0.56355 0.0
H440 H 0.68367 0.15088 0.55343 0.0
H441 H 0.70395 0.12493 0.56219 0.0
H442 H 0.65891 0.09391 0.59112 0.0
H443 H 0.63067 0.12346 0.47606 0.0
H444 H 0.60824 0.14808 0.47278 0.0
O445 O 0.62822 0.14343 0.60376 0.0
C446 C 0.59263 0.1163 0.61991 0.0
C447 C 0.60409 0.14926 0.51981 0.0
C448 C 0.62451 0.12877 0.4959 0.0
N449 N 0.62144 0.12854 0.54871 0.0
C450 C 0.60901 0.142 0.54709 0.0
C451 C 0.6291 0.12184 0.52357 0.0
C452 C 0.61193 0.14258 0.49407 0.0
C453 C 0.63523 0.07906 0.66861 0.0
N454 N 0.62122 0.09064 0.67278 0.0
C455 C 0.63328 0.06075 0.67456 0.0
C456 C 0.61687 0.05434 0.68488 0.0
C457 C 0.60265 0.06625 0.68912 0.0
C458 C 0.60508 0.08446 0.68288 0.0
C459 C 0.61342 0.1204 0.75377 0.0
C460 C 0.60119 0.13585 0.70188 0.0
C461 C 0.62043 0.11531 0.72639 0.0
N462 N 0.61422 0.12295 0.70089 0.0
C463 C 0.59387 0.14128 0.72887 0.0
C464 C 0.60003 0.13347 0.75495 0.0
C465 C 0.62808 0.15066 0.62933 0.0
C466 C 0.68266 0.10764 0.57708 0.0
C467 C 0.66002 0.13655 0.56745 0.0
C468 C 0.67834 0.13831 0.56163 0.0
C469 C 0.68971 0.12375 0.56653 0.0
N470 N 0.6532 0.12072 0.57779 0.0
C471 C 0.66426 0.10637 0.5826 0.0
Co472 Co 0.86549 0.375 0.91435 0.0
Co473 Co 0.86803 0.37837 0.83814 0.0
O474 O 0.85845 0.38558 0.87656 0.0
C475 C 0.87375 0.41345 0.92022 0.0
O476 O 0.88049 0.41255 0.89347 0.0
C477 C 0.82904 0.37285 0.83319 0.0
O478 O 0.82968 0.36587 0.85979 0.0
O479 O 0.86488 0.35245 0.84757 0.0
O480 O 0.86421 0.35038 0.89713 0.0
H481 H 0.90712 0.3426 0.76933 0.0
H482 H 0.83498 0.40054 0.91204 0.0
O483 O 0.86703 0.39954 0.93226 0.0
H484 H 0.80953 0.34396 0.95011 0.0
H485 H 0.86454 0.36963 0.02525 0.0
H486 H 0.89016 0.34579 0.93266 0.0
H487 H 0.84179 0.34622 0.93841 0.0
H488 H 0.85572 0.38241 0.97708 0.0
O489 O 0.84327 0.37878 0.82103 0.0
H490 H 0.89511 0.35191 0.81781 0.0
H491 H 0.86063 0.3896 0.7761 0.0
H492 H 0.89925 0.33252 0.98033 0.0
H493 H 0.80267 0.39891 0.92368 0.0
H494 H 0.8864 0.34446 0.02705 0.0
H495 H 0.78974 0.37044 0.94276 0.0
O496 O 0.89142 0.37642 0.90403 0.0
H497 H 0.84852 0.44287 0.83219 0.0
H498 H 0.8981 0.40037 0.81398 0.0
H499 H 0.90249 0.43259 0.80353 0.0
H500 H 0.87758 0.45408 0.81264 0.0
H501 H 0.84476 0.41056 0.84254 0.0
H502 H 0.87214 0.3806 0.72715 0.0
H503 H 0.89562 0.35699 0.72357 0.0
O504 O 0.89287 0.37764 0.85445 0.0
C505 C 0.86394 0.34336 0.87139 0.0
C506 C 0.89694 0.35295 0.77061 0.0
C507 C 0.87729 0.37426 0.74693 0.0
N508 N 0.8773 0.37138 0.79978 0.0
C509 C 0.89013 0.35831 0.798 0.0
C510 C 0.8708 0.37927 0.7747 0.0
C511 C 0.89046 0.36101 0.74494 0.0
C512 C 0.82948 0.38816 0.92062 0.0
N513 N 0.84027 0.37352 0.92467 0.0
C514 C 0.81117 0.3873 0.92705 0.0
C515 C 0.80392 0.37131 0.93772 0.0
C516 C 0.81501 0.35644 0.94182 0.0
C517 C 0.83326 0.35779 0.93511 0.0
C518 C 0.8702 0.36429 0.00503 0.0
C519 C 0.88443 0.35098 0.9529 0.0
C520 C 0.86528 0.37149 0.97771 0.0
N521 N 0.87232 0.36475 0.95209 0.0
C522 C 0.88966 0.34344 0.97982 0.0
C523 C 0.88247 0.35016 0.00603 0.0
C524 C 0.90023 0.37702 0.87988 0.0
C525 C 0.85946 0.43363 0.82805 0.0
C526 C 0.88721 0.40964 0.81803 0.0
C527 C 0.88976 0.42787 0.81202 0.0
C528 C 0.87578 0.43992 0.81712 0.0
N529 N 0.87116 0.40359 0.82874 0.0
C530 C 0.85738 0.41531 0.83374 0.0
Co531 Co 0.36436 0.1187 0.58626 0.0
Co532 Co 0.36805 0.11538 0.66235 0.0
O533 O 0.35796 0.10808 0.62431 0.0
C534 C 0.37273 0.08029 0.58007 0.0
O535 O 0.37988 0.08125 0.60654 0.0
C536 C 0.32911 0.12048 0.66883 0.0
O537 O 0.32929 0.12755 0.64227 0.0
O538 O 0.36449 0.14126 0.65306 0.0
O539 O 0.36323 0.14333 0.60353 0.0
H540 H 0.40785 0.15153 0.72958 0.0
H541 H 0.33402 0.09302 0.58978 0.0
O542 O 0.36574 0.09416 0.56828 0.0
H543 H 0.3077 0.1495 0.55286 0.0
H544 H 0.36159 0.12408 0.47544 0.0
H545 H 0.38859 0.14802 0.56695 0.0
H546 H 0.34014 0.14737 0.56319 0.0
H547 H 0.35363 0.11125 0.52395 0.0
O548 O 0.34357 0.1147 0.68043 0.0
H549 H 0.39516 0.14212 0.6816 0.0
H550 H 0.36174 0.10406 0.72466 0.0
H551 H 0.39683 0.16136 0.51893 0.0
H552 H 0.30152 0.09451 0.57952 0.0
H553 H 0.38329 0.14937 0.47275 0.0
H554 H 0.28816 0.12293 0.56102 0.0
O555 O 0.39046 0.11738 0.59553 0.0
H556 H 0.34934 0.05067 0.66902 0.0
H557 H 0.39873 0.09369 0.68527 0.0
H558 H 0.40363 0.06152 0.69551 0.0
H559 H 0.37882 0.03977 0.68738 0.0
H560 H 0.34507 0.08294 0.65886 0.0
H561 H 0.37395 0.11316 0.77314 0.0
H562 H 0.39723 0.13701 0.77578 0.0
O563 O 0.39261 0.11635 0.64505 0.0
C564 C 0.36322 0.15035 0.62927 0.0
C565 C 0.39775 0.14108 0.72871 0.0
C566 C 0.37871 0.11956 0.75316 0.0
N567 N 0.37785 0.12246 0.70033 0.0
C568 C 0.39056 0.13566 0.7016 0.0
C569 C 0.37183 0.11449 0.72566 0.0
C570 C 0.39178 0.13294 0.75462 0.0
C571 C 0.32833 0.10537 0.58144 0.0
N572 N 0.33898 0.12006 0.57696 0.0
C573 C 0.30991 0.10616 0.5758 0.0
C574 C 0.30241 0.12212 0.56546 0.0
C575 C 0.31337 0.13704 0.5609 0.0
C576 C 0.33172 0.13576 0.56684 0.0
C577 C 0.36756 0.12944 0.49541 0.0
C578 C 0.38256 0.14281 0.54695 0.0
C579 C 0.36313 0.12221 0.52293 0.0
N580 N 0.37054 0.12898 0.54825 0.0
C581 C 0.38732 0.15038 0.51983 0.0
C582 C 0.37973 0.14364 0.49392 0.0
C583 C 0.39961 0.11692 0.61936 0.0
C584 C 0.36023 0.06003 0.67274 0.0
C585 C 0.38787 0.0843 0.68165 0.0
C586 C 0.39072 0.06611 0.68754 0.0
C587 C 0.37679 0.05391 0.683 0.0
N588 N 0.3716 0.09019 0.67161 0.0
C589 C 0.35787 0.07832 0.66715 0.0
Co590 Co 0.62337 0.61512 0.33444 0.0
Co591 Co 0.62745 0.61854 0.41048 0.0
O592 O 0.63424 0.60843 0.3722 0.0
C593 C 0.66179 0.62296 0.32752 0.0
O594 O 0.66116 0.63007 0.35407 0.0
C595 C 0.6217 0.57965 0.41669 0.0
O596 O 0.6145 0.58004 0.39022 0.0
O597 O 0.60145 0.61545 0.40172 0.0
O598 O 0.59892 0.61426 0.35224 0.0
H599 H 0.59262 0.65876 0.47885 0.0
H600 H 0.64864 0.58439 0.33711 0.0
O601 O 0.64773 0.61622 0.31596 0.0
H602 H 0.59154 0.55896 0.30109 0.0
H603 H 0.61691 0.6128 0.22373 0.0
H604 H 0.59421 0.63982 0.31603 0.0
H605 H 0.59419 0.59135 0.31172 0.0
H606 H 0.6301 0.6045 0.27186 0.0
O607 O 0.62785 0.59397 0.42833 0.0
H608 H 0.60138 0.64606 0.43056 0.0
H609 H 0.63921 0.61183 0.47249 0.0
H610 H 0.58053 0.64839 0.26841 0.0
H611 H 0.64663 0.55194 0.32652 0.0
H612 H 0.59189 0.63484 0.22182 0.0
H613 H 0.6179 0.53901 0.30847 0.0
O614 O 0.62512 0.64119 0.34394 0.0
H615 H 0.69183 0.59867 0.41554 0.0
H616 H 0.64986 0.64878 0.43323 0.0
H617 H 0.68218 0.6531 0.44277 0.0
H618 H 0.70341 0.62792 0.43391 0.0
H619 H 0.65942 0.59498 0.40609 0.0
H620 H 0.63077 0.62404 0.52127 0.0
H621 H 0.60736 0.64773 0.52464 0.0
O622 O 0.62675 0.64317 0.39344 0.0
C623 C 0.59214 0.61431 0.37812 0.0
C624 C 0.60288 0.64848 0.47766 0.0
C625 C 0.62427 0.62898 0.50147 0.0
N626 N 0.62089 0.62834 0.44871 0.0
C627 C 0.60793 0.64129 0.45038 0.0
C628 C 0.62897 0.62209 0.47381 0.0
C629 C 0.61114 0.64228 0.50335 0.0
C630 C 0.63615 0.5789 0.32897 0.0
N631 N 0.62158 0.58977 0.32492 0.0
C632 C 0.63507 0.5605 0.32313 0.0
C633 C 0.61894 0.55325 0.31305 0.0
C634 C 0.60414 0.56443 0.30892 0.0
C635 C 0.60571 0.58276 0.31504 0.0
C636 C 0.61182 0.61877 0.24388 0.0
C637 C 0.59915 0.63379 0.29586 0.0
C638 C 0.61926 0.61416 0.27118 0.0
N639 N 0.61283 0.62157 0.29672 0.0
C640 C 0.59139 0.63873 0.26896 0.0
C641 C 0.59778 0.63114 0.24282 0.0
C642 C 0.62599 0.65027 0.36783 0.0
C643 C 0.68271 0.60972 0.41957 0.0
C644 C 0.65901 0.63777 0.4293 0.0
C645 C 0.67729 0.64028 0.43479 0.0
C646 C 0.6892 0.62615 0.42984 0.0
N647 N 0.65276 0.62161 0.41924 0.0
C648 C 0.66434 0.60768 0.41439 0.0
Co649 Co 0.1249 0.87711 0.16441 0.0
Co650 Co 0.12871 0.87499 0.08822 0.0
O651 O 0.13518 0.88489 0.12681 0.0
C652 C 0.16371 0.87116 0.17073 0.0
O653 O 0.16336 0.86448 0.14388 0.0
C654 C 0.12089 0.91361 0.08361 0.0
O655 O 0.11383 0.91248 0.11011 0.0
O656 O 0.10262 0.87656 0.09737 0.0
O657 O 0.10035 0.87688 0.14691 0.0
H658 H 0.09569 0.83398 0.01861 0.0
H659 H 0.14849 0.90917 0.16272 0.0
O660 O 0.14938 0.87704 0.18262 0.0
H661 H 0.09028 0.93101 0.20019 0.0
H662 H 0.11892 0.87752 0.27524 0.0
H663 H 0.09724 0.8506 0.18217 0.0
H664 H 0.0946 0.89896 0.18825 0.0
H665 H 0.13136 0.88721 0.22731 0.0
O666 O 0.12772 0.8998 0.07136 0.0
H667 H 0.10402 0.84641 0.06731 0.0
H668 H 0.13974 0.88322 0.02638 0.0
H669 H 0.08432 0.84061 0.22958 0.0
H670 H 0.1448 0.94131 0.1746 0.0
H671 H 0.09518 0.85411 0.27656 0.0
H672 H 0.11551 0.95243 0.19338 0.0
O673 O 0.12796 0.85132 0.15386 0.0
H674 H 0.19192 0.89831 0.08316 0.0
H675 H 0.15255 0.84631 0.06405 0.0
H676 H 0.18499 0.84385 0.05393 0.0
H677 H 0.20491 0.86998 0.0635 0.0
H678 H 0.15941 0.90014 0.09317 0.0
H679 H 0.13169 0.8713 0.97721 0.0
H680 H 0.10956 0.84645 0.97313 0.0
O681 O 0.12938 0.8501 0.10428 0.0
C682 C 0.09342 0.8768 0.12113 0.0
C683 C 0.10539 0.84477 0.02011 0.0
C684 C 0.12558 0.86573 0.99687 0.0
N685 N 0.12246 0.86541 0.04968 0.0
C686 C 0.1102 0.85182 0.04762 0.0
C687 C 0.13006 0.87245 0.02476 0.0
C688 C 0.11316 0.85178 0.9946 0.0
C689 C 0.13576 0.91387 0.17118 0.0
N690 N 0.12181 0.90219 0.17493 0.0
C691 C 0.13373 0.9321 0.17774 0.0
C692 C 0.11728 0.93833 0.18824 0.0
C693 C 0.10311 0.92633 0.19204 0.0
C694 C 0.10563 0.9082 0.18519 0.0
C695 C 0.11406 0.87156 0.25492 0.0
C696 C 0.10194 0.85661 0.20251 0.0
C697 C 0.12107 0.87697 0.22773 0.0
N698 N 0.11492 0.86957 0.20197 0.0
C699 C 0.09462 0.85086 0.22929 0.0
C700 C 0.10073 0.85843 0.25564 0.0
C701 C 0.12913 0.84263 0.12963 0.0
C702 C 0.18337 0.88685 0.07882 0.0
C703 C 0.16113 0.85773 0.06829 0.0
C704 C 0.17949 0.85627 0.06247 0.0
C705 C 0.19065 0.87094 0.06783 0.0
N706 N 0.15409 0.87338 0.07906 0.0
C707 C 0.16494 0.88783 0.08432 0.0
Co708 Co 0.86477 0.61885 0.08655 0.0
Co709 Co 0.86732 0.61552 0.16277 0.0
O710 O 0.85763 0.60838 0.12435 0.0
C711 C 0.87266 0.5803 0.08075 0.0
O712 O 0.87932 0.58113 0.10758 0.0
C713 C 0.82844 0.62164 0.16743 0.0
O714 O 0.82927 0.62858 0.14081 0.0
O715 O 0.86458 0.64147 0.15325 0.0
O716 O 0.86374 0.64349 0.1037 0.0
H717 H 0.90698 0.65073 0.23154 0.0
H718 H 0.83401 0.59363 0.08889 0.0
O719 O 0.86607 0.59428 0.06869 0.0
H720 H 0.8091 0.65043 0.05069 0.0
H721 H 0.86382 0.62416 0.97564 0.0
H722 H 0.88974 0.64777 0.06821 0.0
H723 H 0.84134 0.64784 0.06237 0.0
H724 H 0.8549 0.6115 0.02382 0.0
O725 O 0.84254 0.61552 0.17978 0.0
H726 H 0.89484 0.64155 0.18307 0.0
H727 H 0.8597 0.60452 0.22484 0.0
H728 H 0.89893 0.66093 0.02054 0.0
H729 H 0.8017 0.59558 0.07727 0.0
H730 H 0.88593 0.64911 0.97382 0.0
H731 H 0.78905 0.62417 0.05813 0.0
O732 O 0.89068 0.61714 0.09693 0.0
H733 H 0.84682 0.55133 0.16896 0.0
H734 H 0.89704 0.59308 0.18711 0.0
H735 H 0.90094 0.56082 0.19773 0.0
H736 H 0.8757 0.53971 0.18864 0.0
H737 H 0.84356 0.58368 0.15845 0.0
H738 H 0.87136 0.61341 0.27379 0.0
H739 H 0.89522 0.63662 0.27733 0.0
O740 O 0.89217 0.6158 0.1465 0.0
C741 C 0.86365 0.65055 0.12941 0.0
C742 C 0.89663 0.64056 0.23028 0.0
C743 C 0.87661 0.61963 0.25399 0.0
N744 N 0.87669 0.62241 0.20113 0.0
C745 C 0.88974 0.63527 0.20289 0.0
C746 C 0.87004 0.61468 0.22623 0.0
C747 C 0.89001 0.63265 0.25596 0.0
C748 C 0.82863 0.60605 0.08028 0.0
N749 N 0.83956 0.62058 0.07619 0.0
C750 C 0.81031 0.60711 0.07386 0.0
C751 C 0.80322 0.62316 0.06316 0.0
C752 C 0.81446 0.6379 0.059 0.0
C753 C 0.8327 0.63637 0.06571 0.0
C754 C 0.86955 0.62945 0.99585 0.0
C755 C 0.88394 0.64264 0.04798 0.0
C756 C 0.86457 0.62231 0.02318 0.0
N757 N 0.87169 0.62899 0.04879 0.0
C758 C 0.88924 0.6501 0.02105 0.0
C759 C 0.88195 0.64345 0.99485 0.0
C760 C 0.89951 0.61635 0.12106 0.0
C761 C 0.8579 0.56041 0.17309 0.0
C762 C 0.88601 0.58398 0.18308 0.0
C763 C 0.88828 0.56573 0.18918 0.0
C764 C 0.87412 0.55389 0.18409 0.0
N765 N 0.87006 0.59026 0.1723 0.0
C766 C 0.8561 0.57875 0.16731 0.0
Co767 Co 0.1279 0.11801 0.91455 0.0
Co768 Co 0.12504 0.11367 0.83848 0.0
O769 O 0.13471 0.10687 0.87705 0.0
C770 C 0.11936 0.07971 0.92177 0.0
O771 O 0.11254 0.08029 0.89504 0.0
C772 C 0.16403 0.11881 0.83311 0.0
O773 O 0.1635 0.12613 0.8595 0.0
O774 O 0.12845 0.13968 0.84706 0.0
O775 O 0.12932 0.14237 0.89654 0.0
H776 H 0.08597 0.14884 0.76889 0.0
H777 H 0.1582 0.0922 0.91279 0.0
O778 O 0.12624 0.09373 0.93328 0.0
H779 H 0.18427 0.14906 0.9488 0.0
H780 H 0.12939 0.12491 0.02524 0.0
H781 H 0.10355 0.14766 0.93213 0.0
H782 H 0.15195 0.1469 0.9375 0.0
H783 H 0.13788 0.11138 0.97743 0.0
O784 O 0.14974 0.11283 0.8212 0.0
H785 H 0.0981 0.14009 0.81754 0.0
H786 H 0.13211 0.10156 0.77675 0.0
H787 H 0.09479 0.16168 0.97942 0.0
H788 H 0.19057 0.09371 0.92406 0.0
H789 H 0.10775 0.15029 0.02641 0.0
H790 H 0.20381 0.12232 0.9421 0.0
O791 O 0.10192 0.11664 0.90449 0.0
H792 H 0.14397 0.04893 0.8344 0.0
H793 H 0.09469 0.09161 0.81528 0.0
H794 H 0.08997 0.05931 0.80589 0.0
H795 H 0.11473 0.03772 0.81547 0.0
H796 H 0.14806 0.08134 0.84368 0.0
H797 H 0.12046 0.10999 0.72762 0.0
H798 H 0.09716 0.13374 0.72349 0.0
O799 O 0.10029 0.11482 0.85497 0.0
C800 C 0.12956 0.14907 0.8706 0.0
C801 C 0.09607 0.13843 0.7704 0.0
C802 C 0.11545 0.11664 0.74724 0.0
N803 N 0.11568 0.12023 0.79998 0.0
C804 C 0.10295 0.13338 0.7979 0.0
C805 C 0.12202 0.11195 0.7751 0.0
C806 C 0.10237 0.12997 0.74494 0.0
C807 C 0.16383 0.10464 0.92093 0.0
N808 N 0.15318 0.11942 0.92461 0.0
C809 C 0.18218 0.10544 0.92715 0.0
C810 C 0.18961 0.1215 0.93722 0.0
C811 C 0.17865 0.13651 0.94097 0.0
C812 C 0.16037 0.13522 0.93448 0.0
C813 C 0.12368 0.13001 0.00491 0.0
C814 C 0.10932 0.14271 0.95248 0.0
C815 C 0.12841 0.12238 0.97778 0.0
N816 N 0.12132 0.12882 0.95202 0.0
C817 C 0.10428 0.15066 0.97919 0.0
C818 C 0.11154 0.14426 0.00555 0.0
C819 C 0.09302 0.11581 0.88044 0.0
C820 C 0.1331 0.05821 0.83005 0.0
C821 C 0.10552 0.0823 0.81952 0.0
C822 C 0.10278 0.06403 0.81412 0.0
C823 C 0.11668 0.05193 0.81948 0.0
N824 N 0.12166 0.08836 0.82989 0.0
C825 C 0.13536 0.07658 0.83514 0.0
Co826 Co 0.6247 0.37883 0.66292 0.0
Co827 Co 0.62861 0.37576 0.58684 0.0
O828 O 0.63511 0.38607 0.62513 0.0
C829 C 0.66344 0.37269 0.66969 0.0
O830 O 0.66306 0.36566 0.64308 0.0
C831 C 0.62136 0.41441 0.5808 0.0
O832 O 0.61411 0.41371 0.6072 0.0
O833 O 0.60252 0.37776 0.59575 0.0
O834 O 0.6002 0.37849 0.64528 0.0
H835 H 0.59529 0.33426 0.51842 0.0
H836 H 0.64847 0.41073 0.6603 0.0
O837 O 0.64914 0.37886 0.68129 0.0
H838 H 0.59026 0.43337 0.69647 0.0
H839 H 0.61844 0.38075 0.77367 0.0
H840 H 0.59687 0.35269 0.68143 0.0
H841 H 0.59444 0.40114 0.68574 0.0
H842 H 0.63106 0.38973 0.72549 0.0
O843 O 0.62802 0.40034 0.56912 0.0
H844 H 0.60363 0.34722 0.56674 0.0
H845 H 0.63992 0.38305 0.5248 0.0
H846 H 0.58377 0.34341 0.72911 0.0
H847 H 0.64491 0.44305 0.67097 0.0
H848 H 0.59457 0.35748 0.77566 0.0
H849 H 0.61562 0.45456 0.6891 0.0
O850 O 0.62765 0.35289 0.6533 0.0
H851 H 0.69213 0.39821 0.58148 0.0
H852 H 0.65216 0.34648 0.56382 0.0
H853 H 0.68459 0.34348 0.55404 0.0
H854 H 0.70482 0.36948 0.56288 0.0
H855 H 0.65963 0.40057 0.59118 0.0
H856 H 0.63186 0.37058 0.47601 0.0
H857 H 0.60945 0.34595 0.47263 0.0
O858 O 0.62894 0.35108 0.60376 0.0
C859 C 0.59329 0.37824 0.61947 0.0
C860 C 0.60511 0.34495 0.51962 0.0
C861 C 0.62563 0.36535 0.49581 0.0
N862 N 0.62235 0.36576 0.54859 0.0
C863 C 0.60993 0.3523 0.54691 0.0
C864 C 0.63011 0.37238 0.52349 0.0
C865 C 0.61305 0.35153 0.49393 0.0
C866 C 0.63574 0.41562 0.66848 0.0
N867 N 0.62171 0.40406 0.67253 0.0
C868 C 0.63378 0.43394 0.67436 0.0
C869 C 0.61733 0.44039 0.68448 0.0
C870 C 0.60309 0.42851 0.68861 0.0
C871 C 0.60553 0.41028 0.68244 0.0
C872 C 0.6136 0.37454 0.75353 0.0
C873 C 0.60155 0.35895 0.70159 0.0
C874 C 0.62072 0.37955 0.7262 0.0
N875 N 0.61459 0.37184 0.70068 0.0
C876 C 0.59412 0.35361 0.72852 0.0
C877 C 0.6002 0.36149 0.75463 0.0
C878 C 0.62869 0.34391 0.62934 0.0
C879 C 0.68345 0.3868 0.57746 0.0
C880 C 0.66087 0.35784 0.56775 0.0
C881 C 0.67922 0.35608 0.56212 0.0
C882 C 0.69056 0.37067 0.56707 0.0
N883 N 0.654 0.37371 0.57794 0.0
C884 C 0.66503 0.38809 0.58279 0.0
Co885 Co 0.36602 0.87464 0.414 0.0
Co886 Co 0.36868 0.87809 0.33782 0.0
O887 O 0.35885 0.88509 0.37618 0.0
C888 C 0.37345 0.91326 0.41995 0.0
O889 O 0.38024 0.91249 0.39322 0.0
C890 C 0.32984 0.87178 0.33268 0.0
O891 O 0.33062 0.86471 0.3592 0.0
O892 O 0.36606 0.85211 0.3472 0.0
O893 O 0.36532 0.85 0.39675 0.0
H894 H 0.40872 0.84322 0.26925 0.0
H895 H 0.33497 0.89952 0.41147 0.0
O896 O 0.36699 0.89921 0.43195 0.0
H897 H 0.31063 0.84238 0.44923 0.0
H898 H 0.36485 0.86919 0.52489 0.0
H899 H 0.39126 0.84597 0.43248 0.0
H900 H 0.34287 0.84535 0.43786 0.0
H901 H 0.35591 0.88181 0.47666 0.0
O902 O 0.34395 0.87801 0.32057 0.0
H903 H 0.39638 0.85223 0.31765 0.0
H904 H 0.36119 0.88918 0.27574 0.0
H905 H 0.40048 0.83286 0.4802 0.0
H906 H 0.30266 0.89718 0.42279 0.0
H907 H 0.38724 0.84448 0.52684 0.0
H908 H 0.29029 0.86843 0.44171 0.0
O909 O 0.39194 0.87664 0.40388 0.0
H910 H 0.34787 0.94219 0.33182 0.0
H911 H 0.39835 0.90072 0.31387 0.0
H912 H 0.4021 0.93303 0.3035 0.0
H913 H 0.37674 0.954 0.31248 0.0
H914 H 0.34474 0.9098 0.34211 0.0
H915 H 0.37303 0.88046 0.22686 0.0
H916 H 0.39702 0.85738 0.22342 0.0
O917 O 0.39348 0.87789 0.35431 0.0
C918 C 0.36527 0.84298 0.37101 0.0
C919 C 0.39831 0.85333 0.27047 0.0
C920 C 0.37826 0.87422 0.24667 0.0
N921 N 0.3782 0.87132 0.29951 0.0
C922 C 0.39131 0.85853 0.29781 0.0
C923 C 0.37158 0.87908 0.2744 0.0
C924 C 0.39173 0.86127 0.24476 0.0
C925 C 0.32971 0.88702 0.41999 0.0
N926 N 0.3408 0.87262 0.42413 0.0
C927 C 0.3114 0.88575 0.42624 0.0
C928 C 0.30446 0.86961 0.43681 0.0
C929 C 0.31586 0.85498 0.44102 0.0
C930 C 0.3341 0.85673 0.43448 0.0
C931 C 0.37069 0.86399 0.50471 0.0
C932 C 0.38536 0.85101 0.45268 0.0
C933 C 0.3657 0.8711 0.47736 0.0
N934 N 0.37295 0.86453 0.45179 0.0
C935 C 0.39067 0.84358 0.47963 0.0
C936 C 0.38325 0.85012 0.50579 0.0
C937 C 0.40079 0.87744 0.3798 0.0
C938 C 0.359 0.93317 0.32774 0.0
C939 C 0.38726 0.90977 0.31787 0.0
C940 C 0.38945 0.92804 0.3119 0.0
C941 C 0.37521 0.9398 0.31693 0.0
N942 N 0.37131 0.90337 0.32846 0.0
C943 C 0.35728 0.91481 0.33339 0.0
C944 C 0.13116 0.8127 0.1045 0.0
C945 C 0.12995 0.82276 0.13077 0.0
C946 C 0.13121 0.79398 0.10531 0.0
C947 C 0.13947 0.75515 0.15381 0.0
H948 H 0.11052 0.72996 0.09574 0.0
C949 C 0.12805 0.67813 0.15634 0.0
C950 C 0.12862 0.66914 0.12897 0.0
C951 C 0.12833 0.69689 0.15755 0.0
C952 C 0.11882 0.73678 0.11191 0.0
H953 H 0.12812 0.8209 0.17859 0.0
H954 H 0.12812 0.78813 0.17988 0.0
H955 H 0.11093 0.76266 0.09611 0.0
H956 H 0.13019 0.67294 0.08142 0.0
H957 H 0.13089 0.70552 0.08364 0.0
H958 H 0.1474 0.72919 0.16951 0.0
C959 C 0.12917 0.79482 0.15871 0.0
C960 C 0.11905 0.75551 0.11212 0.0
C961 C 0.12909 0.8136 0.15792 0.0
C962 C 0.12966 0.67936 0.1029 0.0
C963 C 0.12994 0.69808 0.10413 0.0
C964 C 0.13925 0.73637 0.15358 0.0
C965 C 0.13005 0.78482 0.13237 0.0
C966 C 0.12949 0.76491 0.1329 0.0
C967 C 0.12916 0.70706 0.13143 0.0
C968 C 0.12904 0.72699 0.13245 0.0
H969 H 0.13192 0.81926 0.08318 0.0
H970 H 0.13221 0.78665 0.08467 0.0
H971 H 0.14776 0.76203 0.16992 0.0
H972 H 0.1272 0.6707 0.17686 0.0
H973 H 0.12755 0.70344 0.1789 0.0
C974 C 0.42962 0.87705 0.40868 0.0
C975 C 0.42065 0.87786 0.38133 0.0
C976 C 0.44838 0.87711 0.40985 0.0
C977 C 0.48811 0.86738 0.36403 0.0
H978 H 0.51364 0.89637 0.42164 0.0
C979 C 0.56377 0.88019 0.35489 0.0
C980 C 0.57409 0.87912 0.38088 0.0
C981 C 0.54508 0.88003 0.35621 0.0
C982 C 0.50669 0.88804 0.40566 0.0
H983 H 0.42446 0.87958 0.33379 0.0
H984 H 0.45701 0.87987 0.33596 0.0
H985 H 0.48083 0.896 0.42173 0.0
H986 H 0.57272 0.87728 0.42874 0.0
H987 H 0.53999 0.87692 0.43094 0.0
H988 H 0.51388 0.85947 0.34783 0.0
C989 C 0.44956 0.87892 0.35645 0.0
C990 C 0.48791 0.88783 0.40571 0.0
C991 C 0.43086 0.87887 0.35525 0.0
C992 C 0.56521 0.87815 0.40828 0.0
C993 C 0.54646 0.87801 0.40958 0.0
C994 C 0.50683 0.86759 0.36397 0.0
C995 C 0.45854 0.87793 0.38372 0.0
C996 C 0.47844 0.87764 0.38468 0.0
C997 C 0.53621 0.87879 0.38352 0.0
C998 C 0.51633 0.87808 0.38456 0.0
H999 H 0.42219 0.87622 0.4292 0.0
H1000 H 0.45492 0.87618 0.43118 0.0
H1001 H 0.48121 0.85909 0.34794 0.0
H1002 H 0.5701 0.88102 0.33339 0.0
H1003 H 0.53755 0.88095 0.33577 0.0
C1004 C 0.36028 0.31297 0.60604 0.0
C1005 C 0.36235 0.32345 0.63171 0.0
C1006 C 0.35895 0.29432 0.60791 0.0
C1007 C 0.37041 0.25615 0.65565 0.0
H1008 H 0.33702 0.23054 0.60502 0.0
C1009 C 0.36237 0.17882 0.65914 0.0
C1010 C 0.36165 0.17014 0.63151 0.0
C1011 C 0.36123 0.19753 0.66102 0.0
C1012 C 0.34649 0.2375 0.61916 0.0
H1013 H 0.36459 0.32243 0.67956 0.0
H1014 H 0.3622 0.2898 0.68273 0.0
H1015 H 0.33719 0.2633 0.60507 0.0
H1016 H 0.35911 0.17445 0.58418 0.0
H1017 H 0.35725 0.20696 0.58754 0.0
H1018 H 0.37988 0.23032 0.66941 0.0
C1019 C 0.36173 0.29609 0.66116 0.0
C1020 C 0.34659 0.25625 0.61919 0.0
C1021 C 0.36301 0.3148 0.65933 0.0
C1022 C 0.35964 0.18062 0.60586 0.0
C1023 C 0.35846 0.19929 0.60778 0.0
C1024 C 0.37032 0.23737 0.65562 0.0
C1025 C 0.35969 0.28566 0.63546 0.0
C1026 C 0.35873 0.26578 0.6371 0.0
C1027 C 0.35929 0.20796 0.63534 0.0
C1028 C 0.35853 0.22785 0.63704 0.0
H1029 H 0.3598 0.31912 0.58438 0.0
H1030 H 0.35768 0.28664 0.58766 0.0
H1031 H 0.38005 0.26311 0.66946 0.0
H1032 H 0.3639 0.17119 0.67936 0.0
H1033 H 0.36176 0.20383 0.6826 0.0
C1034 C 0.0629 0.11532 0.85587 0.0
C1035 C 0.07316 0.116 0.88196 0.0
C1036 C 0.0442 0.11579 0.85707 0.0
C1037 C 0.00575 0.1075 0.90615 0.0
H1038 H 0.98024 0.13651 0.84867 0.0
C1039 C 0.92857 0.11746 0.90847 0.0
C1040 C 0.91972 0.11661 0.88101 0.0
C1041 C 0.94732 0.11775 0.90986 0.0
C1042 C 0.98716 0.12822 0.8647 0.0
H1043 H 0.0717 0.11765 0.92984 0.0
H1044 H 0.03897 0.11856 0.93182 0.0
H1045 H 0.01293 0.13639 0.84888 0.0
H1046 H 0.92375 0.11524 0.83348 0.0
H1047 H 0.95631 0.11554 0.83602 0.0
H1048 H 0.97991 0.09924 0.9218 0.0
C1049 C 0.04548 0.1175 0.91048 0.0
C1050 C 0.00588 0.12816 0.86483 0.0
C1051 C 0.06423 0.11706 0.90931 0.0
C1052 C 0.93006 0.11595 0.85503 0.0
C1053 C 0.94876 0.11625 0.85645 0.0
C1054 C 0.98698 0.10756 0.90601 0.0
C1055 C 0.03528 0.11696 0.88435 0.0
C1056 C 0.01539 0.11764 0.88531 0.0
C1057 C 0.9576 0.11724 0.88384 0.0
C1058 C 0.97749 0.11777 0.88505 0.0
H1059 H 0.06926 0.11445 0.8344 0.0
H1060 H 0.03671 0.11506 0.83657 0.0
H1061 H 0.01271 0.09914 0.92203 0.0
H1062 H 0.92104 0.11804 0.92892 0.0
H1063 H 0.95375 0.11867 0.93128 0.0
C1064 C 0.13341 0.3113 0.89289 0.0
C1065 C 0.13152 0.32193 0.8674 0.0
C1066 C 0.13479 0.29267 0.89066 0.0
C1067 C 0.12363 0.25473 0.84224 0.0
H1068 H 0.1567 0.22902 0.89318 0.0
C1069 C 0.13083 0.1772 0.84 0.0
C1070 C 0.13129 0.16882 0.86786 0.0
C1071 C 0.13222 0.19588 0.83768 0.0
C1072 C 0.14733 0.236 0.87892 0.0
H1073 H 0.12963 0.32121 0.81949 0.0
H1074 H 0.13208 0.28858 0.8157 0.0
H1075 H 0.15674 0.26176 0.89309 0.0
H1076 H 0.13359 0.17361 0.91511 0.0
H1077 H 0.13589 0.20603 0.91099 0.0
H1078 H 0.11402 0.22892 0.82848 0.0
C1079 C 0.1324 0.29475 0.83739 0.0
C1080 C 0.14736 0.25475 0.87888 0.0
C1081 C 0.13108 0.31345 0.83959 0.0
C1082 C 0.13327 0.17954 0.89327 0.0
C1083 C 0.1347 0.19816 0.89092 0.0
C1084 C 0.12361 0.23595 0.8423 0.0
C1085 C 0.13427 0.28418 0.86292 0.0
C1086 C 0.13528 0.26431 0.86095 0.0
C1087 C 0.13417 0.20655 0.86314 0.0
C1088 C 0.13524 0.2264 0.86105 0.0
H1089 H 0.13372 0.31731 0.91469 0.0
H1090 H 0.13592 0.28487 0.91077 0.0
H1091 H 0.11406 0.26173 0.82838 0.0
H1092 H 0.12932 0.16936 0.81996 0.0
H1093 H 0.13189 0.20197 0.81596 0.0
C1094 C 0.93061 0.87734 0.14271 0.0
C1095 C 0.92025 0.87697 0.11672 0.0
C1096 C 0.9493 0.87687 0.14131 0.0
C1097 C 0.98764 0.8858 0.09249 0.0
H1098 H 0.0131 0.8559 0.14879 0.0
C1099 C 0.065 0.87639 0.09115 0.0
C1100 C 0.07359 0.87686 0.11886 0.0
C1101 C 0.04626 0.87601 0.08927 0.0
C1102 C 0.0062 0.86443 0.13308 0.0
H1103 H 0.92153 0.87594 0.06878 0.0
H1104 H 0.95427 0.87508 0.06644 0.0
H1105 H 0.98042 0.85589 0.14831 0.0
H1106 H 0.0691 0.87752 0.16632 0.0
H1107 H 0.03659 0.87705 0.16294 0.0
H1108 H 0.01351 0.89445 0.07747 0.0
C1109 C 0.94783 0.87585 0.08787 0.0
C1110 C 0.98748 0.86442 0.1328 0.0
C1111 C 0.92908 0.87627 0.08924 0.0
C1112 C 0.063 0.8771 0.14458 0.0
C1113 C 0.04433 0.8767 0.14269 0.0
C1114 C 0.00642 0.88581 0.09278 0.0
C1115 C 0.95812 0.87602 0.11392 0.0
C1116 C 0.97799 0.87529 0.1128 0.0
C1117 C 0.03575 0.87604 0.11505 0.0
C1118 C 0.01587 0.87532 0.11338 0.0
H1119 H 0.92433 0.87793 0.16428 0.0
H1120 H 0.95686 0.87732 0.16176 0.0
H1121 H 0.98069 0.89441 0.07697 0.0
H1122 H 0.07273 0.87616 0.07087 0.0
H1123 H 0.04002 0.87537 0.06766 0.0
C1124 C 0.36256 0.68014 0.39348 0.0
C1125 C 0.36417 0.66973 0.36765 0.0
C1126 C 0.36171 0.69882 0.39188 0.0
C1127 C 0.37324 0.73713 0.34437 0.0
H1128 H 0.34028 0.76273 0.39569 0.0
C1129 C 0.36476 0.81449 0.34115 0.0
C1130 C 0.36414 0.82316 0.3688 0.0
C1131 C 0.36388 0.79576 0.33929 0.0
C1132 C 0.34964 0.75577 0.38137 0.0
H1133 H 0.3662 0.67093 0.31979 0.0
H1134 H 0.36461 0.70364 0.31709 0.0
H1135 H 0.34034 0.72999 0.39545 0.0
H1136 H 0.36215 0.81881 0.41618 0.0
H1137 H 0.36072 0.78628 0.41285 0.0
H1138 H 0.38266 0.76297 0.33055 0.0
C1139 C 0.36413 0.69725 0.33858 0.0
C1140 C 0.34968 0.73703 0.38123 0.0
C1141 C 0.36496 0.67851 0.34015 0.0
C1142 C 0.36258 0.81265 0.39449 0.0
C1143 C 0.36165 0.79397 0.3926 0.0
C1144 C 0.37319 0.75591 0.3445 0.0
C1145 C 0.36244 0.7076 0.36444 0.0
C1146 C 0.36165 0.7275 0.36305 0.0
C1147 C 0.36229 0.78531 0.36501 0.0
C1148 C 0.36157 0.76542 0.36332 0.0
H1149 H 0.36201 0.67389 0.41508 0.0
H1150 H 0.36071 0.70643 0.41225 0.0
H1151 H 0.38274 0.73016 0.33032 0.0
H1152 H 0.36597 0.82215 0.3209 0.0
H1153 H 0.36427 0.78946 0.3177 0.0
C1154 C 0.56228 0.11595 0.64357 0.0
C1155 C 0.57279 0.11621 0.61777 0.0
C1156 C 0.5436 0.11643 0.64182 0.0
C1157 C 0.50545 0.10766 0.59227 0.0
H1158 H 0.47993 0.13789 0.64808 0.0
C1159 C 0.42814 0.11758 0.58972 0.0
C1160 C 0.41945 0.11705 0.61731 0.0
C1161 C 0.44689 0.11794 0.58809 0.0
C1162 C 0.48685 0.12928 0.6325 0.0
H1163 H 0.5718 0.11701 0.5698 0.0
H1164 H 0.53908 0.11793 0.56685 0.0
H1165 H 0.51261 0.1376 0.64822 0.0
H1166 H 0.42376 0.11634 0.66483 0.0
H1167 H 0.45628 0.1168 0.66187 0.0
H1168 H 0.4796 0.09924 0.57676 0.0
C1169 C 0.54539 0.11722 0.5884 0.0
C1170 C 0.50557 0.12911 0.63258 0.0
C1171 C 0.56413 0.11676 0.59013 0.0
C1172 C 0.42994 0.1168 0.64317 0.0
C1173 C 0.44862 0.11719 0.64152 0.0
C1174 C 0.48668 0.10783 0.59219 0.0
C1175 C 0.53495 0.11721 0.61426 0.0
C1176 C 0.51508 0.1181 0.61278 0.0
C1177 C 0.45731 0.11785 0.614 0.0
C1178 C 0.47719 0.11845 0.61262 0.0
H1179 H 0.56843 0.11546 0.66525 0.0
H1180 H 0.53592 0.1161 0.66214 0.0
H1181 H 0.51242 0.09895 0.57689 0.0
H1182 H 0.42049 0.11782 0.56935 0.0
H1183 H 0.45322 0.11858 0.56657 0.0
C1184 C 0.86264 0.17896 0.84101 0.0
C1185 C 0.86225 0.17024 0.86859 0.0
C1186 C 0.8615 0.19767 0.83934 0.0
C1187 C 0.84724 0.23754 0.88202 0.0
H1188 H 0.87998 0.26331 0.83069 0.0
C1189 C 0.86079 0.31309 0.89493 0.0
C1190 C 0.8624 0.32356 0.86921 0.0
C1191 C 0.85957 0.29442 0.89306 0.0
C1192 C 0.87057 0.2563 0.84481 0.0
H1193 H 0.86034 0.17447 0.91602 0.0
H1194 H 0.85849 0.20698 0.91302 0.0
H1195 H 0.87996 0.23051 0.83057 0.0
H1196 H 0.86395 0.32252 0.82129 0.0
H1197 H 0.86174 0.28987 0.81813 0.0
H1198 H 0.83802 0.26328 0.89657 0.0
C1199 C 0.85943 0.19934 0.89268 0.0
C1200 C 0.87055 0.23752 0.84474 0.0
C1201 C 0.86061 0.18067 0.89439 0.0
C1202 C 0.86272 0.31489 0.84156 0.0
C1203 C 0.86154 0.29617 0.83972 0.0
C1204 C 0.84725 0.25628 0.88209 0.0
C1205 C 0.85989 0.20806 0.86517 0.0
C1206 C 0.85907 0.22795 0.86367 0.0
C1207 C 0.85996 0.28575 0.86547 0.0
C1208 C 0.8591 0.26587 0.86381 0.0
H1209 H 0.86388 0.17135 0.82068 0.0
H1210 H 0.86175 0.20401 0.8178 0.0
H1211 H 0.83799 0.23054 0.89644 0.0
H1212 H 0.86057 0.31926 0.91662 0.0
H1213 H 0.85864 0.28675 0.91333 0.0
C1214 C 0.62688 0.68054 0.39191 0.0
C1215 C 0.62615 0.67013 0.36597 0.0
C1216 C 0.62676 0.69924 0.39044 0.0
C1217 C 0.63604 0.73734 0.34118 0.0
H1218 H 0.60731 0.76353 0.39828 0.0
C1219 C 0.6278 0.81494 0.33977 0.0
C1220 C 0.62869 0.82358 0.36743 0.0
C1221 C 0.62724 0.79618 0.33799 0.0
C1222 C 0.61552 0.75642 0.38234 0.0
H1223 H 0.6248 0.67133 0.31805 0.0
H1224 H 0.6245 0.7041 0.31559 0.0
H1225 H 0.60661 0.73084 0.39791 0.0
H1226 H 0.63 0.81916 0.41487 0.0
H1227 H 0.6292 0.78663 0.41165 0.0
H1228 H 0.64504 0.76302 0.32579 0.0
C1229 C 0.62531 0.69769 0.33703 0.0
C1230 C 0.61511 0.73769 0.38213 0.0
C1231 C 0.62541 0.67892 0.33847 0.0
C1232 C 0.62924 0.81303 0.39318 0.0
C1233 C 0.62866 0.79434 0.39138 0.0
C1234 C 0.63645 0.75613 0.34139 0.0
C1235 C 0.62588 0.70803 0.36303 0.0
C1236 C 0.62556 0.72794 0.36185 0.0
C1237 C 0.6275 0.78571 0.36381 0.0
C1238 C 0.62639 0.76584 0.36228 0.0
H1239 H 0.62752 0.67428 0.41349 0.0
H1240 H 0.62751 0.70683 0.41085 0.0
H1241 H 0.64434 0.73018 0.32544 0.0
H1242 H 0.62732 0.82264 0.31949 0.0
H1243 H 0.62623 0.7899 0.31645 0.0
C1244 C 0.86057 0.6808 0.10579 0.0
C1245 C 0.86229 0.67036 0.13153 0.0
C1246 C 0.85942 0.69946 0.10759 0.0
C1247 C 0.87078 0.73767 0.15542 0.0
H1248 H 0.8379 0.76333 0.10409 0.0
C1249 C 0.86322 0.81509 0.1582 0.0
C1250 C 0.86269 0.82363 0.13049 0.0
C1251 C 0.862 0.79639 0.16022 0.0
C1252 C 0.84723 0.75636 0.11843 0.0
H1253 H 0.86412 0.67146 0.17942 0.0
H1254 H 0.86205 0.70414 0.18247 0.0
H1255 H 0.83783 0.73059 0.10432 0.0
H1256 H 0.86045 0.81911 0.08316 0.0
H1257 H 0.85846 0.78663 0.08676 0.0
H1258 H 0.88036 0.76348 0.16919 0.0
C1259 C 0.86171 0.69779 0.16091 0.0
C1260 C 0.84719 0.73761 0.11856 0.0
C1261 C 0.8628 0.67907 0.15914 0.0
C1262 C 0.86083 0.81304 0.1049 0.0
C1263 C 0.85957 0.79439 0.10694 0.0
C1264 C 0.87083 0.75644 0.15528 0.0
C1265 C 0.85999 0.70818 0.13514 0.0
C1266 C 0.85915 0.72806 0.13671 0.0
C1267 C 0.86017 0.78585 0.1346 0.0
C1268 C 0.85924 0.76598 0.13644 0.0
H1269 H 0.8602 0.6746 0.08413 0.0
H1270 H 0.8584 0.70711 0.0873 0.0
H1271 H 0.88028 0.73068 0.16943 0.0
H1272 H 0.86464 0.82281 0.17838 0.0
H1273 H 0.86236 0.79018 0.18186 0.0
C1274 C 0.63067 0.31373 0.6051 0.0
C1275 C 0.62941 0.32406 0.63108 0.0
C1276 C 0.63069 0.29503 0.60643 0.0
C1277 C 0.63882 0.25666 0.65589 0.0
H1278 H 0.61027 0.231 0.59785 0.0
C1279 C 0.62801 0.17944 0.65844 0.0
C1280 C 0.62886 0.17051 0.63104 0.0
C1281 C 0.62816 0.19821 0.65974 0.0
C1282 C 0.61845 0.23796 0.61403 0.0
H1283 H 0.62744 0.3227 0.67893 0.0
H1284 H 0.62738 0.28993 0.68112 0.0
H1285 H 0.61041 0.2637 0.59786 0.0
H1286 H 0.63087 0.17441 0.58355 0.0
H1287 H 0.63131 0.20698 0.58593 0.0
H1288 H 0.6469 0.23081 0.67194 0.0
C1289 C 0.62849 0.29641 0.65978 0.0
C1290 C 0.61852 0.25669 0.61404 0.0
C1291 C 0.62845 0.31518 0.65848 0.0
C1292 C 0.63011 0.18078 0.60505 0.0
C1293 C 0.63025 0.19949 0.60637 0.0
C1294 C 0.63875 0.23787 0.65587 0.0
C1295 C 0.62943 0.28615 0.63372 0.0
C1296 C 0.62886 0.26625 0.63473 0.0
C1297 C 0.62912 0.20842 0.63368 0.0
C1298 C 0.62871 0.22833 0.63471 0.0
H1299 H 0.63151 0.32006 0.5836 0.0
H1300 H 0.63175 0.2875 0.586 0.0
H1301 H 0.64703 0.26367 0.67196 0.0
H1302 H 0.62701 0.17197 0.6789 0.0
H1303 H 0.62714 0.20473 0.68109 0.0
C1304 C 0.06464 0.37438 0.90825 0.0
C1305 C 0.07359 0.37522 0.88092 0.0
C1306 C 0.04588 0.37427 0.90941 0.0
C1307 C 0.00604 0.36438 0.86375 0.0
H1308 H 0.98073 0.39362 0.92122 0.0
C1309 C 0.93029 0.37757 0.85514 0.0
C1310 C 0.9201 0.37693 0.88128 0.0
C1311 C 0.94899 0.37709 0.85623 0.0
C1312 C 0.98761 0.38522 0.90529 0.0
H1313 H 0.06974 0.3767 0.83335 0.0
H1314 H 0.03718 0.37668 0.83549 0.0
H1315 H 0.01352 0.39318 0.92115 0.0
H1316 H 0.9217 0.37539 0.92915 0.0
H1317 H 0.95442 0.37446 0.93096 0.0
H1318 H 0.9802 0.35648 0.84775 0.0
C1319 C 0.04464 0.37586 0.856 0.0
C1320 C 0.00638 0.38496 0.90525 0.0
C1321 C 0.06335 0.37599 0.85482 0.0
C1322 C 0.92911 0.37594 0.90858 0.0
C1323 C 0.94786 0.37549 0.90965 0.0
C1324 C 0.98731 0.36463 0.86379 0.0
C1325 C 0.03569 0.37494 0.88328 0.0
C1326 C 0.01579 0.37468 0.88427 0.0
C1327 C 0.95799 0.37596 0.88347 0.0
C1328 C 0.97789 0.37519 0.88435 0.0
H1329 H 0.07209 0.37372 0.9288 0.0
H1330 H 0.03936 0.37338 0.93075 0.0
H1331 H 0.01289 0.35604 0.84768 0.0
H1332 H 0.92386 0.37838 0.8337 0.0
H1333 H 0.95642 0.37777 0.83569 0.0
C1334 C 0.5617 0.61089 0.35533 0.0
C1335 C 0.57238 0.61288 0.38076 0.0
C1336 C 0.54308 0.60968 0.3576 0.0
C1337 C 0.50533 0.62138 0.40597 0.0
H1338 H 0.47936 0.58799 0.35581 0.0
C1339 C 0.42789 0.61384 0.4094 0.0
C1340 C 0.41932 0.61312 0.38169 0.0
C1341 C 0.44658 0.61267 0.41143 0.0
C1342 C 0.48642 0.59745 0.36984 0.0
H1343 H 0.57175 0.61514 0.42863 0.0
H1344 H 0.53915 0.61297 0.43251 0.0
H1345 H 0.51207 0.5879 0.3556 0.0
H1346 H 0.42379 0.61066 0.33439 0.0
H1347 H 0.45624 0.60873 0.33801 0.0
H1348 H 0.47961 0.63111 0.41985 0.0
C1349 C 0.54527 0.61245 0.41082 0.0
C1350 C 0.50514 0.5974 0.36972 0.0
C1351 C 0.56395 0.61361 0.40857 0.0
C1352 C 0.42987 0.61118 0.35613 0.0
C1353 C 0.4485 0.60995 0.35819 0.0
C1354 C 0.48656 0.62143 0.40609 0.0
C1355 C 0.53465 0.61046 0.38534 0.0
C1356 C 0.5148 0.60957 0.38739 0.0
C1357 C 0.45707 0.61068 0.38583 0.0
C1358 C 0.47692 0.60967 0.38763 0.0
H1359 H 0.56768 0.61036 0.33352 0.0
H1360 H 0.53524 0.60845 0.33752 0.0
H1361 H 0.5124 0.63102 0.41963 0.0
H1362 H 0.42018 0.61534 0.42956 0.0
H1363 H 0.45282 0.61316 0.43306 0.0
C1364 C 0.56486 0.37763 0.58946 0.0
C1365 C 0.57345 0.37824 0.61717 0.0
C1366 C 0.54613 0.37703 0.5876 0.0
C1367 C 0.50634 0.3647 0.63143 0.0
H1368 H 0.48014 0.39457 0.57602 0.0
C1369 C 0.43074 0.37674 0.64265 0.0
C1370 C 0.42016 0.37655 0.61689 0.0
C1371 C 0.44941 0.37637 0.64081 0.0
C1372 C 0.48729 0.38597 0.59133 0.0
H1373 H 0.56896 0.37896 0.66462 0.0
H1374 H 0.53646 0.37805 0.66127 0.0
H1375 H 0.51297 0.39506 0.57611 0.0
H1376 H 0.42103 0.37592 0.56891 0.0
H1377 H 0.45376 0.3752 0.56581 0.0
H1378 H 0.48077 0.3557 0.64686 0.0
C1379 C 0.5442 0.37779 0.64101 0.0
C1380 C 0.50607 0.38626 0.59139 0.0
C1381 C 0.56287 0.37843 0.64289 0.0
C1382 C 0.42875 0.3761 0.5892 0.0
C1383 C 0.4475 0.37576 0.58739 0.0
C1384 C 0.48763 0.3644 0.63136 0.0
C1385 C 0.53562 0.37693 0.61339 0.0
C1386 C 0.51577 0.37584 0.61179 0.0
C1387 C 0.45801 0.37579 0.61321 0.0
C1388 C 0.47789 0.37524 0.61166 0.0
H1389 H 0.57259 0.37744 0.56919 0.0
H1390 H 0.53988 0.37627 0.56601 0.0
H1391 H 0.51345 0.35622 0.64697 0.0
H1392 H 0.42464 0.37714 0.66437 0.0
H1393 H 0.45713 0.37671 0.6611 0.0
C1394 C 0.06273 0.61325 0.14497 0.0
C1395 C 0.07285 0.614 0.11877 0.0
C1396 C 0.04402 0.61349 0.14398 0.0
C1397 C 0.00528 0.6052 0.09522 0.0
H1398 H 0.98017 0.63459 0.15273 0.0
C1399 C 0.92833 0.61664 0.09226 0.0
C1400 C 0.91937 0.61598 0.11961 0.0
C1401 C 0.94709 0.6165 0.09111 0.0
C1402 C 0.98697 0.62619 0.1367 0.0
H1403 H 0.07114 0.61542 0.0709 0.0
H1404 H 0.0384 0.61595 0.06928 0.0
H1405 H 0.01285 0.63405 0.15255 0.0
H1406 H 0.92319 0.61453 0.16718 0.0
H1407 H 0.95576 0.61412 0.16505 0.0
H1408 H 0.97932 0.59729 0.07949 0.0
C1409 C 0.04502 0.61501 0.09055 0.0
C1410 C 0.00569 0.62587 0.1366 0.0
C1411 C 0.06378 0.61478 0.09152 0.0
C1412 C 0.92959 0.6151 0.14571 0.0
C1413 C 0.9483 0.61499 0.14453 0.0
C1414 C 0.98651 0.60551 0.09533 0.0
C1415 C 0.03495 0.61451 0.1168 0.0
C1416 C 0.01506 0.61525 0.11606 0.0
C1417 C 0.95726 0.61576 0.11725 0.0
C1418 C 0.97717 0.61588 0.11626 0.0
H1419 H 0.06921 0.61257 0.16638 0.0
H1420 H 0.03664 0.61278 0.16457 0.0
H1421 H 0.01212 0.59675 0.0793 0.0
H1422 H 0.9209 0.61736 0.07171 0.0
H1423 H 0.95362 0.61728 0.06977 0.0
C1424 C 0.12254 0.56076 0.03386 0.0
C1425 C 0.12046 0.56108 0.0647 0.0
C1426 C 0.1225 0.54448 0.01853 0.0
C1427 C 0.10963 0.49646 0.02631 0.0
H1428 H 0.14 0.49086 0.95728 0.0
C1429 C 0.1224 0.42844 0.96801 0.0
C1430 C 0.11997 0.4284 0.93719 0.0
C1431 C 0.12236 0.44458 0.98375 0.0
C1432 C 0.13139 0.49231 0.97642 0.0
H1433 H 0.11705 0.54464 0.10381 0.0
H1434 H 0.11764 0.51614 0.07722 0.0
H1435 H 0.14063 0.51898 0.98496 0.0
H1436 H 0.11581 0.44519 0.89863 0.0
H1437 H 0.1161 0.47348 0.92621 0.0
H1438 H 0.10085 0.46949 0.01804 0.0
C1439 C 0.11875 0.52847 0.06468 0.0
C1440 C 0.13166 0.50843 0.99224 0.0
C1441 C 0.11852 0.54479 0.07998 0.0
C1442 C 0.11764 0.44481 0.92238 0.0
C1443 C 0.1179 0.46098 0.93809 0.0
C1444 C 0.10958 0.48025 0.01073 0.0
C1445 C 0.12067 0.5281 0.03373 0.0
C1446 C 0.12069 0.51077 0.01729 0.0
C1447 C 0.12019 0.46099 0.96891 0.0
C1448 C 0.12038 0.47808 0.98557 0.0
H1449 H 0.12392 0.57312 0.02145 0.0
H1450 H 0.12364 0.5448 0.99468 0.0
H1451 H 0.10077 0.49784 0.04513 0.0
H1452 H 0.12419 0.41598 0.98001 0.0
H1453 H 0.12427 0.44427 0.00749 0.0
C1454 C 0.68152 0.8745 0.28369 0.0
C1455 C 0.68157 0.87198 0.31447 0.0
C1456 C 0.69761 0.87461 0.2679 0.0
C1457 C 0.74526 0.88384 0.27461 0.0
H1458 H 0.75027 0.85321 0.20569 0.0
C1459 C 0.81293 0.87568 0.21445 0.0
C1460 C 0.81275 0.87345 0.18363 0.0
C1461 C 0.79693 0.87562 0.23047 0.0
C1462 C 0.74903 0.86208 0.22456 0.0
H1463 H 0.69846 0.86788 0.35296 0.0
H1464 H 0.72669 0.86845 0.32526 0.0
H1465 H 0.72229 0.85302 0.23358 0.0
H1466 H 0.79569 0.86985 0.14524 0.0
H1467 H 0.76768 0.87041 0.17299 0.0
H1468 H 0.7717 0.89337 0.26528 0.0
C1469 C 0.71415 0.87019 0.31345 0.0
C1470 C 0.73303 0.86187 0.24061 0.0
C1471 C 0.69803 0.86977 0.32922 0.0
C1472 C 0.79624 0.87143 0.16904 0.0
C1473 C 0.78019 0.87164 0.18501 0.0
C1474 C 0.76117 0.88427 0.25831 0.0
C1475 C 0.71405 0.8725 0.28264 0.0
C1476 C 0.73104 0.8727 0.2658 0.0
C1477 C 0.78033 0.8736 0.21597 0.0
C1478 C 0.76329 0.87335 0.23311 0.0
H1479 H 0.66904 0.8762 0.27171 0.0
H1480 H 0.69721 0.87655 0.24417 0.0
H1481 H 0.74394 0.89246 0.2938 0.0
H1482 H 0.82549 0.87712 0.22633 0.0
H1483 H 0.79763 0.87682 0.25429 0.0
C1484 C 0.37536 0.44678 0.57835 0.0
C1485 C 0.37293 0.43036 0.56354 0.0
C1486 C 0.37493 0.46295 0.56268 0.0
C1487 C 0.38274 0.48209 0.48993 0.0
H1488 H 0.35137 0.52065 0.5155 0.0
C1489 C 0.37273 0.54572 0.41937 0.0
C1490 C 0.37064 0.56216 0.4342 0.0
C1491 C 0.3727 0.52959 0.43511 0.0
C1492 C 0.36044 0.51016 0.50828 0.0
H1493 H 0.36836 0.41791 0.52078 0.0
H1494 H 0.36802 0.44617 0.4934 0.0
H1495 H 0.35247 0.49275 0.54363 0.0
H1496 H 0.36705 0.57469 0.47711 0.0
H1497 H 0.36769 0.54668 0.50468 0.0
H1498 H 0.39119 0.49951 0.45515 0.0
C1499 C 0.37012 0.4465 0.51709 0.0
C1500 C 0.36098 0.49417 0.52436 0.0
C1501 C 0.37023 0.43038 0.53279 0.0
C1502 C 0.36855 0.56219 0.46505 0.0
C1503 C 0.3688 0.54609 0.48083 0.0
C1504 C 0.38243 0.49818 0.4741 0.0
C1505 C 0.3724 0.46292 0.53192 0.0
C1506 C 0.37208 0.47998 0.51524 0.0
C1507 C 0.37086 0.52956 0.46609 0.0
C1508 C 0.37121 0.51241 0.48299 0.0
H1509 H 0.37738 0.44716 0.60206 0.0
H1510 H 0.3768 0.47547 0.57455 0.0
H1511 H 0.39154 0.47137 0.48266 0.0
H1512 H 0.3742 0.5453 0.39555 0.0
H1513 H 0.37395 0.51713 0.42291 0.0
C1514 C 0.67987 0.11883 0.7169 0.0
C1515 C 0.68 0.12128 0.6861 0.0
C1516 C 0.69593 0.11854 0.73279 0.0
C1517 C 0.74362 0.109 0.72619 0.0
H1518 H 0.7489 0.13995 0.79469 0.0
C1519 C 0.81172 0.11814 0.78465 0.0
C1520 C 0.81183 0.1205 0.81545 0.0
C1521 C 0.79555 0.11795 0.76906 0.0
C1522 C 0.74758 0.13098 0.77595 0.0
H1523 H 0.697 0.12503 0.64769 0.0
H1524 H 0.72516 0.12416 0.67554 0.0
H1525 H 0.72075 0.1399 0.76717 0.0
H1526 H 0.79513 0.12408 0.85423 0.0
H1527 H 0.76684 0.12309 0.82722 0.0
H1528 H 0.77018 0.09967 0.73523 0.0
C1529 C 0.71259 0.12261 0.6873 0.0
C1530 C 0.73148 0.13105 0.76012 0.0
C1531 C 0.6965 0.1232 0.67143 0.0
C1532 C 0.79545 0.1224 0.83044 0.0
C1533 C 0.77924 0.12194 0.8149 0.0
C1534 C 0.75963 0.10872 0.74226 0.0
C1535 C 0.71243 0.1204 0.71812 0.0
C1536 C 0.72941 0.12014 0.73503 0.0
C1537 C 0.77908 0.11983 0.78397 0.0
C1538 C 0.76187 0.11979 0.76726 0.0
H1539 H 0.66734 0.11736 0.72881 0.0
H1540 H 0.69548 0.11669 0.75653 0.0
H1541 H 0.74225 0.10031 0.7071 0.0
H1542 H 0.82416 0.11678 0.77246 0.0
H1543 H 0.79601 0.11664 0.74524 0.0
C1544 C 0.87166 0.43084 0.96735 0.0
C1545 C 0.87388 0.43063 0.9365 0.0
C1546 C 0.87184 0.44706 0.98285 0.0
C1547 C 0.86275 0.49472 0.97514 0.0
H1548 H 0.8936 0.50041 0.0436 0.0
C1549 C 0.87077 0.56305 0.0335 0.0
C1550 C 0.87284 0.56317 0.06435 0.0
C1551 C 0.8711 0.54688 0.01785 0.0
C1552 C 0.88468 0.49898 0.02484 0.0
H1553 H 0.8778 0.44719 0.89762 0.0
H1554 H 0.87774 0.47565 0.9248 0.0
H1555 H 0.89361 0.47208 0.01645 0.0
H1556 H 0.87658 0.54651 0.10313 0.0
H1557 H 0.87649 0.51821 0.07599 0.0
H1558 H 0.85333 0.52131 0.98385 0.0
C1559 C 0.87602 0.46321 0.93689 0.0
C1560 C 0.88478 0.48279 0.00922 0.0
C1561 C 0.87614 0.44696 0.92141 0.0
C1562 C 0.8751 0.54682 0.07931 0.0
C1563 C 0.87516 0.53061 0.06369 0.0
C1564 C 0.86242 0.51083 0.991 0.0
C1565 C 0.87394 0.46338 0.96775 0.0
C1566 C 0.87387 0.48055 0.9842 0.0
C1567 C 0.87323 0.53043 0.03273 0.0
C1568 C 0.87343 0.5132 0.01601 0.0
H1569 H 0.86994 0.41845 0.97957 0.0
H1570 H 0.87009 0.44687 0.00662 0.0
H1571 H 0.85404 0.49322 0.95609 0.0
H1572 H 0.86915 0.57548 0.02135 0.0
H1573 H 0.86992 0.54734 0.994 0.0
C1574 C 0.18112 0.11532 0.786 0.0
C1575 C 0.18113 0.11795 0.81674 0.0
C1576 C 0.19722 0.11506 0.77026 0.0
C1577 C 0.24509 0.12855 0.7764 0.0
H1578 H 0.25033 0.09766 0.7078 0.0
C1579 C 0.31254 0.11707 0.71645 0.0
C1580 C 0.31219 0.11951 0.68565 0.0
C1581 C 0.29658 0.11654 0.73257 0.0
C1582 C 0.24898 0.10641 0.72683 0.0
H1583 H 0.19798 0.12189 0.85529 0.0
H1584 H 0.22616 0.12078 0.82802 0.0
H1585 H 0.22259 0.09681 0.73638 0.0
H1586 H 0.2949 0.12295 0.64747 0.0
H1587 H 0.26692 0.12168 0.67574 0.0
H1588 H 0.27175 0.13773 0.7671 0.0
C1589 C 0.21371 0.11948 0.81585 0.0
C1590 C 0.23307 0.10601 0.74316 0.0
C1591 C 0.19757 0.12001 0.83154 0.0
C1592 C 0.29557 0.12114 0.67121 0.0
C1593 C 0.27958 0.12032 0.68731 0.0
C1594 C 0.26108 0.12873 0.76032 0.0
C1595 C 0.21374 0.11715 0.78496 0.0
C1596 C 0.23087 0.11716 0.76806 0.0
C1597 C 0.27998 0.11815 0.71814 0.0
C1598 C 0.26312 0.11774 0.73532 0.0
H1599 H 0.16863 0.11383 0.77395 0.0
H1600 H 0.19665 0.11357 0.74647 0.0
H1601 H 0.24379 0.13759 0.79504 0.0
H1602 H 0.32516 0.11581 0.72819 0.0
H1603 H 0.29721 0.11474 0.7563 0.0
C1604 C 0.62464 0.56296 0.46428 0.0
C1605 C 0.62229 0.56269 0.43345 0.0
C1606 C 0.62473 0.54697 0.48035 0.0
C1607 C 0.63396 0.49921 0.47463 0.0
H1608 H 0.60228 0.49442 0.54217 0.0
C1609 C 0.62434 0.43144 0.5336 0.0
C1610 C 0.62173 0.43149 0.56434 0.0
C1611 C 0.62454 0.44753 0.51782 0.0
C1612 C 0.61144 0.4956 0.5237 0.0
H1613 H 0.61856 0.54551 0.39517 0.0
H1614 H 0.61911 0.51746 0.42335 0.0
H1615 H 0.60274 0.52244 0.51432 0.0
H1616 H 0.61761 0.44837 0.6028 0.0
H1617 H 0.61861 0.47655 0.57547 0.0
H1618 H 0.64312 0.47267 0.4843 0.0
C1619 C 0.62072 0.53009 0.43498 0.0
C1620 C 0.6116 0.51162 0.50769 0.0
C1621 C 0.62032 0.54611 0.41893 0.0
C1622 C 0.61948 0.44794 0.57906 0.0
C1623 C 0.61996 0.46408 0.56333 0.0
C1624 C 0.63402 0.48328 0.49091 0.0
C1625 C 0.62279 0.53041 0.46584 0.0
C1626 C 0.62279 0.51351 0.48294 0.0
C1627 C 0.62242 0.46408 0.53247 0.0
C1628 C 0.62267 0.48122 0.51556 0.0
H1629 H 0.62614 0.57555 0.47608 0.0
H1630 H 0.62647 0.54753 0.50411 0.0
H1631 H 0.64285 0.50045 0.45581 0.0
H1632 H 0.62596 0.41894 0.52161 0.0
H1633 H 0.62609 0.44693 0.49405 0.0
C1634 C 0.31244 0.8749 0.28579 0.0
C1635 C 0.31265 0.87231 0.31653 0.0
C1636 C 0.29624 0.87507 0.2703 0.0
C1637 C 0.24837 0.86167 0.27703 0.0
H1638 H 0.24276 0.89295 0.20912 0.0
C1639 C 0.18055 0.87384 0.2183 0.0
C1640 C 0.18072 0.87173 0.18742 0.0
C1641 C 0.1966 0.87409 0.23423 0.0
C1642 C 0.24421 0.88409 0.22795 0.0
H1643 H 0.29607 0.86826 0.35531 0.0
H1644 H 0.2677 0.86921 0.32847 0.0
H1645 H 0.2707 0.89353 0.23721 0.0
H1646 H 0.19778 0.86852 0.14893 0.0
H1647 H 0.22591 0.86929 0.17686 0.0
H1648 H 0.2216 0.85264 0.26803 0.0
C1649 C 0.28007 0.87056 0.31612 0.0
C1650 C 0.26023 0.88433 0.24399 0.0
C1651 C 0.29632 0.87012 0.33156 0.0
C1652 C 0.19725 0.87009 0.17273 0.0
C1653 C 0.21332 0.87063 0.18864 0.0
C1654 C 0.23226 0.86163 0.26123 0.0
C1655 C 0.27982 0.87294 0.28525 0.0
C1656 C 0.26258 0.87304 0.26864 0.0
C1657 C 0.21312 0.87252 0.21954 0.0
C1658 C 0.23009 0.87276 0.23647 0.0
H1659 H 0.32484 0.87648 0.27356 0.0
H1660 H 0.29664 0.87659 0.24651 0.0
H1661 H 0.24978 0.85254 0.2955 0.0
H1662 H 0.168 0.8751 0.23022 0.0
H1663 H 0.19612 0.87568 0.25802 0.0
C1664 C 0.61884 0.04647 0.58005 0.0
C1665 C 0.62105 0.06281 0.56505 0.0
C1666 C 0.61943 0.03021 0.56461 0.0
C1667 C 0.63381 0.01049 0.49267 0.0
H1668 H 0.6026 0.97139 0.51639 0.0
C1669 C 0.62064 0.94723 0.42134 0.0
C1670 C 0.6226 0.93073 0.43603 0.0
C1671 C 0.6209 0.96333 0.43725 0.0
C1672 C 0.61145 0.98219 0.50968 0.0
H1673 H 0.62533 0.07504 0.52215 0.0
H1674 H 0.62566 0.04682 0.49507 0.0
H1675 H 0.60195 -0.00038 0.5438 0.0
H1676 H 0.62626 0.91808 0.47881 0.0
H1677 H 0.62632 0.94624 0.50662 0.0
H1678 H 0.64283 0.9931 0.45792 0.0
C1679 C 0.62405 0.04641 0.51884 0.0
C1680 C 0.61117 -0.00167 0.52544 0.0
C1681 C 0.62374 0.06262 0.53434 0.0
C1682 C 0.62476 0.93061 0.46689 0.0
C1683 C 0.6247 0.94668 0.48283 0.0
C1684 C 0.63387 0.99444 0.47665 0.0
C1685 C 0.62197 0.02997 0.53377 0.0
C1686 C 0.62237 0.0127 0.51716 0.0
C1687 C 0.62281 0.96317 0.46814 0.0
C1688 C 0.62272 0.98016 0.48505 0.0
H1689 H 0.61691 0.04622 0.60378 0.0
H1690 H 0.6181 0.01782 0.57694 0.0
H1691 H 0.64289 0.02109 0.48598 0.0
H1692 H 0.61904 0.94772 0.39755 0.0
H1693 H 0.61932 0.9759 0.42548 0.0
C1694 C 0.29653 0.3724 0.67204 0.0
C1695 C 0.31318 0.37411 0.68638 0.0
C1696 C 0.28058 0.37308 0.68824 0.0
C1697 C 0.2623 0.36419 0.76115 0.0
H1698 H 0.22329 0.39552 0.73749 0.0
C1699 C 0.19816 0.3711 0.83158 0.0
C1700 C 0.18179 0.37295 0.81652 0.0
C1701 C 0.2144 0.37205 0.81622 0.0
C1702 C 0.23393 0.38649 0.74419 0.0
H1703 H 0.32623 0.37784 0.72886 0.0
H1704 H 0.29832 0.37866 0.75718 0.0
H1705 H 0.25113 0.39535 0.70915 0.0
H1706 H 0.1695 0.3771 0.77359 0.0
H1707 H 0.1977 0.37808 0.74665 0.0
H1708 H 0.24506 0.3548 0.79552 0.0
C1709 C 0.29766 0.3769 0.73343 0.0
C1710 C 0.24989 0.38648 0.72801 0.0
C1711 C 0.31359 0.37652 0.7172 0.0
C1712 C 0.18194 0.37576 0.78584 0.0
C1713 C 0.19814 0.37645 0.77042 0.0
C1714 C 0.24626 0.36398 0.77708 0.0
C1715 C 0.28103 0.37519 0.71909 0.0
C1716 C 0.2642 0.37533 0.73636 0.0
C1717 C 0.2146 0.37462 0.78539 0.0
C1718 C 0.23184 0.37511 0.7688 0.0
H1719 H 0.29582 0.3706 0.64829 0.0
H1720 H 0.26791 0.37163 0.67674 0.0
H1721 H 0.27311 0.35533 0.76782 0.0
H1722 H 0.19845 0.36909 0.8553 0.0
H1723 H 0.2268 0.37092 0.82859 0.0
C1724 C 0.87534 0.04668 0.91986 0.0
C1725 C 0.87312 0.063 0.93501 0.0
C1726 C 0.87523 0.03042 0.93526 0.0
C1727 C 0.86214 0.01052 0.00763 0.0
H1728 H 0.89313 0.97162 0.98209 0.0
C1729 C 0.87592 0.94679 0.0772 0.0
C1730 C 0.87356 0.93042 0.06221 0.0
C1731 C 0.87574 0.963 0.06166 0.0
C1732 C 0.88435 0.98237 0.98933 0.0
H1733 H 0.86934 0.07518 0.97812 0.0
H1734 H 0.86985 0.04696 0.0051 0.0
H1735 H 0.89329 -4e-05 0.9551 0.0
H1736 H 0.86937 0.9181 0.01925 0.0
H1737 H 0.86944 0.94645 0.99207 0.0
H1738 H 0.85366 0.99295 0.04243 0.0
C1739 C 0.8711 0.04657 0.98127 0.0
C1740 C 0.88435 -0.00143 0.97381 0.0
C1741 C 0.87093 0.06278 0.96583 0.0
C1742 C 0.87117 0.93053 0.0314 0.0
C1743 C 0.8713 0.9467 0.01582 0.0
C1744 C 0.86237 0.99441 0.0234 0.0
C1745 C 0.87317 0.03015 0.96619 0.0
C1746 C 0.8732 0.01286 0.9827 0.0
C1747 C 0.87351 0.96307 0.03083 0.0
C1748 C 0.87343 0.98019 0.01432 0.0
H1749 H 0.87689 0.04644 0.89605 0.0
H1750 H 0.87652 0.01805 0.9228 0.0
H1751 H 0.8531 0.02105 0.01482 0.0
H1752 H 0.87771 0.9471 0.10097 0.0
H1753 H 0.87755 0.97547 0.07367 0.0
C1754 C 0.18111 0.61947 0.21355 0.0
C1755 C 0.18092 0.62144 0.18266 0.0
C1756 C 0.19729 0.61981 0.22907 0.0
C1757 C 0.24501 0.61102 0.22195 0.0
H1758 H 0.25007 0.64262 0.28968 0.0
C1759 C 0.31279 0.61992 0.28158 0.0
C1760 C 0.31262 0.62225 0.31239 0.0
C1761 C 0.29678 0.62004 0.26553 0.0
C1762 C 0.24882 0.6335 0.27113 0.0
H1763 H 0.1975 0.62504 0.14372 0.0
H1764 H 0.22592 0.62527 0.17096 0.0
H1765 H 0.22195 0.64218 0.26209 0.0
H1766 H 0.2956 0.62624 0.35068 0.0
H1767 H 0.26758 0.62581 0.32287 0.0
H1768 H 0.27158 0.60186 0.23134 0.0
C1769 C 0.21348 0.62361 0.18305 0.0
C1770 C 0.23274 0.63335 0.25526 0.0
C1771 C 0.19725 0.62356 0.16754 0.0
C1772 C 0.29613 0.62457 0.3269 0.0
C1773 C 0.28009 0.62442 0.3109 0.0
C1774 C 0.26101 0.61096 0.23807 0.0
C1775 C 0.21361 0.62185 0.21396 0.0
C1776 C 0.23072 0.62213 0.23053 0.0
C1777 C 0.28021 0.62223 0.27998 0.0
C1778 C 0.26314 0.62223 0.26286 0.0
H1779 H 0.16872 0.61786 0.22581 0.0
H1780 H 0.19708 0.61829 0.25288 0.0
H1781 H 0.24367 0.6021 0.20313 0.0
H1782 H 0.32533 0.61825 0.26976 0.0
H1783 H 0.29747 0.61867 0.24173 0.0
C1784 C 0.37538 0.04681 0.5788 0.0
C1785 C 0.37279 0.06312 0.56378 0.0
C1786 C 0.37529 0.03055 0.56331 0.0
C1787 C 0.38385 0.01113 0.49092 0.0
H1788 H 0.35317 0.97211 0.51668 0.0
C1789 C 0.37525 0.94679 0.42123 0.0
C1790 C 0.3733 0.93042 0.43627 0.0
C1791 C 0.375 0.96303 0.43675 0.0
C1792 C 0.36205 0.98274 0.50942 0.0
H1793 H 0.36826 0.07526 0.52084 0.0
H1794 H 0.36849 0.04684 0.49375 0.0
H1795 H 0.35352 0.00024 0.54435 0.0
H1796 H 0.36984 0.91814 0.47933 0.0
H1797 H 0.37011 0.94634 0.50652 0.0
H1798 H 0.39285 0.99362 0.45654 0.0
C1799 C 0.37046 0.04667 0.51748 0.0
C1800 C 0.36216 -0.00114 0.52522 0.0
C1801 C 0.37025 0.06289 0.533 0.0
C1802 C 0.37122 0.93058 0.46711 0.0
C1803 C 0.37126 0.94678 0.48268 0.0
C1804 C 0.38397 0.99491 0.47536 0.0
C1805 C 0.37292 0.03037 0.53251 0.0
C1806 C 0.373 0.01321 0.51603 0.0
C1807 C 0.37308 0.96324 0.46771 0.0
C1808 C 0.37302 0.98051 0.48433 0.0
H1809 H 0.3773 0.04658 0.60254 0.0
H1810 H 0.3773 0.01814 0.57533 0.0
H1811 H 0.39247 0.02197 0.48359 0.0
H1812 H 0.37672 0.94707 0.39741 0.0
H1813 H 0.3761 0.97542 0.42437 0.0
C1814 C 0.79491 0.62317 0.16816 0.0
C1815 C 0.81121 0.62122 0.18343 0.0
C1816 C 0.77862 0.62289 0.18344 0.0
C1817 C 0.75863 0.61012 0.25592 0.0
H1818 H 0.71991 0.64122 0.23009 0.0
C1819 C 0.69528 0.62494 0.32577 0.0
C1820 C 0.67884 0.62269 0.31098 0.0
C1821 C 0.71141 0.62446 0.31006 0.0
C1822 C 0.7306 0.6324 0.2374 0.0
H1823 H 0.8233 0.61766 0.22665 0.0
H1824 H 0.79502 0.61786 0.25342 0.0
H1825 H 0.74818 0.64105 0.20297 0.0
H1826 H 0.66633 0.61836 0.26822 0.0
H1827 H 0.69457 0.6179 0.24075 0.0
H1828 H 0.74107 0.60197 0.29094 0.0
C1829 C 0.79468 0.61904 0.22958 0.0
C1830 C 0.74677 0.63221 0.22181 0.0
C1831 C 0.81093 0.61904 0.21425 0.0
C1832 C 0.67881 0.62009 0.2802 0.0
C1833 C 0.69492 0.61991 0.26446 0.0
C1834 C 0.74255 0.61054 0.27176 0.0
C1835 C 0.7783 0.62094 0.21439 0.0
C1836 C 0.761 0.62104 0.23083 0.0
C1837 C 0.71135 0.62202 0.27927 0.0
C1838 C 0.7284 0.62166 0.2626 0.0
H1839 H 0.79473 0.62471 0.14434 0.0
H1840 H 0.76629 0.62405 0.17092 0.0
H1841 H 0.76911 0.60108 0.26321 0.0
H1842 H 0.69569 0.62689 0.3495 0.0
H1843 H 0.72393 0.62621 0.32192 0.0
C1844 C 0.12291 0.93115 0.03674 0.0
C1845 C 0.12065 0.93085 0.06757 0.0
C1846 C 0.12238 0.94738 0.02137 0.0
C1847 C 0.13032 0.99521 0.02903 0.0
H1848 H 0.09902 -0.0 0.96095 0.0
C1849 C 0.12134 0.06297 0.96945 0.0
C1850 C 0.11917 0.06277 0.93862 0.0
C1851 C 0.12114 0.04697 0.98549 0.0
C1852 C 0.10806 -0.00117 0.9796 0.0
H1853 H 0.11636 0.94726 0.10659 0.0
H1854 H 0.11584 0.97577 0.07962 0.0
H1855 H 0.09969 0.97181 0.98832 0.0
H1856 H 0.11537 0.04569 0.90028 0.0
H1857 H 0.1157 0.01769 0.92806 0.0
H1858 H 0.13922 0.02191 0.01993 0.0
C1859 C 0.11785 0.96339 0.06745 0.0
C1860 C 0.10833 0.98272 0.99535 0.0
C1861 C 0.11807 0.9471 0.0828 0.0
C1862 C 0.11691 0.04626 0.92408 0.0
C1863 C 0.11699 0.03021 0.94007 0.0
C1864 C 0.13027 0.01124 0.01302 0.0
C1865 C 0.11989 0.96363 0.03659 0.0
C1866 C 0.11945 0.98078 0.0202 0.0
C1867 C 0.11906 0.03036 0.97102 0.0
C1868 C 0.11911 0.01328 0.9881 0.0
H1869 H 0.12488 0.91882 0.0244 0.0
H1870 H 0.12412 0.94726 0.99759 0.0
H1871 H 0.13915 0.99395 0.04795 0.0
H1872 H 0.12296 0.07554 0.98128 0.0
H1873 H 0.12241 0.04768 0.00931 0.0
C1874 C 0.68023 0.37566 0.71725 0.0
C1875 C 0.68042 0.37324 0.68646 0.0
C1876 C 0.69625 0.3758 0.73328 0.0
C1877 C 0.74427 0.36264 0.72759 0.0
H1878 H 0.74925 0.39366 0.79609 0.0
C1879 C 0.81186 0.37577 0.78604 0.0
C1880 C 0.81191 0.37344 0.81686 0.0
C1881 C 0.79573 0.37584 0.77035 0.0
C1882 C 0.74797 0.38486 0.77711 0.0
H1883 H 0.69749 0.36952 0.64816 0.0
H1884 H 0.7255 0.37042 0.67592 0.0
H1885 H 0.72139 0.39403 0.76772 0.0
H1886 H 0.79512 0.36972 0.85554 0.0
H1887 H 0.76681 0.37022 0.82802 0.0
H1888 H 0.77112 0.35392 0.73667 0.0
C1889 C 0.71299 0.37163 0.68791 0.0
C1890 C 0.732 0.38499 0.76089 0.0
C1891 C 0.69694 0.37122 0.67193 0.0
C1892 C 0.79548 0.37147 0.83177 0.0
C1893 C 0.77931 0.37184 0.8161 0.0
C1894 C 0.76032 0.36272 0.74355 0.0
C1895 C 0.71285 0.3738 0.71883 0.0
C1896 C 0.72992 0.37384 0.73595 0.0
C1897 C 0.77932 0.37387 0.78524 0.0
C1898 C 0.76228 0.3738 0.76847 0.0
H1899 H 0.66767 0.37712 0.72909 0.0
H1900 H 0.69556 0.37716 0.75708 0.0
H1901 H 0.74307 0.35359 0.70893 0.0
H1902 H 0.82431 0.37728 0.77393 0.0
H1903 H 0.79605 0.37757 0.74658 0.0
loop_
_geom_bond_atom_site_label_1
_geom_bond_atom_site_label_2
_geom_bond_distance
_geom_bond_site_symmetry_2
_ccdc_geom_bond_type
Co0 O2 2.143 . S
Co0 O8 2.074 . S
Co0 O11 2.093 . S
Co0 O24 2.097 . S
Co0 N41 2.151 . S
Co0 N49 2.214 . S
Co1 O2 2.160 . S
Co1 O7 2.058 . S
Co1 O17 2.057 . S
Co1 O32 2.037 . S
Co1 N36 2.145 . S
Co1 N57 2.257 . S
O2 Co0 2.143 . S
O2 Co1 2.160 . S
C3 O4 1.278 . S
C3 O11 1.224 . S
O4 C3 1.278 . S
C5 O6 1.245 . S
C5 O17 1.232 . S
O6 C5 1.245 . S
O7 Co1 2.058 . S
O7 C33 1.269 . S
O8 Co0 2.074 . S
O8 C33 1.257 . S
H9 C34 0.930 . S
H10 C40 0.930 . S
O11 Co0 2.093 . S
O11 C3 1.224 . S
H12 C44 0.929 . S
H13 C46 0.930 . S
H14 C47 0.930 . S
H15 C45 0.929 . S
H16 C48 0.928 . S
O17 Co1 2.057 . S
O17 C5 1.232 . S
H18 C37 0.929 . S
H19 C38 0.929 . S
H20 C50 0.931 . S
H21 C42 0.929 . S
H22 C51 0.930 1_556 S
H23 C43 0.931 . S
O24 Co0 2.097 . S
O24 C52 1.214 . S
H25 C53 0.929 . S
H26 C54 0.929 . S
H27 C55 0.930 . S
H28 C56 0.929 . S
H29 C58 0.930 . S
H30 C35 0.930 . S
H31 C39 0.930 . S
O32 Co1 2.037 . S
O32 C52 1.234 . S
C33 O7 1.269 . S
C33 O8 1.257 . S
C34 H9 0.930 . S
C34 C37 1.388 . S
C34 C39 1.418 . S
C35 H30 0.930 . S
C35 C38 1.404 . S
C35 C39 1.353 . S
N36 Co1 2.145 . S
N36 C37 1.397 . S
N36 C38 1.334 . S
C37 H18 0.929 . S
C37 C34 1.388 . S
C37 N36 1.397 . S
C38 H19 0.929 . S
C38 C35 1.404 . S
C38 N36 1.334 . S
C39 H31 0.930 . S
C39 C34 1.418 . S
C39 C35 1.353 . S
C40 H10 0.930 . S
C40 N41 1.330 . S
C40 C42 1.446 . S
N41 Co0 2.151 . S
N41 C40 1.330 . S
N41 C45 1.418 . S
C42 H21 0.929 . S
C42 C40 1.446 . S
C42 C43 1.332 . S
C43 H23 0.931 . S
C43 C42 1.332 . S
C43 C44 1.267 . S
C44 H12 0.929 . S
C44 C43 1.267 . S
C44 C45 1.251 . S
C45 H15 0.929 . S
C45 N41 1.418 . S
C45 C44 1.251 . S
C46 H13 0.930 . S
C46 C48 1.406 1_556 S
C46 C51 1.261 1_556 S
C47 H14 0.930 . S
C47 N49 1.325 . S
C47 C50 1.357 . S
C48 H16 0.928 . S
C48 C46 1.406 1_554 S
C48 N49 1.261 . S
N49 Co0 2.214 . S
N49 C47 1.325 . S
N49 C48 1.261 . S
C50 H20 0.931 . S
C50 C47 1.357 . S
C50 C51 1.312 . S
C51 H22 0.930 1_554 S
C51 C46 1.261 1_554 S
C51 C50 1.312 . S
C52 O24 1.214 . S
C52 O32 1.234 . S
C53 H25 0.929 . S
C53 C56 1.391 . S
C53 C58 1.391 . S
C54 H26 0.929 . S
C54 C55 1.390 . S
C54 N57 1.391 . S
C55 H27 0.930 . S
C55 C54 1.390 . S
C55 C56 1.392 . S
C56 H28 0.929 . S
C56 C53 1.391 . S
C56 C55 1.392 . S
N57 Co1 2.257 . S
N57 C54 1.391 . S
N57 C58 1.388 . S
C58 H29 0.930 . S
C58 C53 1.391 . S
C58 N57 1.388 . S
Co59 O61 2.143 . S
Co59 O67 2.074 . S
Co59 O70 2.093 . S
Co59 O83 2.097 . S
Co59 N100 2.151 . S
Co59 N108 2.214 . S
Co60 O61 2.160 . S
Co60 O66 2.058 . S
Co60 O76 2.057 . S
Co60 O91 2.037 . S
Co60 N95 2.145 . S
Co60 N116 2.257 . S
O61 Co59 2.143 . S
O61 Co60 2.160 . S
C62 O63 1.278 . S
C62 O70 1.224 . S
O63 C62 1.278 . S
C64 O65 1.245 . S
C64 O76 1.232 . S
O65 C64 1.245 . S
O66 Co60 2.058 . S
O66 C92 1.269 . S
O67 Co59 2.074 . S
O67 C92 1.257 . S
H68 C93 0.930 . S
H69 C99 0.930 . S
O70 Co59 2.093 . S
O70 C62 1.224 . S
H71 C103 0.929 . S
H72 C105 0.930 . S
H73 C106 0.930 . S
H74 C104 0.929 . S
H75 C107 0.928 . S
O76 Co60 2.057 . S
O76 C64 1.232 . S
H77 C96 0.929 . S
H78 C97 0.929 . S
H79 C109 0.931 . S
H80 C101 0.929 . S
H81 C110 0.930 . S
H82 C102 0.931 . S
O83 Co59 2.097 . S
O83 C111 1.214 . S
H84 C112 0.929 . S
H85 C113 0.929 . S
H86 C114 0.930 . S
H87 C115 0.929 . S
H88 C117 0.930 . S
H89 C94 0.930 . S
H90 C98 0.930 . S
O91 Co60 2.037 . S
O91 C111 1.234 . S
C92 O66 1.269 . S
C92 O67 1.257 . S
C93 H68 0.930 . S
C93 C96 1.388 . S
C93 C98 1.418 . S
C94 H89 0.930 . S
C94 C97 1.404 . S
C94 C98 1.353 . S
N95 Co60 2.145 . S
N95 C96 1.397 . S
N95 C97 1.334 . S
C96 H77 0.929 . S
C96 C93 1.388 . S
C96 N95 1.397 . S
C97 H78 0.929 . S
C97 C94 1.404 . S
C97 N95 1.334 . S
C98 H90 0.930 . S
C98 C93 1.418 . S
C98 C94 1.353 . S
C99 H69 0.930 . S
C99 N100 1.330 . S
C99 C101 1.446 . S
N100 Co59 2.151 . S
N100 C99 1.330 . S
N100 C104 1.418 . S
C101 H80 0.929 . S
C101 C99 1.446 . S
C101 C102 1.332 . S
C102 H82 0.931 . S
C102 C101 1.332 . S
C102 C103 1.267 . S
C103 H71 0.929 . S
C103 C102 1.267 . S
C103 C104 1.251 . S
C104 H74 0.929 . S
C104 N100 1.418 . S
C104 C103 1.251 . S
C105 H72 0.930 . S
C105 C107 1.406 . S
C105 C110 1.261 . S
C106 H73 0.930 . S
C106 N108 1.325 . S
C106 C109 1.357 . S
C107 H75 0.928 . S
C107 C105 1.406 . S
C107 N108 1.261 . S
N108 Co59 2.214 . S
N108 C106 1.325 . S
N108 C107 1.261 . S
C109 H79 0.931 . S
C109 C106 1.357 . S
C109 C110 1.312 . S
C110 H81 0.930 . S
C110 C105 1.261 . S
C110 C109 1.312 . S
C111 O83 1.214 . S
C111 O91 1.234 . S
C112 H84 0.929 . S
C112 C115 1.391 . S
C112 C117 1.391 . S
C113 H85 0.929 . S
C113 C114 1.390 . S
C113 N116 1.391 . S
C114 H86 0.930 . S
C114 C113 1.390 . S
C114 C115 1.392 . S
C115 H87 0.929 . S
C115 C112 1.391 . S
C115 C114 1.392 . S
N116 Co60 2.257 . S
N116 C113 1.391 . S
N116 C117 1.388 . S
C117 H88 0.930 . S
C117 C112 1.391 . S
C117 N116 1.388 . S
Co118 O120 2.143 . S
Co118 O126 2.074 . S
Co118 O129 2.093 . S
Co118 O142 2.097 . S
Co118 N159 2.151 . S
Co118 N167 2.214 . S
Co119 O120 2.160 . S
Co119 O125 2.058 . S
Co119 O135 2.057 . S
Co119 O150 2.037 . S
Co119 N154 2.145 . S
Co119 N175 2.257 . S
O120 Co118 2.143 . S
O120 Co119 2.160 . S
C121 O122 1.278 . S
C121 O129 1.224 . S
O122 C121 1.278 . S
C123 O124 1.245 . S
C123 O135 1.232 . S
O124 C123 1.245 . S
O125 Co119 2.058 . S
O125 C151 1.269 . S
O126 Co118 2.074 . S
O126 C151 1.257 . S
H127 C152 0.930 . S
H128 C158 0.930 . S
O129 Co118 2.093 . S
O129 C121 1.224 . S
H130 C162 0.929 . S
H131 C164 0.930 . S
H132 C165 0.930 . S
H133 C163 0.929 . S
H134 C166 0.928 . S
O135 Co119 2.057 . S
O135 C123 1.232 . S
H136 C155 0.929 . S
H137 C156 0.929 . S
H138 C168 0.931 . S
H139 C160 0.929 . S
H140 C169 0.930 . S
H141 C161 0.931 . S
O142 Co118 2.097 . S
O142 C170 1.214 . S
H143 C171 0.929 . S
H144 C172 0.929 . S
H145 C173 0.930 . S
H146 C174 0.929 . S
H147 C176 0.930 . S
H148 C153 0.930 . S
H149 C157 0.930 . S
O150 Co119 2.037 . S
O150 C170 1.234 . S
C151 O125 1.269 . S
C151 O126 1.257 . S
C152 H127 0.930 . S
C152 C155 1.388 . S
C152 C157 1.418 . S
C153 H148 0.930 . S
C153 C156 1.404 . S
C153 C157 1.353 . S
N154 Co119 2.145 . S
N154 C155 1.397 . S
N154 C156 1.334 . S
C155 H136 0.929 . S
C155 C152 1.388 . S
C155 N154 1.397 . S
C156 H137 0.929 . S
C156 C153 1.404 . S
C156 N154 1.334 . S
C157 H149 0.930 . S
C157 C152 1.418 . S
C157 C153 1.353 . S
C158 H128 0.930 . S
C158 N159 1.330 . S
C158 C160 1.446 . S
N159 Co118 2.151 . S
N159 C158 1.330 . S
N159 C163 1.418 . S
C160 H139 0.929 . S
C160 C158 1.446 . S
C160 C161 1.332 . S
C161 H141 0.931 . S
C161 C160 1.332 . S
C161 C162 1.267 . S
C162 H130 0.929 . S
C162 C161 1.267 . S
C162 C163 1.251 . S
C163 H133 0.929 . S
C163 N159 1.418 . S
C163 C162 1.251 . S
C164 H131 0.930 . S
C164 C166 1.406 . S
C164 C169 1.261 . S
C165 H132 0.930 . S
C165 N167 1.325 . S
C165 C168 1.357 . S
C166 H134 0.928 . S
C166 C164 1.406 . S
C166 N167 1.261 . S
N167 Co118 2.214 . S
N167 C165 1.325 . S
N167 C166 1.261 . S
C168 H138 0.931 . S
C168 C165 1.357 . S
C168 C169 1.312 . S
C169 H140 0.930 . S
C169 C164 1.261 . S
C169 C168 1.312 . S
C170 O142 1.214 . S
C170 O150 1.234 . S
C171 H143 0.929 . S
C171 C174 1.391 . S
C171 C176 1.391 . S
C172 H144 0.929 . S
C172 C173 1.390 . S
C172 N175 1.391 . S
C173 H145 0.930 . S
C173 C172 1.390 . S
C173 C174 1.392 . S
C174 H146 0.929 . S
C174 C171 1.391 . S
C174 C173 1.392 . S
N175 Co119 2.257 . S
N175 C172 1.391 . S
N175 C176 1.388 . S
C176 H147 0.930 . S
C176 C171 1.391 . S
C176 N175 1.388 . S
Co177 O179 2.143 . S
Co177 O185 2.074 . S
Co177 O188 2.093 . S
Co177 O201 2.097 . S
Co177 N218 2.151 . S
Co177 N226 2.214 . S
Co178 O179 2.160 . S
Co178 O184 2.058 . S
Co178 O194 2.057 . S
Co178 O209 2.037 . S
Co178 N213 2.145 . S
Co178 N234 2.257 . S
O179 Co177 2.143 . S
O179 Co178 2.160 . S
C180 O181 1.278 . S
C180 O188 1.224 . S
O181 C180 1.278 . S
C182 O183 1.245 . S
C182 O194 1.232 . S
O183 C182 1.245 . S
O184 Co178 2.058 . S
O184 C210 1.269 . S
O185 Co177 2.074 . S
O185 C210 1.257 . S
H186 C211 0.930 . S
H187 C217 0.930 . S
O188 Co177 2.093 . S
O188 C180 1.224 . S
H189 C221 0.929 . S
H190 C223 0.930 . S
H191 C224 0.930 . S
H192 C222 0.929 . S
H193 C225 0.928 . S
O194 Co178 2.057 . S
O194 C182 1.232 . S
H195 C214 0.929 . S
H196 C215 0.929 . S
H197 C227 0.931 . S
H198 C219 0.929 . S
H199 C228 0.930 . S
H200 C220 0.931 . S
O201 Co177 2.097 . S
O201 C229 1.214 . S
H202 C230 0.929 . S
H203 C231 0.929 . S
H204 C232 0.930 . S
H205 C233 0.929 . S
H206 C235 0.930 . S
H207 C212 0.930 . S
H208 C216 0.930 . S
O209 Co178 2.037 . S
O209 C229 1.234 . S
C210 O184 1.269 . S
C210 O185 1.257 . S
C211 H186 0.930 . S
C211 C214 1.388 . S
C211 C216 1.418 1_556 S
C212 H207 0.930 . S
C212 C215 1.404 1_554 S
C212 C216 1.353 . S
N213 Co178 2.145 . S
N213 C214 1.397 . S
N213 C215 1.334 . S
C214 H195 0.929 . S
C214 C211 1.388 . S
C214 N213 1.397 . S
C215 H196 0.929 . S
C215 C212 1.404 1_556 S
C215 N213 1.334 . S
C216 H208 0.930 . S
C216 C211 1.418 1_554 S
C216 C212 1.353 . S
C217 H187 0.930 . S
C217 N218 1.330 . S
C217 C219 1.446 . S
N218 Co177 2.151 . S
N218 C217 1.330 . S
N218 C222 1.418 . S
C219 H198 0.929 . S
C219 C217 1.446 . S
C219 C220 1.332 . S
C220 H200 0.931 . S
C220 C219 1.332 . S
C220 C221 1.267 . S
C221 H189 0.929 . S
C221 C220 1.267 . S
C221 C222 1.251 . S
C222 H192 0.929 . S
C222 N218 1.418 . S
C222 C221 1.251 . S
C223 H190 0.930 . S
C223 C225 1.406 . S
C223 C228 1.261 . S
C224 H191 0.930 . S
C224 N226 1.325 . S
C224 C227 1.357 . S
C225 H193 0.928 . S
C225 C223 1.406 . S
C225 N226 1.261 . S
N226 Co177 2.214 . S
N226 C224 1.325 . S
N226 C225 1.261 . S
C227 H197 0.931 . S
C227 C224 1.357 . S
C227 C228 1.312 . S
C228 H199 0.930 . S
C228 C223 1.261 . S
C228 C227 1.312 . S
C229 O201 1.214 . S
C229 O209 1.234 . S
C230 H202 0.929 . S
C230 C233 1.391 . S
C230 C235 1.391 . S
C231 H203 0.929 . S
C231 C232 1.390 . S
C231 N234 1.391 . S
C232 H204 0.930 . S
C232 C231 1.390 . S
C232 C233 1.392 . S
C233 H205 0.929 . S
C233 C230 1.391 . S
C233 C232 1.392 . S
N234 Co178 2.257 . S
N234 C231 1.391 . S
N234 C235 1.388 . S
C235 H206 0.930 . S
C235 C230 1.391 . S
C235 N234 1.388 . S
Co236 O238 2.143 . S
Co236 O244 2.074 . S
Co236 O247 2.093 . S
Co236 O260 2.097 . S
Co236 N277 2.151 . S
Co236 N285 2.214 . S
Co237 O238 2.160 . S
Co237 O243 2.058 . S
Co237 O253 2.057 . S
Co237 O268 2.037 . S
Co237 N272 2.145 . S
Co237 N293 2.257 . S
O238 Co236 2.143 . S
O238 Co237 2.160 . S
C239 O240 1.278 . S
C239 O247 1.224 . S
O240 C239 1.278 . S
C241 O242 1.245 . S
C241 O253 1.232 . S
O242 C241 1.245 . S
O243 Co237 2.058 . S
O243 C269 1.269 . S
O244 Co236 2.074 . S
O244 C269 1.257 . S
H245 C270 0.930 . S
H246 C276 0.930 . S
O247 Co236 2.093 . S
O247 C239 1.224 . S
H248 C280 0.929 . S
H249 C282 0.930 . S
H250 C283 0.930 . S
H251 C281 0.929 . S
H252 C284 0.928 . S
O253 Co237 2.057 . S
O253 C241 1.232 . S
H254 C273 0.929 . S
H255 C274 0.929 . S
H256 C286 0.931 . S
H257 C278 0.929 . S
H258 C287 0.930 1_554 S
H259 C279 0.931 . S
O260 Co236 2.097 . S
O260 C288 1.214 . S
H261 C289 0.929 . S
H262 C290 0.929 . S
H263 C291 0.930 . S
H264 C292 0.929 . S
H265 C294 0.930 . S
H266 C271 0.930 . S
H267 C275 0.930 . S
O268 Co237 2.037 . S
O268 C288 1.234 . S
C269 O243 1.269 . S
C269 O244 1.257 . S
C270 H245 0.930 . S
C270 C273 1.388 . S
C270 C275 1.418 . S
C271 H266 0.930 . S
C271 C274 1.404 . S
C271 C275 1.353 . S
N272 Co237 2.145 . S
N272 C273 1.397 . S
N272 C274 1.334 . S
C273 H254 0.929 . S
C273 C270 1.388 . S
C273 N272 1.397 . S
C274 H255 0.929 . S
C274 C271 1.404 . S
C274 N272 1.334 . S
C275 H267 0.930 . S
C275 C270 1.418 . S
C275 C271 1.353 . S
C276 H246 0.930 . S
C276 N277 1.330 . S
C276 C278 1.446 . S
N277 Co236 2.151 . S
N277 C276 1.330 . S
N277 C281 1.418 . S
C278 H257 0.929 . S
C278 C276 1.446 . S
C278 C279 1.332 . S
C279 H259 0.931 . S
C279 C278 1.332 . S
C279 C280 1.267 . S
C280 H248 0.929 . S
C280 C279 1.267 . S
C280 C281 1.251 . S
C281 H251 0.929 . S
C281 N277 1.418 . S
C281 C280 1.251 . S
C282 H249 0.930 . S
C282 C284 1.406 1_554 S
C282 C287 1.261 1_554 S
C283 H250 0.930 . S
C283 N285 1.325 . S
C283 C286 1.357 . S
C284 H252 0.928 . S
C284 C282 1.406 1_556 S
C284 N285 1.261 . S
N285 Co236 2.214 . S
N285 C283 1.325 . S
N285 C284 1.261 . S
C286 H256 0.931 . S
C286 C283 1.357 . S
C286 C287 1.312 . S
C287 H258 0.930 1_556 S
C287 C282 1.261 1_556 S
C287 C286 1.312 . S
C288 O260 1.214 . S
C288 O268 1.234 . S
C289 H261 0.929 . S
C289 C292 1.391 . S
C289 C294 1.391 . S
C290 H262 0.929 . S
C290 C291 1.390 . S
C290 N293 1.391 . S
C291 H263 0.930 . S
C291 C290 1.390 . S
C291 C292 1.392 . S
C292 H264 0.929 . S
C292 C289 1.391 . S
C292 C291 1.392 . S
N293 Co237 2.257 . S
N293 C290 1.391 . S
N293 C294 1.388 . S
C294 H265 0.930 . S
C294 C289 1.391 . S
C294 N293 1.388 . S
Co295 O297 2.143 . S
Co295 O303 2.074 . S
Co295 O306 2.093 . S
Co295 O319 2.097 . S
Co295 N336 2.151 . S
Co295 N344 2.214 . S
Co296 O297 2.160 . S
Co296 O302 2.058 . S
Co296 O312 2.057 . S
Co296 O327 2.037 . S
Co296 N331 2.145 . S
Co296 N352 2.257 . S
O297 Co295 2.143 . S
O297 Co296 2.160 . S
C298 O299 1.278 . S
C298 O306 1.224 . S
O299 C298 1.278 . S
C300 O301 1.245 . S
C300 O312 1.232 . S
O301 C300 1.245 . S
O302 Co296 2.058 . S
O302 C328 1.269 . S
O303 Co295 2.074 . S
O303 C328 1.257 . S
H304 C329 0.930 . S
H305 C335 0.930 . S
O306 Co295 2.093 . S
O306 C298 1.224 . S
H307 C339 0.929 . S
H308 C341 0.930 . S
H309 C342 0.930 . S
H310 C340 0.929 . S
H311 C343 0.928 . S
O312 Co296 2.057 . S
O312 C300 1.232 . S
H313 C332 0.929 . S
H314 C333 0.929 . S
H315 C345 0.931 . S
H316 C337 0.929 . S
H317 C346 0.930 1_556 S
H318 C338 0.931 . S
O319 Co295 2.097 . S
O319 C347 1.214 . S
H320 C348 0.929 . S
H321 C349 0.929 . S
H322 C350 0.930 . S
H323 C351 0.929 . S
H324 C353 0.930 . S
H325 C330 0.930 . S
H326 C334 0.930 . S
O327 Co296 2.037 . S
O327 C347 1.234 . S
C328 O302 1.269 . S
C328 O303 1.257 . S
C329 H304 0.930 . S
C329 C332 1.388 . S
C329 C334 1.418 . S
C330 H325 0.930 . S
C330 C333 1.404 . S
C330 C334 1.353 . S
N331 Co296 2.145 . S
N331 C332 1.397 . S
N331 C333 1.334 . S
C332 H313 0.929 . S
C332 C329 1.388 . S
C332 N331 1.397 . S
C333 H314 0.929 . S
C333 C330 1.404 . S
C333 N331 1.334 . S
C334 H326 0.930 . S
C334 C329 1.418 . S
C334 C330 1.353 . S
C335 H305 0.930 . S
C335 N336 1.330 . S
C335 C337 1.446 . S
N336 Co295 2.151 . S
N336 C335 1.330 . S
N336 C340 1.418 . S
C337 H316 0.929 . S
C337 C335 1.446 . S
C337 C338 1.332 . S
C338 H318 0.931 . S
C338 C337 1.332 . S
C338 C339 1.267 . S
C339 H307 0.929 . S
C339 C338 1.267 . S
C339 C340 1.251 . S
C340 H310 0.929 . S
C340 N336 1.418 . S
C340 C339 1.251 . S
C341 H308 0.930 . S
C341 C343 1.406 1_556 S
C341 C346 1.261 1_556 S
C342 H309 0.930 . S
C342 N344 1.325 . S
C342 C345 1.357 . S
C343 H311 0.928 . S
C343 C341 1.406 1_554 S
C343 N344 1.261 . S
N344 Co295 2.214 . S
N344 C342 1.325 . S
N344 C343 1.261 . S
C345 H315 0.931 . S
C345 C342 1.357 . S
C345 C346 1.312 . S
C346 H317 0.930 1_554 S
C346 C341 1.261 1_554 S
C346 C345 1.312 . S
C347 O319 1.214 . S
C347 O327 1.234 . S
C348 H320 0.929 . S
C348 C351 1.391 . S
C348 C353 1.391 . S
C349 H321 0.929 . S
C349 C350 1.390 . S
C349 N352 1.391 . S
C350 H322 0.930 . S
C350 C349 1.390 . S
C350 C351 1.392 . S
C351 H323 0.929 . S
C351 C348 1.391 . S
C351 C350 1.392 . S
N352 Co296 2.257 . S
N352 C349 1.391 . S
N352 C353 1.388 . S
C353 H324 0.930 . S
C353 C348 1.391 . S
C353 N352 1.388 . S
Co354 O356 2.143 . S
Co354 O362 2.074 . S
Co354 O365 2.093 . S
Co354 O378 2.097 . S
Co354 N395 2.151 . S
Co354 N403 2.214 . S
Co355 O356 2.160 . S
Co355 O361 2.058 . S
Co355 O371 2.057 . S
Co355 O386 2.037 . S
Co355 N390 2.145 . S
Co355 N411 2.257 . S
O356 Co354 2.143 . S
O356 Co355 2.160 . S
C357 O358 1.278 . S
C357 O365 1.224 . S
O358 C357 1.278 . S
C359 O360 1.245 . S
C359 O371 1.232 . S
O360 C359 1.245 . S
O361 Co355 2.058 . S
O361 C387 1.269 . S
O362 Co354 2.074 . S
O362 C387 1.257 . S
H363 C388 0.930 . S
H364 C394 0.930 . S
O365 Co354 2.093 . S
O365 C357 1.224 . S
H366 C398 0.929 . S
H367 C400 0.930 . S
H368 C401 0.930 . S
H369 C399 0.929 . S
H370 C402 0.928 . S
O371 Co355 2.057 . S
O371 C359 1.232 . S
H372 C391 0.929 . S
H373 C392 0.929 . S
H374 C404 0.931 . S
H375 C396 0.929 . S
H376 C405 0.930 . S
H377 C397 0.931 . S
O378 Co354 2.097 . S
O378 C406 1.214 . S
H379 C407 0.929 . S
H380 C408 0.929 . S
H381 C409 0.930 . S
H382 C410 0.929 . S
H383 C412 0.930 . S
H384 C389 0.930 . S
H385 C393 0.930 . S
O386 Co355 2.037 . S
O386 C406 1.234 . S
C387 O361 1.269 . S
C387 O362 1.257 . S
C388 H363 0.930 . S
C388 C391 1.388 . S
C388 C393 1.418 . S
C389 H384 0.930 . S
C389 C392 1.404 . S
C389 C393 1.353 . S
N390 Co355 2.145 . S
N390 C391 1.397 . S
N390 C392 1.334 . S
C391 H372 0.929 . S
C391 C388 1.388 . S
C391 N390 1.397 . S
C392 H373 0.929 . S
C392 C389 1.404 . S
C392 N390 1.334 . S
C393 H385 0.930 . S
C393 C388 1.418 . S
C393 C389 1.353 . S
C394 H364 0.930 . S
C394 N395 1.330 . S
C394 C396 1.446 . S
N395 Co354 2.151 . S
N395 C394 1.330 . S
N395 C399 1.418 . S
C396 H375 0.929 . S
C396 C394 1.446 . S
C396 C397 1.332 . S
C397 H377 0.931 . S
C397 C396 1.332 . S
C397 C398 1.267 . S
C398 H366 0.929 . S
C398 C397 1.267 . S
C398 C399 1.251 . S
C399 H369 0.929 . S
C399 N395 1.418 . S
C399 C398 1.251 . S
C400 H367 0.930 . S
C400 C402 1.406 . S
C400 C405 1.261 . S
C401 H368 0.930 . S
C401 N403 1.325 . S
C401 C404 1.357 . S
C402 H370 0.928 . S
C402 C400 1.406 . S
C402 N403 1.261 . S
N403 Co354 2.214 . S
N403 C401 1.325 . S
N403 C402 1.261 . S
C404 H374 0.931 . S
C404 C401 1.357 . S
C404 C405 1.312 . S
C405 H376 0.930 . S
C405 C400 1.261 . S
C405 C404 1.312 . S
C406 O378 1.214 . S
C406 O386 1.234 . S
C407 H379 0.929 . S
C407 C410 1.391 . S
C407 C412 1.391 . S
C408 H380 0.929 . S
C408 C409 1.390 . S
C408 N411 1.391 . S
C409 H381 0.930 . S
C409 C408 1.390 . S
C409 C410 1.392 . S
C410 H382 0.929 . S
C410 C407 1.391 . S
C410 C409 1.392 . S
N411 Co355 2.257 . S
N411 C408 1.391 . S
N411 C412 1.388 . S
C412 H383 0.930 . S
C412 C407 1.391 . S
C412 N411 1.388 . S
Co413 O415 2.143 . S
Co413 O421 2.074 . S
Co413 O424 2.093 . S
Co413 O437 2.097 . S
Co413 N454 2.151 . S
Co413 N462 2.214 . S
Co414 O415 2.160 . S
Co414 O420 2.058 . S
Co414 O430 2.057 . S
Co414 O445 2.037 . S
Co414 N449 2.145 . S
Co414 N470 2.257 . S
O415 Co413 2.143 . S
O415 Co414 2.160 . S
C416 O417 1.278 . S
C416 O424 1.224 . S
O417 C416 1.278 . S
C418 O419 1.245 . S
C418 O430 1.232 . S
O419 C418 1.245 . S
O420 Co414 2.058 . S
O420 C446 1.269 . S
O421 Co413 2.074 . S
O421 C446 1.257 . S
H422 C447 0.930 . S
H423 C453 0.930 . S
O424 Co413 2.093 . S
O424 C416 1.224 . S
H425 C457 0.929 . S
H426 C459 0.930 . S
H427 C460 0.930 . S
H428 C458 0.929 . S
H429 C461 0.928 . S
O430 Co414 2.057 . S
O430 C418 1.232 . S
H431 C450 0.929 . S
H432 C451 0.929 . S
H433 C463 0.931 . S
H434 C455 0.929 . S
H435 C464 0.930 . S
H436 C456 0.931 . S
O437 Co413 2.097 . S
O437 C465 1.214 . S
H438 C466 0.929 . S
H439 C467 0.929 . S
H440 C468 0.930 . S
H441 C469 0.929 . S
H442 C471 0.930 . S
H443 C448 0.930 . S
H444 C452 0.930 . S
O445 Co414 2.037 . S
O445 C465 1.234 . S
C446 O420 1.269 . S
C446 O421 1.257 . S
C447 H422 0.930 . S
C447 C450 1.388 . S
C447 C452 1.418 . S
C448 H443 0.930 . S
C448 C451 1.404 . S
C448 C452 1.353 . S
N449 Co414 2.145 . S
N449 C450 1.397 . S
N449 C451 1.334 . S
C450 H431 0.929 . S
C450 C447 1.388 . S
C450 N449 1.397 . S
C451 H432 0.929 . S
C451 C448 1.404 . S
C451 N449 1.334 . S
C452 H444 0.930 . S
C452 C447 1.418 . S
C452 C448 1.353 . S
C453 H423 0.930 . S
C453 N454 1.330 . S
C453 C455 1.446 . S
N454 Co413 2.151 . S
N454 C453 1.330 . S
N454 C458 1.418 . S
C455 H434 0.929 . S
C455 C453 1.446 . S
C455 C456 1.332 . S
C456 H436 0.931 . S
C456 C455 1.332 . S
C456 C457 1.267 . S
C457 H425 0.929 . S
C457 C456 1.267 . S
C457 C458 1.251 . S
C458 H428 0.929 . S
C458 N454 1.418 . S
C458 C457 1.251 . S
C459 H426 0.930 . S
C459 C461 1.406 . S
C459 C464 1.261 . S
C460 H427 0.930 . S
C460 N462 1.325 . S
C460 C463 1.357 . S
C461 H429 0.928 . S
C461 C459 1.406 . S
C461 N462 1.261 . S
N462 Co413 2.214 . S
N462 C460 1.325 . S
N462 C461 1.261 . S
C463 H433 0.931 . S
C463 C460 1.357 . S
C463 C464 1.312 . S
C464 H435 0.930 . S
C464 C459 1.261 . S
C464 C463 1.312 . S
C465 O437 1.214 . S
C465 O445 1.234 . S
C466 H438 0.929 . S
C466 C469 1.391 . S
C466 C471 1.391 . S
C467 H439 0.929 . S
C467 C468 1.390 . S
C467 N470 1.391 . S
C468 H440 0.930 . S
C468 C467 1.390 . S
C468 C469 1.392 . S
C469 H441 0.929 . S
C469 C466 1.391 . S
C469 C468 1.392 . S
N470 Co414 2.257 . S
N470 C467 1.391 . S
N470 C471 1.388 . S
C471 H442 0.930 . S
C471 C466 1.391 . S
C471 N470 1.388 . S
Co472 O474 2.143 . S
Co472 O480 2.074 . S
Co472 O483 2.093 . S
Co472 O496 2.097 . S
Co472 N513 2.151 . S
Co472 N521 2.214 . S
Co473 O474 2.160 . S
Co473 O479 2.058 . S
Co473 O489 2.057 . S
Co473 O504 2.037 . S
Co473 N508 2.145 . S
Co473 N529 2.257 . S
O474 Co472 2.143 . S
O474 Co473 2.160 . S
C475 O476 1.278 . S
C475 O483 1.224 . S
O476 C475 1.278 . S
C477 O478 1.245 . S
C477 O489 1.232 . S
O478 C477 1.245 . S
O479 Co473 2.058 . S
O479 C505 1.269 . S
O480 Co472 2.074 . S
O480 C505 1.257 . S
H481 C506 0.930 . S
H482 C512 0.930 . S
O483 Co472 2.093 . S
O483 C475 1.224 . S
H484 C516 0.929 . S
H485 C518 0.930 . S
H486 C519 0.930 . S
H487 C517 0.929 . S
H488 C520 0.928 . S
O489 Co473 2.057 . S
O489 C477 1.232 . S
H490 C509 0.929 . S
H491 C510 0.929 . S
H492 C522 0.931 . S
H493 C514 0.929 . S
H494 C523 0.930 1_554 S
H495 C515 0.931 . S
O496 Co472 2.097 . S
O496 C524 1.214 . S
H497 C525 0.929 . S
H498 C526 0.929 . S
H499 C527 0.930 . S
H500 C528 0.929 . S
H501 C530 0.930 . S
H502 C507 0.930 . S
H503 C511 0.930 . S
O504 Co473 2.037 . S
O504 C524 1.234 . S
C505 O479 1.269 . S
C505 O480 1.257 . S
C506 H481 0.930 . S
C506 C509 1.388 . S
C506 C511 1.418 . S
C507 H502 0.930 . S
C507 C510 1.404 . S
C507 C511 1.353 . S
N508 Co473 2.145 . S
N508 C509 1.397 . S
N508 C510 1.334 . S
C509 H490 0.929 . S
C509 C506 1.388 . S
C509 N508 1.397 . S
C510 H491 0.929 . S
C510 C507 1.404 . S
C510 N508 1.334 . S
C511 H503 0.930 . S
C511 C506 1.418 . S
C511 C507 1.353 . S
C512 H482 0.930 . S
C512 N513 1.330 . S
C512 C514 1.446 . S
N513 Co472 2.151 . S
N513 C512 1.330 . S
N513 C517 1.418 . S
C514 H493 0.929 . S
C514 C512 1.446 . S
C514 C515 1.332 . S
C515 H495 0.931 . S
C515 C514 1.332 . S
C515 C516 1.267 . S
C516 H484 0.929 . S
C516 C515 1.267 . S
C516 C517 1.251 . S
C517 H487 0.929 . S
C517 N513 1.418 . S
C517 C516 1.251 . S
C518 H485 0.930 . S
C518 C520 1.406 1_554 S
C518 C523 1.261 1_554 S
C519 H486 0.930 . S
C519 N521 1.325 . S
C519 C522 1.357 . S
C520 H488 0.928 . S
C520 C518 1.406 1_556 S
C520 N521 1.261 . S
N521 Co472 2.214 . S
N521 C519 1.325 . S
N521 C520 1.261 . S
C522 H492 0.931 . S
C522 C519 1.357 . S
C522 C523 1.312 . S
C523 H494 0.930 1_556 S
C523 C518 1.261 1_556 S
C523 C522 1.312 . S
C524 O496 1.214 . S
C524 O504 1.234 . S
C525 H497 0.929 . S
C525 C528 1.391 . S
C525 C530 1.391 . S
C526 H498 0.929 . S
C526 C527 1.390 . S
C526 N529 1.391 . S
C527 H499 0.930 . S
C527 C526 1.390 . S
C527 C528 1.392 . S
C528 H500 0.929 . S
C528 C525 1.391 . S
C528 C527 1.392 . S
N529 Co473 2.257 . S
N529 C526 1.391 . S
N529 C530 1.388 . S
C530 H501 0.930 . S
C530 C525 1.391 . S
C530 N529 1.388 . S
Co531 O533 2.143 . S
Co531 O539 2.074 . S
Co531 O542 2.093 . S
Co531 O555 2.097 . S
Co531 N572 2.151 . S
Co531 N580 2.214 . S
Co532 O533 2.160 . S
Co532 O538 2.058 . S
Co532 O548 2.057 . S
Co532 O563 2.037 . S
Co532 N567 2.145 . S
Co532 N588 2.257 . S
O533 Co531 2.143 . S
O533 Co532 2.160 . S
C534 O535 1.278 . S
C534 O542 1.224 . S
O535 C534 1.278 . S
C536 O537 1.245 . S
C536 O548 1.232 . S
O537 C536 1.245 . S
O538 Co532 2.058 . S
O538 C564 1.269 . S
O539 Co531 2.074 . S
O539 C564 1.257 . S
H540 C565 0.930 . S
H541 C571 0.930 . S
O542 Co531 2.093 . S
O542 C534 1.224 . S
H543 C575 0.929 . S
H544 C577 0.930 . S
H545 C578 0.930 . S
H546 C576 0.929 . S
H547 C579 0.928 . S
O548 Co532 2.057 . S
O548 C536 1.232 . S
H549 C568 0.929 . S
H550 C569 0.929 . S
H551 C581 0.931 . S
H552 C573 0.929 . S
H553 C582 0.930 . S
H554 C574 0.931 . S
O555 Co531 2.097 . S
O555 C583 1.214 . S
H556 C584 0.929 . S
H557 C585 0.929 . S
H558 C586 0.930 . S
H559 C587 0.929 . S
H560 C589 0.930 . S
H561 C566 0.930 . S
H562 C570 0.930 . S
O563 Co532 2.037 . S
O563 C583 1.234 . S
C564 O538 1.269 . S
C564 O539 1.257 . S
C565 H540 0.930 . S
C565 C568 1.388 . S
C565 C570 1.418 . S
C566 H561 0.930 . S
C566 C569 1.404 . S
C566 C570 1.353 . S
N567 Co532 2.145 . S
N567 C568 1.397 . S
N567 C569 1.334 . S
C568 H549 0.929 . S
C568 C565 1.388 . S
C568 N567 1.397 . S
C569 H550 0.929 . S
C569 C566 1.404 . S
C569 N567 1.334 . S
C570 H562 0.930 . S
C570 C565 1.418 . S
C570 C566 1.353 . S
C571 H541 0.930 . S
C571 N572 1.330 . S
C571 C573 1.446 . S
N572 Co531 2.151 . S
N572 C571 1.330 . S
N572 C576 1.418 . S
C573 H552 0.929 . S
C573 C571 1.446 . S
C573 C574 1.332 . S
C574 H554 0.931 . S
C574 C573 1.332 . S
C574 C575 1.267 . S
C575 H543 0.929 . S
C575 C574 1.267 . S
C575 C576 1.251 . S
C576 H546 0.929 . S
C576 N572 1.418 . S
C576 C575 1.251 . S
C577 H544 0.930 . S
C577 C579 1.406 . S
C577 C582 1.261 . S
C578 H545 0.930 . S
C578 N580 1.325 . S
C578 C581 1.357 . S
C579 H547 0.928 . S
C579 C577 1.406 . S
C579 N580 1.261 . S
N580 Co531 2.214 . S
N580 C578 1.325 . S
N580 C579 1.261 . S
C581 H551 0.931 . S
C581 C578 1.357 . S
C581 C582 1.312 . S
C582 H553 0.930 . S
C582 C577 1.261 . S
C582 C581 1.312 . S
C583 O555 1.214 . S
C583 O563 1.234 . S
C584 H556 0.929 . S
C584 C587 1.391 . S
C584 C589 1.391 . S
C585 H557 0.929 . S
C585 C586 1.390 . S
C585 N588 1.391 . S
C586 H558 0.930 . S
C586 C585 1.390 . S
C586 C587 1.392 . S
C587 H559 0.929 . S
C587 C584 1.391 . S
C587 C586 1.392 . S
N588 Co532 2.257 . S
N588 C585 1.391 . S
N588 C589 1.388 . S
C589 H560 0.930 . S
C589 C584 1.391 . S
C589 N588 1.388 . S
Co590 O592 2.143 . S
Co590 O598 2.074 . S
Co590 O601 2.093 . S
Co590 O614 2.097 . S
Co590 N631 2.151 . S
Co590 N639 2.214 . S
Co591 O592 2.160 . S
Co591 O597 2.058 . S
Co591 O607 2.057 . S
Co591 O622 2.037 . S
Co591 N626 2.145 . S
Co591 N647 2.257 . S
O592 Co590 2.143 . S
O592 Co591 2.160 . S
C593 O594 1.278 . S
C593 O601 1.224 . S
O594 C593 1.278 . S
C595 O596 1.245 . S
C595 O607 1.232 . S
O596 C595 1.245 . S
O597 Co591 2.058 . S
O597 C623 1.269 . S
O598 Co590 2.074 . S
O598 C623 1.257 . S
H599 C624 0.930 . S
H600 C630 0.930 . S
O601 Co590 2.093 . S
O601 C593 1.224 . S
H602 C634 0.929 . S
H603 C636 0.930 . S
H604 C637 0.930 . S
H605 C635 0.929 . S
H606 C638 0.928 . S
O607 Co591 2.057 . S
O607 C595 1.232 . S
H608 C627 0.929 . S
H609 C628 0.929 . S
H610 C640 0.931 . S
H611 C632 0.929 . S
H612 C641 0.930 . S
H613 C633 0.931 . S
O614 Co590 2.097 . S
O614 C642 1.214 . S
H615 C643 0.929 . S
H616 C644 0.929 . S
H617 C645 0.930 . S
H618 C646 0.929 . S
H619 C648 0.930 . S
H620 C625 0.930 . S
H621 C629 0.930 . S
O622 Co591 2.037 . S
O622 C642 1.234 . S
C623 O597 1.269 . S
C623 O598 1.257 . S
C624 H599 0.930 . S
C624 C627 1.388 . S
C624 C629 1.418 . S
C625 H620 0.930 . S
C625 C628 1.404 . S
C625 C629 1.353 . S
N626 Co591 2.145 . S
N626 C627 1.397 . S
N626 C628 1.334 . S
C627 H608 0.929 . S
C627 C624 1.388 . S
C627 N626 1.397 . S
C628 H609 0.929 . S
C628 C625 1.404 . S
C628 N626 1.334 . S
C629 H621 0.930 . S
C629 C624 1.418 . S
C629 C625 1.353 . S
C630 H600 0.930 . S
C630 N631 1.330 . S
C630 C632 1.446 . S
N631 Co590 2.151 . S
N631 C630 1.330 . S
N631 C635 1.418 . S
C632 H611 0.929 . S
C632 C630 1.446 . S
C632 C633 1.332 . S
C633 H613 0.931 . S
C633 C632 1.332 . S
C633 C634 1.267 . S
C634 H602 0.929 . S
C634 C633 1.267 . S
C634 C635 1.251 . S
C635 H605 0.929 . S
C635 N631 1.418 . S
C635 C634 1.251 . S
C636 H603 0.930 . S
C636 C638 1.406 . S
C636 C641 1.261 . S
C637 H604 0.930 . S
C637 N639 1.325 . S
C637 C640 1.357 . S
C638 H606 0.928 . S
C638 C636 1.406 . S
C638 N639 1.261 . S
N639 Co590 2.214 . S
N639 C637 1.325 . S
N639 C638 1.261 . S
C640 H610 0.931 . S
C640 C637 1.357 . S
C640 C641 1.312 . S
C641 H612 0.930 . S
C641 C636 1.261 . S
C641 C640 1.312 . S
C642 O614 1.214 . S
C642 O622 1.234 . S
C643 H615 0.929 . S
C643 C646 1.391 . S
C643 C648 1.391 . S
C644 H616 0.929 . S
C644 C645 1.390 . S
C644 N647 1.391 . S
C645 H617 0.930 . S
C645 C644 1.390 . S
C645 C646 1.392 . S
C646 H618 0.929 . S
C646 C643 1.391 . S
C646 C645 1.392 . S
N647 Co591 2.257 . S
N647 C644 1.391 . S
N647 C648 1.388 . S
C648 H619 0.930 . S
C648 C643 1.391 . S
C648 N647 1.388 . S
Co649 O651 2.143 . S
Co649 O657 2.074 . S
Co649 O660 2.093 . S
Co649 O673 2.097 . S
Co649 N690 2.151 . S
Co649 N698 2.214 . S
Co650 O651 2.160 . S
Co650 O656 2.058 . S
Co650 O666 2.057 . S
Co650 O681 2.037 . S
Co650 N685 2.145 . S
Co650 N706 2.257 . S
O651 Co649 2.143 . S
O651 Co650 2.160 . S
C652 O653 1.278 . S
C652 O660 1.224 . S
O653 C652 1.278 . S
C654 O655 1.245 . S
C654 O666 1.232 . S
O655 C654 1.245 . S
O656 Co650 2.058 . S
O656 C682 1.269 . S
O657 Co649 2.074 . S
O657 C682 1.257 . S
H658 C683 0.930 . S
H659 C689 0.930 . S
O660 Co649 2.093 . S
O660 C652 1.224 . S
H661 C693 0.929 . S
H662 C695 0.930 . S
H663 C696 0.930 . S
H664 C694 0.929 . S
H665 C697 0.928 . S
O666 Co650 2.057 . S
O666 C654 1.232 . S
H667 C686 0.929 . S
H668 C687 0.929 . S
H669 C699 0.931 . S
H670 C691 0.929 . S
H671 C700 0.930 . S
H672 C692 0.931 . S
O673 Co649 2.097 . S
O673 C701 1.214 . S
H674 C702 0.929 . S
H675 C703 0.929 . S
H676 C704 0.930 . S
H677 C705 0.929 . S
H678 C707 0.930 . S
H679 C684 0.930 . S
H680 C688 0.930 . S
O681 Co650 2.037 . S
O681 C701 1.234 . S
C682 O656 1.269 . S
C682 O657 1.257 . S
C683 H658 0.930 . S
C683 C686 1.388 . S
C683 C688 1.418 1_554 S
C684 H679 0.930 . S
C684 C687 1.404 1_556 S
C684 C688 1.353 . S
N685 Co650 2.145 . S
N685 C686 1.397 . S
N685 C687 1.334 . S
C686 H667 0.929 . S
C686 C683 1.388 . S
C686 N685 1.397 . S
C687 H668 0.929 . S
C687 C684 1.404 1_554 S
C687 N685 1.334 . S
C688 H680 0.930 . S
C688 C683 1.418 1_556 S
C688 C684 1.353 . S
C689 H659 0.930 . S
C689 N690 1.330 . S
C689 C691 1.446 . S
N690 Co649 2.151 . S
N690 C689 1.330 . S
N690 C694 1.418 . S
C691 H670 0.929 . S
C691 C689 1.446 . S
C691 C692 1.332 . S
C692 H672 0.931 . S
C692 C691 1.332 . S
C692 C693 1.267 . S
C693 H661 0.929 . S
C693 C692 1.267 . S
C693 C694 1.251 . S
C694 H664 0.929 . S
C694 N690 1.418 . S
C694 C693 1.251 . S
C695 H662 0.930 . S
C695 C697 1.406 . S
C695 C700 1.261 . S
C696 H663 0.930 . S
C696 N698 1.325 . S
C696 C699 1.357 . S
C697 H665 0.928 . S
C697 C695 1.406 . S
C697 N698 1.261 . S
N698 Co649 2.214 . S
N698 C696 1.325 . S
N698 C697 1.261 . S
C699 H669 0.931 . S
C699 C696 1.357 . S
C699 C700 1.312 . S
C700 H671 0.930 . S
C700 C695 1.261 . S
C700 C699 1.312 . S
C701 O673 1.214 . S
C701 O681 1.234 . S
C702 H674 0.929 . S
C702 C705 1.391 . S
C702 C707 1.391 . S
C703 H675 0.929 . S
C703 C704 1.390 . S
C703 N706 1.391 . S
C704 H676 0.930 . S
C704 C703 1.390 . S
C704 C705 1.392 . S
C705 H677 0.929 . S
C705 C702 1.391 . S
C705 C704 1.392 . S
N706 Co650 2.257 . S
N706 C703 1.391 . S
N706 C707 1.388 . S
C707 H678 0.930 . S
C707 C702 1.391 . S
C707 N706 1.388 . S
Co708 O710 2.143 . S
Co708 O716 2.074 . S
Co708 O719 2.093 . S
Co708 O732 2.097 . S
Co708 N749 2.151 . S
Co708 N757 2.214 . S
Co709 O710 2.160 . S
Co709 O715 2.058 . S
Co709 O725 2.057 . S
Co709 O740 2.037 . S
Co709 N744 2.145 . S
Co709 N765 2.257 . S
O710 Co708 2.143 . S
O710 Co709 2.160 . S
C711 O712 1.278 . S
C711 O719 1.224 . S
O712 C711 1.278 . S
C713 O714 1.245 . S
C713 O725 1.232 . S
O714 C713 1.245 . S
O715 Co709 2.058 . S
O715 C741 1.269 . S
O716 Co708 2.074 . S
O716 C741 1.257 . S
H717 C742 0.930 . S
H718 C748 0.930 . S
O719 Co708 2.093 . S
O719 C711 1.224 . S
H720 C752 0.929 . S
H721 C754 0.930 . S
H722 C755 0.930 . S
H723 C753 0.929 . S
H724 C756 0.928 . S
O725 Co709 2.057 . S
O725 C713 1.232 . S
H726 C745 0.929 . S
H727 C746 0.929 . S
H728 C758 0.931 . S
H729 C750 0.929 . S
H730 C759 0.930 1_556 S
H731 C751 0.931 . S
O732 Co708 2.097 . S
O732 C760 1.214 . S
H733 C761 0.929 . S
H734 C762 0.929 . S
H735 C763 0.930 . S
H736 C764 0.929 . S
H737 C766 0.930 . S
H738 C743 0.930 . S
H739 C747 0.930 . S
O740 Co709 2.037 . S
O740 C760 1.234 . S
C741 O715 1.269 . S
C741 O716 1.257 . S
C742 H717 0.930 . S
C742 C745 1.388 . S
C742 C747 1.418 . S
C743 H738 0.930 . S
C743 C746 1.404 . S
C743 C747 1.353 . S
N744 Co709 2.145 . S
N744 C745 1.397 . S
N744 C746 1.334 . S
C745 H726 0.929 . S
C745 C742 1.388 . S
C745 N744 1.397 . S
C746 H727 0.929 . S
C746 C743 1.404 . S
C746 N744 1.334 . S
C747 H739 0.930 . S
C747 C742 1.418 . S
C747 C743 1.353 . S
C748 H718 0.930 . S
C748 N749 1.330 . S
C748 C750 1.446 . S
N749 Co708 2.151 . S
N749 C748 1.330 . S
N749 C753 1.418 . S
C750 H729 0.929 . S
C750 C748 1.446 . S
C750 C751 1.332 . S
C751 H731 0.931 . S
C751 C750 1.332 . S
C751 C752 1.267 . S
C752 H720 0.929 . S
C752 C751 1.267 . S
C752 C753 1.251 . S
C753 H723 0.929 . S
C753 N749 1.418 . S
C753 C752 1.251 . S
C754 H721 0.930 . S
C754 C756 1.406 1_556 S
C754 C759 1.261 1_556 S
C755 H722 0.930 . S
C755 N757 1.325 . S
C755 C758 1.357 . S
C756 H724 0.928 . S
C756 C754 1.406 1_554 S
C756 N757 1.261 . S
N757 Co708 2.214 . S
N757 C755 1.325 . S
N757 C756 1.261 . S
C758 H728 0.931 . S
C758 C755 1.357 . S
C758 C759 1.312 . S
C759 H730 0.930 1_554 S
C759 C754 1.261 1_554 S
C759 C758 1.312 . S
C760 O732 1.214 . S
C760 O740 1.234 . S
C761 H733 0.929 . S
C761 C764 1.391 . S
C761 C766 1.391 . S
C762 H734 0.929 . S
C762 C763 1.390 . S
C762 N765 1.391 . S
C763 H735 0.930 . S
C763 C762 1.390 . S
C763 C764 1.392 . S
C764 H736 0.929 . S
C764 C761 1.391 . S
C764 C763 1.392 . S
N765 Co709 2.257 . S
N765 C762 1.391 . S
N765 C766 1.388 . S
C766 H737 0.930 . S
C766 C761 1.391 . S
C766 N765 1.388 . S
Co767 O769 2.143 . S
Co767 O775 2.074 . S
Co767 O778 2.093 . S
Co767 O791 2.097 . S
Co767 N808 2.151 . S
Co767 N816 2.214 . S
Co768 O769 2.160 . S
Co768 O774 2.058 . S
Co768 O784 2.057 . S
Co768 O799 2.037 . S
Co768 N803 2.145 . S
Co768 N824 2.257 . S
O769 Co767 2.143 . S
O769 Co768 2.160 . S
C770 O771 1.278 . S
C770 O778 1.224 . S
O771 C770 1.278 . S
C772 O773 1.245 . S
C772 O784 1.232 . S
O773 C772 1.245 . S
O774 Co768 2.058 . S
O774 C800 1.269 . S
O775 Co767 2.074 . S
O775 C800 1.257 . S
H776 C801 0.930 . S
H777 C807 0.930 . S
O778 Co767 2.093 . S
O778 C770 1.224 . S
H779 C811 0.929 . S
H780 C813 0.930 . S
H781 C814 0.930 . S
H782 C812 0.929 . S
H783 C815 0.928 . S
O784 Co768 2.057 . S
O784 C772 1.232 . S
H785 C804 0.929 . S
H786 C805 0.929 . S
H787 C817 0.931 . S
H788 C809 0.929 . S
H789 C818 0.930 1_554 S
H790 C810 0.931 . S
O791 Co767 2.097 . S
O791 C819 1.214 . S
H792 C820 0.929 . S
H793 C821 0.929 . S
H794 C822 0.930 . S
H795 C823 0.929 . S
H796 C825 0.930 . S
H797 C802 0.930 . S
H798 C806 0.930 . S
O799 Co768 2.037 . S
O799 C819 1.234 . S
C800 O774 1.269 . S
C800 O775 1.257 . S
C801 H776 0.930 . S
C801 C804 1.388 . S
C801 C806 1.418 . S
C802 H797 0.930 . S
C802 C805 1.404 . S
C802 C806 1.353 . S
N803 Co768 2.145 . S
N803 C804 1.397 . S
N803 C805 1.334 . S
C804 H785 0.929 . S
C804 C801 1.388 . S
C804 N803 1.397 . S
C805 H786 0.929 . S
C805 C802 1.404 . S
C805 N803 1.334 . S
C806 H798 0.930 . S
C806 C801 1.418 . S
C806 C802 1.353 . S
C807 H777 0.930 . S
C807 N808 1.330 . S
C807 C809 1.446 . S
N808 Co767 2.151 . S
N808 C807 1.330 . S
N808 C812 1.418 . S
C809 H788 0.929 . S
C809 C807 1.446 . S
C809 C810 1.332 . S
C810 H790 0.931 . S
C810 C809 1.332 . S
C810 C811 1.267 . S
C811 H779 0.929 . S
C811 C810 1.267 . S
C811 C812 1.251 . S
C812 H782 0.929 . S
C812 N808 1.418 . S
C812 C811 1.251 . S
C813 H780 0.930 . S
C813 C815 1.406 1_554 S
C813 C818 1.261 1_554 S
C814 H781 0.930 . S
C814 N816 1.325 . S
C814 C817 1.357 . S
C815 H783 0.928 . S
C815 C813 1.406 1_556 S
C815 N816 1.261 . S
N816 Co767 2.214 . S
N816 C814 1.325 . S
N816 C815 1.261 . S
C817 H787 0.931 . S
C817 C814 1.357 . S
C817 C818 1.312 . S
C818 H789 0.930 1_556 S
C818 C813 1.261 1_556 S
C818 C817 1.312 . S
C819 O791 1.214 . S
C819 O799 1.234 . S
C820 H792 0.929 . S
C820 C823 1.391 . S
C820 C825 1.391 . S
C821 H793 0.929 . S
C821 C822 1.390 . S
C821 N824 1.391 . S
C822 H794 0.930 . S
C822 C821 1.390 . S
C822 C823 1.392 . S
C823 H795 0.929 . S
C823 C820 1.391 . S
C823 C822 1.392 . S
N824 Co768 2.257 . S
N824 C821 1.391 . S
N824 C825 1.388 . S
C825 H796 0.930 . S
C825 C820 1.391 . S
C825 N824 1.388 . S
Co826 O828 2.143 . S
Co826 O834 2.074 . S
Co826 O837 2.093 . S
Co826 O850 2.097 . S
Co826 N867 2.151 . S
Co826 N875 2.214 . S
Co827 O828 2.160 . S
Co827 O833 2.058 . S
Co827 O843 2.057 . S
Co827 O858 2.037 . S
Co827 N862 2.145 . S
Co827 N883 2.257 . S
O828 Co826 2.143 . S
O828 Co827 2.160 . S
C829 O830 1.278 . S
C829 O837 1.224 . S
O830 C829 1.278 . S
C831 O832 1.245 . S
C831 O843 1.232 . S
O832 C831 1.245 . S
O833 Co827 2.058 . S
O833 C859 1.269 . S
O834 Co826 2.074 . S
O834 C859 1.257 . S
H835 C860 0.930 . S
H836 C866 0.930 . S
O837 Co826 2.093 . S
O837 C829 1.224 . S
H838 C870 0.929 . S
H839 C872 0.930 . S
H840 C873 0.930 . S
H841 C871 0.929 . S
H842 C874 0.928 . S
O843 Co827 2.057 . S
O843 C831 1.232 . S
H844 C863 0.929 . S
H845 C864 0.929 . S
H846 C876 0.931 . S
H847 C868 0.929 . S
H848 C877 0.930 . S
H849 C869 0.931 . S
O850 Co826 2.097 . S
O850 C878 1.214 . S
H851 C879 0.929 . S
H852 C880 0.929 . S
H853 C881 0.930 . S
H854 C882 0.929 . S
H855 C884 0.930 . S
H856 C861 0.930 . S
H857 C865 0.930 . S
O858 Co827 2.037 . S
O858 C878 1.234 . S
C859 O833 1.269 . S
C859 O834 1.257 . S
C860 H835 0.930 . S
C860 C863 1.388 . S
C860 C865 1.418 . S
C861 H856 0.930 . S
C861 C864 1.404 . S
C861 C865 1.353 . S
N862 Co827 2.145 . S
N862 C863 1.397 . S
N862 C864 1.334 . S
C863 H844 0.929 . S
C863 C860 1.388 . S
C863 N862 1.397 . S
C864 H845 0.929 . S
C864 C861 1.404 . S
C864 N862 1.334 . S
C865 H857 0.930 . S
C865 C860 1.418 . S
C865 C861 1.353 . S
C866 H836 0.930 . S
C866 N867 1.330 . S
C866 C868 1.446 . S
N867 Co826 2.151 . S
N867 C866 1.330 . S
N867 C871 1.418 . S
C868 H847 0.929 . S
C868 C866 1.446 . S
C868 C869 1.332 . S
C869 H849 0.931 . S
C869 C868 1.332 . S
C869 C870 1.267 . S
C870 H838 0.929 . S
C870 C869 1.267 . S
C870 C871 1.251 . S
C871 H841 0.929 . S
C871 N867 1.418 . S
C871 C870 1.251 . S
C872 H839 0.930 . S
C872 C874 1.406 . S
C872 C877 1.261 . S
C873 H840 0.930 . S
C873 N875 1.325 . S
C873 C876 1.357 . S
C874 H842 0.928 . S
C874 C872 1.406 . S
C874 N875 1.261 . S
N875 Co826 2.214 . S
N875 C873 1.325 . S
N875 C874 1.261 . S
C876 H846 0.931 . S
C876 C873 1.357 . S
C876 C877 1.312 . S
C877 H848 0.930 . S
C877 C872 1.261 . S
C877 C876 1.312 . S
C878 O850 1.214 . S
C878 O858 1.234 . S
C879 H851 0.929 . S
C879 C882 1.391 . S
C879 C884 1.391 . S
C880 H852 0.929 . S
C880 C881 1.390 . S
C880 N883 1.391 . S
C881 H853 0.930 . S
C881 C880 1.390 . S
C881 C882 1.392 . S
C882 H854 0.929 . S
C882 C879 1.391 . S
C882 C881 1.392 . S
N883 Co827 2.257 . S
N883 C880 1.391 . S
N883 C884 1.388 . S
C884 H855 0.930 . S
C884 C879 1.391 . S
C884 N883 1.388 . S
Co885 O887 2.143 . S
Co885 O893 2.074 . S
Co885 O896 2.093 . S
Co885 O909 2.097 . S
Co885 N926 2.151 . S
Co885 N934 2.214 . S
Co886 O887 2.160 . S
Co886 O892 2.058 . S
Co886 O902 2.057 . S
Co886 O917 2.037 . S
Co886 N921 2.145 . S
Co886 N942 2.257 . S
O887 Co885 2.143 . S
O887 Co886 2.160 . S
C888 O889 1.278 . S
C888 O896 1.224 . S
O889 C888 1.278 . S
C890 O891 1.245 . S
C890 O902 1.232 . S
O891 C890 1.245 . S
O892 Co886 2.058 . S
O892 C918 1.269 . S
O893 Co885 2.074 . S
O893 C918 1.257 . S
H894 C919 0.930 . S
H895 C925 0.930 . S
O896 Co885 2.093 . S
O896 C888 1.224 . S
H897 C929 0.929 . S
H898 C931 0.930 . S
H899 C932 0.930 . S
H900 C930 0.929 . S
H901 C933 0.928 . S
O902 Co886 2.057 . S
O902 C890 1.232 . S
H903 C922 0.929 . S
H904 C923 0.929 . S
H905 C935 0.931 . S
H906 C927 0.929 . S
H907 C936 0.930 . S
H908 C928 0.931 . S
O909 Co885 2.097 . S
O909 C937 1.214 . S
H910 C938 0.929 . S
H911 C939 0.929 . S
H912 C940 0.930 . S
H913 C941 0.929 . S
H914 C943 0.930 . S
H915 C920 0.930 . S
H916 C924 0.930 . S
O917 Co886 2.037 . S
O917 C937 1.234 . S
C918 O892 1.269 . S
C918 O893 1.257 . S
C919 H894 0.930 . S
C919 C922 1.388 . S
C919 C924 1.418 . S
C920 H915 0.930 . S
C920 C923 1.404 . S
C920 C924 1.353 . S
N921 Co886 2.145 . S
N921 C922 1.397 . S
N921 C923 1.334 . S
C922 H903 0.929 . S
C922 C919 1.388 . S
C922 N921 1.397 . S
C923 H904 0.929 . S
C923 C920 1.404 . S
C923 N921 1.334 . S
C924 H916 0.930 . S
C924 C919 1.418 . S
C924 C920 1.353 . S
C925 H895 0.930 . S
C925 N926 1.330 . S
C925 C927 1.446 . S
N926 Co885 2.151 . S
N926 C925 1.330 . S
N926 C930 1.418 . S
C927 H906 0.929 . S
C927 C925 1.446 . S
C927 C928 1.332 . S
C928 H908 0.931 . S
C928 C927 1.332 . S
C928 C929 1.267 . S
C929 H897 0.929 . S
C929 C928 1.267 . S
C929 C930 1.251 . S
C930 H900 0.929 . S
C930 N926 1.418 . S
C930 C929 1.251 . S
C931 H898 0.930 . S
C931 C933 1.406 . S
C931 C936 1.261 . S
C932 H899 0.930 . S
C932 N934 1.325 . S
C932 C935 1.357 . S
C933 H901 0.928 . S
C933 C931 1.406 . S
C933 N934 1.261 . S
N934 Co885 2.214 . S
N934 C932 1.325 . S
N934 C933 1.261 . S
C935 H905 0.931 . S
C935 C932 1.357 . S
C935 C936 1.312 . S
C936 H907 0.930 . S
C936 C931 1.261 . S
C936 C935 1.312 . S
C937 O909 1.214 . S
C937 O917 1.234 . S
C938 H910 0.929 . S
C938 C941 1.391 . S
C938 C943 1.391 . S
C939 H911 0.929 . S
C939 C940 1.390 . S
C939 N942 1.391 . S
C940 H912 0.930 . S
C940 C939 1.390 . S
C940 C941 1.392 . S
C941 H913 0.929 . S
C941 C938 1.391 . S
C941 C940 1.392 . S
N942 Co886 2.257 . S
N942 C939 1.391 . S
N942 C943 1.388 . S
C943 H914 0.930 . S
C943 C938 1.391 . S
C943 N942 1.388 . S
C944 C945 1.349 . S
C944 C946 1.327 . S
C944 H969 0.950 . S
C945 C944 1.349 . S
C945 C961 1.349 . S
C946 C944 1.327 . S
C946 C965 1.429 . S
C946 H970 0.950 . S
C947 C964 1.574 . S
C947 C966 1.368 . S
C947 H971 0.949 . S
H948 C952 0.949 . S
C949 C950 1.349 . S
C949 C951 1.327 . S
C949 H972 0.950 . S
C950 C949 1.349 . S
C950 C962 1.349 . S
C951 C949 1.327 . S
C951 C967 1.429 . S
C951 H973 0.950 . S
C952 H948 0.949 . S
C952 C960 1.574 . S
C952 C968 1.368 . S
H953 C961 0.950 . S
H954 C959 0.950 . S
H955 C960 0.949 . S
H956 C962 0.950 . S
H957 C963 0.950 . S
H958 C964 0.949 . S
C959 H954 0.950 . S
C959 C961 1.327 . S
C959 C965 1.429 . S
C960 C952 1.574 . S
C960 H955 0.949 . S
C960 C966 1.368 . S
C961 C945 1.349 . S
C961 H953 0.950 . S
C961 C959 1.327 . S
C962 C950 1.349 . S
C962 H956 0.950 . S
C962 C963 1.327 . S
C963 H957 0.950 . S
C963 C962 1.327 . S
C963 C967 1.429 . S
C964 C947 1.574 . S
C964 H958 0.949 . S
C964 C968 1.368 . S
C965 C946 1.429 . S
C965 C959 1.429 . S
C965 C966 1.523 . S
C966 C947 1.368 . S
C966 C960 1.368 . S
C966 C965 1.523 . S
C967 C951 1.429 . S
C967 C963 1.429 . S
C967 C968 1.523 . S
C968 C952 1.368 . S
C968 C964 1.368 . S
C968 C967 1.523 . S
H969 C944 0.950 . S
H970 C946 0.950 . S
H971 C947 0.949 . S
H972 C949 0.950 . S
H973 C951 0.950 . S
C974 C975 1.349 . S
C974 C976 1.327 . S
C974 H999 0.950 . S
C975 C974 1.349 . S
C975 C991 1.349 . S
C976 C974 1.327 . S
C976 C995 1.429 . S
C976 H1000 0.950 . S
C977 C994 1.574 . S
C977 C996 1.368 . S
C977 H1001 0.949 . S
H978 C982 0.949 . S
C979 C980 1.349 . S
C979 C981 1.327 . S
C979 H1002 0.950 . S
C980 C979 1.349 . S
C980 C992 1.349 . S
C981 C979 1.327 . S
C981 C997 1.429 . S
C981 H1003 0.950 . S
C982 H978 0.949 . S
C982 C990 1.574 . S
C982 C998 1.368 . S
H983 C991 0.950 . S
H984 C989 0.950 . S
H985 C990 0.949 . S
H986 C992 0.950 . S
H987 C993 0.950 . S
H988 C994 0.949 . S
C989 H984 0.950 . S
C989 C991 1.327 . S
C989 C995 1.429 . S
C990 C982 1.574 . S
C990 H985 0.949 . S
C990 C996 1.368 . S
C991 C975 1.349 . S
C991 H983 0.950 . S
C991 C989 1.327 . S
C992 C980 1.349 . S
C992 H986 0.950 . S
C992 C993 1.327 . S
C993 H987 0.950 . S
C993 C992 1.327 . S
C993 C997 1.429 . S
C994 C977 1.574 . S
C994 H988 0.949 . S
C994 C998 1.368 . S
C995 C976 1.429 . S
C995 C989 1.429 . S
C995 C996 1.523 . S
C996 C977 1.368 . S
C996 C990 1.368 . S
C996 C995 1.523 . S
C997 C981 1.429 . S
C997 C993 1.429 . S
C997 C998 1.523 . S
C998 C982 1.368 . S
C998 C994 1.368 . S
C998 C997 1.523 . S
H999 C974 0.950 . S
H1000 C976 0.950 . S
H1001 C977 0.949 . S
H1002 C979 0.950 . S
H1003 C981 0.950 . S
C1004 C1005 1.349 . S
C1004 C1006 1.327 . S
C1004 H1029 0.950 . S
C1005 C1004 1.349 . S
C1005 C1021 1.349 . S
C1006 C1004 1.327 . S
C1006 C1025 1.429 . S
C1006 H1030 0.950 . S
C1007 C1024 1.574 . S
C1007 C1026 1.368 . S
C1007 H1031 0.949 . S
H1008 C1012 0.949 . S
C1009 C1010 1.349 . S
C1009 C1011 1.327 . S
C1009 H1032 0.950 . S
C1010 C1009 1.349 . S
C1010 C1022 1.349 . S
C1011 C1009 1.327 . S
C1011 C1027 1.429 . S
C1011 H1033 0.950 . S
C1012 H1008 0.949 . S
C1012 C1020 1.574 . S
C1012 C1028 1.368 . S
H1013 C1021 0.950 . S
H1014 C1019 0.950 . S
H1015 C1020 0.949 . S
H1016 C1022 0.950 . S
H1017 C1023 0.950 . S
H1018 C1024 0.949 . S
C1019 H1014 0.950 . S
C1019 C1021 1.327 . S
C1019 C1025 1.429 . S
C1020 C1012 1.574 . S
C1020 H1015 0.949 . S
C1020 C1026 1.368 . S
C1021 C1005 1.349 . S
C1021 H1013 0.950 . S
C1021 C1019 1.327 . S
C1022 C1010 1.349 . S
C1022 H1016 0.950 . S
C1022 C1023 1.327 . S
C1023 H1017 0.950 . S
C1023 C1022 1.327 . S
C1023 C1027 1.429 . S
C1024 C1007 1.574 . S
C1024 H1018 0.949 . S
C1024 C1028 1.368 . S
C1025 C1006 1.429 . S
C1025 C1019 1.429 . S
C1025 C1026 1.523 . S
C1026 C1007 1.368 . S
C1026 C1020 1.368 . S
C1026 C1025 1.523 . S
C1027 C1011 1.429 . S
C1027 C1023 1.429 . S
C1027 C1028 1.523 . S
C1028 C1012 1.368 . S
C1028 C1024 1.368 . S
C1028 C1027 1.523 . S
H1029 C1004 0.950 . S
H1030 C1006 0.950 . S
H1031 C1007 0.949 . S
H1032 C1009 0.950 . S
H1033 C1011 0.950 . S
C1034 C1035 1.349 . S
C1034 C1036 1.327 . S
C1034 H1059 0.950 . S
C1035 C1034 1.349 . S
C1035 C1051 1.349 . S
C1036 C1034 1.327 . S
C1036 C1055 1.429 . S
C1036 H1060 0.950 . S
C1037 C1054 1.574 1_455 S
C1037 C1056 1.368 . S
C1037 H1061 0.949 . S
H1038 C1042 0.949 . S
C1039 C1040 1.349 . S
C1039 C1041 1.327 . S
C1039 H1062 0.950 . S
C1040 C1039 1.349 . S
C1040 C1052 1.349 . S
C1041 C1039 1.327 . S
C1041 C1057 1.429 . S
C1041 H1063 0.950 . S
C1042 H1038 0.949 . S
C1042 C1050 1.574 1_655 S
C1042 C1058 1.368 . S
H1043 C1051 0.950 . S
H1044 C1049 0.950 . S
H1045 C1050 0.949 . S
H1046 C1052 0.950 . S
H1047 C1053 0.950 . S
H1048 C1054 0.949 . S
C1049 H1044 0.950 . S
C1049 C1051 1.327 . S
C1049 C1055 1.429 . S
C1050 C1042 1.574 1_455 S
C1050 H1045 0.949 . S
C1050 C1056 1.368 . S
C1051 C1035 1.349 . S
C1051 H1043 0.950 . S
C1051 C1049 1.327 . S
C1052 C1040 1.349 . S
C1052 H1046 0.950 . S
C1052 C1053 1.327 . S
C1053 H1047 0.950 . S
C1053 C1052 1.327 . S
C1053 C1057 1.429 . S
C1054 C1037 1.574 1_655 S
C1054 H1048 0.949 . S
C1054 C1058 1.368 . S
C1055 C1036 1.429 . S
C1055 C1049 1.429 . S
C1055 C1056 1.523 . S
C1056 C1037 1.368 . S
C1056 C1050 1.368 . S
C1056 C1055 1.523 . S
C1057 C1041 1.429 . S
C1057 C1053 1.429 . S
C1057 C1058 1.523 . S
C1058 C1042 1.368 . S
C1058 C1054 1.368 . S
C1058 C1057 1.523 . S
H1059 C1034 0.950 . S
H1060 C1036 0.950 . S
H1061 C1037 0.949 . S
H1062 C1039 0.950 . S
H1063 C1041 0.950 . S
C1064 C1065 1.349 . S
C1064 C1066 1.327 . S
C1064 H1089 0.950 . S
C1065 C1064 1.349 . S
C1065 C1081 1.349 . S
C1066 C1064 1.327 . S
C1066 C1085 1.429 . S
C1066 H1090 0.950 . S
C1067 C1084 1.574 . S
C1067 C1086 1.368 . S
C1067 H1091 0.949 . S
H1068 C1072 0.949 . S
C1069 C1070 1.349 . S
C1069 C1071 1.327 . S
C1069 H1092 0.950 . S
C1070 C1069 1.349 . S
C1070 C1082 1.349 . S
C1071 C1069 1.327 . S
C1071 C1087 1.429 . S
C1071 H1093 0.950 . S
C1072 H1068 0.949 . S
C1072 C1080 1.574 . S
C1072 C1088 1.368 . S
H1073 C1081 0.950 . S
H1074 C1079 0.950 . S
H1075 C1080 0.949 . S
H1076 C1082 0.950 . S
H1077 C1083 0.950 . S
H1078 C1084 0.949 . S
C1079 H1074 0.950 . S
C1079 C1081 1.327 . S
C1079 C1085 1.429 . S
C1080 C1072 1.574 . S
C1080 H1075 0.949 . S
C1080 C1086 1.368 . S
C1081 C1065 1.349 . S
C1081 H1073 0.950 . S
C1081 C1079 1.327 . S
C1082 C1070 1.349 . S
C1082 H1076 0.950 . S
C1082 C1083 1.327 . S
C1083 H1077 0.950 . S
C1083 C1082 1.327 . S
C1083 C1087 1.429 . S
C1084 C1067 1.574 . S
C1084 H1078 0.949 . S
C1084 C1088 1.368 . S
C1085 C1066 1.429 . S
C1085 C1079 1.429 . S
C1085 C1086 1.523 . S
C1086 C1067 1.368 . S
C1086 C1080 1.368 . S
C1086 C1085 1.523 . S
C1087 C1071 1.429 . S
C1087 C1083 1.429 . S
C1087 C1088 1.523 . S
C1088 C1072 1.368 . S
C1088 C1084 1.368 . S
C1088 C1087 1.523 . S
H1089 C1064 0.950 . S
H1090 C1066 0.950 . S
H1091 C1067 0.949 . S
H1092 C1069 0.950 . S
H1093 C1071 0.950 . S
C1094 C1095 1.349 . S
C1094 C1096 1.327 . S
C1094 H1119 0.950 . S
C1095 C1094 1.349 . S
C1095 C1111 1.349 . S
C1096 C1094 1.327 . S
C1096 C1115 1.429 . S
C1096 H1120 0.950 . S
C1097 C1114 1.574 1_655 S
C1097 C1116 1.368 . S
C1097 H1121 0.949 . S
H1098 C1102 0.949 . S
C1099 C1100 1.349 . S
C1099 C1101 1.327 . S
C1099 H1122 0.950 . S
C1100 C1099 1.349 . S
C1100 C1112 1.349 . S
C1101 C1099 1.327 . S
C1101 C1117 1.429 . S
C1101 H1123 0.950 . S
C1102 H1098 0.949 . S
C1102 C1110 1.574 1_455 S
C1102 C1118 1.368 . S
H1103 C1111 0.950 . S
H1104 C1109 0.950 . S
H1105 C1110 0.949 . S
H1106 C1112 0.950 . S
H1107 C1113 0.950 . S
H1108 C1114 0.949 . S
C1109 H1104 0.950 . S
C1109 C1111 1.327 . S
C1109 C1115 1.429 . S
C1110 C1102 1.574 1_655 S
C1110 H1105 0.949 . S
C1110 C1116 1.368 . S
C1111 C1095 1.349 . S
C1111 H1103 0.950 . S
C1111 C1109 1.327 . S
C1112 C1100 1.349 . S
C1112 H1106 0.950 . S
C1112 C1113 1.327 . S
C1113 H1107 0.950 . S
C1113 C1112 1.327 . S
C1113 C1117 1.429 . S
C1114 C1097 1.574 1_455 S
C1114 H1108 0.949 . S
C1114 C1118 1.368 . S
C1115 C1096 1.429 . S
C1115 C1109 1.429 . S
C1115 C1116 1.523 . S
C1116 C1097 1.368 . S
C1116 C1110 1.368 . S
C1116 C1115 1.523 . S
C1117 C1101 1.429 . S
C1117 C1113 1.429 . S
C1117 C1118 1.523 . S
C1118 C1102 1.368 . S
C1118 C1114 1.368 . S
C1118 C1117 1.523 . S
H1119 C1094 0.950 . S
H1120 C1096 0.950 . S
H1121 C1097 0.949 . S
H1122 C1099 0.950 . S
H1123 C1101 0.950 . S
C1124 C1125 1.349 . S
C1124 C1126 1.327 . S
C1124 H1149 0.950 . S
C1125 C1124 1.349 . S
C1125 C1141 1.349 . S
C1126 C1124 1.327 . S
C1126 C1145 1.429 . S
C1126 H1150 0.950 . S
C1127 C1144 1.574 . S
C1127 C1146 1.368 . S
C1127 H1151 0.949 . S
H1128 C1132 0.949 . S
C1129 C1130 1.349 . S
C1129 C1131 1.327 . S
C1129 H1152 0.950 . S
C1130 C1129 1.349 . S
C1130 C1142 1.349 . S
C1131 C1129 1.327 . S
C1131 C1147 1.429 . S
C1131 H1153 0.950 . S
C1132 H1128 0.949 . S
C1132 C1140 1.574 . S
C1132 C1148 1.368 . S
H1133 C1141 0.950 . S
H1134 C1139 0.950 . S
H1135 C1140 0.949 . S
H1136 C1142 0.950 . S
H1137 C1143 0.950 . S
H1138 C1144 0.949 . S
C1139 H1134 0.950 . S
C1139 C1141 1.327 . S
C1139 C1145 1.429 . S
C1140 C1132 1.574 . S
C1140 H1135 0.949 . S
C1140 C1146 1.368 . S
C1141 C1125 1.349 . S
C1141 H1133 0.950 . S
C1141 C1139 1.327 . S
C1142 C1130 1.349 . S
C1142 H1136 0.950 . S
C1142 C1143 1.327 . S
C1143 H1137 0.950 . S
C1143 C1142 1.327 . S
C1143 C1147 1.429 . S
C1144 C1127 1.574 . S
C1144 H1138 0.949 . S
C1144 C1148 1.368 . S
C1145 C1126 1.429 . S
C1145 C1139 1.429 . S
C1145 C1146 1.523 . S
C1146 C1127 1.368 . S
C1146 C1140 1.368 . S
C1146 C1145 1.523 . S
C1147 C1131 1.429 . S
C1147 C1143 1.429 . S
C1147 C1148 1.523 . S
C1148 C1132 1.368 . S
C1148 C1144 1.368 . S
C1148 C1147 1.523 . S
H1149 C1124 0.950 . S
H1150 C1126 0.950 . S
H1151 C1127 0.949 . S
H1152 C1129 0.950 . S
H1153 C1131 0.950 . S
C1154 C1155 1.349 . S
C1154 C1156 1.327 . S
C1154 H1179 0.950 . S
C1155 C1154 1.349 . S
C1155 C1171 1.349 . S
C1156 C1154 1.327 . S
C1156 C1175 1.429 . S
C1156 H1180 0.950 . S
C1157 C1174 1.574 . S
C1157 C1176 1.368 . S
C1157 H1181 0.949 . S
H1158 C1162 0.949 . S
C1159 C1160 1.349 . S
C1159 C1161 1.327 . S
C1159 H1182 0.950 . S
C1160 C1159 1.349 . S
C1160 C1172 1.349 . S
C1161 C1159 1.327 . S
C1161 C1177 1.429 . S
C1161 H1183 0.950 . S
C1162 H1158 0.949 . S
C1162 C1170 1.574 . S
C1162 C1178 1.368 . S
H1163 C1171 0.950 . S
H1164 C1169 0.950 . S
H1165 C1170 0.949 . S
H1166 C1172 0.950 . S
H1167 C1173 0.950 . S
H1168 C1174 0.949 . S
C1169 H1164 0.950 . S
C1169 C1171 1.327 . S
C1169 C1175 1.429 . S
C1170 C1162 1.574 . S
C1170 H1165 0.949 . S
C1170 C1176 1.368 . S
C1171 C1155 1.349 . S
C1171 H1163 0.950 . S
C1171 C1169 1.327 . S
C1172 C1160 1.349 . S
C1172 H1166 0.950 . S
C1172 C1173 1.327 . S
C1173 H1167 0.950 . S
C1173 C1172 1.327 . S
C1173 C1177 1.429 . S
C1174 C1157 1.574 . S
C1174 H1168 0.949 . S
C1174 C1178 1.368 . S
C1175 C1156 1.429 . S
C1175 C1169 1.429 . S
C1175 C1176 1.523 . S
C1176 C1157 1.368 . S
C1176 C1170 1.368 . S
C1176 C1175 1.523 . S
C1177 C1161 1.429 . S
C1177 C1173 1.429 . S
C1177 C1178 1.523 . S
C1178 C1162 1.368 . S
C1178 C1174 1.368 . S
C1178 C1177 1.523 . S
H1179 C1154 0.950 . S
H1180 C1156 0.950 . S
H1181 C1157 0.949 . S
H1182 C1159 0.950 . S
H1183 C1161 0.950 . S
C1184 C1185 1.349 . S
C1184 C1186 1.327 . S
C1184 H1209 0.950 . S
C1185 C1184 1.349 . S
C1185 C1201 1.349 . S
C1186 C1184 1.327 . S
C1186 C1205 1.429 . S
C1186 H1210 0.950 . S
C1187 C1204 1.574 . S
C1187 C1206 1.368 . S
C1187 H1211 0.949 . S
H1188 C1192 0.949 . S
C1189 C1190 1.349 . S
C1189 C1191 1.327 . S
C1189 H1212 0.950 . S
C1190 C1189 1.349 . S
C1190 C1202 1.349 . S
C1191 C1189 1.327 . S
C1191 C1207 1.429 . S
C1191 H1213 0.950 . S
C1192 H1188 0.949 . S
C1192 C1200 1.574 . S
C1192 C1208 1.368 . S
H1193 C1201 0.950 . S
H1194 C1199 0.950 . S
H1195 C1200 0.949 . S
H1196 C1202 0.950 . S
H1197 C1203 0.950 . S
H1198 C1204 0.949 . S
C1199 H1194 0.950 . S
C1199 C1201 1.327 . S
C1199 C1205 1.429 . S
C1200 C1192 1.574 . S
C1200 H1195 0.949 . S
C1200 C1206 1.368 . S
C1201 C1185 1.349 . S
C1201 H1193 0.950 . S
C1201 C1199 1.327 . S
C1202 C1190 1.349 . S
C1202 H1196 0.950 . S
C1202 C1203 1.327 . S
C1203 H1197 0.950 . S
C1203 C1202 1.327 . S
C1203 C1207 1.429 . S
C1204 C1187 1.574 . S
C1204 H1198 0.949 . S
C1204 C1208 1.368 . S
C1205 C1186 1.429 . S
C1205 C1199 1.429 . S
C1205 C1206 1.523 . S
C1206 C1187 1.368 . S
C1206 C1200 1.368 . S
C1206 C1205 1.523 . S
C1207 C1191 1.429 . S
C1207 C1203 1.429 . S
C1207 C1208 1.523 . S
C1208 C1192 1.368 . S
C1208 C1204 1.368 . S
C1208 C1207 1.523 . S
H1209 C1184 0.950 . S
H1210 C1186 0.950 . S
H1211 C1187 0.949 . S
H1212 C1189 0.950 . S
H1213 C1191 0.950 . S
C1214 C1215 1.349 . S
C1214 C1216 1.327 . S
C1214 H1239 0.950 . S
C1215 C1214 1.349 . S
C1215 C1231 1.349 . S
C1216 C1214 1.327 . S
C1216 C1235 1.429 . S
C1216 H1240 0.950 . S
C1217 C1234 1.574 . S
C1217 C1236 1.368 . S
C1217 H1241 0.949 . S
H1218 C1222 0.949 . S
C1219 C1220 1.349 . S
C1219 C1221 1.327 . S
C1219 H1242 0.950 . S
C1220 C1219 1.349 . S
C1220 C1232 1.349 . S
C1221 C1219 1.327 . S
C1221 C1237 1.429 . S
C1221 H1243 0.950 . S
C1222 H1218 0.949 . S
C1222 C1230 1.574 . S
C1222 C1238 1.368 . S
H1223 C1231 0.950 . S
H1224 C1229 0.950 . S
H1225 C1230 0.949 . S
H1226 C1232 0.950 . S
H1227 C1233 0.950 . S
H1228 C1234 0.949 . S
C1229 H1224 0.950 . S
C1229 C1231 1.327 . S
C1229 C1235 1.429 . S
C1230 C1222 1.574 . S
C1230 H1225 0.949 . S
C1230 C1236 1.368 . S
C1231 C1215 1.349 . S
C1231 H1223 0.950 . S
C1231 C1229 1.327 . S
C1232 C1220 1.349 . S
C1232 H1226 0.950 . S
C1232 C1233 1.327 . S
C1233 H1227 0.950 . S
C1233 C1232 1.327 . S
C1233 C1237 1.429 . S
C1234 C1217 1.574 . S
C1234 H1228 0.949 . S
C1234 C1238 1.368 . S
C1235 C1216 1.429 . S
C1235 C1229 1.429 . S
C1235 C1236 1.523 . S
C1236 C1217 1.368 . S
C1236 C1230 1.368 . S
C1236 C1235 1.523 . S
C1237 C1221 1.429 . S
C1237 C1233 1.429 . S
C1237 C1238 1.523 . S
C1238 C1222 1.368 . S
C1238 C1234 1.368 . S
C1238 C1237 1.523 . S
H1239 C1214 0.950 . S
H1240 C1216 0.950 . S
H1241 C1217 0.949 . S
H1242 C1219 0.950 . S
H1243 C1221 0.950 . S
C1244 C1245 1.349 . S
C1244 C1246 1.327 . S
C1244 H1269 0.950 . S
C1245 C1244 1.349 . S
C1245 C1261 1.349 . S
C1246 C1244 1.327 . S
C1246 C1265 1.429 . S
C1246 H1270 0.950 . S
C1247 C1264 1.574 . S
C1247 C1266 1.368 . S
C1247 H1271 0.949 . S
H1248 C1252 0.949 . S
C1249 C1250 1.349 . S
C1249 C1251 1.327 . S
C1249 H1272 0.950 . S
C1250 C1249 1.349 . S
C1250 C1262 1.349 . S
C1251 C1249 1.327 . S
C1251 C1267 1.429 . S
C1251 H1273 0.950 . S
C1252 H1248 0.949 . S
C1252 C1260 1.574 . S
C1252 C1268 1.368 . S
H1253 C1261 0.950 . S
H1254 C1259 0.950 . S
H1255 C1260 0.949 . S
H1256 C1262 0.950 . S
H1257 C1263 0.950 . S
H1258 C1264 0.949 . S
C1259 H1254 0.950 . S
C1259 C1261 1.327 . S
C1259 C1265 1.429 . S
C1260 C1252 1.574 . S
C1260 H1255 0.949 . S
C1260 C1266 1.368 . S
C1261 C1245 1.349 . S
C1261 H1253 0.950 . S
C1261 C1259 1.327 . S
C1262 C1250 1.349 . S
C1262 H1256 0.950 . S
C1262 C1263 1.327 . S
C1263 H1257 0.950 . S
C1263 C1262 1.327 . S
C1263 C1267 1.429 . S
C1264 C1247 1.574 . S
C1264 H1258 0.949 . S
C1264 C1268 1.368 . S
C1265 C1246 1.429 . S
C1265 C1259 1.429 . S
C1265 C1266 1.523 . S
C1266 C1247 1.368 . S
C1266 C1260 1.368 . S
C1266 C1265 1.523 . S
C1267 C1251 1.429 . S
C1267 C1263 1.429 . S
C1267 C1268 1.523 . S
C1268 C1252 1.368 . S
C1268 C1264 1.368 . S
C1268 C1267 1.523 . S
H1269 C1244 0.950 . S
H1270 C1246 0.950 . S
H1271 C1247 0.949 . S
H1272 C1249 0.950 . S
H1273 C1251 0.950 . S
C1274 C1275 1.349 . S
C1274 C1276 1.327 . S
C1274 H1299 0.950 . S
C1275 C1274 1.349 . S
C1275 C1291 1.349 . S
C1276 C1274 1.327 . S
C1276 C1295 1.429 . S
C1276 H1300 0.950 . S
C1277 C1294 1.574 . S
C1277 C1296 1.368 . S
C1277 H1301 0.949 . S
H1278 C1282 0.949 . S
C1279 C1280 1.349 . S
C1279 C1281 1.327 . S
C1279 H1302 0.950 . S
C1280 C1279 1.349 . S
C1280 C1292 1.349 . S
C1281 C1279 1.327 . S
C1281 C1297 1.429 . S
C1281 H1303 0.950 . S
C1282 H1278 0.949 . S
C1282 C1290 1.574 . S
C1282 C1298 1.368 . S
H1283 C1291 0.950 . S
H1284 C1289 0.950 . S
H1285 C1290 0.949 . S
H1286 C1292 0.950 . S
H1287 C1293 0.950 . S
H1288 C1294 0.949 . S
C1289 H1284 0.950 . S
C1289 C1291 1.327 . S
C1289 C1295 1.429 . S
C1290 C1282 1.574 . S
C1290 H1285 0.949 . S
C1290 C1296 1.368 . S
C1291 C1275 1.349 . S
C1291 H1283 0.950 . S
C1291 C1289 1.327 . S
C1292 C1280 1.349 . S
C1292 H1286 0.950 . S
C1292 C1293 1.327 . S
C1293 H1287 0.950 . S
C1293 C1292 1.327 . S
C1293 C1297 1.429 . S
C1294 C1277 1.574 . S
C1294 H1288 0.949 . S
C1294 C1298 1.368 . S
C1295 C1276 1.429 . S
C1295 C1289 1.429 . S
C1295 C1296 1.523 . S
C1296 C1277 1.368 . S
C1296 C1290 1.368 . S
C1296 C1295 1.523 . S
C1297 C1281 1.429 . S
C1297 C1293 1.429 . S
C1297 C1298 1.523 . S
C1298 C1282 1.368 . S
C1298 C1294 1.368 . S
C1298 C1297 1.523 . S
H1299 C1274 0.950 . S
H1300 C1276 0.950 . S
H1301 C1277 0.949 . S
H1302 C1279 0.950 . S
H1303 C1281 0.950 . S
C1304 C1305 1.349 . S
C1304 C1306 1.327 . S
C1304 H1329 0.950 . S
C1305 C1304 1.349 . S
C1305 C1321 1.349 . S
C1306 C1304 1.327 . S
C1306 C1325 1.429 . S
C1306 H1330 0.950 . S
C1307 C1324 1.574 1_455 S
C1307 C1326 1.368 . S
C1307 H1331 0.949 . S
H1308 C1312 0.949 . S
C1309 C1310 1.349 . S
C1309 C1311 1.327 . S
C1309 H1332 0.950 . S
C1310 C1309 1.349 . S
C1310 C1322 1.349 . S
C1311 C1309 1.327 . S
C1311 C1327 1.429 . S
C1311 H1333 0.950 . S
C1312 H1308 0.949 . S
C1312 C1320 1.574 1_655 S
C1312 C1328 1.368 . S
H1313 C1321 0.950 . S
H1314 C1319 0.950 . S
H1315 C1320 0.949 . S
H1316 C1322 0.950 . S
H1317 C1323 0.950 . S
H1318 C1324 0.949 . S
C1319 H1314 0.950 . S
C1319 C1321 1.327 . S
C1319 C1325 1.429 . S
C1320 C1312 1.574 1_455 S
C1320 H1315 0.949 . S
C1320 C1326 1.368 . S
C1321 C1305 1.349 . S
C1321 H1313 0.950 . S
C1321 C1319 1.327 . S
C1322 C1310 1.349 . S
C1322 H1316 0.950 . S
C1322 C1323 1.327 . S
C1323 H1317 0.950 . S
C1323 C1322 1.327 . S
C1323 C1327 1.429 . S
C1324 C1307 1.574 1_655 S
C1324 H1318 0.949 . S
C1324 C1328 1.368 . S
C1325 C1306 1.429 . S
C1325 C1319 1.429 . S
C1325 C1326 1.523 . S
C1326 C1307 1.368 . S
C1326 C1320 1.368 . S
C1326 C1325 1.523 . S
C1327 C1311 1.429 . S
C1327 C1323 1.429 . S
C1327 C1328 1.523 . S
C1328 C1312 1.368 . S
C1328 C1324 1.368 . S
C1328 C1327 1.523 . S
H1329 C1304 0.950 . S
H1330 C1306 0.950 . S
H1331 C1307 0.949 . S
H1332 C1309 0.950 . S
H1333 C1311 0.950 . S
C1334 C1335 1.349 . S
C1334 C1336 1.327 . S
C1334 H1359 0.950 . S
C1335 C1334 1.349 . S
C1335 C1351 1.349 . S
C1336 C1334 1.327 . S
C1336 C1355 1.429 . S
C1336 H1360 0.950 . S
C1337 C1354 1.574 . S
C1337 C1356 1.368 . S
C1337 H1361 0.949 . S
H1338 C1342 0.949 . S
C1339 C1340 1.349 . S
C1339 C1341 1.327 . S
C1339 H1362 0.950 . S
C1340 C1339 1.349 . S
C1340 C1352 1.349 . S
C1341 C1339 1.327 . S
C1341 C1357 1.429 . S
C1341 H1363 0.950 . S
C1342 H1338 0.949 . S
C1342 C1350 1.574 . S
C1342 C1358 1.368 . S
H1343 C1351 0.950 . S
H1344 C1349 0.950 . S
H1345 C1350 0.949 . S
H1346 C1352 0.950 . S
H1347 C1353 0.950 . S
H1348 C1354 0.949 . S
C1349 H1344 0.950 . S
C1349 C1351 1.327 . S
C1349 C1355 1.429 . S
C1350 C1342 1.574 . S
C1350 H1345 0.949 . S
C1350 C1356 1.368 . S
C1351 C1335 1.349 . S
C1351 H1343 0.950 . S
C1351 C1349 1.327 . S
C1352 C1340 1.349 . S
C1352 H1346 0.950 . S
C1352 C1353 1.327 . S
C1353 H1347 0.950 . S
C1353 C1352 1.327 . S
C1353 C1357 1.429 . S
C1354 C1337 1.574 . S
C1354 H1348 0.949 . S
C1354 C1358 1.368 . S
C1355 C1336 1.429 . S
C1355 C1349 1.429 . S
C1355 C1356 1.523 . S
C1356 C1337 1.368 . S
C1356 C1350 1.368 . S
C1356 C1355 1.523 . S
C1357 C1341 1.429 . S
C1357 C1353 1.429 . S
C1357 C1358 1.523 . S
C1358 C1342 1.368 . S
C1358 C1354 1.368 . S
C1358 C1357 1.523 . S
H1359 C1334 0.950 . S
H1360 C1336 0.950 . S
H1361 C1337 0.949 . S
H1362 C1339 0.950 . S
H1363 C1341 0.950 . S
C1364 C1365 1.349 . S
C1364 C1366 1.327 . S
C1364 H1389 0.950 . S
C1365 C1364 1.349 . S
C1365 C1381 1.349 . S
C1366 C1364 1.327 . S
C1366 C1385 1.429 . S
C1366 H1390 0.950 . S
C1367 C1384 1.574 . S
C1367 C1386 1.368 . S
C1367 H1391 0.949 . S
H1368 C1372 0.949 . S
C1369 C1370 1.349 . S
C1369 C1371 1.327 . S
C1369 H1392 0.950 . S
C1370 C1369 1.349 . S
C1370 C1382 1.349 . S
C1371 C1369 1.327 . S
C1371 C1387 1.429 . S
C1371 H1393 0.950 . S
C1372 H1368 0.949 . S
C1372 C1380 1.574 . S
C1372 C1388 1.368 . S
H1373 C1381 0.950 . S
H1374 C1379 0.950 . S
H1375 C1380 0.949 . S
H1376 C1382 0.950 . S
H1377 C1383 0.950 . S
H1378 C1384 0.949 . S
C1379 H1374 0.950 . S
C1379 C1381 1.327 . S
C1379 C1385 1.429 . S
C1380 C1372 1.574 . S
C1380 H1375 0.949 . S
C1380 C1386 1.368 . S
C1381 C1365 1.349 . S
C1381 H1373 0.950 . S
C1381 C1379 1.327 . S
C1382 C1370 1.349 . S
C1382 H1376 0.950 . S
C1382 C1383 1.327 . S
C1383 H1377 0.950 . S
C1383 C1382 1.327 . S
C1383 C1387 1.429 . S
C1384 C1367 1.574 . S
C1384 H1378 0.949 . S
C1384 C1388 1.368 . S
C1385 C1366 1.429 . S
C1385 C1379 1.429 . S
C1385 C1386 1.523 . S
C1386 C1367 1.368 . S
C1386 C1380 1.368 . S
C1386 C1385 1.523 . S
C1387 C1371 1.429 . S
C1387 C1383 1.429 . S
C1387 C1388 1.523 . S
C1388 C1372 1.368 . S
C1388 C1384 1.368 . S
C1388 C1387 1.523 . S
H1389 C1364 0.950 . S
H1390 C1366 0.950 . S
H1391 C1367 0.949 . S
H1392 C1369 0.950 . S
H1393 C1371 0.950 . S
C1394 C1395 1.349 . S
C1394 C1396 1.327 . S
C1394 H1419 0.950 . S
C1395 C1394 1.349 . S
C1395 C1411 1.349 . S
C1396 C1394 1.327 . S
C1396 C1415 1.429 . S
C1396 H1420 0.950 . S
C1397 C1414 1.574 1_455 S
C1397 C1416 1.368 . S
C1397 H1421 0.949 . S
H1398 C1402 0.949 . S
C1399 C1400 1.349 . S
C1399 C1401 1.327 . S
C1399 H1422 0.950 . S
C1400 C1399 1.349 . S
C1400 C1412 1.349 . S
C1401 C1399 1.327 . S
C1401 C1417 1.429 . S
C1401 H1423 0.950 . S
C1402 H1398 0.949 . S
C1402 C1410 1.574 1_655 S
C1402 C1418 1.368 . S
H1403 C1411 0.950 . S
H1404 C1409 0.950 . S
H1405 C1410 0.949 . S
H1406 C1412 0.950 . S
H1407 C1413 0.950 . S
H1408 C1414 0.949 . S
C1409 H1404 0.950 . S
C1409 C1411 1.327 . S
C1409 C1415 1.429 . S
C1410 C1402 1.574 1_455 S
C1410 H1405 0.949 . S
C1410 C1416 1.368 . S
C1411 C1395 1.349 . S
C1411 H1403 0.950 . S
C1411 C1409 1.327 . S
C1412 C1400 1.349 . S
C1412 H1406 0.950 . S
C1412 C1413 1.327 . S
C1413 H1407 0.950 . S
C1413 C1412 1.327 . S
C1413 C1417 1.429 . S
C1414 C1397 1.574 1_655 S
C1414 H1408 0.949 . S
C1414 C1418 1.368 . S
C1415 C1396 1.429 . S
C1415 C1409 1.429 . S
C1415 C1416 1.523 . S
C1416 C1397 1.368 . S
C1416 C1410 1.368 . S
C1416 C1415 1.523 . S
C1417 C1401 1.429 . S
C1417 C1413 1.429 . S
C1417 C1418 1.523 . S
C1418 C1402 1.368 . S
C1418 C1414 1.368 . S
C1418 C1417 1.523 . S
H1419 C1394 0.950 . S
H1420 C1396 0.950 . S
H1421 C1397 0.949 . S
H1422 C1399 0.950 . S
H1423 C1401 0.950 . S
C1424 C1425 1.349 . S
C1424 C1426 1.327 . S
C1424 H1449 0.950 . S
C1425 C1424 1.349 . S
C1425 C1441 1.349 . S
C1426 C1424 1.327 . S
C1426 C1445 1.429 . S
C1426 H1450 0.950 1_554 S
C1427 C1444 1.574 . S
C1427 C1446 1.368 . S
C1427 H1451 0.949 . S
H1428 C1432 0.949 . S
C1429 C1430 1.349 . S
C1429 C1431 1.327 . S
C1429 H1452 0.950 . S
C1430 C1429 1.349 . S
C1430 C1442 1.349 . S
C1431 C1429 1.327 . S
C1431 C1447 1.429 . S
C1431 H1453 0.950 1_556 S
C1432 H1428 0.949 . S
C1432 C1440 1.574 . S
C1432 C1448 1.368 . S
H1433 C1441 0.950 . S
H1434 C1439 0.950 . S
H1435 C1440 0.949 . S
H1436 C1442 0.950 . S
H1437 C1443 0.950 . S
H1438 C1444 0.949 . S
C1439 H1434 0.950 . S
C1439 C1441 1.327 . S
C1439 C1445 1.429 . S
C1440 C1432 1.574 . S
C1440 H1435 0.949 . S
C1440 C1446 1.368 1_556 S
C1441 C1425 1.349 . S
C1441 H1433 0.950 . S
C1441 C1439 1.327 . S
C1442 C1430 1.349 . S
C1442 H1436 0.950 . S
C1442 C1443 1.327 . S
C1443 H1437 0.950 . S
C1443 C1442 1.327 . S
C1443 C1447 1.429 . S
C1444 C1427 1.574 . S
C1444 H1438 0.949 . S
C1444 C1448 1.368 1_554 S
C1445 C1426 1.429 . S
C1445 C1439 1.429 . S
C1445 C1446 1.523 . S
C1446 C1427 1.368 . S
C1446 C1440 1.368 1_554 S
C1446 C1445 1.523 . S
C1447 C1431 1.429 . S
C1447 C1443 1.429 . S
C1447 C1448 1.523 . S
C1448 C1432 1.368 . S
C1448 C1444 1.368 1_556 S
C1448 C1447 1.523 . S
H1449 C1424 0.950 . S
H1450 C1426 0.950 1_556 S
H1451 C1427 0.949 . S
H1452 C1429 0.950 . S
H1453 C1431 0.950 1_554 S
C1454 C1455 1.349 . S
C1454 C1456 1.327 . S
C1454 H1479 0.950 . S
C1455 C1454 1.349 . S
C1455 C1471 1.349 . S
C1456 C1454 1.327 . S
C1456 C1475 1.429 . S
C1456 H1480 0.950 . S
C1457 C1474 1.574 . S
C1457 C1476 1.368 . S
C1457 H1481 0.949 . S
H1458 C1462 0.949 . S
C1459 C1460 1.349 . S
C1459 C1461 1.327 . S
C1459 H1482 0.950 . S
C1460 C1459 1.349 . S
C1460 C1472 1.349 . S
C1461 C1459 1.327 . S
C1461 C1477 1.429 . S
C1461 H1483 0.950 . S
C1462 H1458 0.949 . S
C1462 C1470 1.574 . S
C1462 C1478 1.368 . S
H1463 C1471 0.950 . S
H1464 C1469 0.950 . S
H1465 C1470 0.949 . S
H1466 C1472 0.950 . S
H1467 C1473 0.950 . S
H1468 C1474 0.949 . S
C1469 H1464 0.950 . S
C1469 C1471 1.327 . S
C1469 C1475 1.429 . S
C1470 C1462 1.574 . S
C1470 H1465 0.949 . S
C1470 C1476 1.368 . S
C1471 C1455 1.349 . S
C1471 H1463 0.950 . S
C1471 C1469 1.327 . S
C1472 C1460 1.349 . S
C1472 H1466 0.950 . S
C1472 C1473 1.327 . S
C1473 H1467 0.950 . S
C1473 C1472 1.327 . S
C1473 C1477 1.429 . S
C1474 C1457 1.574 . S
C1474 H1468 0.949 . S
C1474 C1478 1.368 . S
C1475 C1456 1.429 . S
C1475 C1469 1.429 . S
C1475 C1476 1.523 . S
C1476 C1457 1.368 . S
C1476 C1470 1.368 . S
C1476 C1475 1.523 . S
C1477 C1461 1.429 . S
C1477 C1473 1.429 . S
C1477 C1478 1.523 . S
C1478 C1462 1.368 . S
C1478 C1474 1.368 . S
C1478 C1477 1.523 . S
H1479 C1454 0.950 . S
H1480 C1456 0.950 . S
H1481 C1457 0.949 . S
H1482 C1459 0.950 . S
H1483 C1461 0.950 . S
C1484 C1485 1.349 . S
C1484 C1486 1.327 . S
C1484 H1509 0.950 . S
C1485 C1484 1.349 . S
C1485 C1501 1.349 . S
C1486 C1484 1.327 . S
C1486 C1505 1.429 . S
C1486 H1510 0.950 . S
C1487 C1504 1.574 . S
C1487 C1506 1.368 . S
C1487 H1511 0.949 . S
H1488 C1492 0.949 . S
C1489 C1490 1.349 . S
C1489 C1491 1.327 . S
C1489 H1512 0.950 . S
C1490 C1489 1.349 . S
C1490 C1502 1.349 . S
C1491 C1489 1.327 . S
C1491 C1507 1.429 . S
C1491 H1513 0.950 . S
C1492 H1488 0.949 . S
C1492 C1500 1.574 . S
C1492 C1508 1.368 . S
H1493 C1501 0.950 . S
H1494 C1499 0.950 . S
H1495 C1500 0.949 . S
H1496 C1502 0.950 . S
H1497 C1503 0.950 . S
H1498 C1504 0.949 . S
C1499 H1494 0.950 . S
C1499 C1501 1.327 . S
C1499 C1505 1.429 . S
C1500 C1492 1.574 . S
C1500 H1495 0.949 . S
C1500 C1506 1.368 . S
C1501 C1485 1.349 . S
C1501 H1493 0.950 . S
C1501 C1499 1.327 . S
C1502 C1490 1.349 . S
C1502 H1496 0.950 . S
C1502 C1503 1.327 . S
C1503 H1497 0.950 . S
C1503 C1502 1.327 . S
C1503 C1507 1.429 . S
C1504 C1487 1.574 . S
C1504 H1498 0.949 . S
C1504 C1508 1.368 . S
C1505 C1486 1.429 . S
C1505 C1499 1.429 . S
C1505 C1506 1.523 . S
C1506 C1487 1.368 . S
C1506 C1500 1.368 . S
C1506 C1505 1.523 . S
C1507 C1491 1.429 . S
C1507 C1503 1.429 . S
C1507 C1508 1.523 . S
C1508 C1492 1.368 . S
C1508 C1504 1.368 . S
C1508 C1507 1.523 . S
H1509 C1484 0.950 . S
H1510 C1486 0.950 . S
H1511 C1487 0.949 . S
H1512 C1489 0.950 . S
H1513 C1491 0.950 . S
C1514 C1515 1.349 . S
C1514 C1516 1.327 . S
C1514 H1539 0.950 . S
C1515 C1514 1.349 . S
C1515 C1531 1.349 . S
C1516 C1514 1.327 . S
C1516 C1535 1.429 . S
C1516 H1540 0.950 . S
C1517 C1534 1.574 . S
C1517 C1536 1.368 . S
C1517 H1541 0.949 . S
H1518 C1522 0.949 . S
C1519 C1520 1.349 . S
C1519 C1521 1.327 . S
C1519 H1542 0.950 . S
C1520 C1519 1.349 . S
C1520 C1532 1.349 . S
C1521 C1519 1.327 . S
C1521 C1537 1.429 . S
C1521 H1543 0.950 . S
C1522 H1518 0.949 . S
C1522 C1530 1.574 . S
C1522 C1538 1.368 . S
H1523 C1531 0.950 . S
H1524 C1529 0.950 . S
H1525 C1530 0.949 . S
H1526 C1532 0.950 . S
H1527 C1533 0.950 . S
H1528 C1534 0.949 . S
C1529 H1524 0.950 . S
C1529 C1531 1.327 . S
C1529 C1535 1.429 . S
C1530 C1522 1.574 . S
C1530 H1525 0.949 . S
C1530 C1536 1.368 . S
C1531 C1515 1.349 . S
C1531 H1523 0.950 . S
C1531 C1529 1.327 . S
C1532 C1520 1.349 . S
C1532 H1526 0.950 . S
C1532 C1533 1.327 . S
C1533 H1527 0.950 . S
C1533 C1532 1.327 . S
C1533 C1537 1.429 . S
C1534 C1517 1.574 . S
C1534 H1528 0.949 . S
C1534 C1538 1.368 . S
C1535 C1516 1.429 . S
C1535 C1529 1.429 . S
C1535 C1536 1.523 . S
C1536 C1517 1.368 . S
C1536 C1530 1.368 . S
C1536 C1535 1.523 . S
C1537 C1521 1.429 . S
C1537 C1533 1.429 . S
C1537 C1538 1.523 . S
C1538 C1522 1.368 . S
C1538 C1534 1.368 . S
C1538 C1537 1.523 . S
H1539 C1514 0.950 . S
H1540 C1516 0.950 . S
H1541 C1517 0.949 . S
H1542 C1519 0.950 . S
H1543 C1521 0.950 . S
C1544 C1545 1.349 . S
C1544 C1546 1.327 . S
C1544 H1569 0.950 . S
C1545 C1544 1.349 . S
C1545 C1561 1.349 . S
C1546 C1544 1.327 . S
C1546 C1565 1.429 . S
C1546 H1570 0.950 . S
C1547 C1564 1.574 . S
C1547 C1566 1.368 . S
C1547 H1571 0.949 . S
H1548 C1552 0.949 . S
C1549 C1550 1.349 . S
C1549 C1551 1.327 . S
C1549 H1572 0.950 . S
C1550 C1549 1.349 . S
C1550 C1562 1.349 . S
C1551 C1549 1.327 . S
C1551 C1567 1.429 . S
C1551 H1573 0.950 . S
C1552 H1548 0.949 . S
C1552 C1560 1.574 . S
C1552 C1568 1.368 . S
H1553 C1561 0.950 . S
H1554 C1559 0.950 . S
H1555 C1560 0.949 . S
H1556 C1562 0.950 . S
H1557 C1563 0.950 . S
H1558 C1564 0.949 . S
C1559 H1554 0.950 . S
C1559 C1561 1.327 . S
C1559 C1565 1.429 . S
C1560 C1552 1.574 . S
C1560 H1555 0.949 . S
C1560 C1566 1.368 1_554 S
C1561 C1545 1.349 . S
C1561 H1553 0.950 . S
C1561 C1559 1.327 . S
C1562 C1550 1.349 . S
C1562 H1556 0.950 . S
C1562 C1563 1.327 . S
C1563 H1557 0.950 . S
C1563 C1562 1.327 . S
C1563 C1567 1.429 . S
C1564 C1547 1.574 . S
C1564 H1558 0.949 . S
C1564 C1568 1.368 1_556 S
C1565 C1546 1.429 . S
C1565 C1559 1.429 . S
C1565 C1566 1.523 . S
C1566 C1547 1.368 . S
C1566 C1560 1.368 1_556 S
C1566 C1565 1.523 . S
C1567 C1551 1.429 . S
C1567 C1563 1.429 . S
C1567 C1568 1.523 . S
C1568 C1552 1.368 . S
C1568 C1564 1.368 1_554 S
C1568 C1567 1.523 . S
H1569 C1544 0.950 . S
H1570 C1546 0.950 . S
H1571 C1547 0.949 . S
H1572 C1549 0.950 . S
H1573 C1551 0.950 . S
C1574 C1575 1.349 . S
C1574 C1576 1.327 . S
C1574 H1599 0.950 . S
C1575 C1574 1.349 . S
C1575 C1591 1.349 . S
C1576 C1574 1.327 . S
C1576 C1595 1.429 . S
C1576 H1600 0.950 . S
C1577 C1594 1.574 . S
C1577 C1596 1.368 . S
C1577 H1601 0.949 . S
H1578 C1582 0.949 . S
C1579 C1580 1.349 . S
C1579 C1581 1.327 . S
C1579 H1602 0.950 . S
C1580 C1579 1.349 . S
C1580 C1592 1.349 . S
C1581 C1579 1.327 . S
C1581 C1597 1.429 . S
C1581 H1603 0.950 . S
C1582 H1578 0.949 . S
C1582 C1590 1.574 . S
C1582 C1598 1.368 . S
H1583 C1591 0.950 . S
H1584 C1589 0.950 . S
H1585 C1590 0.949 . S
H1586 C1592 0.950 . S
H1587 C1593 0.950 . S
H1588 C1594 0.949 . S
C1589 H1584 0.950 . S
C1589 C1591 1.327 . S
C1589 C1595 1.429 . S
C1590 C1582 1.574 . S
C1590 H1585 0.949 . S
C1590 C1596 1.368 . S
C1591 C1575 1.349 . S
C1591 H1583 0.950 . S
C1591 C1589 1.327 . S
C1592 C1580 1.349 . S
C1592 H1586 0.950 . S
C1592 C1593 1.327 . S
C1593 H1587 0.950 . S
C1593 C1592 1.327 . S
C1593 C1597 1.429 . S
C1594 C1577 1.574 . S
C1594 H1588 0.949 . S
C1594 C1598 1.368 . S
C1595 C1576 1.429 . S
C1595 C1589 1.429 . S
C1595 C1596 1.523 . S
C1596 C1577 1.368 . S
C1596 C1590 1.368 . S
C1596 C1595 1.523 . S
C1597 C1581 1.429 . S
C1597 C1593 1.429 . S
C1597 C1598 1.523 . S
C1598 C1582 1.368 . S
C1598 C1594 1.368 . S
C1598 C1597 1.523 . S
H1599 C1574 0.950 . S
H1600 C1576 0.950 . S
H1601 C1577 0.949 . S
H1602 C1579 0.950 . S
H1603 C1581 0.950 . S
C1604 C1605 1.349 . S
C1604 C1606 1.327 . S
C1604 H1629 0.950 . S
C1605 C1604 1.349 . S
C1605 C1621 1.349 . S
C1606 C1604 1.327 . S
C1606 C1625 1.429 . S
C1606 H1630 0.950 . S
C1607 C1624 1.574 . S
C1607 C1626 1.368 . S
C1607 H1631 0.949 . S
H1608 C1612 0.949 . S
C1609 C1610 1.349 . S
C1609 C1611 1.327 . S
C1609 H1632 0.950 . S
C1610 C1609 1.349 . S
C1610 C1622 1.349 . S
C1611 C1609 1.327 . S
C1611 C1627 1.429 . S
C1611 H1633 0.950 . S
C1612 H1608 0.949 . S
C1612 C1620 1.574 . S
C1612 C1628 1.368 . S
H1613 C1621 0.950 . S
H1614 C1619 0.950 . S
H1615 C1620 0.949 . S
H1616 C1622 0.950 . S
H1617 C1623 0.950 . S
H1618 C1624 0.949 . S
C1619 H1614 0.950 . S
C1619 C1621 1.327 . S
C1619 C1625 1.429 . S
C1620 C1612 1.574 . S
C1620 H1615 0.949 . S
C1620 C1626 1.368 . S
C1621 C1605 1.349 . S
C1621 H1613 0.950 . S
C1621 C1619 1.327 . S
C1622 C1610 1.349 . S
C1622 H1616 0.950 . S
C1622 C1623 1.327 . S
C1623 H1617 0.950 . S
C1623 C1622 1.327 . S
C1623 C1627 1.429 . S
C1624 C1607 1.574 . S
C1624 H1618 0.949 . S
C1624 C1628 1.368 . S
C1625 C1606 1.429 . S
C1625 C1619 1.429 . S
C1625 C1626 1.523 . S
C1626 C1607 1.368 . S
C1626 C1620 1.368 . S
C1626 C1625 1.523 . S
C1627 C1611 1.429 . S
C1627 C1623 1.429 . S
C1627 C1628 1.523 . S
C1628 C1612 1.368 . S
C1628 C1624 1.368 . S
C1628 C1627 1.523 . S
H1629 C1604 0.950 . S
H1630 C1606 0.950 . S
H1631 C1607 0.949 . S
H1632 C1609 0.950 . S
H1633 C1611 0.950 . S
C1634 C1635 1.349 . S
C1634 C1636 1.327 . S
C1634 H1659 0.950 . S
C1635 C1634 1.349 . S
C1635 C1651 1.349 . S
C1636 C1634 1.327 . S
C1636 C1655 1.429 . S
C1636 H1660 0.950 . S
C1637 C1654 1.574 . S
C1637 C1656 1.368 . S
C1637 H1661 0.949 . S
H1638 C1642 0.949 . S
C1639 C1640 1.349 . S
C1639 C1641 1.327 . S
C1639 H1662 0.950 . S
C1640 C1639 1.349 . S
C1640 C1652 1.349 . S
C1641 C1639 1.327 . S
C1641 C1657 1.429 . S
C1641 H1663 0.950 . S
C1642 H1638 0.949 . S
C1642 C1650 1.574 . S
C1642 C1658 1.368 . S
H1643 C1651 0.950 . S
H1644 C1649 0.950 . S
H1645 C1650 0.949 . S
H1646 C1652 0.950 . S
H1647 C1653 0.950 . S
H1648 C1654 0.949 . S
C1649 H1644 0.950 . S
C1649 C1651 1.327 . S
C1649 C1655 1.429 . S
C1650 C1642 1.574 . S
C1650 H1645 0.949 . S
C1650 C1656 1.368 . S
C1651 C1635 1.349 . S
C1651 H1643 0.950 . S
C1651 C1649 1.327 . S
C1652 C1640 1.349 . S
C1652 H1646 0.950 . S
C1652 C1653 1.327 . S
C1653 H1647 0.950 . S
C1653 C1652 1.327 . S
C1653 C1657 1.429 . S
C1654 C1637 1.574 . S
C1654 H1648 0.949 . S
C1654 C1658 1.368 . S
C1655 C1636 1.429 . S
C1655 C1649 1.429 . S
C1655 C1656 1.523 . S
C1656 C1637 1.368 . S
C1656 C1650 1.368 . S
C1656 C1655 1.523 . S
C1657 C1641 1.429 . S
C1657 C1653 1.429 . S
C1657 C1658 1.523 . S
C1658 C1642 1.368 . S
C1658 C1654 1.368 . S
C1658 C1657 1.523 . S
H1659 C1634 0.950 . S
H1660 C1636 0.950 . S
H1661 C1637 0.949 . S
H1662 C1639 0.950 . S
H1663 C1641 0.950 . S
C1664 C1665 1.349 . S
C1664 C1666 1.327 . S
C1664 H1689 0.950 . S
C1665 C1664 1.349 . S
C1665 C1681 1.349 . S
C1666 C1664 1.327 . S
C1666 C1685 1.429 . S
C1666 H1690 0.950 . S
C1667 C1684 1.533 1_545 S
C1667 C1686 1.368 . S
C1667 H1691 0.949 . S
H1668 C1672 0.949 . S
C1669 C1670 1.349 . S
C1669 C1671 1.327 . S
C1669 H1692 0.950 . S
C1670 C1669 1.349 . S
C1670 C1682 1.349 . S
C1671 C1669 1.327 . S
C1671 C1687 1.429 . S
C1671 H1693 0.950 . S
C1672 H1668 0.949 . S
C1672 C1680 1.571 1_565 S
C1672 C1688 1.368 . S
H1673 C1681 0.950 . S
H1674 C1679 0.950 . S
H1675 C1680 0.948 . S
H1676 C1682 0.950 . S
H1677 C1683 0.950 . S
H1678 C1684 0.953 . S
C1679 H1674 0.950 . S
C1679 C1681 1.327 . S
C1679 C1685 1.429 . S
C1680 C1672 1.571 1_545 S
C1680 H1675 0.948 . S
C1680 C1686 1.371 . S
C1681 C1665 1.349 . S
C1681 H1673 0.950 . S
C1681 C1679 1.327 . S
C1682 C1670 1.349 . S
C1682 H1676 0.950 . S
C1682 C1683 1.327 . S
C1683 H1677 0.950 . S
C1683 C1682 1.327 . S
C1683 C1687 1.429 . S
C1684 C1667 1.533 1_565 S
C1684 H1678 0.953 . S
C1684 C1688 1.407 . S
C1685 C1666 1.429 . S
C1685 C1679 1.429 . S
C1685 C1686 1.523 . S
C1686 C1667 1.368 . S
C1686 C1680 1.371 . S
C1686 C1685 1.523 . S
C1687 C1671 1.429 . S
C1687 C1683 1.429 . S
C1687 C1688 1.523 . S
C1688 C1672 1.368 . S
C1688 C1684 1.407 . S
C1688 C1687 1.523 . S
H1689 C1664 0.950 . S
H1690 C1666 0.950 . S
H1691 C1667 0.949 . S
H1692 C1669 0.950 . S
H1693 C1671 0.950 . S
C1694 C1695 1.349 . S
C1694 C1696 1.327 . S
C1694 H1719 0.950 . S
C1695 C1694 1.349 . S
C1695 C1711 1.349 . S
C1696 C1694 1.327 . S
C1696 C1715 1.429 . S
C1696 H1720 0.950 . S
C1697 C1714 1.574 . S
C1697 C1716 1.368 . S
C1697 H1721 0.949 . S
H1698 C1702 0.949 . S
C1699 C1700 1.349 . S
C1699 C1701 1.327 . S
C1699 H1722 0.950 . S
C1700 C1699 1.349 . S
C1700 C1712 1.349 . S
C1701 C1699 1.327 . S
C1701 C1717 1.429 . S
C1701 H1723 0.950 . S
C1702 H1698 0.949 . S
C1702 C1710 1.574 . S
C1702 C1718 1.368 . S
H1703 C1711 0.950 . S
H1704 C1709 0.950 . S
H1705 C1710 0.949 . S
H1706 C1712 0.950 . S
H1707 C1713 0.950 . S
H1708 C1714 0.949 . S
C1709 H1704 0.950 . S
C1709 C1711 1.327 . S
C1709 C1715 1.429 . S
C1710 C1702 1.574 . S
C1710 H1705 0.949 . S
C1710 C1716 1.368 . S
C1711 C1695 1.349 . S
C1711 H1703 0.950 . S
C1711 C1709 1.327 . S
C1712 C1700 1.349 . S
C1712 H1706 0.950 . S
C1712 C1713 1.327 . S
C1713 H1707 0.950 . S
C1713 C1712 1.327 . S
C1713 C1717 1.429 . S
C1714 C1697 1.574 . S
C1714 H1708 0.949 . S
C1714 C1718 1.368 . S
C1715 C1696 1.429 . S
C1715 C1709 1.429 . S
C1715 C1716 1.523 . S
C1716 C1697 1.368 . S
C1716 C1710 1.368 . S
C1716 C1715 1.523 . S
C1717 C1701 1.429 . S
C1717 C1713 1.429 . S
C1717 C1718 1.523 . S
C1718 C1702 1.368 . S
C1718 C1714 1.368 . S
C1718 C1717 1.523 . S
H1719 C1694 0.950 . S
H1720 C1696 0.950 . S
H1721 C1697 0.949 . S
H1722 C1699 0.950 . S
H1723 C1701 0.950 . S
C1724 C1725 1.349 . S
C1724 C1726 1.327 . S
C1724 H1749 0.950 . S
C1725 C1724 1.349 . S
C1725 C1741 1.349 . S
C1726 C1724 1.327 . S
C1726 C1745 1.429 . S
C1726 H1750 0.950 . S
C1727 C1744 1.574 1_545 S
C1727 C1746 1.368 1_554 S
C1727 H1751 0.949 . S
H1728 C1732 0.949 . S
C1729 C1730 1.349 . S
C1729 C1731 1.327 . S
C1729 H1752 0.950 . S
C1730 C1729 1.349 . S
C1730 C1742 1.349 . S
C1731 C1729 1.327 . S
C1731 C1747 1.429 . S
C1731 H1753 0.950 . S
C1732 H1728 0.949 . S
C1732 C1740 1.531 1_565 S
C1732 C1748 1.368 1_556 S
H1733 C1741 0.950 . S
H1734 C1739 0.980 . S
H1735 C1740 0.954 . S
H1736 C1742 0.950 . S
H1737 C1743 0.950 . S
H1738 C1744 0.949 . S
C1739 H1734 0.980 . S
C1739 C1741 1.327 . S
C1739 C1745 1.429 . S
C1740 C1732 1.531 1_545 S
C1740 H1735 0.954 . S
C1740 C1746 1.407 . S
C1741 C1725 1.349 . S
C1741 H1733 0.950 . S
C1741 C1739 1.327 . S
C1742 C1730 1.349 . S
C1742 H1736 0.950 . S
C1742 C1743 1.327 . S
C1743 H1737 0.950 . S
C1743 C1742 1.327 . S
C1743 C1747 1.429 . S
C1744 C1727 1.574 1_565 S
C1744 H1738 0.949 . S
C1744 C1748 1.368 . S
C1745 C1726 1.429 . S
C1745 C1739 1.429 . S
C1745 C1746 1.523 . S
C1746 C1727 1.368 1_556 S
C1746 C1740 1.407 . S
C1746 C1745 1.523 . S
C1747 C1731 1.429 . S
C1747 C1743 1.429 . S
C1747 C1748 1.523 . S
C1748 C1732 1.368 1_554 S
C1748 C1744 1.368 . S
C1748 C1747 1.523 . S
H1749 C1724 0.950 . S
H1750 C1726 0.950 . S
H1751 C1727 0.949 . S
H1752 C1729 0.950 . S
H1753 C1731 0.950 . S
C1754 C1755 1.349 . S
C1754 C1756 1.327 . S
C1754 H1779 0.950 . S
C1755 C1754 1.349 . S
C1755 C1771 1.349 . S
C1756 C1754 1.327 . S
C1756 C1775 1.429 . S
C1756 H1780 0.950 . S
C1757 C1774 1.574 . S
C1757 C1776 1.368 . S
C1757 H1781 0.949 . S
H1758 C1762 0.949 . S
C1759 C1760 1.349 . S
C1759 C1761 1.327 . S
C1759 H1782 0.950 . S
C1760 C1759 1.349 . S
C1760 C1772 1.349 . S
C1761 C1759 1.327 . S
C1761 C1777 1.429 . S
C1761 H1783 0.950 . S
C1762 H1758 0.949 . S
C1762 C1770 1.574 . S
C1762 C1778 1.368 . S
H1763 C1771 0.950 . S
H1764 C1769 0.950 . S
H1765 C1770 0.949 . S
H1766 C1772 0.950 . S
H1767 C1773 0.950 . S
H1768 C1774 0.949 . S
C1769 H1764 0.950 . S
C1769 C1771 1.327 . S
C1769 C1775 1.429 . S
C1770 C1762 1.574 . S
C1770 H1765 0.949 . S
C1770 C1776 1.368 . S
C1771 C1755 1.349 . S
C1771 H1763 0.950 . S
C1771 C1769 1.327 . S
C1772 C1760 1.349 . S
C1772 H1766 0.950 . S
C1772 C1773 1.327 . S
C1773 H1767 0.950 . S
C1773 C1772 1.327 . S
C1773 C1777 1.429 . S
C1774 C1757 1.574 . S
C1774 H1768 0.949 . S
C1774 C1778 1.368 . S
C1775 C1756 1.429 . S
C1775 C1769 1.429 . S
C1775 C1776 1.523 . S
C1776 C1757 1.368 . S
C1776 C1770 1.368 . S
C1776 C1775 1.523 . S
C1777 C1761 1.429 . S
C1777 C1773 1.429 . S
C1777 C1778 1.523 . S
C1778 C1762 1.368 . S
C1778 C1774 1.368 . S
C1778 C1777 1.523 . S
H1779 C1754 0.950 . S
H1780 C1756 0.950 . S
H1781 C1757 0.949 . S
H1782 C1759 0.950 . S
H1783 C1761 0.950 . S
C1784 C1785 1.349 . S
C1784 C1786 1.327 . S
C1784 H1809 0.950 . S
C1785 C1784 1.349 . S
C1785 C1801 1.349 . S
C1786 C1784 1.327 . S
C1786 C1805 1.429 . S
C1786 H1810 0.950 . S
C1787 C1804 1.574 1_545 S
C1787 C1806 1.368 . S
C1787 H1811 0.949 . S
H1788 C1792 0.949 . S
C1789 C1790 1.349 . S
C1789 C1791 1.327 . S
C1789 H1812 0.950 . S
C1790 C1789 1.349 . S
C1790 C1802 1.349 . S
C1791 C1789 1.327 . S
C1791 C1807 1.429 . S
C1791 H1813 0.950 . S
C1792 H1788 0.949 . S
C1792 C1800 1.574 1_565 S
C1792 C1808 1.368 . S
H1793 C1801 0.950 . S
H1794 C1799 0.950 . S
H1795 C1800 0.949 . S
H1796 C1802 0.950 . S
H1797 C1803 0.950 . S
H1798 C1804 0.949 . S
C1799 H1794 0.950 . S
C1799 C1801 1.327 . S
C1799 C1805 1.429 . S
C1800 C1792 1.574 1_545 S
C1800 H1795 0.949 . S
C1800 C1806 1.368 . S
C1801 C1785 1.349 . S
C1801 H1793 0.950 . S
C1801 C1799 1.327 . S
C1802 C1790 1.349 . S
C1802 H1796 0.950 . S
C1802 C1803 1.327 . S
C1803 H1797 0.950 . S
C1803 C1802 1.327 . S
C1803 C1807 1.429 . S
C1804 C1787 1.574 1_565 S
C1804 H1798 0.949 . S
C1804 C1808 1.368 . S
C1805 C1786 1.429 . S
C1805 C1799 1.429 . S
C1805 C1806 1.523 . S
C1806 C1787 1.368 . S
C1806 C1800 1.368 . S
C1806 C1805 1.523 . S
C1807 C1791 1.429 . S
C1807 C1803 1.429 . S
C1807 C1808 1.523 . S
C1808 C1792 1.368 . S
C1808 C1804 1.368 . S
C1808 C1807 1.523 . S
H1809 C1784 0.950 . S
H1810 C1786 0.950 . S
H1811 C1787 0.949 . S
H1812 C1789 0.950 . S
H1813 C1791 0.950 . S
C1814 C1815 1.349 . S
C1814 C1816 1.327 . S
C1814 H1839 0.950 . S
C1815 C1814 1.349 . S
C1815 C1831 1.349 . S
C1816 C1814 1.327 . S
C1816 C1835 1.429 . S
C1816 H1840 0.950 . S
C1817 C1834 1.574 . S
C1817 C1836 1.368 . S
C1817 H1841 0.949 . S
H1818 C1822 0.949 . S
C1819 C1820 1.349 . S
C1819 C1821 1.327 . S
C1819 H1842 0.950 . S
C1820 C1819 1.349 . S
C1820 C1832 1.349 . S
C1821 C1819 1.327 . S
C1821 C1837 1.429 . S
C1821 H1843 0.950 . S
C1822 H1818 0.949 . S
C1822 C1830 1.574 . S
C1822 C1838 1.368 . S
H1823 C1831 0.950 . S
H1824 C1829 0.950 . S
H1825 C1830 0.949 . S
H1826 C1832 0.950 . S
H1827 C1833 0.950 . S
H1828 C1834 0.949 . S
C1829 H1824 0.950 . S
C1829 C1831 1.327 . S
C1829 C1835 1.429 . S
C1830 C1822 1.574 . S
C1830 H1825 0.949 . S
C1830 C1836 1.368 . S
C1831 C1815 1.349 . S
C1831 H1823 0.950 . S
C1831 C1829 1.327 . S
C1832 C1820 1.349 . S
C1832 H1826 0.950 . S
C1832 C1833 1.327 . S
C1833 H1827 0.950 . S
C1833 C1832 1.327 . S
C1833 C1837 1.429 . S
C1834 C1817 1.574 . S
C1834 H1828 0.949 . S
C1834 C1838 1.368 . S
C1835 C1816 1.429 . S
C1835 C1829 1.429 . S
C1835 C1836 1.523 . S
C1836 C1817 1.368 . S
C1836 C1830 1.368 . S
C1836 C1835 1.523 . S
C1837 C1821 1.429 . S
C1837 C1833 1.429 . S
C1837 C1838 1.523 . S
C1838 C1822 1.368 . S
C1838 C1834 1.368 . S
C1838 C1837 1.523 . S
H1839 C1814 0.950 . S
H1840 C1816 0.950 . S
H1841 C1817 0.949 . S
H1842 C1819 0.950 . S
H1843 C1821 0.950 . S
C1844 C1845 1.349 . S
C1844 C1846 1.327 . S
C1844 H1869 0.950 . S
C1845 C1844 1.349 . S
C1845 C1861 1.349 . S
C1846 C1844 1.327 . S
C1846 C1865 1.429 . S
C1846 H1870 0.950 . S
C1847 C1864 1.574 1_565 S
C1847 C1866 1.368 . S
C1847 H1871 0.949 . S
H1848 C1852 0.949 . S
C1849 C1850 1.349 . S
C1849 C1851 1.327 . S
C1849 H1872 0.950 . S
C1850 C1849 1.349 . S
C1850 C1862 1.349 . S
C1851 C1849 1.327 . S
C1851 C1867 1.429 . S
C1851 H1873 0.950 . S
C1852 H1848 0.949 . S
C1852 C1860 1.574 1_545 S
C1852 C1868 1.368 . S
H1853 C1861 0.950 . S
H1854 C1859 0.950 . S
H1855 C1860 0.949 . S
H1856 C1862 0.950 . S
H1857 C1863 0.950 . S
H1858 C1864 0.949 . S
C1859 H1854 0.950 . S
C1859 C1861 1.327 . S
C1859 C1865 1.429 . S
C1860 C1852 1.574 1_565 S
C1860 H1855 0.949 . S
C1860 C1866 1.368 1_556 S
C1861 C1845 1.349 . S
C1861 H1853 0.950 . S
C1861 C1859 1.327 . S
C1862 C1850 1.349 . S
C1862 H1856 0.950 . S
C1862 C1863 1.327 . S
C1863 H1857 0.950 . S
C1863 C1862 1.327 . S
C1863 C1867 1.429 . S
C1864 C1847 1.574 1_545 S
C1864 H1858 0.949 . S
C1864 C1868 1.368 1_554 S
C1865 C1846 1.429 . S
C1865 C1859 1.429 . S
C1865 C1866 1.523 . S
C1866 C1847 1.368 . S
C1866 C1860 1.368 1_554 S
C1866 C1865 1.523 . S
C1867 C1851 1.429 . S
C1867 C1863 1.429 . S
C1867 C1868 1.523 . S
C1868 C1852 1.368 . S
C1868 C1864 1.368 1_556 S
C1868 C1867 1.523 . S
H1869 C1844 0.950 . S
H1870 C1846 0.950 . S
H1871 C1847 0.949 . S
H1872 C1849 0.950 . S
H1873 C1851 0.950 . S
C1874 C1875 1.349 . S
C1874 C1876 1.327 . S
C1874 H1899 0.950 . S
C1875 C1874 1.349 . S
C1875 C1891 1.349 . S
C1876 C1874 1.327 . S
C1876 C1895 1.429 . S
C1876 H1900 0.950 . S
C1877 C1894 1.574 . S
C1877 C1896 1.368 . S
C1877 H1901 0.949 . S
H1878 C1882 0.949 . S
C1879 C1880 1.349 . S
C1879 C1881 1.327 . S
C1879 H1902 0.950 . S
C1880 C1879 1.349 . S
C1880 C1892 1.349 . S
C1881 C1879 1.327 . S
C1881 C1897 1.429 . S
C1881 H1903 0.950 . S
C1882 H1878 0.949 . S
C1882 C1890 1.574 . S
C1882 C1898 1.368 . S
H1883 C1891 0.950 . S
H1884 C1889 0.950 . S
H1885 C1890 0.949 . S
H1886 C1892 0.950 . S
H1887 C1893 0.950 . S
H1888 C1894 0.949 . S
C1889 H1884 0.950 . S
C1889 C1891 1.327 . S
C1889 C1895 1.429 . S
C1890 C1882 1.574 . S
C1890 H1885 0.949 . S
C1890 C1896 1.368 . S
C1891 C1875 1.349 . S
C1891 H1883 0.950 . S
C1891 C1889 1.327 . S
C1892 C1880 1.349 . S
C1892 H1886 0.950 . S
C1892 C1893 1.327 . S
C1893 H1887 0.950 . S
C1893 C1892 1.327 . S
C1893 C1897 1.429 . S
C1894 C1877 1.574 . S
C1894 H1888 0.949 . S
C1894 C1898 1.368 . S
C1895 C1876 1.429 . S
C1895 C1889 1.429 . S
C1895 C1896 1.523 . S
C1896 C1877 1.368 . S
C1896 C1890 1.368 . S
C1896 C1895 1.523 . S
C1897 C1881 1.429 . S
C1897 C1893 1.429 . S
C1897 C1898 1.523 . S
C1898 C1882 1.368 . S
C1898 C1894 1.368 . S
C1898 C1897 1.523 . S
H1899 C1874 0.950 . S
H1900 C1876 0.950 . S
H1901 C1877 0.949 . S
H1902 C1879 0.950 . S
H1903 C1881 0.950 . S
C945 C701 1.394 . S
C950 C33 1.394 . S
C975 C937 1.392 . S
C980 C111 1.392 . S
C1005 C170 1.393 . S
C1010 C564 1.394 . S
C1035 C819 1.393 . S
C1040 C210 1.393 . S
C1065 C269 1.392 . S
C1070 C800 1.392 . S
C1095 C347 1.390 . S
C1100 C682 1.391 . S
C1125 C406 1.392 . S
C1130 C918 1.393 . S
C1155 C446 1.392 . S
C1160 C583 1.392 . S
C1185 C229 1.393 . S
C1190 C505 1.394 . S
C1215 C642 1.391 . S
C1220 C92 1.391 . S
C1245 C741 1.393 . S
C1250 C328 1.393 . S
C1275 C878 1.392 . S
C1280 C465 1.393 . S
C1305 C288 1.394 . S
C1310 C524 1.394 . S
C1335 C623 1.390 . S
C1340 C387 1.391 . S
C1365 C859 1.391 . S
C1370 C151 1.391 . S
C1395 C52 1.393 . S
C1400 C760 1.393 . S
C1425 C3 1.363 . S
C1430 C239 1.363 . S
C1455 C64 1.365 . S
C1460 C300 1.365 . S
C1485 C123 1.370 . S
C1490 C359 1.370 . S
C1515 C416 1.365 . S
C1520 C180 1.365 . S
C1545 C475 1.362 . S
C1550 C711 1.362 . S
C1575 C772 1.367 . S
C1580 C536 1.367 . S
C1605 C595 1.370 . S
C1610 C831 1.370 . S
C1635 C890 1.372 . S
C1640 C652 1.362 . S
C1665 C418 1.366 . S
C1670 C62 1.356 . S
C1695 C121 1.365 . S
C1700 C241 1.376 . S
C1725 C182 1.372 . S
C1730 C298 1.362 . S
C1755 C5 1.371 . S
C1760 C357 1.361 . S
C1785 C534 1.364 . S
C1790 C888 1.364 . S
C1815 C713 1.376 . S
C1820 C593 1.366 . S
C1845 C654 1.371 . S
C1850 C770 1.361 . S
C1875 C829 1.357 . S
C1880 C477 1.367 . S
