# Generated by pormake.
# Topology pcu-h, (3)-cn, num edge types: 1
# Building blocks:
#     Node 0, Type 0, BuildingBlock: WUSLED_clean_sbu_0, # of connection points: 3
#     Node 1, Type 0, BuildingBlock: WUSLED_clean_sbu_0, # of connection points: 3
#     Node 2, Type 0, BuildingBlock: WUSLED_clean_sbu_0, # of connection points: 3
#     Node 3, Type 0, BuildingBlock: WUSLED_clean_sbu_0, # of connection points: 3
#     Node 4, Type 0, BuildingBlock: WUSLED_clean_sbu_0, # of connection points: 3
#     Node 5, Type 0, BuildingBlock: WUSLED_clean_sbu_0, # of connection points: 3
#     Node 6, Type 0, BuildingBlock: WUSLED_clean_sbu_0, # of connection points: 3
#     Node 7, Type 0, BuildingBlock: WUSLED_clean_sbu_0, # of connection points: 3
#     Node 8, Type 0, BuildingBlock: WUSLED_clean_sbu_0, # of connection points: 3
#     Node 9, Type 0, BuildingBlock: WUSLED_clean_sbu_0, # of connection points: 3
#     Node 10, Type 0, BuildingBlock: WUSLED_clean_sbu_0, # of connection points: 3
#     Node 11, Type 0, BuildingBlock: WUSLED_clean_sbu_0, # of connection points: 3
#     Node 12, Type 0, BuildingBlock: WUSLED_clean_sbu_0, # of connection points: 3
#     Node 13, Type 0, BuildingBlock: WUSLED_clean_sbu_0, # of connection points: 3
#     Node 14, Type 0, BuildingBlock: WUSLED_clean_sbu_0, # of connection points: 3
#     Node 15, Type 0, BuildingBlock: WUSLED_clean_sbu_0, # of connection points: 3
#     Node 16, Type 0, BuildingBlock: WUSLED_clean_sbu_0, # of connection points: 3
#     Node 17, Type 0, BuildingBlock: WUSLED_clean_sbu_0, # of connection points: 3
#     Edge 18, Type (0, 0), BuildingBlock: AJUNOK_clean_linker_0, # of connection points: 2
#     Edge 19, Type (0, 0), BuildingBlock: AJUNOK_clean_linker_0, # of connection points: 2
#     Edge 20, Type (0, 0), BuildingBlock: AJUNOK_clean_linker_0, # of connection points: 2
#     Edge 21, Type (0, 0), BuildingBlock: AJUNOK_clean_linker_0, # of connection points: 2
#     Edge 22, Type (0, 0), BuildingBlock: AJUNOK_clean_linker_0, # of connection points: 2
#     Edge 23, Type (0, 0), BuildingBlock: AJUNOK_clean_linker_0, # of connection points: 2
#     Edge 24, Type (0, 0), BuildingBlock: AJUNOK_clean_linker_0, # of connection points: 2
#     Edge 25, Type (0, 0), BuildingBlock: AJUNOK_clean_linker_0, # of connection points: 2
#     Edge 26, Type (0, 0), BuildingBlock: AJUNOK_clean_linker_0, # of connection points: 2
#     Edge 27, Type (0, 0), BuildingBlock: AJUNOK_clean_linker_0, # of connection points: 2
#     Edge 28, Type (0, 0), BuildingBlock: AJUNOK_clean_linker_0, # of connection points: 2
#     Edge 29, Type (0, 0), BuildingBlock: AJUNOK_clean_linker_0, # of connection points: 2
#     Edge 30, Type (0, 0), BuildingBlock: AJUNOK_clean_linker_0, # of connection points: 2
#     Edge 31, Type (0, 0), BuildingBlock: AJUNOK_clean_linker_0, # of connection points: 2
#     Edge 32, Type (0, 0), BuildingBlock: AJUNOK_clean_linker_0, # of connection points: 2
#     Edge 33, Type (0, 0), BuildingBlock: AJUNOK_clean_linker_0, # of connection points: 2
#     Edge 34, Type (0, 0), BuildingBlock: AJUNOK_clean_linker_0, # of connection points: 2
#     Edge 35, Type (0, 0), BuildingBlock: AJUNOK_clean_linker_0, # of connection points: 2
#     Edge 36, Type (0, 0), BuildingBlock: AJUNOK_clean_linker_0, # of connection points: 2
#     Edge 37, Type (0, 0), BuildingBlock: AJUNOK_clean_linker_0, # of connection points: 2
#     Edge 38, Type (0, 0), BuildingBlock: AJUNOK_clean_linker_0, # of connection points: 2
#     Edge 39, Type (0, 0), BuildingBlock: AJUNOK_clean_linker_0, # of connection points: 2
#     Edge 40, Type (0, 0), BuildingBlock: AJUNOK_clean_linker_0, # of connection points: 2
#     Edge 41, Type (0, 0), BuildingBlock: AJUNOK_clean_linker_0, # of connection points: 2
#     Edge 42, Type (0, 0), BuildingBlock: AJUNOK_clean_linker_0, # of connection points: 2
#     Edge 43, Type (0, 0), BuildingBlock: AJUNOK_clean_linker_0, # of connection points: 2
#     Edge 44, Type (0, 0), BuildingBlock: AJUNOK_clean_linker_0, # of connection points: 2
# Relax obj value: 0.000
# Max RMSD: 0.007
# Mean RMSD: 0.007
data_MOF--net-pcu-h--node1-WUSLED_clean_sbu_0--edge1-AJUNOK_clean_linker_0
_symmetry_space_group_name_H-M    P1
_symmetry_Int_Tables_number       1
_symmetry_cell_setting            triclinic
loop_
_symmetry_equiv_pos_as_xyz
'x, y, z'
_cell_length_a     96.825935
_cell_length_b     96.571822
_cell_length_c     27.077528
_cell_angle_alpha  89.855693
_cell_angle_beta   90.162825
_cell_angle_gamma 119.83469
loop_
_atom_site_label
_atom_site_type_symbol
_atom_site_fract_x
_atom_site_fract_y
_atom_site_fract_z
_atom_type_partial_charge
C0 C 0.24651 0.16529 0.0269 0.0
C1 C 0.23001 0.15471 0.02528 0.0
C2 C 0.22523 0.17677 0.00613 0.0
C3 C 0.21947 0.1604 0.01506 0.0
C4 C 0.24177 0.18725 0.00764 0.0
C5 C 0.25227 0.18156 0.01781 0.0
U6 U 0.25977 0.13356 0.0448 0.0
O7 O 0.28281 0.13549 0.02602 0.0
O8 O 0.27516 0.13253 0.10328 0.0
C9 C 0.2867 0.1352 0.07244 0.0
C10 C 0.258 0.1599 0.03936 0.0
C11 C 0.30333 0.1469 0.08793 0.0
C12 C 0.32353 0.1582 0.15296 0.0
C13 C 0.30757 0.14894 0.13828 0.0
C14 C 0.33146 0.16392 0.06744 0.0
C15 C 0.33573 0.16552 0.1177 0.0
C16 C 0.3155 0.15468 0.05273 0.0
C17 C 0.22932 0.08838 0.01992 0.0
C18 C 0.22844 0.06553 0.97816 0.0
C19 C 0.20998 0.06113 0.04433 0.0
C20 C 0.21673 0.07766 0.05022 0.0
C21 C 0.21552 0.05482 0.00759 0.0
C22 C 0.23523 0.08211 0.98413 0.0
C23 C 0.23476 0.10576 0.02287 0.0
O24 O 0.25518 0.15142 0.07993 0.0
O25 O 0.26284 0.15451 0.00267 0.0
O26 O 0.24513 0.11525 0.9899 0.0
O27 O 0.23741 0.11215 0.06717 0.0
H28 H 0.22529 0.1421 0.03242 0.0
H29 H 0.2068 0.15203 0.01509 0.0
H30 H 0.24663 0.19988 0.00071 0.0
H31 H 0.26494 0.18995 0.01893 0.0
H32 H 0.32639 0.15914 0.19195 0.0
H33 H 0.29859 0.14295 0.16643 0.0
H34 H 0.34051 0.16965 0.03932 0.0
H35 H 0.31278 0.1533 0.01362 0.0
H36 H 0.23321 0.06109 0.95016 0.0
H37 H 0.20001 0.05325 0.06748 0.0
H38 H 0.21177 0.08208 0.07767 0.0
H39 H 0.24488 0.08998 0.95996 0.0
C40 C 0.89086 0.08829 0.03745 0.0
C41 C 0.89955 0.08342 0.00777 0.0
C42 C 0.87823 0.05555 0.01383 0.0
C43 C 0.8933 0.06719 -0.00385 0.0
C44 C 0.86981 0.06054 0.04445 0.0
C45 C 0.87605 0.07669 0.05601 0.0
U46 U 0.92246 0.13358 0.04951 0.0
O47 O 0.91982 0.15423 0.02832 0.0
O48 O 0.92368 0.15056 0.10594 0.0
C49 C 0.92053 0.15897 0.07422 0.0
C50 C 0.89644 0.10532 0.04807 0.0
C51 C 0.90884 0.16396 0.08919 0.0
C52 C 0.8924 0.16705 0.15174 0.0
C53 C 0.90176 0.16048 0.13632 0.0
C54 C 0.89671 0.18047 0.07308 0.0
C55 C 0.8899 0.17729 0.12051 0.0
C56 C 0.90606 0.17392 0.05771 0.0
C57 C 0.96741 0.14908 0.02134 0.0
C58 C 0.98926 0.17062 0.97536 0.0
C59 C 0.99505 0.15923 0.04664 0.0
C60 C 0.97871 0.1488 0.05349 0.0
C61 C 1.00056 0.17022 0.00728 0.0
C62 C 0.9729 0.1602 0.98228 0.0
C63 C 0.95029 0.13667 0.02619 0.0
O64 O 0.90528 0.11139 0.08771 0.0
O65 O 0.90138 0.11515 0.01021 0.0
O66 O 0.94027 0.13678 0.99349 0.0
O67 O 0.94435 0.13334 0.07109 0.0
H68 H 0.91105 0.09215 0.99321 0.0
H69 H 0.90026 0.06375 0.97333 0.0
H70 H 0.85817 0.05197 0.05851 0.0
H71 H 0.86912 0.08017 0.07888 0.0
H72 H 0.88761 0.16459 0.18885 0.0
H73 H 0.90381 0.15305 0.16193 0.0
H74 H 0.895 0.18824 0.04799 0.0
H75 H 0.9115 0.17703 0.02148 0.0
H76 H 0.9931 0.17894 0.94474 0.0
H77 H 1.0034 0.15834 0.0713 0.0
H78 H 0.97492 0.14019 0.08332 0.0
H79 H 0.96461 0.16069 0.9564 0.0
C80 C 0.89062 0.80985 0.03011 0.0
C81 C 0.90129 0.82595 0.01926 0.0
C82 C 0.8791 0.83103 0.00788 0.0
C83 C 0.89558 0.83645 0.00829 0.0
C84 C 0.86852 0.81488 0.0188 0.0
C85 C 0.87422 0.80443 0.02968 0.0
U86 U 0.92253 0.7969 0.04707 0.0
O87 O 0.92423 0.78218 0.10677 0.0
O88 O 0.92051 0.77365 0.03027 0.0
C89 C 0.92135 0.77032 0.07694 0.0
C90 C 0.89613 0.79848 0.04291 0.0
C91 C 0.90988 0.75393 0.09459 0.0
C92 C 0.88698 0.7273 0.08196 0.0
C93 C 0.89659 0.74319 0.06644 0.0
C94 C 0.90346 0.73266 0.15457 0.0
C95 C 0.89045 0.72176 0.12585 0.0
C96 C 0.91306 0.7485 0.13904 0.0
C97 C 0.96715 0.82731 0.01842 0.0
C98 C 0.98917 0.82247 0.0023 0.0
C99 C 0.9945 0.84939 0.01707 0.0
C100 C 0.97817 0.84365 0.02295 0.0
C101 C 1.00025 0.8389 0.00666 0.0
C102 C 0.97277 0.81671 0.00827 0.0
C103 C 0.94993 0.82194 0.02225 0.0
O104 O 0.90126 0.79336 0.00624 0.0
O105 O 0.90495 0.80171 0.08285 0.0
O106 O 0.94395 0.81961 0.067 0.0
O107 O 0.94037 0.81107 0.99054 0.0
H108 H 0.91401 0.83041 0.01965 0.0
H109 H 0.90408 0.84887 0.00097 0.0
H110 H 0.85578 0.81028 0.01859 0.0
H111 H 0.86578 0.79206 0.03799 0.0
H112 H 0.87687 0.71932 0.05943 0.0
H113 H 0.89376 0.74697 0.03203 0.0
H114 H 0.90653 0.72881 0.18842 0.0
H115 H 0.92328 0.75644 0.1613 0.0
H116 H 0.99319 0.81406 -0.00564 0.0
H117 H 1.00261 0.86212 0.01955 0.0
H118 H 0.97411 0.85207 0.0303 0.0
H119 H 0.96451 0.80405 0.00451 0.0
C120 C 0.10166 0.23133 0.94655 0.0
C121 C 0.09696 0.22073 0.98684 0.0
C122 C 0.06888 0.21083 0.96756 0.0
C123 C 0.08074 0.21058 -0.0028 0.0
C124 C 0.07366 0.22121 0.92669 0.0
C125 C 0.08984 0.23135 0.91645 0.0
U126 U 0.14674 0.24496 0.93447 0.0
O127 O 0.16385 0.26081 0.87861 0.0
O128 O 0.16755 0.26788 0.95656 0.0
C129 C 0.17232 0.27209 0.91079 0.0
C130 C 0.11863 0.24306 0.93638 0.0
C131 C 0.17742 0.28888 0.89666 0.0
C132 C 0.1778 0.30868 0.83942 0.0
C133 C 0.17153 0.29271 0.85429 0.0
C134 C 0.19576 0.31732 0.90929 0.0
C135 C 0.19005 0.3212 0.86665 0.0
C136 C 0.18953 0.30139 0.92403 0.0
C137 C 0.16052 0.21386 0.96116 0.0
C138 C 0.18766 0.2185 0.96563 0.0
C139 C 0.16539 0.19165 0.97347 0.0
C140 C 0.15483 0.19749 0.96791 0.0
C141 C 0.18195 0.20203 0.97216 0.0
C142 C 0.17704 0.22436 0.96002 0.0
C143 C 0.14885 0.21945 0.95649 0.0
O144 O 0.12848 0.2478 0.97417 0.0
O145 O 0.12479 0.24072 0.89623 0.0
O146 O 0.14604 0.2227 0.91167 0.0
O147 O 0.14969 0.22978 0.98956 0.0
H148 H 0.1058 0.22038 0.01058 0.0
H149 H 0.07749 0.2025 0.02834 0.0
H150 H 0.06487 0.22174 0.90317 0.0
H151 H 0.09313 0.23944 0.8853 0.0
H152 H 0.17313 0.31125 0.80642 0.0
H153 H 0.16227 0.28338 0.83209 0.0
H154 H 0.20543 0.32658 0.93051 0.0
H155 H 0.1945 0.29882 0.95634 0.0
H156 H 0.20034 0.22682 0.96449 0.0
H157 H 0.16056 0.17898 0.97967 0.0
H158 H 0.14214 0.18919 0.96932 0.0
H159 H 0.18169 0.23705 0.95497 0.0
C160 C 0.82445 0.95476 0.93968 0.0
C161 C 0.83596 0.95955 0.97734 0.0
C162 C 0.84451 0.98764 0.96136 0.0
C163 C 0.84584 0.97583 0.98818 0.0
C164 C 0.83305 0.98274 0.92349 0.0
C165 C 0.82319 0.96652 0.91278 0.0
U166 U 0.81152 0.90968 0.92774 0.0
O167 O 0.78848 0.88869 0.94672 0.0
O168 O 0.7966 0.89271 0.8698 0.0
C169 C 0.78502 0.88394 0.90059 0.0
C170 C 0.81308 0.93772 0.92895 0.0
C171 C 0.76856 0.87869 0.88346 0.0
C172 C 0.74377 0.8795 0.88616 0.0
C173 C 0.75972 0.88564 0.90074 0.0
C174 C 0.74541 0.85965 0.83609 0.0
C175 C 0.73634 0.86627 0.85413 0.0
C176 C 0.76128 0.86577 0.85066 0.0
C177 C 0.84224 0.89577 0.95723 0.0
C178 C 0.83743 0.86878 0.97173 0.0
C179 C 0.86439 0.89056 0.96139 0.0
C180 C 0.85862 0.90117 0.95513 0.0
C181 C 0.8539 0.87421 0.9697 0.0
C182 C 0.83164 0.87945 0.96539 0.0
C183 C 0.83678 0.90758 0.95248 0.0
O184 O 0.81594 0.93171 0.88937 0.0
O185 O 0.80815 0.92779 0.96662 0.0
O186 O 0.8261 0.90653 0.98443 0.0
O187 O 0.83412 0.91081 0.90745 0.0
H188 H 0.83718 0.95072 -0.00127 0.0
H189 H 0.85453 0.9792 0.01762 0.0
H190 H 0.83138 0.99143 0.90292 0.0
H191 H 0.81432 0.96313 0.88389 0.0
H192 H 0.73726 0.88511 0.89996 0.0
H193 H 0.76507 0.89567 0.92589 0.0
H194 H 0.74009 0.84944 0.81161 0.0
H195 H 0.76782 0.86017 0.83692 0.0
H196 H 0.82903 0.85627 0.97804 0.0
H197 H 0.87714 0.89523 0.96075 0.0
H198 H 0.86703 0.91372 0.94929 0.0
H199 H 0.81894 0.87499 0.96721 0.0
C200 C 0.10104 0.87546 0.94912 0.0
C201 C 0.09575 0.88614 0.96185 0.0
C202 C 0.06839 0.864 0.96968 0.0
C203 C 0.07957 0.88046 0.97196 0.0
C204 C 0.07382 0.85343 0.95667 0.0
C205 C 0.08994 0.8591 0.94662 0.0
U206 U 0.14575 0.90756 0.938 0.0
O207 O 0.16683 0.90573 0.95916 0.0
O208 O 0.16311 0.90972 0.88167 0.0
C209 C 0.17192 0.9072 0.91347 0.0
C210 C 0.11797 0.88096 0.93819 0.0
C211 C 0.17793 0.89646 0.89785 0.0
C212 C 0.17505 0.87281 0.85584 0.0
C213 C 0.16845 0.88207 0.87251 0.0
C214 C 0.20055 0.89212 0.89022 0.0
C215 C 0.19126 0.87782 0.86415 0.0
C216 C 0.19397 0.90128 0.90685 0.0
C217 C 0.15918 0.9519 0.97031 0.0
C218 C 0.18256 0.97675 0.9447 0.0
C219 C 0.1666 0.97681 0.01318 0.0
C220 C 0.1565 0.96035 0.00759 0.0
C221 C 0.17964 0.98531 0.98143 0.0
C222 C 0.17242 0.96021 0.93914 0.0
C223 C 0.14748 0.9347 0.96364 0.0
O224 O 0.12399 0.89008 0.89902 0.0
O225 O 0.12776 0.88584 0.97611 0.0
O226 O 0.14815 0.92478 -0.00443 0.0
O227 O 0.14472 0.92916 0.91822 0.0
H228 H 0.10411 0.89883 0.9638 0.0
H229 H 0.07578 0.88898 0.9809 0.0
H230 H 0.06559 0.8407 0.95478 0.0
H231 H 0.09376 0.85064 0.93689 0.0
H232 H 0.1676 0.86198 0.83535 0.0
H233 H 0.15604 0.87812 0.86496 0.0
H234 H 0.21301 0.89627 0.89766 0.0
H235 H 0.20153 0.91234 0.92625 0.0
H236 H 0.19267 0.98285 0.92023 0.0
H237 H 0.16394 0.98299 0.04167 0.0
H238 H 0.14636 0.95423 0.03198 0.0
H239 H 0.17482 0.95397 0.91022 0.0
C240 C 0.91388 0.50001 0.36958 0.0
C241 C 0.89837 0.48964 0.35257 0.0
C242 C 0.89302 0.51185 0.34705 0.0
C243 C 0.88803 0.49551 0.34146 0.0
C244 C 0.90855 0.52212 0.36435 0.0
C245 C 0.91885 0.51626 0.37538 0.0
U246 U 0.92624 0.46758 0.38159 0.0
O247 O 0.9493 0.46946 0.36348 0.0
O248 O 0.94064 0.46475 0.43976 0.0
C249 C 0.95256 0.46805 0.40981 0.0
C250 C 0.92513 0.49432 0.38157 0.0
C251 C 0.96895 0.47935 0.42819 0.0
C252 C 0.99736 0.49701 0.41253 0.0
C253 C 0.98165 0.48795 0.3952 0.0
C254 C 0.98809 0.48938 0.49631 0.0
C255 C 1.00082 0.49756 0.46323 0.0
C256 C 0.9724 0.48033 0.47903 0.0
C257 C 0.89469 0.42362 0.34548 0.0
C258 C 0.89618 0.39923 0.35364 0.0
C259 C 0.87341 0.39842 0.31362 0.0
C260 C 0.87996 0.4148 0.32162 0.0
C261 C 0.88146 0.3904 0.32906 0.0
C262 C 0.90278 0.41574 0.36161 0.0
C263 C 0.90091 0.4409 0.35323 0.0
O264 O 0.92164 0.48494 0.4203 0.0
O265 O 0.93034 0.48959 0.3441 0.0
O266 O 0.91199 0.45073 0.32263 0.0
O267 O 0.90343 0.44603 0.39909 0.0
H268 H 0.89426 0.47704 0.34804 0.0
H269 H 0.87605 0.48721 0.32915 0.0
H270 H 0.91282 0.53475 0.36887 0.0
H271 H 0.93077 0.52447 0.38843 0.0
H272 H 1.00688 0.50313 0.38603 0.0
H273 H 0.97954 0.48735 0.35576 0.0
H274 H 0.99027 0.48979 0.53567 0.0
H275 H 0.963 0.47377 0.50555 0.0
H276 H 0.90264 0.39339 0.36614 0.0
H277 H 0.86189 0.39195 0.29577 0.0
H278 H 0.87343 0.4206 0.30928 0.0
H279 H 0.91415 0.42232 0.38029 0.0
C280 C 0.55678 0.42217 0.36518 0.0
C281 C 0.56615 0.4148 0.36839 0.0
C282 C 0.54349 0.38928 0.34248 0.0
C283 C 0.55956 0.39849 0.35714 0.0
C284 C 0.53429 0.39683 0.33894 0.0
C285 C 0.54085 0.41303 0.35019 0.0
U286 U 0.58947 0.46692 0.38141 0.0
O287 O 0.58774 0.4882 0.36204 0.0
O288 O 0.59115 0.4837 0.43934 0.0
C289 C 0.58857 0.49268 0.40827 0.0
C290 C 0.56293 0.43914 0.37825 0.0
C291 C 0.5774 0.49827 0.42353 0.0
C292 C 0.55878 0.49935 0.4821 0.0
C293 C 0.56775 0.4924 0.46588 0.0
C294 C 0.56858 0.51777 0.41332 0.0
C295 C 0.5594 0.51238 0.45663 0.0
C296 C 0.5775 0.51086 0.39717 0.0
C297 C 0.63387 0.48143 0.34925 0.0
C298 C 0.65925 0.50266 0.38109 0.0
C299 C 0.65796 0.49212 0.29922 0.0
C300 C 0.64162 0.48161 0.30527 0.0
C301 C 0.66703 0.50275 0.33708 0.0
C302 C 0.64285 0.49213 0.38711 0.0
C303 C 0.61678 0.46928 0.35534 0.0
O304 O 0.57197 0.44458 0.4178 0.0
O305 O 0.56794 0.44939 0.34148 0.0
O306 O 0.6068 0.46993 0.32366 0.0
O307 O 0.6111 0.46592 0.40056 0.0
H308 H 0.5785 0.42162 0.37968 0.0
H309 H 0.56705 0.39313 0.35946 0.0
H310 H 0.52188 0.39012 0.32816 0.0
H311 H 0.53338 0.41843 0.3476 0.0
H312 H 0.5518 0.49489 0.5155 0.0
H313 H 0.56742 0.48274 0.48715 0.0
H314 H 0.56905 0.52753 0.3922 0.0
H315 H 0.58483 0.51566 0.36452 0.0
H316 H 0.6659 0.51046 0.41138 0.0
H317 H 0.66351 0.49192 0.26477 0.0
H318 H 0.63503 0.47343 0.27562 0.0
H319 H 0.63727 0.49222 0.42163 0.0
C320 C 0.55811 0.14456 0.37339 0.0
C321 C 0.5673 0.15839 0.34525 0.0
C322 C 0.54642 0.1656 0.35109 0.0
C323 C 0.56151 0.16883 0.33425 0.0
C324 C 0.53741 0.15181 0.37975 0.0
C325 C 0.54318 0.14143 0.39066 0.0
U326 U 0.58925 0.13025 0.38579 0.0
O327 O 0.5906 0.11488 0.44379 0.0
O328 O 0.58613 0.10665 0.36702 0.0
C329 C 0.587 0.10297 0.41331 0.0
C330 C 0.56344 0.13293 0.38449 0.0
C331 C 0.57508 0.08664 0.43069 0.0
C332 C 0.55535 0.05881 0.4135 0.0
C333 C 0.56512 0.07459 0.39733 0.0
C334 C 0.56508 0.06674 0.49681 0.0
C335 C 0.55527 0.05465 0.46341 0.0
C336 C 0.57486 0.08249 0.48066 0.0
C337 C 0.63419 0.15906 0.35571 0.0
C338 C 0.6558 0.15873 0.31032 0.0
C339 C 0.66192 0.17645 0.38003 0.0
C340 C 0.64563 0.17079 0.38701 0.0
C341 C 0.66725 0.17057 0.34145 0.0
C342 C 0.63949 0.15305 0.31734 0.0
C343 C 0.61711 0.15456 0.36065 0.0
O344 O 0.5681 0.12771 0.34684 0.0
O345 O 0.57244 0.13577 0.42382 0.0
O346 O 0.61132 0.15235 0.40567 0.0
O347 O 0.60695 0.14426 0.32873 0.0
H348 H 0.57889 0.16109 0.33171 0.0
H349 H 0.56891 0.1795 0.31293 0.0
H350 H 0.52574 0.1489 0.39314 0.0
H351 H 0.53588 0.13081 0.41236 0.0
H352 H 0.54795 0.0498 0.38679 0.0
H353 H 0.56511 0.07723 0.35844 0.0
H354 H 0.56564 0.06393 0.53524 0.0
H355 H 0.58262 0.09135 0.50719 0.0
H356 H 0.65947 0.15418 0.27954 0.0
H357 H 0.67039 0.18553 0.40474 0.0
H358 H 0.64198 0.17585 0.41643 0.0
H359 H 0.63109 0.14421 0.29194 0.0
C360 C 0.76865 0.5647 0.28567 0.0
C361 C 0.75854 0.55357 0.25031 0.0
C362 C 0.73573 0.5442 0.3058 0.0
C363 C 0.74232 0.54341 0.26035 0.0
C364 C 0.7459 0.55508 0.34153 0.0
C365 C 0.76211 0.56525 0.3315 0.0
U366 U 0.81388 0.57933 0.26876 0.0
O367 O 0.83029 0.59497 0.21119 0.0
O368 O 0.83464 0.60259 0.28864 0.0
C369 C 0.83898 0.6065 0.2424 0.0
C370 C 0.78548 0.57674 0.27354 0.0
C371 C 0.84392 0.62316 0.22723 0.0
C372 C 0.84411 0.64244 0.16816 0.0
C373 C 0.83779 0.62662 0.18468 0.0
C374 C 0.86248 0.65168 0.23701 0.0
C375 C 0.85676 0.65515 0.19362 0.0
C376 C 0.85619 0.6359 0.25344 0.0
C377 C 0.82883 0.54909 0.29433 0.0
C378 C 0.85534 0.55373 0.31493 0.0
C379 C 0.8346 0.52724 0.29202 0.0
C380 C 0.82396 0.53297 0.28581 0.0
C381 C 0.85043 0.53751 0.30677 0.0
C382 C 0.84466 0.55948 0.30865 0.0
C383 C 0.81682 0.55431 0.29075 0.0
O384 O 0.79575 0.58198 0.31027 0.0
O385 O 0.7915 0.57458 0.23273 0.0
O386 O 0.81335 0.5571 0.24621 0.0
O387 O 0.81768 0.5647 0.32367 0.0
H388 H 0.76304 0.55291 0.21435 0.0
H389 H 0.73483 0.53523 0.23192 0.0
H390 H 0.74131 0.55579 0.37729 0.0
H391 H 0.76947 0.57376 0.35944 0.0
H392 H 0.83919 0.6447 0.13518 0.0
H393 H 0.82833 0.61711 0.16353 0.0
H394 H 0.87223 0.66114 0.25744 0.0
H395 H 0.86127 0.63362 0.28603 0.0
H396 H 0.86746 0.56197 0.32625 0.0
H397 H 0.83028 0.51463 0.28651 0.0
H398 H 0.81177 0.52469 0.27525 0.0
H399 H 0.84871 0.57197 0.31557 0.0
C400 C 0.48914 0.28768 0.28005 0.0
C401 C 0.50528 0.29379 0.2921 0.0
C402 C 0.50892 0.32067 0.30036 0.0
C403 C 0.51509 0.31016 0.3022 0.0
C404 C 0.49274 0.31437 0.28843 0.0
C405 C 0.483 0.29811 0.27848 0.0
U406 U 0.47721 0.2428 0.26561 0.0
O407 O 0.45409 0.22164 0.2834 0.0
O408 O 0.46253 0.22616 0.20691 0.0
C409 C 0.45069 0.21734 0.2369 0.0
C410 C 0.47836 0.27065 0.26822 0.0
C411 C 0.43422 0.21238 0.2194 0.0
C412 C 0.40559 0.19921 0.23546 0.0
C413 C 0.42132 0.20583 0.25258 0.0
C414 C 0.41521 0.20577 0.15163 0.0
C415 C 0.40231 0.19877 0.18467 0.0
C416 C 0.43093 0.21239 0.16871 0.0
C417 C 0.50755 0.22839 0.29513 0.0
C418 C 0.50469 0.2035 0.32775 0.0
C419 C 0.5285 0.22168 0.28293 0.0
C420 C 0.52248 0.23208 0.27608 0.0
C421 C 0.51973 0.20729 0.30909 0.0
C422 C 0.49863 0.2139 0.32075 0.0
C423 C 0.50226 0.24039 0.29077 0.0
O424 O 0.4818 0.26507 0.22875 0.0
O425 O 0.47351 0.26058 0.30547 0.0
O426 O 0.49157 0.23945 0.32256 0.0
O427 O 0.49991 0.244 0.24585 0.0
H428 H 0.51028 0.28595 0.29335 0.0
H429 H 0.52754 0.31464 0.31059 0.0
H430 H 0.48755 0.32205 0.28709 0.0
H431 H 0.47059 0.29365 0.26934 0.0
H432 H 0.39595 0.19389 0.26191 0.0
H433 H 0.42333 0.20536 0.29176 0.0
H434 H 0.41315 0.20592 0.11236 0.0
H435 H 0.44049 0.21716 0.1419 0.0
H436 H 0.49761 0.19249 0.34795 0.0
H437 H 0.54025 0.22514 0.26894 0.0
H438 H 0.52968 0.24324 0.25672 0.0
H439 H 0.4871 0.21072 0.33602 0.0
C440 C 0.76835 0.21071 0.27999 0.0
C441 C 0.7635 0.21639 0.32037 0.0
C442 C 0.7355 0.19777 0.30145 0.0
C443 C 0.74723 0.21001 0.33089 0.0
C444 C 0.74045 0.19244 0.26041 0.0
C445 C 0.75665 0.1988 0.24997 0.0
U446 U 0.81329 0.24266 0.26621 0.0
O447 O 0.83439 0.24053 0.28412 0.0
O448 O 0.82983 0.24444 0.20743 0.0
C449 C 0.83867 0.24142 0.23761 0.0
C450 C 0.78536 0.21631 0.26922 0.0
C451 C 0.84365 0.22993 0.21997 0.0
C452 C 0.85079 0.20932 0.23557 0.0
C453 C 0.8443 0.2187 0.25174 0.0
C454 C 0.85585 0.22197 0.15541 0.0
C455 C 0.8568 0.21095 0.1873 0.0
C456 C 0.8494 0.23133 0.17153 0.0
C457 C 0.82688 0.28759 0.29188 0.0
C458 C 0.85203 0.31056 0.3179 0.0
C459 C 0.83183 0.31467 0.27905 0.0
C460 C 0.82193 0.29815 0.27472 0.0
C461 C 0.84703 0.32113 0.30057 0.0
C462 C 0.84207 0.29393 0.31345 0.0
C463 C 0.81544 0.27018 0.2892 0.0
O464 O 0.79121 0.22493 0.22906 0.0
O465 O 0.79539 0.22146 0.30659 0.0
O466 O 0.81695 0.26086 0.32169 0.0
O467 O 0.81171 0.26389 0.24482 0.0
H468 H 0.77226 0.2256 0.34412 0.0
H469 H 0.74383 0.21441 0.36267 0.0
H470 H 0.73177 0.18335 0.2362 0.0
H471 H 0.76006 0.19425 0.21853 0.0
H472 H 0.8516 0.20119 0.26147 0.0
H473 H 0.8402 0.21742 0.28953 0.0
H474 H 0.8603 0.22351 0.11797 0.0
H475 H 0.84928 0.24 0.14632 0.0
H476 H 0.86366 0.31515 0.33474 0.0
H477 H 0.82741 0.32241 0.26646 0.0
H478 H 0.8102 0.29358 0.2586 0.0
H479 H 0.84619 0.28608 0.32726 0.0
C480 C 0.57953 0.8318 0.70799 0.0
C481 C 0.56914 0.8259 0.6673 0.0
C482 C 0.55845 0.84351 0.68651 0.0
C483 C 0.55874 0.83172 0.65662 0.0
C484 C 0.5688 0.84926 0.72737 0.0
C485 C 0.57919 0.84347 0.73794 0.0
U486 U 0.59388 0.80073 0.71827 0.0
O487 O 0.61733 0.80364 0.69978 0.0
O488 O 0.6088 0.79857 0.77624 0.0
C489 C 0.6207 0.80216 0.74591 0.0
C490 C 0.59135 0.82667 0.71896 0.0
C491 C 0.63697 0.81361 0.76429 0.0
C492 C 0.66316 0.83734 0.75451 0.0
C493 C 0.64735 0.82769 0.73862 0.0
C494 C 0.65844 0.81922 0.82243 0.0
C495 C 0.66894 0.83319 0.79652 0.0
C496 C 0.64269 0.80959 0.80653 0.0
C497 C 0.564 0.75621 0.68337 0.0
C498 C 0.56096 0.73084 0.71192 0.0
C499 C 0.54738 0.73165 0.63777 0.0
C500 C 0.55401 0.74817 0.64325 0.0
C501 C 0.55052 0.72269 0.67247 0.0
C502 C 0.5676 0.74743 0.7174 0.0
C503 C 0.56929 0.77339 0.69042 0.0
O504 O 0.5885 0.81746 0.75781 0.0
O505 O 0.59691 0.8224 0.68125 0.0
O506 O 0.57999 0.78353 0.65941 0.0
O507 O 0.57157 0.77873 0.73604 0.0
H508 H 0.56919 0.81694 0.64341 0.0
H509 H 0.55115 0.82722 0.62435 0.0
H510 H 0.56884 0.85824 0.75136 0.0
H511 H 0.58711 0.84825 0.76943 0.0
H512 H 0.67093 0.84801 0.73369 0.0
H513 H 0.64336 0.83111 0.70576 0.0
H514 H 0.66255 0.81542 0.85415 0.0
H515 H 0.63506 0.7987 0.82662 0.0
H516 H 0.56391 0.72438 0.73875 0.0
H517 H 0.53937 0.7258 0.6071 0.0
H518 H 0.55097 0.75464 0.61666 0.0
H519 H 0.57532 0.75332 0.74864 0.0
C520 C 0.22279 0.75505 0.70739 0.0
C521 C 0.2318 0.75022 0.67918 0.0
C522 C 0.21034 0.72238 0.68328 0.0
C523 C 0.22564 0.73402 0.66728 0.0
C524 C 0.20155 0.72733 0.71225 0.0
C525 C 0.2077 0.74345 0.72406 0.0
U526 U 0.25488 0.8 0.71823 0.0
O527 O 0.25247 0.82097 0.70045 0.0
O528 O 0.25761 0.81713 0.7766 0.0
C529 C 0.25447 0.82591 0.74649 0.0
C530 C 0.22851 0.77203 0.71903 0.0
C531 C 0.24375 0.83156 0.76519 0.0
C532 C 0.21801 0.83043 0.7695 0.0
C533 C 0.22742 0.8239 0.75373 0.0
C534 C 0.24107 0.85213 0.80885 0.0
C535 C 0.22479 0.84474 0.79688 0.0
C536 C 0.2504 0.84561 0.79326 0.0
C537 C 0.29896 0.81417 0.68225 0.0
C538 C 0.32391 0.83699 0.70999 0.0
C539 C 0.32349 0.82281 0.63597 0.0
C540 C 0.30711 0.81248 0.64203 0.0
C541 C 0.33217 0.83508 0.67019 0.0
C542 C 0.30748 0.82664 0.716 0.0
C543 C 0.28188 0.8022 0.68923 0.0
O544 O 0.23797 0.77796 0.75749 0.0
O545 O 0.23297 0.78195 0.6814 0.0
O546 O 0.27171 0.80298 0.65869 0.0
O547 O 0.27662 0.79896 0.73489 0.0
H548 H 0.24353 0.75896 0.66613 0.0
H549 H 0.23288 0.73061 0.64575 0.0
H550 H 0.18973 0.71874 0.72499 0.0
H551 H 0.20053 0.74691 0.74584 0.0
H552 H 0.20557 0.82453 0.75908 0.0
H553 H 0.22201 0.81307 0.73194 0.0
H554 H 0.24665 0.86305 0.83019 0.0
H555 H 0.26296 0.85175 0.80251 0.0
H556 H 0.33015 0.84652 0.73645 0.0
H557 H 0.32944 0.82095 0.60502 0.0
H558 H 0.30084 0.80293 0.61562 0.0
H559 H 0.30149 0.82828 0.74726 0.0
C560 C 0.22548 0.47766 0.70554 0.0
C561 C 0.23016 0.48689 0.66209 0.0
C562 C 0.21358 0.49857 0.68328 0.0
C563 C 0.22425 0.4972 0.65106 0.0
C564 C 0.20908 0.48942 0.72689 0.0
C565 C 0.21496 0.47912 0.73783 0.0
U566 U 0.25612 0.46274 0.71644 0.0
O567 O 0.25817 0.44793 0.77512 0.0
O568 O 0.25275 0.43897 0.69914 0.0
C569 C 0.2543 0.43578 0.74543 0.0
C570 C 0.23052 0.46576 0.71697 0.0
C571 C 0.24281 0.41962 0.76477 0.0
C572 C 0.21989 0.39284 0.75449 0.0
C573 C 0.22949 0.40855 0.73734 0.0
C574 C 0.23654 0.39899 0.82703 0.0
C575 C 0.22334 0.38784 0.79948 0.0
C576 C 0.24612 0.41464 0.80989 0.0
C577 C 0.30063 0.4917 0.68019 0.0
C578 C 0.32665 0.49759 0.71185 0.0
C579 C 0.32418 0.50451 0.62767 0.0
C580 C 0.3078 0.49822 0.63452 0.0
C581 C 0.3339 0.50458 0.66652 0.0
C582 C 0.31021 0.49128 0.71871 0.0
C583 C 0.28359 0.48688 0.68749 0.0
O584 O 0.23455 0.45987 0.67954 0.0
O585 O 0.23979 0.46871 0.75568 0.0
O586 O 0.27833 0.485 0.73313 0.0
O587 O 0.27321 0.47616 0.65696 0.0
H588 H 0.23819 0.48596 0.6363 0.0
H589 H 0.22775 0.50384 0.61672 0.0
H590 H 0.20098 0.49024 0.75269 0.0
H591 H 0.2111 0.4721 0.77144 0.0
H592 H 0.20982 0.38456 0.73236 0.0
H593 H 0.22664 0.41191 0.70222 0.0
H594 H 0.2398 0.39549 0.86119 0.0
H595 H 0.25645 0.42279 0.83143 0.0
H596 H 0.33377 0.4974 0.74247 0.0
H597 H 0.32927 0.50939 0.59189 0.0
H598 H 0.30074 0.49876 0.60422 0.0
H599 H 0.30509 0.48638 0.75445 0.0
C600 C 0.434 0.89655 0.62181 0.0
C601 C 0.42469 0.8836 0.5903 0.0
C602 C 0.40107 0.8758 0.64099 0.0
C603 C 0.40845 0.87338 0.59978 0.0
C604 C 0.41042 0.88864 0.67274 0.0
C605 C 0.42664 0.89888 0.66321 0.0
U606 U 0.47948 0.91189 0.60565 0.0
O607 O 0.49574 0.92767 0.54795 0.0
O608 O 0.4998 0.93544 0.62522 0.0
C609 C 0.50415 0.93937 0.57898 0.0
C610 C 0.45079 0.90863 0.60966 0.0
C611 C 0.50865 0.95592 0.56329 0.0
C612 C 0.51278 0.97525 0.49838 0.0
C613 C 0.50653 0.9594 0.51423 0.0
C614 C 0.52319 0.98457 0.58029 0.0
C615 C 0.52132 0.98806 0.53107 0.0
C616 C 0.51698 0.96873 0.59612 0.0
C617 C 0.49605 0.88296 0.63271 0.0
C618 C 0.51739 0.88214 0.67874 0.0
C619 C 0.50639 0.86568 0.60616 0.0
C620 C 0.496 0.87173 0.59958 0.0
C621 C 0.51699 0.87055 0.64641 0.0
C622 C 0.50701 0.88821 0.67214 0.0
C623 C 0.4835 0.88757 0.62866 0.0
O624 O 0.46098 0.9141 0.64657 0.0
O625 O 0.45695 0.90642 0.56922 0.0
O626 O 0.47972 0.88998 0.58401 0.0
O627 O 0.48367 0.89771 0.66133 0.0
H628 H 0.42986 0.8815 0.55774 0.0
H629 H 0.4016 0.8636 0.57463 0.0
H630 H 0.40509 0.89108 0.70419 0.0
H631 H 0.43337 0.9089 0.68767 0.0
H632 H 0.51111 0.97751 0.46023 0.0
H633 H 0.50041 0.9499 0.4876 0.0
H634 H 0.53002 0.99411 0.60621 0.0
H635 H 0.51917 0.96655 0.63381 0.0
H636 H 0.52539 0.88614 0.71017 0.0
H637 H 0.50599 0.85705 0.5799 0.0
H638 H 0.48764 0.86732 0.56909 0.0
H639 H 0.50731 0.89671 0.69875 0.0
C640 C 0.15781 0.62147 0.61002 0.0
C641 C 0.16891 0.62639 0.64893 0.0
C642 C 0.17767 0.65444 0.63117 0.0
C643 C 0.1787 0.64271 0.65947 0.0
C644 C 0.16668 0.64941 0.59192 0.0
C645 C 0.15692 0.63316 0.58148 0.0
U646 U 0.14381 0.57598 0.59941 0.0
O647 O 0.12068 0.55551 0.62112 0.0
O648 O 0.1279 0.55892 0.54339 0.0
C649 C 0.1165 0.55065 0.57536 0.0
C650 C 0.14624 0.60441 0.60021 0.0
C651 C 0.0998 0.54564 0.56038 0.0
C652 C 0.07972 0.53885 0.49579 0.0
C653 C 0.09572 0.54577 0.51045 0.0
C654 C 0.07145 0.53185 0.58062 0.0
C655 C 0.06736 0.53145 0.53053 0.0
C656 C 0.08743 0.53876 0.59529 0.0
C657 C 0.1733 0.56026 0.62751 0.0
C658 C 0.17551 0.54019 0.67674 0.0
C659 C 0.18957 0.54897 0.59919 0.0
C660 C 0.18341 0.55926 0.59219 0.0
C661 C 0.18596 0.53952 0.64202 0.0
C662 C 0.16933 0.55047 0.66973 0.0
C663 C 0.16853 0.5727 0.62243 0.0
O664 O 0.14866 0.59809 0.56054 0.0
O665 O 0.14141 0.59466 0.63832 0.0
O666 O 0.15856 0.57274 0.65527 0.0
O667 O 0.16575 0.57596 0.57752 0.0
H668 H 0.16983 0.61764 0.67167 0.0
H669 H 0.18703 0.64617 0.68997 0.0
H670 H 0.16524 0.65803 0.57015 0.0
H671 H 0.14834 0.62968 0.55166 0.0
H672 H 0.07699 0.53873 0.45691 0.0
H673 H 0.10486 0.55075 0.48233 0.0
H674 H 0.06226 0.52655 0.60852 0.0
H675 H 0.09006 0.53826 0.63395 0.0
H676 H 0.17251 0.53311 0.7102 0.0
H677 H 0.1973 0.54852 0.57116 0.0
H678 H 0.18685 0.56672 0.5595 0.0
H679 H 0.16175 0.55101 0.6981 0.0
C680 C 0.43526 0.54306 0.61521 0.0
C681 C 0.43035 0.55303 0.63741 0.0
C682 C 0.40255 0.53153 0.63489 0.0
C683 C 0.41414 0.5473 0.64726 0.0
C684 C 0.40762 0.52164 0.61296 0.0
C685 C 0.42376 0.52735 0.6032 0.0
U686 U 0.48017 0.57492 0.60305 0.0
O687 O 0.50107 0.57244 0.6208 0.0
O688 O 0.49693 0.57711 0.54441 0.0
C689 C 0.50567 0.57392 0.57448 0.0
C690 C 0.45218 0.54858 0.60409 0.0
C691 C 0.51111 0.56295 0.55581 0.0
C692 C 0.51629 0.5408 0.56688 0.0
C693 C 0.50918 0.54963 0.58295 0.0
C694 C 0.52695 0.5581 0.49574 0.0
C695 C 0.52561 0.5452 0.5237 0.0
C696 C 0.51986 0.56688 0.51169 0.0
C697 C 0.49494 0.61976 0.63303 0.0
C698 C 0.51617 0.64212 0.6784 0.0
C699 C 0.50435 0.64726 0.60701 0.0
C700 C 0.4943 0.63081 0.60053 0.0
C701 C 0.51522 0.65316 0.64653 0.0
C702 C 0.50612 0.62562 0.67185 0.0
C703 C 0.48283 0.60248 0.62869 0.0
O704 O 0.4581 0.55769 0.56487 0.0
O705 O 0.46208 0.55341 0.64175 0.0
O706 O 0.4836 0.59253 0.6604 0.0
O707 O 0.4791 0.59658 0.58379 0.0
H708 H 0.43903 0.56518 0.64719 0.0
H709 H 0.41071 0.55516 0.66505 0.0
H710 H 0.39905 0.50949 0.60271 0.0
H711 H 0.42728 0.51945 0.58604 0.0
H712 H 0.51499 0.53089 0.58916 0.0
H713 H 0.50254 0.54629 0.6172 0.0
H714 H 0.53374 0.56159 0.46177 0.0
H715 H 0.5216 0.57709 0.49008 0.0
H716 H 0.5246 0.64623 0.7087 0.0
H717 H 0.50323 0.65541 0.58194 0.0
H718 H 0.48568 0.62673 0.5707 0.0
H719 H 0.50693 0.61751 0.69784 0.0
C720 C 0.20362 0.02666 0.0398 0.0
C721 C 0.20741 0.03715 -0.0006 0.0
C722 C 0.19504 1.00999 0.0335 0.0
C723 C 0.18984 1.00305 0.9865 0.0
H724 H 0.20725 0.03137 0.07677 0.0
H725 H 0.19237 1.00247 0.06585 0.0
S726 S 0.19603 0.02517 0.8688 0.0
N727 N 0.20494 0.0393 0.91073 0.0
N728 N 0.18885 1.00809 0.89894 0.0
C729 C 0.19369 1.0134 0.9457 0.0
C730 C 0.20244 0.03038 0.95212 0.0
C731 C 1.02432 0.18197 0.95054 0.0
C732 C 1.01803 0.18074 -0.00175 0.0
C733 C 0.0407 0.19158 0.9411 0.0
C734 C 0.05155 0.2004 0.97894 0.0
H735 H 1.01654 0.17526 0.92026 0.0
H736 H 0.04494 0.19198 0.90385 0.0
S737 S 0.04108 0.2024 0.10951 0.0
N738 N 1.02391 0.18988 0.08327 0.0
N739 N 0.05461 0.20791 0.06558 0.0
C740 C 0.0454 0.19943 0.02671 0.0
C741 C 1.0287 0.18964 0.03633 0.0
C742 C 0.861 0.8421 0.02735 0.0
C743 C 0.87282 0.84211 -0.00297 0.0
C744 C 0.85482 0.85231 0.01793 0.0
C745 C 0.8602 0.86301 0.97776 0.0
H746 H 0.85662 0.83427 0.05917 0.0
H747 H 0.84597 0.85203 0.04291 0.0
S748 S 0.88988 0.86674 0.88436 0.0
N749 N 0.88892 0.8531 0.92328 0.0
N750 N 0.87736 0.87224 0.90559 0.0
C751 C 0.8718 0.86294 0.9466 0.0
C752 C 0.87809 0.85254 0.95622 0.0
C753 C 0.86359 0.0263 0.03613 0.0
C754 C 0.87095 0.0383 -8e-05 0.0
C755 C 0.85557 1.01 0.0236 0.0
C756 C 0.85441 1.00497 0.97423 0.0
H757 H 0.86389 0.02953 0.07455 0.0
H758 H 0.84979 1.00128 0.05271 0.0
S759 S 0.87219 0.03148 0.86552 0.0
N760 N 0.87687 0.04388 0.91255 0.0
N761 N 0.86208 1.01335 0.88921 0.0
C762 C 0.86208 1.01682 0.93782 0.0
C763 C 0.87029 0.03342 0.95059 0.0
C764 C 0.03934 0.84646 0.9484 0.0
C765 C 0.05109 0.85776 0.98016 0.0
C766 C 1.02301 0.84031 0.95752 0.0
C767 C 1.01769 0.84518 -0.00118 0.0
H768 H 0.04279 0.84249 0.91572 0.0
H769 H 1.01449 0.83187 0.93146 0.0
S770 S 0.04347 0.87335 0.09594 0.0
N771 N 0.05613 0.8728 0.05633 0.0
N772 N 1.02554 0.86129 0.07342 0.0
C773 C 1.02929 0.85626 0.03135 0.0
C774 C 0.04592 0.86253 0.02205 0.0
C775 C 0.21616 0.19679 0.02108 0.0
C776 C 0.21413 0.18307 -0.00376 0.0
C777 C 0.2059 0.20295 0.01259 0.0
C778 C 0.19315 0.19568 0.97891 0.0
H779 H 0.22562 0.20268 0.04796 0.0
H780 H 0.20779 0.21333 0.03336 0.0
S781 S 0.18356 0.16047 0.9007 0.0
N782 N 0.19897 0.16306 0.93408 0.0
N783 N 0.17975 0.1746 0.91814 0.0
C784 C 0.19118 0.18216 0.95307 0.0
C785 C 0.20163 0.17588 0.96174 0.0
C786 C 0.86423 0.34567 0.35182 0.0
C787 C 0.85728 0.33884 0.30595 0.0
C788 C 0.87254 0.36235 0.3587 0.0
C789 C 0.87421 0.37286 0.31998 0.0
H790 H 0.86274 0.33806 0.38316 0.0
H791 H 0.87715 0.36703 0.39508 0.0
S792 S 0.86038 0.36116 0.19085 0.0
N793 N 0.85418 0.34403 0.21994 0.0
N794 N 0.86969 0.3752 0.2328 0.0
C795 C 0.86802 0.36619 0.27337 0.0
C796 C 0.8596 0.34926 0.26639 0.0
C797 C 0.69407 0.50754 0.31134 0.0
C798 C 0.6846 0.51355 0.33067 0.0
C799 C 0.71052 0.51745 0.30382 0.0
C800 C 0.71827 0.53383 0.31536 0.0
H801 H 0.68874 0.49499 0.30219 0.0
H802 H 0.71726 0.51219 0.28912 0.0
S803 S 0.69879 0.55581 0.36379 0.0
N804 N 0.68416 0.53717 0.35924 0.0
N805 N 0.71498 0.55575 0.34519 0.0
C806 C 0.70893 0.54003 0.33454 0.0
C807 C 0.69217 0.52993 0.34217 0.0
C808 C 0.53284 0.18095 0.37667 0.0
C809 C 0.53995 0.17646 0.33933 0.0
C810 C 0.52627 0.19077 0.36652 0.0
C811 C 0.52653 0.19658 0.31856 0.0
H812 H 0.53246 0.17695 0.4143 0.0
H813 H 0.52114 0.19403 0.3967 0.0
S814 S 0.5426 0.1874 0.20677 0.0
N815 N 0.54609 0.17798 0.25183 0.0
N816 N 0.53383 0.19644 0.23282 0.0
C817 C 0.53346 0.19207 0.28075 0.0
C818 C 0.54014 0.18205 0.29109 0.0
C819 C 0.52657 0.36572 0.28806 0.0
C820 C 0.53609 0.37187 0.33063 0.0
C821 C 0.51828 0.34927 0.278 0.0
C822 C 0.51911 0.33818 0.31001 0.0
H823 H 0.52536 0.37368 0.26243 0.0
H824 H 0.51099 0.34519 0.24499 0.0
S825 S 0.54227 0.34799 0.42671 0.0
N826 N 0.54589 0.36548 0.40507 0.0
N827 N 0.53033 0.3346 0.38612 0.0
C828 C 0.52889 0.34418 0.35212 0.0
C829 C 0.53736 0.36098 0.36242 0.0
C830 C 0.6952 0.19383 0.33286 0.0
C831 C 0.68471 0.17719 0.33269 0.0
C832 C 0.71157 0.20037 0.3234 0.0
C833 C 0.71816 0.19056 0.31324 0.0
H834 H 0.69068 0.20191 0.33942 0.0
H835 H 0.71906 0.21323 0.32302 0.0
S836 S 0.69622 0.14623 0.31357 0.0
N837 N 0.68241 0.15106 0.32502 0.0
N838 N 0.71304 0.16329 0.30722 0.0
C839 C 0.70788 0.1739 0.31416 0.0
C840 C 0.69122 0.16725 0.32382 0.0
C841 C 0.88069 0.52867 0.369 0.0
C842 C 0.88212 0.51828 0.33563 0.0
C843 C 0.87062 0.53497 0.35912 0.0
C844 C 0.86154 0.53116 0.31541 0.0
H845 H 0.88724 0.5318 0.4035 0.0
H846 H 0.86973 0.54267 0.38643 0.0
S847 S 0.86207 0.5057 0.21373 0.0
N848 N 0.87428 0.50527 0.25559 0.0
N849 N 0.85542 0.51707 0.23705 0.0
C850 C 0.86307 0.52102 0.2813 0.0
C851 C 0.87332 0.51459 0.29139 0.0
C852 C 0.54166 0.69781 0.62157 0.0
C853 C 0.54248 0.70489 0.66776 0.0
C854 C 0.53316 0.68115 0.6153 0.0
C855 C 0.52511 0.67078 0.65495 0.0
H856 H 0.54756 0.70524 0.58979 0.0
H857 H 0.53282 0.67633 0.57894 0.0
S858 S 0.52288 0.68316 0.78303 0.0
N859 N 0.53409 0.70012 0.75361 0.0
N860 N 0.51821 0.6689 0.7419 0.0
C861 C 0.52596 0.67768 0.70146 0.0
C862 C 0.5346 0.69466 0.70784 0.0
C863 C 0.3727 0.86193 0.6105 0.0
C864 C 0.38356 0.86537 0.64959 0.0
C865 C 0.35619 0.85231 0.6176 0.0
C866 C 0.34978 0.84568 0.66412 0.0
H867 H 0.37698 0.86689 0.57412 0.0
H868 H 0.34835 0.85015 0.58638 0.0
S869 S 0.37311 0.85 0.77781 0.0
N870 N 0.38671 0.86071 0.73608 0.0
N871 N 0.35577 0.84265 0.74937 0.0
C872 C 0.36052 0.84891 0.70345 0.0
C873 C 0.37734 0.85872 0.69621 0.0
C874 C 0.18377 0.51333 0.66717 0.0
C875 C 0.19325 0.52922 0.65109 0.0
C876 C 0.1904 0.50354 0.67703 0.0
C877 C 0.20683 0.50919 0.67136 0.0
H878 H 0.17106 0.50836 0.67187 0.0
H879 H 0.18254 0.49137 0.68891 0.0
S880 S 0.23709 0.55023 0.63366 0.0
N881 N 0.2201 0.55036 0.63214 0.0
N882 N 0.23251 0.53201 0.65065 0.0
C883 C 0.21646 0.52508 0.65557 0.0
C884 C 0.20971 0.53506 0.6455 0.0
C885 C 0.18783 0.67683 0.69316 0.0
C886 C 0.1873 0.67179 0.64407 0.0
C887 C 0.19558 0.69313 0.70558 0.0
C888 C 0.20328 0.70513 0.66957 0.0
H889 H 0.18176 0.66812 0.72206 0.0
H890 H 0.19539 0.69637 0.74375 0.0
S891 S 0.20619 0.69831 0.53606 0.0
N892 N 0.19592 0.68018 0.55963 0.0
N893 N 0.21021 0.71072 0.58275 0.0
C894 C 0.20325 0.70025 0.62058 0.0
C895 C 0.19531 0.68364 0.60791 0.0
C896 C 0.37586 0.51013 0.66644 0.0
C897 C 0.38519 0.52526 0.64449 0.0
C898 C 0.35941 0.50366 0.67413 0.0
C899 C 0.35153 0.51196 0.65974 0.0
H900 H 0.38132 0.5032 0.67783 0.0
H901 H 0.35276 0.49191 0.69063 0.0
S902 S 0.37046 0.55215 0.60178 0.0
N903 N 0.38523 0.5484 0.6089 0.0
N904 N 0.35449 0.53642 0.62405 0.0
C905 C 0.36075 0.52719 0.63836 0.0
C906 C 0.3775 0.53379 0.63069 0.0
C907 C 0.54366 0.87319 0.66656 0.0
C908 C 0.52739 0.86337 0.65537 0.0
C909 C 0.55357 0.86669 0.67612 0.0
C910 C 0.54767 0.85008 0.67501 0.0
H911 H 0.54881 0.88604 0.66762 0.0
H912 H 0.56602 0.87479 0.68413 0.0
S913 S 0.50571 0.81906 0.65126 0.0
N914 N 0.50569 0.83609 0.64605 0.0
N915 N 0.52427 0.82394 0.66399 0.0
C916 C 0.53141 0.84012 0.66418 0.0
C917 C 0.52131 0.84674 0.65441 0.0
C918 C 0.358 0.18541 0.17219 0.0
C919 C 0.35286 0.17424 0.13335 0.0
C920 C 0.37397 0.19338 0.18827 0.0
C921 C 0.38548 0.19051 0.16621 0.0
H922 H 0.34963 0.18809 0.19019 0.0
H923 H 0.37734 0.20193 0.21809 0.0
S924 S 0.3779 0.16132 0.06621 0.0
N925 N 0.36046 0.16007 0.07526 0.0
N926 N 0.39031 0.17496 0.10532 0.0
C927 C 0.38044 0.17924 0.12771 0.0
C928 C 0.36421 0.17114 0.11136 0.0
C929 C 0.87958 0.20998 0.14607 0.0
C930 C 0.86484 0.20192 0.17075 0.0
C931 C 0.88749 0.20193 0.13006 0.0
C932 C 0.88105 0.18542 0.13796 0.0
H933 H 0.88519 0.22272 0.13959 0.0
H934 H 0.89889 0.20878 0.1119 0.0
S935 S 0.84229 0.15848 0.19785 0.0
N936 N 0.84381 0.17627 0.20044 0.0
N937 N 0.85866 0.16116 0.17041 0.0
C938 C 0.86627 0.17716 0.16228 0.0
C939 C 0.85819 0.18539 0.17862 0.0
C940 C 0.86776 0.68467 0.20694 0.0
C941 C 0.86439 0.67195 0.1746 0.0
C942 C 0.87584 0.70063 0.1907 0.0
C943 C 0.88092 0.70462 0.14137 0.0
H944 H 0.86418 0.68227 0.2453 0.0
H945 H 0.87819 0.70996 0.21713 0.0
S946 S 0.87582 0.67591 0.04237 0.0
N947 N 0.86723 0.66455 0.09109 0.0
N948 N 0.88235 0.69444 0.06068 0.0
C949 C 0.87753 0.69201 0.10855 0.0
C950 C 0.8693 0.67575 0.1251 0.0
C951 C 0.20223 0.3422 0.80001 0.0
C952 C 0.19741 0.33818 0.84953 0.0
C953 C 0.21022 0.35819 0.7839 0.0
C954 C 0.21373 0.37087 0.81659 0.0
H955 H 0.20025 0.33294 0.77376 0.0
H956 H 0.2141 0.36066 0.74582 0.0
S957 S 0.2019 0.36668 0.94847 0.0
N958 N 0.19553 0.34819 0.93003 0.0
N959 N 0.21047 0.37812 0.89986 0.0
C960 C 0.20845 0.36696 0.86574 0.0
C961 C 0.20033 0.3507 0.88213 0.0
C962 C 0.71439 0.85501 0.79036 0.0
C963 C 0.71913 0.85902 0.83998 0.0
C964 C 0.69824 0.84716 0.7765 0.0
C965 C 0.68607 0.84282 0.8117 0.0
H966 H 0.72326 0.85783 0.76193 0.0
H967 H 0.69524 0.84402 0.73803 0.0
S968 S 0.69202 0.85111 0.94622 0.0
N969 N 0.71022 0.85835 0.92425 0.0
N970 N 0.67998 0.84386 0.89817 0.0
C971 C 0.69065 0.8471 0.86126 0.0
C972 C 0.70711 0.85515 0.87536 0.0
C973 C 0.22159 0.86895 0.80383 0.0
C974 C 0.2153 0.85246 0.81169 0.0
C975 C 0.21356 0.87686 0.81989 0.0
C976 C 0.19884 0.86869 0.84462 0.0
H977 H 0.2329 0.87585 0.78519 0.0
H978 H 0.21899 0.88956 0.81302 0.0
S979 S 0.17727 0.82549 0.87526 0.0
N980 N 0.19342 0.82822 0.84616 0.0
N981 N 0.17833 0.8431 0.87636 0.0
C982 C 0.19225 0.85214 0.852 0.0
C983 C 0.20046 0.84405 0.83557 0.0
C984 C 0.04442 0.52987 0.48108 0.0
C985 C 0.05029 0.52276 0.51432 0.0
C986 C 1.02846 0.52173 0.46492 0.0
C987 C 1.0177 0.50614 0.48131 0.0
H988 H 0.05219 0.54188 0.46772 0.0
H989 H 1.02448 0.52776 0.43969 0.0
S990 S 1.02747 0.48157 0.56444 0.0
N991 N 0.04425 0.49877 0.5604 0.0
N992 N 1.01443 0.48357 0.5302 0.0
C993 C 1.0235 0.49882 0.51391 0.0
C994 C 0.03971 0.50709 0.53034 0.0
C995 C 0.53481 0.51217 0.48915 0.0
C996 C 0.55101 0.52076 0.47574 0.0
C997 C 0.52668 0.52006 0.50527 0.0
C998 C 0.53444 0.53684 0.50858 0.0
H999 H 0.52828 0.49928 0.48616 0.0
H1000 H 0.51415 0.513 0.51419 0.0
S1001 S 0.57729 0.56468 0.48431 0.0
N1002 N 0.57481 0.54689 0.4714 0.0
N1003 N 0.55964 0.56161 0.50144 0.0
C1004 C 0.55076 0.54548 0.49696 0.0
C1005 C 0.55901 0.53749 0.48063 0.0
C1006 C 0.54626 0.02543 0.45322 0.0
C1007 C 0.54572 0.03764 0.48004 0.0
C1008 C 0.53812 1.00947 0.46944 0.0
C1009 C 0.52906 1.00499 0.51321 0.0
H1010 H 0.55339 0.02828 0.42004 0.0
H1011 H 0.53929 1.00063 0.44815 0.0
S1012 S 0.52229 0.03202 0.59407 0.0
N1013 N 0.53434 0.04387 0.55063 0.0
N1014 N 0.51909 1.01396 0.58103 0.0
C1015 C 0.52804 1.01699 0.5396 0.0
C1016 C 0.53633 0.03325 0.52308 0.0
loop_
_geom_bond_atom_site_label_1
_geom_bond_atom_site_label_2
_geom_bond_distance
_geom_bond_site_symmetry_2
_ccdc_geom_bond_type
C0 C1 1.264 . S
C0 C5 1.479 1_556 S
C0 C10 1.465 . S
C1 C0 1.264 . S
C1 C3 1.339 . S
C1 H28 0.931 . S
C2 C3 1.395 1_554 S
C2 C4 1.320 . S
C3 C1 1.339 . S
C3 C2 1.395 1_556 S
C3 H29 0.929 . S
C4 C2 1.320 . S
C4 C5 1.405 . S
C4 H30 0.930 . S
C5 C0 1.479 1_554 S
C5 C4 1.405 . S
C5 H31 0.931 . S
U6 O7 2.454 . S
U6 O8 2.458 . S
U6 C9 2.984 . S
U6 C10 2.847 1_554 S
U6 C23 2.882 1_554 S
U6 O24 2.441 . S
U6 O25 2.420 1_554 S
U6 O26 2.455 . S
U6 O27 2.449 1_554 S
O7 U6 2.454 . S
O7 C9 1.353 . S
O8 U6 2.458 . S
O8 C9 1.286 . S
C9 U6 2.984 . S
C9 O7 1.353 . S
C9 O8 1.286 . S
C9 C11 1.363 . S
C10 C0 1.465 . S
C10 U6 2.847 1_556 S
C10 O24 1.249 1_556 S
C10 O25 1.202 . S
C11 C9 1.363 . S
C11 C13 1.408 . S
C11 C16 1.342 . S
C12 C13 1.310 . S
C12 C15 1.461 . S
C12 H32 0.932 . S
C13 C11 1.408 . S
C13 C12 1.310 . S
C13 H33 0.930 . S
C14 C15 1.474 . S
C14 C16 1.285 . S
C14 H34 0.929 . S
C15 C12 1.461 . S
C15 C14 1.474 . S
C16 C11 1.342 . S
C16 C14 1.285 . S
C16 H35 0.930 . S
C17 C20 1.424 . S
C17 C22 1.245 1_556 S
C17 C23 1.428 . S
C18 C21 1.260 1_554 S
C18 C22 1.477 . S
C18 H36 0.932 . S
C19 C20 1.384 . S
C19 C21 1.479 . S
C19 H37 0.929 . S
C20 C17 1.424 . S
C20 C19 1.384 . S
C20 H38 0.928 . S
C21 C18 1.260 1_556 S
C21 C19 1.479 . S
C22 C17 1.245 1_554 S
C22 C18 1.477 . S
C22 H39 0.932 . S
C23 U6 2.882 1_556 S
C23 C17 1.428 . S
C23 O26 1.301 1_556 S
C23 O27 1.282 . S
O24 U6 2.441 . S
O24 C10 1.249 1_554 S
O25 U6 2.420 1_556 S
O25 C10 1.202 . S
O26 U6 2.455 . S
O26 C23 1.301 1_554 S
O27 U6 2.449 1_556 S
O27 C23 1.282 . S
H28 C1 0.931 . S
H29 C3 0.929 . S
H30 C4 0.930 . S
H31 C5 0.931 . S
H32 C12 0.932 . S
H33 C13 0.930 . S
H34 C14 0.929 . S
H35 C16 0.930 . S
H36 C18 0.932 . S
H37 C19 0.929 . S
H38 C20 0.928 . S
H39 C22 0.932 . S
C40 C41 1.264 . S
C40 C45 1.479 . S
C40 C50 1.465 . S
C41 C40 1.264 . S
C41 C43 1.339 . S
C41 H68 0.931 1_554 S
C42 C43 1.395 . S
C42 C44 1.320 . S
C43 C41 1.339 . S
C43 C42 1.395 . S
C43 H69 0.929 1_554 S
C44 C42 1.320 . S
C44 C45 1.405 . S
C44 H70 0.930 . S
C45 C40 1.479 . S
C45 C44 1.405 . S
C45 H71 0.931 . S
U46 O47 2.454 . S
U46 O48 2.458 . S
U46 C49 2.984 . S
U46 C50 2.847 . S
U46 C63 2.882 . S
U46 O64 2.441 . S
U46 O65 2.420 . S
U46 O66 2.455 . S
U46 O67 2.449 . S
O47 U46 2.454 . S
O47 C49 1.353 . S
O48 U46 2.458 . S
O48 C49 1.286 . S
C49 U46 2.984 . S
C49 O47 1.353 . S
C49 O48 1.286 . S
C49 C51 1.363 . S
C50 C40 1.465 . S
C50 U46 2.847 . S
C50 O64 1.249 . S
C50 O65 1.202 . S
C51 C49 1.363 . S
C51 C53 1.408 . S
C51 C56 1.342 . S
C52 C53 1.310 . S
C52 C55 1.461 . S
C52 H72 0.932 . S
C53 C51 1.408 . S
C53 C52 1.310 . S
C53 H73 0.930 . S
C54 C55 1.474 . S
C54 C56 1.285 . S
C54 H74 0.929 . S
C55 C52 1.461 . S
C55 C54 1.474 . S
C56 C51 1.342 . S
C56 C54 1.285 . S
C56 H75 0.930 . S
C57 C60 1.424 . S
C57 C62 1.245 . S
C57 C63 1.428 . S
C58 C61 1.260 . S
C58 C62 1.477 . S
C58 H76 0.932 . S
C59 C60 1.384 . S
C59 C61 1.479 . S
C59 H77 0.929 . S
C60 C57 1.424 . S
C60 C59 1.384 . S
C60 H78 0.928 . S
C61 C58 1.260 . S
C61 C59 1.479 . S
C62 C57 1.245 . S
C62 C58 1.477 . S
C62 H79 0.932 . S
C63 U46 2.882 . S
C63 C57 1.428 . S
C63 O66 1.301 . S
C63 O67 1.282 . S
O64 U46 2.441 . S
O64 C50 1.249 . S
O65 U46 2.420 . S
O65 C50 1.202 . S
O66 U46 2.455 . S
O66 C63 1.301 . S
O67 U46 2.449 . S
O67 C63 1.282 . S
H68 C41 0.931 1_556 S
H69 C43 0.929 1_556 S
H70 C44 0.930 . S
H71 C45 0.931 . S
H72 C52 0.932 . S
H73 C53 0.930 . S
H74 C54 0.929 . S
H75 C56 0.930 . S
H76 C58 0.932 . S
H77 C59 0.929 . S
H78 C60 0.928 . S
H79 C62 0.932 . S
C80 C81 1.264 . S
C80 C85 1.479 . S
C80 C90 1.465 . S
C81 C80 1.264 . S
C81 C83 1.339 1_554 S
C81 H108 0.931 . S
C82 C83 1.395 . S
C82 C84 1.314 1_556 S
C83 C81 1.339 1_556 S
C83 C82 1.395 . S
C83 H109 0.929 . S
C84 C82 1.314 1_554 S
C84 C85 1.414 . S
C84 H110 0.928 1_554 S
C85 C80 1.479 . S
C85 C84 1.414 . S
C85 H111 0.931 . S
U86 O87 2.454 . S
U86 O88 2.458 . S
U86 C89 2.984 . S
U86 C90 2.847 . S
U86 C103 2.882 . S
U86 O104 2.441 . S
U86 O105 2.420 . S
U86 O106 2.455 . S
U86 O107 2.449 . S
O87 U86 2.454 . S
O87 C89 1.353 . S
O88 U86 2.458 . S
O88 C89 1.286 . S
C89 U86 2.984 . S
C89 O87 1.353 . S
C89 O88 1.286 . S
C89 C91 1.363 . S
C90 C80 1.465 . S
C90 U86 2.847 . S
C90 O104 1.249 . S
C90 O105 1.202 . S
C91 C89 1.363 . S
C91 C93 1.408 . S
C91 C96 1.342 . S
C92 C93 1.310 . S
C92 C95 1.461 . S
C92 H112 0.932 . S
C93 C91 1.408 . S
C93 C92 1.310 . S
C93 H113 0.930 . S
C94 C95 1.474 . S
C94 C96 1.285 . S
C94 H114 0.929 . S
C95 C92 1.461 . S
C95 C94 1.474 . S
C96 C91 1.342 . S
C96 C94 1.285 . S
C96 H115 0.930 . S
C97 C100 1.424 . S
C97 C102 1.245 . S
C97 C103 1.428 . S
C98 C101 1.269 . S
C98 C102 1.477 . S
C98 H116 0.932 . S
C99 C100 1.384 1_556 S
C99 C101 1.478 1_556 S
C99 H117 0.929 . S
C100 C97 1.424 . S
C100 C99 1.384 1_554 S
C100 H118 0.928 . S
C101 C98 1.269 . S
C101 C99 1.478 1_554 S
C102 C97 1.245 . S
C102 C98 1.477 . S
C102 H119 0.932 . S
C103 U86 2.882 . S
C103 C97 1.428 . S
C103 O106 1.301 . S
C103 O107 1.282 . S
O104 U86 2.441 . S
O104 C90 1.249 . S
O105 U86 2.420 . S
O105 C90 1.202 . S
O106 U86 2.455 . S
O106 C103 1.301 . S
O107 U86 2.449 . S
O107 C103 1.282 . S
H108 C81 0.931 . S
H109 C83 0.929 . S
H110 C84 0.928 1_556 S
H111 C85 0.931 . S
H112 C92 0.932 . S
H113 C93 0.930 . S
H114 C94 0.929 . S
H115 C96 0.930 . S
H116 C98 0.932 . S
H117 C99 0.929 . S
H118 C100 0.928 . S
H119 C102 0.932 . S
C120 C121 1.264 . S
C120 C125 1.479 . S
C120 C130 1.465 . S
C121 C120 1.264 . S
C121 C123 1.339 1_556 S
C121 H148 0.931 . S
C122 C123 1.395 . S
C122 C124 1.320 1_554 S
C123 C121 1.339 1_554 S
C123 C122 1.395 . S
C123 H149 0.929 . S
C124 C122 1.320 1_556 S
C124 C125 1.405 . S
C124 H150 0.930 . S
C125 C120 1.479 . S
C125 C124 1.405 . S
C125 H151 0.931 . S
U126 O127 2.454 . S
U126 O128 2.458 . S
U126 C129 2.984 . S
U126 C130 2.847 . S
U126 C143 2.882 . S
U126 O144 2.441 . S
U126 O145 2.420 . S
U126 O146 2.455 . S
U126 O147 2.449 . S
O127 U126 2.454 . S
O127 C129 1.353 . S
O128 U126 2.458 . S
O128 C129 1.286 . S
C129 U126 2.984 . S
C129 O127 1.353 . S
C129 O128 1.286 . S
C129 C131 1.363 . S
C130 C120 1.465 . S
C130 U126 2.847 . S
C130 O144 1.249 . S
C130 O145 1.202 . S
C131 C129 1.363 . S
C131 C133 1.408 . S
C131 C136 1.342 . S
C132 C133 1.310 . S
C132 C135 1.461 . S
C132 H152 0.932 . S
C133 C131 1.408 . S
C133 C132 1.310 . S
C133 H153 0.930 . S
C134 C135 1.474 . S
C134 C136 1.285 . S
C134 H154 0.929 . S
C135 C132 1.461 . S
C135 C134 1.474 . S
C136 C131 1.342 . S
C136 C134 1.285 . S
C136 H155 0.930 . S
C137 C140 1.424 . S
C137 C142 1.245 . S
C137 C143 1.428 . S
C138 C141 1.260 . S
C138 C142 1.477 . S
C138 H156 0.932 . S
C139 C140 1.384 . S
C139 C141 1.479 . S
C139 H157 0.929 1_556 S
C140 C137 1.424 . S
C140 C139 1.384 . S
C140 H158 0.928 . S
C141 C138 1.260 . S
C141 C139 1.479 . S
C142 C137 1.245 . S
C142 C138 1.477 . S
C142 H159 0.932 . S
C143 U126 2.882 . S
C143 C137 1.428 . S
C143 O146 1.301 . S
C143 O147 1.282 . S
O144 U126 2.441 . S
O144 C130 1.249 . S
O145 U126 2.420 . S
O145 C130 1.202 . S
O146 U126 2.455 . S
O146 C143 1.301 . S
O147 U126 2.449 . S
O147 C143 1.282 . S
H148 C121 0.931 . S
H149 C123 0.929 . S
H150 C124 0.930 . S
H151 C125 0.931 . S
H152 C132 0.932 . S
H153 C133 0.930 . S
H154 C134 0.929 . S
H155 C136 0.930 . S
H156 C138 0.932 . S
H157 C139 0.929 1_554 S
H158 C140 0.928 . S
H159 C142 0.932 . S
C160 C161 1.264 . S
C160 C165 1.479 . S
C160 C170 1.465 . S
C161 C160 1.264 . S
C161 C163 1.339 . S
C161 H188 0.931 . S
C162 C163 1.395 . S
C162 C164 1.320 . S
C163 C161 1.339 . S
C163 C162 1.395 . S
C163 H189 0.934 . S
C164 C162 1.320 . S
C164 C165 1.405 . S
C164 H190 0.930 . S
C165 C160 1.479 . S
C165 C164 1.405 . S
C165 H191 0.931 . S
U166 O167 2.454 . S
U166 O168 2.458 . S
U166 C169 2.984 . S
U166 C170 2.847 . S
U166 C183 2.882 . S
U166 O184 2.441 . S
U166 O185 2.420 . S
U166 O186 2.455 . S
U166 O187 2.449 . S
O167 U166 2.454 . S
O167 C169 1.353 . S
O168 U166 2.458 . S
O168 C169 1.286 . S
C169 U166 2.984 . S
C169 O167 1.353 . S
C169 O168 1.286 . S
C169 C171 1.363 . S
C170 C160 1.465 . S
C170 U166 2.847 . S
C170 O184 1.249 . S
C170 O185 1.202 . S
C171 C169 1.363 . S
C171 C173 1.408 . S
C171 C176 1.342 . S
C172 C173 1.310 . S
C172 C175 1.461 . S
C172 H192 0.932 . S
C173 C171 1.408 . S
C173 C172 1.310 . S
C173 H193 0.930 . S
C174 C175 1.474 . S
C174 C176 1.285 . S
C174 H194 0.929 . S
C175 C172 1.461 . S
C175 C174 1.474 . S
C176 C171 1.342 . S
C176 C174 1.285 . S
C176 H195 0.930 . S
C177 C180 1.424 . S
C177 C182 1.245 . S
C177 C183 1.428 . S
C178 C181 1.260 . S
C178 C182 1.477 . S
C178 H196 0.932 . S
C179 C180 1.384 . S
C179 C181 1.479 . S
C179 H197 0.929 . S
C180 C177 1.424 . S
C180 C179 1.384 . S
C180 H198 0.928 . S
C181 C178 1.260 . S
C181 C179 1.479 . S
C182 C177 1.245 . S
C182 C178 1.477 . S
C182 H199 0.932 . S
C183 U166 2.882 . S
C183 C177 1.428 . S
C183 O186 1.301 . S
C183 O187 1.282 . S
O184 U166 2.441 . S
O184 C170 1.249 . S
O185 U166 2.420 . S
O185 C170 1.202 . S
O186 U166 2.455 . S
O186 C183 1.301 . S
O187 U166 2.449 . S
O187 C183 1.282 . S
H188 C161 0.931 . S
H189 C163 0.934 . S
H190 C164 0.930 . S
H191 C165 0.931 . S
H192 C172 0.932 . S
H193 C173 0.930 . S
H194 C174 0.929 . S
H195 C176 0.930 . S
H196 C178 0.932 . S
H197 C179 0.929 . S
H198 C180 0.928 . S
H199 C182 0.932 . S
C200 C201 1.258 1_556 S
C200 C205 1.484 . S
C200 C210 1.465 . S
C201 C200 1.258 1_554 S
C201 C203 1.339 . S
C201 H228 0.931 . S
C202 C203 1.395 1_556 S
C202 C204 1.320 . S
C203 C201 1.339 . S
C203 C202 1.395 1_554 S
C203 H229 0.929 . S
C204 C202 1.320 . S
C204 C205 1.405 . S
C204 H230 0.930 . S
C205 C200 1.484 . S
C205 C204 1.405 . S
C205 H231 0.931 . S
U206 O207 2.454 . S
U206 O208 2.458 . S
U206 C209 2.984 . S
U206 C210 2.847 . S
U206 C223 2.882 1_556 S
U206 O224 2.441 . S
U206 O225 2.420 1_556 S
U206 O226 2.455 . S
U206 O227 2.449 1_556 S
O207 U206 2.454 . S
O207 C209 1.353 . S
O208 U206 2.458 . S
O208 C209 1.286 . S
C209 U206 2.984 . S
C209 O207 1.353 . S
C209 O208 1.286 . S
C209 C211 1.363 . S
C210 C200 1.465 . S
C210 U206 2.847 . S
C210 O224 1.249 . S
C210 O225 1.202 1_556 S
C211 C209 1.363 . S
C211 C213 1.408 . S
C211 C216 1.342 . S
C212 C213 1.310 . S
C212 C215 1.461 . S
C212 H232 0.932 . S
C213 C211 1.408 . S
C213 C212 1.310 . S
C213 H233 0.930 . S
C214 C215 1.474 . S
C214 C216 1.285 . S
C214 H234 0.929 . S
C215 C212 1.461 . S
C215 C214 1.474 . S
C216 C211 1.342 . S
C216 C214 1.285 . S
C216 H235 0.930 . S
C217 C220 1.424 . S
C217 C222 1.245 1_554 S
C217 C223 1.428 . S
C218 C221 1.260 . S
C218 C222 1.477 . S
C218 H236 0.932 . S
C219 C220 1.384 . S
C219 C221 1.479 1_554 S
C219 H237 0.929 . S
C220 C217 1.424 . S
C220 C219 1.384 . S
C220 H238 0.928 . S
C221 C218 1.260 . S
C221 C219 1.479 1_556 S
C222 C217 1.245 1_556 S
C222 C218 1.477 . S
C222 H239 0.932 . S
C223 U206 2.882 1_554 S
C223 C217 1.428 . S
C223 O226 1.301 1_554 S
C223 O227 1.282 . S
O224 U206 2.441 . S
O224 C210 1.249 . S
O225 U206 2.420 1_554 S
O225 C210 1.202 1_554 S
O226 U206 2.455 . S
O226 C223 1.301 1_556 S
O227 U206 2.449 1_554 S
O227 C223 1.282 . S
H228 C201 0.931 . S
H229 C203 0.929 . S
H230 C204 0.930 . S
H231 C205 0.931 . S
H232 C212 0.932 . S
H233 C213 0.930 . S
H234 C214 0.929 . S
H235 C216 0.930 . S
H236 C218 0.932 . S
H237 C219 0.929 . S
H238 C220 0.928 . S
H239 C222 0.932 . S
C240 C241 1.264 . S
C240 C245 1.479 . S
C240 C250 1.465 . S
C241 C240 1.264 . S
C241 C243 1.339 . S
C241 H268 0.931 . S
C242 C243 1.395 . S
C242 C244 1.320 . S
C243 C241 1.339 . S
C243 C242 1.395 . S
C243 H269 0.929 . S
C244 C242 1.320 . S
C244 C245 1.405 . S
C244 H270 0.930 . S
C245 C240 1.479 . S
C245 C244 1.405 . S
C245 H271 0.931 . S
U246 O247 2.454 . S
U246 O248 2.458 . S
U246 C249 2.984 . S
U246 C250 2.847 . S
U246 C263 2.882 . S
U246 O264 2.441 . S
U246 O265 2.420 . S
U246 O266 2.455 . S
U246 O267 2.449 . S
O247 U246 2.454 . S
O247 C249 1.353 . S
O248 U246 2.458 . S
O248 C249 1.286 . S
C249 U246 2.984 . S
C249 O247 1.353 . S
C249 O248 1.286 . S
C249 C251 1.363 . S
C250 C240 1.465 . S
C250 U246 2.847 . S
C250 O264 1.249 . S
C250 O265 1.202 . S
C251 C249 1.363 . S
C251 C253 1.408 . S
C251 C256 1.342 . S
C252 C253 1.310 . S
C252 C255 1.461 . S
C252 H272 0.932 . S
C253 C251 1.408 . S
C253 C252 1.310 . S
C253 H273 0.930 . S
C254 C255 1.474 . S
C254 C256 1.285 . S
C254 H274 0.929 . S
C255 C252 1.461 . S
C255 C254 1.474 . S
C256 C251 1.342 . S
C256 C254 1.285 . S
C256 H275 0.930 . S
C257 C260 1.424 . S
C257 C262 1.245 . S
C257 C263 1.428 . S
C258 C261 1.260 . S
C258 C262 1.477 . S
C258 H276 0.932 . S
C259 C260 1.384 . S
C259 C261 1.479 . S
C259 H277 0.929 . S
C260 C257 1.424 . S
C260 C259 1.384 . S
C260 H278 0.928 . S
C261 C258 1.260 . S
C261 C259 1.479 . S
C262 C257 1.245 . S
C262 C258 1.477 . S
C262 H279 0.932 . S
C263 U246 2.882 . S
C263 C257 1.428 . S
C263 O266 1.301 . S
C263 O267 1.282 . S
O264 U246 2.441 . S
O264 C250 1.249 . S
O265 U246 2.420 . S
O265 C250 1.202 . S
O266 U246 2.455 . S
O266 C263 1.301 . S
O267 U246 2.449 . S
O267 C263 1.282 . S
H268 C241 0.931 . S
H269 C243 0.929 . S
H270 C244 0.930 . S
H271 C245 0.931 . S
H272 C252 0.932 . S
H273 C253 0.930 . S
H274 C254 0.929 . S
H275 C256 0.930 . S
H276 C258 0.932 . S
H277 C259 0.929 . S
H278 C260 0.928 . S
H279 C262 0.932 . S
C280 C281 1.264 . S
C280 C285 1.479 . S
C280 C290 1.465 . S
C281 C280 1.264 . S
C281 C283 1.339 . S
C281 H308 0.931 . S
C282 C283 1.395 . S
C282 C284 1.320 . S
C283 C281 1.339 . S
C283 C282 1.395 . S
C283 H309 0.929 . S
C284 C282 1.320 . S
C284 C285 1.405 . S
C284 H310 0.930 . S
C285 C280 1.479 . S
C285 C284 1.405 . S
C285 H311 0.931 . S
U286 O287 2.454 . S
U286 O288 2.458 . S
U286 C289 2.984 . S
U286 C290 2.847 . S
U286 C303 2.882 . S
U286 O304 2.441 . S
U286 O305 2.420 . S
U286 O306 2.455 . S
U286 O307 2.449 . S
O287 U286 2.454 . S
O287 C289 1.353 . S
O288 U286 2.458 . S
O288 C289 1.286 . S
C289 U286 2.984 . S
C289 O287 1.353 . S
C289 O288 1.286 . S
C289 C291 1.363 . S
C290 C280 1.465 . S
C290 U286 2.847 . S
C290 O304 1.249 . S
C290 O305 1.202 . S
C291 C289 1.363 . S
C291 C293 1.408 . S
C291 C296 1.342 . S
C292 C293 1.310 . S
C292 C295 1.461 . S
C292 H312 0.932 . S
C293 C291 1.408 . S
C293 C292 1.310 . S
C293 H313 0.930 . S
C294 C295 1.474 . S
C294 C296 1.285 . S
C294 H314 0.929 . S
C295 C292 1.461 . S
C295 C294 1.474 . S
C296 C291 1.342 . S
C296 C294 1.285 . S
C296 H315 0.930 . S
C297 C300 1.424 . S
C297 C302 1.245 . S
C297 C303 1.428 . S
C298 C301 1.260 . S
C298 C302 1.477 . S
C298 H316 0.932 . S
C299 C300 1.384 . S
C299 C301 1.479 . S
C299 H317 0.929 . S
C300 C297 1.424 . S
C300 C299 1.384 . S
C300 H318 0.928 . S
C301 C298 1.260 . S
C301 C299 1.479 . S
C302 C297 1.245 . S
C302 C298 1.477 . S
C302 H319 0.932 . S
C303 U286 2.882 . S
C303 C297 1.428 . S
C303 O306 1.301 . S
C303 O307 1.282 . S
O304 U286 2.441 . S
O304 C290 1.249 . S
O305 U286 2.420 . S
O305 C290 1.202 . S
O306 U286 2.455 . S
O306 C303 1.301 . S
O307 U286 2.449 . S
O307 C303 1.282 . S
H308 C281 0.931 . S
H309 C283 0.929 . S
H310 C284 0.930 . S
H311 C285 0.931 . S
H312 C292 0.932 . S
H313 C293 0.930 . S
H314 C294 0.929 . S
H315 C296 0.930 . S
H316 C298 0.932 . S
H317 C299 0.929 . S
H318 C300 0.928 . S
H319 C302 0.932 . S
C320 C321 1.264 . S
C320 C325 1.479 . S
C320 C330 1.465 . S
C321 C320 1.264 . S
C321 C323 1.339 . S
C321 H348 0.931 . S
C322 C323 1.395 . S
C322 C324 1.320 . S
C323 C321 1.339 . S
C323 C322 1.395 . S
C323 H349 0.929 . S
C324 C322 1.320 . S
C324 C325 1.405 . S
C324 H350 0.930 . S
C325 C320 1.479 . S
C325 C324 1.405 . S
C325 H351 0.931 . S
U326 O327 2.454 . S
U326 O328 2.458 . S
U326 C329 2.984 . S
U326 C330 2.847 . S
U326 C343 2.882 . S
U326 O344 2.441 . S
U326 O345 2.420 . S
U326 O346 2.455 . S
U326 O347 2.449 . S
O327 U326 2.454 . S
O327 C329 1.353 . S
O328 U326 2.458 . S
O328 C329 1.286 . S
C329 U326 2.984 . S
C329 O327 1.353 . S
C329 O328 1.286 . S
C329 C331 1.363 . S
C330 C320 1.465 . S
C330 U326 2.847 . S
C330 O344 1.249 . S
C330 O345 1.202 . S
C331 C329 1.363 . S
C331 C333 1.408 . S
C331 C336 1.342 . S
C332 C333 1.310 . S
C332 C335 1.461 . S
C332 H352 0.932 . S
C333 C331 1.408 . S
C333 C332 1.310 . S
C333 H353 0.930 . S
C334 C335 1.474 . S
C334 C336 1.285 . S
C334 H354 0.929 . S
C335 C332 1.461 . S
C335 C334 1.474 . S
C336 C331 1.342 . S
C336 C334 1.285 . S
C336 H355 0.930 . S
C337 C340 1.424 . S
C337 C342 1.245 . S
C337 C343 1.428 . S
C338 C341 1.260 . S
C338 C342 1.477 . S
C338 H356 0.932 . S
C339 C340 1.384 . S
C339 C341 1.479 . S
C339 H357 0.929 . S
C340 C337 1.424 . S
C340 C339 1.384 . S
C340 H358 0.928 . S
C341 C338 1.260 . S
C341 C339 1.479 . S
C342 C337 1.245 . S
C342 C338 1.477 . S
C342 H359 0.932 . S
C343 U326 2.882 . S
C343 C337 1.428 . S
C343 O346 1.301 . S
C343 O347 1.282 . S
O344 U326 2.441 . S
O344 C330 1.249 . S
O345 U326 2.420 . S
O345 C330 1.202 . S
O346 U326 2.455 . S
O346 C343 1.301 . S
O347 U326 2.449 . S
O347 C343 1.282 . S
H348 C321 0.931 . S
H349 C323 0.929 . S
H350 C324 0.930 . S
H351 C325 0.931 . S
H352 C332 0.932 . S
H353 C333 0.930 . S
H354 C334 0.929 . S
H355 C336 0.930 . S
H356 C338 0.932 . S
H357 C339 0.929 . S
H358 C340 0.928 . S
H359 C342 0.932 . S
C360 C361 1.264 . S
C360 C365 1.479 . S
C360 C370 1.465 . S
C361 C360 1.264 . S
C361 C363 1.339 . S
C361 H388 0.931 . S
C362 C363 1.395 . S
C362 C364 1.320 . S
C363 C361 1.339 . S
C363 C362 1.395 . S
C363 H389 0.929 . S
C364 C362 1.320 . S
C364 C365 1.405 . S
C364 H390 0.930 . S
C365 C360 1.479 . S
C365 C364 1.405 . S
C365 H391 0.931 . S
U366 O367 2.454 . S
U366 O368 2.458 . S
U366 C369 2.984 . S
U366 C370 2.847 . S
U366 C383 2.882 . S
U366 O384 2.441 . S
U366 O385 2.420 . S
U366 O386 2.455 . S
U366 O387 2.449 . S
O367 U366 2.454 . S
O367 C369 1.353 . S
O368 U366 2.458 . S
O368 C369 1.286 . S
C369 U366 2.984 . S
C369 O367 1.353 . S
C369 O368 1.286 . S
C369 C371 1.363 . S
C370 C360 1.465 . S
C370 U366 2.847 . S
C370 O384 1.249 . S
C370 O385 1.202 . S
C371 C369 1.363 . S
C371 C373 1.408 . S
C371 C376 1.342 . S
C372 C373 1.310 . S
C372 C375 1.461 . S
C372 H392 0.932 . S
C373 C371 1.408 . S
C373 C372 1.310 . S
C373 H393 0.930 . S
C374 C375 1.474 . S
C374 C376 1.285 . S
C374 H394 0.929 . S
C375 C372 1.461 . S
C375 C374 1.474 . S
C376 C371 1.342 . S
C376 C374 1.285 . S
C376 H395 0.930 . S
C377 C380 1.424 . S
C377 C382 1.245 . S
C377 C383 1.428 . S
C378 C381 1.260 . S
C378 C382 1.477 . S
C378 H396 0.932 . S
C379 C380 1.384 . S
C379 C381 1.479 . S
C379 H397 0.929 . S
C380 C377 1.424 . S
C380 C379 1.384 . S
C380 H398 0.928 . S
C381 C378 1.260 . S
C381 C379 1.479 . S
C382 C377 1.245 . S
C382 C378 1.477 . S
C382 H399 0.932 . S
C383 U366 2.882 . S
C383 C377 1.428 . S
C383 O386 1.301 . S
C383 O387 1.282 . S
O384 U366 2.441 . S
O384 C370 1.249 . S
O385 U366 2.420 . S
O385 C370 1.202 . S
O386 U366 2.455 . S
O386 C383 1.301 . S
O387 U366 2.449 . S
O387 C383 1.282 . S
H388 C361 0.931 . S
H389 C363 0.929 . S
H390 C364 0.930 . S
H391 C365 0.931 . S
H392 C372 0.932 . S
H393 C373 0.930 . S
H394 C374 0.929 . S
H395 C376 0.930 . S
H396 C378 0.932 . S
H397 C379 0.929 . S
H398 C380 0.928 . S
H399 C382 0.932 . S
C400 C401 1.264 . S
C400 C405 1.479 . S
C400 C410 1.465 . S
C401 C400 1.264 . S
C401 C403 1.339 . S
C401 H428 0.931 . S
C402 C403 1.395 . S
C402 C404 1.320 . S
C403 C401 1.339 . S
C403 C402 1.395 . S
C403 H429 0.929 . S
C404 C402 1.320 . S
C404 C405 1.405 . S
C404 H430 0.930 . S
C405 C400 1.479 . S
C405 C404 1.405 . S
C405 H431 0.931 . S
U406 O407 2.454 . S
U406 O408 2.458 . S
U406 C409 2.984 . S
U406 C410 2.847 . S
U406 C423 2.882 . S
U406 O424 2.441 . S
U406 O425 2.420 . S
U406 O426 2.455 . S
U406 O427 2.449 . S
O407 U406 2.454 . S
O407 C409 1.353 . S
O408 U406 2.458 . S
O408 C409 1.286 . S
C409 U406 2.984 . S
C409 O407 1.353 . S
C409 O408 1.286 . S
C409 C411 1.363 . S
C410 C400 1.465 . S
C410 U406 2.847 . S
C410 O424 1.249 . S
C410 O425 1.202 . S
C411 C409 1.363 . S
C411 C413 1.408 . S
C411 C416 1.342 . S
C412 C413 1.310 . S
C412 C415 1.461 . S
C412 H432 0.932 . S
C413 C411 1.408 . S
C413 C412 1.310 . S
C413 H433 0.930 . S
C414 C415 1.474 . S
C414 C416 1.285 . S
C414 H434 0.929 . S
C415 C412 1.461 . S
C415 C414 1.474 . S
C416 C411 1.342 . S
C416 C414 1.285 . S
C416 H435 0.930 . S
C417 C420 1.424 . S
C417 C422 1.245 . S
C417 C423 1.428 . S
C418 C421 1.260 . S
C418 C422 1.477 . S
C418 H436 0.932 . S
C419 C420 1.384 . S
C419 C421 1.479 . S
C419 H437 0.929 . S
C420 C417 1.424 . S
C420 C419 1.384 . S
C420 H438 0.928 . S
C421 C418 1.260 . S
C421 C419 1.479 . S
C422 C417 1.245 . S
C422 C418 1.477 . S
C422 H439 0.932 . S
C423 U406 2.882 . S
C423 C417 1.428 . S
C423 O426 1.301 . S
C423 O427 1.282 . S
O424 U406 2.441 . S
O424 C410 1.249 . S
O425 U406 2.420 . S
O425 C410 1.202 . S
O426 U406 2.455 . S
O426 C423 1.301 . S
O427 U406 2.449 . S
O427 C423 1.282 . S
H428 C401 0.931 . S
H429 C403 0.929 . S
H430 C404 0.930 . S
H431 C405 0.931 . S
H432 C412 0.932 . S
H433 C413 0.930 . S
H434 C414 0.929 . S
H435 C416 0.930 . S
H436 C418 0.932 . S
H437 C419 0.929 . S
H438 C420 0.928 . S
H439 C422 0.932 . S
C440 C441 1.264 . S
C440 C445 1.479 . S
C440 C450 1.465 . S
C441 C440 1.264 . S
C441 C443 1.339 . S
C441 H468 0.931 . S
C442 C443 1.395 . S
C442 C444 1.320 . S
C443 C441 1.339 . S
C443 C442 1.395 . S
C443 H469 0.929 . S
C444 C442 1.320 . S
C444 C445 1.405 . S
C444 H470 0.930 . S
C445 C440 1.479 . S
C445 C444 1.405 . S
C445 H471 0.931 . S
U446 O447 2.454 . S
U446 O448 2.458 . S
U446 C449 2.984 . S
U446 C450 2.847 . S
U446 C463 2.882 . S
U446 O464 2.441 . S
U446 O465 2.420 . S
U446 O466 2.455 . S
U446 O467 2.449 . S
O447 U446 2.454 . S
O447 C449 1.353 . S
O448 U446 2.458 . S
O448 C449 1.286 . S
C449 U446 2.984 . S
C449 O447 1.353 . S
C449 O448 1.286 . S
C449 C451 1.363 . S
C450 C440 1.465 . S
C450 U446 2.847 . S
C450 O464 1.249 . S
C450 O465 1.202 . S
C451 C449 1.363 . S
C451 C453 1.408 . S
C451 C456 1.342 . S
C452 C453 1.310 . S
C452 C455 1.461 . S
C452 H472 0.932 . S
C453 C451 1.408 . S
C453 C452 1.310 . S
C453 H473 0.930 . S
C454 C455 1.474 . S
C454 C456 1.285 . S
C454 H474 0.929 . S
C455 C452 1.461 . S
C455 C454 1.474 . S
C456 C451 1.342 . S
C456 C454 1.285 . S
C456 H475 0.930 . S
C457 C460 1.424 . S
C457 C462 1.245 . S
C457 C463 1.428 . S
C458 C461 1.260 . S
C458 C462 1.477 . S
C458 H476 0.932 . S
C459 C460 1.384 . S
C459 C461 1.479 . S
C459 H477 0.929 . S
C460 C457 1.424 . S
C460 C459 1.384 . S
C460 H478 0.928 . S
C461 C458 1.260 . S
C461 C459 1.479 . S
C462 C457 1.245 . S
C462 C458 1.477 . S
C462 H479 0.932 . S
C463 U446 2.882 . S
C463 C457 1.428 . S
C463 O466 1.301 . S
C463 O467 1.282 . S
O464 U446 2.441 . S
O464 C450 1.249 . S
O465 U446 2.420 . S
O465 C450 1.202 . S
O466 U446 2.455 . S
O466 C463 1.301 . S
O467 U446 2.449 . S
O467 C463 1.282 . S
H468 C441 0.931 . S
H469 C443 0.929 . S
H470 C444 0.930 . S
H471 C445 0.931 . S
H472 C452 0.932 . S
H473 C453 0.930 . S
H474 C454 0.929 . S
H475 C456 0.930 . S
H476 C458 0.932 . S
H477 C459 0.929 . S
H478 C460 0.928 . S
H479 C462 0.932 . S
C480 C481 1.264 . S
C480 C485 1.479 . S
C480 C490 1.465 . S
C481 C480 1.264 . S
C481 C483 1.339 . S
C481 H508 0.931 . S
C482 C483 1.395 . S
C482 C484 1.320 . S
C483 C481 1.339 . S
C483 C482 1.395 . S
C483 H509 0.929 . S
C484 C482 1.320 . S
C484 C485 1.405 . S
C484 H510 0.930 . S
C485 C480 1.479 . S
C485 C484 1.405 . S
C485 H511 0.931 . S
U486 O487 2.454 . S
U486 O488 2.458 . S
U486 C489 2.984 . S
U486 C490 2.847 . S
U486 C503 2.882 . S
U486 O504 2.441 . S
U486 O505 2.420 . S
U486 O506 2.455 . S
U486 O507 2.449 . S
O487 U486 2.454 . S
O487 C489 1.353 . S
O488 U486 2.458 . S
O488 C489 1.286 . S
C489 U486 2.984 . S
C489 O487 1.353 . S
C489 O488 1.286 . S
C489 C491 1.363 . S
C490 C480 1.465 . S
C490 U486 2.847 . S
C490 O504 1.249 . S
C490 O505 1.202 . S
C491 C489 1.363 . S
C491 C493 1.408 . S
C491 C496 1.342 . S
C492 C493 1.310 . S
C492 C495 1.461 . S
C492 H512 0.932 . S
C493 C491 1.408 . S
C493 C492 1.310 . S
C493 H513 0.930 . S
C494 C495 1.474 . S
C494 C496 1.285 . S
C494 H514 0.929 . S
C495 C492 1.461 . S
C495 C494 1.474 . S
C496 C491 1.342 . S
C496 C494 1.285 . S
C496 H515 0.930 . S
C497 C500 1.424 . S
C497 C502 1.245 . S
C497 C503 1.428 . S
C498 C501 1.260 . S
C498 C502 1.477 . S
C498 H516 0.932 . S
C499 C500 1.384 . S
C499 C501 1.479 . S
C499 H517 0.929 . S
C500 C497 1.424 . S
C500 C499 1.384 . S
C500 H518 0.928 . S
C501 C498 1.260 . S
C501 C499 1.479 . S
C502 C497 1.245 . S
C502 C498 1.477 . S
C502 H519 0.932 . S
C503 U486 2.882 . S
C503 C497 1.428 . S
C503 O506 1.301 . S
C503 O507 1.282 . S
O504 U486 2.441 . S
O504 C490 1.249 . S
O505 U486 2.420 . S
O505 C490 1.202 . S
O506 U486 2.455 . S
O506 C503 1.301 . S
O507 U486 2.449 . S
O507 C503 1.282 . S
H508 C481 0.931 . S
H509 C483 0.929 . S
H510 C484 0.930 . S
H511 C485 0.931 . S
H512 C492 0.932 . S
H513 C493 0.930 . S
H514 C494 0.929 . S
H515 C496 0.930 . S
H516 C498 0.932 . S
H517 C499 0.929 . S
H518 C500 0.928 . S
H519 C502 0.932 . S
C520 C521 1.264 . S
C520 C525 1.479 . S
C520 C530 1.465 . S
C521 C520 1.264 . S
C521 C523 1.339 . S
C521 H548 0.931 . S
C522 C523 1.395 . S
C522 C524 1.320 . S
C523 C521 1.339 . S
C523 C522 1.395 . S
C523 H549 0.929 . S
C524 C522 1.320 . S
C524 C525 1.405 . S
C524 H550 0.930 . S
C525 C520 1.479 . S
C525 C524 1.405 . S
C525 H551 0.931 . S
U526 O527 2.454 . S
U526 O528 2.458 . S
U526 C529 2.984 . S
U526 C530 2.847 . S
U526 C543 2.882 . S
U526 O544 2.441 . S
U526 O545 2.420 . S
U526 O546 2.455 . S
U526 O547 2.449 . S
O527 U526 2.454 . S
O527 C529 1.353 . S
O528 U526 2.458 . S
O528 C529 1.286 . S
C529 U526 2.984 . S
C529 O527 1.353 . S
C529 O528 1.286 . S
C529 C531 1.363 . S
C530 C520 1.465 . S
C530 U526 2.847 . S
C530 O544 1.249 . S
C530 O545 1.202 . S
C531 C529 1.363 . S
C531 C533 1.408 . S
C531 C536 1.342 . S
C532 C533 1.310 . S
C532 C535 1.461 . S
C532 H552 0.932 . S
C533 C531 1.408 . S
C533 C532 1.310 . S
C533 H553 0.930 . S
C534 C535 1.474 . S
C534 C536 1.285 . S
C534 H554 0.929 . S
C535 C532 1.461 . S
C535 C534 1.474 . S
C536 C531 1.342 . S
C536 C534 1.285 . S
C536 H555 0.930 . S
C537 C540 1.424 . S
C537 C542 1.245 . S
C537 C543 1.428 . S
C538 C541 1.260 . S
C538 C542 1.477 . S
C538 H556 0.932 . S
C539 C540 1.384 . S
C539 C541 1.479 . S
C539 H557 0.929 . S
C540 C537 1.424 . S
C540 C539 1.384 . S
C540 H558 0.928 . S
C541 C538 1.260 . S
C541 C539 1.479 . S
C542 C537 1.245 . S
C542 C538 1.477 . S
C542 H559 0.932 . S
C543 U526 2.882 . S
C543 C537 1.428 . S
C543 O546 1.301 . S
C543 O547 1.282 . S
O544 U526 2.441 . S
O544 C530 1.249 . S
O545 U526 2.420 . S
O545 C530 1.202 . S
O546 U526 2.455 . S
O546 C543 1.301 . S
O547 U526 2.449 . S
O547 C543 1.282 . S
H548 C521 0.931 . S
H549 C523 0.929 . S
H550 C524 0.930 . S
H551 C525 0.931 . S
H552 C532 0.932 . S
H553 C533 0.930 . S
H554 C534 0.929 . S
H555 C536 0.930 . S
H556 C538 0.932 . S
H557 C539 0.929 . S
H558 C540 0.928 . S
H559 C542 0.932 . S
C560 C561 1.264 . S
C560 C565 1.479 . S
C560 C570 1.465 . S
C561 C560 1.264 . S
C561 C563 1.339 . S
C561 H588 0.931 . S
C562 C563 1.395 . S
C562 C564 1.320 . S
C563 C561 1.339 . S
C563 C562 1.395 . S
C563 H589 0.929 . S
C564 C562 1.320 . S
C564 C565 1.405 . S
C564 H590 0.930 . S
C565 C560 1.479 . S
C565 C564 1.405 . S
C565 H591 0.931 . S
U566 O567 2.454 . S
U566 O568 2.458 . S
U566 C569 2.984 . S
U566 C570 2.847 . S
U566 C583 2.882 . S
U566 O584 2.441 . S
U566 O585 2.420 . S
U566 O586 2.455 . S
U566 O587 2.449 . S
O567 U566 2.454 . S
O567 C569 1.353 . S
O568 U566 2.458 . S
O568 C569 1.286 . S
C569 U566 2.984 . S
C569 O567 1.353 . S
C569 O568 1.286 . S
C569 C571 1.363 . S
C570 C560 1.465 . S
C570 U566 2.847 . S
C570 O584 1.249 . S
C570 O585 1.202 . S
C571 C569 1.363 . S
C571 C573 1.408 . S
C571 C576 1.342 . S
C572 C573 1.310 . S
C572 C575 1.461 . S
C572 H592 0.932 . S
C573 C571 1.408 . S
C573 C572 1.310 . S
C573 H593 0.930 . S
C574 C575 1.474 . S
C574 C576 1.285 . S
C574 H594 0.929 . S
C575 C572 1.461 . S
C575 C574 1.474 . S
C576 C571 1.342 . S
C576 C574 1.285 . S
C576 H595 0.930 . S
C577 C580 1.424 . S
C577 C582 1.245 . S
C577 C583 1.428 . S
C578 C581 1.260 . S
C578 C582 1.477 . S
C578 H596 0.932 . S
C579 C580 1.384 . S
C579 C581 1.479 . S
C579 H597 0.929 . S
C580 C577 1.424 . S
C580 C579 1.384 . S
C580 H598 0.928 . S
C581 C578 1.260 . S
C581 C579 1.479 . S
C582 C577 1.245 . S
C582 C578 1.477 . S
C582 H599 0.932 . S
C583 U566 2.882 . S
C583 C577 1.428 . S
C583 O586 1.301 . S
C583 O587 1.282 . S
O584 U566 2.441 . S
O584 C570 1.249 . S
O585 U566 2.420 . S
O585 C570 1.202 . S
O586 U566 2.455 . S
O586 C583 1.301 . S
O587 U566 2.449 . S
O587 C583 1.282 . S
H588 C561 0.931 . S
H589 C563 0.929 . S
H590 C564 0.930 . S
H591 C565 0.931 . S
H592 C572 0.932 . S
H593 C573 0.930 . S
H594 C574 0.929 . S
H595 C576 0.930 . S
H596 C578 0.932 . S
H597 C579 0.929 . S
H598 C580 0.928 . S
H599 C582 0.932 . S
C600 C601 1.264 . S
C600 C605 1.479 . S
C600 C610 1.465 . S
C601 C600 1.264 . S
C601 C603 1.339 . S
C601 H628 0.931 . S
C602 C603 1.395 . S
C602 C604 1.320 . S
C603 C601 1.339 . S
C603 C602 1.395 . S
C603 H629 0.929 . S
C604 C602 1.320 . S
C604 C605 1.405 . S
C604 H630 0.930 . S
C605 C600 1.479 . S
C605 C604 1.405 . S
C605 H631 0.931 . S
U606 O607 2.454 . S
U606 O608 2.458 . S
U606 C609 2.984 . S
U606 C610 2.847 . S
U606 C623 2.882 . S
U606 O624 2.441 . S
U606 O625 2.420 . S
U606 O626 2.455 . S
U606 O627 2.449 . S
O607 U606 2.454 . S
O607 C609 1.353 . S
O608 U606 2.458 . S
O608 C609 1.286 . S
C609 U606 2.984 . S
C609 O607 1.353 . S
C609 O608 1.286 . S
C609 C611 1.363 . S
C610 C600 1.465 . S
C610 U606 2.847 . S
C610 O624 1.249 . S
C610 O625 1.202 . S
C611 C609 1.363 . S
C611 C613 1.408 . S
C611 C616 1.342 . S
C612 C613 1.310 . S
C612 C615 1.461 . S
C612 H632 0.932 . S
C613 C611 1.408 . S
C613 C612 1.310 . S
C613 H633 0.930 . S
C614 C615 1.474 . S
C614 C616 1.285 . S
C614 H634 0.929 . S
C615 C612 1.461 . S
C615 C614 1.474 . S
C616 C611 1.342 . S
C616 C614 1.285 . S
C616 H635 0.930 . S
C617 C620 1.424 . S
C617 C622 1.245 . S
C617 C623 1.428 . S
C618 C621 1.260 . S
C618 C622 1.477 . S
C618 H636 0.932 . S
C619 C620 1.384 . S
C619 C621 1.479 . S
C619 H637 0.929 . S
C620 C617 1.424 . S
C620 C619 1.384 . S
C620 H638 0.928 . S
C621 C618 1.260 . S
C621 C619 1.479 . S
C622 C617 1.245 . S
C622 C618 1.477 . S
C622 H639 0.932 . S
C623 U606 2.882 . S
C623 C617 1.428 . S
C623 O626 1.301 . S
C623 O627 1.282 . S
O624 U606 2.441 . S
O624 C610 1.249 . S
O625 U606 2.420 . S
O625 C610 1.202 . S
O626 U606 2.455 . S
O626 C623 1.301 . S
O627 U606 2.449 . S
O627 C623 1.282 . S
H628 C601 0.931 . S
H629 C603 0.929 . S
H630 C604 0.930 . S
H631 C605 0.931 . S
H632 C612 0.932 . S
H633 C613 0.930 . S
H634 C614 0.929 . S
H635 C616 0.930 . S
H636 C618 0.932 . S
H637 C619 0.929 . S
H638 C620 0.928 . S
H639 C622 0.932 . S
C640 C641 1.264 . S
C640 C645 1.479 . S
C640 C650 1.465 . S
C641 C640 1.264 . S
C641 C643 1.339 . S
C641 H668 0.931 . S
C642 C643 1.395 . S
C642 C644 1.320 . S
C643 C641 1.339 . S
C643 C642 1.395 . S
C643 H669 0.929 . S
C644 C642 1.320 . S
C644 C645 1.405 . S
C644 H670 0.930 . S
C645 C640 1.479 . S
C645 C644 1.405 . S
C645 H671 0.931 . S
U646 O647 2.454 . S
U646 O648 2.458 . S
U646 C649 2.984 . S
U646 C650 2.847 . S
U646 C663 2.882 . S
U646 O664 2.441 . S
U646 O665 2.420 . S
U646 O666 2.455 . S
U646 O667 2.449 . S
O647 U646 2.454 . S
O647 C649 1.353 . S
O648 U646 2.458 . S
O648 C649 1.286 . S
C649 U646 2.984 . S
C649 O647 1.353 . S
C649 O648 1.286 . S
C649 C651 1.363 . S
C650 C640 1.465 . S
C650 U646 2.847 . S
C650 O664 1.249 . S
C650 O665 1.202 . S
C651 C649 1.363 . S
C651 C653 1.408 . S
C651 C656 1.342 . S
C652 C653 1.310 . S
C652 C655 1.461 . S
C652 H672 0.932 . S
C653 C651 1.408 . S
C653 C652 1.310 . S
C653 H673 0.930 . S
C654 C655 1.474 . S
C654 C656 1.285 . S
C654 H674 0.929 . S
C655 C652 1.461 . S
C655 C654 1.474 . S
C656 C651 1.342 . S
C656 C654 1.285 . S
C656 H675 0.930 . S
C657 C660 1.424 . S
C657 C662 1.245 . S
C657 C663 1.428 . S
C658 C661 1.260 . S
C658 C662 1.477 . S
C658 H676 0.932 . S
C659 C660 1.384 . S
C659 C661 1.479 . S
C659 H677 0.929 . S
C660 C657 1.424 . S
C660 C659 1.384 . S
C660 H678 0.928 . S
C661 C658 1.260 . S
C661 C659 1.479 . S
C662 C657 1.245 . S
C662 C658 1.477 . S
C662 H679 0.932 . S
C663 U646 2.882 . S
C663 C657 1.428 . S
C663 O666 1.301 . S
C663 O667 1.282 . S
O664 U646 2.441 . S
O664 C650 1.249 . S
O665 U646 2.420 . S
O665 C650 1.202 . S
O666 U646 2.455 . S
O666 C663 1.301 . S
O667 U646 2.449 . S
O667 C663 1.282 . S
H668 C641 0.931 . S
H669 C643 0.929 . S
H670 C644 0.930 . S
H671 C645 0.931 . S
H672 C652 0.932 . S
H673 C653 0.930 . S
H674 C654 0.929 . S
H675 C656 0.930 . S
H676 C658 0.932 . S
H677 C659 0.929 . S
H678 C660 0.928 . S
H679 C662 0.932 . S
C680 C681 1.264 . S
C680 C685 1.479 . S
C680 C690 1.465 . S
C681 C680 1.264 . S
C681 C683 1.339 . S
C681 H708 0.931 . S
C682 C683 1.395 . S
C682 C684 1.320 . S
C683 C681 1.339 . S
C683 C682 1.395 . S
C683 H709 0.929 . S
C684 C682 1.320 . S
C684 C685 1.405 . S
C684 H710 0.930 . S
C685 C680 1.479 . S
C685 C684 1.405 . S
C685 H711 0.931 . S
U686 O687 2.454 . S
U686 O688 2.458 . S
U686 C689 2.984 . S
U686 C690 2.847 . S
U686 C703 2.882 . S
U686 O704 2.441 . S
U686 O705 2.420 . S
U686 O706 2.455 . S
U686 O707 2.449 . S
O687 U686 2.454 . S
O687 C689 1.353 . S
O688 U686 2.458 . S
O688 C689 1.286 . S
C689 U686 2.984 . S
C689 O687 1.353 . S
C689 O688 1.286 . S
C689 C691 1.363 . S
C690 C680 1.465 . S
C690 U686 2.847 . S
C690 O704 1.249 . S
C690 O705 1.202 . S
C691 C689 1.363 . S
C691 C693 1.408 . S
C691 C696 1.342 . S
C692 C693 1.310 . S
C692 C695 1.461 . S
C692 H712 0.932 . S
C693 C691 1.408 . S
C693 C692 1.310 . S
C693 H713 0.930 . S
C694 C695 1.474 . S
C694 C696 1.285 . S
C694 H714 0.929 . S
C695 C692 1.461 . S
C695 C694 1.474 . S
C696 C691 1.342 . S
C696 C694 1.285 . S
C696 H715 0.930 . S
C697 C700 1.424 . S
C697 C702 1.245 . S
C697 C703 1.428 . S
C698 C701 1.260 . S
C698 C702 1.477 . S
C698 H716 0.932 . S
C699 C700 1.384 . S
C699 C701 1.479 . S
C699 H717 0.929 . S
C700 C697 1.424 . S
C700 C699 1.384 . S
C700 H718 0.928 . S
C701 C698 1.260 . S
C701 C699 1.479 . S
C702 C697 1.245 . S
C702 C698 1.477 . S
C702 H719 0.932 . S
C703 U686 2.882 . S
C703 C697 1.428 . S
C703 O706 1.301 . S
C703 O707 1.282 . S
O704 U686 2.441 . S
O704 C690 1.249 . S
O705 U686 2.420 . S
O705 C690 1.202 . S
O706 U686 2.455 . S
O706 C703 1.301 . S
O707 U686 2.449 . S
O707 C703 1.282 . S
H708 C681 0.931 . S
H709 C683 0.929 . S
H710 C684 0.930 . S
H711 C685 0.931 . S
H712 C692 0.932 . S
H713 C693 0.930 . S
H714 C694 0.929 . S
H715 C696 0.930 . S
H716 C698 0.932 . S
H717 C699 0.929 . S
H718 C700 0.928 . S
H719 C702 0.932 . S
C720 C721 1.366 1_554 S
C720 C722 1.419 1_545 S
C720 H724 0.930 . S
C721 C720 1.366 1_556 S
C721 C730 1.432 . S
C722 C720 1.419 1_565 S
C722 C723 1.363 1_554 S
C722 H725 0.929 . S
C723 C722 1.363 1_556 S
C723 C729 1.428 . S
H724 C720 0.930 . S
H725 C722 0.929 . S
S726 N727 1.666 . S
S726 N728 1.580 1_545 S
N727 S726 1.666 . S
N727 C730 1.350 . S
N728 S726 1.580 1_565 S
N728 C729 1.351 . S
C729 C723 1.428 . S
C729 N728 1.351 . S
C729 C730 1.434 1_565 S
C730 C721 1.432 . S
C730 N727 1.350 . S
C730 C729 1.434 1_545 S
C731 C732 1.369 1_556 S
C731 C733 1.419 1_655 S
C731 H735 0.930 . S
C732 C731 1.369 1_554 S
C732 C741 1.429 . S
C733 C731 1.419 1_455 S
C733 C734 1.363 1_556 S
C733 H736 0.929 . S
C734 C733 1.363 1_554 S
C734 C740 1.428 . S
H735 C731 0.930 . S
H736 C733 0.929 . S
S737 N738 1.613 1_455 S
S737 N739 1.610 . S
N738 S737 1.613 1_655 S
N738 C741 1.350 . S
N739 S737 1.610 . S
N739 C740 1.351 . S
C740 C734 1.428 . S
C740 N739 1.351 . S
C740 C741 1.434 1_455 S
C741 C732 1.429 . S
C741 N738 1.350 . S
C741 C740 1.434 1_655 S
C742 C743 1.369 . S
C742 C744 1.419 . S
C742 H746 0.930 1_556 S
C743 C742 1.369 . S
C743 C752 1.429 . S
C744 C742 1.419 . S
C744 C745 1.363 . S
C744 H747 0.929 1_556 S
C745 C744 1.363 . S
C745 C751 1.428 . S
H746 C742 0.930 1_554 S
H747 C744 0.929 1_554 S
S748 N749 1.613 . S
S748 N750 1.610 . S
N749 S748 1.613 . S
N749 C752 1.350 . S
N750 S748 1.610 . S
N750 C751 1.351 . S
C751 C745 1.428 . S
C751 N750 1.351 . S
C751 C752 1.434 . S
C752 C743 1.429 . S
C752 N749 1.350 . S
C752 C751 1.434 . S
C753 C754 1.369 . S
C753 C755 1.419 1_545 S
C753 H757 0.930 . S
C754 C753 1.369 . S
C754 C763 1.429 1_554 S
C755 C753 1.419 1_565 S
C755 C756 1.363 1_554 S
C755 H758 0.929 . S
C756 C755 1.363 1_556 S
C756 C762 1.428 . S
H757 C753 0.930 . S
H758 C755 0.929 . S
S759 N760 1.613 . S
S759 N761 1.610 1_545 S
N760 S759 1.613 . S
N760 C763 1.350 . S
N761 S759 1.610 1_565 S
N761 C762 1.351 . S
C762 C756 1.428 . S
C762 N761 1.351 . S
C762 C763 1.434 1_565 S
C763 C754 1.429 1_556 S
C763 N760 1.350 . S
C763 C762 1.434 1_545 S
C764 C765 1.369 . S
C764 C766 1.419 1_455 S
C764 H768 0.930 . S
C765 C764 1.369 . S
C765 C774 1.429 1_556 S
C766 C764 1.419 1_655 S
C766 C767 1.363 . S
C766 H769 0.929 . S
C767 C766 1.363 . S
C767 C773 1.428 1_556 S
H768 C764 0.930 . S
H769 C766 0.929 . S
S770 N771 1.613 1_655 S
S770 N772 1.610 . S
N771 S770 1.613 1_455 S
N771 C774 1.350 . S
N772 S770 1.610 . S
N772 C773 1.351 . S
C773 C767 1.428 1_554 S
C773 N772 1.351 . S
C773 C774 1.434 1_655 S
C774 C765 1.429 1_554 S
C774 N771 1.350 . S
C774 C773 1.434 1_455 S
C775 C776 1.369 . S
C775 C777 1.419 . S
C775 H779 0.930 . S
C776 C775 1.369 . S
C776 C785 1.429 1_554 S
C777 C775 1.419 . S
C777 C778 1.363 . S
C777 H780 0.929 . S
C778 C777 1.363 . S
C778 C784 1.428 1_554 S
H779 C775 0.930 . S
H780 C777 0.929 . S
S781 N782 1.613 . S
S781 N783 1.610 . S
N782 S781 1.613 . S
N782 C785 1.350 . S
N783 S781 1.610 . S
N783 C784 1.351 . S
C784 C778 1.428 1_556 S
C784 N783 1.351 . S
C784 C785 1.434 . S
C785 C776 1.429 1_556 S
C785 N782 1.350 . S
C785 C784 1.434 . S
C786 C787 1.369 . S
C786 C788 1.419 . S
C786 H790 0.930 . S
C787 C786 1.369 . S
C787 C796 1.429 . S
C788 C786 1.419 . S
C788 C789 1.363 . S
C788 H791 0.929 . S
C789 C788 1.363 . S
C789 C795 1.428 . S
H790 C786 0.930 . S
H791 C788 0.929 . S
S792 N793 1.613 . S
S792 N794 1.610 . S
N793 S792 1.613 . S
N793 C796 1.350 . S
N794 S792 1.610 . S
N794 C795 1.351 . S
C795 C789 1.428 . S
C795 N794 1.351 . S
C795 C796 1.434 . S
C796 C787 1.429 . S
C796 N793 1.350 . S
C796 C795 1.434 . S
C797 C798 1.369 . S
C797 C799 1.419 . S
C797 H801 0.930 . S
C798 C797 1.369 . S
C798 C807 1.429 . S
C799 C797 1.419 . S
C799 C800 1.363 . S
C799 H802 0.929 . S
C800 C799 1.363 . S
C800 C806 1.428 . S
H801 C797 0.930 . S
H802 C799 0.929 . S
S803 N804 1.613 . S
S803 N805 1.610 . S
N804 S803 1.613 . S
N804 C807 1.350 . S
N805 S803 1.610 . S
N805 C806 1.351 . S
C806 C800 1.428 . S
C806 N805 1.351 . S
C806 C807 1.434 . S
C807 C798 1.429 . S
C807 N804 1.350 . S
C807 C806 1.434 . S
C808 C809 1.369 . S
C808 C810 1.419 . S
C808 H812 0.930 . S
C809 C808 1.369 . S
C809 C818 1.429 . S
C810 C808 1.419 . S
C810 C811 1.363 . S
C810 H813 0.929 . S
C811 C810 1.363 . S
C811 C817 1.428 . S
H812 C808 0.930 . S
H813 C810 0.929 . S
S814 N815 1.613 . S
S814 N816 1.610 . S
N815 S814 1.613 . S
N815 C818 1.350 . S
N816 S814 1.610 . S
N816 C817 1.351 . S
C817 C811 1.428 . S
C817 N816 1.351 . S
C817 C818 1.434 . S
C818 C809 1.429 . S
C818 N815 1.350 . S
C818 C817 1.434 . S
C819 C820 1.369 . S
C819 C821 1.419 . S
C819 H823 0.930 . S
C820 C819 1.369 . S
C820 C829 1.429 . S
C821 C819 1.419 . S
C821 C822 1.363 . S
C821 H824 0.929 . S
C822 C821 1.363 . S
C822 C828 1.428 . S
H823 C819 0.930 . S
H824 C821 0.929 . S
S825 N826 1.613 . S
S825 N827 1.610 . S
N826 S825 1.613 . S
N826 C829 1.350 . S
N827 S825 1.610 . S
N827 C828 1.351 . S
C828 C822 1.428 . S
C828 N827 1.351 . S
C828 C829 1.434 . S
C829 C820 1.429 . S
C829 N826 1.350 . S
C829 C828 1.434 . S
C830 C831 1.369 . S
C830 C832 1.419 . S
C830 H834 0.930 . S
C831 C830 1.369 . S
C831 C840 1.429 . S
C832 C830 1.419 . S
C832 C833 1.363 . S
C832 H835 0.929 . S
C833 C832 1.363 . S
C833 C839 1.428 . S
H834 C830 0.930 . S
H835 C832 0.929 . S
S836 N837 1.613 . S
S836 N838 1.610 . S
N837 S836 1.613 . S
N837 C840 1.350 . S
N838 S836 1.610 . S
N838 C839 1.351 . S
C839 C833 1.428 . S
C839 N838 1.351 . S
C839 C840 1.434 . S
C840 C831 1.429 . S
C840 N837 1.350 . S
C840 C839 1.434 . S
C841 C842 1.369 . S
C841 C843 1.419 . S
C841 H845 0.930 . S
C842 C841 1.369 . S
C842 C851 1.429 . S
C843 C841 1.419 . S
C843 C844 1.363 . S
C843 H846 0.929 . S
C844 C843 1.363 . S
C844 C850 1.428 . S
H845 C841 0.930 . S
H846 C843 0.929 . S
S847 N848 1.613 . S
S847 N849 1.610 . S
N848 S847 1.613 . S
N848 C851 1.350 . S
N849 S847 1.610 . S
N849 C850 1.351 . S
C850 C844 1.428 . S
C850 N849 1.351 . S
C850 C851 1.434 . S
C851 C842 1.429 . S
C851 N848 1.350 . S
C851 C850 1.434 . S
C852 C853 1.369 . S
C852 C854 1.419 . S
C852 H856 0.930 . S
C853 C852 1.369 . S
C853 C862 1.429 . S
C854 C852 1.419 . S
C854 C855 1.363 . S
C854 H857 0.929 . S
C855 C854 1.363 . S
C855 C861 1.428 . S
H856 C852 0.930 . S
H857 C854 0.929 . S
S858 N859 1.613 . S
S858 N860 1.610 . S
N859 S858 1.613 . S
N859 C862 1.350 . S
N860 S858 1.610 . S
N860 C861 1.351 . S
C861 C855 1.428 . S
C861 N860 1.351 . S
C861 C862 1.434 . S
C862 C853 1.429 . S
C862 N859 1.350 . S
C862 C861 1.434 . S
C863 C864 1.369 . S
C863 C865 1.419 . S
C863 H867 0.930 . S
C864 C863 1.369 . S
C864 C873 1.429 . S
C865 C863 1.419 . S
C865 C866 1.363 . S
C865 H868 0.929 . S
C866 C865 1.363 . S
C866 C872 1.428 . S
H867 C863 0.930 . S
H868 C865 0.929 . S
S869 N870 1.613 . S
S869 N871 1.610 . S
N870 S869 1.613 . S
N870 C873 1.350 . S
N871 S869 1.610 . S
N871 C872 1.351 . S
C872 C866 1.428 . S
C872 N871 1.351 . S
C872 C873 1.434 . S
C873 C864 1.429 . S
C873 N870 1.350 . S
C873 C872 1.434 . S
C874 C875 1.369 . S
C874 C876 1.419 . S
C874 H878 0.930 . S
C875 C874 1.369 . S
C875 C884 1.429 . S
C876 C874 1.419 . S
C876 C877 1.363 . S
C876 H879 0.929 . S
C877 C876 1.363 . S
C877 C883 1.428 . S
H878 C874 0.930 . S
H879 C876 0.929 . S
S880 N881 1.613 . S
S880 N882 1.610 . S
N881 S880 1.613 . S
N881 C884 1.350 . S
N882 S880 1.610 . S
N882 C883 1.351 . S
C883 C877 1.428 . S
C883 N882 1.351 . S
C883 C884 1.434 . S
C884 C875 1.429 . S
C884 N881 1.350 . S
C884 C883 1.434 . S
C885 C886 1.369 . S
C885 C887 1.419 . S
C885 H889 0.930 . S
C886 C885 1.369 . S
C886 C895 1.429 . S
C887 C885 1.419 . S
C887 C888 1.363 . S
C887 H890 0.929 . S
C888 C887 1.363 . S
C888 C894 1.428 . S
H889 C885 0.930 . S
H890 C887 0.929 . S
S891 N892 1.613 . S
S891 N893 1.610 . S
N892 S891 1.613 . S
N892 C895 1.350 . S
N893 S891 1.610 . S
N893 C894 1.351 . S
C894 C888 1.428 . S
C894 N893 1.351 . S
C894 C895 1.434 . S
C895 C886 1.429 . S
C895 N892 1.350 . S
C895 C894 1.434 . S
C896 C897 1.369 . S
C896 C898 1.419 . S
C896 H900 0.930 . S
C897 C896 1.369 . S
C897 C906 1.429 . S
C898 C896 1.419 . S
C898 C899 1.363 . S
C898 H901 0.929 . S
C899 C898 1.363 . S
C899 C905 1.428 . S
H900 C896 0.930 . S
H901 C898 0.929 . S
S902 N903 1.613 . S
S902 N904 1.610 . S
N903 S902 1.613 . S
N903 C906 1.350 . S
N904 S902 1.610 . S
N904 C905 1.351 . S
C905 C899 1.428 . S
C905 N904 1.351 . S
C905 C906 1.434 . S
C906 C897 1.429 . S
C906 N903 1.350 . S
C906 C905 1.434 . S
C907 C908 1.369 . S
C907 C909 1.419 . S
C907 H911 0.930 . S
C908 C907 1.369 . S
C908 C917 1.429 . S
C909 C907 1.419 . S
C909 C910 1.363 . S
C909 H912 0.929 . S
C910 C909 1.363 . S
C910 C916 1.428 . S
H911 C907 0.930 . S
H912 C909 0.929 . S
S913 N914 1.613 . S
S913 N915 1.610 . S
N914 S913 1.613 . S
N914 C917 1.350 . S
N915 S913 1.610 . S
N915 C916 1.351 . S
C916 C910 1.428 . S
C916 N915 1.351 . S
C916 C917 1.434 . S
C917 C908 1.429 . S
C917 N914 1.350 . S
C917 C916 1.434 . S
C918 C919 1.369 . S
C918 C920 1.419 . S
C918 H922 0.930 . S
C919 C918 1.369 . S
C919 C928 1.429 . S
C920 C918 1.419 . S
C920 C921 1.363 . S
C920 H923 0.929 . S
C921 C920 1.363 . S
C921 C927 1.428 . S
H922 C918 0.930 . S
H923 C920 0.929 . S
S924 N925 1.613 . S
S924 N926 1.610 . S
N925 S924 1.613 . S
N925 C928 1.350 . S
N926 S924 1.610 . S
N926 C927 1.351 . S
C927 C921 1.428 . S
C927 N926 1.351 . S
C927 C928 1.434 . S
C928 C919 1.429 . S
C928 N925 1.350 . S
C928 C927 1.434 . S
C929 C930 1.369 . S
C929 C931 1.419 . S
C929 H933 0.930 . S
C930 C929 1.369 . S
C930 C939 1.429 . S
C931 C929 1.419 . S
C931 C932 1.363 . S
C931 H934 0.929 . S
C932 C931 1.363 . S
C932 C938 1.428 . S
H933 C929 0.930 . S
H934 C931 0.929 . S
S935 N936 1.613 . S
S935 N937 1.610 . S
N936 S935 1.613 . S
N936 C939 1.350 . S
N937 S935 1.610 . S
N937 C938 1.351 . S
C938 C932 1.428 . S
C938 N937 1.351 . S
C938 C939 1.434 . S
C939 C930 1.429 . S
C939 N936 1.350 . S
C939 C938 1.434 . S
C940 C941 1.369 . S
C940 C942 1.419 . S
C940 H944 0.930 . S
C941 C940 1.369 . S
C941 C950 1.429 . S
C942 C940 1.419 . S
C942 C943 1.363 . S
C942 H945 0.929 . S
C943 C942 1.363 . S
C943 C949 1.428 . S
H944 C940 0.930 . S
H945 C942 0.929 . S
S946 N947 1.613 . S
S946 N948 1.610 . S
N947 S946 1.613 . S
N947 C950 1.350 . S
N948 S946 1.610 . S
N948 C949 1.351 . S
C949 C943 1.428 . S
C949 N948 1.351 . S
C949 C950 1.434 . S
C950 C941 1.429 . S
C950 N947 1.350 . S
C950 C949 1.434 . S
C951 C952 1.369 . S
C951 C953 1.419 . S
C951 H955 0.930 . S
C952 C951 1.369 . S
C952 C961 1.429 . S
C953 C951 1.419 . S
C953 C954 1.363 . S
C953 H956 0.929 . S
C954 C953 1.363 . S
C954 C960 1.428 . S
H955 C951 0.930 . S
H956 C953 0.929 . S
S957 N958 1.613 . S
S957 N959 1.610 . S
N958 S957 1.613 . S
N958 C961 1.350 . S
N959 S957 1.610 . S
N959 C960 1.351 . S
C960 C954 1.428 . S
C960 N959 1.351 . S
C960 C961 1.434 . S
C961 C952 1.429 . S
C961 N958 1.350 . S
C961 C960 1.434 . S
C962 C963 1.369 . S
C962 C964 1.419 . S
C962 H966 0.930 . S
C963 C962 1.369 . S
C963 C972 1.429 . S
C964 C962 1.419 . S
C964 C965 1.363 . S
C964 H967 0.929 . S
C965 C964 1.363 . S
C965 C971 1.428 . S
H966 C962 0.930 . S
H967 C964 0.929 . S
S968 N969 1.613 . S
S968 N970 1.610 . S
N969 S968 1.613 . S
N969 C972 1.350 . S
N970 S968 1.610 . S
N970 C971 1.351 . S
C971 C965 1.428 . S
C971 N970 1.351 . S
C971 C972 1.434 . S
C972 C963 1.429 . S
C972 N969 1.350 . S
C972 C971 1.434 . S
C973 C974 1.369 . S
C973 C975 1.419 . S
C973 H977 0.930 . S
C974 C973 1.369 . S
C974 C983 1.429 . S
C975 C973 1.419 . S
C975 C976 1.363 . S
C975 H978 0.929 . S
C976 C975 1.363 . S
C976 C982 1.428 . S
H977 C973 0.930 . S
H978 C975 0.929 . S
S979 N980 1.613 . S
S979 N981 1.610 . S
N980 S979 1.613 . S
N980 C983 1.350 . S
N981 S979 1.610 . S
N981 C982 1.351 . S
C982 C976 1.428 . S
C982 N981 1.351 . S
C982 C983 1.434 . S
C983 C974 1.429 . S
C983 N980 1.350 . S
C983 C982 1.434 . S
C984 C985 1.369 . S
C984 C986 1.419 1_455 S
C984 H988 0.930 . S
C985 C984 1.369 . S
C985 C994 1.429 . S
C986 C984 1.419 1_655 S
C986 C987 1.363 . S
C986 H989 0.929 . S
C987 C986 1.363 . S
C987 C993 1.428 . S
H988 C984 0.930 . S
H989 C986 0.929 . S
S990 N991 1.613 . S
S990 N992 1.610 1_455 S
N991 S990 1.613 . S
N991 C994 1.350 . S
N992 S990 1.610 1_655 S
N992 C993 1.351 . S
C993 C987 1.428 . S
C993 N992 1.351 . S
C993 C994 1.434 1_655 S
C994 C985 1.429 . S
C994 N991 1.350 . S
C994 C993 1.434 1_455 S
C995 C996 1.369 . S
C995 C997 1.419 . S
C995 H999 0.930 . S
C996 C995 1.369 . S
C996 C1005 1.429 . S
C997 C995 1.419 . S
C997 C998 1.363 . S
C997 H1000 0.929 . S
C998 C997 1.363 . S
C998 C1004 1.428 . S
H999 C995 0.930 . S
H1000 C997 0.929 . S
S1001 N1002 1.613 . S
S1001 N1003 1.610 . S
N1002 S1001 1.613 . S
N1002 C1005 1.350 . S
N1003 S1001 1.610 . S
N1003 C1004 1.351 . S
C1004 C998 1.428 . S
C1004 N1003 1.351 . S
C1004 C1005 1.434 . S
C1005 C996 1.429 . S
C1005 N1002 1.350 . S
C1005 C1004 1.434 . S
C1006 C1007 1.425 . S
C1006 C1008 1.362 1_545 S
C1006 H1010 0.930 . S
C1007 C1006 1.425 . S
C1007 C1016 1.429 . S
C1008 C1006 1.362 1_565 S
C1008 C1009 1.363 . S
C1008 H1011 0.929 . S
C1009 C1008 1.363 . S
C1009 C1015 1.443 . S
H1010 C1006 0.930 . S
H1011 C1008 0.929 . S
S1012 N1013 1.613 . S
S1012 N1014 1.610 . S
N1013 S1012 1.613 . S
N1013 C1016 1.350 . S
N1014 S1012 1.610 . S
N1014 C1015 1.350 1_545 S
C1015 C1009 1.443 . S
C1015 N1014 1.350 1_565 S
C1015 C1016 1.418 1_565 S
C1016 C1007 1.429 . S
C1016 N1013 1.350 . S
C1016 C1015 1.418 1_545 S
C721 C21 1.529 . S
C723 C221 1.531 . S
C732 C61 1.478 . S
C734 C122 1.470 . S
C743 C82 1.470 . S
C745 C181 1.476 . S
C754 C42 1.466 . S
C756 C162 1.470 . S
C765 C202 1.537 . S
C767 C101 1.509 1_556 S
C776 C2 1.535 . S
C778 C141 1.510 1_554 S
C787 C461 1.531 . S
C789 C261 1.529 . S
C798 C301 1.475 . S
C800 C362 1.466 . S
C809 C322 1.470 . S
C811 C421 1.476 . S
C820 C282 1.472 . S
C822 C402 1.469 . S
C831 C341 1.513 . S
C833 C442 1.535 . S
C842 C242 1.534 . S
C844 C381 1.510 . S
C853 C501 1.530 . S
C855 C701 1.529 . S
C864 C602 1.470 . S
C866 C541 1.478 . S
C875 C661 1.475 . S
C877 C562 1.469 . S
C886 C642 1.471 . S
C888 C522 1.468 . S
C897 C682 1.538 . S
C899 C581 1.513 . S
C908 C621 1.514 . S
C910 C482 1.536 . S
C919 C15 1.505 . S
C921 C415 1.504 . S
C930 C455 1.504 . S
C932 C55 1.504 . S
C941 C375 1.524 . S
C943 C95 1.528 . S
C952 C135 1.527 . S
C954 C575 1.525 . S
C963 C175 1.504 . S
C965 C495 1.505 . S
C974 C535 1.504 . S
C976 C215 1.504 . S
C985 C655 1.505 . S
C987 C255 1.505 . S
C996 C295 1.504 . S
C998 C695 1.504 . S
C1007 C335 1.525 . S
C1009 C615 1.528 . S
