# Generated by pormake.
# Topology eci, (8)-cn, num edge types: 1
# Building blocks:
#     Node 0, Type 0, BuildingBlock: AJUNOK_clean_sbu_0, # of connection points: 8
#     Node 1, Type 0, BuildingBlock: AJUNOK_clean_sbu_0, # of connection points: 8
#     Node 2, Type 0, BuildingBlock: AJUNOK_clean_sbu_0, # of connection points: 8
#     Node 3, Type 0, BuildingBlock: AJUNOK_clean_sbu_0, # of connection points: 8
#     Edge 4, Type (0, 0), BuildingBlock: CIFDUS_clean_linker_0, # of connection points: 2
#     Edge 5, Type (0, 0), BuildingBlock: CIFDUS_clean_linker_0, # of connection points: 2
#     Edge 6, Type (0, 0), BuildingBlock: CIFDUS_clean_linker_0, # of connection points: 2
#     Edge 7, Type (0, 0), BuildingBlock: CIFDUS_clean_linker_0, # of connection points: 2
#     Edge 8, Type (0, 0), BuildingBlock: CIFDUS_clean_linker_0, # of connection points: 2
#     Edge 9, Type (0, 0), BuildingBlock: CIFDUS_clean_linker_0, # of connection points: 2
#     Edge 10, Type (0, 0), BuildingBlock: CIFDUS_clean_linker_0, # of connection points: 2
#     Edge 11, Type (0, 0), BuildingBlock: CIFDUS_clean_linker_0, # of connection points: 2
#     Edge 12, Type (0, 0), BuildingBlock: CIFDUS_clean_linker_0, # of connection points: 2
#     Edge 13, Type (0, 0), BuildingBlock: CIFDUS_clean_linker_0, # of connection points: 2
#     Edge 14, Type (0, 0), BuildingBlock: CIFDUS_clean_linker_0, # of connection points: 2
#     Edge 15, Type (0, 0), BuildingBlock: CIFDUS_clean_linker_0, # of connection points: 2
#     Edge 16, Type (0, 0), BuildingBlock: CIFDUS_clean_linker_0, # of connection points: 2
#     Edge 17, Type (0, 0), BuildingBlock: CIFDUS_clean_linker_0, # of connection points: 2
#     Edge 18, Type (0, 0), BuildingBlock: CIFDUS_clean_linker_0, # of connection points: 2
#     Edge 19, Type (0, 0), BuildingBlock: CIFDUS_clean_linker_0, # of connection points: 2
# Relax obj value: 0.372
# Max RMSD: 0.289
# Mean RMSD: 0.289
data_MOF--net-eci--node1-AJUNOK_clean_sbu_0--edge1-CIFDUS_clean_linker_0
_symmetry_space_group_name_H-M    P1
_symmetry_Int_Tables_number       1
_symmetry_cell_setting            triclinic
loop_
_symmetry_equiv_pos_as_xyz
'x, y, z'
_cell_length_a     30.39449
_cell_length_b     30.45489
_cell_length_c     16.798578
_cell_angle_alpha  89.693534
_cell_angle_beta   89.734689
_cell_angle_gamma 90.121089
loop_
_atom_site_label
_atom_site_type_symbol
_atom_site_fract_x
_atom_site_fract_y
_atom_site_fract_z
_atom_type_partial_charge
Cd0 Cd 0.80469 0.77747 0.11788 0.0
Cd1 Cd 0.79769 0.81956 0.8807 0.0
C2 C 0.79896 0.68699 0.01779 0.0
N3 N 0.77294 0.71905 0.04875 0.0
C4 C 0.71567 0.66705 0.07465 0.0
C5 C 0.74424 0.63247 0.05455 0.0
C6 C 0.78516 0.64318 0.02017 0.0
C7 C 0.73108 0.71026 0.07274 0.0
H8 H 0.83239 0.69406 0.00045 0.0
H9 H 0.71143 0.73605 0.09889 0.0
C10 C 0.76167 0.88007 0.04607 0.0
C11 C 0.82244 0.91116 0.78394 0.0
C12 C 0.84857 0.9476 0.76391 0.0
C13 C 0.88912 0.95393 0.8024 0.0
C14 C 0.9022 0.92326 0.86026 0.0
C15 C 0.87514 0.88773 0.87848 0.0
N16 N 0.83636 0.88204 0.84009 0.0
H17 H 0.79116 0.90617 0.75488 0.0
H18 H 0.88526 0.86451 0.92342 0.0
C19 C 0.6931 0.83556 0.90204 0.0
N20 N 0.72268 0.80208 0.90404 0.0
C21 C 0.66375 0.74966 0.91091 0.0
C22 C 0.63249 0.78378 0.9109 0.0
C23 C 0.64801 0.82724 0.90735 0.0
C24 C 0.7088 0.75961 0.90671 0.0
H25 H 0.70427 0.8689 0.8933 0.0
H26 H 0.73262 0.7334 0.90267 0.0
C27 C 0.8888 0.76548 -0.01018 0.0
C28 C 0.77691 0.75216 0.2741 0.0
N29 N 0.86445 0.82209 0.14755 0.0
C30 C 0.89185 0.81061 0.20783 0.0
C31 C 0.92726 0.83756 0.2275 0.0
C32 C 0.93393 0.87726 0.18594 0.0
C33 C 0.90503 0.888 0.12369 0.0
C34 C 0.87092 0.85949 0.10468 0.0
C35 C 0.7908 0.77711 0.73249 0.0
O36 O 0.7691 0.84969 0.09642 0.0
O37 O 0.77159 0.87576 0.97302 0.0
O38 O 0.86333 0.7847 0.94099 0.0
O39 O 0.87502 0.75541 0.05904 0.0
O40 O 0.75493 0.77809 0.2307 0.0
O41 O 0.8122 0.73711 0.24441 0.0
O42 O 0.80963 0.75827 0.7908 0.0
O43 O 0.77648 0.81588 0.74311 0.0
H44 H 0.88644 0.78033 0.24025 0.0
H45 H 0.84954 0.86736 0.05573 0.0
H46 H 0.68328 0.66055 0.09917 0.0
H47 H 0.80843 0.6179 0.0037 0.0
H48 H 0.83702 0.97067 0.71946 0.0
H49 H 0.93344 0.92616 0.89055 0.0
H50 H 0.65357 0.71557 0.91104 0.0
H51 H 0.62555 0.85478 0.90701 0.0
H52 H 0.94917 0.82716 0.27453 0.0
H53 H 0.90808 0.9184 0.09044 0.0
Cd54 Cd 0.71051 0.3153 0.349 0.0
Cd55 Cd 0.69462 0.28345 0.12124 0.0
C56 C 0.81108 0.32057 0.29225 0.0
N57 N 0.77874 0.29105 0.30932 0.0
C58 C 0.83159 0.23592 0.34058 0.0
C59 C 0.86561 0.26645 0.32801 0.0
C60 C 0.8551 0.30862 0.29992 0.0
C61 C 0.78805 0.24918 0.33158 0.0
H62 H 0.80302 0.35452 0.28098 0.0
H63 H 0.76159 0.22725 0.34888 0.0
C64 C 0.62015 0.26568 0.27356 0.0
C65 C 0.62453 0.3314 0.0028 0.0
C66 C 0.59409 0.36273 0.97746 0.0
C67 C 0.58186 0.39687 0.02889 0.0
C68 C 0.60101 0.39851 0.10484 0.0
C69 C 0.63039 0.36605 0.1282 0.0
N70 N 0.64177 0.33345 0.07731 0.0
H71 H 0.63411 0.30546 0.96284 0.0
H72 H 0.6439 0.36671 0.18744 0.0
C73 C 0.67908 0.18636 0.18903 0.0
N74 N 0.71283 0.21522 0.17778 0.0
C75 C 0.76504 0.15652 0.18574 0.0
C76 C 0.73052 0.126 0.1937 0.0
C77 C 0.68726 0.14164 0.19839 0.0
C78 C 0.75532 0.20124 0.17652 0.0
H79 H 0.64548 0.19716 0.18335 0.0
H80 H 0.78139 0.22432 0.16263 0.0
C81 C 0.73548 0.37879 0.18385 0.0
C82 C 0.73477 0.29471 0.50757 0.0
N83 N 0.6678 0.37406 0.39137 0.0
C84 C 0.68652 0.41225 0.41594 0.0
C85 C 0.66017 0.4464 0.44437 0.0
C86 C 0.61431 0.44078 0.44802 0.0
C87 C 0.59605 0.40118 0.4211 0.0
C88 C 0.62353 0.36813 0.3931 0.0
C89 C 0.7169 0.25434 0.96571 0.0
O90 O 0.65169 0.26314 0.32249 0.0
O91 O 0.62659 0.2778 0.20194 0.0
O92 O 0.74607 0.34454 0.14538 0.0
O93 O 0.71844 0.37542 0.25278 0.0
O94 O 0.70706 0.27192 0.46939 0.0
O95 O 0.75069 0.32823 0.47229 0.0
O96 O 0.74129 0.2802 0.00469 0.0
O97 O 0.68193 0.24107 -8e-05 0.0
H98 H 0.72192 0.41598 0.41414 0.0
H99 H 0.6095 0.33748 0.37364 0.0
H100 H 0.83845 0.2031 0.3623 0.0
H101 H 0.88034 0.33339 0.29147 0.0
H102 H 0.57979 0.35968 0.91884 0.0
H103 H 0.59343 0.42456 0.14626 0.0
H104 H 0.79881 0.14564 0.18011 0.0
H105 H 0.65973 0.11913 0.20355 0.0
H106 H 0.6755 0.47638 0.4649 0.0
H107 H 0.56081 0.39578 0.42163 0.0
Cd108 Cd 0.21272 0.1833 0.34843 0.0
Cd109 Cd 0.19738 0.22379 0.5722 0.0
C110 C 0.31238 0.1803 0.40205 0.0
N111 N 0.27931 0.20987 0.39332 0.0
C112 C 0.33091 0.26856 0.37886 0.0
C113 C 0.36574 0.23833 0.38225 0.0
C114 C 0.35608 0.19398 0.39782 0.0
C115 C 0.2876 0.25341 0.3836 0.0
H116 H 0.30501 0.14558 0.4041 0.0
H117 H 0.26075 0.2757 0.37179 0.0
C118 C 0.11998 0.23971 0.42516 0.0
C119 C 0.11142 0.18595 0.65935 0.0
C120 C 0.07432 0.1605 0.6761 0.0
C121 C 0.06231 0.12633 0.62452 0.0
C122 C 0.08771 0.11978 0.55541 0.0
C123 C 0.12427 0.1465 0.54043 0.0
N124 N 0.13576 0.17845 0.59279 0.0
H125 H 0.12071 0.21192 0.69949 0.0
H126 H 0.14312 0.14198 0.48658 0.0
C127 C 0.19982 0.3191 0.48344 0.0
N128 N 0.22591 0.29052 0.52407 0.0
C129 C 0.27066 0.34977 0.57029 0.0
C130 C 0.24101 0.3799 0.53715 0.0
C131 C 0.20678 0.36423 0.48945 0.0
C132 C 0.26221 0.30478 0.56343 0.0
H133 H 0.17093 0.30779 0.45314 0.0
H134 H 0.28165 0.28159 0.5972 0.0
C135 C 0.23906 0.12768 0.51818 0.0
C136 C 0.24135 0.20418 0.19333 0.0
N137 N 0.17316 0.12532 0.29622 0.0
C138 C 0.18466 0.08249 0.30589 0.0
C139 C 0.15703 0.04935 0.2782 0.0
C140 C 0.11818 0.06073 0.23851 0.0
C141 C 0.10814 0.10508 0.22622 0.0
C142 C 0.13621 0.13709 0.25623 0.0
C143 C 0.21641 0.24161 0.73482 0.0
O144 O 0.14591 0.22313 0.37447 0.0
O145 O 0.12998 0.24153 0.49842 0.0
O146 O 0.25018 0.16394 0.54909 0.0
O147 O 0.22106 0.12693 0.45036 0.0
O148 O 0.21752 0.23049 0.23318 0.0
O149 O 0.25193 0.16811 0.22657 0.0
O150 O 0.2339 0.21046 0.69669 0.0
O151 O 0.18849 0.2648 0.69766 0.0
H152 H 0.21479 0.07395 0.33611 0.0
H153 H 0.12823 0.17145 0.24878 0.0
H154 H 0.33696 0.30304 0.36697 0.0
H155 H 0.38177 0.1694 0.39897 0.0
H156 H 0.05527 0.16766 0.72905 0.0
H157 H 0.08007 0.09379 0.51395 0.0
H158 H 0.29713 0.3608 0.60828 0.0
H159 H 0.18327 0.38667 0.46316 0.0
H160 H 0.16567 0.01526 0.28805 0.0
H161 H 0.07821 0.11482 0.19617 0.0
Cd162 Cd 0.32228 0.72242 0.6336 0.0
Cd163 Cd 0.28743 0.68037 0.86826 0.0
C164 C 0.32929 0.82625 0.64942 0.0
N165 N 0.29945 0.79348 0.6606 0.0
C166 C 0.24128 0.84547 0.67463 0.0
C167 C 0.27094 0.87993 0.65822 0.0
C168 C 0.31575 0.86997 0.64868 0.0
C169 C 0.25634 0.80214 0.67518 0.0
H170 H 0.3632 0.81826 0.63619 0.0
H171 H 0.23327 0.77532 0.68248 0.0
C172 C 0.27507 0.61946 0.71452 0.0
C173 C 0.33519 0.59105 0.88888 0.0
C174 C 0.36678 0.55838 0.89044 0.0
C175 C 0.40657 0.56438 0.84901 0.0
C176 C 0.41138 0.60131 0.79919 0.0
C177 C 0.37794 0.63289 0.79748 0.0
N178 N 0.34158 0.62784 0.84447 0.0
H179 H 0.30579 0.58766 0.92483 0.0
H180 H 0.3819 0.662 0.76124 0.0
C181 C 0.19224 0.69788 0.79345 0.0
N182 N 0.2251 0.72101 0.82888 0.0
C183 C 0.17353 0.77608 0.86984 0.0
C184 C 0.13881 0.75073 0.83969 0.0
C185 C 0.1487 0.71212 0.79854 0.0
C186 C 0.2168 0.76022 0.86453 0.0
H187 H 0.19882 0.66623 0.76773 0.0
H188 H 0.24302 0.77716 0.89512 0.0
C189 C 0.37844 0.74926 0.81203 0.0
C190 C 0.2822 0.72097 0.48443 0.0
N191 N 0.38761 0.69351 0.58563 0.0
C192 C 0.42883 0.70818 0.60285 0.0
C193 C 0.46556 0.68355 0.5799 0.0
C194 C 0.45919 0.64377 0.53977 0.0
C195 C 0.41647 0.631 0.519 0.0
C196 C 0.38102 0.65665 0.54233 0.0
C197 C 0.2728 0.66815 0.03384 0.0
O198 O 0.29129 0.65476 0.68661 0.0
O199 O 0.26355 0.61846 0.78694 0.0
O200 O 0.35329 0.72947 0.86137 0.0
O201 O 0.37099 0.74834 0.73781 0.0
O202 O 0.26014 0.71042 0.54617 0.0
O203 O 0.32133 0.73498 0.49372 0.0
O204 O 0.30079 0.69488 0.00602 0.0
O205 O 0.24993 0.64667 -0.01523 0.0
H206 H 0.43328 0.73798 0.63655 0.0
H207 H 0.34786 0.6464 0.52861 0.0
H208 H 0.2065 0.85177 0.68277 0.0
H209 H 0.33962 0.89534 0.63464 0.0
H210 H 0.36102 0.52965 0.92736 0.0
H211 H 0.44141 0.60695 0.76568 0.0
H212 H 0.16692 0.80587 0.9027 0.0
H213 H 0.12265 0.69167 0.77501 0.0
H214 H 0.49823 0.69428 0.59655 0.0
H215 H 0.41049 0.60074 0.48711 0.0
H216 H 0.82419 0.70959 0.38808 0.0
H217 H 0.70276 0.77974 0.34977 0.0
H218 H 0.69272 0.78759 0.49289 0.0
H219 H 0.72623 0.78802 0.62529 0.0
H220 H 0.84773 0.71881 0.66524 0.0
H221 H 0.84981 0.69663 0.52529 0.0
C222 C 0.79501 0.72563 0.41117 0.0
C223 C 0.76511 0.74547 0.35855 0.0
C224 C 0.78993 0.73097 0.49366 0.0
C225 C 0.72688 0.76519 0.38914 0.0
C226 C 0.72116 0.76987 0.47098 0.0
C227 C 0.75273 0.76745 0.60345 0.0
C228 C 0.78749 0.75616 0.65413 0.0
C229 C 0.75379 0.7552 0.52328 0.0
C230 C 0.82099 0.72841 0.62649 0.0
C231 C 0.82225 0.71588 0.54656 0.0
H232 H 0.69902 0.23049 0.59945 0.0
H233 H 0.79559 0.33462 0.60228 0.0
H234 H 0.80525 0.32425 0.74544 0.0
H235 H 0.77708 0.29448 0.87126 0.0
H236 H 0.67556 0.1952 0.86959 0.0
H237 H 0.6779 0.19387 0.72414 0.0
C238 C 0.72263 0.25054 0.63118 0.0
C239 C 0.7457 0.28406 0.59089 0.0
C240 C 0.72695 0.24535 0.71368 0.0
C241 C 0.77677 0.3092 0.63239 0.0
C242 C 0.78232 0.30327 0.71417 0.0
C243 C 0.7561 0.27187 0.83917 0.0
C244 C 0.72545 0.24572 0.88081 0.0
C245 C 0.75618 0.27279 0.75581 0.0
C246 C 0.69889 0.21619 0.83862 0.0
C247 C 0.70008 0.21558 0.75553 0.0
H248 H 0.26974 0.19215 0.8267 0.0
H249 H 0.18553 0.30605 0.83325 0.0
H250 H 0.19308 0.30928 0.97803 0.0
H251 H 0.21357 0.27246 0.10265 0.0
H252 H 0.29323 0.15531 0.09514 0.0
H253 H 0.29816 0.16111 0.95047 0.0
C254 C 0.25343 0.21805 0.85961 0.0
C255 C 0.22614 0.24812 0.81979 0.0
C256 C 0.25685 0.21887 0.94261 0.0
C257 C 0.20599 0.28198 0.86293 0.0
C258 C 0.21029 0.28383 0.94561 0.0
C259 C 0.23267 0.24865 0.06946 0.0
C260 C 0.25207 0.2129 0.10915 0.0
C261 C 0.23406 0.25129 -0.01379 0.0
C262 C 0.27733 0.18271 0.06569 0.0
C263 C 0.28006 0.18592 0.98299 0.0
H264 H 0.21214 0.70024 0.13601 0.0
H265 H 0.33004 0.62236 0.12102 0.0
H266 H 0.34092 0.62893 0.26444 0.0
H267 H 0.32389 0.66711 0.38755 0.0
H268 H 0.20692 0.74591 0.40667 0.0
H269 H 0.1882 0.72902 0.26756 0.0
C270 C 0.23917 0.68352 0.16519 0.0
C271 C 0.27033 0.66084 0.11942 0.0
C272 C 0.2459 0.68871 0.24723 0.0
C273 C 0.3057 0.63965 0.15624 0.0
C274 C 0.31214 0.64382 0.23772 0.0
C275 C 0.29408 0.68019 0.36123 0.0
C276 C 0.26734 0.70855 0.40518 0.0
C277 C 0.28368 0.67003 0.28273 0.0
C278 C 0.22818 0.72456 0.37243 0.0
C279 C 0.21756 0.71484 0.29337 0.0
H280 H 0.43536 0.71375 0.91953 0.0
H281 H 0.41907 0.82289 0.75792 0.0
H282 H 0.49569 0.84445 0.77766 0.0
H283 H 0.5688 0.82789 0.82902 0.0
H284 H 0.58693 0.71793 -0.01135 0.0
H285 H 0.50852 0.70046 0.97989 0.0
C286 C 0.44834 0.74297 0.89053 0.0
C287 C 0.42145 0.76703 0.83791 0.0
C288 C 0.49306 0.75431 0.90005 0.0
C289 C 0.43902 0.80409 0.79903 0.0
C290 C 0.48292 0.81621 0.80985 0.0
C291 C 0.55567 0.80066 0.86353 0.0
C292 C 0.58414 0.77432 0.90943 0.0
C293 C 0.51054 0.79089 0.85845 0.0
C294 C 0.56617 0.73848 0.95186 0.0
C295 C 0.52116 0.72864 0.94738 0.0
H296 H 0.6892 0.07131 0.09295 0.0
H297 H 0.79095 0.07411 0.27068 0.0
H298 H 0.80653 0.99614 0.24664 0.0
H299 H 0.79387 0.92838 0.16827 0.0
H300 H 0.69605 0.92923 0.98328 0.0
H301 H 0.67556 0.00427 0.01776 0.0
C302 C 0.71427 0.05465 0.12747 0.0
C303 C 0.73861 0.07822 0.1841 0.0
C304 C 0.72366 0.01045 0.11183 0.0
C305 C 0.77178 0.05655 0.22687 0.0
C306 C 0.78061 0.01204 0.21314 0.0
C307 C 0.76754 0.94488 0.1367 0.0
C308 C 0.74613 0.9233 0.07376 0.0
C309 C 0.75711 0.98878 0.15496 0.0
C310 C 0.71284 0.94518 0.03191 0.0
C311 C 0.70121 0.9881 0.05153 0.0
H312 H 0.44345 0.21233 0.44742 0.0
H313 H 0.3893 0.29209 0.25882 0.0
H314 H 0.46299 0.30658 0.20715 0.0
H315 H 0.54283 0.29453 0.2124 0.0
H316 H 0.59704 0.21485 0.401 0.0
H317 H 0.52335 0.20156 0.45443 0.0
C318 C 0.44783 0.233 0.39519 0.0
C319 C 0.4109 0.25124 0.35745 0.0
C320 C 0.49028 0.2406 0.36483 0.0
C321 C 0.41715 0.2783 0.29015 0.0
C322 C 0.45928 0.28617 0.25981 0.0
C323 C 0.53842 0.27384 0.26463 0.0
C324 C 0.57524 0.25524 0.30203 0.0
C325 C 0.49603 0.26701 0.29601 0.0
C326 C 0.56915 0.22933 0.37077 0.0
C327 C 0.52706 0.22184 0.4016 0.0
H328 H 0.30612 0.95909 0.70173 0.0
H329 H 0.20019 0.90109 0.56765 0.0
H330 H 0.1801 0.97297 0.51565 0.0
H331 H 0.1964 0.05094 0.49843 0.0
H332 H 0.30155 0.11051 0.6317 0.0
H333 H 0.31835 0.03937 0.69345 0.0
C334 C 0.27837 0.96234 0.66179 0.0
C335 C 0.25482 0.92467 0.6385 0.0
C336 C 0.26729 0.00389 0.63095 0.0
C337 C 0.21857 0.92948 0.58748 0.0
C338 C 0.20733 0.97055 0.55688 0.0
C339 C 0.22307 0.04838 0.54092 0.0
C340 C 0.24837 0.08564 0.55912 0.0
C341 C 0.23215 0.00771 0.57655 0.0
C342 C 0.28196 0.08212 0.61601 0.0
C343 C 0.29153 0.04149 0.65131 0.0
H344 H 0.9408 0.81048 0.88379 0.0
H345 H 0.9418 0.70099 0.0478 0.0
H346 H 0.01896 0.68692 0.01548 0.0
H347 H 0.08639 0.70559 0.9406 0.0
H348 H 0.0878 0.81814 0.78449 0.0
H349 H 0.00968 0.83168 0.81413 0.0
C350 C 0.95783 0.78343 0.91217 0.0
C351 C 0.93531 0.7565 0.96758 0.0
C352 C 1.00273 0.77634 0.89503 0.0
C353 C 0.95821 0.72206 0.00475 0.0
C354 C 1.00238 0.71403 -0.01363 0.0
C355 C 0.06945 0.73311 0.91333 0.0
C356 C 0.0924 0.76072 0.86007 0.0
C357 C 0.02497 0.74094 0.93173 0.0
C358 C 0.07057 0.79654 0.82557 0.0
C359 C 0.02597 0.80411 0.84236 0.0
H360 H 0.70982 0.4568 0.24549 0.0
H361 H 0.77205 0.40042 0.03853 0.0
H362 H 0.77768 0.47339 0.97732 0.0
H363 H 0.76555 0.55369 0.98368 0.0
H364 H 0.70479 0.60831 0.19411 0.0
H365 H 0.69693 0.53549 0.25114 0.0
C366 C 0.7249 0.46029 0.18714 0.0
C367 C 0.74095 0.42306 0.14728 0.0
C368 C 0.72766 0.50213 0.15207 0.0
C369 C 0.75981 0.42848 0.07114 0.0
C370 C 0.76285 0.47022 0.03587 0.0
C371 C 0.75044 0.54968 0.04185 0.0
C372 C 0.73528 0.58685 0.08358 0.0
C373 C 0.74692 0.50737 0.07588 0.0
C374 C 0.71564 0.58064 0.15897 0.0
C375 C 0.71168 0.53888 0.19253 0.0
H376 H 0.94259 0.28435 0.25117 0.0
H377 H 0.88964 0.22835 0.46787 0.0
H378 H 0.96379 0.21804 0.51954 0.0
H379 H 0.04374 0.2254 0.50376 0.0
H380 H 0.09719 0.27805 0.28502 0.0
H381 H 0.02283 0.29035 0.23423 0.0
C382 C 0.94742 0.26983 0.30958 0.0
C383 C 0.9108 0.25685 0.35532 0.0
C384 C 0.99014 0.26417 0.33913 0.0
C385 C 0.91737 0.23783 0.43081 0.0
C386 C 0.95971 0.23241 0.46086 0.0
C387 C 0.03896 0.24032 0.44563 0.0
C388 C 0.07556 0.2517 0.39871 0.0
C389 C 0.9963 0.24575 0.41581 0.0
C390 C 0.06924 0.26963 0.32241 0.0
C391 C 0.02685 0.27638 0.29322 0.0
H392 H 0.30428 0.44361 0.52352 0.0
H393 H 0.17496 0.41739 0.61902 0.0
H394 H 0.173 0.48999 0.67979 0.0
H395 H 0.20938 0.55971 0.71135 0.0
H396 H 0.33837 0.58688 0.61676 0.0
H397 H 0.33894 0.51617 0.54824 0.0
C398 C 0.27559 0.45426 0.5568 0.0
C399 C 0.23969 0.42557 0.56645 0.0
C400 C 0.27449 0.49638 0.59103 0.0
C401 C 0.20268 0.43933 0.61 0.0
C402 C 0.20162 0.48069 0.64507 0.0
C403 C 0.23726 0.55029 0.67469 0.0
C404 C 0.27326 0.57889 0.66694 0.0
C405 C 0.23746 0.50934 0.63664 0.0
C406 C 0.30951 0.56623 0.62036 0.0
C407 C 0.31013 0.52542 0.58248 0.0
H408 H 0.07943 1.00063 0.33323 0.0
H409 H 0.08601 0.04616 0.09015 0.0
H410 H 0.03115 0.99127 0.05134 0.0
H411 H 0.98147 0.93123 0.08742 0.0
H412 H 0.96846 0.89205 0.33432 0.0
H413 H 0.02708 0.9425 0.37029 0.0
C414 C 0.06907 0.99803 0.27169 0.0
C415 C 0.08678 0.02663 0.21421 0.0
C416 C 0.0368 0.96745 0.25056 0.0
C417 C 0.07273 0.02403 0.13495 0.0
C418 C 0.04149 0.99279 0.11294 0.0
C419 C 0.99074 0.93405 0.1494 0.0
C420 C 0.9703 0.90756 0.2078 0.0
C421 C 0.02313 0.96454 0.17044 0.0
C422 C 0.984 0.91115 0.28748 0.0
C423 C 0.01729 0.9404 0.30845 0.0
H424 H 0.61776 0.52895 0.41836 0.0
H425 H 0.54577 0.43024 0.55095 0.0
H426 H 0.49317 0.48537 0.5951 0.0
H427 H 0.46465 0.56017 0.58843 0.0
H428 H 0.53557 0.65987 0.45757 0.0
H429 H 0.59224 0.60601 0.42126 0.0
C430 C 0.59092 0.51972 0.45784 0.0
C431 C 0.58524 0.47547 0.48032 0.0
C432 C 0.56062 0.55164 0.4829 0.0
C433 C 0.55026 0.46391 0.53138 0.0
C434 C 0.52029 0.4954 0.55694 0.0
C435 C 0.49273 0.57003 0.55232 0.0
C436 C 0.49596 0.61344 0.52461 0.0
C437 C 0.52463 0.53906 0.53165 0.0
C438 C 0.53263 0.62641 0.47918 0.0
C439 C 0.56477 0.59564 0.45824 0.0
H440 H 0.03685 0.09773 0.77144 0.0
H441 H 1.00296 0.08792 0.52273 0.0
H442 H 0.94495 0.03524 0.55591 0.0
H443 H 0.90658 0.98894 0.65527 0.0
H444 H 0.93804 0.00342 0.90426 0.0
H445 H 0.99368 0.05813 0.87096 0.0
C446 C 0.01625 0.08502 0.72434 0.0
C447 C 0.02472 0.09673 0.64456 0.0
C448 C 0.9825 0.05541 0.74385 0.0
C449 C 0.99798 0.07889 0.58455 0.0
C450 C 0.96451 0.04898 0.60351 0.0
C451 C 0.92496 0.00469 0.70238 0.0
C452 C 0.91859 0.99141 0.78204 0.0
C453 C 0.95685 0.03655 0.68293 0.0
C454 C 0.94297 0.01211 0.84224 0.0
C455 C 0.97471 0.04359 0.82335 0.0
H456 H 0.56687 0.43317 0.88098 0.0
H457 H 0.51948 0.43353 0.12431 0.0
H458 H 0.46475 0.48787 0.08996 0.0
H459 H 0.42929 0.53388 -0.00719 0.0
H460 H 0.46854 0.52965 0.74583 0.0
H461 H 0.52798 0.47831 0.77985 0.0
C462 C 0.54429 0.44475 0.92631 0.0
C463 C 0.54799 0.42955 0.00557 0.0
C464 C 0.51152 0.47523 0.90563 0.0
C465 C 0.51857 0.4454 0.06348 0.0
C466 C 0.48683 0.47625 0.04381 0.0
C467 C 0.45023 0.52119 0.94581 0.0
C468 C 0.44387 0.53471 0.8667 0.0
C469 C 0.48295 0.49113 0.96533 0.0
C470 C 0.47265 0.51949 0.80724 0.0
C471 C 0.50641 0.49002 0.82667 0.0
loop_
_geom_bond_atom_site_label_1
_geom_bond_atom_site_label_2
_geom_bond_distance
_geom_bond_site_symmetry_2
_ccdc_geom_bond_type
Cd0 N3 2.334 . S
Cd0 N29 2.304 . S
Cd0 O36 2.268 . S
Cd0 O39 2.273 . S
Cd0 O40 2.417 . S
Cd0 O41 2.330 . S
Cd1 N16 2.304 . S
Cd1 N20 2.334 . S
Cd1 O37 2.273 . S
Cd1 O38 2.268 . S
Cd1 O42 2.417 . S
Cd1 O43 2.330 . S
C2 N3 1.332 . S
C2 C6 1.381 . S
C2 H8 0.931 . S
N3 Cd0 2.334 . S
N3 C2 1.332 . S
N3 C7 1.328 . S
C4 C5 1.396 . S
C4 C7 1.378 . S
C4 H46 0.931 . S
C5 C4 1.396 . S
C5 C6 1.382 . S
C6 C2 1.381 . S
C6 C5 1.382 . S
C6 H47 0.930 . S
C7 N3 1.328 . S
C7 C4 1.378 . S
C7 H9 0.930 . S
H8 C2 0.931 . S
H9 C7 0.930 . S
C10 O36 1.238 . S
C10 O37 1.253 1_554 S
C11 C12 1.379 . S
C11 N16 1.337 . S
C11 H17 0.929 . S
C12 C11 1.379 . S
C12 C13 1.380 . S
C12 H48 0.929 1_565 S
C13 C12 1.380 . S
C13 C14 1.399 . S
C14 C13 1.399 . S
C14 C15 1.376 . S
C14 H49 0.931 . S
C15 C14 1.376 . S
C15 N16 1.338 . S
C15 H18 0.930 . S
N16 Cd1 2.304 . S
N16 C11 1.337 . S
N16 C15 1.338 . S
H17 C11 0.929 . S
H18 C15 0.930 . S
C19 N20 1.332 . S
C19 C23 1.381 . S
C19 H25 0.931 . S
N20 Cd1 2.334 . S
N20 C19 1.332 . S
N20 C24 1.328 . S
C21 C22 1.396 . S
C21 C24 1.378 . S
C21 H50 0.931 . S
C22 C21 1.396 . S
C22 C23 1.382 . S
C23 C19 1.381 . S
C23 C22 1.382 . S
C23 H51 0.930 . S
C24 N20 1.328 . S
C24 C21 1.378 . S
C24 H26 0.930 . S
H25 C19 0.931 . S
H26 C24 0.930 . S
C27 O38 1.238 . S
C27 O39 1.253 1_556 S
C28 O40 1.239 . S
C28 O41 1.230 . S
N29 Cd0 2.304 . S
N29 C30 1.337 . S
N29 C34 1.338 . S
C30 N29 1.337 . S
C30 C31 1.379 . S
C30 H44 0.929 . S
C31 C30 1.379 . S
C31 C32 1.380 . S
C31 H52 0.929 1_655 S
C32 C31 1.380 . S
C32 C33 1.399 . S
C33 C32 1.399 . S
C33 C34 1.376 . S
C33 H53 0.931 . S
C34 N29 1.338 . S
C34 C33 1.376 . S
C34 H45 0.930 . S
C35 O42 1.239 . S
C35 O43 1.230 . S
O36 Cd0 2.268 . S
O36 C10 1.238 . S
O37 Cd1 2.273 . S
O37 C10 1.253 1_556 S
O38 Cd1 2.268 . S
O38 C27 1.238 . S
O39 Cd0 2.273 . S
O39 C27 1.253 1_554 S
O40 Cd0 2.417 . S
O40 C28 1.239 . S
O41 Cd0 2.330 . S
O41 C28 1.230 . S
O42 Cd1 2.417 . S
O42 C35 1.239 . S
O43 Cd1 2.330 . S
O43 C35 1.230 . S
H44 C30 0.929 . S
H45 C34 0.930 . S
H46 C4 0.931 . S
H47 C6 0.930 . S
H48 C12 0.929 1_545 S
H49 C14 0.931 . S
H50 C21 0.931 . S
H51 C23 0.930 . S
H52 C31 0.929 1_455 S
H53 C33 0.931 . S
Cd54 N57 2.334 . S
Cd54 N83 2.304 . S
Cd54 O90 2.268 . S
Cd54 O93 2.273 . S
Cd54 O94 2.417 . S
Cd54 O95 2.330 . S
Cd55 N70 2.304 . S
Cd55 N74 2.334 . S
Cd55 O91 2.273 . S
Cd55 O92 2.268 . S
Cd55 O96 2.417 1_554 S
Cd55 O97 2.330 . S
C56 N57 1.332 . S
C56 C60 1.381 . S
C56 H62 0.931 . S
N57 Cd54 2.334 . S
N57 C56 1.332 . S
N57 C61 1.328 . S
C58 C59 1.396 . S
C58 C61 1.378 . S
C58 H100 0.931 . S
C59 C58 1.396 . S
C59 C60 1.382 . S
C60 C56 1.381 . S
C60 C59 1.382 . S
C60 H101 0.930 . S
C61 N57 1.328 . S
C61 C58 1.378 . S
C61 H63 0.930 . S
H62 C56 0.931 . S
H63 C61 0.930 . S
C64 O90 1.238 . S
C64 O91 1.253 . S
C65 C66 1.379 . S
C65 N70 1.337 . S
C65 H71 0.929 . S
C66 C65 1.379 . S
C66 C67 1.380 . S
C66 H102 0.929 . S
C67 C66 1.380 . S
C67 C68 1.399 . S
C68 C67 1.399 . S
C68 C69 1.376 . S
C68 H103 0.931 . S
C69 C68 1.376 . S
C69 N70 1.338 . S
C69 H72 0.930 . S
N70 Cd55 2.304 . S
N70 C65 1.337 . S
N70 C69 1.338 . S
H71 C65 0.929 . S
H72 C69 0.930 . S
C73 N74 1.332 . S
C73 C77 1.381 . S
C73 H79 0.931 . S
N74 Cd55 2.334 . S
N74 C73 1.332 . S
N74 C78 1.328 . S
C75 C76 1.396 . S
C75 C78 1.378 . S
C75 H104 0.931 . S
C76 C75 1.396 . S
C76 C77 1.382 . S
C77 C73 1.381 . S
C77 C76 1.382 . S
C77 H105 0.930 . S
C78 N74 1.328 . S
C78 C75 1.378 . S
C78 H80 0.930 . S
H79 C73 0.931 . S
H80 C78 0.930 . S
C81 O92 1.238 . S
C81 O93 1.253 . S
C82 O94 1.239 . S
C82 O95 1.230 . S
N83 Cd54 2.304 . S
N83 C84 1.337 . S
N83 C88 1.338 . S
C84 N83 1.337 . S
C84 C85 1.379 . S
C84 H98 0.929 . S
C85 C84 1.379 . S
C85 C86 1.380 . S
C85 H106 0.929 . S
C86 C85 1.380 . S
C86 C87 1.399 . S
C87 C86 1.399 . S
C87 C88 1.376 . S
C87 H107 0.931 . S
C88 N83 1.338 . S
C88 C87 1.376 . S
C88 H99 0.930 . S
C89 O96 1.239 . S
C89 O97 1.230 1_556 S
O90 Cd54 2.268 . S
O90 C64 1.238 . S
O91 Cd55 2.273 . S
O91 C64 1.253 . S
O92 Cd55 2.268 . S
O92 C81 1.238 . S
O93 Cd54 2.273 . S
O93 C81 1.253 . S
O94 Cd54 2.417 . S
O94 C82 1.239 . S
O95 Cd54 2.330 . S
O95 C82 1.230 . S
O96 Cd55 2.417 1_556 S
O96 C89 1.239 . S
O97 Cd55 2.330 . S
O97 C89 1.230 1_554 S
H98 C84 0.929 . S
H99 C88 0.930 . S
H100 C58 0.931 . S
H101 C60 0.930 . S
H102 C66 0.929 . S
H103 C68 0.931 . S
H104 C75 0.931 . S
H105 C77 0.930 . S
H106 C85 0.929 . S
H107 C87 0.931 . S
Cd108 N111 2.334 . S
Cd108 N137 2.304 . S
Cd108 O144 2.268 . S
Cd108 O147 2.273 . S
Cd108 O148 2.417 . S
Cd108 O149 2.330 . S
Cd109 N124 2.304 . S
Cd109 N128 2.334 . S
Cd109 O145 2.273 . S
Cd109 O146 2.268 . S
Cd109 O150 2.417 . S
Cd109 O151 2.330 . S
C110 N111 1.332 . S
C110 C114 1.381 . S
C110 H116 0.931 . S
N111 Cd108 2.334 . S
N111 C110 1.332 . S
N111 C115 1.328 . S
C112 C113 1.396 . S
C112 C115 1.378 . S
C112 H154 0.931 . S
C113 C112 1.396 . S
C113 C114 1.382 . S
C114 C110 1.381 . S
C114 C113 1.382 . S
C114 H155 0.930 . S
C115 N111 1.328 . S
C115 C112 1.378 . S
C115 H117 0.930 . S
H116 C110 0.931 . S
H117 C115 0.930 . S
C118 O144 1.238 . S
C118 O145 1.253 . S
C119 C120 1.379 . S
C119 N124 1.337 . S
C119 H125 0.929 . S
C120 C119 1.379 . S
C120 C121 1.380 . S
C120 H156 0.929 1_455 S
C121 C120 1.380 . S
C121 C122 1.399 . S
C122 C121 1.399 . S
C122 C123 1.376 . S
C122 H157 0.931 . S
C123 C122 1.376 . S
C123 N124 1.338 . S
C123 H126 0.930 . S
N124 Cd109 2.304 . S
N124 C119 1.337 . S
N124 C123 1.338 . S
H125 C119 0.929 . S
H126 C123 0.930 . S
C127 N128 1.332 . S
C127 C131 1.381 . S
C127 H133 0.931 . S
N128 Cd109 2.334 . S
N128 C127 1.332 . S
N128 C132 1.328 . S
C129 C130 1.396 . S
C129 C132 1.378 . S
C129 H158 0.931 . S
C130 C129 1.396 . S
C130 C131 1.382 . S
C131 C127 1.381 . S
C131 C130 1.382 . S
C131 H159 0.930 . S
C132 N128 1.328 . S
C132 C129 1.378 . S
C132 H134 0.930 . S
H133 C127 0.931 . S
H134 C132 0.930 . S
C135 O146 1.238 . S
C135 O147 1.253 . S
C136 O148 1.239 . S
C136 O149 1.230 . S
N137 Cd108 2.304 . S
N137 C138 1.337 . S
N137 C142 1.338 . S
C138 N137 1.337 . S
C138 C139 1.379 . S
C138 H152 0.929 . S
C139 C138 1.379 . S
C139 C140 1.380 . S
C139 H160 0.929 1_545 S
C140 C139 1.380 . S
C140 C141 1.399 . S
C141 C140 1.399 . S
C141 C142 1.376 . S
C141 H161 0.931 . S
C142 N137 1.338 . S
C142 C141 1.376 . S
C142 H153 0.930 . S
C143 O150 1.239 . S
C143 O151 1.230 . S
O144 Cd108 2.268 . S
O144 C118 1.238 . S
O145 Cd109 2.273 . S
O145 C118 1.253 . S
O146 Cd109 2.268 . S
O146 C135 1.238 . S
O147 Cd108 2.273 . S
O147 C135 1.253 . S
O148 Cd108 2.417 . S
O148 C136 1.239 . S
O149 Cd108 2.330 . S
O149 C136 1.230 . S
O150 Cd109 2.417 . S
O150 C143 1.239 . S
O151 Cd109 2.330 . S
O151 C143 1.230 . S
H152 C138 0.929 . S
H153 C142 0.930 . S
H154 C112 0.931 . S
H155 C114 0.930 . S
H156 C120 0.929 1_655 S
H157 C122 0.931 . S
H158 C129 0.931 . S
H159 C131 0.930 . S
H160 C139 0.929 1_565 S
H161 C141 0.931 . S
Cd162 N165 2.334 . S
Cd162 N191 2.304 . S
Cd162 O198 2.268 . S
Cd162 O201 2.273 . S
Cd162 O202 2.417 . S
Cd162 O203 2.330 . S
Cd163 N178 2.304 . S
Cd163 N182 2.334 . S
Cd163 O199 2.273 . S
Cd163 O200 2.268 . S
Cd163 O204 2.417 1_556 S
Cd163 O205 2.330 . S
C164 N165 1.332 . S
C164 C168 1.381 . S
C164 H170 0.931 . S
N165 Cd162 2.334 . S
N165 C164 1.332 . S
N165 C169 1.328 . S
C166 C167 1.396 . S
C166 C169 1.378 . S
C166 H208 0.931 . S
C167 C166 1.396 . S
C167 C168 1.382 . S
C168 C164 1.381 . S
C168 C167 1.382 . S
C168 H209 0.930 . S
C169 N165 1.328 . S
C169 C166 1.378 . S
C169 H171 0.930 . S
H170 C164 0.931 . S
H171 C169 0.930 . S
C172 O198 1.238 . S
C172 O199 1.253 . S
C173 C174 1.379 . S
C173 N178 1.337 . S
C173 H179 0.929 . S
C174 C173 1.379 . S
C174 C175 1.380 . S
C174 H210 0.929 . S
C175 C174 1.380 . S
C175 C176 1.399 . S
C176 C175 1.399 . S
C176 C177 1.376 . S
C176 H211 0.931 . S
C177 C176 1.376 . S
C177 N178 1.338 . S
C177 H180 0.930 . S
N178 Cd163 2.304 . S
N178 C173 1.337 . S
N178 C177 1.338 . S
H179 C173 0.929 . S
H180 C177 0.930 . S
C181 N182 1.332 . S
C181 C185 1.381 . S
C181 H187 0.931 . S
N182 Cd163 2.334 . S
N182 C181 1.332 . S
N182 C186 1.328 . S
C183 C184 1.396 . S
C183 C186 1.378 . S
C183 H212 0.931 . S
C184 C183 1.396 . S
C184 C185 1.382 . S
C185 C181 1.381 . S
C185 C184 1.382 . S
C185 H213 0.930 . S
C186 N182 1.328 . S
C186 C183 1.378 . S
C186 H188 0.930 . S
H187 C181 0.931 . S
H188 C186 0.930 . S
C189 O200 1.238 . S
C189 O201 1.253 . S
C190 O202 1.239 . S
C190 O203 1.230 . S
N191 Cd162 2.304 . S
N191 C192 1.337 . S
N191 C196 1.338 . S
C192 N191 1.337 . S
C192 C193 1.379 . S
C192 H206 0.929 . S
C193 C192 1.379 . S
C193 C194 1.380 . S
C193 H214 0.929 . S
C194 C193 1.380 . S
C194 C195 1.399 . S
C195 C194 1.399 . S
C195 C196 1.376 . S
C195 H215 0.931 . S
C196 N191 1.338 . S
C196 C195 1.376 . S
C196 H207 0.930 . S
C197 O204 1.239 . S
C197 O205 1.230 1_554 S
O198 Cd162 2.268 . S
O198 C172 1.238 . S
O199 Cd163 2.273 . S
O199 C172 1.253 . S
O200 Cd163 2.268 . S
O200 C189 1.238 . S
O201 Cd162 2.273 . S
O201 C189 1.253 . S
O202 Cd162 2.417 . S
O202 C190 1.239 . S
O203 Cd162 2.330 . S
O203 C190 1.230 . S
O204 Cd163 2.417 1_554 S
O204 C197 1.239 . S
O205 Cd163 2.330 . S
O205 C197 1.230 1_556 S
H206 C192 0.929 . S
H207 C196 0.930 . S
H208 C166 0.931 . S
H209 C168 0.930 . S
H210 C174 0.929 . S
H211 C176 0.931 . S
H212 C183 0.931 . S
H213 C185 0.930 . S
H214 C193 0.929 . S
H215 C195 0.931 . S
H216 C222 0.930 . S
H217 C225 0.930 . S
H218 C226 0.930 . S
H219 C227 0.930 . S
H220 C230 0.930 . S
H221 C231 0.930 . S
C222 H216 0.930 . S
C222 C223 1.355 . S
C222 C224 1.415 . S
C223 C222 1.355 . S
C223 C225 1.419 . S
C224 C222 1.415 . S
C224 C229 1.425 . S
C224 C231 1.409 . S
C225 H217 0.930 . S
C225 C223 1.419 . S
C225 C226 1.362 . S
C226 H218 0.930 . S
C226 C225 1.362 . S
C226 C229 1.409 . S
C227 H219 0.930 . S
C227 C228 1.355 . S
C227 C229 1.415 . S
C228 C227 1.355 . S
C228 C230 1.419 . S
C229 C224 1.425 . S
C229 C226 1.409 . S
C229 C227 1.415 . S
C230 H220 0.930 . S
C230 C228 1.419 . S
C230 C231 1.362 . S
C231 H221 0.930 . S
C231 C224 1.409 . S
C231 C230 1.362 . S
H232 C238 0.930 . S
H233 C241 0.930 . S
H234 C242 0.930 . S
H235 C243 0.930 . S
H236 C246 0.930 . S
H237 C247 0.930 . S
C238 H232 0.930 . S
C238 C239 1.355 . S
C238 C240 1.415 . S
C239 C238 1.355 . S
C239 C241 1.419 . S
C240 C238 1.415 . S
C240 C245 1.425 . S
C240 C247 1.409 . S
C241 H233 0.930 . S
C241 C239 1.419 . S
C241 C242 1.362 . S
C242 H234 0.930 . S
C242 C241 1.362 . S
C242 C245 1.409 . S
C243 H235 0.930 . S
C243 C244 1.355 . S
C243 C245 1.415 . S
C244 C243 1.355 . S
C244 C246 1.419 . S
C245 C240 1.425 . S
C245 C242 1.409 . S
C245 C243 1.415 . S
C246 H236 0.930 . S
C246 C244 1.419 . S
C246 C247 1.362 . S
C247 H237 0.930 . S
C247 C240 1.409 . S
C247 C246 1.362 . S
H248 C254 0.930 . S
H249 C257 0.930 . S
H250 C258 0.930 1_554 S
H251 C259 0.930 . S
H252 C262 0.930 . S
H253 C263 0.930 1_556 S
C254 H248 0.930 . S
C254 C255 1.355 . S
C254 C256 1.415 . S
C255 C254 1.355 . S
C255 C257 1.419 . S
C256 C254 1.415 . S
C256 C261 1.425 1_556 S
C256 C263 1.409 1_556 S
C257 H249 0.930 . S
C257 C255 1.419 . S
C257 C258 1.362 . S
C258 H250 0.930 1_556 S
C258 C257 1.362 . S
C258 C261 1.409 1_556 S
C259 H251 0.930 . S
C259 C260 1.355 . S
C259 C261 1.415 . S
C260 C259 1.355 . S
C260 C262 1.419 . S
C261 C256 1.425 1_554 S
C261 C258 1.409 1_554 S
C261 C259 1.415 . S
C262 H252 0.930 . S
C262 C260 1.419 . S
C262 C263 1.362 . S
C263 H253 0.930 1_554 S
C263 C256 1.409 1_554 S
C263 C262 1.362 . S
H264 C270 0.930 . S
H265 C273 0.930 . S
H266 C274 0.930 . S
H267 C275 0.930 . S
H268 C278 0.930 . S
H269 C279 0.930 . S
C270 H264 0.930 . S
C270 C271 1.355 . S
C270 C272 1.415 . S
C271 C270 1.355 . S
C271 C273 1.419 . S
C272 C270 1.415 . S
C272 C277 1.425 . S
C272 C279 1.409 . S
C273 H265 0.930 . S
C273 C271 1.419 . S
C273 C274 1.362 . S
C274 H266 0.930 . S
C274 C273 1.362 . S
C274 C277 1.409 . S
C275 H267 0.930 . S
C275 C276 1.355 . S
C275 C277 1.415 . S
C276 C275 1.355 . S
C276 C278 1.419 . S
C277 C272 1.425 . S
C277 C274 1.409 . S
C277 C275 1.415 . S
C278 H268 0.930 . S
C278 C276 1.419 . S
C278 C279 1.362 . S
C279 H269 0.930 . S
C279 C272 1.409 . S
C279 C278 1.362 . S
H280 C286 0.930 . S
H281 C289 0.930 . S
H282 C290 0.930 . S
H283 C291 0.930 . S
H284 C294 0.930 1_554 S
H285 C295 0.930 1_554 S
C286 H280 0.930 . S
C286 C287 1.355 . S
C286 C288 1.415 . S
C287 C286 1.355 . S
C287 C289 1.419 . S
C288 C286 1.415 . S
C288 C293 1.425 . S
C288 C295 1.409 . S
C289 H281 0.930 . S
C289 C287 1.419 . S
C289 C290 1.362 . S
C290 H282 0.930 . S
C290 C289 1.362 . S
C290 C293 1.409 . S
C291 H283 0.930 . S
C291 C292 1.355 . S
C291 C293 1.415 . S
C292 C291 1.355 . S
C292 C294 1.419 . S
C293 C288 1.425 . S
C293 C290 1.409 . S
C293 C291 1.415 . S
C294 H284 0.930 1_556 S
C294 C292 1.419 . S
C294 C295 1.362 . S
C295 H285 0.930 1_556 S
C295 C288 1.409 . S
C295 C294 1.362 . S
H296 C302 0.930 . S
H297 C305 0.930 . S
H298 C306 0.930 . S
H299 C307 0.930 . S
H300 C310 0.930 . S
H301 C311 0.930 . S
C302 H296 0.930 . S
C302 C303 1.355 . S
C302 C304 1.415 . S
C303 C302 1.355 . S
C303 C305 1.419 . S
C304 C302 1.415 . S
C304 C309 1.425 . S
C304 C311 1.409 1_554 S
C305 H297 0.930 . S
C305 C303 1.419 . S
C305 C306 1.362 . S
C306 H298 0.930 . S
C306 C305 1.362 . S
C306 C309 1.409 . S
C307 H299 0.930 . S
C307 C308 1.355 . S
C307 C309 1.415 1_565 S
C308 C307 1.355 . S
C308 C310 1.419 1_554 S
C309 C304 1.425 . S
C309 C306 1.409 . S
C309 C307 1.415 1_545 S
C310 H300 0.930 . S
C310 C308 1.419 1_556 S
C310 C311 1.362 1_565 S
C311 H301 0.930 . S
C311 C304 1.409 1_556 S
C311 C310 1.362 1_545 S
H312 C318 0.930 . S
H313 C321 0.930 . S
H314 C322 0.930 . S
H315 C323 0.930 . S
H316 C326 0.930 . S
H317 C327 0.930 . S
C318 H312 0.930 . S
C318 C319 1.355 . S
C318 C320 1.415 . S
C319 C318 1.355 . S
C319 C321 1.419 . S
C320 C318 1.415 . S
C320 C325 1.425 . S
C320 C327 1.409 . S
C321 H313 0.930 . S
C321 C319 1.419 . S
C321 C322 1.362 . S
C322 H314 0.930 . S
C322 C321 1.362 . S
C322 C325 1.409 . S
C323 H315 0.930 . S
C323 C324 1.355 . S
C323 C325 1.415 . S
C324 C323 1.355 . S
C324 C326 1.419 . S
C325 C320 1.425 . S
C325 C322 1.409 . S
C325 C323 1.415 . S
C326 H316 0.930 . S
C326 C324 1.419 . S
C326 C327 1.362 . S
C327 H317 0.930 . S
C327 C320 1.409 . S
C327 C326 1.362 . S
H328 C334 0.930 . S
H329 C337 0.930 . S
H330 C338 0.930 . S
H331 C339 0.930 . S
H332 C342 0.930 . S
H333 C343 0.930 . S
C334 H328 0.930 . S
C334 C335 1.355 . S
C334 C336 1.415 . S
C335 C334 1.355 . S
C335 C337 1.419 . S
C336 C334 1.415 . S
C336 C341 1.425 . S
C336 C343 1.409 . S
C337 H329 0.930 . S
C337 C335 1.419 . S
C337 C338 1.362 . S
C338 H330 0.930 . S
C338 C337 1.362 . S
C338 C341 1.409 . S
C339 H331 0.930 . S
C339 C340 1.355 . S
C339 C341 1.415 1_545 S
C340 C339 1.355 . S
C340 C342 1.419 . S
C341 C336 1.425 . S
C341 C338 1.409 . S
C341 C339 1.415 1_565 S
C342 H332 0.930 . S
C342 C340 1.419 . S
C342 C343 1.362 1_545 S
C343 H333 0.930 . S
C343 C336 1.409 . S
C343 C342 1.362 1_565 S
H344 C350 0.930 . S
H345 C353 0.930 1_554 S
H346 C354 0.930 1_554 S
H347 C355 0.930 . S
H348 C358 0.930 . S
H349 C359 0.930 . S
C350 H344 0.930 . S
C350 C351 1.355 . S
C350 C352 1.415 1_655 S
C351 C350 1.355 . S
C351 C353 1.419 . S
C352 C350 1.415 1_455 S
C352 C357 1.425 . S
C352 C359 1.409 . S
C353 H345 0.930 1_556 S
C353 C351 1.419 . S
C353 C354 1.362 1_655 S
C354 H346 0.930 1_556 S
C354 C353 1.362 1_455 S
C354 C357 1.409 . S
C355 H347 0.930 . S
C355 C356 1.355 . S
C355 C357 1.415 . S
C356 C355 1.355 . S
C356 C358 1.419 . S
C357 C352 1.425 . S
C357 C354 1.409 . S
C357 C355 1.415 . S
C358 H348 0.930 . S
C358 C356 1.419 . S
C358 C359 1.362 . S
C359 H349 0.930 . S
C359 C352 1.409 . S
C359 C358 1.362 . S
H360 C366 0.930 . S
H361 C369 0.930 . S
H362 C370 0.930 . S
H363 C371 0.930 . S
H364 C374 0.930 . S
H365 C375 0.930 . S
C366 H360 0.930 . S
C366 C367 1.355 . S
C366 C368 1.415 . S
C367 C366 1.355 . S
C367 C369 1.419 . S
C368 C366 1.415 . S
C368 C373 1.425 . S
C368 C375 1.409 . S
C369 H361 0.930 . S
C369 C367 1.419 . S
C369 C370 1.362 . S
C370 H362 0.930 . S
C370 C369 1.362 . S
C370 C373 1.409 . S
C371 H363 0.930 . S
C371 C372 1.355 . S
C371 C373 1.415 . S
C372 C371 1.355 . S
C372 C374 1.419 . S
C373 C368 1.425 . S
C373 C370 1.409 . S
C373 C371 1.415 . S
C374 H364 0.930 . S
C374 C372 1.419 . S
C374 C375 1.362 . S
C375 H365 0.930 . S
C375 C368 1.409 . S
C375 C374 1.362 . S
H376 C382 0.930 . S
H377 C385 0.930 . S
H378 C386 0.930 . S
H379 C387 0.933 . S
H380 C390 0.930 . S
H381 C391 0.930 . S
C382 H376 0.930 . S
C382 C383 1.355 . S
C382 C384 1.415 . S
C383 C382 1.355 . S
C383 C385 1.419 . S
C384 C382 1.415 . S
C384 C389 1.425 . S
C384 C391 1.409 . S
C385 H377 0.930 . S
C385 C383 1.419 . S
C385 C386 1.362 . S
C386 H378 0.930 . S
C386 C385 1.362 . S
C386 C389 1.409 . S
C387 H379 0.933 . S
C387 C388 1.366 . S
C387 C389 1.400 1_455 S
C388 C387 1.366 . S
C388 C390 1.419 . S
C389 C384 1.425 . S
C389 C386 1.409 . S
C389 C387 1.400 1_655 S
C390 H380 0.930 . S
C390 C388 1.419 . S
C390 C391 1.362 1_455 S
C391 H381 0.930 . S
C391 C384 1.409 . S
C391 C390 1.362 1_655 S
H392 C398 0.930 . S
H393 C401 0.930 . S
H394 C402 0.930 . S
H395 C403 0.930 . S
H396 C406 0.930 . S
H397 C407 0.930 . S
C398 H392 0.930 . S
C398 C399 1.355 . S
C398 C400 1.415 . S
C399 C398 1.355 . S
C399 C401 1.419 . S
C400 C398 1.415 . S
C400 C405 1.425 . S
C400 C407 1.409 . S
C401 H393 0.930 . S
C401 C399 1.419 . S
C401 C402 1.362 . S
C402 H394 0.930 . S
C402 C401 1.362 . S
C402 C405 1.409 . S
C403 H395 0.930 . S
C403 C404 1.355 . S
C403 C405 1.415 . S
C404 C403 1.355 . S
C404 C406 1.419 . S
C405 C400 1.425 . S
C405 C402 1.409 . S
C405 C403 1.415 . S
C406 H396 0.930 . S
C406 C404 1.419 . S
C406 C407 1.362 . S
C407 H397 0.930 . S
C407 C400 1.409 . S
C407 C406 1.362 . S
H408 C414 0.930 . S
H409 C417 0.930 . S
H410 C418 0.930 . S
H411 C419 0.930 1_545 S
H412 C422 0.930 . S
H413 C423 0.930 1_455 S
C414 H408 0.930 . S
C414 C415 1.355 1_565 S
C414 C416 1.415 . S
C415 C414 1.355 1_545 S
C415 C417 1.419 . S
C416 C414 1.415 . S
C416 C421 1.425 1_565 S
C416 C423 1.408 1_455 S
C417 H409 0.930 . S
C417 C415 1.419 . S
C417 C418 1.362 . S
C418 H410 0.930 . S
C418 C417 1.362 . S
C418 C421 1.409 . S
C419 H411 0.930 1_565 S
C419 C420 1.355 . S
C419 C421 1.415 1_665 S
C420 C419 1.355 . S
C420 C422 1.419 . S
C421 C416 1.425 1_545 S
C421 C418 1.409 . S
C421 C419 1.415 1_445 S
C422 H412 0.930 . S
C422 C420 1.419 . S
C422 C423 1.363 . S
C423 H413 0.930 1_655 S
C423 C416 1.408 1_655 S
C423 C422 1.363 . S
H424 C430 0.930 . S
H425 C433 0.930 . S
H426 C434 0.930 . S
H427 C435 0.930 . S
H428 C438 0.930 . S
H429 C439 0.930 . S
C430 H424 0.930 . S
C430 C431 1.355 . S
C430 C432 1.415 . S
C431 C430 1.355 . S
C431 C433 1.419 . S
C432 C430 1.415 . S
C432 C437 1.425 . S
C432 C439 1.409 . S
C433 H425 0.930 . S
C433 C431 1.419 . S
C433 C434 1.362 . S
C434 H426 0.930 . S
C434 C433 1.362 . S
C434 C437 1.409 . S
C435 H427 0.930 . S
C435 C436 1.355 . S
C435 C437 1.415 . S
C436 C435 1.355 . S
C436 C438 1.419 . S
C437 C432 1.425 . S
C437 C434 1.409 . S
C437 C435 1.415 . S
C438 H428 0.930 . S
C438 C436 1.419 . S
C438 C439 1.362 . S
C439 H429 0.930 . S
C439 C432 1.409 . S
C439 C438 1.362 . S
H440 C446 0.930 . S
H441 C449 0.930 . S
H442 C450 0.930 . S
H443 C451 0.930 . S
H444 C454 0.930 . S
H445 C455 0.930 . S
C446 H440 0.930 . S
C446 C447 1.355 . S
C446 C448 1.415 . S
C447 C446 1.355 . S
C447 C449 1.419 1_455 S
C448 C446 1.415 . S
C448 C453 1.425 1_455 S
C448 C455 1.409 . S
C449 H441 0.930 . S
C449 C447 1.419 1_655 S
C449 C450 1.362 . S
C450 H442 0.930 . S
C450 C449 1.362 . S
C450 C453 1.409 . S
C451 H443 0.930 . S
C451 C452 1.355 . S
C451 C453 1.415 1_565 S
C452 C451 1.355 . S
C452 C454 1.419 1_655 S
C453 C448 1.425 1_655 S
C453 C450 1.409 . S
C453 C451 1.415 1_545 S
C454 H444 0.930 . S
C454 C452 1.419 1_455 S
C454 C455 1.362 1_565 S
C455 H445 0.930 . S
C455 C448 1.409 . S
C455 C454 1.362 1_545 S
H456 C462 0.930 . S
H457 C465 0.930 . S
H458 C466 0.930 . S
H459 C467 0.930 . S
H460 C470 0.930 . S
H461 C471 0.930 . S
C462 H456 0.930 . S
C462 C463 1.355 . S
C462 C464 1.415 1_554 S
C463 C462 1.355 . S
C463 C465 1.419 . S
C464 C462 1.415 1_556 S
C464 C469 1.425 1_556 S
C464 C471 1.409 . S
C465 H457 0.930 . S
C465 C463 1.419 . S
C465 C466 1.362 . S
C466 H458 0.930 . S
C466 C465 1.362 . S
C466 C469 1.409 . S
C467 H459 0.930 . S
C467 C468 1.355 . S
C467 C469 1.415 1_556 S
C468 C467 1.355 . S
C468 C470 1.419 . S
C469 C464 1.425 1_554 S
C469 C466 1.409 . S
C469 C467 1.415 1_554 S
C470 H460 0.930 . S
C470 C468 1.419 . S
C470 C471 1.362 . S
C471 H461 0.930 . S
C471 C464 1.409 . S
C471 C470 1.362 . S
C223 C28 1.018 . S
C228 C35 1.020 . S
C239 C82 1.061 . S
C244 C89 1.059 . S
C255 C143 1.068 . S
C260 C136 1.069 . S
C271 C197 1.019 . S
C276 C190 1.017 . S
C287 C189 2.385 . S
C292 C22 2.393 . S
C303 C76 2.351 . S
C308 C10 2.353 . S
C319 C113 2.391 . S
C324 C64 2.417 . S
C335 C167 2.406 . S
C340 C135 2.410 . S
C351 C27 2.407 . S
C356 C184 2.406 . S
C367 C81 2.363 . S
C372 C5 2.339 . S
C383 C59 2.393 . S
C388 C118 2.418 . S
C399 C130 2.340 . S
C404 C172 2.363 . S
C415 C140 0.732 . S
C420 C32 0.734 . S
C431 C86 0.736 . S
C436 C194 0.738 . S
C447 C121 0.936 . S
C452 C13 0.934 . S
C463 C67 0.886 . S
C468 C175 0.891 . S
