# Generated by pormake.
# Topology ukt, (4)-cn, num edge types: 1
# Building blocks:
#     Node 0, Type 0, BuildingBlock: GALJAG_clean_sbu_0, # of connection points: 4
#     Node 1, Type 0, BuildingBlock: GALJAG_clean_sbu_0, # of connection points: 4
#     Node 2, Type 0, BuildingBlock: GALJAG_clean_sbu_0, # of connection points: 4
#     Node 3, Type 0, BuildingBlock: GALJAG_clean_sbu_0, # of connection points: 4
#     Node 4, Type 0, BuildingBlock: GALJAG_clean_sbu_0, # of connection points: 4
#     Node 5, Type 0, BuildingBlock: GALJAG_clean_sbu_0, # of connection points: 4
#     Node 6, Type 0, BuildingBlock: GALJAG_clean_sbu_0, # of connection points: 4
#     Node 7, Type 0, BuildingBlock: GALJAG_clean_sbu_0, # of connection points: 4
#     Node 8, Type 0, BuildingBlock: GALJAG_clean_sbu_0, # of connection points: 4
#     Node 9, Type 0, BuildingBlock: GALJAG_clean_sbu_0, # of connection points: 4
#     Node 10, Type 0, BuildingBlock: GALJAG_clean_sbu_0, # of connection points: 4
#     Node 11, Type 0, BuildingBlock: GALJAG_clean_sbu_0, # of connection points: 4
#     Node 12, Type 0, BuildingBlock: GALJAG_clean_sbu_0, # of connection points: 4
#     Node 13, Type 0, BuildingBlock: GALJAG_clean_sbu_0, # of connection points: 4
#     Node 14, Type 0, BuildingBlock: GALJAG_clean_sbu_0, # of connection points: 4
#     Node 15, Type 0, BuildingBlock: GALJAG_clean_sbu_0, # of connection points: 4
#     Edge 16, Type (0, 0), BuildingBlock: ZUJKAS_clean_linker_0, # of connection points: 2
#     Edge 17, Type (0, 0), BuildingBlock: ZUJKAS_clean_linker_0, # of connection points: 2
#     Edge 18, Type (0, 0), BuildingBlock: ZUJKAS_clean_linker_0, # of connection points: 2
#     Edge 19, Type (0, 0), BuildingBlock: ZUJKAS_clean_linker_0, # of connection points: 2
#     Edge 20, Type (0, 0), BuildingBlock: ZUJKAS_clean_linker_0, # of connection points: 2
#     Edge 21, Type (0, 0), BuildingBlock: ZUJKAS_clean_linker_0, # of connection points: 2
#     Edge 22, Type (0, 0), BuildingBlock: ZUJKAS_clean_linker_0, # of connection points: 2
#     Edge 23, Type (0, 0), BuildingBlock: ZUJKAS_clean_linker_0, # of connection points: 2
#     Edge 24, Type (0, 0), BuildingBlock: ZUJKAS_clean_linker_0, # of connection points: 2
#     Edge 25, Type (0, 0), BuildingBlock: ZUJKAS_clean_linker_0, # of connection points: 2
#     Edge 26, Type (0, 0), BuildingBlock: ZUJKAS_clean_linker_0, # of connection points: 2
#     Edge 27, Type (0, 0), BuildingBlock: ZUJKAS_clean_linker_0, # of connection points: 2
#     Edge 28, Type (0, 0), BuildingBlock: ZUJKAS_clean_linker_0, # of connection points: 2
#     Edge 29, Type (0, 0), BuildingBlock: ZUJKAS_clean_linker_0, # of connection points: 2
#     Edge 30, Type (0, 0), BuildingBlock: ZUJKAS_clean_linker_0, # of connection points: 2
#     Edge 31, Type (0, 0), BuildingBlock: ZUJKAS_clean_linker_0, # of connection points: 2
#     Edge 32, Type (0, 0), BuildingBlock: ZUJKAS_clean_linker_0, # of connection points: 2
#     Edge 33, Type (0, 0), BuildingBlock: ZUJKAS_clean_linker_0, # of connection points: 2
#     Edge 34, Type (0, 0), BuildingBlock: ZUJKAS_clean_linker_0, # of connection points: 2
#     Edge 35, Type (0, 0), BuildingBlock: ZUJKAS_clean_linker_0, # of connection points: 2
#     Edge 36, Type (0, 0), BuildingBlock: ZUJKAS_clean_linker_0, # of connection points: 2
#     Edge 37, Type (0, 0), BuildingBlock: ZUJKAS_clean_linker_0, # of connection points: 2
#     Edge 38, Type (0, 0), BuildingBlock: ZUJKAS_clean_linker_0, # of connection points: 2
#     Edge 39, Type (0, 0), BuildingBlock: ZUJKAS_clean_linker_0, # of connection points: 2
#     Edge 40, Type (0, 0), BuildingBlock: ZUJKAS_clean_linker_0, # of connection points: 2
#     Edge 41, Type (0, 0), BuildingBlock: ZUJKAS_clean_linker_0, # of connection points: 2
#     Edge 42, Type (0, 0), BuildingBlock: ZUJKAS_clean_linker_0, # of connection points: 2
#     Edge 43, Type (0, 0), BuildingBlock: ZUJKAS_clean_linker_0, # of connection points: 2
#     Edge 44, Type (0, 0), BuildingBlock: ZUJKAS_clean_linker_0, # of connection points: 2
#     Edge 45, Type (0, 0), BuildingBlock: ZUJKAS_clean_linker_0, # of connection points: 2
#     Edge 46, Type (0, 0), BuildingBlock: ZUJKAS_clean_linker_0, # of connection points: 2
#     Edge 47, Type (0, 0), BuildingBlock: ZUJKAS_clean_linker_0, # of connection points: 2
# Relax obj value: 0.211
# Max RMSD: 0.110
# Mean RMSD: 0.110
data_MOF--net-ukt--node1-GALJAG_clean_sbu_0--edge1-ZUJKAS_clean_linker_0
_symmetry_space_group_name_H-M    P1
_symmetry_Int_Tables_number       1
_symmetry_cell_setting            triclinic
loop_
_symmetry_equiv_pos_as_xyz
'x, y, z'
_cell_length_a     54.585415
_cell_length_b     54.5642
_cell_length_c     44.717249
_cell_angle_alpha  90.002427
_cell_angle_beta   89.96655
_cell_angle_gamma 89.972785
loop_
_atom_site_label
_atom_site_type_symbol
_atom_site_fract_x
_atom_site_fract_y
_atom_site_fract_z
_atom_type_partial_charge
In0 In 0.53299 0.16471 0.07024 0.0
O1 O 0.57003 0.15176 0.08857 0.0
O2 O 0.56369 0.14937 0.04179 0.0
C3 C 0.51277 0.18218 0.12078 0.0
C4 C 0.50885 0.12308 0.05749 0.0
C5 C 0.53693 0.20585 0.03742 0.0
O6 O 0.53442 0.17412 0.11948 0.0
O7 O 0.50102 0.18119 0.09648 0.0
O8 O 0.52162 0.18927 0.03118 0.0
O9 O 0.54974 0.2018 0.06036 0.0
C10 C 0.57809 0.14541 0.06325 0.0
O11 O 0.50903 0.14118 0.0399 0.0
O12 O 0.51943 0.1267 0.08214 0.0
In13 In 0.34125 0.53422 0.07616 0.0
O14 O 0.3498 0.57303 0.09222 0.0
O15 O 0.36518 0.56106 0.05093 0.0
C16 C 0.31815 0.51695 0.12502 0.0
C17 C 0.38238 0.50752 0.0711 0.0
C18 C 0.30421 0.5409 0.03723 0.0
O19 O 0.33055 0.53645 0.12515 0.0
O20 O 0.31774 0.50583 0.10029 0.0
O21 O 0.31771 0.52207 0.03619 0.0
O22 O 0.30942 0.55582 0.05777 0.0
C23 C 0.36322 0.578 0.06998 0.0
O24 O 0.36575 0.50691 0.05144 0.0
O25 O 0.37739 0.52026 0.09381 0.0
In26 In 0.96886 0.33585 0.0716 0.0
O27 O 0.93359 0.35367 0.08909 0.0
O28 O 0.93937 0.35191 0.0421 0.0
C29 C 0.98678 0.3179 0.12315 0.0
C30 C 0.99571 0.37514 0.05629 0.0
C31 C 0.96168 0.29406 0.04094 0.0
O32 O 0.96551 0.32679 0.12088 0.0
O33 O -0.00072 0.31836 0.09938 0.0
O34 O 0.9801 0.30758 0.03628 0.0
O35 O 0.94746 0.30147 0.06126 0.0
C36 C 0.92575 0.35881 0.06325 0.0
O37 O 0.99327 0.3569 0.03918 0.0
O38 O 0.9861 0.37266 0.08175 0.0
In39 In 0.15679 0.96848 0.06226 0.0
O40 O 0.13724 0.99231 0.02804 0.0
O41 O 0.12338 0.99168 0.07247 0.0
C42 C 0.19566 0.95761 0.02759 0.0
C43 C 0.13138 0.9261 0.05969 0.0
C44 C 0.17559 0.98719 0.11302 0.0
O45 O 0.18374 0.9773 0.02445 0.0
O46 O 0.18805 0.9438 0.04819 0.0
O47 O 0.15871 0.97142 0.1129 0.0
O48 O 0.1828 0.99385 0.08747 0.0
C49 C 0.12056 -0.00105 0.0459 0.0
O50 O 0.14766 0.92976 0.07923 0.0
O51 O 0.12819 0.94357 0.04175 0.0
In52 In 0.53057 0.33665 0.42961 0.0
O53 O 0.56606 0.35245 0.41013 0.0
O54 O 0.56051 0.35426 0.45715 0.0
C55 C 0.51082 0.31885 0.37897 0.0
C56 C 0.50427 0.37624 0.44542 0.0
C57 C 0.53814 0.29495 0.46045 0.0
O58 O 0.53192 0.32827 0.38001 0.0
O59 O 0.4994 0.31869 0.40354 0.0
O60 O 0.51996 0.30867 0.46556 0.0
O61 O 0.55205 0.30218 0.43973 0.0
C62 C 0.57413 0.35933 0.43523 0.0
O63 O 0.50736 0.35828 0.46281 0.0
O64 O 0.513 0.37337 0.41955 0.0
In65 In 0.15269 0.52348 0.43302 0.0
O66 O 0.14149 0.5609 0.41393 0.0
O67 O 0.12621 0.54964 0.45543 0.0
C68 C 0.17012 0.50395 0.38194 0.0
C69 C 0.11746 0.4933 0.45318 0.0
C70 C 0.19304 0.53616 0.46397 0.0
O71 O 0.15283 0.51929 0.38242 0.0
O72 O 0.17829 0.49801 0.40731 0.0
O73 O 0.18239 0.51587 0.46809 0.0
O74 O 0.18343 0.54961 0.44429 0.0
C75 C 0.1274 0.56591 0.43551 0.0
O76 O 0.13492 0.50043 0.46953 0.0
O77 O 0.11892 0.49996 0.42622 0.0
In78 In 0.96667 0.16055 0.43251 0.0
O79 O 0.99031 0.13818 0.46439 0.0
O80 O 0.98466 0.12448 0.4204 0.0
C81 C 0.95783 0.20069 0.46596 0.0
C82 C 0.92324 0.1376 0.43758 0.0
C83 C 0.98628 0.1792 0.3822 0.0
O84 O 0.97695 0.18794 0.46948 0.0
O85 O 0.94377 0.19335 0.4455 0.0
O86 O 0.96626 0.16764 0.38254 0.0
O87 O 0.9967 0.18108 0.4073 0.0
C88 C 0.99351 0.12083 0.44608 0.0
O89 O 0.92899 0.14945 0.41433 0.0
O90 O 0.9392 0.13765 0.45793 0.0
In91 In 0.33695 0.96605 0.42686 0.0
O92 O 0.35519 0.93125 0.40855 0.0
O93 O 0.35226 0.93563 0.45566 0.0
C94 C 0.31828 0.98324 0.37539 0.0
C95 C 0.37583 0.99334 0.44281 0.0
C96 C 0.29509 0.95882 0.45721 0.0
O97 O 0.3297 0.96317 0.37713 0.0
O98 O 0.31668 0.99502 0.39963 0.0
O99 O 0.3082 0.97761 0.46135 0.0
O100 O 0.30299 0.94416 0.43761 0.0
C101 C 0.35964 0.92262 0.43419 0.0
O102 O 0.35833 0.98905 0.46048 0.0
O103 O 0.37268 0.9855 0.41659 0.0
In104 In 0.46353 0.84376 0.93149 0.0
O105 O 0.42825 0.85616 0.90808 0.0
O106 O 0.43549 0.8691 0.9521 0.0
C107 C 0.47727 0.82291 0.87961 0.0
C108 C 0.49328 0.88108 0.94658 0.0
C109 C 0.45644 0.80534 0.96889 0.0
O110 O 0.45522 0.82787 0.88567 0.0
O111 O 0.49248 0.82876 0.89962 0.0
O112 O 0.47595 0.80801 0.95421 0.0
O113 O 0.44087 0.82198 0.96492 0.0
C114 C 0.42124 0.86912 0.92992 0.0
O115 O 0.48921 0.86328 0.9639 0.0
O116 O 0.48365 0.87912 0.92108 0.0
In117 In 0.66033 0.45602 0.92404 0.0
O118 O 0.62962 0.43286 0.90426 0.0
O119 O 0.66021 0.41434 0.92309 0.0
C120 C 0.67186 0.48195 0.87459 0.0
C121 C 0.62443 0.47169 0.96056 0.0
C122 C 0.70353 0.45152 0.9527 0.0
O123 O 0.66348 0.46045 0.87376 0.0
O124 O 0.67375 0.49087 0.90052 0.0
O125 O 0.68654 0.46505 0.96237 0.0
O126 O 0.69878 0.44059 0.92855 0.0
C127 C 0.63938 0.41263 0.91103 0.0
O128 O 0.6372 0.45295 0.96572 0.0
O129 O 0.63051 0.48355 0.93743 0.0
In130 In 0.04217 0.65378 0.92228 0.0
O131 O 0.07573 0.63515 0.90153 0.0
O132 O 0.07188 0.63483 0.94889 0.0
C133 C 0.02412 0.67295 0.87138 0.0
C134 C 0.01406 0.61591 0.93957 0.0
C135 C 0.0513 0.6952 0.95311 0.0
O136 O 0.04525 0.66369 0.87311 0.0
O137 O 0.01182 0.67217 0.89527 0.0
O138 O 0.03129 0.68379 0.95563 0.0
O139 O 0.06637 0.68576 0.93512 0.0
C140 C 0.0843 0.62836 0.92644 0.0
O141 O 0.01914 0.6335 0.95681 0.0
O142 O 0.02177 0.61836 0.91316 0.0
In143 In 0.84036 0.03249 0.92688 0.0
O144 O 0.85956 0.00813 0.96096 0.0
O145 O 0.87451 0.0102 0.91719 0.0
C146 C 0.80017 0.04517 0.95813 0.0
C147 C 0.86693 0.07389 0.93137 0.0
C148 C 0.82056 0.01433 0.87649 0.0
O149 O 0.81118 0.02511 0.96255 0.0
O150 O 0.80927 0.05839 0.93784 0.0
O151 O 0.83505 0.03234 0.8766 0.0
O152 O 0.81641 0.00505 0.90185 0.0
C153 C 0.87686 0.00239 0.94357 0.0
O154 O 0.85714 0.06741 0.90702 0.0
O155 O 0.86292 0.05976 0.95311 0.0
In156 In 0.46067 0.65881 0.57326 0.0
O157 O 0.48434 0.63694 0.54071 0.0
O158 O 0.47734 0.6217 0.58356 0.0
C159 C 0.4553 0.70133 0.54361 0.0
C160 C 0.41606 0.63841 0.56616 0.0
C161 C 0.48011 0.67638 0.62413 0.0
O162 O 0.47113 0.6856 0.536 0.0
O163 O 0.4425 0.69556 0.56603 0.0
O164 O 0.45929 0.66635 0.62302 0.0
O165 O 0.49153 0.67701 0.59956 0.0
C166 C 0.48672 0.61885 0.55805 0.0
O167 O 0.42479 0.643 0.59168 0.0
O168 O 0.42957 0.64457 0.54458 0.0
In169 In 0.83556 0.46325 0.5764 0.0
O170 O 0.85791 0.48617 0.5437 0.0
O171 O 0.87166 0.48146 0.58778 0.0
C172 C 0.7953 0.45411 0.54352 0.0
C173 C 0.85963 0.42029 0.57239 0.0
C174 C 0.8153 0.4833 0.62552 0.0
O175 O 0.80818 0.47305 0.53942 0.0
O176 O 0.80258 0.4403 0.56431 0.0
O177 O 0.82446 0.46206 0.62526 0.0
O178 O 0.81668 0.4947 0.601 0.0
C179 C 0.87532 0.48966 0.5618 0.0
O180 O 0.85218 0.42857 0.5972 0.0
O181 O 0.8544 0.43338 0.55006 0.0
In182 In 0.03104 0.83922 0.56423 0.0
O183 O 0.00715 0.85901 0.53011 0.0
O184 O 0.00894 0.87351 0.57411 0.0
C185 C 0.04223 0.79883 0.53231 0.0
C186 C 0.072 0.86636 0.56018 0.0
C187 C 0.01515 0.81901 0.61562 0.0
O188 O 0.02093 0.80788 0.53225 0.0
O189 O 0.05746 0.81002 0.54846 0.0
O190 O 0.03537 0.83005 0.61343 0.0
O191 O 0.00261 0.8185 0.59192 0.0
C192 C 0.00132 0.87614 0.54769 0.0
O193 O 0.06455 0.85787 0.58487 0.0
O194 O 0.059 0.86082 0.53787 0.0
In195 In 0.65409 0.02884 0.56547 0.0
O196 O 0.63854 0.06383 0.58652 0.0
O197 O 0.62859 0.05511 0.54176 0.0
C198 C 0.67393 0.01159 0.61642 0.0
C199 C 0.61932 0.99745 0.54682 0.0
C200 C 0.69349 0.04309 0.53368 0.0
O201 O 0.6573 0.02765 0.61612 0.0
O202 O 0.68033 0.00389 0.59098 0.0
O203 O 0.68575 0.02129 0.533 0.0
O204 O 0.68158 0.05731 0.55048 0.0
C205 C 0.62648 0.0697 0.56347 0.0
O206 O 0.63605 0.00516 0.52977 0.0
O207 O 0.62141 0.00406 0.5737 0.0
H208 H 0.56367 0.24624 0.05109 0.0
H209 H 0.57321 0.28092 0.01866 0.0
H210 H 0.52928 0.24937 0.94841 0.0
H211 H 0.51945 0.21443 0.98098 0.0
H212 H 0.57908 0.26385 0.93197 0.0
H213 H 0.52805 0.33778 0.98973 0.0
H214 H 0.54575 0.31903 0.01469 0.0
H215 H 0.52067 0.3057 0.9943 0.0
C216 C 0.55576 0.2468 0.02889 0.0
C217 C 0.54079 0.22768 0.01855 0.0
C218 C 0.56114 0.26667 0.01044 0.0
C219 C 0.55173 0.26777 0.98131 0.0
C220 C 0.53654 0.24887 0.97094 0.0
H221 H 0.59177 0.40543 0.89451 0.0
H222 H 0.56733 0.36844 0.90277 0.0
C223 C 0.53092 0.22902 0.98955 0.0
C224 C 0.5593 0.28803 0.96145 0.0
H225 H 0.56199 0.35036 0.95902 0.0
C226 C 0.57492 0.28279 0.93736 0.0
C227 C 0.55355 0.31263 0.96829 0.0
C228 C 0.53588 0.31917 0.99299 0.0
C229 C 0.58647 0.30167 0.92136 0.0
C230 C 0.5824 0.32627 0.92998 0.0
C231 C 0.56526 0.33148 0.95254 0.0
C232 C 0.59775 0.34668 0.9188 0.0
C233 C 0.60353 0.29509 0.89607 0.0
C234 C 0.62306 0.34647 0.92431 0.0
C235 C 0.63704 0.36754 0.91965 0.0
C236 C 0.6259 0.38923 0.9096 0.0
C237 C 0.60086 0.38896 0.90223 0.0
C238 C 0.58687 0.36786 0.90696 0.0
H239 H 0.59817 0.27743 0.88558 0.0
H240 H 0.60378 0.30957 0.87862 0.0
H241 H 0.62238 0.29293 0.90497 0.0
H242 H 0.63176 0.33053 0.93407 0.0
H243 H 0.65628 0.36722 0.9256 0.0
H244 H 0.11565 0.61328 0.88214 0.0
H245 H 0.1539 0.59006 0.88827 0.0
H246 H 0.14226 0.58806 0.98367 0.0
H247 H 0.10419 0.61079 0.97774 0.0
H248 H 0.19416 0.60442 0.91954 0.0
H249 H 0.1602 0.51744 0.96654 0.0
H250 H 0.14033 0.5389 0.9476 0.0
H251 H 0.14757 0.54291 0.98662 0.0
C252 C 0.12118 0.60762 0.90435 0.0
C253 C 0.10698 0.61385 0.92947 0.0
C254 C 0.14294 0.59432 0.90779 0.0
C255 C 0.15063 0.58686 0.93635 0.0
C256 C 0.13633 0.59297 0.96134 0.0
H257 H 0.27728 0.58238 0.03279 0.0
H258 H 0.24222 0.59012 0.00062 0.0
C259 C 0.1147 0.60623 0.95794 0.0
C260 C 0.17467 0.57485 0.94088 0.0
H261 H 0.20168 0.52931 0.98142 0.0
C262 C 0.19585 0.58762 0.93235 0.0
C263 C 0.17694 0.55264 0.95698 0.0
C264 C 0.155 0.53707 0.96464 0.0
C265 C 0.21906 0.58006 0.94209 0.0
C266 C 0.221 0.55949 0.96118 0.0
C267 C 0.20012 0.54533 0.96718 0.0
C268 C 0.24347 0.55476 0.97874 0.0
C269 C 0.24118 0.59486 0.93303 0.0
C270 C 0.25555 0.53204 0.97758 0.0
C271 C 0.27572 0.52749 0.99617 0.0
C272 C 0.28374 0.54548 0.01643 0.0
C273 C 0.27159 0.56816 0.01738 0.0
C274 C 0.25166 0.57271 0.99879 0.0
H275 H 0.23831 0.60377 0.91097 0.0
H276 H 0.24428 0.60956 0.94976 0.0
H277 H 0.25789 0.58328 0.93188 0.0
H278 H 0.24926 0.51784 0.9625 0.0
H279 H 0.28471 0.50981 0.99509 0.0
H280 H 0.87683 0.10895 0.88911 0.0
H281 H 0.90017 0.14699 0.89621 0.0
H282 H 0.91322 0.12731 0.98828 0.0
H283 H 0.89046 0.08941 0.98129 0.0
H284 H 0.8886 0.18367 0.93425 0.0
H285 H 0.98066 0.14926 0.9628 0.0
H286 H 0.95775 0.13014 0.94532 0.0
H287 H 0.95788 0.13443 0.98529 0.0
C288 C 0.88499 0.11265 0.91072 0.0
C289 C 0.8818 0.09628 0.93467 0.0
C290 C 0.89835 0.1343 0.91471 0.0
C291 C 0.90887 0.13972 0.94259 0.0
C292 C 0.9059 0.12319 0.96634 0.0
H293 H 0.92264 0.26378 0.0472 0.0
H294 H 0.91236 0.22795 0.01727 0.0
C295 C 0.89262 0.10165 0.96239 0.0
C296 C 0.92068 0.16369 0.94825 0.0
H297 H 0.96981 0.18925 0.98361 0.0
C298 C 0.90663 0.18497 0.94433 0.0
C299 C 0.94438 0.1655 0.96087 0.0
C300 C 0.96112 0.14359 0.96349 0.0
C301 C 0.91476 0.20766 0.95512 0.0
C302 C 0.93729 0.20893 0.97063 0.0
C303 C 0.95233 0.18813 0.97218 0.0
C304 C 0.94404 0.23078 0.98834 0.0
C305 C 0.8987 0.2299 0.95088 0.0
C306 C 0.96573 0.24375 0.98261 0.0
C307 C 0.97177 0.26428 -0.0001 0.0
C308 C 0.95628 0.27189 0.02327 0.0
C309 C 0.93489 0.25847 0.02926 0.0
C310 C 0.92888 0.2381 0.01202 0.0
H311 H 0.88685 0.22793 0.93083 0.0
H312 H 0.88656 0.23198 0.97064 0.0
H313 H 0.90981 0.24683 0.94856 0.0
H314 H 0.9778 0.23815 0.96462 0.0
H315 H 0.98841 0.27428 0.99485 0.0
H316 H 0.38614 0.87153 0.88607 0.0
H317 H 0.34618 0.89213 0.8891 0.0
H318 H 0.36351 0.91673 0.97832 0.0
H319 H 0.40329 0.89687 0.9752 0.0
H320 H 0.30996 0.88206 0.92714 0.0
H321 H 0.3361 0.97856 0.94332 0.0
H322 H 0.35756 0.95584 0.92998 0.0
H323 H 0.35229 0.95975 0.96953 0.0
C324 C 0.38151 0.8817 0.90609 0.0
C325 C 0.39781 0.88262 0.93039 0.0
C326 C 0.35874 0.89347 0.90778 0.0
C327 C 0.35207 0.90643 0.93369 0.0
C328 C 0.36852 0.90754 0.95774 0.0
H329 H 0.22502 0.91781 0.03375 0.0
H330 H 0.26075 0.90684 0.00406 0.0
C331 C 0.39119 0.89592 0.95604 0.0
C332 C 0.32709 0.91666 0.93733 0.0
H333 H 0.29717 0.96623 0.96611 0.0
C334 C 0.30706 0.90066 0.93492 0.0
C335 C 0.32312 0.9411 0.94677 0.0
C336 C 0.34343 0.95983 0.94719 0.0
C337 C 0.28361 0.9078 0.94432 0.0
C338 C 0.2803 0.93128 0.95712 0.0
C339 C 0.29981 0.94802 0.95691 0.0
C340 C 0.25779 0.93775 0.97389 0.0
C341 C 0.2628 0.88978 0.94131 0.0
C342 C 0.24468 0.95927 0.96747 0.0
C343 C 0.22433 0.96582 0.98482 0.0
C344 C 0.21693 0.95098 0.00888 0.0
C345 C 0.23015 0.92952 0.01522 0.0
C346 C 0.25046 0.92309 0.99805 0.0
H347 H 0.26566 0.87748 0.92182 0.0
H348 H 0.26203 0.87812 0.96163 0.0
H349 H 0.24492 0.89925 0.93871 0.0
H350 H 0.25024 0.97101 0.94915 0.0
H351 H 0.21448 0.98249 0.97947 0.0
H352 H 0.51205 0.27562 0.50732 0.0
H353 H 0.52208 0.23872 0.5364 0.0
H354 H 0.5858 0.2269 0.48116 0.0
H355 H 0.57615 0.26358 0.45244 0.0
H356 H 0.52716 0.19033 0.51696 0.0
H357 H 0.61386 0.22375 0.56571 0.0
H358 H 0.59159 0.24408 0.54905 0.0
H359 H 0.61332 0.22797 0.52594 0.0
C360 C 0.52822 0.26514 0.5015 0.0
C361 C 0.5434 0.27252 0.47773 0.0
C362 C 0.53393 0.24414 0.51812 0.0
C363 C 0.55497 0.23044 0.51132 0.0
C364 C 0.56984 0.23759 0.48728 0.0
H365 H 0.60024 0.0854 0.51564 0.0
H366 H 0.579 0.12432 0.50976 0.0
C367 C 0.56418 0.25846 0.47073 0.0
C368 C 0.56122 0.20799 0.52823 0.0
H369 H 0.60962 0.17968 0.56175 0.0
C370 C 0.54496 0.1881 0.52737 0.0
C371 C 0.58418 0.20528 0.54248 0.0
C372 C 0.60161 0.22652 0.54617 0.0
C373 C 0.55195 0.16498 0.53816 0.0
C374 C 0.57594 0.16168 0.54948 0.0
C375 C 0.59136 0.18208 0.55266 0.0
C376 C 0.58648 0.13702 0.55472 0.0
C377 C 0.5338 0.14419 0.53653 0.0
C378 C 0.59819 0.13132 0.58182 0.0
C379 C 0.61073 0.10911 0.5851 0.0
C380 C 0.61186 0.09237 0.56125 0.0
C381 C 0.59964 0.0979 0.53445 0.0
C382 C 0.58723 0.12005 0.53117 0.0
H383 H 0.51471 0.15107 0.53859 0.0
H384 H 0.53544 0.13502 0.51446 0.0
H385 H 0.53711 0.1304 0.55434 0.0
H386 H 0.59805 0.14428 0.60017 0.0
H387 H 0.62 0.1053 0.60601 0.0
H388 H 0.39459 0.62739 0.51311 0.0
H389 H 0.35591 0.60612 0.50479 0.0
H390 H 0.34541 0.59947 0.60005 0.0
H391 H 0.38422 0.62112 0.60865 0.0
H392 H 0.34237 0.55844 0.52435 0.0
H393 H 0.28128 0.63149 0.56947 0.0
H394 H 0.31288 0.63726 0.55988 0.0
H395 H 0.3055 0.6207 0.59336 0.0
C396 C 0.38403 0.62152 0.53233 0.0
C397 C 0.39234 0.62603 0.56154 0.0
C398 C 0.36199 0.60928 0.52753 0.0
C399 C 0.34779 0.60136 0.55179 0.0
C400 C 0.35601 0.60571 0.58105 0.0
H401 H 0.21839 0.51064 0.50689 0.0
H402 H 0.25544 0.52403 0.53351 0.0
C403 C 0.37815 0.61803 0.5859 0.0
C404 C 0.32432 0.58874 0.54591 0.0
H405 H 0.26242 0.59735 0.5474 0.0
C406 C 0.32483 0.56667 0.52979 0.0
C407 C 0.30157 0.59968 0.55302 0.0
C408 C 0.30007 0.62366 0.56972 0.0
C409 C 0.30319 0.5558 0.51933 0.0
C410 C 0.28049 0.5672 0.52553 0.0
C411 C 0.27991 0.58865 0.54286 0.0
C412 C 0.25758 0.55906 0.51098 0.0
C413 C 0.30485 0.53305 0.50023 0.0
C414 C 0.2464 0.57451 0.49 0.0
C415 C 0.22538 0.56699 0.47492 0.0
C416 C 0.21507 0.54387 0.48059 0.0
C417 C 0.22604 0.52851 0.50199 0.0
C418 C 0.24718 0.53608 0.51713 0.0
H419 H 0.32405 0.52859 0.494 0.0
H420 H 0.29716 0.51726 0.51273 0.0
H421 H 0.29396 0.53534 0.47945 0.0
H422 H 0.25418 0.5923 0.48492 0.0
H423 H 0.21732 0.57929 0.45865 0.0
H424 H 0.87275 0.38763 0.61629 0.0
H425 H 0.89633 0.34957 0.60998 0.0
H426 H 0.90174 0.36354 0.51526 0.0
H427 H 0.87861 0.40134 0.52135 0.0
H428 H 0.88383 0.30964 0.57547 0.0
H429 H 0.97222 0.34712 0.53677 0.0
H430 H 0.94944 0.36577 0.55529 0.0
H431 H 0.94728 0.35977 0.51575 0.0
C432 C 0.87916 0.38261 0.5942 0.0
C433 C 0.87386 0.39743 0.56931 0.0
C434 C 0.89267 0.36096 0.59065 0.0
C435 C 0.90126 0.35405 0.56227 0.0
C436 C 0.89592 0.36887 0.53749 0.0
H437 H 0.91624 0.22773 0.46363 0.0
H438 H 0.90534 0.26319 0.49385 0.0
C439 C 0.88244 0.39036 0.54098 0.0
C440 C 0.91402 0.33043 0.55755 0.0
H441 H 0.9626 0.30565 0.52019 0.0
C442 C 0.90137 0.30871 0.56409 0.0
C443 C 0.93712 0.32916 0.54325 0.0
C444 C 0.95241 0.35173 0.53767 0.0
C445 C 0.91016 0.28595 0.55422 0.0
C446 C 0.93191 0.28504 0.53706 0.0
C447 C 0.94571 0.30644 0.53295 0.0
C448 C 0.93874 0.26289 0.51991 0.0
C449 C 0.89552 0.26321 0.56114 0.0
C450 C 0.96149 0.25135 0.52398 0.0
C451 C 0.96788 0.23098 0.50652 0.0
C452 C 0.95169 0.22218 0.48456 0.0
C453 C 0.92908 0.23401 0.48043 0.0
C454 C 0.92272 0.25416 0.49787 0.0
H455 H 0.88477 0.26546 0.58207 0.0
H456 H 0.8824 0.25978 0.54266 0.0
H457 H 0.90757 0.24692 0.56342 0.0
H458 H 0.97423 0.25805 0.54064 0.0
H459 H 0.98544 0.22223 0.5101 0.0
H460 H 0.1048 0.87912 0.60388 0.0
H461 H 0.1429 0.90248 0.59755 0.0
H462 H 0.12764 0.91013 0.50335 0.0
H463 H 0.08969 0.88728 0.50954 0.0
H464 H 0.18145 0.88912 0.56285 0.0
H465 H 0.14767 0.97924 0.52512 0.0
H466 H 0.12803 0.95708 0.54319 0.0
H467 H 0.13404 0.95511 0.50362 0.0
C468 C 0.10947 0.8861 0.58194 0.0
C469 C 0.09433 0.88136 0.55719 0.0
C470 C 0.13116 0.89947 0.57838 0.0
C471 C 0.13783 0.90847 0.5501 0.0
C472 C 0.12252 0.90399 0.52553 0.0
H473 H 0.26591 0.91879 0.45259 0.0
H474 H 0.2292 0.90933 0.48132 0.0
C475 C 0.10095 0.89067 0.52904 0.0
C476 C 0.16191 0.92025 0.5452 0.0
H477 H 0.18866 0.9679 0.5081 0.0
C478 C 0.18308 0.90665 0.55157 0.0
C479 C 0.1641 0.94333 0.531 0.0
C480 C 0.14222 0.95963 0.52566 0.0
C481 C 0.20616 0.9145 0.54175 0.0
C482 C 0.20796 0.93627 0.52475 0.0
C483 C 0.18715 0.95098 0.5207 0.0
C484 C 0.23049 0.94239 0.50802 0.0
C485 C 0.22828 0.8989 0.54861 0.0
C486 C 0.24295 0.96452 0.51289 0.0
C487 C 0.264 0.97008 0.4963 0.0
C488 C 0.27262 0.95367 0.47444 0.0
C489 C 0.2598 0.93176 0.46936 0.0
C490 C 0.23892 0.92622 0.48593 0.0
H491 H 0.2255 0.88801 0.56933 0.0
H492 H 0.23134 0.88586 0.52993 0.0
H493 H 0.24499 0.9103 0.55123 0.0
H494 H 0.23651 0.97735 0.52963 0.0
H495 H 0.27352 0.98713 0.5006 0.0
H496 H 0.47779 0.7602 0.96552 0.0
H497 H 0.46401 0.72265 0.99046 0.0
H498 H 0.4099 0.76423 0.03927 0.0
H499 H 0.42284 0.80153 0.01342 0.0
H500 H 0.45944 0.70632 0.04746 0.0
H501 H 0.3675 0.71592 0.9956 0.0
H502 H 0.393 0.73505 0.98514 0.0
H503 H 0.37584 0.74148 0.01863 0.0
C504 C 0.46317 0.76132 0.98186 0.0
C505 C 0.45109 0.78361 0.98725 0.0
C506 C 0.45532 0.7399 0.99608 0.0
C507 C 0.43548 0.74057 0.0161 0.0
C508 C 0.42471 0.76318 0.0232 0.0
H509 H 0.35518 0.6204 0.10107 0.0
H510 H 0.37411 0.66055 0.09197 0.0
C511 C 0.43222 0.78448 0.00858 0.0
C512 C 0.42509 0.71746 0.02798 0.0
H513 H 0.37283 0.68308 0.02929 0.0
C514 C 0.44049 0.70128 0.0436 0.0
C515 C 0.40037 0.71083 0.02268 0.0
C516 C 0.38327 0.7266 0.00435 0.0
C517 C 0.43179 0.67861 0.05397 0.0
C518 C 0.40716 0.67211 0.04863 0.0
C519 C 0.39165 0.6884 0.03358 0.0
C520 C 0.39751 0.64767 0.05622 0.0
C521 C 0.44896 0.66159 0.07029 0.0
C522 C 0.40443 0.62736 0.039 0.0
C523 C 0.39347 0.60462 0.04383 0.0
C524 C 0.3755 0.60182 0.06608 0.0
C525 C 0.36901 0.62207 0.08382 0.0
C526 C 0.37981 0.64493 0.07872 0.0
H527 H 0.46602 0.67102 0.07741 0.0
H528 H 0.43981 0.6537 0.09029 0.0
H529 H 0.45403 0.64618 0.0553 0.0
H530 H 0.41783 0.62929 0.02127 0.0
H531 H 0.39887 0.5893 0.0299 0.0
H532 H 0.74392 0.42739 0.93286 0.0
H533 H 0.78155 0.41877 0.96052 0.0
H534 H 0.75336 0.45811 0.03674 0.0
H535 H 0.71549 0.46704 0.00905 0.0
H536 H 0.8142 0.45802 0.99476 0.0
H537 H 0.772 0.38257 0.06141 0.0
H538 H 0.7598 0.39086 0.02526 0.0
H539 H 0.75605 0.41125 0.05632 0.0
C540 C 0.74577 0.43438 0.95542 0.0
C541 C 0.72677 0.44781 0.96886 0.0
C542 C 0.76726 0.42949 0.97113 0.0
C543 C 0.77005 0.43775 0.00059 0.0
C544 C 0.75139 0.45158 0.01399 0.0
H545 H 0.89345 0.37744 0.10448 0.0
H546 H 0.85583 0.40077 0.09423 0.0
C547 C 0.72987 0.45667 0.99816 0.0
C548 C 0.79231 0.4309 0.01725 0.0
H549 H 0.81493 0.38583 0.06227 0.0
C550 C 0.81438 0.44257 0.01003 0.0
C551 C 0.79229 0.41093 0.03734 0.0
C552 C 0.76884 0.39803 0.04571 0.0
C553 C 0.83674 0.43391 0.02121 0.0
C554 C 0.83696 0.41266 0.03936 0.0
C555 C 0.8147 0.40203 0.04821 0.0
C556 C 0.85998 0.39948 0.04612 0.0
C557 C 0.86 0.44714 0.01274 0.0
C558 C 0.87437 0.39065 0.02248 0.0
C559 C 0.89564 0.37738 0.02822 0.0
C560 C 0.90286 0.37245 0.05775 0.0
C561 C 0.8883 0.38101 0.0815 0.0
C562 C 0.86691 0.39437 0.0757 0.0
H563 H 0.85643 0.46686 0.00834 0.0
H564 H 0.87407 0.44558 0.03057 0.0
H565 H 0.8675 0.439 0.99192 0.0
H566 H 0.86898 0.39377 -0.00052 0.0
H567 H 0.9064 0.37092 0.00944 0.0
H568 H 0.02023 0.72288 0.98751 0.0
H569 H 0.02922 0.76256 0.01111 0.0
H570 H 0.10366 0.75839 0.97911 0.0
H571 H 0.09479 0.7192 0.95521 0.0
H572 H 0.06572 0.77738 0.0539 0.0
H573 H 0.07728 0.82297 0.94402 0.0
H574 H 0.06306 0.79328 0.94796 0.0
H575 H 0.09591 0.79606 0.94813 0.0
C576 C 0.03853 0.73042 0.98569 0.0
C577 C 0.05674 0.71815 0.96922 0.0
C578 C 0.04363 0.75299 0.9992 0.0
C579 C 0.06697 0.76351 0.99638 0.0
C580 C 0.0854 0.75076 0.98104 0.0
H581 H 0.14324 0.88129 0.083 0.0
H582 H 0.12399 0.84193 0.07102 0.0
C583 C 0.08031 0.72836 0.96745 0.0
C584 C 0.07209 0.78826 0.00826 0.0
H585 H 0.09197 0.84469 0.98657 0.0
C586 C 0.07121 0.79224 0.03926 0.0
C587 C 0.07879 0.80767 0.98901 0.0
C588 C 0.07859 0.80492 0.95541 0.0
C589 C 0.07788 0.81498 0.05159 0.0
C590 C 0.08598 0.83393 0.03238 0.0
C591 C 0.08593 0.83012 0.00134 0.0
C592 C 0.09533 0.85771 0.04358 0.0
C593 C 0.07612 0.81849 0.08498 0.0
C594 C 0.08563 0.87962 0.03222 0.0
C595 C 0.09687 0.90196 0.03852 0.0
C596 C 0.11794 0.90284 0.05649 0.0
C597 C 0.12693 0.8811 0.0692 0.0
C598 C 0.11583 0.85864 0.06255 0.0
H599 H 0.06261 0.80571 0.09508 0.0
H600 H 0.09424 0.81464 0.0952 0.0
H601 H 0.07081 0.83757 0.09069 0.0
H602 H 0.06986 0.87934 0.01751 0.0
H603 H 0.08945 0.9185 0.02859 0.0
H604 H 0.59735 0.12928 0.01088 0.0
H605 H 0.63611 0.10805 0.00308 0.0
H606 H 0.65161 0.11238 0.0975 0.0
H607 H 0.61261 0.13396 0.10556 0.0
H608 H 0.69094 0.12629 0.06081 0.0
H609 H 0.65303 0.03707 0.02492 0.0
H610 H 0.6398 0.06215 0.00461 0.0
H611 H 0.63492 0.05979 0.04433 0.0
C612 C 0.60895 0.12571 0.03005 0.0
C613 C 0.60195 0.13322 0.05885 0.0
C614 C 0.63099 0.11337 0.02558 0.0
C615 C 0.64643 0.10817 0.04981 0.0
C616 C 0.63975 0.11599 0.07859 0.0
H617 H 0.77634 0.02017 0.00268 0.0
H618 H 0.74038 0.03393 0.0312 0.0
C619 C 0.61757 0.12834 0.08312 0.0
C620 C 0.67003 0.09566 0.04437 0.0
H621 H 0.69444 0.04594 0.00896 0.0
C622 C 0.69179 0.10849 0.05005 0.0
C623 C 0.67112 0.07223 0.03089 0.0
C624 C 0.64846 0.05689 0.02612 0.0
C625 C 0.71448 0.09932 0.04048 0.0
C626 C 0.71526 0.07697 0.02446 0.0
C627 C 0.69375 0.06325 0.02087 0.0
C628 C 0.73761 0.06887 0.00857 0.0
C629 C 0.73731 0.11398 0.04683 0.0
C630 C 0.74761 0.08379 0.98614 0.0
C631 C 0.76793 0.076 0.96986 0.0
C632 C 0.77859 0.05303 0.97553 0.0
C633 C 0.76851 0.03798 0.99789 0.0
C634 C 0.74806 0.04582 0.01421 0.0
H635 H 0.73502 0.12553 0.06711 0.0
H636 H 0.75345 0.10186 0.04997 0.0
H637 H 0.74101 0.12637 0.02768 0.0
H638 H 0.73942 0.10136 0.98088 0.0
H639 H 0.77521 0.08797 0.95269 0.0
H640 H 0.47241 0.71424 0.48815 0.0
H641 H 0.46338 0.75223 0.46055 0.0
H642 H 0.42051 0.77834 0.53504 0.0
H643 H 0.42908 0.7406 0.56243 0.0
H644 H 0.40906 0.77101 0.45162 0.0
H645 H 0.47303 0.83422 0.50965 0.0
H646 H 0.47863 0.80165 0.50641 0.0
H647 H 0.45691 0.81292 0.53326 0.0
C648 C 0.46124 0.72821 0.49865 0.0
C649 C 0.4514 0.72451 0.52738 0.0
C650 C 0.45609 0.74979 0.48289 0.0
C651 C 0.44145 0.768 0.49595 0.0
C652 C 0.43202 0.7645 0.52477 0.0
H653 H 0.36746 0.89989 0.48722 0.0
H654 H 0.39024 0.86225 0.49643 0.0
C655 C 0.43687 0.74292 0.54032 0.0
C656 C 0.43469 0.79037 0.47942 0.0
H657 H 0.43933 0.85252 0.48396 0.0
C658 C 0.41603 0.78887 0.45798 0.0
C659 C 0.44391 0.81348 0.48798 0.0
C660 C 0.46438 0.81581 0.51043 0.0
C661 C 0.40495 0.81013 0.44653 0.0
C662 C 0.41317 0.83331 0.45653 0.0
C663 C 0.43302 0.83471 0.47642 0.0
C664 C 0.39948 0.85609 0.44995 0.0
C665 C 0.38345 0.8076 0.42556 0.0
C666 C 0.39708 0.86509 0.42069 0.0
C667 C 0.3838 0.88662 0.4153 0.0
C668 C 0.37298 0.89946 0.43916 0.0
C669 C 0.37555 0.89039 0.46837 0.0
C670 C 0.38865 0.86893 0.47369 0.0
H671 H 0.37705 0.78833 0.42372 0.0
H672 H 0.36792 0.81916 0.43323 0.0
H673 H 0.38887 0.81395 0.40294 0.0
H674 H 0.40562 0.85563 0.40212 0.0
H675 H 0.38225 0.89334 0.39259 0.0
H676 H 0.76786 0.41278 0.54673 0.0
H677 H 0.73224 0.40193 0.51677 0.0
H678 H 0.73806 0.47022 0.46873 0.0
H679 H 0.774 0.48138 0.49896 0.0
H680 H 0.69044 0.45945 0.48964 0.0
H681 H 0.72965 0.38047 0.4288 0.0
H682 H 0.73526 0.37848 0.46825 0.0
H683 H 0.74846 0.40324 0.44706 0.0
C684 C 0.76169 0.42549 0.52972 0.0
C685 C 0.77373 0.44792 0.52514 0.0
C686 C 0.74145 0.41915 0.51243 0.0
C687 C 0.73287 0.43504 0.49013 0.0
C688 C 0.74464 0.4576 0.48562 0.0
H689 H 0.6077 0.37187 0.39219 0.0
H690 H 0.64626 0.39434 0.39948 0.0
C691 C 0.76508 0.46395 0.5029 0.0
C692 C 0.71064 0.42832 0.47314 0.0
H693 H 0.68549 0.3805 0.43486 0.0
C694 C 0.68944 0.44249 0.47703 0.0
C695 C 0.70947 0.40648 0.45618 0.0
C696 C 0.73201 0.39143 0.44954 0.0
C697 C 0.66666 0.43426 0.46659 0.0
C698 C 0.66512 0.41114 0.45238 0.0
C699 C 0.68664 0.39805 0.44617 0.0
C700 C 0.64132 0.39892 0.44717 0.0
C701 C 0.64431 0.44996 0.47185 0.0
C702 C 0.62608 0.39375 0.47162 0.0
C703 C 0.60429 0.3809 0.46759 0.0
C704 C 0.59734 0.37281 0.43901 0.0
C705 C 0.61262 0.37792 0.41446 0.0
C706 C 0.63455 0.39078 0.41856 0.0
H707 H 0.64926 0.46969 0.47302 0.0
H708 H 0.63048 0.44736 0.45393 0.0
H709 H 0.63587 0.44483 0.49355 0.0
H710 H 0.63128 0.39926 0.49401 0.0
H711 H 0.59295 0.37719 0.48695 0.0
H712 H 0.13472 0.60811 0.40359 0.0
H713 H 0.11712 0.64861 0.41424 0.0
H714 H 0.07336 0.61721 0.48483 0.0
H715 H 0.09113 0.57696 0.47478 0.0
H716 H 0.0679 0.66795 0.41857 0.0
H717 H 0.11738 0.66793 0.52705 0.0
H718 H 0.12399 0.64619 0.49773 0.0
H719 H 0.09782 0.64186 0.52159 0.0
C720 C 0.12108 0.60983 0.42107 0.0
C721 C 0.11456 0.58953 0.43868 0.0
C722 C 0.11103 0.63291 0.42707 0.0
C723 C 0.0943 0.63588 0.45065 0.0
C724 C 0.08658 0.61532 0.46689 0.0
H725 H 0.01183 0.76471 0.50696 0.0
H726 H 0.02391 0.72573 0.48384 0.0
C727 C 0.09674 0.59236 0.4611 0.0
C728 C 0.08648 0.66064 0.46007 0.0
H729 H 0.08924 0.70018 0.51897 0.0
C730 C 0.07258 0.67512 0.44045 0.0
C731 C 0.09298 0.66998 0.48847 0.0
C732 C 0.10905 0.65582 0.50986 0.0
C733 C 0.06464 0.69867 0.44877 0.0
C734 C 0.07052 0.70766 0.47756 0.0
C735 C 0.08463 0.6932 0.49696 0.0
C736 C 0.06289 0.73221 0.4882 0.0
C737 C 0.05045 0.71385 0.42654 0.0
C738 C 0.08074 0.74868 0.49842 0.0
C739 C 0.0739 0.77059 0.51207 0.0
C740 C 0.04905 0.77657 0.5156 0.0
C741 C 0.03112 0.76056 0.50438 0.0
C742 C 0.038 0.7384 0.49098 0.0
H743 H 0.05313 0.70717 0.40329 0.0
H744 H 0.03063 0.71267 0.43183 0.0
H745 H 0.05597 0.73342 0.42765 0.0
H746 H 0.10004 0.74426 0.49653 0.0
H747 H 0.08812 0.78266 0.52032 0.0
H748 H 0.70556 0.09003 0.52063 0.0
H749 H 0.74282 0.10484 0.49655 0.0
H750 H 0.76802 0.03035 0.48597 0.0
H751 H 0.73015 0.01536 0.50914 0.0
H752 H 0.78696 0.09931 0.5189 0.0
H753 H 0.78534 0.05862 0.40538 0.0
H754 H 0.7587 0.05922 0.42932 0.0
H755 H 0.78196 0.03623 0.43449 0.0
C756 C 0.71887 0.07678 0.51273 0.0
C757 C 0.71509 0.05156 0.51685 0.0
C758 C 0.74012 0.08527 0.49892 0.0
C759 C 0.75813 0.06873 0.48921 0.0
C760 C 0.75413 0.04344 0.49262 0.0
H761 H 0.9111 0.10495 0.48079 0.0
H762 H 0.87092 0.08713 0.49069 0.0
C763 C 0.73261 0.03489 0.50607 0.0
C764 C 0.78203 0.07822 0.4786 0.0
H765 H 0.82356 0.07576 0.42147 0.0
C766 C 0.79482 0.09429 0.49747 0.0
C767 C 0.7922 0.07184 0.45053 0.0
C768 C 0.77873 0.05573 0.42862 0.0
C769 C 0.81763 0.10388 0.48932 0.0
C770 C 0.82832 0.09664 0.4619 0.0
C771 C 0.81539 0.081 0.44264 0.0
C772 C 0.8531 0.10502 0.45339 0.0
C773 C 0.82996 0.12187 0.51009 0.0
C774 C 0.85659 0.12005 0.42827 0.0
C775 C 0.87968 0.13011 0.42235 0.0
C776 C 0.89945 0.12528 0.44158 0.0
C777 C 0.89609 0.10928 0.46585 0.0
C778 C 0.87317 0.0991 0.47156 0.0
H779 H 0.81662 0.13061 0.52556 0.0
H780 H 0.84373 0.11204 0.52385 0.0
H781 H 0.83952 0.13649 0.49735 0.0
H782 H 0.84129 0.12469 0.41392 0.0
H783 H 0.88183 0.14229 0.40342 0.0
H784 H 0.50008 0.92286 0.91443 0.0
H785 H 0.50558 0.96399 0.93466 0.0
H786 H 0.5139 0.93383 0.02324 0.0
H787 H 0.50801 0.89253 0.00319 0.0
H788 H 0.47625 0.96749 0.01864 0.0
H789 H 0.56119 0.00506 0.96849 0.0
H790 H 0.54081 0.99187 0.94144 0.0
H791 H 0.55464 0.97263 0.9694 0.0
C792 C 0.5039 0.92489 0.93807 0.0
C793 C 0.50341 0.90452 0.95728 0.0
C794 C 0.50711 0.94843 0.94959 0.0
C795 C 0.51016 0.95193 0.98044 0.0
C796 C 0.51157 0.93146 -0.00064 0.0
H797 H 0.50765 0.08163 0.0913 0.0
H798 H 0.50532 0.03953 0.07296 0.0
C799 C 0.50833 0.90789 0.98785 0.0
C800 C 0.50848 0.97685 0.99321 0.0
H801 H 0.5334 0.03407 0.98988 0.0
C802 C 0.4889 0.982 0.01264 0.0
C803 C 0.52485 0.99575 0.98505 0.0
C804 C 0.54669 0.99104 0.96517 0.0
C805 C 0.48496 0.00573 0.02366 0.0
C806 C 0.50118 0.02465 0.01525 0.0
C807 C 0.52086 0.01949 0.99602 0.0
C808 C 0.4987 0.04984 0.02694 0.0
C809 C 0.4632 0.0105 0.04365 0.0
C810 C 0.49517 0.06951 0.00721 0.0
C811 C 0.49643 0.0936 0.01764 0.0
C812 C 0.50154 0.09831 0.04789 0.0
C813 C 0.5036 0.07854 0.06789 0.0
C814 C 0.50226 0.05448 0.05746 0.0
H815 H 0.4493 0.99569 0.04195 0.0
H816 H 0.46945 0.01144 0.06723 0.0
H817 H 0.45437 0.02824 0.03801 0.0
H818 H 0.49242 0.06621 0.98356 0.0
H819 H 0.49489 0.10847 0.00169 0.0
H820 H 0.42355 0.51976 0.10146 0.0
H821 H 0.46569 0.51276 0.08593 0.0
H822 H 0.44036 0.46747 0.01309 0.0
H823 H 0.39782 0.47572 0.02757 0.0
H824 H 0.4956 0.47687 0.07925 0.0
H825 H 0.47831 0.51711 0.96752 0.0
H826 H 0.45565 0.51751 0.99681 0.0
H827 H 0.45987 0.4905 0.97418 0.0
C828 C 0.42692 0.50799 0.08239 0.0
C829 C 0.40741 0.49854 0.06545 0.0
C830 C 0.45107 0.50404 0.07349 0.0
C831 C 0.4562 0.49025 0.04776 0.0
C832 C 0.4368 0.47897 0.03235 0.0
H833 H 0.6006 0.44082 0.99793 0.0
H834 H 0.56067 0.44668 0.0209 0.0
C835 C 0.41253 0.4834 0.04085 0.0
C836 C 0.48174 0.48879 0.03654 0.0
H837 H 0.5172 0.49865 0.97487 0.0
C838 C 0.50034 0.48174 0.05645 0.0
C839 C 0.48807 0.49588 0.00706 0.0
C840 C 0.46946 0.50594 0.98528 0.0
C841 C 0.52499 0.48119 0.0476 0.0
C842 C 0.5311 0.48678 0.01758 0.0
C843 C 0.51255 0.49419 0.99782 0.0
C844 C 0.55635 0.48414 0.00573 0.0
C845 C 0.54417 0.4752 0.07078 0.0
C846 C 0.56715 0.50305 0.98887 0.0
C847 C 0.58979 0.49945 0.97488 0.0
C848 C 0.60211 0.47702 0.97791 0.0
C849 C 0.5917 0.45846 0.99559 0.0
C850 C 0.56889 0.46185 0.00897 0.0
H851 H 0.53798 0.4806 0.09353 0.0
H852 H 0.54735 0.45512 0.07104 0.0
H853 H 0.56179 0.48457 0.066 0.0
H854 H 0.55776 0.52038 0.98594 0.0
H855 H 0.5974 0.51399 0.96125 0.0
H856 H 0.00333 0.60355 0.99726 0.0
H857 H -0.001 0.56192 0.01696 0.0
H858 H 0.00069 0.53303 0.92725 0.0
H859 H 0.00515 0.57452 0.90732 0.0
H860 H 0.96576 0.52057 0.00424 0.0
H861 H 0.06266 0.5046 0.97071 0.0
H862 H 0.04942 0.53487 0.97292 0.0
H863 H 0.04255 0.51536 0.9417 0.0
C864 C 0.00208 0.5884 0.98168 0.0
C865 C 0.00491 0.59222 0.95078 0.0
C866 C -0.0003 0.56466 0.99298 0.0
C867 C 0.00014 0.54451 0.97353 0.0
C868 C 0.00077 0.54841 0.94256 0.0
H869 H 0.0078 0.38791 0.99914 0.0
H870 H 0.01083 0.42966 0.97946 0.0
C871 C 0.00314 0.57212 0.93124 0.0
C872 C 0.0021 0.51946 0.98569 0.0
H873 H 0.04143 0.47103 0.99173 0.0
C874 C 0.98227 0.50971 0.0016 0.0
C875 C 0.02377 0.50551 0.98218 0.0
C876 C 0.04594 0.5156 0.96617 0.0
C877 C 0.98336 0.48603 0.01371 0.0
C878 C 0.00508 0.4721 0.01031 0.0
C879 C 0.0249 0.48186 0.99436 0.0
C880 C 0.00724 0.44711 0.02268 0.0
C881 C 0.9611 0.47591 0.02948 0.0
C882 C 0.00565 0.44323 0.05361 0.0
C883 C 0.00399 0.41946 0.06491 0.0
C884 C 0.00399 0.39925 0.04542 0.0
C885 C 0.00773 0.40314 0.01469 0.0
C886 C 0.00934 0.42695 0.00339 0.0
H887 H 0.94429 0.48651 0.02407 0.0
H888 H 0.95804 0.45642 0.02335 0.0
H889 H 0.964 0.47686 0.05401 0.0
H890 H 0.00459 0.45861 0.06886 0.0
H891 H 0.00127 0.417 0.08872 0.0
H892 H 0.0805 0.01047 0.07947 0.0
H893 H 0.03827 0.01198 0.06146 0.0
H894 H 0.06403 0.00834 0.97041 0.0
H895 H 0.10637 0.00666 0.98818 0.0
H896 H 0.01071 0.04092 0.01759 0.0
H897 H 0.02474 0.94336 0.98553 0.0
H898 H 0.04552 0.9596 0.00987 0.0
H899 H 0.04637 0.96482 0.97024 0.0
C900 C 0.07724 0.01082 0.05558 0.0
C901 C 0.09669 0.00802 0.03523 0.0
C902 C 0.0531 0.01159 0.04535 0.0
C903 C 0.04816 0.00958 0.01471 0.0
C904 C 0.0676 0.00944 0.9942 0.0
H905 H 0.91748 0.99124 0.91088 0.0
H906 H 0.95946 0.98993 0.92976 0.0
C907 C 0.09175 0.0087 0.00439 0.0
C908 C 0.02287 0.00498 0.00456 0.0
H909 H 0.98626 0.96087 0.97396 0.0
C910 C 0.00529 0.02345 0.00809 0.0
C911 C 0.01598 0.98202 0.99246 0.0
C912 C 0.03404 0.96118 0.98947 0.0
C913 C 0.98096 0.01975 0.99913 0.0
C914 C 0.97409 0.99682 0.98694 0.0
C915 C 0.99166 0.97833 0.9835 0.0
C916 C 0.94892 0.99231 0.9763 0.0
C917 C 0.9629 0.04058 0.00213 0.0
C918 C 0.9292 0.99241 0.99641 0.0
C919 C 0.90518 0.993 0.98571 0.0
C920 C 0.90067 0.99359 0.95477 0.0
C921 C 0.92041 0.99093 0.93483 0.0
C922 C 0.9444 0.99029 0.94556 0.0
H923 H 0.97217 0.05837 0.00637 0.0
H924 H 0.95159 0.04231 0.9816 0.0
H925 H 0.9504 0.03681 0.02116 0.0
H926 H 0.93243 0.99352 0.02027 0.0
H927 H 0.89033 0.99496 0.00161 0.0
H928 H 0.49874 0.6054 0.50109 0.0
H929 H 0.50232 0.56343 0.48221 0.0
H930 H 0.49638 0.53558 0.57217 0.0
H931 H 0.49252 0.57741 0.59122 0.0
H932 H 0.53355 0.5223 0.49571 0.0
H933 H 0.4363 0.50676 0.52756 0.0
H934 H 0.44982 0.53693 0.52616 0.0
H935 H 0.45585 0.51705 0.55733 0.0
C936 C 0.49883 0.59037 0.51692 0.0
C937 C 0.49504 0.59462 0.54757 0.0
C938 C 0.50078 0.56643 0.50609 0.0
C939 C 0.49896 0.54651 0.52578 0.0
C940 C 0.49727 0.55078 0.55662 0.0
H941 H 0.49287 0.38957 0.50261 0.0
H942 H 0.48956 0.4315 0.52169 0.0
C943 C 0.49527 0.57467 0.56745 0.0
C944 C 0.49707 0.52134 0.51389 0.0
H945 H 0.45799 0.47269 0.50826 0.0
C946 C 0.51705 0.51144 0.49836 0.0
C947 C 0.47541 0.50736 0.51735 0.0
C948 C 0.45301 0.51757 0.53277 0.0
C949 C 0.51612 0.48763 0.48661 0.0
C950 C 0.49446 0.47366 0.49008 0.0
C951 C 0.47449 0.48355 0.50562 0.0
C952 C 0.49253 0.44851 0.47814 0.0
C953 C 0.53849 0.47742 0.47113 0.0
C954 C 0.49391 0.44433 0.44727 0.0
C955 C 0.49571 0.42045 0.4363 0.0
C956 C 0.49609 0.40045 0.4561 0.0
C957 C 0.49265 0.40463 0.48683 0.0
C958 C 0.49087 0.42855 0.49778 0.0
H959 H 0.5552 0.48827 0.4762 0.0
H960 H 0.54173 0.45808 0.47782 0.0
H961 H 0.53556 0.47784 0.44658 0.0
H962 H 0.49469 0.45956 0.43176 0.0
H963 H 0.49821 0.41778 0.41249 0.0
H964 H 0.10632 0.48601 0.51201 0.0
H965 H 0.06509 0.48242 0.53301 0.0
H966 H 0.03508 0.4774 0.44401 0.0
H967 H 0.07614 0.48058 0.42291 0.0
H968 H 0.03137 0.51856 0.52043 0.0
H969 H 0.99401 0.42769 0.4893 0.0
H970 H 0.02642 0.43434 0.48869 0.0
H971 H 0.00713 0.44376 0.45816 0.0
C972 C 0.09103 0.48316 0.49696 0.0
C973 C 0.0944 0.48378 0.46581 0.0
C974 C 0.06749 0.48127 0.50899 0.0
C975 C 0.04706 0.47971 0.49006 0.0
C976 C 0.0506 0.47824 0.45905 0.0
H977 H 0.89075 0.4977 0.50462 0.0
H978 H 0.93332 0.49848 0.48748 0.0
C979 C 0.07411 0.48011 0.44701 0.0
C980 C 0.0221 0.48318 0.50222 0.0
H981 H 0.96482 0.45832 0.50353 0.0
C982 C 0.01687 0.50527 0.51708 0.0
C983 C 0.00322 0.46591 0.49752 0.0
C984 C 0.00799 0.4415 0.4828 0.0
C985 C 0.99306 0.5108 0.52677 0.0
C986 C 0.97414 0.49371 0.52163 0.0
C987 C 0.9794 0.47151 0.5071 0.0
C988 C 0.94881 0.49798 0.53199 0.0
C989 C 0.98819 0.5351 0.54174 0.0
C990 C 0.94356 0.49843 0.56267 0.0
C991 C 0.9193 0.49805 0.57253 0.0
C992 C 0.89996 0.49708 0.55181 0.0
C993 C 0.90526 0.49853 0.52111 0.0
C994 C 0.92955 0.49881 0.51127 0.0
H995 H 0.00327 0.54839 0.53779 0.0
H996 H 0.97076 0.54321 0.5336 0.0
H997 H 0.98648 0.53223 0.56622 0.0
H998 H 0.9582 0.49753 0.57898 0.0
H999 H 0.91576 0.49686 0.59633 0.0
H1000 H 0.99111 0.91677 0.58076 0.0
H1001 H 0.98777 0.95859 0.56196 0.0
H1002 H 0.98829 0.93149 0.47135 0.0
H1003 H 0.99199 0.88951 0.49001 0.0
H1004 H 0.02547 0.96468 0.48345 0.0
H1005 H 0.93603 0.0012 0.52194 0.0
H1006 H 0.95346 0.98685 0.55112 0.0
H1007 H 0.94255 0.96877 0.52025 0.0
C1008 C 0.98964 0.91962 0.55685 0.0
C1009 C 0.99201 0.8999 0.53684 0.0
C1010 C 0.98769 0.94356 0.54614 0.0
C1011 C 0.9878 0.94811 0.51527 0.0
C1012 C 0.98819 0.92831 0.49526 0.0
H1013 H 0.0003 0.08057 0.41106 0.0
H1014 H 0.00216 0.03809 0.42807 0.0
C1015 C 0.99015 0.90434 0.50597 0.0
C1016 C 0.99085 0.97343 0.5041 0.0
H1017 H 0.96568 0.0306 0.50602 0.0
C1018 C 0.01228 0.97907 0.4881 0.0
C1019 C 0.97376 0.99214 0.51051 0.0
C1020 C 0.95005 0.98694 0.52666 0.0
C1021 C 0.01729 0.00309 0.47879 0.0
C1022 C 0.00029 0.02182 0.48542 0.0
C1023 C 0.9788 0.01617 0.50127 0.0
C1024 C 0.00377 0.0473 0.47509 0.0
C1025 C 0.04093 0.00835 0.46251 0.0
C1026 C 0.0048 0.06651 0.49589 0.0
C1027 C 0.00381 0.09084 0.48623 0.0
C1028 C 0.00145 0.09622 0.45564 0.0
C1029 C 0.00219 0.07697 0.43477 0.0
C1030 C 0.00326 0.05268 0.44444 0.0
H1031 H 0.05462 0.99354 0.46589 0.0
H1032 H 0.03718 0.0098 0.43819 0.0
H1033 H 0.04898 0.02598 0.47006 0.0
H1034 H 0.0052 0.06266 0.51965 0.0
H1035 H 0.00318 0.10528 0.50284 0.0
H1036 H 0.60672 0.9901 0.48846 0.0
H1037 H 0.56487 0.98743 0.4692 0.0
H1038 H 0.53719 0.98181 0.55927 0.0
H1039 H 0.57893 0.98417 0.57873 0.0
H1040 H 0.51092 0.95346 0.5155 0.0
H1041 H 0.52406 0.05094 0.48271 0.0
H1042 H 0.54596 0.02974 0.46746 0.0
H1043 H 0.54502 0.035 0.5071 0.0
C1044 C 0.59181 0.98741 0.50411 0.0
C1045 C 0.59601 0.98779 0.53512 0.0
C1046 C 0.56792 0.98612 0.49309 0.0
C1047 C 0.54803 0.98519 0.51293 0.0
C1048 C 0.55236 0.98282 0.54368 0.0
H1049 H 0.39046 0.00037 0.5005 0.0
H1050 H 0.43285 0.00103 0.51827 0.0
C1051 C 0.57622 0.98409 0.55473 0.0
C1052 C 0.52285 0.98939 0.5021 0.0
H1053 H 0.48591 0.03297 0.47087 0.0
C1054 C 0.50541 0.9708 0.50572 0.0
C1055 C 0.51578 0.0122 0.48968 0.0
C1056 C 0.53358 0.03324 0.48669 0.0
C1057 C 0.48106 0.97426 0.4967 0.0
C1058 C 0.47403 0.99704 0.48425 0.0
C1059 C 0.49145 0.01561 0.48057 0.0
C1060 C 0.44874 0.00144 0.47396 0.0
C1061 C 0.4631 0.95341 0.50008 0.0
C1062 C 0.44385 0.0031 0.44327 0.0
C1063 C 0.41971 0.00286 0.43305 0.0
C1064 C 0.40018 0.00102 0.45344 0.0
C1065 C 0.40513 0.00174 0.48427 0.0
C1066 C 0.42931 0.00189 0.49446 0.0
H1067 H 0.47246 0.9357 0.50458 0.0
H1068 H 0.45061 0.95734 0.51907 0.0
H1069 H 0.45176 0.95143 0.47961 0.0
H1070 H 0.4587 0.00301 0.42718 0.0
H1071 H 0.41642 0.00242 0.40917 0.0
H1072 H 0.53199 0.31836 0.324 0.0
H1073 H 0.51858 0.2959 0.27991 0.0
H1074 H 0.45447 0.27093 0.32743 0.0
H1075 H 0.46805 0.29325 0.37209 0.0
H1076 H 0.47928 0.23354 0.30161 0.0
H1077 H 0.46584 0.3064 0.2179 0.0
H1078 H 0.49497 0.30995 0.23584 0.0
H1079 H 0.46725 0.31274 0.25752 0.0
C1080 C 0.51481 0.30846 0.32495 0.0
C1081 C 0.50109 0.30751 0.35149 0.0
C1082 C 0.50704 0.2958 0.29962 0.0
C1083 C 0.48529 0.2821 0.30019 0.0
C1084 C 0.47117 0.28161 0.32644 0.0
H1085 H 0.46899 0.20607 0.12794 0.0
H1086 H 0.45477 0.228 0.17266 0.0
C1087 C 0.47895 0.29435 0.35189 0.0
C1088 C 0.47919 0.26619 0.27444 0.0
H1089 H 0.47842 0.26647 0.19823 0.0
C1090 C 0.4784 0.24075 0.27903 0.0
C1091 C 0.47746 0.27555 0.24504 0.0
C1092 C 0.47614 0.30269 0.23884 0.0
C1093 C 0.47835 0.22443 0.25482 0.0
C1094 C 0.4796 0.23384 0.2254 0.0
C1095 C 0.47792 0.25924 0.22082 0.0
C1096 C 0.48618 0.21814 0.19962 0.0
C1097 C 0.47802 0.19726 0.26102 0.0
C1098 C 0.50847 0.20534 0.20003 0.0
C1099 C 0.51662 0.19294 0.17467 0.0
C1100 C 0.50271 0.19324 0.14827 0.0
C1101 C 0.48004 0.20549 0.14804 0.0
C1102 C 0.4719 0.21799 0.17352 0.0
H1103 H 0.46799 0.1932 0.28208 0.0
H1104 H 0.46935 0.18693 0.24243 0.0
H1105 H 0.49711 0.19063 0.26379 0.0
H1106 H 0.52012 0.20575 0.21963 0.0
H1107 H 0.53419 0.18373 0.1755 0.0
H1108 H 0.15174 0.50794 0.32556 0.0
H1109 H 0.17368 0.50099 0.27862 0.0
H1110 H 0.23701 0.47653 0.32809 0.0
H1111 H 0.21482 0.4825 0.37493 0.0
H1112 H 0.21193 0.5267 0.2642 0.0
H1113 H 0.23889 0.4292 0.25992 0.0
H1114 H 0.21583 0.44042 0.28546 0.0
H1115 H 0.24787 0.44287 0.29467 0.0
C1116 C 0.1701 0.50041 0.32633 0.0
C1117 C 0.18166 0.49587 0.35382 0.0
C1118 C 0.18261 0.49643 0.29953 0.0
C1119 C 0.20695 0.48807 0.29977 0.0
C1120 C 0.21807 0.48238 0.32722 0.0
H1121 H 0.31975 0.53558 0.18138 0.0
H1122 H 0.29248 0.52591 0.22308 0.0
C1123 C 0.20542 0.486 0.35402 0.0
C1124 C 0.22179 0.48896 0.27201 0.0
H1125 H 0.26339 0.45712 0.23012 0.0
C1126 C 0.22284 0.51131 0.25651 0.0
C1127 C 0.23591 0.46887 0.26176 0.0
C1128 C 0.23436 0.44393 0.27617 0.0
C1129 C 0.2383 0.51445 0.23186 0.0
C1130 C 0.25368 0.49492 0.22293 0.0
C1131 C 0.2519 0.47219 0.23745 0.0
C1132 C 0.27205 0.49826 0.19899 0.0
C1133 C 0.23813 0.53875 0.21571 0.0
C1134 C 0.27034 0.485 0.17221 0.0
C1135 C 0.28608 0.49032 0.14839 0.0
C1136 C 0.30369 0.50899 0.15112 0.0
C1137 C 0.30618 0.52129 0.17854 0.0
C1138 C 0.29058 0.51585 0.20232 0.0
H1139 H 0.22078 0.54892 0.21965 0.0
H1140 H 0.25342 0.55023 0.22411 0.0
H1141 H 0.24056 0.53623 0.19125 0.0
H1142 H 0.25622 0.47125 0.16933 0.0
H1143 H 0.28383 0.48051 0.12752 0.0
H1144 H 0.96286 0.31534 0.17634 0.0
H1145 H 0.97529 0.29302 0.221 0.0
H1146 H 0.0429 0.27215 0.17795 0.0
H1147 H 0.03034 0.29428 0.1327 0.0
H1148 H 0.01929 0.23319 0.20196 0.0
H1149 H 0.02446 0.30662 0.28639 0.0
H1150 H 0.99597 0.30824 0.2666 0.0
H1151 H 0.02433 0.31292 0.24673 0.0
C1152 C 0.98056 0.30634 0.1765 0.0
C1153 C 0.99562 0.30652 0.15104 0.0
C1154 C 0.98775 0.29377 0.20216 0.0
C1155 C 0.01023 0.2813 0.20301 0.0
C1156 C 0.0256 0.28187 0.17784 0.0
H1157 H 0.02744 0.20742 0.37622 0.0
H1158 H 0.04045 0.23031 0.33176 0.0
C1159 C 0.0184 0.2945 0.15206 0.0
C1160 C 0.01613 0.2657 0.22911 0.0
H1161 H 0.01438 0.2659 0.30529 0.0
C1162 C 0.01885 0.24039 0.22457 0.0
C1163 C 0.01615 0.27511 0.25857 0.0
C1164 C 0.01535 0.30226 0.26483 0.0
C1165 C 0.01934 0.22407 0.24878 0.0
C1166 C 0.01654 0.23331 0.27813 0.0
C1167 C 0.0161 0.25876 0.28275 0.0
C1168 C 0.01093 0.21711 0.30379 0.0
C1169 C 0.02202 0.19702 0.24259 0.0
C1170 C 0.99011 0.20204 0.30274 0.0
C1171 C 0.98269 0.18899 0.32796 0.0
C1172 C 0.99579 0.19097 0.35486 0.0
C1173 C 0.01702 0.20553 0.35575 0.0
C1174 C 0.02448 0.21859 0.3304 0.0
H1175 H 0.03297 0.19382 0.222 0.0
H1176 H 0.03092 0.18735 0.26154 0.0
H1177 H 0.00362 0.18893 0.23894 0.0
H1178 H 0.97897 0.20114 0.28274 0.0
H1179 H 0.9662 0.17801 0.32664 0.0
H1180 H 0.28351 0.01892 0.36905 0.0
H1181 H 0.25807 0.0266 0.32483 0.0
H1182 H 0.29953 0.97284 0.27537 0.0
H1183 H 0.32458 0.96467 0.31953 0.0
H1184 H 0.26684 0.03974 0.26404 0.0
H1185 H 0.22928 0.94583 0.27574 0.0
H1186 H 0.24728 0.96027 0.30461 0.0
H1187 H 0.26206 0.94644 0.27283 0.0
C1188 C 0.28743 0.00905 0.34858 0.0
C1189 C 0.30574 0.99093 0.34778 0.0
C1190 C 0.27292 0.01347 0.32338 0.0
C1191 C 0.27664 -0.0001 0.29713 0.0
C1192 C 0.29608 0.98312 0.29567 0.0
H1193 H 0.21982 0.00983 0.11902 0.0
H1194 H 0.24225 0.01703 0.16546 0.0
C1195 C 0.3104 0.97853 0.32086 0.0
C1196 C 0.25908 0.00162 0.27209 0.0
H1197 H 0.22001 0.96682 0.23062 0.0
C1198 C 0.2564 0.02391 0.25679 0.0
C1199 C 0.24506 0.98108 0.26324 0.0
C1200 C 0.24582 0.95712 0.28013 0.0
C1201 C 0.24073 0.0259 0.23197 0.0
C1202 C 0.22786 0.0049 0.22204 0.0
C1203 C 0.22995 0.9829 0.2381 0.0
C1204 C 0.21292 0.00463 0.19438 0.0
C1205 C 0.23804 0.05044 0.21681 0.0
C1206 C 0.18895 0.9953 0.19512 0.0
C1207 C 0.17634 0.99063 0.16859 0.0
C1208 C 0.18741 0.99542 0.14087 0.0
C1209 C 0.21081 0.0061 0.14013 0.0
C1210 C 0.22358 0.01042 0.16669 0.0
H1211 H 0.24194 0.06571 0.23253 0.0
H1212 H 0.25141 0.05167 0.19816 0.0
H1213 H 0.21933 0.05292 0.20754 0.0
H1214 H 0.18038 0.99065 0.21623 0.0
H1215 H 0.15826 0.9825 0.16978 0.0
H1216 H 0.52244 0.80502 0.86468 0.0
H1217 H 0.53338 0.78142 0.81989 0.0
H1218 H 0.45923 0.78822 0.78768 0.0
H1219 H 0.44819 0.81175 0.83215 0.0
H1220 H 0.51137 0.73663 0.80251 0.0
H1221 H 0.50124 0.80742 0.71474 0.0
H1222 H 0.50481 0.81492 0.75386 0.0
H1223 H 0.47533 0.80613 0.73942 0.0
C1224 C 0.50858 0.80174 0.84783 0.0
C1225 C 0.48447 0.81022 0.85184 0.0
C1226 C 0.51485 0.78827 0.82233 0.0
C1227 C 0.49719 0.78341 0.80035 0.0
C1228 C 0.47324 0.79221 0.80412 0.0
H1229 H 0.46053 0.6738 0.67991 0.0
H1230 H 0.47139 0.69857 0.72332 0.0
C1231 C 0.46693 0.80552 0.82962 0.0
C1232 C 0.503 0.76763 0.77445 0.0
H1233 H 0.49809 0.76538 0.69852 0.0
C1234 C 0.509 0.74299 0.77971 0.0
C1235 C 0.50032 0.77607 0.74476 0.0
C1236 C 0.49532 0.80266 0.73779 0.0
C1237 C 0.51055 0.72615 0.75607 0.0
C1238 C 0.50571 0.7342 0.72662 0.0
C1239 C 0.50157 0.75919 0.72118 0.0
C1240 C 0.50186 0.71678 0.70173 0.0
C1241 C 0.51657 0.69977 0.76293 0.0
C1242 C 0.51545 0.71876 0.67519 0.0
C1243 C 0.50924 0.70459 0.65025 0.0
C1244 C 0.48912 0.68855 0.65143 0.0
C1245 C 0.47615 0.68598 0.67837 0.0
C1246 C 0.48245 0.69999 0.70327 0.0
H1247 H 0.52755 0.69819 0.78376 0.0
H1248 H 0.49928 0.68943 0.76631 0.0
H1249 H 0.52685 0.69111 0.74428 0.0
H1250 H 0.53036 0.73179 0.67351 0.0
H1251 H 0.51948 0.70701 0.6297 0.0
H1252 H 0.79138 0.52724 0.63077 0.0
H1253 H 0.76737 0.54179 0.67367 0.0
H1254 H 0.78598 0.47601 0.72216 0.0
H1255 H 0.81017 0.46166 0.67987 0.0
H1256 H 0.72735 0.52 0.69687 0.0
H1257 H 0.79708 0.52749 0.7853 0.0
H1258 H 0.80509 0.5257 0.74615 0.0
H1259 H 0.79943 0.49819 0.76742 0.0
C1260 C 0.79068 0.51614 0.65083 0.0
C1261 C 0.80266 0.49333 0.65202 0.0
C1262 C 0.77698 0.52446 0.67527 0.0
C1263 C 0.77525 0.5102 0.70132 0.0
C1264 C 0.78761 0.48766 0.70265 0.0
H1265 H 0.66939 0.46561 0.81736 0.0
H1266 H 0.69199 0.48102 0.77447 0.0
C1267 C 0.80127 0.47936 0.67833 0.0
C1268 C 0.75865 0.51727 0.72608 0.0
H1269 H 0.75567 0.51713 0.80217 0.0
C1270 C 0.73359 0.52006 0.7199 0.0
C1271 C 0.76679 0.51809 0.75607 0.0
C1272 C 0.79363 0.5175 0.76406 0.0
C1273 C 0.71627 0.52109 0.74305 0.0
C1274 C 0.72422 0.51869 0.77301 0.0
C1275 C 0.74945 0.51851 0.7792 0.0
C1276 C 0.70709 0.51246 0.79761 0.0
C1277 C 0.68956 0.52374 0.73508 0.0
C1278 C 0.70794 0.52499 0.82504 0.0
C1279 C 0.69518 0.51596 0.84987 0.0
C1280 C 0.68156 0.49417 0.84763 0.0
C1281 C 0.67968 0.48247 0.81976 0.0
C1282 C 0.69243 0.49143 0.79508 0.0
H1283 H 0.68732 0.53516 0.71469 0.0
H1284 H 0.68181 0.50538 0.73011 0.0
H1285 H 0.67889 0.53212 0.7536 0.0
H1286 H 0.7193 0.54113 0.82756 0.0
H1287 H 0.69699 0.52532 0.87111 0.0
H1288 H 0.97459 0.79048 0.62458 0.0
H1289 H 0.96479 0.76611 0.66911 0.0
H1290 H 0.02957 0.79377 0.7128 0.0
H1291 H 0.03924 0.81829 0.66879 0.0
H1292 H 0.99337 0.72966 0.69168 0.0
H1293 H 0.97887 0.80007 0.77853 0.0
H1294 H 0.97828 0.80716 0.73907 0.0
H1295 H 0.00699 0.8053 0.7588 0.0
C1296 C 0.98645 0.79169 0.64393 0.0
C1297 C 0.00768 0.80627 0.64326 0.0
C1298 C 0.98084 0.77778 0.6693 0.0
C1299 C 0.99624 0.77843 0.69442 0.0
C1300 C 0.01708 0.79346 0.69398 0.0
H1301 H 0.04766 0.67667 0.81798 0.0
H1302 H 0.03509 0.70031 0.77434 0.0
C1303 C 0.02271 0.80732 0.6687 0.0
C1304 C 0.99222 0.76164 0.71995 0.0
H1305 H 0.99238 0.76016 0.79618 0.0
C1306 C 0.99258 0.73631 0.71452 0.0
C1307 C 0.9907 0.77029 0.7497 0.0
C1308 C 0.98841 0.79721 0.75685 0.0
C1309 C 0.99342 0.71945 0.73816 0.0
C1310 C 0.99438 0.72822 0.76789 0.0
C1311 C 0.99203 0.75345 0.77334 0.0
C1312 C 0.00047 0.71196 0.79331 0.0
C1313 C 0.994 0.69243 0.73103 0.0
C1314 C 0.98532 0.71088 0.81864 0.0
C1315 C 0.99258 0.69748 0.84379 0.0
C1316 C 0.01521 0.68516 0.84402 0.0
C1317 C 0.03007 0.68586 0.8184 0.0
C1318 C 0.02281 0.69922 0.79334 0.0
H1319 H 0.9846 0.68854 0.70951 0.0
H1320 H 0.01333 0.6864 0.72877 0.0
H1321 H 0.98519 0.68146 0.74897 0.0
H1322 H 0.96812 0.72079 0.81914 0.0
H1323 H 0.9808 0.69731 0.86329 0.0
H1324 H 0.71658 0.98588 0.62189 0.0
H1325 H 0.74018 0.97914 0.66762 0.0
H1326 H 0.68287 0.01345 0.71932 0.0
H1327 H 0.65956 0.02091 0.67357 0.0
H1328 H 0.72601 0.0343 0.72904 0.0
H1329 H 0.73664 0.93367 0.73875 0.0
H1330 H 0.74584 0.94512 0.70285 0.0
H1331 H 0.71433 0.94768 0.71431 0.0
C1332 C 0.7088 0.9915 0.64309 0.0
C1333 C 0.68634 0.00408 0.64421 0.0
C1334 C 0.72222 0.98747 0.66924 0.0
C1335 C 0.71318 0.99557 0.69693 0.0
C1336 C 0.69015 0.00699 0.69819 0.0
H1337 H 0.78139 0.98337 0.87223 0.0
H1338 H 0.75588 0.97627 0.82796 0.0
C1339 C 0.67687 0.01127 0.67206 0.0
C1340 C 0.72897 0.99515 0.72384 0.0
H1341 H 0.76393 0.95821 0.76841 0.0
C1342 C 0.73408 0.0176 0.73778 0.0
C1343 C 0.73942 0.97335 0.73532 0.0
C1344 C 0.73359 0.94856 0.72222 0.0
C1345 C 0.74967 0.01897 0.76254 0.0
C1346 C 0.761 0.99737 0.77319 0.0
C1347 C 0.75549 0.97477 0.75981 0.0
C1348 C 0.77838 0.99822 0.79849 0.0
C1349 C 0.75368 0.04358 0.77722 0.0
C1350 C 0.79996 0.01203 0.79614 0.0
C1351 C 0.81438 0.0163 0.82134 0.0
C1352 C 0.8076 0.00654 0.8492 0.0
C1353 C 0.78698 0.99118 0.85103 0.0
C1354 C 0.77242 0.98709 0.82581 0.0
H1355 H 0.73897 0.05682 0.7714 0.0
H1356 H 0.75445 0.04177 0.80194 0.0
H1357 H 0.77136 0.05133 0.76944 0.0
H1358 H 0.80507 0.02038 0.77506 0.0
H1359 H 0.83033 0.02797 0.81921 0.0
loop_
_geom_bond_atom_site_label_1
_geom_bond_atom_site_label_2
_geom_bond_distance
_geom_bond_site_symmetry_2
_ccdc_geom_bond_type
In0 O1 2.294 . S
In0 O2 2.326 . S
In0 O6 2.266 . S
In0 O7 2.326 . S
In0 O8 2.266 . S
In0 O9 2.326 . S
In0 O11 2.294 . S
In0 O12 2.326 . S
O1 In0 2.294 . S
O1 C10 1.240 . S
O2 In0 2.326 . S
O2 C10 1.252 . S
C3 O6 1.252 . S
C3 O7 1.260 . S
C4 O11 1.240 . S
C4 O12 1.252 . S
C5 O8 1.252 . S
C5 O9 1.260 . S
O6 In0 2.266 . S
O6 C3 1.252 . S
O7 In0 2.326 . S
O7 C3 1.260 . S
O8 In0 2.266 . S
O8 C5 1.252 . S
O9 In0 2.326 . S
O9 C5 1.260 . S
C10 O1 1.240 . S
C10 O2 1.252 . S
O11 In0 2.294 . S
O11 C4 1.240 . S
O12 In0 2.326 . S
O12 C4 1.252 . S
In13 O14 2.294 . S
In13 O15 2.326 . S
In13 O19 2.266 . S
In13 O20 2.326 . S
In13 O21 2.266 . S
In13 O22 2.326 . S
In13 O24 2.294 . S
In13 O25 2.326 . S
O14 In13 2.294 . S
O14 C23 1.240 . S
O15 In13 2.326 . S
O15 C23 1.252 . S
C16 O19 1.252 . S
C16 O20 1.260 . S
C17 O24 1.240 . S
C17 O25 1.252 . S
C18 O21 1.252 . S
C18 O22 1.260 . S
O19 In13 2.266 . S
O19 C16 1.252 . S
O20 In13 2.326 . S
O20 C16 1.260 . S
O21 In13 2.266 . S
O21 C18 1.252 . S
O22 In13 2.326 . S
O22 C18 1.260 . S
C23 O14 1.240 . S
C23 O15 1.252 . S
O24 In13 2.294 . S
O24 C17 1.240 . S
O25 In13 2.326 . S
O25 C17 1.252 . S
In26 O27 2.294 . S
In26 O28 2.326 . S
In26 O32 2.266 . S
In26 O33 2.326 . S
In26 O34 2.266 . S
In26 O35 2.326 . S
In26 O37 2.294 . S
In26 O38 2.326 . S
O27 In26 2.294 . S
O27 C36 1.240 . S
O28 In26 2.326 . S
O28 C36 1.252 . S
C29 O32 1.252 . S
C29 O33 1.260 . S
C30 O37 1.240 . S
C30 O38 1.252 . S
C31 O34 1.252 . S
C31 O35 1.260 . S
O32 In26 2.266 . S
O32 C29 1.252 . S
O33 In26 2.326 . S
O33 C29 1.260 . S
O34 In26 2.266 . S
O34 C31 1.252 . S
O35 In26 2.326 . S
O35 C31 1.260 . S
C36 O27 1.240 . S
C36 O28 1.252 . S
O37 In26 2.294 . S
O37 C30 1.240 . S
O38 In26 2.326 . S
O38 C30 1.252 . S
In39 O40 2.294 . S
In39 O41 2.326 . S
In39 O45 2.266 . S
In39 O46 2.326 . S
In39 O47 2.266 . S
In39 O48 2.326 . S
In39 O50 2.294 . S
In39 O51 2.326 . S
O40 In39 2.294 . S
O40 C49 1.240 . S
O41 In39 2.326 . S
O41 C49 1.252 . S
C42 O45 1.252 . S
C42 O46 1.260 . S
C43 O50 1.240 . S
C43 O51 1.252 . S
C44 O47 1.252 . S
C44 O48 1.260 . S
O45 In39 2.266 . S
O45 C42 1.252 . S
O46 In39 2.326 . S
O46 C42 1.260 . S
O47 In39 2.266 . S
O47 C44 1.252 . S
O48 In39 2.326 . S
O48 C44 1.260 . S
C49 O40 1.240 . S
C49 O41 1.252 . S
O50 In39 2.294 . S
O50 C43 1.240 . S
O51 In39 2.326 . S
O51 C43 1.252 . S
In52 O53 2.294 . S
In52 O54 2.326 . S
In52 O58 2.266 . S
In52 O59 2.326 . S
In52 O60 2.266 . S
In52 O61 2.326 . S
In52 O63 2.294 . S
In52 O64 2.326 . S
O53 In52 2.294 . S
O53 C62 1.240 . S
O54 In52 2.326 . S
O54 C62 1.252 . S
C55 O58 1.252 . S
C55 O59 1.260 . S
C56 O63 1.240 . S
C56 O64 1.252 . S
C57 O60 1.252 . S
C57 O61 1.260 . S
O58 In52 2.266 . S
O58 C55 1.252 . S
O59 In52 2.326 . S
O59 C55 1.260 . S
O60 In52 2.266 . S
O60 C57 1.252 . S
O61 In52 2.326 . S
O61 C57 1.260 . S
C62 O53 1.240 . S
C62 O54 1.252 . S
O63 In52 2.294 . S
O63 C56 1.240 . S
O64 In52 2.326 . S
O64 C56 1.252 . S
In65 O66 2.294 . S
In65 O67 2.326 . S
In65 O71 2.266 . S
In65 O72 2.326 . S
In65 O73 2.266 . S
In65 O74 2.326 . S
In65 O76 2.294 . S
In65 O77 2.326 . S
O66 In65 2.294 . S
O66 C75 1.240 . S
O67 In65 2.326 . S
O67 C75 1.252 . S
C68 O71 1.252 . S
C68 O72 1.260 . S
C69 O76 1.240 . S
C69 O77 1.252 . S
C70 O73 1.252 . S
C70 O74 1.260 . S
O71 In65 2.266 . S
O71 C68 1.252 . S
O72 In65 2.326 . S
O72 C68 1.260 . S
O73 In65 2.266 . S
O73 C70 1.252 . S
O74 In65 2.326 . S
O74 C70 1.260 . S
C75 O66 1.240 . S
C75 O67 1.252 . S
O76 In65 2.294 . S
O76 C69 1.240 . S
O77 In65 2.326 . S
O77 C69 1.252 . S
In78 O79 2.294 . S
In78 O80 2.326 . S
In78 O84 2.266 . S
In78 O85 2.326 . S
In78 O86 2.266 . S
In78 O87 2.326 . S
In78 O89 2.294 . S
In78 O90 2.326 . S
O79 In78 2.294 . S
O79 C88 1.240 . S
O80 In78 2.326 . S
O80 C88 1.252 . S
C81 O84 1.252 . S
C81 O85 1.260 . S
C82 O89 1.240 . S
C82 O90 1.252 . S
C83 O86 1.252 . S
C83 O87 1.260 . S
O84 In78 2.266 . S
O84 C81 1.252 . S
O85 In78 2.326 . S
O85 C81 1.260 . S
O86 In78 2.266 . S
O86 C83 1.252 . S
O87 In78 2.326 . S
O87 C83 1.260 . S
C88 O79 1.240 . S
C88 O80 1.252 . S
O89 In78 2.294 . S
O89 C82 1.240 . S
O90 In78 2.326 . S
O90 C82 1.252 . S
In91 O92 2.294 . S
In91 O93 2.326 . S
In91 O97 2.266 . S
In91 O98 2.326 . S
In91 O99 2.266 . S
In91 O100 2.326 . S
In91 O102 2.294 . S
In91 O103 2.326 . S
O92 In91 2.294 . S
O92 C101 1.240 . S
O93 In91 2.326 . S
O93 C101 1.252 . S
C94 O97 1.252 . S
C94 O98 1.260 . S
C95 O102 1.240 . S
C95 O103 1.252 . S
C96 O99 1.252 . S
C96 O100 1.260 . S
O97 In91 2.266 . S
O97 C94 1.252 . S
O98 In91 2.326 . S
O98 C94 1.260 . S
O99 In91 2.266 . S
O99 C96 1.252 . S
O100 In91 2.326 . S
O100 C96 1.260 . S
C101 O92 1.240 . S
C101 O93 1.252 . S
O102 In91 2.294 . S
O102 C95 1.240 . S
O103 In91 2.326 . S
O103 C95 1.252 . S
In104 O105 2.294 . S
In104 O106 2.326 . S
In104 O110 2.266 . S
In104 O111 2.326 . S
In104 O112 2.266 . S
In104 O113 2.326 . S
In104 O115 2.294 . S
In104 O116 2.326 . S
O105 In104 2.294 . S
O105 C114 1.240 . S
O106 In104 2.326 . S
O106 C114 1.252 . S
C107 O110 1.252 . S
C107 O111 1.260 . S
C108 O115 1.240 . S
C108 O116 1.252 . S
C109 O112 1.252 . S
C109 O113 1.260 . S
O110 In104 2.266 . S
O110 C107 1.252 . S
O111 In104 2.326 . S
O111 C107 1.260 . S
O112 In104 2.266 . S
O112 C109 1.252 . S
O113 In104 2.326 . S
O113 C109 1.260 . S
C114 O105 1.240 . S
C114 O106 1.252 . S
O115 In104 2.294 . S
O115 C108 1.240 . S
O116 In104 2.326 . S
O116 C108 1.252 . S
In117 O118 2.294 . S
In117 O119 2.326 . S
In117 O123 2.266 . S
In117 O124 2.326 . S
In117 O125 2.266 . S
In117 O126 2.326 . S
In117 O128 2.294 . S
In117 O129 2.326 . S
O118 In117 2.294 . S
O118 C127 1.240 . S
O119 In117 2.326 . S
O119 C127 1.252 . S
C120 O123 1.252 . S
C120 O124 1.260 . S
C121 O128 1.240 . S
C121 O129 1.252 . S
C122 O125 1.252 . S
C122 O126 1.260 . S
O123 In117 2.266 . S
O123 C120 1.252 . S
O124 In117 2.326 . S
O124 C120 1.260 . S
O125 In117 2.266 . S
O125 C122 1.252 . S
O126 In117 2.326 . S
O126 C122 1.260 . S
C127 O118 1.240 . S
C127 O119 1.252 . S
O128 In117 2.294 . S
O128 C121 1.240 . S
O129 In117 2.326 . S
O129 C121 1.252 . S
In130 O131 2.294 . S
In130 O132 2.326 . S
In130 O136 2.266 . S
In130 O137 2.326 . S
In130 O138 2.266 . S
In130 O139 2.326 . S
In130 O141 2.294 . S
In130 O142 2.326 . S
O131 In130 2.294 . S
O131 C140 1.240 . S
O132 In130 2.326 . S
O132 C140 1.252 . S
C133 O136 1.252 . S
C133 O137 1.260 . S
C134 O141 1.240 . S
C134 O142 1.252 . S
C135 O138 1.252 . S
C135 O139 1.260 . S
O136 In130 2.266 . S
O136 C133 1.252 . S
O137 In130 2.326 . S
O137 C133 1.260 . S
O138 In130 2.266 . S
O138 C135 1.252 . S
O139 In130 2.326 . S
O139 C135 1.260 . S
C140 O131 1.240 . S
C140 O132 1.252 . S
O141 In130 2.294 . S
O141 C134 1.240 . S
O142 In130 2.326 . S
O142 C134 1.252 . S
In143 O144 2.294 . S
In143 O145 2.326 . S
In143 O149 2.266 . S
In143 O150 2.326 . S
In143 O151 2.266 . S
In143 O152 2.326 . S
In143 O154 2.294 . S
In143 O155 2.326 . S
O144 In143 2.294 . S
O144 C153 1.240 . S
O145 In143 2.326 . S
O145 C153 1.252 . S
C146 O149 1.252 . S
C146 O150 1.260 . S
C147 O154 1.240 . S
C147 O155 1.252 . S
C148 O151 1.252 . S
C148 O152 1.260 . S
O149 In143 2.266 . S
O149 C146 1.252 . S
O150 In143 2.326 . S
O150 C146 1.260 . S
O151 In143 2.266 . S
O151 C148 1.252 . S
O152 In143 2.326 . S
O152 C148 1.260 . S
C153 O144 1.240 . S
C153 O145 1.252 . S
O154 In143 2.294 . S
O154 C147 1.240 . S
O155 In143 2.326 . S
O155 C147 1.252 . S
In156 O157 2.294 . S
In156 O158 2.326 . S
In156 O162 2.266 . S
In156 O163 2.326 . S
In156 O164 2.266 . S
In156 O165 2.326 . S
In156 O167 2.294 . S
In156 O168 2.326 . S
O157 In156 2.294 . S
O157 C166 1.240 . S
O158 In156 2.326 . S
O158 C166 1.252 . S
C159 O162 1.252 . S
C159 O163 1.260 . S
C160 O167 1.240 . S
C160 O168 1.252 . S
C161 O164 1.252 . S
C161 O165 1.260 . S
O162 In156 2.266 . S
O162 C159 1.252 . S
O163 In156 2.326 . S
O163 C159 1.260 . S
O164 In156 2.266 . S
O164 C161 1.252 . S
O165 In156 2.326 . S
O165 C161 1.260 . S
C166 O157 1.240 . S
C166 O158 1.252 . S
O167 In156 2.294 . S
O167 C160 1.240 . S
O168 In156 2.326 . S
O168 C160 1.252 . S
In169 O170 2.294 . S
In169 O171 2.326 . S
In169 O175 2.266 . S
In169 O176 2.326 . S
In169 O177 2.266 . S
In169 O178 2.326 . S
In169 O180 2.294 . S
In169 O181 2.326 . S
O170 In169 2.294 . S
O170 C179 1.240 . S
O171 In169 2.326 . S
O171 C179 1.252 . S
C172 O175 1.252 . S
C172 O176 1.260 . S
C173 O180 1.240 . S
C173 O181 1.252 . S
C174 O177 1.252 . S
C174 O178 1.260 . S
O175 In169 2.266 . S
O175 C172 1.252 . S
O176 In169 2.326 . S
O176 C172 1.260 . S
O177 In169 2.266 . S
O177 C174 1.252 . S
O178 In169 2.326 . S
O178 C174 1.260 . S
C179 O170 1.240 . S
C179 O171 1.252 . S
O180 In169 2.294 . S
O180 C173 1.240 . S
O181 In169 2.326 . S
O181 C173 1.252 . S
In182 O183 2.294 . S
In182 O184 2.326 . S
In182 O188 2.266 . S
In182 O189 2.326 . S
In182 O190 2.266 . S
In182 O191 2.326 . S
In182 O193 2.294 . S
In182 O194 2.326 . S
O183 In182 2.294 . S
O183 C192 1.240 . S
O184 In182 2.326 . S
O184 C192 1.252 . S
C185 O188 1.252 . S
C185 O189 1.260 . S
C186 O193 1.240 . S
C186 O194 1.252 . S
C187 O190 1.252 . S
C187 O191 1.260 . S
O188 In182 2.266 . S
O188 C185 1.252 . S
O189 In182 2.326 . S
O189 C185 1.260 . S
O190 In182 2.266 . S
O190 C187 1.252 . S
O191 In182 2.326 . S
O191 C187 1.260 . S
C192 O183 1.240 . S
C192 O184 1.252 . S
O193 In182 2.294 . S
O193 C186 1.240 . S
O194 In182 2.326 . S
O194 C186 1.252 . S
In195 O196 2.294 . S
In195 O197 2.326 . S
In195 O201 2.266 . S
In195 O202 2.326 . S
In195 O203 2.266 . S
In195 O204 2.326 . S
In195 O206 2.294 . S
In195 O207 2.326 . S
O196 In195 2.294 . S
O196 C205 1.240 . S
O197 In195 2.326 . S
O197 C205 1.252 . S
C198 O201 1.252 . S
C198 O202 1.260 . S
C199 O206 1.240 . S
C199 O207 1.252 . S
C200 O203 1.252 . S
C200 O204 1.260 . S
O201 In195 2.266 . S
O201 C198 1.252 . S
O202 In195 2.326 . S
O202 C198 1.260 . S
O203 In195 2.266 . S
O203 C200 1.252 . S
O204 In195 2.326 . S
O204 C200 1.260 . S
C205 O196 1.240 . S
C205 O197 1.252 . S
O206 In195 2.294 . S
O206 C199 1.240 . S
O207 In195 2.326 . S
O207 C199 1.252 . S
H208 C216 0.929 . S
H209 C218 0.930 . S
H210 C220 0.930 . S
H211 C223 0.929 1_556 S
H212 C226 0.930 . S
H213 C228 0.960 . S
H214 C228 0.960 . S
H215 C228 0.960 . S
C216 H208 0.929 . S
C216 C217 1.377 . S
C216 C218 1.384 . S
C217 C216 1.377 . S
C217 C223 1.390 . S
C218 H209 0.930 . S
C218 C216 1.384 . S
C218 C219 1.372 . S
C219 C218 1.372 . S
C219 C220 1.400 1_554 S
C219 C224 1.490 . S
C220 H210 0.930 . S
C220 C219 1.400 1_556 S
C220 C223 1.386 1_556 S
H221 C237 0.930 . S
H222 C238 0.931 . S
C223 H211 0.929 1_554 S
C223 C217 1.390 . S
C223 C220 1.386 1_554 S
C224 C219 1.490 . S
C224 C226 1.395 1_554 S
C224 C227 1.403 . S
H225 C231 0.930 . S
C226 H212 0.930 . S
C226 C224 1.395 1_556 S
C226 C229 1.403 . S
C227 C224 1.403 . S
C227 C228 1.524 . S
C227 C231 1.400 . S
C228 H213 0.960 . S
C228 H214 0.960 . S
C228 H215 0.960 . S
C228 C227 1.524 . S
C229 C226 1.403 . S
C229 C230 1.392 . S
C229 C233 1.495 . S
C230 C229 1.392 . S
C230 C231 1.385 1_556 S
C230 C232 1.478 . S
C231 H225 0.930 . S
C231 C227 1.400 . S
C231 C230 1.385 1_554 S
C232 C230 1.478 . S
C232 C234 1.381 1_556 S
C232 C238 1.383 . S
C233 C229 1.495 . S
C233 H239 0.959 . S
C233 H240 0.961 . S
C233 H241 0.960 . S
C234 C232 1.381 1_554 S
C234 C235 1.394 1_554 S
C234 H242 0.930 . S
C235 C234 1.394 1_556 S
C235 C236 1.383 . S
C235 H243 0.929 1_556 S
C236 C235 1.383 . S
C236 C237 1.377 . S
C237 H221 0.930 . S
C237 C236 1.377 . S
C237 C238 1.379 . S
C238 H222 0.931 . S
C238 C232 1.383 . S
C238 C237 1.379 . S
H239 C233 0.959 . S
H240 C233 0.961 . S
H241 C233 0.960 . S
H242 C234 0.930 . S
H243 C235 0.929 1_554 S
H244 C252 0.929 . S
H245 C254 0.930 . S
H246 C256 0.930 . S
H247 C259 0.929 . S
H248 C262 0.930 . S
H249 C264 0.960 . S
H250 C264 0.960 1_556 S
H251 C264 0.960 . S
C252 H244 0.929 . S
C252 C253 1.377 . S
C252 C254 1.384 . S
C253 C252 1.377 . S
C253 C259 1.390 1_556 S
C254 H245 0.930 . S
C254 C252 1.384 . S
C254 C255 1.372 . S
C255 C254 1.372 . S
C255 C256 1.400 1_556 S
C255 C260 1.490 . S
C256 H246 0.930 . S
C256 C255 1.400 1_554 S
C256 C259 1.386 . S
H257 C273 0.930 . S
H258 C274 0.931 . S
C259 H247 0.929 . S
C259 C253 1.390 1_554 S
C259 C256 1.386 . S
C260 C255 1.490 . S
C260 C262 1.395 . S
C260 C263 1.393 1_556 S
H261 C267 0.930 . S
C262 H248 0.930 . S
C262 C260 1.395 . S
C262 C265 1.403 . S
C263 C260 1.393 1_554 S
C263 C264 1.527 . S
C263 C267 1.407 . S
C264 H249 0.960 . S
C264 H250 0.960 1_554 S
C264 H251 0.960 . S
C264 C263 1.527 . S
C265 C262 1.403 . S
C265 C266 1.392 1_556 S
C265 C269 1.495 . S
C266 C265 1.392 1_554 S
C266 C267 1.385 . S
C266 C268 1.478 . S
C267 H261 0.930 . S
C267 C263 1.407 . S
C267 C266 1.385 . S
C268 C266 1.478 . S
C268 C270 1.381 1_554 S
C268 C274 1.383 . S
C269 C265 1.495 . S
C269 H275 0.959 . S
C269 H276 0.961 1_556 S
C269 H277 0.960 . S
C270 C268 1.381 1_556 S
C270 C271 1.394 . S
C270 H278 0.930 . S
C271 C270 1.394 . S
C271 C272 1.383 1_556 S
C271 H279 0.929 . S
C272 C271 1.383 1_554 S
C272 C273 1.377 . S
C273 H257 0.930 . S
C273 C272 1.377 . S
C273 C274 1.379 . S
C274 H258 0.931 . S
C274 C268 1.383 . S
C274 C273 1.379 . S
H275 C269 0.959 . S
H276 C269 0.961 1_554 S
H277 C269 0.960 . S
H278 C270 0.930 . S
H279 C271 0.929 . S
H280 C288 0.929 . S
H281 C290 0.930 . S
H282 C292 0.930 . S
H283 C295 0.928 . S
H284 C298 0.930 . S
H285 C300 0.960 . S
H286 C300 0.960 . S
H287 C300 0.960 1_554 S
C288 H280 0.929 . S
C288 C289 1.377 . S
C288 C290 1.384 . S
C289 C288 1.377 . S
C289 C295 1.391 1_556 S
C290 H281 0.930 . S
C290 C288 1.384 . S
C290 C291 1.372 . S
C291 C290 1.372 . S
C291 C292 1.400 1_556 S
C291 C296 1.490 . S
C292 H282 0.930 . S
C292 C291 1.400 1_554 S
C292 C295 1.385 . S
H293 C309 0.930 . S
H294 C310 0.931 . S
C295 H283 0.928 . S
C295 C289 1.391 1_554 S
C295 C292 1.385 . S
C296 C291 1.490 . S
C296 C298 1.395 . S
C296 C299 1.403 . S
H297 C303 0.930 . S
C298 H284 0.930 . S
C298 C296 1.395 . S
C298 C301 1.403 1_556 S
C299 C296 1.403 . S
C299 C300 1.524 . S
C299 C303 1.400 1_556 S
C300 H285 0.960 . S
C300 H286 0.960 . S
C300 H287 0.960 1_556 S
C300 C299 1.524 . S
C301 C298 1.403 1_554 S
C301 C302 1.392 . S
C301 C305 1.495 . S
C302 C301 1.392 . S
C302 C303 1.385 . S
C302 C304 1.478 . S
C303 H297 0.930 . S
C303 C299 1.400 1_554 S
C303 C302 1.385 . S
C304 C302 1.478 . S
C304 C306 1.381 1_554 S
C304 C310 1.383 . S
C305 C301 1.495 . S
C305 H311 0.959 . S
C305 H312 0.961 . S
C305 H313 0.960 1_554 S
C306 C304 1.381 1_556 S
C306 C307 1.394 . S
C306 H314 0.930 . S
C307 C306 1.394 . S
C307 C308 1.383 1_556 S
C307 H315 0.929 . S
C308 C307 1.383 1_554 S
C308 C309 1.377 . S
C309 H293 0.930 . S
C309 C308 1.377 . S
C309 C310 1.379 . S
C310 H294 0.931 . S
C310 C304 1.383 . S
C310 C309 1.379 . S
H311 C305 0.959 . S
H312 C305 0.961 . S
H313 C305 0.960 1_556 S
H314 C306 0.930 . S
H315 C307 0.929 . S
H316 C324 0.929 . S
H317 C326 0.930 . S
H318 C328 0.930 . S
H319 C331 0.921 1_554 S
H320 C334 0.930 . S
H321 C336 0.960 . S
H322 C336 0.960 . S
H323 C336 0.960 1_554 S
C324 H316 0.929 . S
C324 C325 1.377 . S
C324 C326 1.384 . S
C325 C324 1.377 . S
C325 C331 1.401 . S
C326 H317 0.930 . S
C326 C324 1.384 . S
C326 C327 1.372 . S
C327 C326 1.372 . S
C327 C328 1.400 1_556 S
C327 C332 1.490 . S
C328 H318 0.930 . S
C328 C327 1.400 1_554 S
C328 C331 1.383 1_554 S
H329 C345 0.930 . S
H330 C346 0.931 . S
C331 H319 0.921 1_556 S
C331 C325 1.401 . S
C331 C328 1.383 1_556 S
C332 C327 1.490 . S
C332 C334 1.395 . S
C332 C335 1.403 . S
H333 C339 0.930 . S
C334 H320 0.930 . S
C334 C332 1.395 . S
C334 C337 1.403 1_556 S
C335 C332 1.403 . S
C335 C336 1.524 . S
C335 C339 1.400 1_556 S
C336 H321 0.960 . S
C336 H322 0.960 . S
C336 H323 0.960 1_556 S
C336 C335 1.524 . S
C337 C334 1.403 1_554 S
C337 C338 1.392 . S
C337 C341 1.495 . S
C338 C337 1.392 . S
C338 C339 1.385 . S
C338 C340 1.478 . S
C339 H333 0.930 . S
C339 C335 1.400 1_554 S
C339 C338 1.385 . S
C340 C338 1.478 . S
C340 C342 1.381 1_554 S
C340 C346 1.383 . S
C341 C337 1.495 . S
C341 H347 0.959 . S
C341 H348 0.961 . S
C341 H349 0.960 1_554 S
C342 C340 1.381 1_556 S
C342 C343 1.394 . S
C342 H350 0.930 . S
C343 C342 1.394 . S
C343 C344 1.383 1_556 S
C343 H351 0.929 . S
C344 C343 1.383 1_554 S
C344 C345 1.377 . S
C345 H329 0.930 . S
C345 C344 1.377 . S
C345 C346 1.379 . S
C346 H330 0.931 . S
C346 C340 1.383 . S
C346 C345 1.379 . S
H347 C341 0.959 . S
H348 C341 0.961 . S
H349 C341 0.960 1_556 S
H350 C342 0.930 . S
H351 C343 0.929 . S
H352 C360 0.929 . S
H353 C362 0.930 . S
H354 C364 0.930 . S
H355 C367 0.929 . S
H356 C370 0.930 . S
H357 C372 0.960 . S
H358 C372 0.960 . S
H359 C372 0.960 . S
C360 H352 0.929 . S
C360 C361 1.377 . S
C360 C362 1.384 . S
C361 C360 1.377 . S
C361 C367 1.390 . S
C362 H353 0.930 . S
C362 C360 1.384 . S
C362 C363 1.372 . S
C363 C362 1.372 . S
C363 C364 1.400 . S
C363 C368 1.490 . S
C364 H354 0.930 . S
C364 C363 1.400 . S
C364 C367 1.386 . S
H365 C381 0.930 . S
H366 C382 0.931 . S
C367 H355 0.929 . S
C367 C361 1.390 . S
C367 C364 1.386 . S
C368 C363 1.490 . S
C368 C370 1.395 . S
C368 C371 1.403 . S
H369 C375 0.930 . S
C370 H356 0.930 . S
C370 C368 1.395 . S
C370 C373 1.403 . S
C371 C368 1.403 . S
C371 C372 1.524 . S
C371 C375 1.400 . S
C372 H357 0.960 . S
C372 H358 0.960 . S
C372 H359 0.960 . S
C372 C371 1.524 . S
C373 C370 1.403 . S
C373 C374 1.392 . S
C373 C377 1.495 . S
C374 C373 1.392 . S
C374 C375 1.385 . S
C374 C376 1.478 . S
C375 H369 0.930 . S
C375 C371 1.400 . S
C375 C374 1.385 . S
C376 C374 1.478 . S
C376 C378 1.381 . S
C376 C382 1.383 . S
C377 C373 1.495 . S
C377 H383 0.959 . S
C377 H384 0.961 . S
C377 H385 0.960 . S
C378 C376 1.381 . S
C378 C379 1.394 . S
C378 H386 0.930 . S
C379 C378 1.394 . S
C379 C380 1.383 . S
C379 H387 0.929 . S
C380 C379 1.383 . S
C380 C381 1.377 . S
C381 H365 0.930 . S
C381 C380 1.377 . S
C381 C382 1.379 . S
C382 H366 0.931 . S
C382 C376 1.383 . S
C382 C381 1.379 . S
H383 C377 0.959 . S
H384 C377 0.961 . S
H385 C377 0.960 . S
H386 C378 0.930 . S
H387 C379 0.929 . S
H388 C396 0.929 . S
H389 C398 0.930 . S
H390 C400 0.930 . S
H391 C403 0.929 . S
H392 C406 0.930 . S
H393 C408 0.960 . S
H394 C408 0.960 . S
H395 C408 0.960 . S
C396 H388 0.929 . S
C396 C397 1.377 . S
C396 C398 1.384 . S
C397 C396 1.377 . S
C397 C403 1.390 . S
C398 H389 0.930 . S
C398 C396 1.384 . S
C398 C399 1.372 . S
C399 C398 1.372 . S
C399 C400 1.400 . S
C399 C404 1.490 . S
C400 H390 0.930 . S
C400 C399 1.400 . S
C400 C403 1.386 . S
H401 C417 0.930 . S
H402 C418 0.931 . S
C403 H391 0.929 . S
C403 C397 1.390 . S
C403 C400 1.386 . S
C404 C399 1.490 . S
C404 C406 1.395 . S
C404 C407 1.403 . S
H405 C411 0.930 . S
C406 H392 0.930 . S
C406 C404 1.395 . S
C406 C409 1.403 . S
C407 C404 1.403 . S
C407 C408 1.524 . S
C407 C411 1.400 . S
C408 H393 0.960 . S
C408 H394 0.960 . S
C408 H395 0.960 . S
C408 C407 1.524 . S
C409 C406 1.403 . S
C409 C410 1.392 . S
C409 C413 1.495 . S
C410 C409 1.392 . S
C410 C411 1.385 . S
C410 C412 1.478 . S
C411 H405 0.930 . S
C411 C407 1.400 . S
C411 C410 1.385 . S
C412 C410 1.478 . S
C412 C414 1.381 . S
C412 C418 1.383 . S
C413 C409 1.495 . S
C413 H419 0.959 . S
C413 H420 0.961 . S
C413 H421 0.960 . S
C414 C412 1.381 . S
C414 C415 1.394 . S
C414 H422 0.930 . S
C415 C414 1.394 . S
C415 C416 1.383 . S
C415 H423 0.929 . S
C416 C415 1.383 . S
C416 C417 1.377 . S
C417 H401 0.930 . S
C417 C416 1.377 . S
C417 C418 1.379 . S
C418 H402 0.931 . S
C418 C412 1.383 . S
C418 C417 1.379 . S
H419 C413 0.959 . S
H420 C413 0.961 . S
H421 C413 0.960 . S
H422 C414 0.930 . S
H423 C415 0.929 . S
H424 C432 0.929 . S
H425 C434 0.930 . S
H426 C436 0.930 . S
H427 C439 0.929 . S
H428 C442 0.930 . S
H429 C444 0.960 . S
H430 C444 0.960 . S
H431 C444 0.960 . S
C432 H424 0.929 . S
C432 C433 1.377 . S
C432 C434 1.384 . S
C433 C432 1.377 . S
C433 C439 1.390 . S
C434 H425 0.930 . S
C434 C432 1.384 . S
C434 C435 1.372 . S
C435 C434 1.372 . S
C435 C436 1.400 . S
C435 C440 1.490 . S
C436 H426 0.930 . S
C436 C435 1.400 . S
C436 C439 1.386 . S
H437 C453 0.930 . S
H438 C454 0.931 . S
C439 H427 0.929 . S
C439 C433 1.390 . S
C439 C436 1.386 . S
C440 C435 1.490 . S
C440 C442 1.395 . S
C440 C443 1.403 . S
H441 C447 0.930 . S
C442 H428 0.930 . S
C442 C440 1.395 . S
C442 C445 1.403 . S
C443 C440 1.403 . S
C443 C444 1.524 . S
C443 C447 1.400 . S
C444 H429 0.960 . S
C444 H430 0.960 . S
C444 H431 0.960 . S
C444 C443 1.524 . S
C445 C442 1.403 . S
C445 C446 1.392 . S
C445 C449 1.495 . S
C446 C445 1.392 . S
C446 C447 1.385 . S
C446 C448 1.478 . S
C447 H441 0.930 . S
C447 C443 1.400 . S
C447 C446 1.385 . S
C448 C446 1.478 . S
C448 C450 1.381 . S
C448 C454 1.383 . S
C449 C445 1.495 . S
C449 H455 0.959 . S
C449 H456 0.961 . S
C449 H457 0.960 . S
C450 C448 1.381 . S
C450 C451 1.394 . S
C450 H458 0.930 . S
C451 C450 1.394 . S
C451 C452 1.383 . S
C451 H459 0.929 . S
C452 C451 1.383 . S
C452 C453 1.377 . S
C453 H437 0.930 . S
C453 C452 1.377 . S
C453 C454 1.379 . S
C454 H438 0.931 . S
C454 C448 1.383 . S
C454 C453 1.379 . S
H455 C449 0.959 . S
H456 C449 0.961 . S
H457 C449 0.960 . S
H458 C450 0.930 . S
H459 C451 0.929 . S
H460 C468 0.929 . S
H461 C470 0.930 . S
H462 C472 0.930 . S
H463 C475 0.929 . S
H464 C478 0.930 . S
H465 C480 0.960 . S
H466 C480 0.960 . S
H467 C480 0.960 . S
C468 H460 0.929 . S
C468 C469 1.377 . S
C468 C470 1.384 . S
C469 C468 1.377 . S
C469 C475 1.390 . S
C470 H461 0.930 . S
C470 C468 1.384 . S
C470 C471 1.372 . S
C471 C470 1.372 . S
C471 C472 1.400 . S
C471 C476 1.490 . S
C472 H462 0.930 . S
C472 C471 1.400 . S
C472 C475 1.386 . S
H473 C489 0.930 . S
H474 C490 0.931 . S
C475 H463 0.929 . S
C475 C469 1.390 . S
C475 C472 1.386 . S
C476 C471 1.490 . S
C476 C478 1.395 . S
C476 C479 1.403 . S
H477 C483 0.930 . S
C478 H464 0.930 . S
C478 C476 1.395 . S
C478 C481 1.403 . S
C479 C476 1.403 . S
C479 C480 1.524 . S
C479 C483 1.400 . S
C480 H465 0.960 . S
C480 H466 0.960 . S
C480 H467 0.960 . S
C480 C479 1.524 . S
C481 C478 1.403 . S
C481 C482 1.392 . S
C481 C485 1.495 . S
C482 C481 1.392 . S
C482 C483 1.385 . S
C482 C484 1.478 . S
C483 H477 0.930 . S
C483 C479 1.400 . S
C483 C482 1.385 . S
C484 C482 1.478 . S
C484 C486 1.381 . S
C484 C490 1.383 . S
C485 C481 1.495 . S
C485 H491 0.959 . S
C485 H492 0.961 . S
C485 H493 0.960 . S
C486 C484 1.381 . S
C486 C487 1.394 . S
C486 H494 0.930 . S
C487 C486 1.394 . S
C487 C488 1.383 . S
C487 H495 0.929 . S
C488 C487 1.383 . S
C488 C489 1.377 . S
C489 H473 0.930 . S
C489 C488 1.377 . S
C489 C490 1.379 . S
C490 H474 0.931 . S
C490 C484 1.383 . S
C490 C489 1.379 . S
H491 C485 0.959 . S
H492 C485 0.961 . S
H493 C485 0.960 . S
H494 C486 0.930 . S
H495 C487 0.929 . S
H496 C504 0.929 . S
H497 C506 0.930 . S
H498 C508 0.930 . S
H499 C511 0.938 . S
H500 C514 0.930 . S
H501 C516 0.960 . S
H502 C516 0.960 . S
H503 C516 0.960 1_554 S
C504 H496 0.929 . S
C504 C505 1.377 . S
C504 C506 1.384 . S
C505 C504 1.377 . S
C505 C511 1.378 1_556 S
C506 H497 0.930 . S
C506 C504 1.384 . S
C506 C507 1.372 . S
C507 C506 1.372 . S
C507 C508 1.400 1_556 S
C507 C512 1.490 . S
C508 H498 0.930 . S
C508 C507 1.400 1_554 S
C508 C511 1.388 . S
H509 C525 0.930 . S
H510 C526 0.931 . S
C511 H499 0.938 . S
C511 C505 1.378 1_554 S
C511 C508 1.388 . S
C512 C507 1.490 . S
C512 C514 1.395 . S
C512 C515 1.403 . S
H513 C519 0.930 . S
C514 H500 0.930 . S
C514 C512 1.395 . S
C514 C517 1.403 1_556 S
C515 C512 1.403 . S
C515 C516 1.524 . S
C515 C519 1.400 1_556 S
C516 H501 0.960 . S
C516 H502 0.960 . S
C516 H503 0.960 1_556 S
C516 C515 1.524 . S
C517 C514 1.403 1_554 S
C517 C518 1.392 . S
C517 C521 1.495 . S
C518 C517 1.392 . S
C518 C519 1.385 . S
C518 C520 1.478 . S
C519 H513 0.930 . S
C519 C515 1.400 1_554 S
C519 C518 1.385 . S
C520 C518 1.478 . S
C520 C522 1.381 1_554 S
C520 C526 1.383 . S
C521 C517 1.495 . S
C521 H527 0.959 . S
C521 H528 0.961 . S
C521 H529 0.960 1_554 S
C522 C520 1.381 1_556 S
C522 C523 1.394 . S
C522 H530 0.930 . S
C523 C522 1.394 . S
C523 C524 1.383 1_556 S
C523 H531 0.929 . S
C524 C523 1.383 1_554 S
C524 C525 1.377 . S
C525 H509 0.930 . S
C525 C524 1.377 . S
C525 C526 1.379 . S
C526 H510 0.931 . S
C526 C520 1.383 . S
C526 C525 1.379 . S
H527 C521 0.959 . S
H528 C521 0.961 . S
H529 C521 0.960 1_556 S
H530 C522 0.930 . S
H531 C523 0.929 . S
H532 C540 0.929 . S
H533 C542 0.930 . S
H534 C544 0.930 . S
H535 C547 0.922 1_554 S
H536 C550 0.930 . S
H537 C552 0.960 . S
H538 C552 0.960 . S
H539 C552 0.960 . S
C540 H532 0.929 . S
C540 C541 1.377 . S
C540 C542 1.384 . S
C541 C540 1.377 . S
C541 C547 1.400 . S
C542 H533 0.930 . S
C542 C540 1.384 . S
C542 C543 1.372 . S
C543 C542 1.372 . S
C543 C544 1.400 1_556 S
C543 C548 1.490 . S
C544 H534 0.930 . S
C544 C543 1.400 1_554 S
C544 C547 1.383 1_554 S
H545 C561 0.930 . S
H546 C562 0.931 . S
C547 H535 0.922 1_556 S
C547 C541 1.400 . S
C547 C544 1.383 1_556 S
C548 C543 1.490 . S
C548 C550 1.395 . S
C548 C551 1.403 1_556 S
H549 C555 0.930 . S
C550 H536 0.930 . S
C550 C548 1.395 . S
C550 C553 1.403 . S
C551 C548 1.403 1_554 S
C551 C552 1.524 . S
C551 C555 1.400 . S
C552 H537 0.960 . S
C552 H538 0.960 . S
C552 H539 0.960 . S
C552 C551 1.524 . S
C553 C550 1.403 . S
C553 C554 1.368 1_556 S
C553 C557 1.495 . S
C554 C553 1.368 1_554 S
C554 C555 1.405 . S
C554 C556 1.483 . S
C555 H549 0.930 . S
C555 C551 1.400 . S
C555 C554 1.405 . S
C556 C554 1.483 . S
C556 C558 1.381 1_554 S
C556 C562 1.383 . S
C557 C553 1.495 . S
C557 H563 0.959 . S
C557 H564 0.961 . S
C557 H565 0.960 . S
C558 C556 1.381 1_556 S
C558 C559 1.392 1_556 S
C558 H566 0.930 . S
C559 C558 1.392 1_554 S
C559 C560 1.391 . S
C559 H567 0.924 1_554 S
C560 C559 1.391 . S
C560 C561 1.377 . S
C561 H545 0.930 . S
C561 C560 1.377 . S
C561 C562 1.379 . S
C562 H546 0.931 . S
C562 C556 1.383 . S
C562 C561 1.379 . S
H563 C557 0.959 . S
H564 C557 0.961 . S
H565 C557 0.960 . S
H566 C558 0.930 . S
H567 C559 0.924 1_556 S
H568 C576 0.929 . S
H569 C578 0.930 . S
H570 C580 0.930 . S
H571 C583 0.929 . S
H572 C586 0.930 . S
H573 C588 0.960 . S
H574 C588 0.960 . S
H575 C588 0.960 . S
C576 H568 0.929 . S
C576 C577 1.377 . S
C576 C578 1.384 . S
C577 C576 1.377 . S
C577 C583 1.390 . S
C578 H569 0.930 . S
C578 C576 1.384 . S
C578 C579 1.372 . S
C579 C578 1.372 . S
C579 C580 1.400 . S
C579 C584 1.490 . S
C580 H570 0.930 . S
C580 C579 1.400 . S
C580 C583 1.386 . S
H581 C597 0.930 . S
H582 C598 0.931 . S
C583 H571 0.929 . S
C583 C577 1.390 . S
C583 C580 1.386 . S
C584 C579 1.490 . S
C584 C586 1.395 1_556 S
C584 C587 1.403 . S
H585 C591 0.930 . S
C586 H572 0.930 . S
C586 C584 1.395 1_554 S
C586 C589 1.403 . S
C587 C584 1.403 . S
C587 C588 1.524 . S
C587 C591 1.400 . S
C588 H573 0.960 . S
C588 H574 0.960 . S
C588 H575 0.960 . S
C588 C587 1.524 . S
C589 C586 1.403 . S
C589 C590 1.392 . S
C589 C593 1.495 . S
C590 C589 1.392 . S
C590 C591 1.385 1_554 S
C590 C592 1.478 . S
C591 H585 0.930 . S
C591 C587 1.400 . S
C591 C590 1.385 1_556 S
C592 C590 1.478 . S
C592 C594 1.381 . S
C592 C598 1.383 . S
C593 C589 1.495 . S
C593 H599 0.959 . S
C593 H600 0.961 . S
C593 H601 0.960 . S
C594 C592 1.381 . S
C594 C595 1.394 . S
C594 H602 0.930 . S
C595 C594 1.394 . S
C595 C596 1.383 . S
C595 H603 0.929 . S
C596 C595 1.383 . S
C596 C597 1.377 . S
C597 H581 0.930 . S
C597 C596 1.377 . S
C597 C598 1.379 . S
C598 H582 0.931 . S
C598 C592 1.383 . S
C598 C597 1.379 . S
H599 C593 0.959 . S
H600 C593 0.961 . S
H601 C593 0.960 . S
H602 C594 0.930 . S
H603 C595 0.929 . S
H604 C612 0.929 . S
H605 C614 0.930 . S
H606 C616 0.930 . S
H607 C619 0.929 . S
H608 C622 0.930 . S
H609 C624 0.960 . S
H610 C624 0.960 . S
H611 C624 0.960 . S
C612 H604 0.929 . S
C612 C613 1.377 1_556 S
C612 C614 1.384 . S
C613 C612 1.377 1_554 S
C613 C619 1.390 . S
C614 H605 0.930 . S
C614 C612 1.384 . S
C614 C615 1.372 1_556 S
C615 C614 1.372 1_554 S
C615 C616 1.400 . S
C615 C620 1.490 . S
C616 H606 0.930 . S
C616 C615 1.400 . S
C616 C619 1.386 . S
H617 C633 0.956 . S
H618 C634 0.931 . S
C619 H607 0.929 . S
C619 C613 1.390 . S
C619 C616 1.386 . S
C620 C615 1.490 . S
C620 C622 1.395 1_554 S
C620 C623 1.403 . S
H621 C627 0.930 . S
C622 H608 0.930 . S
C622 C620 1.395 1_556 S
C622 C625 1.403 . S
C623 C620 1.403 . S
C623 C624 1.524 . S
C623 C627 1.400 . S
C624 H609 0.960 . S
C624 H610 0.960 . S
C624 H611 0.960 . S
C624 C623 1.524 . S
C625 C622 1.403 . S
C625 C626 1.392 . S
C625 C629 1.495 . S
C626 C625 1.392 . S
C626 C627 1.385 1_556 S
C626 C628 1.478 . S
C627 H621 0.930 . S
C627 C623 1.400 . S
C627 C626 1.385 1_554 S
C628 C626 1.478 . S
C628 C630 1.381 . S
C628 C634 1.383 1_556 S
C629 C625 1.495 . S
C629 H635 0.959 . S
C629 H636 0.961 . S
C629 H637 0.960 . S
C630 C628 1.381 . S
C630 C631 1.394 . S
C630 H638 0.930 . S
C631 C630 1.394 . S
C631 C632 1.383 . S
C631 H639 0.929 . S
C632 C631 1.383 . S
C632 C633 1.346 1_556 S
C633 H617 0.956 . S
C633 C632 1.346 1_554 S
C633 C634 1.385 . S
C634 H618 0.931 . S
C634 C628 1.383 1_554 S
C634 C633 1.385 . S
H635 C629 0.959 . S
H636 C629 0.961 . S
H637 C629 0.960 . S
H638 C630 0.930 . S
H639 C631 0.929 . S
H640 C648 0.929 . S
H641 C650 0.930 . S
H642 C652 0.930 . S
H643 C655 0.929 . S
H644 C658 0.930 . S
H645 C660 0.960 . S
H646 C660 0.960 . S
H647 C660 0.960 . S
C648 H640 0.929 . S
C648 C649 1.377 . S
C648 C650 1.384 . S
C649 C648 1.377 . S
C649 C655 1.390 . S
C650 H641 0.930 . S
C650 C648 1.384 . S
C650 C651 1.372 . S
C651 C650 1.372 . S
C651 C652 1.400 . S
C651 C656 1.490 . S
C652 H642 0.930 . S
C652 C651 1.400 . S
C652 C655 1.386 . S
H653 C669 0.930 . S
H654 C670 0.931 . S
C655 H643 0.929 . S
C655 C649 1.390 . S
C655 C652 1.386 . S
C656 C651 1.490 . S
C656 C658 1.395 . S
C656 C659 1.403 . S
H657 C663 0.930 . S
C658 H644 0.930 . S
C658 C656 1.395 . S
C658 C661 1.403 . S
C659 C656 1.403 . S
C659 C660 1.524 . S
C659 C663 1.400 . S
C660 H645 0.960 . S
C660 H646 0.960 . S
C660 H647 0.960 . S
C660 C659 1.524 . S
C661 C658 1.403 . S
C661 C662 1.392 . S
C661 C665 1.495 . S
C662 C661 1.392 . S
C662 C663 1.385 . S
C662 C664 1.478 . S
C663 H657 0.930 . S
C663 C659 1.400 . S
C663 C662 1.385 . S
C664 C662 1.478 . S
C664 C666 1.381 . S
C664 C670 1.383 . S
C665 C661 1.495 . S
C665 H671 0.959 . S
C665 H672 0.961 . S
C665 H673 0.960 . S
C666 C664 1.381 . S
C666 C667 1.394 . S
C666 H674 0.930 . S
C667 C666 1.394 . S
C667 C668 1.383 . S
C667 H675 0.929 . S
C668 C667 1.383 . S
C668 C669 1.377 . S
C669 H653 0.930 . S
C669 C668 1.377 . S
C669 C670 1.379 . S
C670 H654 0.931 . S
C670 C664 1.383 . S
C670 C669 1.379 . S
H671 C665 0.959 . S
H672 C665 0.961 . S
H673 C665 0.960 . S
H674 C666 0.930 . S
H675 C667 0.929 . S
H676 C684 0.929 . S
H677 C686 0.930 . S
H678 C688 0.930 . S
H679 C691 0.929 . S
H680 C694 0.930 . S
H681 C696 0.960 . S
H682 C696 0.960 . S
H683 C696 0.960 . S
C684 H676 0.929 . S
C684 C685 1.377 . S
C684 C686 1.384 . S
C685 C684 1.377 . S
C685 C691 1.390 . S
C686 H677 0.930 . S
C686 C684 1.384 . S
C686 C687 1.372 . S
C687 C686 1.372 . S
C687 C688 1.400 . S
C687 C692 1.490 . S
C688 H678 0.930 . S
C688 C687 1.400 . S
C688 C691 1.386 . S
H689 C705 0.930 . S
H690 C706 0.931 . S
C691 H679 0.929 . S
C691 C685 1.390 . S
C691 C688 1.386 . S
C692 C687 1.490 . S
C692 C694 1.395 . S
C692 C695 1.403 . S
H693 C699 0.930 . S
C694 H680 0.930 . S
C694 C692 1.395 . S
C694 C697 1.403 . S
C695 C692 1.403 . S
C695 C696 1.524 . S
C695 C699 1.400 . S
C696 H681 0.960 . S
C696 H682 0.960 . S
C696 H683 0.960 . S
C696 C695 1.524 . S
C697 C694 1.403 . S
C697 C698 1.392 . S
C697 C701 1.495 . S
C698 C697 1.392 . S
C698 C699 1.385 . S
C698 C700 1.478 . S
C699 H693 0.930 . S
C699 C695 1.400 . S
C699 C698 1.385 . S
C700 C698 1.478 . S
C700 C702 1.381 . S
C700 C706 1.383 . S
C701 C697 1.495 . S
C701 H707 0.959 . S
C701 H708 0.961 . S
C701 H709 0.960 . S
C702 C700 1.381 . S
C702 C703 1.394 . S
C702 H710 0.930 . S
C703 C702 1.394 . S
C703 C704 1.383 . S
C703 H711 0.929 . S
C704 C703 1.383 . S
C704 C705 1.377 . S
C705 H689 0.930 . S
C705 C704 1.377 . S
C705 C706 1.379 . S
C706 H690 0.931 . S
C706 C700 1.383 . S
C706 C705 1.379 . S
H707 C701 0.959 . S
H708 C701 0.961 . S
H709 C701 0.960 . S
H710 C702 0.930 . S
H711 C703 0.929 . S
H712 C720 0.929 . S
H713 C722 0.930 . S
H714 C724 0.930 . S
H715 C727 0.929 . S
H716 C730 0.930 . S
H717 C732 0.960 . S
H718 C732 0.960 . S
H719 C732 0.960 . S
C720 H712 0.929 . S
C720 C721 1.377 . S
C720 C722 1.384 . S
C721 C720 1.377 . S
C721 C727 1.390 . S
C722 H713 0.930 . S
C722 C720 1.384 . S
C722 C723 1.372 . S
C723 C722 1.372 . S
C723 C724 1.400 . S
C723 C728 1.490 . S
C724 H714 0.930 . S
C724 C723 1.400 . S
C724 C727 1.386 . S
H725 C741 0.930 . S
H726 C742 0.931 . S
C727 H715 0.929 . S
C727 C721 1.390 . S
C727 C724 1.386 . S
C728 C723 1.490 . S
C728 C730 1.395 . S
C728 C731 1.403 . S
H729 C735 0.930 . S
C730 H716 0.930 . S
C730 C728 1.395 . S
C730 C733 1.403 . S
C731 C728 1.403 . S
C731 C732 1.524 . S
C731 C735 1.400 . S
C732 H717 0.960 . S
C732 H718 0.960 . S
C732 H719 0.960 . S
C732 C731 1.524 . S
C733 C730 1.403 . S
C733 C734 1.392 . S
C733 C737 1.495 . S
C734 C733 1.392 . S
C734 C735 1.385 . S
C734 C736 1.478 . S
C735 H729 0.930 . S
C735 C731 1.400 . S
C735 C734 1.385 . S
C736 C734 1.478 . S
C736 C738 1.381 . S
C736 C742 1.383 . S
C737 C733 1.495 . S
C737 H743 0.959 . S
C737 H744 0.961 . S
C737 H745 0.960 . S
C738 C736 1.381 . S
C738 C739 1.394 . S
C738 H746 0.930 . S
C739 C738 1.394 . S
C739 C740 1.383 . S
C739 H747 0.929 . S
C740 C739 1.383 . S
C740 C741 1.377 . S
C741 H725 0.930 . S
C741 C740 1.377 . S
C741 C742 1.379 . S
C742 H726 0.931 . S
C742 C736 1.383 . S
C742 C741 1.379 . S
H743 C737 0.959 . S
H744 C737 0.961 . S
H745 C737 0.960 . S
H746 C738 0.930 . S
H747 C739 0.929 . S
H748 C756 0.929 . S
H749 C758 0.930 . S
H750 C760 0.930 . S
H751 C763 0.929 . S
H752 C766 0.930 . S
H753 C768 0.960 . S
H754 C768 0.960 . S
H755 C768 0.960 . S
C756 H748 0.929 . S
C756 C757 1.377 . S
C756 C758 1.384 . S
C757 C756 1.377 . S
C757 C763 1.390 . S
C758 H749 0.930 . S
C758 C756 1.384 . S
C758 C759 1.372 . S
C759 C758 1.372 . S
C759 C760 1.400 . S
C759 C764 1.490 . S
C760 H750 0.930 . S
C760 C759 1.400 . S
C760 C763 1.386 . S
H761 C777 0.930 . S
H762 C778 0.931 . S
C763 H751 0.929 . S
C763 C757 1.390 . S
C763 C760 1.386 . S
C764 C759 1.490 . S
C764 C766 1.395 . S
C764 C767 1.403 . S
H765 C771 0.930 . S
C766 H752 0.930 . S
C766 C764 1.395 . S
C766 C769 1.403 . S
C767 C764 1.403 . S
C767 C768 1.524 . S
C767 C771 1.400 . S
C768 H753 0.960 . S
C768 H754 0.960 . S
C768 H755 0.960 . S
C768 C767 1.524 . S
C769 C766 1.403 . S
C769 C770 1.392 . S
C769 C773 1.495 . S
C770 C769 1.392 . S
C770 C771 1.385 . S
C770 C772 1.478 . S
C771 H765 0.930 . S
C771 C767 1.400 . S
C771 C770 1.385 . S
C772 C770 1.478 . S
C772 C774 1.381 . S
C772 C778 1.383 . S
C773 C769 1.495 . S
C773 H779 0.959 . S
C773 H780 0.961 . S
C773 H781 0.960 . S
C774 C772 1.381 . S
C774 C775 1.394 . S
C774 H782 0.930 . S
C775 C774 1.394 . S
C775 C776 1.383 . S
C775 H783 0.929 . S
C776 C775 1.383 . S
C776 C777 1.377 . S
C777 H761 0.930 . S
C777 C776 1.377 . S
C777 C778 1.379 . S
C778 H762 0.931 . S
C778 C772 1.383 . S
C778 C777 1.379 . S
H779 C773 0.959 . S
H780 C773 0.961 . S
H781 C773 0.960 . S
H782 C774 0.930 . S
H783 C775 0.929 . S
H784 C792 0.929 . S
H785 C794 0.930 . S
H786 C796 0.930 . S
H787 C799 0.929 . S
H788 C802 0.930 . S
H789 C804 0.960 1_545 S
H790 C804 0.960 . S
H791 C804 0.960 . S
C792 H784 0.929 . S
C792 C793 1.377 . S
C792 C794 1.384 . S
C793 C792 1.377 . S
C793 C799 1.390 . S
C794 H785 0.930 . S
C794 C792 1.384 . S
C794 C795 1.372 . S
C795 C794 1.372 . S
C795 C796 1.400 . S
C795 C800 1.490 . S
C796 H786 0.930 . S
C796 C795 1.400 . S
C796 C799 1.386 . S
H797 C813 0.930 . S
H798 C814 0.931 . S
C799 H787 0.929 . S
C799 C793 1.390 . S
C799 C796 1.386 . S
C800 C795 1.490 . S
C800 C802 1.395 1_556 S
C800 C803 1.403 . S
H801 C807 0.930 . S
C802 H788 0.930 . S
C802 C800 1.395 1_554 S
C802 C805 1.403 1_565 S
C803 C800 1.403 . S
C803 C804 1.524 . S
C803 C807 1.400 1_565 S
C804 H789 0.960 1_565 S
C804 H790 0.960 . S
C804 H791 0.960 . S
C804 C803 1.524 . S
C805 C802 1.403 1_545 S
C805 C806 1.392 . S
C805 C809 1.495 . S
C806 C805 1.392 . S
C806 C807 1.385 1_554 S
C806 C808 1.478 . S
C807 H801 0.930 . S
C807 C803 1.400 1_545 S
C807 C806 1.385 1_556 S
C808 C806 1.478 . S
C808 C810 1.381 . S
C808 C814 1.383 . S
C809 C805 1.495 . S
C809 H815 0.959 1_545 S
C809 H816 0.961 . S
C809 H817 0.960 . S
C810 C808 1.381 . S
C810 C811 1.394 . S
C810 H818 0.930 . S
C811 C810 1.394 . S
C811 C812 1.383 . S
C811 H819 0.929 . S
C812 C811 1.383 . S
C812 C813 1.377 . S
C813 H797 0.930 . S
C813 C812 1.377 . S
C813 C814 1.379 . S
C814 H798 0.931 . S
C814 C808 1.383 . S
C814 C813 1.379 . S
H815 C809 0.959 1_565 S
H816 C809 0.961 . S
H817 C809 0.960 . S
H818 C810 0.930 . S
H819 C811 0.929 . S
H820 C828 0.929 . S
H821 C830 0.930 . S
H822 C832 0.930 . S
H823 C835 0.929 . S
H824 C838 0.930 . S
H825 C840 0.960 . S
H826 C840 0.960 . S
H827 C840 0.960 . S
C828 H820 0.929 . S
C828 C829 1.377 . S
C828 C830 1.384 . S
C829 C828 1.377 . S
C829 C835 1.390 . S
C830 H821 0.930 . S
C830 C828 1.384 . S
C830 C831 1.372 . S
C831 C830 1.372 . S
C831 C832 1.400 . S
C831 C836 1.490 . S
C832 H822 0.930 . S
C832 C831 1.400 . S
C832 C835 1.386 . S
H833 C849 0.930 . S
H834 C850 0.931 . S
C835 H823 0.929 . S
C835 C829 1.390 . S
C835 C832 1.386 . S
C836 C831 1.490 . S
C836 C838 1.395 . S
C836 C839 1.403 1_554 S
H837 C843 0.930 . S
C838 H824 0.930 . S
C838 C836 1.395 . S
C838 C841 1.403 . S
C839 C836 1.403 1_556 S
C839 C840 1.524 . S
C839 C843 1.400 . S
C840 H825 0.960 . S
C840 H826 0.960 . S
C840 H827 0.960 . S
C840 C839 1.524 . S
C841 C838 1.403 . S
C841 C842 1.392 1_554 S
C841 C845 1.495 . S
C842 C841 1.392 1_556 S
C842 C843 1.385 . S
C842 C844 1.478 . S
C843 H837 0.930 . S
C843 C839 1.400 . S
C843 C842 1.385 . S
C844 C842 1.478 . S
C844 C846 1.381 . S
C844 C850 1.383 . S
C845 C841 1.495 . S
C845 H851 0.959 . S
C845 H852 0.961 . S
C845 H853 0.960 . S
C846 C844 1.381 . S
C846 C847 1.394 . S
C846 H854 0.930 . S
C847 C846 1.394 . S
C847 C848 1.383 . S
C847 H855 0.929 . S
C848 C847 1.383 . S
C848 C849 1.377 . S
C849 H833 0.930 . S
C849 C848 1.377 . S
C849 C850 1.379 . S
C850 H834 0.931 . S
C850 C844 1.383 . S
C850 C849 1.379 . S
H851 C845 0.959 . S
H852 C845 0.961 . S
H853 C845 0.960 . S
H854 C846 0.930 . S
H855 C847 0.929 . S
H856 C864 0.929 . S
H857 C866 0.930 1_554 S
H858 C868 0.930 . S
H859 C871 0.929 . S
H860 C874 0.930 . S
H861 C876 0.960 . S
H862 C876 0.960 . S
H863 C876 0.960 1_655 S
C864 H856 0.929 . S
C864 C865 1.377 1_455 S
C864 C866 1.384 . S
C865 C864 1.377 1_655 S
C865 C871 1.390 . S
C866 H857 0.930 1_556 S
C866 C864 1.384 . S
C866 C867 1.369 1_455 S
C867 C866 1.369 1_655 S
C867 C868 1.403 . S
C867 C872 1.490 1_655 S
C868 H858 0.930 . S
C868 C867 1.403 . S
C868 C871 1.386 . S
H869 C885 0.930 . S
H870 C886 0.931 1_556 S
C871 H859 0.929 . S
C871 C865 1.390 . S
C871 C868 1.386 . S
C872 C867 1.490 1_455 S
C872 C874 1.392 1_456 S
C872 C875 1.405 . S
H873 C879 0.930 . S
C874 H860 0.930 . S
C874 C872 1.392 1_654 S
C874 C877 1.403 . S
C875 C872 1.405 . S
C875 C876 1.524 . S
C875 C879 1.400 . S
C876 H861 0.960 . S
C876 H862 0.960 . S
C876 H863 0.960 1_455 S
C876 C875 1.524 . S
C877 C874 1.403 . S
C877 C878 1.390 1_655 S
C877 C881 1.495 . S
C878 C877 1.390 1_455 S
C878 C879 1.388 1_554 S
C878 C880 1.478 . S
C879 H873 0.930 . S
C879 C875 1.400 . S
C879 C878 1.388 1_556 S
C880 C878 1.478 . S
C880 C882 1.392 . S
C880 C886 1.372 1_455 S
C881 C877 1.495 . S
C881 H887 0.959 . S
C881 H888 0.961 . S
C881 H889 0.960 1_655 S
C882 C880 1.392 . S
C882 C883 1.394 . S
C882 H890 0.930 . S
C883 C882 1.394 . S
C883 C884 1.383 . S
C883 H891 0.929 . S
C884 C883 1.383 . S
C884 C885 1.377 1_455 S
C885 H869 0.930 . S
C885 C884 1.377 1_655 S
C885 C886 1.379 . S
C886 H870 0.931 1_554 S
C886 C880 1.372 1_655 S
C886 C885 1.379 . S
H887 C881 0.959 . S
H888 C881 0.961 . S
H889 C881 0.960 1_455 S
H890 C882 0.930 . S
H891 C883 0.929 . S
H892 C900 0.929 . S
H893 C902 0.930 . S
H894 C904 0.930 . S
H895 C907 0.929 1_556 S
H896 C910 0.930 . S
H897 C912 0.960 1_556 S
H898 C912 0.960 . S
H899 C912 0.960 1_556 S
C900 H892 0.929 . S
C900 C901 1.377 . S
C900 C902 1.384 . S
C901 C900 1.377 . S
C901 C907 1.390 1_545 S
C902 H893 0.930 . S
C902 C900 1.384 . S
C902 C903 1.372 . S
C903 C902 1.372 . S
C903 C904 1.400 1_544 S
C903 C908 1.490 . S
C904 H894 0.930 . S
C904 C903 1.400 1_566 S
C904 C907 1.386 1_556 S
H905 C921 0.930 . S
H906 C922 0.931 . S
C907 H895 0.929 1_554 S
C907 C901 1.390 1_565 S
C907 C904 1.386 1_554 S
C908 C903 1.490 . S
C908 C910 1.395 . S
C908 C911 1.403 1_545 S
H909 C915 0.930 . S
C910 H896 0.930 . S
C910 C908 1.395 . S
C910 C913 1.403 1_455 S
C911 C908 1.403 1_565 S
C911 C912 1.524 . S
C911 C915 1.400 1_454 S
C912 H897 0.960 1_554 S
C912 H898 0.960 . S
C912 H899 0.960 1_554 S
C912 C911 1.524 . S
C913 C910 1.403 1_655 S
C913 C914 1.392 1_554 S
C913 C917 1.495 . S
C914 C913 1.392 1_556 S
C914 C915 1.385 1_545 S
C914 C916 1.478 . S
C915 H909 0.930 . S
C915 C911 1.400 1_656 S
C915 C914 1.385 1_565 S
C916 C914 1.478 . S
C916 C918 1.381 1_556 S
C916 C922 1.383 1_545 S
C917 C913 1.495 . S
C917 H923 0.959 . S
C917 H924 0.961 1_554 S
C917 H925 0.960 . S
C918 C916 1.381 1_554 S
C918 C919 1.394 1_554 S
C918 H926 0.930 . S
C919 C918 1.394 1_556 S
C919 C920 1.373 1_545 S
C919 H927 0.929 1_556 S
C920 C919 1.373 1_565 S
C920 C921 1.385 . S
C921 H905 0.930 . S
C921 C920 1.385 . S
C921 C922 1.379 . S
C922 H906 0.931 . S
C922 C916 1.383 1_565 S
C922 C921 1.379 . S
H923 C917 0.959 . S
H924 C917 0.961 1_556 S
H925 C917 0.960 . S
H926 C918 0.930 . S
H927 C919 0.929 1_554 S
H928 C936 0.929 . S
H929 C938 0.930 . S
H930 C940 0.930 . S
H931 C943 0.929 . S
H932 C946 0.930 . S
H933 C948 0.960 . S
H934 C948 0.960 . S
H935 C948 0.960 . S
C936 H928 0.929 . S
C936 C937 1.377 . S
C936 C938 1.384 . S
C937 C936 1.377 . S
C937 C943 1.390 . S
C938 H929 0.930 . S
C938 C936 1.384 . S
C938 C939 1.372 . S
C939 C938 1.372 . S
C939 C940 1.400 . S
C939 C944 1.490 . S
C940 H930 0.930 . S
C940 C939 1.400 . S
C940 C943 1.386 . S
H941 C957 0.930 . S
H942 C958 0.931 . S
C943 H931 0.929 . S
C943 C937 1.390 . S
C943 C940 1.386 . S
C944 C939 1.490 . S
C944 C946 1.395 . S
C944 C947 1.403 . S
H945 C951 0.930 . S
C946 H932 0.930 . S
C946 C944 1.395 . S
C946 C949 1.403 . S
C947 C944 1.403 . S
C947 C948 1.524 . S
C947 C951 1.400 . S
C948 H933 0.960 . S
C948 H934 0.960 . S
C948 H935 0.960 . S
C948 C947 1.524 . S
C949 C946 1.403 . S
C949 C950 1.392 . S
C949 C953 1.495 . S
C950 C949 1.392 . S
C950 C951 1.385 . S
C950 C952 1.478 . S
C951 H945 0.930 . S
C951 C947 1.400 . S
C951 C950 1.385 . S
C952 C950 1.478 . S
C952 C954 1.381 . S
C952 C958 1.383 . S
C953 C949 1.495 . S
C953 H959 0.959 . S
C953 H960 0.961 . S
C953 H961 0.960 . S
C954 C952 1.381 . S
C954 C955 1.394 . S
C954 H962 0.930 . S
C955 C954 1.394 . S
C955 C956 1.383 . S
C955 H963 0.929 . S
C956 C955 1.383 . S
C956 C957 1.377 . S
C957 H941 0.930 . S
C957 C956 1.377 . S
C957 C958 1.379 . S
C958 H942 0.931 . S
C958 C952 1.383 . S
C958 C957 1.379 . S
H959 C953 0.959 . S
H960 C953 0.961 . S
H961 C953 0.960 . S
H962 C954 0.930 . S
H963 C955 0.929 . S
H964 C972 0.929 . S
H965 C974 0.930 . S
H966 C976 0.930 . S
H967 C979 0.929 . S
H968 C982 0.930 . S
H969 C984 0.960 . S
H970 C984 0.960 . S
H971 C984 0.960 . S
C972 H964 0.929 . S
C972 C973 1.377 . S
C972 C974 1.384 . S
C973 C972 1.377 . S
C973 C979 1.390 . S
C974 H965 0.930 . S
C974 C972 1.384 . S
C974 C975 1.372 . S
C975 C974 1.372 . S
C975 C976 1.400 . S
C975 C980 1.490 . S
C976 H966 0.930 . S
C976 C975 1.400 . S
C976 C979 1.386 . S
H977 C993 0.930 . S
H978 C994 0.931 . S
C979 H967 0.929 . S
C979 C973 1.390 . S
C979 C976 1.386 . S
C980 C975 1.490 . S
C980 C982 1.395 . S
C980 C983 1.403 . S
H981 C987 0.930 . S
C982 H968 0.930 . S
C982 C980 1.395 . S
C982 C985 1.403 1_455 S
C983 C980 1.403 . S
C983 C984 1.524 . S
C983 C987 1.400 1_455 S
C984 H969 0.960 . S
C984 H970 0.960 . S
C984 H971 0.960 . S
C984 C983 1.524 . S
C985 C982 1.403 1_655 S
C985 C986 1.392 . S
C985 C989 1.495 . S
C986 C985 1.392 . S
C986 C987 1.385 . S
C986 C988 1.478 . S
C987 H981 0.930 . S
C987 C983 1.400 1_655 S
C987 C986 1.385 . S
C988 C986 1.478 . S
C988 C990 1.381 . S
C988 C994 1.383 . S
C989 C985 1.495 . S
C989 H995 0.959 . S
C989 H996 0.961 . S
C989 H997 0.960 . S
C990 C988 1.381 . S
C990 C991 1.394 . S
C990 H998 0.930 . S
C991 C990 1.394 . S
C991 C992 1.383 . S
C991 H999 0.929 . S
C992 C991 1.383 . S
C992 C993 1.377 . S
C993 H977 0.930 . S
C993 C992 1.377 . S
C993 C994 1.379 . S
C994 H978 0.931 . S
C994 C988 1.383 . S
C994 C993 1.379 . S
H995 C989 0.959 . S
H996 C989 0.961 . S
H997 C989 0.960 . S
H998 C990 0.930 . S
H999 C991 0.929 . S
H1000 C1008 0.929 . S
H1001 C1010 0.930 . S
H1002 C1012 0.930 . S
H1003 C1015 0.929 . S
H1004 C1018 0.930 . S
H1005 C1020 0.960 . S
H1006 C1020 0.960 . S
H1007 C1020 0.960 . S
C1008 H1000 0.929 . S
C1008 C1009 1.377 1_455 S
C1008 C1010 1.384 . S
C1009 C1008 1.377 1_655 S
C1009 C1015 1.390 . S
C1010 H1001 0.930 . S
C1010 C1008 1.384 . S
C1010 C1011 1.356 1_455 S
C1011 C1010 1.356 1_655 S
C1011 C1012 1.417 . S
C1011 C1016 1.487 1_655 S
C1012 H1002 0.930 . S
C1012 C1011 1.417 . S
C1012 C1015 1.386 . S
H1013 C1029 0.930 . S
H1014 C1030 0.931 . S
C1015 H1003 0.929 . S
C1015 C1009 1.390 . S
C1015 C1012 1.386 . S
C1016 C1011 1.487 1_455 S
C1016 C1018 1.436 . S
C1016 C1019 1.365 1_455 S
H1017 C1023 0.930 . S
C1018 H1004 0.930 . S
C1018 C1016 1.436 . S
C1018 C1021 1.403 1_565 S
C1019 C1016 1.365 1_655 S
C1019 C1020 1.524 . S
C1019 C1023 1.400 1_565 S
C1020 H1005 0.960 . S
C1020 H1006 0.960 . S
C1020 H1007 0.960 . S
C1020 C1019 1.524 . S
C1021 C1018 1.403 1_545 S
C1021 C1022 1.392 . S
C1021 C1025 1.495 . S
C1022 C1021 1.392 . S
C1022 C1023 1.385 1_455 S
C1022 C1024 1.478 . S
C1023 H1017 0.930 . S
C1023 C1019 1.400 1_545 S
C1023 C1022 1.385 1_655 S
C1024 C1022 1.478 . S
C1024 C1026 1.381 . S
C1024 C1030 1.383 1_455 S
C1025 C1021 1.495 . S
C1025 H1031 0.959 . S
C1025 H1032 0.961 . S
C1025 H1033 0.960 . S
C1026 C1024 1.381 . S
C1026 C1027 1.394 . S
C1026 H1034 0.930 . S
C1027 C1026 1.394 . S
C1027 C1028 1.383 . S
C1027 H1035 0.929 . S
C1028 C1027 1.383 . S
C1028 C1029 1.377 1_455 S
C1029 H1013 0.930 . S
C1029 C1028 1.377 1_655 S
C1029 C1030 1.379 . S
C1030 H1014 0.931 . S
C1030 C1024 1.383 1_655 S
C1030 C1029 1.379 . S
H1031 C1025 0.959 . S
H1032 C1025 0.961 . S
H1033 C1025 0.960 . S
H1034 C1026 0.930 . S
H1035 C1027 0.929 . S
H1036 C1044 0.929 . S
H1037 C1046 0.930 . S
H1038 C1048 0.930 . S
H1039 C1051 0.929 . S
H1040 C1054 0.930 . S
H1041 C1056 0.960 . S
H1042 C1056 0.960 . S
H1043 C1056 0.960 . S
C1044 H1036 0.929 . S
C1044 C1045 1.377 . S
C1044 C1046 1.384 . S
C1045 C1044 1.377 . S
C1045 C1051 1.390 1_565 S
C1046 H1037 0.930 . S
C1046 C1044 1.384 . S
C1046 C1047 1.372 . S
C1047 C1046 1.372 . S
C1047 C1048 1.400 1_565 S
C1047 C1052 1.490 . S
C1048 H1038 0.930 . S
C1048 C1047 1.400 1_545 S
C1048 C1051 1.386 . S
H1049 C1065 0.930 . S
H1050 C1066 0.931 . S
C1051 H1039 0.929 . S
C1051 C1045 1.390 1_545 S
C1051 C1048 1.386 . S
C1052 C1047 1.490 . S
C1052 C1054 1.395 . S
C1052 C1055 1.403 1_565 S
H1053 C1059 0.930 . S
C1054 H1040 0.930 . S
C1054 C1052 1.395 . S
C1054 C1057 1.403 . S
C1055 C1052 1.403 1_545 S
C1055 C1056 1.524 . S
C1055 C1059 1.400 . S
C1056 H1041 0.960 . S
C1056 H1042 0.960 . S
C1056 H1043 0.960 . S
C1056 C1055 1.524 . S
C1057 C1054 1.403 . S
C1057 C1058 1.392 . S
C1057 C1061 1.495 . S
C1058 C1057 1.392 . S
C1058 C1059 1.385 1_565 S
C1058 C1060 1.478 . S
C1059 H1053 0.930 . S
C1059 C1055 1.400 . S
C1059 C1058 1.385 1_545 S
C1060 C1058 1.478 . S
C1060 C1062 1.381 . S
C1060 C1066 1.383 1_565 S
C1061 C1057 1.495 . S
C1061 H1067 0.959 . S
C1061 H1068 0.961 . S
C1061 H1069 0.960 . S
C1062 C1060 1.381 . S
C1062 C1063 1.394 . S
C1062 H1070 0.930 . S
C1063 C1062 1.394 . S
C1063 C1064 1.355 1_565 S
C1063 H1071 0.929 . S
C1064 C1063 1.355 1_545 S
C1064 C1065 1.402 . S
C1065 H1049 0.930 . S
C1065 C1064 1.402 . S
C1065 C1066 1.379 . S
C1066 H1050 0.931 . S
C1066 C1060 1.383 1_545 S
C1066 C1065 1.379 . S
H1067 C1061 0.959 . S
H1068 C1061 0.961 . S
H1069 C1061 0.960 . S
H1070 C1062 0.930 . S
H1071 C1063 0.929 . S
H1072 C1080 0.929 . S
H1073 C1082 0.930 . S
H1074 C1084 0.930 . S
H1075 C1087 0.929 . S
H1076 C1090 0.930 . S
H1077 C1092 0.960 . S
H1078 C1092 0.960 . S
H1079 C1092 0.960 . S
C1080 H1072 0.929 . S
C1080 C1081 1.377 . S
C1080 C1082 1.384 . S
C1081 C1080 1.377 . S
C1081 C1087 1.390 . S
C1082 H1073 0.930 . S
C1082 C1080 1.384 . S
C1082 C1083 1.372 . S
C1083 C1082 1.372 . S
C1083 C1084 1.400 . S
C1083 C1088 1.490 . S
C1084 H1074 0.930 . S
C1084 C1083 1.400 . S
C1084 C1087 1.386 . S
H1085 C1101 0.930 . S
H1086 C1102 0.931 . S
C1087 H1075 0.929 . S
C1087 C1081 1.390 . S
C1087 C1084 1.386 . S
C1088 C1083 1.490 . S
C1088 C1090 1.395 . S
C1088 C1091 1.403 . S
H1089 C1095 0.930 . S
C1090 H1076 0.930 . S
C1090 C1088 1.395 . S
C1090 C1093 1.403 . S
C1091 C1088 1.403 . S
C1091 C1092 1.524 . S
C1091 C1095 1.400 . S
C1092 H1077 0.960 . S
C1092 H1078 0.960 . S
C1092 H1079 0.960 . S
C1092 C1091 1.524 . S
C1093 C1090 1.403 . S
C1093 C1094 1.392 . S
C1093 C1097 1.495 . S
C1094 C1093 1.392 . S
C1094 C1095 1.385 . S
C1094 C1096 1.478 . S
C1095 H1089 0.930 . S
C1095 C1091 1.400 . S
C1095 C1094 1.385 . S
C1096 C1094 1.478 . S
C1096 C1098 1.381 . S
C1096 C1102 1.383 . S
C1097 C1093 1.495 . S
C1097 H1103 0.959 . S
C1097 H1104 0.961 . S
C1097 H1105 0.960 . S
C1098 C1096 1.381 . S
C1098 C1099 1.394 . S
C1098 H1106 0.930 . S
C1099 C1098 1.394 . S
C1099 C1100 1.383 . S
C1099 H1107 0.929 . S
C1100 C1099 1.383 . S
C1100 C1101 1.377 . S
C1101 H1085 0.930 . S
C1101 C1100 1.377 . S
C1101 C1102 1.379 . S
C1102 H1086 0.931 . S
C1102 C1096 1.383 . S
C1102 C1101 1.379 . S
H1103 C1097 0.959 . S
H1104 C1097 0.961 . S
H1105 C1097 0.960 . S
H1106 C1098 0.930 . S
H1107 C1099 0.929 . S
H1108 C1116 0.929 . S
H1109 C1118 0.930 . S
H1110 C1120 0.930 . S
H1111 C1123 0.929 . S
H1112 C1126 0.930 . S
H1113 C1128 0.960 . S
H1114 C1128 0.960 . S
H1115 C1128 0.960 . S
C1116 H1108 0.929 . S
C1116 C1117 1.377 . S
C1116 C1118 1.384 . S
C1117 C1116 1.377 . S
C1117 C1123 1.390 . S
C1118 H1109 0.930 . S
C1118 C1116 1.384 . S
C1118 C1119 1.372 . S
C1119 C1118 1.372 . S
C1119 C1120 1.400 . S
C1119 C1124 1.490 . S
C1120 H1110 0.930 . S
C1120 C1119 1.400 . S
C1120 C1123 1.386 . S
H1121 C1137 0.930 . S
H1122 C1138 0.931 . S
C1123 H1111 0.929 . S
C1123 C1117 1.390 . S
C1123 C1120 1.386 . S
C1124 C1119 1.490 . S
C1124 C1126 1.395 . S
C1124 C1127 1.403 . S
H1125 C1131 0.930 . S
C1126 H1112 0.930 . S
C1126 C1124 1.395 . S
C1126 C1129 1.403 . S
C1127 C1124 1.403 . S
C1127 C1128 1.524 . S
C1127 C1131 1.400 . S
C1128 H1113 0.960 . S
C1128 H1114 0.960 . S
C1128 H1115 0.960 . S
C1128 C1127 1.524 . S
C1129 C1126 1.403 . S
C1129 C1130 1.392 . S
C1129 C1133 1.495 . S
C1130 C1129 1.392 . S
C1130 C1131 1.385 . S
C1130 C1132 1.478 . S
C1131 H1125 0.930 . S
C1131 C1127 1.400 . S
C1131 C1130 1.385 . S
C1132 C1130 1.478 . S
C1132 C1134 1.381 . S
C1132 C1138 1.383 . S
C1133 C1129 1.495 . S
C1133 H1139 0.959 . S
C1133 H1140 0.961 . S
C1133 H1141 0.960 . S
C1134 C1132 1.381 . S
C1134 C1135 1.394 . S
C1134 H1142 0.930 . S
C1135 C1134 1.394 . S
C1135 C1136 1.383 . S
C1135 H1143 0.929 . S
C1136 C1135 1.383 . S
C1136 C1137 1.377 . S
C1137 H1121 0.930 . S
C1137 C1136 1.377 . S
C1137 C1138 1.379 . S
C1138 H1122 0.931 . S
C1138 C1132 1.383 . S
C1138 C1137 1.379 . S
H1139 C1133 0.959 . S
H1140 C1133 0.961 . S
H1141 C1133 0.960 . S
H1142 C1134 0.930 . S
H1143 C1135 0.929 . S
H1144 C1152 0.929 . S
H1145 C1154 0.930 . S
H1146 C1156 0.930 . S
H1147 C1159 0.929 . S
H1148 C1162 0.930 . S
H1149 C1164 0.960 . S
H1150 C1164 0.942 1_655 S
H1151 C1164 0.960 . S
C1152 H1144 0.929 . S
C1152 C1153 1.377 . S
C1152 C1154 1.384 . S
C1153 C1152 1.377 . S
C1153 C1159 1.390 1_655 S
C1154 H1145 0.930 . S
C1154 C1152 1.384 . S
C1154 C1155 1.372 . S
C1155 C1154 1.372 . S
C1155 C1156 1.400 1_655 S
C1155 C1160 1.490 . S
C1156 H1146 0.930 . S
C1156 C1155 1.400 1_455 S
C1156 C1159 1.386 . S
H1157 C1173 0.930 . S
H1158 C1174 0.931 . S
C1159 H1147 0.929 . S
C1159 C1153 1.390 1_455 S
C1159 C1156 1.386 . S
C1160 C1155 1.490 . S
C1160 C1162 1.395 . S
C1160 C1163 1.403 . S
H1161 C1167 0.930 1_455 S
C1162 H1148 0.930 . S
C1162 C1160 1.395 . S
C1162 C1165 1.403 . S
C1163 C1160 1.403 . S
C1163 C1164 1.524 1_655 S
C1163 C1167 1.400 . S
C1164 H1149 0.960 . S
C1164 H1150 0.942 1_455 S
C1164 H1151 0.960 . S
C1164 C1163 1.524 1_455 S
C1165 C1162 1.403 . S
C1165 C1166 1.392 . S
C1165 C1169 1.495 . S
C1166 C1165 1.392 . S
C1166 C1167 1.385 . S
C1166 C1168 1.478 . S
C1167 H1161 0.930 1_655 S
C1167 C1163 1.400 . S
C1167 C1166 1.385 . S
C1168 C1166 1.478 . S
C1168 C1170 1.381 . S
C1168 C1174 1.383 1_655 S
C1169 C1165 1.495 . S
C1169 H1175 0.959 . S
C1169 H1176 0.961 . S
C1169 H1177 0.960 . S
C1170 C1168 1.381 . S
C1170 C1171 1.394 . S
C1170 H1178 0.930 . S
C1171 C1170 1.394 . S
C1171 C1172 1.383 . S
C1171 H1179 0.929 . S
C1172 C1171 1.383 . S
C1172 C1173 1.377 1_655 S
C1173 H1157 0.930 . S
C1173 C1172 1.377 1_455 S
C1173 C1174 1.379 . S
C1174 H1158 0.931 . S
C1174 C1168 1.383 1_455 S
C1174 C1173 1.379 . S
H1175 C1169 0.959 . S
H1176 C1169 0.961 . S
H1177 C1169 0.960 . S
H1178 C1170 0.930 . S
H1179 C1171 0.929 . S
H1180 C1188 0.929 . S
H1181 C1190 0.930 . S
H1182 C1192 0.930 . S
H1183 C1195 0.929 . S
H1184 C1198 0.930 . S
H1185 C1200 0.960 . S
H1186 C1200 0.960 . S
H1187 C1200 0.960 . S
C1188 H1180 0.929 . S
C1188 C1189 1.377 . S
C1188 C1190 1.384 . S
C1189 C1188 1.377 . S
C1189 C1195 1.390 . S
C1190 H1181 0.930 . S
C1190 C1188 1.384 . S
C1190 C1191 1.372 . S
C1191 C1190 1.372 . S
C1191 C1192 1.400 . S
C1191 C1196 1.490 . S
C1192 H1182 0.930 . S
C1192 C1191 1.400 . S
C1192 C1195 1.386 . S
H1193 C1209 0.930 . S
H1194 C1210 0.931 . S
C1195 H1183 0.929 . S
C1195 C1189 1.390 . S
C1195 C1192 1.386 . S
C1196 C1191 1.490 . S
C1196 C1198 1.395 1_565 S
C1196 C1199 1.403 . S
H1197 C1203 0.930 . S
C1198 H1184 0.930 . S
C1198 C1196 1.395 1_545 S
C1198 C1201 1.403 . S
C1199 C1196 1.403 . S
C1199 C1200 1.524 . S
C1199 C1203 1.400 . S
C1200 H1185 0.960 . S
C1200 H1186 0.960 . S
C1200 H1187 0.960 . S
C1200 C1199 1.524 . S
C1201 C1198 1.403 . S
C1201 C1202 1.392 1_545 S
C1201 C1205 1.495 . S
C1202 C1201 1.392 1_565 S
C1202 C1203 1.385 . S
C1202 C1204 1.478 . S
C1203 H1197 0.930 . S
C1203 C1199 1.400 . S
C1203 C1202 1.385 . S
C1204 C1202 1.478 . S
C1204 C1206 1.381 . S
C1204 C1210 1.383 . S
C1205 C1201 1.495 . S
C1205 H1211 0.959 . S
C1205 H1212 0.961 . S
C1205 H1213 0.960 . S
C1206 C1204 1.381 . S
C1206 C1207 1.394 . S
C1206 H1214 0.930 . S
C1207 C1206 1.394 . S
C1207 C1208 1.383 . S
C1207 H1215 0.929 . S
C1208 C1207 1.383 . S
C1208 C1209 1.377 . S
C1209 H1193 0.930 . S
C1209 C1208 1.377 . S
C1209 C1210 1.379 . S
C1210 H1194 0.931 . S
C1210 C1204 1.383 . S
C1210 C1209 1.379 . S
H1211 C1205 0.959 . S
H1212 C1205 0.961 . S
H1213 C1205 0.960 . S
H1214 C1206 0.930 . S
H1215 C1207 0.929 . S
H1216 C1224 0.929 . S
H1217 C1226 0.930 . S
H1218 C1228 0.930 . S
H1219 C1231 0.929 . S
H1220 C1234 0.930 . S
H1221 C1236 0.960 . S
H1222 C1236 0.960 . S
H1223 C1236 0.960 . S
C1224 H1216 0.929 . S
C1224 C1225 1.377 . S
C1224 C1226 1.384 . S
C1225 C1224 1.377 . S
C1225 C1231 1.390 . S
C1226 H1217 0.930 . S
C1226 C1224 1.384 . S
C1226 C1227 1.372 . S
C1227 C1226 1.372 . S
C1227 C1228 1.400 . S
C1227 C1232 1.490 . S
C1228 H1218 0.930 . S
C1228 C1227 1.400 . S
C1228 C1231 1.386 . S
H1229 C1245 0.930 . S
H1230 C1246 0.931 . S
C1231 H1219 0.929 . S
C1231 C1225 1.390 . S
C1231 C1228 1.386 . S
C1232 C1227 1.490 . S
C1232 C1234 1.395 . S
C1232 C1235 1.403 . S
H1233 C1239 0.930 . S
C1234 H1220 0.930 . S
C1234 C1232 1.395 . S
C1234 C1237 1.403 . S
C1235 C1232 1.403 . S
C1235 C1236 1.524 . S
C1235 C1239 1.400 . S
C1236 H1221 0.960 . S
C1236 H1222 0.960 . S
C1236 H1223 0.960 . S
C1236 C1235 1.524 . S
C1237 C1234 1.403 . S
C1237 C1238 1.392 . S
C1237 C1241 1.495 . S
C1238 C1237 1.392 . S
C1238 C1239 1.385 . S
C1238 C1240 1.478 . S
C1239 H1233 0.930 . S
C1239 C1235 1.400 . S
C1239 C1238 1.385 . S
C1240 C1238 1.478 . S
C1240 C1242 1.381 . S
C1240 C1246 1.383 . S
C1241 C1237 1.495 . S
C1241 H1247 0.959 . S
C1241 H1248 0.961 . S
C1241 H1249 0.960 . S
C1242 C1240 1.381 . S
C1242 C1243 1.394 . S
C1242 H1250 0.930 . S
C1243 C1242 1.394 . S
C1243 C1244 1.383 . S
C1243 H1251 0.929 . S
C1244 C1243 1.383 . S
C1244 C1245 1.377 . S
C1245 H1229 0.930 . S
C1245 C1244 1.377 . S
C1245 C1246 1.379 . S
C1246 H1230 0.931 . S
C1246 C1240 1.383 . S
C1246 C1245 1.379 . S
H1247 C1241 0.959 . S
H1248 C1241 0.961 . S
H1249 C1241 0.960 . S
H1250 C1242 0.930 . S
H1251 C1243 0.929 . S
H1252 C1260 0.929 . S
H1253 C1262 0.930 . S
H1254 C1264 0.930 . S
H1255 C1267 0.929 . S
H1256 C1270 0.930 . S
H1257 C1272 0.960 . S
H1258 C1272 0.960 . S
H1259 C1272 0.960 . S
C1260 H1252 0.929 . S
C1260 C1261 1.377 . S
C1260 C1262 1.384 . S
C1261 C1260 1.377 . S
C1261 C1267 1.390 . S
C1262 H1253 0.930 . S
C1262 C1260 1.384 . S
C1262 C1263 1.372 . S
C1263 C1262 1.372 . S
C1263 C1264 1.400 . S
C1263 C1268 1.490 . S
C1264 H1254 0.930 . S
C1264 C1263 1.400 . S
C1264 C1267 1.386 . S
H1265 C1281 0.930 . S
H1266 C1282 0.931 . S
C1267 H1255 0.929 . S
C1267 C1261 1.390 . S
C1267 C1264 1.386 . S
C1268 C1263 1.490 . S
C1268 C1270 1.395 . S
C1268 C1271 1.403 . S
H1269 C1275 0.930 . S
C1270 H1256 0.930 . S
C1270 C1268 1.395 . S
C1270 C1273 1.403 . S
C1271 C1268 1.403 . S
C1271 C1272 1.524 . S
C1271 C1275 1.400 . S
C1272 H1257 0.960 . S
C1272 H1258 0.960 . S
C1272 H1259 0.960 . S
C1272 C1271 1.524 . S
C1273 C1270 1.403 . S
C1273 C1274 1.392 . S
C1273 C1277 1.495 . S
C1274 C1273 1.392 . S
C1274 C1275 1.385 . S
C1274 C1276 1.478 . S
C1275 H1269 0.930 . S
C1275 C1271 1.400 . S
C1275 C1274 1.385 . S
C1276 C1274 1.478 . S
C1276 C1278 1.381 . S
C1276 C1282 1.383 . S
C1277 C1273 1.495 . S
C1277 H1283 0.959 . S
C1277 H1284 0.961 . S
C1277 H1285 0.960 . S
C1278 C1276 1.381 . S
C1278 C1279 1.394 . S
C1278 H1286 0.930 . S
C1279 C1278 1.394 . S
C1279 C1280 1.383 . S
C1279 H1287 0.929 . S
C1280 C1279 1.383 . S
C1280 C1281 1.377 . S
C1281 H1265 0.930 . S
C1281 C1280 1.377 . S
C1281 C1282 1.379 . S
C1282 H1266 0.931 . S
C1282 C1276 1.383 . S
C1282 C1281 1.379 . S
H1283 C1277 0.959 . S
H1284 C1277 0.961 . S
H1285 C1277 0.960 . S
H1286 C1278 0.930 . S
H1287 C1279 0.929 . S
H1288 C1296 0.925 1_655 S
H1289 C1298 0.928 1_655 S
H1290 C1300 0.930 . S
H1291 C1303 0.929 . S
H1292 C1306 0.930 . S
H1293 C1308 0.960 . S
H1294 C1308 0.960 . S
H1295 C1308 0.960 . S
C1296 H1288 0.925 1_455 S
C1296 C1297 1.382 . S
C1296 C1298 1.384 . S
C1297 C1296 1.382 . S
C1297 C1303 1.390 . S
C1298 H1289 0.928 1_455 S
C1298 C1296 1.384 . S
C1298 C1299 1.374 . S
C1299 C1298 1.374 . S
C1299 C1300 1.400 . S
C1299 C1304 1.490 . S
C1300 H1290 0.930 . S
C1300 C1299 1.400 . S
C1300 C1303 1.386 . S
H1301 C1317 0.930 . S
H1302 C1318 0.931 . S
C1303 H1291 0.929 . S
C1303 C1297 1.390 . S
C1303 C1300 1.386 . S
C1304 C1299 1.490 . S
C1304 C1306 1.395 . S
C1304 C1307 1.411 . S
H1305 C1311 0.930 1_655 S
C1306 H1292 0.930 . S
C1306 C1304 1.395 . S
C1306 C1309 1.403 . S
C1307 C1304 1.411 . S
C1307 C1308 1.514 1_455 S
C1307 C1311 1.401 . S
C1308 H1293 0.960 . S
C1308 H1294 0.960 . S
C1308 H1295 0.960 . S
C1308 C1307 1.514 1_655 S
C1309 C1306 1.403 . S
C1309 C1310 1.392 . S
C1309 C1313 1.495 . S
C1310 C1309 1.392 . S
C1310 C1311 1.385 . S
C1310 C1312 1.478 . S
C1311 H1305 0.930 1_455 S
C1311 C1307 1.401 . S
C1311 C1310 1.385 . S
C1312 C1310 1.478 . S
C1312 C1314 1.381 . S
C1312 C1318 1.383 . S
C1313 C1309 1.495 . S
C1313 H1319 0.959 . S
C1313 H1320 0.961 . S
C1313 H1321 0.960 . S
C1314 C1312 1.381 . S
C1314 C1315 1.394 . S
C1314 H1322 0.930 1_455 S
C1315 C1314 1.394 . S
C1315 C1316 1.384 . S
C1315 H1323 0.929 1_455 S
C1316 C1315 1.384 . S
C1316 C1317 1.377 . S
C1317 H1301 0.930 . S
C1317 C1316 1.377 . S
C1317 C1318 1.379 . S
C1318 H1302 0.931 . S
C1318 C1312 1.383 . S
C1318 C1317 1.379 . S
H1319 C1313 0.959 . S
H1320 C1313 0.961 . S
H1321 C1313 0.960 . S
H1322 C1314 0.930 1_655 S
H1323 C1315 0.929 1_655 S
H1324 C1332 0.929 . S
H1325 C1334 0.930 . S
H1326 C1336 0.930 . S
H1327 C1339 0.929 . S
H1328 C1342 0.930 . S
H1329 C1344 0.960 . S
H1330 C1344 0.960 . S
H1331 C1344 0.960 . S
C1332 H1324 0.929 . S
C1332 C1333 1.377 . S
C1332 C1334 1.384 . S
C1333 C1332 1.377 . S
C1333 C1339 1.390 . S
C1334 H1325 0.930 . S
C1334 C1332 1.384 . S
C1334 C1335 1.372 . S
C1335 C1334 1.372 . S
C1335 C1336 1.400 . S
C1335 C1340 1.490 . S
C1336 H1326 0.930 . S
C1336 C1335 1.400 . S
C1336 C1339 1.386 . S
H1337 C1353 0.930 . S
H1338 C1354 0.931 . S
C1339 H1327 0.929 . S
C1339 C1333 1.390 . S
C1339 C1336 1.386 . S
C1340 C1335 1.490 . S
C1340 C1342 1.395 . S
C1340 C1343 1.403 1_545 S
H1341 C1347 0.930 . S
C1342 H1328 0.930 . S
C1342 C1340 1.395 . S
C1342 C1345 1.403 . S
C1343 C1340 1.403 1_565 S
C1343 C1344 1.524 . S
C1343 C1347 1.400 . S
C1344 H1329 0.960 . S
C1344 H1330 0.960 . S
C1344 H1331 0.960 . S
C1344 C1343 1.524 . S
C1345 C1342 1.403 . S
C1345 C1346 1.392 . S
C1345 C1349 1.495 . S
C1346 C1345 1.392 . S
C1346 C1347 1.385 1_545 S
C1346 C1348 1.478 . S
C1347 H1341 0.930 . S
C1347 C1343 1.400 . S
C1347 C1346 1.385 1_565 S
C1348 C1346 1.478 . S
C1348 C1350 1.381 . S
C1348 C1354 1.383 . S
C1349 C1345 1.495 . S
C1349 H1355 0.959 . S
C1349 H1356 0.961 . S
C1349 H1357 0.960 . S
C1350 C1348 1.381 . S
C1350 C1351 1.394 . S
C1350 H1358 0.930 . S
C1351 C1350 1.394 . S
C1351 C1352 1.383 . S
C1351 H1359 0.929 . S
C1352 C1351 1.383 . S
C1352 C1353 1.377 . S
C1353 H1337 0.930 . S
C1353 C1352 1.377 . S
C1353 C1354 1.379 . S
C1354 H1338 0.931 . S
C1354 C1348 1.383 . S
C1354 C1353 1.379 . S
H1355 C1349 0.959 . S
H1356 C1349 0.961 . S
H1357 C1349 0.960 . S
H1358 C1350 0.930 . S
H1359 C1351 0.929 . S
C217 C5 1.075 . S
C236 C127 1.097 . S
C253 C140 1.101 . S
C272 C18 1.048 . S
C289 C147 1.101 . S
C308 C31 1.045 . S
C325 C114 1.101 . S
C344 C42 1.044 . S
C361 C57 1.080 . S
C380 C205 1.105 . S
C397 C160 1.103 . S
C416 C70 1.093 . S
C433 C173 1.101 . S
C452 C81 1.047 . S
C469 C186 1.101 . S
C488 C96 1.056 . S
C505 C109 1.072 . S
C524 C23 1.099 . S
C541 C122 1.071 . S
C560 C36 1.108 . S
C577 C135 1.077 . S
C596 C43 1.093 . S
C613 C10 1.103 . S
C632 C146 1.043 . S
C649 C159 1.083 . S
C668 C101 1.092 . S
C685 C172 1.071 . S
C704 C62 1.104 . S
C721 C75 1.102 . S
C740 C185 1.103 . S
C757 C200 1.081 . S
C776 C82 1.104 . S
C793 C108 1.557 . S
C812 C4 1.572 . S
C829 C17 1.555 . S
C848 C121 1.563 . S
C865 C134 1.553 1_655 S
C884 C30 1.548 1_455 S
C901 C49 1.556 1_545 S
C920 C153 1.518 1_565 S
C937 C166 1.554 . S
C956 C56 1.547 . S
C973 C69 1.562 . S
C992 C179 1.586 . S
C1009 C192 1.560 1_655 S
C1028 C88 1.584 1_455 S
C1045 C199 1.559 1_565 S
C1064 C95 1.519 1_545 S
C1081 C55 1.743 . S
C1100 C3 1.749 . S
C1117 C68 1.748 . S
C1136 C16 1.730 . S
C1153 C29 1.744 . S
C1172 C83 1.740 . S
C1189 C94 1.742 . S
C1208 C44 1.754 . S
C1225 C107 1.747 . S
C1244 C161 1.753 . S
C1261 C174 1.748 . S
C1280 C120 1.748 . S
C1297 C187 1.747 . S
C1316 C133 1.738 . S
C1333 C198 1.746 . S
C1352 C148 1.732 . S
