# Generated by pormake.
# Topology tes, (8)-cn, num edge types: 1
# Building blocks:
#     Node 0, Type 0, BuildingBlock: EBIMEJ_clean_sbu_0, # of connection points: 8
#     Node 1, Type 0, BuildingBlock: EBIMEJ_clean_sbu_0, # of connection points: 8
#     Node 2, Type 0, BuildingBlock: EBIMEJ_clean_sbu_0, # of connection points: 8
#     Node 3, Type 0, BuildingBlock: EBIMEJ_clean_sbu_0, # of connection points: 8
#     Node 4, Type 0, BuildingBlock: EBIMEJ_clean_sbu_0, # of connection points: 8
#     Node 5, Type 0, BuildingBlock: EBIMEJ_clean_sbu_0, # of connection points: 8
#     Node 6, Type 0, BuildingBlock: EBIMEJ_clean_sbu_0, # of connection points: 8
#     Node 7, Type 0, BuildingBlock: EBIMEJ_clean_sbu_0, # of connection points: 8
#     Node 8, Type 0, BuildingBlock: EBIMEJ_clean_sbu_0, # of connection points: 8
#     Node 9, Type 0, BuildingBlock: EBIMEJ_clean_sbu_0, # of connection points: 8
#     Node 10, Type 0, BuildingBlock: EBIMEJ_clean_sbu_0, # of connection points: 8
#     Node 11, Type 0, BuildingBlock: EBIMEJ_clean_sbu_0, # of connection points: 8
#     Node 12, Type 0, BuildingBlock: EBIMEJ_clean_sbu_0, # of connection points: 8
#     Node 13, Type 0, BuildingBlock: EBIMEJ_clean_sbu_0, # of connection points: 8
#     Node 14, Type 0, BuildingBlock: EBIMEJ_clean_sbu_0, # of connection points: 8
#     Node 15, Type 0, BuildingBlock: EBIMEJ_clean_sbu_0, # of connection points: 8
#     Node 16, Type 0, BuildingBlock: EBIMEJ_clean_sbu_0, # of connection points: 8
#     Node 17, Type 0, BuildingBlock: EBIMEJ_clean_sbu_0, # of connection points: 8
#     Node 18, Type 0, BuildingBlock: EBIMEJ_clean_sbu_0, # of connection points: 8
#     Node 19, Type 0, BuildingBlock: EBIMEJ_clean_sbu_0, # of connection points: 8
#     Node 20, Type 0, BuildingBlock: EBIMEJ_clean_sbu_0, # of connection points: 8
#     Node 21, Type 0, BuildingBlock: EBIMEJ_clean_sbu_0, # of connection points: 8
#     Node 22, Type 0, BuildingBlock: EBIMEJ_clean_sbu_0, # of connection points: 8
#     Node 23, Type 0, BuildingBlock: EBIMEJ_clean_sbu_0, # of connection points: 8
#     Edge 24, Type (0, 0), BuildingBlock: EZIPEK_clean_linker_0, # of connection points: 2
#     Edge 25, Type (0, 0), BuildingBlock: EZIPEK_clean_linker_0, # of connection points: 2
#     Edge 26, Type (0, 0), BuildingBlock: EZIPEK_clean_linker_0, # of connection points: 2
#     Edge 27, Type (0, 0), BuildingBlock: EZIPEK_clean_linker_0, # of connection points: 2
#     Edge 28, Type (0, 0), BuildingBlock: EZIPEK_clean_linker_0, # of connection points: 2
#     Edge 29, Type (0, 0), BuildingBlock: EZIPEK_clean_linker_0, # of connection points: 2
#     Edge 30, Type (0, 0), BuildingBlock: EZIPEK_clean_linker_0, # of connection points: 2
#     Edge 31, Type (0, 0), BuildingBlock: EZIPEK_clean_linker_0, # of connection points: 2
#     Edge 32, Type (0, 0), BuildingBlock: EZIPEK_clean_linker_0, # of connection points: 2
#     Edge 33, Type (0, 0), BuildingBlock: EZIPEK_clean_linker_0, # of connection points: 2
#     Edge 34, Type (0, 0), BuildingBlock: EZIPEK_clean_linker_0, # of connection points: 2
#     Edge 35, Type (0, 0), BuildingBlock: EZIPEK_clean_linker_0, # of connection points: 2
#     Edge 36, Type (0, 0), BuildingBlock: EZIPEK_clean_linker_0, # of connection points: 2
#     Edge 37, Type (0, 0), BuildingBlock: EZIPEK_clean_linker_0, # of connection points: 2
#     Edge 38, Type (0, 0), BuildingBlock: EZIPEK_clean_linker_0, # of connection points: 2
#     Edge 39, Type (0, 0), BuildingBlock: EZIPEK_clean_linker_0, # of connection points: 2
#     Edge 40, Type (0, 0), BuildingBlock: EZIPEK_clean_linker_0, # of connection points: 2
#     Edge 41, Type (0, 0), BuildingBlock: EZIPEK_clean_linker_0, # of connection points: 2
#     Edge 42, Type (0, 0), BuildingBlock: EZIPEK_clean_linker_0, # of connection points: 2
#     Edge 43, Type (0, 0), BuildingBlock: EZIPEK_clean_linker_0, # of connection points: 2
#     Edge 44, Type (0, 0), BuildingBlock: EZIPEK_clean_linker_0, # of connection points: 2
#     Edge 45, Type (0, 0), BuildingBlock: EZIPEK_clean_linker_0, # of connection points: 2
#     Edge 46, Type (0, 0), BuildingBlock: EZIPEK_clean_linker_0, # of connection points: 2
#     Edge 47, Type (0, 0), BuildingBlock: EZIPEK_clean_linker_0, # of connection points: 2
#     Edge 48, Type (0, 0), BuildingBlock: EZIPEK_clean_linker_0, # of connection points: 2
#     Edge 49, Type (0, 0), BuildingBlock: EZIPEK_clean_linker_0, # of connection points: 2
#     Edge 50, Type (0, 0), BuildingBlock: EZIPEK_clean_linker_0, # of connection points: 2
#     Edge 51, Type (0, 0), BuildingBlock: EZIPEK_clean_linker_0, # of connection points: 2
#     Edge 52, Type (0, 0), BuildingBlock: EZIPEK_clean_linker_0, # of connection points: 2
#     Edge 53, Type (0, 0), BuildingBlock: EZIPEK_clean_linker_0, # of connection points: 2
#     Edge 54, Type (0, 0), BuildingBlock: EZIPEK_clean_linker_0, # of connection points: 2
#     Edge 55, Type (0, 0), BuildingBlock: EZIPEK_clean_linker_0, # of connection points: 2
#     Edge 56, Type (0, 0), BuildingBlock: EZIPEK_clean_linker_0, # of connection points: 2
#     Edge 57, Type (0, 0), BuildingBlock: EZIPEK_clean_linker_0, # of connection points: 2
#     Edge 58, Type (0, 0), BuildingBlock: EZIPEK_clean_linker_0, # of connection points: 2
#     Edge 59, Type (0, 0), BuildingBlock: EZIPEK_clean_linker_0, # of connection points: 2
#     Edge 60, Type (0, 0), BuildingBlock: EZIPEK_clean_linker_0, # of connection points: 2
#     Edge 61, Type (0, 0), BuildingBlock: EZIPEK_clean_linker_0, # of connection points: 2
#     Edge 62, Type (0, 0), BuildingBlock: EZIPEK_clean_linker_0, # of connection points: 2
#     Edge 63, Type (0, 0), BuildingBlock: EZIPEK_clean_linker_0, # of connection points: 2
#     Edge 64, Type (0, 0), BuildingBlock: EZIPEK_clean_linker_0, # of connection points: 2
#     Edge 65, Type (0, 0), BuildingBlock: EZIPEK_clean_linker_0, # of connection points: 2
#     Edge 66, Type (0, 0), BuildingBlock: EZIPEK_clean_linker_0, # of connection points: 2
#     Edge 67, Type (0, 0), BuildingBlock: EZIPEK_clean_linker_0, # of connection points: 2
#     Edge 68, Type (0, 0), BuildingBlock: EZIPEK_clean_linker_0, # of connection points: 2
#     Edge 69, Type (0, 0), BuildingBlock: EZIPEK_clean_linker_0, # of connection points: 2
#     Edge 70, Type (0, 0), BuildingBlock: EZIPEK_clean_linker_0, # of connection points: 2
#     Edge 71, Type (0, 0), BuildingBlock: EZIPEK_clean_linker_0, # of connection points: 2
#     Edge 72, Type (0, 0), BuildingBlock: EZIPEK_clean_linker_0, # of connection points: 2
#     Edge 73, Type (0, 0), BuildingBlock: EZIPEK_clean_linker_0, # of connection points: 2
#     Edge 74, Type (0, 0), BuildingBlock: EZIPEK_clean_linker_0, # of connection points: 2
#     Edge 75, Type (0, 0), BuildingBlock: EZIPEK_clean_linker_0, # of connection points: 2
#     Edge 76, Type (0, 0), BuildingBlock: EZIPEK_clean_linker_0, # of connection points: 2
#     Edge 77, Type (0, 0), BuildingBlock: EZIPEK_clean_linker_0, # of connection points: 2
#     Edge 78, Type (0, 0), BuildingBlock: EZIPEK_clean_linker_0, # of connection points: 2
#     Edge 79, Type (0, 0), BuildingBlock: EZIPEK_clean_linker_0, # of connection points: 2
#     Edge 80, Type (0, 0), BuildingBlock: EZIPEK_clean_linker_0, # of connection points: 2
#     Edge 81, Type (0, 0), BuildingBlock: EZIPEK_clean_linker_0, # of connection points: 2
#     Edge 82, Type (0, 0), BuildingBlock: EZIPEK_clean_linker_0, # of connection points: 2
#     Edge 83, Type (0, 0), BuildingBlock: EZIPEK_clean_linker_0, # of connection points: 2
#     Edge 84, Type (0, 0), BuildingBlock: EZIPEK_clean_linker_0, # of connection points: 2
#     Edge 85, Type (0, 0), BuildingBlock: EZIPEK_clean_linker_0, # of connection points: 2
#     Edge 86, Type (0, 0), BuildingBlock: EZIPEK_clean_linker_0, # of connection points: 2
#     Edge 87, Type (0, 0), BuildingBlock: EZIPEK_clean_linker_0, # of connection points: 2
#     Edge 88, Type (0, 0), BuildingBlock: EZIPEK_clean_linker_0, # of connection points: 2
#     Edge 89, Type (0, 0), BuildingBlock: EZIPEK_clean_linker_0, # of connection points: 2
#     Edge 90, Type (0, 0), BuildingBlock: EZIPEK_clean_linker_0, # of connection points: 2
#     Edge 91, Type (0, 0), BuildingBlock: EZIPEK_clean_linker_0, # of connection points: 2
#     Edge 92, Type (0, 0), BuildingBlock: EZIPEK_clean_linker_0, # of connection points: 2
#     Edge 93, Type (0, 0), BuildingBlock: EZIPEK_clean_linker_0, # of connection points: 2
#     Edge 94, Type (0, 0), BuildingBlock: EZIPEK_clean_linker_0, # of connection points: 2
#     Edge 95, Type (0, 0), BuildingBlock: EZIPEK_clean_linker_0, # of connection points: 2
#     Edge 96, Type (0, 0), BuildingBlock: EZIPEK_clean_linker_0, # of connection points: 2
#     Edge 97, Type (0, 0), BuildingBlock: EZIPEK_clean_linker_0, # of connection points: 2
#     Edge 98, Type (0, 0), BuildingBlock: EZIPEK_clean_linker_0, # of connection points: 2
#     Edge 99, Type (0, 0), BuildingBlock: EZIPEK_clean_linker_0, # of connection points: 2
#     Edge 100, Type (0, 0), BuildingBlock: EZIPEK_clean_linker_0, # of connection points: 2
#     Edge 101, Type (0, 0), BuildingBlock: EZIPEK_clean_linker_0, # of connection points: 2
#     Edge 102, Type (0, 0), BuildingBlock: EZIPEK_clean_linker_0, # of connection points: 2
#     Edge 103, Type (0, 0), BuildingBlock: EZIPEK_clean_linker_0, # of connection points: 2
#     Edge 104, Type (0, 0), BuildingBlock: EZIPEK_clean_linker_0, # of connection points: 2
#     Edge 105, Type (0, 0), BuildingBlock: EZIPEK_clean_linker_0, # of connection points: 2
#     Edge 106, Type (0, 0), BuildingBlock: EZIPEK_clean_linker_0, # of connection points: 2
#     Edge 107, Type (0, 0), BuildingBlock: EZIPEK_clean_linker_0, # of connection points: 2
#     Edge 108, Type (0, 0), BuildingBlock: EZIPEK_clean_linker_0, # of connection points: 2
#     Edge 109, Type (0, 0), BuildingBlock: EZIPEK_clean_linker_0, # of connection points: 2
#     Edge 110, Type (0, 0), BuildingBlock: EZIPEK_clean_linker_0, # of connection points: 2
#     Edge 111, Type (0, 0), BuildingBlock: EZIPEK_clean_linker_0, # of connection points: 2
#     Edge 112, Type (0, 0), BuildingBlock: EZIPEK_clean_linker_0, # of connection points: 2
#     Edge 113, Type (0, 0), BuildingBlock: EZIPEK_clean_linker_0, # of connection points: 2
#     Edge 114, Type (0, 0), BuildingBlock: EZIPEK_clean_linker_0, # of connection points: 2
#     Edge 115, Type (0, 0), BuildingBlock: EZIPEK_clean_linker_0, # of connection points: 2
#     Edge 116, Type (0, 0), BuildingBlock: EZIPEK_clean_linker_0, # of connection points: 2
#     Edge 117, Type (0, 0), BuildingBlock: EZIPEK_clean_linker_0, # of connection points: 2
#     Edge 118, Type (0, 0), BuildingBlock: EZIPEK_clean_linker_0, # of connection points: 2
#     Edge 119, Type (0, 0), BuildingBlock: EZIPEK_clean_linker_0, # of connection points: 2
# Relax obj value: 0.227
# Max RMSD: 0.300
# Mean RMSD: 0.292
data_MOF--net-tes--node1-EBIMEJ_clean_sbu_0--edge1-EZIPEK_clean_linker_0
_symmetry_space_group_name_H-M    P1
_symmetry_Int_Tables_number       1
_symmetry_cell_setting            triclinic
loop_
_symmetry_equiv_pos_as_xyz
'x, y, z'
_cell_length_a     38.407941
_cell_length_b     38.112193
_cell_length_c     39.466311
_cell_angle_alpha  91.187852
_cell_angle_beta   91.82354
_cell_angle_gamma 91.549235
loop_
_atom_site_label
_atom_site_type_symbol
_atom_site_fract_x
_atom_site_fract_y
_atom_site_fract_z
_atom_type_partial_charge
Co0 Co 0.09819 0.37666 0.448 0.0
Co1 Co 0.13474 0.41372 0.37922 0.0
Co2 Co 0.14419 0.33709 0.39817 0.0
H3 H 0.12863 0.36624 0.42067 0.0
O4 O 0.14078 0.38578 0.42171 0.0
H5 H 0.15356 0.38465 0.35839 0.0
O6 O 0.14081 0.36554 0.35631 0.0
Co7 Co 0.18693 0.37335 0.33472 0.0
O8 O 0.17378 0.4172 0.30764 0.0
O9 O 0.12961 0.44007 0.33547 0.0
O10 O 0.19566 0.3197 0.33994 0.0
O11 O 0.15422 0.29592 0.37177 0.0
O12 O 0.05644 0.36093 0.47491 0.0
O13 O 0.0774 0.41201 0.48016 0.0
O14 O 0.22035 0.4134 0.35122 0.0
O15 O 0.18353 0.43854 0.38547 0.0
C16 C 0.13856 0.3127 0.4714 0.0
C17 C 0.09719 0.45649 0.42647 0.0
C18 C 0.2269 0.36161 0.28926 0.0
C19 C 0.06702 0.31422 0.41144 0.0
C20 C 0.15027 0.4402 0.3105 0.0
C21 C 0.17927 0.29314 0.35208 0.0
C22 C 0.0545 0.39041 0.48928 0.0
C23 C 0.21345 0.43857 0.37145 0.0
O24 O 0.1193 0.33856 0.47873 0.0
O25 O 0.15018 0.3089 0.44145 0.0
O26 O 0.11931 0.45534 0.40339 0.0
O27 O 0.08797 0.42926 0.44278 0.0
O28 O 0.23426 0.38159 0.31431 0.0
O29 O 0.19715 0.3472 0.29046 0.0
O30 O 0.06372 0.33758 0.43433 0.0
O31 O 0.09386 0.3155 0.39261 0.0
Co32 Co 0.88512 0.94514 0.59299 0.0
Co33 Co 0.9331 0.87485 0.63465 0.0
Co34 Co 0.8533 0.89087 0.64047 0.0
H35 H 0.87984 0.91537 0.62312 0.0
O36 O 0.89967 0.91761 0.63438 0.0
H37 H 0.90474 0.85217 0.65123 0.0
O38 O 0.88557 0.8492 0.63909 0.0
Co39 Co 0.89541 0.82641 0.68319 0.0
O40 O 0.93821 0.79763 0.67193 0.0
O41 O 0.96362 0.83175 0.63419 0.0
O42 O 0.85052 0.84704 0.70099 0.0
O43 O 0.81591 0.86142 0.65711 0.0
O44 O 0.90378 0.95471 0.54653 0.0
O45 O 0.8999 0.99503 0.58241 0.0
O46 O 0.93438 0.84388 0.71601 0.0
O47 O 0.95191 0.88728 0.68371 0.0
C48 C 0.81988 0.9649 0.62806 0.0
C49 C 0.95996 0.92434 0.60453 0.0
C50 C 0.8733 0.77734 0.71535 0.0
C51 C 0.82522 0.90154 0.56756 0.0
C52 C 0.96298 0.80375 0.65177 0.0
C53 C 0.82031 0.85219 0.68761 0.0
C54 C 0.90976 0.9866 0.55352 0.0
C55 C 0.95469 0.87016 0.71152 0.0
O56 O 0.84574 0.97449 0.61064 0.0
O57 O 0.82018 0.93405 0.6416 0.0
O58 O 0.97483 0.90203 0.62193 0.0
O59 O 0.92759 0.91768 0.59973 0.0
O60 O 0.90179 0.79336 0.72186 0.0
O61 O 0.85722 0.7888 0.68989 0.0
O62 O 0.8416 0.93082 0.5652 0.0
O63 O 0.83333 0.88035 0.59164 0.0
Co64 Co 0.43855 0.63896 0.93155 0.0
Co65 Co 0.39343 0.5872 0.86863 0.0
Co66 Co 0.38322 0.6666 0.88038 0.0
H67 H 0.40479 0.64275 0.90441 0.0
O68 O 0.39336 0.62315 0.90763 0.0
H69 H 0.37469 0.61267 0.84493 0.0
O70 O 0.38638 0.63197 0.84135 0.0
Co71 Co 0.34023 0.6192 0.81993 0.0
O72 O 0.35243 0.57416 0.79418 0.0
O73 O 0.39462 0.55322 0.82792 0.0
O74 O 0.31788 0.66154 0.84258 0.0
O75 O 0.36129 0.70019 0.85108 0.0
O76 O 0.48733 0.62115 0.94293 0.0
O77 O 0.45306 0.63392 0.981 0.0
O78 O 0.30771 0.58068 0.83677 0.0
O79 O 0.34391 0.56671 0.87868 0.0
C80 C 0.39598 0.70227 0.95105 0.0
C81 C 0.427 0.56139 0.92236 0.0
C82 C 0.32236 0.64586 0.76717 0.0
C83 C 0.45732 0.70062 0.89006 0.0
C84 C 0.3754 0.55132 0.80055 0.0
C85 C 0.32942 0.69344 0.84336 0.0
C86 C 0.48229 0.62239 0.97422 0.0
C87 C 0.31442 0.56184 0.86228 0.0
O88 O 0.41821 0.6792 0.95905 0.0
O89 O 0.37984 0.70066 0.92167 0.0
O90 O 0.40673 0.55008 0.89876 0.0
O91 O 0.44637 0.58827 0.91685 0.0
O92 O 0.30389 0.62399 0.78245 0.0
O93 O 0.35144 0.65258 0.78155 0.0
O94 O 0.46338 0.68393 0.91712 0.0
O95 O 0.43075 0.69162 0.87048 0.0
Co96 Co 0.64138 0.18257 0.18577 0.0
Co97 Co 0.67946 0.13346 0.12352 0.0
Co98 Co 0.60156 0.13253 0.13311 0.0
H99 H 0.62954 0.14985 0.15854 0.0
O100 O 0.64643 0.13566 0.16212 0.0
H101 H 0.6508 0.1173 0.09838 0.0
O102 O 0.63436 0.13199 0.09502 0.0
Co103 Co 0.63682 0.08575 0.07081 0.0
O104 O 0.67643 0.10709 0.0439 0.0
O105 O 0.71153 0.13191 0.08408 0.0
O106 O 0.58984 0.06919 0.08971 0.0
O107 O 0.56403 0.11923 0.10165 0.0
O108 O 0.65818 0.23199 0.20107 0.0
O109 O 0.65674 0.19128 0.23555 0.0
O110 O 0.67721 0.05316 0.0847 0.0
O111 O 0.69169 0.08182 0.13263 0.0
C112 C 0.56914 0.15067 0.20141 0.0
C113 C 0.71793 0.16949 0.17418 0.0
C114 C 0.60505 0.06411 0.01894 0.0
C115 C 0.58307 0.20891 0.14341 0.0
C116 C 0.70559 0.12166 0.05323 0.0
C117 C 0.56233 0.08679 0.0947 0.0
C118 C 0.663 0.22331 0.23135 0.0
C119 C 0.69587 0.05551 0.1122 0.0
O120 O 0.59532 0.17102 0.20981 0.0
O121 O 0.56841 0.13265 0.17324 0.0
O122 O 0.71822 0.14364 0.15379 0.0
O123 O 0.69303 0.19117 0.17402 0.0
O124 O 0.61289 0.04503 0.04351 0.0
O125 O 0.61445 0.09555 0.02417 0.0
O126 O 0.60096 0.21256 0.17097 0.0
O127 O 0.58828 0.18302 0.12308 0.0
Co128 Co 0.0974 0.63162 0.07393 0.0
Co129 Co 0.13873 0.58635 0.14412 0.0
Co130 Co 0.14398 0.66626 0.132 0.0
H131 H 0.12715 0.63917 0.10553 0.0
O132 O 0.13976 0.62061 0.10407 0.0
H133 H 0.15513 0.61546 0.16884 0.0
O134 O 0.1412 0.63287 0.17093 0.0
Co135 Co 0.18688 0.62843 0.19667 0.0
O136 O 0.17609 0.58184 0.22054 0.0
O137 O 0.13681 0.55503 0.18488 0.0
O138 O 0.20663 0.67389 0.17594 0.0
O139 O 0.15842 0.70248 0.16426 0.0
O140 O 0.05583 0.60531 0.05102 0.0
O141 O 0.09148 0.63287 0.02215 0.0
O142 O 0.22135 0.59114 0.18185 0.0
O143 O 0.18976 0.57158 0.13702 0.0
C144 C 0.13546 0.70044 0.06091 0.0
C145 C 0.10708 0.55778 0.09317 0.0
C146 C 0.20273 0.6628 0.24885 0.0
C147 C 0.06814 0.68896 0.11542 0.0
C148 C 0.15481 0.55612 0.21289 0.0
C149 C 0.19107 0.70229 0.16848 0.0
C150 C 0.06412 0.61423 0.02189 0.0
C151 C 0.21796 0.57088 0.15568 0.0
O152 O 0.11562 0.67498 0.04978 0.0
O153 O 0.14896 0.70035 0.0915 0.0
O154 O 0.12732 0.54522 0.11489 0.0
O155 O 0.09681 0.58822 0.10087 0.0
O156 O 0.2238 0.65517 0.22631 0.0
O157 O 0.17242 0.65144 0.24149 0.0
O158 O 0.06465 0.6692 0.08906 0.0
O159 O 0.09399 0.68488 0.13672 0.0
Co160 Co 0.61986 0.83919 0.33383 0.0
Co161 Co 0.66982 0.87924 0.39869 0.0
Co162 Co 0.59192 0.89125 0.38592 0.0
H163 H 0.61581 0.87172 0.36163 0.0
O164 O 0.63553 0.88282 0.35885 0.0
H165 H 0.64522 0.89942 0.42271 0.0
O166 O 0.62602 0.88748 0.42541 0.0
Co167 Co 0.63862 0.93296 0.44954 0.0
O168 O 0.68471 0.91962 0.47373 0.0
O169 O 0.70317 0.87614 0.44015 0.0
O170 O 0.59517 0.95542 0.42804 0.0
O171 O 0.55891 0.91008 0.416 0.0
O172 O 0.61452 0.78648 0.32186 0.0
O173 O 0.64831 0.82015 0.2963 0.0
O174 O 0.67874 0.9643 0.43284 0.0
O175 O 0.69184 0.92911 0.38983 0.0
C176 C 0.55335 0.87809 0.31589 0.0
C177 C 0.70157 0.85612 0.33819 0.0
C178 C 0.6069 0.95058 0.50027 0.0
C179 C 0.56078 0.81583 0.37508 0.0
C180 C 0.70662 0.89574 0.46722 0.0
C181 C 0.56446 0.94264 0.42055 0.0
C182 C 0.63601 0.78956 0.29869 0.0
C183 C 0.69698 0.95835 0.40691 0.0
O184 O 0.57525 0.85463 0.3083 0.0
O185 O 0.55725 0.89575 0.34437 0.0
O186 O 0.70592 0.86189 0.36979 0.0
O187 O 0.67149 0.85107 0.32327 0.0
O188 O 0.6144 0.9709 0.47676 0.0
O189 O 0.61717 0.92004 0.49497 0.0
O190 O 0.57757 0.81071 0.34828 0.0
O191 O 0.56869 0.84256 0.39474 0.0
Co192 Co 0.3272 0.38005 0.66546 0.0
Co193 Co 0.39215 0.34156 0.62455 0.0
Co194 Co 0.3787 0.41997 0.61928 0.0
H195 H 0.35414 0.39141 0.63478 0.0
O196 O 0.35115 0.37301 0.62166 0.0
H197 H 0.41691 0.36944 0.60888 0.0
O198 O 0.41967 0.38825 0.62144 0.0
Co199 Co 0.44568 0.37943 0.57941 0.0
O200 O 0.47 0.33326 0.59108 0.0
O201 O 0.4341 0.31002 0.62848 0.0
O202 O 0.43998 0.4318 0.569 0.0
O203 O 0.4083 0.45999 0.60721 0.0
O204 O 0.32413 0.3693 0.71554 0.0
O205 O 0.27872 0.37232 0.68505 0.0
O206 O 0.42409 0.34696 0.5429 0.0
O207 O 0.3843 0.32265 0.57524 0.0
C208 C 0.30476 0.44763 0.62993 0.0
C209 C 0.34879 0.30055 0.66451 0.0
C210 C 0.50044 0.39041 0.55071 0.0
C211 C 0.36853 0.44086 0.69344 0.0
C212 C 0.46205 0.30889 0.6115 0.0
C213 C 0.42938 0.46016 0.58297 0.0
C214 C 0.29142 0.3679 0.71433 0.0
C215 C 0.39974 0.32432 0.54672 0.0
O216 O 0.29652 0.41912 0.64499 0.0
O217 O 0.33591 0.45177 0.61878 0.0
O218 O 0.36316 0.302 0.63623 0.0
O219 O 0.33661 0.32803 0.67881 0.0
O220 O 0.4714 0.38493 0.53569 0.0
O221 O 0.49848 0.39011 0.58241 0.0
O222 O 0.34029 0.42307 0.69455 0.0
O223 O 0.38913 0.43607 0.66881 0.0
Co224 Co 0.88977 0.18414 0.82765 0.0
Co225 Co 0.84856 0.14308 0.89169 0.0
Co226 Co 0.92421 0.1317 0.8763 0.0
H227 H 0.89734 0.15072 0.85326 0.0
O228 O 0.87769 0.13908 0.85049 0.0
H229 H 0.8752 0.12146 0.91271 0.0
O230 O 0.89451 0.13323 0.9164 0.0
Co231 Co 0.88456 0.08637 0.93535 0.0
O232 O 0.84105 0.10118 0.96119 0.0
O233 O 0.8216 0.14801 0.93382 0.0
O234 O 0.93313 0.06903 0.92205 0.0
O235 O 0.96261 0.11608 0.90419 0.0
O236 O 0.86216 0.2292 0.82652 0.0
O237 O 0.8892 0.21246 0.78436 0.0
O238 O 0.84632 0.05373 0.91595 0.0
O239 O 0.82223 0.0937 0.88331 0.0
C240 C 0.9566 0.14867 0.80784 0.0
C241 C 0.80866 0.1701 0.83594 0.0
C242 C 0.90092 0.05155 0.98379 0.0
C243 C 0.95132 0.20748 0.87078 0.0
C244 C 0.82008 0.12662 0.9582 0.0
C245 C 0.96174 0.08571 0.91639 0.0
C246 C 0.86976 0.23515 0.7964 0.0
C247 C 0.82171 0.06229 0.89585 0.0
O248 O 0.93404 0.17214 0.8021 0.0
O249 O 0.95477 0.12977 0.83445 0.0
O250 O 0.80971 0.16245 0.86684 0.0
O251 O 0.83617 0.1751 0.81864 0.0
O252 O 0.88302 0.07847 0.98606 0.0
O253 O 0.90993 0.04457 0.95412 0.0
O254 O 0.93402 0.21206 0.84323 0.0
O255 O 0.94338 0.18124 0.88912 0.0
Co256 Co 0.4413 0.09627 0.36412 0.0
Co257 Co 0.38131 0.13959 0.41651 0.0
Co258 Co 0.38737 0.14807 0.33868 0.0
H259 H 0.41418 0.12935 0.36166 0.0
O260 O 0.41934 0.141 0.3804 0.0
H261 H 0.35384 0.15363 0.39119 0.0
O262 O 0.35053 0.14088 0.37294 0.0
Co263 Co 0.32214 0.18145 0.38274 0.0
O264 O 0.29725 0.15782 0.42094 0.0
O265 O 0.34242 0.13774 0.45057 0.0
O266 O 0.33683 0.20679 0.34044 0.0
O267 O 0.35336 0.16486 0.30525 0.0
O268 O 0.44749 0.04476 0.35335 0.0
O269 O 0.48626 0.07447 0.3803 0.0
O270 O 0.33853 0.21528 0.42164 0.0
O271 O 0.39005 0.19159 0.43008 0.0
C272 C 0.45743 0.13829 0.3026 0.0
C273 C 0.43405 0.10904 0.43857 0.0
C274 C 0.26385 0.18958 0.35854 0.0
C275 C 0.39169 0.07192 0.31105 0.0
C276 C 0.30995 0.14503 0.44796 0.0
C277 C 0.33697 0.19291 0.31068 0.0
C278 C 0.47643 0.04482 0.36868 0.0
C279 C 0.36839 0.21577 0.43682 0.0
O280 O 0.46747 0.11695 0.32518 0.0
O281 O 0.42732 0.15305 0.30416 0.0
O282 O 0.41488 0.12997 0.45364 0.0
O283 O 0.42112 0.09772 0.41023 0.0
O284 O 0.28072 0.21212 0.37665 0.0
O285 O 0.28003 0.16186 0.35391 0.0
O286 O 0.42116 0.06703 0.32509 0.0
O287 O 0.3743 0.09914 0.31851 0.0
Co288 Co 0.08173 0.08894 0.64352 0.0
Co289 Co 0.15335 0.12728 0.59709 0.0
Co290 Co 0.13981 0.13862 0.67378 0.0
H291 H 0.11327 0.12001 0.64836 0.0
O292 O 0.11163 0.13111 0.62937 0.0
H293 H 0.17827 0.14481 0.62475 0.0
O294 O 0.18013 0.13251 0.6429 0.0
Co295 Co 0.20706 0.177 0.63574 0.0
O296 O 0.22943 0.16607 0.58996 0.0
O297 O 0.19518 0.12203 0.56862 0.0
O298 O 0.19196 0.19892 0.68052 0.0
O299 O 0.17126 0.15479 0.71053 0.0
O300 O 0.07153 0.04184 0.6199 0.0
O301 O 0.03191 0.07683 0.62789 0.0
O302 O 0.18778 0.21346 0.60375 0.0
O303 O 0.14838 0.17754 0.57904 0.0
C304 C 0.06661 0.13083 0.70592 0.0
C305 C 0.09932 0.1005 0.5698 0.0
C306 C 0.26314 0.19379 0.6642 0.0
C307 C 0.12398 0.06497 0.70109 0.0
C308 C 0.22246 0.14184 0.56758 0.0
C309 C 0.18493 0.18531 0.70891 0.0
C310 C 0.03995 0.04813 0.61463 0.0
C311 C 0.16416 0.20782 0.58085 0.0
O312 O 0.05653 0.10716 0.68419 0.0
O313 O 0.0973 0.14588 0.70466 0.0
O314 O 0.12408 0.11531 0.55578 0.0
O315 O 0.10605 0.09554 0.60094 0.0
O316 O 0.23778 0.21374 0.66127 0.0
O317 O 0.25662 0.16397 0.65105 0.0
O318 O 0.09406 0.06262 0.68625 0.0
O319 O 0.14624 0.08875 0.69226 0.0
Co320 Co 0.18892 0.83533 0.89485 0.0
Co321 Co 0.14557 0.89356 0.84689 0.0
Co322 Co 0.13099 0.88208 0.92184 0.0
H323 H 0.15338 0.85868 0.89882 0.0
O324 O 0.14309 0.85352 0.87936 0.0
H325 H 0.12626 0.91809 0.87095 0.0
O326 O 0.13683 0.92222 0.89041 0.0
Co327 Co 0.0933 0.94475 0.87538 0.0
O328 O 0.10603 0.96905 0.83151 0.0
O329 O 0.1492 0.9353 0.81489 0.0
O330 O 0.06831 0.92722 0.91742 0.0
O331 O 0.10885 0.91213 0.95512 0.0
O332 O 0.23441 0.82211 0.87455 0.0
O333 O 0.21187 0.79077 0.91135 0.0
O334 O 0.06299 0.92634 0.83558 0.0
O335 O 0.09568 0.88055 0.82573 0.0
C336 C 0.1455 0.81288 0.95648 0.0
C337 C 0.18542 0.84052 0.81384 0.0
C338 C 0.07274 1.00157 0.89326 0.0
C339 C 0.21005 0.88551 0.94948 0.0
C340 C 0.13017 0.96237 0.81105 0.0
C341 C 0.08013 0.92678 0.94809 0.0
C342 C 0.23627 0.79448 0.89125 0.0
C343 C 0.06773 0.89794 0.81917 0.0
O344 O 0.17159 0.80926 0.9372 0.0
O345 O 0.12517 0.83909 0.95237 0.0
O346 O 0.16269 0.86387 0.81116 0.0
O347 O 0.19616 0.82913 0.84275 0.0
O348 O 0.05792 0.98206 0.87083 0.0
O349 O 0.09974 0.98873 0.90611 0.0
O350 O 0.22013 0.86269 0.92848 0.0
O351 O 0.1779 0.89499 0.94852 0.0
Co352 Co 0.32959 0.83522 0.11642 0.0
Co353 Co 0.36782 0.89374 0.16952 0.0
Co354 Co 0.39126 0.88153 0.09649 0.0
H355 H 0.36622 0.85827 0.11658 0.0
O356 O 0.3742 0.85344 0.13681 0.0
H357 H 0.39029 0.91833 0.14839 0.0
O358 O 0.38236 0.92208 0.12799 0.0
Co359 Co 0.42485 0.94495 0.14837 0.0
O360 O 0.40431 0.97184 0.18736 0.0
O361 O 0.36023 0.93593 0.20095 0.0
O362 O 0.45548 0.9221 0.1138 0.0
O363 O 0.4207 0.91058 0.06826 0.0
O364 O 0.27693 0.8325 0.11965 0.0
O365 O 0.30508 0.78847 0.10617 0.0
O366 O 0.45189 0.92851 0.189 0.0
O367 O 0.41451 0.88462 0.19823 0.0
C368 C 0.37683 0.81285 0.05835 0.0
C369 C 0.32972 0.83423 0.1958 0.0
C370 C 0.4552 0.99899 0.13625 0.0
C371 C 0.31454 0.88514 0.06458 0.0
C372 C 0.37848 0.96454 0.20559 0.0
C373 C 0.45057 0.91855 0.08178 0.0
C374 C 0.27546 0.80062 0.11071 0.0
C375 C 0.44333 0.90221 0.20627 0.0
O376 O 0.34892 0.80872 0.07497 0.0
O377 O 0.39845 0.83864 0.06555 0.0
O378 O 0.34565 0.86342 0.20194 0.0
O379 O 0.32536 0.8212 0.16576 0.0
O380 O 0.46978 0.97007 0.13924 0.0
O381 O 0.42285 0.99743 0.13994 0.0
O382 O 0.30217 0.87011 0.09 0.0
O383 O 0.34792 0.89096 0.06384 0.0
Co384 Co 0.39152 0.44014 0.0854 0.0
Co385 Co 0.43543 0.37759 0.12723 0.0
Co386 Co 0.3595 0.3928 0.13996 0.0
H387 H 0.38507 0.41573 0.11924 0.0
O388 O 0.40496 0.41948 0.1299 0.0
H389 H 0.40967 0.35441 0.14698 0.0
O390 O 0.3898 0.35104 0.13635 0.0
Co391 Co 0.40276 0.32875 0.17977 0.0
O392 O 0.44569 0.30163 0.16515 0.0
O393 O 0.46534 0.33483 0.12344 0.0
O394 O 0.3597 0.35105 0.20047 0.0
O395 O 0.32262 0.36458 0.15882 0.0
O396 O 0.37792 0.45566 0.03766 0.0
O397 O 0.42019 0.47953 0.06505 0.0
O398 O 0.4432 0.34629 0.20928 0.0
O399 O 0.45896 0.38888 0.17489 0.0
C400 C 0.32957 0.46576 0.12692 0.0
C401 C 0.47159 0.42227 0.08316 0.0
C402 C 0.37717 0.28087 0.21139 0.0
C403 C 0.3312 0.39416 0.06575 0.0
C404 C 0.46754 0.30771 0.14198 0.0
C405 C 0.32863 0.35282 0.18805 0.0
C406 C 0.40191 0.47869 0.03805 0.0
C407 C 0.46284 0.37248 0.20315 0.0
O408 O 0.35275 0.4715 0.10473 0.0
O409 O 0.32919 0.43663 0.14317 0.0
O410 O 0.4733 0.40477 0.11 0.0
O411 O 0.44262 0.43304 0.07055 0.0
O412 O 0.40277 0.29947 0.22219 0.0
O413 O 0.36676 0.28877 0.18213 0.0
O414 O 0.34938 0.42104 0.05861 0.0
O415 O 0.3358 0.37888 0.09411 0.0
Co416 Co 0.8275 0.88321 0.18055 0.0
Co417 Co 0.89691 0.83502 0.13837 0.0
Co418 Co 0.87958 0.9147 0.13119 0.0
H419 H 0.85593 0.88784 0.14945 0.0
O420 O 0.85384 0.86777 0.13852 0.0
H421 H 0.91888 0.86397 0.12119 0.0
O422 O 0.92164 0.88319 0.13334 0.0
Co423 Co 0.94364 0.87462 0.08903 0.0
O424 O 0.97622 0.83809 0.10885 0.0
O425 O 0.94036 0.80444 0.13755 0.0
O426 O 0.92002 0.91812 0.07099 0.0
O427 O 0.90806 0.95299 0.11462 0.0
O428 O 0.82131 0.85902 0.22569 0.0
O429 O 0.78043 0.88633 0.20315 0.0
O430 O 0.92823 0.83351 0.05796 0.0
O431 O 0.88458 0.81588 0.08934 0.0
C432 C 0.80506 0.94624 0.14086 0.0
C433 C 0.84917 0.80881 0.17224 0.0
C434 C 0.98731 0.89896 0.05141 0.0
C435 C 0.86993 0.94355 0.20426 0.0
C436 C 0.97038 0.80975 0.12453 0.0
C437 C 0.91757 0.94872 0.08445 0.0
C438 C 0.7905 0.86857 0.22781 0.0
C439 C 0.90217 0.81289 0.06202 0.0
O440 O 0.79694 0.92242 0.16188 0.0
O441 O 0.83546 0.94616 0.12712 0.0
O442 O 0.87003 0.79393 0.15324 0.0
O443 O 0.85674 0.84107 0.17787 0.0
O444 O 0.96403 0.87678 0.04205 0.0
O445 O 0.98559 0.90781 0.08216 0.0
O446 O 0.84089 0.92744 0.20656 0.0
O447 O 0.89031 0.93575 0.17983 0.0
Co448 Co 0.14407 0.67845 0.69211 0.0
Co449 Co 0.17494 0.63847 0.62191 0.0
Co450 Co 0.10035 0.62744 0.64284 0.0
H451 H 0.13038 0.64608 0.66495 0.0
O452 O 0.1493 0.63426 0.66527 0.0
H453 H 0.1451 0.61698 0.60202 0.0
O454 O 0.12658 0.62935 0.60055 0.0
Co455 Co 0.13118 0.5823 0.5783 0.0
O456 O 0.17074 0.59859 0.54787 0.0
O457 O 0.19958 0.64111 0.57777 0.0
O458 O 0.08402 0.56443 0.59711 0.0
O459 O 0.05902 0.61259 0.61672 0.0
O460 O 0.15166 0.70796 0.73562 0.0
O461 O 0.16848 0.72675 0.68934 0.0
O462 O 0.17071 0.55063 0.59419 0.0
O463 O 0.19764 0.58995 0.62902 0.0
C464 C 0.07689 0.64031 0.71517 0.0
C465 C 0.22236 0.66733 0.67438 0.0
C466 C 0.10561 0.55555 0.52603 0.0
C467 C 0.08018 0.70406 0.65704 0.0
C468 C 0.19583 0.62131 0.55118 0.0
C469 C 0.05687 0.58155 0.60485 0.0
C470 C 0.16603 0.73286 0.72058 0.0
C471 C 0.1958 0.55897 0.61504 0.0
O472 O 0.1029 0.66172 0.72145 0.0
O473 O 0.07353 0.62397 0.68642 0.0
O474 O 0.2168 0.65763 0.644 0.0
O475 O 0.19789 0.67233 0.69535 0.0
O476 O 0.11705 0.53815 0.55049 0.0
O477 O 0.10745 0.58808 0.53168 0.0
O478 O 0.10247 0.70836 0.68135 0.0
O479 O 0.08156 0.67719 0.63685 0.0
Co480 Co 0.58444 0.88331 0.93899 0.0
Co481 Co 0.62751 0.92619 0.87803 0.0
Co482 Co 0.63696 0.84827 0.892 0.0
H483 H 0.61771 0.87491 0.91449 0.0
O484 O 0.6295 0.89444 0.91812 0.0
H485 H 0.64564 0.89898 0.85554 0.0
O486 O 0.63337 0.87969 0.85199 0.0
Co487 Co 0.67884 0.89108 0.83124 0.0
O488 O 0.65285 0.92309 0.79893 0.0
O489 O 0.62673 0.95749 0.83613 0.0
O490 O 0.69845 0.84571 0.84907 0.0
O491 O 0.65387 0.81112 0.86354 0.0
O492 O 0.54029 0.89234 0.96393 0.0
O493 O 0.58859 0.88986 0.9904 0.0
O494 O 0.70967 0.9333 0.84712 0.0
O495 O 0.67734 0.94789 0.89029 0.0
C496 C 0.62254 0.81532 0.95983 0.0
C497 C 0.58489 0.96452 0.92344 0.0
C498 C 0.72062 0.87707 0.78838 0.0
C499 C 0.55702 0.82501 0.89476 0.0
C500 C 0.63806 0.95173 0.80613 0.0
C501 C 0.68451 0.81539 0.85332 0.0
C502 C 0.55639 0.89392 0.99217 0.0
C503 C 0.70506 0.95284 0.87296 0.0
O504 O 0.59835 0.83754 0.96428 0.0
O505 O 0.64206 0.81766 0.93391 0.0
O506 O 0.61141 0.96458 0.9051 0.0
O507 O 0.57129 0.93607 0.935 0.0
O508 O 0.72857 0.87986 0.81948 0.0
O509 O 0.68888 0.88137 0.78167 0.0
O510 O 0.54938 0.85175 0.91248 0.0
O511 O 0.58848 0.82274 0.88445 0.0
Co512 Co 0.93012 0.13844 0.45402 0.0
Co513 Co 0.88986 0.08678 0.38231 0.0
Co514 Co 0.8834 0.16798 0.397 0.0
H515 H 0.89992 0.14241 0.42276 0.0
O516 O 0.88809 0.12265 0.42382 0.0
H517 H 0.87415 0.11474 0.35908 0.0
O518 O 0.88722 0.1336 0.35725 0.0
Co519 Co 0.84197 0.12312 0.33197 0.0
O520 O 0.85441 0.07904 0.30452 0.0
O521 O 0.89245 0.05466 0.34013 0.0
O522 O 0.82601 0.17336 0.3431 0.0
O523 O 0.87053 0.20475 0.36649 0.0
O524 O 0.98042 0.12807 0.46619 0.0
O525 O 0.94181 0.12032 0.50131 0.0
O526 O 0.80598 0.08613 0.34719 0.0
O527 O 0.83913 0.06829 0.38974 0.0
C528 C 0.8918 0.20586 0.46788 0.0
C529 C 0.91576 0.06194 0.43388 0.0
C530 C 0.81365 0.1399 0.27939 0.0
C531 C 0.9618 0.19342 0.41347 0.0
C532 C 0.87557 0.05472 0.3114 0.0
C533 C 0.8419 0.20292 0.34984 0.0
C534 C 0.97338 0.11734 0.49503 0.0
C535 C 0.81006 0.06613 0.37242 0.0
O536 O 0.91405 0.18359 0.47816 0.0
O537 O 0.87648 0.20196 0.43821 0.0
O538 O 0.90095 0.04547 0.40976 0.0
O539 O 0.91931 0.09447 0.42861 0.0
O540 O 0.79995 0.14214 0.30786 0.0
O541 O 0.84388 0.12819 0.2806 0.0
O542 O 0.96592 0.17225 0.43746 0.0
O543 O 0.93371 0.19086 0.39424 0.0
Co544 Co 0.58629 0.13036 0.56784 0.0
Co545 Co 0.62757 0.0917 0.63493 0.0
Co546 Co 0.63601 0.16898 0.6214 0.0
H547 H 0.61812 0.14091 0.59656 0.0
O548 O 0.63044 0.12233 0.59448 0.0
H549 H 0.6477 0.12006 0.65773 0.0
O550 O 0.63473 0.13795 0.66086 0.0
Co551 Co 0.68184 0.1328 0.68238 0.0
O552 O 0.66606 0.0901 0.70993 0.0
O553 O 0.62481 0.06235 0.67715 0.0
O554 O 0.69915 0.1812 0.66515 0.0
O555 O 0.64999 0.20755 0.65136 0.0
O556 O 0.54219 0.11297 0.54211 0.0
O557 O 0.58791 0.12328 0.51624 0.0
O558 O 0.71377 0.09433 0.66583 0.0
O559 O 0.67635 0.07105 0.627 0.0
C560 C 0.62273 0.201 0.55167 0.0
C561 C 0.58412 0.05038 0.58843 0.0
C562 C 0.70843 0.15957 0.73384 0.0
C563 C 0.56081 0.19107 0.60824 0.0
C564 C 0.64348 0.06498 0.70477 0.0
C565 C 0.68162 0.20909 0.66082 0.0
C566 C 0.55638 0.11387 0.51385 0.0
C567 C 0.70639 0.07129 0.64265 0.0
O568 O 0.60049 0.17623 0.54389 0.0
O569 O 0.63963 0.20096 0.58034 0.0
O570 O 0.61098 0.05219 0.60783 0.0
O571 O 0.57095 0.0777 0.57474 0.0
O572 O 0.72527 0.14353 0.71189 0.0
O573 O 0.67652 0.16108 0.72639 0.0
O574 O 0.55769 0.17299 0.58073 0.0
O575 O 0.58592 0.18476 0.62937 0.0
Co576 Co 0.13172 0.32366 0.83722 0.0
Co577 Co 0.18394 0.36999 0.89324 0.0
Co578 Co 0.1055 0.37994 0.88518 0.0
H579 H 0.12827 0.35913 0.86111 0.0
O580 O 0.14723 0.37026 0.85577 0.0
H581 H 0.15993 0.38898 0.91817 0.0
O582 O 0.14134 0.37682 0.92268 0.0
Co583 Co 0.15364 0.42321 0.94378 0.0
O584 O 0.18663 0.39356 0.97221 0.0
O585 O 0.22008 0.37166 0.93258 0.0
O586 O 0.10909 0.44472 0.92472 0.0
O587 O 0.07282 0.39914 0.91588 0.0
O588 O 0.11382 0.27311 0.8284 0.0
O589 O 0.16635 0.28579 0.82814 0.0
O590 O 0.1943 0.4532 0.92747 0.0
O591 O 0.20196 0.42044 0.88146 0.0
C592 C 0.06737 0.36544 0.81689 0.0
C593 C 0.21148 0.34608 0.83085 0.0
C594 C 0.13685 0.46597 0.98648 0.0
C595 C 0.07096 0.30674 0.87733 0.0
C596 C 0.21578 0.38145 0.96358 0.0
C597 C 0.0782 0.43144 0.92186 0.0
C598 C 0.14348 0.26232 0.82234 0.0
C599 C 0.2095 0.44848 0.89963 0.0
O600 O 0.08937 0.34183 0.80975 0.0
O601 O 0.07038 0.38339 0.84506 0.0
O602 O 0.21856 0.35367 0.86187 0.0
O603 O 0.18048 0.33754 0.81937 0.0
O604 O 0.14399 0.47373 0.95667 0.0
O605 O 0.13879 0.43376 0.9921 0.0
O606 O 0.08661 0.2998 0.85035 0.0
O607 O 0.08191 0.33249 0.89675 0.0
Co608 Co 0.38054 0.68764 0.32837 0.0
Co609 Co 0.33914 0.63768 0.38602 0.0
Co610 Co 0.41708 0.6348 0.3756 0.0
H611 H 0.39007 0.6534 0.35221 0.0
O612 O 0.37187 0.64003 0.34739 0.0
H613 H 0.3667 0.62082 0.40985 0.0
O614 O 0.38464 0.63464 0.41403 0.0
Co615 Co 0.37731 0.58851 0.43561 0.0
O616 O 0.34046 0.61048 0.46501 0.0
O617 O 0.30707 0.63604 0.42599 0.0
O618 O 0.42315 0.57119 0.41669 0.0
O619 O 0.45447 0.61919 0.40512 0.0
O620 O 0.38972 0.73499 0.30607 0.0
O621 O 0.34503 0.70431 0.29371 0.0
O622 O 0.33598 0.55652 0.42013 0.0
O623 O 0.32273 0.58603 0.37388 0.0
C624 C 0.44739 0.6508 0.30676 0.0
C625 C 0.2994 0.68063 0.34401 0.0
C626 C 0.4007 0.55673 0.484 0.0
C627 C 0.44297 0.71144 0.36992 0.0
C628 C 0.31206 0.62489 0.45621 0.0
C629 C 0.45242 0.58782 0.41483 0.0
C630 C 0.36212 0.73202 0.28821 0.0
C631 C 0.31787 0.55908 0.39279 0.0
O632 O 0.42257 0.6719 0.30056 0.0
O633 O 0.44907 0.63421 0.3349 0.0
O634 O 0.30051 0.65085 0.35749 0.0
O635 O 0.32731 0.69762 0.33581 0.0
O636 O 0.38451 0.542 0.4592 0.0
O637 O 0.40427 0.58934 0.48104 0.0
O638 O 0.42496 0.71571 0.34276 0.0
O639 O 0.43562 0.68505 0.38852 0.0
Co640 Co 0.94524 0.58227 0.87766 0.0
Co641 Co 0.88352 0.62661 0.92841 0.0
Co642 Co 0.89399 0.6351 0.85067 0.0
H643 H 0.91881 0.61569 0.87474 0.0
O644 O 0.92322 0.62705 0.89378 0.0
H645 H 0.85802 0.6413 0.90195 0.0
O646 O 0.85465 0.6291 0.88328 0.0
Co647 Co 0.82926 0.67193 0.89407 0.0
O648 O 0.80084 0.63935 0.92362 0.0
O649 O 0.84275 0.6258 0.96036 0.0
O650 O 0.84093 0.69343 0.84894 0.0
O651 O 0.86339 0.65284 0.81515 0.0
O652 O 0.94818 0.52939 0.87582 0.0
O653 O 0.99018 0.56159 0.89434 0.0
O654 O 0.84219 0.70328 0.93544 0.0
O655 O 0.8927 0.67856 0.94409 0.0
C656 C 0.96591 0.62531 0.8179 0.0
C657 C 0.93626 0.59723 0.95222 0.0
C658 C 0.78458 0.71354 0.88194 0.0
C659 C 0.90078 0.56002 0.81975 0.0
C660 C 0.8103 0.6301 0.95327 0.0
C661 C 0.84918 0.68208 0.81979 0.0
C662 C 0.97854 0.53093 0.88833 0.0
C663 C 0.8712 0.70273 0.95174 0.0
O664 O 0.97361 0.60181 0.83929 0.0
O665 O 0.93634 0.64107 0.81917 0.0
O666 O 0.91536 0.61649 0.96705 0.0
O667 O 0.92447 0.58565 0.92349 0.0
O668 O 0.81577 0.72245 0.88888 0.0
O669 O 0.77891 0.68093 0.8807 0.0
O670 O 0.93007 0.5557 0.8346 0.0
O671 O 0.88195 0.5859 0.82887 0.0
Co672 Co 0.5726 0.5844 0.14251 0.0
Co673 Co 0.63672 0.62603 0.08981 0.0
Co674 Co 0.62517 0.64237 0.16623 0.0
H675 H 0.5995 0.6196 0.14313 0.0
O676 O 0.59581 0.62908 0.12344 0.0
H677 H 0.6614 0.64602 0.11542 0.0
O678 O 0.66467 0.63567 0.13455 0.0
Co679 Co 0.68887 0.67976 0.12246 0.0
O680 O 0.71672 0.65883 0.08384 0.0
O681 O 0.67797 0.62028 0.06017 0.0
O682 O 0.6714 0.70499 0.16476 0.0
O683 O 0.65664 0.66409 0.20071 0.0
O684 O 0.57903 0.53703 0.11952 0.0
O685 O 0.52986 0.55135 0.1354 0.0
O686 O 0.67212 0.71098 0.08513 0.0
O687 O 0.62831 0.67531 0.06807 0.0
C688 C 0.55429 0.63163 0.20134 0.0
C689 C 0.58557 0.59098 0.06733 0.0
C690 C 0.73857 0.71659 0.13982 0.0
C691 C 0.61741 0.56994 0.19999 0.0
C692 C 0.70802 0.63558 0.06116 0.0
C693 C 0.67029 0.694 0.19507 0.0
C694 C 0.54742 0.52857 0.12078 0.0
C695 C 0.64621 0.70444 0.0651 0.0
O696 O 0.54625 0.60506 0.18202 0.0
O697 O 0.58323 0.64933 0.19764 0.0
O698 O 0.60708 0.60847 0.05119 0.0
O699 O 0.59459 0.5886 0.09831 0.0
O700 O 0.71118 0.72768 0.1261 0.0
O701 O 0.73802 0.68394 0.14373 0.0
O702 O 0.58725 0.56358 0.1869 0.0
O703 O 0.63655 0.59537 0.1891 0.0
Co704 Co 0.68635 0.32989 0.38814 0.0
Co705 Co 0.64656 0.39795 0.33782 0.0
Co706 Co 0.63713 0.38511 0.41441 0.0
H707 H 0.6549 0.35913 0.39032 0.0
O708 O 0.64384 0.35608 0.3709 0.0
H709 H 0.62876 0.42194 0.36427 0.0
O710 O 0.64139 0.42536 0.38264 0.0
Co711 Co 0.59594 0.44779 0.37382 0.0
O712 O 0.61122 0.47535 0.33215 0.0
O713 O 0.64994 0.44056 0.30815 0.0
O714 O 0.57599 0.4299 0.41882 0.0
O715 O 0.62278 0.4167 0.44974 0.0
O716 O 0.73511 0.3246 0.37158 0.0
O717 O 0.70561 0.28071 0.38673 0.0
O718 O 0.56443 0.43315 0.33358 0.0
O719 O 0.59645 0.38847 0.3181 0.0
C720 C 0.64397 0.31154 0.44783 0.0
C721 C 0.67763 0.34626 0.3137 0.0
C722 C 0.56226 0.49648 0.39356 0.0
C723 C 0.71032 0.37517 0.44474 0.0
C724 C 0.63261 0.46891 0.30869 0.0
C725 C 0.59137 0.42527 0.44765 0.0
C726 C 0.73386 0.29207 0.37551 0.0
C727 C 0.56906 0.40696 0.314 0.0
O728 O 0.66562 0.30165 0.42595 0.0
O729 O 0.63112 0.34268 0.44669 0.0
O730 O 0.65978 0.36841 0.29864 0.0
O731 O 0.68444 0.35497 0.34449 0.0
O732 O 0.54904 0.46748 0.38348 0.0
O733 O 0.59496 0.49787 0.39326 0.0
O734 O 0.71235 0.34455 0.43179 0.0
O735 O 0.68687 0.39583 0.43357 0.0
Co736 Co 0.93584 0.43563 0.65252 0.0
Co737 Co 0.8767 0.39852 0.60073 0.0
Co738 Co 0.88345 0.38085 0.67606 0.0
H739 H 0.90963 0.4011 0.6547 0.0
O740 O 0.91433 0.3907 0.63571 0.0
H741 H 0.84959 0.37859 0.62208 0.0
O742 O 0.84558 0.38885 0.64132 0.0
Co743 Co 0.82032 0.34592 0.62491 0.0
O744 O 0.80066 0.36237 0.57931 0.0
O745 O 0.83726 0.40633 0.56613 0.0
O746 O 0.82819 0.32153 0.67048 0.0
O747 O 0.85048 0.36156 0.70761 0.0
O748 O 0.92933 0.47905 0.6227 0.0
O749 O 0.95542 0.48286 0.66926 0.0
O750 O 0.84212 0.31174 0.59269 0.0
O751 O 0.88275 0.34948 0.57592 0.0
C752 C 0.95453 0.39044 0.71315 0.0
C753 C 0.94328 0.41799 0.57681 0.0
C754 C 0.75913 0.32661 0.62799 0.0
C755 C 0.8945 0.45465 0.71002 0.0
C756 C 0.80961 0.38715 0.55989 0.0
C757 C 0.83296 0.33333 0.70101 0.0
C758 C 0.94569 0.49921 0.64354 0.0
C759 C 0.86661 0.31907 0.57292 0.0
O760 O 0.96308 0.41435 0.69235 0.0
O761 O 0.92448 0.37411 0.71023 0.0
O762 O 0.9108 0.41745 0.56947 0.0
O763 O 0.95518 0.41776 0.6076 0.0
O764 O 0.7781 0.32092 0.60327 0.0
O765 O 0.77551 0.34331 0.65151 0.0
O766 O 0.92321 0.45992 0.696 0.0
O767 O 0.8742 0.42874 0.69998 0.0
C768 C 0.19777 0.23824 0.37965 0.0
C769 C 0.19333 0.25767 0.34945 0.0
C770 C 0.2207 0.21112 0.31773 0.0
C771 C 0.22746 0.19462 0.34877 0.0
N772 N 0.20543 0.18055 0.40275 0.0
N773 N 0.18604 0.25421 0.28844 0.0
C774 C 0.20791 0.20329 0.37675 0.0
C775 C 0.1999 0.24139 0.31773 0.0
N776 N 0.19706 0.25414 0.41088 0.0
N777 N 0.23634 0.1994 0.28933 0.0
H778 H 0.1703 0.27611 0.28833 0.0
H779 H 0.18834 0.24162 0.26495 0.0
H780 H 0.25149 0.17703 0.28979 0.0
H781 H 0.23495 0.21224 0.26631 0.0
H782 H 0.20072 0.24074 0.43338 0.0
H783 H 0.19818 0.28135 0.41393 0.0
H784 H 0.1904 0.18557 0.42377 0.0
H785 H 0.21608 0.15564 0.40112 0.0
C786 C 1.00654 0.96105 0.57997 0.0
C787 C 0.97702 0.95857 0.60053 0.0
C788 C 0.98101 0.02097 0.61267 0.0
C789 C 0.01468 0.02204 0.5996 0.0
N790 N 0.05816 0.99479 0.5658 0.0
N791 N 0.94478 0.98443 0.64605 0.0
C792 C 0.02685 0.99267 0.58113 0.0
C793 C 0.96619 0.98803 0.61938 0.0
N794 N 0.0152 0.93314 0.55985 0.0
N795 N 0.96389 0.05091 0.62005 0.0
H796 H 0.93908 0.96012 0.65624 0.0
H797 H 0.93796 1.0056 0.66139 0.0
H798 H 0.97276 0.07546 0.61238 0.0
H799 H 0.93872 0.05051 0.62922 0.0
H800 H 0.03456 0.93426 0.54203 0.0
H801 H 1.00092 0.90944 0.55885 0.0
H802 H 0.07076 0.97334 0.55566 0.0
H803 H 0.07208 0.0184 0.56396 0.0
C804 C 0.29553 0.77653 0.87926 0.0
C805 C 0.25993 0.76689 0.88176 0.0
C806 C 0.26821 0.71363 0.84786 0.0
C807 C 0.30437 0.72197 0.84801 0.0
N808 N 0.34735 0.76923 0.84728 0.0
N809 N 0.21182 0.72523 0.87027 0.0
C810 C 0.31676 0.75578 0.85893 0.0
C811 C 0.24606 0.73498 0.86687 0.0
N812 N 0.30917 0.8051 0.89707 0.0
N813 N 0.25474 0.68766 0.82649 0.0
H814 H 0.19353 0.74085 0.88157 0.0
H815 H 0.20173 0.70026 0.8639 0.0
H816 H 0.26963 0.67608 0.80795 0.0
H817 H 0.22834 0.68117 0.8234 0.0
H818 H 0.33579 0.8112 0.89885 0.0
H819 H 0.29425 0.82046 0.91296 0.0
H820 H 0.35637 0.79485 0.85253 0.0
H821 H 0.3609 0.75654 0.8283 0.0
C822 C 0.47089 0.05076 0.10214 0.0
C823 C 0.47567 0.03098 0.13174 0.0
C824 C 0.53569 0.05158 0.13944 0.0
C825 C 0.53207 0.06879 0.10799 0.0
N826 N 0.49458 0.09529 0.0659 0.0
N827 N 0.50634 0.02135 0.18441 0.0
C828 C 0.49899 0.07208 0.09155 0.0
C829 C 0.50612 0.0347 0.15248 0.0
N830 N 0.4408 0.04702 0.08285 0.0
N831 N 0.56721 0.05133 0.15664 0.0
H832 H 0.48391 0.01039 0.19472 0.0
H833 H 0.52749 0.02304 0.20148 0.0
H834 H 0.5888 0.06662 0.1502 0.0
H835 H 0.57249 0.03529 0.17707 0.0
H836 H 0.43783 0.05689 0.05855 0.0
H837 H 0.41909 0.0327 0.09057 0.0
H838 H 0.47028 0.10134 0.05549 0.0
H839 H 0.51501 0.11044 0.05655 0.0
C840 C 0.20306 0.76438 0.15461 0.0
C841 C 0.20919 0.72826 0.14841 0.0
C842 C 0.24591 0.74282 0.10119 0.0
C843 C 0.24391 0.7783 0.11151 0.0
N844 N 0.20585 0.82261 0.13127 0.0
N845 N 0.22327 0.6835 0.10651 0.0
C846 C 0.2173 0.7891 0.13259 0.0
C847 C 0.22666 0.71733 0.11878 0.0
N848 N 0.18488 0.77511 0.182 0.0
N849 N 0.26655 0.73392 0.07499 0.0
H850 H 0.20722 0.66443 0.117 0.0
H851 H 0.2333 0.67501 0.08367 0.0
H852 H 0.27744 0.75292 0.05951 0.0
H853 H 0.27315 0.7083 0.0689 0.0
H854 H 0.18295 0.80143 0.18918 0.0
H855 H 0.17393 0.75776 0.19902 0.0
H856 H 0.18475 0.83132 0.14477 0.0
H857 H 0.21476 0.84004 0.11318 0.0
C858 C 0.55265 0.98683 0.37684 0.0
C859 C 0.54006 0.96484 0.4026 0.0
C860 C 0.48139 0.98575 0.39286 0.0
C861 C 0.49614 0.01347 0.37415 0.0
N862 N 0.54423 0.03944 0.34485 0.0
N863 N 0.4917 0.94 0.43298 0.0
C864 C 0.53132 0.01364 0.36493 0.0
C865 C 0.50406 0.96273 0.40951 0.0
N866 N 0.5839 0.98069 0.36239 0.0
N867 N 0.44606 0.98161 0.39521 0.0
H868 H 0.5066 0.92084 0.44436 0.0
H869 H 0.46694 0.94132 0.44284 0.0
H870 H 0.42812 0.9986 0.38484 0.0
H871 H 0.43405 0.9594 0.40505 0.0
H872 H 0.59296 0.99434 0.3417 0.0
H873 H 0.59881 0.95897 0.36803 0.0
H874 H 0.57073 0.0436 0.34109 0.0
H875 H 0.52836 0.05755 0.33285 0.0
C876 C 0.35053 0.23489 0.65866 0.0
C877 C 0.34192 0.26493 0.67816 0.0
C878 C 0.29788 0.23045 0.70573 0.0
C879 C 0.29737 0.20678 0.67758 0.0
N880 N 0.32932 0.17998 0.63261 0.0
N881 N 0.32289 0.28264 0.7333 0.0
C882 C 0.32632 0.20619 0.65631 0.0
C883 C 0.32073 0.25995 0.70618 0.0
N884 N 0.38199 0.2337 0.64367 0.0
N885 N 0.27575 0.22596 0.73152 0.0
H886 H 0.34179 0.30284 0.73525 0.0
H887 H 0.30782 0.27914 0.75459 0.0
H888 H 0.25878 0.20421 0.73272 0.0
H889 H 0.25878 0.20421 0.73272 0.0
H890 H 0.39063 0.21166 0.63072 0.0
H891 H 0.40102 0.25343 0.64817 0.0
H892 H 0.34717 0.18103 0.61329 0.0
H893 H 0.31377 0.15716 0.63232 0.0
C894 C 0.04474 0.03797 0.93721 0.0
C895 C 0.057 0.03429 0.90384 0.0
C896 C 1.00676 0.06227 0.88025 0.0
C897 C 0.99375 0.06637 0.91318 0.0
N898 N 1.00299 0.06515 0.97383 0.0
N899 N 0.05806 0.05575 0.84724 0.0
C900 C 0.01368 0.0566 0.94213 0.0
C901 C 0.04119 0.05204 0.87691 0.0
N902 N 0.0616 0.02222 0.96351 0.0
N903 N 0.98529 0.06502 0.85224 0.0
H904 H 0.08351 0.04731 0.84464 0.0
H905 H 0.04803 0.06987 0.82698 0.0
H906 H 0.9585 0.06811 0.85405 0.0
H907 H 0.99324 0.05985 0.82767 0.0
H908 H 0.05138 0.0199 0.98751 0.0
H909 H 0.08578 0.01087 0.96095 0.0
H910 H 0.01788 0.06124 0.99587 0.0
H911 H 0.97997 0.07831 0.97779 0.0
C912 C 0.3495 0.2229 0.22423 0.0
C913 C 0.35666 0.25868 0.23341 0.0
C914 C 0.32676 0.25121 0.2863 0.0
C915 C 0.3288 0.21477 0.28114 0.0
N916 N 0.32268 0.16736 0.24048 0.0
N917 N 0.34957 0.30815 0.27244 0.0
C918 C 0.33358 0.20104 0.24822 0.0
C919 C 0.34406 0.27344 0.26399 0.0
N920 N 0.36044 0.20938 0.19415 0.0
N921 N 0.30738 0.26419 0.31181 0.0
H922 H 0.36052 0.32637 0.25647 0.0
H923 H 0.34485 0.31875 0.29634 0.0
H924 H 0.2915 0.24774 0.3257 0.0
H925 H 0.30309 0.29079 0.31586 0.0
H926 H 0.35909 0.18277 0.18765 0.0
H927 H 0.37274 0.22455 0.17613 0.0
H928 H 0.32344 0.15586 0.21638 0.0
H929 H 0.30955 0.15216 0.25802 0.0
C930 C 0.03792 0.12125 0.56586 0.0
C931 C 0.06435 0.09955 0.55348 0.0
C932 C 0.02681 0.08286 0.5044 0.0
C933 C 1.0001 0.10337 0.51822 0.0
N934 N 0.97624 0.13009 0.56825 0.0
N935 N 0.08321 0.05664 0.51263 0.0
C936 C 1.00406 0.11789 0.55132 0.0
C937 C 0.05841 0.07908 0.52336 0.0
N938 N 0.04576 0.14801 0.58851 0.0
N939 N 0.02232 0.06809 0.47266 0.0
H940 H 0.10717 0.05404 0.52542 0.0
H941 H 0.07912 0.03839 0.49284 0.0
H942 H 0.99867 0.06836 0.45907 0.0
H943 H 0.04213 0.05676 0.45918 0.0
H944 H 0.0275 0.16589 0.59652 0.0
H945 H 0.07123 0.15619 0.59428 0.0
H946 H 0.97837 0.13914 0.59337 0.0
H947 H 0.9506 0.12666 0.55927 0.0
C948 C 0.21552 0.79196 0.78414 0.0
C949 C 0.19493 0.82169 0.78205 0.0
C950 C 0.16646 0.79805 0.73 0.0
C951 C 0.1799 0.76475 0.73818 0.0
N952 N 0.22181 0.7315 0.77135 0.0
N953 N 0.16921 0.86096 0.74217 0.0
C954 C 0.20597 0.76211 0.76429 0.0
C955 C 0.17618 0.82746 0.75128 0.0
N956 N 0.24515 0.79284 0.80393 0.0
N957 N 0.14288 0.80109 0.70361 0.0
H958 H 0.17926 0.88262 0.75628 0.0
H959 H 0.15739 0.86742 0.71912 0.0
H960 H 0.13472 0.78007 0.68774 0.0
H961 H 0.13005 0.8241 0.69825 0.0
H962 H 0.26186 0.77175 0.80486 0.0
H963 H 0.25459 0.81621 0.81553 0.0
H964 H 0.2165 0.70779 0.75829 0.0
H965 H 0.2165 0.70779 0.75829 0.0
C966 C 0.53553 0.9318 0.03791 0.0
C967 C 0.5384 0.89785 0.02369 0.0
C968 C 0.49075 0.87623 0.05684 0.0
C969 C 0.48153 0.91151 0.06269 0.0
N970 N 0.49724 0.9731 0.06422 0.0
N971 N 0.52316 0.83619 0.02257 0.0
C972 C 0.50496 0.93948 0.05539 0.0
C973 C 0.51758 0.86942 0.03438 0.0
N974 N 0.56144 0.95638 0.03364 0.0
N975 N 0.47556 0.8497 0.07436 0.0
H976 H 0.5448 0.83027 0.00842 0.0
H977 H 0.50593 0.81506 0.02601 0.0
H978 H 0.45729 0.85415 0.09284 0.0
H979 H 0.48428 0.82407 0.07361 0.0
H980 H 0.56258 0.98085 0.04582 0.0
H981 H 0.58368 0.9508 0.02022 0.0
H982 H 0.5143 0.99451 0.06246 0.0
H983 H 0.47277 0.97969 0.07256 0.0
C984 C 0.33437 0.821 0.25793 0.0
C985 C 0.32262 0.81103 0.22465 0.0
C986 C 0.33173 0.74979 0.23531 0.0
C987 C 0.34805 0.75955 0.26698 0.0
N988 N 0.35409 0.80207 0.31348 0.0
N989 N 0.28955 0.76677 0.19256 0.0
C990 C 0.34631 0.7946 0.27998 0.0
C991 C 0.3143 0.77552 0.217 0.0
N992 N 0.33331 0.85536 0.26825 0.0
N993 N 0.33443 0.71672 0.22173 0.0
H994 H 0.27448 0.78603 0.18142 0.0
H995 H 0.28097 0.74099 0.18724 0.0
H996 H 0.34914 0.69732 0.23308 0.0
H997 H 0.32506 0.7098 0.19735 0.0
H998 H 0.3456 0.86568 0.29026 0.0
H999 H 0.31916 0.87359 0.25448 0.0
H1000 H 0.35157 0.82665 0.32491 0.0
H1001 H 0.36038 0.78298 0.33098 0.0
C1002 C 0.52257 0.08038 0.4696 0.0
C1003 C 0.53575 0.11301 0.48208 0.0
C1004 C 0.48971 0.14279 0.4514 0.0
C1005 C 0.47164 0.10986 0.44697 0.0
N1006 N 0.47093 0.04671 0.45152 0.0
N1007 N 0.5358 0.17609 0.4816 0.0
C1008 C 0.48841 0.0783 0.45514 0.0
C1009 C 0.52101 0.14455 0.47119 0.0
N1010 N 0.54281 0.05167 0.47174 0.0
N1011 N 0.47692 0.17223 0.43696 0.0
H1012 H 0.56029 0.17806 0.4936 0.0
H1013 H 0.52364 0.20003 0.47911 0.0
H1014 H 0.4538 0.17211 0.42267 0.0
H1015 H 0.49062 0.19616 0.43658 0.0
H1016 H 0.53613 0.02796 0.45927 0.0
H1017 H 0.56789 0.05322 0.48283 0.0
H1018 H 0.4809 0.02344 0.46057 0.0
H1019 H 0.44577 0.04407 0.4409 0.0
C1020 C 0.18809 0.19393 0.7717 0.0
C1021 C 0.1815 0.208 0.73908 0.0
C1022 C 0.13964 0.24727 0.76213 0.0
C1023 C 0.14895 0.23667 0.79529 0.0
N1024 N 0.18446 0.20245 0.83262 0.0
N1025 N 0.16311 0.25894 0.70789 0.0
C1026 C 0.17398 0.21063 0.80043 0.0
C1027 C 0.16124 0.23817 0.73562 0.0
N1028 N 0.20767 0.16474 0.77502 0.0
N1029 N 0.11065 0.26638 0.7557 0.0
H1030 H 0.18198 0.25642 0.68975 0.0
H1031 H 0.14986 0.28238 0.70603 0.0
H1032 H 0.09224 0.27173 0.77372 0.0
H1033 H 0.10238 0.27256 0.73116 0.0
H1034 H 0.21001 0.15093 0.79744 0.0
H1035 H 0.22073 0.15372 0.75477 0.0
H1036 H 0.2054 0.18648 0.83809 0.0
H1037 H 0.17278 0.21299 0.85394 0.0
C1038 C 0.04764 0.91605 0.03466 0.0
C1039 C 0.01122 0.91544 0.02779 0.0
C1040 C 0.02014 0.9383 0.9712 0.0
C1041 C 0.05658 0.93411 0.9767 0.0
N1042 N 0.10327 0.94065 0.01877 0.0
N1043 N 0.96279 0.93775 0.99508 0.0
C1044 C 0.06982 0.93016 0.01025 0.0
C1045 C 0.99738 0.93025 0.99771 0.0
N1046 N 0.06132 0.90125 0.06319 0.0
N1047 N 1.00721 0.94993 0.94099 0.0
H1048 H 0.94548 0.9324 0.01414 0.0
H1049 H 0.95164 0.952 0.97553 0.0
H1050 H 0.02251 0.96364 0.92426 0.0
H1051 H 0.98115 0.94718 0.93305 0.0
H1052 H 0.08797 0.89779 0.06709 0.0
H1053 H 0.04611 0.88982 0.0816 0.0
H1054 H 0.1135 0.94045 0.04355 0.0
H1055 H 0.11897 0.95382 1.00174 0.0
C1056 C 0.28161 0.32378 0.21999 0.0
C1057 C 0.30029 0.35464 0.21151 0.0
C1058 C 0.26288 0.3895 0.24613 0.0
C1059 C 0.24962 0.35844 0.26037 0.0
N1060 N 0.25039 0.29545 0.26435 0.0
N1061 N 0.31284 0.41662 0.22142 0.0
C1062 C 0.25969 0.32522 0.24804 0.0
C1063 C 0.29219 0.38752 0.22596 0.0
N1064 N 0.28484 0.29344 0.20151 0.0
N1065 N 0.2464 0.42047 0.25025 0.0
H1066 H 0.33509 0.41636 0.20696 0.0
H1067 H 0.30957 0.43994 0.23509 0.0
H1068 H 0.2226 0.42189 0.26208 0.0
H1069 H 0.25395 0.44329 0.23798 0.0
H1070 H 0.26977 0.27082 0.20539 0.0
H1071 H 0.30008 0.29212 0.18015 0.0
H1072 H 0.25876 0.27068 0.25732 0.0
H1073 H 0.23798 0.29634 0.28738 0.0
C1074 C 0.74875 0.14483 0.81894 0.0
C1075 C 0.77392 0.17302 0.8191 0.0
C1076 C 0.74328 0.2003 0.77221 0.0
C1077 C 0.72355 0.16876 0.7673 0.0
N1078 N 0.6987 0.11592 0.78961 0.0
N1079 N 0.78223 0.23466 0.81033 0.0
C1080 C 0.723 0.14284 0.79235 0.0
C1081 C 0.76705 0.20325 0.80024 0.0
N1082 N 0.74912 0.1206 0.84397 0.0
N1083 N 0.74007 0.22653 0.74944 0.0
H1084 H 0.79751 0.23714 0.83264 0.0
H1085 H 0.77662 0.25845 0.79918 0.0
H1086 H 0.72291 0.22431 0.7285 0.0
H1087 H 0.75466 0.24991 0.75087 0.0
H1088 H 0.73106 0.10003 0.84586 0.0
H1089 H 0.76582 0.12217 0.86507 0.0
H1090 H 0.69747 0.09457 0.80544 0.0
H1091 H 0.67842 0.1154 0.77142 0.0
C1092 C 0.14824 0.52167 0.01819 0.0
C1093 C 0.12617 0.49197 0.01131 0.0
C1094 C 0.08462 0.51287 0.05216 0.0
C1095 C 0.10676 0.54261 0.05875 0.0
N1096 N 0.15163 0.58142 0.03827 0.0
N1097 N 0.06995 0.46262 0.01545 0.0
C1098 C 0.13615 0.54893 0.03878 0.0
C1099 C 0.09323 0.48846 0.02641 0.0
N1100 N 0.18128 0.5234 1.00621 0.0
N1101 N 0.05599 0.50764 0.07131 0.0
H1102 H 0.07552 0.44417 0.99671 0.0
H1103 H 0.04421 0.46112 0.02292 0.0
H1104 H 0.04792 0.52655 0.08869 0.0
H1105 H 0.04107 0.48441 0.07081 0.0
H1106 H 0.19979 0.54251 0.01433 0.0
H1107 H 0.19145 0.50415 0.99057 0.0
H1108 H 0.17175 0.58812 0.02231 0.0
H1109 H 0.14031 0.60289 0.04922 0.0
C1110 C 0.75231 0.83196 0.2633 0.0
C1111 C 0.77055 0.8641 0.25839 0.0
C1112 C 0.7533 0.88659 0.31364 0.0
C1113 C 0.73217 0.85579 0.31669 0.0
N1114 N 0.72271 0.79466 0.30284 0.0
N1115 N 0.78784 0.92291 0.27704 0.0
C1116 C 0.73527 0.82696 0.29407 0.0
C1117 C 0.77131 0.89156 0.28326 0.0
N1118 N 0.74913 0.80741 0.2376 0.0
N1119 N 0.75715 0.91033 0.34002 0.0
H1120 H 0.8013 0.92754 0.25508 0.0
H1121 H 0.78643 0.94532 0.29233 0.0
H1122 H 0.74639 0.90651 0.36348 0.0
H1123 H 0.77442 0.93183 0.34049 0.0
H1124 H 0.73395 0.78446 0.23875 0.0
H1125 H 0.75904 0.81168 0.21374 0.0
H1126 H 0.727 0.77168 0.28905 0.0
H1127 H 0.71109 0.79054 0.32605 0.0
C1128 C 0.8829 0.9958 0.00927 0.0
C1129 C 0.90417 0.02675 0.01102 0.0
C1130 C 0.93376 1.00742 0.06252 0.0
C1131 C 0.91132 0.97735 0.06148 0.0
N1132 N 0.85856 0.9475 0.04004 0.0
N1133 N 0.9446 0.06604 0.04197 0.0
C1134 C 0.88399 0.97294 0.03673 0.0
C1135 C 0.92792 0.03396 0.03861 0.0
N1136 N 0.86203 0.98793 0.98125 0.0
N1137 N 0.96132 0.00985 0.0853 0.0
H1138 H 0.94105 0.08596 0.02458 0.0
H1139 H 0.95976 0.07386 0.06328 0.0
H1140 H 0.96598 0.99094 0.10353 0.0
H1141 H 0.98085 0.02929 0.0847 0.0
H1142 H 0.84941 0.96363 0.97703 0.0
H1143 H 0.85918 1.0046 0.96086 0.0
H1144 H 0.83628 0.94526 0.02432 0.0
H1145 H 0.85774 0.93085 0.06066 0.0
C1146 C 0.29719 0.69272 0.73249 0.0
C1147 C 0.31143 0.65897 0.73429 0.0
C1148 C 0.28106 0.64069 0.68185 0.0
C1149 C 0.25911 0.66968 0.6865 0.0
N1150 N 0.25674 0.73039 0.70265 0.0
N1151 N 0.32292 0.60292 0.70867 0.0
C1152 C 0.27071 0.69829 0.7075 0.0
C1153 C 0.30593 0.63395 0.70771 0.0
N1154 N 0.30724 0.71802 0.75603 0.0
N1155 N 0.27895 0.6205 0.65283 0.0
H1156 H 0.34266 0.59853 0.7267 0.0
H1157 H 0.31666 0.58137 0.69278 0.0
H1158 H 0.26445 0.62731 0.63143 0.0
H1159 H 0.29561 0.60006 0.64786 0.0
H1160 H 0.2957 0.7423 0.75823 0.0
H1161 H 0.32771 0.71437 0.7735 0.0
H1162 H 0.26521 0.75322 0.71567 0.0
H1163 H 0.23816 0.73433 0.68331 0.0
C1164 C 0.06482 0.5156 0.49228 0.0
C1165 C 0.09404 0.53924 0.49344 0.0
C1166 C 0.10819 0.52106 0.43605 0.0
C1167 C 0.08628 0.49121 0.43974 0.0
N1168 N 0.03103 0.4711 0.45922 0.0
N1169 N 0.14186 0.56763 0.46497 0.0
C1170 C 0.06004 0.49233 0.46392 0.0
C1171 C 0.11465 0.54376 0.46448 0.0
N1172 N 0.04305 0.51438 0.51893 0.0
N1173 N 0.12145 0.52815 0.40523 0.0
H1174 H 0.14707 0.58549 0.48491 0.0
H1175 H 0.16035 0.5685 0.44623 0.0
H1176 H 0.11338 0.51359 0.38358 0.0
H1177 H 0.13604 0.55083 0.40038 0.0
H1178 H 0.02206 0.49678 0.52044 0.0
H1179 H 0.04645 0.53103 0.54011 0.0
H1180 H 1.00973 0.47133 0.47484 0.0
H1181 H 0.02746 0.45507 0.43752 0.0
C1182 C 0.4066 0.53701 0.01242 0.0
C1183 C 0.40994 0.50037 0.00926 0.0
C1184 C 0.43475 0.50684 0.95365 0.0
C1185 C 0.42673 0.54286 0.95467 0.0
N1186 N 0.39535 0.58929 0.98229 0.0
N1187 N 0.42218 0.44906 0.975 0.0
C1188 C 0.41044 0.55742 0.98343 0.0
C1189 C 0.42222 0.48476 0.97919 0.0
N1190 N 0.39863 0.55241 0.04272 0.0
N1191 N 0.45473 0.49393 0.92846 0.0
H1192 H 0.41521 0.43177 0.9939 0.0
H1193 H 0.42725 0.43664 0.95199 0.0
H1194 H 0.46486 0.5098 0.9097 0.0
H1195 H 0.46414 0.46854 0.92822 0.0
H1196 H 0.40016 0.57952 0.04693 0.0
H1197 H 0.39285 0.53829 0.06428 0.0
H1198 H 0.37905 0.5986 1.00088 0.0
H1199 H 0.39705 0.60539 0.96177 0.0
C1200 C 0.7277 0.79071 0.89244 0.0
C1201 C 0.70803 0.78783 0.86145 0.0
C1202 C 0.73956 0.737 0.84335 0.0
C1203 C 0.75807 0.73873 0.87501 0.0
N1204 N 0.76703 0.76326 0.93186 0.0
N1205 N 0.68927 0.75561 0.81066 0.0
C1206 C 0.75147 0.76448 0.90022 0.0
C1207 C 0.71197 0.76002 0.83791 0.0
N1208 N 0.72415 0.81889 0.91406 0.0
N1209 N 0.74966 0.71494 0.81791 0.0
H1210 H 0.66887 0.77254 0.80586 0.0
H1211 H 0.68885 0.73368 0.79446 0.0
H1212 H 0.77053 0.69818 0.82053 0.0
H1213 H 0.73947 0.7155 0.79317 0.0
H1214 H 0.74131 0.82497 0.93442 0.0
H1215 H 0.70508 0.83759 0.91086 0.0
H1216 H 0.75931 0.77816 0.95258 0.0
H1217 H 0.78621 0.74567 0.93842 0.0
C1218 C 0.5015 0.46963 0.05549 0.0
C1219 C 0.50472 0.43746 0.07113 0.0
C1220 C 0.54654 0.46359 0.11192 0.0
C1221 C 0.53289 0.49689 0.10364 0.0
N1222 N 0.4938 0.53061 0.06798 0.0
N1223 N 0.54611 0.4008 0.09791 0.0
C1224 C 0.50973 0.49999 0.07511 0.0
C1225 C 0.53381 0.43356 0.09308 0.0
N1226 N 0.48922 0.47072 0.02298 0.0
N1227 N 0.56852 0.46043 0.13947 0.0
H1228 H 0.53482 0.37914 0.08459 0.0
H1229 H 0.56813 0.39561 0.11283 0.0
H1230 H 0.57516 0.48163 0.15567 0.0
H1231 H 0.57775 0.4366 0.14788 0.0
H1232 H 0.48883 0.494 0.00959 0.0
H1233 H 0.48323 0.44747 0.00928 0.0
H1234 H 0.47541 0.53254 0.04814 0.0
H1235 H 0.49645 0.55294 0.08351 0.0
C1236 C 0.76021 0.24693 0.33962 0.0
C1237 C 0.76305 0.27025 0.36788 0.0
C1238 C 0.82559 0.26162 0.37298 0.0
C1239 C 0.82146 0.23511 0.34747 0.0
N1240 N 0.79189 0.21904 0.29533 0.0
N1241 N 0.79675 0.29664 0.41485 0.0
C1242 C 0.7908 0.23299 0.32718 0.0
C1243 C 0.79542 0.27724 0.3853 0.0
N1244 N 0.72849 0.23662 0.32574 0.0
N1245 N 0.85813 0.27318 0.3837 0.0
H1246 H 0.77449 0.30661 0.42557 0.0
H1247 H 0.81903 0.29959 0.43048 0.0
H1248 H 0.88047 0.26524 0.37164 0.0
H1249 H 0.86271 0.29402 0.40089 0.0
H1250 H 0.7255 0.21662 0.30736 0.0
H1251 H 0.70505 0.2457 0.3346 0.0
H1252 H 0.7709 0.21898 0.27792 0.0
H1253 H 0.81573 0.21191 0.28578 0.0
C1254 C 0.02102 0.55465 0.64818 0.0
C1255 C 0.02488 0.56269 0.61359 0.0
C1256 C 0.96446 0.54359 0.60112 0.0
C1257 C 0.96253 0.53311 0.63523 0.0
N1258 N 0.97983 0.54802 0.69278 0.0
N1259 N 0.99734 0.57586 0.55966 0.0
C1260 C 0.98763 0.54596 0.65934 0.0
C1261 C 0.99557 0.56079 0.59067 0.0
N1262 N 0.04926 0.55397 0.67006 0.0
N1263 N 0.9371 0.53635 0.579 0.0
H1264 H 0.02004 0.58822 0.55142 0.0
H1265 H 0.97597 0.57784 0.54298 0.0
H1266 H 0.91297 0.52748 0.58736 0.0
H1267 H 0.93835 0.53916 0.55288 0.0
H1268 H 0.04755 0.54564 0.69497 0.0
H1269 H 0.0747 0.55861 0.66243 0.0
H1270 H 0.99695 0.55908 0.71134 0.0
H1271 H 0.95473 0.542 0.70081 0.0
C1272 C 0.71872 0.27977 0.60787 0.0
C1273 C 0.72662 0.30616 0.6325 0.0
C1274 C 0.69617 0.27191 0.67434 0.0
C1275 C 0.69912 0.24201 0.65259 0.0
N1276 N 0.71292 0.2175 0.5975 0.0
N1277 N 0.71415 0.33264 0.68638 0.0
C1278 C 0.71016 0.24591 0.61886 0.0
C1279 C 0.71211 0.30411 0.66489 0.0
N1280 N 0.71987 0.28729 0.57426 0.0
N1281 N 0.67763 0.26962 0.70325 0.0
H1282 H 0.72173 0.35744 0.67807 0.0
H1283 H 0.70835 0.33174 0.71194 0.0
H1284 H 0.66608 0.24616 0.71103 0.0
H1285 H 0.67198 0.2912 0.71849 0.0
H1286 H 0.71209 0.26938 0.55499 0.0
H1287 H 0.72476 0.31288 0.56626 0.0
H1288 H 0.72386 0.21923 0.57374 0.0
H1289 H 0.70669 0.19187 0.60431 0.0
C1290 C 0.99153 0.4744 0.91467 0.0
C1291 C 1.00017 0.50072 0.89143 0.0
C1292 C 0.05623 0.47524 0.88197 0.0
C1293 C 0.05057 0.45388 0.91042 0.0
N1294 N 0.01329 0.4315 0.95367 0.0
N1295 N 0.03816 0.52534 0.85 0.0
C1296 C 0.01811 0.4525 0.92643 0.0
C1297 C 0.03177 0.50083 0.87407 0.0
N1298 N 0.95821 0.47045 0.9255 0.0
N1299 N 0.08396 0.46986 0.86169 0.0
H1300 H 0.01908 0.54189 0.84062 0.0
H1301 H 0.06256 0.53013 0.84003 0.0
H1302 H 0.10101 0.44928 0.86484 0.0
H1303 H 0.0882 0.48333 0.83947 0.0
H1304 H 0.94977 0.44943 0.93984 0.0
H1305 H 0.93804 0.48648 0.91783 0.0
H1306 H 0.99182 0.4329 0.96906 0.0
H1307 H 0.03183 0.41408 0.96241 0.0
C1308 C 0.80881 0.76417 0.19386 0.0
C1309 C 0.81395 0.7937 0.17337 0.0
C1310 C 0.77414 0.76927 0.13021 0.0
C1311 C 0.76681 0.74062 0.15118 0.0
N1312 N 0.76976 0.71611 0.20749 0.0
N1313 N 0.78727 0.83092 0.13194 0.0
C1314 C 0.78189 0.73939 0.18451 0.0
C1315 C 0.79209 0.79848 0.14463 0.0
N1316 N 0.82992 0.75979 0.22183 0.0
N1317 N 0.76452 0.76853 0.09655 0.0
H1318 H 0.7951 0.85324 0.14585 0.0
H1319 H 0.77022 0.83549 0.11151 0.0
H1320 H 0.75347 0.74625 0.08419 0.0
H1321 H 0.77128 0.78869 0.08035 0.0
H1322 H 0.82989 0.73681 0.23569 0.0
H1323 H 0.84834 0.779 0.23015 0.0
H1324 H 0.77794 0.71687 0.23293 0.0
H1325 H 0.74924 0.69825 0.20215 0.0
C1326 C 0.5213 0.53823 0.37095 0.0
C1327 C 0.54083 0.52663 0.3992 0.0
C1328 C 0.50643 0.56128 0.43751 0.0
C1329 C 0.48327 0.56745 0.40979 0.0
N1330 N 0.46573 0.55849 0.35071 0.0
N1331 N 0.55281 0.52539 0.45941 0.0
C1332 C 0.48998 0.55531 0.37653 0.0
C1333 C 0.53406 0.53808 0.43259 0.0
N1334 N 0.53276 0.53262 0.33888 0.0
N1335 N 0.50173 0.57722 0.4683 0.0
H1336 H 0.57415 0.50945 0.45617 0.0
H1337 H 0.54629 0.52925 0.48459 0.0
H1338 H 0.48097 0.59362 0.47279 0.0
H1339 H 0.51952 0.57601 0.48867 0.0
H1340 H 0.52111 0.54331 0.31739 0.0
H1341 H 0.55615 0.52033 0.33423 0.0
H1342 H 0.46804 0.54687 0.32679 0.0
H1343 H 0.4417 0.56998 0.35391 0.0
C1344 C 0.86024 0.76678 0.7742 0.0
C1345 C 0.8575 0.75473 0.74024 0.0
C1346 C 0.83861 0.69706 0.7589 0.0
C1347 C 0.8499 0.70728 0.79237 0.0
N1348 N 0.88088 0.75058 0.82924 0.0
N1349 N 0.84441 0.70817 0.69907 0.0
C1350 C 0.86289 0.74194 0.79962 0.0
C1351 C 0.84622 0.71987 0.73202 0.0
N1352 N 0.86148 0.80188 0.78202 0.0
N1353 N 0.82045 0.66612 0.75297 0.0
H1354 H 0.84925 0.72452 0.6788 0.0
H1355 H 0.8401 0.68185 0.69211 0.0
H1356 H 0.81361 0.64935 0.77238 0.0
H1357 H 0.80931 0.65888 0.72935 0.0
H1358 H 0.86116 0.81157 0.80693 0.0
H1359 H 0.85872 0.82091 0.76355 0.0
H1360 H 0.8928 0.77522 0.83374 0.0
H1361 H 0.88831 0.73228 0.84714 0.0
C1362 C 0.52769 0.6148 0.05895 0.0
C1363 C 0.55015 0.58686 0.05308 0.0
C1364 C 0.52276 0.5769 0.99697 0.0
C1365 C 0.50652 0.60996 1.0005 0.0
N1366 N 0.49663 0.66214 0.03503 0.0
N1367 N 0.56736 0.53839 0.01857 0.0
C1368 C 0.5098 0.62933 0.03152 0.0
C1369 C 0.54661 0.56661 0.0228 0.0
N1370 N 0.52325 0.62851 0.09044 0.0
N1371 N 0.51496 0.55504 0.96976 0.0
H1372 H 0.58321 0.52944 0.0384 0.0
H1373 H 0.56968 0.52479 0.99564 0.0
H1374 H 0.49811 0.56136 0.9499 0.0
H1375 H 0.5233 0.52934 0.9679 0.0
H1376 H 0.53296 0.61701 0.11235 0.0
H1377 H 0.53296 0.61701 0.11235 0.0
H1378 H 0.49884 0.67653 0.05785 0.0
H1379 H 0.48645 0.67611 0.01476 0.0
C1380 C 0.64563 0.25572 0.28304 0.0
C1381 C 0.67128 0.24892 0.25899 0.0
C1382 C 0.70631 0.29946 0.2811 0.0
C1383 C 0.67758 0.30998 0.30007 0.0
N1384 N 0.61731 0.3005 0.31472 0.0
N1385 N 0.72674 0.26306 0.23507 0.0
C1386 C 0.64673 0.28852 0.30041 0.0
C1387 C 0.70201 0.27034 0.25812 0.0
N1388 N 0.61943 0.23168 0.2885 0.0
N1389 N 0.73754 0.31734 0.2851 0.0
H1390 H 0.72535 0.24061 0.2195 0.0
H1391 H 0.74788 0.27978 0.2305 0.0
H1392 H 0.74119 0.33888 0.30172 0.0
H1393 H 0.76045 0.30901 0.27447 0.0
H1394 H 0.6026 0.23395 0.30858 0.0
H1395 H 0.61628 0.20782 0.27536 0.0
H1396 H 0.59313 0.28752 0.31216 0.0
H1397 H 0.61589 0.32513 0.32601 0.0
C1398 C 0.99092 0.39143 0.49744 0.0
C1399 C 0.02519 0.40054 0.50932 0.0
C1400 C 1.00218 0.43308 0.55627 0.0
C1401 C 0.9688 0.41677 0.54957 0.0
N1402 N 0.93256 0.37705 0.51267 0.0
N1403 N 0.06387 0.4308 0.55066 0.0
C1404 C 0.96316 0.3953 0.51966 0.0
C1405 C 0.03097 0.42149 0.53887 0.0
N1406 N 0.98451 0.38081 0.46444 0.0
N1407 N 1.00745 0.46005 0.57908 0.0
H1408 H 0.0864 0.42127 0.54017 0.0
H1409 H 0.06845 0.44659 0.57237 0.0
H1410 H 0.9874 0.47266 0.5911 0.0
H1411 H 0.9874 0.47266 0.5911 0.0
H1412 H 0.95942 0.37732 0.45382 0.0
H1413 H 1.00381 0.37993 0.44649 0.0
H1414 H 0.93007 0.35759 0.49372 0.0
H1415 H 0.91016 0.3789 0.52636 0.0
C1416 C 0.81871 0.2736 0.72317 0.0
C1417 C 0.82668 0.30952 0.7297 0.0
C1418 C 0.85244 0.29668 0.78505 0.0
C1419 C 0.85156 0.26062 0.77534 0.0
N1420 N 0.82852 0.21341 0.7383 0.0
N1421 N 0.83064 0.35445 0.77334 0.0
C1422 C 0.83277 0.24857 0.74543 0.0
C1423 C 0.83687 0.32088 0.76295 0.0
N1424 N 0.79589 0.26399 0.69717 0.0
N1425 N 0.87023 0.30812 0.81391 0.0
H1426 H 0.81679 0.37149 0.75789 0.0
H1427 H 0.83523 0.36378 0.79811 0.0
H1428 H 0.88238 0.29125 0.8307 0.0
H1429 H 0.8751 0.33456 0.81996 0.0
H1430 H 0.78728 0.23834 0.69164 0.0
H1431 H 0.7819 0.28255 0.68384 0.0
H1432 H 0.81914 0.20309 0.71507 0.0
H1433 H 0.83487 0.19412 0.75556 0.0
C1434 C 0.99007 0.63525 0.96306 0.0
C1435 C 0.97379 0.60119 0.961 0.0
C1436 C 0.02736 0.57639 0.98327 0.0
C1437 C 0.03964 0.61045 0.99279 0.0
N1438 N 0.03364 0.67334 0.99097 0.0
N1439 N 0.97661 0.53904 0.97114 0.0
C1440 C 0.02182 0.64024 0.98169 0.0
C1441 C 0.99255 0.57148 0.9711 0.0
N1442 N 0.97551 0.66297 0.94728 0.0
N1443 N 0.04933 0.54904 0.98554 0.0
H1444 H 0.95094 0.53442 0.96242 0.0
H1445 H 0.98822 0.51731 0.98189 0.0
H1446 H 0.07556 0.55326 0.99249 0.0
H1447 H 0.0427 0.52377 0.97648 0.0
H1448 H 0.98872 0.68685 0.94403 0.0
H1449 H 0.95152 0.66136 0.93481 0.0
H1450 H 0.01849 0.69551 0.98872 0.0
H1451 H 0.05809 0.6788 1.00218 0.0
C1452 C 0.66367 0.75485 0.21682 0.0
C1453 C 0.67196 0.71984 0.22372 0.0
C1454 C 0.65949 0.73077 0.28352 0.0
C1455 C 0.64383 0.76246 0.27375 0.0
N1456 N 0.62375 0.80023 0.22911 0.0
N1457 N 0.68491 0.67611 0.26519 0.0
C1458 C 0.64341 0.77293 0.23969 0.0
C1459 C 0.67208 0.70821 0.25774 0.0
N1460 N 0.67715 0.77178 0.18996 0.0
N1461 N 0.66367 0.72317 0.31706 0.0
H1462 H 0.69877 0.66159 0.24769 0.0
H1463 H 0.68181 0.66396 0.28832 0.0
H1464 H 0.65442 0.73906 0.33641 0.0
H1465 H 0.67788 0.7022 0.32595 0.0
H1466 H 0.67285 0.79819 0.18533 0.0
H1467 H 0.69748 0.76138 0.17665 0.0
H1468 H 0.62137 0.80697 0.20366 0.0
H1469 H 0.60695 0.81331 0.24504 0.0
C1470 C 0.55303 0.38201 0.47542 0.0
C1471 C 0.57094 0.41515 0.4767 0.0
C1472 C 0.55446 0.42471 0.53556 0.0
C1473 C 0.53272 0.39421 0.53192 0.0
N1474 N 0.52531 0.33643 0.5078 0.0
N1475 N 0.59703 0.46351 0.50985 0.0
C1476 C 0.53643 0.37049 0.50464 0.0
C1477 C 0.57451 0.43506 0.50756 0.0
N1478 N 0.55175 0.3616 0.44644 0.0
N1479 N 0.55542 0.44364 0.56535 0.0
H1480 H 0.61164 0.47191 0.48957 0.0
H1481 H 0.60255 0.4782 0.53194 0.0
H1482 H 0.54305 0.43486 0.58683 0.0
H1483 H 0.56806 0.46793 0.56907 0.0
H1484 H 0.53552 0.33939 0.4431 0.0
H1485 H 0.56566 0.36747 0.42494 0.0
H1486 H 0.52989 0.31655 0.49013 0.0
H1487 H 0.51532 0.32753 0.53047 0.0
C1488 C 0.76499 0.83554 0.7144 0.0
C1489 C 0.79287 0.86002 0.71096 0.0
C1490 C 0.7726 0.89649 0.75745 0.0
C1491 C 0.746 0.87076 0.76242 0.0
N1492 N 0.71887 0.81399 0.74961 0.0
N1493 N 0.82481 0.91321 0.72837 0.0
C1494 C 0.7425 0.83987 0.7418 0.0
C1495 C 0.79705 0.89044 0.73218 0.0
N1496 N 0.76012 0.80837 0.69139 0.0
N1497 N 0.77376 0.92718 0.77615 0.0
H1498 H 0.84143 0.91175 0.70803 0.0
H1499 H 0.83236 0.93296 0.74588 0.0
H1500 H 0.75784 0.9319 0.79649 0.0
H1501 H 0.78925 0.94901 0.77063 0.0
H1502 H 0.73832 0.79153 0.69044 0.0
H1503 H 0.77682 0.80413 0.67146 0.0
H1504 H 0.71751 0.78925 0.73792 0.0
H1505 H 0.70218 0.81619 0.76982 0.0
C1506 C 0.20987 0.66345 0.31226 0.0
C1507 C 0.21399 0.68073 0.28107 0.0
C1508 C 0.26105 0.71752 0.30688 0.0
C1509 C 0.26436 0.69213 0.33204 0.0
N1510 N 0.23097 0.65836 0.37075 0.0
N1511 N 0.23507 0.73152 0.25211 0.0
C1512 C 0.23479 0.67087 0.33889 0.0
C1513 C 0.23649 0.71075 0.27978 0.0
N1514 N 0.18408 0.63856 0.31553 0.0
N1515 N 0.28004 0.74814 0.31009 0.0
H1516 H 0.21618 0.7273 0.23281 0.0
H1517 H 0.25212 0.75265 0.24852 0.0
H1518 H 0.29626 0.75352 0.33141 0.0
H1519 H 0.27678 0.76922 0.29405 0.0
H1520 H 0.18278 0.6217 0.33589 0.0
H1521 H 0.16369 0.63496 0.29771 0.0
H1522 H 0.20913 0.64413 0.37824 0.0
H1523 H 0.24859 0.66566 0.39053 0.0
C1524 C 0.59362 0.98606 0.58785 0.0
C1525 C 0.57279 0.01417 0.57712 0.0
C1526 C 0.55724 0.98081 0.52576 0.0
C1527 C 0.58855 0.96244 0.53049 0.0
N1528 N 0.63314 0.94185 0.56929 0.0
N1529 N 0.52148 0.02885 0.545 0.0
C1530 C 0.60514 0.96229 0.56297 0.0
C1531 C 0.54979 1.00835 0.54899 0.0
N1532 N 0.60273 0.98306 0.62132 0.0
N1533 N 0.53507 0.97111 0.49952 0.0
H1534 H 0.51475 0.04677 0.56389 0.0
H1535 H 0.5042 0.02717 0.52417 0.0
H1536 H 0.54043 0.94956 0.48413 0.0
H1537 H 0.5107 0.9817 0.49526 0.0
H1538 H 0.61651 0.96201 0.6308 0.0
H1539 H 0.59293 0.99992 0.63969 0.0
H1540 H 0.64854 0.94425 0.59149 0.0
H1541 H 0.64165 0.92338 0.55182 0.0
C1542 C 0.25314 0.33006 0.74853 0.0
C1543 C 0.27103 0.3625 0.7445 0.0
C1544 C 0.25905 0.38067 0.80271 0.0
C1545 C 0.2393 0.34885 0.8059 0.0
N1546 N 0.23151 0.28843 0.78869 0.0
N1547 N 0.28769 0.42075 0.7649 0.0
C1548 C 0.24027 0.32211 0.78065 0.0
C1549 C 0.27344 0.38827 0.77095 0.0
N1550 N 0.24811 0.30705 0.72169 0.0
N1551 N 0.26543 0.40281 0.83006 0.0
H1552 H 0.29722 0.42762 0.74149 0.0
H1553 H 0.28744 0.44204 0.78174 0.0
H1554 H 0.25809 0.39732 0.85447 0.0
H1555 H 0.282 0.42483 0.82992 0.0
H1556 H 0.23216 0.2846 0.72253 0.0
H1557 H 0.25799 0.31149 0.69782 0.0
H1558 H 0.23362 0.26697 0.77223 0.0
H1559 H 0.22699 0.28164 0.81367 0.0
C1560 C 0.45363 0.49316 0.53471 0.0
C1561 C 0.43533 0.49377 0.56505 0.0
C1562 C 0.40277 0.54393 0.54577 0.0
C1563 C 0.41522 0.53764 0.51272 0.0
N1564 N 0.45332 0.50661 0.47536 0.0
N1565 N 0.41031 0.5324 0.60575 0.0
C1566 C 0.44139 0.51277 0.50712 0.0
C1567 C 0.41535 0.52328 0.57273 0.0
N1568 N 0.4836 0.47508 0.53329 0.0
N1569 N 0.37715 0.5675 0.55092 0.0
H1570 H 0.42287 0.51943 0.62551 0.0
H1571 H 0.39799 0.55516 0.61326 0.0
H1572 H 0.36682 0.58289 0.53174 0.0
H1573 H 0.3643 0.56991 0.57367 0.0
H1574 H 0.50008 0.47559 0.51283 0.0
H1575 H 0.49375 0.46355 0.55501 0.0
H1576 H 0.46958 0.48607 0.46949 0.0
H1577 H 0.4453 0.52064 0.45433 0.0
C1578 C 0.7755 0.1824 0.2021 0.0
C1579 C 0.74163 0.16691 0.20334 0.0
C1580 C 0.76107 0.12615 0.24598 0.0
C1581 C 0.7932 0.14468 0.24836 0.0
N1582 N 0.83382 0.18792 0.22781 0.0
N1583 N 0.70068 0.12679 0.22885 0.0
C1584 C 0.80155 0.17189 0.22583 0.0
C1585 C 0.73395 0.13974 0.22619 0.0
N1586 N 0.78259 0.20643 0.17784 0.0
N1587 N 0.75713 0.09473 0.26181 0.0
H1588 H 0.67993 0.13565 0.21425 0.0
H1589 H 0.69309 0.10969 0.24767 0.0
H1590 H 0.77751 0.08341 0.27547 0.0
H1591 H 0.73531 0.07808 0.25825 0.0
H1592 H 0.80742 0.21639 0.1732 0.0
H1593 H 0.76328 0.21582 0.16145 0.0
H1594 H 0.84066 0.21021 0.2145 0.0
H1595 H 0.8537 0.1795 0.24403 0.0
C1596 C 0.59598 0.02908 0.92915 0.0
C1597 C 0.57438 0.99962 0.93637 0.0
C1598 C 0.55771 0.02965 0.98789 0.0
C1599 C 0.58893 0.0501 0.98693 0.0
N1600 N 0.63554 0.07374 0.95342 0.0
N1601 N 0.52197 0.98204 0.9648 0.0
C1602 C 0.6069 0.05212 0.95619 0.0
C1603 C 0.5509 1.00313 0.96293 0.0
N1604 N 0.60589 0.03456 0.89676 0.0
N1605 N 0.53448 0.03572 0.01246 0.0
H1606 H 0.5143 0.96353 0.94596 0.0
H1607 H 0.5143 0.96353 0.94596 0.0
H1608 H 0.53898 0.05538 0.03092 0.0
H1609 H 0.51021 0.02273 0.01247 0.0
H1610 H 0.62008 0.05681 0.88975 0.0
H1611 H 0.59614 0.01865 0.87657 0.0
H1612 H 0.65174 0.0726 0.93275 0.0
H1613 H 0.64407 0.09168 0.97234 0.0
C1614 C 0.94289 0.01805 0.47087 0.0
C1615 C 0.91974 0.04602 0.4669 0.0
C1616 C 0.90585 0.04407 0.52627 0.0
C1617 C 0.92243 0.01157 0.52854 0.0
N1618 N 0.95947 0.96822 0.50393 0.0
N1619 N 0.87189 0.07876 0.49013 0.0
C1620 C 0.94239 0.99904 0.50127 0.0
C1621 C 0.89936 0.05731 0.49412 0.0
N1622 N 0.96479 1.00945 0.44551 0.0
N1623 N 0.89375 0.06123 0.55403 0.0
H1624 H 0.86185 0.08645 0.46667 0.0
H1625 H 0.86185 0.08645 0.46667 0.0
H1626 H 0.90096 0.05493 0.57874 0.0
H1627 H 0.88013 0.08449 0.55206 0.0
H1628 H 0.98474 0.99168 0.44824 0.0
H1629 H 0.96513 0.02243 0.4225 0.0
H1630 H 0.97058 0.95523 0.48367 0.0
H1631 H 0.96129 0.95473 0.52647 0.0
C1632 C 0.12711 0.25327 0.49965 0.0
C1633 C 0.14661 0.28545 0.49849 0.0
C1634 C 0.18222 0.26388 0.54691 0.0
C1635 C 0.15754 0.23567 0.5531 0.0
N1636 N 0.09983 0.21206 0.53683 0.0
N1637 N 0.19107 0.32287 0.52563 0.0
C1638 C 0.12809 0.23277 0.52983 0.0
C1639 C 0.17322 0.29142 0.52394 0.0
N1640 N 0.1082 0.24143 0.47173 0.0
N1641 N 0.21563 0.26318 0.55975 0.0
H1642 H 0.18642 0.34282 0.50848 0.0
H1643 H 0.20846 0.3298 0.54564 0.0
H1644 H 0.22628 0.24137 0.57104 0.0
H1645 H 0.23463 0.28197 0.55394 0.0
H1646 H 0.09572 0.21676 0.4705 0.0
H1647 H 0.10802 0.25483 0.44895 0.0
H1648 H 0.07738 0.21076 0.52123 0.0
H1649 H 0.09658 0.20077 0.56032 0.0
C1650 C 0.04674 0.87561 0.75818 0.0
C1651 C 0.03899 0.88618 0.7921 0.0
C1652 C 0.97588 0.8871 0.77291 0.0
C1653 C 0.984 0.87864 0.7387 0.0
N1654 N 0.02887 0.86935 0.69845 0.0
N1655 N 0.99401 0.89193 0.83276 0.0
C1656 C 0.01993 0.87427 0.73141 0.0
C1657 C 1.00286 0.88938 0.79952 0.0
N1658 N 0.07936 0.86451 0.75151 0.0
N1659 N 0.94221 0.89474 0.77976 0.0
H1660 H 0.01233 0.89101 0.85278 0.0
H1661 H 0.96853 0.89095 0.84091 0.0
H1662 H 0.92221 0.8937 0.76123 0.0
H1663 H 0.93443 0.90508 0.80282 0.0
H1664 H 0.08563 0.85212 0.72889 0.0
H1665 H 0.09959 0.8642 0.76955 0.0
H1666 H 0.05439 0.87113 0.69039 0.0
H1667 H 1.01065 0.86607 0.67848 0.0
C1668 C 0.35734 0.78054 1.0027 0.0
C1669 C 0.38316 0.78688 0.02908 0.0
C1670 C 0.41987 0.74491 0.99884 0.0
C1671 C 0.39133 0.73296 0.97666 0.0
N1672 N 0.3296 0.73797 0.96334 0.0
N1673 N 0.43735 0.76869 0.0545 0.0
C1674 C 0.35913 0.75047 0.98016 0.0
C1675 C 0.41393 0.76719 0.02776 0.0
N1676 N 0.33192 0.80435 0.99784 0.0
N1677 N 0.45331 0.7372 0.99139 0.0
H1678 H 0.4335 0.78366 0.07642 0.0
H1679 H 0.45864 0.75233 0.05615 0.0
H1680 H 0.45987 0.72474 0.9689 0.0
H1681 H 0.47487 0.74774 1.00518 0.0
H1682 H 0.31393 0.80275 0.97749 0.0
H1683 H 0.33207 0.82804 0.01152 0.0
H1684 H 0.30515 0.74825 0.96735 0.0
H1685 H 0.32861 0.71505 0.94853 0.0
C1686 C 0.49638 0.11254 0.25757 0.0
C1687 C 0.48194 0.14297 0.27287 0.0
C1688 C 0.52093 0.17883 0.23715 0.0
C1689 C 0.53847 0.14825 0.22554 0.0
N1690 N 0.54708 0.08661 0.23334 0.0
N1691 N 0.48485 0.20589 0.27966 0.0
C1692 C 0.52717 0.1153 0.23803 0.0
C1693 C 0.49527 0.17637 0.2631 0.0
N1694 N 0.47996 0.08062 0.26067 0.0
N1695 N 0.528 0.21039 0.22287 0.0
H1696 H 0.46629 0.20529 0.29835 0.0
H1697 H 0.49656 0.23058 0.27678 0.0
H1698 H 0.54646 0.21355 0.20448 0.0
H1699 H 0.51343 0.23264 0.22702 0.0
H1700 H 0.48761 0.05801 0.24793 0.0
H1701 H 0.45624 0.07772 0.27249 0.0
H1702 H 0.54274 0.06326 0.24605 0.0
H1703 H 0.57023 0.08746 0.22025 0.0
C1704 C 0.14694 0.74892 0.97639 0.0
C1705 C 0.1399 0.78482 0.98418 0.0
C1706 C 0.13074 0.76611 0.04421 0.0
C1707 C 0.14123 0.73116 0.03649 0.0
N1708 N 0.16672 0.69251 0.9959 0.0
N1709 N 0.12426 0.82697 0.02755 0.0
C1710 C 0.15146 0.72373 1.00277 0.0
C1711 C 0.13141 0.79315 0.01868 0.0
N1712 N 0.14687 0.73791 0.9432 0.0
N1713 N 0.11869 0.77328 0.07576 0.0
H1714 H 0.12097 0.8468 0.0102 0.0
H1715 H 0.12319 0.83618 0.05248 0.0
H1716 H 0.11862 0.75506 0.09505 0.0
H1717 H 0.10668 0.79639 0.08256 0.0
H1718 H 0.14841 0.71165 0.93569 0.0
H1719 H 0.1406 0.75427 0.92318 0.0
H1720 H 0.17826 0.68683 0.97297 0.0
H1721 H 0.17136 0.6739 0.01443 0.0
C1722 C 0.47992 0.86021 0.24482 0.0
C1723 C 0.46783 0.89438 0.23736 0.0
C1724 C 0.512 0.91824 0.28093 0.0
C1725 C 0.52231 0.88398 0.29029 0.0
N1726 N 0.50754 0.82196 0.28567 0.0
N1727 N 0.46679 0.95472 0.25747 0.0
C1728 C 0.50374 0.85493 0.27347 0.0
C1729 C 0.48225 0.92289 0.25823 0.0
N1730 N 0.47007 0.83263 0.22375 0.0
N1731 N 0.5317 0.94681 0.29199 0.0
H1732 H 0.44442 0.95919 0.24284 0.0
H1733 H 0.4736 0.97531 0.27441 0.0
H1734 H 0.55444 0.94483 0.30679 0.0
H1735 H 0.5277 0.97207 0.28331 0.0
H1736 H 0.48104 0.80799 0.22537 0.0
H1737 H 0.45327 0.83514 0.20275 0.0
H1738 H 0.49223 0.8004 0.27708 0.0
H1739 H 0.523 0.81686 0.30702 0.0
C1740 C 0.40995 0.26187 0.46774 0.0
C1741 C 0.37703 0.24391 0.4647 0.0
C1742 C 0.35745 0.28222 0.51197 0.0
C1743 C 0.39152 0.29704 0.51797 0.0
N1744 N 0.45263 0.28896 0.50701 0.0
N1745 N 0.32554 0.22913 0.49519 0.0
C1746 C 0.4185 0.28371 0.49721 0.0
C1747 C 0.35234 0.2521 0.48983 0.0
N1748 N 0.43325 0.25857 0.44258 0.0
N1749 N 0.32951 0.29675 0.52685 0.0
H1750 H 0.32458 0.2045 0.48348 0.0
H1751 H 0.30832 0.2322 0.51488 0.0
H1752 H 0.33144 0.31987 0.54143 0.0
H1753 H 0.30396 0.288 0.52124 0.0
H1754 H 0.45637 0.27354 0.44229 0.0
H1755 H 0.42782 0.24371 0.42047 0.0
H1756 H 0.47289 0.27731 0.49435 0.0
H1757 H 0.46031 0.30015 0.5304 0.0
C1758 C 0.02173 0.14143 0.79296 0.0
C1759 C 0.98583 0.14386 0.7824 0.0
C1760 C 1.00534 0.14647 0.72295 0.0
C1761 C 0.0405 0.13996 0.73311 0.0
N1762 N 0.08081 0.12656 0.77865 0.0
N1763 N 0.94409 0.13992 0.73535 0.0
C1764 C 0.0483 0.13635 0.7684 0.0
C1765 C 0.97793 0.14412 0.74682 0.0
N1766 N 0.031 0.14519 0.82649 0.0
N1767 N 0.99805 0.15586 0.69031 0.0
H1768 H 0.92345 0.13568 0.75143 0.0
H1769 H 0.93697 0.13632 0.70979 0.0
H1770 H 0.01731 0.15895 0.67245 0.0
H1771 H 0.97372 0.16436 0.68207 0.0
H1772 H 0.05671 0.14818 0.83551 0.0
H1773 H 0.01292 0.14806 0.84521 0.0
H1774 H 0.08719 0.11899 0.80323 0.0
H1775 H 0.10094 0.12366 0.76193 0.0
C1776 C 0.25869 0.53831 0.11406 0.0
C1777 C 0.24707 0.54445 0.14772 0.0
C1778 C 0.29352 0.50395 0.16749 0.0
C1779 C 0.30173 0.49385 0.13374 0.0
N1780 N 0.28706 0.49976 0.07409 0.0
N1781 N 0.2499 0.52456 0.20559 0.0
C1782 C 0.28292 0.5107 0.10685 0.0
C1783 C 0.26361 0.5249 0.17411 0.0
N1784 N 0.24799 0.55995 0.08885 0.0
N1785 N 0.31548 0.49528 0.19366 0.0
H1786 H 0.22722 0.5373 0.21152 0.0
H1787 H 0.25873 0.5082 0.22468 0.0
H1788 H 0.33841 0.48186 0.19001 0.0
H1789 H 0.31305 0.50502 0.21833 0.0
H1790 H 0.25816 0.55948 0.0647 0.0
H1791 H 0.23174 0.58097 0.09299 0.0
H1792 H 0.27115 0.50765 0.05395 0.0
H1793 H 0.304 0.48016 0.06726 0.0
C1794 C 0.77004 0.03193 0.85951 0.0
C1795 C 0.79011 0.03551 0.89053 0.0
C1796 C 0.75408 0.98428 0.91121 0.0
C1797 C 0.73242 0.98303 0.8813 0.0
N1798 N 0.71317 0.01668 0.83398 0.0
N1799 N 0.79004 0.02067 0.95018 0.0
C1800 C 0.73866 0.01001 0.85745 0.0
C1801 C 0.77905 0.0131 0.91756 0.0
N1802 N 0.78117 0.04832 0.83129 0.0
N1803 N 0.75128 0.95783 0.93379 0.0
H1804 H 0.8049 0.04301 0.95716 0.0
H1805 H 0.78045 1.00742 0.97091 0.0
H1806 H 0.73306 0.93714 0.93046 0.0
H1807 H 0.76885 0.95515 0.9542 0.0
H1808 H 0.76903 0.04416 0.80747 0.0
H1809 H 0.80432 0.06318 0.831 0.0
H1810 H 0.71488 0.03736 0.81722 0.0
H1811 H 0.68879 1.004 0.83434 0.0
C1812 C 0.77186 0.03179 0.41536 0.0
C1813 C 0.78071 0.03867 0.38116 0.0
C1814 C 0.73207 0.99575 0.36338 0.0
C1815 C 0.72613 0.98584 0.39756 0.0
N1816 N 0.74908 0.99011 0.45536 0.0
N1817 N 0.77285 0.01877 0.32278 0.0
C1818 C 0.74848 1.00276 0.42324 0.0
C1819 C 0.76169 0.0183 0.35528 0.0
N1820 N 0.78451 0.05392 0.44075 0.0
N1821 N 0.70875 0.98473 0.33831 0.0
H1822 H 0.79538 0.03228 0.3159 0.0
H1823 H 0.76211 1.00256 0.30339 0.0
H1824 H 0.68657 0.96946 0.34294 0.0
H1825 H 0.70941 0.99386 0.31364 0.0
H1826 H 0.77638 0.0525 0.46564 0.0
H1827 H 0.79985 0.07621 0.43628 0.0
H1828 H 0.76731 0.99867 0.47406 0.0
H1829 H 0.7344 0.96824 0.46226 0.0
C1830 C 0.75932 0.99161 0.16027 0.0
C1831 C 0.77806 0.97532 0.13348 0.0
C1832 C 0.7468 0.01539 0.0942 0.0
C1833 C 0.7242 0.02765 0.11994 0.0
N1834 N 0.70669 0.02053 0.17757 0.0
N1835 N 0.78186 0.96802 0.07295 0.0
C1836 C 0.72996 0.01378 0.153 0.0
C1837 C 0.76952 0.98625 0.09992 0.0
N1838 N 0.77053 0.98754 0.19309 0.0
N1839 N 0.74863 0.03308 0.06466 0.0
H1840 H 0.79664 0.9457 0.07582 0.0
H1841 H 0.77404 0.97269 0.04795 0.0
H1842 H 0.73574 0.05637 0.06104 0.0
H1843 H 0.76656 0.02751 0.04614 0.0
H1844 H 0.76039 1.00136 0.21342 0.0
H1845 H 0.79269 0.97376 0.19965 0.0
H1846 H 0.7074 1.00845 0.20102 0.0
H1847 H 0.68449 0.03514 0.17327 0.0
C1848 C 0.27943 0.50426 0.60217 0.0
C1849 C 0.2774 0.47738 0.62701 0.0
C1850 C 0.22103 0.50388 0.64389 0.0
C1851 C 0.225 0.53225 0.62132 0.0
N1852 N 0.26529 0.56392 0.58702 0.0
N1853 N 0.25076 0.46303 0.68019 0.0
C1854 C 0.25659 0.53385 0.60319 0.0
C1855 C 0.24931 0.48026 0.65022 0.0
N1856 N 0.30175 0.50105 0.57612 0.0
N1857 N 0.19041 0.49963 0.66011 0.0
H1858 H 0.27272 0.4501 0.68879 0.0
H1859 H 0.23252 0.46627 0.69893 0.0
H1860 H 0.17004 0.51704 0.65747 0.0
H1861 H 0.18451 0.47743 0.67407 0.0
H1862 H 0.30357 0.51921 0.55694 0.0
H1863 H 0.3151 0.47829 0.57093 0.0
H1864 H 0.28954 0.56837 0.57654 0.0
H1865 H 0.24951 0.58571 0.5872 0.0
C1866 C 0.24153 0.49208 0.4062 0.0
C1867 C 0.23984 0.47037 0.37622 0.0
C1868 C 0.28999 0.50727 0.3558 0.0
C1869 C 0.28935 0.53035 0.3845 0.0
N1870 N 0.25244 0.55128 0.428 0.0
N1871 N 0.25523 0.46956 0.31712 0.0
C1872 C 0.26168 0.52453 0.40716 0.0
C1873 C 0.26227 0.48123 0.34952 0.0
N1874 N 0.22499 0.48173 0.43454 0.0
N1875 N 0.31682 0.5101 0.33413 0.0
H1876 H 0.23239 0.45563 0.31032 0.0
H1877 H 0.26889 0.47859 0.29648 0.0
H1878 H 0.33675 0.52913 0.33743 0.0
H1879 H 0.32044 0.49186 0.31458 0.0
H1880 H 0.22762 0.49577 0.45749 0.0
H1881 H 0.21248 0.45731 0.43642 0.0
H1882 H 0.23036 0.54988 0.44269 0.0
H1883 H 0.26407 0.57619 0.42658 0.0
C1884 C 0.26148 0.492 0.91385 0.0
C1885 C 0.23722 0.47646 0.88915 0.0
C1886 C 0.26757 0.51255 0.84632 0.0
C1887 C 0.28777 0.53229 0.87188 0.0
N1888 N 0.29625 0.54359 0.93209 0.0
N1889 N 0.21417 0.47891 0.83175 0.0
C1890 C 0.28249 0.52273 0.90622 0.0
C1891 C 0.23945 0.4888 0.85538 0.0
N1892 N 0.2662 0.47634 0.94438 0.0
N1893 N 0.2763 0.51455 0.81313 0.0
H1894 H 0.19288 0.46272 0.83723 0.0
H1895 H 0.21239 0.48982 0.80778 0.0
H1896 H 0.29837 0.52811 0.80526 0.0
H1897 H 0.26424 0.49904 0.79388 0.0
H1898 H 0.28546 0.48456 0.96222 0.0
H1899 H 0.25418 0.4524 0.9499 0.0
H1900 H 0.29056 0.53965 0.9574 0.0
H1901 H 0.30979 0.56713 0.92814 0.0
C1902 C 0.66763 0.74901 0.02077 0.0
C1903 C 0.63903 0.73127 0.03656 0.0
C1904 C 0.59982 0.76462 0.99766 0.0
C1905 C 0.62818 0.78593 0.98601 0.0
N1906 N 0.68914 0.80171 0.9938 0.0
N1907 N 0.57661 0.72839 0.0423 0.0
C1908 C 0.66203 0.77893 0.99965 0.0
C1909 C 0.60476 0.74078 0.0255 0.0
N1910 N 0.70051 0.73644 0.02429 0.0
N1911 N 0.56818 0.76572 0.98106 0.0
H1912 H 0.57877 0.71214 0.06311 0.0
H1913 H 0.55145 0.73713 0.03776 0.0
H1914 H 0.56403 0.781 0.95982 0.0
H1915 H 0.54736 0.74865 0.98594 0.0
H1916 H 0.72139 0.74593 0.01059 0.0
H1917 H 0.70629 0.71375 0.03729 0.0
H1918 H 0.71353 0.8001 1.00595 0.0
H1919 H 0.68629 0.82447 0.97991 0.0
C1920 C 0.52733 0.42568 0.26492 0.0
C1921 C 0.54212 0.39851 0.28507 0.0
C1922 C 0.51048 0.35542 0.24664 0.0
C1923 C 0.4917 0.38239 0.22981 0.0
N1924 N 0.47861 0.44392 0.22924 0.0
N1925 N 0.53901 0.33719 0.29877 0.0
C1926 C 0.49921 0.41773 0.24067 0.0
C1927 C 0.53125 0.36331 0.27686 0.0
N1928 N 0.5409 0.45914 0.26757 0.0
N1929 N 0.50986 0.32212 0.23315 0.0
H1930 H 0.55188 0.34194 0.32213 0.0
H1931 H 0.52891 0.31162 0.29562 0.0
H1932 H 0.49706 0.31525 0.21026 0.0
H1933 H 0.52566 0.30247 0.24251 0.0
H1934 H 0.5338 0.47884 0.251 0.0
H1935 H 0.56195 0.46641 0.28358 0.0
H1936 H 0.48047 0.46951 0.23911 0.0
H1937 H 0.45732 0.43946 0.21257 0.0
C1938 C 0.85116 0.24101 0.50688 0.0
C1939 C 0.88399 0.23734 0.49176 0.0
C1940 C 0.90669 0.28661 0.52998 0.0
C1941 C 0.87322 0.29205 0.54367 0.0
N1942 N 0.81132 0.28123 0.53233 0.0
N1943 N 0.93752 0.26799 0.48022 0.0
C1944 C 0.8448 0.27105 0.52854 0.0
C1945 C 0.91022 0.26339 0.50092 0.0
N1946 N 0.8257 0.2158 0.50084 0.0
N1947 N 0.93565 0.30245 0.54498 0.0
H1948 H 0.93841 0.2543 0.45713 0.0
H1949 H 0.95607 0.28835 0.48371 0.0
H1950 H 0.93484 0.31815 0.56684 0.0
H1951 H 0.96077 0.29708 0.53745 0.0
H1952 H 0.80255 0.21511 0.51395 0.0
H1953 H 0.82897 0.19415 0.48477 0.0
H1954 H 0.79 0.26867 0.51982 0.0
H1955 H 0.80528 0.30513 0.54353 0.0
C1956 C 0.02938 0.63619 0.80112 0.0
C1957 C 0.99329 0.63335 0.79107 0.0
C1958 C 0.01178 0.63915 0.73131 0.0
C1959 C 0.04788 0.63686 0.7412 0.0
N1960 N 0.08936 0.62604 0.78664 0.0
N1961 N 0.95137 0.62688 0.7444 0.0
C1962 C 0.05611 0.63352 0.77646 0.0
C1963 C 0.98491 0.63348 0.75554 0.0
N1964 N 0.03841 0.64288 0.83444 0.0
N1965 N 1.00274 0.64865 0.69907 0.0
H1966 H 0.93095 0.62378 0.76077 0.0
H1967 H 0.94434 0.62178 0.71901 0.0
H1968 H 0.02085 0.65471 0.68087 0.0
H1969 H 0.97735 0.65448 0.6915 0.0
H1970 H 0.06393 0.64859 0.84296 0.0
H1971 H 0.02 0.64691 0.85291 0.0
H1972 H 0.09622 0.61966 0.81147 0.0
H1973 H 0.10924 0.62226 0.76968 0.0
C1974 C 0.62724 0.24929 0.46581 0.0
C1975 C 0.63478 0.28505 0.47534 0.0
C1976 C 0.63175 0.2669 0.53563 0.0
C1977 C 0.62864 0.23046 0.52589 0.0
N1978 N 0.63392 0.18826 0.47999 0.0
N1979 N 0.65018 0.32606 0.52099 0.0
C1980 C 0.62918 0.22212 0.49046 0.0
C1981 C 0.63851 0.29332 0.51075 0.0
N1982 N 0.61725 0.24105 0.43303 0.0
N1983 N 0.62711 0.27687 0.56851 0.0
H1984 H 0.65518 0.34588 0.50401 0.0
H1985 H 0.65773 0.3326 0.54597 0.0
H1986 H 0.62238 0.25907 0.58743 0.0
H1987 H 0.62491 0.30295 0.57642 0.0
H1988 H 0.60816 0.21604 0.42526 0.0
H1989 H 0.61413 0.26003 0.41458 0.0
H1990 H 0.63757 0.18111 0.45474 0.0
H1991 H 0.63884 0.16814 0.49682 0.0
C1992 C 0.99766 0.41151 0.76097 0.0
C1993 C 0.98082 0.38304 0.7421 0.0
C1994 C 0.01665 0.34272 0.77651 0.0
C1995 C 0.03696 0.37145 0.79157 0.0
N1996 N 0.05039 0.43353 0.79044 0.0
N1997 N 0.97982 0.32095 0.72896 0.0
C1998 C 0.02829 0.40592 0.78175 0.0
C1999 C 0.99176 0.34847 0.74921 0.0
N2000 N 0.98378 0.44406 0.76018 0.0
N2001 N 0.01992 0.30982 0.78899 0.0
H2002 H 0.96233 0.32378 0.70855 0.0
H2003 H 0.98986 0.29587 0.73041 0.0
H2004 H 0.03668 0.30433 0.80921 0.0
H2005 H 1.00324 0.28879 0.78175 0.0
H2006 H 0.9928 0.46487 0.77594 0.0
H2007 H 0.96067 0.44903 0.74699 0.0
H2008 H 0.0471 0.45876 0.7814 0.0
H2009 H 0.07422 0.43034 0.80318 0.0
C2010 C 0.85887 0.77269 0.02479 0.0
C2011 C 0.89361 0.78396 0.03435 0.0
C2012 C 0.9134 0.74559 0.98672 0.0
C2013 C 0.87934 0.73069 0.98035 0.0
N2014 N 0.8217 0.72444 1.00301 0.0
N2015 N 0.9544 0.77002 0.02923 0.0
C2016 C 0.85264 0.74278 1.00209 0.0
C2017 C 0.92097 0.76725 0.01659 0.0
N2018 N 0.83139 0.79101 0.03618 0.0
N2019 N 0.93866 0.74047 0.96375 0.0
H2020 H 0.96078 0.78207 0.05255 0.0
H2021 H 0.97469 0.75607 0.01898 0.0
H2022 H 0.93386 0.72719 0.94066 0.0
H2023 H 0.96307 0.75312 0.96585 0.0
H2024 H 0.80589 0.78594 0.02718 0.0
H2025 H 0.83442 0.81363 0.05137 0.0
H2026 H 0.80247 0.73042 0.02011 0.0
H2027 H 0.81736 0.70052 0.99023 0.0
C2028 C 0.49158 0.64016 0.21978 0.0
C2029 C 0.52798 0.64119 0.22858 0.0
C2030 C 0.5117 0.6526 0.2885 0.0
C2031 C 0.47553 0.64646 0.28017 0.0
N2032 N 0.4324 0.62822 0.23725 0.0
N2033 N 0.57208 0.64594 0.27356 0.0
C2034 C 0.46595 0.63865 0.24558 0.0
C2035 C 0.53781 0.64691 0.26357 0.0
N2036 N 0.48119 0.64228 0.18646 0.0
N2037 N 0.52124 0.66567 0.31997 0.0
H2038 H 0.59205 0.64416 0.25657 0.0
H2039 H 0.58056 0.64489 0.29884 0.0
H2040 H 0.50317 0.67061 0.33838 0.0
H2041 H 0.54638 0.67477 0.32669 0.0
H2042 H 0.45532 0.64516 0.17852 0.0
H2043 H 0.49878 0.64551 0.16709 0.0
H2044 H 0.42458 0.61857 0.21323 0.0
H2045 H 0.41317 0.62561 0.25515 0.0
C2046 C 0.75763 0.98425 0.64932 0.0
C2047 C 0.78845 0.99061 0.63018 0.0
C2048 C 0.76494 0.05045 0.61933 0.0
C2049 C 0.7332 0.04265 0.6354 0.0
N2050 N 0.69583 0.99566 0.65426 0.0
N2051 N 0.80742 0.02595 0.58278 0.0
C2052 C 0.7284 1.00746 0.64651 0.0
C2053 C 0.78835 0.02275 0.61125 0.0
N2054 N 0.75584 0.95725 0.67143 0.0
N2055 N 0.77236 0.08402 0.61 0.0
H2056 H 0.81785 1.00459 0.57022 0.0
H2057 H 0.80689 0.04818 0.56782 0.0
H2058 H 0.75523 0.10447 0.61348 0.0
H2059 H 0.79662 0.09162 0.60099 0.0
H2060 H 0.73503 0.95368 0.68746 0.0
H2061 H 0.77631 0.94102 0.67718 0.0
H2062 H 0.69011 0.96939 0.65922 0.0
H2063 H 0.67414 0.01148 0.65283 0.0
C2064 C 0.15513 0.49044 0.22639 0.0
C2065 C 0.15167 0.52603 0.23742 0.0
C2066 C 0.15064 0.50552 0.29644 0.0
C2067 C 0.14925 0.46972 0.28516 0.0
N2068 N 0.14394 0.4288 0.23771 0.0
N2069 N 0.13751 0.56557 0.28314 0.0
C2070 C 0.14968 0.46243 0.24961 0.0
C2071 C 0.1469 0.53296 0.27251 0.0
N2072 N 0.16549 0.48319 0.19427 0.0
N2073 N 0.15786 0.51379 0.32978 0.0
H2074 H 0.1328 0.58586 0.26641 0.0
H2075 H 0.1306 0.57115 0.30797 0.0
H2076 H 0.16277 0.49497 0.34796 0.0
H2077 H 0.16287 0.53947 0.33857 0.0
H2078 H 0.17213 0.45814 0.18609 0.0
H2079 H 0.17112 0.50261 0.1769 0.0
H2080 H 0.1406 0.42236 0.21201 0.0
H2081 H 0.13892 0.40784 0.25359 0.0
C2082 C 0.77266 0.89718 0.48199 0.0
C2083 C 0.73762 0.89181 0.49219 0.0
C2084 C 0.7601 0.88974 0.55206 0.0
C2085 C 0.79529 0.89339 0.54172 0.0
N2086 N 0.83477 0.89326 0.49563 0.0
N2087 N 0.6994 0.87531 0.53666 0.0
C2088 C 0.80134 0.89484 0.50627 0.0
C2089 C 0.7319 0.88579 0.52717 0.0
N2090 N 0.77868 0.90656 0.44941 0.0
N2091 N 0.75315 0.89207 0.58575 0.0
H2092 H 0.67845 0.87162 0.51937 0.0
H2093 H 0.69402 0.86696 0.56095 0.0
H2094 H 0.77255 0.89444 0.60476 0.0
H2095 H 0.72811 0.8944 0.59477 0.0
H2096 H 0.80295 0.91512 0.44133 0.0
H2097 H 0.75884 0.90878 0.43101 0.0
H2098 H 0.84108 0.89061 0.47026 0.0
H2099 H 0.85609 0.89103 0.51244 0.0
C2100 C 0.37407 0.45929 0.75618 0.0
C2101 C 0.37633 0.46843 0.72141 0.0
C2102 C 0.38713 0.53023 0.74049 0.0
C2103 C 0.37938 0.5219 0.77445 0.0
N2104 N 0.36091 0.47794 0.8136 0.0
N2105 N 0.37827 0.51502 0.68093 0.0
C2106 C 0.37185 0.48619 0.78207 0.0
C2107 C 0.3814 0.50454 0.71371 0.0
N2108 N 0.37496 0.42477 0.76465 0.0
N2109 N 0.4008 0.56269 0.73375 0.0
H2110 H 0.37308 0.49762 0.6606 0.0
H2111 H 0.3774 0.54133 0.67436 0.0
H2112 H 0.40581 0.58191 0.75263 0.0
H2113 H 0.41016 0.56923 0.71013 0.0
H2114 H 0.37639 0.4164 0.7896 0.0
H2115 H 0.37802 0.40473 0.74667 0.0
H2116 H 0.35097 0.45319 0.81951 0.0
H2117 H 0.35903 0.49659 0.83312 0.0
C2118 C 0.79132 0.14949 0.0112 0.0
C2119 C 0.78992 0.12834 0.98125 0.0
C2120 C 0.73505 0.10126 0.99886 0.0
C2121 C 0.73409 0.12488 0.02758 0.0
N2122 N 0.7573 0.17976 0.0526 0.0
N2123 N 0.75313 0.09496 0.94118 0.0
C2124 C 0.76117 0.15138 0.03148 0.0
C2125 C 0.75945 0.10777 0.97336 0.0
N2126 N 0.82118 0.16805 0.02021 0.0
N2127 N 0.71464 0.07128 0.99617 0.0
H2128 H 0.7694 0.10103 0.92148 0.0
H2129 H 0.72972 0.08225 0.93346 0.0
H2130 H 0.69849 0.06211 0.01482 0.0
H2131 H 0.71743 0.05256 0.97685 0.0
H2132 H 0.82479 0.18111 0.04358 0.0
H2133 H 0.84316 0.1681 1.00532 0.0
H2134 H 0.77522 0.20079 0.05434 0.0
H2135 H 0.73415 0.18484 0.0646 0.0
C2136 C 0.23531 0.16189 0.50903 0.0
C2137 C 0.24381 0.14016 0.53646 0.0
C2138 C 0.29103 0.11585 0.50296 0.0
C2139 C 0.28654 0.14235 0.47821 0.0
N2140 N 0.25781 0.19729 0.46501 0.0
N2141 N 0.28217 0.09812 0.56106 0.0
C2142 C 0.25952 0.16712 0.48309 0.0
C2143 C 0.27253 0.11771 0.53395 0.0
N2144 N 0.20365 0.17729 0.50716 0.0
N2145 N 0.31119 0.08773 0.49624 0.0
H2146 H 0.26853 0.09814 0.58352 0.0
H2147 H 0.30504 0.08403 0.56206 0.0
H2148 H 0.32266 0.08364 0.47297 0.0
H2149 H 0.31297 0.06631 0.51212 0.0
H2150 H 0.19509 0.19138 0.48627 0.0
H2151 H 0.18432 0.17216 0.52438 0.0
H2152 H 0.24148 0.21755 0.47162 0.0
H2153 H 0.27552 0.20512 0.44715 0.0
C2154 C 0.12652 0.97652 0.74771 0.0
C2155 C 0.13542 0.98736 0.78176 0.0
C2156 C 0.14449 0.04844 0.76174 0.0
C2157 C 0.13277 0.03804 0.72816 0.0
N2158 N 0.1227 0.99049 0.68773 0.0
N2159 N 0.15278 0.0338 0.82136 0.0
C2160 C 0.12661 1.00153 0.72086 0.0
C2161 C 0.14475 0.02335 0.7886 0.0
N2162 N 0.11608 0.94245 0.74127 0.0
N2163 N 0.1563 0.08217 0.76798 0.0
H2164 H 0.15599 0.01611 0.84096 0.0
H2165 H 0.15481 0.05986 0.8297 0.0
H2166 H 0.15588 0.10152 0.74987 0.0
H2167 H 0.16883 0.09085 0.79047 0.0
H2168 H 0.1045 0.93334 0.71845 0.0
H2169 H 0.11729 0.92335 0.75968 0.0
H2170 H 0.12149 0.96425 0.67985 0.0
H2171 H 0.12424 1.00764 0.66754 0.0
C2172 C 0.26423 0.91596 0.98118 0.0
C2173 C 0.23424 0.89276 0.98078 0.0
C2174 C 0.26172 0.8626 0.02855 0.0
C2175 C 0.28905 0.88854 0.0335 0.0
N2176 N 0.31301 0.94354 0.01438 0.0
N2177 N 0.20139 0.85167 0.01314 0.0
C2178 C 0.28944 0.91639 0.00967 0.0
C2179 C 0.23196 0.86907 1.00768 0.0
N2180 N 0.2688 0.93736 0.95436 0.0
N2181 N 0.26556 0.82972 0.04063 0.0
H2182 H 0.17872 0.85769 0.99973 0.0
H2183 H 0.19806 0.83541 0.03382 0.0
H2184 H 0.28934 0.82166 0.05041 0.0
H2185 H 0.24739 0.80928 0.03553 0.0
H2186 H 0.29147 0.9524 0.9512 0.0
H2187 H 0.25033 0.93838 0.93444 0.0
H2188 H 0.31276 0.96597 0.99975 0.0
H2189 H 0.33105 0.94473 0.0347 0.0
C2190 C 0.37398 0.05371 0.25029 0.0
C2191 C 0.37836 0.04486 0.28498 0.0
C2192 C 0.37539 0.98183 0.26831 0.0
C2193 C 0.37129 0.99072 0.23358 0.0
N2194 N 0.35688 0.03451 0.19285 0.0
N2195 N 0.37377 1.00083 0.32749 0.0
C2196 C 0.36729 0.02654 0.22514 0.0
C2197 C 0.37591 1.00895 0.29406 0.0
N2198 N 0.37849 0.08781 0.24089 0.0
N2199 N 0.38111 0.94782 0.27674 0.0
H2200 H 0.37349 0.02009 0.34668 0.0
H2201 H 0.36882 0.97553 0.33591 0.0
H2202 H 0.38056 0.92718 0.259 0.0
H2203 H 0.38883 0.94034 0.301 0.0
H2204 H 0.38007 0.09534 0.21577 0.0
H2205 H 0.38312 0.10853 0.25821 0.0
H2206 H 0.35028 0.05965 0.18558 0.0
H2207 H 0.35138 0.01519 0.17416 0.0
C2208 C 0.49069 0.24667 0.13055 0.0
C2209 C 0.49751 0.28296 0.13771 0.0
C2210 C 0.5608 0.27117 0.13916 0.0
C2211 C 0.55378 0.23432 0.13671 0.0
N2212 N 0.51038 0.18701 0.13409 0.0
N2213 N 0.53974 0.32921 0.15265 0.0
C2214 C 0.51828 0.22211 0.13307 0.0
C2215 C 0.53281 0.29511 0.1427 0.0
N2216 N 0.45777 0.23563 0.12038 0.0
N2217 N 0.59442 0.28346 0.13727 0.0
H2218 H 0.52042 0.34758 0.15572 0.0
H2219 H 0.56438 0.33866 0.16073 0.0
H2220 H 0.61526 0.26684 0.13404 0.0
H2221 H 0.60124 0.30996 0.13538 0.0
H2222 H 0.45171 0.21034 0.11111 0.0
H2223 H 0.43709 0.25269 0.11801 0.0
H2224 H 0.48515 0.17686 0.1365 0.0
H2225 H 0.52909 0.16789 0.13513 0.0
C2226 C 0.01517 0.22317 0.89172 0.0
C2227 C 0.98095 0.23395 0.88134 0.0
C2228 C 1.00498 0.29503 0.87747 0.0
C2229 C 0.03932 0.28369 0.88515 0.0
N2230 N 0.07585 0.2392 0.90731 0.0
N2231 N 0.94244 0.28236 0.87594 0.0
C2232 C 0.04386 0.24838 0.89469 0.0
C2233 C 0.97574 0.27061 0.87761 0.0
N2234 N 0.02084 0.18864 0.89773 0.0
N2235 N 1.00035 0.32916 0.86894 0.0
H2236 H 0.9207 0.26563 0.87806 0.0
H2237 H 0.93627 0.30879 0.87623 0.0
H2238 H 0.02026 0.3482 0.87156 0.0
H2239 H 0.97738 0.3383 0.85804 0.0
H2240 H 0.04537 0.17797 0.90043 0.0
H2241 H 1.00104 0.16977 0.89882 0.0
H2242 H 0.08111 0.21514 0.91803 0.0
H2243 H 0.09689 0.25708 0.90975 0.0
C2244 C 0.02003 0.77548 0.09597 0.0
C2245 C 0.99842 0.78099 0.1246 0.0
C2246 C 0.02609 0.72787 0.14985 0.0
C2247 C 0.04328 0.72003 0.11908 0.0
N2248 N 0.04845 0.73474 0.05969 0.0
N2249 N 0.98404 0.76225 0.18062 0.0
C2250 C 0.03749 0.74309 0.09139 0.0
C2251 C 1.00238 0.75695 0.15196 0.0
N2252 N 0.02615 0.80131 0.07304 0.0
N2253 N 0.03221 0.70739 0.17729 0.0
H2254 H 0.9717 0.78563 0.18593 0.0
H2255 H 0.98088 0.74354 0.19918 0.0
H2256 H 0.04621 0.68438 0.17596 0.0
H2257 H 0.02464 0.71365 0.2017 0.0
H2258 H 0.04543 0.79956 0.0551 0.0
H2259 H 0.01616 0.82619 0.073 0.0
H2260 H 0.03916 0.74709 0.03799 0.0
H2261 H 0.06529 0.71495 0.05407 0.0
C2262 C 0.49494 0.80094 0.37643 0.0
C2263 C 0.53008 0.79041 0.38184 0.0
C2264 C 0.50723 0.72901 0.38869 0.0
C2265 C 0.47247 0.73881 0.37943 0.0
N2266 N 0.43262 0.7862 0.37522 0.0
N2267 N 0.56956 0.74356 0.39133 0.0
C2268 C 0.46632 0.77546 0.37625 0.0
C2269 C 0.53597 0.75425 0.38784 0.0
N2270 N 0.48896 0.83529 0.36954 0.0
N2271 N 0.51308 0.69582 0.3995 0.0
H2272 H 0.59086 0.76115 0.39331 0.0
H2273 H 0.57657 0.71738 0.39034 0.0
H2274 H 0.49389 0.67617 0.39985 0.0
H2275 H 0.53652 0.68824 0.41069 0.0
H2276 H 0.4653 0.84436 0.36022 0.0
H2277 H 0.50842 0.85485 0.37148 0.0
H2278 H 0.42548 0.81232 0.37598 0.0
H2279 H 0.41138 0.76881 0.37722 0.0
C2280 C 1.00722 0.76456 0.62144 0.0
C2281 C 0.99372 0.77902 0.65184 0.0
C2282 C 0.03385 0.74176 0.6845 0.0
C2283 C 0.05023 0.72986 0.65446 0.0
N2284 N 0.05572 0.73669 0.5942 0.0
N2285 N 1.00283 0.7874 0.71235 0.0
C2286 C 0.0377 0.7431 0.62284 0.0
C2287 C 1.00958 0.76932 0.68321 0.0
N2288 N 0.9903 0.77014 0.59118 0.0
N2289 N 0.03973 0.72579 0.71469 0.0
H2290 H 0.98587 0.80796 0.71312 0.0
H2291 H 0.01718 0.78469 0.73498 0.0
H2292 H 0.0564 0.70528 0.7179 0.0
H2293 H 0.02482 0.73025 0.73591 0.0
H2294 H 0.99648 0.7574 0.56865 0.0
H2295 H 0.96797 0.78503 0.58917 0.0
H2296 H 0.05007 0.74843 0.57115 0.0
H2297 H 0.07858 0.72256 0.59428 0.0
C2298 C 0.03084 0.267 0.44153 0.0
C2299 C 0.04087 0.28245 0.41043 0.0
C2300 C 0.99994 0.23877 0.38019 0.0
C2301 C 0.9891 0.22421 0.41152 0.0
N2302 N 1.0003 0.22318 0.47271 0.0
N2303 N 0.0294 0.28617 0.35039 0.0
C2304 C 1.00625 0.2381 0.4421 0.0
C2305 C 0.02405 0.2689 0.37982 0.0
N2306 N 0.04358 0.28091 0.4718 0.0
N2307 N 0.98928 0.22227 0.35045 0.0
H2308 H 0.04605 0.30812 0.34911 0.0
H2309 H 0.0151 0.28088 0.32794 0.0
H2310 H 0.9735 0.1996 0.34945 0.0
H2311 H 0.99895 0.22866 0.32696 0.0
H2312 H 0.03117 0.27773 0.49469 0.0
H2313 H 0.06672 0.29543 0.47451 0.0
H2314 H 0.01857 0.22424 0.49284 0.0
H2315 H 0.97692 0.21119 0.47913 0.0
C2316 C 0.51075 0.73459 0.8658 0.0
C2317 C 0.47962 0.73418 0.8845 0.0
C2318 C 0.49974 0.7909 0.91097 0.0
C2319 C 0.52943 0.79412 0.88961 0.0
N2320 N 0.55505 0.77034 0.83892 0.0
N2321 N 0.43978 0.77013 0.91421 0.0
C2322 C 0.5326 0.76627 0.86474 0.0
C2323 C 0.47261 0.7651 0.90331 0.0
N2324 N 0.51973 0.70473 0.84899 0.0
N2325 N 0.49809 0.80977 0.94064 0.0
H2326 H 0.41911 0.75304 0.90705 0.0
H2327 H 0.43255 0.79334 0.9262 0.0
H2328 H 0.51892 0.82414 0.95166 0.0
H2329 H 0.47794 0.80614 0.95744 0.0
H2330 H 0.54381 0.70198 0.83791 0.0
H2331 H 0.5038 0.68207 0.84819 0.0
H2332 H 0.55656 0.75211 0.81902 0.0
H2333 H 0.56855 0.79382 0.83476 0.0
C2334 C 0.60987 0.02781 0.74734 0.0
C2335 C 0.64148 0.03617 0.73089 0.0
C2336 C 0.67064 0.99006 0.76395 0.0
C2337 C 0.6386 0.98052 0.77961 0.0
N2338 N 0.57658 0.98708 0.78154 0.0
N2339 N 0.70202 0.02393 0.72298 0.0
C2340 C 0.60796 0.99872 0.77011 0.0
C2341 C 0.67177 0.01697 0.73924 0.0
N2342 N 0.58195 0.0488 0.74239 0.0
N2343 N 0.70094 0.97464 0.77383 0.0
H2344 H 0.70543 0.04456 0.70667 0.0
H2345 H 0.72349 1.00792 0.72323 0.0
H2346 H 0.70249 0.95483 0.79114 0.0
H2347 H 0.72574 0.98384 0.76812 0.0
H2348 H 0.55938 0.04702 0.75622 0.0
H2349 H 0.58245 0.07016 0.7263 0.0
H2350 H 0.55271 0.99637 0.77299 0.0
H2351 H 0.57411 0.96576 0.79751 0.0
C2352 C 0.30237 0.36173 0.0139 0.0
C2353 C 0.30013 0.3846 0.04263 0.0
C2354 C 0.2462 0.40719 0.01798 0.0
C2355 C 0.24557 0.38193 0.99043 0.0
N2356 N 0.27077 0.32857 0.96893 0.0
N2357 N 0.26366 0.42156 0.07565 0.0
C2358 C 0.2731 0.35727 0.99021 0.0
C2359 C 0.26968 0.40409 0.04601 0.0
N2360 N 0.3325 0.34445 0.00898 0.0
N2361 N 0.22685 0.43656 0.01772 0.0
H2362 H 0.27936 0.41877 0.0974 0.0
H2363 H 0.2415 0.4364 0.07892 0.0
H2364 H 0.21252 0.44517 0.99678 0.0
H2365 H 0.21252 0.44517 0.99678 0.0
H2366 H 0.33727 0.33046 0.98672 0.0
H2367 H 0.35347 0.34609 0.02648 0.0
H2368 H 0.28865 0.30851 0.96974 0.0
H2369 H 0.24896 0.32258 0.95334 0.0
C2370 C 0.87579 0.9626 0.2666 0.0
C2371 C 0.87909 0.97139 0.23184 0.0
C2372 C 0.88807 0.03372 0.25079 0.0
C2373 C 0.87969 0.02543 0.28477 0.0
N2374 N 0.85999 0.98126 0.32321 0.0
N2375 N 0.884 0.01712 0.19086 0.0
C2376 C 0.87238 0.98959 0.29223 0.0
C2377 C 0.8844 1.00744 0.224 0.0
N2378 N 0.87645 0.92812 0.27532 0.0
N2379 N 0.90045 0.06671 0.24411 0.0
H2380 H 0.88167 0.99908 0.17066 0.0
H2381 H 0.88329 0.04315 0.18341 0.0
H2382 H 0.90423 0.0862 0.26291 0.0
H2383 H 0.91028 0.07364 0.22081 0.0
H2384 H 0.87743 0.91993 0.30034 0.0
H2385 H 0.87968 0.9079 0.25755 0.0
H2386 H 0.85013 0.95639 0.32878 0.0
H2387 H 0.85643 0.99989 0.34241 0.0
C2388 C 0.23997 0.591 0.51418 0.0
C2389 C 0.22365 0.62246 0.52464 0.0
C2390 C 0.26402 0.65593 0.48826 0.0
C2391 C 0.28247 0.62483 0.48091 0.0
N2392 N 0.29055 0.56317 0.49287 0.0
N2393 N 0.22 0.68529 0.52086 0.0
C2394 C 0.27131 0.59273 0.49579 0.0
C2395 C 0.23576 0.65503 0.51143 0.0
N2396 N 0.22574 0.55875 0.52122 0.0
N2397 N 0.27362 0.68652 0.47318 0.0
H2398 H 0.19692 0.68545 0.53407 0.0
H2399 H 0.23001 0.71034 0.51638 0.0
H2400 H 0.29603 0.68922 0.45916 0.0
H2401 H 0.25892 0.70905 0.47348 0.0
H2402 H 0.23242 0.53575 0.50859 0.0
H2403 H 0.2063 0.55415 0.53829 0.0
H2404 H 0.28612 0.54076 0.50683 0.0
H2405 H 0.31167 0.56039 0.47752 0.0
C2406 C 0.7259 0.6463 1.00147 0.0
C2407 C 0.73225 0.62954 0.03257 0.0
C2408 C 0.78615 0.60623 0.00908 0.0
C2409 C 0.78308 0.62867 0.98065 0.0
N2410 N 0.75319 0.67906 0.95813 0.0
N2411 N 0.7706 0.59547 0.06739 0.0
C2412 C 0.75359 0.65088 0.97884 0.0
C2413 C 0.76317 0.61021 0.03688 0.0
N2414 N 0.69379 0.65902 0.99365 0.0
N2415 N 0.80957 0.57992 0.00902 0.0
H2416 H 0.75364 0.59649 0.08751 0.0
H2417 H 0.79447 0.58433 0.07328 0.0
H2418 H 0.82472 0.57421 0.98829 0.0
H2419 H 0.8109 0.56115 0.0278 0.0
H2420 H 0.68727 0.66863 0.96978 0.0
H2421 H 0.67287 0.65715 0.00975 0.0
H2422 H 0.73343 0.6973 0.958 0.0
H2423 H 0.77502 0.68769 0.94567 0.0
C2424 C 0.64196 0.53124 0.2873 0.0
C2425 C 0.63541 0.49477 0.28003 0.0
C2426 C 0.63085 0.50865 0.21911 0.0
C2427 C 0.63054 0.54513 0.22689 0.0
N2428 N 0.63895 0.59166 0.26862 0.0
N2429 N 0.61963 0.44953 0.23792 0.0
C2430 C 0.63739 0.55656 0.26107 0.0
C2431 C 0.62933 0.48362 0.24557 0.0
N2432 N 0.65374 0.54154 0.3191 0.0
N2433 N 0.6339 0.49789 0.18618 0.0
H2434 H 0.6169 0.43032 0.25609 0.0
H2435 H 0.61093 0.44109 0.21375 0.0
H2436 H 0.6358 0.51562 0.16647 0.0
H2437 H 0.63818 0.47191 0.17905 0.0
H2438 H 0.66205 0.56707 0.32565 0.0
H2439 H 0.65829 0.52378 0.33839 0.0
H2440 H 0.63899 0.60213 0.29319 0.0
H2441 H 0.63932 0.6105 0.24991 0.0
C2442 C 0.79696 0.38022 0.49621 0.0
C2443 C 0.78664 0.39226 0.52862 0.0
C2444 C 0.72674 0.39938 0.50491 0.0
C2445 C 0.73699 0.38673 0.47246 0.0
N2446 N 0.78452 0.37706 0.43545 0.0
N2447 N 0.74402 0.42093 0.56179 0.0
C2448 C 0.77297 0.38081 0.46766 0.0
C2449 C 0.75222 0.40431 0.53219 0.0
N2450 N 0.8292 0.36652 0.49288 0.0
N2451 N 0.69244 0.40516 0.51037 0.0
H2452 H 0.76201 0.42481 0.582 0.0
H2453 H 0.72075 0.43368 0.5653 0.0
H2454 H 0.6732 0.40332 0.4913 0.0
H2455 H 0.68249 0.40966 0.53425 0.0
H2456 H 0.83673 0.35326 0.47108 0.0
H2457 H 0.84766 0.36632 0.5128 0.0
H2458 H 0.8108 0.37597 0.42986 0.0
H2459 H 0.76797 0.37871 0.41409 0.0
C2460 C 0.89006 0.47024 0.7731 0.0
C2461 C 0.8857 0.48004 0.73864 0.0
C2462 C 0.88177 0.54238 0.75808 0.0
C2463 C 0.8887 0.53279 0.7924 0.0
N2464 N 0.88806 0.48674 0.833 0.0
N2465 N 0.87066 0.52419 0.69874 0.0
C2466 C 0.88939 0.49637 0.79991 0.0
C2467 C 0.87935 0.51583 0.7314 0.0
N2468 N 0.89653 0.43604 0.78019 0.0
N2469 N 0.87846 0.57702 0.75083 0.0
H2470 H 0.86837 0.50533 0.67919 0.0
H2471 H 0.86335 0.54894 0.6911 0.0
H2472 H 0.87719 0.59652 0.76955 0.0
H2473 H 0.87754 0.5869 0.72648 0.0
H2474 H 0.90467 0.42761 0.804 0.0
H2475 H 0.89552 0.41613 0.76163 0.0
H2476 H 0.88552 0.46085 0.84065 0.0
H2477 H 0.88571 0.50506 0.85276 0.0
C2478 C 0.47589 0.24403 0.60089 0.0
C2479 C 0.48605 0.27771 0.61471 0.0
C2480 C 0.54475 0.25453 0.62808 0.0
C2481 C 0.53441 0.22021 0.61489 0.0
N2482 N 0.48577 0.18132 0.599 0.0
N2483 N 0.52783 0.31241 0.64826 0.0
C2484 C 0.49868 0.21482 0.60425 0.0
C2485 C 0.51978 0.28203 0.63033 0.0
N2486 N 0.44475 0.23998 0.58336 0.0
N2487 N 0.57876 0.26191 0.63715 0.0
H2488 H 0.51059 0.33302 0.65009 0.0
H2489 H 0.55005 0.31597 0.66388 0.0
H2490 H 0.59796 0.24339 0.63752 0.0
H2491 H 0.58876 0.28725 0.64196 0.0
H2492 H 0.43766 0.21752 0.569 0.0
H2493 H 0.42707 0.26014 0.581 0.0
H2494 H 0.45942 0.17527 0.59434 0.0
H2495 H 0.50064 0.15929 0.60348 0.0
loop_
_geom_bond_atom_site_label_1
_geom_bond_atom_site_label_2
_geom_bond_distance
_geom_bond_site_symmetry_2
_ccdc_geom_bond_type
Co0 H3 2.400 . S
Co0 O4 2.009 . S
Co0 O12 2.115 . S
Co0 O13 2.315 . S
Co0 O24 2.053 . S
Co0 O27 2.094 . S
Co0 O30 2.122 . S
Co1 O4 2.126 . S
Co1 H5 2.388 . S
Co1 O6 2.053 . S
Co1 O9 2.047 . S
Co1 O15 2.113 . S
Co1 O26 2.063 . S
Co2 H3 2.388 . S
Co2 O4 2.053 . S
Co2 O6 2.126 . S
Co2 O11 2.063 . S
Co2 O25 2.047 . S
Co2 O31 2.113 . S
H3 Co0 2.400 . S
H3 Co2 2.388 . S
H3 O4 0.760 . S
O4 Co0 2.009 . S
O4 Co1 2.126 . S
O4 Co2 2.053 . S
O4 H3 0.760 . S
H5 Co1 2.388 . S
H5 O6 0.760 . S
H5 Co7 2.400 . S
O6 Co1 2.053 . S
O6 Co2 2.126 . S
O6 H5 0.760 . S
O6 Co7 2.009 . S
Co7 H5 2.400 . S
Co7 O6 2.009 . S
Co7 O8 2.053 . S
Co7 O10 2.094 . S
Co7 O14 2.122 . S
Co7 O28 2.115 . S
Co7 O29 2.315 . S
O8 Co7 2.053 . S
O8 C20 1.259 . S
O9 Co1 2.047 . S
O9 C20 1.257 . S
O10 Co7 2.094 . S
O10 C21 1.253 . S
O11 Co2 2.063 . S
O11 C21 1.268 . S
O12 Co0 2.115 . S
O12 C22 1.281 . S
O13 Co0 2.315 . S
O13 C22 1.252 . S
O14 Co7 2.122 . S
O14 C23 1.272 . S
O15 Co1 2.113 . S
O15 C23 1.245 . S
C16 O24 1.259 . S
C16 O25 1.257 . S
C17 O26 1.268 . S
C17 O27 1.253 . S
C18 O28 1.281 . S
C18 O29 1.252 . S
C19 O30 1.272 . S
C19 O31 1.245 . S
C20 O8 1.259 . S
C20 O9 1.257 . S
C21 O10 1.253 . S
C21 O11 1.268 . S
C22 O12 1.281 . S
C22 O13 1.252 . S
C23 O14 1.272 . S
C23 O15 1.245 . S
O24 Co0 2.053 . S
O24 C16 1.259 . S
O25 Co2 2.047 . S
O25 C16 1.257 . S
O26 Co1 2.063 . S
O26 C17 1.268 . S
O27 Co0 2.094 . S
O27 C17 1.253 . S
O28 Co7 2.115 . S
O28 C18 1.281 . S
O29 Co7 2.315 . S
O29 C18 1.252 . S
O30 Co0 2.122 . S
O30 C19 1.272 . S
O31 Co2 2.113 . S
O31 C19 1.245 . S
Co32 H35 2.400 . S
Co32 O36 2.009 . S
Co32 O44 2.115 . S
Co32 O45 2.315 . S
Co32 O56 2.053 . S
Co32 O59 2.094 . S
Co32 O62 2.122 . S
Co33 O36 2.126 . S
Co33 H37 2.388 . S
Co33 O38 2.053 . S
Co33 O41 2.047 . S
Co33 O47 2.113 . S
Co33 O58 2.063 . S
Co34 H35 2.388 . S
Co34 O36 2.053 . S
Co34 O38 2.126 . S
Co34 O43 2.063 . S
Co34 O57 2.047 . S
Co34 O63 2.113 . S
H35 Co32 2.400 . S
H35 Co34 2.388 . S
H35 O36 0.760 . S
O36 Co32 2.009 . S
O36 Co33 2.126 . S
O36 Co34 2.053 . S
O36 H35 0.760 . S
H37 Co33 2.388 . S
H37 O38 0.760 . S
H37 Co39 2.400 . S
O38 Co33 2.053 . S
O38 Co34 2.126 . S
O38 H37 0.760 . S
O38 Co39 2.009 . S
Co39 H37 2.400 . S
Co39 O38 2.009 . S
Co39 O40 2.053 . S
Co39 O42 2.094 . S
Co39 O46 2.122 . S
Co39 O60 2.115 . S
Co39 O61 2.315 . S
O40 Co39 2.053 . S
O40 C52 1.259 . S
O41 Co33 2.047 . S
O41 C52 1.257 . S
O42 Co39 2.094 . S
O42 C53 1.253 . S
O43 Co34 2.063 . S
O43 C53 1.268 . S
O44 Co32 2.115 . S
O44 C54 1.281 . S
O45 Co32 2.315 . S
O45 C54 1.252 . S
O46 Co39 2.122 . S
O46 C55 1.272 . S
O47 Co33 2.113 . S
O47 C55 1.245 . S
C48 O56 1.259 . S
C48 O57 1.257 . S
C49 O58 1.268 . S
C49 O59 1.253 . S
C50 O60 1.281 . S
C50 O61 1.252 . S
C51 O62 1.272 . S
C51 O63 1.245 . S
C52 O40 1.259 . S
C52 O41 1.257 . S
C53 O42 1.253 . S
C53 O43 1.268 . S
C54 O44 1.281 . S
C54 O45 1.252 . S
C55 O46 1.272 . S
C55 O47 1.245 . S
O56 Co32 2.053 . S
O56 C48 1.259 . S
O57 Co34 2.047 . S
O57 C48 1.257 . S
O58 Co33 2.063 . S
O58 C49 1.268 . S
O59 Co32 2.094 . S
O59 C49 1.253 . S
O60 Co39 2.115 . S
O60 C50 1.281 . S
O61 Co39 2.315 . S
O61 C50 1.252 . S
O62 Co32 2.122 . S
O62 C51 1.272 . S
O63 Co34 2.113 . S
O63 C51 1.245 . S
Co64 H67 2.400 . S
Co64 O68 2.009 . S
Co64 O76 2.115 . S
Co64 O77 2.315 . S
Co64 O88 2.053 . S
Co64 O91 2.094 . S
Co64 O94 2.122 . S
Co65 O68 2.126 . S
Co65 H69 2.388 . S
Co65 O70 2.053 . S
Co65 O73 2.047 . S
Co65 O79 2.113 . S
Co65 O90 2.063 . S
Co66 H67 2.388 . S
Co66 O68 2.053 . S
Co66 O70 2.126 . S
Co66 O75 2.063 . S
Co66 O89 2.047 . S
Co66 O95 2.113 . S
H67 Co64 2.400 . S
H67 Co66 2.388 . S
H67 O68 0.760 . S
O68 Co64 2.009 . S
O68 Co65 2.126 . S
O68 Co66 2.053 . S
O68 H67 0.760 . S
H69 Co65 2.388 . S
H69 O70 0.760 . S
H69 Co71 2.400 . S
O70 Co65 2.053 . S
O70 Co66 2.126 . S
O70 H69 0.760 . S
O70 Co71 2.009 . S
Co71 H69 2.400 . S
Co71 O70 2.009 . S
Co71 O72 2.053 . S
Co71 O74 2.094 . S
Co71 O78 2.122 . S
Co71 O92 2.115 . S
Co71 O93 2.315 . S
O72 Co71 2.053 . S
O72 C84 1.259 . S
O73 Co65 2.047 . S
O73 C84 1.257 . S
O74 Co71 2.094 . S
O74 C85 1.253 . S
O75 Co66 2.063 . S
O75 C85 1.268 . S
O76 Co64 2.115 . S
O76 C86 1.281 . S
O77 Co64 2.315 . S
O77 C86 1.252 . S
O78 Co71 2.122 . S
O78 C87 1.272 . S
O79 Co65 2.113 . S
O79 C87 1.245 . S
C80 O88 1.259 . S
C80 O89 1.257 . S
C81 O90 1.268 . S
C81 O91 1.253 . S
C82 O92 1.281 . S
C82 O93 1.252 . S
C83 O94 1.272 . S
C83 O95 1.245 . S
C84 O72 1.259 . S
C84 O73 1.257 . S
C85 O74 1.253 . S
C85 O75 1.268 . S
C86 O76 1.281 . S
C86 O77 1.252 . S
C87 O78 1.272 . S
C87 O79 1.245 . S
O88 Co64 2.053 . S
O88 C80 1.259 . S
O89 Co66 2.047 . S
O89 C80 1.257 . S
O90 Co65 2.063 . S
O90 C81 1.268 . S
O91 Co64 2.094 . S
O91 C81 1.253 . S
O92 Co71 2.115 . S
O92 C82 1.281 . S
O93 Co71 2.315 . S
O93 C82 1.252 . S
O94 Co64 2.122 . S
O94 C83 1.272 . S
O95 Co66 2.113 . S
O95 C83 1.245 . S
Co96 H99 2.400 . S
Co96 O100 2.009 . S
Co96 O108 2.115 . S
Co96 O109 2.315 . S
Co96 O120 2.053 . S
Co96 O123 2.094 . S
Co96 O126 2.122 . S
Co97 O100 2.126 . S
Co97 H101 2.388 . S
Co97 O102 2.053 . S
Co97 O105 2.047 . S
Co97 O111 2.113 . S
Co97 O122 2.063 . S
Co98 H99 2.388 . S
Co98 O100 2.053 . S
Co98 O102 2.126 . S
Co98 O107 2.063 . S
Co98 O121 2.047 . S
Co98 O127 2.113 . S
H99 Co96 2.400 . S
H99 Co98 2.388 . S
H99 O100 0.760 . S
O100 Co96 2.009 . S
O100 Co97 2.126 . S
O100 Co98 2.053 . S
O100 H99 0.760 . S
H101 Co97 2.388 . S
H101 O102 0.760 . S
H101 Co103 2.400 . S
O102 Co97 2.053 . S
O102 Co98 2.126 . S
O102 H101 0.760 . S
O102 Co103 2.009 . S
Co103 H101 2.400 . S
Co103 O102 2.009 . S
Co103 O104 2.053 . S
Co103 O106 2.094 . S
Co103 O110 2.122 . S
Co103 O124 2.115 . S
Co103 O125 2.315 . S
O104 Co103 2.053 . S
O104 C116 1.259 . S
O105 Co97 2.047 . S
O105 C116 1.257 . S
O106 Co103 2.094 . S
O106 C117 1.253 . S
O107 Co98 2.063 . S
O107 C117 1.268 . S
O108 Co96 2.115 . S
O108 C118 1.281 . S
O109 Co96 2.315 . S
O109 C118 1.252 . S
O110 Co103 2.122 . S
O110 C119 1.272 . S
O111 Co97 2.113 . S
O111 C119 1.245 . S
C112 O120 1.259 . S
C112 O121 1.257 . S
C113 O122 1.268 . S
C113 O123 1.253 . S
C114 O124 1.281 . S
C114 O125 1.252 . S
C115 O126 1.272 . S
C115 O127 1.245 . S
C116 O104 1.259 . S
C116 O105 1.257 . S
C117 O106 1.253 . S
C117 O107 1.268 . S
C118 O108 1.281 . S
C118 O109 1.252 . S
C119 O110 1.272 . S
C119 O111 1.245 . S
O120 Co96 2.053 . S
O120 C112 1.259 . S
O121 Co98 2.047 . S
O121 C112 1.257 . S
O122 Co97 2.063 . S
O122 C113 1.268 . S
O123 Co96 2.094 . S
O123 C113 1.253 . S
O124 Co103 2.115 . S
O124 C114 1.281 . S
O125 Co103 2.315 . S
O125 C114 1.252 . S
O126 Co96 2.122 . S
O126 C115 1.272 . S
O127 Co98 2.113 . S
O127 C115 1.245 . S
Co128 H131 2.400 . S
Co128 O132 2.009 . S
Co128 O140 2.115 . S
Co128 O141 2.315 . S
Co128 O152 2.053 . S
Co128 O155 2.094 . S
Co128 O158 2.122 . S
Co129 O132 2.126 . S
Co129 H133 2.388 . S
Co129 O134 2.053 . S
Co129 O137 2.047 . S
Co129 O143 2.113 . S
Co129 O154 2.063 . S
Co130 H131 2.388 . S
Co130 O132 2.053 . S
Co130 O134 2.126 . S
Co130 O139 2.063 . S
Co130 O153 2.047 . S
Co130 O159 2.113 . S
H131 Co128 2.400 . S
H131 Co130 2.388 . S
H131 O132 0.760 . S
O132 Co128 2.009 . S
O132 Co129 2.126 . S
O132 Co130 2.053 . S
O132 H131 0.760 . S
H133 Co129 2.388 . S
H133 O134 0.760 . S
H133 Co135 2.400 . S
O134 Co129 2.053 . S
O134 Co130 2.126 . S
O134 H133 0.760 . S
O134 Co135 2.009 . S
Co135 H133 2.400 . S
Co135 O134 2.009 . S
Co135 O136 2.053 . S
Co135 O138 2.094 . S
Co135 O142 2.122 . S
Co135 O156 2.115 . S
Co135 O157 2.315 . S
O136 Co135 2.053 . S
O136 C148 1.259 . S
O137 Co129 2.047 . S
O137 C148 1.257 . S
O138 Co135 2.094 . S
O138 C149 1.253 . S
O139 Co130 2.063 . S
O139 C149 1.268 . S
O140 Co128 2.115 . S
O140 C150 1.281 . S
O141 Co128 2.315 . S
O141 C150 1.252 . S
O142 Co135 2.122 . S
O142 C151 1.272 . S
O143 Co129 2.113 . S
O143 C151 1.245 . S
C144 O152 1.259 . S
C144 O153 1.257 . S
C145 O154 1.268 . S
C145 O155 1.253 . S
C146 O156 1.281 . S
C146 O157 1.252 . S
C147 O158 1.272 . S
C147 O159 1.245 . S
C148 O136 1.259 . S
C148 O137 1.257 . S
C149 O138 1.253 . S
C149 O139 1.268 . S
C150 O140 1.281 . S
C150 O141 1.252 . S
C151 O142 1.272 . S
C151 O143 1.245 . S
O152 Co128 2.053 . S
O152 C144 1.259 . S
O153 Co130 2.047 . S
O153 C144 1.257 . S
O154 Co129 2.063 . S
O154 C145 1.268 . S
O155 Co128 2.094 . S
O155 C145 1.253 . S
O156 Co135 2.115 . S
O156 C146 1.281 . S
O157 Co135 2.315 . S
O157 C146 1.252 . S
O158 Co128 2.122 . S
O158 C147 1.272 . S
O159 Co130 2.113 . S
O159 C147 1.245 . S
Co160 H163 2.400 . S
Co160 O164 2.009 . S
Co160 O172 2.115 . S
Co160 O173 2.315 . S
Co160 O184 2.053 . S
Co160 O187 2.094 . S
Co160 O190 2.122 . S
Co161 O164 2.126 . S
Co161 H165 2.388 . S
Co161 O166 2.053 . S
Co161 O169 2.047 . S
Co161 O175 2.113 . S
Co161 O186 2.063 . S
Co162 H163 2.388 . S
Co162 O164 2.053 . S
Co162 O166 2.126 . S
Co162 O171 2.063 . S
Co162 O185 2.047 . S
Co162 O191 2.113 . S
H163 Co160 2.400 . S
H163 Co162 2.388 . S
H163 O164 0.760 . S
O164 Co160 2.009 . S
O164 Co161 2.126 . S
O164 Co162 2.053 . S
O164 H163 0.760 . S
H165 Co161 2.388 . S
H165 O166 0.760 . S
H165 Co167 2.400 . S
O166 Co161 2.053 . S
O166 Co162 2.126 . S
O166 H165 0.760 . S
O166 Co167 2.009 . S
Co167 H165 2.400 . S
Co167 O166 2.009 . S
Co167 O168 2.053 . S
Co167 O170 2.094 . S
Co167 O174 2.122 . S
Co167 O188 2.115 . S
Co167 O189 2.315 . S
O168 Co167 2.053 . S
O168 C180 1.259 . S
O169 Co161 2.047 . S
O169 C180 1.257 . S
O170 Co167 2.094 . S
O170 C181 1.253 . S
O171 Co162 2.063 . S
O171 C181 1.268 . S
O172 Co160 2.115 . S
O172 C182 1.281 . S
O173 Co160 2.315 . S
O173 C182 1.252 . S
O174 Co167 2.122 . S
O174 C183 1.272 . S
O175 Co161 2.113 . S
O175 C183 1.245 . S
C176 O184 1.259 . S
C176 O185 1.257 . S
C177 O186 1.268 . S
C177 O187 1.253 . S
C178 O188 1.281 . S
C178 O189 1.252 . S
C179 O190 1.272 . S
C179 O191 1.245 . S
C180 O168 1.259 . S
C180 O169 1.257 . S
C181 O170 1.253 . S
C181 O171 1.268 . S
C182 O172 1.281 . S
C182 O173 1.252 . S
C183 O174 1.272 . S
C183 O175 1.245 . S
O184 Co160 2.053 . S
O184 C176 1.259 . S
O185 Co162 2.047 . S
O185 C176 1.257 . S
O186 Co161 2.063 . S
O186 C177 1.268 . S
O187 Co160 2.094 . S
O187 C177 1.253 . S
O188 Co167 2.115 . S
O188 C178 1.281 . S
O189 Co167 2.315 . S
O189 C178 1.252 . S
O190 Co160 2.122 . S
O190 C179 1.272 . S
O191 Co162 2.113 . S
O191 C179 1.245 . S
Co192 H195 2.400 . S
Co192 O196 2.009 . S
Co192 O204 2.115 . S
Co192 O205 2.315 . S
Co192 O216 2.053 . S
Co192 O219 2.094 . S
Co192 O222 2.122 . S
Co193 O196 2.126 . S
Co193 H197 2.388 . S
Co193 O198 2.053 . S
Co193 O201 2.047 . S
Co193 O207 2.113 . S
Co193 O218 2.063 . S
Co194 H195 2.388 . S
Co194 O196 2.053 . S
Co194 O198 2.126 . S
Co194 O203 2.063 . S
Co194 O217 2.047 . S
Co194 O223 2.113 . S
H195 Co192 2.400 . S
H195 Co194 2.388 . S
H195 O196 0.760 . S
O196 Co192 2.009 . S
O196 Co193 2.126 . S
O196 Co194 2.053 . S
O196 H195 0.760 . S
H197 Co193 2.388 . S
H197 O198 0.760 . S
H197 Co199 2.400 . S
O198 Co193 2.053 . S
O198 Co194 2.126 . S
O198 H197 0.760 . S
O198 Co199 2.009 . S
Co199 H197 2.400 . S
Co199 O198 2.009 . S
Co199 O200 2.053 . S
Co199 O202 2.094 . S
Co199 O206 2.122 . S
Co199 O220 2.115 . S
Co199 O221 2.315 . S
O200 Co199 2.053 . S
O200 C212 1.259 . S
O201 Co193 2.047 . S
O201 C212 1.257 . S
O202 Co199 2.094 . S
O202 C213 1.253 . S
O203 Co194 2.063 . S
O203 C213 1.268 . S
O204 Co192 2.115 . S
O204 C214 1.281 . S
O205 Co192 2.315 . S
O205 C214 1.252 . S
O206 Co199 2.122 . S
O206 C215 1.272 . S
O207 Co193 2.113 . S
O207 C215 1.245 . S
C208 O216 1.259 . S
C208 O217 1.257 . S
C209 O218 1.268 . S
C209 O219 1.253 . S
C210 O220 1.281 . S
C210 O221 1.252 . S
C211 O222 1.272 . S
C211 O223 1.245 . S
C212 O200 1.259 . S
C212 O201 1.257 . S
C213 O202 1.253 . S
C213 O203 1.268 . S
C214 O204 1.281 . S
C214 O205 1.252 . S
C215 O206 1.272 . S
C215 O207 1.245 . S
O216 Co192 2.053 . S
O216 C208 1.259 . S
O217 Co194 2.047 . S
O217 C208 1.257 . S
O218 Co193 2.063 . S
O218 C209 1.268 . S
O219 Co192 2.094 . S
O219 C209 1.253 . S
O220 Co199 2.115 . S
O220 C210 1.281 . S
O221 Co199 2.315 . S
O221 C210 1.252 . S
O222 Co192 2.122 . S
O222 C211 1.272 . S
O223 Co194 2.113 . S
O223 C211 1.245 . S
Co224 H227 2.400 . S
Co224 O228 2.009 . S
Co224 O236 2.115 . S
Co224 O237 2.315 . S
Co224 O248 2.053 . S
Co224 O251 2.094 . S
Co224 O254 2.122 . S
Co225 O228 2.126 . S
Co225 H229 2.388 . S
Co225 O230 2.053 . S
Co225 O233 2.047 . S
Co225 O239 2.113 . S
Co225 O250 2.063 . S
Co226 H227 2.388 . S
Co226 O228 2.053 . S
Co226 O230 2.126 . S
Co226 O235 2.063 . S
Co226 O249 2.047 . S
Co226 O255 2.113 . S
H227 Co224 2.400 . S
H227 Co226 2.388 . S
H227 O228 0.760 . S
O228 Co224 2.009 . S
O228 Co225 2.126 . S
O228 Co226 2.053 . S
O228 H227 0.760 . S
H229 Co225 2.388 . S
H229 O230 0.760 . S
H229 Co231 2.400 . S
O230 Co225 2.053 . S
O230 Co226 2.126 . S
O230 H229 0.760 . S
O230 Co231 2.009 . S
Co231 H229 2.400 . S
Co231 O230 2.009 . S
Co231 O232 2.053 . S
Co231 O234 2.094 . S
Co231 O238 2.122 . S
Co231 O252 2.115 . S
Co231 O253 2.315 . S
O232 Co231 2.053 . S
O232 C244 1.259 . S
O233 Co225 2.047 . S
O233 C244 1.257 . S
O234 Co231 2.094 . S
O234 C245 1.253 . S
O235 Co226 2.063 . S
O235 C245 1.268 . S
O236 Co224 2.115 . S
O236 C246 1.281 . S
O237 Co224 2.315 . S
O237 C246 1.252 . S
O238 Co231 2.122 . S
O238 C247 1.272 . S
O239 Co225 2.113 . S
O239 C247 1.245 . S
C240 O248 1.259 . S
C240 O249 1.257 . S
C241 O250 1.268 . S
C241 O251 1.253 . S
C242 O252 1.281 . S
C242 O253 1.252 . S
C243 O254 1.272 . S
C243 O255 1.245 . S
C244 O232 1.259 . S
C244 O233 1.257 . S
C245 O234 1.253 . S
C245 O235 1.268 . S
C246 O236 1.281 . S
C246 O237 1.252 . S
C247 O238 1.272 . S
C247 O239 1.245 . S
O248 Co224 2.053 . S
O248 C240 1.259 . S
O249 Co226 2.047 . S
O249 C240 1.257 . S
O250 Co225 2.063 . S
O250 C241 1.268 . S
O251 Co224 2.094 . S
O251 C241 1.253 . S
O252 Co231 2.115 . S
O252 C242 1.281 . S
O253 Co231 2.315 . S
O253 C242 1.252 . S
O254 Co224 2.122 . S
O254 C243 1.272 . S
O255 Co226 2.113 . S
O255 C243 1.245 . S
Co256 H259 2.400 . S
Co256 O260 2.009 . S
Co256 O268 2.115 . S
Co256 O269 2.315 . S
Co256 O280 2.053 . S
Co256 O283 2.094 . S
Co256 O286 2.122 . S
Co257 O260 2.126 . S
Co257 H261 2.388 . S
Co257 O262 2.053 . S
Co257 O265 2.047 . S
Co257 O271 2.113 . S
Co257 O282 2.063 . S
Co258 H259 2.388 . S
Co258 O260 2.053 . S
Co258 O262 2.126 . S
Co258 O267 2.063 . S
Co258 O281 2.047 . S
Co258 O287 2.113 . S
H259 Co256 2.400 . S
H259 Co258 2.388 . S
H259 O260 0.760 . S
O260 Co256 2.009 . S
O260 Co257 2.126 . S
O260 Co258 2.053 . S
O260 H259 0.760 . S
H261 Co257 2.388 . S
H261 O262 0.760 . S
H261 Co263 2.400 . S
O262 Co257 2.053 . S
O262 Co258 2.126 . S
O262 H261 0.760 . S
O262 Co263 2.009 . S
Co263 H261 2.400 . S
Co263 O262 2.009 . S
Co263 O264 2.053 . S
Co263 O266 2.094 . S
Co263 O270 2.122 . S
Co263 O284 2.115 . S
Co263 O285 2.315 . S
O264 Co263 2.053 . S
O264 C276 1.259 . S
O265 Co257 2.047 . S
O265 C276 1.257 . S
O266 Co263 2.094 . S
O266 C277 1.253 . S
O267 Co258 2.063 . S
O267 C277 1.268 . S
O268 Co256 2.115 . S
O268 C278 1.281 . S
O269 Co256 2.315 . S
O269 C278 1.252 . S
O270 Co263 2.122 . S
O270 C279 1.272 . S
O271 Co257 2.113 . S
O271 C279 1.245 . S
C272 O280 1.259 . S
C272 O281 1.257 . S
C273 O282 1.268 . S
C273 O283 1.253 . S
C274 O284 1.281 . S
C274 O285 1.252 . S
C275 O286 1.272 . S
C275 O287 1.245 . S
C276 O264 1.259 . S
C276 O265 1.257 . S
C277 O266 1.253 . S
C277 O267 1.268 . S
C278 O268 1.281 . S
C278 O269 1.252 . S
C279 O270 1.272 . S
C279 O271 1.245 . S
O280 Co256 2.053 . S
O280 C272 1.259 . S
O281 Co258 2.047 . S
O281 C272 1.257 . S
O282 Co257 2.063 . S
O282 C273 1.268 . S
O283 Co256 2.094 . S
O283 C273 1.253 . S
O284 Co263 2.115 . S
O284 C274 1.281 . S
O285 Co263 2.315 . S
O285 C274 1.252 . S
O286 Co256 2.122 . S
O286 C275 1.272 . S
O287 Co258 2.113 . S
O287 C275 1.245 . S
Co288 H291 2.400 . S
Co288 O292 2.009 . S
Co288 O300 2.115 . S
Co288 O301 2.315 . S
Co288 O312 2.053 . S
Co288 O315 2.094 . S
Co288 O318 2.122 . S
Co289 O292 2.126 . S
Co289 H293 2.388 . S
Co289 O294 2.053 . S
Co289 O297 2.047 . S
Co289 O303 2.113 . S
Co289 O314 2.063 . S
Co290 H291 2.388 . S
Co290 O292 2.053 . S
Co290 O294 2.126 . S
Co290 O299 2.063 . S
Co290 O313 2.047 . S
Co290 O319 2.113 . S
H291 Co288 2.400 . S
H291 Co290 2.388 . S
H291 O292 0.760 . S
O292 Co288 2.009 . S
O292 Co289 2.126 . S
O292 Co290 2.053 . S
O292 H291 0.760 . S
H293 Co289 2.388 . S
H293 O294 0.760 . S
H293 Co295 2.400 . S
O294 Co289 2.053 . S
O294 Co290 2.126 . S
O294 H293 0.760 . S
O294 Co295 2.009 . S
Co295 H293 2.400 . S
Co295 O294 2.009 . S
Co295 O296 2.053 . S
Co295 O298 2.094 . S
Co295 O302 2.122 . S
Co295 O316 2.115 . S
Co295 O317 2.315 . S
O296 Co295 2.053 . S
O296 C308 1.259 . S
O297 Co289 2.047 . S
O297 C308 1.257 . S
O298 Co295 2.094 . S
O298 C309 1.253 . S
O299 Co290 2.063 . S
O299 C309 1.268 . S
O300 Co288 2.115 . S
O300 C310 1.281 . S
O301 Co288 2.315 . S
O301 C310 1.252 . S
O302 Co295 2.122 . S
O302 C311 1.272 . S
O303 Co289 2.113 . S
O303 C311 1.245 . S
C304 O312 1.259 . S
C304 O313 1.257 . S
C305 O314 1.268 . S
C305 O315 1.253 . S
C306 O316 1.281 . S
C306 O317 1.252 . S
C307 O318 1.272 . S
C307 O319 1.245 . S
C308 O296 1.259 . S
C308 O297 1.257 . S
C309 O298 1.253 . S
C309 O299 1.268 . S
C310 O300 1.281 . S
C310 O301 1.252 . S
C311 O302 1.272 . S
C311 O303 1.245 . S
O312 Co288 2.053 . S
O312 C304 1.259 . S
O313 Co290 2.047 . S
O313 C304 1.257 . S
O314 Co289 2.063 . S
O314 C305 1.268 . S
O315 Co288 2.094 . S
O315 C305 1.253 . S
O316 Co295 2.115 . S
O316 C306 1.281 . S
O317 Co295 2.315 . S
O317 C306 1.252 . S
O318 Co288 2.122 . S
O318 C307 1.272 . S
O319 Co290 2.113 . S
O319 C307 1.245 . S
Co320 H323 2.400 . S
Co320 O324 2.009 . S
Co320 O332 2.115 . S
Co320 O333 2.315 . S
Co320 O344 2.053 . S
Co320 O347 2.094 . S
Co320 O350 2.122 . S
Co321 O324 2.126 . S
Co321 H325 2.388 . S
Co321 O326 2.053 . S
Co321 O329 2.047 . S
Co321 O335 2.113 . S
Co321 O346 2.063 . S
Co322 H323 2.388 . S
Co322 O324 2.053 . S
Co322 O326 2.126 . S
Co322 O331 2.063 . S
Co322 O345 2.047 . S
Co322 O351 2.113 . S
H323 Co320 2.400 . S
H323 Co322 2.388 . S
H323 O324 0.760 . S
O324 Co320 2.009 . S
O324 Co321 2.126 . S
O324 Co322 2.053 . S
O324 H323 0.760 . S
H325 Co321 2.388 . S
H325 O326 0.760 . S
H325 Co327 2.400 . S
O326 Co321 2.053 . S
O326 Co322 2.126 . S
O326 H325 0.760 . S
O326 Co327 2.009 . S
Co327 H325 2.400 . S
Co327 O326 2.009 . S
Co327 O328 2.053 . S
Co327 O330 2.094 . S
Co327 O334 2.122 . S
Co327 O348 2.115 . S
Co327 O349 2.315 . S
O328 Co327 2.053 . S
O328 C340 1.259 . S
O329 Co321 2.047 . S
O329 C340 1.257 . S
O330 Co327 2.094 . S
O330 C341 1.253 . S
O331 Co322 2.063 . S
O331 C341 1.268 . S
O332 Co320 2.115 . S
O332 C342 1.281 . S
O333 Co320 2.315 . S
O333 C342 1.252 . S
O334 Co327 2.122 . S
O334 C343 1.272 . S
O335 Co321 2.113 . S
O335 C343 1.245 . S
C336 O344 1.259 . S
C336 O345 1.257 . S
C337 O346 1.268 . S
C337 O347 1.253 . S
C338 O348 1.281 . S
C338 O349 1.252 . S
C339 O350 1.272 . S
C339 O351 1.245 . S
C340 O328 1.259 . S
C340 O329 1.257 . S
C341 O330 1.253 . S
C341 O331 1.268 . S
C342 O332 1.281 . S
C342 O333 1.252 . S
C343 O334 1.272 . S
C343 O335 1.245 . S
O344 Co320 2.053 . S
O344 C336 1.259 . S
O345 Co322 2.047 . S
O345 C336 1.257 . S
O346 Co321 2.063 . S
O346 C337 1.268 . S
O347 Co320 2.094 . S
O347 C337 1.253 . S
O348 Co327 2.115 . S
O348 C338 1.281 . S
O349 Co327 2.315 . S
O349 C338 1.252 . S
O350 Co320 2.122 . S
O350 C339 1.272 . S
O351 Co322 2.113 . S
O351 C339 1.245 . S
Co352 H355 2.400 . S
Co352 O356 2.009 . S
Co352 O364 2.115 . S
Co352 O365 2.315 . S
Co352 O376 2.053 . S
Co352 O379 2.094 . S
Co352 O382 2.122 . S
Co353 O356 2.126 . S
Co353 H357 2.388 . S
Co353 O358 2.053 . S
Co353 O361 2.047 . S
Co353 O367 2.113 . S
Co353 O378 2.063 . S
Co354 H355 2.388 . S
Co354 O356 2.053 . S
Co354 O358 2.126 . S
Co354 O363 2.063 . S
Co354 O377 2.047 . S
Co354 O383 2.113 . S
H355 Co352 2.400 . S
H355 Co354 2.388 . S
H355 O356 0.760 . S
O356 Co352 2.009 . S
O356 Co353 2.126 . S
O356 Co354 2.053 . S
O356 H355 0.760 . S
H357 Co353 2.388 . S
H357 O358 0.760 . S
H357 Co359 2.400 . S
O358 Co353 2.053 . S
O358 Co354 2.126 . S
O358 H357 0.760 . S
O358 Co359 2.009 . S
Co359 H357 2.400 . S
Co359 O358 2.009 . S
Co359 O360 2.053 . S
Co359 O362 2.094 . S
Co359 O366 2.122 . S
Co359 O380 2.115 . S
Co359 O381 2.315 . S
O360 Co359 2.053 . S
O360 C372 1.259 . S
O361 Co353 2.047 . S
O361 C372 1.257 . S
O362 Co359 2.094 . S
O362 C373 1.253 . S
O363 Co354 2.063 . S
O363 C373 1.268 . S
O364 Co352 2.115 . S
O364 C374 1.281 . S
O365 Co352 2.315 . S
O365 C374 1.252 . S
O366 Co359 2.122 . S
O366 C375 1.272 . S
O367 Co353 2.113 . S
O367 C375 1.245 . S
C368 O376 1.259 . S
C368 O377 1.257 . S
C369 O378 1.268 . S
C369 O379 1.253 . S
C370 O380 1.281 . S
C370 O381 1.252 . S
C371 O382 1.272 . S
C371 O383 1.245 . S
C372 O360 1.259 . S
C372 O361 1.257 . S
C373 O362 1.253 . S
C373 O363 1.268 . S
C374 O364 1.281 . S
C374 O365 1.252 . S
C375 O366 1.272 . S
C375 O367 1.245 . S
O376 Co352 2.053 . S
O376 C368 1.259 . S
O377 Co354 2.047 . S
O377 C368 1.257 . S
O378 Co353 2.063 . S
O378 C369 1.268 . S
O379 Co352 2.094 . S
O379 C369 1.253 . S
O380 Co359 2.115 . S
O380 C370 1.281 . S
O381 Co359 2.315 . S
O381 C370 1.252 . S
O382 Co352 2.122 . S
O382 C371 1.272 . S
O383 Co354 2.113 . S
O383 C371 1.245 . S
Co384 H387 2.400 . S
Co384 O388 2.009 . S
Co384 O396 2.115 . S
Co384 O397 2.315 . S
Co384 O408 2.053 . S
Co384 O411 2.094 . S
Co384 O414 2.122 . S
Co385 O388 2.126 . S
Co385 H389 2.388 . S
Co385 O390 2.053 . S
Co385 O393 2.047 . S
Co385 O399 2.113 . S
Co385 O410 2.063 . S
Co386 H387 2.388 . S
Co386 O388 2.053 . S
Co386 O390 2.126 . S
Co386 O395 2.063 . S
Co386 O409 2.047 . S
Co386 O415 2.113 . S
H387 Co384 2.400 . S
H387 Co386 2.388 . S
H387 O388 0.760 . S
O388 Co384 2.009 . S
O388 Co385 2.126 . S
O388 Co386 2.053 . S
O388 H387 0.760 . S
H389 Co385 2.388 . S
H389 O390 0.760 . S
H389 Co391 2.400 . S
O390 Co385 2.053 . S
O390 Co386 2.126 . S
O390 H389 0.760 . S
O390 Co391 2.009 . S
Co391 H389 2.400 . S
Co391 O390 2.009 . S
Co391 O392 2.053 . S
Co391 O394 2.094 . S
Co391 O398 2.122 . S
Co391 O412 2.115 . S
Co391 O413 2.315 . S
O392 Co391 2.053 . S
O392 C404 1.259 . S
O393 Co385 2.047 . S
O393 C404 1.257 . S
O394 Co391 2.094 . S
O394 C405 1.253 . S
O395 Co386 2.063 . S
O395 C405 1.268 . S
O396 Co384 2.115 . S
O396 C406 1.281 . S
O397 Co384 2.315 . S
O397 C406 1.252 . S
O398 Co391 2.122 . S
O398 C407 1.272 . S
O399 Co385 2.113 . S
O399 C407 1.245 . S
C400 O408 1.259 . S
C400 O409 1.257 . S
C401 O410 1.268 . S
C401 O411 1.253 . S
C402 O412 1.281 . S
C402 O413 1.252 . S
C403 O414 1.272 . S
C403 O415 1.245 . S
C404 O392 1.259 . S
C404 O393 1.257 . S
C405 O394 1.253 . S
C405 O395 1.268 . S
C406 O396 1.281 . S
C406 O397 1.252 . S
C407 O398 1.272 . S
C407 O399 1.245 . S
O408 Co384 2.053 . S
O408 C400 1.259 . S
O409 Co386 2.047 . S
O409 C400 1.257 . S
O410 Co385 2.063 . S
O410 C401 1.268 . S
O411 Co384 2.094 . S
O411 C401 1.253 . S
O412 Co391 2.115 . S
O412 C402 1.281 . S
O413 Co391 2.315 . S
O413 C402 1.252 . S
O414 Co384 2.122 . S
O414 C403 1.272 . S
O415 Co386 2.113 . S
O415 C403 1.245 . S
Co416 H419 2.400 . S
Co416 O420 2.009 . S
Co416 O428 2.115 . S
Co416 O429 2.315 . S
Co416 O440 2.053 . S
Co416 O443 2.094 . S
Co416 O446 2.122 . S
Co417 O420 2.126 . S
Co417 H421 2.388 . S
Co417 O422 2.053 . S
Co417 O425 2.047 . S
Co417 O431 2.113 . S
Co417 O442 2.063 . S
Co418 H419 2.388 . S
Co418 O420 2.053 . S
Co418 O422 2.126 . S
Co418 O427 2.063 . S
Co418 O441 2.047 . S
Co418 O447 2.113 . S
H419 Co416 2.400 . S
H419 Co418 2.388 . S
H419 O420 0.760 . S
O420 Co416 2.009 . S
O420 Co417 2.126 . S
O420 Co418 2.053 . S
O420 H419 0.760 . S
H421 Co417 2.388 . S
H421 O422 0.760 . S
H421 Co423 2.400 . S
O422 Co417 2.053 . S
O422 Co418 2.126 . S
O422 H421 0.760 . S
O422 Co423 2.009 . S
Co423 H421 2.400 . S
Co423 O422 2.009 . S
Co423 O424 2.053 . S
Co423 O426 2.094 . S
Co423 O430 2.122 . S
Co423 O444 2.115 . S
Co423 O445 2.315 . S
O424 Co423 2.053 . S
O424 C436 1.259 . S
O425 Co417 2.047 . S
O425 C436 1.257 . S
O426 Co423 2.094 . S
O426 C437 1.253 . S
O427 Co418 2.063 . S
O427 C437 1.268 . S
O428 Co416 2.115 . S
O428 C438 1.281 . S
O429 Co416 2.315 . S
O429 C438 1.252 . S
O430 Co423 2.122 . S
O430 C439 1.272 . S
O431 Co417 2.113 . S
O431 C439 1.245 . S
C432 O440 1.259 . S
C432 O441 1.257 . S
C433 O442 1.268 . S
C433 O443 1.253 . S
C434 O444 1.281 . S
C434 O445 1.252 . S
C435 O446 1.272 . S
C435 O447 1.245 . S
C436 O424 1.259 . S
C436 O425 1.257 . S
C437 O426 1.253 . S
C437 O427 1.268 . S
C438 O428 1.281 . S
C438 O429 1.252 . S
C439 O430 1.272 . S
C439 O431 1.245 . S
O440 Co416 2.053 . S
O440 C432 1.259 . S
O441 Co418 2.047 . S
O441 C432 1.257 . S
O442 Co417 2.063 . S
O442 C433 1.268 . S
O443 Co416 2.094 . S
O443 C433 1.253 . S
O444 Co423 2.115 . S
O444 C434 1.281 . S
O445 Co423 2.315 . S
O445 C434 1.252 . S
O446 Co416 2.122 . S
O446 C435 1.272 . S
O447 Co418 2.113 . S
O447 C435 1.245 . S
Co448 H451 2.400 . S
Co448 O452 2.009 . S
Co448 O460 2.115 . S
Co448 O461 2.315 . S
Co448 O472 2.053 . S
Co448 O475 2.094 . S
Co448 O478 2.122 . S
Co449 O452 2.126 . S
Co449 H453 2.388 . S
Co449 O454 2.053 . S
Co449 O457 2.047 . S
Co449 O463 2.113 . S
Co449 O474 2.063 . S
Co450 H451 2.388 . S
Co450 O452 2.053 . S
Co450 O454 2.126 . S
Co450 O459 2.063 . S
Co450 O473 2.047 . S
Co450 O479 2.113 . S
H451 Co448 2.400 . S
H451 Co450 2.388 . S
H451 O452 0.760 . S
O452 Co448 2.009 . S
O452 Co449 2.126 . S
O452 Co450 2.053 . S
O452 H451 0.760 . S
H453 Co449 2.388 . S
H453 O454 0.760 . S
H453 Co455 2.400 . S
O454 Co449 2.053 . S
O454 Co450 2.126 . S
O454 H453 0.760 . S
O454 Co455 2.009 . S
Co455 H453 2.400 . S
Co455 O454 2.009 . S
Co455 O456 2.053 . S
Co455 O458 2.094 . S
Co455 O462 2.122 . S
Co455 O476 2.115 . S
Co455 O477 2.315 . S
O456 Co455 2.053 . S
O456 C468 1.259 . S
O457 Co449 2.047 . S
O457 C468 1.257 . S
O458 Co455 2.094 . S
O458 C469 1.253 . S
O459 Co450 2.063 . S
O459 C469 1.268 . S
O460 Co448 2.115 . S
O460 C470 1.281 . S
O461 Co448 2.315 . S
O461 C470 1.252 . S
O462 Co455 2.122 . S
O462 C471 1.272 . S
O463 Co449 2.113 . S
O463 C471 1.245 . S
C464 O472 1.259 . S
C464 O473 1.257 . S
C465 O474 1.268 . S
C465 O475 1.253 . S
C466 O476 1.281 . S
C466 O477 1.252 . S
C467 O478 1.272 . S
C467 O479 1.245 . S
C468 O456 1.259 . S
C468 O457 1.257 . S
C469 O458 1.253 . S
C469 O459 1.268 . S
C470 O460 1.281 . S
C470 O461 1.252 . S
C471 O462 1.272 . S
C471 O463 1.245 . S
O472 Co448 2.053 . S
O472 C464 1.259 . S
O473 Co450 2.047 . S
O473 C464 1.257 . S
O474 Co449 2.063 . S
O474 C465 1.268 . S
O475 Co448 2.094 . S
O475 C465 1.253 . S
O476 Co455 2.115 . S
O476 C466 1.281 . S
O477 Co455 2.315 . S
O477 C466 1.252 . S
O478 Co448 2.122 . S
O478 C467 1.272 . S
O479 Co450 2.113 . S
O479 C467 1.245 . S
Co480 H483 2.400 . S
Co480 O484 2.009 . S
Co480 O492 2.115 . S
Co480 O493 2.315 . S
Co480 O504 2.053 . S
Co480 O507 2.094 . S
Co480 O510 2.122 . S
Co481 O484 2.126 . S
Co481 H485 2.388 . S
Co481 O486 2.053 . S
Co481 O489 2.047 . S
Co481 O495 2.113 . S
Co481 O506 2.063 . S
Co482 H483 2.388 . S
Co482 O484 2.053 . S
Co482 O486 2.126 . S
Co482 O491 2.063 . S
Co482 O505 2.047 . S
Co482 O511 2.113 . S
H483 Co480 2.400 . S
H483 Co482 2.388 . S
H483 O484 0.760 . S
O484 Co480 2.009 . S
O484 Co481 2.126 . S
O484 Co482 2.053 . S
O484 H483 0.760 . S
H485 Co481 2.388 . S
H485 O486 0.760 . S
H485 Co487 2.400 . S
O486 Co481 2.053 . S
O486 Co482 2.126 . S
O486 H485 0.760 . S
O486 Co487 2.009 . S
Co487 H485 2.400 . S
Co487 O486 2.009 . S
Co487 O488 2.053 . S
Co487 O490 2.094 . S
Co487 O494 2.122 . S
Co487 O508 2.115 . S
Co487 O509 2.315 . S
O488 Co487 2.053 . S
O488 C500 1.259 . S
O489 Co481 2.047 . S
O489 C500 1.257 . S
O490 Co487 2.094 . S
O490 C501 1.253 . S
O491 Co482 2.063 . S
O491 C501 1.268 . S
O492 Co480 2.115 . S
O492 C502 1.281 . S
O493 Co480 2.315 . S
O493 C502 1.252 . S
O494 Co487 2.122 . S
O494 C503 1.272 . S
O495 Co481 2.113 . S
O495 C503 1.245 . S
C496 O504 1.259 . S
C496 O505 1.257 . S
C497 O506 1.268 . S
C497 O507 1.253 . S
C498 O508 1.281 . S
C498 O509 1.252 . S
C499 O510 1.272 . S
C499 O511 1.245 . S
C500 O488 1.259 . S
C500 O489 1.257 . S
C501 O490 1.253 . S
C501 O491 1.268 . S
C502 O492 1.281 . S
C502 O493 1.252 . S
C503 O494 1.272 . S
C503 O495 1.245 . S
O504 Co480 2.053 . S
O504 C496 1.259 . S
O505 Co482 2.047 . S
O505 C496 1.257 . S
O506 Co481 2.063 . S
O506 C497 1.268 . S
O507 Co480 2.094 . S
O507 C497 1.253 . S
O508 Co487 2.115 . S
O508 C498 1.281 . S
O509 Co487 2.315 . S
O509 C498 1.252 . S
O510 Co480 2.122 . S
O510 C499 1.272 . S
O511 Co482 2.113 . S
O511 C499 1.245 . S
Co512 H515 2.400 . S
Co512 O516 2.009 . S
Co512 O524 2.115 . S
Co512 O525 2.315 . S
Co512 O536 2.053 . S
Co512 O539 2.094 . S
Co512 O542 2.122 . S
Co513 O516 2.126 . S
Co513 H517 2.388 . S
Co513 O518 2.053 . S
Co513 O521 2.047 . S
Co513 O527 2.113 . S
Co513 O538 2.063 . S
Co514 H515 2.388 . S
Co514 O516 2.053 . S
Co514 O518 2.126 . S
Co514 O523 2.063 . S
Co514 O537 2.047 . S
Co514 O543 2.113 . S
H515 Co512 2.400 . S
H515 Co514 2.388 . S
H515 O516 0.760 . S
O516 Co512 2.009 . S
O516 Co513 2.126 . S
O516 Co514 2.053 . S
O516 H515 0.760 . S
H517 Co513 2.388 . S
H517 O518 0.760 . S
H517 Co519 2.400 . S
O518 Co513 2.053 . S
O518 Co514 2.126 . S
O518 H517 0.760 . S
O518 Co519 2.009 . S
Co519 H517 2.400 . S
Co519 O518 2.009 . S
Co519 O520 2.053 . S
Co519 O522 2.094 . S
Co519 O526 2.122 . S
Co519 O540 2.115 . S
Co519 O541 2.315 . S
O520 Co519 2.053 . S
O520 C532 1.259 . S
O521 Co513 2.047 . S
O521 C532 1.257 . S
O522 Co519 2.094 . S
O522 C533 1.253 . S
O523 Co514 2.063 . S
O523 C533 1.268 . S
O524 Co512 2.115 . S
O524 C534 1.281 . S
O525 Co512 2.315 . S
O525 C534 1.252 . S
O526 Co519 2.122 . S
O526 C535 1.272 . S
O527 Co513 2.113 . S
O527 C535 1.245 . S
C528 O536 1.259 . S
C528 O537 1.257 . S
C529 O538 1.268 . S
C529 O539 1.253 . S
C530 O540 1.281 . S
C530 O541 1.252 . S
C531 O542 1.272 . S
C531 O543 1.245 . S
C532 O520 1.259 . S
C532 O521 1.257 . S
C533 O522 1.253 . S
C533 O523 1.268 . S
C534 O524 1.281 . S
C534 O525 1.252 . S
C535 O526 1.272 . S
C535 O527 1.245 . S
O536 Co512 2.053 . S
O536 C528 1.259 . S
O537 Co514 2.047 . S
O537 C528 1.257 . S
O538 Co513 2.063 . S
O538 C529 1.268 . S
O539 Co512 2.094 . S
O539 C529 1.253 . S
O540 Co519 2.115 . S
O540 C530 1.281 . S
O541 Co519 2.315 . S
O541 C530 1.252 . S
O542 Co512 2.122 . S
O542 C531 1.272 . S
O543 Co514 2.113 . S
O543 C531 1.245 . S
Co544 H547 2.400 . S
Co544 O548 2.009 . S
Co544 O556 2.115 . S
Co544 O557 2.315 . S
Co544 O568 2.053 . S
Co544 O571 2.094 . S
Co544 O574 2.122 . S
Co545 O548 2.126 . S
Co545 H549 2.388 . S
Co545 O550 2.053 . S
Co545 O553 2.047 . S
Co545 O559 2.113 . S
Co545 O570 2.063 . S
Co546 H547 2.388 . S
Co546 O548 2.053 . S
Co546 O550 2.126 . S
Co546 O555 2.063 . S
Co546 O569 2.047 . S
Co546 O575 2.113 . S
H547 Co544 2.400 . S
H547 Co546 2.388 . S
H547 O548 0.760 . S
O548 Co544 2.009 . S
O548 Co545 2.126 . S
O548 Co546 2.053 . S
O548 H547 0.760 . S
H549 Co545 2.388 . S
H549 O550 0.760 . S
H549 Co551 2.400 . S
O550 Co545 2.053 . S
O550 Co546 2.126 . S
O550 H549 0.760 . S
O550 Co551 2.009 . S
Co551 H549 2.400 . S
Co551 O550 2.009 . S
Co551 O552 2.053 . S
Co551 O554 2.094 . S
Co551 O558 2.122 . S
Co551 O572 2.115 . S
Co551 O573 2.315 . S
O552 Co551 2.053 . S
O552 C564 1.259 . S
O553 Co545 2.047 . S
O553 C564 1.257 . S
O554 Co551 2.094 . S
O554 C565 1.253 . S
O555 Co546 2.063 . S
O555 C565 1.268 . S
O556 Co544 2.115 . S
O556 C566 1.281 . S
O557 Co544 2.315 . S
O557 C566 1.252 . S
O558 Co551 2.122 . S
O558 C567 1.272 . S
O559 Co545 2.113 . S
O559 C567 1.245 . S
C560 O568 1.259 . S
C560 O569 1.257 . S
C561 O570 1.268 . S
C561 O571 1.253 . S
C562 O572 1.281 . S
C562 O573 1.252 . S
C563 O574 1.272 . S
C563 O575 1.245 . S
C564 O552 1.259 . S
C564 O553 1.257 . S
C565 O554 1.253 . S
C565 O555 1.268 . S
C566 O556 1.281 . S
C566 O557 1.252 . S
C567 O558 1.272 . S
C567 O559 1.245 . S
O568 Co544 2.053 . S
O568 C560 1.259 . S
O569 Co546 2.047 . S
O569 C560 1.257 . S
O570 Co545 2.063 . S
O570 C561 1.268 . S
O571 Co544 2.094 . S
O571 C561 1.253 . S
O572 Co551 2.115 . S
O572 C562 1.281 . S
O573 Co551 2.315 . S
O573 C562 1.252 . S
O574 Co544 2.122 . S
O574 C563 1.272 . S
O575 Co546 2.113 . S
O575 C563 1.245 . S
Co576 H579 2.400 . S
Co576 O580 2.009 . S
Co576 O588 2.115 . S
Co576 O589 2.315 . S
Co576 O600 2.053 . S
Co576 O603 2.094 . S
Co576 O606 2.122 . S
Co577 O580 2.126 . S
Co577 H581 2.388 . S
Co577 O582 2.053 . S
Co577 O585 2.047 . S
Co577 O591 2.113 . S
Co577 O602 2.063 . S
Co578 H579 2.388 . S
Co578 O580 2.053 . S
Co578 O582 2.126 . S
Co578 O587 2.063 . S
Co578 O601 2.047 . S
Co578 O607 2.113 . S
H579 Co576 2.400 . S
H579 Co578 2.388 . S
H579 O580 0.760 . S
O580 Co576 2.009 . S
O580 Co577 2.126 . S
O580 Co578 2.053 . S
O580 H579 0.760 . S
H581 Co577 2.388 . S
H581 O582 0.760 . S
H581 Co583 2.400 . S
O582 Co577 2.053 . S
O582 Co578 2.126 . S
O582 H581 0.760 . S
O582 Co583 2.009 . S
Co583 H581 2.400 . S
Co583 O582 2.009 . S
Co583 O584 2.053 . S
Co583 O586 2.094 . S
Co583 O590 2.122 . S
Co583 O604 2.115 . S
Co583 O605 2.315 . S
O584 Co583 2.053 . S
O584 C596 1.259 . S
O585 Co577 2.047 . S
O585 C596 1.257 . S
O586 Co583 2.094 . S
O586 C597 1.253 . S
O587 Co578 2.063 . S
O587 C597 1.268 . S
O588 Co576 2.115 . S
O588 C598 1.281 . S
O589 Co576 2.315 . S
O589 C598 1.252 . S
O590 Co583 2.122 . S
O590 C599 1.272 . S
O591 Co577 2.113 . S
O591 C599 1.245 . S
C592 O600 1.259 . S
C592 O601 1.257 . S
C593 O602 1.268 . S
C593 O603 1.253 . S
C594 O604 1.281 . S
C594 O605 1.252 . S
C595 O606 1.272 . S
C595 O607 1.245 . S
C596 O584 1.259 . S
C596 O585 1.257 . S
C597 O586 1.253 . S
C597 O587 1.268 . S
C598 O588 1.281 . S
C598 O589 1.252 . S
C599 O590 1.272 . S
C599 O591 1.245 . S
O600 Co576 2.053 . S
O600 C592 1.259 . S
O601 Co578 2.047 . S
O601 C592 1.257 . S
O602 Co577 2.063 . S
O602 C593 1.268 . S
O603 Co576 2.094 . S
O603 C593 1.253 . S
O604 Co583 2.115 . S
O604 C594 1.281 . S
O605 Co583 2.315 . S
O605 C594 1.252 . S
O606 Co576 2.122 . S
O606 C595 1.272 . S
O607 Co578 2.113 . S
O607 C595 1.245 . S
Co608 H611 2.400 . S
Co608 O612 2.009 . S
Co608 O620 2.115 . S
Co608 O621 2.315 . S
Co608 O632 2.053 . S
Co608 O635 2.094 . S
Co608 O638 2.122 . S
Co609 O612 2.126 . S
Co609 H613 2.388 . S
Co609 O614 2.053 . S
Co609 O617 2.047 . S
Co609 O623 2.113 . S
Co609 O634 2.063 . S
Co610 H611 2.388 . S
Co610 O612 2.053 . S
Co610 O614 2.126 . S
Co610 O619 2.063 . S
Co610 O633 2.047 . S
Co610 O639 2.113 . S
H611 Co608 2.400 . S
H611 Co610 2.388 . S
H611 O612 0.760 . S
O612 Co608 2.009 . S
O612 Co609 2.126 . S
O612 Co610 2.053 . S
O612 H611 0.760 . S
H613 Co609 2.388 . S
H613 O614 0.760 . S
H613 Co615 2.400 . S
O614 Co609 2.053 . S
O614 Co610 2.126 . S
O614 H613 0.760 . S
O614 Co615 2.009 . S
Co615 H613 2.400 . S
Co615 O614 2.009 . S
Co615 O616 2.053 . S
Co615 O618 2.094 . S
Co615 O622 2.122 . S
Co615 O636 2.115 . S
Co615 O637 2.315 . S
O616 Co615 2.053 . S
O616 C628 1.259 . S
O617 Co609 2.047 . S
O617 C628 1.257 . S
O618 Co615 2.094 . S
O618 C629 1.253 . S
O619 Co610 2.063 . S
O619 C629 1.268 . S
O620 Co608 2.115 . S
O620 C630 1.281 . S
O621 Co608 2.315 . S
O621 C630 1.252 . S
O622 Co615 2.122 . S
O622 C631 1.272 . S
O623 Co609 2.113 . S
O623 C631 1.245 . S
C624 O632 1.259 . S
C624 O633 1.257 . S
C625 O634 1.268 . S
C625 O635 1.253 . S
C626 O636 1.281 . S
C626 O637 1.252 . S
C627 O638 1.272 . S
C627 O639 1.245 . S
C628 O616 1.259 . S
C628 O617 1.257 . S
C629 O618 1.253 . S
C629 O619 1.268 . S
C630 O620 1.281 . S
C630 O621 1.252 . S
C631 O622 1.272 . S
C631 O623 1.245 . S
O632 Co608 2.053 . S
O632 C624 1.259 . S
O633 Co610 2.047 . S
O633 C624 1.257 . S
O634 Co609 2.063 . S
O634 C625 1.268 . S
O635 Co608 2.094 . S
O635 C625 1.253 . S
O636 Co615 2.115 . S
O636 C626 1.281 . S
O637 Co615 2.315 . S
O637 C626 1.252 . S
O638 Co608 2.122 . S
O638 C627 1.272 . S
O639 Co610 2.113 . S
O639 C627 1.245 . S
Co640 H643 2.400 . S
Co640 O644 2.009 . S
Co640 O652 2.115 . S
Co640 O653 2.315 . S
Co640 O664 2.053 . S
Co640 O667 2.094 . S
Co640 O670 2.122 . S
Co641 O644 2.126 . S
Co641 H645 2.388 . S
Co641 O646 2.053 . S
Co641 O649 2.047 . S
Co641 O655 2.113 . S
Co641 O666 2.063 . S
Co642 H643 2.388 . S
Co642 O644 2.053 . S
Co642 O646 2.126 . S
Co642 O651 2.063 . S
Co642 O665 2.047 . S
Co642 O671 2.113 . S
H643 Co640 2.400 . S
H643 Co642 2.388 . S
H643 O644 0.760 . S
O644 Co640 2.009 . S
O644 Co641 2.126 . S
O644 Co642 2.053 . S
O644 H643 0.760 . S
H645 Co641 2.388 . S
H645 O646 0.760 . S
H645 Co647 2.400 . S
O646 Co641 2.053 . S
O646 Co642 2.126 . S
O646 H645 0.760 . S
O646 Co647 2.009 . S
Co647 H645 2.400 . S
Co647 O646 2.009 . S
Co647 O648 2.053 . S
Co647 O650 2.094 . S
Co647 O654 2.122 . S
Co647 O668 2.115 . S
Co647 O669 2.315 . S
O648 Co647 2.053 . S
O648 C660 1.259 . S
O649 Co641 2.047 . S
O649 C660 1.257 . S
O650 Co647 2.094 . S
O650 C661 1.253 . S
O651 Co642 2.063 . S
O651 C661 1.268 . S
O652 Co640 2.115 . S
O652 C662 1.281 . S
O653 Co640 2.315 . S
O653 C662 1.252 . S
O654 Co647 2.122 . S
O654 C663 1.272 . S
O655 Co641 2.113 . S
O655 C663 1.245 . S
C656 O664 1.259 . S
C656 O665 1.257 . S
C657 O666 1.268 . S
C657 O667 1.253 . S
C658 O668 1.281 . S
C658 O669 1.252 . S
C659 O670 1.272 . S
C659 O671 1.245 . S
C660 O648 1.259 . S
C660 O649 1.257 . S
C661 O650 1.253 . S
C661 O651 1.268 . S
C662 O652 1.281 . S
C662 O653 1.252 . S
C663 O654 1.272 . S
C663 O655 1.245 . S
O664 Co640 2.053 . S
O664 C656 1.259 . S
O665 Co642 2.047 . S
O665 C656 1.257 . S
O666 Co641 2.063 . S
O666 C657 1.268 . S
O667 Co640 2.094 . S
O667 C657 1.253 . S
O668 Co647 2.115 . S
O668 C658 1.281 . S
O669 Co647 2.315 . S
O669 C658 1.252 . S
O670 Co640 2.122 . S
O670 C659 1.272 . S
O671 Co642 2.113 . S
O671 C659 1.245 . S
Co672 H675 2.400 . S
Co672 O676 2.009 . S
Co672 O684 2.115 . S
Co672 O685 2.315 . S
Co672 O696 2.053 . S
Co672 O699 2.094 . S
Co672 O702 2.122 . S
Co673 O676 2.126 . S
Co673 H677 2.388 . S
Co673 O678 2.053 . S
Co673 O681 2.047 . S
Co673 O687 2.113 . S
Co673 O698 2.063 . S
Co674 H675 2.388 . S
Co674 O676 2.053 . S
Co674 O678 2.126 . S
Co674 O683 2.063 . S
Co674 O697 2.047 . S
Co674 O703 2.113 . S
H675 Co672 2.400 . S
H675 Co674 2.388 . S
H675 O676 0.760 . S
O676 Co672 2.009 . S
O676 Co673 2.126 . S
O676 Co674 2.053 . S
O676 H675 0.760 . S
H677 Co673 2.388 . S
H677 O678 0.760 . S
H677 Co679 2.400 . S
O678 Co673 2.053 . S
O678 Co674 2.126 . S
O678 H677 0.760 . S
O678 Co679 2.009 . S
Co679 H677 2.400 . S
Co679 O678 2.009 . S
Co679 O680 2.053 . S
Co679 O682 2.094 . S
Co679 O686 2.122 . S
Co679 O700 2.115 . S
Co679 O701 2.315 . S
O680 Co679 2.053 . S
O680 C692 1.259 . S
O681 Co673 2.047 . S
O681 C692 1.257 . S
O682 Co679 2.094 . S
O682 C693 1.253 . S
O683 Co674 2.063 . S
O683 C693 1.268 . S
O684 Co672 2.115 . S
O684 C694 1.281 . S
O685 Co672 2.315 . S
O685 C694 1.252 . S
O686 Co679 2.122 . S
O686 C695 1.272 . S
O687 Co673 2.113 . S
O687 C695 1.245 . S
C688 O696 1.259 . S
C688 O697 1.257 . S
C689 O698 1.268 . S
C689 O699 1.253 . S
C690 O700 1.281 . S
C690 O701 1.252 . S
C691 O702 1.272 . S
C691 O703 1.245 . S
C692 O680 1.259 . S
C692 O681 1.257 . S
C693 O682 1.253 . S
C693 O683 1.268 . S
C694 O684 1.281 . S
C694 O685 1.252 . S
C695 O686 1.272 . S
C695 O687 1.245 . S
O696 Co672 2.053 . S
O696 C688 1.259 . S
O697 Co674 2.047 . S
O697 C688 1.257 . S
O698 Co673 2.063 . S
O698 C689 1.268 . S
O699 Co672 2.094 . S
O699 C689 1.253 . S
O700 Co679 2.115 . S
O700 C690 1.281 . S
O701 Co679 2.315 . S
O701 C690 1.252 . S
O702 Co672 2.122 . S
O702 C691 1.272 . S
O703 Co674 2.113 . S
O703 C691 1.245 . S
Co704 H707 2.400 . S
Co704 O708 2.009 . S
Co704 O716 2.115 . S
Co704 O717 2.315 . S
Co704 O728 2.053 . S
Co704 O731 2.094 . S
Co704 O734 2.122 . S
Co705 O708 2.126 . S
Co705 H709 2.388 . S
Co705 O710 2.053 . S
Co705 O713 2.047 . S
Co705 O719 2.113 . S
Co705 O730 2.063 . S
Co706 H707 2.388 . S
Co706 O708 2.053 . S
Co706 O710 2.126 . S
Co706 O715 2.063 . S
Co706 O729 2.047 . S
Co706 O735 2.113 . S
H707 Co704 2.400 . S
H707 Co706 2.388 . S
H707 O708 0.760 . S
O708 Co704 2.009 . S
O708 Co705 2.126 . S
O708 Co706 2.053 . S
O708 H707 0.760 . S
H709 Co705 2.388 . S
H709 O710 0.760 . S
H709 Co711 2.400 . S
O710 Co705 2.053 . S
O710 Co706 2.126 . S
O710 H709 0.760 . S
O710 Co711 2.009 . S
Co711 H709 2.400 . S
Co711 O710 2.009 . S
Co711 O712 2.053 . S
Co711 O714 2.094 . S
Co711 O718 2.122 . S
Co711 O732 2.115 . S
Co711 O733 2.315 . S
O712 Co711 2.053 . S
O712 C724 1.259 . S
O713 Co705 2.047 . S
O713 C724 1.257 . S
O714 Co711 2.094 . S
O714 C725 1.253 . S
O715 Co706 2.063 . S
O715 C725 1.268 . S
O716 Co704 2.115 . S
O716 C726 1.281 . S
O717 Co704 2.315 . S
O717 C726 1.252 . S
O718 Co711 2.122 . S
O718 C727 1.272 . S
O719 Co705 2.113 . S
O719 C727 1.245 . S
C720 O728 1.259 . S
C720 O729 1.257 . S
C721 O730 1.268 . S
C721 O731 1.253 . S
C722 O732 1.281 . S
C722 O733 1.252 . S
C723 O734 1.272 . S
C723 O735 1.245 . S
C724 O712 1.259 . S
C724 O713 1.257 . S
C725 O714 1.253 . S
C725 O715 1.268 . S
C726 O716 1.281 . S
C726 O717 1.252 . S
C727 O718 1.272 . S
C727 O719 1.245 . S
O728 Co704 2.053 . S
O728 C720 1.259 . S
O729 Co706 2.047 . S
O729 C720 1.257 . S
O730 Co705 2.063 . S
O730 C721 1.268 . S
O731 Co704 2.094 . S
O731 C721 1.253 . S
O732 Co711 2.115 . S
O732 C722 1.281 . S
O733 Co711 2.315 . S
O733 C722 1.252 . S
O734 Co704 2.122 . S
O734 C723 1.272 . S
O735 Co706 2.113 . S
O735 C723 1.245 . S
Co736 H739 2.400 . S
Co736 O740 2.009 . S
Co736 O748 2.115 . S
Co736 O749 2.315 . S
Co736 O760 2.053 . S
Co736 O763 2.094 . S
Co736 O766 2.122 . S
Co737 O740 2.126 . S
Co737 H741 2.388 . S
Co737 O742 2.053 . S
Co737 O745 2.047 . S
Co737 O751 2.113 . S
Co737 O762 2.063 . S
Co738 H739 2.388 . S
Co738 O740 2.053 . S
Co738 O742 2.126 . S
Co738 O747 2.063 . S
Co738 O761 2.047 . S
Co738 O767 2.113 . S
H739 Co736 2.400 . S
H739 Co738 2.388 . S
H739 O740 0.760 . S
O740 Co736 2.009 . S
O740 Co737 2.126 . S
O740 Co738 2.053 . S
O740 H739 0.760 . S
H741 Co737 2.388 . S
H741 O742 0.760 . S
H741 Co743 2.400 . S
O742 Co737 2.053 . S
O742 Co738 2.126 . S
O742 H741 0.760 . S
O742 Co743 2.009 . S
Co743 H741 2.400 . S
Co743 O742 2.009 . S
Co743 O744 2.053 . S
Co743 O746 2.094 . S
Co743 O750 2.122 . S
Co743 O764 2.115 . S
Co743 O765 2.315 . S
O744 Co743 2.053 . S
O744 C756 1.259 . S
O745 Co737 2.047 . S
O745 C756 1.257 . S
O746 Co743 2.094 . S
O746 C757 1.253 . S
O747 Co738 2.063 . S
O747 C757 1.268 . S
O748 Co736 2.115 . S
O748 C758 1.281 . S
O749 Co736 2.315 . S
O749 C758 1.252 . S
O750 Co743 2.122 . S
O750 C759 1.272 . S
O751 Co737 2.113 . S
O751 C759 1.245 . S
C752 O760 1.259 . S
C752 O761 1.257 . S
C753 O762 1.268 . S
C753 O763 1.253 . S
C754 O764 1.281 . S
C754 O765 1.252 . S
C755 O766 1.272 . S
C755 O767 1.245 . S
C756 O744 1.259 . S
C756 O745 1.257 . S
C757 O746 1.253 . S
C757 O747 1.268 . S
C758 O748 1.281 . S
C758 O749 1.252 . S
C759 O750 1.272 . S
C759 O751 1.245 . S
O760 Co736 2.053 . S
O760 C752 1.259 . S
O761 Co738 2.047 . S
O761 C752 1.257 . S
O762 Co737 2.063 . S
O762 C753 1.268 . S
O763 Co736 2.094 . S
O763 C753 1.253 . S
O764 Co743 2.115 . S
O764 C754 1.281 . S
O765 Co743 2.315 . S
O765 C754 1.252 . S
O766 Co736 2.122 . S
O766 C755 1.272 . S
O767 Co738 2.113 . S
O767 C755 1.245 . S
C768 C769 1.363 . S
C768 C774 1.379 . S
C768 N776 1.356 . S
C769 C768 1.363 . S
C769 C775 1.363 . S
C770 C771 1.363 . S
C770 C775 1.379 . S
C770 N777 1.356 . S
C771 C770 1.363 . S
C771 C774 1.363 . S
N772 C774 1.356 . S
N772 H784 0.984 . S
N772 H785 0.985 . S
N773 C775 1.356 . S
N773 H778 0.984 . S
N773 H779 0.985 . S
C774 C768 1.379 . S
C774 C771 1.363 . S
C774 N772 1.356 . S
C775 C769 1.363 . S
C775 C770 1.379 . S
C775 N773 1.356 . S
N776 C768 1.356 . S
N776 H782 0.984 . S
N776 H783 0.984 . S
N777 C770 1.356 . S
N777 H780 0.984 . S
N777 H781 0.985 . S
H778 N773 0.984 . S
H779 N773 0.985 . S
H780 N777 0.984 . S
H781 N777 0.985 . S
H782 N776 0.984 . S
H783 N776 0.984 . S
H784 N772 0.984 . S
H785 N772 0.985 . S
C786 C787 1.363 . S
C786 C792 1.379 1_565 S
C786 N794 1.356 . S
C787 C786 1.363 . S
C787 C793 1.363 . S
C788 C789 1.363 1_565 S
C788 C793 1.379 . S
C788 N795 1.356 1_565 S
C789 C788 1.363 1_545 S
C789 C792 1.363 . S
N790 C792 1.356 1_455 S
N790 H802 0.984 . S
N790 H803 0.985 . S
N791 C793 1.356 . S
N791 H796 0.984 . S
N791 H797 0.985 . S
C792 C786 1.379 1_545 S
C792 C789 1.363 . S
C792 N790 1.356 1_655 S
C793 C787 1.363 . S
C793 C788 1.379 . S
C793 N791 1.356 . S
N794 C786 1.356 . S
N794 H800 0.984 . S
N794 H801 0.984 . S
N795 C788 1.356 1_545 S
N795 H798 0.984 . S
N795 H799 0.985 1_545 S
H796 N791 0.984 . S
H797 N791 0.985 . S
H798 N795 0.984 . S
H799 N795 0.985 1_565 S
H800 N794 0.984 . S
H801 N794 0.984 . S
H802 N790 0.984 . S
H803 N790 0.985 . S
C804 C805 1.363 . S
C804 C810 1.379 . S
C804 N812 1.356 . S
C805 C804 1.363 . S
C805 C811 1.363 . S
C806 C807 1.363 . S
C806 C811 1.379 . S
C806 N813 1.356 . S
C807 C806 1.363 . S
C807 C810 1.363 . S
N808 C810 1.356 . S
N808 H820 0.984 . S
N808 H821 0.985 . S
N809 C811 1.356 . S
N809 H814 0.984 . S
N809 H815 0.985 . S
C810 C804 1.379 . S
C810 C807 1.363 . S
C810 N808 1.356 . S
C811 C805 1.363 . S
C811 C806 1.379 . S
C811 N809 1.356 . S
N812 C804 1.356 . S
N812 H818 0.984 . S
N812 H819 0.984 . S
N813 C806 1.356 . S
N813 H816 0.984 . S
N813 H817 0.985 . S
H814 N809 0.984 . S
H815 N809 0.985 . S
H816 N813 0.984 . S
H817 N813 0.985 . S
H818 N812 0.984 . S
H819 N812 0.984 . S
H820 N808 0.984 . S
H821 N808 0.985 . S
C822 C823 1.363 . S
C822 C828 1.379 . S
C822 N830 1.356 . S
C823 C822 1.363 . S
C823 C829 1.363 . S
C824 C825 1.363 . S
C824 C829 1.379 . S
C824 N831 1.356 . S
C825 C824 1.363 . S
C825 C828 1.363 . S
N826 C828 1.356 . S
N826 H838 0.984 . S
N826 H839 0.985 . S
N827 C829 1.356 . S
N827 H832 0.984 . S
N827 H833 0.985 . S
C828 C822 1.379 . S
C828 C825 1.363 . S
C828 N826 1.356 . S
C829 C823 1.363 . S
C829 C824 1.379 . S
C829 N827 1.356 . S
N830 C822 1.356 . S
N830 H836 0.984 1_545 S
N830 H837 0.984 1_545 S
N831 C824 1.356 . S
N831 H834 0.984 . S
N831 H835 0.985 . S
H832 N827 0.984 . S
H833 N827 0.985 . S
H834 N831 0.984 . S
H835 N831 0.985 . S
H836 N830 0.984 1_565 S
H837 N830 0.984 1_565 S
H838 N826 0.984 . S
H839 N826 0.985 . S
C840 C841 1.363 . S
C840 C846 1.379 . S
C840 N848 1.356 . S
C841 C840 1.363 . S
C841 C847 1.363 . S
C842 C843 1.363 . S
C842 C847 1.379 . S
C842 N849 1.356 . S
C843 C842 1.363 . S
C843 C846 1.363 . S
N844 C846 1.356 . S
N844 H856 0.984 . S
N844 H857 0.985 . S
N845 C847 1.356 . S
N845 H850 0.984 . S
N845 H851 0.985 . S
C846 C840 1.379 . S
C846 C843 1.363 . S
C846 N844 1.356 . S
C847 C841 1.363 . S
C847 C842 1.379 . S
C847 N845 1.356 . S
N848 C840 1.356 . S
N848 H854 0.984 . S
N848 H855 0.984 . S
N849 C842 1.356 . S
N849 H852 0.984 . S
N849 H853 0.985 . S
H850 N845 0.984 . S
H851 N845 0.985 . S
H852 N849 0.984 . S
H853 N849 0.985 . S
H854 N848 0.984 . S
H855 N848 0.984 . S
H856 N844 0.984 . S
H857 N844 0.985 . S
C858 C859 1.363 . S
C858 C864 1.379 1_565 S
C858 N866 1.356 . S
C859 C858 1.363 . S
C859 C865 1.363 . S
C860 C861 1.363 . S
C860 C865 1.379 1_545 S
C860 N867 1.356 . S
C861 C860 1.363 . S
C861 C864 1.363 . S
N862 C864 1.356 . S
N862 H874 0.984 . S
N862 H875 0.985 . S
N863 C865 1.356 . S
N863 H868 0.984 . S
N863 H869 0.985 . S
C864 C858 1.379 1_545 S
C864 C861 1.363 . S
C864 N862 1.356 . S
C865 C859 1.363 . S
C865 C860 1.379 1_565 S
C865 N863 1.356 . S
N866 C858 1.356 . S
N866 H872 0.984 . S
N866 H873 0.984 . S
N867 C860 1.356 . S
N867 H870 0.984 . S
N867 H871 0.985 . S
H868 N863 0.984 . S
H869 N863 0.985 . S
H870 N867 0.984 . S
H871 N867 0.985 . S
H872 N866 0.984 . S
H873 N866 0.984 . S
H874 N862 0.984 . S
H875 N862 0.985 . S
C876 C877 1.363 . S
C876 C882 1.379 . S
C876 N884 1.356 . S
C877 C876 1.363 . S
C877 C883 1.363 . S
C878 C879 1.363 . S
C878 C883 1.379 . S
C878 N885 1.356 . S
C879 C878 1.363 . S
C879 C882 1.363 . S
N880 C882 1.356 . S
N880 H892 0.984 . S
N880 H893 0.985 . S
N881 C883 1.356 . S
N881 H886 0.984 . S
N881 H887 0.985 . S
C882 C876 1.379 . S
C882 C879 1.363 . S
C882 N880 1.356 . S
C883 C877 1.363 . S
C883 C878 1.379 . S
C883 N881 1.356 . S
N884 C876 1.356 . S
N884 H890 0.984 . S
N884 H891 0.984 . S
N885 C878 1.356 . S
N885 H888 0.984 . S
N885 H889 0.985 . S
H886 N881 0.984 . S
H887 N881 0.985 . S
H888 N885 0.984 . S
H889 N885 0.985 . S
H890 N884 0.984 . S
H891 N884 0.984 . S
H892 N880 0.984 . S
H893 N880 0.985 . S
C894 C895 1.363 . S
C894 C900 1.379 1_455 S
C894 N902 1.356 1_545 S
C895 C894 1.363 . S
C895 C901 1.363 . S
C896 C897 1.363 . S
C896 C901 1.379 1_655 S
C896 N903 1.356 . S
C897 C896 1.363 . S
C897 C900 1.363 . S
N898 C900 1.356 . S
N898 H910 0.977 1_545 S
N898 H911 0.985 . S
N899 C901 1.356 . S
N899 H904 0.984 . S
N899 H905 0.985 . S
C900 C894 1.379 1_655 S
C900 C897 1.363 . S
C900 N898 1.356 . S
C901 C895 1.363 . S
C901 C896 1.379 1_455 S
C901 N899 1.356 . S
N902 C894 1.356 1_565 S
N902 H908 0.984 . S
N902 H909 0.984 . S
N903 C896 1.356 . S
N903 H906 0.984 . S
N903 H907 0.985 . S
H904 N899 0.984 . S
H905 N899 0.985 . S
H906 N903 0.984 . S
H907 N903 0.985 . S
H908 N902 0.984 . S
H909 N902 0.984 . S
H910 N898 0.977 1_565 S
H911 N898 0.985 . S
C912 C913 1.363 . S
C912 C918 1.379 . S
C912 N920 1.356 . S
C913 C912 1.363 . S
C913 C919 1.363 . S
C914 C915 1.363 . S
C914 C919 1.379 . S
C914 N921 1.356 . S
C915 C914 1.363 . S
C915 C918 1.363 . S
N916 C918 1.356 . S
N916 H928 0.984 . S
N916 H929 0.985 . S
N917 C919 1.356 . S
N917 H922 0.984 . S
N917 H923 0.985 . S
C918 C912 1.379 . S
C918 C915 1.363 . S
C918 N916 1.356 . S
C919 C913 1.363 . S
C919 C914 1.379 . S
C919 N917 1.356 . S
N920 C912 1.356 . S
N920 H926 0.984 . S
N920 H927 0.984 . S
N921 C914 1.356 . S
N921 H924 0.984 . S
N921 H925 0.985 . S
H922 N917 0.984 . S
H923 N917 0.985 . S
H924 N921 0.984 . S
H925 N921 0.985 . S
H926 N920 0.984 . S
H927 N920 0.984 . S
H928 N916 0.984 . S
H929 N916 0.985 . S
C930 C931 1.363 . S
C930 C936 1.379 . S
C930 N938 1.356 . S
C931 C930 1.363 . S
C931 C937 1.363 . S
C932 C933 1.363 . S
C932 C937 1.379 1_655 S
C932 N939 1.356 . S
C933 C932 1.363 . S
C933 C936 1.363 1_655 S
N934 C936 1.356 1_655 S
N934 H946 0.984 1_655 S
N934 H947 0.985 . S
N935 C937 1.356 . S
N935 H940 0.984 . S
N935 H941 0.985 1_545 S
C936 C930 1.379 . S
C936 C933 1.363 1_455 S
C936 N934 1.356 1_455 S
C937 C931 1.363 . S
C937 C932 1.379 1_455 S
C937 N935 1.356 . S
N938 C930 1.356 . S
N938 H944 0.984 . S
N938 H945 0.984 . S
N939 C932 1.356 . S
N939 H942 0.984 . S
N939 H943 0.985 . S
H940 N935 0.984 . S
H941 N935 0.985 1_565 S
H942 N939 0.984 . S
H943 N939 0.985 . S
H944 N938 0.984 . S
H945 N938 0.984 . S
H946 N934 0.984 1_455 S
H947 N934 0.985 . S
C948 C949 1.363 . S
C948 C954 1.379 . S
C948 N956 1.356 . S
C949 C948 1.363 . S
C949 C955 1.363 . S
C950 C951 1.363 . S
C950 C955 1.379 . S
C950 N957 1.356 . S
C951 C950 1.363 . S
C951 C954 1.363 . S
N952 C954 1.356 . S
N952 H964 0.984 . S
N952 H965 0.985 . S
N953 C955 1.356 . S
N953 H958 0.984 . S
N953 H959 0.985 . S
C954 C948 1.379 . S
C954 C951 1.363 . S
C954 N952 1.356 . S
C955 C949 1.363 . S
C955 C950 1.379 . S
C955 N953 1.356 . S
N956 C948 1.356 . S
N956 H962 0.984 . S
N956 H963 0.984 . S
N957 C950 1.356 . S
N957 H960 0.984 . S
N957 H961 0.985 . S
H958 N953 0.984 . S
H959 N953 0.985 . S
H960 N957 0.984 . S
H961 N957 0.985 . S
H962 N956 0.984 . S
H963 N956 0.984 . S
H964 N952 0.984 . S
H965 N952 0.985 . S
C966 C967 1.363 . S
C966 C972 1.379 . S
C966 N974 1.356 1_554 S
C967 C966 1.363 . S
C967 C973 1.363 . S
C968 C969 1.363 . S
C968 C973 1.379 . S
C968 N975 1.356 . S
C969 C968 1.363 . S
C969 C972 1.363 . S
N970 C972 1.356 . S
N970 H982 0.984 . S
N970 H983 0.985 . S
N971 C973 1.356 . S
N971 H976 0.984 . S
N971 H977 0.985 . S
C972 C966 1.379 . S
C972 C969 1.363 . S
C972 N970 1.356 . S
C973 C967 1.363 . S
C973 C968 1.379 . S
C973 N971 1.356 . S
N974 C966 1.356 1_556 S
N974 H980 0.984 . S
N974 H981 0.984 . S
N975 C968 1.356 . S
N975 H978 0.984 . S
N975 H979 0.985 . S
H976 N971 0.984 . S
H977 N971 0.985 . S
H978 N975 0.984 . S
H979 N975 0.985 . S
H980 N974 0.984 . S
H981 N974 0.984 . S
H982 N970 0.984 . S
H983 N970 0.985 . S
C984 C985 1.363 . S
C984 C990 1.379 . S
C984 N992 1.356 . S
C985 C984 1.363 . S
C985 C991 1.363 . S
C986 C987 1.363 . S
C986 C991 1.379 . S
C986 N993 1.356 . S
C987 C986 1.363 . S
C987 C990 1.363 . S
N988 C990 1.356 . S
N988 H1000 0.984 . S
N988 H1001 0.985 . S
N989 C991 1.356 . S
N989 H994 0.984 . S
N989 H995 0.985 . S
C990 C984 1.379 . S
C990 C987 1.363 . S
C990 N988 1.356 . S
C991 C985 1.363 . S
C991 C986 1.379 . S
C991 N989 1.356 . S
N992 C984 1.356 . S
N992 H998 0.984 . S
N992 H999 0.984 . S
N993 C986 1.356 . S
N993 H996 0.984 . S
N993 H997 0.985 . S
H994 N989 0.984 . S
H995 N989 0.985 . S
H996 N993 0.984 . S
H997 N993 0.985 . S
H998 N992 0.984 . S
H999 N992 0.984 . S
H1000 N988 0.984 . S
H1001 N988 0.985 . S
C1002 C1003 1.363 . S
C1002 C1008 1.379 . S
C1002 N1010 1.356 . S
C1003 C1002 1.363 . S
C1003 C1009 1.363 . S
C1004 C1005 1.363 . S
C1004 C1009 1.379 . S
C1004 N1011 1.356 . S
C1005 C1004 1.363 . S
C1005 C1008 1.363 . S
N1006 C1008 1.356 . S
N1006 H1018 0.984 1_545 S
N1006 H1019 0.985 . S
N1007 C1009 1.356 . S
N1007 H1012 0.984 . S
N1007 H1013 0.985 . S
C1008 C1002 1.379 . S
C1008 C1005 1.363 . S
C1008 N1006 1.356 . S
C1009 C1003 1.363 . S
C1009 C1004 1.379 . S
C1009 N1007 1.356 . S
N1010 C1002 1.356 . S
N1010 H1016 0.984 . S
N1010 H1017 0.984 . S
N1011 C1004 1.356 . S
N1011 H1014 0.984 . S
N1011 H1015 0.985 . S
H1012 N1007 0.984 . S
H1013 N1007 0.985 . S
H1014 N1011 0.984 . S
H1015 N1011 0.985 . S
H1016 N1010 0.984 . S
H1017 N1010 0.984 . S
H1018 N1006 0.984 1_565 S
H1019 N1006 0.985 . S
C1020 C1021 1.363 . S
C1020 C1026 1.379 . S
C1020 N1028 1.356 . S
C1021 C1020 1.363 . S
C1021 C1027 1.363 . S
C1022 C1023 1.363 . S
C1022 C1027 1.379 . S
C1022 N1029 1.356 . S
C1023 C1022 1.363 . S
C1023 C1026 1.363 . S
N1024 C1026 1.356 . S
N1024 H1036 0.984 . S
N1024 H1037 0.985 . S
N1025 C1027 1.356 . S
N1025 H1030 0.984 . S
N1025 H1031 0.985 . S
C1026 C1020 1.379 . S
C1026 C1023 1.363 . S
C1026 N1024 1.356 . S
C1027 C1021 1.363 . S
C1027 C1022 1.379 . S
C1027 N1025 1.356 . S
N1028 C1020 1.356 . S
N1028 H1034 0.984 . S
N1028 H1035 0.984 . S
N1029 C1022 1.356 . S
N1029 H1032 0.984 . S
N1029 H1033 0.985 . S
H1030 N1025 0.984 . S
H1031 N1025 0.985 . S
H1032 N1029 0.984 . S
H1033 N1029 0.985 . S
H1034 N1028 0.984 . S
H1035 N1028 0.984 . S
H1036 N1024 0.984 . S
H1037 N1024 0.985 . S
C1038 C1039 1.363 . S
C1038 C1044 1.379 1_554 S
C1038 N1046 1.356 . S
C1039 C1038 1.363 . S
C1039 C1045 1.363 1_455 S
C1040 C1041 1.363 . S
C1040 C1045 1.379 1_456 S
C1040 N1047 1.356 . S
C1041 C1040 1.363 . S
C1041 C1044 1.363 . S
N1042 C1044 1.356 . S
N1042 H1054 0.984 1_556 S
N1042 H1055 0.985 . S
N1043 C1045 1.356 . S
N1043 H1048 0.984 . S
N1043 H1049 0.985 1_554 S
C1044 C1038 1.379 1_556 S
C1044 C1041 1.363 . S
C1044 N1042 1.356 . S
C1045 C1039 1.363 1_655 S
C1045 C1040 1.379 1_654 S
C1045 N1043 1.356 . S
N1046 C1038 1.356 . S
N1046 H1052 0.984 . S
N1046 H1053 0.984 . S
N1047 C1040 1.356 . S
N1047 H1050 0.984 . S
N1047 H1051 0.985 1_455 S
H1048 N1043 0.984 . S
H1049 N1043 0.985 1_556 S
H1050 N1047 0.984 . S
H1051 N1047 0.985 1_655 S
H1052 N1046 0.984 . S
H1053 N1046 0.984 . S
H1054 N1042 0.984 1_554 S
H1055 N1042 0.985 . S
C1056 C1057 1.363 . S
C1056 C1062 1.379 . S
C1056 N1064 1.356 . S
C1057 C1056 1.363 . S
C1057 C1063 1.363 . S
C1058 C1059 1.363 . S
C1058 C1063 1.379 . S
C1058 N1065 1.356 . S
C1059 C1058 1.363 . S
C1059 C1062 1.363 . S
N1060 C1062 1.356 . S
N1060 H1072 0.984 . S
N1060 H1073 0.985 . S
N1061 C1063 1.356 . S
N1061 H1066 0.984 . S
N1061 H1067 0.985 . S
C1062 C1056 1.379 . S
C1062 C1059 1.363 . S
C1062 N1060 1.356 . S
C1063 C1057 1.363 . S
C1063 C1058 1.379 . S
C1063 N1061 1.356 . S
N1064 C1056 1.356 . S
N1064 H1070 0.984 . S
N1064 H1071 0.984 . S
N1065 C1058 1.356 . S
N1065 H1068 0.984 . S
N1065 H1069 0.985 . S
H1066 N1061 0.984 . S
H1067 N1061 0.985 . S
H1068 N1065 0.984 . S
H1069 N1065 0.985 . S
H1070 N1064 0.984 . S
H1071 N1064 0.984 . S
H1072 N1060 0.984 . S
H1073 N1060 0.985 . S
C1074 C1075 1.363 . S
C1074 C1080 1.379 . S
C1074 N1082 1.356 . S
C1075 C1074 1.363 . S
C1075 C1081 1.363 . S
C1076 C1077 1.363 . S
C1076 C1081 1.379 . S
C1076 N1083 1.356 . S
C1077 C1076 1.363 . S
C1077 C1080 1.363 . S
N1078 C1080 1.356 . S
N1078 H1090 0.984 . S
N1078 H1091 0.985 . S
N1079 C1081 1.356 . S
N1079 H1084 0.984 . S
N1079 H1085 0.985 . S
C1080 C1074 1.379 . S
C1080 C1077 1.363 . S
C1080 N1078 1.356 . S
C1081 C1075 1.363 . S
C1081 C1076 1.379 . S
C1081 N1079 1.356 . S
N1082 C1074 1.356 . S
N1082 H1088 0.984 . S
N1082 H1089 0.984 . S
N1083 C1076 1.356 . S
N1083 H1086 0.984 . S
N1083 H1087 0.985 . S
H1084 N1079 0.984 . S
H1085 N1079 0.985 . S
H1086 N1083 0.984 . S
H1087 N1083 0.985 . S
H1088 N1082 0.984 . S
H1089 N1082 0.984 . S
H1090 N1078 0.984 . S
H1091 N1078 0.985 . S
C1092 C1093 1.363 . S
C1092 C1098 1.379 . S
C1092 N1100 1.356 . S
C1093 C1092 1.363 . S
C1093 C1099 1.363 . S
C1094 C1095 1.363 . S
C1094 C1099 1.379 . S
C1094 N1101 1.356 . S
C1095 C1094 1.363 . S
C1095 C1098 1.363 . S
N1096 C1098 1.356 . S
N1096 H1108 0.984 . S
N1096 H1109 0.985 . S
N1097 C1099 1.356 . S
N1097 H1102 0.984 . S
N1097 H1103 0.985 . S
C1098 C1092 1.379 . S
C1098 C1095 1.363 . S
C1098 N1096 1.356 . S
C1099 C1093 1.363 . S
C1099 C1094 1.379 . S
C1099 N1097 1.356 . S
N1100 C1092 1.356 . S
N1100 H1106 0.984 . S
N1100 H1107 0.984 1_554 S
N1101 C1094 1.356 . S
N1101 H1104 0.984 . S
N1101 H1105 0.985 . S
H1102 N1097 0.984 . S
H1103 N1097 0.985 . S
H1104 N1101 0.984 . S
H1105 N1101 0.985 . S
H1106 N1100 0.984 . S
H1107 N1100 0.984 1_556 S
H1108 N1096 0.984 . S
H1109 N1096 0.985 . S
C1110 C1111 1.363 . S
C1110 C1116 1.379 . S
C1110 N1118 1.356 . S
C1111 C1110 1.363 . S
C1111 C1117 1.363 . S
C1112 C1113 1.363 . S
C1112 C1117 1.379 . S
C1112 N1119 1.356 . S
C1113 C1112 1.363 . S
C1113 C1116 1.363 . S
N1114 C1116 1.356 . S
N1114 H1126 0.984 . S
N1114 H1127 0.985 . S
N1115 C1117 1.356 . S
N1115 H1120 0.984 . S
N1115 H1121 0.985 . S
C1116 C1110 1.379 . S
C1116 C1113 1.363 . S
C1116 N1114 1.356 . S
C1117 C1111 1.363 . S
C1117 C1112 1.379 . S
C1117 N1115 1.356 . S
N1118 C1110 1.356 . S
N1118 H1124 0.984 . S
N1118 H1125 0.984 . S
N1119 C1112 1.356 . S
N1119 H1122 0.984 . S
N1119 H1123 0.985 . S
H1120 N1115 0.984 . S
H1121 N1115 0.985 . S
H1122 N1119 0.984 . S
H1123 N1119 0.985 . S
H1124 N1118 0.984 . S
H1125 N1118 0.984 . S
H1126 N1114 0.984 . S
H1127 N1114 0.985 . S
C1128 C1129 1.363 1_566 S
C1128 C1134 1.378 1_556 S
C1128 N1136 1.357 1_565 S
C1129 C1128 1.363 1_544 S
C1129 C1135 1.363 . S
C1130 C1131 1.391 . S
C1130 C1135 1.352 1_565 S
C1130 N1137 1.365 . S
C1131 C1130 1.391 . S
C1131 C1134 1.363 . S
N1132 C1134 1.356 . S
N1132 H1144 0.984 1_554 S
N1132 H1145 0.985 . S
N1133 C1135 1.356 . S
N1133 H1138 0.984 . S
N1133 H1139 0.985 . S
C1134 C1128 1.378 1_554 S
C1134 C1131 1.363 . S
C1134 N1132 1.356 . S
C1135 C1129 1.363 . S
C1135 C1130 1.352 1_545 S
C1135 N1133 1.356 . S
N1136 C1128 1.357 1_545 S
N1136 H1142 0.984 1_545 S
N1136 H1143 0.984 . S
N1137 C1130 1.365 . S
N1137 H1140 0.984 . S
N1137 H1141 0.985 1_565 S
H1138 N1133 0.984 . S
H1139 N1133 0.985 . S
H1140 N1137 0.984 . S
H1141 N1137 0.985 1_545 S
H1142 N1136 0.984 1_565 S
H1143 N1136 0.984 . S
H1144 N1132 0.984 1_556 S
H1145 N1132 0.985 . S
C1146 C1147 1.363 . S
C1146 C1152 1.379 . S
C1146 N1154 1.356 . S
C1147 C1146 1.363 . S
C1147 C1153 1.363 . S
C1148 C1149 1.363 . S
C1148 C1153 1.379 . S
C1148 N1155 1.356 . S
C1149 C1148 1.363 . S
C1149 C1152 1.363 . S
N1150 C1152 1.356 . S
N1150 H1162 0.984 . S
N1150 H1163 0.985 . S
N1151 C1153 1.356 . S
N1151 H1156 0.984 . S
N1151 H1157 0.985 . S
C1152 C1146 1.379 . S
C1152 C1149 1.363 . S
C1152 N1150 1.356 . S
C1153 C1147 1.363 . S
C1153 C1148 1.379 . S
C1153 N1151 1.356 . S
N1154 C1146 1.356 . S
N1154 H1160 0.984 . S
N1154 H1161 0.984 . S
N1155 C1148 1.356 . S
N1155 H1158 0.984 . S
N1155 H1159 0.985 . S
H1156 N1151 0.984 . S
H1157 N1151 0.985 . S
H1158 N1155 0.984 . S
H1159 N1155 0.985 . S
H1160 N1154 0.984 . S
H1161 N1154 0.984 . S
H1162 N1150 0.984 . S
H1163 N1150 0.985 . S
C1164 C1165 1.363 . S
C1164 C1170 1.379 . S
C1164 N1172 1.356 . S
C1165 C1164 1.363 . S
C1165 C1171 1.363 . S
C1166 C1167 1.363 . S
C1166 C1171 1.379 . S
C1166 N1173 1.356 . S
C1167 C1166 1.363 . S
C1167 C1170 1.363 . S
N1168 C1170 1.356 . S
N1168 H1180 0.984 . S
N1168 H1181 0.985 . S
N1169 C1171 1.356 . S
N1169 H1174 0.984 . S
N1169 H1175 0.985 . S
C1170 C1164 1.379 . S
C1170 C1167 1.363 . S
C1170 N1168 1.356 . S
C1171 C1165 1.363 . S
C1171 C1166 1.379 . S
C1171 N1169 1.356 . S
N1172 C1164 1.356 . S
N1172 H1178 0.984 . S
N1172 H1179 0.984 . S
N1173 C1166 1.356 . S
N1173 H1176 0.984 . S
N1173 H1177 0.985 . S
H1174 N1169 0.984 . S
H1175 N1169 0.985 . S
H1176 N1173 0.984 . S
H1177 N1173 0.985 . S
H1178 N1172 0.984 . S
H1179 N1172 0.984 . S
H1180 N1168 0.984 . S
H1181 N1168 0.985 . S
C1182 C1183 1.363 1_556 S
C1182 C1188 1.379 . S
C1182 N1190 1.356 1_556 S
C1183 C1182 1.363 1_554 S
C1183 C1189 1.363 1_554 S
C1184 C1185 1.363 . S
C1184 C1189 1.379 . S
C1184 N1191 1.356 . S
C1185 C1184 1.363 . S
C1185 C1188 1.363 . S
N1186 C1188 1.356 . S
N1186 H1198 0.984 . S
N1186 H1199 0.985 . S
N1187 C1189 1.356 1_554 S
N1187 H1192 0.984 . S
N1187 H1193 0.985 . S
C1188 C1182 1.379 . S
C1188 C1185 1.363 . S
C1188 N1186 1.356 . S
C1189 C1183 1.363 1_556 S
C1189 C1184 1.379 . S
C1189 N1187 1.356 1_556 S
N1190 C1182 1.356 1_554 S
N1190 H1196 0.984 . S
N1190 H1197 0.984 . S
N1191 C1184 1.356 . S
N1191 H1194 0.984 . S
N1191 H1195 0.985 . S
H1192 N1187 0.984 . S
H1193 N1187 0.985 . S
H1194 N1191 0.984 . S
H1195 N1191 0.985 . S
H1196 N1190 0.984 . S
H1197 N1190 0.984 . S
H1198 N1186 0.984 . S
H1199 N1186 0.985 . S
C1200 C1201 1.363 . S
C1200 C1206 1.379 . S
C1200 N1208 1.356 . S
C1201 C1200 1.363 . S
C1201 C1207 1.363 . S
C1202 C1203 1.363 . S
C1202 C1207 1.379 . S
C1202 N1209 1.356 . S
C1203 C1202 1.363 . S
C1203 C1206 1.363 . S
N1204 C1206 1.356 . S
N1204 H1216 0.984 . S
N1204 H1217 0.985 . S
N1205 C1207 1.356 . S
N1205 H1210 0.984 . S
N1205 H1211 0.985 . S
C1206 C1200 1.379 . S
C1206 C1203 1.363 . S
C1206 N1204 1.356 . S
C1207 C1201 1.363 . S
C1207 C1202 1.379 . S
C1207 N1205 1.356 . S
N1208 C1200 1.356 . S
N1208 H1214 0.984 . S
N1208 H1215 0.984 . S
N1209 C1202 1.356 . S
N1209 H1212 0.984 . S
N1209 H1213 0.985 . S
H1210 N1205 0.984 . S
H1211 N1205 0.985 . S
H1212 N1209 0.984 . S
H1213 N1209 0.985 . S
H1214 N1208 0.984 . S
H1215 N1208 0.984 . S
H1216 N1204 0.984 . S
H1217 N1204 0.985 . S
C1218 C1219 1.363 . S
C1218 C1224 1.379 . S
C1218 N1226 1.356 . S
C1219 C1218 1.363 . S
C1219 C1225 1.363 . S
C1220 C1221 1.363 . S
C1220 C1225 1.379 . S
C1220 N1227 1.356 . S
C1221 C1220 1.363 . S
C1221 C1224 1.363 . S
N1222 C1224 1.356 . S
N1222 H1234 0.984 . S
N1222 H1235 0.985 . S
N1223 C1225 1.356 . S
N1223 H1228 0.984 . S
N1223 H1229 0.985 . S
C1224 C1218 1.379 . S
C1224 C1221 1.363 . S
C1224 N1222 1.356 . S
C1225 C1219 1.363 . S
C1225 C1220 1.379 . S
C1225 N1223 1.356 . S
N1226 C1218 1.356 . S
N1226 H1232 0.984 . S
N1226 H1233 0.984 . S
N1227 C1220 1.356 . S
N1227 H1230 0.984 . S
N1227 H1231 0.985 . S
H1228 N1223 0.984 . S
H1229 N1223 0.985 . S
H1230 N1227 0.984 . S
H1231 N1227 0.985 . S
H1232 N1226 0.984 . S
H1233 N1226 0.984 . S
H1234 N1222 0.984 . S
H1235 N1222 0.985 . S
C1236 C1237 1.363 . S
C1236 C1242 1.379 . S
C1236 N1244 1.356 . S
C1237 C1236 1.363 . S
C1237 C1243 1.363 . S
C1238 C1239 1.363 . S
C1238 C1243 1.379 . S
C1238 N1245 1.356 . S
C1239 C1238 1.363 . S
C1239 C1242 1.363 . S
N1240 C1242 1.356 . S
N1240 H1252 0.984 . S
N1240 H1253 0.985 . S
N1241 C1243 1.356 . S
N1241 H1246 0.984 . S
N1241 H1247 0.985 . S
C1242 C1236 1.379 . S
C1242 C1239 1.363 . S
C1242 N1240 1.356 . S
C1243 C1237 1.363 . S
C1243 C1238 1.379 . S
C1243 N1241 1.356 . S
N1244 C1236 1.356 . S
N1244 H1250 0.984 . S
N1244 H1251 0.984 . S
N1245 C1238 1.356 . S
N1245 H1248 0.984 . S
N1245 H1249 0.985 . S
H1246 N1241 0.984 . S
H1247 N1241 0.985 . S
H1248 N1245 0.984 . S
H1249 N1245 0.985 . S
H1250 N1244 0.984 . S
H1251 N1244 0.984 . S
H1252 N1240 0.984 . S
H1253 N1240 0.985 . S
C1254 C1255 1.363 . S
C1254 C1260 1.379 . S
C1254 N1262 1.356 . S
C1255 C1254 1.363 . S
C1255 C1261 1.363 . S
C1256 C1257 1.363 1_655 S
C1256 C1261 1.379 1_655 S
C1256 N1263 1.356 . S
C1257 C1256 1.363 1_455 S
C1257 C1260 1.363 . S
N1258 C1260 1.356 . S
N1258 H1270 0.984 . S
N1258 H1271 0.985 . S
N1259 C1261 1.356 1_655 S
N1259 H1264 0.984 1_655 S
N1259 H1265 0.985 . S
C1260 C1254 1.379 . S
C1260 C1257 1.363 . S
C1260 N1258 1.356 . S
C1261 C1255 1.363 . S
C1261 C1256 1.379 1_455 S
C1261 N1259 1.356 1_455 S
N1262 C1254 1.356 . S
N1262 H1268 0.984 . S
N1262 H1269 0.984 . S
N1263 C1256 1.356 . S
N1263 H1266 0.984 . S
N1263 H1267 0.985 . S
H1264 N1259 0.984 1_455 S
H1265 N1259 0.985 . S
H1266 N1263 0.984 . S
H1267 N1263 0.985 . S
H1268 N1262 0.984 . S
H1269 N1262 0.984 . S
H1270 N1258 0.984 . S
H1271 N1258 0.985 . S
C1272 C1273 1.363 . S
C1272 C1278 1.379 . S
C1272 N1280 1.356 . S
C1273 C1272 1.363 . S
C1273 C1279 1.363 . S
C1274 C1275 1.363 . S
C1274 C1279 1.379 . S
C1274 N1281 1.356 . S
C1275 C1274 1.363 . S
C1275 C1278 1.363 . S
N1276 C1278 1.356 . S
N1276 H1288 0.984 . S
N1276 H1289 0.985 . S
N1277 C1279 1.356 . S
N1277 H1282 0.984 . S
N1277 H1283 0.985 . S
C1278 C1272 1.379 . S
C1278 C1275 1.363 . S
C1278 N1276 1.356 . S
C1279 C1273 1.363 . S
C1279 C1274 1.379 . S
C1279 N1277 1.356 . S
N1280 C1272 1.356 . S
N1280 H1286 0.984 . S
N1280 H1287 0.984 . S
N1281 C1274 1.356 . S
N1281 H1284 0.984 . S
N1281 H1285 0.985 . S
H1282 N1277 0.984 . S
H1283 N1277 0.985 . S
H1284 N1281 0.984 . S
H1285 N1281 0.985 . S
H1286 N1280 0.984 . S
H1287 N1280 0.984 . S
H1288 N1276 0.984 . S
H1289 N1276 0.985 . S
C1290 C1291 1.363 1_655 S
C1290 C1296 1.379 1_655 S
C1290 N1298 1.356 . S
C1291 C1290 1.363 1_455 S
C1291 C1297 1.363 . S
C1292 C1293 1.363 . S
C1292 C1297 1.379 . S
C1292 N1299 1.356 . S
C1293 C1292 1.363 . S
C1293 C1296 1.363 . S
N1294 C1296 1.356 1_655 S
N1294 H1306 0.984 . S
N1294 H1307 0.985 1_655 S
N1295 C1297 1.356 . S
N1295 H1300 0.984 . S
N1295 H1301 0.985 . S
C1296 C1290 1.379 1_455 S
C1296 C1293 1.363 . S
C1296 N1294 1.356 1_455 S
C1297 C1291 1.363 . S
C1297 C1292 1.379 . S
C1297 N1295 1.356 . S
N1298 C1290 1.356 . S
N1298 H1304 0.984 . S
N1298 H1305 0.984 . S
N1299 C1292 1.356 . S
N1299 H1302 0.984 . S
N1299 H1303 0.985 . S
H1300 N1295 0.984 . S
H1301 N1295 0.985 . S
H1302 N1299 0.984 . S
H1303 N1299 0.985 . S
H1304 N1298 0.984 . S
H1305 N1298 0.984 . S
H1306 N1294 0.984 . S
H1307 N1294 0.985 1_455 S
C1308 C1309 1.363 . S
C1308 C1314 1.379 . S
C1308 N1316 1.356 . S
C1309 C1308 1.363 . S
C1309 C1315 1.363 . S
C1310 C1311 1.363 . S
C1310 C1315 1.379 . S
C1310 N1317 1.356 . S
C1311 C1310 1.363 . S
C1311 C1314 1.363 . S
N1312 C1314 1.356 . S
N1312 H1324 0.984 . S
N1312 H1325 0.985 . S
N1313 C1315 1.356 . S
N1313 H1318 0.984 . S
N1313 H1319 0.985 . S
C1314 C1308 1.379 . S
C1314 C1311 1.363 . S
C1314 N1312 1.356 . S
C1315 C1309 1.363 . S
C1315 C1310 1.379 . S
C1315 N1313 1.356 . S
N1316 C1308 1.356 . S
N1316 H1322 0.984 . S
N1316 H1323 0.984 . S
N1317 C1310 1.356 . S
N1317 H1320 0.984 . S
N1317 H1321 0.985 . S
H1318 N1313 0.984 . S
H1319 N1313 0.985 . S
H1320 N1317 0.984 . S
H1321 N1317 0.985 . S
H1322 N1316 0.984 . S
H1323 N1316 0.984 . S
H1324 N1312 0.984 . S
H1325 N1312 0.985 . S
C1326 C1327 1.363 . S
C1326 C1332 1.379 . S
C1326 N1334 1.356 . S
C1327 C1326 1.363 . S
C1327 C1333 1.363 . S
C1328 C1329 1.363 . S
C1328 C1333 1.379 . S
C1328 N1335 1.356 . S
C1329 C1328 1.363 . S
C1329 C1332 1.363 . S
N1330 C1332 1.356 . S
N1330 H1342 0.984 . S
N1330 H1343 0.985 . S
N1331 C1333 1.356 . S
N1331 H1336 0.984 . S
N1331 H1337 0.985 . S
C1332 C1326 1.379 . S
C1332 C1329 1.363 . S
C1332 N1330 1.356 . S
C1333 C1327 1.363 . S
C1333 C1328 1.379 . S
C1333 N1331 1.356 . S
N1334 C1326 1.356 . S
N1334 H1340 0.984 . S
N1334 H1341 0.984 . S
N1335 C1328 1.356 . S
N1335 H1338 0.984 . S
N1335 H1339 0.985 . S
H1336 N1331 0.984 . S
H1337 N1331 0.985 . S
H1338 N1335 0.984 . S
H1339 N1335 0.985 . S
H1340 N1334 0.984 . S
H1341 N1334 0.984 . S
H1342 N1330 0.984 . S
H1343 N1330 0.985 . S
C1344 C1345 1.363 . S
C1344 C1350 1.379 . S
C1344 N1352 1.356 . S
C1345 C1344 1.363 . S
C1345 C1351 1.363 . S
C1346 C1347 1.363 . S
C1346 C1351 1.379 . S
C1346 N1353 1.356 . S
C1347 C1346 1.363 . S
C1347 C1350 1.363 . S
N1348 C1350 1.356 . S
N1348 H1360 0.984 . S
N1348 H1361 0.985 . S
N1349 C1351 1.356 . S
N1349 H1354 0.984 . S
N1349 H1355 0.985 . S
C1350 C1344 1.379 . S
C1350 C1347 1.363 . S
C1350 N1348 1.356 . S
C1351 C1345 1.363 . S
C1351 C1346 1.379 . S
C1351 N1349 1.356 . S
N1352 C1344 1.356 . S
N1352 H1358 0.984 . S
N1352 H1359 0.984 . S
N1353 C1346 1.356 . S
N1353 H1356 0.984 . S
N1353 H1357 0.985 . S
H1354 N1349 0.984 . S
H1355 N1349 0.985 . S
H1356 N1353 0.984 . S
H1357 N1353 0.985 . S
H1358 N1352 0.984 . S
H1359 N1352 0.984 . S
H1360 N1348 0.984 . S
H1361 N1348 0.985 . S
C1362 C1363 1.363 . S
C1362 C1368 1.379 . S
C1362 N1370 1.356 . S
C1363 C1362 1.363 . S
C1363 C1369 1.379 . S
C1364 C1365 1.363 1_556 S
C1364 C1369 1.374 1_556 S
C1364 N1371 1.356 . S
C1365 C1364 1.363 1_554 S
C1365 C1368 1.363 . S
N1366 C1368 1.356 . S
N1366 H1378 0.984 . S
N1366 H1379 0.985 . S
N1367 C1369 1.349 1_556 S
N1367 H1372 0.984 1_556 S
N1367 H1373 0.985 . S
C1368 C1362 1.379 . S
C1368 C1365 1.363 . S
C1368 N1366 1.356 . S
C1369 C1363 1.379 . S
C1369 C1364 1.374 1_554 S
C1369 N1367 1.349 1_554 S
N1370 C1362 1.356 . S
N1370 H1376 0.984 . S
N1370 H1377 0.984 . S
N1371 C1364 1.356 . S
N1371 H1374 0.984 . S
N1371 H1375 0.985 . S
H1372 N1367 0.984 1_554 S
H1373 N1367 0.985 . S
H1374 N1371 0.984 . S
H1375 N1371 0.985 . S
H1376 N1370 0.984 . S
H1377 N1370 0.984 . S
H1378 N1366 0.984 . S
H1379 N1366 0.985 . S
C1380 C1381 1.363 . S
C1380 C1386 1.379 . S
C1380 N1388 1.356 . S
C1381 C1380 1.363 . S
C1381 C1387 1.363 . S
C1382 C1383 1.363 . S
C1382 C1387 1.379 . S
C1382 N1389 1.356 . S
C1383 C1382 1.363 . S
C1383 C1386 1.363 . S
N1384 C1386 1.356 . S
N1384 H1396 0.984 . S
N1384 H1397 0.985 . S
N1385 C1387 1.356 . S
N1385 H1390 0.984 . S
N1385 H1391 0.985 . S
C1386 C1380 1.379 . S
C1386 C1383 1.363 . S
C1386 N1384 1.356 . S
C1387 C1381 1.363 . S
C1387 C1382 1.379 . S
C1387 N1385 1.356 . S
N1388 C1380 1.356 . S
N1388 H1394 0.984 . S
N1388 H1395 0.984 . S
N1389 C1382 1.356 . S
N1389 H1392 0.984 . S
N1389 H1393 0.985 . S
H1390 N1385 0.984 . S
H1391 N1385 0.985 . S
H1392 N1389 0.984 . S
H1393 N1389 0.985 . S
H1394 N1388 0.984 . S
H1395 N1388 0.984 . S
H1396 N1384 0.984 . S
H1397 N1384 0.985 . S
C1398 C1399 1.363 1_655 S
C1398 C1404 1.379 . S
C1398 N1406 1.356 . S
C1399 C1398 1.363 1_455 S
C1399 C1405 1.363 . S
C1400 C1401 1.363 . S
C1400 C1405 1.379 1_655 S
C1400 N1407 1.356 . S
C1401 C1400 1.363 . S
C1401 C1404 1.363 . S
N1402 C1404 1.356 . S
N1402 H1414 0.984 . S
N1402 H1415 0.985 . S
N1403 C1405 1.356 . S
N1403 H1408 0.984 . S
N1403 H1409 0.985 . S
C1404 C1398 1.379 . S
C1404 C1401 1.363 . S
C1404 N1402 1.356 . S
C1405 C1399 1.363 . S
C1405 C1400 1.379 1_455 S
C1405 N1403 1.356 . S
N1406 C1398 1.356 . S
N1406 H1412 0.984 . S
N1406 H1413 0.984 1_655 S
N1407 C1400 1.356 . S
N1407 H1410 0.984 . S
N1407 H1411 0.985 . S
H1408 N1403 0.984 . S
H1409 N1403 0.985 . S
H1410 N1407 0.984 . S
H1411 N1407 0.985 . S
H1412 N1406 0.984 . S
H1413 N1406 0.984 1_455 S
H1414 N1402 0.984 . S
H1415 N1402 0.985 . S
C1416 C1417 1.363 . S
C1416 C1422 1.379 . S
C1416 N1424 1.356 . S
C1417 C1416 1.363 . S
C1417 C1423 1.363 . S
C1418 C1419 1.363 . S
C1418 C1423 1.379 . S
C1418 N1425 1.356 . S
C1419 C1418 1.363 . S
C1419 C1422 1.363 . S
N1420 C1422 1.356 . S
N1420 H1432 0.984 . S
N1420 H1433 0.985 . S
N1421 C1423 1.356 . S
N1421 H1426 0.984 . S
N1421 H1427 0.985 . S
C1422 C1416 1.379 . S
C1422 C1419 1.363 . S
C1422 N1420 1.356 . S
C1423 C1417 1.363 . S
C1423 C1418 1.379 . S
C1423 N1421 1.356 . S
N1424 C1416 1.356 . S
N1424 H1430 0.984 . S
N1424 H1431 0.984 . S
N1425 C1418 1.356 . S
N1425 H1428 0.984 . S
N1425 H1429 0.985 . S
H1426 N1421 0.984 . S
H1427 N1421 0.985 . S
H1428 N1425 0.984 . S
H1429 N1425 0.985 . S
H1430 N1424 0.984 . S
H1431 N1424 0.984 . S
H1432 N1420 0.984 . S
H1433 N1420 0.985 . S
C1434 C1435 1.363 . S
C1434 C1440 1.379 . S
C1434 N1442 1.356 . S
C1435 C1434 1.363 . S
C1435 C1441 1.363 . S
C1436 C1437 1.363 . S
C1436 C1441 1.379 1_455 S
C1436 N1443 1.356 1_556 S
C1437 C1436 1.363 . S
C1437 C1440 1.363 1_455 S
N1438 C1440 1.356 1_455 S
N1438 H1450 0.984 1_455 S
N1438 H1451 0.985 . S
N1439 C1441 1.356 . S
N1439 H1444 0.984 . S
N1439 H1445 0.985 . S
C1440 C1434 1.379 . S
C1440 C1437 1.363 1_655 S
C1440 N1438 1.356 1_655 S
C1441 C1435 1.363 . S
C1441 C1436 1.379 1_655 S
C1441 N1439 1.356 . S
N1442 C1434 1.356 . S
N1442 H1448 0.984 . S
N1442 H1449 0.984 . S
N1443 C1436 1.356 1_554 S
N1443 H1446 0.984 . S
N1443 H1447 0.985 . S
H1444 N1439 0.984 . S
H1445 N1439 0.985 . S
H1446 N1443 0.984 . S
H1447 N1443 0.985 . S
H1448 N1442 0.984 . S
H1449 N1442 0.984 . S
H1450 N1438 0.984 1_655 S
H1451 N1438 0.985 . S
C1452 C1453 1.363 . S
C1452 C1458 1.379 . S
C1452 N1460 1.356 . S
C1453 C1452 1.363 . S
C1453 C1459 1.363 . S
C1454 C1455 1.363 . S
C1454 C1459 1.379 . S
C1454 N1461 1.356 . S
C1455 C1454 1.363 . S
C1455 C1458 1.363 . S
N1456 C1458 1.356 . S
N1456 H1468 0.984 . S
N1456 H1469 0.985 . S
N1457 C1459 1.356 . S
N1457 H1462 0.984 . S
N1457 H1463 0.985 . S
C1458 C1452 1.379 . S
C1458 C1455 1.363 . S
C1458 N1456 1.356 . S
C1459 C1453 1.363 . S
C1459 C1454 1.379 . S
C1459 N1457 1.356 . S
N1460 C1452 1.356 . S
N1460 H1466 0.984 . S
N1460 H1467 0.984 . S
N1461 C1454 1.356 . S
N1461 H1464 0.984 . S
N1461 H1465 0.985 . S
H1462 N1457 0.984 . S
H1463 N1457 0.985 . S
H1464 N1461 0.984 . S
H1465 N1461 0.985 . S
H1466 N1460 0.984 . S
H1467 N1460 0.984 . S
H1468 N1456 0.984 . S
H1469 N1456 0.985 . S
C1470 C1471 1.363 . S
C1470 C1476 1.379 . S
C1470 N1478 1.356 . S
C1471 C1470 1.363 . S
C1471 C1477 1.363 . S
C1472 C1473 1.363 . S
C1472 C1477 1.379 . S
C1472 N1479 1.356 . S
C1473 C1472 1.363 . S
C1473 C1476 1.363 . S
N1474 C1476 1.356 . S
N1474 H1486 0.984 . S
N1474 H1487 0.985 . S
N1475 C1477 1.356 . S
N1475 H1480 0.984 . S
N1475 H1481 0.985 . S
C1476 C1470 1.379 . S
C1476 C1473 1.363 . S
C1476 N1474 1.356 . S
C1477 C1471 1.363 . S
C1477 C1472 1.379 . S
C1477 N1475 1.356 . S
N1478 C1470 1.356 . S
N1478 H1484 0.984 . S
N1478 H1485 0.984 . S
N1479 C1472 1.356 . S
N1479 H1482 0.984 . S
N1479 H1483 0.985 . S
H1480 N1475 0.984 . S
H1481 N1475 0.985 . S
H1482 N1479 0.984 . S
H1483 N1479 0.985 . S
H1484 N1478 0.984 . S
H1485 N1478 0.984 . S
H1486 N1474 0.984 . S
H1487 N1474 0.985 . S
C1488 C1489 1.363 . S
C1488 C1494 1.379 . S
C1488 N1496 1.356 . S
C1489 C1488 1.363 . S
C1489 C1495 1.363 . S
C1490 C1491 1.363 . S
C1490 C1495 1.379 . S
C1490 N1497 1.356 . S
C1491 C1490 1.363 . S
C1491 C1494 1.363 . S
N1492 C1494 1.356 . S
N1492 H1504 0.984 . S
N1492 H1505 0.985 . S
N1493 C1495 1.356 . S
N1493 H1498 0.984 . S
N1493 H1499 0.985 . S
C1494 C1488 1.379 . S
C1494 C1491 1.363 . S
C1494 N1492 1.356 . S
C1495 C1489 1.363 . S
C1495 C1490 1.379 . S
C1495 N1493 1.356 . S
N1496 C1488 1.356 . S
N1496 H1502 0.984 . S
N1496 H1503 0.984 . S
N1497 C1490 1.356 . S
N1497 H1500 0.984 . S
N1497 H1501 0.985 . S
H1498 N1493 0.984 . S
H1499 N1493 0.985 . S
H1500 N1497 0.984 . S
H1501 N1497 0.985 . S
H1502 N1496 0.984 . S
H1503 N1496 0.984 . S
H1504 N1492 0.984 . S
H1505 N1492 0.985 . S
C1506 C1507 1.363 . S
C1506 C1512 1.379 . S
C1506 N1514 1.356 . S
C1507 C1506 1.363 . S
C1507 C1513 1.363 . S
C1508 C1509 1.363 . S
C1508 C1513 1.379 . S
C1508 N1515 1.356 . S
C1509 C1508 1.363 . S
C1509 C1512 1.363 . S
N1510 C1512 1.356 . S
N1510 H1522 0.984 . S
N1510 H1523 0.985 . S
N1511 C1513 1.356 . S
N1511 H1516 0.984 . S
N1511 H1517 0.985 . S
C1512 C1506 1.379 . S
C1512 C1509 1.363 . S
C1512 N1510 1.356 . S
C1513 C1507 1.363 . S
C1513 C1508 1.379 . S
C1513 N1511 1.356 . S
N1514 C1506 1.356 . S
N1514 H1520 0.984 . S
N1514 H1521 0.984 . S
N1515 C1508 1.356 . S
N1515 H1518 0.984 . S
N1515 H1519 0.985 . S
H1516 N1511 0.984 . S
H1517 N1511 0.985 . S
H1518 N1515 0.984 . S
H1519 N1515 0.985 . S
H1520 N1514 0.984 . S
H1521 N1514 0.984 . S
H1522 N1510 0.984 . S
H1523 N1510 0.985 . S
C1524 C1525 1.363 . S
C1524 C1530 1.379 1_545 S
C1524 N1532 1.356 . S
C1525 C1524 1.363 . S
C1525 C1531 1.363 . S
C1526 C1527 1.363 . S
C1526 C1531 1.379 1_565 S
C1526 N1533 1.356 . S
C1527 C1526 1.363 . S
C1527 C1530 1.363 . S
N1528 C1530 1.356 . S
N1528 H1540 0.984 . S
N1528 H1541 0.985 . S
N1529 C1531 1.356 . S
N1529 H1534 0.984 . S
N1529 H1535 0.985 . S
C1530 C1524 1.379 1_565 S
C1530 C1527 1.363 . S
C1530 N1528 1.356 . S
C1531 C1525 1.363 . S
C1531 C1526 1.379 1_545 S
C1531 N1529 1.356 . S
N1532 C1524 1.356 . S
N1532 H1538 0.984 . S
N1532 H1539 0.984 . S
N1533 C1526 1.356 . S
N1533 H1536 0.984 . S
N1533 H1537 0.985 . S
H1534 N1529 0.984 . S
H1535 N1529 0.985 . S
H1536 N1533 0.984 . S
H1537 N1533 0.985 . S
H1538 N1532 0.984 . S
H1539 N1532 0.984 . S
H1540 N1528 0.984 . S
H1541 N1528 0.985 . S
C1542 C1543 1.363 . S
C1542 C1548 1.379 . S
C1542 N1550 1.356 . S
C1543 C1542 1.363 . S
C1543 C1549 1.363 . S
C1544 C1545 1.363 . S
C1544 C1549 1.379 . S
C1544 N1551 1.356 . S
C1545 C1544 1.363 . S
C1545 C1548 1.363 . S
N1546 C1548 1.356 . S
N1546 H1558 0.984 . S
N1546 H1559 0.985 . S
N1547 C1549 1.356 . S
N1547 H1552 0.984 . S
N1547 H1553 0.985 . S
C1548 C1542 1.379 . S
C1548 C1545 1.363 . S
C1548 N1546 1.356 . S
C1549 C1543 1.363 . S
C1549 C1544 1.379 . S
C1549 N1547 1.356 . S
N1550 C1542 1.356 . S
N1550 H1556 0.984 . S
N1550 H1557 0.984 . S
N1551 C1544 1.356 . S
N1551 H1554 0.984 . S
N1551 H1555 0.985 . S
H1552 N1547 0.984 . S
H1553 N1547 0.985 . S
H1554 N1551 0.984 . S
H1555 N1551 0.985 . S
H1556 N1550 0.984 . S
H1557 N1550 0.984 . S
H1558 N1546 0.984 . S
H1559 N1546 0.985 . S
C1560 C1561 1.363 . S
C1560 C1566 1.379 . S
C1560 N1568 1.356 . S
C1561 C1560 1.363 . S
C1561 C1567 1.363 . S
C1562 C1563 1.363 . S
C1562 C1567 1.379 . S
C1562 N1569 1.356 . S
C1563 C1562 1.363 . S
C1563 C1566 1.363 . S
N1564 C1566 1.356 . S
N1564 H1576 0.984 . S
N1564 H1577 0.985 . S
N1565 C1567 1.356 . S
N1565 H1570 0.984 . S
N1565 H1571 0.985 . S
C1566 C1560 1.379 . S
C1566 C1563 1.363 . S
C1566 N1564 1.356 . S
C1567 C1561 1.363 . S
C1567 C1562 1.379 . S
C1567 N1565 1.356 . S
N1568 C1560 1.356 . S
N1568 H1574 0.984 . S
N1568 H1575 0.984 . S
N1569 C1562 1.356 . S
N1569 H1572 0.984 . S
N1569 H1573 0.985 . S
H1570 N1565 0.984 . S
H1571 N1565 0.985 . S
H1572 N1569 0.984 . S
H1573 N1569 0.985 . S
H1574 N1568 0.984 . S
H1575 N1568 0.984 . S
H1576 N1564 0.984 . S
H1577 N1564 0.985 . S
C1578 C1579 1.363 . S
C1578 C1584 1.379 . S
C1578 N1586 1.356 . S
C1579 C1578 1.363 . S
C1579 C1585 1.363 . S
C1580 C1581 1.363 . S
C1580 C1585 1.379 . S
C1580 N1587 1.356 . S
C1581 C1580 1.363 . S
C1581 C1584 1.363 . S
N1582 C1584 1.356 . S
N1582 H1594 0.984 . S
N1582 H1595 0.985 . S
N1583 C1585 1.356 . S
N1583 H1588 0.984 . S
N1583 H1589 0.985 . S
C1584 C1578 1.379 . S
C1584 C1581 1.363 . S
C1584 N1582 1.356 . S
C1585 C1579 1.363 . S
C1585 C1580 1.379 . S
C1585 N1583 1.356 . S
N1586 C1578 1.356 . S
N1586 H1592 0.984 . S
N1586 H1593 0.984 . S
N1587 C1580 1.356 . S
N1587 H1590 0.984 . S
N1587 H1591 0.985 . S
H1588 N1583 0.984 . S
H1589 N1583 0.985 . S
H1590 N1587 0.984 . S
H1591 N1587 0.985 . S
H1592 N1586 0.984 . S
H1593 N1586 0.984 . S
H1594 N1582 0.984 . S
H1595 N1582 0.985 . S
C1596 C1597 1.363 . S
C1596 C1602 1.379 1_565 S
C1596 N1604 1.356 . S
C1597 C1596 1.363 . S
C1597 C1603 1.363 . S
C1598 C1599 1.363 1_565 S
C1598 C1603 1.379 . S
C1598 N1605 1.356 1_566 S
C1599 C1598 1.363 1_545 S
C1599 C1602 1.363 . S
N1600 C1602 1.356 . S
N1600 H1612 0.984 . S
N1600 H1613 0.985 . S
N1601 C1603 1.356 . S
N1601 H1606 0.984 . S
N1601 H1607 0.985 . S
C1602 C1596 1.379 1_545 S
C1602 C1599 1.363 . S
C1602 N1600 1.356 . S
C1603 C1597 1.363 . S
C1603 C1598 1.379 . S
C1603 N1601 1.356 . S
N1604 C1596 1.356 . S
N1604 H1610 0.984 1_565 S
N1604 H1611 0.984 . S
N1605 C1598 1.356 1_544 S
N1605 H1608 0.984 . S
N1605 H1609 0.985 1_545 S
H1606 N1601 0.984 . S
H1607 N1601 0.985 . S
H1608 N1605 0.984 . S
H1609 N1605 0.985 1_565 S
H1610 N1604 0.984 1_545 S
H1611 N1604 0.984 . S
H1612 N1600 0.984 . S
H1613 N1600 0.985 . S
C1614 C1615 1.363 . S
C1614 C1620 1.379 1_545 S
C1614 N1622 1.356 1_545 S
C1615 C1614 1.363 . S
C1615 C1621 1.363 . S
C1616 C1617 1.363 . S
C1616 C1621 1.379 . S
C1616 N1623 1.356 . S
C1617 C1616 1.363 . S
C1617 C1620 1.363 1_545 S
N1618 C1620 1.356 . S
N1618 H1630 0.984 . S
N1618 H1631 0.985 . S
N1619 C1621 1.356 . S
N1619 H1624 0.984 . S
N1619 H1625 0.985 . S
C1620 C1614 1.379 1_565 S
C1620 C1617 1.363 1_565 S
C1620 N1618 1.356 . S
C1621 C1615 1.363 . S
C1621 C1616 1.379 . S
C1621 N1619 1.356 . S
N1622 C1614 1.356 1_565 S
N1622 H1628 0.984 . S
N1622 H1629 0.982 1_565 S
N1623 C1616 1.356 . S
N1623 H1626 0.984 . S
N1623 H1627 0.985 . S
H1624 N1619 0.984 . S
H1625 N1619 0.985 . S
H1626 N1623 0.984 . S
H1627 N1623 0.985 . S
H1628 N1622 0.984 . S
H1629 N1622 0.982 1_545 S
H1630 N1618 0.984 . S
H1631 N1618 0.985 . S
C1632 C1633 1.363 . S
C1632 C1638 1.379 . S
C1632 N1640 1.356 . S
C1633 C1632 1.363 . S
C1633 C1639 1.363 . S
C1634 C1635 1.363 . S
C1634 C1639 1.379 . S
C1634 N1641 1.356 . S
C1635 C1634 1.363 . S
C1635 C1638 1.363 . S
N1636 C1638 1.356 . S
N1636 H1648 0.984 . S
N1636 H1649 0.985 . S
N1637 C1639 1.356 . S
N1637 H1642 0.984 . S
N1637 H1643 0.985 . S
C1638 C1632 1.379 . S
C1638 C1635 1.363 . S
C1638 N1636 1.356 . S
C1639 C1633 1.363 . S
C1639 C1634 1.379 . S
C1639 N1637 1.356 . S
N1640 C1632 1.356 . S
N1640 H1646 0.984 . S
N1640 H1647 0.984 . S
N1641 C1634 1.356 . S
N1641 H1644 0.984 . S
N1641 H1645 0.985 . S
H1642 N1637 0.984 . S
H1643 N1637 0.985 . S
H1644 N1641 0.984 . S
H1645 N1641 0.985 . S
H1646 N1640 0.984 . S
H1647 N1640 0.984 . S
H1648 N1636 0.984 . S
H1649 N1636 0.985 . S
C1650 C1651 1.363 . S
C1650 C1656 1.379 . S
C1650 N1658 1.356 . S
C1651 C1650 1.363 . S
C1651 C1657 1.363 1_455 S
C1652 C1653 1.363 . S
C1652 C1657 1.379 . S
C1652 N1659 1.356 . S
C1653 C1652 1.363 . S
C1653 C1656 1.363 1_655 S
N1654 C1656 1.356 1_655 S
N1654 H1666 0.984 1_655 S
N1654 H1667 0.985 . S
N1655 C1657 1.356 . S
N1655 H1660 0.984 1_655 S
N1655 H1661 0.985 . S
C1656 C1650 1.379 . S
C1656 C1653 1.363 1_455 S
C1656 N1654 1.356 1_455 S
C1657 C1651 1.363 1_655 S
C1657 C1652 1.379 . S
C1657 N1655 1.356 . S
N1658 C1650 1.356 . S
N1658 H1664 0.984 . S
N1658 H1665 0.984 . S
N1659 C1652 1.356 . S
N1659 H1662 0.984 . S
N1659 H1663 0.985 . S
H1660 N1655 0.984 1_455 S
H1661 N1655 0.985 . S
H1662 N1659 0.984 . S
H1663 N1659 0.985 . S
H1664 N1658 0.984 . S
H1665 N1658 0.984 . S
H1666 N1654 0.984 1_455 S
H1667 N1654 0.985 . S
C1668 C1669 1.363 1_556 S
C1668 C1674 1.379 . S
C1668 N1676 1.356 . S
C1669 C1668 1.363 1_554 S
C1669 C1675 1.363 . S
C1670 C1671 1.363 1_554 S
C1670 C1675 1.379 . S
C1670 N1677 1.356 1_554 S
C1671 C1670 1.363 1_556 S
C1671 C1674 1.363 . S
N1672 C1674 1.356 . S
N1672 H1684 0.984 . S
N1672 H1685 0.985 . S
N1673 C1675 1.356 . S
N1673 H1678 0.984 . S
N1673 H1679 0.985 . S
C1674 C1668 1.379 . S
C1674 C1671 1.363 . S
C1674 N1672 1.356 . S
C1675 C1669 1.363 . S
C1675 C1670 1.379 . S
C1675 N1673 1.356 . S
N1676 C1668 1.356 . S
N1676 H1682 0.984 . S
N1676 H1683 0.984 1_556 S
N1677 C1670 1.356 1_556 S
N1677 H1680 0.984 . S
N1677 H1681 0.985 1_556 S
H1678 N1673 0.984 . S
H1679 N1673 0.985 . S
H1680 N1677 0.984 . S
H1681 N1677 0.985 1_554 S
H1682 N1676 0.984 . S
H1683 N1676 0.984 1_554 S
H1684 N1672 0.984 . S
H1685 N1672 0.985 . S
C1686 C1687 1.363 . S
C1686 C1692 1.379 . S
C1686 N1694 1.356 . S
C1687 C1686 1.363 . S
C1687 C1693 1.363 . S
C1688 C1689 1.363 . S
C1688 C1693 1.379 . S
C1688 N1695 1.356 . S
C1689 C1688 1.363 . S
C1689 C1692 1.363 . S
N1690 C1692 1.356 . S
N1690 H1702 0.984 . S
N1690 H1703 0.985 . S
N1691 C1693 1.356 . S
N1691 H1696 0.984 . S
N1691 H1697 0.985 . S
C1692 C1686 1.379 . S
C1692 C1689 1.363 . S
C1692 N1690 1.356 . S
C1693 C1687 1.363 . S
C1693 C1688 1.379 . S
C1693 N1691 1.356 . S
N1694 C1686 1.356 . S
N1694 H1700 0.984 . S
N1694 H1701 0.984 . S
N1695 C1688 1.356 . S
N1695 H1698 0.984 . S
N1695 H1699 0.985 . S
H1696 N1691 0.984 . S
H1697 N1691 0.985 . S
H1698 N1695 0.984 . S
H1699 N1695 0.985 . S
H1700 N1694 0.984 . S
H1701 N1694 0.984 . S
H1702 N1690 0.984 . S
H1703 N1690 0.985 . S
C1704 C1705 1.363 . S
C1704 C1710 1.379 . S
C1704 N1712 1.356 . S
C1705 C1704 1.363 . S
C1705 C1711 1.363 1_556 S
C1706 C1707 1.363 . S
C1706 C1711 1.379 . S
C1706 N1713 1.356 . S
C1707 C1706 1.363 . S
C1707 C1710 1.363 1_554 S
N1708 C1710 1.356 . S
N1708 H1720 0.984 . S
N1708 H1721 0.985 1_556 S
N1709 C1711 1.356 . S
N1709 H1714 0.984 1_554 S
N1709 H1715 0.985 . S
C1710 C1704 1.379 . S
C1710 C1707 1.363 1_556 S
C1710 N1708 1.356 . S
C1711 C1705 1.363 1_554 S
C1711 C1706 1.379 . S
C1711 N1709 1.356 . S
N1712 C1704 1.356 . S
N1712 H1718 0.984 . S
N1712 H1719 0.984 . S
N1713 C1706 1.356 . S
N1713 H1716 0.984 . S
N1713 H1717 0.985 . S
H1714 N1709 0.984 1_556 S
H1715 N1709 0.985 . S
H1716 N1713 0.984 . S
H1717 N1713 0.985 . S
H1718 N1712 0.984 . S
H1719 N1712 0.984 . S
H1720 N1708 0.984 . S
H1721 N1708 0.985 1_554 S
C1722 C1723 1.363 . S
C1722 C1728 1.379 . S
C1722 N1730 1.356 . S
C1723 C1722 1.363 . S
C1723 C1729 1.363 . S
C1724 C1725 1.363 . S
C1724 C1729 1.379 . S
C1724 N1731 1.356 . S
C1725 C1724 1.363 . S
C1725 C1728 1.363 . S
N1726 C1728 1.356 . S
N1726 H1738 0.984 . S
N1726 H1739 0.985 . S
N1727 C1729 1.356 . S
N1727 H1732 0.984 . S
N1727 H1733 0.985 . S
C1728 C1722 1.379 . S
C1728 C1725 1.363 . S
C1728 N1726 1.356 . S
C1729 C1723 1.363 . S
C1729 C1724 1.379 . S
C1729 N1727 1.356 . S
N1730 C1722 1.356 . S
N1730 H1736 0.984 . S
N1730 H1737 0.984 . S
N1731 C1724 1.356 . S
N1731 H1734 0.984 . S
N1731 H1735 0.985 . S
H1732 N1727 0.984 . S
H1733 N1727 0.985 . S
H1734 N1731 0.984 . S
H1735 N1731 0.985 . S
H1736 N1730 0.984 . S
H1737 N1730 0.984 . S
H1738 N1726 0.984 . S
H1739 N1726 0.985 . S
C1740 C1741 1.363 . S
C1740 C1746 1.379 . S
C1740 N1748 1.356 . S
C1741 C1740 1.363 . S
C1741 C1747 1.363 . S
C1742 C1743 1.363 . S
C1742 C1747 1.379 . S
C1742 N1749 1.356 . S
C1743 C1742 1.363 . S
C1743 C1746 1.363 . S
N1744 C1746 1.356 . S
N1744 H1756 0.984 . S
N1744 H1757 0.985 . S
N1745 C1747 1.356 . S
N1745 H1750 0.984 . S
N1745 H1751 0.985 . S
C1746 C1740 1.379 . S
C1746 C1743 1.363 . S
C1746 N1744 1.356 . S
C1747 C1741 1.363 . S
C1747 C1742 1.379 . S
C1747 N1745 1.356 . S
N1748 C1740 1.356 . S
N1748 H1754 0.984 . S
N1748 H1755 0.984 . S
N1749 C1742 1.356 . S
N1749 H1752 0.984 . S
N1749 H1753 0.985 . S
H1750 N1745 0.984 . S
H1751 N1745 0.985 . S
H1752 N1749 0.984 . S
H1753 N1749 0.985 . S
H1754 N1748 0.984 . S
H1755 N1748 0.984 . S
H1756 N1744 0.984 . S
H1757 N1744 0.985 . S
C1758 C1759 1.363 1_455 S
C1758 C1764 1.379 . S
C1758 N1766 1.356 . S
C1759 C1758 1.363 1_655 S
C1759 C1765 1.363 . S
C1760 C1761 1.363 1_655 S
C1760 C1765 1.379 . S
C1760 N1767 1.358 . S
C1761 C1760 1.363 1_455 S
C1761 C1764 1.363 . S
N1762 C1764 1.356 . S
N1762 H1774 0.984 . S
N1762 H1775 0.985 . S
N1763 C1765 1.356 . S
N1763 H1768 0.984 . S
N1763 H1769 0.985 . S
C1764 C1758 1.379 . S
C1764 C1761 1.363 . S
C1764 N1762 1.356 . S
C1765 C1759 1.363 . S
C1765 C1760 1.379 . S
C1765 N1763 1.356 . S
N1766 C1758 1.356 . S
N1766 H1772 0.984 . S
N1766 H1773 0.984 1_455 S
N1767 C1760 1.358 . S
N1767 H1770 0.972 1_655 S
N1767 H1771 0.995 . S
H1768 N1763 0.984 . S
H1769 N1763 0.985 . S
H1770 N1767 0.972 1_455 S
H1771 N1767 0.995 . S
H1772 N1766 0.984 . S
H1773 N1766 0.984 1_655 S
H1774 N1762 0.984 . S
H1775 N1762 0.985 . S
C1776 C1777 1.363 . S
C1776 C1782 1.379 . S
C1776 N1784 1.356 . S
C1777 C1776 1.363 . S
C1777 C1783 1.363 . S
C1778 C1779 1.363 . S
C1778 C1783 1.379 . S
C1778 N1785 1.356 . S
C1779 C1778 1.363 . S
C1779 C1782 1.363 . S
N1780 C1782 1.356 . S
N1780 H1792 0.984 . S
N1780 H1793 0.985 . S
N1781 C1783 1.356 . S
N1781 H1786 0.984 . S
N1781 H1787 0.985 . S
C1782 C1776 1.379 . S
C1782 C1779 1.363 . S
C1782 N1780 1.356 . S
C1783 C1777 1.363 . S
C1783 C1778 1.379 . S
C1783 N1781 1.356 . S
N1784 C1776 1.356 . S
N1784 H1790 0.984 . S
N1784 H1791 0.984 . S
N1785 C1778 1.356 . S
N1785 H1788 0.984 . S
N1785 H1789 0.985 . S
H1786 N1781 0.984 . S
H1787 N1781 0.985 . S
H1788 N1785 0.984 . S
H1789 N1785 0.985 . S
H1790 N1784 0.984 . S
H1791 N1784 0.984 . S
H1792 N1780 0.984 . S
H1793 N1780 0.985 . S
C1794 C1795 1.363 . S
C1794 C1800 1.379 1_545 S
C1794 N1802 1.356 . S
C1795 C1794 1.363 . S
C1795 C1801 1.375 . S
C1796 C1797 1.363 . S
C1796 C1801 1.362 1_565 S
C1796 N1803 1.356 . S
C1797 C1796 1.363 . S
C1797 C1800 1.363 . S
N1798 C1800 1.356 . S
N1798 H1810 0.984 . S
N1798 H1811 0.985 . S
N1799 C1801 1.366 . S
N1799 H1804 0.984 . S
N1799 H1805 0.985 . S
C1800 C1794 1.379 1_565 S
C1800 C1797 1.363 . S
C1800 N1798 1.356 . S
C1801 C1795 1.375 . S
C1801 C1796 1.362 1_545 S
C1801 N1799 1.366 . S
N1802 C1794 1.356 . S
N1802 H1808 0.984 . S
N1802 H1809 0.984 . S
N1803 C1796 1.356 . S
N1803 H1806 0.984 . S
N1803 H1807 0.985 . S
H1804 N1799 0.984 . S
H1805 N1799 0.985 . S
H1806 N1803 0.984 . S
H1807 N1803 0.985 . S
H1808 N1802 0.984 . S
H1809 N1802 0.984 . S
H1810 N1798 0.984 . S
H1811 N1798 0.985 . S
C1812 C1813 1.363 . S
C1812 C1818 1.379 1_545 S
C1812 N1820 1.356 . S
C1813 C1812 1.363 . S
C1813 C1819 1.363 . S
C1814 C1815 1.363 1_545 S
C1814 C1819 1.379 . S
C1814 N1821 1.356 1_545 S
C1815 C1814 1.363 1_565 S
C1815 C1818 1.363 . S
N1816 C1818 1.356 . S
N1816 H1828 0.984 . S
N1816 H1829 0.985 . S
N1817 C1819 1.356 . S
N1817 H1822 0.984 . S
N1817 H1823 0.985 . S
C1818 C1812 1.379 1_565 S
C1818 C1815 1.363 . S
C1818 N1816 1.356 . S
C1819 C1813 1.363 . S
C1819 C1814 1.379 . S
C1819 N1817 1.356 . S
N1820 C1812 1.356 . S
N1820 H1826 0.984 1_545 S
N1820 H1827 0.984 . S
N1821 C1814 1.356 1_565 S
N1821 H1824 0.984 . S
N1821 H1825 0.985 1_565 S
H1822 N1817 0.984 . S
H1823 N1817 0.985 . S
H1824 N1821 0.984 . S
H1825 N1821 0.985 1_545 S
H1826 N1820 0.984 1_565 S
H1827 N1820 0.984 . S
H1828 N1816 0.984 . S
H1829 N1816 0.985 . S
C1830 C1831 1.363 . S
C1830 C1836 1.379 1_565 S
C1830 N1838 1.356 . S
C1831 C1830 1.363 . S
C1831 C1837 1.363 1_565 S
C1832 C1833 1.363 . S
C1832 C1837 1.379 . S
C1832 N1839 1.356 . S
C1833 C1832 1.363 . S
C1833 C1836 1.363 . S
N1834 C1836 1.356 . S
N1834 H1846 0.984 1_545 S
N1834 H1847 0.985 . S
N1835 C1837 1.353 1_565 S
N1835 H1840 1.000 . S
N1835 H1841 0.973 1_565 S
C1836 C1830 1.379 1_545 S
C1836 C1833 1.363 . S
C1836 N1834 1.356 . S
C1837 C1831 1.363 1_545 S
C1837 C1832 1.379 . S
C1837 N1835 1.353 1_545 S
N1838 C1830 1.356 . S
N1838 H1844 0.984 . S
N1838 H1845 0.984 . S
N1839 C1832 1.356 . S
N1839 H1842 0.984 . S
N1839 H1843 0.985 . S
H1840 N1835 1.000 . S
H1841 N1835 0.973 1_545 S
H1842 N1839 0.984 . S
H1843 N1839 0.985 . S
H1844 N1838 0.984 . S
H1845 N1838 0.984 . S
H1846 N1834 0.984 1_565 S
H1847 N1834 0.985 . S
C1848 C1849 1.363 . S
C1848 C1854 1.379 . S
C1848 N1856 1.356 . S
C1849 C1848 1.363 . S
C1849 C1855 1.363 . S
C1850 C1851 1.363 . S
C1850 C1855 1.379 . S
C1850 N1857 1.356 . S
C1851 C1850 1.363 . S
C1851 C1854 1.363 . S
N1852 C1854 1.356 . S
N1852 H1864 0.984 . S
N1852 H1865 0.985 . S
N1853 C1855 1.356 . S
N1853 H1858 0.984 . S
N1853 H1859 0.985 . S
C1854 C1848 1.379 . S
C1854 C1851 1.363 . S
C1854 N1852 1.356 . S
C1855 C1849 1.363 . S
C1855 C1850 1.379 . S
C1855 N1853 1.356 . S
N1856 C1848 1.356 . S
N1856 H1862 0.984 . S
N1856 H1863 0.984 . S
N1857 C1850 1.356 . S
N1857 H1860 0.984 . S
N1857 H1861 0.985 . S
H1858 N1853 0.984 . S
H1859 N1853 0.985 . S
H1860 N1857 0.984 . S
H1861 N1857 0.985 . S
H1862 N1856 0.984 . S
H1863 N1856 0.984 . S
H1864 N1852 0.984 . S
H1865 N1852 0.985 . S
C1866 C1867 1.363 . S
C1866 C1872 1.379 . S
C1866 N1874 1.356 . S
C1867 C1866 1.363 . S
C1867 C1873 1.363 . S
C1868 C1869 1.363 . S
C1868 C1873 1.379 . S
C1868 N1875 1.356 . S
C1869 C1868 1.363 . S
C1869 C1872 1.363 . S
N1870 C1872 1.356 . S
N1870 H1882 0.984 . S
N1870 H1883 0.985 . S
N1871 C1873 1.356 . S
N1871 H1876 0.984 . S
N1871 H1877 0.985 . S
C1872 C1866 1.379 . S
C1872 C1869 1.363 . S
C1872 N1870 1.356 . S
C1873 C1867 1.363 . S
C1873 C1868 1.379 . S
C1873 N1871 1.356 . S
N1874 C1866 1.356 . S
N1874 H1880 0.984 . S
N1874 H1881 0.984 . S
N1875 C1868 1.356 . S
N1875 H1878 0.984 . S
N1875 H1879 0.985 . S
H1876 N1871 0.984 . S
H1877 N1871 0.985 . S
H1878 N1875 0.984 . S
H1879 N1875 0.985 . S
H1880 N1874 0.984 . S
H1881 N1874 0.984 . S
H1882 N1870 0.984 . S
H1883 N1870 0.985 . S
C1884 C1885 1.363 . S
C1884 C1890 1.379 . S
C1884 N1892 1.356 . S
C1885 C1884 1.363 . S
C1885 C1891 1.363 . S
C1886 C1887 1.363 . S
C1886 C1891 1.379 . S
C1886 N1893 1.356 . S
C1887 C1886 1.363 . S
C1887 C1890 1.363 . S
N1888 C1890 1.356 . S
N1888 H1900 0.984 . S
N1888 H1901 0.985 . S
N1889 C1891 1.356 . S
N1889 H1894 0.984 . S
N1889 H1895 0.985 . S
C1890 C1884 1.379 . S
C1890 C1887 1.363 . S
C1890 N1888 1.356 . S
C1891 C1885 1.363 . S
C1891 C1886 1.379 . S
C1891 N1889 1.356 . S
N1892 C1884 1.356 . S
N1892 H1898 0.984 . S
N1892 H1899 0.984 . S
N1893 C1886 1.356 . S
N1893 H1896 0.984 . S
N1893 H1897 0.985 . S
H1894 N1889 0.984 . S
H1895 N1889 0.985 . S
H1896 N1893 0.984 . S
H1897 N1893 0.985 . S
H1898 N1892 0.984 . S
H1899 N1892 0.984 . S
H1900 N1888 0.984 . S
H1901 N1888 0.985 . S
C1902 C1903 1.363 . S
C1902 C1908 1.379 1_554 S
C1902 N1910 1.356 . S
C1903 C1902 1.363 . S
C1903 C1909 1.363 . S
C1904 C1905 1.363 1_554 S
C1904 C1909 1.379 . S
C1904 N1911 1.356 1_554 S
C1905 C1904 1.363 1_556 S
C1905 C1908 1.363 . S
N1906 C1908 1.356 . S
N1906 H1918 0.984 . S
N1906 H1919 0.985 . S
N1907 C1909 1.356 . S
N1907 H1912 0.984 . S
N1907 H1913 0.985 . S
C1908 C1902 1.379 1_556 S
C1908 C1905 1.363 . S
C1908 N1906 1.356 . S
C1909 C1903 1.363 . S
C1909 C1904 1.379 . S
C1909 N1907 1.356 . S
N1910 C1902 1.356 . S
N1910 H1916 0.984 . S
N1910 H1917 0.984 . S
N1911 C1904 1.356 1_556 S
N1911 H1914 0.984 . S
N1911 H1915 0.985 1_556 S
H1912 N1907 0.984 . S
H1913 N1907 0.985 . S
H1914 N1911 0.984 . S
H1915 N1911 0.985 1_554 S
H1916 N1910 0.984 . S
H1917 N1910 0.984 . S
H1918 N1906 0.984 . S
H1919 N1906 0.985 . S
C1920 C1921 1.363 . S
C1920 C1926 1.379 . S
C1920 N1928 1.356 . S
C1921 C1920 1.363 . S
C1921 C1927 1.363 . S
C1922 C1923 1.363 . S
C1922 C1927 1.379 . S
C1922 N1929 1.356 . S
C1923 C1922 1.363 . S
C1923 C1926 1.363 . S
N1924 C1926 1.356 . S
N1924 H1936 0.984 . S
N1924 H1937 0.985 . S
N1925 C1927 1.356 . S
N1925 H1930 0.984 . S
N1925 H1931 0.985 . S
C1926 C1920 1.379 . S
C1926 C1923 1.363 . S
C1926 N1924 1.356 . S
C1927 C1921 1.363 . S
C1927 C1922 1.379 . S
C1927 N1925 1.356 . S
N1928 C1920 1.356 . S
N1928 H1934 0.984 . S
N1928 H1935 0.984 . S
N1929 C1922 1.356 . S
N1929 H1932 0.984 . S
N1929 H1933 0.985 . S
H1930 N1925 0.984 . S
H1931 N1925 0.985 . S
H1932 N1929 0.984 . S
H1933 N1929 0.985 . S
H1934 N1928 0.984 . S
H1935 N1928 0.984 . S
H1936 N1924 0.984 . S
H1937 N1924 0.985 . S
C1938 C1939 1.363 . S
C1938 C1944 1.379 . S
C1938 N1946 1.356 . S
C1939 C1938 1.363 . S
C1939 C1945 1.363 . S
C1940 C1941 1.363 . S
C1940 C1945 1.379 . S
C1940 N1947 1.356 . S
C1941 C1940 1.363 . S
C1941 C1944 1.363 . S
N1942 C1944 1.356 . S
N1942 H1954 0.984 . S
N1942 H1955 0.985 . S
N1943 C1945 1.356 . S
N1943 H1948 0.984 . S
N1943 H1949 0.985 . S
C1944 C1938 1.379 . S
C1944 C1941 1.363 . S
C1944 N1942 1.356 . S
C1945 C1939 1.363 . S
C1945 C1940 1.379 . S
C1945 N1943 1.356 . S
N1946 C1938 1.356 . S
N1946 H1952 0.984 . S
N1946 H1953 0.984 . S
N1947 C1940 1.356 . S
N1947 H1950 0.984 . S
N1947 H1951 0.985 . S
H1948 N1943 0.984 . S
H1949 N1943 0.985 . S
H1950 N1947 0.984 . S
H1951 N1947 0.985 . S
H1952 N1946 0.984 . S
H1953 N1946 0.984 . S
H1954 N1942 0.984 . S
H1955 N1942 0.985 . S
C1956 C1957 1.363 1_455 S
C1956 C1962 1.379 . S
C1956 N1964 1.356 . S
C1957 C1956 1.363 1_655 S
C1957 C1963 1.363 . S
C1958 C1959 1.363 1_655 S
C1958 C1963 1.379 . S
C1958 N1965 1.356 . S
C1959 C1958 1.363 1_455 S
C1959 C1962 1.363 . S
N1960 C1962 1.356 . S
N1960 H1972 0.984 . S
N1960 H1973 0.985 . S
N1961 C1963 1.356 . S
N1961 H1966 0.984 . S
N1961 H1967 0.985 . S
C1962 C1956 1.379 . S
C1962 C1959 1.363 . S
C1962 N1960 1.356 . S
C1963 C1957 1.363 . S
C1963 C1958 1.379 . S
C1963 N1961 1.356 . S
N1964 C1956 1.356 . S
N1964 H1970 0.984 . S
N1964 H1971 0.984 1_455 S
N1965 C1958 1.356 . S
N1965 H1968 0.984 1_655 S
N1965 H1969 0.985 . S
H1966 N1961 0.984 . S
H1967 N1961 0.985 . S
H1968 N1965 0.984 1_455 S
H1969 N1965 0.985 . S
H1970 N1964 0.984 . S
H1971 N1964 0.984 1_655 S
H1972 N1960 0.984 . S
H1973 N1960 0.985 . S
C1974 C1975 1.363 . S
C1974 C1980 1.379 . S
C1974 N1982 1.356 . S
C1975 C1974 1.363 . S
C1975 C1981 1.363 . S
C1976 C1977 1.363 . S
C1976 C1981 1.379 . S
C1976 N1983 1.356 . S
C1977 C1976 1.363 . S
C1977 C1980 1.363 . S
N1978 C1980 1.356 . S
N1978 H1990 0.984 . S
N1978 H1991 0.985 . S
N1979 C1981 1.356 . S
N1979 H1984 0.984 . S
N1979 H1985 0.985 . S
C1980 C1974 1.379 . S
C1980 C1977 1.363 . S
C1980 N1978 1.356 . S
C1981 C1975 1.363 . S
C1981 C1976 1.379 . S
C1981 N1979 1.356 . S
N1982 C1974 1.356 . S
N1982 H1988 0.984 . S
N1982 H1989 0.984 . S
N1983 C1976 1.356 . S
N1983 H1986 0.984 . S
N1983 H1987 0.985 . S
H1984 N1979 0.984 . S
H1985 N1979 0.985 . S
H1986 N1983 0.984 . S
H1987 N1983 0.985 . S
H1988 N1982 0.984 . S
H1989 N1982 0.984 . S
H1990 N1978 0.984 . S
H1991 N1978 0.985 . S
C1992 C1993 1.346 1_455 S
C1992 C1998 1.395 . S
C1992 N2000 1.352 1_455 S
C1993 C1992 1.346 1_655 S
C1993 C1999 1.363 . S
C1994 C1995 1.363 1_655 S
C1994 C1999 1.379 . S
C1994 N2001 1.356 1_655 S
C1995 C1994 1.363 1_455 S
C1995 C1998 1.363 . S
N1996 C1998 1.356 . S
N1996 H2008 0.984 . S
N1996 H2009 0.985 . S
N1997 C1999 1.356 . S
N1997 H2002 0.984 . S
N1997 H2003 0.985 . S
C1998 C1992 1.395 . S
C1998 C1995 1.363 . S
C1998 N1996 1.356 . S
C1999 C1993 1.363 . S
C1999 C1994 1.379 . S
C1999 N1997 1.356 . S
N2000 C1992 1.352 1_655 S
N2000 H2006 0.984 1_655 S
N2000 H2007 0.984 . S
N2001 C1994 1.356 1_455 S
N2001 H2004 0.984 . S
N2001 H2005 0.985 1_455 S
H2002 N1997 0.984 . S
H2003 N1997 0.985 . S
H2004 N2001 0.984 . S
H2005 N2001 0.985 1_655 S
H2006 N2000 0.984 1_455 S
H2007 N2000 0.984 . S
H2008 N1996 0.984 . S
H2009 N1996 0.985 . S
C2010 C2011 1.363 1_556 S
C2010 C2016 1.379 . S
C2010 N2018 1.356 1_556 S
C2011 C2010 1.363 1_554 S
C2011 C2017 1.363 . S
C2012 C2013 1.363 . S
C2012 C2017 1.379 1_556 S
C2012 N2019 1.356 . S
C2013 C2012 1.363 . S
C2013 C2016 1.363 . S
N2014 C2016 1.356 . S
N2014 H2026 0.984 . S
N2014 H2027 0.985 . S
N2015 C2017 1.356 . S
N2015 H2020 0.984 . S
N2015 H2021 0.985 . S
C2016 C2010 1.379 . S
C2016 C2013 1.363 . S
C2016 N2014 1.356 . S
C2017 C2011 1.363 . S
C2017 C2012 1.379 1_554 S
C2017 N2015 1.356 . S
N2018 C2010 1.356 1_554 S
N2018 H2024 0.984 1_554 S
N2018 H2025 0.984 . S
N2019 C2012 1.356 . S
N2019 H2022 0.984 . S
N2019 H2023 0.985 . S
H2020 N2015 0.984 . S
H2021 N2015 0.985 . S
H2022 N2019 0.984 . S
H2023 N2019 0.985 . S
H2024 N2018 0.984 1_556 S
H2025 N2018 0.984 . S
H2026 N2014 0.984 . S
H2027 N2014 0.985 . S
C2028 C2029 1.363 . S
C2028 C2034 1.379 . S
C2028 N2036 1.356 . S
C2029 C2028 1.363 . S
C2029 C2035 1.363 . S
C2030 C2031 1.363 . S
C2030 C2035 1.379 . S
C2030 N2037 1.356 . S
C2031 C2030 1.363 . S
C2031 C2034 1.363 . S
N2032 C2034 1.356 . S
N2032 H2044 0.984 . S
N2032 H2045 0.985 . S
N2033 C2035 1.356 . S
N2033 H2038 0.984 . S
N2033 H2039 0.985 . S
C2034 C2028 1.379 . S
C2034 C2031 1.363 . S
C2034 N2032 1.356 . S
C2035 C2029 1.363 . S
C2035 C2030 1.379 . S
C2035 N2033 1.356 . S
N2036 C2028 1.356 . S
N2036 H2042 0.984 . S
N2036 H2043 0.984 . S
N2037 C2030 1.356 . S
N2037 H2040 0.984 . S
N2037 H2041 0.985 . S
H2038 N2033 0.984 . S
H2039 N2033 0.985 . S
H2040 N2037 0.984 . S
H2041 N2037 0.985 . S
H2042 N2036 0.984 . S
H2043 N2036 0.984 . S
H2044 N2032 0.984 . S
H2045 N2032 0.985 . S
C2046 C2047 1.363 . S
C2046 C2052 1.379 1_565 S
C2046 N2054 1.356 . S
C2047 C2046 1.363 . S
C2047 C2053 1.363 1_565 S
C2048 C2049 1.363 . S
C2048 C2053 1.379 . S
C2048 N2055 1.356 . S
C2049 C2048 1.363 . S
C2049 C2052 1.363 . S
N2050 C2052 1.356 . S
N2050 H2062 0.984 . S
N2050 H2063 0.985 . S
N2051 C2053 1.356 1_565 S
N2051 H2056 0.984 . S
N2051 H2057 0.985 1_565 S
C2052 C2046 1.379 1_545 S
C2052 C2049 1.363 . S
C2052 N2050 1.356 . S
C2053 C2047 1.363 1_545 S
C2053 C2048 1.379 . S
C2053 N2051 1.356 1_545 S
N2054 C2046 1.356 . S
N2054 H2060 0.984 . S
N2054 H2061 0.984 . S
N2055 C2048 1.356 . S
N2055 H2058 0.984 . S
N2055 H2059 0.985 . S
H2056 N2051 0.984 . S
H2057 N2051 0.985 1_545 S
H2058 N2055 0.984 . S
H2059 N2055 0.985 . S
H2060 N2054 0.984 . S
H2061 N2054 0.984 . S
H2062 N2050 0.984 . S
H2063 N2050 0.985 . S
C2064 C2065 1.363 . S
C2064 C2070 1.379 . S
C2064 N2072 1.356 . S
C2065 C2064 1.363 . S
C2065 C2071 1.363 . S
C2066 C2067 1.363 . S
C2066 C2071 1.379 . S
C2066 N2073 1.356 . S
C2067 C2066 1.363 . S
C2067 C2070 1.363 . S
N2068 C2070 1.356 . S
N2068 H2080 0.984 . S
N2068 H2081 0.985 . S
N2069 C2071 1.356 . S
N2069 H2074 0.984 . S
N2069 H2075 0.985 . S
C2070 C2064 1.379 . S
C2070 C2067 1.363 . S
C2070 N2068 1.356 . S
C2071 C2065 1.363 . S
C2071 C2066 1.379 . S
C2071 N2069 1.356 . S
N2072 C2064 1.356 . S
N2072 H2078 0.984 . S
N2072 H2079 0.984 . S
N2073 C2066 1.356 . S
N2073 H2076 0.984 . S
N2073 H2077 0.985 . S
H2074 N2069 0.984 . S
H2075 N2069 0.985 . S
H2076 N2073 0.984 . S
H2077 N2073 0.985 . S
H2078 N2072 0.984 . S
H2079 N2072 0.984 . S
H2080 N2068 0.984 . S
H2081 N2068 0.985 . S
C2082 C2083 1.363 . S
C2082 C2088 1.379 . S
C2082 N2090 1.356 . S
C2083 C2082 1.363 . S
C2083 C2089 1.363 . S
C2084 C2085 1.363 . S
C2084 C2089 1.379 . S
C2084 N2091 1.356 . S
C2085 C2084 1.363 . S
C2085 C2088 1.363 . S
N2086 C2088 1.356 . S
N2086 H2098 0.984 . S
N2086 H2099 0.985 . S
N2087 C2089 1.356 . S
N2087 H2092 0.984 . S
N2087 H2093 0.985 . S
C2088 C2082 1.379 . S
C2088 C2085 1.363 . S
C2088 N2086 1.356 . S
C2089 C2083 1.363 . S
C2089 C2084 1.379 . S
C2089 N2087 1.356 . S
N2090 C2082 1.356 . S
N2090 H2096 0.984 . S
N2090 H2097 0.984 . S
N2091 C2084 1.356 . S
N2091 H2094 0.984 . S
N2091 H2095 0.985 . S
H2092 N2087 0.984 . S
H2093 N2087 0.985 . S
H2094 N2091 0.984 . S
H2095 N2091 0.985 . S
H2096 N2090 0.984 . S
H2097 N2090 0.984 . S
H2098 N2086 0.984 . S
H2099 N2086 0.985 . S
C2100 C2101 1.363 . S
C2100 C2106 1.379 . S
C2100 N2108 1.356 . S
C2101 C2100 1.363 . S
C2101 C2107 1.363 . S
C2102 C2103 1.363 . S
C2102 C2107 1.379 . S
C2102 N2109 1.356 . S
C2103 C2102 1.363 . S
C2103 C2106 1.363 . S
N2104 C2106 1.356 . S
N2104 H2116 0.984 . S
N2104 H2117 0.985 . S
N2105 C2107 1.356 . S
N2105 H2110 0.984 . S
N2105 H2111 0.985 . S
C2106 C2100 1.379 . S
C2106 C2103 1.363 . S
C2106 N2104 1.356 . S
C2107 C2101 1.363 . S
C2107 C2102 1.379 . S
C2107 N2105 1.356 . S
N2108 C2100 1.356 . S
N2108 H2114 0.984 . S
N2108 H2115 0.984 . S
N2109 C2102 1.356 . S
N2109 H2112 0.984 . S
N2109 H2113 0.985 . S
H2110 N2105 0.984 . S
H2111 N2105 0.985 . S
H2112 N2109 0.984 . S
H2113 N2109 0.985 . S
H2114 N2108 0.984 . S
H2115 N2108 0.984 . S
H2116 N2104 0.984 . S
H2117 N2104 0.985 . S
C2118 C2119 1.363 . S
C2118 C2124 1.379 1_556 S
C2118 N2126 1.356 . S
C2119 C2118 1.363 . S
C2119 C2125 1.363 . S
C2120 C2121 1.363 . S
C2120 C2125 1.379 1_554 S
C2120 N2127 1.356 . S
C2121 C2120 1.363 . S
C2121 C2124 1.363 . S
N2122 C2124 1.356 . S
N2122 H2134 0.984 . S
N2122 H2135 0.985 . S
N2123 C2125 1.356 . S
N2123 H2128 0.984 . S
N2123 H2129 0.985 . S
C2124 C2118 1.379 1_554 S
C2124 C2121 1.363 . S
C2124 N2122 1.356 . S
C2125 C2119 1.363 . S
C2125 C2120 1.379 1_556 S
C2125 N2123 1.356 . S
N2126 C2118 1.356 . S
N2126 H2132 0.976 1_556 S
N2126 H2133 0.984 . S
N2127 C2120 1.356 . S
N2127 H2130 0.984 . S
N2127 H2131 0.985 . S
H2128 N2123 0.984 . S
H2129 N2123 0.985 . S
H2130 N2127 0.984 . S
H2131 N2127 0.985 . S
H2132 N2126 0.976 1_554 S
H2133 N2126 0.984 . S
H2134 N2122 0.984 . S
H2135 N2122 0.985 . S
C2136 C2137 1.363 . S
C2136 C2142 1.379 . S
C2136 N2144 1.356 . S
C2137 C2136 1.363 . S
C2137 C2143 1.363 . S
C2138 C2139 1.363 . S
C2138 C2143 1.379 . S
C2138 N2145 1.356 . S
C2139 C2138 1.363 . S
C2139 C2142 1.363 . S
N2140 C2142 1.356 . S
N2140 H2152 0.984 . S
N2140 H2153 0.985 . S
N2141 C2143 1.356 . S
N2141 H2146 0.984 . S
N2141 H2147 0.985 . S
C2142 C2136 1.379 . S
C2142 C2139 1.363 . S
C2142 N2140 1.356 . S
C2143 C2137 1.363 . S
C2143 C2138 1.379 . S
C2143 N2141 1.356 . S
N2144 C2136 1.356 . S
N2144 H2150 0.984 . S
N2144 H2151 0.984 . S
N2145 C2138 1.356 . S
N2145 H2148 0.984 . S
N2145 H2149 0.985 . S
H2146 N2141 0.984 . S
H2147 N2141 0.985 . S
H2148 N2145 0.984 . S
H2149 N2145 0.985 . S
H2150 N2144 0.984 . S
H2151 N2144 0.984 . S
H2152 N2140 0.984 . S
H2153 N2140 0.985 . S
C2154 C2155 1.363 . S
C2154 C2160 1.379 . S
C2154 N2162 1.356 . S
C2155 C2154 1.363 . S
C2155 C2161 1.363 1_565 S
C2156 C2157 1.363 . S
C2156 C2161 1.379 . S
C2156 N2163 1.356 . S
C2157 C2156 1.363 . S
C2157 C2160 1.363 1_545 S
N2158 C2160 1.356 . S
N2158 H2170 0.984 . S
N2158 H2171 0.985 1_565 S
N2159 C2161 1.356 . S
N2159 H2164 0.973 1_545 S
N2159 H2165 0.985 . S
C2160 C2154 1.379 . S
C2160 C2157 1.363 1_565 S
C2160 N2158 1.356 . S
C2161 C2155 1.363 1_545 S
C2161 C2156 1.379 . S
C2161 N2159 1.356 . S
N2162 C2154 1.356 . S
N2162 H2168 0.984 . S
N2162 H2169 0.984 . S
N2163 C2156 1.356 . S
N2163 H2166 0.984 . S
N2163 H2167 0.985 . S
H2164 N2159 0.973 1_565 S
H2165 N2159 0.985 . S
H2166 N2163 0.984 . S
H2167 N2163 0.985 . S
H2168 N2162 0.984 . S
H2169 N2162 0.984 . S
H2170 N2158 0.984 . S
H2171 N2158 0.985 1_545 S
C2172 C2173 1.363 . S
C2172 C2178 1.379 1_556 S
C2172 N2180 1.356 . S
C2173 C2172 1.363 . S
C2173 C2179 1.363 . S
C2174 C2175 1.363 . S
C2174 C2179 1.379 1_554 S
C2174 N2181 1.356 . S
C2175 C2174 1.363 . S
C2175 C2178 1.363 . S
N2176 C2178 1.356 . S
N2176 H2188 0.984 . S
N2176 H2189 0.985 . S
N2177 C2179 1.356 . S
N2177 H2182 0.984 . S
N2177 H2183 0.985 . S
C2178 C2172 1.379 1_554 S
C2178 C2175 1.363 . S
C2178 N2176 1.356 . S
C2179 C2173 1.363 . S
C2179 C2174 1.379 1_556 S
C2179 N2177 1.356 . S
N2180 C2172 1.356 . S
N2180 H2186 0.984 . S
N2180 H2187 0.984 . S
N2181 C2174 1.356 . S
N2181 H2184 0.984 . S
N2181 H2185 0.985 . S
H2182 N2177 0.984 . S
H2183 N2177 0.985 . S
H2184 N2181 0.984 . S
H2185 N2181 0.985 . S
H2186 N2180 0.984 . S
H2187 N2180 0.984 . S
H2188 N2176 0.984 . S
H2189 N2176 0.985 . S
C2190 C2191 1.363 . S
C2190 C2196 1.379 . S
C2190 N2198 1.356 . S
C2191 C2190 1.363 . S
C2191 C2197 1.363 . S
C2192 C2193 1.363 . S
C2192 C2197 1.379 1_565 S
C2192 N2199 1.356 . S
C2193 C2192 1.363 . S
C2193 C2196 1.363 1_565 S
N2194 C2196 1.356 . S
N2194 H2206 0.984 . S
N2194 H2207 0.985 1_545 S
N2195 C2197 1.356 . S
N2195 H2200 0.984 . S
N2195 H2201 0.984 1_545 S
C2196 C2190 1.379 . S
C2196 C2193 1.363 1_545 S
C2196 N2194 1.356 . S
C2197 C2191 1.363 . S
C2197 C2192 1.379 1_545 S
C2197 N2195 1.356 . S
N2198 C2190 1.356 . S
N2198 H2204 0.984 . S
N2198 H2205 0.984 . S
N2199 C2192 1.356 . S
N2199 H2202 0.984 . S
N2199 H2203 0.985 . S
H2200 N2195 0.984 . S
H2201 N2195 0.984 1_565 S
H2202 N2199 0.984 . S
H2203 N2199 0.985 . S
H2204 N2198 0.984 . S
H2205 N2198 0.984 . S
H2206 N2194 0.984 . S
H2207 N2194 0.985 1_565 S
C2208 C2209 1.363 . S
C2208 C2214 1.379 . S
C2208 N2216 1.356 . S
C2209 C2208 1.363 . S
C2209 C2215 1.363 . S
C2210 C2211 1.363 . S
C2210 C2215 1.379 . S
C2210 N2217 1.356 . S
C2211 C2210 1.363 . S
C2211 C2214 1.363 . S
N2212 C2214 1.356 . S
N2212 H2224 0.984 . S
N2212 H2225 0.985 . S
N2213 C2215 1.356 . S
N2213 H2218 0.984 . S
N2213 H2219 0.985 . S
C2214 C2208 1.379 . S
C2214 C2211 1.363 . S
C2214 N2212 1.356 . S
C2215 C2209 1.363 . S
C2215 C2210 1.379 . S
C2215 N2213 1.356 . S
N2216 C2208 1.356 . S
N2216 H2222 0.984 . S
N2216 H2223 0.984 . S
N2217 C2210 1.356 . S
N2217 H2220 0.984 . S
N2217 H2221 0.985 . S
H2218 N2213 0.984 . S
H2219 N2213 0.985 . S
H2220 N2217 0.984 . S
H2221 N2217 0.985 . S
H2222 N2216 0.984 . S
H2223 N2216 0.984 . S
H2224 N2212 0.984 . S
H2225 N2212 0.985 . S
C2226 C2227 1.383 . S
C2226 C2232 1.359 1_655 S
C2226 N2234 1.364 . S
C2227 C2226 1.383 . S
C2227 C2233 1.363 . S
C2228 C2229 1.363 . S
C2228 C2233 1.379 1_455 S
C2228 N2235 1.356 . S
C2229 C2228 1.363 . S
C2229 C2232 1.363 . S
N2230 C2232 1.356 . S
N2230 H2242 0.984 . S
N2230 H2243 0.985 . S
N2231 C2233 1.356 . S
N2231 H2236 0.984 . S
N2231 H2237 0.985 . S
C2232 C2226 1.359 1_455 S
C2232 C2229 1.363 . S
C2232 N2230 1.356 . S
C2233 C2227 1.363 . S
C2233 C2228 1.379 1_655 S
C2233 N2231 1.356 . S
N2234 C2226 1.364 . S
N2234 H2240 0.984 1_655 S
N2234 H2241 0.984 . S
N2235 C2228 1.356 . S
N2235 H2238 0.984 . S
N2235 H2239 0.985 . S
H2236 N2231 0.984 . S
H2237 N2231 0.985 . S
H2238 N2235 0.984 . S
H2239 N2235 0.985 . S
H2240 N2234 0.984 1_455 S
H2241 N2234 0.984 . S
H2242 N2230 0.984 . S
H2243 N2230 0.985 . S
C2244 C2245 1.363 . S
C2244 C2250 1.379 1_655 S
C2244 N2252 1.356 . S
C2245 C2244 1.363 . S
C2245 C2251 1.363 . S
C2246 C2247 1.363 . S
C2246 C2251 1.379 1_455 S
C2246 N2253 1.356 . S
C2247 C2246 1.363 . S
C2247 C2250 1.363 . S
N2248 C2250 1.356 . S
N2248 H2260 0.984 . S
N2248 H2261 0.985 . S
N2249 C2251 1.356 . S
N2249 H2254 0.984 . S
N2249 H2255 0.985 . S
C2250 C2244 1.379 1_455 S
C2250 C2247 1.363 . S
C2250 N2248 1.356 . S
C2251 C2245 1.363 . S
C2251 C2246 1.379 1_655 S
C2251 N2249 1.356 . S
N2252 C2244 1.356 . S
N2252 H2258 0.984 . S
N2252 H2259 0.984 . S
N2253 C2246 1.356 . S
N2253 H2256 0.984 . S
N2253 H2257 0.985 . S
H2254 N2249 0.984 . S
H2255 N2249 0.985 . S
H2256 N2253 0.984 . S
H2257 N2253 0.985 . S
H2258 N2252 0.984 . S
H2259 N2252 0.984 . S
H2260 N2248 0.984 . S
H2261 N2248 0.985 . S
C2262 C2263 1.363 . S
C2262 C2268 1.379 . S
C2262 N2270 1.356 . S
C2263 C2262 1.363 . S
C2263 C2269 1.363 . S
C2264 C2265 1.363 . S
C2264 C2269 1.379 . S
C2264 N2271 1.356 . S
C2265 C2264 1.363 . S
C2265 C2268 1.363 . S
N2266 C2268 1.356 . S
N2266 H2278 0.984 . S
N2266 H2279 0.985 . S
N2267 C2269 1.356 . S
N2267 H2272 0.984 . S
N2267 H2273 0.985 . S
C2268 C2262 1.379 . S
C2268 C2265 1.363 . S
C2268 N2266 1.356 . S
C2269 C2263 1.363 . S
C2269 C2264 1.379 . S
C2269 N2267 1.356 . S
N2270 C2262 1.356 . S
N2270 H2276 0.984 . S
N2270 H2277 0.984 . S
N2271 C2264 1.356 . S
N2271 H2274 0.984 . S
N2271 H2275 0.985 . S
H2272 N2267 0.984 . S
H2273 N2267 0.985 . S
H2274 N2271 0.984 . S
H2275 N2271 0.985 . S
H2276 N2270 0.984 . S
H2277 N2270 0.984 . S
H2278 N2266 0.984 . S
H2279 N2266 0.985 . S
C2280 C2281 1.363 . S
C2280 C2286 1.379 1_655 S
C2280 N2288 1.356 . S
C2281 C2280 1.363 . S
C2281 C2287 1.363 1_655 S
C2282 C2283 1.363 . S
C2282 C2287 1.379 . S
C2282 N2289 1.356 . S
C2283 C2282 1.363 . S
C2283 C2286 1.363 . S
N2284 C2286 1.356 . S
N2284 H2296 0.984 . S
N2284 H2297 0.985 . S
N2285 C2287 1.356 . S
N2285 H2290 0.984 1_455 S
N2285 H2291 0.985 . S
C2286 C2280 1.379 1_455 S
C2286 C2283 1.363 . S
C2286 N2284 1.356 . S
C2287 C2281 1.363 1_455 S
C2287 C2282 1.379 . S
C2287 N2285 1.356 . S
N2288 C2280 1.356 . S
N2288 H2294 0.984 . S
N2288 H2295 0.984 . S
N2289 C2282 1.356 . S
N2289 H2292 0.984 . S
N2289 H2293 0.985 . S
H2290 N2285 0.984 1_655 S
H2291 N2285 0.985 . S
H2292 N2289 0.984 . S
H2293 N2289 0.985 . S
H2294 N2288 0.984 . S
H2295 N2288 0.984 . S
H2296 N2284 0.984 . S
H2297 N2284 0.985 . S
C2298 C2299 1.363 . S
C2298 C2304 1.379 1_455 S
C2298 N2306 1.356 . S
C2299 C2298 1.363 . S
C2299 C2305 1.364 1_455 S
C2300 C2301 1.363 . S
C2300 C2305 1.378 . S
C2300 N2307 1.356 . S
C2301 C2300 1.363 . S
C2301 C2304 1.363 . S
N2302 C2304 1.356 . S
N2302 H2314 0.984 1_655 S
N2302 H2315 0.985 . S
N2303 C2305 1.357 1_455 S
N2303 H2308 0.984 . S
N2303 H2309 0.985 1_455 S
C2304 C2298 1.379 1_655 S
C2304 C2301 1.363 . S
C2304 N2302 1.356 . S
C2305 C2299 1.364 1_655 S
C2305 C2300 1.378 . S
C2305 N2303 1.357 1_655 S
N2306 C2298 1.356 . S
N2306 H2312 0.984 . S
N2306 H2313 0.984 . S
N2307 C2300 1.356 . S
N2307 H2310 0.984 . S
N2307 H2311 0.985 . S
H2308 N2303 0.984 . S
H2309 N2303 0.985 1_655 S
H2310 N2307 0.984 . S
H2311 N2307 0.985 . S
H2312 N2306 0.984 . S
H2313 N2306 0.984 . S
H2314 N2302 0.984 1_455 S
H2315 N2302 0.985 . S
C2316 C2317 1.363 . S
C2316 C2322 1.379 . S
C2316 N2324 1.356 . S
C2317 C2316 1.363 . S
C2317 C2323 1.363 . S
C2318 C2319 1.363 . S
C2318 C2323 1.379 . S
C2318 N2325 1.356 . S
C2319 C2318 1.363 . S
C2319 C2322 1.363 . S
N2320 C2322 1.356 . S
N2320 H2332 0.984 . S
N2320 H2333 0.985 . S
N2321 C2323 1.356 . S
N2321 H2326 0.984 . S
N2321 H2327 0.985 . S
C2322 C2316 1.379 . S
C2322 C2319 1.363 . S
C2322 N2320 1.356 . S
C2323 C2317 1.363 . S
C2323 C2318 1.379 . S
C2323 N2321 1.356 . S
N2324 C2316 1.356 . S
N2324 H2330 0.984 . S
N2324 H2331 0.984 . S
N2325 C2318 1.356 . S
N2325 H2328 0.984 . S
N2325 H2329 0.985 . S
H2326 N2321 0.984 . S
H2327 N2321 0.985 . S
H2328 N2325 0.984 . S
H2329 N2325 0.985 . S
H2330 N2324 0.984 . S
H2331 N2324 0.984 . S
H2332 N2320 0.984 . S
H2333 N2320 0.985 . S
C2334 C2335 1.363 . S
C2334 C2340 1.379 1_545 S
C2334 N2342 1.356 . S
C2335 C2334 1.363 . S
C2335 C2341 1.363 1_545 S
C2336 C2337 1.363 . S
C2336 C2341 1.379 . S
C2336 N2343 1.356 . S
C2337 C2336 1.363 . S
C2337 C2340 1.363 . S
N2338 C2340 1.356 . S
N2338 H2350 0.984 1_565 S
N2338 H2351 0.985 . S
N2339 C2341 1.356 1_545 S
N2339 H2344 0.984 . S
N2339 H2345 0.985 1_545 S
C2340 C2334 1.379 1_565 S
C2340 C2337 1.363 . S
C2340 N2338 1.356 . S
C2341 C2335 1.363 1_565 S
C2341 C2336 1.379 . S
C2341 N2339 1.356 1_565 S
N2342 C2334 1.356 . S
N2342 H2348 0.984 . S
N2342 H2349 0.984 . S
N2343 C2336 1.356 . S
N2343 H2346 0.984 . S
N2343 H2347 0.985 . S
H2344 N2339 0.984 . S
H2345 N2339 0.985 1_565 S
H2346 N2343 0.984 . S
H2347 N2343 0.985 . S
H2348 N2342 0.984 . S
H2349 N2342 0.984 . S
H2350 N2338 0.984 1_545 S
H2351 N2338 0.985 . S
C2352 C2353 1.363 . S
C2352 C2358 1.379 1_554 S
C2352 N2360 1.356 . S
C2353 C2352 1.363 . S
C2353 C2359 1.363 . S
C2354 C2355 1.363 1_554 S
C2354 C2359 1.379 . S
C2354 N2361 1.356 . S
C2355 C2354 1.363 1_556 S
C2355 C2358 1.363 . S
N2356 C2358 1.356 . S
N2356 H2368 0.984 . S
N2356 H2369 0.985 . S
N2357 C2359 1.356 . S
N2357 H2362 0.984 . S
N2357 H2363 0.985 . S
C2358 C2352 1.379 1_556 S
C2358 C2355 1.363 . S
C2358 N2356 1.356 . S
C2359 C2353 1.363 . S
C2359 C2354 1.379 . S
C2359 N2357 1.356 . S
N2360 C2352 1.356 . S
N2360 H2366 0.984 1_554 S
N2360 H2367 0.984 . S
N2361 C2354 1.356 . S
N2361 H2364 0.984 1_554 S
N2361 H2365 0.985 . S
H2362 N2357 0.984 . S
H2363 N2357 0.985 . S
H2364 N2361 0.984 1_556 S
H2365 N2361 0.985 . S
H2366 N2360 0.984 1_556 S
H2367 N2360 0.984 . S
H2368 N2356 0.984 . S
H2369 N2356 0.985 . S
C2370 C2371 1.363 . S
C2370 C2376 1.379 . S
C2370 N2378 1.356 . S
C2371 C2370 1.363 . S
C2371 C2377 1.363 . S
C2372 C2373 1.363 . S
C2372 C2377 1.379 1_545 S
C2372 N2379 1.356 . S
C2373 C2372 1.363 . S
C2373 C2376 1.363 1_545 S
N2374 C2376 1.356 . S
N2374 H2386 0.984 . S
N2374 H2387 0.985 1_565 S
N2375 C2377 1.356 . S
N2375 H2380 0.984 . S
N2375 H2381 0.985 1_565 S
C2376 C2370 1.379 . S
C2376 C2373 1.363 1_565 S
C2376 N2374 1.356 . S
C2377 C2371 1.363 . S
C2377 C2372 1.379 1_565 S
C2377 N2375 1.356 . S
N2378 C2370 1.356 . S
N2378 H2384 0.984 . S
N2378 H2385 0.984 . S
N2379 C2372 1.356 . S
N2379 H2382 0.984 . S
N2379 H2383 0.985 . S
H2380 N2375 0.984 . S
H2381 N2375 0.985 1_545 S
H2382 N2379 0.984 . S
H2383 N2379 0.985 . S
H2384 N2378 0.984 . S
H2385 N2378 0.984 . S
H2386 N2374 0.984 . S
H2387 N2374 0.985 1_545 S
C2388 C2389 1.363 . S
C2388 C2394 1.379 . S
C2388 N2396 1.356 . S
C2389 C2388 1.363 . S
C2389 C2395 1.363 . S
C2390 C2391 1.363 . S
C2390 C2395 1.379 . S
C2390 N2397 1.356 . S
C2391 C2390 1.363 . S
C2391 C2394 1.363 . S
N2392 C2394 1.356 . S
N2392 H2404 0.984 . S
N2392 H2405 0.985 . S
N2393 C2395 1.356 . S
N2393 H2398 0.984 . S
N2393 H2399 0.985 . S
C2394 C2388 1.379 . S
C2394 C2391 1.363 . S
C2394 N2392 1.356 . S
C2395 C2389 1.363 . S
C2395 C2390 1.379 . S
C2395 N2393 1.356 . S
N2396 C2388 1.356 . S
N2396 H2402 0.984 . S
N2396 H2403 0.984 . S
N2397 C2390 1.356 . S
N2397 H2400 0.984 . S
N2397 H2401 0.985 . S
H2398 N2393 0.984 . S
H2399 N2393 0.985 . S
H2400 N2397 0.984 . S
H2401 N2397 0.985 . S
H2402 N2396 0.984 . S
H2403 N2396 0.984 . S
H2404 N2392 0.984 . S
H2405 N2392 0.985 . S
C2406 C2407 1.363 1_556 S
C2406 C2412 1.379 . S
C2406 N2414 1.356 1_556 S
C2407 C2406 1.363 1_554 S
C2407 C2413 1.363 . S
C2408 C2409 1.363 . S
C2408 C2413 1.379 1_556 S
C2408 N2415 1.356 . S
C2409 C2408 1.363 . S
C2409 C2412 1.363 . S
N2410 C2412 1.356 . S
N2410 H2422 0.984 . S
N2410 H2423 0.985 . S
N2411 C2413 1.356 . S
N2411 H2416 0.984 . S
N2411 H2417 0.985 . S
C2412 C2406 1.379 . S
C2412 C2409 1.363 . S
C2412 N2410 1.356 . S
C2413 C2407 1.363 . S
C2413 C2408 1.379 1_554 S
C2413 N2411 1.356 . S
N2414 C2406 1.356 1_554 S
N2414 H2420 0.984 1_554 S
N2414 H2421 0.984 . S
N2415 C2408 1.356 . S
N2415 H2418 0.984 . S
N2415 H2419 0.985 1_556 S
H2416 N2411 0.984 . S
H2417 N2411 0.985 . S
H2418 N2415 0.984 . S
H2419 N2415 0.985 1_554 S
H2420 N2414 0.984 1_556 S
H2421 N2414 0.984 . S
H2422 N2410 0.984 . S
H2423 N2410 0.985 . S
C2424 C2425 1.363 . S
C2424 C2430 1.379 . S
C2424 N2432 1.356 . S
C2425 C2424 1.363 . S
C2425 C2431 1.363 . S
C2426 C2427 1.363 . S
C2426 C2431 1.379 . S
C2426 N2433 1.356 . S
C2427 C2426 1.363 . S
C2427 C2430 1.363 . S
N2428 C2430 1.356 . S
N2428 H2440 0.984 . S
N2428 H2441 0.985 . S
N2429 C2431 1.356 . S
N2429 H2434 0.984 . S
N2429 H2435 0.985 . S
C2430 C2424 1.379 . S
C2430 C2427 1.363 . S
C2430 N2428 1.356 . S
C2431 C2425 1.363 . S
C2431 C2426 1.379 . S
C2431 N2429 1.356 . S
N2432 C2424 1.356 . S
N2432 H2438 0.984 . S
N2432 H2439 0.984 . S
N2433 C2426 1.356 . S
N2433 H2436 0.984 . S
N2433 H2437 0.985 . S
H2434 N2429 0.984 . S
H2435 N2429 0.985 . S
H2436 N2433 0.984 . S
H2437 N2433 0.985 . S
H2438 N2432 0.984 . S
H2439 N2432 0.984 . S
H2440 N2428 0.984 . S
H2441 N2428 0.985 . S
C2442 C2443 1.363 . S
C2442 C2448 1.379 . S
C2442 N2450 1.356 . S
C2443 C2442 1.363 . S
C2443 C2449 1.363 . S
C2444 C2445 1.363 . S
C2444 C2449 1.379 . S
C2444 N2451 1.356 . S
C2445 C2444 1.363 . S
C2445 C2448 1.363 . S
N2446 C2448 1.356 . S
N2446 H2458 0.984 . S
N2446 H2459 0.985 . S
N2447 C2449 1.356 . S
N2447 H2452 0.984 . S
N2447 H2453 0.985 . S
C2448 C2442 1.379 . S
C2448 C2445 1.363 . S
C2448 N2446 1.356 . S
C2449 C2443 1.363 . S
C2449 C2444 1.379 . S
C2449 N2447 1.356 . S
N2450 C2442 1.356 . S
N2450 H2456 0.984 . S
N2450 H2457 0.984 . S
N2451 C2444 1.356 . S
N2451 H2454 0.984 . S
N2451 H2455 0.985 . S
H2452 N2447 0.984 . S
H2453 N2447 0.985 . S
H2454 N2451 0.984 . S
H2455 N2451 0.985 . S
H2456 N2450 0.984 . S
H2457 N2450 0.984 . S
H2458 N2446 0.984 . S
H2459 N2446 0.985 . S
C2460 C2461 1.363 . S
C2460 C2466 1.379 . S
C2460 N2468 1.356 . S
C2461 C2460 1.363 . S
C2461 C2467 1.363 . S
C2462 C2463 1.363 . S
C2462 C2467 1.379 . S
C2462 N2469 1.356 . S
C2463 C2462 1.363 . S
C2463 C2466 1.363 . S
N2464 C2466 1.356 . S
N2464 H2476 0.984 . S
N2464 H2477 0.985 . S
N2465 C2467 1.356 . S
N2465 H2470 0.984 . S
N2465 H2471 0.985 . S
C2466 C2460 1.379 . S
C2466 C2463 1.363 . S
C2466 N2464 1.356 . S
C2467 C2461 1.363 . S
C2467 C2462 1.379 . S
C2467 N2465 1.356 . S
N2468 C2460 1.356 . S
N2468 H2474 0.984 . S
N2468 H2475 0.984 . S
N2469 C2462 1.356 . S
N2469 H2472 0.984 . S
N2469 H2473 0.985 . S
H2470 N2465 0.984 . S
H2471 N2465 0.985 . S
H2472 N2469 0.984 . S
H2473 N2469 0.985 . S
H2474 N2468 0.984 . S
H2475 N2468 0.984 . S
H2476 N2464 0.984 . S
H2477 N2464 0.985 . S
C2478 C2479 1.363 . S
C2478 C2484 1.379 . S
C2478 N2486 1.356 . S
C2479 C2478 1.363 . S
C2479 C2485 1.363 . S
C2480 C2481 1.363 . S
C2480 C2485 1.379 . S
C2480 N2487 1.356 . S
C2481 C2480 1.363 . S
C2481 C2484 1.363 . S
N2482 C2484 1.356 . S
N2482 H2494 0.984 . S
N2482 H2495 0.985 . S
N2483 C2485 1.356 . S
N2483 H2488 0.984 . S
N2483 H2489 0.985 . S
C2484 C2478 1.379 . S
C2484 C2481 1.363 . S
C2484 N2482 1.356 . S
C2485 C2479 1.363 . S
C2485 C2480 1.379 . S
C2485 N2483 1.356 . S
N2486 C2478 1.356 . S
N2486 H2492 0.984 . S
N2486 H2493 0.984 . S
N2487 C2480 1.356 . S
N2487 H2490 0.984 . S
N2487 H2491 0.985 . S
H2488 N2483 0.984 . S
H2489 N2483 0.985 . S
H2490 N2487 0.984 . S
H2491 N2487 0.985 . S
H2492 N2486 0.984 . S
H2493 N2486 0.984 . S
H2494 N2482 0.984 . S
H2495 N2482 0.985 . S
C769 C21 1.163 . S
C771 C274 1.173 . S
C787 C49 1.589 . S
C789 C310 1.859 1_655 S
C805 C342 1.407 . S
C807 C85 1.351 . S
C823 C370 1.176 1_545 S
C825 C117 1.161 . S
C841 C149 1.177 . S
C843 C374 1.234 . S
C859 C181 1.315 . S
C861 C278 1.350 . S
C877 C209 1.423 . S
C879 C306 1.649 . S
C895 C338 1.225 1_545 S
C897 C245 1.221 . S
C913 C402 1.236 . S
C915 C277 1.242 . S
C931 C305 1.655 . S
C933 C534 1.941 . S
C949 C337 1.728 . S
C951 C470 1.989 . S
C967 C502 1.410 1_554 S
C969 C373 1.359 . S
C985 C369 1.784 . S
C987 C630 2.058 . S
C1003 C566 1.816 . S
C1005 C273 1.571 . S
C1021 C309 1.191 . S
C1023 C598 1.233 . S
C1039 C434 1.390 1_455 S
C1041 C341 1.378 . S
C1057 C405 1.396 . S
C1059 C18 1.394 . S
C1075 C241 1.577 . S
C1077 C562 1.798 . S
C1093 C594 1.762 1_554 S
C1095 C145 1.503 . S
C1111 C438 2.139 . S
C1113 C177 1.869 . S
C1129 C242 1.303 1_554 S
C1131 C437 1.301 . S
C1147 C82 1.765 . S
C1149 C465 1.510 . S
C1165 C466 1.775 . S
C1167 C17 1.538 . S
C1183 C406 2.148 . S
C1185 C81 1.855 . S
C1201 C501 1.156 . S
C1203 C658 1.153 . S
C1219 C401 1.584 . S
C1221 C694 1.854 . S
C1237 C726 1.408 . S
C1239 C533 1.369 . S
C1255 C469 1.169 . S
C1257 C758 1.220 1_455 S
C1273 C754 1.184 . S
C1275 C565 1.165 . S
C1291 C662 1.347 1_455 S
C1293 C597 1.295 . S
C1309 C433 1.434 . S
C1311 C690 1.659 . S
C1327 C722 1.244 . S
C1329 C629 1.227 . S
C1345 C50 1.254 . S
C1347 C661 1.249 . S
C1363 C689 1.643 . S
C1365 C86 1.920 1_554 S
C1381 C118 1.866 . S
C1383 C721 1.615 . S
C1399 C22 2.082 . S
C1401 C753 1.793 . S
C1417 C757 1.358 . S
C1419 C246 1.399 . S
C1435 C657 1.685 . S
C1437 C150 1.942 1_556 S
C1453 C693 1.197 . S
C1455 C182 1.245 . S
C1471 C725 1.374 . S
C1473 C210 1.373 . S
C1489 C53 1.360 . S
C1491 C498 1.354 . S
C1507 C146 1.773 . S
C1509 C625 1.529 . S
C1525 C561 1.563 . S
C1527 C178 1.825 . S
C1543 C214 2.160 . S
C1545 C593 1.886 . S
C1561 C213 1.342 . S
C1563 C626 1.348 . S
C1579 C113 1.571 . S
C1581 C530 1.828 . S
C1597 C497 1.589 . S
C1599 C114 1.803 1_556 S
C1615 C529 1.837 . S
C1617 C54 2.126 1_545 S
C1633 C16 1.889 . S
C1635 C311 1.842 . S
C1651 C343 2.136 . S
C1653 C55 2.133 . S
C1669 C368 1.640 . S
C1671 C80 1.635 . S
C1687 C272 1.651 . S
C1689 C112 1.645 . S
C1705 C336 1.681 . S
C1707 C144 1.680 . S
C1723 C375 1.807 . S
C1725 C176 1.845 . S
C1741 C279 2.031 . S
C1743 C215 2.026 . S
C1759 C240 1.638 . S
C1761 C304 1.642 . S
C1777 C151 1.790 . S
C1779 C400 1.836 . S
C1795 C247 2.123 . S
C1797 C503 2.122 . S
C1813 C535 2.068 . S
C1815 C183 2.068 . S
C1831 C432 1.970 . S
C1833 C119 1.916 . S
C1849 C208 1.908 . S
C1851 C471 1.859 . S
C1867 C23 2.113 . S
C1869 C631 2.114 . S
C1885 C599 1.974 . S
C1887 C87 1.974 . S
C1903 C695 1.800 . S
C1905 C496 1.848 . S
C1921 C727 2.025 . S
C1923 C407 2.022 . S
C1939 C528 1.869 . S
C1941 C759 1.837 . S
C1957 C656 1.643 . S
C1959 C464 1.643 . S
C1975 C720 1.690 . S
C1977 C560 1.682 . S
C1993 C752 1.609 . S
C1995 C592 1.607 . S
C2011 C439 2.137 . S
C2013 C663 2.141 . S
C2029 C688 1.686 . S
C2031 C624 1.683 . S
C2047 C48 1.899 . S
C2049 C567 1.848 . S
C2065 C148 1.607 . S
C2067 C20 1.606 . S
C2083 C180 1.929 . S
C2085 C51 1.828 . S
C2101 C211 1.732 . S
C2103 C84 1.837 . S
C2119 C244 1.600 . S
C2121 C116 1.598 . S
C2137 C308 1.704 . S
C2139 C276 1.705 . S
C2155 C340 1.945 . S
C2157 C307 1.850 . S
C2173 C339 2.143 . S
C2175 C371 2.163 . S
C2191 C275 1.849 . S
C2193 C372 1.949 . S
C2209 C404 1.933 . S
C2211 C115 1.830 . S
C2227 C243 2.140 . S
C2229 C595 2.152 . S
C2245 C436 1.887 . S
C2247 C147 1.800 . S
C2263 C179 2.113 . S
C2265 C627 2.092 . S
C2281 C52 1.975 . S
C2283 C467 1.877 . S
C2299 C19 2.017 . S
C2301 C531 2.026 . S
C2317 C83 2.067 . S
C2319 C499 2.068 . S
C2335 C564 1.653 . S
C2337 C500 1.654 . S
C2353 C403 1.722 . S
C2355 C596 1.824 . S
C2371 C435 1.839 . S
C2373 C532 1.943 . S
C2389 C468 1.551 . S
C2391 C628 1.550 . S
C2407 C692 1.722 . S
C2409 C660 1.721 . S
C2425 C724 1.928 . S
C2427 C691 1.829 . S
C2443 C756 1.970 . S
C2445 C723 1.862 . S
C2461 C755 2.142 . S
C2463 C659 2.133 . S
C2479 C212 1.843 . S
C2481 C563 1.751 . S
