# Generated by pormake.
# Topology wjk, (5)-cn, num edge types: 1
# Building blocks:
#     Node 0, Type 0, BuildingBlock: BEQFEK_clean_sbu_0, # of connection points: 5
#     Node 1, Type 0, BuildingBlock: BEQFEK_clean_sbu_0, # of connection points: 5
#     Node 2, Type 0, BuildingBlock: BEQFEK_clean_sbu_0, # of connection points: 5
#     Node 3, Type 0, BuildingBlock: BEQFEK_clean_sbu_0, # of connection points: 5
#     Node 4, Type 0, BuildingBlock: BEQFEK_clean_sbu_0, # of connection points: 5
#     Node 5, Type 0, BuildingBlock: BEQFEK_clean_sbu_0, # of connection points: 5
#     Node 6, Type 0, BuildingBlock: BEQFEK_clean_sbu_0, # of connection points: 5
#     Node 7, Type 0, BuildingBlock: BEQFEK_clean_sbu_0, # of connection points: 5
#     Node 8, Type 0, BuildingBlock: BEQFEK_clean_sbu_0, # of connection points: 5
#     Node 9, Type 0, BuildingBlock: BEQFEK_clean_sbu_0, # of connection points: 5
#     Node 10, Type 0, BuildingBlock: BEQFEK_clean_sbu_0, # of connection points: 5
#     Node 11, Type 0, BuildingBlock: BEQFEK_clean_sbu_0, # of connection points: 5
#     Edge 12, Type (0, 0), BuildingBlock: OJICUG_clean_linker_0, # of connection points: 2
#     Edge 13, Type (0, 0), BuildingBlock: OJICUG_clean_linker_0, # of connection points: 2
#     Edge 14, Type (0, 0), BuildingBlock: OJICUG_clean_linker_0, # of connection points: 2
#     Edge 15, Type (0, 0), BuildingBlock: OJICUG_clean_linker_0, # of connection points: 2
#     Edge 16, Type (0, 0), BuildingBlock: OJICUG_clean_linker_0, # of connection points: 2
#     Edge 17, Type (0, 0), BuildingBlock: OJICUG_clean_linker_0, # of connection points: 2
#     Edge 18, Type (0, 0), BuildingBlock: OJICUG_clean_linker_0, # of connection points: 2
#     Edge 19, Type (0, 0), BuildingBlock: OJICUG_clean_linker_0, # of connection points: 2
#     Edge 20, Type (0, 0), BuildingBlock: OJICUG_clean_linker_0, # of connection points: 2
#     Edge 21, Type (0, 0), BuildingBlock: OJICUG_clean_linker_0, # of connection points: 2
#     Edge 22, Type (0, 0), BuildingBlock: OJICUG_clean_linker_0, # of connection points: 2
#     Edge 23, Type (0, 0), BuildingBlock: OJICUG_clean_linker_0, # of connection points: 2
#     Edge 24, Type (0, 0), BuildingBlock: OJICUG_clean_linker_0, # of connection points: 2
#     Edge 25, Type (0, 0), BuildingBlock: OJICUG_clean_linker_0, # of connection points: 2
#     Edge 26, Type (0, 0), BuildingBlock: OJICUG_clean_linker_0, # of connection points: 2
#     Edge 27, Type (0, 0), BuildingBlock: OJICUG_clean_linker_0, # of connection points: 2
#     Edge 28, Type (0, 0), BuildingBlock: OJICUG_clean_linker_0, # of connection points: 2
#     Edge 29, Type (0, 0), BuildingBlock: OJICUG_clean_linker_0, # of connection points: 2
#     Edge 30, Type (0, 0), BuildingBlock: OJICUG_clean_linker_0, # of connection points: 2
#     Edge 31, Type (0, 0), BuildingBlock: OJICUG_clean_linker_0, # of connection points: 2
#     Edge 32, Type (0, 0), BuildingBlock: OJICUG_clean_linker_0, # of connection points: 2
#     Edge 33, Type (0, 0), BuildingBlock: OJICUG_clean_linker_0, # of connection points: 2
#     Edge 34, Type (0, 0), BuildingBlock: OJICUG_clean_linker_0, # of connection points: 2
#     Edge 35, Type (0, 0), BuildingBlock: OJICUG_clean_linker_0, # of connection points: 2
#     Edge 36, Type (0, 0), BuildingBlock: OJICUG_clean_linker_0, # of connection points: 2
#     Edge 37, Type (0, 0), BuildingBlock: OJICUG_clean_linker_0, # of connection points: 2
#     Edge 38, Type (0, 0), BuildingBlock: OJICUG_clean_linker_0, # of connection points: 2
#     Edge 39, Type (0, 0), BuildingBlock: OJICUG_clean_linker_0, # of connection points: 2
#     Edge 40, Type (0, 0), BuildingBlock: OJICUG_clean_linker_0, # of connection points: 2
#     Edge 41, Type (0, 0), BuildingBlock: OJICUG_clean_linker_0, # of connection points: 2
# Relax obj value: 0.419
# Max RMSD: 0.219
# Mean RMSD: 0.219
data_MOF--net-wjk--node1-BEQFEK_clean_sbu_0--edge1-OJICUG_clean_linker_0
_symmetry_space_group_name_H-M    P1
_symmetry_Int_Tables_number       1
_symmetry_cell_setting            triclinic
loop_
_symmetry_equiv_pos_as_xyz
'x, y, z'
_cell_length_a     27.086081
_cell_length_b     27.161525
_cell_length_c     53.717786
_cell_angle_alpha  90.06217
_cell_angle_beta   90.01252
_cell_angle_gamma 119.98208
loop_
_atom_site_label
_atom_site_type_symbol
_atom_site_fract_x
_atom_site_fract_y
_atom_site_fract_z
_atom_type_partial_charge
Co0 Co 0.13827 0.2134 0.28285 0.0
Co1 Co 0.23885 0.30825 0.25335 0.0
C2 C 0.20341 0.18926 0.24216 0.0
O3 O 0.16332 0.17479 0.25795 0.0
O4 O 0.24035 0.24138 0.2388 0.0
C5 C 0.10254 0.12237 0.31544 0.0
O6 O 0.15543 0.13407 0.31223 0.0
C7 C 0.35661 0.38572 0.23551 0.0
C8 C 0.36244 0.46944 0.23887 0.0
C9 C 0.39479 0.444 0.23386 0.0
N10 N 0.30483 0.37751 0.24188 0.0
N11 N 0.30858 0.42784 0.24342 0.0
C12 C 0.36822 0.3383 0.23019 0.0
H13 H 0.36542 0.31528 0.24763 0.0
H14 H 0.41058 0.35395 0.22148 0.0
H15 H 0.33528 0.30759 0.21725 0.0
C16 C 0.20892 0.27526 0.32624 0.0
N17 N 0.19837 0.27051 0.30156 0.0
N18 N 0.24449 0.30688 0.28952 0.0
C19 C 0.28729 0.33303 0.3064 0.0
C20 C 0.26602 0.31387 0.3303 0.0
C21 C 0.16617 0.24066 0.34581 0.0
H22 H 0.12219 0.22453 0.33893 0.0
H23 H 0.17238 0.20487 0.35149 0.0
H24 H 0.17222 0.2668 0.36262 0.0
O25 O 0.09526 0.24146 0.26505 0.0
O26 O 0.1633 0.30246 0.23989 0.0
H27 H 0.35139 0.40962 0.28948 0.0
H28 H 0.37529 0.38878 0.31681 0.0
C29 C 0.34821 0.37295 0.2999 0.0
H30 H 0.36412 0.35087 0.28779 0.0
H31 H 0.27501 0.43396 0.24879 0.0
O32 O 0.08578 0.15306 0.30478 0.0
C33 C 0.11058 0.27482 0.24654 0.0
Co34 Co 0.93376 0.13114 0.6127 0.0
Co35 Co 0.93789 0.23139 0.58365 0.0
C36 C 0.02331 0.1984 0.57258 0.0
O37 O 0.99778 0.15782 0.58806 0.0
O38 O 1.00739 0.23478 0.5693 0.0
C39 C 0.99126 0.09575 0.64432 0.0
O40 O 0.03189 0.14864 0.64097 0.0
C41 C 0.97671 0.34973 0.56779 0.0
C42 C 0.89528 0.34935 0.56481 0.0
C43 C 0.95387 0.38496 0.56348 0.0
N44 N 0.93361 0.29624 0.57165 0.0
N45 N 0.88507 0.29631 0.56942 0.0
C46 C 0.03831 0.36759 0.57113 0.0
H47 H 0.05747 0.36973 0.55262 0.0
H48 H 0.04302 0.33651 0.58275 0.0
H49 H 0.06186 0.4102 0.57995 0.0
C50 C 0.94093 0.19999 0.65646 0.0
N51 N 0.93548 0.19024 0.63171 0.0
N52 N 0.94334 0.23604 0.61998 0.0
C53 C 0.95767 0.2777 0.63724 0.0
C54 C 0.95675 0.25617 0.66091 0.0
C55 C 0.93522 0.15758 0.6757 0.0
H56 H 0.90763 0.11365 0.66883 0.0
H57 H 0.97804 0.16454 0.68058 0.0
H58 H 0.91603 0.16298 0.69297 0.0
O59 O 0.86293 0.08779 0.5945 0.0
O60 O 0.86993 0.15592 0.56947 0.0
H61 H 0.94446 0.33936 0.61818 0.0
H62 H 0.97618 0.3614 0.64867 0.0
C63 C 0.97493 0.338 0.63151 0.0
H64 H 0.01801 0.35936 0.6231 0.0
H65 H 0.845 0.26064 0.57222 0.0
O66 O 0.94303 0.07875 0.63425 0.0
C67 C 0.84529 0.10322 0.57583 0.0
Co68 Co 0.80835 0.9154 0.94007 0.0
Co69 Co 0.71807 0.9345 0.91488 0.0
C70 C 0.83504 0.01414 0.90314 0.0
O71 O 0.84752 0.98327 0.91671 0.0
O72 O 0.78378 1.00315 0.90111 0.0
C73 C 0.8966 0.96827 0.97338 0.0
O74 O 0.87986 1.00601 0.97189 0.0
C75 C 0.63753 0.97517 0.90068 0.0
C76 C 0.55535 0.89492 0.90258 0.0
C77 C 0.57869 0.95289 0.89886 0.0
N78 N 0.64789 0.9323 0.9055 0.0
N79 N 0.59844 0.88445 0.90619 0.0
C80 C 0.68272 0.03669 0.90023 0.0
H81 H 0.69322 0.05082 0.88061 0.0
H82 H 0.72202 0.04361 0.90962 0.0
H83 H 0.66749 0.06311 0.90956 0.0
C84 C 0.75206 0.91593 0.9852 0.0
N85 N 0.75176 0.91431 0.96026 0.0
N86 N 0.7233 0.93749 0.9513 0.0
C87 C 0.70917 0.96009 0.97083 0.0
C88 C 0.72836 0.94838 0.99318 0.0
C89 C 0.76816 0.88051 1.00101 0.0
H90 H 0.75898 0.84127 0.9908 0.0
H91 H 0.81419 0.90358 1.00539 0.0
H92 H 0.74416 0.86905 1.01882 0.0
O93 O 0.7789 0.84758 0.92087 0.0
O94 O 0.72267 0.86643 0.89757 0.0
H95 H 0.64047 0.97594 0.97678 0.0
H96 H 0.71003 0.03815 0.97806 0.0
C97 C 0.68345 0.99726 0.9682 0.0
H98 H 0.67945 1.00552 0.94847 0.0
H99 H 0.59396 0.84483 0.9102 0.0
O100 O 0.86929 0.9219 0.96144 0.0
C101 C 0.74671 0.83662 0.90212 0.0
Co102 Co 0.89505 0.80767 0.28405 0.0
Co103 Co 0.79591 0.71175 0.25425 0.0
C104 C 0.83021 0.83047 0.24288 0.0
O105 O 0.8698 0.84541 0.25897 0.0
O106 O 0.79399 0.7782 0.2393 0.0
C107 C 0.92958 0.89948 0.31626 0.0
O108 O 0.8767 0.88749 0.31268 0.0
C109 C 0.67754 0.63162 0.23767 0.0
C110 C 0.67858 0.55106 0.23518 0.0
C111 C 0.64253 0.57345 0.23348 0.0
N112 N 0.73125 0.64253 0.24189 0.0
N113 N 0.73156 0.5942 0.23991 0.0
C114 C 0.65929 0.67504 0.24056 0.0
H115 H 0.6564 0.69083 0.22188 0.0
H116 H 0.69066 0.71159 0.2518 0.0
H117 H 0.6168 0.65613 0.24954 0.0
C118 C 0.82441 0.74562 0.32724 0.0
N119 N 0.83499 0.75024 0.30257 0.0
N120 N 0.78939 0.71263 0.29051 0.0
C121 C 0.74697 0.68533 0.30746 0.0
C122 C 0.76787 0.70552 0.33129 0.0
C123 C 0.86653 0.78143 0.34684 0.0
H124 H 0.91072 0.79769 0.34026 0.0
H125 H 0.85974 0.81721 0.35192 0.0
H126 H 0.86035 0.75622 0.36395 0.0
O127 O 0.93931 0.78047 0.26661 0.0
O128 O 0.87219 0.71841 0.24134 0.0
H129 H 0.68549 0.61063 0.28817 0.0
H130 H 0.66241 0.62068 0.31835 0.0
C131 C 0.68662 0.6426 0.30132 0.0
H132 H 0.66584 0.66447 0.29254 0.0
H133 H 0.76742 0.59019 0.24302 0.0
O134 O 0.94669 0.86858 0.30605 0.0
C135 C 0.92476 0.74679 0.24819 0.0
Co136 Co 0.10047 0.88794 0.61366 0.0
Co137 Co 0.0945 0.78739 0.58393 0.0
C138 C 1.00869 0.82041 0.57422 0.0
O139 O 0.03512 0.86121 0.58959 0.0
O140 O 0.0244 0.78398 0.57058 0.0
C141 C 0.04454 0.92401 0.64585 0.0
O142 O 1.00377 0.87106 0.64272 0.0
C143 C 0.05411 0.67021 0.56585 0.0
C144 C 0.13193 0.66382 0.56902 0.0
C145 C 0.07401 0.63188 0.56409 0.0
N146 N 0.09788 0.72171 0.57222 0.0
N147 N 0.14444 0.71765 0.57363 0.0
C148 C 0.99498 0.65893 0.56069 0.0
H149 H 0.99714 0.69162 0.54769 0.0
H150 H 0.9751 0.66217 0.57819 0.0
H151 H 0.96796 0.6166 0.55208 0.0
C152 C 0.09362 0.81805 0.65694 0.0
N153 N 0.09923 0.82865 0.63227 0.0
N154 N 0.08988 0.78277 0.62014 0.0
C155 C 0.0739 0.74014 0.63695 0.0
C156 C 0.07594 0.76121 0.66089 0.0
C157 C 0.10008 0.86017 0.67653 0.0
H158 H 0.12758 0.90421 0.66983 0.0
H159 H 0.05747 0.85327 0.68177 0.0
H160 H 0.11971 0.8543 0.69354 0.0
O161 O 0.17036 0.93098 0.59483 0.0
O162 O 0.16206 0.86274 0.56943 0.0
H163 H 0.08643 0.67614 0.61991 0.0
H164 H 0.04137 0.65221 0.64713 0.0
C165 C 0.05283 0.67939 0.63029 0.0
H166 H 1.01495 0.6638 0.61809 0.0
H167 H 0.18426 0.75096 0.57899 0.0
O168 O 0.09247 0.94064 0.63558 0.0
C169 C 0.18707 0.91548 0.57585 0.0
Co170 Co 0.21503 0.09609 0.94242 0.0
Co171 Co 0.31449 0.09291 0.91656 0.0
C172 C 0.19828 1.00401 0.90438 0.0
O173 O 0.18008 0.0263 0.92019 0.0
O174 O 0.25134 0.02535 0.90038 0.0
C175 C 0.12619 0.03813 0.97513 0.0
O176 O 0.14454 1.00172 0.97308 0.0
C177 C 0.39446 0.05457 0.90036 0.0
C178 C 0.47804 0.13076 0.90746 0.0
C179 C 0.45279 0.07423 0.90034 0.0
N180 N 0.38572 0.09714 0.90766 0.0
N181 N 0.43604 0.14277 0.91152 0.0
C182 C 0.34768 0.99671 0.89287 0.0
H183 H 0.32118 1.0012 0.8783 0.0
H184 H 0.31972 0.97517 0.90905 0.0
H185 H 0.36457 0.97004 0.88532 0.0
C186 C 0.27336 0.09895 0.98721 0.0
N187 N 0.27468 0.10334 0.96235 0.0
N188 N 0.30682 0.0848 0.95286 0.0
C189 C 0.3225 0.06217 0.97182 0.0
C190 C 0.3006 0.06936 0.99443 0.0
C191 C 0.25212 0.12887 1.00387 0.0
H192 H 0.25663 0.16719 0.99436 0.0
H193 H 0.20653 0.10128 1.00837 0.0
H194 H 0.27639 0.14138 1.02162 0.0
O195 O 0.23884 0.16275 0.92244 0.0
O196 O 0.30941 0.16212 0.90163 0.0
H197 H 0.39617 0.05352 0.97561 0.0
H198 H 0.32977 0.98824 0.97875 0.0
C199 C 0.3521 0.02875 0.96824 0.0
H200 H 0.3539 0.0197 0.94831 0.0
H201 H 0.44166 0.18152 0.91794 0.0
O202 O 0.1528 0.08551 0.96393 0.0
C203 C 0.27721 0.18364 0.90587 0.0
Co204 Co 0.8114 0.88767 0.47183 0.0
Co205 Co 0.71529 0.78731 0.50089 0.0
C206 C 0.83383 0.82026 0.51179 0.0
O207 O 0.84887 0.86089 0.49635 0.0
O208 O 0.78146 0.78391 0.51512 0.0
C209 C 0.90384 0.92269 0.44001 0.0
O210 O 0.89117 0.8697 0.44331 0.0
C211 C 0.63582 0.66888 0.51667 0.0
C212 C 0.55458 0.6689 0.51962 0.0
C213 C 0.57768 0.63346 0.52092 0.0
N214 N 0.64614 0.72233 0.51287 0.0
N215 N 0.59742 0.72205 0.51509 0.0
C216 C 0.67967 0.65124 0.5133 0.0
H217 H 0.69679 0.64917 0.53179 0.0
H218 H 0.71544 0.68239 0.50167 0.0
H219 H 0.66063 0.60864 0.50448 0.0
C220 C 0.7493 0.81905 0.42808 0.0
N221 N 0.75373 0.82869 0.45284 0.0
N222 N 0.71591 0.78276 0.46456 0.0
C223 C 0.68859 0.74113 0.44727 0.0
C224 C 0.70905 0.76281 0.4236 0.0
C225 C 0.78577 0.86164 0.40883 0.0
H226 H 0.80228 0.9055 0.41578 0.0
H227 H 0.82153 0.85473 0.40373 0.0
H228 H 0.76085 0.85632 0.39167 0.0
O229 O 0.78417 0.93098 0.49014 0.0
O230 O 0.72296 0.86273 0.51515 0.0
H231 H 0.61386 0.67901 0.46634 0.0
H232 H 0.62364 0.65727 0.43581 0.0
C233 C 0.64579 0.68069 0.45298 0.0
H234 H 0.66777 0.65959 0.46133 0.0
H235 H 0.59294 0.75763 0.51231 0.0
O236 O 0.87303 0.93997 0.45022 0.0
C237 C 0.75111 0.91547 0.50882 0.0
Co238 Co 0.94377 0.8124 0.80022 0.0
Co239 Co 0.93495 0.71045 0.82999 0.0
C240 C 0.02697 0.82876 0.84153 0.0
O241 O 1.01026 0.8477 0.82368 0.0
O242 O 1.00153 0.77593 0.84664 0.0
C243 C 1.00202 0.9044 0.76793 0.0
O244 O 0.04315 0.89278 0.77148 0.0
C245 C 0.97336 0.63226 0.84795 0.0
C246 C 0.89504 0.54869 0.84486 0.0
C247 C 0.95296 0.57401 0.84972 0.0
N248 N 0.92992 0.64063 0.84163 0.0
N249 N 0.88302 0.59041 0.84027 0.0
C250 C 0.03273 0.67964 0.85295 0.0
H251 H 0.03111 0.7095 0.86657 0.0
H252 H 0.05176 0.70365 0.83555 0.0
H253 H 0.06019 0.66398 0.86079 0.0
C254 C 0.94783 0.74785 0.75709 0.0
N255 N 0.94108 0.75255 0.78167 0.0
N256 N 0.94564 0.71308 0.79384 0.0
C257 C 0.95976 0.68454 0.77712 0.0
C258 C 0.96136 0.70561 0.75324 0.0
C259 C 0.94554 0.78576 0.73743 0.0
H260 H 0.9187 0.80365 0.74355 0.0
H261 H 0.98936 0.82037 0.73318 0.0
H262 H 0.92722 0.76171 0.71996 0.0
O263 O 0.87385 0.7892 0.81902 0.0
O264 O 0.86477 0.7165 0.8414 0.0
H265 H 0.93872 0.60507 0.79382 0.0
H266 H 0.98457 0.62293 0.76693 0.0
C267 C 0.97482 0.64024 0.78377 0.0
H268 H 1.01243 0.65899 0.79624 0.0
H269 H 0.84334 0.58442 0.83495 0.0
O270 O 0.95406 0.87346 0.77819 0.0
C271 C 0.84748 0.75121 0.83538 0.0
Co272 Co 0.12844 0.91501 0.14231 0.0
Co273 Co 0.23659 0.9323 0.16795 0.0
C274 C 0.20101 0.01313 0.17966 0.0
O275 O 0.15766 0.98256 0.16597 0.0
O276 O 0.241 1.00174 0.18169 0.0
C277 C 0.09558 0.97017 0.10925 0.0
O278 O 0.15036 1.00698 0.11105 0.0
C279 C 0.35607 0.97289 0.18393 0.0
C280 C 0.36338 0.89651 0.17753 0.0
C281 C 0.39484 0.95335 0.18414 0.0
N282 N 0.30453 0.92986 0.177 0.0
N283 N 0.30923 0.88418 0.17355 0.0
C284 C 0.36717 0.03087 0.19113 0.0
H285 H 0.33454 0.02666 0.20476 0.0
H286 H 0.3635 0.05312 0.17456 0.0
H287 H 0.40991 0.05677 0.19965 0.0
C288 C 0.18599 0.91528 0.09747 0.0
N289 N 0.18382 0.91294 0.12238 0.0
N290 N 0.2352 0.93613 0.13167 0.0
C291 C 0.27266 0.95976 0.11248 0.0
C292 C 0.24248 0.94839 0.08989 0.0
C293 C 0.13483 0.88023 0.08132 0.0
H294 H 0.105 0.8402 0.09107 0.0
H295 H 0.11132 0.90293 0.07746 0.0
H296 H 0.14788 0.87016 0.0633 0.0
O297 O 0.08866 0.84716 0.16129 0.0
O298 O 0.16296 0.86396 0.18479 0.0
H299 H 0.35815 0.977 0.10816 0.0
H300 H 0.34977 0.03835 0.10558 0.0
C301 C 0.33533 0.998 0.11587 0.0
H302 H 0.34614 1.00727 0.13579 0.0
H303 H 0.27594 0.84508 0.16749 0.0
O304 O 0.07533 0.92323 0.12076 0.0
C305 C 0.10904 0.835 0.17997 0.0
Co306 Co 0.22126 0.12973 0.4706 0.0
Co307 Co 0.31616 0.2307 0.50008 0.0
C308 C 0.19731 0.19762 0.5099 0.0
O309 O 0.18278 0.15666 0.49462 0.0
O310 O 0.24954 0.23414 0.51345 0.0
C311 C 0.12932 0.0937 0.43838 0.0
O312 O 0.14191 0.14677 0.44138 0.0
C313 C 0.39299 0.34806 0.51801 0.0
C314 C 0.47736 0.35479 0.51486 0.0
C315 C 0.45127 0.38655 0.51978 0.0
N316 N 0.38534 0.29663 0.51165 0.0
N317 N 0.43605 0.3009 0.51023 0.0
C318 C 0.34504 0.35913 0.52317 0.0
H319 H 0.31463 0.32651 0.53625 0.0
H320 H 0.32172 0.35559 0.50569 0.0
H321 H 0.36031 0.40151 0.5317 0.0
C322 C 0.2841 0.199 0.42715 0.0
N323 N 0.27928 0.18878 0.45185 0.0
N324 N 0.31584 0.2349 0.46385 0.0
C325 C 0.34227 0.27733 0.44693 0.0
C326 C 0.3231 0.25586 0.42304 0.0
C327 C 0.24852 0.15642 0.40767 0.0
H328 H 0.23191 0.11254 0.41458 0.0
H329 H 0.21284 0.16315 0.4022 0.0
H330 H 0.27418 0.16193 0.39075 0.0
O331 O 0.24824 0.08697 0.48947 0.0
O332 O 0.30847 0.15553 0.51472 0.0
H333 H 0.39752 0.36519 0.43654 0.0
H334 H 0.3596 0.35379 0.46561 0.0
C335 C 0.38192 0.33821 0.45345 0.0
H336 H 0.41892 0.34176 0.46383 0.0
H337 H 0.44263 0.26766 0.5049 0.0
O338 O 0.16033 0.07689 0.44877 0.0
C339 C 0.28065 0.10272 0.5084 0.0
Co340 Co 0.10025 0.21722 0.80139 0.0
Co341 Co 0.09203 0.31071 0.83074 0.0
C342 C 1.00948 0.19151 0.84156 0.0
O343 O 0.03601 0.17774 0.82595 0.0
O344 O 0.02378 0.24337 0.84497 0.0
C345 C 0.04724 0.12557 0.76869 0.0
O346 O 1.0049 0.13565 0.77159 0.0
C347 C 0.05118 0.38895 0.84683 0.0
C348 C 0.13205 0.47046 0.84925 0.0
C349 C 0.07341 0.44702 0.85081 0.0
N350 N 0.0947 0.37906 0.84285 0.0
N351 N 0.14289 0.42796 0.8448 0.0
C352 C 0.9897 0.34469 0.84392 0.0
H353 H 0.97099 0.32901 0.8626 0.0
H354 H 0.98518 0.30823 0.83284 0.0
H355 H 0.96563 0.36283 0.83475 0.0
C356 C 0.09129 0.27817 0.75782 0.0
N357 N 0.09664 0.27372 0.78256 0.0
N358 N 0.08645 0.31003 0.79442 0.0
C359 C 0.07041 0.33611 0.77725 0.0
C360 C 0.07284 0.31658 0.7535 0.0
C361 C 0.09999 0.2436 0.7384 0.0
H362 H 0.12853 0.22845 0.74537 0.0
H363 H 0.05817 0.20713 0.73287 0.0
H364 H 0.11956 0.26942 0.72149 0.0
O365 O 0.17117 0.24624 0.81952 0.0
O366 O 0.16134 0.30533 0.84482 0.0
H367 H 0.0798 0.40953 0.79632 0.0
H368 H 0.04678 0.39781 0.76604 0.0
C369 C 0.05001 0.37671 0.78315 0.0
H370 H 1.00729 0.35322 0.79183 0.0
H371 H 0.18314 0.43276 0.84182 0.0
O372 O 0.09424 0.15739 0.77956 0.0
C373 C 0.18763 0.27885 0.83833 0.0
Co374 Co 0.90581 0.10094 0.14169 0.0
Co375 Co 0.79839 0.08733 0.16709 0.0
C376 C 0.83355 1.0061 0.17997 0.0
O377 O 0.87656 0.03504 0.16593 0.0
O378 O 0.79437 0.01868 0.18192 0.0
C379 C 0.93804 0.04323 0.10975 0.0
O380 O 0.88336 1.00647 0.11202 0.0
C381 C 0.67806 0.04918 0.18185 0.0
C382 C 0.67784 0.13024 0.18035 0.0
C383 C 0.64241 0.07238 0.18412 0.0
N384 N 0.73151 0.09142 0.17675 0.0
N385 N 0.73097 0.13977 0.17629 0.0
C386 C 0.66066 0.98742 0.18193 0.0
H387 H 0.65795 0.97297 0.20145 0.0
H388 H 0.69215 0.98012 0.17193 0.0
H389 H 0.61836 0.9616 0.17299 0.0
C390 C 0.84798 0.09852 0.0965 0.0
N391 N 0.8502 0.10161 0.12142 0.0
N392 N 0.79905 0.08186 0.13066 0.0
C393 C 0.76146 0.06021 0.11133 0.0
C394 C 0.79136 0.06876 0.0889 0.0
C395 C 0.89966 0.12933 0.0802 0.0
H396 H 0.93313 0.16733 0.09009 0.0
H397 H 0.91788 0.10207 0.0755 0.0
H398 H 0.88831 0.14246 0.06253 0.0
O399 O 0.94627 0.17012 0.15993 0.0
O400 O 0.87264 0.15631 0.18316 0.0
H401 H 0.67893 0.04905 0.1043 0.0
H402 H 0.68131 0.98425 0.10557 0.0
C403 C 0.69821 0.02689 0.11415 0.0
H404 H 0.68587 0.02233 0.13388 0.0
H405 H 0.7665 0.1791 0.1722 0.0
O406 O 0.95856 0.09107 0.12058 0.0
C407 C 0.9265 0.18422 0.17822 0.0
C408 C 0.55003 0.48593 0.24372 0.0
C409 C 0.5791 0.5394 0.23208 0.0
H410 H 0.46972 0.41498 0.25419 0.0
C411 C 0.54692 0.55967 0.21981 0.0
H412 H 0.57339 0.46922 0.25356 0.0
C413 C 0.48711 0.52793 0.21984 0.0
C414 C 0.45812 0.47486 0.23182 0.0
H415 H 0.5678 0.59999 0.21016 0.0
H416 H 0.46346 0.54509 0.21058 0.0
C417 C 0.4904 0.45439 0.24383 0.0
C418 C 0.06467 0.53937 0.54991 0.0
C419 C 0.04116 0.56876 0.5621 0.0
H420 H 0.05509 0.45846 0.54004 0.0
C421 C 0.98852 0.53709 0.57427 0.0
H422 H 0.10541 0.56257 0.54054 0.0
C423 C 0.95988 0.47762 0.57407 0.0
C424 C 0.98369 0.44817 0.56219 0.0
H425 H 0.97027 0.55809 0.5848 0.0
H426 H 0.91988 0.45467 0.584 0.0
C427 C 0.0361 0.47973 0.54981 0.0
C428 C 0.53495 0.06393 0.88526 0.0
C429 C 0.48282 0.04127 0.89801 0.0
H430 H 0.60482 0.0529 0.87427 0.0
C431 C 0.46198 0.98897 0.91028 0.0
H432 H 0.55204 0.10426 0.87568 0.0
C433 C 0.49271 0.96015 0.90996 0.0
C434 C 0.54544 0.98311 0.8976 0.0
H435 H 0.42283 0.97119 0.92092 0.0
H436 H 0.47585 0.92057 0.92013 0.0
C437 C 0.56556 0.03481 0.88476 0.0
C438 C 0.56522 0.53872 0.53443 0.0
C439 C 0.54436 0.57024 0.52206 0.0
H440 H 0.55179 0.45592 0.54357 0.0
C441 C 0.49121 0.54073 0.51005 0.0
H442 H 0.60541 0.56004 0.54431 0.0
C443 C 0.46049 0.48126 0.50971 0.0
C444 C 0.48145 0.44963 0.52188 0.0
H445 H 0.47416 0.56365 0.50011 0.0
H446 H 0.42131 0.46021 0.49908 0.0
C447 C 0.53426 0.47908 0.5342 0.0
C448 C 0.03769 0.56349 0.83913 0.0
C449 C 0.98546 0.54326 0.85159 0.0
H450 H 0.10618 0.5493 0.82938 0.0
C451 C 0.96219 0.49081 0.86405 0.0
H452 H 0.05564 0.60227 0.82834 0.0
C453 C 0.99083 0.45968 0.86426 0.0
C454 C 0.04306 0.48004 0.85175 0.0
H455 H 0.92171 0.47379 0.8736 0.0
H456 H 0.97213 0.41985 0.87429 0.0
C457 C 0.0664 0.53267 0.83947 0.0
C458 C 0.48738 0.96287 0.19862 0.0
C459 C 0.45799 0.98622 0.18637 0.0
H460 H 0.56824 0.9726 0.2088 0.0
C461 C 0.48967 0.03878 0.17429 0.0
H462 H 0.46404 0.92238 0.20808 0.0
C463 C 0.54931 0.06695 0.17419 0.0
C464 C 0.57894 0.0431 0.18594 0.0
H465 H 0.4684 0.05716 0.16404 0.0
H466 H 0.57217 0.10667 0.16413 0.0
C467 C 0.54718 0.99134 0.19872 0.0
C468 C 0.34309 0.27373 0.37731 0.0
C469 C 0.32562 0.28688 0.39978 0.0
H470 H 0.33872 0.27335 0.33736 0.0
C471 C 0.29871 0.31965 0.39892 0.0
H472 H 0.36369 0.2483 0.37746 0.0
C473 C 0.28459 0.33413 0.37598 0.0
C474 C 0.2972 0.31619 0.35351 0.0
H475 H 0.28417 0.32979 0.41593 0.0
H476 H 0.25981 0.35543 0.37584 0.0
C477 C 0.32906 0.2883 0.35437 0.0
C478 C 0.04484 0.32104 0.68491 0.0
C479 C 0.98514 0.28745 0.68415 0.0
H480 H 0.11991 0.35794 0.70786 0.0
C481 C 0.9547 0.27393 0.70666 0.0
H482 H 0.06936 0.33145 0.66785 0.0
C483 C 0.98361 0.28914 0.72954 0.0
C484 C 0.04347 0.31791 0.73029 0.0
H485 H 0.90868 0.24779 0.70658 0.0
H486 H 0.95923 0.27404 0.74659 0.0
C487 C 0.07376 0.33602 0.70779 0.0
C488 C 0.80516 0.01761 0.05337 0.0
C489 C 0.77134 0.03708 0.06463 0.0
H490 H 0.82262 0.98271 1.02187 0.0
C491 C 0.72049 0.0255 0.05241 0.0
H492 H 0.84271 0.02201 0.06243 0.0
C493 C 0.70503 0.99594 1.02938 0.0
C494 C 0.74083 0.97864 1.01789 0.0
H495 H 0.69296 0.03952 0.06042 0.0
H496 H 0.66529 0.98676 1.02072 0.0
C497 C 0.79173 0.99167 1.03017 0.0
C498 C 0.68956 0.74499 0.37785 0.0
C499 C 0.70657 0.7317 0.40038 0.0
H500 H 0.69474 0.74554 0.33793 0.0
C501 C 0.7335 0.69892 0.39967 0.0
H502 H 0.66911 0.77055 0.3779 0.0
C503 C 0.74822 0.68468 0.37682 0.0
C504 C 0.73601 0.7027 0.35431 0.0
H505 H 0.74774 0.68875 0.41675 0.0
H506 H 0.77324 0.66362 0.37679 0.0
C507 C 0.70403 0.73049 0.35499 0.0
C508 C 0.9875 0.69755 0.6849 0.0
C509 C 0.04729 0.72978 0.68404 0.0
H510 H 0.91282 0.6631 0.70798 0.0
C511 C 0.07794 0.74239 0.7065 0.0
H512 H 0.96282 0.68793 0.6679 0.0
C513 C 0.04932 0.72806 0.72944 0.0
C514 C 0.98956 0.70099 0.73029 0.0
H515 H 0.12404 0.76749 0.70636 0.0
H516 H 0.07401 0.74291 0.74644 0.0
C517 C 0.95889 0.68336 0.70783 0.0
C518 C 0.32839 0.02614 1.03088 0.0
C519 C 0.28882 0.037 1.01848 0.0
H520 H 0.345 0.98822 0.06284 0.0
C521 C 0.23524 0.01689 1.02957 0.0
H522 H 0.37011 0.04058 1.02292 0.0
C523 C 0.22273 0.99132 0.05279 0.0
C524 C 0.2608 0.97898 0.06528 0.0
H525 H 0.2019 0.02072 1.02037 0.0
H526 H 0.18265 0.98207 0.06095 0.0
C527 C 0.31425 0.9968 0.05397 0.0
C528 C 0.07277 0.024 0.32878 0.0
C529 C 0.05982 0.06762 0.32595 0.0
H530 H 0.03991 0.93438 0.32844 0.0
C531 C 1.00294 0.05495 0.32805 0.0
H532 H 0.11639 0.03276 0.32797 0.0
C533 C 0.9591 0.99859 0.32833 0.0
C534 C 0.97208 0.95481 0.32644 0.0
H535 H 0.99198 0.08815 0.32677 0.0
H536 H 0.9155 0.98977 0.32712 0.0
C537 C 0.02893 0.96764 0.329 0.0
C538 C 0.06153 0.06707 0.65685 0.0
C539 C 1.00454 0.05351 0.65444 0.0
H540 H 0.11931 0.03517 0.65652 0.0
C541 C 0.96094 0.99666 0.6569 0.0
H542 H 0.09599 0.11068 0.65571 0.0
C543 C 0.97428 0.95338 0.65742 0.0
C544 C 0.03129 0.96677 0.65538 0.0
H545 H 0.91651 0.98522 0.65589 0.0
H546 H 0.93981 0.9097 0.65667 0.0
C547 C 0.07488 0.02378 0.65728 0.0
C548 C 0.05084 0.05956 0.98769 0.0
C549 C 0.06882 0.01959 0.98464 0.0
H550 H 0.98031 0.07398 0.98712 0.0
C551 C 0.02849 0.9614 0.98539 0.0
H552 H 0.08138 0.10471 0.98786 0.0
C553 C 0.97061 0.9438 0.98475 0.0
C554 C 0.9529 0.98431 0.9836 0.0
H555 H 0.04131 0.92963 0.98361 0.0
H556 H 0.94025 0.89889 0.98265 0.0
C557 C 0.99296 0.04193 0.9873 0.0
C558 C 0.97299 0.02157 0.42728 0.0
C559 C 0.95942 0.96468 0.42979 0.0
H560 H 0.03924 0.10843 0.42745 0.0
C561 C 1.00265 0.95089 0.42739 0.0
H562 H 0.94014 0.03317 0.42827 0.0
C563 C 0.05944 0.99403 0.42694 0.0
C564 C 0.07319 0.05109 0.42881 0.0
H565 H 0.99324 0.90723 0.42857 0.0
H566 H 0.09235 0.98248 0.42773 0.0
C567 C 0.02977 0.0647 0.42672 0.0
C568 C 0.96975 0.971 0.75441 0.0
C569 C 1.01444 0.95944 0.75768 0.0
H570 H 0.94549 0.03464 0.75489 0.0
C571 C 0.07097 1.00412 0.75651 0.0
H572 H 0.92573 0.937 0.7544 0.0
C573 C 0.08228 0.06007 0.7568 0.0
C574 C 0.03708 0.07139 0.75819 0.0
H575 H 0.1063 0.99629 0.7583 0.0
H576 H 0.12612 0.09393 0.75865 0.0
C577 C 0.98106 0.02693 0.75464 0.0
C578 C 0.95829 0.96679 0.09791 0.0
C579 C 0.97696 0.02499 0.10002 0.0
H580 H 0.98262 0.90317 0.09883 0.0
C581 C 0.03528 0.06466 0.09771 0.0
H582 H 0.91342 0.93528 0.09903 0.0
C583 C 0.0749 0.04625 0.09739 0.0
C584 C 0.05633 0.9881 0.09964 0.0
H585 H 0.05062 0.1099 0.09858 0.0
H586 H 0.1198 0.07779 0.09815 0.0
C587 C 0.99791 0.94838 0.09783 0.0
C588 C 0.96039 0.21858 0.22194 0.0
C589 C 0.97007 0.22516 0.19618 0.0
H590 H 0.99746 0.2307 0.25823 0.0
C591 C 0.02667 0.2609 0.18793 0.0
H592 H 0.91776 0.19141 0.22905 0.0
C593 C 0.07281 0.2831 0.20465 0.0
C594 C 0.06361 0.2703 0.23013 0.0
H595 H 0.03589 0.26742 0.16819 0.0
H596 H 0.11573 0.30559 0.19727 0.0
C597 C 1.00654 0.24093 0.23868 0.0
C598 C 0.77294 1.00025 0.56794 0.0
C599 C 0.80403 0.05666 0.55898 0.0
H600 H 0.73046 0.9111 0.55922 0.0
C601 C 0.8051 0.06506 0.53315 0.0
H602 H 0.77077 0.99192 0.58775 0.0
C603 C 0.78179 0.01837 0.51675 0.0
C604 C 0.75653 0.96197 0.5257 0.0
H605 H 0.82856 0.10753 0.52547 0.0
H606 H 0.7878 0.02671 0.49694 0.0
C607 C 0.7494 0.95356 0.55154 0.0
C608 C 0.78162 0.79082 0.84158 0.0
C609 C 0.80318 0.75603 0.85024 0.0
H610 H 0.74488 0.84255 0.85107 0.0
C611 C 0.79121 0.73665 0.87493 0.0
H612 H 0.78938 0.80624 0.82259 0.0
C613 C 0.7651 0.75731 0.89123 0.0
C614 C 0.75014 0.79778 0.8833 0.0
H615 H 0.80682 0.70989 0.88234 0.0
H616 H 0.7616 0.7457 0.91071 0.0
C617 C 0.75536 0.81136 0.85788 0.0
C618 C 1.00949 0.75791 0.19018 0.0
C619 C 0.06591 0.79514 0.1983 0.0
H620 H 0.92043 0.71258 0.19945 0.0
C621 C 0.07551 0.80414 0.224 0.0
H622 H 1.00034 0.74956 0.1705 0.0
C623 C 0.02931 0.78249 0.24069 0.0
C624 C 0.97228 0.75143 0.23212 0.0
H625 H 0.11799 0.83255 0.23102 0.0
H626 H 0.03825 0.79444 0.26011 0.0
C627 C 0.96331 0.73644 0.20683 0.0
C628 C 0.22649 0.95333 0.53304 0.0
C629 C 0.22773 0.96203 0.55887 0.0
H630 H 0.24362 0.99118 0.49678 0.0
C631 C 0.2587 0.01861 0.56774 0.0
H632 H 0.20313 0.91075 0.52541 0.0
C633 C 0.28204 0.06509 0.55127 0.0
C634 C 0.27491 0.05636 0.52544 0.0
H635 H 0.26104 0.02722 0.58753 0.0
H636 H 0.30097 0.10765 0.55889 0.0
C637 C 0.24965 0.99981 0.51658 0.0
C638 C 0.25018 0.25815 0.89768 0.0
C639 C 0.27494 0.22625 0.88897 0.0
H640 H 0.2042 0.30119 0.88859 0.0
C641 C 0.28295 0.22491 0.86322 0.0
H642 H 0.24356 0.26042 0.91744 0.0
C643 C 0.26023 0.24851 0.8466 0.0
C644 C 0.22904 0.27413 0.85531 0.0
H645 H 0.30144 0.20068 0.85577 0.0
H646 H 0.26273 0.2421 0.82684 0.0
C647 C 0.22765 0.28188 0.88109 0.0
C648 C 0.15213 0.09655 0.21931 0.0
C649 C 0.20389 0.14472 0.22618 0.0
H650 H 0.11071 0.01849 0.19874 0.0
C651 C 0.25508 0.15012 0.21708 0.0
H652 H 0.11192 0.09135 0.22579 0.0
C653 C 0.25443 0.10748 0.20197 0.0
C654 C 0.20249 0.05961 0.19493 0.0
H655 H 0.2956 0.18681 0.22199 0.0
H656 H 0.29452 0.11215 0.19563 0.0
C657 C 0.1514 0.05501 0.20361 0.0
C658 C 0.06407 0.1482 0.54868 0.0
C659 C 0.06868 0.19964 0.55665 0.0
H660 H 0.10006 0.10753 0.52715 0.0
C661 C 0.11572 0.25108 0.54872 0.0
H662 H 0.02806 0.10788 0.55427 0.0
C663 C 0.15801 0.25087 0.5336 0.0
C664 C 0.15276 0.19923 0.52539 0.0
H665 H 0.12025 0.29134 0.55454 0.0
H666 H 0.19442 0.29098 0.52811 0.0
C667 C 0.10508 0.14801 0.53296 0.0
C668 C 0.96784 0.09828 0.86388 0.0
C669 C 0.96427 0.1465 0.85726 0.0
H670 H 0.93094 0.01983 0.88409 0.0
C671 C 0.91838 0.15165 0.86637 0.0
H672 H 1.00295 0.0933 0.85738 0.0
C673 C 0.87626 0.10874 0.88129 0.0
C674 C 0.88027 0.06082 0.8881 0.0
H675 H 0.91457 0.18838 0.86165 0.0
H676 H 0.84079 0.11326 0.88767 0.0
C677 C 0.92684 0.05641 0.87939 0.0
C678 C 0.77867 0.86952 0.21764 0.0
C679 C 0.82976 0.87483 0.22682 0.0
H680 H 0.73956 0.90761 0.19604 0.0
C681 C 0.88162 0.92292 0.22008 0.0
H682 H 0.73809 0.83288 0.22248 0.0
C683 C 0.88257 0.96444 0.20437 0.0
C684 C 0.83161 0.95993 0.19556 0.0
H685 H 0.92175 0.92805 0.22665 0.0
H686 H 0.92335 1.00083 0.19954 0.0
C687 C 0.77953 0.91221 0.20252 0.0
C688 C 0.92507 0.87023 0.53559 0.0
C689 C 0.87804 0.81888 0.52762 0.0
H690 H 1.00191 0.91068 0.55708 0.0
C691 C 0.87347 0.76735 0.53546 0.0
H692 H 0.92952 0.91061 0.53006 0.0
C693 C 0.916 0.7674 0.55051 0.0
C694 C 0.96258 0.81896 0.55874 0.0
H695 H 0.83758 0.72716 0.52963 0.0
H696 H 0.91214 0.72724 0.55595 0.0
C697 C 0.9663 0.87026 0.55126 0.0
C698 C 0.16585 0.9557 0.863 0.0
C699 C 0.15682 0.95584 0.88879 0.0
H700 H 0.13104 0.916 0.82771 0.0
C701 C 0.10631 0.91172 0.89905 0.0
H702 H 0.20418 0.98947 0.85456 0.0
C703 C 0.06552 0.8685 0.8838 0.0
C704 C 0.07348 0.86986 0.85788 0.0
H705 H 0.0982 0.9109 0.91884 0.0
H706 H 0.02656 0.83543 0.89211 0.0
C707 C 0.12408 0.9138 0.84764 0.0
loop_
_geom_bond_atom_site_label_1
_geom_bond_atom_site_label_2
_geom_bond_distance
_geom_bond_site_symmetry_2
_ccdc_geom_bond_type
Co0 O3 1.970 . S
Co0 N17 1.989 . S
Co0 O25 1.967 . S
Co0 O32 1.920 . S
Co1 O4 1.966 . S
Co1 N10 2.022 . S
Co1 N18 1.993 . S
Co1 O26 1.941 . S
C2 O3 1.258 . S
C2 O4 1.263 . S
O3 Co0 1.970 . S
O3 C2 1.258 . S
O4 Co1 1.966 . S
O4 C2 1.263 . S
C5 O6 1.235 . S
C5 O32 1.289 . S
O6 C5 1.235 . S
C7 C9 1.400 . S
C7 N10 1.351 . S
C7 C12 1.501 . S
C8 C9 1.387 . S
C8 N11 1.341 . S
C9 C7 1.400 . S
C9 C8 1.387 . S
N10 Co1 2.022 . S
N10 C7 1.351 . S
N10 N11 1.365 . S
N11 C8 1.341 . S
N11 N10 1.365 . S
N11 H31 0.862 . S
C12 C7 1.501 . S
C12 H13 0.961 . S
C12 H14 0.961 . S
C12 H15 0.960 . S
H13 C12 0.961 . S
H14 C12 0.961 . S
H15 C12 0.960 . S
C16 N17 1.342 . S
C16 C20 1.401 . S
C16 C21 1.499 . S
N17 Co0 1.989 . S
N17 C16 1.342 . S
N17 N18 1.388 . S
N18 Co1 1.993 . S
N18 N17 1.388 . S
N18 C19 1.346 . S
C19 N18 1.346 . S
C19 C20 1.396 . S
C19 C29 1.510 . S
C20 C16 1.401 . S
C20 C19 1.396 . S
C21 C16 1.499 . S
C21 H22 0.959 . S
C21 H23 0.960 . S
C21 H24 0.961 . S
H22 C21 0.959 . S
H23 C21 0.960 . S
H24 C21 0.961 . S
O25 Co0 1.967 . S
O25 C33 1.258 . S
O26 Co1 1.941 . S
O26 C33 1.266 . S
H27 C29 0.959 . S
H28 C29 0.961 . S
C29 C19 1.510 . S
C29 H27 0.959 . S
C29 H28 0.961 . S
C29 H30 0.960 . S
H30 C29 0.960 . S
H31 N11 0.862 . S
O32 Co0 1.920 . S
O32 C5 1.289 . S
C33 O25 1.258 . S
C33 O26 1.266 . S
Co34 O37 1.970 1_655 S
Co34 N51 1.989 . S
Co34 O59 1.967 . S
Co34 O66 1.920 . S
Co35 O38 1.966 . S
Co35 N44 2.022 . S
Co35 N52 1.993 . S
Co35 O60 1.941 . S
C36 O37 1.258 . S
C36 O38 1.263 1_455 S
O37 Co34 1.970 1_455 S
O37 C36 1.258 . S
O38 Co35 1.966 . S
O38 C36 1.263 1_655 S
C39 O40 1.235 1_655 S
C39 O66 1.289 . S
O40 C39 1.235 1_455 S
C41 C43 1.400 . S
C41 N44 1.351 . S
C41 C46 1.501 1_655 S
C42 C43 1.387 . S
C42 N45 1.341 . S
C43 C41 1.400 . S
C43 C42 1.387 . S
N44 Co35 2.022 . S
N44 C41 1.351 . S
N44 N45 1.365 . S
N45 C42 1.341 . S
N45 N44 1.365 . S
N45 H65 0.862 . S
C46 C41 1.501 1_455 S
C46 H47 0.961 . S
C46 H48 0.961 . S
C46 H49 0.960 . S
H47 C46 0.961 . S
H48 C46 0.961 . S
H49 C46 0.960 . S
C50 N51 1.342 . S
C50 C54 1.401 . S
C50 C55 1.499 . S
N51 Co34 1.989 . S
N51 C50 1.342 . S
N51 N52 1.388 . S
N52 Co35 1.993 . S
N52 N51 1.388 . S
N52 C53 1.346 . S
C53 N52 1.346 . S
C53 C54 1.396 . S
C53 C63 1.510 . S
C54 C50 1.401 . S
C54 C53 1.396 . S
C55 C50 1.499 . S
C55 H56 0.959 . S
C55 H57 0.960 . S
C55 H58 0.961 . S
H56 C55 0.959 . S
H57 C55 0.960 . S
H58 C55 0.961 . S
O59 Co34 1.967 . S
O59 C67 1.258 . S
O60 Co35 1.941 . S
O60 C67 1.266 . S
H61 C63 0.959 . S
H62 C63 0.961 . S
C63 C53 1.510 . S
C63 H61 0.959 . S
C63 H62 0.961 . S
C63 H64 0.960 . S
H64 C63 0.960 . S
H65 N45 0.862 . S
O66 Co34 1.920 . S
O66 C39 1.289 . S
C67 O59 1.258 . S
C67 O60 1.266 . S
Co68 O71 1.970 1_565 S
Co68 N85 1.989 . S
Co68 O93 1.967 . S
Co68 O100 1.920 . S
Co69 O72 1.966 . S
Co69 N78 2.022 . S
Co69 N86 1.993 . S
Co69 O94 1.941 . S
C70 O71 1.258 . S
C70 O72 1.263 1_545 S
O71 Co68 1.970 1_545 S
O71 C70 1.258 . S
O72 Co69 1.966 . S
O72 C70 1.263 1_565 S
C73 O74 1.235 1_565 S
C73 O100 1.289 . S
O74 C73 1.235 1_545 S
C75 C77 1.400 . S
C75 N78 1.351 . S
C75 C80 1.501 1_565 S
C76 C77 1.387 . S
C76 N79 1.341 . S
C77 C75 1.400 . S
C77 C76 1.387 . S
N78 Co69 2.022 . S
N78 C75 1.351 . S
N78 N79 1.365 . S
N79 C76 1.341 . S
N79 N78 1.365 . S
N79 H99 0.862 . S
C80 C75 1.501 1_545 S
C80 H81 0.961 . S
C80 H82 0.961 . S
C80 H83 0.960 . S
H81 C80 0.961 . S
H82 C80 0.961 . S
H83 C80 0.960 . S
C84 N85 1.342 . S
C84 C88 1.401 . S
C84 C89 1.499 . S
N85 Co68 1.989 . S
N85 C84 1.342 . S
N85 N86 1.388 . S
N86 Co69 1.993 . S
N86 N85 1.388 . S
N86 C87 1.346 . S
C87 N86 1.346 . S
C87 C88 1.396 . S
C87 C97 1.510 . S
C88 C84 1.401 . S
C88 C87 1.396 . S
C89 C84 1.499 . S
C89 H90 0.959 . S
C89 H91 0.960 . S
C89 H92 0.961 . S
H90 C89 0.959 . S
H91 C89 0.960 . S
H92 C89 0.961 . S
O93 Co68 1.967 . S
O93 C101 1.258 . S
O94 Co69 1.941 . S
O94 C101 1.266 . S
H95 C97 0.959 . S
H96 C97 0.961 . S
C97 C87 1.510 . S
C97 H95 0.959 . S
C97 H96 0.961 . S
C97 H98 0.960 . S
H98 C97 0.960 . S
H99 N79 0.862 . S
O100 Co68 1.920 . S
O100 C73 1.289 . S
C101 O93 1.258 . S
C101 O94 1.266 . S
Co102 O105 1.970 . S
Co102 N119 1.989 . S
Co102 O127 1.967 . S
Co102 O134 1.920 . S
Co103 O106 1.966 . S
Co103 N112 2.022 . S
Co103 N120 1.993 . S
Co103 O128 1.941 . S
C104 O105 1.258 . S
C104 O106 1.263 . S
O105 Co102 1.970 . S
O105 C104 1.258 . S
O106 Co103 1.966 . S
O106 C104 1.263 . S
C107 O108 1.235 . S
C107 O134 1.289 . S
O108 C107 1.235 . S
C109 C111 1.400 . S
C109 N112 1.351 . S
C109 C114 1.501 . S
C110 C111 1.387 . S
C110 N113 1.341 . S
C111 C109 1.400 . S
C111 C110 1.387 . S
N112 Co103 2.022 . S
N112 C109 1.351 . S
N112 N113 1.365 . S
N113 C110 1.341 . S
N113 N112 1.365 . S
N113 H133 0.862 . S
C114 C109 1.501 . S
C114 H115 0.961 . S
C114 H116 0.961 . S
C114 H117 0.960 . S
H115 C114 0.961 . S
H116 C114 0.961 . S
H117 C114 0.960 . S
C118 N119 1.342 . S
C118 C122 1.401 . S
C118 C123 1.499 . S
N119 Co102 1.989 . S
N119 C118 1.342 . S
N119 N120 1.388 . S
N120 Co103 1.993 . S
N120 N119 1.388 . S
N120 C121 1.346 . S
C121 N120 1.346 . S
C121 C122 1.396 . S
C121 C131 1.510 . S
C122 C118 1.401 . S
C122 C121 1.396 . S
C123 C118 1.499 . S
C123 H124 0.959 . S
C123 H125 0.960 . S
C123 H126 0.961 . S
H124 C123 0.959 . S
H125 C123 0.960 . S
H126 C123 0.961 . S
O127 Co102 1.967 . S
O127 C135 1.258 . S
O128 Co103 1.941 . S
O128 C135 1.266 . S
H129 C131 0.959 . S
H130 C131 0.961 . S
C131 C121 1.510 . S
C131 H129 0.959 . S
C131 H130 0.961 . S
C131 H132 0.960 . S
H132 C131 0.960 . S
H133 N113 0.862 . S
O134 Co102 1.920 . S
O134 C107 1.289 . S
C135 O127 1.258 . S
C135 O128 1.266 . S
Co136 O139 1.970 1_455 S
Co136 N153 1.989 . S
Co136 O161 1.967 . S
Co136 O168 1.920 . S
Co137 O140 1.966 . S
Co137 N146 2.022 . S
Co137 N154 1.993 . S
Co137 O162 1.941 . S
C138 O139 1.258 . S
C138 O140 1.263 1_655 S
O139 Co136 1.970 1_655 S
O139 C138 1.258 . S
O140 Co137 1.966 . S
O140 C138 1.263 1_455 S
C141 O142 1.235 1_455 S
C141 O168 1.289 . S
O142 C141 1.235 1_655 S
C143 C145 1.400 . S
C143 N146 1.351 . S
C143 C148 1.501 1_455 S
C144 C145 1.387 . S
C144 N147 1.341 . S
C145 C143 1.400 . S
C145 C144 1.387 . S
N146 Co137 2.022 . S
N146 C143 1.351 . S
N146 N147 1.365 . S
N147 C144 1.341 . S
N147 N146 1.365 . S
N147 H167 0.862 . S
C148 C143 1.501 1_655 S
C148 H149 0.961 . S
C148 H150 0.961 . S
C148 H151 0.960 . S
H149 C148 0.961 . S
H150 C148 0.961 . S
H151 C148 0.960 . S
C152 N153 1.342 . S
C152 C156 1.401 . S
C152 C157 1.499 . S
N153 Co136 1.989 . S
N153 C152 1.342 . S
N153 N154 1.388 . S
N154 Co137 1.993 . S
N154 N153 1.388 . S
N154 C155 1.346 . S
C155 N154 1.346 . S
C155 C156 1.396 . S
C155 C165 1.510 . S
C156 C152 1.401 . S
C156 C155 1.396 . S
C157 C152 1.499 . S
C157 H158 0.959 . S
C157 H159 0.960 . S
C157 H160 0.961 . S
H158 C157 0.959 . S
H159 C157 0.960 . S
H160 C157 0.961 . S
O161 Co136 1.967 . S
O161 C169 1.258 . S
O162 Co137 1.941 . S
O162 C169 1.266 . S
H163 C165 0.959 . S
H164 C165 0.961 . S
C165 C155 1.510 . S
C165 H163 0.959 . S
C165 H164 0.961 . S
C165 H166 0.960 . S
H166 C165 0.960 . S
H167 N147 0.862 . S
O168 Co136 1.920 . S
O168 C141 1.289 . S
C169 O161 1.258 . S
C169 O162 1.266 . S
Co170 O173 1.970 1_545 S
Co170 N187 1.989 . S
Co170 O195 1.967 . S
Co170 O202 1.920 . S
Co171 O174 1.966 . S
Co171 N180 2.022 . S
Co171 N188 1.993 . S
Co171 O196 1.941 . S
C172 O173 1.258 . S
C172 O174 1.263 1_565 S
O173 Co170 1.970 1_565 S
O173 C172 1.258 . S
O174 Co171 1.966 . S
O174 C172 1.263 1_545 S
C175 O176 1.235 1_545 S
C175 O202 1.289 . S
O176 C175 1.235 1_565 S
C177 C179 1.400 . S
C177 N180 1.351 . S
C177 C182 1.501 1_545 S
C178 C179 1.387 . S
C178 N181 1.341 . S
C179 C177 1.400 . S
C179 C178 1.387 . S
N180 Co171 2.022 . S
N180 C177 1.351 . S
N180 N181 1.365 . S
N181 C178 1.341 . S
N181 N180 1.365 . S
N181 H201 0.862 . S
C182 C177 1.501 1_565 S
C182 H183 0.961 . S
C182 H184 0.961 . S
C182 H185 0.960 . S
H183 C182 0.961 . S
H184 C182 0.961 . S
H185 C182 0.960 . S
C186 N187 1.342 . S
C186 C190 1.401 . S
C186 C191 1.499 . S
N187 Co170 1.989 . S
N187 C186 1.342 . S
N187 N188 1.388 . S
N188 Co171 1.993 . S
N188 N187 1.388 . S
N188 C189 1.346 . S
C189 N188 1.346 . S
C189 C190 1.396 . S
C189 C199 1.510 . S
C190 C186 1.401 . S
C190 C189 1.396 . S
C191 C186 1.499 . S
C191 H192 0.959 . S
C191 H193 0.960 . S
C191 H194 0.961 . S
H192 C191 0.959 . S
H193 C191 0.960 . S
H194 C191 0.961 . S
O195 Co170 1.967 . S
O195 C203 1.258 . S
O196 Co171 1.941 . S
O196 C203 1.266 . S
H197 C199 0.959 . S
H198 C199 0.961 . S
C199 C189 1.510 . S
C199 H197 0.959 . S
C199 H198 0.961 . S
C199 H200 0.960 . S
H200 C199 0.960 . S
H201 N181 0.862 . S
O202 Co170 1.920 . S
O202 C175 1.289 . S
C203 O195 1.258 . S
C203 O196 1.266 . S
Co204 O207 1.970 . S
Co204 N221 1.989 . S
Co204 O229 1.967 . S
Co204 O236 1.920 . S
Co205 O208 1.966 . S
Co205 N214 2.022 . S
Co205 N222 1.993 . S
Co205 O230 1.941 . S
C206 O207 1.258 . S
C206 O208 1.263 . S
O207 Co204 1.970 . S
O207 C206 1.258 . S
O208 Co205 1.966 . S
O208 C206 1.263 . S
C209 O210 1.235 . S
C209 O236 1.289 . S
O210 C209 1.235 . S
C211 C213 1.400 . S
C211 N214 1.351 . S
C211 C216 1.501 . S
C212 C213 1.387 . S
C212 N215 1.341 . S
C213 C211 1.400 . S
C213 C212 1.387 . S
N214 Co205 2.022 . S
N214 C211 1.351 . S
N214 N215 1.365 . S
N215 C212 1.341 . S
N215 N214 1.365 . S
N215 H235 0.862 . S
C216 C211 1.501 . S
C216 H217 0.961 . S
C216 H218 0.961 . S
C216 H219 0.960 . S
H217 C216 0.961 . S
H218 C216 0.961 . S
H219 C216 0.960 . S
C220 N221 1.342 . S
C220 C224 1.401 . S
C220 C225 1.499 . S
N221 Co204 1.989 . S
N221 C220 1.342 . S
N221 N222 1.388 . S
N222 Co205 1.993 . S
N222 N221 1.388 . S
N222 C223 1.346 . S
C223 N222 1.346 . S
C223 C224 1.396 . S
C223 C233 1.510 . S
C224 C220 1.401 . S
C224 C223 1.396 . S
C225 C220 1.499 . S
C225 H226 0.959 . S
C225 H227 0.960 . S
C225 H228 0.961 . S
H226 C225 0.959 . S
H227 C225 0.960 . S
H228 C225 0.961 . S
O229 Co204 1.967 . S
O229 C237 1.258 . S
O230 Co205 1.941 . S
O230 C237 1.266 . S
H231 C233 0.959 . S
H232 C233 0.961 . S
C233 C223 1.510 . S
C233 H231 0.959 . S
C233 H232 0.961 . S
C233 H234 0.960 . S
H234 C233 0.960 . S
H235 N215 0.862 . S
O236 Co204 1.920 . S
O236 C209 1.289 . S
C237 O229 1.258 . S
C237 O230 1.266 . S
Co238 O241 1.970 1_655 S
Co238 N255 1.989 . S
Co238 O263 1.967 . S
Co238 O270 1.920 . S
Co239 O242 1.966 . S
Co239 N248 2.022 . S
Co239 N256 1.993 . S
Co239 O264 1.941 . S
C240 O241 1.258 . S
C240 O242 1.263 1_455 S
O241 Co238 1.970 1_455 S
O241 C240 1.258 . S
O242 Co239 1.966 . S
O242 C240 1.263 1_655 S
C243 O244 1.235 1_655 S
C243 O270 1.289 . S
O244 C243 1.235 1_455 S
C245 C247 1.400 . S
C245 N248 1.351 . S
C245 C250 1.501 1_655 S
C246 C247 1.387 . S
C246 N249 1.341 . S
C247 C245 1.400 . S
C247 C246 1.387 . S
N248 Co239 2.022 . S
N248 C245 1.351 . S
N248 N249 1.365 . S
N249 C246 1.341 . S
N249 N248 1.365 . S
N249 H269 0.862 . S
C250 C245 1.501 1_455 S
C250 H251 0.961 . S
C250 H252 0.961 . S
C250 H253 0.960 . S
H251 C250 0.961 . S
H252 C250 0.961 . S
H253 C250 0.960 . S
C254 N255 1.342 . S
C254 C258 1.401 . S
C254 C259 1.499 . S
N255 Co238 1.989 . S
N255 C254 1.342 . S
N255 N256 1.388 . S
N256 Co239 1.993 . S
N256 N255 1.388 . S
N256 C257 1.346 . S
C257 N256 1.346 . S
C257 C258 1.396 . S
C257 C267 1.510 . S
C258 C254 1.401 . S
C258 C257 1.396 . S
C259 C254 1.499 . S
C259 H260 0.959 . S
C259 H261 0.960 . S
C259 H262 0.961 . S
H260 C259 0.959 . S
H261 C259 0.960 . S
H262 C259 0.961 . S
O263 Co238 1.967 . S
O263 C271 1.258 . S
O264 Co239 1.941 . S
O264 C271 1.266 . S
H265 C267 0.959 . S
H266 C267 0.961 . S
C267 C257 1.510 . S
C267 H265 0.959 . S
C267 H266 0.961 . S
C267 H268 0.960 . S
H268 C267 0.960 . S
H269 N249 0.862 . S
O270 Co238 1.920 . S
O270 C243 1.289 . S
C271 O263 1.258 . S
C271 O264 1.266 . S
Co272 O275 1.970 1_565 S
Co272 N289 1.989 . S
Co272 O297 1.967 . S
Co272 O304 1.920 . S
Co273 O276 1.966 . S
Co273 N282 2.022 . S
Co273 N290 1.993 . S
Co273 O298 1.941 . S
C274 O275 1.258 . S
C274 O276 1.263 1_545 S
O275 Co272 1.970 1_545 S
O275 C274 1.258 . S
O276 Co273 1.966 . S
O276 C274 1.263 1_565 S
C277 O278 1.235 1_565 S
C277 O304 1.289 . S
O278 C277 1.235 1_545 S
C279 C281 1.400 . S
C279 N282 1.351 . S
C279 C284 1.501 1_565 S
C280 C281 1.387 . S
C280 N283 1.341 . S
C281 C279 1.400 . S
C281 C280 1.387 . S
N282 Co273 2.022 . S
N282 C279 1.351 . S
N282 N283 1.365 . S
N283 C280 1.341 . S
N283 N282 1.365 . S
N283 H303 0.862 . S
C284 C279 1.501 1_545 S
C284 H285 0.961 . S
C284 H286 0.961 . S
C284 H287 0.960 . S
H285 C284 0.961 . S
H286 C284 0.961 . S
H287 C284 0.960 . S
C288 N289 1.342 . S
C288 C292 1.401 . S
C288 C293 1.499 . S
N289 Co272 1.989 . S
N289 C288 1.342 . S
N289 N290 1.388 . S
N290 Co273 1.993 . S
N290 N289 1.388 . S
N290 C291 1.346 . S
C291 N290 1.346 . S
C291 C292 1.396 . S
C291 C301 1.510 . S
C292 C288 1.401 . S
C292 C291 1.396 . S
C293 C288 1.499 . S
C293 H294 0.959 . S
C293 H295 0.960 . S
C293 H296 0.961 . S
H294 C293 0.959 . S
H295 C293 0.960 . S
H296 C293 0.961 . S
O297 Co272 1.967 . S
O297 C305 1.258 . S
O298 Co273 1.941 . S
O298 C305 1.266 . S
H299 C301 0.959 . S
H300 C301 0.961 . S
C301 C291 1.510 . S
C301 H299 0.959 . S
C301 H300 0.961 . S
C301 H302 0.960 . S
H302 C301 0.960 . S
H303 N283 0.862 . S
O304 Co272 1.920 . S
O304 C277 1.289 . S
C305 O297 1.258 . S
C305 O298 1.266 . S
Co306 O309 1.970 . S
Co306 N323 1.989 . S
Co306 O331 1.967 . S
Co306 O338 1.920 . S
Co307 O310 1.966 . S
Co307 N316 2.022 . S
Co307 N324 1.993 . S
Co307 O332 1.941 . S
C308 O309 1.258 . S
C308 O310 1.263 . S
O309 Co306 1.970 . S
O309 C308 1.258 . S
O310 Co307 1.966 . S
O310 C308 1.263 . S
C311 O312 1.235 . S
C311 O338 1.289 . S
O312 C311 1.235 . S
C313 C315 1.400 . S
C313 N316 1.351 . S
C313 C318 1.501 . S
C314 C315 1.387 . S
C314 N317 1.341 . S
C315 C313 1.400 . S
C315 C314 1.387 . S
N316 Co307 2.022 . S
N316 C313 1.351 . S
N316 N317 1.365 . S
N317 C314 1.341 . S
N317 N316 1.365 . S
N317 H337 0.862 . S
C318 C313 1.501 . S
C318 H319 0.961 . S
C318 H320 0.961 . S
C318 H321 0.960 . S
H319 C318 0.961 . S
H320 C318 0.961 . S
H321 C318 0.960 . S
C322 N323 1.342 . S
C322 C326 1.401 . S
C322 C327 1.499 . S
N323 Co306 1.989 . S
N323 C322 1.342 . S
N323 N324 1.388 . S
N324 Co307 1.993 . S
N324 N323 1.388 . S
N324 C325 1.346 . S
C325 N324 1.346 . S
C325 C326 1.396 . S
C325 C335 1.510 . S
C326 C322 1.401 . S
C326 C325 1.396 . S
C327 C322 1.499 . S
C327 H328 0.959 . S
C327 H329 0.960 . S
C327 H330 0.961 . S
H328 C327 0.959 . S
H329 C327 0.960 . S
H330 C327 0.961 . S
O331 Co306 1.967 . S
O331 C339 1.258 . S
O332 Co307 1.941 . S
O332 C339 1.266 . S
H333 C335 0.959 . S
H334 C335 0.961 . S
C335 C325 1.510 . S
C335 H333 0.959 . S
C335 H334 0.961 . S
C335 H336 0.960 . S
H336 C335 0.960 . S
H337 N317 0.862 . S
O338 Co306 1.920 . S
O338 C311 1.289 . S
C339 O331 1.258 . S
C339 O332 1.266 . S
Co340 O343 1.970 1_455 S
Co340 N357 1.989 . S
Co340 O365 1.967 . S
Co340 O372 1.920 . S
Co341 O344 1.966 . S
Co341 N350 2.022 . S
Co341 N358 1.993 . S
Co341 O366 1.941 . S
C342 O343 1.258 . S
C342 O344 1.263 1_655 S
O343 Co340 1.970 1_655 S
O343 C342 1.258 . S
O344 Co341 1.966 . S
O344 C342 1.263 1_455 S
C345 O346 1.235 1_455 S
C345 O372 1.289 . S
O346 C345 1.235 1_655 S
C347 C349 1.400 . S
C347 N350 1.351 . S
C347 C352 1.501 1_455 S
C348 C349 1.387 . S
C348 N351 1.341 . S
C349 C347 1.400 . S
C349 C348 1.387 . S
N350 Co341 2.022 . S
N350 C347 1.351 . S
N350 N351 1.365 . S
N351 C348 1.341 . S
N351 N350 1.365 . S
N351 H371 0.862 . S
C352 C347 1.501 1_655 S
C352 H353 0.961 . S
C352 H354 0.961 . S
C352 H355 0.960 . S
H353 C352 0.961 . S
H354 C352 0.961 . S
H355 C352 0.960 . S
C356 N357 1.342 . S
C356 C360 1.401 . S
C356 C361 1.499 . S
N357 Co340 1.989 . S
N357 C356 1.342 . S
N357 N358 1.388 . S
N358 Co341 1.993 . S
N358 N357 1.388 . S
N358 C359 1.346 . S
C359 N358 1.346 . S
C359 C360 1.396 . S
C359 C369 1.510 . S
C360 C356 1.401 . S
C360 C359 1.396 . S
C361 C356 1.499 . S
C361 H362 0.959 . S
C361 H363 0.960 . S
C361 H364 0.961 . S
H362 C361 0.959 . S
H363 C361 0.960 . S
H364 C361 0.961 . S
O365 Co340 1.967 . S
O365 C373 1.258 . S
O366 Co341 1.941 . S
O366 C373 1.266 . S
H367 C369 0.959 . S
H368 C369 0.961 . S
C369 C359 1.510 . S
C369 H367 0.959 . S
C369 H368 0.961 . S
C369 H370 0.960 . S
H370 C369 0.960 . S
H371 N351 0.862 . S
O372 Co340 1.920 . S
O372 C345 1.289 . S
C373 O365 1.258 . S
C373 O366 1.266 . S
Co374 O377 1.970 1_545 S
Co374 N391 1.989 . S
Co374 O399 1.967 . S
Co374 O406 1.920 . S
Co375 O378 1.966 . S
Co375 N384 2.022 . S
Co375 N392 1.993 . S
Co375 O400 1.941 . S
C376 O377 1.258 . S
C376 O378 1.263 1_565 S
O377 Co374 1.970 1_565 S
O377 C376 1.258 . S
O378 Co375 1.966 . S
O378 C376 1.263 1_545 S
C379 O380 1.235 1_545 S
C379 O406 1.289 . S
O380 C379 1.235 1_565 S
C381 C383 1.400 . S
C381 N384 1.351 . S
C381 C386 1.501 1_545 S
C382 C383 1.387 . S
C382 N385 1.341 . S
C383 C381 1.400 . S
C383 C382 1.387 . S
N384 Co375 2.022 . S
N384 C381 1.351 . S
N384 N385 1.365 . S
N385 C382 1.341 . S
N385 N384 1.365 . S
N385 H405 0.862 . S
C386 C381 1.501 1_565 S
C386 H387 0.961 . S
C386 H388 0.961 . S
C386 H389 0.960 . S
H387 C386 0.961 . S
H388 C386 0.961 . S
H389 C386 0.960 . S
C390 N391 1.342 . S
C390 C394 1.401 . S
C390 C395 1.499 . S
N391 Co374 1.989 . S
N391 C390 1.342 . S
N391 N392 1.388 . S
N392 Co375 1.993 . S
N392 N391 1.388 . S
N392 C393 1.346 . S
C393 N392 1.346 . S
C393 C394 1.396 . S
C393 C403 1.510 . S
C394 C390 1.401 . S
C394 C393 1.396 . S
C395 C390 1.499 . S
C395 H396 0.959 . S
C395 H397 0.960 . S
C395 H398 0.961 . S
H396 C395 0.959 . S
H397 C395 0.960 . S
H398 C395 0.961 . S
O399 Co374 1.967 . S
O399 C407 1.258 . S
O400 Co375 1.941 . S
O400 C407 1.266 . S
H401 C403 0.959 . S
H402 C403 0.961 . S
C403 C393 1.510 . S
C403 H401 0.959 . S
C403 H402 0.961 . S
C403 H404 0.960 . S
H404 C403 0.960 . S
H405 N385 0.862 . S
O406 Co374 1.920 . S
O406 C379 1.289 . S
C407 O399 1.258 . S
C407 O400 1.266 . S
C408 C409 1.387 . S
C408 H412 0.950 . S
C408 C417 1.390 . S
C409 C408 1.387 . S
C409 C411 1.387 . S
H410 C417 0.950 . S
C411 C409 1.387 . S
C411 C413 1.390 . S
C411 H415 0.950 . S
H412 C408 0.950 . S
C413 C411 1.390 . S
C413 C414 1.387 . S
C413 H416 0.950 . S
C414 C413 1.387 . S
C414 C417 1.387 . S
H415 C411 0.950 . S
H416 C413 0.950 . S
C417 C408 1.390 . S
C417 H410 0.950 . S
C417 C414 1.387 . S
C418 C419 1.387 . S
C418 H422 0.950 . S
C418 C427 1.390 1_455 S
C419 C418 1.387 . S
C419 C421 1.387 . S
H420 C427 0.950 . S
C421 C419 1.387 . S
C421 C423 1.390 1_455 S
C421 H425 0.950 . S
H422 C418 0.950 . S
C423 C421 1.390 1_655 S
C423 C424 1.387 . S
C423 H426 0.950 . S
C424 C423 1.387 . S
C424 C427 1.387 . S
H425 C421 0.950 . S
H426 C423 0.950 . S
C427 C418 1.390 1_655 S
C427 H420 0.950 . S
C427 C424 1.387 . S
C428 C429 1.387 . S
C428 H432 0.950 . S
C428 C437 1.390 1_545 S
C429 C428 1.387 . S
C429 C431 1.387 . S
H430 C437 0.950 . S
C431 C429 1.387 . S
C431 C433 1.390 1_545 S
C431 H435 0.950 . S
H432 C428 0.950 . S
C433 C431 1.390 1_565 S
C433 C434 1.387 . S
C433 H436 0.950 . S
C434 C433 1.387 . S
C434 C437 1.387 . S
H435 C431 0.950 . S
H436 C433 0.950 . S
C437 C428 1.390 1_565 S
C437 H430 0.950 . S
C437 C434 1.387 . S
C438 C439 1.387 . S
C438 H442 0.950 . S
C438 C447 1.390 . S
C439 C438 1.387 . S
C439 C441 1.387 . S
H440 C447 0.950 . S
C441 C439 1.387 . S
C441 C443 1.390 . S
C441 H445 0.950 . S
H442 C438 0.950 . S
C443 C441 1.390 . S
C443 C444 1.387 . S
C443 H446 0.950 . S
C444 C443 1.387 . S
C444 C447 1.387 . S
H445 C441 0.950 . S
H446 C443 0.950 . S
C447 C438 1.390 . S
C447 H440 0.950 . S
C447 C444 1.387 . S
C448 C449 1.387 . S
C448 H452 0.950 . S
C448 C457 1.390 1_655 S
C449 C448 1.387 . S
C449 C451 1.387 . S
H450 C457 0.950 . S
C451 C449 1.387 . S
C451 C453 1.390 1_655 S
C451 H455 0.950 . S
H452 C448 0.950 . S
C453 C451 1.390 1_455 S
C453 C454 1.387 . S
C453 H456 0.950 . S
C454 C453 1.387 . S
C454 C457 1.387 . S
H455 C451 0.950 . S
H456 C453 0.950 . S
C457 C448 1.390 1_455 S
C457 H450 0.950 . S
C457 C454 1.387 . S
C458 C459 1.387 . S
C458 H462 0.950 . S
C458 C467 1.390 1_565 S
C459 C458 1.387 . S
C459 C461 1.387 . S
H460 C467 0.950 . S
C461 C459 1.387 . S
C461 C463 1.390 1_565 S
C461 H465 0.950 . S
H462 C458 0.950 . S
C463 C461 1.390 1_545 S
C463 C464 1.387 . S
C463 H466 0.950 . S
C464 C463 1.387 . S
C464 C467 1.387 . S
H465 C461 0.950 . S
H466 C463 0.950 . S
C467 C458 1.390 1_545 S
C467 H460 0.950 . S
C467 C464 1.387 . S
C468 C469 1.387 . S
C468 H472 0.950 . S
C468 C477 1.390 . S
C469 C468 1.387 . S
C469 C471 1.387 . S
H470 C477 0.950 . S
C471 C469 1.387 . S
C471 C473 1.390 . S
C471 H475 0.950 . S
H472 C468 0.950 . S
C473 C471 1.390 . S
C473 C474 1.387 . S
C473 H476 0.950 . S
C474 C473 1.387 . S
C474 C477 1.387 . S
H475 C471 0.950 . S
H476 C473 0.950 . S
C477 C468 1.390 . S
C477 H470 0.950 . S
C477 C474 1.387 . S
C478 C479 1.388 . S
C478 H482 0.949 . S
C478 C487 1.388 1_655 S
C479 C478 1.388 . S
C479 C481 1.387 . S
H480 C487 0.950 . S
C481 C479 1.387 . S
C481 C483 1.388 1_655 S
C481 H485 0.950 . S
H482 C478 0.949 . S
C483 C481 1.388 1_455 S
C483 C484 1.388 . S
C483 H486 0.949 . S
C484 C483 1.388 . S
C484 C487 1.387 . S
H485 C481 0.950 . S
H486 C483 0.949 . S
C487 C478 1.388 1_455 S
C487 H480 0.950 . S
C487 C484 1.387 . S
C488 C489 1.387 . S
C488 H492 0.950 . S
C488 C497 1.390 1_544 S
C489 C488 1.387 . S
C489 C491 1.387 . S
H490 C497 0.950 . S
C491 C489 1.387 . S
C491 C493 1.390 1_544 S
C491 H495 0.950 . S
H492 C488 0.950 . S
C493 C491 1.390 1_566 S
C493 C494 1.387 . S
C493 H496 0.950 . S
C494 C493 1.387 . S
C494 C497 1.387 . S
H495 C491 0.950 . S
H496 C493 0.950 . S
C497 C488 1.390 1_566 S
C497 H490 0.950 . S
C497 C494 1.387 . S
C498 C499 1.387 . S
C498 H502 0.950 . S
C498 C507 1.390 . S
C499 C498 1.387 . S
C499 C501 1.387 . S
H500 C507 0.950 . S
C501 C499 1.387 . S
C501 C503 1.390 . S
C501 H505 0.950 . S
H502 C498 0.950 . S
C503 C501 1.390 . S
C503 C504 1.387 . S
C503 H506 0.950 . S
C504 C503 1.387 . S
C504 C507 1.387 . S
H505 C501 0.950 . S
H506 C503 0.950 . S
C507 C498 1.390 . S
C507 H500 0.950 . S
C507 C504 1.387 . S
C508 C509 1.385 1_655 S
C508 H512 0.942 . S
C508 C517 1.400 . S
C509 C508 1.385 1_455 S
C509 C511 1.387 . S
H510 C517 0.950 . S
C511 C509 1.387 . S
C511 C513 1.401 . S
C511 H515 0.950 . S
H512 C508 0.942 . S
C513 C511 1.401 . S
C513 C514 1.385 1_455 S
C513 H516 0.942 . S
C514 C513 1.385 1_655 S
C514 C517 1.387 . S
H515 C511 0.950 . S
H516 C513 0.942 . S
C517 C508 1.400 . S
C517 H510 0.950 . S
C517 C514 1.387 . S
C518 C519 1.387 . S
C518 H522 0.950 . S
C518 C527 1.390 1_546 S
C519 C518 1.387 . S
C519 C521 1.387 . S
H520 C527 0.950 . S
C521 C519 1.387 . S
C521 C523 1.390 1_546 S
C521 H525 0.950 . S
H522 C518 0.950 . S
C523 C521 1.390 1_564 S
C523 C524 1.387 . S
C523 H526 0.950 . S
C524 C523 1.387 . S
C524 C527 1.387 . S
H525 C521 0.950 . S
H526 C523 0.950 . S
C527 C518 1.390 1_564 S
C527 H520 0.950 . S
C527 C524 1.387 . S
C528 C529 1.387 . S
C528 H532 0.950 . S
C528 C537 1.390 1_445 S
C529 C528 1.387 . S
C529 C531 1.387 . S
H530 C537 0.950 . S
C531 C529 1.387 . S
C531 C533 1.390 1_445 S
C531 H535 0.950 . S
H532 C528 0.950 . S
C533 C531 1.390 1_665 S
C533 C534 1.387 . S
C533 H536 0.950 . S
C534 C533 1.387 . S
C534 C537 1.387 . S
H535 C531 0.950 . S
H536 C533 0.950 . S
C537 C528 1.390 1_665 S
C537 H530 0.950 . S
C537 C534 1.387 . S
C538 C539 1.387 . S
C538 H542 0.950 . S
C538 C547 1.390 1_645 S
C539 C538 1.387 . S
C539 C541 1.387 . S
H540 C547 0.950 . S
C541 C539 1.387 . S
C541 C543 1.390 1_645 S
C541 H545 0.950 . S
H542 C538 0.950 . S
C543 C541 1.390 1_465 S
C543 C544 1.387 . S
C543 H546 0.950 . S
C544 C543 1.387 . S
C544 C547 1.387 . S
H545 C541 0.950 . S
H546 C543 0.950 . S
C547 C538 1.390 1_465 S
C547 H540 0.950 . S
C547 C544 1.387 . S
C548 C549 1.387 . S
C548 H552 0.950 . S
C548 C557 1.390 1_445 S
C549 C548 1.387 . S
C549 C551 1.387 . S
H550 C557 0.950 . S
C551 C549 1.387 . S
C551 C553 1.390 1_445 S
C551 H555 0.950 . S
H552 C548 0.950 . S
C553 C551 1.390 1_665 S
C553 C554 1.387 . S
C553 H556 0.950 . S
C554 C553 1.387 . S
C554 C557 1.387 . S
H555 C551 0.950 . S
H556 C553 0.950 . S
C557 C548 1.390 1_665 S
C557 H550 0.950 . S
C557 C554 1.387 . S
C558 C559 1.387 . S
C558 H562 0.950 . S
C558 C567 1.390 1_665 S
C559 C558 1.387 . S
C559 C561 1.387 . S
H560 C567 0.950 . S
C561 C559 1.387 . S
C561 C563 1.390 1_665 S
C561 H565 0.950 . S
H562 C558 0.950 . S
C563 C561 1.390 1_445 S
C563 C564 1.387 . S
C563 H566 0.950 . S
C564 C563 1.387 . S
C564 C567 1.387 . S
H565 C561 0.950 . S
H566 C563 0.950 . S
C567 C558 1.390 1_445 S
C567 H560 0.950 . S
C567 C564 1.387 . S
C568 C569 1.387 . S
C568 H572 0.950 . S
C568 C577 1.390 1_665 S
C569 C568 1.387 . S
C569 C571 1.387 . S
H570 C577 0.950 . S
C571 C569 1.387 . S
C571 C573 1.390 1_665 S
C571 H575 0.950 . S
H572 C568 0.950 . S
C573 C571 1.390 1_445 S
C573 C574 1.387 . S
C573 H576 0.950 . S
C574 C573 1.387 . S
C574 C577 1.387 . S
H575 C571 0.950 . S
H576 C573 0.950 . S
C577 C568 1.390 1_445 S
C577 H570 0.950 . S
C577 C574 1.387 . S
C578 C579 1.387 . S
C578 H582 0.950 . S
C578 C587 1.390 1_645 S
C579 C578 1.387 . S
C579 C581 1.387 . S
H580 C587 0.950 . S
C581 C579 1.387 . S
C581 C583 1.390 1_645 S
C581 H585 0.950 . S
H582 C578 0.950 . S
C583 C581 1.390 1_465 S
C583 C584 1.387 . S
C583 H586 0.950 . S
C584 C583 1.387 . S
C584 C587 1.387 . S
H585 C581 0.950 . S
H586 C583 0.950 . S
C587 C578 1.390 1_465 S
C587 H580 0.950 . S
C587 C584 1.387 . S
C588 C589 1.387 . S
C588 H592 0.950 . S
C588 C597 1.390 1_655 S
C589 C588 1.387 . S
C589 C591 1.387 . S
H590 C597 0.950 . S
C591 C589 1.387 . S
C591 C593 1.390 1_655 S
C591 H595 0.950 . S
H592 C588 0.950 . S
C593 C591 1.390 1_455 S
C593 C594 1.387 . S
C593 H596 0.950 . S
C594 C593 1.387 . S
C594 C597 1.387 . S
H595 C591 0.950 . S
H596 C593 0.950 . S
C597 C588 1.390 1_455 S
C597 H590 0.950 . S
C597 C594 1.387 . S
C598 C599 1.387 . S
C598 H602 0.950 . S
C598 C607 1.390 1_545 S
C599 C598 1.387 . S
C599 C601 1.387 . S
H600 C607 0.950 . S
C601 C599 1.387 . S
C601 C603 1.390 1_545 S
C601 H605 0.950 . S
H602 C598 0.950 . S
C603 C601 1.390 1_565 S
C603 C604 1.387 . S
C603 H606 0.950 . S
C604 C603 1.387 . S
C604 C607 1.387 . S
H605 C601 0.950 . S
H606 C603 0.950 . S
C607 C598 1.390 1_565 S
C607 H600 0.950 . S
C607 C604 1.387 . S
C608 C609 1.387 . S
C608 H612 0.950 . S
C608 C617 1.390 . S
C609 C608 1.387 . S
C609 C611 1.387 . S
H610 C617 0.950 . S
C611 C609 1.387 . S
C611 C613 1.390 . S
C611 H615 0.950 . S
H612 C608 0.950 . S
C613 C611 1.390 . S
C613 C614 1.387 . S
C613 H616 0.950 . S
C614 C613 1.387 . S
C614 C617 1.387 . S
H615 C611 0.950 . S
H616 C613 0.950 . S
C617 C608 1.390 . S
C617 H610 0.950 . S
C617 C614 1.387 . S
C618 C619 1.387 . S
C618 H622 0.950 . S
C618 C627 1.390 1_455 S
C619 C618 1.387 . S
C619 C621 1.387 . S
H620 C627 0.950 . S
C621 C619 1.387 . S
C621 C623 1.390 1_455 S
C621 H625 0.950 . S
H622 C618 0.950 . S
C623 C621 1.390 1_655 S
C623 C624 1.387 . S
C623 H626 0.950 . S
C624 C623 1.387 . S
C624 C627 1.387 . S
H625 C621 0.950 . S
H626 C623 0.950 . S
C627 C618 1.390 1_655 S
C627 H620 0.950 . S
C627 C624 1.387 . S
C628 C629 1.387 . S
C628 H632 0.950 . S
C628 C637 1.390 1_565 S
C629 C628 1.387 . S
C629 C631 1.387 . S
H630 C637 0.950 . S
C631 C629 1.387 . S
C631 C633 1.390 1_565 S
C631 H635 0.950 . S
H632 C628 0.950 . S
C633 C631 1.390 1_545 S
C633 C634 1.387 . S
C633 H636 0.950 . S
C634 C633 1.387 . S
C634 C637 1.387 . S
H635 C631 0.950 . S
H636 C633 0.950 . S
C637 C628 1.390 1_545 S
C637 H630 0.950 . S
C637 C634 1.387 . S
C638 C639 1.387 . S
C638 H642 0.950 . S
C638 C647 1.390 . S
C639 C638 1.387 . S
C639 C641 1.387 . S
H640 C647 0.950 . S
C641 C639 1.387 . S
C641 C643 1.390 . S
C641 H645 0.950 . S
H642 C638 0.950 . S
C643 C641 1.390 . S
C643 C644 1.387 . S
C643 H646 0.950 . S
C644 C643 1.387 . S
C644 C647 1.387 . S
H645 C641 0.950 . S
H646 C643 0.950 . S
C647 C638 1.390 . S
C647 H640 0.950 . S
C647 C644 1.387 . S
C648 C649 1.387 . S
C648 H652 0.950 . S
C648 C657 1.390 . S
C649 C648 1.387 . S
C649 C651 1.387 . S
H650 C657 0.950 . S
C651 C649 1.387 . S
C651 C653 1.390 . S
C651 H655 0.950 . S
H652 C648 0.950 . S
C653 C651 1.390 . S
C653 C654 1.387 . S
C653 H656 0.950 . S
C654 C653 1.387 . S
C654 C657 1.387 . S
H655 C651 0.950 . S
H656 C653 0.950 . S
C657 C648 1.390 . S
C657 H650 0.950 . S
C657 C654 1.387 . S
C658 C659 1.387 . S
C658 H662 0.950 . S
C658 C667 1.390 . S
C659 C658 1.387 . S
C659 C661 1.387 . S
H660 C667 0.950 . S
C661 C659 1.387 . S
C661 C663 1.390 . S
C661 H665 0.950 . S
H662 C658 0.950 . S
C663 C661 1.390 . S
C663 C664 1.387 . S
C663 H666 0.950 . S
C664 C663 1.387 . S
C664 C667 1.387 . S
H665 C661 0.950 . S
H666 C663 0.950 . S
C667 C658 1.390 . S
C667 H660 0.950 . S
C667 C664 1.387 . S
C668 C669 1.387 . S
C668 H672 0.950 . S
C668 C677 1.390 . S
C669 C668 1.387 . S
C669 C671 1.387 . S
H670 C677 0.950 . S
C671 C669 1.387 . S
C671 C673 1.390 . S
C671 H675 0.950 . S
H672 C668 0.950 . S
C673 C671 1.390 . S
C673 C674 1.387 . S
C673 H676 0.950 . S
C674 C673 1.387 . S
C674 C677 1.387 . S
H675 C671 0.950 . S
H676 C673 0.950 . S
C677 C668 1.390 . S
C677 H670 0.950 . S
C677 C674 1.387 . S
C678 C679 1.387 . S
C678 H682 0.950 . S
C678 C687 1.390 . S
C679 C678 1.387 . S
C679 C681 1.387 . S
H680 C687 0.950 . S
C681 C679 1.387 . S
C681 C683 1.390 . S
C681 H685 0.950 . S
H682 C678 0.950 . S
C683 C681 1.390 . S
C683 C684 1.387 . S
C683 H686 0.950 . S
C684 C683 1.387 . S
C684 C687 1.387 . S
H685 C681 0.950 . S
H686 C683 0.950 . S
C687 C678 1.390 . S
C687 H680 0.950 . S
C687 C684 1.387 . S
C688 C689 1.387 . S
C688 H692 0.950 . S
C688 C697 1.390 . S
C689 C688 1.387 . S
C689 C691 1.387 . S
H690 C697 0.950 . S
C691 C689 1.387 . S
C691 C693 1.390 . S
C691 H695 0.950 . S
H692 C688 0.950 . S
C693 C691 1.390 . S
C693 C694 1.387 . S
C693 H696 0.950 . S
C694 C693 1.387 . S
C694 C697 1.387 . S
H695 C691 0.950 . S
H696 C693 0.950 . S
C697 C688 1.390 . S
C697 H690 0.950 . S
C697 C694 1.387 . S
C698 C699 1.387 . S
C698 H702 0.950 . S
C698 C707 1.390 . S
C699 C698 1.387 . S
C699 C701 1.387 . S
H700 C707 0.950 . S
C701 C699 1.387 . S
C701 C703 1.390 . S
C701 H705 0.950 . S
H702 C698 0.950 . S
C703 C701 1.390 . S
C703 C704 1.387 . S
C703 H706 0.950 . S
C704 C703 1.387 . S
C704 C707 1.387 . S
H705 C701 0.950 . S
H706 C703 0.950 . S
C707 C698 1.390 . S
C707 H700 0.950 . S
C707 C704 1.387 . S
C409 C111 1.577 . S
C414 C9 1.577 . S
C419 C145 1.578 . S
C424 C43 1.578 . S
C429 C179 1.578 . S
C434 C77 1.578 . S
C439 C213 1.578 . S
C444 C315 1.578 . S
C449 C247 1.577 . S
C454 C349 1.577 . S
C459 C281 1.578 . S
C464 C383 1.578 . S
C469 C326 1.952 . S
C474 C20 1.952 . S
C479 C54 1.949 . S
C484 C360 1.949 . S
C489 C394 1.952 . S
C494 C88 1.952 . S
C499 C224 1.952 . S
C504 C122 1.951 . S
C509 C156 1.949 . S
C514 C258 1.949 . S
C519 C190 1.949 . S
C524 C292 1.949 . S
C529 C5 0.255 . S
C534 C107 0.255 . S
C539 C39 0.255 . S
C544 C141 0.255 . S
C549 C175 0.255 . S
C554 C73 0.255 . S
C559 C209 0.263 . S
C564 C311 0.263 . S
C569 C243 0.264 . S
C574 C345 0.264 . S
C579 C379 0.264 . S
C584 C277 0.264 . S
C589 C407 1.766 . S
C594 C33 1.765 . S
C599 C67 1.765 . S
C604 C237 1.765 . S
C609 C271 1.765 . S
C614 C101 1.766 . S
C619 C305 1.764 . S
C624 C135 1.766 . S
C629 C169 1.765 . S
C634 C339 1.765 . S
C639 C203 1.764 . S
C644 C373 1.766 . S
C649 C2 1.420 . S
C654 C274 1.422 . S
C659 C36 1.421 . S
C664 C308 1.421 . S
C669 C342 1.423 . S
C674 C70 1.421 . S
C679 C104 1.422 . S
C684 C376 1.424 . S
C689 C206 1.421 . S
C694 C138 1.421 . S
C699 C172 1.421 . S
C704 C240 1.423 . S
