# Generated by pormake.
# Topology sow, (4)-cn, num edge types: 1
# Building blocks:
#     Node 0, Type 0, BuildingBlock: ESEHIV_clean_sbu_0, # of connection points: 4
#     Node 1, Type 0, BuildingBlock: ESEHIV_clean_sbu_0, # of connection points: 4
#     Node 2, Type 0, BuildingBlock: ESEHIV_clean_sbu_0, # of connection points: 4
#     Node 3, Type 0, BuildingBlock: ESEHIV_clean_sbu_0, # of connection points: 4
#     Node 4, Type 0, BuildingBlock: ESEHIV_clean_sbu_0, # of connection points: 4
#     Node 5, Type 0, BuildingBlock: ESEHIV_clean_sbu_0, # of connection points: 4
#     Node 6, Type 0, BuildingBlock: ESEHIV_clean_sbu_0, # of connection points: 4
#     Node 7, Type 0, BuildingBlock: ESEHIV_clean_sbu_0, # of connection points: 4
#     Edge 8, Type (0, 0), BuildingBlock: KIFKEQ_clean_linker_1, # of connection points: 2
#     Edge 9, Type (0, 0), BuildingBlock: KIFKEQ_clean_linker_1, # of connection points: 2
#     Edge 10, Type (0, 0), BuildingBlock: KIFKEQ_clean_linker_1, # of connection points: 2
#     Edge 11, Type (0, 0), BuildingBlock: KIFKEQ_clean_linker_1, # of connection points: 2
#     Edge 12, Type (0, 0), BuildingBlock: KIFKEQ_clean_linker_1, # of connection points: 2
#     Edge 13, Type (0, 0), BuildingBlock: KIFKEQ_clean_linker_1, # of connection points: 2
#     Edge 14, Type (0, 0), BuildingBlock: KIFKEQ_clean_linker_1, # of connection points: 2
#     Edge 15, Type (0, 0), BuildingBlock: KIFKEQ_clean_linker_1, # of connection points: 2
#     Edge 16, Type (0, 0), BuildingBlock: KIFKEQ_clean_linker_1, # of connection points: 2
#     Edge 17, Type (0, 0), BuildingBlock: KIFKEQ_clean_linker_1, # of connection points: 2
#     Edge 18, Type (0, 0), BuildingBlock: KIFKEQ_clean_linker_1, # of connection points: 2
#     Edge 19, Type (0, 0), BuildingBlock: KIFKEQ_clean_linker_1, # of connection points: 2
#     Edge 20, Type (0, 0), BuildingBlock: KIFKEQ_clean_linker_1, # of connection points: 2
#     Edge 21, Type (0, 0), BuildingBlock: KIFKEQ_clean_linker_1, # of connection points: 2
#     Edge 22, Type (0, 0), BuildingBlock: KIFKEQ_clean_linker_1, # of connection points: 2
#     Edge 23, Type (0, 0), BuildingBlock: KIFKEQ_clean_linker_1, # of connection points: 2
# Relax obj value: 0.066
# Max RMSD: 0.214
# Mean RMSD: 0.187
data_MOF--net-sow--node1-ESEHIV_clean_sbu_0--edge1-KIFKEQ_clean_linker_1
_symmetry_space_group_name_H-M    P1
_symmetry_Int_Tables_number       1
_symmetry_cell_setting            triclinic
loop_
_symmetry_equiv_pos_as_xyz
'x, y, z'
_cell_length_a     49.316516
_cell_length_b     19.024191
_cell_length_c     22.727668
_cell_angle_alpha  90.749768
_cell_angle_beta   89.840844
_cell_angle_gamma 89.981439
loop_
_atom_site_label
_atom_site_type_symbol
_atom_site_fract_x
_atom_site_fract_y
_atom_site_fract_z
_atom_type_partial_charge
Cu0 Cu 0.16246 0.25941 0.19293 0.0
N1 N 0.18424 0.22795 0.25466 0.0
N2 N 0.21326 0.22332 0.33025 0.0
C3 C 0.20152 0.26463 0.28944 0.0
C4 C 0.20299 0.15844 0.32035 0.0
C5 C 0.18519 0.16152 0.27394 0.0
O6 O 0.18467 0.30494 0.13349 0.0
C7 C 0.11343 0.33379 0.19022 0.0
O8 O 0.1183 0.33438 0.13334 0.0
H9 H 0.20506 0.32048 0.28555 0.0
H10 H 0.17367 0.11824 0.25543 0.0
N11 N 0.14618 0.18244 0.15527 0.0
N12 N 0.11263 0.11651 0.11813 0.0
C13 C 0.12006 0.16263 0.16074 0.0
C14 C 0.1558 0.14653 0.10833 0.0
C15 C 0.13516 0.10579 0.08529 0.0
C16 C 0.19808 0.36167 0.13945 0.0
O17 O 0.19588 0.39836 0.18855 0.0
H18 H 0.10619 0.18569 0.19249 0.0
H19 H 0.17586 0.15311 0.08986 0.0
O20 O 0.13221 0.31369 0.22444 0.0
H21 H 0.20823 0.11165 0.3444 0.0
H22 H 0.13633 0.07331 0.04591 0.0
Cu23 Cu 0.39454 0.40712 0.7033 0.0
N24 N 0.37811 0.43503 0.77419 0.0
N25 N 0.34974 0.44708 0.85088 0.0
C26 C 0.35366 0.41785 0.7968 0.0
C27 C 0.37255 0.48401 0.86212 0.0
C28 C 0.38988 0.47661 0.81496 0.0
O29 O 0.36701 0.3834 0.64471 0.0
C30 C 0.43406 0.3009 0.67966 0.0
O31 O 0.42838 0.3129 0.62424 0.0
H32 H 0.33942 0.38324 0.77476 0.0
H33 H 0.40988 0.49936 0.81082 0.0
N34 N 0.41456 0.48314 0.6754 0.0
N35 N 0.44925 0.55041 0.64664 0.0
C36 C 0.44149 0.48622 0.66518 0.0
C37 C 0.40495 0.54736 0.66296 0.0
C38 C 0.42626 0.58897 0.64525 0.0
C39 C 0.3577 0.32197 0.63505 0.0
O40 O 0.36698 0.26925 0.66587 0.0
H41 H 0.45519 0.44277 0.67235 0.0
H42 H 0.3839 0.56281 0.6668 0.0
O43 O 0.42043 0.33245 0.71966 0.0
H44 H 0.37651 0.51424 0.90168 0.0
H45 H 0.42485 0.6432 0.63179 0.0
Cu46 Cu 0.66285 0.21789 0.85995 0.0
N47 N 0.6868 0.25432 0.80368 0.0
N48 N 0.71771 0.2636 0.73175 0.0
C49 C 0.70419 0.21947 0.76772 0.0
C50 C 0.70849 0.32848 0.74596 0.0
C51 C 0.68953 0.32258 0.79021 0.0
O52 O 0.68375 0.16956 0.9199 0.0
C53 C 0.62497 0.18126 0.7728 0.0
O54 O 0.64006 0.22292 0.7408 0.0
H55 H 0.70642 0.16291 0.76699 0.0
H56 H 0.67836 0.36512 0.81097 0.0
N57 N 0.64494 0.2914 0.89893 0.0
N58 N 0.61062 0.35238 0.93899 0.0
C59 C 0.61788 0.30111 0.90048 0.0
C60 C 0.65523 0.33835 0.93757 0.0
C61 C 0.63409 0.3761 0.9624 0.0
C62 C 0.69807 0.11449 0.91234 0.0
O63 O 0.6974 0.08131 0.86135 0.0
H64 H 0.60367 0.26862 0.87625 0.0
H65 H 0.6765 0.34287 0.94853 0.0
O66 O 0.63336 0.16418 0.8237 0.0
H67 H 0.71515 0.37699 0.7262 0.0
H68 H 0.63582 0.41683 0.99587 0.0
Cu69 Cu 0.89264 0.07047 0.34703 0.0
N70 N 0.87562 0.03509 0.27911 0.0
N71 N 0.84682 0.01914 0.20412 0.0
C72 C 0.85219 0.05591 0.25414 0.0
C73 C 0.86757 0.97339 0.19781 0.0
C74 C 0.88513 0.98296 0.2442 0.0
O75 O 0.86486 0.09804 0.40414 0.0
C76 C 0.92827 0.15387 0.27761 0.0
O77 O 0.91889 0.11529 0.23391 0.0
H78 H 0.83971 0.09821 0.27148 0.0
H79 H 0.90382 0.95468 0.25156 0.0
N80 N 0.91268 -0.00167 0.38082 0.0
N81 N 0.94708 0.93758 0.41902 0.0
C82 C 0.93976 -0.00483 0.38864 0.0
C83 C 0.90257 0.94077 0.40661 0.0
C84 C 0.92371 0.90324 0.43028 0.0
C85 C 0.86148 0.15974 0.4252 0.0
O86 O 0.87724 0.21083 0.40719 0.0
H87 H 0.95367 0.03547 0.37419 0.0
H88 H 0.88124 0.92785 0.40899 0.0
O89 O 0.91845 0.14568 0.32903 0.0
H90 H 0.86991 0.93573 0.16219 0.0
H91 H 0.922 0.85458 0.45416 0.0
Cu92 Cu 0.88497 0.86407 0.96855 0.0
N93 N 0.89521 0.78716 0.922 0.0
N94 N 0.92088 0.71469 0.86725 0.0
C95 C 0.92057 0.77049 0.90465 0.0
C96 C 0.89466 0.69559 0.86105 0.0
C97 C 0.87888 0.74037 0.89495 0.0
O98 O 0.91745 0.91988 0.98169 0.0
C99 C 0.85953 0.93787 0.87644 0.0
O100 O 0.88366 0.93478 0.85189 0.0
H101 H 0.93831 0.80038 0.91752 0.0
H102 H 0.85701 0.73993 0.89867 0.0
N103 N 0.8714 0.83235 0.04006 0.0
N104 N 0.84393 0.81671 0.11746 0.0
C105 C 0.84703 0.84683 0.06419 0.0
C106 C 0.8842 0.7913 0.07873 0.0
C107 C 0.86737 0.78144 0.12638 0.0
C108 C 0.9218 0.95802 0.0271 0.0
O109 O 0.90241 0.96676 0.06624 0.0
H110 H 0.83216 0.87975 0.04315 0.0
H111 H 0.90442 0.77031 0.0727 0.0
O112 O 0.85635 0.91373 0.92792 0.0
H113 H 0.88736 0.65262 0.83372 0.0
H114 H 0.87218 0.75024 0.16437 0.0
Cu115 Cu 0.65322 0.88063 0.49221 0.0
N116 N 0.62725 0.9269 0.4472 0.0
N117 N 0.59073 0.93945 0.39011 0.0
C118 C 0.60412 0.89751 0.42762 0.0
C119 C 0.60587 -0.00157 0.38678 0.0
C120 C 0.62847 0.9904 0.42195 0.0
O121 O 0.63443 0.8048 0.53207 0.0
C122 C 0.68067 0.83827 0.38662 0.0
O123 O 0.65642 0.83872 0.36291 0.0
H124 H 0.59757 0.84545 0.43958 0.0
H125 H 0.64513 0.02696 0.42692 0.0
N126 N 0.66772 0.94076 0.54953 0.0
N127 N 0.6968 0.98307 0.61653 0.0
C128 C 0.69267 0.93537 0.57291 0.0
C129 C 0.65557 -0.00617 0.57911 0.0
C130 C 0.67346 0.01999 0.62064 0.0
C131 C 0.62588 0.7491 0.50662 0.0
O132 O 0.63301 0.73621 0.45179 0.0
H133 H 0.70711 0.89529 0.55964 0.0
H134 H 0.63497 0.01117 0.57185 0.0
O135 O 0.68314 0.85044 0.4416 0.0
H136 H 0.60162 0.04273 0.35887 0.0
H137 H 0.66949 0.06238 0.65173 0.0
Cu138 Cu 0.38767 0.6298 0.07885 0.0
N139 N 0.40212 0.71536 0.10416 0.0
N140 N 0.42953 0.79091 0.151 0.0
C141 C 0.42199 0.72306 0.14412 0.0
C142 C 0.41371 0.82728 0.11371 0.0
C143 C 0.39676 0.78046 0.08492 0.0
O144 O 0.41836 0.56567 0.07641 0.0
C145 C 0.34711 0.54574 0.13704 0.0
O146 O 0.35338 0.49532 0.0994 0.0
H147 H 0.43135 0.67923 0.16618 0.0
H148 H 0.38194 0.79275 0.05159 0.0
N149 N 0.37374 0.64057 1.00318 0.0
N150 N 0.34594 0.64909 0.92589 0.0
C151 C 0.34795 0.63513 0.98403 0.0
C152 C 0.3885 0.65821 0.95586 0.0
C153 C 0.37151 0.66352 0.90827 0.0
C154 C 0.42139 0.5152 0.03969 0.0
O155 O 0.40124 0.49779 1.00484 0.0
H156 H 0.33105 0.62252 1.01244 0.0
H157 H 0.41019 0.66667 0.95615 0.0
O158 O 0.35958 0.60418 0.13477 0.0
H159 H 0.41437 0.88356 0.10749 0.0
H160 H 0.37771 0.67592 0.86391 0.0
Cu161 Cu 0.15184 0.61259 0.56117 0.0
N162 N 0.12557 0.56366 0.60382 0.0
N163 N 0.08778 0.54661 0.6564 0.0
C164 C 0.10055 0.58756 0.61702 0.0
C165 C 0.10538 0.49419 0.66793 0.0
C166 C 0.12865 0.50473 0.63522 0.0
O167 O 0.13351 0.69236 0.52593 0.0
C168 C 0.17932 0.64489 0.66892 0.0
O169 O 0.15519 0.64017 0.69311 0.0
H170 H 0.09247 0.63649 0.60098 0.0
H171 H 0.14705 0.47382 0.63659 0.0
N172 N 0.16625 0.55547 0.50128 0.0
N173 N 0.1948 0.51514 0.43188 0.0
C174 C 0.1902 0.56481 0.47386 0.0
C175 C 0.15526 0.49785 0.47607 0.0
C176 C 0.17279 0.47293 0.43312 0.0
C177 C 0.12406 0.74293 0.55696 0.0
O178 O 0.13011 0.74631 0.61318 0.0
H179 H 0.20368 0.60825 0.48374 0.0
H180 H 0.13582 0.47576 0.48793 0.0
O181 O 0.18168 0.63877 0.61322 0.0
H182 H 0.10205 0.45255 0.69911 0.0
H183 H 0.16959 0.42716 0.40522 0.0
H184 H 0.2973 0.42036 0.8212 0.0
H185 H 0.35 0.45525 0.97005 0.0
H186 H 0.2588 0.40649 0.88821 0.0
H187 H 0.31183 0.44091 0.03655 0.0
H188 H 0.23509 0.46964 0.14248 0.0
H189 H 0.27032 0.49541 0.07033 0.0
H190 H 0.24192 0.32389 0.9604 0.0
H191 H 0.20652 0.29878 0.03197 0.0
C192 C 0.30073 0.42461 0.86811 0.0
C193 C 0.32682 0.43887 0.89007 0.0
C194 C 0.27866 0.41679 0.90658 0.0
C195 C 0.28217 0.42286 0.96794 0.0
C196 C 0.30824 0.43735 0.98967 0.0
C197 C 0.33021 0.44535 0.95136 0.0
C198 C 0.23615 0.43788 0.10267 0.0
C199 C 0.218 0.38185 0.09334 0.0
C200 C 0.25649 0.4524 0.06137 0.0
C201 C 0.25913 0.41145 1.00956 0.0
C202 C 0.24038 0.35699 0.99939 0.0
C203 C 0.22013 0.34233 0.04073 0.0
H204 H 0.25016 0.32984 0.32731 0.0
H205 H 0.22053 0.16161 0.43561 0.0
H206 H 0.28496 0.35674 0.40069 0.0
H207 H 0.2549 0.18837 0.50874 0.0
H208 H 0.3372 0.19651 0.59547 0.0
H209 H 0.30232 0.17647 0.52172 0.0
H210 H 0.29442 0.40061 0.49852 0.0
H211 H 0.33003 0.42055 0.57136 0.0
C212 C 0.25084 0.29915 0.36703 0.0
C213 C 0.23274 0.2429 0.37507 0.0
C214 C 0.27083 0.31449 0.40919 0.0
C215 C 0.27314 0.27396 0.46045 0.0
C216 C 0.25435 0.21944 0.46918 0.0
C217 C 0.23453 0.2041 0.42715 0.0
C218 C 0.32807 0.24161 0.5747 0.0
C219 C 0.33643 0.31013 0.58963 0.0
C220 C 0.30787 0.23016 0.53253 0.0
C221 C 0.29525 0.28691 0.50428 0.0
C222 C 0.30379 0.35555 0.51882 0.0
C223 C 0.32415 0.36699 0.5609 0.0
H224 H 0.8478 0.00456 0.08573 0.0
H225 H 0.79505 0.05435 0.23195 0.0
H226 H 0.81034 0.02071 1.01757 0.0
H227 H 0.75721 0.07009 0.16393 0.0
H228 H 0.70729 0.17825 1.01912 0.0
H229 H 0.74212 0.15076 0.09077 0.0
H230 H 0.76793 0.9741 0.98311 0.0
H231 H 0.73327 0.00263 0.91064 0.0
C232 C 0.82805 0.01811 0.10333 0.0
C233 C 0.82439 0.02821 0.1642 0.0
C234 C 0.80649 0.02725 0.06426 0.0
C235 C 0.78062 0.04679 0.08503 0.0
C236 C 0.77691 0.05611 0.14615 0.0
C237 C 0.79856 0.04717 0.18522 0.0
C238 C 0.72019 0.13309 1.01086 0.0
C239 C 0.71754 0.09297 0.95874 0.0
C240 C 0.74015 0.11705 0.05226 0.0
C241 C 0.75804 0.06035 0.04282 0.0
C242 C 0.75485 0.01888 0.99149 0.0
C243 C 0.73485 0.03498 0.95002 0.0
H244 H 0.75251 0.15304 0.73027 0.0
H245 H 0.72837 0.33487 0.63189 0.0
H246 H 0.78695 0.12532 0.65574 0.0
H247 H 0.76286 0.30818 0.55811 0.0
H248 H 0.84687 0.28607 0.4749 0.0
H249 H 0.81208 0.30886 0.54907 0.0
H250 H 0.79268 0.08757 0.55209 0.0
H251 H 0.82775 0.06454 0.47815 0.0
C252 C 0.75427 0.18638 0.69232 0.0
C253 C 0.73762 0.24598 0.68708 0.0
C254 C 0.77408 0.17077 0.64971 0.0
C255 C 0.77781 0.21476 0.60101 0.0
C256 C 0.76092 0.27387 0.59553 0.0
C257 C 0.74111 0.28921 0.63792 0.0
C258 C 0.83521 0.24219 0.49126 0.0
C259 C 0.84011 0.17351 0.47029 0.0
C260 C 0.81512 0.25532 0.53364 0.0
C261 C 0.79945 0.20011 0.55643 0.0
C262 C 0.8045 0.13126 0.53588 0.0
C263 C 0.82452 0.11815 0.49319 0.0
H264 H 0.8418 0.78121 0.23332 0.0
H265 H 0.7931 0.86542 0.09274 0.0
H266 H 0.80273 0.78417 0.29792 0.0
H267 H 0.75447 0.87236 0.15877 0.0
H268 H 0.68278 0.80172 0.26994 0.0
H269 H 0.72237 0.79782 0.20572 0.0
H270 H 0.77327 0.85922 0.3521 0.0
H271 H 0.73376 0.8608 0.41669 0.0
C272 C 0.82288 0.80039 0.21583 0.0
C273 C 0.82084 0.82189 0.15692 0.0
C274 C 0.80042 0.80304 0.25347 0.0
C275 C 0.77526 0.82797 0.23366 0.0
C276 C 0.77333 0.85132 0.17532 0.0
C277 C 0.79574 0.84808 0.13745 0.0
C278 C 0.70245 0.81384 0.28855 0.0
C279 C 0.70507 0.83137 0.34854 0.0
C280 C 0.72517 0.81231 0.25154 0.0
C281 C 0.7511 0.82872 0.27344 0.0
C282 C 0.75373 0.84542 0.33369 0.0
C283 C 0.73102 0.84647 0.37081 0.0
H284 H 0.74867 0.95264 0.5866 0.0
H285 H 0.69865 0.0265 0.73074 0.0
H286 H 0.78797 0.95177 0.65109 0.0
H287 H 0.73821 0.02782 0.79508 0.0
H288 H 0.80588 0.92618 0.9059 0.0
H289 H 0.76683 0.94571 0.84311 0.0
H290 H 0.81972 0.02048 0.70558 0.0
H291 H 0.85897 -0.00204 0.76762 0.0
C292 C 0.74611 0.96912 0.63204 0.0
C293 C 0.72045 0.98887 0.65361 0.0
C294 C 0.76873 0.96943 0.66897 0.0
C295 C 0.7663 0.98943 0.72859 0.0
C296 C 0.74073 0.01099 0.74975 0.0
C297 C 0.71811 0.0111 0.71265 0.0
C298 C 0.8092 0.94759 0.86253 0.0
C299 C 0.83562 0.95969 0.84156 0.0
C300 C 0.78672 0.9593 0.82656 0.0
C301 C 0.79003 0.98419 0.76894 0.0
C302 C 0.8164 -0.00019 0.74918 0.0
C303 C 0.83892 0.98741 0.78495 0.0
H304 H 0.29792 0.58293 0.94663 0.0
H305 H 0.33869 0.71773 0.82307 0.0
H306 H 0.25775 0.58259 0.88442 0.0
H307 H 0.29858 0.7182 0.76163 0.0
H308 H 0.23265 0.64306 0.63466 0.0
H309 H 0.27267 0.643 0.69726 0.0
H310 H 0.22151 0.65864 0.85149 0.0
H311 H 0.18144 0.65716 0.78894 0.0
C312 C 0.29835 0.61279 0.9065 0.0
C313 C 0.3218 0.64972 0.88985 0.0
C314 C 0.27523 0.61282 0.87083 0.0
C315 C 0.2749 0.65026 0.8178 0.0
C316 C 0.29824 0.68765 0.8015 0.0
C317 C 0.32134 0.68735 0.83694 0.0
C318 C 0.22991 0.64697 0.68189 0.0
C319 C 0.20378 0.65019 0.70669 0.0
C320 C 0.2529 0.64711 0.71786 0.0
C321 C 0.25037 0.65062 0.77955 0.0
C322 C 0.22423 0.65476 0.80426 0.0
C323 C 0.20124 0.65456 0.76829 0.0
H324 H 0.31415 0.43065 0.1529 0.0
H325 H 0.33084 0.63851 0.22262 0.0
H326 H 0.27853 0.41597 0.22682 0.0
H327 H 0.2951 0.62455 0.29511 0.0
H328 H 0.2459 0.56207 0.45203 0.0
H329 H 0.2837 0.5629 0.38288 0.0
H330 H 0.23396 0.45851 0.25259 0.0
H331 H 0.19614 0.45719 0.3219 0.0
C332 C 0.31028 0.47315 0.18396 0.0
C333 C 0.32548 0.53566 0.18186 0.0
C334 C 0.28976 0.46487 0.22619 0.0
C335 C 0.28402 0.51886 0.26738 0.0
C336 C 0.29927 0.58122 0.26506 0.0
C337 C 0.31969 0.58948 0.22299 0.0
C338 C 0.24296 0.53942 0.4086 0.0
C339 C 0.21778 0.51062 0.39235 0.0
C340 C 0.26467 0.53987 0.36885 0.0
C341 C 0.26177 0.5118 0.31162 0.0
C342 C 0.23694 0.48037 0.29621 0.0
C343 C 0.21522 0.47967 0.33606 0.0
H344 H 0.06794 0.37367 0.13059 0.0
H345 H 0.09395 0.28808 0.29619 0.0
H346 H 1.02105 0.34624 0.15518 0.0
H347 H 0.04733 0.25802 0.31976 0.0
H348 H 0.95896 0.2256 0.35977 0.0
H349 H 1.00178 0.28716 0.34338 0.0
H350 H 0.99571 0.24157 0.15704 0.0
H351 H 0.9526 0.18373 0.17314 0.0
C352 C 0.06363 0.35017 0.17275 0.0
C353 C 0.08481 0.33259 0.21109 0.0
C354 C 0.03671 0.33364 0.18662 0.0
C355 C 0.03028 0.2984 0.23897 0.0
C356 C 0.0513 0.28547 0.27921 0.0
C357 C 0.07819 0.30271 0.2656 0.0
C358 C 0.96654 0.23006 0.3152 0.0
C359 C 0.95244 0.19904 0.26785 0.0
C360 C 0.99125 0.26484 0.30581 0.0
C361 C 1.00247 0.26923 0.24887 0.0
C362 C 0.98769 0.24055 0.20141 0.0
C363 C 0.96298 0.20646 0.21075 0.0
H364 H 0.46602 0.21963 0.60727 0.0
H365 H 0.45915 0.2945 0.7869 0.0
H366 H 0.51041 0.17001 0.62904 0.0
H367 H 0.50386 0.24732 0.80818 0.0
H368 H 0.58233 0.1392 0.84247 0.0
H369 H 0.53406 0.15034 0.8204 0.0
H370 H 0.55407 0.21775 0.64469 0.0
H371 H 0.60191 0.20468 0.66618 0.0
C372 C 0.47384 0.22485 0.6516 0.0
C373 C 0.45907 0.26162 0.69514 0.0
C374 C 0.49941 0.19674 0.66405 0.0
C375 C 0.51103 0.20526 0.72023 0.0
C376 C 0.49558 0.23882 0.76459 0.0
C377 C 0.4699 0.26636 0.75226 0.0
C378 C 0.57637 0.15433 0.79859 0.0
C379 C 0.59605 0.17164 0.75627 0.0
C380 C 0.54866 0.16158 0.78612 0.0
C381 C 0.54001 0.186 0.73098 0.0
C382 C 0.55975 0.1983 0.68748 0.0
C383 C 0.58734 0.19111 0.69993 0.0
H384 H 0.07351 0.51516 0.76842 0.0
H385 H 0.04471 0.61503 0.61099 0.0
H386 H 0.0321 0.55076 0.82008 0.0
H387 H 1.00356 0.65167 0.66283 0.0
H388 H 0.92214 0.65078 0.75992 0.0
H389 H 0.96181 0.60323 0.70864 0.0
H390 H 1.01231 0.66441 0.8555 0.0
H391 H 0.97255 0.71085 0.90719 0.0
C392 C 0.0582 0.54385 0.74461 0.0
C393 C 0.06243 0.56232 0.68559 0.0
C394 C 0.03461 0.56492 0.77438 0.0
C395 C 1.0146 0.60431 0.74563 0.0
C396 C 1.01848 0.62096 0.68612 0.0
C397 C 0.04215 0.60044 0.65655 0.0
C398 C 0.94164 0.65331 0.78157 0.0
C399 C 0.94417 0.68469 0.83766 0.0
C400 C 0.9644 0.62663 0.75196 0.0
C401 C 0.99021 0.63008 0.77798 0.0
C402 C 0.99268 0.66036 0.83448 0.0
C403 C 0.96995 0.68762 0.86385 0.0
H404 H 0.44723 0.73549 0.25295 0.0
H405 H 0.46058 0.90681 0.13359 0.0
H406 H 0.48533 0.77513 0.31249 0.0
H407 H 0.49896 0.94646 0.1931 0.0
H408 H 0.55326 0.02851 0.34482 0.0
H409 H 0.51275 -0.00349 0.28851 0.0
H410 H 0.53401 0.77707 0.30233 0.0
H411 H 0.57409 0.80873 0.35803 0.0
C412 C 0.45837 0.78149 0.23927 0.0
C413 C 0.451 0.81748 0.18813 0.0
C414 C 0.48024 0.80427 0.27342 0.0
C415 C 0.49542 0.86357 0.25726 0.0
C416 C 0.48757 0.90096 0.2071 0.0
C417 C 0.46557 0.8782 0.17295 0.0
C418 C 0.54928 0.97353 0.3356 0.0
C419 C 0.56682 0.92128 0.35662 0.0
C420 C 0.52609 0.95517 0.30333 0.0
C421 C 0.51997 0.88415 0.29139 0.0
C422 C 0.5377 0.83216 0.3119 0.0
C423 C 0.56076 0.85043 0.34402 0.0
H424 H 0.09111 0.09123 1.01049 0.0
H425 H 0.07212 0.09192 0.19587 0.0
H426 H 0.04475 0.05774 0.98771 0.0
H427 H 0.02578 0.05574 0.17362 0.0
H428 H 0.93796 0.0498 0.11433 0.0
H429 H 0.98391 0.08973 0.13588 0.0
H430 H 1.01421 0.96515 0.98954 0.0
H431 H 0.96838 0.92774 0.96672 0.0
C432 C 0.07712 0.08287 0.0465 0.0
C433 C 0.08539 0.09353 0.10503 0.0
C434 C 0.05044 0.06356 0.03349 0.0
C435 C 0.03132 0.05336 0.07871 0.0
C436 C 0.03967 0.06402 0.13741 0.0
C437 C 0.06632 0.08429 0.15033 0.0
C438 C 0.95443 0.03162 0.08639 0.0
C439 C 0.94942 0.98587 0.03857 0.0
C440 C 0.98085 0.05408 0.09907 0.0
C441 C 1.00297 0.03095 0.06457 0.0
C442 C 0.9978 0.98546 1.01653 0.0
C443 C 0.97141 0.96361 1.00353 0.0
H444 H 0.59788 0.63713 0.45979 0.0
H445 H 0.60295 0.76946 0.61537 0.0
H446 H 0.55659 0.58368 0.49818 0.0
H447 H 0.56189 0.71546 0.65383 0.0
H448 H 0.46922 0.68271 0.65485 0.0
H449 H 0.51405 0.72299 0.62563 0.0
H450 H 0.53608 0.51057 0.57609 0.0
H451 H 0.49079 0.47039 0.60423 0.0
C452 C 0.59054 0.65387 0.50269 0.0
C453 C 0.60365 0.70816 0.53416 0.0
C454 C 0.56686 0.62305 0.52477 0.0
C455 C 0.55571 0.64596 0.57873 0.0
C456 C 0.56965 0.69753 0.61161 0.0
C457 C 0.59333 0.72815 0.58968 0.0
C458 C 0.48355 0.64455 0.63756 0.0
C459 C 0.4763 0.57337 0.63159 0.0
C460 C 0.50941 0.66751 0.62147 0.0
C461 C 0.52873 0.61999 0.59869 0.0
C462 C 0.52163 0.5486 0.59319 0.0
C463 C 0.49575 0.52549 0.60976 0.0
H464 H 0.46939 0.55892 0.08728 0.0
H465 H 0.43536 0.40202 0.96994 0.0
H466 H 0.51468 0.51755 0.0636 0.0
H467 H 0.48081 0.35809 0.94811 0.0
H468 H 0.56633 0.35243 0.86888 0.0
H469 H 0.52031 0.38704 0.89587 0.0
H470 H 0.54695 0.42938 0.07399 0.0
H471 H 0.59303 0.39719 0.046 0.0
C472 C 0.47153 0.51453 0.05728 0.0
C473 C 0.44868 0.4839 0.03045 0.0
C474 C 0.49763 0.49045 0.04382 0.0
C475 C 0.50165 0.43439 1.00368 0.0
C476 C 0.47867 0.40223 0.97832 0.0
C477 C 0.45252 0.42693 0.9913 0.0
C478 C 0.56227 0.36909 0.91378 0.0
C479 C 0.58338 0.37273 0.95514 0.0
C480 C 0.53582 0.38854 0.92949 0.0
C481 C 0.5297 0.41131 0.98726 0.0
C482 C 0.55085 0.41374 0.02879 0.0
C483 C 0.57734 0.3952 1.01282 0.0
H484 H 0.0907 0.83225 0.61845 0.0
H485 H 0.10605 0.7511 0.44303 0.0
H486 H 0.04921 0.8877 0.58404 0.0
H487 H 0.06443 0.80699 0.40869 0.0
H488 H 0.99476 0.96057 0.36252 0.0
H489 H 0.0401 0.92402 0.39429 0.0
H490 H 1.0052 0.83414 0.55065 0.0
H491 H 0.96022 0.87078 0.51915 0.0
C492 C 0.08555 0.82731 0.57229 0.0
C493 C 0.10165 0.78665 0.53363 0.0
C494 C 0.06164 0.85875 0.55269 0.0
C495 C 0.05338 0.851 0.49383 0.0
C496 C 0.0703 0.81408 0.45428 0.0
C497 C 0.09411 0.78192 0.47402 0.0
C498 C 0.99689 0.93355 0.40387 0.0
C499 C 0.97391 0.9182 0.43818 0.0
C500 C 1.02278 0.9123 0.42187 0.0
C501 C 0.02623 0.87642 0.47507 0.0
C502 C 1.00328 0.86235 0.50977 0.0
C503 C 0.97745 0.88265 0.49142 0.0
loop_
_geom_bond_atom_site_label_1
_geom_bond_atom_site_label_2
_geom_bond_distance
_geom_bond_site_symmetry_2
_ccdc_geom_bond_type
Cu0 N1 1.999 . S
Cu0 O6 1.974 . S
Cu0 N11 1.985 . S
Cu0 O20 1.959 . S
N1 Cu0 1.999 . S
N1 C3 1.263 . S
N1 C5 1.389 . S
N2 C3 1.358 . S
N2 C4 1.400 . S
C3 N1 1.263 . S
C3 N2 1.358 . S
C3 H9 0.930 . S
C4 N2 1.400 . S
C4 C5 1.351 . S
C4 H21 0.930 . S
C5 N1 1.389 . S
C5 C4 1.351 . S
C5 H10 0.930 . S
O6 Cu0 1.974 . S
O6 C16 1.282 . S
C7 O8 1.261 . S
C7 O20 1.251 . S
O8 C7 1.261 . S
H9 C3 0.930 . S
H10 C5 0.930 . S
N11 Cu0 1.985 . S
N11 C13 1.335 . S
N11 C14 1.390 . S
N12 C13 1.345 . S
N12 C15 1.346 . S
C13 N11 1.335 . S
C13 N12 1.345 . S
C13 H18 0.930 . S
C14 N11 1.390 . S
C14 C15 1.354 . S
C14 H19 0.930 . S
C15 N12 1.346 . S
C15 C14 1.354 . S
C15 H22 0.914 1_554 S
C16 O6 1.282 . S
C16 O17 1.216 . S
O17 C16 1.216 . S
H18 C13 0.930 . S
H19 C14 0.930 . S
O20 Cu0 1.959 . S
O20 C7 1.251 . S
H21 C4 0.930 . S
H22 C15 0.914 1_556 S
Cu23 N24 1.999 . S
Cu23 O29 1.974 . S
Cu23 N34 1.985 . S
Cu23 O43 1.959 . S
N24 Cu23 1.999 . S
N24 C26 1.263 . S
N24 C28 1.389 . S
N25 C26 1.358 . S
N25 C27 1.400 . S
C26 N24 1.263 . S
C26 N25 1.358 . S
C26 H32 0.930 . S
C27 N25 1.400 . S
C27 C28 1.351 . S
C27 H44 0.930 . S
C28 N24 1.389 . S
C28 C27 1.351 . S
C28 H33 0.930 . S
O29 Cu23 1.974 . S
O29 C39 1.282 . S
C30 O31 1.261 . S
C30 O43 1.251 . S
O31 C30 1.261 . S
H32 C26 0.930 . S
H33 C28 0.930 . S
N34 Cu23 1.985 . S
N34 C36 1.335 . S
N34 C37 1.390 . S
N35 C36 1.345 . S
N35 C38 1.336 . S
C36 N34 1.335 . S
C36 N35 1.345 . S
C36 H41 0.930 . S
C37 N34 1.390 . S
C37 C38 1.346 . S
C37 H42 0.930 . S
C38 N35 1.336 . S
C38 C37 1.346 . S
C38 H45 0.929 . S
C39 O29 1.282 . S
C39 O40 1.216 . S
O40 C39 1.216 . S
H41 C36 0.930 . S
H42 C37 0.930 . S
O43 Cu23 1.959 . S
O43 C30 1.251 . S
H44 C27 0.930 . S
H45 C38 0.929 . S
Cu46 N47 1.999 . S
Cu46 O52 1.974 . S
Cu46 N57 1.985 . S
Cu46 O66 1.959 . S
N47 Cu46 1.999 . S
N47 C49 1.263 . S
N47 C51 1.389 . S
N48 C49 1.358 . S
N48 C50 1.400 . S
C49 N47 1.263 . S
C49 N48 1.358 . S
C49 H55 0.930 . S
C50 N48 1.400 . S
C50 C51 1.351 . S
C50 H67 0.930 . S
C51 N47 1.389 . S
C51 C50 1.351 . S
C51 H56 0.930 . S
O52 Cu46 1.974 . S
O52 C62 1.282 . S
C53 O54 1.261 . S
C53 O66 1.251 . S
O54 C53 1.261 . S
H55 C49 0.930 . S
H56 C51 0.930 . S
N57 Cu46 1.985 . S
N57 C59 1.335 . S
N57 C60 1.390 . S
N58 C59 1.345 . S
N58 C61 1.346 . S
C59 N57 1.335 . S
C59 N58 1.345 . S
C59 H64 0.930 . S
C60 N57 1.390 . S
C60 C61 1.354 . S
C60 H65 0.930 . S
C61 N58 1.346 . S
C61 C60 1.354 . S
C61 H68 0.915 1_556 S
C62 O52 1.282 . S
C62 O63 1.216 . S
O63 C62 1.216 . S
H64 C59 0.930 . S
H65 C60 0.930 . S
O66 Cu46 1.959 . S
O66 C53 1.251 . S
H67 C50 0.930 . S
H68 C61 0.915 1_554 S
Cu69 N70 1.999 . S
Cu69 O75 1.974 . S
Cu69 N80 1.985 . S
Cu69 O89 1.959 . S
N70 Cu69 1.999 . S
N70 C72 1.263 . S
N70 C74 1.389 . S
N71 C72 1.358 . S
N71 C73 1.400 . S
C72 N70 1.263 . S
C72 N71 1.358 . S
C72 H78 0.930 . S
C73 N71 1.400 . S
C73 C74 1.351 . S
C73 H90 0.930 . S
C74 N70 1.389 . S
C74 C73 1.351 . S
C74 H79 0.930 . S
O75 Cu69 1.974 . S
O75 C85 1.282 . S
C76 O77 1.261 . S
C76 O89 1.251 . S
O77 C76 1.261 . S
H78 C72 0.930 . S
H79 C74 0.930 . S
N80 Cu69 1.985 . S
N80 C82 1.335 . S
N80 C83 1.390 . S
N81 C82 1.346 . S
N81 C84 1.338 . S
C82 N80 1.335 . S
C82 N81 1.346 . S
C82 H87 0.930 . S
C83 N80 1.390 . S
C83 C84 1.346 . S
C83 H88 0.930 . S
C84 N81 1.338 . S
C84 C83 1.346 . S
C84 H91 0.929 . S
C85 O75 1.282 . S
C85 O86 1.216 . S
O86 C85 1.216 . S
H87 C82 0.930 . S
H88 C83 0.930 . S
O89 Cu69 1.959 . S
O89 C76 1.251 . S
H90 C73 0.930 . S
H91 C84 0.929 . S
Cu92 N93 1.999 . S
Cu92 O98 1.974 . S
Cu92 N103 1.985 . S
Cu92 O112 1.959 . S
N93 Cu92 1.999 . S
N93 C95 1.263 . S
N93 C97 1.389 . S
N94 C95 1.358 . S
N94 C96 1.400 . S
C95 N93 1.263 . S
C95 N94 1.358 . S
C95 H101 0.930 . S
C96 N94 1.400 . S
C96 C97 1.351 . S
C96 H113 0.930 . S
C97 N93 1.389 . S
C97 C96 1.351 . S
C97 H102 0.930 . S
O98 Cu92 1.974 . S
O98 C108 1.282 1_565 S
C99 O100 1.261 1_565 S
C99 O112 1.251 . S
O100 C99 1.261 1_545 S
H101 C95 0.930 . S
H102 C97 0.930 . S
N103 Cu92 1.985 . S
N103 C105 1.335 . S
N103 C106 1.390 1_566 S
N104 C105 1.345 1_544 S
N104 C107 1.336 . S
C105 N103 1.335 . S
C105 N104 1.345 1_566 S
C105 H110 0.930 . S
C106 N103 1.390 1_544 S
C106 C107 1.346 . S
C106 H111 0.930 . S
C107 N104 1.336 . S
C107 C106 1.346 . S
C107 H114 0.929 . S
C108 O98 1.282 1_545 S
C108 O109 1.216 . S
O109 C108 1.216 . S
H110 C105 0.930 . S
H111 C106 0.930 . S
O112 Cu92 1.959 . S
O112 C99 1.251 . S
H113 C96 0.930 . S
H114 C107 0.929 . S
Cu115 N116 1.999 . S
Cu115 O121 1.974 . S
Cu115 N126 1.985 . S
Cu115 O135 1.959 . S
N116 Cu115 1.999 . S
N116 C118 1.263 . S
N116 C120 1.389 . S
N117 C118 1.358 . S
N117 C119 1.400 . S
C118 N116 1.263 . S
C118 N117 1.358 . S
C118 H124 0.930 . S
C119 N117 1.400 . S
C119 C120 1.351 . S
C119 H136 0.930 . S
C120 N116 1.389 . S
C120 C119 1.351 . S
C120 H125 0.930 1_565 S
O121 Cu115 1.974 . S
O121 C131 1.282 . S
C122 O123 1.261 . S
C122 O135 1.251 . S
O123 C122 1.261 . S
H124 C118 0.930 . S
H125 C120 0.930 1_545 S
N126 Cu115 1.985 . S
N126 C128 1.335 . S
N126 C129 1.390 . S
N127 C128 1.345 . S
N127 C130 1.336 . S
C128 N126 1.335 . S
C128 N127 1.345 . S
C128 H133 0.930 1_565 S
C129 N126 1.390 . S
C129 C130 1.346 . S
C129 H134 0.930 . S
C130 N127 1.336 . S
C130 C129 1.346 . S
C130 H137 0.929 . S
C131 O121 1.282 . S
C131 O132 1.216 . S
O132 C131 1.216 . S
H133 C128 0.930 1_545 S
H134 C129 0.930 . S
O135 Cu115 1.959 . S
O135 C122 1.251 . S
H136 C119 0.930 . S
H137 C130 0.929 . S
Cu138 N139 1.999 . S
Cu138 O144 1.974 . S
Cu138 N149 1.985 . S
Cu138 O158 1.959 . S
N139 Cu138 1.999 . S
N139 C141 1.263 . S
N139 C143 1.389 . S
N140 C141 1.358 . S
N140 C142 1.400 . S
C141 N139 1.263 . S
C141 N140 1.358 . S
C141 H147 0.930 . S
C142 N140 1.400 . S
C142 C143 1.351 . S
C142 H159 0.930 . S
C143 N139 1.389 . S
C143 C142 1.351 . S
C143 H148 0.930 . S
O144 Cu138 1.974 . S
O144 C154 1.282 . S
C145 O146 1.261 . S
C145 O158 1.251 . S
O146 C145 1.261 . S
H147 C141 0.930 . S
H148 C143 0.930 . S
N149 Cu138 1.985 . S
N149 C151 1.335 . S
N149 C152 1.390 1_554 S
N150 C151 1.345 1_556 S
N150 C153 1.336 . S
C151 N149 1.335 . S
C151 N150 1.345 1_554 S
C151 H156 0.930 . S
C152 N149 1.390 1_556 S
C152 C153 1.346 . S
C152 H157 0.930 . S
C153 N150 1.336 . S
C153 C152 1.346 . S
C153 H160 0.929 . S
C154 O144 1.282 . S
C154 O155 1.216 . S
O155 C154 1.216 . S
H156 C151 0.930 . S
H157 C152 0.930 . S
O158 Cu138 1.959 . S
O158 C145 1.251 . S
H159 C142 0.930 . S
H160 C153 0.929 . S
Cu161 N162 1.999 . S
Cu161 O167 1.974 . S
Cu161 N172 1.985 . S
Cu161 O181 1.959 . S
N162 Cu161 1.999 . S
N162 C164 1.263 . S
N162 C166 1.389 . S
N163 C164 1.358 . S
N163 C165 1.400 . S
C164 N162 1.263 . S
C164 N163 1.358 . S
C164 H170 0.930 . S
C165 N163 1.400 . S
C165 C166 1.351 . S
C165 H182 0.930 . S
C166 N162 1.389 . S
C166 C165 1.351 . S
C166 H171 0.930 . S
O167 Cu161 1.974 . S
O167 C177 1.282 . S
C168 O169 1.261 . S
C168 O181 1.251 . S
O169 C168 1.261 . S
H170 C164 0.930 . S
H171 C166 0.930 . S
N172 Cu161 1.985 . S
N172 C174 1.335 . S
N172 C175 1.390 . S
N173 C174 1.345 . S
N173 C176 1.336 . S
C174 N172 1.335 . S
C174 N173 1.345 . S
C174 H179 0.930 . S
C175 N172 1.390 . S
C175 C176 1.346 . S
C175 H180 0.930 . S
C176 N173 1.336 . S
C176 C175 1.346 . S
C176 H183 0.929 . S
C177 O167 1.282 . S
C177 O178 1.216 . S
O178 C177 1.216 . S
H179 C174 0.930 . S
H180 C175 0.930 . S
O181 Cu161 1.959 . S
O181 C168 1.251 . S
H182 C165 0.930 . S
H183 C176 0.929 . S
H184 C192 0.950 . S
H185 C197 0.950 . S
H186 C194 0.950 . S
H187 C196 0.950 . S
H188 C198 0.950 . S
H189 C200 0.950 . S
H190 C202 0.950 . S
H191 C203 0.950 . S
C192 H184 0.950 . S
C192 C193 1.386 . S
C192 C194 1.391 . S
C193 C192 1.386 . S
C193 C197 1.393 . S
C194 H186 0.950 . S
C194 C192 1.391 . S
C194 C195 1.400 . S
C195 C194 1.400 . S
C195 C196 1.398 . S
C195 C201 1.491 . S
C196 H187 0.950 . S
C196 C195 1.398 . S
C196 C197 1.391 . S
C197 H185 0.950 . S
C197 C193 1.393 . S
C197 C196 1.391 . S
C198 H188 0.950 . S
C198 C199 1.386 . S
C198 C200 1.391 1_554 S
C199 C198 1.386 . S
C199 C203 1.393 1_554 S
C200 H189 0.950 . S
C200 C198 1.391 1_556 S
C200 C201 1.400 . S
C201 C195 1.491 . S
C201 C200 1.400 . S
C201 C202 1.398 . S
C202 H190 0.950 . S
C202 C201 1.398 . S
C202 C203 1.391 . S
C203 H191 0.950 . S
C203 C199 1.393 1_556 S
C203 C202 1.391 . S
H204 C212 0.950 . S
H205 C217 0.950 . S
H206 C214 0.950 . S
H207 C216 0.950 . S
H208 C218 0.950 . S
H209 C220 0.950 . S
H210 C222 0.950 . S
H211 C223 0.950 . S
C212 H204 0.950 . S
C212 C213 1.386 . S
C212 C214 1.391 . S
C213 C212 1.386 . S
C213 C217 1.393 . S
C214 H206 0.950 . S
C214 C212 1.391 . S
C214 C215 1.400 . S
C215 C214 1.400 . S
C215 C216 1.398 . S
C215 C221 1.491 . S
C216 H207 0.950 . S
C216 C215 1.398 . S
C216 C217 1.391 . S
C217 H205 0.950 . S
C217 C213 1.393 . S
C217 C216 1.391 . S
C218 H208 0.950 . S
C218 C219 1.386 . S
C218 C220 1.391 . S
C219 C218 1.386 . S
C219 C223 1.393 . S
C220 H209 0.950 . S
C220 C218 1.391 . S
C220 C221 1.400 . S
C221 C215 1.491 . S
C221 C220 1.400 . S
C221 C222 1.398 . S
C222 H210 0.950 . S
C222 C221 1.398 . S
C222 C223 1.391 . S
C223 H211 0.950 . S
C223 C219 1.393 . S
C223 C222 1.391 . S
H224 C232 0.950 . S
H225 C237 0.950 . S
H226 C234 0.950 . S
H227 C236 0.950 . S
H228 C238 0.950 . S
H229 C240 0.950 . S
H230 C242 0.950 . S
H231 C243 0.950 . S
C232 H224 0.950 . S
C232 C233 1.386 . S
C232 C234 1.391 . S
C233 C232 1.386 . S
C233 C237 1.393 . S
C234 H226 0.950 . S
C234 C232 1.391 . S
C234 C235 1.400 . S
C235 C234 1.400 . S
C235 C236 1.398 . S
C235 C241 1.491 . S
C236 H227 0.950 . S
C236 C235 1.398 . S
C236 C237 1.391 . S
C237 H225 0.950 . S
C237 C233 1.393 . S
C237 C236 1.391 . S
C238 H228 0.950 . S
C238 C239 1.386 1_554 S
C238 C240 1.391 . S
C239 C238 1.386 1_556 S
C239 C243 1.393 . S
C240 H229 0.950 . S
C240 C238 1.391 . S
C240 C241 1.400 . S
C241 C235 1.491 . S
C241 C240 1.400 . S
C241 C242 1.398 . S
C242 H230 0.950 . S
C242 C241 1.398 . S
C242 C243 1.391 1_554 S
C243 H231 0.950 . S
C243 C239 1.393 . S
C243 C242 1.391 1_556 S
H244 C252 0.950 . S
H245 C257 0.950 . S
H246 C254 0.950 . S
H247 C256 0.950 . S
H248 C258 0.950 . S
H249 C260 0.950 . S
H250 C262 0.950 . S
H251 C263 0.950 . S
C252 H244 0.950 . S
C252 C253 1.386 . S
C252 C254 1.391 . S
C253 C252 1.386 . S
C253 C257 1.393 . S
C254 H246 0.950 . S
C254 C252 1.391 . S
C254 C255 1.400 . S
C255 C254 1.400 . S
C255 C256 1.398 . S
C255 C261 1.491 . S
C256 H247 0.950 . S
C256 C255 1.398 . S
C256 C257 1.391 . S
C257 H245 0.950 . S
C257 C253 1.393 . S
C257 C256 1.391 . S
C258 H248 0.950 . S
C258 C259 1.386 . S
C258 C260 1.391 . S
C259 C258 1.386 . S
C259 C263 1.393 . S
C260 H249 0.950 . S
C260 C258 1.391 . S
C260 C261 1.400 . S
C261 C255 1.491 . S
C261 C260 1.400 . S
C261 C262 1.398 . S
C262 H250 0.950 . S
C262 C261 1.398 . S
C262 C263 1.391 . S
C263 H251 0.950 . S
C263 C259 1.393 . S
C263 C262 1.391 . S
H264 C272 0.950 . S
H265 C277 0.950 . S
H266 C274 0.950 . S
H267 C276 0.950 . S
H268 C278 0.950 . S
H269 C280 0.950 . S
H270 C282 0.950 1_545 S
H271 C283 0.950 1_545 S
C272 H264 0.950 . S
C272 C273 1.386 . S
C272 C274 1.391 . S
C273 C272 1.386 . S
C273 C277 1.393 1_545 S
C274 H266 0.950 . S
C274 C272 1.391 . S
C274 C275 1.400 1_545 S
C275 C274 1.400 1_565 S
C275 C276 1.398 . S
C275 C281 1.491 . S
C276 H267 0.950 . S
C276 C275 1.398 . S
C276 C277 1.391 . S
C277 H265 0.950 . S
C277 C273 1.393 1_565 S
C277 C276 1.391 . S
C278 H268 0.950 . S
C278 C279 1.386 . S
C278 C280 1.391 . S
C279 C278 1.386 . S
C279 C283 1.393 . S
C280 H269 0.950 . S
C280 C278 1.391 . S
C280 C281 1.400 . S
C281 C275 1.491 . S
C281 C280 1.400 . S
C281 C282 1.398 . S
C282 H270 0.950 1_565 S
C282 C281 1.398 . S
C282 C283 1.391 . S
C283 H271 0.950 1_565 S
C283 C279 1.393 . S
C283 C282 1.391 . S
H284 C292 0.949 . S
H285 C297 0.950 . S
H286 C294 0.950 . S
H287 C296 0.950 . S
H288 C298 0.950 . S
H289 C300 0.950 . S
H290 C302 0.950 . S
H291 C303 0.950 . S
C292 H284 0.949 . S
C292 C293 1.386 . S
C292 C294 1.391 . S
C293 C292 1.386 . S
C293 C297 1.393 . S
C294 H286 0.950 . S
C294 C292 1.391 . S
C294 C295 1.400 . S
C295 C294 1.400 . S
C295 C296 1.398 . S
C295 C301 1.491 . S
C296 H287 0.950 . S
C296 C295 1.398 . S
C296 C297 1.391 . S
C297 H285 0.950 . S
C297 C293 1.393 . S
C297 C296 1.391 . S
C298 H288 0.950 . S
C298 C299 1.386 . S
C298 C300 1.391 . S
C299 C298 1.386 . S
C299 C303 1.393 . S
C300 H289 0.950 . S
C300 C298 1.391 . S
C300 C301 1.400 . S
C301 C295 1.491 . S
C301 C300 1.400 . S
C301 C302 1.398 . S
C302 H290 0.950 . S
C302 C301 1.398 . S
C302 C303 1.391 . S
C303 H291 0.950 . S
C303 C299 1.393 . S
C303 C302 1.391 . S
H304 C312 0.950 . S
H305 C317 0.950 . S
H306 C314 0.950 . S
H307 C316 0.950 . S
H308 C318 0.950 . S
H309 C320 0.950 . S
H310 C322 0.950 . S
H311 C323 0.950 . S
C312 H304 0.950 . S
C312 C313 1.386 . S
C312 C314 1.391 . S
C313 C312 1.386 . S
C313 C317 1.393 . S
C314 H306 0.950 . S
C314 C312 1.391 . S
C314 C315 1.400 . S
C315 C314 1.400 . S
C315 C316 1.398 . S
C315 C321 1.491 . S
C316 H307 0.950 . S
C316 C315 1.398 . S
C316 C317 1.391 . S
C317 H305 0.950 . S
C317 C313 1.393 . S
C317 C316 1.391 . S
C318 H308 0.950 . S
C318 C319 1.386 . S
C318 C320 1.391 . S
C319 C318 1.386 . S
C319 C323 1.393 . S
C320 H309 0.950 . S
C320 C318 1.391 . S
C320 C321 1.400 . S
C321 C315 1.491 . S
C321 C320 1.400 . S
C321 C322 1.398 . S
C322 H310 0.950 . S
C322 C321 1.398 . S
C322 C323 1.391 . S
C323 H311 0.950 . S
C323 C319 1.393 . S
C323 C322 1.391 . S
H324 C332 0.950 . S
H325 C337 0.950 . S
H326 C334 0.950 . S
H327 C336 0.950 . S
H328 C338 0.950 . S
H329 C340 0.950 . S
H330 C342 0.950 . S
H331 C343 0.950 . S
C332 H324 0.950 . S
C332 C333 1.386 . S
C332 C334 1.391 . S
C333 C332 1.386 . S
C333 C337 1.393 . S
C334 H326 0.950 . S
C334 C332 1.391 . S
C334 C335 1.400 . S
C335 C334 1.400 . S
C335 C336 1.398 . S
C335 C341 1.491 . S
C336 H327 0.950 . S
C336 C335 1.398 . S
C336 C337 1.391 . S
C337 H325 0.950 . S
C337 C333 1.393 . S
C337 C336 1.391 . S
C338 H328 0.950 . S
C338 C339 1.386 . S
C338 C340 1.391 . S
C339 C338 1.386 . S
C339 C343 1.393 . S
C340 H329 0.950 . S
C340 C338 1.391 . S
C340 C341 1.400 . S
C341 C335 1.491 . S
C341 C340 1.400 . S
C341 C342 1.398 . S
C342 H330 0.950 . S
C342 C341 1.398 . S
C342 C343 1.391 . S
C343 H331 0.950 . S
C343 C339 1.393 . S
C343 C342 1.391 . S
H344 C352 0.950 . S
H345 C357 0.950 . S
H346 C354 0.950 . S
H347 C356 0.950 . S
H348 C358 0.950 . S
H349 C360 0.950 1_455 S
H350 C362 0.950 . S
H351 C363 0.950 . S
C352 H344 0.950 . S
C352 C353 1.386 . S
C352 C354 1.391 . S
C353 C352 1.386 . S
C353 C357 1.393 . S
C354 H346 0.950 . S
C354 C352 1.391 . S
C354 C355 1.400 . S
C355 C354 1.400 . S
C355 C356 1.398 . S
C355 C361 1.491 1_455 S
C356 H347 0.950 . S
C356 C355 1.398 . S
C356 C357 1.391 . S
C357 H345 0.950 . S
C357 C353 1.393 . S
C357 C356 1.391 . S
C358 H348 0.950 . S
C358 C359 1.386 . S
C358 C360 1.391 . S
C359 C358 1.386 . S
C359 C363 1.393 . S
C360 H349 0.950 1_655 S
C360 C358 1.391 . S
C360 C361 1.400 . S
C361 C355 1.491 1_655 S
C361 C360 1.400 . S
C361 C362 1.398 . S
C362 H350 0.950 . S
C362 C361 1.398 . S
C362 C363 1.391 . S
C363 H351 0.950 . S
C363 C359 1.393 . S
C363 C362 1.391 . S
H364 C372 0.950 . S
H365 C377 0.950 . S
H366 C374 0.950 . S
H367 C376 0.950 . S
H368 C378 0.950 . S
H369 C380 0.950 . S
H370 C382 0.950 . S
H371 C383 0.950 . S
C372 H364 0.950 . S
C372 C373 1.386 . S
C372 C374 1.391 . S
C373 C372 1.386 . S
C373 C377 1.393 . S
C374 H366 0.950 . S
C374 C372 1.391 . S
C374 C375 1.400 . S
C375 C374 1.400 . S
C375 C376 1.398 . S
C375 C381 1.491 . S
C376 H367 0.950 . S
C376 C375 1.398 . S
C376 C377 1.391 . S
C377 H365 0.950 . S
C377 C373 1.393 . S
C377 C376 1.391 . S
C378 H368 0.950 . S
C378 C379 1.386 . S
C378 C380 1.391 . S
C379 C378 1.386 . S
C379 C383 1.393 . S
C380 H369 0.950 . S
C380 C378 1.391 . S
C380 C381 1.400 . S
C381 C375 1.491 . S
C381 C380 1.400 . S
C381 C382 1.398 . S
C382 H370 0.950 . S
C382 C381 1.398 . S
C382 C383 1.391 . S
C383 H371 0.950 . S
C383 C379 1.393 . S
C383 C382 1.391 . S
H384 C392 0.950 . S
H385 C397 0.950 . S
H386 C394 0.950 . S
H387 C396 0.950 . S
H388 C398 0.950 . S
H389 C400 0.950 . S
H390 C402 0.950 . S
H391 C403 0.950 . S
C392 H384 0.950 . S
C392 C393 1.386 . S
C392 C394 1.391 . S
C393 C392 1.386 . S
C393 C397 1.393 . S
C394 H386 0.950 . S
C394 C392 1.391 . S
C394 C395 1.400 . S
C395 C394 1.400 . S
C395 C396 1.398 . S
C395 C401 1.491 1_455 S
C396 H387 0.950 . S
C396 C395 1.398 . S
C396 C397 1.391 . S
C397 H385 0.950 . S
C397 C393 1.393 . S
C397 C396 1.391 . S
C398 H388 0.950 . S
C398 C399 1.386 . S
C398 C400 1.391 . S
C399 C398 1.386 . S
C399 C403 1.393 . S
C400 H389 0.950 . S
C400 C398 1.391 . S
C400 C401 1.400 . S
C401 C395 1.491 1_655 S
C401 C400 1.400 . S
C401 C402 1.398 . S
C402 H390 0.950 . S
C402 C401 1.398 . S
C402 C403 1.391 . S
C403 H391 0.950 . S
C403 C399 1.393 . S
C403 C402 1.391 . S
H404 C412 0.950 . S
H405 C417 0.950 . S
H406 C414 0.950 . S
H407 C416 0.950 . S
H408 C418 0.950 . S
H409 C420 0.950 . S
H410 C422 0.950 . S
H411 C423 0.950 . S
C412 H404 0.950 . S
C412 C413 1.386 . S
C412 C414 1.391 . S
C413 C412 1.386 . S
C413 C417 1.393 . S
C414 H406 0.950 . S
C414 C412 1.391 . S
C414 C415 1.400 . S
C415 C414 1.400 . S
C415 C416 1.398 . S
C415 C421 1.491 . S
C416 H407 0.950 . S
C416 C415 1.398 . S
C416 C417 1.391 . S
C417 H405 0.950 . S
C417 C413 1.393 . S
C417 C416 1.391 . S
C418 H408 0.950 . S
C418 C419 1.386 . S
C418 C420 1.391 . S
C419 C418 1.386 . S
C419 C423 1.393 . S
C420 H409 0.950 . S
C420 C418 1.391 . S
C420 C421 1.400 . S
C421 C415 1.491 . S
C421 C420 1.400 . S
C421 C422 1.398 . S
C422 H410 0.950 . S
C422 C421 1.398 . S
C422 C423 1.391 . S
C423 H411 0.950 . S
C423 C419 1.393 . S
C423 C422 1.391 . S
H424 C432 0.950 . S
H425 C437 0.950 . S
H426 C434 0.950 . S
H427 C436 0.950 1_655 S
H428 C438 0.950 . S
H429 C440 0.950 . S
H430 C442 0.950 . S
H431 C443 0.950 1_565 S
C432 H424 0.950 . S
C432 C433 1.386 1_556 S
C432 C434 1.391 . S
C433 C432 1.386 1_554 S
C433 C437 1.393 . S
C434 H426 0.950 . S
C434 C432 1.391 . S
C434 C435 1.400 1_556 S
C435 C434 1.400 1_554 S
C435 C436 1.398 . S
C435 C441 1.491 1_455 S
C436 H427 0.950 1_455 S
C436 C435 1.398 . S
C436 C437 1.391 . S
C437 H425 0.950 . S
C437 C433 1.393 . S
C437 C436 1.391 . S
C438 H428 0.950 . S
C438 C439 1.386 1_554 S
C438 C440 1.391 . S
C439 C438 1.386 1_556 S
C439 C443 1.393 . S
C440 H429 0.950 . S
C440 C438 1.391 . S
C440 C441 1.400 . S
C441 C435 1.491 1_655 S
C441 C440 1.400 . S
C441 C442 1.398 1_554 S
C442 H430 0.950 . S
C442 C441 1.398 1_556 S
C442 C443 1.391 . S
C443 H431 0.950 1_545 S
C443 C439 1.393 . S
C443 C442 1.391 . S
H444 C452 0.950 . S
H445 C457 0.950 . S
H446 C454 0.950 . S
H447 C456 0.950 . S
H448 C458 0.950 . S
H449 C460 0.950 . S
H450 C462 0.950 . S
H451 C463 0.950 . S
C452 H444 0.950 . S
C452 C453 1.386 . S
C452 C454 1.391 . S
C453 C452 1.386 . S
C453 C457 1.393 . S
C454 H446 0.950 . S
C454 C452 1.391 . S
C454 C455 1.400 . S
C455 C454 1.400 . S
C455 C456 1.398 . S
C455 C461 1.491 . S
C456 H447 0.950 . S
C456 C455 1.398 . S
C456 C457 1.391 . S
C457 H445 0.950 . S
C457 C453 1.393 . S
C457 C456 1.391 . S
C458 H448 0.950 . S
C458 C459 1.386 . S
C458 C460 1.391 . S
C459 C458 1.386 . S
C459 C463 1.393 . S
C460 H449 0.950 . S
C460 C458 1.391 . S
C460 C461 1.400 . S
C461 C455 1.491 . S
C461 C460 1.400 . S
C461 C462 1.398 . S
C462 H450 0.950 . S
C462 C461 1.398 . S
C462 C463 1.391 . S
C463 H451 0.950 . S
C463 C459 1.393 . S
C463 C462 1.391 . S
H464 C472 0.950 . S
H465 C477 0.950 . S
H466 C474 0.950 . S
H467 C476 0.950 . S
H468 C478 0.950 . S
H469 C480 0.950 . S
H470 C482 0.950 . S
H471 C483 0.950 . S
C472 H464 0.950 . S
C472 C473 1.386 . S
C472 C474 1.391 . S
C473 C472 1.386 . S
C473 C477 1.393 1_554 S
C474 H466 0.950 . S
C474 C472 1.391 . S
C474 C475 1.400 1_554 S
C475 C474 1.400 1_556 S
C475 C476 1.398 . S
C475 C481 1.491 . S
C476 H467 0.950 . S
C476 C475 1.398 . S
C476 C477 1.391 . S
C477 H465 0.950 . S
C477 C473 1.393 1_556 S
C477 C476 1.391 . S
C478 H468 0.950 . S
C478 C479 1.386 . S
C478 C480 1.391 . S
C479 C478 1.386 . S
C479 C483 1.393 1_556 S
C480 H469 0.950 . S
C480 C478 1.391 . S
C480 C481 1.400 . S
C481 C475 1.491 . S
C481 C480 1.400 . S
C481 C482 1.398 1_556 S
C482 H470 0.950 . S
C482 C481 1.398 1_554 S
C482 C483 1.391 . S
C483 H471 0.950 . S
C483 C479 1.393 1_554 S
C483 C482 1.391 . S
H484 C492 0.950 . S
H485 C497 0.950 . S
H486 C494 0.950 . S
H487 C496 0.950 . S
H488 C498 0.950 . S
H489 C500 0.950 . S
H490 C502 0.950 1_455 S
H491 C503 0.950 . S
C492 H484 0.950 . S
C492 C493 1.386 . S
C492 C494 1.391 . S
C493 C492 1.386 . S
C493 C497 1.393 . S
C494 H486 0.950 . S
C494 C492 1.391 . S
C494 C495 1.400 . S
C495 C494 1.400 . S
C495 C496 1.398 . S
C495 C501 1.491 . S
C496 H487 0.950 . S
C496 C495 1.398 . S
C496 C497 1.391 . S
C497 H485 0.950 . S
C497 C493 1.393 . S
C497 C496 1.391 . S
C498 H488 0.950 . S
C498 C499 1.386 . S
C498 C500 1.391 . S
C499 C498 1.386 . S
C499 C503 1.393 . S
C500 H489 0.950 . S
C500 C498 1.391 . S
C500 C501 1.400 1_655 S
C501 C495 1.491 . S
C501 C500 1.400 1_455 S
C501 C502 1.398 1_455 S
C502 H490 0.950 1_655 S
C502 C501 1.398 1_655 S
C502 C503 1.391 . S
C503 H491 0.950 . S
C503 C499 1.393 . S
C503 C502 1.391 . S
C193 N25 1.936 . S
C199 C16 2.102 . S
C213 N2 1.850 . S
C219 C39 1.901 . S
C233 N71 1.935 . S
C239 C62 2.107 . S
C253 N48 1.855 . S
C259 C85 1.902 . S
C273 N104 1.930 . S
C279 C122 1.955 . S
C293 N127 1.813 . S
C299 C99 1.884 . S
C313 N150 1.922 . S
C319 C168 1.961 . S
C333 C145 1.873 . S
C339 N173 1.795 . S
C353 C7 1.296 . S
C359 C76 1.305 . S
C373 C30 1.320 . S
C379 C53 1.312 . S
C393 N163 1.273 . S
C399 N94 1.124 . S
C413 N140 1.139 . S
C419 N117 1.273 . S
C433 N12 1.365 . S
C439 C108 1.297 . S
C453 C131 1.459 . S
C459 N35 1.507 . S
C473 C154 1.296 . S
C479 N58 1.364 . S
C493 C177 1.461 . S
C499 N81 1.503 1_565 S
