# Generated by pormake.
# Topology bmn, (3)-cn, num edge types: 1
# Building blocks:
#     Node 0, Type 0, BuildingBlock: OLANEW_clean_sbu_2, # of connection points: 3
#     Node 1, Type 0, BuildingBlock: OLANEW_clean_sbu_2, # of connection points: 3
#     Node 2, Type 0, BuildingBlock: OLANEW_clean_sbu_2, # of connection points: 3
#     Node 3, Type 0, BuildingBlock: OLANEW_clean_sbu_2, # of connection points: 3
#     Node 4, Type 0, BuildingBlock: OLANEW_clean_sbu_2, # of connection points: 3
#     Node 5, Type 0, BuildingBlock: OLANEW_clean_sbu_2, # of connection points: 3
#     Node 6, Type 0, BuildingBlock: OLANEW_clean_sbu_2, # of connection points: 3
#     Node 7, Type 0, BuildingBlock: OLANEW_clean_sbu_2, # of connection points: 3
#     Node 8, Type 0, BuildingBlock: OLANEW_clean_sbu_2, # of connection points: 3
#     Node 9, Type 0, BuildingBlock: OLANEW_clean_sbu_2, # of connection points: 3
#     Node 10, Type 0, BuildingBlock: OLANEW_clean_sbu_2, # of connection points: 3
#     Node 11, Type 0, BuildingBlock: OLANEW_clean_sbu_2, # of connection points: 3
#     Node 12, Type 0, BuildingBlock: OLANEW_clean_sbu_2, # of connection points: 3
#     Node 13, Type 0, BuildingBlock: OLANEW_clean_sbu_2, # of connection points: 3
#     Node 14, Type 0, BuildingBlock: OLANEW_clean_sbu_2, # of connection points: 3
#     Node 15, Type 0, BuildingBlock: OLANEW_clean_sbu_2, # of connection points: 3
#     Node 16, Type 0, BuildingBlock: OLANEW_clean_sbu_2, # of connection points: 3
#     Node 17, Type 0, BuildingBlock: OLANEW_clean_sbu_2, # of connection points: 3
#     Node 18, Type 0, BuildingBlock: OLANEW_clean_sbu_2, # of connection points: 3
#     Node 19, Type 0, BuildingBlock: OLANEW_clean_sbu_2, # of connection points: 3
#     Node 20, Type 0, BuildingBlock: OLANEW_clean_sbu_2, # of connection points: 3
#     Node 21, Type 0, BuildingBlock: OLANEW_clean_sbu_2, # of connection points: 3
#     Node 22, Type 0, BuildingBlock: OLANEW_clean_sbu_2, # of connection points: 3
#     Node 23, Type 0, BuildingBlock: OLANEW_clean_sbu_2, # of connection points: 3
#     Edge 24, Type (0, 0), BuildingBlock: XUDNAN_clean_linker_2, # of connection points: 2
#     Edge 25, Type (0, 0), BuildingBlock: XUDNAN_clean_linker_2, # of connection points: 2
#     Edge 26, Type (0, 0), BuildingBlock: XUDNAN_clean_linker_2, # of connection points: 2
#     Edge 27, Type (0, 0), BuildingBlock: XUDNAN_clean_linker_2, # of connection points: 2
#     Edge 28, Type (0, 0), BuildingBlock: XUDNAN_clean_linker_2, # of connection points: 2
#     Edge 29, Type (0, 0), BuildingBlock: XUDNAN_clean_linker_2, # of connection points: 2
#     Edge 30, Type (0, 0), BuildingBlock: XUDNAN_clean_linker_2, # of connection points: 2
#     Edge 31, Type (0, 0), BuildingBlock: XUDNAN_clean_linker_2, # of connection points: 2
#     Edge 32, Type (0, 0), BuildingBlock: XUDNAN_clean_linker_2, # of connection points: 2
#     Edge 33, Type (0, 0), BuildingBlock: XUDNAN_clean_linker_2, # of connection points: 2
#     Edge 34, Type (0, 0), BuildingBlock: XUDNAN_clean_linker_2, # of connection points: 2
#     Edge 35, Type (0, 0), BuildingBlock: XUDNAN_clean_linker_2, # of connection points: 2
#     Edge 36, Type (0, 0), BuildingBlock: XUDNAN_clean_linker_2, # of connection points: 2
#     Edge 37, Type (0, 0), BuildingBlock: XUDNAN_clean_linker_2, # of connection points: 2
#     Edge 38, Type (0, 0), BuildingBlock: XUDNAN_clean_linker_2, # of connection points: 2
#     Edge 39, Type (0, 0), BuildingBlock: XUDNAN_clean_linker_2, # of connection points: 2
#     Edge 40, Type (0, 0), BuildingBlock: XUDNAN_clean_linker_2, # of connection points: 2
#     Edge 41, Type (0, 0), BuildingBlock: XUDNAN_clean_linker_2, # of connection points: 2
#     Edge 42, Type (0, 0), BuildingBlock: XUDNAN_clean_linker_2, # of connection points: 2
#     Edge 43, Type (0, 0), BuildingBlock: XUDNAN_clean_linker_2, # of connection points: 2
#     Edge 44, Type (0, 0), BuildingBlock: XUDNAN_clean_linker_2, # of connection points: 2
#     Edge 45, Type (0, 0), BuildingBlock: XUDNAN_clean_linker_2, # of connection points: 2
#     Edge 46, Type (0, 0), BuildingBlock: XUDNAN_clean_linker_2, # of connection points: 2
#     Edge 47, Type (0, 0), BuildingBlock: XUDNAN_clean_linker_2, # of connection points: 2
#     Edge 48, Type (0, 0), BuildingBlock: XUDNAN_clean_linker_2, # of connection points: 2
#     Edge 49, Type (0, 0), BuildingBlock: XUDNAN_clean_linker_2, # of connection points: 2
#     Edge 50, Type (0, 0), BuildingBlock: XUDNAN_clean_linker_2, # of connection points: 2
#     Edge 51, Type (0, 0), BuildingBlock: XUDNAN_clean_linker_2, # of connection points: 2
#     Edge 52, Type (0, 0), BuildingBlock: XUDNAN_clean_linker_2, # of connection points: 2
#     Edge 53, Type (0, 0), BuildingBlock: XUDNAN_clean_linker_2, # of connection points: 2
#     Edge 54, Type (0, 0), BuildingBlock: XUDNAN_clean_linker_2, # of connection points: 2
#     Edge 55, Type (0, 0), BuildingBlock: XUDNAN_clean_linker_2, # of connection points: 2
#     Edge 56, Type (0, 0), BuildingBlock: XUDNAN_clean_linker_2, # of connection points: 2
#     Edge 57, Type (0, 0), BuildingBlock: XUDNAN_clean_linker_2, # of connection points: 2
#     Edge 58, Type (0, 0), BuildingBlock: XUDNAN_clean_linker_2, # of connection points: 2
#     Edge 59, Type (0, 0), BuildingBlock: XUDNAN_clean_linker_2, # of connection points: 2
# Relax obj value: 0.036
# Max RMSD: 0.070
# Mean RMSD: 0.032
data_MOF--net-bmn--node1-OLANEW_clean_sbu_2--edge1-XUDNAN_clean_linker_2
_symmetry_space_group_name_H-M    P1
_symmetry_Int_Tables_number       1
_symmetry_cell_setting            triclinic
loop_
_symmetry_equiv_pos_as_xyz
'x, y, z'
_cell_length_a     61.962022
_cell_length_b     61.791142
_cell_length_c     62.059194
_cell_angle_alpha  102.81812
_cell_angle_beta   97.118151
_cell_angle_gamma 97.29042
loop_
_atom_site_label
_atom_site_type_symbol
_atom_site_fract_x
_atom_site_fract_y
_atom_site_fract_z
_atom_type_partial_charge
O0 O 0.22748 0.57735 0.3327 0.0
Cd1 Cd 0.20397 0.57779 0.36167 0.0
O2 O 0.2449 0.61162 0.34839 0.0
Cd3 Cd 0.2223 0.61898 0.37239 0.0
O4 O 0.19819 0.63356 0.39157 0.0
C5 C 0.18696 0.64635 0.38313 0.0
O6 O 0.19033 0.64984 0.3636 0.0
C7 C 0.24269 0.59346 0.3333 0.0
C8 C 0.20136 0.53709 0.37442 0.0
O9 O 0.18585 0.5407 0.36062 0.0
O10 O 0.21786 0.55278 0.38242 0.0
O11 O 0.01703 0.98558 0.63636 0.0
Cd12 Cd 0.03302 0.97524 0.66997 0.0
O13 O 0.98537 0.96459 0.63521 0.0
Cd14 Cd 0.95049 0.9512 0.62256 0.0
O15 O 0.91521 0.93806 0.61735 0.0
C16 C 0.90593 0.93893 0.63461 0.0
O17 O 0.91781 0.94774 0.65442 0.0
C18 C 0.99737 0.97773 0.62677 0.0
C19 C 0.06608 0.94952 0.66027 0.0
O20 O 0.04617 0.94014 0.65919 0.0
O21 O 0.0704 0.97103 0.66621 0.0
O22 O 0.44167 0.6542 0.7554 0.0
Cd23 Cd 0.43513 0.62415 0.77472 0.0
O24 O 0.45914 0.67449 0.7878 0.0
Cd25 Cd 0.47826 0.70412 0.81207 0.0
O26 O 0.49169 0.73459 0.83818 0.0
C27 C 0.4925 0.75367 0.83355 0.0
O28 O 0.48585 0.7546 0.81289 0.0
C29 C 0.45206 0.67296 0.76726 0.0
C30 C 0.46862 0.59806 0.77522 0.0
O31 O 0.45128 0.59174 0.7604 0.0
O32 O 0.47024 0.61683 0.78963 0.0
O33 O 0.74573 0.37743 0.09985 0.0
Cd34 Cd 0.78013 0.38989 0.12614 0.0
O35 O 0.72849 0.3778 0.12858 0.0
Cd36 Cd 0.70142 0.37088 0.14686 0.0
O37 O 0.68338 0.36531 0.17377 0.0
C38 C 0.68749 0.34952 0.18295 0.0
O39 O 0.70166 0.33678 0.17532 0.0
C40 C 0.72785 0.37394 0.10749 0.0
C41 C 0.81668 0.39027 0.10416 0.0
O42 O 0.80727 0.37206 0.10788 0.0
O43 O 0.80885 0.40839 0.11086 0.0
O44 O 0.96698 0.06134 0.50144 0.0
Cd45 Cd 0.9622 0.08137 0.47175 0.0
O46 O 0.97341 0.03269 0.47644 0.0
Cd47 Cd 0.9827 0.99926 0.46715 0.0
O48 O 0.99403 0.9667 0.46102 0.0
C49 C 0.98511 0.95122 0.44395 0.0
O50 O 0.96909 0.95514 0.43009 0.0
C51 C 0.97089 0.0413 0.49639 0.0
C52 C 0.99976 0.1093 0.46764 0.0
O53 O 0.98613 0.11682 0.48024 0.0
O54 O 0.99586 0.08844 0.45737 0.0
O55 O 0.46796 0.80174 0.67733 0.0
Cd56 Cd 0.46854 0.82604 0.65102 0.0
O57 O 0.45679 0.76975 0.65212 0.0
Cd58 Cd 0.45016 0.78686 0.62542 0.0
O59 O 0.4335 0.80306 0.60174 0.0
C60 C 0.41274 0.80168 0.60069 0.0
O61 O 0.40287 0.79069 0.61355 0.0
C62 C 0.46321 0.7804 0.6724 0.0
C63 C 0.50626 0.82589 0.63057 0.0
O64 O 0.5066 0.83879 0.64991 0.0
O65 O 0.48813 0.81312 0.62091 0.0
O66 O 0.58941 0.2959 0.98061 0.0
Cd67 Cd 0.56561 0.27424 0.9461 0.0
O68 O 0.61759 0.2795 0.97145 0.0
Cd69 Cd 0.5968 0.25324 0.94491 0.0
O70 O 0.57351 0.22207 0.93155 0.0
C71 C 0.56283 0.21518 0.9456 0.0
O72 O 0.56606 0.22737 0.96631 0.0
C73 C 0.60972 0.29432 0.98455 0.0
C74 C 0.5697 0.29658 0.91197 0.0
O75 O 0.58336 0.28366 0.9164 0.0
O76 O 0.55393 0.2987 0.92345 0.0
O77 O 0.35885 0.54623 0.22844 0.0
Cd78 Cd 0.38006 0.52524 0.20289 0.0
O79 O 0.32859 0.5299 0.20539 0.0
Cd80 Cd 0.2934 0.52454 0.19219 0.0
O81 O 0.26244 0.51759 0.16895 0.0
C82 C 0.26388 0.51909 0.14907 0.0
O83 O 0.28343 0.52494 0.14404 0.0
C84 C 0.33799 0.54343 0.22366 0.0
C85 C 0.39696 0.49198 0.2205 0.0
O86 O 0.40802 0.51179 0.22426 0.0
O87 O 0.37794 0.48789 0.20831 0.0
O88 O 0.25545 0.22214 0.52027 0.0
Cd89 Cd 0.27974 0.19638 0.5299 0.0
O90 O 0.26611 0.24938 0.55076 0.0
Cd91 Cd 0.28517 0.22939 0.56849 0.0
O92 O 0.29528 0.21508 0.59665 0.0
C93 C 0.30679 0.19939 0.59591 0.0
O94 O 0.3137 0.19088 0.57713 0.0
C95 C 0.25463 0.24184 0.53144 0.0
C96 C 0.31021 0.19273 0.5002 0.0
O97 O 0.29081 0.18123 0.49471 0.0
O98 O 0.31547 0.20561 0.51994 0.0
O99 O 0.31144 0.0378 0.69364 0.0
Cd100 Cd 0.33441 0.0696 0.72109 0.0
O101 O 0.28182 0.05394 0.69563 0.0
Cd102 Cd 0.29567 0.07227 0.7299 0.0
O103 O 0.30952 0.07921 0.76538 0.0
C104 C 0.30488 0.06371 0.77531 0.0
O105 O 0.29208 0.04503 0.76394 0.0
C106 C 0.29174 0.0388 0.68575 0.0
C107 C 0.33318 0.10719 0.70304 0.0
O108 O 0.34636 0.09329 0.69743 0.0
O109 O 0.32123 0.10382 0.71776 0.0
O110 O 0.34307 0.0286 0.03457 0.0
Cd111 Cd 0.31412 0.04749 0.05022 0.0
O112 O 0.3447 0.0496 0.01041 0.0
Cd113 Cd 0.35407 0.05864 0.98028 0.0
O114 O 0.35489 0.06676 0.94781 0.0
C115 C 0.34305 0.05326 0.93075 0.0
O116 O 0.33151 0.0349 0.93332 0.0
C117 C 0.3513 0.03384 0.01829 0.0
C118 C 0.32972 0.08178 0.08865 0.0
O119 O 0.32386 0.06153 0.09002 0.0
O120 O 0.3284 0.08568 0.06912 0.0
O121 O 0.42323 0.22476 0.33117 0.0
Cd122 Cd 0.40196 0.1882 0.3299 0.0
O123 O 0.40715 0.22797 0.29856 0.0
Cd124 Cd 0.38695 0.19478 0.28694 0.0
O125 O 0.37407 0.17306 0.25372 0.0
C126 C 0.3755 0.18344 0.23827 0.0
O127 O 0.38363 0.20498 0.24391 0.0
C128 C 0.42094 0.23599 0.3164 0.0
C129 C 0.38754 0.18803 0.3708 0.0
O130 O 0.40705 0.18463 0.36785 0.0
O131 O 0.37473 0.19134 0.35439 0.0
O132 O 0.56234 0.34969 0.35015 0.0
Cd133 Cd 0.59901 0.37197 0.3567 0.0
O134 O 0.54916 0.37587 0.33634 0.0
Cd135 Cd 0.52373 0.3924 0.32184 0.0
O136 O 0.49965 0.40838 0.30473 0.0
C137 C 0.48092 0.39727 0.2952 0.0
O138 O 0.47616 0.37618 0.29606 0.0
C139 C 0.54604 0.35678 0.34102 0.0
C140 C 0.6198 0.36098 0.31924 0.0
O141 O 0.62159 0.35037 0.33477 0.0
O142 O 0.60828 0.37694 0.32151 0.0
O143 O 0.05424 0.47217 0.0208 0.0
Cd144 Cd 0.07783 0.44625 0.03162 0.0
O145 O 0.0287 0.4556 0.03571 0.0
Cd146 Cd 0.99672 0.44978 0.04668 0.0
O147 O 0.96438 0.43924 0.0547 0.0
C148 C 0.95465 0.41938 0.04536 0.0
O149 O 0.96436 0.40624 0.03125 0.0
C150 C 0.03468 0.47021 0.02515 0.0
C151 C 0.12022 0.46685 0.05252 0.0
O152 O 0.11546 0.46048 0.03115 0.0
O153 O 0.10482 0.46376 0.06406 0.0
O154 O 0.99449 0.69988 0.41167 0.0
Cd155 Cd 0.02186 0.7328 0.43047 0.0
O156 O 0.98929 0.71055 0.38014 0.0
Cd157 Cd 0.00718 0.74445 0.39497 0.0
O158 O 0.0145 0.78085 0.40831 0.0
C159 C 0.00264 0.79264 0.39907 0.0
O160 O 0.98734 0.78246 0.38194 0.0
C161 C 0.98572 0.69583 0.39126 0.0
C162 C 0.06288 0.7189 0.42981 0.0
O163 O 0.05249 0.71828 0.44634 0.0
O164 O 0.05421 0.72686 0.41401 0.0
O165 O 0.71768 0.79699 0.56029 0.0
Cd166 Cd 0.712 0.83602 0.57218 0.0
O167 O 0.71644 0.79018 0.59346 0.0
Cd168 Cd 0.70069 0.81946 0.60458 0.0
O169 O 0.66844 0.82957 0.60755 0.0
C170 C 0.6539 0.82201 0.59024 0.0
O171 O 0.65969 0.81043 0.572 0.0
C172 C 0.71991 0.78399 0.57341 0.0
C173 C 0.75223 0.86298 0.59233 0.0
O174 O 0.73911 0.85491 0.60405 0.0
O175 O 0.74618 0.8586 0.57111 0.0
O176 O 0.16783 0.3321 0.43361 0.0
Cd177 Cd 0.14997 0.34238 0.40074 0.0
O178 O 0.14566 0.29975 0.42437 0.0
Cd179 Cd 0.13231 0.26697 0.42945 0.0
O180 O 0.11717 0.2347 0.43405 0.0
C181 C 0.10349 0.23429 0.44767 0.0
O182 O 0.09903 0.25341 0.45897 0.0
C183 C 0.1619 0.31295 0.43724 0.0
C184 C 0.16743 0.38546 0.39819 0.0
O185 O 0.14906 0.38191 0.40529 0.0
O186 O 0.17749 0.36874 0.39233 0.0
O187 O 0.26487 0.92064 0.53235 0.0
Cd188 Cd 0.26718 0.8868 0.50425 0.0
O189 O 0.24797 0.89937 0.55122 0.0
Cd190 Cd 0.23031 0.89751 0.57933 0.0
O191 O 0.20501 0.90347 0.60055 0.0
C192 C 0.19073 0.88739 0.60201 0.0
O193 O 0.19206 0.86678 0.59148 0.0
C194 C 0.25618 0.9187 0.54946 0.0
C195 C 0.30317 0.868 0.51895 0.0
O196 O 0.30516 0.88212 0.5067 0.0
O197 O 0.28407 0.86249 0.52387 0.0
O198 O 0.65582 0.49793 0.79014 0.0
Cd199 Cd 0.63849 0.51539 0.82141 0.0
O200 O 0.64025 0.46627 0.79544 0.0
Cd201 Cd 0.62986 0.43063 0.79386 0.0
O202 O 0.61186 0.40347 0.80514 0.0
C203 C 0.62163 0.39061 0.81498 0.0
O204 O 0.64322 0.39279 0.81735 0.0
C205 C 0.65218 0.47658 0.78439 0.0
C206 C 0.59858 0.52768 0.80657 0.0
O207 O 0.61628 0.54216 0.8123 0.0
O208 O 0.59975 0.50745 0.80791 0.0
O209 O 0.7262 0.41664 0.6407 0.0
Cd210 Cd 0.75413 0.41551 0.61604 0.0
O211 O 0.75286 0.43966 0.66424 0.0
Cd212 Cd 0.7696 0.46075 0.69657 0.0
O213 O 0.78809 0.48248 0.72766 0.0
C214 C 0.78829 0.47632 0.74589 0.0
O215 O 0.77712 0.45672 0.74575 0.0
C216 C 0.73308 0.42944 0.66004 0.0
C217 C 0.74671 0.43811 0.58229 0.0
O218 O 0.74245 0.41661 0.57799 0.0
O219 O 0.75417 0.44894 0.60251 0.0
O220 O 0.91283 0.553 0.95542 0.0
Cd221 Cd 0.87833 0.5657 0.94417 0.0
O222 O 0.89502 0.53529 0.97639 0.0
Cd223 Cd 0.89234 0.51818 0.00345 0.0
O224 O 0.88788 0.5109 0.03556 0.0
C225 C 0.86941 0.50148 0.03857 0.0
O226 O 0.85313 0.49506 0.02167 0.0
C227 C 0.9129 0.5408 0.96942 0.0
C228 C 0.86258 0.55084 0.8985 0.0
O229 O 0.87567 0.56951 0.90643 0.0
O230 O 0.8571 0.5391 0.91218 0.0
O231 O 0.88383 0.5429 0.29647 0.0
Cd232 Cd 0.8552 0.51475 0.27108 0.0
O233 O 0.88215 0.56722 0.2755 0.0
Cd234 Cd 0.86237 0.54304 0.24654 0.0
O235 O 0.85377 0.52593 0.21115 0.0
C236 C 0.86942 0.52715 0.19981 0.0
O237 O 0.88898 0.53769 0.21016 0.0
C238 C 0.8896 0.56242 0.29359 0.0
C239 C 0.81556 0.52264 0.28577 0.0
O240 O 0.8274 0.50989 0.29386 0.0
O241 O 0.82203 0.53096 0.27005 0.0
O242 O 0.72552 0.61408 0.49216 0.0
Cd243 Cd 0.71613 0.57707 0.46605 0.0
O244 O 0.72206 0.63239 0.46561 0.0
Cd245 Cd 0.71987 0.60262 0.43832 0.0
O246 O 0.72753 0.58108 0.4082 0.0
C247 C 0.72083 0.58443 0.38919 0.0
O248 O 0.70839 0.59999 0.3881 0.0
C249 C 0.72532 0.63251 0.48629 0.0
C250 C 0.72524 0.54262 0.48643 0.0
O251 O 0.73796 0.54935 0.47364 0.0
O252 O 0.70831 0.55213 0.48961 0.0
O253 O 0.48589 0.95868 0.96318 0.0
Cd254 Cd 0.52108 0.95133 0.95159 0.0
O255 O 0.48741 0.98695 0.94732 0.0
Cd256 Cd 0.47826 0.01576 0.93529 0.0
O257 O 0.48297 0.04785 0.92593 0.0
C258 C 0.48578 0.06593 0.94116 0.0
O259 O 0.48435 0.06468 0.96182 0.0
C260 C 0.47736 0.97501 0.95841 0.0
C261 C 0.51949 0.90609 0.93101 0.0
O262 O 0.52535 0.91346 0.9522 0.0
O263 O 0.51447 0.92016 0.91957 0.0
H264 H 0.29744 0.52873 0.23316 0.0
H265 H 0.35035 0.58567 0.2503 0.0
H266 H 0.33038 0.60575 0.27858 0.0
H267 H 0.25162 0.56098 0.24113 0.0
H268 H 0.23697 0.54063 0.2531 0.0
H269 H 0.25442 0.53174 0.23274 0.0
H270 H 0.27599 0.51361 0.26069 0.0
H271 H 0.25875 0.52259 0.28116 0.0
H272 H 0.28824 0.53056 0.28807 0.0
H273 H 0.30575 0.61877 0.3061 0.0
H274 H 0.27871 0.62351 0.33207 0.0
H275 H 0.24206 0.55767 0.29762 0.0
C276 C 0.30447 0.54569 0.24238 0.0
C277 C 0.32518 0.5559 0.23925 0.0
C278 C 0.33438 0.57769 0.25235 0.0
C279 C 0.32315 0.58922 0.26837 0.0
C280 C 0.30282 0.57864 0.27118 0.0
C281 C 0.29356 0.55735 0.25859 0.0
C282 C 0.27227 0.54915 0.26605 0.0
C283 C 0.25266 0.54541 0.24713 0.0
C284 C 0.27393 0.52771 0.2745 0.0
C285 C 0.27119 0.56902 0.285 0.0
C286 C 0.28884 0.58593 0.2875 0.0
C287 C 0.29177 0.60571 0.30423 0.0
C288 C 0.27631 0.60822 0.31892 0.0
C289 C 0.25824 0.59097 0.31692 0.0
C290 C 0.25564 0.5712 0.29958 0.0
H291 H 0.99088 0.05545 0.54002 0.0
H292 H 0.95304 0.99752 0.49117 0.0
H293 H 0.95418 0.97531 0.51978 0.0
H294 H 0.02673 0.02456 0.56666 0.0
H295 H 0.02814 0.04217 0.59432 0.0
H296 H 0.02347 0.05366 0.57022 0.0
H297 H 0.98787 0.06648 0.58299 0.0
H298 H 0.99236 0.05489 0.60707 0.0
H299 H 0.96673 0.04611 0.58798 0.0
H300 H 0.9591 0.95961 0.55387 0.0
H301 H 0.97045 0.95047 0.59002 0.0
H302 H 0.00639 0.01813 0.61619 0.0
C303 C 0.98282 0.0381 0.53544 0.0
C304 C 0.97205 0.02806 0.51342 0.0
C305 C 0.96174 0.00533 0.50789 0.0
C306 C 0.96211 0.99268 0.52406 0.0
C307 C 0.97296 0.00301 0.54563 0.0
C308 C 0.98334 0.02513 0.55129 0.0
C309 C 0.99474 0.0319 0.57537 0.0
C310 C 0.01975 0.03845 0.57671 0.0
C311 C 0.98483 0.05097 0.58916 0.0
C312 C 0.98919 0.01013 0.58235 0.0
C313 C 0.97634 0.99378 0.56506 0.0
C314 C 0.9691 0.9723 0.56755 0.0
C315 C 0.97543 0.96732 0.58819 0.0
C316 C 0.98902 0.98369 0.60591 0.0
C317 C 0.99591 0.00534 0.6029 0.0
H318 H 0.45496 0.67232 0.7235 0.0
H319 H 0.45464 0.71752 0.78775 0.0
H320 H 0.46032 0.75 0.77095 0.0
H321 H 0.49511 0.70779 0.70317 0.0
H322 H 0.4805 0.70017 0.67491 0.0
H323 H 0.47834 0.68052 0.69238 0.0
H324 H 0.43581 0.67737 0.68569 0.0
H325 H 0.43784 0.69697 0.66819 0.0
H326 H 0.42351 0.70251 0.6919 0.0
H327 H 0.46577 0.77754 0.74722 0.0
H328 H 0.46698 0.7981 0.71745 0.0
H329 H 0.46105 0.73487 0.66796 0.0
C330 C 0.45639 0.68908 0.73409 0.0
C331 C 0.45547 0.69247 0.75722 0.0
C332 C 0.45673 0.71459 0.77037 0.0
C333 C 0.45963 0.73313 0.76088 0.0
C334 C 0.46093 0.72925 0.73815 0.0
C335 C 0.45907 0.70777 0.72484 0.0
C336 C 0.45953 0.70815 0.70057 0.0
C337 C 0.47956 0.69859 0.69228 0.0
C338 C 0.43788 0.69551 0.68572 0.0
C339 C 0.46179 0.73321 0.70232 0.0
C340 C 0.46284 0.74508 0.72419 0.0
C341 C 0.46493 0.76843 0.73002 0.0
C342 C 0.46567 0.77997 0.71299 0.0
C343 C 0.46406 0.76811 0.69036 0.0
C344 C 0.46226 0.74442 0.68508 0.0
H345 H 0.65465 0.29937 0.99471 0.0
H346 H 0.59723 0.32254 0.01998 0.0
H347 H 0.62114 0.34575 0.0543 0.0
H348 H 0.6833 0.29522 0.0466 0.0
H349 H 0.71012 0.30507 0.04083 0.0
H350 H 0.68852 0.29068 0.01813 0.0
H351 H 0.69333 0.32452 0.99988 0.0
H352 H 0.71503 0.33899 0.02248 0.0
H353 H 0.69156 0.35221 0.01593 0.0
H354 H 0.65145 0.36541 0.08661 0.0
H355 H 0.6859 0.38136 0.11322 0.0
H356 H 0.72315 0.34566 0.06622 0.0
C357 C 0.64707 0.30938 0.0074 0.0
C358 C 0.62405 0.30909 0.00467 0.0
C359 C 0.61483 0.32253 0.02167 0.0
C360 C 0.62827 0.33572 0.04125 0.0
C361 C 0.65088 0.33543 0.04348 0.0
C362 C 0.66022 0.32274 0.02691 0.0
C363 C 0.68494 0.32537 0.03331 0.0
C364 C 0.69213 0.30274 0.03481 0.0
C365 C 0.69692 0.33591 0.01693 0.0
C366 C 0.68808 0.34139 0.05615 0.0
C367 C 0.66826 0.34694 0.06181 0.0
C368 C 0.66706 0.36116 0.08235 0.0
C369 C 0.68666 0.36996 0.09745 0.0
C370 C 0.70711 0.36452 0.09187 0.0
C371 C 0.70774 0.35016 0.07089 0.0
H372 H 0.17164 0.27109 0.43739 0.0
H373 H 0.18181 0.33947 0.47789 0.0
H374 H 0.20519 0.32833 0.50763 0.0
H375 H 0.16973 0.24286 0.48377 0.0
H376 H 0.18408 0.22111 0.47075 0.0
H377 H 0.16679 0.23425 0.4537 0.0
H378 H 0.19969 0.24461 0.43388 0.0
H379 H 0.21714 0.23174 0.45097 0.0
H380 H 0.22501 0.26067 0.45038 0.0
H381 H 0.22889 0.30994 0.53202 0.0
H382 H 0.25163 0.28607 0.54888 0.0
H383 H 0.22566 0.22977 0.49204 0.0
C384 C 0.17806 0.28352 0.45286 0.0
C385 C 0.17439 0.30598 0.45568 0.0
C386 C 0.18422 0.3221 0.47559 0.0
C387 C 0.19745 0.31591 0.49256 0.0
C388 C 0.20074 0.29358 0.48924 0.0
C389 C 0.19129 0.27763 0.46988 0.0
C390 C 0.19843 0.25509 0.4698 0.0
C391 C 0.17858 0.23728 0.46949 0.0
C392 C 0.2108 0.24761 0.45009 0.0
C393 C 0.21371 0.26092 0.49197 0.0
C394 C 0.21467 0.28313 0.50304 0.0
C395 C 0.22815 0.29248 0.52357 0.0
C396 C 0.24103 0.27879 0.533 0.0
C397 C 0.24047 0.25604 0.52179 0.0
C398 C 0.22648 0.24707 0.50107 0.0
H399 H 0.29353 0.99409 0.67282 0.0
H400 H 0.26636 0.04831 0.65097 0.0
H401 H 0.25211 0.0228 0.61366 0.0
H402 H 0.31109 0.96935 0.62362 0.0
H403 H 0.30321 0.94068 0.62512 0.0
H404 H 0.30988 0.96275 0.65037 0.0
H405 H 0.27184 0.95111 0.66136 0.0
H406 H 0.2651 0.92886 0.63617 0.0
H407 H 0.24709 0.94943 0.64202 0.0
H408 H 0.24574 0.99266 0.57731 0.0
H409 H 0.24328 0.95876 0.54631 0.0
H410 H 0.27109 0.92351 0.59332 0.0
C411 C 0.28427 0.00043 0.66025 0.0
C412 C 0.28105 0.02307 0.66456 0.0
C413 C 0.26882 0.03091 0.64789 0.0
C414 C 0.26075 0.01659 0.62669 0.0
C415 C 0.26455 0.99438 0.62278 0.0
C416 C 0.27554 0.98621 0.6393 0.0
C417 C 0.27757 0.96174 0.63087 0.0
C418 C 0.30188 0.95846 0.63259 0.0
C419 C 0.26462 0.94691 0.64335 0.0
C420 C 0.26682 0.95766 0.60678 0.0
C421 C 0.2595 0.97669 0.60235 0.0
C422 C 0.25086 0.97748 0.58072 0.0
C423 C 0.24961 0.95829 0.56324 0.0
C424 C 0.25655 0.93857 0.56768 0.0
C425 C 0.2651 0.93825 0.58971 0.0
H426 H 0.38707 0.04934 0.00063 0.0
H427 H 0.35263 0.98937 0.01419 0.0
H428 H 0.38013 0.96747 0.99843 0.0
H429 H 0.40392 0.02192 0.94809 0.0
H430 H 0.43049 0.03956 0.95409 0.0
H431 H 0.40728 0.05023 0.96505 0.0
H432 H 0.4293 0.06003 0.00522 0.0
H433 H 0.45251 0.0494 0.99434 0.0
H434 H 0.44095 0.03837 0.01572 0.0
H435 H 0.41167 0.95238 0.98237 0.0
H436 H 0.44618 0.94517 0.96821 0.0
H437 H 0.46108 0.01528 0.96652 0.0
C438 C 0.38505 0.03149 0.99976 0.0
C439 C 0.36751 0.0209 0.0082 0.0
C440 C 0.3659 0.99773 0.00768 0.0
C441 C 0.38137 0.98516 0.99869 0.0
C442 C 0.39844 0.99606 0.99046 0.0
C443 C 0.40048 0.01872 0.99102 0.0
C444 C 0.42114 0.02658 0.98228 0.0
C445 C 0.41536 0.03507 0.96112 0.0
C446 C 0.43691 0.04466 0.00048 0.0
C447 C 0.43045 0.00481 0.97689 0.0
C448 C 0.41697 0.98741 0.98156 0.0
C449 C 0.42229 0.96583 0.97851 0.0
C450 C 0.44197 0.96194 0.97052 0.0
C451 C 0.45617 0.97953 0.96573 0.0
C452 C 0.45027 0.00125 0.96906 0.0
H453 H 0.45652 0.2557 0.34908 0.0
H454 H 0.41853 0.26511 0.28911 0.0
H455 H 0.44493 0.299 0.29074 0.0
H456 H 0.47371 0.31627 0.37687 0.0
H457 H 0.50069 0.31202 0.38804 0.0
H458 H 0.47744 0.28995 0.38366 0.0
H459 H 0.4981 0.26258 0.35909 0.0
H460 H 0.52131 0.28455 0.36324 0.0
H461 H 0.50823 0.27005 0.33527 0.0
H462 H 0.47762 0.32884 0.29603 0.0
H463 H 0.51352 0.35378 0.30577 0.0
H464 H 0.5298 0.32621 0.36307 0.0
C465 C 0.45347 0.26515 0.33657 0.0
C466 C 0.43539 0.25773 0.319 0.0
C467 C 0.43221 0.27044 0.30277 0.0
C468 C 0.44711 0.28976 0.30356 0.0
C469 C 0.46504 0.29628 0.32076 0.0
C470 C 0.46819 0.2845 0.3371 0.0
C471 C 0.48955 0.2943 0.35296 0.0
C472 C 0.48507 0.3037 0.37679 0.0
C473 C 0.50522 0.27683 0.3526 0.0
C474 C 0.49818 0.313 0.34259 0.0
C475 C 0.48371 0.31396 0.32414 0.0
C476 C 0.48877 0.32879 0.31088 0.0
C477 C 0.50911 0.34313 0.31671 0.0
C478 C 0.52406 0.34266 0.33573 0.0
C479 C 0.51848 0.3273 0.34873 0.0
H480 H 0.91867 0.50159 0.98157 0.0
H481 H 0.95417 0.56486 0.9762 0.0
H482 H 0.98919 0.55416 0.9909 0.0
H483 H 0.95147 0.49809 0.03309 0.0
H484 H 0.95031 0.46808 0.02421 0.0
H485 H 0.92805 0.48111 0.01397 0.0
H486 H 0.93257 0.46328 0.97314 0.0
H487 H 0.95481 0.45023 0.98333 0.0
H488 H 0.95908 0.46811 0.96439 0.0
H489 H 0.02028 0.53646 0.006 0.0
H490 H 0.04542 0.51245 0.01925 0.0
H491 H 0.9896 0.46024 0.01318 0.0
C492 C 0.93374 0.5134 0.98396 0.0
C493 C 0.93371 0.53427 0.97824 0.0
C494 C 0.95388 0.54884 0.98064 0.0
C495 C 0.97381 0.54295 0.98904 0.0
C496 C 0.97326 0.52235 0.99477 0.0
C497 C 0.95378 0.50772 0.99221 0.0
C498 C 0.95781 0.48621 0.99877 0.0
C499 C 0.94623 0.48321 0.01869 0.0
C500 C 0.95065 0.46575 0.97871 0.0
C501 C 0.98262 0.49104 0.00542 0.0
C502 C 0.9912 0.51201 0.00312 0.0
C503 C 0.01374 0.52005 0.00798 0.0
C504 C 0.02788 0.50628 0.01543 0.0
C505 C 0.01943 0.48474 0.01795 0.0
C506 C 0.99651 0.47701 0.01259 0.0
H507 H 0.96279 0.68246 0.34852 0.0
H508 H 0.97699 0.65958 0.40932 0.0
H509 H 0.95421 0.62282 0.39088 0.0
H510 H 0.90639 0.65514 0.33351 0.0
H511 H 0.90744 0.64825 0.30391 0.0
H512 H 0.92492 0.67271 0.32192 0.0
H513 H 0.95924 0.65792 0.30786 0.0
H514 H 0.94187 0.63338 0.28984 0.0
H515 H 0.96421 0.63027 0.3099 0.0
H516 H 0.93017 0.58836 0.36562 0.0
H517 H 0.90586 0.55914 0.33573 0.0
H518 H 0.90723 0.60487 0.29174 0.0
C519 C 0.96112 0.66976 0.35801 0.0
C520 C 0.97171 0.67393 0.38038 0.0
C521 C 0.96903 0.65681 0.39217 0.0
C522 C 0.95614 0.63586 0.38184 0.0
C523 C 0.94601 0.6323 0.35974 0.0
C524 C 0.94829 0.6488 0.348 0.0
C525 C 0.93558 0.64076 0.32448 0.0
C526 C 0.91751 0.65506 0.32075 0.0
C527 C 0.95116 0.64057 0.30699 0.0
C528 C 0.92581 0.61714 0.32482 0.0
C529 C 0.93206 0.61255 0.34528 0.0
C530 C 0.92514 0.59177 0.34953 0.0
C531 C 0.91136 0.57527 0.33244 0.0
C532 C 0.9046 0.57969 0.31138 0.0
C533 C 0.91204 0.60093 0.30763 0.0
H534 H 0.72426 0.67468 0.4793 0.0
H535 H 0.73242 0.63906 0.53199 0.0
H536 H 0.735 0.67472 0.56035 0.0
H537 H 0.76131 0.72674 0.50915 0.0
H538 H 0.74399 0.74424 0.49794 0.0
H539 H 0.74467 0.71625 0.48193 0.0
H540 H 0.70226 0.70664 0.47883 0.0
H541 H 0.70146 0.73455 0.4948 0.0
H542 H 0.68994 0.7105 0.50397 0.0
H543 H 0.73383 0.71376 0.58279 0.0
H544 H 0.72884 0.75305 0.59751 0.0
H545 H 0.72179 0.76298 0.53003 0.0
C546 C 0.7269 0.67437 0.4968 0.0
C547 C 0.72818 0.65404 0.5034 0.0
C548 C 0.73143 0.6544 0.52651 0.0
C549 C 0.73297 0.6746 0.54275 0.0
C550 C 0.73135 0.69427 0.53563 0.0
C551 C 0.72848 0.69433 0.5132 0.0
C552 C 0.72608 0.71749 0.50988 0.0
C553 C 0.74515 0.72672 0.49909 0.0
C554 C 0.7036 0.71727 0.49606 0.0
C555 C 0.72755 0.73038 0.53391 0.0
C556 C 0.73078 0.71675 0.54854 0.0
C557 C 0.73155 0.72466 0.57152 0.0
C558 C 0.72867 0.747 0.57971 0.0
C559 C 0.72501 0.76115 0.56495 0.0
C560 C 0.7248 0.75271 0.5418 0.0
H561 H 0.73253 0.46682 0.69326 0.0
H562 H 0.70006 0.3981 0.66514 0.0
H563 H 0.67598 0.40213 0.69434 0.0
H564 H 0.73277 0.46627 0.75137 0.0
H565 H 0.72762 0.49479 0.75935 0.0
H566 H 0.74214 0.48651 0.73624 0.0
H567 H 0.71381 0.50022 0.71027 0.0
H568 H 0.69916 0.50873 0.73323 0.0
H569 H 0.6849 0.48958 0.70769 0.0
H570 H 0.65534 0.41404 0.72674 0.0
H571 H 0.63927 0.43305 0.75884 0.0
H572 H 0.68654 0.49341 0.76627 0.0
C573 C 0.7208 0.45241 0.69358 0.0
C574 C 0.71856 0.43194 0.67732 0.0
C575 C 0.70212 0.41389 0.67758 0.0
C576 C 0.68845 0.41599 0.69412 0.0
C577 C 0.69137 0.43631 0.71018 0.0
C578 C 0.7071 0.45422 0.70996 0.0
C579 C 0.70662 0.47443 0.72872 0.0
C580 C 0.72859 0.48086 0.74488 0.0
C581 C 0.70077 0.49441 0.71941 0.0
C582 C 0.68822 0.46509 0.73962 0.0
C583 C 0.6796 0.4431 0.72872 0.0
C584 C 0.66214 0.43118 0.73556 0.0
C585 C 0.65325 0.44205 0.754 0.0
C586 C 0.6619 0.46458 0.76545 0.0
C587 C 0.67961 0.47613 0.75802 0.0
H588 H 0.0872 0.71542 0.39557 0.0
H589 H 0.08502 0.70043 0.46045 0.0
H590 H 0.11766 0.68158 0.45639 0.0
H591 H 0.10107 0.66394 0.36877 0.0
H592 H 0.11911 0.67578 0.35222 0.0
H593 H 0.09675 0.6897 0.36102 0.0
H594 H 0.12416 0.72631 0.37971 0.0
H595 H 0.14662 0.71254 0.37082 0.0
H596 H 0.14737 0.72553 0.39999 0.0
H597 H 0.14901 0.66209 0.44401 0.0
H598 H 0.1773 0.64448 0.42475 0.0
H599 H 0.15878 0.67243 0.3681 0.0
C600 C 0.09377 0.7085 0.4091 0.0
C601 C 0.08359 0.70946 0.42836 0.0
C602 C 0.09259 0.69997 0.44557 0.0
C603 C 0.11112 0.68922 0.44342 0.0
C604 C 0.1205 0.6882 0.424 0.0
C605 C 0.11222 0.69772 0.40722 0.0
C606 C 0.12476 0.69355 0.38765 0.0
C607 C 0.10951 0.67993 0.36615 0.0
C608 C 0.13642 0.71581 0.38436 0.0
C609 C 0.14116 0.67987 0.39588 0.0
C610 C 0.13852 0.67703 0.41692 0.0
C611 C 0.15136 0.66437 0.42762 0.0
C612 C 0.16734 0.65439 0.41652 0.0
C613 C 0.1703 0.65711 0.39494 0.0
C614 C 0.15703 0.67011 0.38463 0.0
H615 H 0.78644 0.87638 0.57159 0.0
H616 H 0.76731 0.87966 0.63707 0.0
H617 H 0.80408 0.90076 0.6549 0.0
H618 H 0.84116 0.86721 0.58632 0.0
H619 H 0.85304 0.88397 0.5691 0.0
H620 H 0.82479 0.87037 0.56142 0.0
H621 H 0.81228 0.90871 0.56078 0.0
H622 H 0.84052 0.92244 0.56842 0.0
H623 H 0.82019 0.9318 0.58519 0.0
H624 H 0.8432 0.92042 0.66562 0.0
H625 H 0.88221 0.93674 0.66861 0.0
H626 H 0.87618 0.92008 0.59613 0.0
C627 C 0.78989 0.88175 0.58968 0.0
C628 C 0.77395 0.87645 0.60295 0.0
C629 C 0.77923 0.88354 0.62657 0.0
C630 C 0.80006 0.89557 0.63684 0.0
C631 C 0.81545 0.90032 0.62328 0.0
C632 C 0.81064 0.89363 0.60021 0.0
C633 C 0.83042 0.90012 0.58952 0.0
C634 C 0.83778 0.87917 0.57579 0.0
C635 C 0.82556 0.91676 0.57513 0.0
C636 C 0.84716 0.91133 0.61019 0.0
C637 C 0.83813 0.9114 0.62947 0.0
C638 C 0.85044 0.92053 0.65064 0.0
C639 C 0.8726 0.92976 0.65215 0.0
C640 C 0.8823 0.9297 0.63262 0.0
C641 C 0.86928 0.92042 0.61138 0.0
H642 H 0.51114 0.61067 0.79701 0.0
H643 H 0.46533 0.55333 0.75549 0.0
H644 H 0.49381 0.52908 0.7585 0.0
H645 H 0.55965 0.59513 0.77372 0.0
H646 H 0.57768 0.60529 0.80019 0.0
H647 H 0.55373 0.61811 0.79451 0.0
H648 H 0.54036 0.61038 0.83044 0.0
H649 H 0.56421 0.59748 0.83619 0.0
H650 H 0.53701 0.58209 0.83416 0.0
H651 H 0.52649 0.5107 0.76814 0.0
H652 H 0.56207 0.50002 0.78119 0.0
H653 H 0.58718 0.56979 0.81452 0.0
C654 C 0.50713 0.59303 0.78847 0.0
C655 C 0.48601 0.58384 0.77609 0.0
C656 C 0.48143 0.56072 0.76502 0.0
C657 C 0.49748 0.54682 0.76668 0.0
C658 C 0.51808 0.55637 0.7792 0.0
C659 C 0.52305 0.579 0.78966 0.0
C660 C 0.54651 0.58512 0.80192 0.0
C661 C 0.5602 0.6019 0.79198 0.0
C662 C 0.54704 0.59431 0.82717 0.0
C663 C 0.55387 0.56233 0.79699 0.0
C664 C 0.53718 0.54595 0.78398 0.0
C665 C 0.53976 0.52342 0.77811 0.0
C666 C 0.55997 0.51751 0.78566 0.0
C667 C 0.57739 0.53411 0.7987 0.0
C668 C 0.57425 0.5568 0.80432 0.0
H669 H 0.92917 0.44285 0.07224 0.0
H670 H 0.93143 0.37672 0.03098 0.0
H671 H 0.89603 0.36222 0.04104 0.0
H672 H 0.90598 0.42324 0.11641 0.0
H673 H 0.88972 0.44556 0.12123 0.0
H674 H 0.91525 0.44981 0.11048 0.0
H675 H 0.89363 0.46128 0.07717 0.0
H676 H 0.86809 0.45568 0.08748 0.0
H677 H 0.87086 0.44172 0.05946 0.0
H678 H 0.86137 0.35447 0.0571 0.0
H679 H 0.8288 0.35456 0.07642 0.0
H680 H 0.84845 0.42603 0.10595 0.0
C681 C 0.9222 0.42533 0.06523 0.0
C682 C 0.93309 0.41091 0.05084 0.0
C683 C 0.92339 0.38811 0.04203 0.0
C684 C 0.90329 0.37969 0.04766 0.0
C685 C 0.89308 0.39432 0.06202 0.0
C686 C 0.90213 0.41667 0.0706 0.0
C687 C 0.88795 0.42879 0.08588 0.0
C688 C 0.90046 0.43736 0.10992 0.0
C689 C 0.87965 0.44801 0.07693 0.0
C690 C 0.86936 0.40983 0.08436 0.0
C691 C 0.87277 0.39001 0.07074 0.0
C692 C 0.8584 0.36993 0.06763 0.0
C693 C 0.84001 0.37013 0.07872 0.0
C694 C 0.83605 0.39033 0.0925 0.0
C695 C 0.8509 0.41042 0.09524 0.0
H696 H 0.96807 0.91397 0.41011 0.0
H697 H 0.01842 0.93797 0.46892 0.0
H698 H 0.02971 0.90043 0.46282 0.0
H699 H 0.95203 0.85998 0.41893 0.0
H700 H 0.9475 0.84577 0.38968 0.0
H701 H 0.94427 0.87484 0.39798 0.0
H702 H 0.97251 0.8852 0.37293 0.0
H703 H 0.97583 0.85613 0.36454 0.0
H704 H 0.99953 0.87739 0.37671 0.0
H705 H 0.03448 0.85971 0.4511 0.0
H706 H 0.032 0.81897 0.43492 0.0
H707 H 0.9785 0.82194 0.38391 0.0
C708 C 0.98159 0.91142 0.42162 0.0
C709 C 0.99237 0.92894 0.43998 0.0
C710 C 0.00991 0.92482 0.45472 0.0
C711 C 0.01648 0.90356 0.45138 0.0
C712 C 0.00539 0.88663 0.4332 0.0
C713 C 0.98834 0.89035 0.41856 0.0
C714 C 0.97862 0.86916 0.40075 0.0
C715 C 0.95416 0.86202 0.40192 0.0
C716 C 0.98182 0.87216 0.37735 0.0
C717 C 0.99264 0.85285 0.40785 0.0
C718 C 0.00809 0.86326 0.4265 0.0
C719 C 0.02252 0.85141 0.43642 0.0
C720 C 0.02099 0.82828 0.42711 0.0
C721 C 0.00508 0.81725 0.40814 0.0
C722 C 0.99091 0.82985 0.39835 0.0
H723 H 0.63537 0.84125 0.62646 0.0
H724 H 0.61919 0.80639 0.55619 0.0
H725 H 0.57968 0.8057 0.55839 0.0
H726 H 0.59253 0.81113 0.64477 0.0
H727 H 0.58702 0.83472 0.66509 0.0
H728 H 0.61416 0.8345 0.65764 0.0
H729 H 0.61297 0.87255 0.64685 0.0
H730 H 0.58585 0.87298 0.65443 0.0
H731 H 0.5904 0.87532 0.62685 0.0
H732 H 0.54202 0.80539 0.56896 0.0
H733 H 0.50864 0.80731 0.58683 0.0
H734 H 0.54904 0.84314 0.65 0.0
C735 C 0.62354 0.83385 0.61143 0.0
C736 C 0.63041 0.82388 0.59114 0.0
C737 C 0.61437 0.81416 0.57192 0.0
C738 C 0.59186 0.81369 0.57298 0.0
C739 C 0.58563 0.82317 0.59334 0.0
C740 C 0.60098 0.83329 0.61217 0.0
C741 C 0.58984 0.84135 0.63221 0.0
C742 C 0.59627 0.82972 0.65103 0.0
C743 C 0.59508 0.86708 0.64057 0.0
C744 C 0.56586 0.8337 0.62182 0.0
C745 C 0.56381 0.82332 0.59936 0.0
C746 C 0.54338 0.81377 0.58645 0.0
C747 C 0.52453 0.81486 0.59678 0.0
C748 C 0.52623 0.82549 0.61976 0.0
C749 C 0.54719 0.83517 0.63233 0.0
H750 H 0.60671 0.30523 0.89332 0.0
H751 H 0.53903 0.31701 0.89186 0.0
H752 H 0.54415 0.33979 0.86426 0.0
H753 H 0.62898 0.36008 0.89195 0.0
H754 H 0.64927 0.35164 0.87471 0.0
H755 H 0.63963 0.33434 0.89246 0.0
H756 H 0.62834 0.3003 0.85815 0.0
H757 H 0.63797 0.31753 0.84026 0.0
H758 H 0.61006 0.30279 0.83416 0.0
H759 H 0.55714 0.36277 0.83834 0.0
H760 H 0.57753 0.38601 0.81757 0.0
H761 H 0.63717 0.36031 0.83694 0.0
C762 C 0.59285 0.31228 0.88689 0.0
C763 C 0.5724 0.3092 0.89457 0.0
C764 C 0.55481 0.3191 0.88614 0.0
C765 C 0.55754 0.33199 0.87041 0.0
C766 C 0.57798 0.3349 0.86337 0.0
C767 C 0.59537 0.32541 0.87139 0.0
C768 C 0.61609 0.33248 0.86239 0.0
C769 C 0.63457 0.34541 0.88151 0.0
C770 C 0.62355 0.31205 0.84787 0.0
C771 C 0.60774 0.34773 0.84833 0.0
C772 C 0.58564 0.34864 0.84887 0.0
C773 C 0.57442 0.3621 0.83769 0.0
C774 C 0.58616 0.37523 0.82592 0.0
C775 C 0.60897 0.37502 0.82561 0.0
C776 C 0.61975 0.36081 0.83676 0.0
H777 H 0.22081 0.50619 0.15355 0.0
H778 H 0.26232 0.51935 0.10492 0.0
H779 H 0.22982 0.50888 0.0753 0.0
H780 H 0.18607 0.45811 0.11805 0.0
H781 H 0.16131 0.46466 0.12874 0.0
H782 H 0.18766 0.47419 0.14641 0.0
H783 H 0.17997 0.51524 0.15356 0.0
H784 H 0.15357 0.50582 0.13592 0.0
H785 H 0.17307 0.5272 0.13012 0.0
H786 H 0.19329 0.49528 0.0506 0.0
H787 H 0.15495 0.47997 0.03259 0.0
H788 H 0.137 0.47616 0.09726 0.0
C789 C 0.22305 0.50704 0.13671 0.0
C790 C 0.24414 0.5136 0.13158 0.0
C791 C 0.24635 0.51441 0.1093 0.0
C792 C 0.22798 0.5085 0.09233 0.0
C793 C 0.20748 0.50194 0.09792 0.0
C794 C 0.20487 0.50126 0.11956 0.0
C795 C 0.18108 0.49311 0.12096 0.0
C796 C 0.17892 0.47122 0.12901 0.0
C797 C 0.17135 0.51144 0.13603 0.0
C798 C 0.17081 0.48904 0.09666 0.0
C799 C 0.18633 0.4943 0.08367 0.0
C800 C 0.18095 0.49126 0.06062 0.0
C801 C 0.15913 0.48252 0.05054 0.0
C802 C 0.14295 0.47695 0.06351 0.0
C803 C 0.14893 0.48044 0.0869 0.0
H804 H 0.34584 0.11144 0.66321 0.0
H805 H 0.31407 0.14422 0.71718 0.0
H806 H 0.30654 0.17318 0.69676 0.0
H807 H 0.37002 0.16284 0.64807 0.0
H808 H 0.36464 0.14962 0.61856 0.0
H809 H 0.36987 0.13304 0.63858 0.0
H810 H 0.33291 0.10659 0.62161 0.0
H811 H 0.32749 0.12313 0.60165 0.0
H812 H 0.30772 0.1183 0.61976 0.0
H813 H 0.29998 0.19679 0.66945 0.0
H814 H 0.29428 0.21324 0.63687 0.0
H815 H 0.32945 0.16457 0.60002 0.0
C816 C 0.33777 0.12502 0.67097 0.0
C817 C 0.33072 0.12573 0.69188 0.0
C818 C 0.31971 0.14343 0.70123 0.0
C819 C 0.3154 0.15998 0.68978 0.0
C820 C 0.32216 0.15854 0.66898 0.0
C821 C 0.33313 0.14154 0.65965 0.0
C822 C 0.33709 0.14287 0.63632 0.0
C823 C 0.36188 0.14736 0.63533 0.0
C824 C 0.32561 0.12146 0.61881 0.0
C825 C 0.32624 0.16301 0.63383 0.0
C826 C 0.31797 0.17193 0.65297 0.0
C827 C 0.30656 0.19008 0.65444 0.0
C828 C 0.30337 0.19928 0.63579 0.0
C829 C 0.31143 0.19023 0.61585 0.0
C830 C 0.32319 0.17197 0.61503 0.0
H831 H 0.2958 0.03449 0.80149 0.0
H832 H 0.33404 0.09896 0.80321 0.0
H833 H 0.34886 0.10302 0.84304 0.0
H834 H 0.2813 0.05002 0.85618 0.0
H835 H 0.28324 0.02295 0.86198 0.0
H836 H 0.27612 0.02506 0.83358 0.0
H837 H 0.3087 0.00486 0.82235 0.0
H838 H 0.31595 0.00273 0.85074 0.0
H839 H 0.33614 0.01604 0.83723 0.0
H840 H 0.35924 0.09997 0.88297 0.0
H841 H 0.36361 0.09054 0.9198 0.0
H842 H 0.3183 0.02816 0.89145 0.0
C843 C 0.30733 0.04947 0.81018 0.0
C844 C 0.31379 0.0664 0.7992 0.0
C845 C 0.32885 0.08576 0.81126 0.0
C846 C 0.33738 0.0882 0.83388 0.0
C847 C 0.33066 0.07114 0.84416 0.0
C848 C 0.31594 0.05218 0.83269 0.0
C849 C 0.31103 0.03645 0.84761 0.0
C850 C 0.28647 0.03346 0.84998 0.0
C851 C 0.3184 0.01368 0.83896 0.0
C852 C 0.32525 0.04952 0.86933 0.0
C853 C 0.33652 0.06945 0.86703 0.0
C854 C 0.35051 0.08439 0.88495 0.0
C855 C 0.3529 0.07887 0.9058 0.0
C856 C 0.3413 0.05861 0.90854 0.0
C857 C 0.32744 0.04376 0.88995 0.0
H858 H 0.33389 0.07905 0.13258 0.0
H859 H 0.34299 0.1262 0.09071 0.0
H860 H 0.35528 0.15714 0.12445 0.0
H861 H 0.31317 0.11581 0.17594 0.0
H862 H 0.32712 0.10608 0.19836 0.0
H863 H 0.31914 0.08747 0.17092 0.0
H864 H 0.3595 0.08073 0.17017 0.0
H865 H 0.3676 0.09927 0.19763 0.0
H866 H 0.38114 0.10447 0.17477 0.0
H867 H 0.36637 0.18292 0.16242 0.0
H868 H 0.37624 0.20204 0.20237 0.0
H869 H 0.36002 0.13834 0.21998 0.0
C870 C 0.3385 0.09587 0.1305 0.0
C871 C 0.33747 0.10019 0.10897 0.0
C872 C 0.34364 0.12246 0.10699 0.0
C873 C 0.35063 0.14016 0.12607 0.0
C874 C 0.35136 0.13534 0.147 0.0
C875 C 0.34552 0.11376 0.14937 0.0
C876 C 0.34786 0.1132 0.17385 0.0
C877 C 0.32549 0.10517 0.18013 0.0
C878 C 0.36505 0.09855 0.17943 0.0
C879 C 0.35594 0.13785 0.18485 0.0
C880 C 0.3578 0.15028 0.16902 0.0
C881 C 0.36499 0.17338 0.17499 0.0
C882 C 0.37055 0.18408 0.19776 0.0
C883 C 0.36891 0.17171 0.21435 0.0
C884 C 0.36141 0.14828 0.20773 0.0
H885 H 0.34513 0.18139 0.37926 0.0
H886 H 0.41331 0.19569 0.41163 0.0
H887 H 0.40107 0.19781 0.44837 0.0
H888 H 0.32327 0.21722 0.42151 0.0
H889 H 0.29806 0.19805 0.41882 0.0
H890 H 0.31223 0.1976 0.39512 0.0
H891 H 0.31377 0.15518 0.39102 0.0
H892 H 0.29958 0.1555 0.41471 0.0
H893 H 0.32581 0.1458 0.41461 0.0
H894 H 0.38121 0.20085 0.48183 0.0
H895 H 0.35524 0.20149 0.50916 0.0
H896 H 0.30024 0.1824 0.45461 0.0
C897 C 0.35748 0.18493 0.39408 0.0
C898 C 0.38017 0.1885 0.39265 0.0
C899 C 0.39584 0.19286 0.41237 0.0
C900 C 0.38904 0.19415 0.43331 0.0
C901 C 0.36653 0.19065 0.43416 0.0
C902 C 0.35099 0.18584 0.41504 0.0
C903 C 0.32783 0.18239 0.42049 0.0
C904 C 0.31458 0.19986 0.41358 0.0
C905 C 0.31606 0.15828 0.40956 0.0
C906 C 0.33276 0.18635 0.4457 0.0
C907 C 0.35517 0.19128 0.45329 0.0
C908 C 0.36364 0.19671 0.47605 0.0
C909 C 0.3488 0.19709 0.49144 0.0
C910 C 0.3258 0.19173 0.48396 0.0
C911 C 0.31776 0.18617 0.46078 0.0
H912 H 0.62089 0.38184 0.28457 0.0
H913 H 0.64342 0.32658 0.30886 0.0
H914 H 0.66188 0.31668 0.2758 0.0
H915 H 0.61066 0.3537 0.22557 0.0
H916 H 0.62032 0.37869 0.21687 0.0
H917 H 0.60824 0.38099 0.24208 0.0
H918 H 0.64337 0.40756 0.26472 0.0
H919 H 0.65553 0.40538 0.2396 0.0
H920 H 0.66981 0.39843 0.26365 0.0
H921 H 0.67862 0.31336 0.24061 0.0
H922 H 0.69319 0.31733 0.20621 0.0
H923 H 0.65983 0.37486 0.20492 0.0
C924 C 0.62961 0.36759 0.2829 0.0
C925 C 0.63068 0.35496 0.2993 0.0
C926 C 0.64237 0.3365 0.29652 0.0
C927 C 0.65286 0.33071 0.27777 0.0
C928 C 0.65151 0.34354 0.26195 0.0
C929 C 0.64021 0.3616 0.26432 0.0
C930 C 0.64177 0.373 0.2452 0.0
C931 C 0.61889 0.3715 0.23163 0.0
C932 C 0.65331 0.39754 0.25381 0.0
C933 C 0.6559 0.35865 0.23182 0.0
C934 C 0.66124 0.34167 0.24171 0.0
C935 C 0.67449 0.32653 0.23267 0.0
C936 C 0.68268 0.32894 0.21311 0.0
C937 C 0.67765 0.34639 0.20283 0.0
C938 C 0.66391 0.36128 0.21229 0.0
H939 H 0.07047 0.22773 0.47227 0.0
H940 H 0.11005 0.1918 0.42794 0.0
H941 H 0.08931 0.1557 0.43017 0.0
H942 H 0.06502 0.18771 0.50757 0.0
H943 H 0.03699 0.19121 0.51042 0.0
H944 H 0.05601 0.21414 0.5066 0.0
H945 H 0.02922 0.21682 0.47207 0.0
H946 H 0.01016 0.19391 0.47577 0.0
H947 H 0.02 0.19221 0.44939 0.0
H948 H 0.06275 0.12359 0.43543 0.0
H949 H 0.03231 0.09796 0.44316 0.0
H950 H 0.01022 0.15498 0.48408 0.0
C951 C 0.07499 0.21229 0.46324 0.0
C952 C 0.09193 0.21261 0.44995 0.0
C953 C 0.09715 0.19199 0.43824 0.0
C954 C 0.0855 0.17139 0.43945 0.0
C955 C 0.06873 0.1717 0.45249 0.0
C956 C 0.06352 0.19161 0.46423 0.0
C957 C 0.04413 0.18736 0.47621 0.0
C958 C 0.05095 0.19559 0.50171 0.0
C959 C 0.02473 0.19821 0.46785 0.0
C960 C 0.03898 0.16196 0.46905 0.0
C961 C 0.05344 0.15322 0.4555 0.0
C962 C 0.05144 0.13023 0.44618 0.0
C963 C 0.03408 0.11581 0.45065 0.0
C964 C 0.01891 0.12444 0.46429 0.0
C965 C 0.02163 0.14782 0.47375 0.0
H966 H 0.10839 0.96473 0.65571 0.0
H967 H 0.06283 0.90363 0.65041 0.0
H968 H 0.09109 0.88098 0.63791 0.0
H969 H 0.13049 0.94516 0.60705 0.0
H970 H 0.15818 0.95937 0.61824 0.0
H971 H 0.13521 0.97074 0.62887 0.0
H972 H 0.15201 0.97017 0.66909 0.0
H973 H 0.17508 0.95879 0.65855 0.0
H974 H 0.15886 0.94427 0.67476 0.0
H975 H 0.12337 0.86501 0.62348 0.0
H976 H 0.15687 0.85694 0.60748 0.0
H977 H 0.18116 0.92855 0.62205 0.0
C978 C 0.10445 0.94659 0.65227 0.0
C979 C 0.08343 0.93595 0.65414 0.0
C980 C 0.07884 0.91216 0.64916 0.0
C981 C 0.09481 0.89915 0.64211 0.0
C982 C 0.11528 0.91018 0.64018 0.0
C983 C 0.12015 0.93337 0.64515 0.0
C984 C 0.14287 0.94108 0.64038 0.0
C985 C 0.1416 0.95489 0.62257 0.0
C986 C 0.1581 0.95436 0.66199 0.0
C987 C 0.14984 0.91861 0.63149 0.0
C988 C 0.13381 0.90098 0.63172 0.0
C989 C 0.13613 0.87867 0.62341 0.0
C990 C 0.15522 0.87426 0.61433 0.0
C991 C 0.17168 0.89209 0.61353 0.0
C992 C 0.169 0.91452 0.62256 0.0
H993 H 0.50721 0.88549 0.88646 0.0
H994 H 0.52884 0.87221 0.95087 0.0
H995 H 0.52579 0.83186 0.93272 0.0
H996 H 0.46728 0.83629 0.86573 0.0
H997 H 0.47269 0.83202 0.83734 0.0
H998 H 0.47755 0.85994 0.85527 0.0
H999 H 0.51799 0.86513 0.84803 0.0
H1000 H 0.51324 0.8372 0.83006 0.0
H1001 H 0.53533 0.84502 0.8535 0.0
H1002 H 0.51895 0.79271 0.90769 0.0
H1003 H 0.50881 0.75777 0.87769 0.0
H1004 H 0.49195 0.79694 0.82977 0.0
C1005 C 0.51146 0.87415 0.89676 0.0
C1006 C 0.51828 0.88202 0.92009 0.0
C1007 C 0.52359 0.86658 0.93295 0.0
C1008 C 0.52194 0.84363 0.9228 0.0
C1009 C 0.51503 0.83643 0.89977 0.0
C1010 C 0.50992 0.85124 0.88691 0.0
C1011 C 0.50236 0.83914 0.86259 0.0
C1012 C 0.47856 0.84202 0.85478 0.0
C1013 C 0.51818 0.8471 0.84767 0.0
C1014 C 0.50376 0.81517 0.86381 0.0
C1015 C 0.51118 0.81394 0.88538 0.0
C1016 C 0.51325 0.79347 0.89071 0.0
C1017 C 0.50743 0.77372 0.87356 0.0
C1018 C 0.49964 0.7746 0.85136 0.0
C1019 C 0.49799 0.79567 0.84651 0.0
H1020 H 0.14504 0.41881 0.38957 0.0
H1021 H 0.21085 0.40297 0.40292 0.0
H1022 H 0.22673 0.44086 0.4001 0.0
H1023 H 0.15695 0.44822 0.3478 0.0
H1024 H 0.1392 0.46869 0.35544 0.0
H1025 H 0.13307 0.44104 0.36025 0.0
H1026 H 0.13294 0.45865 0.40221 0.0
H1027 H 0.13909 0.48637 0.39754 0.0
H1028 H 0.1567 0.47786 0.41845 0.0
H1029 H 0.23535 0.48061 0.39645 0.0
H1030 H 0.23625 0.51805 0.38827 0.0
H1031 H 0.16483 0.50677 0.37399 0.0
C1032 C 0.16279 0.42346 0.39213 0.0
C1033 C 0.17679 0.40815 0.39671 0.0
C1034 C 0.1999 0.41454 0.39946 0.0
C1035 C 0.20904 0.43602 0.39797 0.0
C1036 C 0.19481 0.45072 0.39335 0.0
C1037 C 0.17218 0.44463 0.39015 0.0
C1038 C 0.16056 0.46302 0.38387 0.0
C1039 C 0.14663 0.45474 0.36045 0.0
C1040 C 0.14649 0.472 0.40158 0.0
C1041 C 0.1802 0.4804 0.38404 0.0
C1042 C 0.19978 0.47312 0.38993 0.0
C1043 C 0.22013 0.48645 0.3917 0.0
C1044 C 0.22047 0.50769 0.3871 0.0
C1045 C 0.20062 0.5152 0.38039 0.0
C1046 C 0.18025 0.50136 0.37891 0.0
H1047 H 0.542 0.19393 0.97332 0.0
H1048 H 0.55119 0.18624 0.90397 0.0
H1049 H 0.52908 0.14821 0.89446 0.0
H1050 H 0.54848 0.13948 0.97636 0.0
H1051 H 0.52815 0.13651 0.99436 0.0
H1052 H 0.54243 0.16395 0.99511 0.0
H1053 H 0.50508 0.17758 0.98683 0.0
H1054 H 0.49066 0.15012 0.98607 0.0
H1055 H 0.48557 0.1624 0.96252 0.0
H1056 H 0.50857 0.10985 0.89324 0.0
H1057 H 0.4922 0.07411 0.90053 0.0
H1058 H 0.49682 0.10714 0.97078 0.0
C1059 C 0.53906 0.18445 0.95604 0.0
C1060 C 0.54826 0.19311 0.93936 0.0
C1061 C 0.54425 0.17999 0.91702 0.0
C1062 C 0.53166 0.1584 0.91144 0.0
C1063 C 0.52313 0.15024 0.92839 0.0
C1064 C 0.52663 0.16291 0.95023 0.0
C1065 C 0.51705 0.14975 0.96564 0.0
C1066 C 0.5351 0.14728 0.98394 0.0
C1067 C 0.49848 0.16061 0.97586 0.0
C1068 C 0.50809 0.12748 0.94918 0.0
C1069 C 0.5115 0.12815 0.92773 0.0
C1070 C 0.5056 0.10921 0.90993 0.0
C1071 C 0.49632 0.08897 0.91424 0.0
C1072 C 0.49318 0.08781 0.93622 0.0
C1073 C 0.49881 0.10748 0.95376 0.0
H1074 H 0.43697 0.49554 0.24657 0.0
H1075 H 0.37705 0.44867 0.21602 0.0
H1076 H 0.39186 0.4194 0.23207 0.0
H1077 H 0.47428 0.45565 0.23775 0.0
H1078 H 0.49204 0.468 0.26407 0.0
H1079 H 0.47662 0.48528 0.25031 0.0
H1080 H 0.45927 0.49823 0.28598 0.0
H1081 H 0.47462 0.48098 0.29985 0.0
H1082 H 0.44505 0.47746 0.29779 0.0
H1083 H 0.41327 0.39522 0.25144 0.0
H1084 H 0.43983 0.37781 0.2724 0.0
H1085 H 0.4857 0.44057 0.29016 0.0
C1086 C 0.42694 0.47913 0.24324 0.0
C1087 C 0.40584 0.4744 0.23003 0.0
C1088 C 0.39326 0.45269 0.22608 0.0
C1089 C 0.40152 0.43595 0.23514 0.0
C1090 C 0.42237 0.44119 0.24809 0.0
C1091 C 0.43492 0.46224 0.25212 0.0
C1092 C 0.45686 0.46353 0.26652 0.0
C1093 C 0.47608 0.4684 0.2539 0.0
C1094 C 0.45907 0.48109 0.28886 0.0
C1095 C 0.45471 0.43989 0.26993 0.0
C1096 C 0.43469 0.42728 0.2592 0.0
C1097 C 0.42899 0.40493 0.25992 0.0
C1098 C 0.4442 0.3952 0.27188 0.0
C1099 C 0.46486 0.40781 0.28294 0.0
C1100 C 0.47006 0.43047 0.28192 0.0
H1101 H 0.30455 0.84017 0.54767 0.0
H1102 H 0.34547 0.87542 0.5103 0.0
H1103 H 0.37793 0.86141 0.52627 0.0
H1104 H 0.34365 0.8514 0.59722 0.0
H1105 H 0.33615 0.82437 0.60305 0.0
H1106 H 0.31601 0.83628 0.58783 0.0
H1107 H 0.30897 0.80047 0.55529 0.0
H1108 H 0.32906 0.78841 0.57044 0.0
H1109 H 0.3318 0.79104 0.54252 0.0
H1110 H 0.4062 0.84448 0.54742 0.0
H1111 H 0.42794 0.8259 0.57197 0.0
H1112 H 0.36828 0.80202 0.5954 0.0
C1113 C 0.32028 0.84479 0.54266 0.0
C1114 C 0.32245 0.85884 0.52768 0.0
C1115 C 0.34339 0.86463 0.52172 0.0
C1116 C 0.36193 0.85675 0.53069 0.0
C1117 C 0.35924 0.84309 0.54558 0.0
C1118 C 0.33892 0.83713 0.55148 0.0
C1119 C 0.34051 0.82276 0.56826 0.0
C1120 C 0.33368 0.83441 0.5904 0.0
C1121 C 0.32677 0.79928 0.55854 0.0
C1122 C 0.36493 0.8217 0.57102 0.0
C1123 C 0.37546 0.83346 0.55776 0.0
C1124 C 0.39812 0.83514 0.5578 0.0
C1125 C 0.41032 0.82455 0.57181 0.0
C1126 C 0.39983 0.81248 0.58559 0.0
C1127 C 0.37682 0.81105 0.58505 0.0
H1128 H 0.79104 0.46881 0.78802 0.0
H1129 H 0.81448 0.51696 0.75136 0.0
H1130 H 0.83619 0.54117 0.78638 0.0
H1131 H 0.78567 0.50945 0.8377 0.0
H1132 H 0.79476 0.49274 0.85641 0.0
H1133 H 0.78108 0.47921 0.82844 0.0
H1134 H 0.81425 0.45842 0.82122 0.0
H1135 H 0.82806 0.47192 0.84916 0.0
H1136 H 0.8415 0.47445 0.82549 0.0
H1137 H 0.85556 0.56001 0.82533 0.0
H1138 H 0.87073 0.57244 0.86559 0.0
H1139 H 0.83449 0.51202 0.87673 0.0
C1140 C 0.80072 0.48444 0.78733 0.0
C1141 C 0.80108 0.49096 0.76693 0.0
C1142 C 0.81394 0.51159 0.76678 0.0
C1143 C 0.82635 0.52546 0.78658 0.0
C1144 C 0.82568 0.51849 0.80638 0.0
C1145 C 0.81317 0.4985 0.80692 0.0
C1146 C 0.81525 0.49493 0.8304 0.0
C1147 C 0.79286 0.49404 0.83872 0.0
C1148 C 0.82537 0.47367 0.83163 0.0
C1149 C 0.83094 0.51602 0.84298 0.0
C1150 C 0.83678 0.52938 0.82882 0.0
C1151 C 0.8511 0.5497 0.83659 0.0
C1152 C 0.85964 0.5566 0.85948 0.0
C1153 C 0.85381 0.54321 0.87432 0.0
C1154 C 0.83929 0.52264 0.86584 0.0
H1155 H 0.89886 0.53096 0.17102 0.0
H1156 H 0.83118 0.50379 0.17295 0.0
H1157 H 0.82444 0.49149 0.13161 0.0
H1158 H 0.88763 0.55333 0.12451 0.0
H1159 H 0.91207 0.54684 0.1131 0.0
H1160 H 0.912 0.55151 0.14275 0.0
H1161 H 0.92379 0.5127 0.1419 0.0
H1162 H 0.92357 0.50746 0.11211 0.0
H1163 H 0.90723 0.48786 0.12355 0.0
H1164 H 0.82454 0.48464 0.08986 0.0
H1165 H 0.8314 0.48399 0.05135 0.0
H1166 H 0.89899 0.51591 0.07736 0.0
C1167 C 0.88268 0.52213 0.16283 0.0
C1168 C 0.86555 0.51829 0.17523 0.0
C1169 C 0.84457 0.50687 0.16379 0.0
C1170 C 0.8406 0.49979 0.14033 0.0
C1171 C 0.85779 0.50421 0.12861 0.0
C1172 C 0.87844 0.51505 0.13952 0.0
C1173 C 0.89381 0.51889 0.12312 0.0
C1174 C 0.90183 0.54414 0.12605 0.0
C1175 C 0.91326 0.50596 0.1253 0.0
C1176 C 0.87847 0.50894 0.10126 0.0
C1177 C 0.85781 0.50041 0.10472 0.0
C1178 C 0.8407 0.49114 0.08697 0.0
C1179 C 0.84476 0.49084 0.06515 0.0
C1180 C 0.86574 0.49989 0.06132 0.0
C1181 C 0.88281 0.50875 0.07967 0.0
H1182 H 0.80407 0.51692 0.32547 0.0
H1183 H 0.78359 0.5438 0.26865 0.0
H1184 H 0.75369 0.55861 0.28734 0.0
H1185 H 0.74836 0.50295 0.34034 0.0
H1186 H 0.75877 0.51168 0.36988 0.0
H1187 H 0.77613 0.50008 0.35052 0.0
H1188 H 0.80568 0.53571 0.36585 0.0
H1189 H 0.78842 0.54744 0.38513 0.0
H1190 H 0.79813 0.56295 0.36587 0.0
H1191 H 0.72885 0.57408 0.31391 0.0
H1192 H 0.71171 0.58982 0.34652 0.0
H1193 H 0.74909 0.5535 0.38629 0.0
C1194 C 0.7929 0.52534 0.31666 0.0
C1195 C 0.796 0.52901 0.29551 0.0
C1196 C 0.78142 0.54066 0.2848 0.0
C1197 C 0.76435 0.54907 0.29526 0.0
C1198 C 0.7621 0.54567 0.31639 0.0
C1199 C 0.77595 0.53402 0.32695 0.0
C1200 C 0.77156 0.53464 0.35052 0.0
C1201 C 0.7632 0.51093 0.35295 0.0
C1202 C 0.79217 0.54586 0.36785 0.0
C1203 C 0.75355 0.54907 0.35185 0.0
C1204 C 0.74806 0.55495 0.33188 0.0
C1205 C 0.73279 0.56933 0.32953 0.0
C1206 C 0.72317 0.57822 0.34818 0.0
C1207 C 0.72901 0.57288 0.36897 0.0
C1208 C 0.7441 0.55776 0.3706 0.0
H1209 H 0.73362 0.47911 0.58515 0.0
H1210 H 0.75317 0.42405 0.53909 0.0
H1211 H 0.75033 0.44506 0.50946 0.0
H1212 H 0.69284 0.49106 0.54384 0.0
H1213 H 0.69832 0.52096 0.55581 0.0
H1214 H 0.70248 0.50179 0.57341 0.0
H1215 H 0.74284 0.52172 0.58699 0.0
H1216 H 0.73884 0.54087 0.56934 0.0
H1217 H 0.76085 0.52445 0.56672 0.0
H1218 H 0.74811 0.47347 0.48594 0.0
H1219 H 0.74152 0.50488 0.46842 0.0
H1220 H 0.71952 0.53939 0.52854 0.0
C1221 C 0.73727 0.47151 0.5688 0.0
C1222 C 0.74379 0.4501 0.56435 0.0
C1223 C 0.74812 0.44046 0.54273 0.0
C1224 C 0.74665 0.45229 0.52588 0.0
C1225 C 0.74034 0.47349 0.53084 0.0
C1226 C 0.73527 0.48281 0.55162 0.0
C1227 C 0.72795 0.50539 0.55233 0.0
C1228 C 0.70397 0.50475 0.55659 0.0
C1229 C 0.74356 0.52422 0.56988 0.0
C1230 C 0.73001 0.50748 0.5288 0.0
C1231 C 0.73753 0.48907 0.51677 0.0
C1232 C 0.74189 0.4878 0.49506 0.0
C1233 C 0.73822 0.5057 0.4853 0.0
C1234 C 0.7298 0.52429 0.49709 0.0
C1235 C 0.72563 0.52514 0.51907 0.0
loop_
_geom_bond_atom_site_label_1
_geom_bond_atom_site_label_2
_geom_bond_distance
_geom_bond_site_symmetry_2
_ccdc_geom_bond_type
O0 Cd1 2.300 . S
O0 C7 1.275 . S
Cd1 O0 2.300 . S
Cd1 O9 2.381 . S
Cd1 O10 2.378 . S
O2 Cd3 2.385 . S
O2 C7 1.255 . S
Cd3 O2 2.385 . S
Cd3 O4 2.317 . S
O4 Cd3 2.317 . S
O4 C5 1.232 . S
C5 O4 1.232 . S
C5 O6 1.218 . S
O6 C5 1.218 . S
C7 O0 1.275 . S
C7 O2 1.255 . S
C8 O9 1.258 . S
C8 O10 1.256 . S
O9 Cd1 2.381 . S
O9 C8 1.258 . S
O10 Cd1 2.378 . S
O10 C8 1.256 . S
O11 Cd12 2.300 . S
O11 C18 1.275 . S
Cd12 O11 2.300 . S
Cd12 O20 2.381 . S
Cd12 O21 2.378 . S
O13 Cd14 2.385 . S
O13 C18 1.255 1_655 S
Cd14 O13 2.385 . S
Cd14 O15 2.317 . S
O15 Cd14 2.317 . S
O15 C16 1.232 . S
C16 O15 1.232 . S
C16 O17 1.218 . S
O17 C16 1.218 . S
C18 O11 1.275 . S
C18 O13 1.255 1_455 S
C19 O20 1.258 . S
C19 O21 1.256 . S
O20 Cd12 2.381 . S
O20 C19 1.258 . S
O21 Cd12 2.378 . S
O21 C19 1.256 . S
O22 Cd23 2.300 . S
O22 C29 1.275 . S
Cd23 O22 2.300 . S
Cd23 O31 2.381 . S
Cd23 O32 2.378 . S
O24 Cd25 2.385 . S
O24 C29 1.255 . S
Cd25 O24 2.385 . S
Cd25 O26 2.317 . S
O26 Cd25 2.317 . S
O26 C27 1.232 . S
C27 O26 1.232 . S
C27 O28 1.218 . S
O28 C27 1.218 . S
C29 O22 1.275 . S
C29 O24 1.255 . S
C30 O31 1.258 . S
C30 O32 1.256 . S
O31 Cd23 2.381 . S
O31 C30 1.258 . S
O32 Cd23 2.378 . S
O32 C30 1.256 . S
O33 Cd34 2.300 . S
O33 C40 1.275 . S
Cd34 O33 2.300 . S
Cd34 O42 2.381 . S
Cd34 O43 2.378 . S
O35 Cd36 2.385 . S
O35 C40 1.255 . S
Cd36 O35 2.385 . S
Cd36 O37 2.317 . S
O37 Cd36 2.317 . S
O37 C38 1.232 . S
C38 O37 1.232 . S
C38 O39 1.218 . S
O39 C38 1.218 . S
C40 O33 1.275 . S
C40 O35 1.255 . S
C41 O42 1.258 . S
C41 O43 1.256 . S
O42 Cd34 2.381 . S
O42 C41 1.258 . S
O43 Cd34 2.378 . S
O43 C41 1.256 . S
O44 Cd45 2.300 1_655 S
O44 C51 1.275 1_545 S
Cd45 O44 2.300 1_455 S
Cd45 O53 2.381 . S
Cd45 O54 2.378 . S
O46 Cd47 2.385 . S
O46 C51 1.255 1_455 S
Cd47 O46 2.385 . S
Cd47 O48 2.317 . S
O48 Cd47 2.317 . S
O48 C49 1.232 . S
C49 O48 1.232 . S
C49 O50 1.218 . S
O50 C49 1.218 . S
C51 O44 1.275 1_565 S
C51 O46 1.255 1_655 S
C52 O53 1.258 . S
C52 O54 1.256 . S
O53 Cd45 2.381 . S
O53 C52 1.258 . S
O54 Cd45 2.378 . S
O54 C52 1.256 . S
O55 Cd56 2.300 . S
O55 C62 1.275 . S
Cd56 O55 2.300 . S
Cd56 O64 2.381 . S
Cd56 O65 2.378 . S
O57 Cd58 2.385 . S
O57 C62 1.255 . S
Cd58 O57 2.385 . S
Cd58 O59 2.317 . S
O59 Cd58 2.317 . S
O59 C60 1.232 . S
C60 O59 1.232 . S
C60 O61 1.218 . S
O61 C60 1.218 . S
C62 O55 1.275 . S
C62 O57 1.255 . S
C63 O64 1.258 . S
C63 O65 1.256 . S
O64 Cd56 2.381 . S
O64 C63 1.258 . S
O65 Cd56 2.378 . S
O65 C63 1.256 . S
O66 Cd67 2.300 . S
O66 C73 1.275 . S
Cd67 O66 2.300 . S
Cd67 O75 2.381 . S
Cd67 O76 2.378 . S
O68 Cd69 2.385 . S
O68 C73 1.255 . S
Cd69 O68 2.385 . S
Cd69 O70 2.317 . S
O70 Cd69 2.317 . S
O70 C71 1.232 . S
C71 O70 1.232 . S
C71 O72 1.218 . S
O72 C71 1.218 . S
C73 O66 1.275 . S
C73 O68 1.255 . S
C74 O75 1.258 . S
C74 O76 1.256 . S
O75 Cd67 2.381 . S
O75 C74 1.258 . S
O76 Cd67 2.378 . S
O76 C74 1.256 . S
O77 Cd78 2.300 . S
O77 C84 1.275 . S
Cd78 O77 2.300 . S
Cd78 O86 2.381 . S
Cd78 O87 2.378 . S
O79 Cd80 2.385 . S
O79 C84 1.255 . S
Cd80 O79 2.385 . S
Cd80 O81 2.317 . S
O81 Cd80 2.317 . S
O81 C82 1.232 . S
C82 O81 1.232 . S
C82 O83 1.218 . S
O83 C82 1.218 . S
C84 O77 1.275 . S
C84 O79 1.255 . S
C85 O86 1.258 . S
C85 O87 1.256 . S
O86 Cd78 2.381 . S
O86 C85 1.258 . S
O87 Cd78 2.378 . S
O87 C85 1.256 . S
O88 Cd89 2.300 . S
O88 C95 1.275 . S
Cd89 O88 2.300 . S
Cd89 O97 2.381 . S
Cd89 O98 2.378 . S
O90 Cd91 2.385 . S
O90 C95 1.255 . S
Cd91 O90 2.385 . S
Cd91 O92 2.317 . S
O92 Cd91 2.317 . S
O92 C93 1.232 . S
C93 O92 1.232 . S
C93 O94 1.218 . S
O94 C93 1.218 . S
C95 O88 1.275 . S
C95 O90 1.255 . S
C96 O97 1.258 . S
C96 O98 1.256 . S
O97 Cd89 2.381 . S
O97 C96 1.258 . S
O98 Cd89 2.378 . S
O98 C96 1.256 . S
O99 Cd100 2.300 . S
O99 C106 1.275 . S
Cd100 O99 2.300 . S
Cd100 O108 2.381 . S
Cd100 O109 2.378 . S
O101 Cd102 2.385 . S
O101 C106 1.255 . S
Cd102 O101 2.385 . S
Cd102 O103 2.317 . S
O103 Cd102 2.317 . S
O103 C104 1.232 . S
C104 O103 1.232 . S
C104 O105 1.218 . S
O105 C104 1.218 . S
C106 O99 1.275 . S
C106 O101 1.255 . S
C107 O108 1.258 . S
C107 O109 1.256 . S
O108 Cd100 2.381 . S
O108 C107 1.258 . S
O109 Cd100 2.378 . S
O109 C107 1.256 . S
O110 Cd111 2.300 . S
O110 C117 1.275 1_554 S
Cd111 O110 2.300 . S
Cd111 O119 2.381 . S
Cd111 O120 2.378 . S
O112 Cd113 2.385 . S
O112 C117 1.255 . S
Cd113 O112 2.385 . S
Cd113 O114 2.317 . S
O114 Cd113 2.317 . S
O114 C115 1.232 . S
C115 O114 1.232 . S
C115 O116 1.218 . S
O116 C115 1.218 . S
C117 O110 1.275 1_556 S
C117 O112 1.255 . S
C118 O119 1.258 . S
C118 O120 1.256 . S
O119 Cd111 2.381 . S
O119 C118 1.258 . S
O120 Cd111 2.378 . S
O120 C118 1.256 . S
O121 Cd122 2.300 . S
O121 C128 1.275 . S
Cd122 O121 2.300 . S
Cd122 O130 2.381 . S
Cd122 O131 2.378 . S
O123 Cd124 2.385 . S
O123 C128 1.255 . S
Cd124 O123 2.385 . S
Cd124 O125 2.317 . S
O125 Cd124 2.317 . S
O125 C126 1.232 . S
C126 O125 1.232 . S
C126 O127 1.218 . S
O127 C126 1.218 . S
C128 O121 1.275 . S
C128 O123 1.255 . S
C129 O130 1.258 . S
C129 O131 1.256 . S
O130 Cd122 2.381 . S
O130 C129 1.258 . S
O131 Cd122 2.378 . S
O131 C129 1.256 . S
O132 Cd133 2.300 . S
O132 C139 1.275 . S
Cd133 O132 2.300 . S
Cd133 O141 2.381 . S
Cd133 O142 2.378 . S
O134 Cd135 2.385 . S
O134 C139 1.255 . S
Cd135 O134 2.385 . S
Cd135 O136 2.317 . S
O136 Cd135 2.317 . S
O136 C137 1.232 . S
C137 O136 1.232 . S
C137 O138 1.218 . S
O138 C137 1.218 . S
C139 O132 1.275 . S
C139 O134 1.255 . S
C140 O141 1.258 . S
C140 O142 1.256 . S
O141 Cd133 2.381 . S
O141 C140 1.258 . S
O142 Cd133 2.378 . S
O142 C140 1.256 . S
O143 Cd144 2.300 . S
O143 C150 1.275 1_455 S
Cd144 O143 2.300 . S
Cd144 O152 2.381 . S
Cd144 O153 2.378 . S
O145 Cd146 2.385 . S
O145 C150 1.255 . S
Cd146 O145 2.385 . S
Cd146 O147 2.317 . S
O147 Cd146 2.317 . S
O147 C148 1.232 . S
C148 O147 1.232 . S
C148 O149 1.218 . S
O149 C148 1.218 . S
C150 O143 1.275 1_655 S
C150 O145 1.255 . S
C151 O152 1.258 . S
C151 O153 1.256 . S
O152 Cd144 2.381 . S
O152 C151 1.258 . S
O153 Cd144 2.378 . S
O153 C151 1.256 . S
O154 Cd155 2.300 . S
O154 C161 1.275 . S
Cd155 O154 2.300 . S
Cd155 O163 2.381 . S
Cd155 O164 2.378 . S
O156 Cd157 2.385 . S
O156 C161 1.255 . S
Cd157 O156 2.385 . S
Cd157 O158 2.317 . S
O158 Cd157 2.317 . S
O158 C159 1.232 . S
C159 O158 1.232 . S
C159 O160 1.218 . S
O160 C159 1.218 . S
C161 O154 1.275 . S
C161 O156 1.255 . S
C162 O163 1.258 . S
C162 O164 1.256 . S
O163 Cd155 2.381 . S
O163 C162 1.258 . S
O164 Cd155 2.378 . S
O164 C162 1.256 . S
O165 Cd166 2.300 . S
O165 C172 1.275 . S
Cd166 O165 2.300 . S
Cd166 O174 2.381 . S
Cd166 O175 2.378 . S
O167 Cd168 2.385 . S
O167 C172 1.255 . S
Cd168 O167 2.385 . S
Cd168 O169 2.317 . S
O169 Cd168 2.317 . S
O169 C170 1.232 . S
C170 O169 1.232 . S
C170 O171 1.218 . S
O171 C170 1.218 . S
C172 O165 1.275 . S
C172 O167 1.255 . S
C173 O174 1.258 . S
C173 O175 1.256 . S
O174 Cd166 2.381 . S
O174 C173 1.258 . S
O175 Cd166 2.378 . S
O175 C173 1.256 . S
O176 Cd177 2.300 . S
O176 C183 1.275 . S
Cd177 O176 2.300 . S
Cd177 O185 2.381 . S
Cd177 O186 2.378 . S
O178 Cd179 2.385 . S
O178 C183 1.255 . S
Cd179 O178 2.385 . S
Cd179 O180 2.317 . S
O180 Cd179 2.317 . S
O180 C181 1.232 . S
C181 O180 1.232 . S
C181 O182 1.218 . S
O182 C181 1.218 . S
C183 O176 1.275 . S
C183 O178 1.255 . S
C184 O185 1.258 . S
C184 O186 1.256 . S
O185 Cd177 2.381 . S
O185 C184 1.258 . S
O186 Cd177 2.378 . S
O186 C184 1.256 . S
O187 Cd188 2.300 . S
O187 C194 1.275 . S
Cd188 O187 2.300 . S
Cd188 O196 2.381 . S
Cd188 O197 2.378 . S
O189 Cd190 2.385 . S
O189 C194 1.255 . S
Cd190 O189 2.385 . S
Cd190 O191 2.317 . S
O191 Cd190 2.317 . S
O191 C192 1.232 . S
C192 O191 1.232 . S
C192 O193 1.218 . S
O193 C192 1.218 . S
C194 O187 1.275 . S
C194 O189 1.255 . S
C195 O196 1.258 . S
C195 O197 1.256 . S
O196 Cd188 2.381 . S
O196 C195 1.258 . S
O197 Cd188 2.378 . S
O197 C195 1.256 . S
O198 Cd199 2.300 . S
O198 C205 1.275 . S
Cd199 O198 2.300 . S
Cd199 O207 2.381 . S
Cd199 O208 2.378 . S
O200 Cd201 2.385 . S
O200 C205 1.255 . S
Cd201 O200 2.385 . S
Cd201 O202 2.317 . S
O202 Cd201 2.317 . S
O202 C203 1.232 . S
C203 O202 1.232 . S
C203 O204 1.218 . S
O204 C203 1.218 . S
C205 O198 1.275 . S
C205 O200 1.255 . S
C206 O207 1.258 . S
C206 O208 1.256 . S
O207 Cd199 2.381 . S
O207 C206 1.258 . S
O208 Cd199 2.378 . S
O208 C206 1.256 . S
O209 Cd210 2.300 . S
O209 C216 1.275 . S
Cd210 O209 2.300 . S
Cd210 O218 2.381 . S
Cd210 O219 2.378 . S
O211 Cd212 2.385 . S
O211 C216 1.255 . S
Cd212 O211 2.385 . S
Cd212 O213 2.317 . S
O213 Cd212 2.317 . S
O213 C214 1.232 . S
C214 O213 1.232 . S
C214 O215 1.218 . S
O215 C214 1.218 . S
C216 O209 1.275 . S
C216 O211 1.255 . S
C217 O218 1.258 . S
C217 O219 1.256 . S
O218 Cd210 2.381 . S
O218 C217 1.258 . S
O219 Cd210 2.378 . S
O219 C217 1.256 . S
O220 Cd221 2.300 . S
O220 C227 1.275 1_556 S
Cd221 O220 2.300 . S
Cd221 O229 2.381 . S
Cd221 O230 2.378 . S
O222 Cd223 2.385 . S
O222 C227 1.255 . S
Cd223 O222 2.385 . S
Cd223 O224 2.317 . S
O224 Cd223 2.317 . S
O224 C225 1.232 . S
C225 O224 1.232 . S
C225 O226 1.218 . S
O226 C225 1.218 . S
C227 O220 1.275 1_554 S
C227 O222 1.255 . S
C228 O229 1.258 . S
C228 O230 1.256 . S
O229 Cd221 2.381 . S
O229 C228 1.258 . S
O230 Cd221 2.378 . S
O230 C228 1.256 . S
O231 Cd232 2.300 . S
O231 C238 1.275 . S
Cd232 O231 2.300 . S
Cd232 O240 2.381 . S
Cd232 O241 2.378 . S
O233 Cd234 2.385 . S
O233 C238 1.255 . S
Cd234 O233 2.385 . S
Cd234 O235 2.317 . S
O235 Cd234 2.317 . S
O235 C236 1.232 . S
C236 O235 1.232 . S
C236 O237 1.218 . S
O237 C236 1.218 . S
C238 O231 1.275 . S
C238 O233 1.255 . S
C239 O240 1.258 . S
C239 O241 1.256 . S
O240 Cd232 2.381 . S
O240 C239 1.258 . S
O241 Cd232 2.378 . S
O241 C239 1.256 . S
O242 Cd243 2.300 . S
O242 C249 1.275 . S
Cd243 O242 2.300 . S
Cd243 O251 2.381 . S
Cd243 O252 2.378 . S
O244 Cd245 2.385 . S
O244 C249 1.255 . S
Cd245 O244 2.385 . S
Cd245 O246 2.317 . S
O246 Cd245 2.317 . S
O246 C247 1.232 . S
C247 O246 1.232 . S
C247 O248 1.218 . S
O248 C247 1.218 . S
C249 O242 1.275 . S
C249 O244 1.255 . S
C250 O251 1.258 . S
C250 O252 1.256 . S
O251 Cd243 2.381 . S
O251 C250 1.258 . S
O252 Cd243 2.378 . S
O252 C250 1.256 . S
O253 Cd254 2.300 . S
O253 C260 1.275 1_565 S
Cd254 O253 2.300 . S
Cd254 O262 2.381 . S
Cd254 O263 2.378 . S
O255 Cd256 2.385 . S
O255 C260 1.255 . S
Cd256 O255 2.385 . S
Cd256 O257 2.317 . S
O257 Cd256 2.317 . S
O257 C258 1.232 . S
C258 O257 1.232 . S
C258 O259 1.218 . S
O259 C258 1.218 . S
C260 O253 1.275 1_545 S
C260 O255 1.255 . S
C261 O262 1.258 . S
C261 O263 1.256 . S
O262 Cd254 2.381 . S
O262 C261 1.258 . S
O263 Cd254 2.378 . S
O263 C261 1.256 . S
H264 C276 0.930 . S
H265 C278 0.930 . S
H266 C279 0.930 . S
H267 C283 0.959 . S
H268 C283 0.959 . S
H269 C283 0.961 . S
H270 C284 0.960 . S
H271 C284 0.961 . S
H272 C284 0.959 . S
H273 C287 0.929 . S
H274 C288 0.931 . S
H275 C290 0.930 . S
C276 H264 0.930 . S
C276 C277 1.399 . S
C276 C281 1.399 . S
C277 C276 1.399 . S
C277 C278 1.376 . S
C278 H265 0.930 . S
C278 C277 1.376 . S
C278 C279 1.388 . S
C279 H266 0.930 . S
C279 C278 1.388 . S
C279 C280 1.390 . S
C280 C279 1.390 . S
C280 C281 1.394 . S
C280 C286 1.465 . S
C281 C276 1.399 . S
C281 C280 1.394 . S
C281 C282 1.516 . S
C282 C281 1.516 . S
C282 C283 1.502 . S
C282 C284 1.561 . S
C282 C285 1.526 . S
C283 H267 0.959 . S
C283 H268 0.959 . S
C283 H269 0.961 . S
C283 C282 1.502 . S
C284 H270 0.960 . S
C284 H271 0.961 . S
C284 H272 0.959 . S
C284 C282 1.561 . S
C285 C282 1.526 . S
C285 C286 1.396 . S
C285 C290 1.390 . S
C286 C280 1.465 . S
C286 C285 1.396 . S
C286 C287 1.399 . S
C287 H273 0.929 . S
C287 C286 1.399 . S
C287 C288 1.385 . S
C288 H274 0.931 . S
C288 C287 1.385 . S
C288 C289 1.389 . S
C289 C288 1.389 . S
C289 C290 1.387 . S
C290 H275 0.930 . S
C290 C285 1.390 . S
C290 C289 1.387 . S
H291 C303 0.930 1_445 S
H292 C305 0.930 . S
H293 C306 0.930 . S
H294 C310 0.959 1_565 S
H295 C310 0.959 . S
H296 C310 0.961 . S
H297 C311 0.960 . S
H298 C311 0.961 . S
H299 C311 0.959 . S
H300 C314 0.929 . S
H301 C315 0.931 . S
H302 C317 0.930 . S
C303 H291 0.930 1_665 S
C303 C304 1.399 . S
C303 C308 1.399 . S
C304 C303 1.399 . S
C304 C305 1.376 . S
C305 H292 0.930 . S
C305 C304 1.376 . S
C305 C306 1.388 . S
C306 H293 0.930 . S
C306 C305 1.388 . S
C306 C307 1.390 . S
C307 C306 1.390 . S
C307 C308 1.394 . S
C307 C313 1.465 . S
C308 C303 1.399 . S
C308 C307 1.394 . S
C308 C309 1.516 1_655 S
C309 C308 1.516 1_455 S
C309 C310 1.502 1_565 S
C309 C311 1.561 1_465 S
C309 C312 1.526 1_455 S
C310 H294 0.959 1_545 S
C310 H295 0.959 . S
C310 H296 0.961 . S
C310 C309 1.502 1_545 S
C311 H297 0.960 . S
C311 H298 0.961 . S
C311 H299 0.959 . S
C311 C309 1.561 1_645 S
C312 C309 1.526 1_655 S
C312 C313 1.396 . S
C312 C317 1.390 1_655 S
C313 C307 1.465 . S
C313 C312 1.396 . S
C313 C314 1.399 . S
C314 H300 0.929 . S
C314 C313 1.399 . S
C314 C315 1.385 . S
C315 H301 0.931 . S
C315 C314 1.385 . S
C315 C316 1.389 . S
C316 C315 1.389 . S
C316 C317 1.387 1_655 S
C317 H302 0.930 . S
C317 C312 1.390 1_455 S
C317 C316 1.387 1_455 S
H318 C330 0.930 . S
H319 C332 0.930 . S
H320 C333 0.930 . S
H321 C337 0.959 . S
H322 C337 0.959 . S
H323 C337 0.961 . S
H324 C338 0.960 . S
H325 C338 0.961 . S
H326 C338 0.959 . S
H327 C341 0.929 . S
H328 C342 0.931 . S
H329 C344 0.930 . S
C330 H318 0.930 . S
C330 C331 1.399 . S
C330 C335 1.399 . S
C331 C330 1.399 . S
C331 C332 1.376 . S
C332 H319 0.930 . S
C332 C331 1.376 . S
C332 C333 1.388 . S
C333 H320 0.930 . S
C333 C332 1.388 . S
C333 C334 1.390 . S
C334 C333 1.390 . S
C334 C335 1.394 . S
C334 C340 1.465 . S
C335 C330 1.399 . S
C335 C334 1.394 . S
C335 C336 1.516 . S
C336 C335 1.516 . S
C336 C337 1.502 . S
C336 C338 1.561 . S
C336 C339 1.526 . S
C337 H321 0.959 . S
C337 H322 0.959 . S
C337 H323 0.961 . S
C337 C336 1.502 . S
C338 H324 0.960 . S
C338 H325 0.961 . S
C338 H326 0.959 . S
C338 C336 1.561 . S
C339 C336 1.526 . S
C339 C340 1.396 . S
C339 C344 1.390 . S
C340 C334 1.465 . S
C340 C339 1.396 . S
C340 C341 1.399 . S
C341 H327 0.929 . S
C341 C340 1.399 . S
C341 C342 1.385 . S
C342 H328 0.931 . S
C342 C341 1.385 . S
C342 C343 1.389 . S
C343 C342 1.389 . S
C343 C344 1.387 . S
C344 H329 0.930 . S
C344 C339 1.390 . S
C344 C343 1.387 . S
H345 C357 0.930 . S
H346 C359 0.930 . S
H347 C360 0.930 . S
H348 C364 0.959 . S
H349 C364 0.959 . S
H350 C364 0.961 . S
H351 C365 0.960 1_556 S
H352 C365 0.961 . S
H353 C365 0.959 1_556 S
H354 C368 0.929 . S
H355 C369 0.931 . S
H356 C371 0.930 . S
C357 H345 0.930 . S
C357 C358 1.399 . S
C357 C362 1.399 . S
C358 C357 1.399 . S
C358 C359 1.376 . S
C359 H346 0.930 . S
C359 C358 1.376 . S
C359 C360 1.388 . S
C360 H347 0.930 . S
C360 C359 1.388 . S
C360 C361 1.390 . S
C361 C360 1.390 . S
C361 C362 1.394 . S
C361 C367 1.465 1_556 S
C362 C357 1.399 . S
C362 C361 1.394 . S
C362 C363 1.516 1_556 S
C363 C362 1.516 1_554 S
C363 C364 1.502 . S
C363 C365 1.561 . S
C363 C366 1.526 . S
C364 H348 0.959 . S
C364 H349 0.959 . S
C364 H350 0.961 . S
C364 C363 1.502 . S
C365 H351 0.960 1_554 S
C365 H352 0.961 . S
C365 H353 0.959 1_554 S
C365 C363 1.561 . S
C366 C363 1.526 . S
C366 C367 1.396 . S
C366 C371 1.390 . S
C367 C361 1.465 1_554 S
C367 C366 1.396 . S
C367 C368 1.399 . S
C368 H354 0.929 . S
C368 C367 1.399 . S
C368 C369 1.385 . S
C369 H355 0.931 . S
C369 C368 1.385 . S
C369 C370 1.389 . S
C370 C369 1.389 . S
C370 C371 1.387 . S
C371 H356 0.930 . S
C371 C366 1.390 . S
C371 C370 1.387 . S
H372 C384 0.930 . S
H373 C386 0.930 . S
H374 C387 0.930 . S
H375 C391 0.959 . S
H376 C391 0.959 . S
H377 C391 0.961 . S
H378 C392 0.960 . S
H379 C392 0.961 . S
H380 C392 0.959 . S
H381 C395 0.929 . S
H382 C396 0.931 . S
H383 C398 0.930 . S
C384 H372 0.930 . S
C384 C385 1.399 . S
C384 C389 1.399 . S
C385 C384 1.399 . S
C385 C386 1.376 . S
C386 H373 0.930 . S
C386 C385 1.376 . S
C386 C387 1.388 . S
C387 H374 0.930 . S
C387 C386 1.388 . S
C387 C388 1.390 . S
C388 C387 1.390 . S
C388 C389 1.394 . S
C388 C394 1.465 . S
C389 C384 1.399 . S
C389 C388 1.394 . S
C389 C390 1.516 . S
C390 C389 1.516 . S
C390 C391 1.502 . S
C390 C392 1.561 . S
C390 C393 1.526 . S
C391 H375 0.959 . S
C391 H376 0.959 . S
C391 H377 0.961 . S
C391 C390 1.502 . S
C392 H378 0.960 . S
C392 H379 0.961 . S
C392 H380 0.959 . S
C392 C390 1.561 . S
C393 C390 1.526 . S
C393 C394 1.396 . S
C393 C398 1.390 . S
C394 C388 1.465 . S
C394 C393 1.396 . S
C394 C395 1.399 . S
C395 H381 0.929 . S
C395 C394 1.399 . S
C395 C396 1.385 . S
C396 H382 0.931 . S
C396 C395 1.385 . S
C396 C397 1.389 . S
C397 C396 1.389 . S
C397 C398 1.387 . S
C398 H383 0.930 . S
C398 C393 1.390 . S
C398 C397 1.387 . S
H399 C411 0.930 . S
H400 C413 0.930 . S
H401 C414 0.930 . S
H402 C418 0.959 . S
H403 C418 0.959 1_565 S
H404 C418 0.961 . S
H405 C419 0.960 . S
H406 C419 0.961 1_565 S
H407 C419 0.958 . S
H408 C422 0.929 . S
H409 C423 0.931 . S
H410 C425 0.930 . S
C411 H399 0.930 . S
C411 C412 1.399 . S
C411 C416 1.399 . S
C412 C411 1.399 . S
C412 C413 1.376 . S
C413 H400 0.930 . S
C413 C412 1.376 . S
C413 C414 1.388 . S
C414 H401 0.930 . S
C414 C413 1.388 . S
C414 C415 1.390 . S
C415 C414 1.390 . S
C415 C416 1.394 . S
C415 C421 1.465 1_545 S
C416 C411 1.399 . S
C416 C415 1.394 . S
C416 C417 1.516 . S
C417 C416 1.516 . S
C417 C418 1.502 . S
C417 C419 1.561 . S
C417 C420 1.526 1_545 S
C418 H402 0.959 . S
C418 H403 0.959 1_545 S
C418 H404 0.961 . S
C418 C417 1.502 . S
C419 H405 0.960 . S
C419 H406 0.961 1_545 S
C419 H407 0.958 . S
C419 C417 1.561 . S
C420 C417 1.526 1_565 S
C420 C421 1.396 . S
C420 C425 1.390 . S
C421 C415 1.465 1_565 S
C421 C420 1.396 . S
C421 C422 1.399 . S
C422 H408 0.929 . S
C422 C421 1.399 . S
C422 C423 1.385 . S
C423 H409 0.931 . S
C423 C422 1.385 . S
C423 C424 1.389 . S
C424 C423 1.389 . S
C424 C425 1.387 . S
C425 H410 0.930 . S
C425 C420 1.390 . S
C425 C424 1.387 . S
H426 C438 0.930 . S
H427 C440 0.930 1_554 S
H428 C441 0.930 1_554 S
H429 C445 0.959 . S
H430 C445 0.959 . S
H431 C445 0.961 . S
H432 C446 0.960 . S
H433 C446 0.961 . S
H434 C446 0.959 . S
H435 C449 0.929 . S
H436 C450 0.908 1_565 S
H437 C452 0.930 . S
C438 H426 0.930 . S
C438 C439 1.399 . S
C438 C443 1.399 . S
C439 C438 1.399 . S
C439 C440 1.376 . S
C440 H427 0.930 1_556 S
C440 C439 1.376 . S
C440 C441 1.388 . S
C441 H428 0.930 1_556 S
C441 C440 1.388 . S
C441 C442 1.390 . S
C442 C441 1.390 . S
C442 C443 1.394 . S
C442 C448 1.465 . S
C443 C438 1.399 . S
C443 C442 1.394 . S
C443 C444 1.516 . S
C444 C443 1.516 . S
C444 C445 1.502 . S
C444 C446 1.561 . S
C444 C447 1.526 . S
C445 H429 0.959 . S
C445 H430 0.959 . S
C445 H431 0.961 . S
C445 C444 1.502 . S
C446 H432 0.960 . S
C446 H433 0.961 . S
C446 H434 0.959 . S
C446 C444 1.561 . S
C447 C444 1.526 . S
C447 C448 1.396 . S
C447 C452 1.390 . S
C448 C442 1.465 . S
C448 C447 1.396 . S
C448 C449 1.399 . S
C449 H435 0.929 . S
C449 C448 1.399 . S
C449 C450 1.385 . S
C450 H436 0.908 1_545 S
C450 C449 1.385 . S
C450 C451 1.389 . S
C451 C450 1.389 . S
C451 C452 1.387 . S
C452 H437 0.930 . S
C452 C447 1.390 . S
C452 C451 1.387 . S
H453 C465 0.930 . S
H454 C467 0.930 . S
H455 C468 0.930 . S
H456 C472 0.959 . S
H457 C472 0.959 . S
H458 C472 0.961 . S
H459 C473 0.960 . S
H460 C473 0.961 . S
H461 C473 0.959 . S
H462 C476 0.929 . S
H463 C477 0.931 . S
H464 C479 0.930 . S
C465 H453 0.930 . S
C465 C466 1.399 . S
C465 C470 1.399 . S
C466 C465 1.399 . S
C466 C467 1.376 . S
C467 H454 0.930 . S
C467 C466 1.376 . S
C467 C468 1.388 . S
C468 H455 0.930 . S
C468 C467 1.388 . S
C468 C469 1.390 . S
C469 C468 1.390 . S
C469 C470 1.394 . S
C469 C475 1.465 . S
C470 C465 1.399 . S
C470 C469 1.394 . S
C470 C471 1.516 . S
C471 C470 1.516 . S
C471 C472 1.502 . S
C471 C473 1.561 . S
C471 C474 1.526 . S
C472 H456 0.959 . S
C472 H457 0.959 . S
C472 H458 0.961 . S
C472 C471 1.502 . S
C473 H459 0.960 . S
C473 H460 0.961 . S
C473 H461 0.959 . S
C473 C471 1.561 . S
C474 C471 1.526 . S
C474 C475 1.396 . S
C474 C479 1.390 . S
C475 C469 1.465 . S
C475 C474 1.396 . S
C475 C476 1.399 . S
C476 H462 0.929 . S
C476 C475 1.399 . S
C476 C477 1.385 . S
C477 H463 0.931 . S
C477 C476 1.385 . S
C477 C478 1.389 . S
C478 C477 1.389 . S
C478 C479 1.387 . S
C479 H464 0.930 . S
C479 C474 1.390 . S
C479 C478 1.387 . S
H480 C492 0.930 . S
H481 C494 0.881 1_556 S
H482 C495 0.930 1_556 S
H483 C499 0.959 . S
H484 C499 0.959 . S
H485 C499 0.961 . S
H486 C500 0.960 . S
H487 C500 0.961 . S
H488 C500 0.959 . S
H489 C503 0.929 . S
H490 C504 0.931 . S
H491 C506 0.930 . S
C492 H480 0.930 . S
C492 C493 1.399 . S
C492 C497 1.399 . S
C493 C492 1.399 . S
C493 C494 1.414 . S
C494 H481 0.881 1_554 S
C494 C493 1.414 . S
C494 C495 1.400 . S
C495 H482 0.930 1_554 S
C495 C494 1.400 . S
C495 C496 1.390 . S
C496 C495 1.390 . S
C496 C497 1.394 . S
C496 C502 1.465 . S
C497 C492 1.399 . S
C497 C496 1.394 . S
C497 C498 1.516 . S
C498 C497 1.516 . S
C498 C499 1.502 . S
C498 C500 1.561 . S
C498 C501 1.526 . S
C499 H483 0.959 . S
C499 H484 0.959 . S
C499 H485 0.961 . S
C499 C498 1.502 . S
C500 H486 0.960 . S
C500 H487 0.961 . S
C500 H488 0.959 . S
C500 C498 1.561 . S
C501 C498 1.526 . S
C501 C502 1.396 . S
C501 C506 1.390 . S
C502 C496 1.465 . S
C502 C501 1.396 . S
C502 C503 1.399 . S
C503 H489 0.929 . S
C503 C502 1.399 . S
C503 C504 1.385 . S
C504 H490 0.931 . S
C504 C503 1.385 . S
C504 C505 1.389 . S
C505 C504 1.389 . S
C505 C506 1.387 . S
C506 H491 0.930 . S
C506 C501 1.390 . S
C506 C505 1.387 . S
H507 C519 0.930 . S
H508 C521 0.930 1_455 S
H509 C522 0.930 . S
H510 C526 0.959 . S
H511 C526 0.959 . S
H512 C526 0.961 . S
H513 C527 0.960 . S
H514 C527 0.961 . S
H515 C527 0.959 . S
H516 C530 0.929 . S
H517 C531 0.931 . S
H518 C533 0.930 . S
C519 H507 0.930 . S
C519 C520 1.399 1_655 S
C519 C524 1.399 . S
C520 C519 1.399 1_455 S
C520 C521 1.376 1_455 S
C521 H508 0.930 1_655 S
C521 C520 1.376 1_655 S
C521 C522 1.388 . S
C522 H509 0.930 . S
C522 C521 1.388 . S
C522 C523 1.390 . S
C523 C522 1.390 . S
C523 C524 1.394 . S
C523 C529 1.465 . S
C524 C519 1.399 . S
C524 C523 1.394 . S
C524 C525 1.516 . S
C525 C524 1.516 . S
C525 C526 1.502 . S
C525 C527 1.561 . S
C525 C528 1.526 . S
C526 H510 0.959 . S
C526 H511 0.959 . S
C526 H512 0.961 . S
C526 C525 1.502 . S
C527 H513 0.960 . S
C527 H514 0.961 . S
C527 H515 0.959 . S
C527 C525 1.561 . S
C528 C525 1.526 . S
C528 C529 1.396 . S
C528 C533 1.390 . S
C529 C523 1.465 . S
C529 C528 1.396 . S
C529 C530 1.399 . S
C530 H516 0.929 . S
C530 C529 1.399 . S
C530 C531 1.385 . S
C531 H517 0.931 . S
C531 C530 1.385 . S
C531 C532 1.389 . S
C532 C531 1.389 . S
C532 C533 1.387 . S
C533 H518 0.930 . S
C533 C528 1.390 . S
C533 C532 1.387 . S
H534 C546 0.930 . S
H535 C548 0.930 . S
H536 C549 0.930 . S
H537 C553 0.959 . S
H538 C553 0.959 . S
H539 C553 0.961 . S
H540 C554 0.960 . S
H541 C554 0.961 . S
H542 C554 0.959 . S
H543 C557 0.929 . S
H544 C558 0.931 . S
H545 C560 0.930 . S
C546 H534 0.930 . S
C546 C547 1.399 . S
C546 C551 1.399 . S
C547 C546 1.399 . S
C547 C548 1.376 . S
C548 H535 0.930 . S
C548 C547 1.376 . S
C548 C549 1.388 . S
C549 H536 0.930 . S
C549 C548 1.388 . S
C549 C550 1.390 . S
C550 C549 1.390 . S
C550 C551 1.394 . S
C550 C556 1.465 . S
C551 C546 1.399 . S
C551 C550 1.394 . S
C551 C552 1.516 . S
C552 C551 1.516 . S
C552 C553 1.502 . S
C552 C554 1.561 . S
C552 C555 1.526 . S
C553 H537 0.959 . S
C553 H538 0.959 . S
C553 H539 0.961 . S
C553 C552 1.502 . S
C554 H540 0.960 . S
C554 H541 0.961 . S
C554 H542 0.959 . S
C554 C552 1.561 . S
C555 C552 1.526 . S
C555 C556 1.396 . S
C555 C560 1.390 . S
C556 C550 1.465 . S
C556 C555 1.396 . S
C556 C557 1.399 . S
C557 H543 0.929 . S
C557 C556 1.399 . S
C557 C558 1.385 . S
C558 H544 0.931 . S
C558 C557 1.385 . S
C558 C559 1.389 . S
C559 C558 1.389 . S
C559 C560 1.387 . S
C560 H545 0.930 . S
C560 C555 1.390 . S
C560 C559 1.387 . S
H561 C573 0.930 . S
H562 C575 0.930 . S
H563 C576 0.930 . S
H564 C580 0.959 . S
H565 C580 0.959 . S
H566 C580 0.961 . S
H567 C581 0.960 . S
H568 C581 0.961 . S
H569 C581 0.959 . S
H570 C584 0.929 . S
H571 C585 0.931 . S
H572 C587 0.930 . S
C573 H561 0.930 . S
C573 C574 1.399 . S
C573 C578 1.399 . S
C574 C573 1.399 . S
C574 C575 1.376 . S
C575 H562 0.930 . S
C575 C574 1.376 . S
C575 C576 1.388 . S
C576 H563 0.930 . S
C576 C575 1.388 . S
C576 C577 1.390 . S
C577 C576 1.390 . S
C577 C578 1.394 . S
C577 C583 1.465 . S
C578 C573 1.399 . S
C578 C577 1.394 . S
C578 C579 1.516 . S
C579 C578 1.516 . S
C579 C580 1.502 . S
C579 C581 1.561 . S
C579 C582 1.526 . S
C580 H564 0.959 . S
C580 H565 0.959 . S
C580 H566 0.961 . S
C580 C579 1.502 . S
C581 H567 0.960 . S
C581 H568 0.961 . S
C581 H569 0.959 . S
C581 C579 1.561 . S
C582 C579 1.526 . S
C582 C583 1.396 . S
C582 C587 1.390 . S
C583 C577 1.465 . S
C583 C582 1.396 . S
C583 C584 1.399 . S
C584 H570 0.929 . S
C584 C583 1.399 . S
C584 C585 1.385 . S
C585 H571 0.931 . S
C585 C584 1.385 . S
C585 C586 1.389 . S
C586 C585 1.389 . S
C586 C587 1.387 . S
C587 H572 0.930 . S
C587 C582 1.390 . S
C587 C586 1.387 . S
H588 C600 0.930 . S
H589 C602 0.930 . S
H590 C603 0.930 . S
H591 C607 0.959 . S
H592 C607 0.959 . S
H593 C607 0.961 . S
H594 C608 0.960 . S
H595 C608 0.961 . S
H596 C608 0.959 . S
H597 C611 0.929 . S
H598 C612 0.931 . S
H599 C614 0.930 . S
C600 H588 0.930 . S
C600 C601 1.399 . S
C600 C605 1.399 . S
C601 C600 1.399 . S
C601 C602 1.376 . S
C602 H589 0.930 . S
C602 C601 1.376 . S
C602 C603 1.388 . S
C603 H590 0.930 . S
C603 C602 1.388 . S
C603 C604 1.390 . S
C604 C603 1.390 . S
C604 C605 1.394 . S
C604 C610 1.465 . S
C605 C600 1.399 . S
C605 C604 1.394 . S
C605 C606 1.516 . S
C606 C605 1.516 . S
C606 C607 1.502 . S
C606 C608 1.561 . S
C606 C609 1.526 . S
C607 H591 0.959 . S
C607 H592 0.959 . S
C607 H593 0.961 . S
C607 C606 1.502 . S
C608 H594 0.960 . S
C608 H595 0.961 . S
C608 H596 0.959 . S
C608 C606 1.561 . S
C609 C606 1.526 . S
C609 C610 1.396 . S
C609 C614 1.390 . S
C610 C604 1.465 . S
C610 C609 1.396 . S
C610 C611 1.399 . S
C611 H597 0.929 . S
C611 C610 1.399 . S
C611 C612 1.385 . S
C612 H598 0.931 . S
C612 C611 1.385 . S
C612 C613 1.389 . S
C613 C612 1.389 . S
C613 C614 1.387 . S
C614 H599 0.930 . S
C614 C609 1.390 . S
C614 C613 1.387 . S
H615 C627 0.930 . S
H616 C629 0.930 . S
H617 C630 0.930 . S
H618 C634 0.959 . S
H619 C634 0.959 . S
H620 C634 0.961 . S
H621 C635 0.960 . S
H622 C635 0.961 . S
H623 C635 0.959 . S
H624 C638 0.929 . S
H625 C639 0.931 . S
H626 C641 0.930 . S
C627 H615 0.930 . S
C627 C628 1.399 . S
C627 C632 1.399 . S
C628 C627 1.399 . S
C628 C629 1.376 . S
C629 H616 0.930 . S
C629 C628 1.376 . S
C629 C630 1.388 . S
C630 H617 0.930 . S
C630 C629 1.388 . S
C630 C631 1.390 . S
C631 C630 1.390 . S
C631 C632 1.394 . S
C631 C637 1.465 . S
C632 C627 1.399 . S
C632 C631 1.394 . S
C632 C633 1.516 . S
C633 C632 1.516 . S
C633 C634 1.502 . S
C633 C635 1.561 . S
C633 C636 1.526 . S
C634 H618 0.959 . S
C634 H619 0.959 . S
C634 H620 0.961 . S
C634 C633 1.502 . S
C635 H621 0.960 . S
C635 H622 0.961 . S
C635 H623 0.959 . S
C635 C633 1.561 . S
C636 C633 1.526 . S
C636 C637 1.396 . S
C636 C641 1.390 . S
C637 C631 1.465 . S
C637 C636 1.396 . S
C637 C638 1.399 . S
C638 H624 0.929 . S
C638 C637 1.399 . S
C638 C639 1.385 . S
C639 H625 0.931 . S
C639 C638 1.385 . S
C639 C640 1.389 . S
C640 C639 1.389 . S
C640 C641 1.387 . S
C641 H626 0.930 . S
C641 C636 1.390 . S
C641 C640 1.387 . S
H642 C654 0.930 . S
H643 C656 0.930 . S
H644 C657 0.930 . S
H645 C661 0.959 . S
H646 C661 0.959 . S
H647 C661 0.961 . S
H648 C662 0.960 . S
H649 C662 0.961 . S
H650 C662 0.959 . S
H651 C665 0.929 . S
H652 C666 0.931 . S
H653 C668 0.930 . S
C654 H642 0.930 . S
C654 C655 1.399 . S
C654 C659 1.399 . S
C655 C654 1.399 . S
C655 C656 1.376 . S
C656 H643 0.930 . S
C656 C655 1.376 . S
C656 C657 1.388 . S
C657 H644 0.930 . S
C657 C656 1.388 . S
C657 C658 1.390 . S
C658 C657 1.390 . S
C658 C659 1.394 . S
C658 C664 1.465 . S
C659 C654 1.399 . S
C659 C658 1.394 . S
C659 C660 1.516 . S
C660 C659 1.516 . S
C660 C661 1.502 . S
C660 C662 1.561 . S
C660 C663 1.526 . S
C661 H645 0.959 . S
C661 H646 0.959 . S
C661 H647 0.961 . S
C661 C660 1.502 . S
C662 H648 0.960 . S
C662 H649 0.961 . S
C662 H650 0.959 . S
C662 C660 1.561 . S
C663 C660 1.526 . S
C663 C664 1.396 . S
C663 C668 1.390 . S
C664 C658 1.465 . S
C664 C663 1.396 . S
C664 C665 1.399 . S
C665 H651 0.929 . S
C665 C664 1.399 . S
C665 C666 1.385 . S
C666 H652 0.931 . S
C666 C665 1.385 . S
C666 C667 1.389 . S
C667 C666 1.389 . S
C667 C668 1.387 . S
C668 H653 0.930 . S
C668 C663 1.390 . S
C668 C667 1.387 . S
H669 C681 0.930 . S
H670 C683 0.930 . S
H671 C684 0.930 . S
H672 C688 0.959 . S
H673 C688 0.959 . S
H674 C688 0.961 . S
H675 C689 0.960 . S
H676 C689 0.961 . S
H677 C689 0.959 . S
H678 C692 0.929 . S
H679 C693 0.931 . S
H680 C695 0.930 . S
C681 H669 0.930 . S
C681 C682 1.399 . S
C681 C686 1.399 . S
C682 C681 1.399 . S
C682 C683 1.376 . S
C683 H670 0.930 . S
C683 C682 1.376 . S
C683 C684 1.388 . S
C684 H671 0.930 . S
C684 C683 1.388 . S
C684 C685 1.390 . S
C685 C684 1.390 . S
C685 C686 1.394 . S
C685 C691 1.465 . S
C686 C681 1.399 . S
C686 C685 1.394 . S
C686 C687 1.516 . S
C687 C686 1.516 . S
C687 C688 1.502 . S
C687 C689 1.561 . S
C687 C690 1.526 . S
C688 H672 0.959 . S
C688 H673 0.959 . S
C688 H674 0.961 . S
C688 C687 1.502 . S
C689 H675 0.960 . S
C689 H676 0.961 . S
C689 H677 0.959 . S
C689 C687 1.561 . S
C690 C687 1.526 . S
C690 C691 1.396 . S
C690 C695 1.390 . S
C691 C685 1.465 . S
C691 C690 1.396 . S
C691 C692 1.399 . S
C692 H678 0.929 . S
C692 C691 1.399 . S
C692 C693 1.385 . S
C693 H679 0.931 . S
C693 C692 1.385 . S
C693 C694 1.389 . S
C694 C693 1.389 . S
C694 C695 1.387 . S
C695 H680 0.930 . S
C695 C690 1.390 . S
C695 C694 1.387 . S
H696 C708 0.930 1_655 S
H697 C710 0.930 . S
H698 C711 0.930 . S
H699 C715 0.959 . S
H700 C715 0.959 . S
H701 C715 0.961 . S
H702 C716 0.960 1_655 S
H703 C716 0.961 . S
H704 C716 0.959 . S
H705 C719 0.929 . S
H706 C720 0.931 . S
H707 C722 0.930 . S
C708 H696 0.930 1_455 S
C708 C709 1.399 . S
C708 C713 1.399 . S
C709 C708 1.399 . S
C709 C710 1.376 . S
C710 H697 0.930 . S
C710 C709 1.376 . S
C710 C711 1.388 . S
C711 H698 0.930 . S
C711 C710 1.388 . S
C711 C712 1.390 . S
C712 C711 1.390 . S
C712 C713 1.394 . S
C712 C718 1.465 . S
C713 C708 1.399 . S
C713 C712 1.394 . S
C713 C714 1.516 . S
C714 C713 1.516 . S
C714 C715 1.502 1_455 S
C714 C716 1.561 . S
C714 C717 1.526 . S
C715 H699 0.959 . S
C715 H700 0.959 . S
C715 H701 0.961 . S
C715 C714 1.502 1_655 S
C716 H702 0.960 1_455 S
C716 H703 0.961 . S
C716 H704 0.959 . S
C716 C714 1.561 . S
C717 C714 1.526 . S
C717 C718 1.396 . S
C717 C722 1.390 . S
C718 C712 1.465 . S
C718 C717 1.396 . S
C718 C719 1.399 . S
C719 H705 0.929 . S
C719 C718 1.399 . S
C719 C720 1.385 . S
C720 H706 0.931 . S
C720 C719 1.385 . S
C720 C721 1.389 . S
C721 C720 1.389 . S
C721 C722 1.387 . S
C722 H707 0.930 . S
C722 C717 1.390 . S
C722 C721 1.387 . S
H723 C735 0.930 . S
H724 C737 0.930 . S
H725 C738 0.930 . S
H726 C742 0.959 . S
H727 C742 0.959 . S
H728 C742 0.961 . S
H729 C743 0.960 . S
H730 C743 0.961 . S
H731 C743 0.959 . S
H732 C746 0.929 . S
H733 C747 0.931 . S
H734 C749 0.930 . S
C735 H723 0.930 . S
C735 C736 1.399 . S
C735 C740 1.399 . S
C736 C735 1.399 . S
C736 C737 1.376 . S
C737 H724 0.930 . S
C737 C736 1.376 . S
C737 C738 1.388 . S
C738 H725 0.930 . S
C738 C737 1.388 . S
C738 C739 1.390 . S
C739 C738 1.390 . S
C739 C740 1.394 . S
C739 C745 1.465 . S
C740 C735 1.399 . S
C740 C739 1.394 . S
C740 C741 1.516 . S
C741 C740 1.516 . S
C741 C742 1.502 . S
C741 C743 1.561 . S
C741 C744 1.526 . S
C742 H726 0.959 . S
C742 H727 0.959 . S
C742 H728 0.961 . S
C742 C741 1.502 . S
C743 H729 0.960 . S
C743 H730 0.961 . S
C743 H731 0.959 . S
C743 C741 1.561 . S
C744 C741 1.526 . S
C744 C745 1.396 . S
C744 C749 1.390 . S
C745 C739 1.465 . S
C745 C744 1.396 . S
C745 C746 1.399 . S
C746 H732 0.929 . S
C746 C745 1.399 . S
C746 C747 1.385 . S
C747 H733 0.931 . S
C747 C746 1.385 . S
C747 C748 1.389 . S
C748 C747 1.389 . S
C748 C749 1.387 . S
C749 H734 0.930 . S
C749 C744 1.390 . S
C749 C748 1.387 . S
H750 C762 0.930 . S
H751 C764 0.930 . S
H752 C765 0.930 . S
H753 C769 0.959 . S
H754 C769 0.959 . S
H755 C769 0.961 . S
H756 C770 0.960 . S
H757 C770 0.961 . S
H758 C770 0.959 . S
H759 C773 0.929 . S
H760 C774 0.931 . S
H761 C776 0.930 . S
C762 H750 0.930 . S
C762 C763 1.399 . S
C762 C767 1.399 . S
C763 C762 1.399 . S
C763 C764 1.376 . S
C764 H751 0.930 . S
C764 C763 1.376 . S
C764 C765 1.388 . S
C765 H752 0.930 . S
C765 C764 1.388 . S
C765 C766 1.390 . S
C766 C765 1.390 . S
C766 C767 1.394 . S
C766 C772 1.465 . S
C767 C762 1.399 . S
C767 C766 1.394 . S
C767 C768 1.516 . S
C768 C767 1.516 . S
C768 C769 1.502 . S
C768 C770 1.561 . S
C768 C771 1.526 . S
C769 H753 0.959 . S
C769 H754 0.959 . S
C769 H755 0.961 . S
C769 C768 1.502 . S
C770 H756 0.960 . S
C770 H757 0.961 . S
C770 H758 0.959 . S
C770 C768 1.561 . S
C771 C768 1.526 . S
C771 C772 1.396 . S
C771 C776 1.390 . S
C772 C766 1.465 . S
C772 C771 1.396 . S
C772 C773 1.399 . S
C773 H759 0.929 . S
C773 C772 1.399 . S
C773 C774 1.385 . S
C774 H760 0.931 . S
C774 C773 1.385 . S
C774 C775 1.389 . S
C775 C774 1.389 . S
C775 C776 1.387 . S
C776 H761 0.930 . S
C776 C771 1.390 . S
C776 C775 1.387 . S
H777 C789 0.930 . S
H778 C791 0.930 . S
H779 C792 0.930 . S
H780 C796 0.959 . S
H781 C796 0.959 . S
H782 C796 0.961 . S
H783 C797 0.960 . S
H784 C797 0.961 . S
H785 C797 0.959 . S
H786 C800 0.929 . S
H787 C801 0.931 . S
H788 C803 0.930 . S
C789 H777 0.930 . S
C789 C790 1.399 . S
C789 C794 1.399 . S
C790 C789 1.399 . S
C790 C791 1.376 . S
C791 H778 0.930 . S
C791 C790 1.376 . S
C791 C792 1.388 . S
C792 H779 0.930 . S
C792 C791 1.388 . S
C792 C793 1.390 . S
C793 C792 1.390 . S
C793 C794 1.394 . S
C793 C799 1.465 . S
C794 C789 1.399 . S
C794 C793 1.394 . S
C794 C795 1.516 . S
C795 C794 1.516 . S
C795 C796 1.502 . S
C795 C797 1.561 . S
C795 C798 1.526 . S
C796 H780 0.959 . S
C796 H781 0.959 . S
C796 H782 0.961 . S
C796 C795 1.502 . S
C797 H783 0.960 . S
C797 H784 0.961 . S
C797 H785 0.959 . S
C797 C795 1.561 . S
C798 C795 1.526 . S
C798 C799 1.396 . S
C798 C803 1.390 . S
C799 C793 1.465 . S
C799 C798 1.396 . S
C799 C800 1.399 . S
C800 H786 0.929 . S
C800 C799 1.399 . S
C800 C801 1.385 . S
C801 H787 0.931 . S
C801 C800 1.385 . S
C801 C802 1.389 . S
C802 C801 1.389 . S
C802 C803 1.387 . S
C803 H788 0.930 . S
C803 C798 1.390 . S
C803 C802 1.387 . S
H804 C816 0.930 . S
H805 C818 0.930 . S
H806 C819 0.930 . S
H807 C823 0.959 . S
H808 C823 0.959 . S
H809 C823 0.961 . S
H810 C824 0.960 . S
H811 C824 0.961 . S
H812 C824 0.959 . S
H813 C827 0.929 . S
H814 C828 0.931 . S
H815 C830 0.930 . S
C816 H804 0.930 . S
C816 C817 1.399 . S
C816 C821 1.399 . S
C817 C816 1.399 . S
C817 C818 1.376 . S
C818 H805 0.930 . S
C818 C817 1.376 . S
C818 C819 1.388 . S
C819 H806 0.930 . S
C819 C818 1.388 . S
C819 C820 1.390 . S
C820 C819 1.390 . S
C820 C821 1.394 . S
C820 C826 1.465 . S
C821 C816 1.399 . S
C821 C820 1.394 . S
C821 C822 1.516 . S
C822 C821 1.516 . S
C822 C823 1.502 . S
C822 C824 1.561 . S
C822 C825 1.526 . S
C823 H807 0.959 . S
C823 H808 0.959 . S
C823 H809 0.961 . S
C823 C822 1.502 . S
C824 H810 0.960 . S
C824 H811 0.961 . S
C824 H812 0.959 . S
C824 C822 1.561 . S
C825 C822 1.526 . S
C825 C826 1.396 . S
C825 C830 1.390 . S
C826 C820 1.465 . S
C826 C825 1.396 . S
C826 C827 1.399 . S
C827 H813 0.929 . S
C827 C826 1.399 . S
C827 C828 1.385 . S
C828 H814 0.931 . S
C828 C827 1.385 . S
C828 C829 1.389 . S
C829 C828 1.389 . S
C829 C830 1.387 . S
C830 H815 0.930 . S
C830 C825 1.390 . S
C830 C829 1.387 . S
H831 C843 0.930 . S
H832 C845 0.930 . S
H833 C846 0.930 . S
H834 C850 0.959 . S
H835 C850 0.959 . S
H836 C850 0.961 . S
H837 C851 0.960 . S
H838 C851 0.961 . S
H839 C851 0.959 . S
H840 C854 0.929 . S
H841 C855 0.931 . S
H842 C857 0.930 . S
C843 H831 0.930 . S
C843 C844 1.399 . S
C843 C848 1.399 . S
C844 C843 1.399 . S
C844 C845 1.376 . S
C845 H832 0.930 . S
C845 C844 1.376 . S
C845 C846 1.388 . S
C846 H833 0.930 . S
C846 C845 1.388 . S
C846 C847 1.390 . S
C847 C846 1.390 . S
C847 C848 1.394 . S
C847 C853 1.465 . S
C848 C843 1.399 . S
C848 C847 1.394 . S
C848 C849 1.516 . S
C849 C848 1.516 . S
C849 C850 1.502 . S
C849 C851 1.561 . S
C849 C852 1.526 . S
C850 H834 0.959 . S
C850 H835 0.959 . S
C850 H836 0.961 . S
C850 C849 1.502 . S
C851 H837 0.960 . S
C851 H838 0.961 . S
C851 H839 0.959 . S
C851 C849 1.561 . S
C852 C849 1.526 . S
C852 C853 1.396 . S
C852 C857 1.390 . S
C853 C847 1.465 . S
C853 C852 1.396 . S
C853 C854 1.399 . S
C854 H840 0.929 . S
C854 C853 1.399 . S
C854 C855 1.385 . S
C855 H841 0.931 . S
C855 C854 1.385 . S
C855 C856 1.389 . S
C856 C855 1.389 . S
C856 C857 1.387 . S
C857 H842 0.930 . S
C857 C852 1.390 . S
C857 C856 1.387 . S
H858 C870 0.930 . S
H859 C872 0.930 . S
H860 C873 0.930 . S
H861 C877 0.959 . S
H862 C877 0.959 . S
H863 C877 0.961 . S
H864 C878 0.960 . S
H865 C878 0.961 . S
H866 C878 0.959 . S
H867 C881 0.929 . S
H868 C882 0.931 . S
H869 C884 0.930 . S
C870 H858 0.930 . S
C870 C871 1.399 . S
C870 C875 1.399 . S
C871 C870 1.399 . S
C871 C872 1.376 . S
C872 H859 0.930 . S
C872 C871 1.376 . S
C872 C873 1.388 . S
C873 H860 0.930 . S
C873 C872 1.388 . S
C873 C874 1.390 . S
C874 C873 1.390 . S
C874 C875 1.394 . S
C874 C880 1.465 . S
C875 C870 1.399 . S
C875 C874 1.394 . S
C875 C876 1.516 . S
C876 C875 1.516 . S
C876 C877 1.502 . S
C876 C878 1.561 . S
C876 C879 1.526 . S
C877 H861 0.959 . S
C877 H862 0.959 . S
C877 H863 0.961 . S
C877 C876 1.502 . S
C878 H864 0.960 . S
C878 H865 0.961 . S
C878 H866 0.959 . S
C878 C876 1.561 . S
C879 C876 1.526 . S
C879 C880 1.396 . S
C879 C884 1.390 . S
C880 C874 1.465 . S
C880 C879 1.396 . S
C880 C881 1.399 . S
C881 H867 0.929 . S
C881 C880 1.399 . S
C881 C882 1.385 . S
C882 H868 0.931 . S
C882 C881 1.385 . S
C882 C883 1.389 . S
C883 C882 1.389 . S
C883 C884 1.387 . S
C884 H869 0.930 . S
C884 C879 1.390 . S
C884 C883 1.387 . S
H885 C897 0.930 . S
H886 C899 0.930 . S
H887 C900 0.930 . S
H888 C904 0.959 . S
H889 C904 0.959 . S
H890 C904 0.961 . S
H891 C905 0.960 . S
H892 C905 0.961 . S
H893 C905 0.959 . S
H894 C908 0.929 . S
H895 C909 0.931 . S
H896 C911 0.930 . S
C897 H885 0.930 . S
C897 C898 1.399 . S
C897 C902 1.399 . S
C898 C897 1.399 . S
C898 C899 1.376 . S
C899 H886 0.930 . S
C899 C898 1.376 . S
C899 C900 1.388 . S
C900 H887 0.930 . S
C900 C899 1.388 . S
C900 C901 1.390 . S
C901 C900 1.390 . S
C901 C902 1.394 . S
C901 C907 1.465 . S
C902 C897 1.399 . S
C902 C901 1.394 . S
C902 C903 1.516 . S
C903 C902 1.516 . S
C903 C904 1.502 . S
C903 C905 1.561 . S
C903 C906 1.526 . S
C904 H888 0.959 . S
C904 H889 0.959 . S
C904 H890 0.961 . S
C904 C903 1.502 . S
C905 H891 0.960 . S
C905 H892 0.961 . S
C905 H893 0.959 . S
C905 C903 1.561 . S
C906 C903 1.526 . S
C906 C907 1.396 . S
C906 C911 1.390 . S
C907 C901 1.465 . S
C907 C906 1.396 . S
C907 C908 1.399 . S
C908 H894 0.929 . S
C908 C907 1.399 . S
C908 C909 1.385 . S
C909 H895 0.931 . S
C909 C908 1.385 . S
C909 C910 1.389 . S
C910 C909 1.389 . S
C910 C911 1.387 . S
C911 H896 0.930 . S
C911 C906 1.390 . S
C911 C910 1.387 . S
H912 C924 0.930 . S
H913 C926 0.930 . S
H914 C927 0.930 . S
H915 C931 0.959 . S
H916 C931 0.959 . S
H917 C931 0.961 . S
H918 C932 0.960 . S
H919 C932 0.961 . S
H920 C932 0.959 . S
H921 C935 0.929 . S
H922 C936 0.931 . S
H923 C938 0.930 . S
C924 H912 0.930 . S
C924 C925 1.399 . S
C924 C929 1.399 . S
C925 C924 1.399 . S
C925 C926 1.376 . S
C926 H913 0.930 . S
C926 C925 1.376 . S
C926 C927 1.388 . S
C927 H914 0.930 . S
C927 C926 1.388 . S
C927 C928 1.390 . S
C928 C927 1.390 . S
C928 C929 1.394 . S
C928 C934 1.465 . S
C929 C924 1.399 . S
C929 C928 1.394 . S
C929 C930 1.516 . S
C930 C929 1.516 . S
C930 C931 1.502 . S
C930 C932 1.561 . S
C930 C933 1.526 . S
C931 H915 0.959 . S
C931 H916 0.959 . S
C931 H917 0.961 . S
C931 C930 1.502 . S
C932 H918 0.960 . S
C932 H919 0.961 . S
C932 H920 0.959 . S
C932 C930 1.561 . S
C933 C930 1.526 . S
C933 C934 1.396 . S
C933 C938 1.390 . S
C934 C928 1.465 . S
C934 C933 1.396 . S
C934 C935 1.399 . S
C935 H921 0.929 . S
C935 C934 1.399 . S
C935 C936 1.385 . S
C936 H922 0.931 . S
C936 C935 1.385 . S
C936 C937 1.389 . S
C937 C936 1.389 . S
C937 C938 1.387 . S
C938 H923 0.930 . S
C938 C933 1.390 . S
C938 C937 1.387 . S
H939 C951 0.930 . S
H940 C953 0.930 . S
H941 C954 0.930 . S
H942 C958 0.959 . S
H943 C958 0.959 . S
H944 C958 0.961 . S
H945 C959 0.960 . S
H946 C959 0.961 . S
H947 C959 0.959 . S
H948 C962 0.929 . S
H949 C963 0.931 . S
H950 C965 0.930 . S
C951 H939 0.930 . S
C951 C952 1.399 . S
C951 C956 1.399 . S
C952 C951 1.399 . S
C952 C953 1.376 . S
C953 H940 0.930 . S
C953 C952 1.376 . S
C953 C954 1.388 . S
C954 H941 0.930 . S
C954 C953 1.388 . S
C954 C955 1.390 . S
C955 C954 1.390 . S
C955 C956 1.394 . S
C955 C961 1.465 . S
C956 C951 1.399 . S
C956 C955 1.394 . S
C956 C957 1.516 . S
C957 C956 1.516 . S
C957 C958 1.502 . S
C957 C959 1.561 . S
C957 C960 1.526 . S
C958 H942 0.959 . S
C958 H943 0.959 . S
C958 H944 0.961 . S
C958 C957 1.502 . S
C959 H945 0.960 . S
C959 H946 0.961 . S
C959 H947 0.959 . S
C959 C957 1.561 . S
C960 C957 1.526 . S
C960 C961 1.396 . S
C960 C965 1.390 . S
C961 C955 1.465 . S
C961 C960 1.396 . S
C961 C962 1.399 . S
C962 H948 0.929 . S
C962 C961 1.399 . S
C962 C963 1.385 . S
C963 H949 0.931 . S
C963 C962 1.385 . S
C963 C964 1.389 . S
C964 C963 1.389 . S
C964 C965 1.387 . S
C965 H950 0.930 . S
C965 C960 1.390 . S
C965 C964 1.387 . S
H966 C978 0.930 . S
H967 C980 0.930 . S
H968 C981 0.930 . S
H969 C985 0.959 . S
H970 C985 0.959 . S
H971 C985 0.961 . S
H972 C986 0.960 . S
H973 C986 0.961 . S
H974 C986 0.959 . S
H975 C989 0.929 . S
H976 C990 0.931 . S
H977 C992 0.930 . S
C978 H966 0.930 . S
C978 C979 1.399 . S
C978 C983 1.399 . S
C979 C978 1.399 . S
C979 C980 1.376 . S
C980 H967 0.930 . S
C980 C979 1.376 . S
C980 C981 1.388 . S
C981 H968 0.930 . S
C981 C980 1.388 . S
C981 C982 1.390 . S
C982 C981 1.390 . S
C982 C983 1.394 . S
C982 C988 1.465 . S
C983 C978 1.399 . S
C983 C982 1.394 . S
C983 C984 1.516 . S
C984 C983 1.516 . S
C984 C985 1.502 . S
C984 C986 1.561 . S
C984 C987 1.526 . S
C985 H969 0.959 . S
C985 H970 0.959 . S
C985 H971 0.961 . S
C985 C984 1.502 . S
C986 H972 0.960 . S
C986 H973 0.961 . S
C986 H974 0.959 . S
C986 C984 1.561 . S
C987 C984 1.526 . S
C987 C988 1.396 . S
C987 C992 1.390 . S
C988 C982 1.465 . S
C988 C987 1.396 . S
C988 C989 1.399 . S
C989 H975 0.929 . S
C989 C988 1.399 . S
C989 C990 1.385 . S
C990 H976 0.931 . S
C990 C989 1.385 . S
C990 C991 1.389 . S
C991 C990 1.389 . S
C991 C992 1.387 . S
C992 H977 0.930 . S
C992 C987 1.390 . S
C992 C991 1.387 . S
H993 C1005 0.930 . S
H994 C1007 0.930 . S
H995 C1008 0.930 . S
H996 C1012 0.959 . S
H997 C1012 0.959 . S
H998 C1012 0.961 . S
H999 C1013 0.960 . S
H1000 C1013 0.961 . S
H1001 C1013 0.959 . S
H1002 C1016 0.929 . S
H1003 C1017 0.931 . S
H1004 C1019 0.930 . S
C1005 H993 0.930 . S
C1005 C1006 1.399 . S
C1005 C1010 1.399 . S
C1006 C1005 1.399 . S
C1006 C1007 1.376 . S
C1007 H994 0.930 . S
C1007 C1006 1.376 . S
C1007 C1008 1.388 . S
C1008 H995 0.930 . S
C1008 C1007 1.388 . S
C1008 C1009 1.390 . S
C1009 C1008 1.390 . S
C1009 C1010 1.394 . S
C1009 C1015 1.465 . S
C1010 C1005 1.399 . S
C1010 C1009 1.394 . S
C1010 C1011 1.516 . S
C1011 C1010 1.516 . S
C1011 C1012 1.502 . S
C1011 C1013 1.561 . S
C1011 C1014 1.526 . S
C1012 H996 0.959 . S
C1012 H997 0.959 . S
C1012 H998 0.961 . S
C1012 C1011 1.502 . S
C1013 H999 0.960 . S
C1013 H1000 0.961 . S
C1013 H1001 0.959 . S
C1013 C1011 1.561 . S
C1014 C1011 1.526 . S
C1014 C1015 1.396 . S
C1014 C1019 1.390 . S
C1015 C1009 1.465 . S
C1015 C1014 1.396 . S
C1015 C1016 1.399 . S
C1016 H1002 0.929 . S
C1016 C1015 1.399 . S
C1016 C1017 1.385 . S
C1017 H1003 0.931 . S
C1017 C1016 1.385 . S
C1017 C1018 1.389 . S
C1018 C1017 1.389 . S
C1018 C1019 1.387 . S
C1019 H1004 0.930 . S
C1019 C1014 1.390 . S
C1019 C1018 1.387 . S
H1020 C1032 0.930 . S
H1021 C1034 0.930 . S
H1022 C1035 0.930 . S
H1023 C1039 0.959 . S
H1024 C1039 0.959 . S
H1025 C1039 0.961 . S
H1026 C1040 0.960 . S
H1027 C1040 0.961 . S
H1028 C1040 0.959 . S
H1029 C1043 0.929 . S
H1030 C1044 0.931 . S
H1031 C1046 0.930 . S
C1032 H1020 0.930 . S
C1032 C1033 1.399 . S
C1032 C1037 1.399 . S
C1033 C1032 1.399 . S
C1033 C1034 1.376 . S
C1034 H1021 0.930 . S
C1034 C1033 1.376 . S
C1034 C1035 1.388 . S
C1035 H1022 0.930 . S
C1035 C1034 1.388 . S
C1035 C1036 1.390 . S
C1036 C1035 1.390 . S
C1036 C1037 1.394 . S
C1036 C1042 1.465 . S
C1037 C1032 1.399 . S
C1037 C1036 1.394 . S
C1037 C1038 1.516 . S
C1038 C1037 1.516 . S
C1038 C1039 1.502 . S
C1038 C1040 1.561 . S
C1038 C1041 1.526 . S
C1039 H1023 0.959 . S
C1039 H1024 0.959 . S
C1039 H1025 0.961 . S
C1039 C1038 1.502 . S
C1040 H1026 0.960 . S
C1040 H1027 0.961 . S
C1040 H1028 0.959 . S
C1040 C1038 1.561 . S
C1041 C1038 1.526 . S
C1041 C1042 1.396 . S
C1041 C1046 1.390 . S
C1042 C1036 1.465 . S
C1042 C1041 1.396 . S
C1042 C1043 1.399 . S
C1043 H1029 0.929 . S
C1043 C1042 1.399 . S
C1043 C1044 1.385 . S
C1044 H1030 0.931 . S
C1044 C1043 1.385 . S
C1044 C1045 1.389 . S
C1045 C1044 1.389 . S
C1045 C1046 1.387 . S
C1046 H1031 0.930 . S
C1046 C1041 1.390 . S
C1046 C1045 1.387 . S
H1047 C1059 0.930 . S
H1048 C1061 0.930 . S
H1049 C1062 0.930 . S
H1050 C1066 0.959 . S
H1051 C1066 0.959 . S
H1052 C1066 0.961 . S
H1053 C1067 0.960 . S
H1054 C1067 0.961 . S
H1055 C1067 0.959 . S
H1056 C1070 0.929 . S
H1057 C1071 0.931 . S
H1058 C1073 0.930 . S
C1059 H1047 0.930 . S
C1059 C1060 1.399 . S
C1059 C1064 1.399 . S
C1060 C1059 1.399 . S
C1060 C1061 1.376 . S
C1061 H1048 0.930 . S
C1061 C1060 1.376 . S
C1061 C1062 1.388 . S
C1062 H1049 0.930 . S
C1062 C1061 1.388 . S
C1062 C1063 1.390 . S
C1063 C1062 1.390 . S
C1063 C1064 1.394 . S
C1063 C1069 1.465 . S
C1064 C1059 1.399 . S
C1064 C1063 1.394 . S
C1064 C1065 1.516 . S
C1065 C1064 1.516 . S
C1065 C1066 1.502 . S
C1065 C1067 1.561 . S
C1065 C1068 1.526 . S
C1066 H1050 0.959 . S
C1066 H1051 0.959 . S
C1066 H1052 0.961 . S
C1066 C1065 1.502 . S
C1067 H1053 0.960 . S
C1067 H1054 0.961 . S
C1067 H1055 0.959 . S
C1067 C1065 1.561 . S
C1068 C1065 1.526 . S
C1068 C1069 1.396 . S
C1068 C1073 1.390 . S
C1069 C1063 1.465 . S
C1069 C1068 1.396 . S
C1069 C1070 1.399 . S
C1070 H1056 0.929 . S
C1070 C1069 1.399 . S
C1070 C1071 1.385 . S
C1071 H1057 0.931 . S
C1071 C1070 1.385 . S
C1071 C1072 1.389 . S
C1072 C1071 1.389 . S
C1072 C1073 1.387 . S
C1073 H1058 0.930 . S
C1073 C1068 1.390 . S
C1073 C1072 1.387 . S
H1074 C1086 0.930 . S
H1075 C1088 0.930 . S
H1076 C1089 0.930 . S
H1077 C1093 0.959 . S
H1078 C1093 0.959 . S
H1079 C1093 0.961 . S
H1080 C1094 0.960 . S
H1081 C1094 0.961 . S
H1082 C1094 0.959 . S
H1083 C1097 0.929 . S
H1084 C1098 0.931 . S
H1085 C1100 0.930 . S
C1086 H1074 0.930 . S
C1086 C1087 1.399 . S
C1086 C1091 1.399 . S
C1087 C1086 1.399 . S
C1087 C1088 1.376 . S
C1088 H1075 0.930 . S
C1088 C1087 1.376 . S
C1088 C1089 1.388 . S
C1089 H1076 0.930 . S
C1089 C1088 1.388 . S
C1089 C1090 1.390 . S
C1090 C1089 1.390 . S
C1090 C1091 1.394 . S
C1090 C1096 1.465 . S
C1091 C1086 1.399 . S
C1091 C1090 1.394 . S
C1091 C1092 1.516 . S
C1092 C1091 1.516 . S
C1092 C1093 1.502 . S
C1092 C1094 1.561 . S
C1092 C1095 1.526 . S
C1093 H1077 0.959 . S
C1093 H1078 0.959 . S
C1093 H1079 0.961 . S
C1093 C1092 1.502 . S
C1094 H1080 0.960 . S
C1094 H1081 0.961 . S
C1094 H1082 0.959 . S
C1094 C1092 1.561 . S
C1095 C1092 1.526 . S
C1095 C1096 1.396 . S
C1095 C1100 1.390 . S
C1096 C1090 1.465 . S
C1096 C1095 1.396 . S
C1096 C1097 1.399 . S
C1097 H1083 0.929 . S
C1097 C1096 1.399 . S
C1097 C1098 1.385 . S
C1098 H1084 0.931 . S
C1098 C1097 1.385 . S
C1098 C1099 1.389 . S
C1099 C1098 1.389 . S
C1099 C1100 1.387 . S
C1100 H1085 0.930 . S
C1100 C1095 1.390 . S
C1100 C1099 1.387 . S
H1101 C1113 0.930 . S
H1102 C1115 0.930 . S
H1103 C1116 0.930 . S
H1104 C1120 0.959 . S
H1105 C1120 0.959 . S
H1106 C1120 0.961 . S
H1107 C1121 0.960 . S
H1108 C1121 0.961 . S
H1109 C1121 0.959 . S
H1110 C1124 0.929 . S
H1111 C1125 0.931 . S
H1112 C1127 0.930 . S
C1113 H1101 0.930 . S
C1113 C1114 1.399 . S
C1113 C1118 1.399 . S
C1114 C1113 1.399 . S
C1114 C1115 1.376 . S
C1115 H1102 0.930 . S
C1115 C1114 1.376 . S
C1115 C1116 1.388 . S
C1116 H1103 0.930 . S
C1116 C1115 1.388 . S
C1116 C1117 1.390 . S
C1117 C1116 1.390 . S
C1117 C1118 1.394 . S
C1117 C1123 1.465 . S
C1118 C1113 1.399 . S
C1118 C1117 1.394 . S
C1118 C1119 1.516 . S
C1119 C1118 1.516 . S
C1119 C1120 1.502 . S
C1119 C1121 1.561 . S
C1119 C1122 1.526 . S
C1120 H1104 0.959 . S
C1120 H1105 0.959 . S
C1120 H1106 0.961 . S
C1120 C1119 1.502 . S
C1121 H1107 0.960 . S
C1121 H1108 0.961 . S
C1121 H1109 0.959 . S
C1121 C1119 1.561 . S
C1122 C1119 1.526 . S
C1122 C1123 1.396 . S
C1122 C1127 1.390 . S
C1123 C1117 1.465 . S
C1123 C1122 1.396 . S
C1123 C1124 1.399 . S
C1124 H1110 0.929 . S
C1124 C1123 1.399 . S
C1124 C1125 1.385 . S
C1125 H1111 0.931 . S
C1125 C1124 1.385 . S
C1125 C1126 1.389 . S
C1126 C1125 1.389 . S
C1126 C1127 1.387 . S
C1127 H1112 0.930 . S
C1127 C1122 1.390 . S
C1127 C1126 1.387 . S
H1128 C1140 0.930 . S
H1129 C1142 0.930 . S
H1130 C1143 0.930 . S
H1131 C1147 0.959 . S
H1132 C1147 0.959 . S
H1133 C1147 0.961 . S
H1134 C1148 0.960 . S
H1135 C1148 0.961 . S
H1136 C1148 0.959 . S
H1137 C1151 0.929 . S
H1138 C1152 0.931 . S
H1139 C1154 0.930 . S
C1140 H1128 0.930 . S
C1140 C1141 1.399 . S
C1140 C1145 1.399 . S
C1141 C1140 1.399 . S
C1141 C1142 1.376 . S
C1142 H1129 0.930 . S
C1142 C1141 1.376 . S
C1142 C1143 1.388 . S
C1143 H1130 0.930 . S
C1143 C1142 1.388 . S
C1143 C1144 1.390 . S
C1144 C1143 1.390 . S
C1144 C1145 1.394 . S
C1144 C1150 1.465 . S
C1145 C1140 1.399 . S
C1145 C1144 1.394 . S
C1145 C1146 1.516 . S
C1146 C1145 1.516 . S
C1146 C1147 1.502 . S
C1146 C1148 1.561 . S
C1146 C1149 1.526 . S
C1147 H1131 0.959 . S
C1147 H1132 0.959 . S
C1147 H1133 0.961 . S
C1147 C1146 1.502 . S
C1148 H1134 0.960 . S
C1148 H1135 0.961 . S
C1148 H1136 0.959 . S
C1148 C1146 1.561 . S
C1149 C1146 1.526 . S
C1149 C1150 1.396 . S
C1149 C1154 1.390 . S
C1150 C1144 1.465 . S
C1150 C1149 1.396 . S
C1150 C1151 1.399 . S
C1151 H1137 0.929 . S
C1151 C1150 1.399 . S
C1151 C1152 1.385 . S
C1152 H1138 0.931 . S
C1152 C1151 1.385 . S
C1152 C1153 1.389 . S
C1153 C1152 1.389 . S
C1153 C1154 1.387 . S
C1154 H1139 0.930 . S
C1154 C1149 1.390 . S
C1154 C1153 1.387 . S
H1155 C1167 0.930 . S
H1156 C1169 0.930 . S
H1157 C1170 0.930 . S
H1158 C1174 0.959 . S
H1159 C1174 0.959 . S
H1160 C1174 0.961 . S
H1161 C1175 0.960 . S
H1162 C1175 0.961 . S
H1163 C1175 0.959 . S
H1164 C1178 0.929 . S
H1165 C1179 0.931 . S
H1166 C1181 0.930 . S
C1167 H1155 0.930 . S
C1167 C1168 1.399 . S
C1167 C1172 1.399 . S
C1168 C1167 1.399 . S
C1168 C1169 1.376 . S
C1169 H1156 0.930 . S
C1169 C1168 1.376 . S
C1169 C1170 1.388 . S
C1170 H1157 0.930 . S
C1170 C1169 1.388 . S
C1170 C1171 1.390 . S
C1171 C1170 1.390 . S
C1171 C1172 1.394 . S
C1171 C1177 1.465 . S
C1172 C1167 1.399 . S
C1172 C1171 1.394 . S
C1172 C1173 1.516 . S
C1173 C1172 1.516 . S
C1173 C1174 1.502 . S
C1173 C1175 1.561 . S
C1173 C1176 1.526 . S
C1174 H1158 0.959 . S
C1174 H1159 0.959 . S
C1174 H1160 0.961 . S
C1174 C1173 1.502 . S
C1175 H1161 0.960 . S
C1175 H1162 0.961 . S
C1175 H1163 0.959 . S
C1175 C1173 1.561 . S
C1176 C1173 1.526 . S
C1176 C1177 1.396 . S
C1176 C1181 1.390 . S
C1177 C1171 1.465 . S
C1177 C1176 1.396 . S
C1177 C1178 1.399 . S
C1178 H1164 0.929 . S
C1178 C1177 1.399 . S
C1178 C1179 1.385 . S
C1179 H1165 0.931 . S
C1179 C1178 1.385 . S
C1179 C1180 1.389 . S
C1180 C1179 1.389 . S
C1180 C1181 1.387 . S
C1181 H1166 0.930 . S
C1181 C1176 1.390 . S
C1181 C1180 1.387 . S
H1182 C1194 0.930 . S
H1183 C1196 0.930 . S
H1184 C1197 0.930 . S
H1185 C1201 0.959 . S
H1186 C1201 0.959 . S
H1187 C1201 0.961 . S
H1188 C1202 0.960 . S
H1189 C1202 0.961 . S
H1190 C1202 0.959 . S
H1191 C1205 0.929 . S
H1192 C1206 0.931 . S
H1193 C1208 0.930 . S
C1194 H1182 0.930 . S
C1194 C1195 1.399 . S
C1194 C1199 1.399 . S
C1195 C1194 1.399 . S
C1195 C1196 1.376 . S
C1196 H1183 0.930 . S
C1196 C1195 1.376 . S
C1196 C1197 1.388 . S
C1197 H1184 0.930 . S
C1197 C1196 1.388 . S
C1197 C1198 1.390 . S
C1198 C1197 1.390 . S
C1198 C1199 1.394 . S
C1198 C1204 1.465 . S
C1199 C1194 1.399 . S
C1199 C1198 1.394 . S
C1199 C1200 1.516 . S
C1200 C1199 1.516 . S
C1200 C1201 1.502 . S
C1200 C1202 1.561 . S
C1200 C1203 1.526 . S
C1201 H1185 0.959 . S
C1201 H1186 0.959 . S
C1201 H1187 0.961 . S
C1201 C1200 1.502 . S
C1202 H1188 0.960 . S
C1202 H1189 0.961 . S
C1202 H1190 0.959 . S
C1202 C1200 1.561 . S
C1203 C1200 1.526 . S
C1203 C1204 1.396 . S
C1203 C1208 1.390 . S
C1204 C1198 1.465 . S
C1204 C1203 1.396 . S
C1204 C1205 1.399 . S
C1205 H1191 0.929 . S
C1205 C1204 1.399 . S
C1205 C1206 1.385 . S
C1206 H1192 0.931 . S
C1206 C1205 1.385 . S
C1206 C1207 1.389 . S
C1207 C1206 1.389 . S
C1207 C1208 1.387 . S
C1208 H1193 0.930 . S
C1208 C1203 1.390 . S
C1208 C1207 1.387 . S
H1209 C1221 0.930 . S
H1210 C1223 0.930 . S
H1211 C1224 0.930 . S
H1212 C1228 0.959 . S
H1213 C1228 0.959 . S
H1214 C1228 0.961 . S
H1215 C1229 0.960 . S
H1216 C1229 0.961 . S
H1217 C1229 0.959 . S
H1218 C1232 0.929 . S
H1219 C1233 0.931 . S
H1220 C1235 0.930 . S
C1221 H1209 0.930 . S
C1221 C1222 1.399 . S
C1221 C1226 1.399 . S
C1222 C1221 1.399 . S
C1222 C1223 1.376 . S
C1223 H1210 0.930 . S
C1223 C1222 1.376 . S
C1223 C1224 1.388 . S
C1224 H1211 0.930 . S
C1224 C1223 1.388 . S
C1224 C1225 1.390 . S
C1225 C1224 1.390 . S
C1225 C1226 1.394 . S
C1225 C1231 1.465 . S
C1226 C1221 1.399 . S
C1226 C1225 1.394 . S
C1226 C1227 1.516 . S
C1227 C1226 1.516 . S
C1227 C1228 1.502 . S
C1227 C1229 1.561 . S
C1227 C1230 1.526 . S
C1228 H1212 0.959 . S
C1228 H1213 0.959 . S
C1228 H1214 0.961 . S
C1228 C1227 1.502 . S
C1229 H1215 0.960 . S
C1229 H1216 0.961 . S
C1229 H1217 0.959 . S
C1229 C1227 1.561 . S
C1230 C1227 1.526 . S
C1230 C1231 1.396 . S
C1230 C1235 1.390 . S
C1231 C1225 1.465 . S
C1231 C1230 1.396 . S
C1231 C1232 1.399 . S
C1232 H1218 0.929 . S
C1232 C1231 1.399 . S
C1232 C1233 1.385 . S
C1233 H1219 0.931 . S
C1233 C1232 1.385 . S
C1233 C1234 1.389 . S
C1234 C1233 1.389 . S
C1234 C1235 1.387 . S
C1235 H1220 0.930 . S
C1235 C1230 1.390 . S
C1235 C1234 1.387 . S
C277 C84 1.504 . S
C289 C7 1.573 . S
C304 C51 1.301 . S
C316 C18 1.356 1_655 S
C331 C29 1.279 . S
C343 C62 1.334 . S
C358 C73 1.380 . S
C370 C40 1.261 . S
C385 C183 1.313 . S
C397 C95 1.399 . S
C412 C106 1.246 . S
C424 C194 1.284 . S
C439 C117 1.150 . S
C451 C260 1.200 . S
C466 C128 1.348 . S
C478 C139 1.226 . S
C493 C227 1.284 . S
C505 C150 1.338 . S
C520 C161 1.474 . S
C532 C238 1.470 . S
C547 C249 1.411 . S
C559 C172 1.439 . S
C574 C216 1.389 . S
C586 C205 1.480 . S
C601 C162 1.765 . S
C613 C5 1.621 . S
C628 C173 1.685 . S
C640 C16 1.497 . S
C655 C30 1.483 . S
C667 C206 1.525 . S
C682 C148 1.288 . S
C694 C41 1.483 . S
C709 C49 1.285 . S
C721 C159 1.635 . S
C736 C170 1.443 . S
C748 C63 1.679 . S
C763 C74 1.457 . S
C775 C203 1.225 . S
C790 C82 1.440 . S
C802 C151 1.713 . S
C817 C107 1.497 . S
C829 C93 1.269 . S
C844 C104 1.266 . S
C856 C115 1.013 . S
C871 C118 1.532 . S
C883 C126 1.240 . S
C898 C129 1.466 . S
C910 C96 1.508 . S
C925 C140 1.662 . S
C937 C38 1.417 . S
C952 C181 1.531 . S
C964 C52 1.944 . S
C979 C19 1.463 . S
C991 C192 1.263 . S
C1006 C261 1.656 . S
C1018 C27 1.283 . S
C1033 C184 1.724 . S
C1045 C8 1.847 . S
C1060 C71 1.296 . S
C1072 C258 1.029 . S
C1087 C85 1.741 . S
C1099 C137 1.462 . S
C1114 C195 1.591 . S
C1126 C60 1.446 . S
C1141 C214 1.557 . S
C1153 C228 1.957 . S
C1168 C236 1.432 . S
C1180 C225 1.351 . S
C1195 C239 1.727 . S
C1207 C247 1.545 . S
C1222 C217 1.850 . S
C1234 C250 1.901 . S
