# Generated by pormake.
# Topology ukd, (4)-cn, num edge types: 1
# Building blocks:
#     Node 0, Type 0, BuildingBlock: NAHDIM_clean_sbu_0, # of connection points: 4
#     Node 1, Type 0, BuildingBlock: NAHDIM_clean_sbu_0, # of connection points: 4
#     Node 2, Type 0, BuildingBlock: NAHDIM_clean_sbu_0, # of connection points: 4
#     Node 3, Type 0, BuildingBlock: NAHDIM_clean_sbu_0, # of connection points: 4
#     Node 4, Type 0, BuildingBlock: NAHDIM_clean_sbu_0, # of connection points: 4
#     Node 5, Type 0, BuildingBlock: NAHDIM_clean_sbu_0, # of connection points: 4
#     Node 6, Type 0, BuildingBlock: NAHDIM_clean_sbu_0, # of connection points: 4
#     Node 7, Type 0, BuildingBlock: NAHDIM_clean_sbu_0, # of connection points: 4
#     Node 8, Type 0, BuildingBlock: NAHDIM_clean_sbu_0, # of connection points: 4
#     Node 9, Type 0, BuildingBlock: NAHDIM_clean_sbu_0, # of connection points: 4
#     Node 10, Type 0, BuildingBlock: NAHDIM_clean_sbu_0, # of connection points: 4
#     Node 11, Type 0, BuildingBlock: NAHDIM_clean_sbu_0, # of connection points: 4
#     Node 12, Type 0, BuildingBlock: NAHDIM_clean_sbu_0, # of connection points: 4
#     Node 13, Type 0, BuildingBlock: NAHDIM_clean_sbu_0, # of connection points: 4
#     Node 14, Type 0, BuildingBlock: NAHDIM_clean_sbu_0, # of connection points: 4
#     Node 15, Type 0, BuildingBlock: NAHDIM_clean_sbu_0, # of connection points: 4
#     Node 16, Type 0, BuildingBlock: NAHDIM_clean_sbu_0, # of connection points: 4
#     Node 17, Type 0, BuildingBlock: NAHDIM_clean_sbu_0, # of connection points: 4
#     Node 18, Type 0, BuildingBlock: NAHDIM_clean_sbu_0, # of connection points: 4
#     Node 19, Type 0, BuildingBlock: NAHDIM_clean_sbu_0, # of connection points: 4
#     Node 20, Type 0, BuildingBlock: NAHDIM_clean_sbu_0, # of connection points: 4
#     Node 21, Type 0, BuildingBlock: NAHDIM_clean_sbu_0, # of connection points: 4
#     Node 22, Type 0, BuildingBlock: NAHDIM_clean_sbu_0, # of connection points: 4
#     Node 23, Type 0, BuildingBlock: NAHDIM_clean_sbu_0, # of connection points: 4
#     Node 24, Type 0, BuildingBlock: NAHDIM_clean_sbu_0, # of connection points: 4
#     Node 25, Type 0, BuildingBlock: NAHDIM_clean_sbu_0, # of connection points: 4
#     Node 26, Type 0, BuildingBlock: NAHDIM_clean_sbu_0, # of connection points: 4
#     Node 27, Type 0, BuildingBlock: NAHDIM_clean_sbu_0, # of connection points: 4
#     Node 28, Type 0, BuildingBlock: NAHDIM_clean_sbu_0, # of connection points: 4
#     Node 29, Type 0, BuildingBlock: NAHDIM_clean_sbu_0, # of connection points: 4
#     Node 30, Type 0, BuildingBlock: NAHDIM_clean_sbu_0, # of connection points: 4
#     Node 31, Type 0, BuildingBlock: NAHDIM_clean_sbu_0, # of connection points: 4
#     Edge 32, Type (0, 0), BuildingBlock: XUDNAN_clean_linker_2, # of connection points: 2
#     Edge 33, Type (0, 0), BuildingBlock: XUDNAN_clean_linker_2, # of connection points: 2
#     Edge 34, Type (0, 0), BuildingBlock: XUDNAN_clean_linker_2, # of connection points: 2
#     Edge 35, Type (0, 0), BuildingBlock: XUDNAN_clean_linker_2, # of connection points: 2
#     Edge 36, Type (0, 0), BuildingBlock: XUDNAN_clean_linker_2, # of connection points: 2
#     Edge 37, Type (0, 0), BuildingBlock: XUDNAN_clean_linker_2, # of connection points: 2
#     Edge 38, Type (0, 0), BuildingBlock: XUDNAN_clean_linker_2, # of connection points: 2
#     Edge 39, Type (0, 0), BuildingBlock: XUDNAN_clean_linker_2, # of connection points: 2
#     Edge 40, Type (0, 0), BuildingBlock: XUDNAN_clean_linker_2, # of connection points: 2
#     Edge 41, Type (0, 0), BuildingBlock: XUDNAN_clean_linker_2, # of connection points: 2
#     Edge 42, Type (0, 0), BuildingBlock: XUDNAN_clean_linker_2, # of connection points: 2
#     Edge 43, Type (0, 0), BuildingBlock: XUDNAN_clean_linker_2, # of connection points: 2
#     Edge 44, Type (0, 0), BuildingBlock: XUDNAN_clean_linker_2, # of connection points: 2
#     Edge 45, Type (0, 0), BuildingBlock: XUDNAN_clean_linker_2, # of connection points: 2
#     Edge 46, Type (0, 0), BuildingBlock: XUDNAN_clean_linker_2, # of connection points: 2
#     Edge 47, Type (0, 0), BuildingBlock: XUDNAN_clean_linker_2, # of connection points: 2
#     Edge 48, Type (0, 0), BuildingBlock: XUDNAN_clean_linker_2, # of connection points: 2
#     Edge 49, Type (0, 0), BuildingBlock: XUDNAN_clean_linker_2, # of connection points: 2
#     Edge 50, Type (0, 0), BuildingBlock: XUDNAN_clean_linker_2, # of connection points: 2
#     Edge 51, Type (0, 0), BuildingBlock: XUDNAN_clean_linker_2, # of connection points: 2
#     Edge 52, Type (0, 0), BuildingBlock: XUDNAN_clean_linker_2, # of connection points: 2
#     Edge 53, Type (0, 0), BuildingBlock: XUDNAN_clean_linker_2, # of connection points: 2
#     Edge 54, Type (0, 0), BuildingBlock: XUDNAN_clean_linker_2, # of connection points: 2
#     Edge 55, Type (0, 0), BuildingBlock: XUDNAN_clean_linker_2, # of connection points: 2
#     Edge 56, Type (0, 0), BuildingBlock: XUDNAN_clean_linker_2, # of connection points: 2
#     Edge 57, Type (0, 0), BuildingBlock: XUDNAN_clean_linker_2, # of connection points: 2
#     Edge 58, Type (0, 0), BuildingBlock: XUDNAN_clean_linker_2, # of connection points: 2
#     Edge 59, Type (0, 0), BuildingBlock: XUDNAN_clean_linker_2, # of connection points: 2
#     Edge 60, Type (0, 0), BuildingBlock: XUDNAN_clean_linker_2, # of connection points: 2
#     Edge 61, Type (0, 0), BuildingBlock: XUDNAN_clean_linker_2, # of connection points: 2
#     Edge 62, Type (0, 0), BuildingBlock: XUDNAN_clean_linker_2, # of connection points: 2
#     Edge 63, Type (0, 0), BuildingBlock: XUDNAN_clean_linker_2, # of connection points: 2
#     Edge 64, Type (0, 0), BuildingBlock: XUDNAN_clean_linker_2, # of connection points: 2
#     Edge 65, Type (0, 0), BuildingBlock: XUDNAN_clean_linker_2, # of connection points: 2
#     Edge 66, Type (0, 0), BuildingBlock: XUDNAN_clean_linker_2, # of connection points: 2
#     Edge 67, Type (0, 0), BuildingBlock: XUDNAN_clean_linker_2, # of connection points: 2
#     Edge 68, Type (0, 0), BuildingBlock: XUDNAN_clean_linker_2, # of connection points: 2
#     Edge 69, Type (0, 0), BuildingBlock: XUDNAN_clean_linker_2, # of connection points: 2
#     Edge 70, Type (0, 0), BuildingBlock: XUDNAN_clean_linker_2, # of connection points: 2
#     Edge 71, Type (0, 0), BuildingBlock: XUDNAN_clean_linker_2, # of connection points: 2
#     Edge 72, Type (0, 0), BuildingBlock: XUDNAN_clean_linker_2, # of connection points: 2
#     Edge 73, Type (0, 0), BuildingBlock: XUDNAN_clean_linker_2, # of connection points: 2
#     Edge 74, Type (0, 0), BuildingBlock: XUDNAN_clean_linker_2, # of connection points: 2
#     Edge 75, Type (0, 0), BuildingBlock: XUDNAN_clean_linker_2, # of connection points: 2
#     Edge 76, Type (0, 0), BuildingBlock: XUDNAN_clean_linker_2, # of connection points: 2
#     Edge 77, Type (0, 0), BuildingBlock: XUDNAN_clean_linker_2, # of connection points: 2
#     Edge 78, Type (0, 0), BuildingBlock: XUDNAN_clean_linker_2, # of connection points: 2
#     Edge 79, Type (0, 0), BuildingBlock: XUDNAN_clean_linker_2, # of connection points: 2
#     Edge 80, Type (0, 0), BuildingBlock: XUDNAN_clean_linker_2, # of connection points: 2
#     Edge 81, Type (0, 0), BuildingBlock: XUDNAN_clean_linker_2, # of connection points: 2
#     Edge 82, Type (0, 0), BuildingBlock: XUDNAN_clean_linker_2, # of connection points: 2
#     Edge 83, Type (0, 0), BuildingBlock: XUDNAN_clean_linker_2, # of connection points: 2
#     Edge 84, Type (0, 0), BuildingBlock: XUDNAN_clean_linker_2, # of connection points: 2
#     Edge 85, Type (0, 0), BuildingBlock: XUDNAN_clean_linker_2, # of connection points: 2
#     Edge 86, Type (0, 0), BuildingBlock: XUDNAN_clean_linker_2, # of connection points: 2
#     Edge 87, Type (0, 0), BuildingBlock: XUDNAN_clean_linker_2, # of connection points: 2
#     Edge 88, Type (0, 0), BuildingBlock: XUDNAN_clean_linker_2, # of connection points: 2
#     Edge 89, Type (0, 0), BuildingBlock: XUDNAN_clean_linker_2, # of connection points: 2
#     Edge 90, Type (0, 0), BuildingBlock: XUDNAN_clean_linker_2, # of connection points: 2
#     Edge 91, Type (0, 0), BuildingBlock: XUDNAN_clean_linker_2, # of connection points: 2
#     Edge 92, Type (0, 0), BuildingBlock: XUDNAN_clean_linker_2, # of connection points: 2
#     Edge 93, Type (0, 0), BuildingBlock: XUDNAN_clean_linker_2, # of connection points: 2
#     Edge 94, Type (0, 0), BuildingBlock: XUDNAN_clean_linker_2, # of connection points: 2
#     Edge 95, Type (0, 0), BuildingBlock: XUDNAN_clean_linker_2, # of connection points: 2
# Relax obj value: 0.150
# Max RMSD: 0.183
# Mean RMSD: 0.183
data_MOF--net-ukd--node1-NAHDIM_clean_sbu_0--edge1-XUDNAN_clean_linker_2
_symmetry_space_group_name_H-M    P1
_symmetry_Int_Tables_number       1
_symmetry_cell_setting            triclinic
loop_
_symmetry_equiv_pos_as_xyz
'x, y, z'
_cell_length_a     43.282377
_cell_length_b     43.286695
_cell_length_c     73.904147
_cell_angle_alpha  90.00284
_cell_angle_beta   90.008632
_cell_angle_gamma 89.982758
loop_
_atom_site_label
_atom_site_type_symbol
_atom_site_fract_x
_atom_site_fract_y
_atom_site_fract_z
_atom_type_partial_charge
C0 C 0.29993 0.21252 0.34634 0.0
O1 O 0.30344 0.23083 0.33232 0.0
O2 O 0.24194 0.24526 0.31792 0.0
Zn3 Zn 0.23369 0.22357 0.34141 0.0
O4 O 0.20572 0.18714 0.33727 0.0
C5 C 0.2274 0.27725 0.36387 0.0
O6 O 0.25663 0.2808 0.35955 0.0
O7 O 0.27296 0.20737 0.35243 0.0
C8 C 0.1765 0.18964 0.33674 0.0
O9 O 0.16385 0.21707 0.33853 0.0
C10 C 0.24492 0.2307 0.30311 0.0
O11 O 0.24309 0.2004 0.30312 0.0
O12 O 0.21294 0.25373 0.35805 0.0
C13 C 0.05635 0.05247 0.58961 0.0
O14 O 0.03733 0.05936 0.57635 0.0
O15 O 0.03468 0.99671 0.55545 0.0
Zn16 Zn 0.04119 0.98782 0.5818 0.0
O17 O 0.07084 0.95258 0.58536 0.0
C18 C 0.98576 0.9546 0.58519 0.0
O19 O 0.99656 0.94326 0.56996 0.0
O20 O 0.06008 0.02441 0.59413 0.0
C21 C 0.07891 0.93258 0.5737 0.0
O22 O 0.0674 0.93382 0.55727 0.0
C23 C 0.05701 0.00359 0.54506 0.0
O24 O 0.08511 0.00504 0.55173 0.0
O25 O 0.00093 0.9757 0.59319 0.0
C26 C 0.21397 0.81439 0.84536 0.0
O27 O 0.23407 0.83058 0.83601 0.0
O28 O 0.27245 0.77309 0.8204 0.0
Zn29 Zn 0.26684 0.77733 0.84732 0.0
O30 O 0.29392 0.81144 0.85694 0.0
C31 C 0.28321 0.71286 0.85096 0.0
O32 O 0.27708 0.71241 0.83355 0.0
O33 O 0.2224 0.78866 0.85203 0.0
C34 C 0.28649 0.82499 0.87156 0.0
O35 O 0.26139 0.81624 0.88014 0.0
C36 C 0.28412 0.79388 0.81037 0.0
O37 O 0.29405 0.81969 0.81769 0.0
O38 O 0.27922 0.73776 0.85978 0.0
C39 C 0.45111 0.94597 0.10723 0.0
O40 O 0.46452 0.94878 0.09138 0.0
O41 O 0.48319 0.013 0.08632 0.0
Zn42 Zn 0.46338 0.01213 0.11089 0.0
O43 O 0.42528 0.03861 0.11052 0.0
C44 C 0.52207 0.02871 0.12601 0.0
O45 O 0.53212 0.01352 0.11179 0.0
O46 O 0.44973 0.96923 0.11771 0.0
C47 C 0.42668 0.06757 0.10792 0.0
O48 O 0.45374 0.08053 0.10521 0.0
C49 C 0.46748 0.01288 0.07181 0.0
O50 O 0.43719 0.01163 0.07277 0.0
O51 O 0.49318 0.03005 0.12897 0.0
C52 C 0.28519 0.81142 0.14671 0.0
O53 O 0.27501 0.8222 0.1622 0.0
O54 O 0.23017 0.77539 0.17556 0.0
Zn55 Zn 0.22674 0.78175 0.1485 0.0
O56 O 0.19657 0.81601 0.14324 0.0
C57 C 0.22055 0.71653 0.13946 0.0
O58 O 0.24649 0.71335 0.14851 0.0
O59 O 0.26843 0.79255 0.13791 0.0
C60 C 0.16999 0.81472 0.1505 0.0
O61 O 0.16329 0.79137 0.16117 0.0
C62 C 0.22426 0.79688 0.18678 0.0
O63 O 0.21628 0.82426 0.18071 0.0
O64 O 0.20905 0.7433 0.13745 0.0
C65 C 0.43047 0.04989 0.39534 0.0
O66 O 0.4141 0.0344 0.40723 0.0
O67 O 0.47517 0.99401 0.42394 0.0
Zn68 Zn 0.46466 0.99439 0.39723 0.0
O69 O 0.42683 0.96838 0.39302 0.0
C70 C 0.52526 0.96903 0.38814 0.0
O71 O 0.53212 0.97531 0.40506 0.0
O72 O 0.45486 0.03764 0.38899 0.0
C73 C 0.42839 0.93911 0.39384 0.0
O74 O 0.45512 0.92597 0.3973 0.0
C75 C 0.45428 0.98735 0.43541 0.0
O76 O 0.42635 0.9808 0.42963 0.0
O77 O 0.49869 0.97604 0.3821 0.0
C78 C 0.22335 0.17027 0.64606 0.0
O79 O 0.24263 0.15031 0.65326 0.0
O80 O 0.26086 0.21956 0.68554 0.0
Zn81 Zn 0.26906 0.21223 0.65908 0.0
O82 O 0.30219 0.18003 0.65524 0.0
C83 C 0.30632 0.26553 0.65625 0.0
O84 O 0.31742 0.25359 0.67125 0.0
O85 O 0.22981 0.19888 0.6467 0.0
C86 C 0.32107 0.17084 0.66727 0.0
O87 O 0.31939 0.18233 0.68369 0.0
C88 C 0.2519 0.19842 0.69624 0.0
O89 O 0.24787 0.1703 0.69 0.0
O90 O 0.28432 0.2518 0.64821 0.0
C91 C 0.04287 0.94854 0.87827 0.0
O92 O 0.02106 0.94405 0.89034 0.0
O93 O 0.02277 0.9968 0.91329 0.0
Zn94 Zn 0.0354 0.01236 0.88884 0.0
O95 O 0.07087 0.04199 0.89189 0.0
C96 C 0.97529 0.01895 0.87196 0.0
O97 O 0.97383 0.98897 0.8746 0.0
O98 O 0.05133 0.976 0.87466 0.0
C99 C 0.06764 0.07114 0.89266 0.0
O100 O 0.03982 0.08313 0.89145 0.0
C101 C 0.0197 0.01404 0.92707 0.0
O102 O 0.024 0.04395 0.92544 0.0
O103 O 0.99951 0.03346 0.87666 0.0
C104 C 0.72329 0.81876 0.64257 0.0
O105 O 0.73884 0.83466 0.65467 0.0
O106 O 0.77242 0.77795 0.67413 0.0
Zn107 Zn 0.77645 0.78338 0.64716 0.0
O108 O 0.80533 0.81855 0.64191 0.0
C109 C 0.782 0.71853 0.63683 0.0
O110 O 0.75415 0.71583 0.64373 0.0
O111 O 0.73483 0.79372 0.63665 0.0
C112 C 0.81666 0.82196 0.62619 0.0
O113 O 0.80915 0.80227 0.6134 0.0
C114 C 0.78085 0.79889 0.68514 0.0
O115 O 0.79266 0.82467 0.67883 0.0
O116 O 0.79489 0.74487 0.63655 0.0
C117 C 0.93747 0.96548 0.3833 0.0
O118 O 0.92539 0.98097 0.39684 0.0
O119 O 0.99075 0.0197 0.40637 0.0
Zn120 Zn 0.97004 0.02106 0.38205 0.0
O121 O 0.93087 0.04597 0.38292 0.0
C122 C 0.02485 0.02906 0.36037 0.0
O123 O 0.03032 0.00045 0.36537 0.0
O124 O 0.95901 0.97794 0.37416 0.0
C125 C 0.93099 0.07474 0.38627 0.0
O126 O 0.95739 0.08853 0.38971 0.0
C127 C 0.97708 0.02362 0.42141 0.0
O128 O 0.94716 0.02869 0.42164 0.0
O129 O -0.00027 0.04184 0.36514 0.0
C130 C 0.78246 0.17725 0.14171 0.0
O131 O 0.77607 0.16607 0.15781 0.0
O132 O 0.74821 0.21969 0.17603 0.0
Zn133 Zn 0.73054 0.21189 0.15132 0.0
O134 O 0.69912 0.17772 0.15243 0.0
C135 C 0.72389 0.27541 0.13951 0.0
O136 O 0.75322 0.27742 0.14394 0.0
O137 O 0.76537 0.19842 0.13527 0.0
C138 C 0.67781 0.17735 0.16426 0.0
O139 O 0.67658 0.19956 0.17635 0.0
C140 C 0.73803 0.23954 0.18718 0.0
O141 O 0.71413 0.25666 0.18274 0.0
O142 O 0.70993 0.24983 0.14148 0.0
C143 C 0.54401 0.01485 0.88277 0.0
O144 O 0.54899 0.98781 0.87523 0.0
O145 O 0.51224 0.98554 0.93634 0.0
Zn146 Zn 0.51534 0.97701 0.90974 0.0
O147 O 0.54773 0.94451 0.90516 0.0
C148 C 0.44959 0.96816 0.90929 0.0
O149 O 0.45103 0.98732 0.92305 0.0
O150 O 0.52845 0.01614 0.89733 0.0
C151 C 0.55781 0.92586 0.91707 0.0
O152 O 0.54656 0.92697 0.93356 0.0
C153 C 0.53464 0.99619 0.94551 0.0
O154 O 0.56118 0.00156 0.93747 0.0
O155 O 0.47426 0.96129 0.90087 0.0
C156 C 0.70264 0.15787 0.84159 0.0
O157 O 0.71949 0.14463 0.829 0.0
O158 O 0.74816 0.21922 0.8165 0.0
Zn159 Zn 0.75344 0.19936 0.8409 0.0
O160 O 0.78403 0.16414 0.84 0.0
C161 C 0.78316 0.25494 0.85261 0.0
O162 O 0.78807 0.25725 0.83512 0.0
O163 O 0.71242 0.18252 0.84897 0.0
C164 C 0.81296 0.16815 0.84179 0.0
O165 O 0.82375 0.19633 0.84365 0.0
C166 C 0.7521 0.20606 0.80132 0.0
O167 O 0.75996 0.17676 0.80081 0.0
O168 O 0.7684 0.2317 0.85861 0.0
C169 C 0.55255 0.94808 0.60104 0.0
O170 O 0.53279 0.94483 0.58769 0.0
O171 O 0.51771 0.00638 0.57448 0.0
Zn172 Zn 0.53646 0.01356 0.59904 0.0
O173 O 0.5693 0.04643 0.59832 0.0
C174 C 0.48152 0.04461 0.60999 0.0
O175 O 0.48084 0.05064 0.59257 0.0
O176 O 0.55663 0.97462 0.60801 0.0
C177 C 0.56949 0.06951 0.5877 0.0
O178 O 0.54723 0.07267 0.57575 0.0
C179 C 0.53276 0.00446 0.55977 0.0
O180 O 0.56298 0.00729 0.56001 0.0
O181 O 0.50334 0.0281 0.61625 0.0
C182 C 0.79807 0.79723 0.35271 0.0
O183 O 0.79852 0.77671 0.33962 0.0
O184 O 0.73587 0.76732 0.3275 0.0
Zn185 Zn 0.73154 0.7874 0.35187 0.0
O186 O 0.70107 0.82246 0.35143 0.0
C187 C 0.7274 0.72982 0.37182 0.0
O188 O 0.75478 0.72436 0.36484 0.0
O189 O 0.77251 0.80406 0.36021 0.0
C190 C 0.67782 0.82359 0.34096 0.0
O191 O 0.67357 0.80146 0.32905 0.0
C192 C 0.73966 0.78167 0.31268 0.0
O193 O 0.7405 0.81201 0.31268 0.0
O194 O 0.71434 0.75555 0.36873 0.0
C195 C 0.93998 0.0467 0.0865 0.0
O196 O 0.94832 0.04423 0.06947 0.0
O197 O 0.97591 0.98579 0.06309 0.0
Zn198 Zn 0.96242 0.98372 0.08902 0.0
O199 O 0.92854 0.95228 0.09108 0.0
C200 C 0.02418 0.96368 0.10025 0.0
O201 O 0.0324 0.97008 0.08356 0.0
O202 O 0.945 0.02434 0.09725 0.0
C203 C 0.92057 0.94369 0.10684 0.0
O204 O 0.93413 0.95626 0.12094 0.0
C205 C 0.97777 0.96115 0.05383 0.0
O206 O 0.97196 0.93453 0.06165 0.0
O207 O 0.99665 0.96912 0.1053 0.0
C208 C 0.78172 0.68204 0.85222 0.0
O209 O 0.76442 0.66839 0.84 0.0
O210 O 0.74259 0.74554 0.82458 0.0
Zn211 Zn 0.73377 0.72599 0.84873 0.0
O212 O 0.70241 0.69183 0.8467 0.0
C213 C 0.69996 0.77961 0.85951 0.0
O214 O 0.69613 0.78172 0.84192 0.0
O215 O 0.77328 0.70806 0.85846 0.0
C216 C 0.6779 0.69362 0.83729 0.0
O217 O 0.67251 0.71871 0.8278 0.0
C218 C 0.74206 0.73069 0.80975 0.0
O219 O 0.73522 0.70113 0.80987 0.0
O220 O 0.71632 0.75774 0.86583 0.0
C221 C 0.54441 0.55391 0.09516 0.0
O222 O 0.53245 0.5538 0.07882 0.0
O223 O 0.53373 0.49019 0.06589 0.0
Zn224 Zn 0.53904 0.48686 0.09282 0.0
O225 O 0.57556 0.45984 0.09844 0.0
C226 C 0.47435 0.47938 0.10081 0.0
O227 O 0.47181 0.50483 0.09124 0.0
O228 O 0.54785 0.5285 0.10353 0.0
C229 C 0.57348 0.43062 0.09931 0.0
O230 O 0.54667 0.41738 0.09625 0.0
C231 C 0.55683 0.48927 0.0553 0.0
O232 O 0.58467 0.48606 0.06212 0.0
O233 O 0.50098 0.46801 0.10359 0.0
C234 C 0.72239 0.31755 0.37142 0.0
O235 O 0.74383 0.31841 0.38399 0.0
O236 O 0.77188 0.28679 0.32204 0.0
Zn237 Zn 0.7721 0.29467 0.34872 0.0
O238 O 0.80207 0.32906 0.35408 0.0
C239 C 0.77421 0.22996 0.35986 0.0
O240 O 0.74855 0.22717 0.3505 0.0
O241 O 0.72918 0.30726 0.35583 0.0
C242 C 0.81659 0.32931 0.36903 0.0
O243 O 0.81125 0.30735 0.38089 0.0
C244 C 0.79358 0.272 0.31438 0.0
O245 O 0.8169 0.26201 0.32415 0.0
O246 O 0.7868 0.25633 0.36131 0.0
C247 C 0.95324 0.45169 0.61628 0.0
O248 O 0.94415 0.46447 0.60106 0.0
O249 O 0.00081 0.50805 0.59377 0.0
Zn250 Zn 0.98052 0.51011 0.61827 0.0
O251 O 0.94068 0.53398 0.61695 0.0
C252 C 0.03795 0.53297 0.63249 0.0
O253 O 0.04931 0.51593 0.61937 0.0
O254 O 0.9707 0.46704 0.62678 0.0
C255 C 0.94111 0.56299 0.6144 0.0
O256 O 0.9678 0.57689 0.61207 0.0
C257 C 0.98713 0.51307 0.57884 0.0
O258 O 0.9576 0.52008 0.57884 0.0
O259 O 0.00898 0.53278 0.63528 0.0
C260 C 0.81154 0.28615 0.64419 0.0
O261 O 0.80706 0.2712 0.65943 0.0
O262 O 0.74189 0.27015 0.66669 0.0
Zn263 Zn 0.74475 0.28119 0.64026 0.0
O264 O 0.7204 0.31997 0.63582 0.0
C265 C 0.72013 0.22108 0.63048 0.0
O266 O 0.72795 0.2138 0.64712 0.0
O267 O 0.78876 0.291 0.6337 0.0
C268 C 0.69176 0.32149 0.63941 0.0
O269 O 0.67784 0.29719 0.64627 0.0
C270 C 0.7419 0.29167 0.67838 0.0
O271 O 0.7435 0.3205 0.6729 0.0
O272 O 0.7263 0.24794 0.62456 0.0
C273 C 0.93587 0.53607 0.89621 0.0
O274 O 0.95472 0.53837 0.91008 0.0
O275 O 0.94448 0.4827 0.93023 0.0
Zn276 Zn 0.94167 0.47133 0.90396 0.0
O277 O 0.90984 0.43824 0.89992 0.0
C278 C 0.00633 0.47012 0.89145 0.0
O279 O 0.00652 0.50007 0.89429 0.0
O280 O 0.92822 0.50941 0.89055 0.0
C281 C 0.89724 0.42197 0.91218 0.0
O282 O 0.9043 0.42696 0.92922 0.0
C283 C 0.96361 0.47169 0.94154 0.0
O284 O 0.983 0.45006 0.93638 0.0
O285 O 0.98197 0.45472 0.89467 0.0
C286 C 0.69734 0.68686 0.1488 0.0
O287 O 0.70784 0.67316 0.16341 0.0
O288 O 0.75453 0.72179 0.17775 0.0
Zn289 Zn 0.75685 0.7143 0.15083 0.0
O290 O 0.78248 0.67643 0.14567 0.0
C291 C 0.79248 0.77009 0.14706 0.0
O292 O 0.79693 0.76582 0.16447 0.0
O293 O 0.71424 0.70671 0.14091 0.0
C294 C 0.81164 0.67599 0.14764 0.0
O295 O 0.82584 0.70109 0.15318 0.0
C296 C 0.76018 0.70054 0.18914 0.0
O297 O 0.76747 0.67282 0.18331 0.0
O298 O 0.77587 0.751 0.13834 0.0
C299 C 0.56527 0.46994 0.39945 0.0
O300 O 0.57272 0.48319 0.41485 0.0
O301 O 0.51141 0.51747 0.42274 0.0
Zn302 Zn 0.53148 0.52441 0.39859 0.0
O303 O 0.56899 0.55151 0.40081 0.0
C304 C 0.47537 0.53111 0.37805 0.0
O305 O 0.47095 0.50249 0.38337 0.0
O306 O 0.54603 0.48341 0.38913 0.0
C307 C 0.56752 0.58077 0.40172 0.0
O308 O 0.54033 0.59429 0.40163 0.0
C309 C 0.52361 0.52486 0.43776 0.0
O310 O 0.5508 0.53832 0.43792 0.0
O311 O 0.50034 0.54469 0.38231 0.0
C312 C 0.19697 0.29334 0.14114 0.0
O313 O 0.19953 0.2794 0.15685 0.0
O314 O 0.26367 0.28378 0.16769 0.0
Zn315 Zn 0.26412 0.28987 0.14078 0.0
O316 O 0.28983 0.32703 0.13477 0.0
C317 C 0.27016 0.2262 0.12951 0.0
O318 O 0.24241 0.2236 0.13654 0.0
O319 O 0.22112 0.29837 0.1318 0.0
C320 C 0.31866 0.32784 0.13791 0.0
O321 O 0.33208 0.30369 0.14527 0.0
C322 C 0.26262 0.30665 0.17844 0.0
O323 O 0.26193 0.33478 0.17177 0.0
O324 O 0.28321 0.25248 0.12931 0.0
C325 C 0.43993 0.45815 0.89101 0.0
O326 O 0.42904 0.47307 0.90511 0.0
O327 O 0.49823 0.50628 0.91506 0.0
Zn328 Zn 0.47711 0.51132 0.89095 0.0
O329 O 0.44064 0.53987 0.89331 0.0
C330 C 0.53515 0.53286 0.87601 0.0
O331 O 0.5469 0.51892 0.89023 0.0
O332 O 0.46211 0.46999 0.88214 0.0
C333 C 0.42367 0.54393 0.87948 0.0
O334 O 0.43019 0.52884 0.86453 0.0
C335 C 0.48466 0.51137 0.93001 0.0
O336 O 0.45563 0.52024 0.92996 0.0
O337 O 0.50622 0.53132 0.87321 0.0
C338 C 0.30663 0.7099 0.64228 0.0
O339 O 0.31112 0.73215 0.65408 0.0
O340 O 0.25176 0.74602 0.67008 0.0
Zn341 Zn 0.2416 0.72553 0.6464 0.0
O342 O 0.20891 0.69304 0.64992 0.0
C343 C 0.21001 0.77959 0.63429 0.0
O344 O 0.20651 0.78317 0.65182 0.0
O345 O 0.27938 0.70415 0.63682 0.0
C346 C 0.18568 0.69626 0.66027 0.0
O347 O 0.18252 0.72191 0.66959 0.0
C348 C 0.25519 0.72989 0.6843 0.0
O349 O 0.25175 0.69977 0.68335 0.0
O350 O 0.22529 0.75656 0.62849 0.0
C351 C 0.05859 0.55319 0.41402 0.0
O352 O 0.04458 0.55477 0.42975 0.0
O353 O 0.03979 0.49181 0.44341 0.0
Zn354 Zn 0.04682 0.48697 0.41671 0.0
O355 O 0.08135 0.45646 0.41264 0.0
C356 C 0.98944 0.45476 0.41296 0.0
O357 O 0.99614 0.4466 0.42963 0.0
O358 O 0.06097 0.52724 0.40609 0.0
C359 C 0.07775 0.4279 0.40927 0.0
O360 O 0.04971 0.41642 0.40837 0.0
C361 C 0.06265 0.4924 0.45419 0.0
O362 O 0.09074 0.48993 0.44761 0.0
O363 O 0.00782 0.47251 0.40449 0.0
C364 C 0.21042 0.68748 0.35705 0.0
O365 O 0.22 0.6747 0.34193 0.0
O366 O 0.25296 0.73834 0.32611 0.0
Zn367 Zn 0.26448 0.72189 0.35056 0.0
O368 O 0.29225 0.68471 0.34854 0.0
C369 C 0.27316 0.7821 0.36513 0.0
O370 O 0.24483 0.78532 0.35901 0.0
O371 O 0.22598 0.70951 0.36381 0.0
C372 C 0.32148 0.68717 0.3479 0.0
O373 O 0.33404 0.71479 0.34809 0.0
C374 C 0.25734 0.72447 0.31119 0.0
O375 O 0.26989 0.69683 0.31118 0.0
O376 O 0.28637 0.75601 0.36367 0.0
C377 C 0.05405 0.45108 0.1024 0.0
O378 O 0.06539 0.464 0.08775 0.0
O379 O 0.01564 0.50694 0.07625 0.0
Zn380 Zn 0.02572 0.50901 0.10281 0.0
O381 O 0.06414 0.53435 0.10662 0.0
C382 C 0.96311 0.51718 0.1149 0.0
O383 O 0.95917 0.49107 0.10613 0.0
O384 O 0.03458 0.46611 0.1118 0.0
C385 C 0.06392 0.56365 0.10574 0.0
O386 O 0.03792 0.57797 0.10202 0.0
C387 C 0.99864 0.52719 0.06877 0.0
O388 O 0.988 0.55025 0.0785 0.0
O389 O 0.99007 0.52864 0.11595 0.0
C390 C 0.29332 0.29736 0.85766 0.0
O391 O 0.29239 0.27842 0.84379 0.0
O392 O 0.2276 0.26975 0.83376 0.0
Zn393 Zn 0.22629 0.28959 0.85824 0.0
O394 O 0.19819 0.32653 0.85811 0.0
C395 C 0.22216 0.23199 0.87731 0.0
O396 O 0.24987 0.22794 0.87045 0.0
O397 O 0.26846 0.30389 0.86599 0.0
C398 C 0.16907 0.32311 0.85864 0.0
O399 O 0.15749 0.29505 0.8585 0.0
C400 C 0.23188 0.28361 0.81883 0.0
O401 O 0.2361 0.31367 0.81876 0.0
O402 O 0.20854 0.25765 0.87489 0.0
C403 C 0.43508 0.53567 0.60467 0.0
O404 O 0.41913 0.51896 0.59314 0.0
O405 O 0.47795 0.48874 0.57301 0.0
Zn406 Zn 0.47255 0.48415 0.59993 0.0
O407 O 0.43838 0.45398 0.60495 0.0
C408 C 0.53819 0.4779 0.60705 0.0
O409 O 0.5406 0.50235 0.59661 0.0
O410 O 0.46085 0.52541 0.6103 0.0
C411 C 0.43642 0.44011 0.62003 0.0
O412 O 0.45699 0.44589 0.63266 0.0
C413 C 0.4576 0.47925 0.56192 0.0
O414 O 0.43259 0.46573 0.56812 0.0
O415 O 0.51158 0.46718 0.61063 0.0
H416 H 0.07823 0.36757 0.39789 0.0
H417 H 0.13881 0.44384 0.41195 0.0
H418 H 0.18414 0.41197 0.40409 0.0
H419 H 0.12894 0.30534 0.41412 0.0
H420 H 0.11872 0.27997 0.39572 0.0
H421 H 0.09117 0.30787 0.40394 0.0
H422 H 0.08557 0.33025 0.37157 0.0
H423 H 0.11307 0.30247 0.36328 0.0
H424 H 0.11955 0.34314 0.35965 0.0
H425 H 0.22263 0.37318 0.3927 0.0
H426 H 0.25133 0.33044 0.37829 0.0
H427 H 0.16556 0.27962 0.37173 0.0
C428 C 0.10103 0.37745 0.39957 0.0
C429 C 0.10495 0.40819 0.40557 0.0
C430 C 0.13521 0.42033 0.40739 0.0
C431 C 0.16112 0.40239 0.40302 0.0
C432 C 0.15642 0.37232 0.39692 0.0
C433 C 0.12714 0.35989 0.39524 0.0
C434 C 0.12831 0.32757 0.38744 0.0
C435 C 0.11606 0.30378 0.40113 0.0
C436 C 0.11058 0.32578 0.36942 0.0
C437 C 0.16276 0.32404 0.38462 0.0
C438 C 0.1786 0.34997 0.39033 0.0
C439 C 0.21051 0.35261 0.38835 0.0
C440 C 0.22661 0.32823 0.38013 0.0
C441 C 0.21073 0.30165 0.37392 0.0
C442 C 0.17844 0.29949 0.37646 0.0
H443 H 0.94947 0.90829 0.57173 0.0
H444 H 0.95903 0.97023 0.61761 0.0
H445 H 0.91455 0.94492 0.63241 0.0
H446 H 0.86487 0.90406 0.57219 0.0
H447 H 0.86462 0.86377 0.56602 0.0
H448 H 0.8956 0.88843 0.5585 0.0
H449 H 0.93549 0.85122 0.573 0.0
H450 H 0.90468 0.82656 0.58063 0.0
H451 H 0.93218 0.84167 0.59666 0.0
H452 H 0.87162 0.91024 0.64314 0.0
H453 H 0.83273 0.86961 0.64871 0.0
H454 H 0.85126 0.83084 0.59562 0.0
C455 C 0.94199 0.91687 0.58478 0.0
C456 C 0.95771 0.94127 0.59351 0.0
C457 C 0.94728 0.95162 0.61064 0.0
C458 C 0.92204 0.93741 0.61915 0.0
C459 C 0.9074 0.91305 0.61028 0.0
C460 C 0.91687 0.90301 0.59343 0.0
C461 C 0.89813 0.87553 0.58712 0.0
C462 C 0.87971 0.88344 0.56994 0.0
C463 C 0.91886 0.84707 0.58419 0.0
C464 C 0.87701 0.87128 0.60323 0.0
C465 C 0.88259 0.89323 0.61641 0.0
C466 C 0.86682 0.89314 0.63284 0.0
C467 C 0.84484 0.86991 0.63589 0.0
C468 C 0.83889 0.84711 0.62257 0.0
C469 C 0.85507 0.84809 0.606 0.0
H470 H 0.38763 0.56246 0.85107 0.0
H471 H 0.40329 0.57818 0.90836 0.0
H472 H 0.36431 0.61987 0.90801 0.0
H473 H 0.38212 0.6396 0.83884 0.0
H474 H 0.35248 0.63414 0.82201 0.0
H475 H 0.37856 0.60308 0.82729 0.0
H476 H 0.3321 0.56742 0.8346 0.0
H477 H 0.30581 0.59843 0.82931 0.0
H478 H 0.30383 0.5796 0.85103 0.0
H479 H 0.32772 0.66325 0.90069 0.0
H480 H 0.2968 0.70508 0.88693 0.0
H481 H 0.30502 0.66059 0.8345 0.0
C482 C 0.38245 0.57422 0.86364 0.0
C483 C 0.39845 0.567 0.87975 0.0
C484 C 0.39127 0.58326 0.89585 0.0
C485 C 0.36909 0.60691 0.89581 0.0
C486 C 0.35417 0.61385 0.87959 0.0
C487 C 0.36046 0.59787 0.86382 0.0
C488 C 0.34301 0.61129 0.84791 0.0
C489 C 0.36538 0.62271 0.83316 0.0
C490 C 0.31981 0.58778 0.84027 0.0
C491 C 0.32663 0.63792 0.85707 0.0
C492 C 0.33306 0.63881 0.87538 0.0
C493 C 0.32215 0.66253 0.88642 0.0
C494 C 0.30465 0.68621 0.87847 0.0
C495 C 0.29836 0.68605 0.85965 0.0
C496 C 0.30904 0.6612 0.84896 0.0
H497 H 0.58255 0.04161 0.11853 0.0
H498 H 0.51 0.05934 0.15773 0.0
H499 H 0.54434 0.09577 0.17378 0.0
H500 H 0.64898 0.04892 0.15005 0.0
H501 H 0.67235 0.0679 0.1332 0.0
H502 H 0.64369 0.04001 0.12642 0.0
H503 H 0.61879 0.0807 0.10521 0.0
H504 H 0.64716 0.10873 0.112 0.0
H505 H 0.60662 0.1173 0.11443 0.0
H506 H 0.58456 0.13417 0.18362 0.0
H507 H 0.62729 0.17167 0.18639 0.0
H508 H 0.67295 0.12922 0.14036 0.0
C509 C 0.57412 0.0525 0.13076 0.0
C510 C 0.54366 0.04747 0.13695 0.0
C511 C 0.53331 0.06273 0.15279 0.0
C512 C 0.55267 0.08341 0.16202 0.0
C513 C 0.5823 0.08847 0.15526 0.0
C514 C 0.59303 0.07333 0.14004 0.0
C515 C 0.62473 0.08479 0.13461 0.0
C516 C 0.64886 0.05886 0.13617 0.0
C517 C 0.62427 0.09871 0.11543 0.0
C518 C 0.62981 0.10938 0.14883 0.0
C519 C 0.60529 0.11089 0.16078 0.0
C520 C 0.60408 0.13294 0.1745 0.0
C521 C 0.62843 0.15419 0.17593 0.0
C522 C 0.6535 0.15337 0.16361 0.0
C523 C 0.65425 0.13034 0.15007 0.0
H524 H 0.16253 0.71532 0.12479 0.0
H525 H 0.23899 0.65583 0.14007 0.0
H526 H 0.2082 0.61006 0.13136 0.0
H527 H 0.10369 0.6682 0.14221 0.0
H528 H 0.07646 0.67644 0.12439 0.0
H529 H 0.10546 0.70448 0.13027 0.0
H530 H 0.12459 0.7054 0.09704 0.0
H531 H 0.09553 0.67742 0.09102 0.0
H532 H 0.13563 0.66975 0.0862 0.0
H533 H 0.1678 0.57075 0.12263 0.0
H534 H 0.12104 0.54096 0.11479 0.0
H535 H 0.07109 0.62658 0.10568 0.0
C536 C 0.17306 0.69272 0.12605 0.0
C537 C 0.20326 0.68916 0.13304 0.0
C538 C 0.21594 0.65913 0.1347 0.0
C539 C 0.19865 0.63301 0.12977 0.0
C540 C 0.16877 0.63737 0.12319 0.0
C541 C 0.15612 0.6665 0.12129 0.0
C542 C 0.12299 0.66493 0.11481 0.0
C543 C 0.10086 0.67936 0.12875 0.0
C544 C 0.11949 0.68028 0.09616 0.0
C545 C 0.11875 0.63031 0.11362 0.0
C546 C 0.14547 0.6148 0.11836 0.0
C547 C 0.14682 0.58266 0.11877 0.0
C548 C 0.12011 0.56595 0.11431 0.0
C549 C 0.09238 0.58142 0.1096 0.0
C550 C 0.09192 0.61404 0.10914 0.0
H551 H 0.58328 0.94844 0.39704 0.0
H552 H 0.51594 0.94864 0.35348 0.0
H553 H 0.54987 0.91472 0.33548 0.0
H554 H 0.65275 0.94673 0.36791 0.0
H555 H 0.67323 0.9215 0.38317 0.0
H556 H 0.64505 0.94833 0.39186 0.0
H557 H 0.61588 0.90314 0.40727 0.0
H558 H 0.64384 0.87621 0.39858 0.0
H559 H 0.60338 0.87075 0.39378 0.0
H560 H 0.58848 0.87646 0.32356 0.0
H561 H 0.62982 0.83809 0.31829 0.0
H562 H 0.67236 0.8639 0.3693 0.0
C563 C 0.5759 0.94184 0.38359 0.0
C564 C 0.54696 0.95126 0.37668 0.0
C565 C 0.53805 0.94183 0.35906 0.0
C566 C 0.55718 0.92257 0.34871 0.0
C567 C 0.58527 0.91318 0.35607 0.0
C568 C 0.59475 0.92273 0.37304 0.0
C569 C 0.62522 0.90802 0.37823 0.0
C570 C 0.65056 0.93262 0.38041 0.0
C571 C 0.62186 0.88836 0.39548 0.0
C572 C 0.63094 0.88805 0.36176 0.0
C573 C 0.60775 0.89148 0.34907 0.0
C574 C 0.60704 0.87393 0.33326 0.0
C575 C 0.63055 0.85213 0.33041 0.0
C576 C 0.65442 0.84815 0.34331 0.0
C577 C 0.65471 0.86671 0.35904 0.0
H578 H 0.35406 0.29963 0.67005 0.0
H579 H 0.29014 0.29511 0.62483 0.0
H580 H 0.31502 0.34095 0.61128 0.0
H581 H 0.35794 0.3836 0.67282 0.0
H582 H 0.39848 0.38365 0.6784 0.0
H583 H 0.37453 0.35152 0.68496 0.0
H584 H 0.41148 0.31395 0.66828 0.0
H585 H 0.43549 0.34594 0.66164 0.0
H586 H 0.42001 0.32029 0.6447 0.0
H587 H 0.34861 0.38553 0.60193 0.0
H588 H 0.38814 0.42594 0.59757 0.0
H589 H 0.42971 0.40133 0.64908 0.0
C590 C 0.34506 0.30841 0.65738 0.0
C591 C 0.32013 0.29381 0.6485 0.0
C592 C 0.30919 0.30596 0.63189 0.0
C593 C 0.32314 0.332 0.6241 0.0
C594 C 0.34788 0.34564 0.63314 0.0
C595 C 0.35866 0.33435 0.64944 0.0
C596 C 0.38619 0.35264 0.65613 0.0
C597 C 0.37883 0.36881 0.67414 0.0
C598 C 0.41499 0.33197 0.65777 0.0
C599 C 0.38951 0.37571 0.64089 0.0
C600 C 0.36712 0.37139 0.6278 0.0
C601 C 0.36611 0.3893 0.61215 0.0
C602 C 0.3887 0.41215 0.60979 0.0
C603 C 0.41197 0.41684 0.62301 0.0
C604 C 0.41212 0.39848 0.63879 0.0
H605 H 0.96919 0.08157 0.86758 0.0
H606 H 0.92031 0.99492 0.86008 0.0
H607 H 0.87437 0.02363 0.84957 0.0
H608 H 0.90634 0.1234 0.88513 0.0
H609 H 0.91628 0.15922 0.87414 0.0
H610 H 0.94606 0.13177 0.87965 0.0
H611 H 0.96356 0.13084 0.84612 0.0
H612 H 0.93383 0.15835 0.8405 0.0
H613 H 0.93582 0.12199 0.82867 0.0
H614 H 0.8327 0.06196 0.84174 0.0
H615 H 0.79846 0.10698 0.83727 0.0
H616 H 0.8748 0.16841 0.84987 0.0
C617 C 0.94899 0.06855 0.8635 0.0
C618 C 0.9484 0.03596 0.86461 0.0
C619 C 0.92136 0.01988 0.85931 0.0
C620 C 0.89515 0.03598 0.85329 0.0
C621 C 0.89641 0.06813 0.85258 0.0
C622 C 0.92267 0.08423 0.85749 0.0
C623 C 0.91759 0.11878 0.85631 0.0
C624 C 0.92181 0.13419 0.87491 0.0
C625 C 0.93897 0.13334 0.84205 0.0
C626 C 0.88418 0.11963 0.85027 0.0
C627 C 0.87243 0.09018 0.84808 0.0
C628 C 0.84172 0.08513 0.84325 0.0
C629 C 0.82245 0.11085 0.84077 0.0
C630 C 0.83395 0.14124 0.84317 0.0
C631 C 0.86534 0.14553 0.84778 0.0
H632 H 0.93476 0.62585 0.61245 0.0
H633 H 0.88207 0.54121 0.61879 0.0
H634 H 0.83439 0.57187 0.62269 0.0
H635 H 0.89652 0.66797 0.64589 0.0
H636 H 0.8976 0.70428 0.63397 0.0
H637 H 0.92689 0.67567 0.62981 0.0
H638 H 0.91401 0.67671 0.59555 0.0
H639 H 0.88468 0.70544 0.59962 0.0
H640 H 0.87486 0.66995 0.58822 0.0
H641 H 0.79323 0.61198 0.6285 0.0
H642 H 0.76211 0.65829 0.63569 0.0
H643 H 0.84201 0.71626 0.6253 0.0
C644 C 0.91314 0.61369 0.61435 0.0
C645 C 0.91216 0.58112 0.61528 0.0
C646 C 0.8834 0.56616 0.61799 0.0
C647 C 0.85617 0.58336 0.62018 0.0
C648 C 0.85806 0.61548 0.6195 0.0
C649 C 0.8858 0.63048 0.61656 0.0
C650 C 0.88198 0.66518 0.61748 0.0
C651 C 0.90192 0.67907 0.63269 0.0
C652 C 0.88931 0.6802 0.59912 0.0
C653 C 0.84791 0.66737 0.62185 0.0
C654 C 0.83441 0.6385 0.62281 0.0
C655 C 0.80347 0.63473 0.62757 0.0
C656 C 0.78598 0.66116 0.63166 0.0
C657 C 0.79955 0.69092 0.63101 0.0
C658 C 0.83082 0.6939 0.62577 0.0
H659 H 0.11379 0.18554 0.34132 0.0
H660 H 0.19533 0.13025 0.33026 0.0
H661 H 0.16362 0.08293 0.33139 0.0
H662 H 0.08243 0.13669 0.37344 0.0
H663 H 0.04269 0.14263 0.36701 0.0
H664 H 0.07082 0.17231 0.36278 0.0
H665 H 0.0563 0.17219 0.32875 0.0
H666 H 0.02804 0.14244 0.3329 0.0
H667 H 0.05777 0.13652 0.31618 0.0
H668 H 0.12442 0.04143 0.33717 0.0
H669 H 0.08084 0.00911 0.34752 0.0
H670 H 0.02494 0.09153 0.35459 0.0
C671 C 0.12488 0.16355 0.33871 0.0
C672 C 0.15702 0.16162 0.33563 0.0
C673 C 0.17072 0.13232 0.33261 0.0
C674 C 0.15288 0.1053 0.33315 0.0
C675 C 0.12136 0.10797 0.33661 0.0
C676 C 0.10743 0.13636 0.33925 0.0
C677 C 0.07372 0.13277 0.34427 0.0
C678 C 0.06705 0.14693 0.36299 0.0
C679 C 0.05272 0.14681 0.32965 0.0
C680 C 0.07112 0.09791 0.34463 0.0
C681 C 0.09871 0.084 0.33994 0.0
C682 C 0.10253 0.05204 0.34058 0.0
C683 C 0.07766 0.03386 0.3465 0.0
C684 C 0.04943 0.04774 0.35178 0.0
C685 C 0.04604 0.08014 0.3504 0.0
H686 H 0.57583 0.36822 0.10556 0.0
H687 H 0.6328 0.45077 0.10459 0.0
H688 H 0.67799 0.41983 0.11392 0.0
H689 H 0.6097 0.33483 0.14476 0.0
H690 H 0.6073 0.29572 0.13652 0.0
H691 H 0.57978 0.32413 0.12899 0.0
H692 H 0.59423 0.31262 0.09562 0.0
H693 H 0.62178 0.28412 0.10305 0.0
H694 H 0.63403 0.31534 0.08861 0.0
H695 H 0.71671 0.38002 0.1242 0.0
H696 H 0.74586 0.33433 0.13477 0.0
H697 H 0.66324 0.27823 0.12911 0.0
C698 C 0.59784 0.37979 0.10717 0.0
C699 C 0.60077 0.41191 0.10431 0.0
C700 C 0.62998 0.42617 0.10669 0.0
C701 C 0.6558 0.4088 0.11197 0.0
C702 C 0.65205 0.37722 0.1148 0.0
C703 C 0.62381 0.36284 0.11247 0.0
C704 C 0.62574 0.32874 0.11682 0.0
C705 C 0.60437 0.32038 0.13272 0.0
C706 C 0.61852 0.30905 0.10002 0.0
C707 C 0.65942 0.32623 0.12211 0.0
C708 C 0.67425 0.35439 0.12079 0.0
C709 C 0.70537 0.35781 0.12522 0.0
C710 C 0.72172 0.33174 0.13121 0.0
C711 C 0.70687 0.3027 0.13276 0.0
C712 C 0.67532 0.30006 0.12805 0.0
H713 H 0.43827 0.92795 0.88133 0.0
H714 H 0.39485 0.97174 0.92768 0.0
H715 H 0.34746 0.94152 0.9222 0.0
H716 H 0.36828 0.9239 0.85319 0.0
H717 H 0.37872 0.88689 0.84382 0.0
H718 H 0.40842 0.91365 0.85063 0.0
H719 H 0.4322 0.87176 0.87146 0.0
H720 H 0.4025 0.84497 0.86483 0.0
H721 H 0.40838 0.85364 0.88843 0.0
H722 H 0.3064 0.9037 0.91317 0.0
H723 H 0.2736 0.86253 0.90036 0.0
H724 H 0.34343 0.84401 0.85958 0.0
C725 C 0.41865 0.93154 0.89017 0.0
C726 C 0.42027 0.95226 0.90493 0.0
C727 C 0.39413 0.95613 0.91624 0.0
C728 C 0.3671 0.93903 0.91326 0.0
C729 C 0.36649 0.9184 0.8988 0.0
C730 C 0.39144 0.9148 0.88734 0.0
C731 C 0.38515 0.89037 0.87314 0.0
C732 C 0.38514 0.90456 0.85406 0.0
C733 C 0.40844 0.86361 0.87456 0.0
C734 C 0.35304 0.88029 0.87868 0.0
C735 C 0.34265 0.89682 0.89347 0.0
C736 C 0.31413 0.89083 0.90146 0.0
C737 C 0.29572 0.86732 0.89412 0.0
C738 C 0.30589 0.85012 0.87894 0.0
C739 C 0.33488 0.8569 0.87111 0.0
H740 H 0.88166 0.40353 0.87802 0.0
H741 H 0.86559 0.38251 0.93468 0.0
H742 H 0.83254 0.33844 0.92574 0.0
H743 H 0.80509 0.38371 0.8617 0.0
H744 H 0.81962 0.36737 0.84094 0.0
H745 H 0.84044 0.39811 0.85194 0.0
H746 H 0.8897 0.36403 0.85273 0.0
H747 H 0.86904 0.33317 0.84178 0.0
H748 H 0.88803 0.32638 0.86312 0.0
H749 H 0.80296 0.29511 0.9103 0.0
H750 H 0.77964 0.25642 0.88977 0.0
H751 H 0.81592 0.30654 0.84354 0.0
C752 C 0.87097 0.38991 0.8886 0.0
C753 C 0.87616 0.39653 0.90706 0.0
C754 C 0.8619 0.37792 0.92044 0.0
C755 C 0.84307 0.35286 0.9155 0.0
C756 C 0.83875 0.34682 0.89713 0.0
C757 C 0.85228 0.3649 0.88392 0.0
C758 C 0.84502 0.35303 0.86516 0.0
C759 C 0.82643 0.37698 0.8543 0.0
C760 C 0.87471 0.34359 0.85511 0.0
C761 C 0.82553 0.32521 0.86984 0.0
C762 C 0.82199 0.32202 0.88833 0.0
C763 C 0.80544 0.2975 0.8958 0.0
C764 C 0.7923 0.27565 0.88404 0.0
C765 C 0.79591 0.27846 0.86505 0.0
C766 C 0.81261 0.30373 0.85797 0.0
H767 H 0.33617 0.1495 0.63355 0.0
H768 H 0.36153 0.14166 0.6902 0.0
H769 H 0.40358 0.10564 0.68196 0.0
H770 H 0.35271 0.0698 0.62084 0.0
H771 H 0.36785 0.08059 0.59901 0.0
H772 H 0.33846 0.1039 0.60959 0.0
H773 H 0.37374 0.15208 0.60694 0.0
H774 H 0.4032 0.12896 0.59637 0.0
H775 H 0.41209 0.15092 0.61643 0.0
H776 H 0.44426 0.07197 0.66722 0.0
H777 H 0.48129 0.04512 0.64716 0.0
H778 H 0.42944 0.07628 0.6003 0.0
C779 C 0.35029 0.13995 0.64428 0.0
C780 C 0.34547 0.1483 0.66254 0.0
C781 C 0.36476 0.13556 0.67612 0.0
C782 C 0.38864 0.11501 0.67157 0.0
C783 C 0.39291 0.10749 0.6534 0.0
C784 C 0.37428 0.11963 0.63998 0.0
C785 C 0.38458 0.10919 0.6214 0.0
C786 C 0.3594 0.08971 0.61217 0.0
C787 C 0.39397 0.13694 0.6096 0.0
C788 C 0.41226 0.08966 0.62642 0.0
C789 C 0.41652 0.08864 0.64494 0.0
C790 C 0.44105 0.07249 0.6527 0.0
C791 C 0.46193 0.05729 0.64121 0.0
C792 C 0.45828 0.05862 0.62217 0.0
C793 C 0.43289 0.07479 0.61479 0.0
H794 H 0.66667 0.73083 0.38196 0.0
H795 H 0.74792 0.67201 0.38126 0.0
H796 H 0.71639 0.6284 0.39241 0.0
H797 H 0.62859 0.69549 0.42212 0.0
H798 H 0.59079 0.69951 0.41215 0.0
H799 H 0.62067 0.7271 0.40693 0.0
H800 H 0.61317 0.71622 0.37272 0.0
H801 H 0.58351 0.6885 0.37782 0.0
H802 H 0.61648 0.67715 0.36448 0.0
H803 H 0.67497 0.58994 0.4 0.0
H804 H 0.62708 0.55961 0.40347 0.0
H805 H 0.57292 0.64367 0.39879 0.0
C806 C 0.67809 0.70903 0.38462 0.0
C807 C 0.70983 0.70487 0.38083 0.0
C808 C 0.72368 0.67578 0.38415 0.0
C809 C 0.70597 0.6509 0.39052 0.0
C810 C 0.67452 0.65558 0.39359 0.0
C811 C 0.66075 0.684 0.39085 0.0
C812 C 0.6261 0.68234 0.39349 0.0
C813 C 0.61595 0.7023 0.40964 0.0
C814 C 0.60882 0.69159 0.37609 0.0
C815 C 0.62235 0.64831 0.39755 0.0
C816 C 0.65058 0.63334 0.3978 0.0
C817 C 0.65279 0.60149 0.40011 0.0
C818 C 0.62543 0.58445 0.40201 0.0
C819 C 0.59623 0.59928 0.40144 0.0
C820 C 0.59485 0.63169 0.39949 0.0
H821 H 0.16817 0.85584 0.12233 0.0
H822 H 0.11956 0.82847 0.17112 0.0
H823 H 0.07981 0.86809 0.16515 0.0
H824 H 0.15021 0.93905 0.12446 0.0
H825 H 0.14497 0.94204 0.10032 0.0
H826 H 0.17153 0.91402 0.10948 0.0
H827 H 0.14283 0.87031 0.09239 0.0
H828 H 0.1163 0.89815 0.08316 0.0
H829 H 0.10184 0.86549 0.0957 0.0
H830 H 0.04389 0.90811 0.15304 0.0
H831 H 0.01211 0.94321 0.13455 0.0
H832 H 0.08313 0.94358 0.09302 0.0
C833 C 0.14945 0.85859 0.13192 0.0
C834 C 0.14701 0.83928 0.14725 0.0
C835 C 0.12185 0.84306 0.15929 0.0
C836 C 0.09928 0.86562 0.15608 0.0
C837 C 0.10217 0.88409 0.14074 0.0
C838 C 0.12651 0.88073 0.12879 0.0
C839 C 0.12274 0.90168 0.11252 0.0
C840 C 0.14892 0.92562 0.11165 0.0
C841 C 0.1208 0.88277 0.09491 0.0
C842 C 0.09213 0.91681 0.11699 0.0
C843 C 0.08096 0.90673 0.13348 0.0
C844 C 0.05249 0.91639 0.14017 0.0
C845 C 0.03461 0.93635 0.12955 0.0
C846 C 0.04512 0.94619 0.11232 0.0
C847 C 0.07455 0.93671 0.10618 0.0
H848 H 0.66463 0.82947 0.85007 0.0
H849 H 0.69716 0.77759 0.89661 0.0
H850 H 0.6659 0.81083 0.91671 0.0
H851 H 0.66281 0.90509 0.87219 0.0
H852 H 0.62835 0.91686 0.86035 0.0
H853 H 0.65491 0.89025 0.84987 0.0
H854 H 0.61035 0.85098 0.84538 0.0
H855 H 0.58373 0.87735 0.85593 0.0
H856 H 0.58802 0.83872 0.86468 0.0
H857 H 0.62814 0.84755 0.93145 0.0
H858 H 0.58844 0.8861 0.93975 0.0
H859 H 0.58151 0.91395 0.88345 0.0
C860 C 0.66553 0.82529 0.8645 0.0
C861 C 0.68335 0.80092 0.87176 0.0
C862 C 0.68375 0.79618 0.89074 0.0
C863 C 0.66606 0.81493 0.90226 0.0
C864 C 0.64832 0.83841 0.89461 0.0
C865 C 0.64815 0.84379 0.87618 0.0
C866 C 0.62642 0.86986 0.87126 0.0
C867 C 0.64419 0.89713 0.86293 0.0
C868 C 0.6006 0.85854 0.85857 0.0
C869 C 0.61392 0.87793 0.88977 0.0
C870 C 0.62687 0.85964 0.90308 0.0
C871 C 0.61805 0.8622 0.92116 0.0
C872 C 0.59542 0.88409 0.92573 0.0
C873 C 0.58191 0.90308 0.91227 0.0
C874 C 0.5915 0.89994 0.89409 0.0
H875 H 0.47202 0.4238 0.11847 0.0
H876 H 0.4138 0.49694 0.0971 0.0
H877 H 0.3674 0.46721 0.10579 0.0
H878 H 0.42691 0.36177 0.10296 0.0
H879 H 0.43334 0.33779 0.12254 0.0
H880 H 0.46188 0.36587 0.116 0.0
H881 H 0.4593 0.39057 0.14791 0.0
H882 H 0.43082 0.36246 0.1546 0.0
H883 H 0.42257 0.40311 0.15676 0.0
H884 H 0.32753 0.42807 0.11504 0.0
H885 H 0.29702 0.3827 0.12449 0.0
H886 H 0.38153 0.33527 0.13976 0.0
C887 C 0.44953 0.43382 0.11583 0.0
C888 C 0.44653 0.46276 0.10714 0.0
C889 C 0.41667 0.47486 0.10378 0.0
C890 C 0.39018 0.45816 0.10868 0.0
C891 C 0.394 0.4295 0.11697 0.0
C892 C 0.42292 0.41749 0.1206 0.0
C893 C 0.42075 0.38561 0.12892 0.0
C894 C 0.43666 0.36134 0.11688 0.0
C895 C 0.43415 0.38545 0.14819 0.0
C896 C 0.38607 0.38131 0.12913 0.0
C897 C 0.37105 0.40695 0.12228 0.0
C898 C 0.33902 0.40796 0.12056 0.0
C899 C 0.32192 0.38204 0.12593 0.0
C900 C 0.33688 0.35543 0.13289 0.0
C901 C 0.36938 0.35529 0.13461 0.0
H902 H 0.92388 0.1374 0.38957 0.0
H903 H 0.87268 0.05286 0.37959 0.0
H904 H 0.82519 0.08334 0.37478 0.0
H905 H 0.86075 0.17975 0.41253 0.0
H906 H 0.87149 0.21591 0.40221 0.0
H907 H 0.90058 0.1872 0.4069 0.0
H908 H 0.91737 0.18812 0.37323 0.0
H909 H 0.88837 0.21673 0.36845 0.0
H910 H 0.88899 0.18108 0.35585 0.0
H911 H 0.7846 0.12334 0.36792 0.0
H912 H 0.75429 0.16971 0.35973 0.0
H913 H 0.83204 0.22772 0.37467 0.0
C914 C 0.90258 0.12522 0.38672 0.0
C915 C 0.90201 0.09274 0.38499 0.0
C916 C 0.87369 0.07774 0.38102 0.0
C917 C 0.84656 0.09484 0.37831 0.0
C918 C 0.84805 0.12689 0.37976 0.0
C919 C 0.8753 0.14191 0.38399 0.0
C920 C 0.87126 0.17662 0.38355 0.0
C921 C 0.87631 0.19069 0.40242 0.0
C922 C 0.89277 0.19149 0.36943 0.0
C923 C 0.83774 0.17878 0.37789 0.0
C924 C 0.82462 0.14989 0.37594 0.0
C925 C 0.79447 0.14611 0.36967 0.0
C926 C 0.77744 0.17257 0.36503 0.0
C927 C 0.7907 0.20235 0.36665 0.0
C928 C 0.82104 0.20534 0.37349 0.0
H929 H 0.18416 0.64206 0.64121 0.0
H930 H 0.1328 0.69555 0.68077 0.0
H931 H 0.09133 0.65631 0.68036 0.0
H932 H 0.12099 0.62102 0.61478 0.0
H933 H 0.13496 0.58281 0.60957 0.0
H934 H 0.16192 0.61325 0.61453 0.0
H935 H 0.18597 0.58004 0.6401 0.0
H936 H 0.159 0.54943 0.63522 0.0
H937 H 0.16152 0.56504 0.65779 0.0
H938 H 0.05345 0.61365 0.6735 0.0
H939 H 0.02199 0.57159 0.66042 0.0
H940 H 0.09863 0.54614 0.62558 0.0
C941 C 0.16445 0.64534 0.65003 0.0
C942 C 0.16176 0.67186 0.66106 0.0
C943 C 0.13541 0.67538 0.67224 0.0
C944 C 0.11178 0.65317 0.67214 0.0
C945 C 0.11498 0.62751 0.66089 0.0
C946 C 0.14073 0.62346 0.65009 0.0
C947 C 0.13772 0.59501 0.63832 0.0
C948 C 0.13896 0.60355 0.61811 0.0
C949 C 0.16252 0.57096 0.64316 0.0
C950 C 0.10587 0.58411 0.64381 0.0
C951 C 0.09324 0.60294 0.65699 0.0
C952 C 0.06327 0.59851 0.66337 0.0
C953 C 0.04557 0.57456 0.65585 0.0
C954 C 0.05788 0.55545 0.64204 0.0
C955 C 0.08865 0.56004 0.63627 0.0
H956 H 0.61204 0.07515 0.61488 0.0
H957 H 0.58134 0.11819 0.56496 0.0
H958 H 0.62017 0.15948 0.5691 0.0
H959 H 0.62161 0.14378 0.6393 0.0
H960 H 0.65519 0.13091 0.6516 0.0
H961 H 0.6273 0.10321 0.6437 0.0
H962 H 0.67048 0.07369 0.62661 0.0
H963 H 0.69855 0.10136 0.63446 0.0
H964 H 0.69435 0.09406 0.61058 0.0
H965 H 0.66008 0.19774 0.57975 0.0
H966 H 0.69636 0.23103 0.59659 0.0
H967 H 0.70011 0.16311 0.63977 0.0
C968 C 0.61378 0.09296 0.60464 0.0
C969 C 0.59376 0.09336 0.58953 0.0
C970 C 0.59648 0.11738 0.57662 0.0
C971 C 0.61853 0.14086 0.57882 0.0
C972 C 0.63766 0.13994 0.594 0.0
C973 C 0.63546 0.11661 0.60669 0.0
C974 C 0.6572 0.122 0.62242 0.0
C975 C 0.63925 0.12518 0.6403 0.0
C976 C 0.68159 0.09625 0.62358 0.0
C977 C 0.67157 0.15237 0.61679 0.0
C978 C 0.6603 0.16215 0.60026 0.0
C979 C 0.66927 0.19018 0.59264 0.0
C980 C 0.6899 0.20893 0.60231 0.0
C981 C 0.70115 0.19968 0.6195 0.0
C982 C 0.69215 0.17077 0.62662 0.0
H983 H 0.10658 0.32322 0.86434 0.0
H984 H 0.18554 0.38431 0.85869 0.0
H985 H 0.15198 0.42922 0.86499 0.0
H986 H 0.04926 0.37515 0.84428 0.0
H987 H 0.01953 0.36355 0.85994 0.0
H988 H 0.04938 0.33665 0.85358 0.0
H989 H 0.06313 0.32861 0.8874 0.0
H990 H 0.03347 0.35558 0.89385 0.0
H991 H 0.07274 0.36162 0.90117 0.0
H992 H 0.11016 0.46719 0.87377 0.0
H993 H 0.06338 0.49499 0.88402 0.0
H994 H 0.01248 0.40855 0.88402 0.0
C995 C 0.11679 0.34605 0.86415 0.0
C996 C 0.14867 0.35024 0.86098 0.0
C997 C 0.16114 0.38053 0.86105 0.0
C998 C 0.14227 0.40619 0.8646 0.0
C999 C 0.111 0.40117 0.86799 0.0
C1000 C 0.09835 0.37186 0.8677 0.0
C1001 C 0.06442 0.37248 0.87257 0.0
C1002 C 0.04448 0.3613 0.85664 0.0
C1003 C 0.05809 0.35345 0.88977 0.0
C1004 C 0.06006 0.40666 0.87594 0.0
C1005 C 0.0871 0.42291 0.87312 0.0
C1006 C 0.08879 0.45473 0.87589 0.0
C1007 C 0.06213 0.47031 0.88174 0.0
C1008 C 0.03426 0.45399 0.88481 0.0
C1009 C 0.03336 0.42177 0.88175 0.0
H1010 H 0.90348 0.91592 0.13854 0.0
H1011 H 0.88614 0.91479 0.08067 0.0
H1012 H 0.84959 0.87151 0.08479 0.0
H1013 H 0.90331 0.83493 0.1446 0.0
H1014 H 0.88467 0.83612 0.16639 0.0
H1015 H 0.90789 0.86822 0.15901 0.0
H1016 H 0.86156 0.90527 0.16385 0.0
H1017 H 0.83818 0.87327 0.1713 0.0
H1018 H 0.82527 0.89723 0.15284 0.0
H1019 H 0.81653 0.82696 0.09515 0.0
H1020 H 0.78979 0.78435 0.11093 0.0
H1021 H 0.82945 0.81472 0.16189 0.0
C1022 C 0.89177 0.90684 0.12674 0.0
C1023 C 0.89758 0.9188 0.10929 0.0
C1024 C 0.882 0.90602 0.09418 0.0
C1025 C 0.86117 0.88148 0.09638 0.0
C1026 C 0.85622 0.87003 0.11376 0.0
C1027 C 0.87105 0.88233 0.12867 0.0
C1028 C 0.86263 0.86513 0.1458 0.0
C1029 C 0.89133 0.85022 0.15445 0.0
C1030 C 0.84591 0.8865 0.15924 0.0
C1031 C 0.84098 0.84101 0.13818 0.0
C1032 C 0.83742 0.84431 0.1197 0.0
C1033 C 0.81901 0.82426 0.10964 0.0
C1034 C 0.80394 0.80012 0.11872 0.0
C1035 C 0.8075 0.7962 0.13764 0.0
C1036 C 0.82616 0.81711 0.14743 0.0
H1037 H 0.47416 0.59289 0.37005 0.0
H1038 H 0.41908 0.50927 0.36685 0.0
H1039 H 0.37482 0.53983 0.35568 0.0
H1040 H 0.41668 0.63974 0.38733 0.0
H1041 H 0.42763 0.67402 0.37506 0.0
H1042 H 0.4562 0.6452 0.3803 0.0
H1043 H 0.47015 0.64052 0.34631 0.0
H1044 H 0.4417 0.66953 0.34095 0.0
H1045 H 0.44018 0.63229 0.33007 0.0
H1046 H 0.33504 0.5801 0.34824 0.0
H1047 H 0.30297 0.62689 0.34471 0.0
H1048 H 0.38417 0.68412 0.35278 0.0
C1049 C 0.45305 0.58084 0.36659 0.0
C1050 C 0.45013 0.54864 0.36926 0.0
C1051 C 0.42191 0.53389 0.36485 0.0
C1052 C 0.39665 0.55105 0.35846 0.0
C1053 C 0.40007 0.58288 0.35645 0.0
C1054 C 0.42764 0.5976 0.36026 0.0
C1055 C 0.42464 0.6323 0.35832 0.0
C1056 C 0.43169 0.64876 0.37632 0.0
C1057 C 0.4454 0.64436 0.343 0.0
C1058 C 0.39081 0.63488 0.35338 0.0
C1059 C 0.37712 0.60611 0.35217 0.0
C1060 C 0.3456 0.60273 0.34888 0.0
C1061 C 0.32756 0.62945 0.34695 0.0
C1062 C 0.34108 0.65917 0.3484 0.0
C1063 C 0.37321 0.66176 0.35137 0.0
H1064 H 0.42215 0.13074 0.10677 0.0
H1065 H 0.36704 0.04733 0.11153 0.0
H1066 H 0.32003 0.07904 0.11501 0.0
H1067 H 0.38312 0.17309 0.14005 0.0
H1068 H 0.38567 0.20963 0.12845 0.0
H1069 H 0.41449 0.18042 0.12458 0.0
H1070 H 0.40346 0.18259 0.09013 0.0
H1071 H 0.37456 0.21187 0.0939 0.0
H1072 H 0.36457 0.17688 0.08204 0.0
H1073 H 0.27964 0.11979 0.12036 0.0
H1074 H 0.24914 0.16654 0.12738 0.0
H1075 H 0.33071 0.2231 0.11893 0.0
C1076 C 0.40016 0.11911 0.10826 0.0
C1077 C 0.39829 0.08655 0.10883 0.0
C1078 C 0.36906 0.07225 0.11102 0.0
C1079 C 0.3422 0.09006 0.11296 0.0
C1080 C 0.34491 0.12211 0.11259 0.0
C1081 C 0.37313 0.13651 0.11023 0.0
C1082 C 0.37004 0.17128 0.11137 0.0
C1083 C 0.38947 0.18436 0.12705 0.0
C1084 C 0.37866 0.18655 0.09328 0.0
C1085 C 0.33579 0.17416 0.11515 0.0
C1086 C 0.32164 0.14557 0.11564 0.0
C1087 C 0.29039 0.14234 0.11981 0.0
C1088 C 0.27327 0.16901 0.12379 0.0
C1089 C 0.28747 0.19849 0.12364 0.0
C1090 C 0.31905 0.20096 0.11898 0.0
H1091 H 0.59581 0.54819 0.88145 0.0
H1092 H 0.51787 0.5656 0.8459 0.0
H1093 H 0.5481 0.60556 0.82997 0.0
H1094 H 0.61665 0.6244 0.88738 0.0
H1095 H 0.65777 0.61784 0.8877 0.0
H1096 H 0.63184 0.58761 0.89459 0.0
H1097 H 0.65586 0.5507 0.87082 0.0
H1098 H 0.6821 0.58081 0.86393 0.0
H1099 H 0.65756 0.56241 0.84743 0.0
H1100 H 0.58445 0.6478 0.82038 0.0
H1101 H 0.62466 0.68801 0.8174 0.0
H1102 H 0.6787 0.64261 0.85915 0.0
C1103 C 0.58533 0.55982 0.87002 0.0
C1104 C 0.5545 0.55367 0.86489 0.0
C1105 C 0.5415 0.56981 0.85004 0.0
C1106 C 0.5585 0.59253 0.84088 0.0
C1107 C 0.58853 0.59866 0.84664 0.0
C1108 C 0.60194 0.58256 0.86076 0.0
C1109 C 0.63365 0.59515 0.86525 0.0
C1110 C 0.63503 0.60695 0.88489 0.0
C1111 C 0.65878 0.57081 0.86164 0.0
C1112 C 0.63559 0.62147 0.85183 0.0
C1113 C 0.6095 0.62296 0.84109 0.0
C1114 C 0.60522 0.64657 0.8285 0.0
C1115 C 0.62812 0.66937 0.82696 0.0
C1116 C 0.65488 0.6684 0.83798 0.0
C1117 C 0.6587 0.64384 0.85037 0.0
H1118 H 0.1785 0.83247 0.64252 0.0
H1119 H 0.20588 0.77458 0.59731 0.0
H1120 H 0.17664 0.8084 0.57648 0.0
H1121 H 0.1023 0.84663 0.62804 0.0
H1122 H 0.10143 0.8861 0.6358 0.0
H1123 H 0.12597 0.8584 0.6469 0.0
H1124 H 0.17356 0.89344 0.64118 0.0
H1125 H 0.14911 0.92136 0.63014 0.0
H1126 H 0.18223 0.90587 0.61846 0.0
H1127 H 0.14157 0.84712 0.5609 0.0
H1128 H 0.10531 0.88852 0.5518 0.0
H1129 H 0.10204 0.92077 0.6074 0.0
C1130 C 0.17865 0.82701 0.62822 0.0
C1131 C 0.19447 0.80087 0.62155 0.0
C1132 C 0.194 0.79456 0.60273 0.0
C1133 C 0.17743 0.81361 0.59079 0.0
C1134 C 0.16169 0.83896 0.59789 0.0
C1135 C 0.1624 0.84579 0.61616 0.0
C1136 C 0.14303 0.87391 0.62048 0.0
C1137 C 0.11662 0.86576 0.63358 0.0
C1138 C 0.16319 0.9002 0.62801 0.0
C1139 C 0.13089 0.88159 0.60184 0.0
C1140 C 0.1419 0.86126 0.58895 0.0
C1141 C 0.13301 0.86333 0.57086 0.0
C1142 C 0.11236 0.88685 0.56582 0.0
C1143 C 0.10091 0.90795 0.57886 0.0
C1144 C 0.11049 0.90518 0.59706 0.0
H1145 H 0.95083 0.40961 0.42555 0.0
H1146 H 0.96641 0.46998 0.37954 0.0
H1147 H 0.92202 0.44622 0.36376 0.0
H1148 H 0.9323 0.34301 0.40021 0.0
H1149 H 0.90328 0.32942 0.41578 0.0
H1150 H 0.93482 0.35268 0.4239 0.0
H1151 H 0.89596 0.39185 0.43756 0.0
H1152 H 0.86425 0.36865 0.42951 0.0
H1153 H 0.86679 0.40882 0.42325 0.0
H1154 H 0.87718 0.41422 0.35255 0.0
H1155 H 0.83602 0.37598 0.34661 0.0
H1156 H 0.85071 0.33641 0.39992 0.0
C1157 C 0.94472 0.41814 0.41225 0.0
C1158 C 0.96201 0.44175 0.4038 0.0
C1159 C 0.95345 0.45195 0.38628 0.0
C1160 C 0.92825 0.43864 0.37723 0.0
C1161 C 0.9119 0.41518 0.38589 0.0
C1162 C 0.9198 0.40504 0.40301 0.0
C1163 C 0.89943 0.37857 0.40903 0.0
C1164 C 0.91861 0.34919 0.41242 0.0
C1165 C 0.88048 0.38752 0.42583 0.0
C1166 C 0.87902 0.37516 0.39254 0.0
C1167 C 0.8864 0.3966 0.37938 0.0
C1168 C 0.87109 0.39743 0.3628 0.0
C1169 C 0.84776 0.37561 0.35955 0.0
C1170 C 0.84013 0.35321 0.37279 0.0
C1171 C 0.8559 0.35326 0.38952 0.0
H1172 H 0.33404 0.78442 0.37527 0.0
H1173 H 0.25186 0.84119 0.36961 0.0
H1174 H 0.28219 0.88732 0.37796 0.0
H1175 H 0.36786 0.82669 0.41359 0.0
H1176 H 0.4067 0.82203 0.40523 0.0
H1177 H 0.37788 0.79317 0.40035 0.0
H1178 H 0.38872 0.79929 0.36605 0.0
H1179 H 0.41738 0.82829 0.37079 0.0
H1180 H 0.3857 0.83696 0.35579 0.0
H1181 H 0.32222 0.92772 0.38459 0.0
H1182 H 0.36881 0.95933 0.38991 0.0
H1183 H 0.42472 0.87603 0.39129 0.0
C1184 C 0.32226 0.80645 0.37609 0.0
C1185 C 0.29054 0.80918 0.37183 0.0
C1186 C 0.27611 0.83851 0.37286 0.0
C1187 C 0.29314 0.86485 0.3776 0.0
C1188 C 0.3245 0.86143 0.38134 0.0
C1189 C 0.33888 0.83294 0.38077 0.0
C1190 C 0.37315 0.83573 0.38455 0.0
C1191 C 0.3819 0.81838 0.40197 0.0
C1192 C 0.39235 0.8244 0.36833 0.0
C1193 C 0.3759 0.87032 0.387 0.0
C1194 C 0.34757 0.88471 0.38519 0.0
C1195 C 0.34449 0.91669 0.38621 0.0
C1196 C 0.37111 0.93444 0.38917 0.0
C1197 C 0.4004 0.92015 0.39105 0.0
C1198 C 0.40266 0.88764 0.39004 0.0
H1199 H 0.9628 0.57561 0.12922 0.0
H1200 H 0.90238 0.49933 0.11496 0.0
H1201 H 0.85701 0.53089 0.12329 0.0
H1202 H 0.91724 0.60426 0.1676 0.0
H1203 H 0.92533 0.64412 0.16236 0.0
H1204 H 0.95305 0.61459 0.15671 0.0
H1205 H 0.95247 0.63273 0.1233 0.0
H1206 H 0.92462 0.66215 0.1288 0.0
H1207 H 0.91627 0.63443 0.11126 0.0
H1208 H 0.81816 0.57196 0.13112 0.0
H1209 H 0.78868 0.61912 0.13851 0.0
H1210 H 0.87462 0.66852 0.14759 0.0
C1211 C 0.94008 0.5653 0.12814 0.0
C1212 C 0.93615 0.53492 0.1215 0.0
C1213 C 0.90597 0.5225 0.12007 0.0
C1214 C 0.88006 0.54024 0.12478 0.0
C1215 C 0.88473 0.57031 0.13094 0.0
C1216 C 0.914 0.58268 0.13273 0.0
C1217 C 0.91268 0.61605 0.13886 0.0
C1218 C 0.92798 0.61997 0.15749 0.0
C1219 C 0.92737 0.6376 0.12471 0.0
C1220 C 0.87807 0.62068 0.13995 0.0
C1221 C 0.86236 0.59398 0.13541 0.0
C1222 C 0.83021 0.59292 0.13485 0.0
C1223 C 0.81368 0.61987 0.13902 0.0
C1224 C 0.82932 0.64752 0.14366 0.0
C1225 C 0.86195 0.64773 0.1442 0.0
H1226 H 0.16009 0.22875 0.88399 0.0
H1227 H 0.24455 0.17478 0.88627 0.0
H1228 H 0.21406 0.12829 0.89381 0.0
H1229 H 0.11717 0.18644 0.92012 0.0
H1230 H 0.08124 0.18952 0.90791 0.0
H1231 H 0.11007 0.21934 0.90575 0.0
H1232 H 0.10954 0.21227 0.87094 0.0
H1233 H 0.08105 0.18226 0.87297 0.0
H1234 H 0.11697 0.17459 0.86148 0.0
H1235 H 0.17415 0.08675 0.89723 0.0
H1236 H 0.12798 0.05336 0.89674 0.0
H1237 H 0.06957 0.13447 0.89167 0.0
C1238 C 0.17232 0.20739 0.88663 0.0
C1239 C 0.20475 0.20543 0.88467 0.0
C1240 C 0.21975 0.17685 0.8878 0.0
C1241 C 0.20262 0.15034 0.89212 0.0
C1242 C 0.17057 0.15285 0.8933 0.0
C1243 C 0.15558 0.18072 0.89079 0.0
C1244 C 0.12083 0.17673 0.89107 0.0
C1245 C 0.10649 0.19403 0.90718 0.0
C1246 C 0.10626 0.18706 0.87304 0.0
C1247 C 0.11858 0.14211 0.89354 0.0
C1248 C 0.14751 0.12881 0.89505 0.0
C1249 C 0.15137 0.09694 0.89634 0.0
C1250 C 0.12499 0.07816 0.89597 0.0
C1251 C 0.09513 0.09129 0.8942 0.0
C1252 C 0.09201 0.12373 0.8932 0.0
H1253 H 0.54041 0.42289 0.62524 0.0
H1254 H 0.59889 0.49411 0.60205 0.0
H1255 H 0.6451 0.46322 0.60975 0.0
H1256 H 0.59249 0.40048 0.66227 0.0
H1257 H 0.5827 0.36016 0.66024 0.0
H1258 H 0.55462 0.3893 0.65451 0.0
H1259 H 0.54839 0.36502 0.62266 0.0
H1260 H 0.57654 0.33595 0.62823 0.0
H1261 H 0.58199 0.35995 0.60855 0.0
H1262 H 0.68451 0.42274 0.61787 0.0
H1263 H 0.71418 0.37603 0.62595 0.0
H1264 H 0.62956 0.33131 0.64354 0.0
C1265 C 0.56293 0.43232 0.62205 0.0
C1266 C 0.56605 0.461 0.61309 0.0
C1267 C 0.59595 0.47225 0.60896 0.0
C1268 C 0.62232 0.45489 0.6133 0.0
C1269 C 0.61836 0.42642 0.62181 0.0
C1270 C 0.58941 0.41529 0.62622 0.0
C1271 C 0.59124 0.38326 0.63436 0.0
C1272 C 0.57958 0.38332 0.65401 0.0
C1273 C 0.5735 0.35966 0.62275 0.0
C1274 C 0.62573 0.3778 0.63351 0.0
C1275 C 0.641 0.40306 0.62638 0.0
C1276 C 0.67283 0.40295 0.62363 0.0
C1277 C 0.68947 0.37627 0.62822 0.0
C1278 C 0.67421 0.35001 0.6354 0.0
C1279 C 0.64195 0.35103 0.63819 0.0
H1280 H 0.25978 0.25127 0.1963 0.0
H1281 H 0.26288 0.35038 0.20525 0.0
H1282 H 0.26022 0.34165 0.23824 0.0
H1283 H 0.20567 0.23421 0.23118 0.0
H1284 H 0.22372 0.19824 0.23744 0.0
H1285 H 0.22697 0.2123 0.2146 0.0
H1286 H 0.28667 0.20949 0.21684 0.0
H1287 H 0.28361 0.19542 0.2397 0.0
H1288 H 0.30618 0.22945 0.23494 0.0
H1289 H 0.2561 0.32212 0.27017 0.0
H1290 H 0.25022 0.29329 0.29876 0.0
H1291 H 0.24966 0.20698 0.26879 0.0
C1292 C 0.26008 0.27118 0.20518 0.0
C1293 C 0.26159 0.30153 0.1982 0.0
C1294 C 0.26174 0.32692 0.21029 0.0
C1295 C 0.26029 0.3222 0.22904 0.0
C1296 C 0.25871 0.29197 0.23545 0.0
C1297 C 0.25859 0.2669 0.22389 0.0
C1298 C 0.25604 0.23679 0.2342 0.0
C1299 C 0.22633 0.21937 0.22905 0.0
C1300 C 0.28484 0.21661 0.23124 0.0
C1301 C 0.25453 0.24886 0.25339 0.0
C1302 C 0.25622 0.28073 0.25383 0.0
C1303 C 0.25484 0.29715 0.27001 0.0
C1304 C 0.25149 0.28055 0.28617 0.0
C1305 C 0.24949 0.24786 0.28602 0.0
C1306 C 0.25121 0.23192 0.26938 0.0
H1307 H 0.00115 0.00809 0.5279 0.0
H1308 H 0.10006 0.0104 0.51816 0.0
H1309 H 0.09036 0.01691 0.48543 0.0
H1310 H 0.98065 0.96516 0.48876 0.0
H1311 H 0.9454 0.98623 0.48468 0.0
H1312 H 0.96016 0.98268 0.50736 0.0
H1313 H 0.96016 0.04229 0.51068 0.0
H1314 H 0.94532 0.04604 0.48801 0.0
H1315 H 0.98051 0.06553 0.49432 0.0
H1316 H 0.0698 0.02079 0.45369 0.0
H1317 H 0.03994 0.02374 0.42529 0.0
H1318 H 0.95449 0.02014 0.45601 0.0
C1319 C 0.02081 0.0101 0.51892 0.0
C1320 C 0.05138 0.00869 0.52557 0.0
C1321 C 0.07644 0.01148 0.51336 0.0
C1322 C 0.07117 0.01515 0.49476 0.0
C1323 C 0.04072 0.01621 0.48865 0.0
C1324 C 0.01597 0.01397 0.50037 0.0
C1325 C 0.98551 0.01554 0.49035 0.0
C1326 C 0.96684 0.98562 0.49294 0.0
C1327 C 0.96678 0.04405 0.49619 0.0
C1328 C 0.99698 0.01869 0.47111 0.0
C1329 C 0.02889 0.01898 0.47041 0.0
C1330 C 0.0448 0.02081 0.45408 0.0
C1331 C 0.02763 0.02239 0.43802 0.0
C1332 C 0.99488 0.02228 0.43844 0.0
C1333 C 0.97948 0.02053 0.45525 0.0
H1334 H 0.25361 0.70407 0.71808 0.0
H1335 H 0.27379 0.78961 0.6898 0.0
H1336 H 0.28605 0.81474 0.71894 0.0
H1337 H 0.21608 0.73879 0.75569 0.0
H1338 H 0.23101 0.7116 0.77196 0.0
H1339 H 0.22558 0.69998 0.74879 0.0
H1340 H 0.28307 0.68343 0.74695 0.0
H1341 H 0.28869 0.69507 0.77013 0.0
H1342 H 0.31285 0.71092 0.75257 0.0
H1343 H 0.29521 0.83072 0.75128 0.0
H1344 H 0.29803 0.83706 0.78448 0.0
H1345 H 0.2706 0.74129 0.7914 0.0
C1346 C 0.26086 0.72801 0.71799 0.0
C1347 C 0.26289 0.74486 0.70168 0.0
C1348 C 0.27209 0.77626 0.70215 0.0
C1349 C 0.2792 0.7907 0.71862 0.0
C1350 C 0.27688 0.77344 0.73447 0.0
C1351 C 0.26779 0.74283 0.73429 0.0
C1352 C 0.26581 0.72979 0.75325 0.0
C1353 C 0.23265 0.71945 0.75768 0.0
C1354 C 0.28899 0.70324 0.75587 0.0
C1355 C 0.27497 0.75793 0.76413 0.0
C1356 C 0.28155 0.78279 0.75307 0.0
C1357 C 0.29018 0.81139 0.76009 0.0
C1358 C 0.29176 0.81475 0.77895 0.0
C1359 C 0.2845 0.7897 0.79053 0.0
C1360 C 0.27628 0.7609 0.78293 0.0
H1361 H 0.44171 0.0043 0.03833 0.0
H1362 H 0.52907 0.02197 0.06531 0.0
H1363 H 0.55572 0.02142 0.03577 0.0
H1364 H 0.47116 0.95158 0.00577 0.0
H1365 H 0.44633 0.96478 0.98777 0.0
H1366 H 0.43395 0.96811 0.01094 0.0
H1367 H 0.42538 0.02693 0.00657 0.0
H1368 H 0.43771 0.02375 0.98336 0.0
H1369 H 0.45668 0.05056 0.99836 0.0
H1370 H 0.57296 0.018 0.00326 0.0
H1371 H 0.57957 0.01052 0.97031 0.0
H1372 H 0.48102 0.99409 0.96499 0.0
C1373 C 0.46641 0.0083 0.03803 0.0
C1374 C 0.4833 0.01326 0.05411 0.0
C1375 C 0.51565 0.01811 0.05315 0.0
C1376 C 0.53099 0.01791 0.03644 0.0
C1377 C 0.51366 0.01277 0.02085 0.0
C1378 C 0.4821 0.00799 0.02151 0.0
C1379 C 0.46898 0.00199 0.00287 0.0
C1380 C 0.45425 0.96969 0.00178 0.0
C1381 C 0.44582 0.02732 0.99748 0.0
C1382 C 0.49814 0.00384 0.99165 0.0
C1383 C 0.52364 0.01032 0.00223 0.0
C1384 C 0.55315 0.01296 0.99483 0.0
C1385 C 0.55667 0.0087 0.97612 0.0
C1386 C 0.53085 0.00165 0.9651 0.0
C1387 C 0.50125 0.99936 0.97304 0.0
H1388 H 0.26365 0.70205 0.27657 0.0
H1389 H 0.23269 0.78216 0.30701 0.0
H1390 H 0.22032 0.80894 0.2785 0.0
H1391 H 0.29937 0.74381 0.24051 0.0
H1392 H 0.28759 0.71703 0.22315 0.0
H1393 H 0.29336 0.70366 0.24597 0.0
H1394 H 0.23765 0.68172 0.2465 0.0
H1395 H 0.23173 0.69497 0.22366 0.0
H1396 H 0.2056 0.70683 0.24133 0.0
H1397 H 0.21256 0.82763 0.2469 0.0
H1398 H 0.20896 0.8367 0.21403 0.0
H1399 H 0.24451 0.7444 0.20402 0.0
C1400 C 0.25414 0.72516 0.27725 0.0
C1401 C 0.24915 0.73999 0.29403 0.0
C1402 C 0.23671 0.77029 0.29432 0.0
C1403 C 0.2296 0.78573 0.27821 0.0
C1404 C 0.23497 0.77054 0.26191 0.0
C1405 C 0.24685 0.74093 0.26128 0.0
C1406 C 0.25066 0.73001 0.24194 0.0
C1407 C 0.28477 0.72324 0.23764 0.0
C1408 C 0.23019 0.70171 0.23814 0.0
C1409 C 0.23924 0.75821 0.23182 0.0
C1410 C 0.23031 0.78131 0.24361 0.0
C1411 C 0.21937 0.8097 0.23751 0.0
C1412 C 0.21747 0.81463 0.21881 0.0
C1413 C 0.22642 0.79126 0.20645 0.0
C1414 C 0.23739 0.76269 0.21312 0.0
H1415 H 0.50993 0.99803 0.45243 0.0
H1416 H 0.4134 0.97701 0.46283 0.0
H1417 H 0.42346 0.97805 0.4956 0.0
H1418 H 0.54119 0.95199 0.48917 0.0
H1419 H 0.57135 0.97927 0.49442 0.0
H1420 H 0.55683 0.97635 0.47163 0.0
H1421 H 0.54431 0.0349 0.47173 0.0
H1422 H 0.55876 0.03799 0.49451 0.0
H1423 H 0.52005 0.05055 0.48932 0.0
H1424 H 0.44318 0.98286 0.52707 0.0
H1425 H 0.47174 0.99031 0.55556 0.0
H1426 H 0.55584 0.00748 0.5251 0.0
C1427 C 0.49094 0.99355 0.4616 0.0
C1428 C 0.46085 0.98747 0.45504 0.0
C1429 C 0.43664 0.98171 0.4675 0.0
C1430 C 0.4421 0.98224 0.48616 0.0
C1431 C 0.47193 0.98843 0.49217 0.0
C1432 C 0.49599 0.99389 0.48032 0.0
C1433 C 0.5258 0.00023 0.49043 0.0
C1434 C 0.55023 0.97548 0.48616 0.0
C1435 C 0.53793 0.03286 0.48625 0.0
C1436 C 0.5146 0.99773 0.5098 0.0
C1437 C 0.48345 0.9909 0.51046 0.0
C1438 C 0.46762 0.98807 0.52676 0.0
C1439 C 0.48406 0.9924 0.54287 0.0
C1440 C 0.51604 0.99941 0.54258 0.0
C1441 C 0.53146 0.00195 0.52578 0.0
H1442 H 0.2444 0.30456 0.78446 0.0
H1443 H 0.22126 0.22177 0.8148 0.0
H1444 H 0.22317 0.19122 0.7867 0.0
H1445 H 0.20019 0.28585 0.74443 0.0
H1446 H 0.22844 0.30161 0.72907 0.0
H1447 H 0.22472 0.31722 0.75156 0.0
H1448 H 0.28289 0.30696 0.75736 0.0
H1449 H 0.28677 0.29129 0.73491 0.0
H1450 H 0.2981 0.26855 0.75424 0.0
H1451 H 0.22801 0.16943 0.75548 0.0
H1452 H 0.23594 0.1579 0.7231 0.0
H1453 H 0.25633 0.25467 0.71313 0.0
C1454 C 0.23962 0.28004 0.7852 0.0
C1455 C 0.23265 0.2656 0.80184 0.0
C1456 C 0.22666 0.23339 0.80221 0.0
C1457 C 0.22765 0.2158 0.78632 0.0
C1458 C 0.23469 0.23071 0.77017 0.0
C1459 C 0.24058 0.26207 0.76946 0.0
C1460 C 0.24798 0.2723 0.75035 0.0
C1461 C 0.22389 0.29562 0.74345 0.0
C1462 C 0.2809 0.28555 0.74915 0.0
C1463 C 0.24545 0.24176 0.74048 0.0
C1464 C 0.23766 0.21809 0.75215 0.0
C1465 C 0.23408 0.18777 0.74618 0.0
C1466 C 0.23863 0.18145 0.72777 0.0
C1467 C 0.24676 0.20535 0.71558 0.0
C1468 C 0.25014 0.23587 0.7221 0.0
H1469 H 0.01258 0.04381 0.95961 0.0
H1470 H 0.01131 0.95281 0.93483 0.0
H1471 H 0.00129 0.92933 0.96465 0.0
H1472 H 0.05082 0.0214 0.00062 0.0
H1473 H 0.02853 0.04697 0.01477 0.0
H1474 H 0.03541 0.05678 0.99143 0.0
H1475 H 0.97643 0.06168 0.98603 0.0
H1476 H 0.96939 0.05202 0.00937 0.0
H1477 H 0.95151 0.02971 0.99163 0.0
H1478 H 0.99182 0.91564 0.99713 0.0
H1479 H 0.98201 0.9129 0.03 0.0
H1480 H 0.98941 0.0128 0.03349 0.0
C1481 C 0.01012 0.01896 0.96042 0.0
C1482 C 0.01274 0.00017 0.94488 0.0
C1483 C 0.00938 0.96771 0.94655 0.0
C1484 C 0.00373 0.95412 0.96343 0.0
C1485 C 0.00149 0.97329 0.97849 0.0
C1486 C 0.00446 0.005 0.97716 0.0
C1487 C 0.00092 0.02036 0.99544 0.0
C1488 C 0.0307 0.03738 0.00088 0.0
C1489 C 0.97289 0.04223 0.99562 0.0
C1490 C 0.99547 0.99233 0.00724 0.0
C1491 C 0.99596 0.9654 0.99721 0.0
C1492 C 0.99137 0.93657 0.00514 0.0
C1493 C 0.98585 0.93525 0.02381 0.0
C1494 C 0.98494 0.96262 0.03431 0.0
C1495 C 0.99001 0.99145 0.02586 0.0
H1496 H 0.7615 0.74668 0.70286 0.0
H1497 H 0.79144 0.84118 0.71196 0.0
H1498 H 0.78451 0.83407 0.74484 0.0
H1499 H 0.70319 0.74489 0.73738 0.0
H1500 H 0.71106 0.7055 0.74381 0.0
H1501 H 0.71832 0.71804 0.72097 0.0
H1502 H 0.77516 0.69968 0.72361 0.0
H1503 H 0.76807 0.68706 0.74646 0.0
H1504 H 0.79886 0.71396 0.74185 0.0
H1505 H 0.77382 0.8169 0.77664 0.0
H1506 H 0.7613 0.79044 0.80528 0.0
H1507 H 0.73907 0.70695 0.77539 0.0
C1508 C 0.76659 0.76591 0.71175 0.0
C1509 C 0.77697 0.79451 0.70484 0.0
C1510 C 0.78349 0.81904 0.71694 0.0
C1511 C 0.77959 0.81525 0.73564 0.0
C1512 C 0.76928 0.78678 0.74199 0.0
C1513 C 0.76296 0.7625 0.73043 0.0
C1514 C 0.75241 0.73419 0.74075 0.0
C1515 C 0.71928 0.72514 0.73541 0.0
C1516 C 0.77498 0.70713 0.738 0.0
C1517 C 0.75374 0.74638 0.75992 0.0
C1518 C 0.76344 0.77678 0.76034 0.0
C1519 C 0.76627 0.79308 0.7765 0.0
C1520 C 0.75907 0.77784 0.79269 0.0
C1521 C 0.74927 0.7466 0.79258 0.0
C1522 C 0.74658 0.73079 0.77594 0.0
H1523 H 0.71711 0.27277 0.21631 0.0
H1524 H 0.79167 0.21264 0.1988 0.0
H1525 H 0.8152 0.21608 0.22913 0.0
H1526 H 0.76328 0.32231 0.24541 0.0
H1527 H 0.73336 0.32584 0.26225 0.0
H1528 H 0.72323 0.31992 0.23886 0.0
H1529 H 0.69125 0.27162 0.24776 0.0
H1530 H 0.70131 0.27736 0.27115 0.0
H1531 H 0.70951 0.24094 0.26034 0.0
H1532 H 0.82981 0.22477 0.26163 0.0
H1533 H 0.83385 0.23743 0.29414 0.0
H1534 H 0.74937 0.29122 0.29038 0.0
C1535 C 0.73854 0.26057 0.21879 0.0
C1536 C 0.75259 0.24252 0.20518 0.0
C1537 C 0.78047 0.22663 0.20903 0.0
C1538 C 0.79407 0.22848 0.2262 0.0
C1539 C 0.77949 0.24628 0.23936 0.0
C1540 C 0.75234 0.26202 0.23588 0.0
C1541 C 0.74075 0.2786 0.25258 0.0
C1542 C 0.74013 0.31375 0.24959 0.0
C1543 C 0.70882 0.26639 0.25829 0.0
C1544 C 0.76548 0.26948 0.26602 0.0
C1545 C 0.78773 0.251 0.25813 0.0
C1546 C 0.8126 0.23933 0.26796 0.0
C1547 C 0.81469 0.24664 0.28641 0.0
C1548 C 0.79195 0.26531 0.2948 0.0
C1549 C 0.76717 0.27694 0.28438 0.0
H1550 H 0.7547 0.18494 0.76623 0.0
H1551 H 0.74147 0.26807 0.79825 0.0
H1552 H 0.73635 0.29863 0.77029 0.0
H1553 H 0.79988 0.2197 0.73124 0.0
H1554 H 0.78285 0.19728 0.71327 0.0
H1555 H 0.78486 0.18165 0.73581 0.0
H1556 H 0.72564 0.17278 0.73559 0.0
H1557 H 0.72345 0.1884 0.71303 0.0
H1558 H 0.70019 0.20476 0.73085 0.0
H1559 H 0.73423 0.32053 0.73905 0.0
H1560 H 0.73433 0.33219 0.70638 0.0
H1561 H 0.748 0.23486 0.69455 0.0
C1562 C 0.75064 0.20955 0.76737 0.0
C1563 C 0.74849 0.22408 0.78444 0.0
C1564 C 0.74314 0.25636 0.78533 0.0
C1565 C 0.7402 0.27396 0.76953 0.0
C1566 C 0.74252 0.25895 0.75293 0.0
C1567 C 0.7475 0.22748 0.75171 0.0
C1568 C 0.74928 0.21715 0.73215 0.0
C1569 C 0.78111 0.20313 0.72787 0.0
C1570 C 0.72307 0.19443 0.72765 0.0
C1571 C 0.74477 0.24778 0.7226 0.0
C1572 C 0.74092 0.27158 0.73485 0.0
C1573 C 0.73706 0.30208 0.72931 0.0
C1574 C 0.7372 0.30847 0.71073 0.0
C1575 C 0.74108 0.28444 0.69791 0.0
C1576 C 0.74476 0.2537 0.704 0.0
H1577 H 0.74079 0.80409 0.27787 0.0
H1578 H 0.74704 0.71929 0.30909 0.0
H1579 H 0.75345 0.68953 0.28092 0.0
H1580 H 0.69698 0.77208 0.24105 0.0
H1581 H 0.71636 0.79455 0.22395 0.0
H1582 H 0.71282 0.80941 0.24661 0.0
H1583 H 0.77224 0.81627 0.24834 0.0
H1584 H 0.77596 0.80142 0.22567 0.0
H1585 H 0.79701 0.78362 0.24396 0.0
H1586 H 0.75956 0.66891 0.24953 0.0
H1587 H 0.7635 0.65865 0.21677 0.0
H1588 H 0.75225 0.75662 0.20587 0.0
C1589 C 0.74359 0.77928 0.27879 0.0
C1590 C 0.74346 0.76404 0.29569 0.0
C1591 C 0.74701 0.7315 0.2963 0.0
C1592 C 0.75072 0.71436 0.28037 0.0
C1593 C 0.75071 0.73007 0.26395 0.0
C1594 C 0.74713 0.76176 0.26301 0.0
C1595 C 0.74749 0.77287 0.24357 0.0
C1596 C 0.71657 0.78812 0.2385 0.0
C1597 C 0.7748 0.79484 0.24019 0.0
C1598 C 0.75184 0.74246 0.23377 0.0
C1599 C 0.75377 0.71809 0.24578 0.0
C1600 C 0.75802 0.68779 0.23997 0.0
C1601 C 0.76027 0.6822 0.22133 0.0
C1602 C 0.75811 0.7068 0.20876 0.0
C1603 C 0.75386 0.7373 0.21513 0.0
H1604 H 0.50296 0.50149 0.03718 0.0
H1605 H 0.60046 0.48274 0.02871 0.0
H1606 H 0.59269 0.48651 0.99567 0.0
H1607 H 0.47472 0.45849 -0.00076 0.0
H1608 H 0.44457 0.48578 0.99398 0.0
H1609 H 0.45789 0.48171 0.01694 0.0
H1610 H 0.46987 0.54034 0.01821 0.0
H1611 H 0.45657 0.5446 0.99525 0.0
H1612 H 0.49486 0.5572 0.00138 0.0
H1613 H 0.57405 0.49157 0.96355 0.0
H1614 H 0.54614 0.49857 0.9347 0.0
H1615 H 0.46105 0.51473 0.96437 0.0
C1616 C 0.52271 0.49815 0.0284 0.0
C1617 C 0.55232 0.49176 0.03553 0.0
C1618 C 0.57756 0.48768 0.02356 0.0
C1619 C 0.57338 0.48975 0.00478 0.0
C1620 C 0.54386 0.49603 0.99822 0.0
C1621 C 0.51899 0.50027 0.00967 0.0
C1622 C 0.48968 0.50691 -0.00081 0.0
C1623 C 0.46528 0.48171 0.00254 0.0
C1624 C 0.47701 0.53918 0.00378 0.0
C1625 C 0.50192 0.50563 0.98003 0.0
C1626 C 0.53321 0.49927 0.97976 0.0
C1627 C 0.54956 0.49663 0.9636 0.0
C1628 C 0.53349 0.50061 0.94729 0.0
C1629 C 0.50142 0.50725 0.94728 0.0
C1630 C 0.48557 0.5098 0.96391 0.0
H1631 H 0.00771 0.50165 0.47183 0.0
H1632 H 0.10619 0.49057 0.48105 0.0
H1633 H 0.09765 0.49541 0.51396 0.0
H1634 H 0.99478 0.55826 0.50685 0.0
H1635 H 0.95749 0.54297 0.51298 0.0
H1636 H 0.97142 0.53888 0.49015 0.0
H1637 H 0.96399 0.47956 0.49214 0.0
H1638 H 0.95004 0.48345 0.51498 0.0
H1639 H 0.98229 0.45839 0.51021 0.0
H1640 H 0.07825 0.50026 0.54584 0.0
H1641 H 0.04947 0.5056 0.57449 0.0
H1642 H 0.96376 0.51429 0.54433 0.0
C1643 C 0.02752 0.50029 0.48075 0.0
C1644 C 0.05763 0.4957 0.47387 0.0
C1645 C 0.08292 0.4941 0.48601 0.0
C1646 C 0.0783 0.49682 0.50472 0.0
C1647 C 0.04831 0.50125 0.51104 0.0
C1648 C 0.02336 0.50307 0.49943 0.0
C1649 C 0.99346 0.50782 0.50969 0.0
C1650 C 0.97841 0.53883 0.50461 0.0
C1651 C 0.97114 0.48068 0.50657 0.0
C1652 C 0.00548 0.50821 0.52891 0.0
C1653 C 0.03717 0.50436 0.52939 0.0
C1654 C 0.05344 0.5034 0.54564 0.0
C1655 C 0.03687 0.50641 0.56183 0.0
C1656 C 0.00437 0.51042 0.56165 0.0
C1657 C 0.9886 0.51143 0.54493 0.0
H1658 H 0.01917 0.48401 0.04436 0.0
H1659 H 0.9585 0.56346 0.04964 0.0
H1660 H 0.94292 0.55764 0.01771 0.0
H1661 H 0.04466 0.50043 0.99885 0.0
H1662 H 0.04559 0.46037 0.99221 0.0
H1663 H 0.0521 0.47088 0.01548 0.0
H1664 H 0.00767 0.43453 0.02541 0.0
H1665 H 0.00094 0.42398 0.00217 0.0
H1666 H 0.9698 0.43933 0.01564 0.0
H1667 H 0.9331 0.54266 0.98557 0.0
H1668 H 0.93092 0.52066 0.95486 0.0
H1669 H 0.99854 0.45128 0.97027 0.0
C1670 C 0.00266 0.50025 0.0388 0.0
C1671 C 0.99002 0.52419 0.04951 0.0
C1672 C 0.96852 0.54497 0.04171 0.0
C1673 C 0.95949 0.54183 0.02359 0.0
C1674 C 0.97225 0.51788 0.01346 0.0
C1675 C 0.99347 0.49753 0.02073 0.0
C1676 C 0.00374 0.47386 0.00688 0.0
C1677 C 0.03859 0.47656 0.00314 0.0
C1678 C 0.995 0.44098 0.01289 0.0
C1679 C 0.98486 0.48403 0.9907 0.0
C1680 C 0.9668 0.50941 0.99482 0.0
C1681 C 0.94718 0.52284 0.98215 0.0
C1682 C 0.94607 0.5101 0.96475 0.0
C1683 C 0.96458 0.48423 0.96014 0.0
C1684 C 0.98417 0.47107 0.97335 0.0
H1685 H 0.54489 0.53345 0.47237 0.0
H1686 H 0.46675 0.49812 0.44183 0.0
H1687 H 0.44113 0.48319 0.47031 0.0
H1688 H 0.54557 0.47432 0.50593 0.0
H1689 H 0.55581 0.4999 0.52421 0.0
H1690 H 0.56766 0.50879 0.50145 0.0
H1691 H 0.54099 0.56228 0.50371 0.0
H1692 H 0.52915 0.5536 0.52651 0.0
H1693 H 0.50073 0.56438 0.50983 0.0
H1694 H 0.42453 0.47097 0.50197 0.0
H1695 H 0.41779 0.46292 0.53479 0.0
H1696 H 0.50679 0.50615 0.54462 0.0
C1697 C 0.52231 0.52276 0.47165 0.0
C1698 C 0.50783 0.51698 0.45487 0.0
C1699 C 0.47832 0.5028 0.45453 0.0
C1700 C 0.46355 0.49422 0.47063 0.0
C1701 C 0.47859 0.50002 0.48694 0.0
C1702 C 0.50725 0.51402 0.48758 0.0
C1703 C 0.51859 0.51721 0.50687 0.0
C1704 C 0.54869 0.49896 0.50978 0.0
C1705 C 0.52259 0.5514 0.51203 0.0
C1706 C 0.49187 0.50266 0.51694 0.0
C1707 C 0.46902 0.49294 0.5052 0.0
C1708 C 0.44221 0.47856 0.51132 0.0
C1709 C 0.43863 0.47406 0.52998 0.0
C1710 C 0.46174 0.48391 0.54227 0.0
C1711 C 0.48867 0.49838 0.53559 0.0
H1712 H 0.29989 0.17299 0.37516 0.0
H1713 H 0.3598 0.21201 0.33399 0.0
H1714 H 0.40226 0.17809 0.34428 0.0
H1715 H 0.36025 0.1615 0.41021 0.0
H1716 H 0.34312 0.12573 0.41763 0.0
H1717 H 0.31906 0.15601 0.40859 0.0
H1718 H 0.29701 0.1178 0.38486 0.0
H1719 H 0.32106 0.08752 0.39373 0.0
H1720 H 0.32319 0.09746 0.37008 0.0
H1721 H 0.436 0.13537 0.35673 0.0
H1722 H 0.45826 0.08836 0.3706 0.0
H1723 H 0.37596 0.07821 0.40362 0.0
C1724 C 0.32212 0.17495 0.36854 0.0
C1725 C 0.32653 0.19519 0.35378 0.0
C1726 C 0.35591 0.19678 0.34538 0.0
C1727 C 0.38018 0.17762 0.35115 0.0
C1728 C 0.37475 0.1573 0.36544 0.0
C1729 C 0.3465 0.1561 0.37413 0.0
C1730 C 0.34571 0.13076 0.3882 0.0
C1731 C 0.34181 0.14432 0.40729 0.0
C1732 C 0.32025 0.10699 0.38395 0.0
C1733 C 0.37757 0.11713 0.38566 0.0
C1734 C 0.39416 0.13291 0.37263 0.0
C1735 C 0.42341 0.12316 0.36716 0.0
C1736 C 0.43583 0.0964 0.37508 0.0
C1737 C 0.41891 0.07967 0.38824 0.0
C1738 C 0.38966 0.09062 0.39375 0.0
H1739 H 0.10202 0.04393 0.61456 0.0
H1740 H 0.05553 0.11516 0.5834 0.0
H1741 H 0.09157 0.15418 0.59583 0.0
H1742 H 0.11942 0.09095 0.65437 0.0
H1743 H 0.15648 0.07277 0.65764 0.0
H1744 H 0.1252 0.05138 0.64755 0.0
H1745 H 0.15964 0.03932 0.61973 0.0
H1746 H 0.19092 0.06081 0.62965 0.0
H1747 H 0.17708 0.07072 0.60738 0.0
H1748 H 0.13502 0.18474 0.61049 0.0
H1749 H 0.18206 0.20399 0.62583 0.0
H1750 H 0.19987 0.11179 0.64647 0.0
C1751 C 0.09899 0.0678 0.61053 0.0
C1752 C 0.07585 0.07652 0.59806 0.0
C1753 C 0.07302 0.10797 0.593 0.0
C1754 C 0.09336 0.13027 0.6 0.0
C1755 C 0.11629 0.1207 0.61201 0.0
C1756 C 0.11909 0.09019 0.61726 0.0
C1757 C 0.14661 0.08536 0.62953 0.0
C1758 C 0.1363 0.07448 0.64839 0.0
C1759 C 0.16993 0.06273 0.62106 0.0
C1760 C 0.1593 0.11784 0.63013 0.0
C1761 C 0.14139 0.13802 0.62012 0.0
C1762 C 0.14909 0.16916 0.61845 0.0
C1763 C 0.17584 0.17987 0.62719 0.0
C1764 C 0.19466 0.15937 0.63731 0.0
C1765 C 0.18604 0.12805 0.63882 0.0
H1766 H 0.19317 0.87217 0.83716 0.0
H1767 H 0.16509 0.7861 0.86239 0.0
H1768 H 0.11474 0.80955 0.87033 0.0
H1769 H 0.16273 0.92042 0.87005 0.0
H1770 H 0.15094 0.95043 0.85461 0.0
H1771 H 0.18274 0.92558 0.84887 0.0
H1772 H 0.15536 0.91048 0.81894 0.0
H1773 H 0.12336 0.93531 0.82462 0.0
H1774 H 0.11667 0.8951 0.81964 0.0
H1775 H 0.06953 0.84404 0.8779 0.0
H1776 H 0.03447 0.88703 0.8857 0.0
H1777 H 0.09294 0.95035 0.85567 0.0
C1778 C 0.17624 0.85798 0.84403 0.0
C1779 C 0.18296 0.82723 0.84906 0.0
C1780 C 0.16036 0.80967 0.85834 0.0
C1781 C 0.13167 0.82276 0.86283 0.0
C1782 C 0.12599 0.85334 0.85789 0.0
C1783 C 0.14768 0.87069 0.84868 0.0
C1784 C 0.13717 0.90377 0.84631 0.0
C1785 C 0.15973 0.92636 0.85551 0.0
C1786 C 0.13288 0.91161 0.82618 0.0
C1787 C 0.1065 0.90261 0.85606 0.0
C1788 C 0.10019 0.87324 0.86241 0.0
C1789 C 0.07405 0.86703 0.87279 0.0
C1790 C 0.05426 0.89162 0.87715 0.0
C1791 C 0.06091 0.92207 0.87127 0.0
C1792 C 0.087 0.92732 0.86022 0.0
H1793 H 0.32264 0.85551 0.16126 0.0
H1794 H 0.31367 0.79463 0.11489 0.0
H1795 H 0.36032 0.8182 0.10133 0.0
H1796 H 0.34165 0.92086 0.13722 0.0
H1797 H 0.36845 0.93591 0.15368 0.0
H1798 H 0.33748 0.91112 0.16081 0.0
H1799 H 0.37699 0.87395 0.17571 0.0
H1800 H 0.40818 0.89871 0.1686 0.0
H1801 H 0.40823 0.85845 0.16237 0.0
H1802 H 0.40456 0.85243 0.09148 0.0
H1803 H 0.44095 0.89527 0.0857 0.0
H1804 H 0.42002 0.93356 0.13858 0.0
C1805 C 0.3308 0.84659 0.14843 0.0
C1806 C 0.31458 0.82313 0.13916 0.0
C1807 C 0.32581 0.81251 0.12227 0.0
C1808 C 0.35235 0.82567 0.1145 0.0
C1809 C 0.36743 0.84925 0.12387 0.0
C1810 C 0.35705 0.8595 0.1405 0.0
C1811 C 0.37544 0.88698 0.1471 0.0
C1812 C 0.3545 0.91538 0.14985 0.0
C1813 C 0.39328 0.87903 0.16447 0.0
C1814 C 0.39714 0.89135 0.13128 0.0
C1815 C 0.39259 0.86908 0.11815 0.0
C1816 C 0.40862 0.86971 0.10179 0.0
C1817 C 0.42926 0.89415 0.09863 0.0
C1818 C 0.43338 0.91777 0.11169 0.0
C1819 C 0.41762 0.91576 0.12838 0.0
H1820 H 0.69527 0.87293 0.65172 0.0
H1821 H 0.68473 0.79236 0.6173 0.0
H1822 H 0.63677 0.81476 0.60458 0.0
H1823 H 0.6131 0.88591 0.66057 0.0
H1824 H 0.6173 0.92732 0.65988 0.0
H1825 H 0.64903 0.90353 0.66731 0.0
H1826 H 0.68437 0.92834 0.64299 0.0
H1827 H 0.65281 0.95215 0.6355 0.0
H1828 H 0.67259 0.92754 0.61959 0.0
H1829 H 0.59181 0.84805 0.59421 0.0
H1830 H 0.55478 0.88959 0.58662 0.0
H1831 H 0.59581 0.94782 0.62797 0.0
C1832 C 0.68272 0.85971 0.64169 0.0
C1833 C 0.69369 0.83085 0.63553 0.0
C1834 C 0.67668 0.81449 0.62225 0.0
C1835 C 0.64939 0.82699 0.61499 0.0
C1836 C 0.63945 0.85574 0.62123 0.0
C1837 C 0.65563 0.87181 0.63432 0.0
C1838 C 0.64128 0.90302 0.63802 0.0
C1839 C 0.62947 0.90505 0.65761 0.0
C1840 C 0.66412 0.9293 0.63376 0.0
C1841 C 0.61484 0.90237 0.62469 0.0
C1842 C 0.61389 0.87482 0.61524 0.0
C1843 C 0.59218 0.86959 0.60165 0.0
C1844 C 0.57123 0.89332 0.59744 0.0
C1845 C 0.57236 0.92195 0.60671 0.0
C1846 C 0.59419 0.92617 0.62069 0.0
H1847 H 0.88628 0.93782 0.39732 0.0
H1848 H 0.95839 0.92527 0.35718 0.0
H1849 H 0.93345 0.87671 0.3472 0.0
H1850 H 0.87417 0.85549 0.40816 0.0
H1851 H 0.83301 0.86057 0.41035 0.0
H1852 H 0.85878 0.89192 0.4158 0.0
H1853 H 0.8298 0.9273 0.39313 0.0
H1854 H 0.80402 0.89614 0.38762 0.0
H1855 H 0.82556 0.91507 0.36994 0.0
H1856 H 0.89789 0.83198 0.33994 0.0
H1857 H 0.85391 0.79654 0.3351 0.0
H1858 H 0.80515 0.83964 0.3798 0.0
C1859 C 0.89726 0.92459 0.38667 0.0
C1860 C 0.92438 0.93523 0.37809 0.0
C1861 C 0.93766 0.91747 0.36399 0.0
C1862 C 0.92373 0.88982 0.35829 0.0
C1863 C 0.89665 0.88029 0.36687 0.0
C1864 C 0.88361 0.89719 0.38078 0.0
C1865 C 0.8531 0.8836 0.38676 0.0
C1866 C 0.85489 0.87221 0.40644 0.0
C1867 C 0.82657 0.90691 0.3842 0.0
C1868 C 0.85049 0.85687 0.3737 0.0
C1869 C 0.87602 0.85497 0.36252 0.0
C1870 C 0.87796 0.83304 0.34875 0.0
C1871 C 0.85286 0.81299 0.34612 0.0
C1872 C 0.82608 0.81531 0.35708 0.0
C1873 C 0.82532 0.83714 0.37126 0.0
H1874 H 0.82131 0.13053 0.15157 0.0
H1875 H 0.80239 0.19503 0.10797 0.0
H1876 H 0.84461 0.17175 0.09002 0.0
H1877 H 0.90551 0.1278 0.14591 0.0
H1878 H 0.90728 0.08714 0.15106 0.0
H1879 H 0.87759 0.11084 0.16104 0.0
H1880 H 0.83557 0.0742 0.14821 0.0
H1881 H 0.86507 0.05041 0.13824 0.0
H1882 H 0.83478 0.06617 0.12427 0.0
H1883 H 0.88623 0.13858 0.07598 0.0
H1884 H 0.92274 0.0976 0.06677 0.0
H1885 H 0.91402 0.05543 0.11983 0.0
C1886 C 0.82626 0.1401 0.13835 0.0
C1887 C 0.8086 0.16463 0.13118 0.0
C1888 C 0.81568 0.17626 0.11375 0.0
C1889 C 0.83968 0.16327 0.10348 0.0
C1890 C 0.85642 0.13885 0.11091 0.0
C1891 C 0.85003 0.12745 0.12797 0.0
C1892 C 0.87003 0.09985 0.13245 0.0
C1893 C 0.89137 0.10684 0.14857 0.0
C1894 C 0.85017 0.07096 0.13599 0.0
C1895 C 0.88816 0.09695 0.11506 0.0
C1896 C 0.88028 0.11983 0.10286 0.0
C1897 C 0.89284 0.12078 0.0855 0.0
C1898 C 0.91355 0.09739 0.0804 0.0
C1899 C 0.92131 0.07334 0.09259 0.0
C1900 C 0.90883 0.07362 0.11024 0.0
H1901 H 0.58668 0.018 0.85553 0.0
H1902 H 0.53887 0.07426 0.89529 0.0
H1903 H 0.57128 0.11893 0.88689 0.0
H1904 H 0.65971 0.04573 0.86437 0.0
H1905 H 0.67312 0.04507 0.84128 0.0
H1906 H 0.64326 0.01889 0.84839 0.0
H1907 H 0.60717 0.03935 0.82309 0.0
H1908 H 0.63708 0.06547 0.81577 0.0
H1909 H 0.59939 0.08019 0.82155 0.0
H1910 H 0.61302 0.15543 0.87686 0.0
H1911 H 0.65984 0.18138 0.86526 0.0
H1912 H 0.68009 0.10114 0.83207 0.0
C1913 C 0.58242 0.03991 0.86215 0.0
C1914 C 0.56016 0.04266 0.87602 0.0
C1915 C 0.55572 0.07163 0.88457 0.0
C1916 C 0.57399 0.09716 0.87987 0.0
C1917 C 0.59642 0.09338 0.86653 0.0
C1918 C 0.60049 0.06555 0.85766 0.0
C1919 C 0.62776 0.0668 0.84487 0.0
C1920 C 0.65241 0.0427 0.85005 0.0
C1921 C 0.61721 0.06272 0.82515 0.0
C1922 C 0.63899 0.09935 0.84834 0.0
C1923 C 0.62045 0.11443 0.86074 0.0
C1924 C 0.62742 0.14404 0.86692 0.0
C1925 C 0.65413 0.15854 0.86032 0.0
C1926 C 0.67355 0.14335 0.84771 0.0
C1927 C 0.66555 0.11353 0.84153 0.0
H1928 H 0.80132 0.62349 0.84465 0.0
H1929 H 0.82562 0.70559 0.87523 0.0
H1930 H 0.87148 0.6786 0.88742 0.0
H1931 H 0.81978 0.57036 0.87844 0.0
H1932 H 0.83462 0.54138 0.86323 0.0
H1933 H 0.80587 0.5683 0.85548 0.0
H1934 H 0.84193 0.58491 0.82921 0.0
H1935 H 0.87089 0.55804 0.83694 0.0
H1936 H 0.88044 0.5983 0.83421 0.0
H1937 H 0.9124 0.64129 0.89794 0.0
H1938 H 0.94362 0.59614 0.90703 0.0
H1939 H 0.89191 0.53865 0.86961 0.0
C1940 C 0.81652 0.63602 0.85368 0.0
C1941 C 0.80998 0.6667 0.85894 0.0
C1942 C 0.83023 0.68209 0.871 0.0
C1943 C 0.85639 0.667 0.87792 0.0
C1944 C 0.86197 0.63661 0.87259 0.0
C1945 C 0.84257 0.62131 0.86075 0.0
C1946 C 0.85233 0.58805 0.85816 0.0
C1947 C 0.82662 0.56572 0.8642 0.0
C1948 C 0.86197 0.58198 0.83846 0.0
C1949 C 0.87982 0.58675 0.87075 0.0
C1950 C 0.88531 0.61508 0.87876 0.0
C1951 C 0.90852 0.61908 0.89161 0.0
C1952 C 0.92614 0.59328 0.89668 0.0
C1953 C 0.92025 0.56386 0.88902 0.0
C1954 C 0.8972 0.56085 0.87561 0.0
H1955 H 0.66078 0.63908 0.15973 0.0
H1956 H 0.66835 0.71045 0.11874 0.0
H1957 H 0.62324 0.68842 0.10283 0.0
H1958 H 0.64706 0.57979 0.13078 0.0
H1959 H 0.62029 0.55923 0.14506 0.0
H1960 H 0.64883 0.58404 0.15503 0.0
H1961 H 0.60578 0.61472 0.17154 0.0
H1962 H 0.57698 0.58984 0.16162 0.0
H1963 H 0.57443 0.6311 0.15866 0.0
H1964 H 0.5825 0.65423 0.08915 0.0
H1965 H 0.55101 0.61024 0.07851 0.0
H1966 H 0.57077 0.56128 0.12843 0.0
C1967 C 0.65244 0.65067 0.1477 0.0
C1968 C 0.668 0.67656 0.14052 0.0
C1969 C 0.65669 0.69066 0.12454 0.0
C1970 C 0.63099 0.67839 0.11545 0.0
C1971 C 0.61676 0.65221 0.12261 0.0
C1972 C 0.62701 0.63865 0.13846 0.0
C1973 C 0.61023 0.6087 0.14224 0.0
C1974 C 0.63296 0.58135 0.14333 0.0
C1975 C 0.59069 0.61126 0.15954 0.0
C1976 C 0.58999 0.60672 0.12561 0.0
C1977 C 0.59353 0.63232 0.11463 0.0
C1978 C 0.5791 0.63435 0.0978 0.0
C1979 C 0.56127 0.60923 0.09186 0.0
C1980 C 0.55841 0.58232 0.10264 0.0
C1981 C 0.57226 0.5816 0.11993 0.0
H1982 H 0.70392 0.35098 0.40093 0.0
H1983 H 0.67286 0.31889 0.34834 0.0
H1984 H 0.62548 0.35015 0.35142 0.0
H1985 H 0.62579 0.35639 0.42238 0.0
H1986 H 0.63635 0.39092 0.43453 0.0
H1987 H 0.66523 0.36218 0.42946 0.0
H1988 H 0.69855 0.40396 0.41364 0.0
H1989 H 0.66976 0.4327 0.41851 0.0
H1990 H 0.68201 0.42637 0.39549 0.0
H1991 H 0.5853 0.39038 0.35829 0.0
H1992 H 0.55497 0.43532 0.36886 0.0
H1993 H 0.61231 0.44054 0.41696 0.0
C1994 C 0.68677 0.3498 0.39029 0.0
C1995 C 0.69207 0.33244 0.37442 0.0
C1996 C 0.66927 0.33197 0.36066 0.0
C1997 C 0.64223 0.34959 0.3623 0.0
C1998 C 0.63821 0.36731 0.37785 0.0
C1999 C 0.65971 0.36727 0.3917 0.0
C2000 C 0.65134 0.39039 0.40624 0.0
C2001 C 0.64425 0.37398 0.42422 0.0
C2002 C 0.67693 0.41479 0.40859 0.0
C2003 C 0.62246 0.40427 0.39809 0.0
C2004 C 0.61499 0.39043 0.38182 0.0
C2005 C 0.59057 0.40101 0.37117 0.0
C2006 C 0.57355 0.42661 0.37725 0.0
C2007 C 0.58119 0.44135 0.39376 0.0
C2008 C 0.60563 0.42958 0.40439 0.0
H2009 H 0.90984 0.41763 0.59853 0.0
H2010 H 0.96778 0.41741 0.64646 0.0
H2011 H 0.94265 0.36915 0.65667 0.0
H2012 H 0.84298 0.3968 0.61995 0.0
H2013 H 0.82809 0.37321 0.60184 0.0
H2014 H 0.85426 0.40426 0.59687 0.0
H2015 H 0.89105 0.36594 0.58064 0.0
H2016 H 0.86489 0.33466 0.58559 0.0
H2017 H 0.90474 0.33225 0.59253 0.0
H2018 H 0.90669 0.32477 0.66338 0.0
H2019 H 0.86185 0.28996 0.66671 0.0
H2020 H 0.82744 0.3201 0.61444 0.0
C2021 C 0.91786 0.40706 0.61096 0.0
C2022 C 0.94089 0.42119 0.62166 0.0
C2023 C 0.95027 0.4069 0.638 0.0
C2024 C 0.93622 0.37941 0.64386 0.0
C2025 C 0.91302 0.36648 0.63316 0.0
C2026 C 0.90401 0.37985 0.61701 0.0
C2027 C 0.87636 0.36351 0.60896 0.0
C2028 C 0.84881 0.38577 0.6068 0.0
C2029 C 0.88478 0.34818 0.59086 0.0
C2030 C 0.87037 0.33962 0.62345 0.0
C2031 C 0.8921 0.34122 0.63713 0.0
C2032 C 0.88985 0.32297 0.65261 0.0
C2033 C 0.86428 0.30325 0.65438 0.0
C2034 C 0.84113 0.30227 0.64083 0.0
C2035 C 0.84485 0.32006 0.62496 0.0
H2036 H 0.10139 0.41806 0.08763 0.0
H2037 H 0.03549 0.41707 0.13188 0.0
H2038 H 0.06068 0.37033 0.14424 0.0
H2039 H 0.11124 0.33253 0.0834 0.0
H2040 H 0.15194 0.33656 0.0788 0.0
H2041 H 0.12536 0.3663 0.07177 0.0
H2042 H 0.15735 0.40705 0.08937 0.0
H2043 H 0.1839 0.37755 0.09645 0.0
H2044 H 0.16485 0.40123 0.11313 0.0
H2045 H 0.09728 0.32819 0.15388 0.0
H2046 H 0.14292 0.29586 0.16052 0.0
H2047 H 0.18483 0.32519 0.11002 0.0
C2048 C 0.09166 0.40758 0.09965 0.0
C2049 C 0.06638 0.42112 0.10875 0.0
C2050 C 0.05477 0.40699 0.12464 0.0
C2051 C 0.06884 0.38036 0.13171 0.0
C2052 C 0.09431 0.36808 0.12265 0.0
C2053 C 0.1055 0.3812 0.10691 0.0
C2054 C 0.13514 0.36587 0.10083 0.0
C2055 C 0.13063 0.34932 0.08262 0.0
C2056 C 0.16187 0.38932 0.09991 0.0
C2057 C 0.13967 0.34295 0.11604 0.0
C2058 C 0.11559 0.34408 0.12831 0.0
C2059 C 0.11599 0.32672 0.1442 0.0
C2060 C 0.14204 0.30842 0.14786 0.0
C2061 C 0.16745 0.30796 0.13578 0.0
C2062 C 0.16569 0.32479 0.11945 0.0
H2063 H 0.38773 0.4317 0.90469 0.0
H2064 H 0.45824 0.41938 0.86356 0.0
H2065 H 0.43109 0.37275 0.85252 0.0
H2066 H 0.37292 0.34925 0.91352 0.0
H2067 H 0.33203 0.35553 0.91629 0.0
H2068 H 0.359 0.38559 0.92221 0.0
H2069 H 0.3306 0.42353 0.90074 0.0
H2070 H 0.30359 0.39367 0.89478 0.0
H2071 H 0.32523 0.41311 0.87733 0.0
H2072 H 0.39372 0.32999 0.84448 0.0
H2073 H 0.34848 0.29629 0.83933 0.0
H2074 H 0.30265 0.33761 0.88564 0.0
C2075 C 0.39784 0.41892 0.89357 0.0
C2076 C 0.42519 0.42908 0.88504 0.0
C2077 C 0.43735 0.41194 0.87034 0.0
C2078 C 0.42216 0.38538 0.86403 0.0
C2079 C 0.39495 0.37627 0.87261 0.0
C2080 C 0.38295 0.39256 0.88708 0.0
C2081 C 0.35218 0.37956 0.89306 0.0
C2082 C 0.35417 0.36672 0.91242 0.0
C2083 C 0.32639 0.40391 0.89136 0.0
C2084 C 0.34826 0.3539 0.87939 0.0
C2085 C 0.37334 0.35201 0.86786 0.0
C2086 C 0.37412 0.33104 0.85355 0.0
C2087 C 0.34832 0.31198 0.85074 0.0
C2088 C 0.32202 0.31428 0.86208 0.0
C2089 C 0.32243 0.33511 0.87679 0.0
H2090 H 0.37897 0.56079 0.59667 0.0
H2091 H 0.46278 0.57774 0.62738 0.0
H2092 H 0.44055 0.6268 0.63866 0.0
H2093 H 0.36331 0.64075 0.58432 0.0
H2094 H 0.32212 0.63616 0.58674 0.0
H2095 H 0.34565 0.60371 0.58015 0.0
H2096 H 0.32415 0.57197 0.60712 0.0
H2097 H 0.30054 0.60425 0.61375 0.0
H2098 H 0.32712 0.58737 0.62972 0.0
H2099 H 0.40768 0.67279 0.64772 0.0
H2100 H 0.36648 0.71056 0.65465 0.0
H2101 H 0.3047 0.66242 0.61794 0.0
C2102 C 0.39287 0.57492 0.60561 0.0
C2103 C 0.42265 0.5655 0.61111 0.0
C2104 C 0.43991 0.58456 0.62297 0.0
C2105 C 0.42753 0.61249 0.62939 0.0
C2106 C 0.39796 0.62096 0.62377 0.0
C2107 C 0.38089 0.60267 0.61215 0.0
C2108 C 0.3491 0.61598 0.60884 0.0
C2109 C 0.34481 0.62467 0.58883 0.0
C2110 C 0.32374 0.59356 0.61525 0.0
C2111 C 0.35065 0.64438 0.62068 0.0
C2112 C 0.37908 0.6471 0.62905 0.0
C2113 C 0.38542 0.671 0.64113 0.0
C2114 C 0.36188 0.69236 0.64497 0.0
C2115 C 0.33237 0.68947 0.63683 0.0
C2116 C 0.32702 0.66539 0.62433 0.0
H2117 H 0.08907 0.55724 0.38172 0.0
H2118 H 0.06572 0.61028 0.42967 0.0
H2119 H 0.09849 0.65315 0.41877 0.0
H2120 H 0.16617 0.57674 0.38038 0.0
H2121 H 0.169 0.57891 0.35608 0.0
H2122 H 0.14048 0.55434 0.36635 0.0
H2123 H 0.09714 0.58217 0.34844 0.0
H2124 H 0.1256 0.60674 0.33797 0.0
H2125 H 0.09349 0.62357 0.34998 0.0
H2126 H 0.13879 0.68737 0.40442 0.0
H2127 H 0.18188 0.71082 0.38729 0.0
H2128 H 0.17797 0.63527 0.34872 0.0
C2129 C 0.09026 0.57812 0.38977 0.0
C2130 C 0.07481 0.58042 0.40655 0.0
C2131 C 0.07723 0.60804 0.41673 0.0
C2132 C 0.09578 0.63252 0.41064 0.0
C2133 C 0.11142 0.62911 0.39428 0.0
C2134 C 0.10855 0.60271 0.38389 0.0
C2135 C 0.12936 0.60378 0.36746 0.0
C2136 C 0.15262 0.57686 0.36759 0.0
C2137 C 0.11025 0.60409 0.34993 0.0
C2138 C 0.14521 0.63444 0.37053 0.0
C2139 C 0.13439 0.64888 0.38596 0.0
C2140 C 0.14709 0.67652 0.39215 0.0
C2141 C 0.17162 0.6896 0.38237 0.0
C2142 C 0.18319 0.67494 0.36662 0.0
C2143 C 0.16943 0.64725 0.36057 0.0
loop_
_geom_bond_atom_site_label_1
_geom_bond_atom_site_label_2
_geom_bond_distance
_geom_bond_site_symmetry_2
_ccdc_geom_bond_type
C0 O1 1.160 . S
C0 O7 1.185 . S
O1 C0 1.160 . S
O2 Zn3 1.899 . S
O2 C10 1.284 . S
Zn3 O2 1.899 . S
Zn3 O4 2.032 . S
Zn3 O7 2.086 . S
Zn3 O12 1.977 . S
O4 Zn3 2.032 . S
O4 C8 1.278 . S
C5 O6 1.203 . S
C5 O12 1.267 . S
O6 C5 1.203 . S
O7 C0 1.185 . S
O7 Zn3 2.086 . S
C8 O4 1.278 . S
C8 O9 1.211 . S
O9 C8 1.211 . S
C10 O2 1.284 . S
C10 O11 1.273 . S
O11 C10 1.273 . S
O12 Zn3 1.977 . S
O12 C5 1.267 . S
C13 O14 1.160 . S
C13 O20 1.185 . S
O14 C13 1.160 . S
O15 Zn16 1.899 . S
O15 C23 1.284 . S
Zn16 O15 1.899 . S
Zn16 O17 2.032 . S
Zn16 O20 2.086 1_565 S
Zn16 O25 1.977 . S
O17 Zn16 2.032 . S
O17 C21 1.278 . S
C18 O19 1.203 . S
C18 O25 1.267 1_655 S
O19 C18 1.203 . S
O20 C13 1.185 . S
O20 Zn16 2.086 1_545 S
C21 O17 1.278 . S
C21 O22 1.211 . S
O22 C21 1.211 . S
C23 O15 1.284 . S
C23 O24 1.273 . S
O24 C23 1.273 . S
O25 Zn16 1.977 . S
O25 C18 1.267 1_455 S
C26 O27 1.160 . S
C26 O33 1.185 . S
O27 C26 1.160 . S
O28 Zn29 1.899 . S
O28 C36 1.284 . S
Zn29 O28 1.899 . S
Zn29 O30 2.032 . S
Zn29 O33 2.086 . S
Zn29 O38 1.977 . S
O30 Zn29 2.032 . S
O30 C34 1.278 . S
C31 O32 1.203 . S
C31 O38 1.267 . S
O32 C31 1.203 . S
O33 C26 1.185 . S
O33 Zn29 2.086 . S
C34 O30 1.278 . S
C34 O35 1.211 . S
O35 C34 1.211 . S
C36 O28 1.284 . S
C36 O37 1.273 . S
O37 C36 1.273 . S
O38 Zn29 1.977 . S
O38 C31 1.267 . S
C39 O40 1.160 . S
C39 O46 1.185 . S
O40 C39 1.160 . S
O41 Zn42 1.899 . S
O41 C49 1.284 . S
Zn42 O41 1.899 . S
Zn42 O43 2.032 . S
Zn42 O46 2.086 1_545 S
Zn42 O51 1.977 . S
O43 Zn42 2.032 . S
O43 C47 1.278 . S
C44 O45 1.203 . S
C44 O51 1.267 . S
O45 C44 1.203 . S
O46 C39 1.185 . S
O46 Zn42 2.086 1_565 S
C47 O43 1.278 . S
C47 O48 1.211 . S
O48 C47 1.211 . S
C49 O41 1.284 . S
C49 O50 1.273 . S
O50 C49 1.273 . S
O51 Zn42 1.977 . S
O51 C44 1.267 . S
C52 O53 1.160 . S
C52 O59 1.185 . S
O53 C52 1.160 . S
O54 Zn55 1.899 . S
O54 C62 1.284 . S
Zn55 O54 1.899 . S
Zn55 O56 2.032 . S
Zn55 O59 2.086 . S
Zn55 O64 1.977 . S
O56 Zn55 2.032 . S
O56 C60 1.278 . S
C57 O58 1.203 . S
C57 O64 1.267 . S
O58 C57 1.203 . S
O59 C52 1.185 . S
O59 Zn55 2.086 . S
C60 O56 1.278 . S
C60 O61 1.211 . S
O61 C60 1.211 . S
C62 O54 1.284 . S
C62 O63 1.273 . S
O63 C62 1.273 . S
O64 Zn55 1.977 . S
O64 C57 1.267 . S
C65 O66 1.160 . S
C65 O72 1.185 . S
O66 C65 1.160 . S
O67 Zn68 1.899 . S
O67 C75 1.284 . S
Zn68 O67 1.899 . S
Zn68 O69 2.032 . S
Zn68 O72 2.086 1_565 S
Zn68 O77 1.977 . S
O69 Zn68 2.032 . S
O69 C73 1.278 . S
C70 O71 1.203 . S
C70 O77 1.267 . S
O71 C70 1.203 . S
O72 C65 1.185 . S
O72 Zn68 2.086 1_545 S
C73 O69 1.278 . S
C73 O74 1.211 . S
O74 C73 1.211 . S
C75 O67 1.284 . S
C75 O76 1.273 . S
O76 C75 1.273 . S
O77 Zn68 1.977 . S
O77 C70 1.267 . S
C78 O79 1.160 . S
C78 O85 1.185 . S
O79 C78 1.160 . S
O80 Zn81 1.899 . S
O80 C88 1.284 . S
Zn81 O80 1.899 . S
Zn81 O82 2.032 . S
Zn81 O85 2.086 . S
Zn81 O90 1.977 . S
O82 Zn81 2.032 . S
O82 C86 1.278 . S
C83 O84 1.203 . S
C83 O90 1.267 . S
O84 C83 1.203 . S
O85 C78 1.185 . S
O85 Zn81 2.086 . S
C86 O82 1.278 . S
C86 O87 1.211 . S
O87 C86 1.211 . S
C88 O80 1.284 . S
C88 O89 1.273 . S
O89 C88 1.273 . S
O90 Zn81 1.977 . S
O90 C83 1.267 . S
C91 O92 1.160 . S
C91 O98 1.185 . S
O92 C91 1.160 . S
O93 Zn94 1.899 . S
O93 C101 1.284 . S
Zn94 O93 1.899 . S
Zn94 O95 2.032 . S
Zn94 O98 2.086 1_545 S
Zn94 O103 1.977 . S
O95 Zn94 2.032 . S
O95 C99 1.278 . S
C96 O97 1.203 . S
C96 O103 1.267 1_655 S
O97 C96 1.203 . S
O98 C91 1.185 . S
O98 Zn94 2.086 1_565 S
C99 O95 1.278 . S
C99 O100 1.211 . S
O100 C99 1.211 . S
C101 O93 1.284 . S
C101 O102 1.273 . S
O102 C101 1.273 . S
O103 Zn94 1.977 . S
O103 C96 1.267 1_455 S
C104 O105 1.160 . S
C104 O111 1.185 . S
O105 C104 1.160 . S
O106 Zn107 1.899 . S
O106 C114 1.284 . S
Zn107 O106 1.899 . S
Zn107 O108 2.032 . S
Zn107 O111 2.086 . S
Zn107 O116 1.977 . S
O108 Zn107 2.032 . S
O108 C112 1.278 . S
C109 O110 1.203 . S
C109 O116 1.267 . S
O110 C109 1.203 . S
O111 C104 1.185 . S
O111 Zn107 2.086 . S
C112 O108 1.278 . S
C112 O113 1.211 . S
O113 C112 1.211 . S
C114 O106 1.284 . S
C114 O115 1.273 . S
O115 C114 1.273 . S
O116 Zn107 1.977 . S
O116 C109 1.267 . S
C117 O118 1.160 . S
C117 O124 1.185 . S
O118 C117 1.160 . S
O119 Zn120 1.899 . S
O119 C127 1.284 . S
Zn120 O119 1.899 . S
Zn120 O121 2.032 . S
Zn120 O124 2.086 1_545 S
Zn120 O129 1.977 . S
O121 Zn120 2.032 . S
O121 C125 1.278 . S
C122 O123 1.203 . S
C122 O129 1.267 1_455 S
O123 C122 1.203 . S
O124 C117 1.185 . S
O124 Zn120 2.086 1_565 S
C125 O121 1.278 . S
C125 O126 1.211 . S
O126 C125 1.211 . S
C127 O119 1.284 . S
C127 O128 1.273 . S
O128 C127 1.273 . S
O129 Zn120 1.977 . S
O129 C122 1.267 1_655 S
C130 O131 1.160 . S
C130 O137 1.185 . S
O131 C130 1.160 . S
O132 Zn133 1.899 . S
O132 C140 1.284 . S
Zn133 O132 1.899 . S
Zn133 O134 2.032 . S
Zn133 O137 2.086 . S
Zn133 O142 1.977 . S
O134 Zn133 2.032 . S
O134 C138 1.278 . S
C135 O136 1.203 . S
C135 O142 1.267 . S
O136 C135 1.203 . S
O137 C130 1.185 . S
O137 Zn133 2.086 . S
C138 O134 1.278 . S
C138 O139 1.211 . S
O139 C138 1.211 . S
C140 O132 1.284 . S
C140 O141 1.273 . S
O141 C140 1.273 . S
O142 Zn133 1.977 . S
O142 C135 1.267 . S
C143 O144 1.160 . S
C143 O150 1.185 . S
O144 C143 1.160 . S
O145 Zn146 1.899 . S
O145 C153 1.284 . S
Zn146 O145 1.899 . S
Zn146 O147 2.032 . S
Zn146 O150 2.086 1_565 S
Zn146 O155 1.977 . S
O147 Zn146 2.032 . S
O147 C151 1.278 . S
C148 O149 1.203 . S
C148 O155 1.267 . S
O149 C148 1.203 . S
O150 C143 1.185 . S
O150 Zn146 2.086 1_545 S
C151 O147 1.278 . S
C151 O152 1.211 . S
O152 C151 1.211 . S
C153 O145 1.284 . S
C153 O154 1.273 . S
O154 C153 1.273 . S
O155 Zn146 1.977 . S
O155 C148 1.267 . S
C156 O157 1.160 . S
C156 O163 1.185 . S
O157 C156 1.160 . S
O158 Zn159 1.899 . S
O158 C166 1.284 . S
Zn159 O158 1.899 . S
Zn159 O160 2.032 . S
Zn159 O163 2.086 . S
Zn159 O168 1.977 . S
O160 Zn159 2.032 . S
O160 C164 1.278 . S
C161 O162 1.203 . S
C161 O168 1.267 . S
O162 C161 1.203 . S
O163 C156 1.185 . S
O163 Zn159 2.086 . S
C164 O160 1.278 . S
C164 O165 1.211 . S
O165 C164 1.211 . S
C166 O158 1.284 . S
C166 O167 1.273 . S
O167 C166 1.273 . S
O168 Zn159 1.977 . S
O168 C161 1.267 . S
C169 O170 1.160 . S
C169 O176 1.185 . S
O170 C169 1.160 . S
O171 Zn172 1.899 . S
O171 C179 1.284 . S
Zn172 O171 1.899 . S
Zn172 O173 2.032 . S
Zn172 O176 2.086 1_545 S
Zn172 O181 1.977 . S
O173 Zn172 2.032 . S
O173 C177 1.278 . S
C174 O175 1.203 . S
C174 O181 1.267 . S
O175 C174 1.203 . S
O176 C169 1.185 . S
O176 Zn172 2.086 1_565 S
C177 O173 1.278 . S
C177 O178 1.211 . S
O178 C177 1.211 . S
C179 O171 1.284 . S
C179 O180 1.273 . S
O180 C179 1.273 . S
O181 Zn172 1.977 . S
O181 C174 1.267 . S
C182 O183 1.160 . S
C182 O189 1.185 . S
O183 C182 1.160 . S
O184 Zn185 1.899 . S
O184 C192 1.284 . S
Zn185 O184 1.899 . S
Zn185 O186 2.032 . S
Zn185 O189 2.086 . S
Zn185 O194 1.977 . S
O186 Zn185 2.032 . S
O186 C190 1.278 . S
C187 O188 1.203 . S
C187 O194 1.267 . S
O188 C187 1.203 . S
O189 C182 1.185 . S
O189 Zn185 2.086 . S
C190 O186 1.278 . S
C190 O191 1.211 . S
O191 C190 1.211 . S
C192 O184 1.284 . S
C192 O193 1.273 . S
O193 C192 1.273 . S
O194 Zn185 1.977 . S
O194 C187 1.267 . S
C195 O196 1.160 . S
C195 O202 1.185 . S
O196 C195 1.160 . S
O197 Zn198 1.899 . S
O197 C205 1.284 . S
Zn198 O197 1.899 . S
Zn198 O199 2.032 . S
Zn198 O202 2.086 1_565 S
Zn198 O207 1.977 . S
O199 Zn198 2.032 . S
O199 C203 1.278 . S
C200 O201 1.203 . S
C200 O207 1.267 1_455 S
O201 C200 1.203 . S
O202 C195 1.185 . S
O202 Zn198 2.086 1_545 S
C203 O199 1.278 . S
C203 O204 1.211 . S
O204 C203 1.211 . S
C205 O197 1.284 . S
C205 O206 1.273 . S
O206 C205 1.273 . S
O207 Zn198 1.977 . S
O207 C200 1.267 1_655 S
C208 O209 1.160 . S
C208 O215 1.185 . S
O209 C208 1.160 . S
O210 Zn211 1.899 . S
O210 C218 1.284 . S
Zn211 O210 1.899 . S
Zn211 O212 2.032 . S
Zn211 O215 2.086 . S
Zn211 O220 1.977 . S
O212 Zn211 2.032 . S
O212 C216 1.278 . S
C213 O214 1.203 . S
C213 O220 1.267 . S
O214 C213 1.203 . S
O215 C208 1.185 . S
O215 Zn211 2.086 . S
C216 O212 1.278 . S
C216 O217 1.211 . S
O217 C216 1.211 . S
C218 O210 1.284 . S
C218 O219 1.273 . S
O219 C218 1.273 . S
O220 Zn211 1.977 . S
O220 C213 1.267 . S
C221 O222 1.160 . S
C221 O228 1.185 . S
O222 C221 1.160 . S
O223 Zn224 1.899 . S
O223 C231 1.284 . S
Zn224 O223 1.899 . S
Zn224 O225 2.032 . S
Zn224 O228 2.086 . S
Zn224 O233 1.977 . S
O225 Zn224 2.032 . S
O225 C229 1.278 . S
C226 O227 1.203 . S
C226 O233 1.267 . S
O227 C226 1.203 . S
O228 C221 1.185 . S
O228 Zn224 2.086 . S
C229 O225 1.278 . S
C229 O230 1.211 . S
O230 C229 1.211 . S
C231 O223 1.284 . S
C231 O232 1.273 . S
O232 C231 1.273 . S
O233 Zn224 1.977 . S
O233 C226 1.267 . S
C234 O235 1.160 . S
C234 O241 1.185 . S
O235 C234 1.160 . S
O236 Zn237 1.899 . S
O236 C244 1.284 . S
Zn237 O236 1.899 . S
Zn237 O238 2.032 . S
Zn237 O241 2.086 . S
Zn237 O246 1.977 . S
O238 Zn237 2.032 . S
O238 C242 1.278 . S
C239 O240 1.203 . S
C239 O246 1.267 . S
O240 C239 1.203 . S
O241 C234 1.185 . S
O241 Zn237 2.086 . S
C242 O238 1.278 . S
C242 O243 1.211 . S
O243 C242 1.211 . S
C244 O236 1.284 . S
C244 O245 1.273 . S
O245 C244 1.273 . S
O246 Zn237 1.977 . S
O246 C239 1.267 . S
C247 O248 1.160 . S
C247 O254 1.185 . S
O248 C247 1.160 . S
O249 Zn250 1.899 . S
O249 C257 1.284 . S
Zn250 O249 1.899 . S
Zn250 O251 2.032 . S
Zn250 O254 2.086 . S
Zn250 O259 1.977 . S
O251 Zn250 2.032 . S
O251 C255 1.278 . S
C252 O253 1.203 . S
C252 O259 1.267 1_455 S
O253 C252 1.203 . S
O254 C247 1.185 . S
O254 Zn250 2.086 . S
C255 O251 1.278 . S
C255 O256 1.211 . S
O256 C255 1.211 . S
C257 O249 1.284 . S
C257 O258 1.273 . S
O258 C257 1.273 . S
O259 Zn250 1.977 . S
O259 C252 1.267 1_655 S
C260 O261 1.160 . S
C260 O267 1.185 . S
O261 C260 1.160 . S
O262 Zn263 1.899 . S
O262 C270 1.284 . S
Zn263 O262 1.899 . S
Zn263 O264 2.032 . S
Zn263 O267 2.086 . S
Zn263 O272 1.977 . S
O264 Zn263 2.032 . S
O264 C268 1.278 . S
C265 O266 1.203 . S
C265 O272 1.267 . S
O266 C265 1.203 . S
O267 C260 1.185 . S
O267 Zn263 2.086 . S
C268 O264 1.278 . S
C268 O269 1.211 . S
O269 C268 1.211 . S
C270 O262 1.284 . S
C270 O271 1.273 . S
O271 C270 1.273 . S
O272 Zn263 1.977 . S
O272 C265 1.267 . S
C273 O274 1.160 . S
C273 O280 1.185 . S
O274 C273 1.160 . S
O275 Zn276 1.899 . S
O275 C283 1.284 . S
Zn276 O275 1.899 . S
Zn276 O277 2.032 . S
Zn276 O280 2.086 . S
Zn276 O285 1.977 . S
O277 Zn276 2.032 . S
O277 C281 1.278 . S
C278 O279 1.203 . S
C278 O285 1.267 1_455 S
O279 C278 1.203 . S
O280 C273 1.185 . S
O280 Zn276 2.086 . S
C281 O277 1.278 . S
C281 O282 1.211 . S
O282 C281 1.211 . S
C283 O275 1.284 . S
C283 O284 1.273 . S
O284 C283 1.273 . S
O285 Zn276 1.977 . S
O285 C278 1.267 1_655 S
C286 O287 1.160 . S
C286 O293 1.185 . S
O287 C286 1.160 . S
O288 Zn289 1.899 . S
O288 C296 1.284 . S
Zn289 O288 1.899 . S
Zn289 O290 2.032 . S
Zn289 O293 2.086 . S
Zn289 O298 1.977 . S
O290 Zn289 2.032 . S
O290 C294 1.278 . S
C291 O292 1.203 . S
C291 O298 1.267 . S
O292 C291 1.203 . S
O293 C286 1.185 . S
O293 Zn289 2.086 . S
C294 O290 1.278 . S
C294 O295 1.211 . S
O295 C294 1.211 . S
C296 O288 1.284 . S
C296 O297 1.273 . S
O297 C296 1.273 . S
O298 Zn289 1.977 . S
O298 C291 1.267 . S
C299 O300 1.160 . S
C299 O306 1.185 . S
O300 C299 1.160 . S
O301 Zn302 1.899 . S
O301 C309 1.284 . S
Zn302 O301 1.899 . S
Zn302 O303 2.032 . S
Zn302 O306 2.086 . S
Zn302 O311 1.977 . S
O303 Zn302 2.032 . S
O303 C307 1.278 . S
C304 O305 1.203 . S
C304 O311 1.267 . S
O305 C304 1.203 . S
O306 C299 1.185 . S
O306 Zn302 2.086 . S
C307 O303 1.278 . S
C307 O308 1.211 . S
O308 C307 1.211 . S
C309 O301 1.284 . S
C309 O310 1.273 . S
O310 C309 1.273 . S
O311 Zn302 1.977 . S
O311 C304 1.267 . S
C312 O313 1.160 . S
C312 O319 1.185 . S
O313 C312 1.160 . S
O314 Zn315 1.899 . S
O314 C322 1.284 . S
Zn315 O314 1.899 . S
Zn315 O316 2.032 . S
Zn315 O319 2.086 . S
Zn315 O324 1.977 . S
O316 Zn315 2.032 . S
O316 C320 1.278 . S
C317 O318 1.203 . S
C317 O324 1.267 . S
O318 C317 1.203 . S
O319 C312 1.185 . S
O319 Zn315 2.086 . S
C320 O316 1.278 . S
C320 O321 1.211 . S
O321 C320 1.211 . S
C322 O314 1.284 . S
C322 O323 1.273 . S
O323 C322 1.273 . S
O324 Zn315 1.977 . S
O324 C317 1.267 . S
C325 O326 1.160 . S
C325 O332 1.185 . S
O326 C325 1.160 . S
O327 Zn328 1.899 . S
O327 C335 1.284 . S
Zn328 O327 1.899 . S
Zn328 O329 2.032 . S
Zn328 O332 2.086 . S
Zn328 O337 1.977 . S
O329 Zn328 2.032 . S
O329 C333 1.278 . S
C330 O331 1.203 . S
C330 O337 1.267 . S
O331 C330 1.203 . S
O332 C325 1.185 . S
O332 Zn328 2.086 . S
C333 O329 1.278 . S
C333 O334 1.211 . S
O334 C333 1.211 . S
C335 O327 1.284 . S
C335 O336 1.273 . S
O336 C335 1.273 . S
O337 Zn328 1.977 . S
O337 C330 1.267 . S
C338 O339 1.160 . S
C338 O345 1.185 . S
O339 C338 1.160 . S
O340 Zn341 1.899 . S
O340 C348 1.284 . S
Zn341 O340 1.899 . S
Zn341 O342 2.032 . S
Zn341 O345 2.086 . S
Zn341 O350 1.977 . S
O342 Zn341 2.032 . S
O342 C346 1.278 . S
C343 O344 1.203 . S
C343 O350 1.267 . S
O344 C343 1.203 . S
O345 C338 1.185 . S
O345 Zn341 2.086 . S
C346 O342 1.278 . S
C346 O347 1.211 . S
O347 C346 1.211 . S
C348 O340 1.284 . S
C348 O349 1.273 . S
O349 C348 1.273 . S
O350 Zn341 1.977 . S
O350 C343 1.267 . S
C351 O352 1.160 . S
C351 O358 1.185 . S
O352 C351 1.160 . S
O353 Zn354 1.899 . S
O353 C361 1.284 . S
Zn354 O353 1.899 . S
Zn354 O355 2.032 . S
Zn354 O358 2.086 . S
Zn354 O363 1.977 . S
O355 Zn354 2.032 . S
O355 C359 1.278 . S
C356 O357 1.203 . S
C356 O363 1.267 1_655 S
O357 C356 1.203 . S
O358 C351 1.185 . S
O358 Zn354 2.086 . S
C359 O355 1.278 . S
C359 O360 1.211 . S
O360 C359 1.211 . S
C361 O353 1.284 . S
C361 O362 1.273 . S
O362 C361 1.273 . S
O363 Zn354 1.977 . S
O363 C356 1.267 1_455 S
C364 O365 1.160 . S
C364 O371 1.185 . S
O365 C364 1.160 . S
O366 Zn367 1.899 . S
O366 C374 1.284 . S
Zn367 O366 1.899 . S
Zn367 O368 2.032 . S
Zn367 O371 2.086 . S
Zn367 O376 1.977 . S
O368 Zn367 2.032 . S
O368 C372 1.278 . S
C369 O370 1.203 . S
C369 O376 1.267 . S
O370 C369 1.203 . S
O371 C364 1.185 . S
O371 Zn367 2.086 . S
C372 O368 1.278 . S
C372 O373 1.211 . S
O373 C372 1.211 . S
C374 O366 1.284 . S
C374 O375 1.273 . S
O375 C374 1.273 . S
O376 Zn367 1.977 . S
O376 C369 1.267 . S
C377 O378 1.160 . S
C377 O384 1.185 . S
O378 C377 1.160 . S
O379 Zn380 1.899 . S
O379 C387 1.284 . S
Zn380 O379 1.899 . S
Zn380 O381 2.032 . S
Zn380 O384 2.086 . S
Zn380 O389 1.977 . S
O381 Zn380 2.032 . S
O381 C385 1.278 . S
C382 O383 1.203 . S
C382 O389 1.267 1_655 S
O383 C382 1.203 . S
O384 C377 1.185 . S
O384 Zn380 2.086 . S
C385 O381 1.278 . S
C385 O386 1.211 . S
O386 C385 1.211 . S
C387 O379 1.284 . S
C387 O388 1.273 . S
O388 C387 1.273 . S
O389 Zn380 1.977 . S
O389 C382 1.267 1_455 S
C390 O391 1.160 . S
C390 O397 1.185 . S
O391 C390 1.160 . S
O392 Zn393 1.899 . S
O392 C400 1.284 . S
Zn393 O392 1.899 . S
Zn393 O394 2.032 . S
Zn393 O397 2.086 . S
Zn393 O402 1.977 . S
O394 Zn393 2.032 . S
O394 C398 1.278 . S
C395 O396 1.203 . S
C395 O402 1.267 . S
O396 C395 1.203 . S
O397 C390 1.185 . S
O397 Zn393 2.086 . S
C398 O394 1.278 . S
C398 O399 1.211 . S
O399 C398 1.211 . S
C400 O392 1.284 . S
C400 O401 1.273 . S
O401 C400 1.273 . S
O402 Zn393 1.977 . S
O402 C395 1.267 . S
C403 O404 1.160 . S
C403 O410 1.185 . S
O404 C403 1.160 . S
O405 Zn406 1.899 . S
O405 C413 1.284 . S
Zn406 O405 1.899 . S
Zn406 O407 2.032 . S
Zn406 O410 2.086 . S
Zn406 O415 1.977 . S
O407 Zn406 2.032 . S
O407 C411 1.278 . S
C408 O409 1.203 . S
C408 O415 1.267 . S
O409 C408 1.203 . S
O410 C403 1.185 . S
O410 Zn406 2.086 . S
C411 O407 1.278 . S
C411 O412 1.211 . S
O412 C411 1.211 . S
C413 O405 1.284 . S
C413 O414 1.273 . S
O414 C413 1.273 . S
O415 Zn406 1.977 . S
O415 C408 1.267 . S
H416 C428 0.930 . S
H417 C430 0.930 . S
H418 C431 0.930 . S
H419 C435 0.959 . S
H420 C435 0.959 . S
H421 C435 0.961 . S
H422 C436 0.960 . S
H423 C436 0.961 . S
H424 C436 0.959 . S
H425 C439 0.929 . S
H426 C440 0.931 . S
H427 C442 0.930 . S
C428 H416 0.930 . S
C428 C429 1.399 . S
C428 C433 1.399 . S
C429 C428 1.399 . S
C429 C430 1.376 . S
C430 H417 0.930 . S
C430 C429 1.376 . S
C430 C431 1.388 . S
C431 H418 0.930 . S
C431 C430 1.388 . S
C431 C432 1.390 . S
C432 C431 1.390 . S
C432 C433 1.394 . S
C432 C438 1.465 . S
C433 C428 1.399 . S
C433 C432 1.394 . S
C433 C434 1.516 . S
C434 C433 1.516 . S
C434 C435 1.502 . S
C434 C436 1.561 . S
C434 C437 1.526 . S
C435 H419 0.959 . S
C435 H420 0.959 . S
C435 H421 0.961 . S
C435 C434 1.502 . S
C436 H422 0.960 . S
C436 H423 0.961 . S
C436 H424 0.959 . S
C436 C434 1.561 . S
C437 C434 1.526 . S
C437 C438 1.396 . S
C437 C442 1.390 . S
C438 C432 1.465 . S
C438 C437 1.396 . S
C438 C439 1.399 . S
C439 H425 0.929 . S
C439 C438 1.399 . S
C439 C440 1.385 . S
C440 H426 0.931 . S
C440 C439 1.385 . S
C440 C441 1.389 . S
C441 C440 1.389 . S
C441 C442 1.387 . S
C442 H427 0.930 . S
C442 C437 1.390 . S
C442 C441 1.387 . S
H443 C455 0.930 . S
H444 C457 0.930 . S
H445 C458 0.930 . S
H446 C462 0.959 . S
H447 C462 0.959 . S
H448 C462 0.961 . S
H449 C463 0.960 . S
H450 C463 0.961 . S
H451 C463 0.959 . S
H452 C466 0.929 . S
H453 C467 0.931 . S
H454 C469 0.930 . S
C455 H443 0.930 . S
C455 C456 1.399 . S
C455 C460 1.399 . S
C456 C455 1.399 . S
C456 C457 1.376 . S
C457 H444 0.930 . S
C457 C456 1.376 . S
C457 C458 1.388 . S
C458 H445 0.930 . S
C458 C457 1.388 . S
C458 C459 1.390 . S
C459 C458 1.390 . S
C459 C460 1.394 . S
C459 C465 1.465 . S
C460 C455 1.399 . S
C460 C459 1.394 . S
C460 C461 1.516 . S
C461 C460 1.516 . S
C461 C462 1.502 . S
C461 C463 1.561 . S
C461 C464 1.526 . S
C462 H446 0.959 . S
C462 H447 0.959 . S
C462 H448 0.961 . S
C462 C461 1.502 . S
C463 H449 0.960 . S
C463 H450 0.961 . S
C463 H451 0.959 . S
C463 C461 1.561 . S
C464 C461 1.526 . S
C464 C465 1.396 . S
C464 C469 1.390 . S
C465 C459 1.465 . S
C465 C464 1.396 . S
C465 C466 1.399 . S
C466 H452 0.929 . S
C466 C465 1.399 . S
C466 C467 1.385 . S
C467 H453 0.931 . S
C467 C466 1.385 . S
C467 C468 1.389 . S
C468 C467 1.389 . S
C468 C469 1.387 . S
C469 H454 0.930 . S
C469 C464 1.390 . S
C469 C468 1.387 . S
H470 C482 0.930 . S
H471 C484 0.930 . S
H472 C485 0.930 . S
H473 C489 0.959 . S
H474 C489 0.959 . S
H475 C489 0.961 . S
H476 C490 0.960 . S
H477 C490 0.961 . S
H478 C490 0.959 . S
H479 C493 0.929 . S
H480 C494 0.931 . S
H481 C496 0.930 . S
C482 H470 0.930 . S
C482 C483 1.399 . S
C482 C487 1.399 . S
C483 C482 1.399 . S
C483 C484 1.376 . S
C484 H471 0.930 . S
C484 C483 1.376 . S
C484 C485 1.388 . S
C485 H472 0.930 . S
C485 C484 1.388 . S
C485 C486 1.390 . S
C486 C485 1.390 . S
C486 C487 1.394 . S
C486 C492 1.465 . S
C487 C482 1.399 . S
C487 C486 1.394 . S
C487 C488 1.516 . S
C488 C487 1.516 . S
C488 C489 1.502 . S
C488 C490 1.561 . S
C488 C491 1.526 . S
C489 H473 0.959 . S
C489 H474 0.959 . S
C489 H475 0.961 . S
C489 C488 1.502 . S
C490 H476 0.960 . S
C490 H477 0.961 . S
C490 H478 0.959 . S
C490 C488 1.561 . S
C491 C488 1.526 . S
C491 C492 1.396 . S
C491 C496 1.390 . S
C492 C486 1.465 . S
C492 C491 1.396 . S
C492 C493 1.399 . S
C493 H479 0.929 . S
C493 C492 1.399 . S
C493 C494 1.385 . S
C494 H480 0.931 . S
C494 C493 1.385 . S
C494 C495 1.389 . S
C495 C494 1.389 . S
C495 C496 1.387 . S
C496 H481 0.930 . S
C496 C491 1.390 . S
C496 C495 1.387 . S
H497 C509 0.930 . S
H498 C511 0.930 . S
H499 C512 0.930 . S
H500 C516 0.959 . S
H501 C516 0.959 . S
H502 C516 0.961 . S
H503 C517 0.960 . S
H504 C517 0.961 . S
H505 C517 0.959 . S
H506 C520 0.929 . S
H507 C521 0.931 . S
H508 C523 0.930 . S
C509 H497 0.930 . S
C509 C510 1.399 . S
C509 C514 1.399 . S
C510 C509 1.399 . S
C510 C511 1.376 . S
C511 H498 0.930 . S
C511 C510 1.376 . S
C511 C512 1.388 . S
C512 H499 0.930 . S
C512 C511 1.388 . S
C512 C513 1.390 . S
C513 C512 1.390 . S
C513 C514 1.394 . S
C513 C519 1.465 . S
C514 C509 1.399 . S
C514 C513 1.394 . S
C514 C515 1.516 . S
C515 C514 1.516 . S
C515 C516 1.502 . S
C515 C517 1.561 . S
C515 C518 1.526 . S
C516 H500 0.959 . S
C516 H501 0.959 . S
C516 H502 0.961 . S
C516 C515 1.502 . S
C517 H503 0.960 . S
C517 H504 0.961 . S
C517 H505 0.959 . S
C517 C515 1.561 . S
C518 C515 1.526 . S
C518 C519 1.396 . S
C518 C523 1.390 . S
C519 C513 1.465 . S
C519 C518 1.396 . S
C519 C520 1.399 . S
C520 H506 0.929 . S
C520 C519 1.399 . S
C520 C521 1.385 . S
C521 H507 0.931 . S
C521 C520 1.385 . S
C521 C522 1.389 . S
C522 C521 1.389 . S
C522 C523 1.387 . S
C523 H508 0.930 . S
C523 C518 1.390 . S
C523 C522 1.387 . S
H524 C536 0.930 . S
H525 C538 0.930 . S
H526 C539 0.930 . S
H527 C543 0.959 . S
H528 C543 0.959 . S
H529 C543 0.961 . S
H530 C544 0.960 . S
H531 C544 0.961 . S
H532 C544 0.959 . S
H533 C547 0.929 . S
H534 C548 0.931 . S
H535 C550 0.930 . S
C536 H524 0.930 . S
C536 C537 1.399 . S
C536 C541 1.399 . S
C537 C536 1.399 . S
C537 C538 1.376 . S
C538 H525 0.930 . S
C538 C537 1.376 . S
C538 C539 1.388 . S
C539 H526 0.930 . S
C539 C538 1.388 . S
C539 C540 1.390 . S
C540 C539 1.390 . S
C540 C541 1.394 . S
C540 C546 1.465 . S
C541 C536 1.399 . S
C541 C540 1.394 . S
C541 C542 1.516 . S
C542 C541 1.516 . S
C542 C543 1.502 . S
C542 C544 1.561 . S
C542 C545 1.526 . S
C543 H527 0.959 . S
C543 H528 0.959 . S
C543 H529 0.961 . S
C543 C542 1.502 . S
C544 H530 0.960 . S
C544 H531 0.961 . S
C544 H532 0.959 . S
C544 C542 1.561 . S
C545 C542 1.526 . S
C545 C546 1.396 . S
C545 C550 1.390 . S
C546 C540 1.465 . S
C546 C545 1.396 . S
C546 C547 1.399 . S
C547 H533 0.929 . S
C547 C546 1.399 . S
C547 C548 1.385 . S
C548 H534 0.931 . S
C548 C547 1.385 . S
C548 C549 1.389 . S
C549 C548 1.389 . S
C549 C550 1.387 . S
C550 H535 0.930 . S
C550 C545 1.390 . S
C550 C549 1.387 . S
H551 C563 0.930 . S
H552 C565 0.930 . S
H553 C566 0.930 . S
H554 C570 0.959 . S
H555 C570 0.959 . S
H556 C570 0.961 . S
H557 C571 0.960 . S
H558 C571 0.961 . S
H559 C571 0.959 . S
H560 C574 0.929 . S
H561 C575 0.931 . S
H562 C577 0.930 . S
C563 H551 0.930 . S
C563 C564 1.399 . S
C563 C568 1.399 . S
C564 C563 1.399 . S
C564 C565 1.376 . S
C565 H552 0.930 . S
C565 C564 1.376 . S
C565 C566 1.388 . S
C566 H553 0.930 . S
C566 C565 1.388 . S
C566 C567 1.390 . S
C567 C566 1.390 . S
C567 C568 1.394 . S
C567 C573 1.465 . S
C568 C563 1.399 . S
C568 C567 1.394 . S
C568 C569 1.516 . S
C569 C568 1.516 . S
C569 C570 1.502 . S
C569 C571 1.561 . S
C569 C572 1.526 . S
C570 H554 0.959 . S
C570 H555 0.959 . S
C570 H556 0.961 . S
C570 C569 1.502 . S
C571 H557 0.960 . S
C571 H558 0.961 . S
C571 H559 0.959 . S
C571 C569 1.561 . S
C572 C569 1.526 . S
C572 C573 1.396 . S
C572 C577 1.390 . S
C573 C567 1.465 . S
C573 C572 1.396 . S
C573 C574 1.399 . S
C574 H560 0.929 . S
C574 C573 1.399 . S
C574 C575 1.385 . S
C575 H561 0.931 . S
C575 C574 1.385 . S
C575 C576 1.389 . S
C576 C575 1.389 . S
C576 C577 1.387 . S
C577 H562 0.930 . S
C577 C572 1.390 . S
C577 C576 1.387 . S
H578 C590 0.930 . S
H579 C592 0.930 . S
H580 C593 0.930 . S
H581 C597 0.959 . S
H582 C597 0.959 . S
H583 C597 0.961 . S
H584 C598 0.960 . S
H585 C598 0.961 . S
H586 C598 0.959 . S
H587 C601 0.929 . S
H588 C602 0.931 . S
H589 C604 0.930 . S
C590 H578 0.930 . S
C590 C591 1.399 . S
C590 C595 1.399 . S
C591 C590 1.399 . S
C591 C592 1.376 . S
C592 H579 0.930 . S
C592 C591 1.376 . S
C592 C593 1.388 . S
C593 H580 0.930 . S
C593 C592 1.388 . S
C593 C594 1.390 . S
C594 C593 1.390 . S
C594 C595 1.394 . S
C594 C600 1.465 . S
C595 C590 1.399 . S
C595 C594 1.394 . S
C595 C596 1.516 . S
C596 C595 1.516 . S
C596 C597 1.502 . S
C596 C598 1.561 . S
C596 C599 1.526 . S
C597 H581 0.959 . S
C597 H582 0.959 . S
C597 H583 0.961 . S
C597 C596 1.502 . S
C598 H584 0.960 . S
C598 H585 0.961 . S
C598 H586 0.959 . S
C598 C596 1.561 . S
C599 C596 1.526 . S
C599 C600 1.396 . S
C599 C604 1.390 . S
C600 C594 1.465 . S
C600 C599 1.396 . S
C600 C601 1.399 . S
C601 H587 0.929 . S
C601 C600 1.399 . S
C601 C602 1.385 . S
C602 H588 0.931 . S
C602 C601 1.385 . S
C602 C603 1.389 . S
C603 C602 1.389 . S
C603 C604 1.387 . S
C604 H589 0.930 . S
C604 C599 1.390 . S
C604 C603 1.387 . S
H605 C617 0.930 . S
H606 C619 0.930 . S
H607 C620 0.930 . S
H608 C624 0.959 . S
H609 C624 0.959 . S
H610 C624 0.961 . S
H611 C625 0.960 . S
H612 C625 0.961 . S
H613 C625 0.959 . S
H614 C628 0.929 . S
H615 C629 0.931 . S
H616 C631 0.930 . S
C617 H605 0.930 . S
C617 C618 1.399 . S
C617 C622 1.399 . S
C618 C617 1.399 . S
C618 C619 1.376 . S
C619 H606 0.930 . S
C619 C618 1.376 . S
C619 C620 1.388 . S
C620 H607 0.930 . S
C620 C619 1.388 . S
C620 C621 1.390 . S
C621 C620 1.390 . S
C621 C622 1.394 . S
C621 C627 1.465 . S
C622 C617 1.399 . S
C622 C621 1.394 . S
C622 C623 1.516 . S
C623 C622 1.516 . S
C623 C624 1.502 . S
C623 C625 1.561 . S
C623 C626 1.526 . S
C624 H608 0.959 . S
C624 H609 0.959 . S
C624 H610 0.961 . S
C624 C623 1.502 . S
C625 H611 0.960 . S
C625 H612 0.961 . S
C625 H613 0.959 . S
C625 C623 1.561 . S
C626 C623 1.526 . S
C626 C627 1.396 . S
C626 C631 1.390 . S
C627 C621 1.465 . S
C627 C626 1.396 . S
C627 C628 1.399 . S
C628 H614 0.929 . S
C628 C627 1.399 . S
C628 C629 1.385 . S
C629 H615 0.931 . S
C629 C628 1.385 . S
C629 C630 1.389 . S
C630 C629 1.389 . S
C630 C631 1.387 . S
C631 H616 0.930 . S
C631 C626 1.390 . S
C631 C630 1.387 . S
H632 C644 0.930 . S
H633 C646 0.930 . S
H634 C647 0.930 . S
H635 C651 0.959 . S
H636 C651 0.959 . S
H637 C651 0.961 . S
H638 C652 0.960 . S
H639 C652 0.961 . S
H640 C652 0.959 . S
H641 C655 0.929 . S
H642 C656 0.931 . S
H643 C658 0.930 . S
C644 H632 0.930 . S
C644 C645 1.399 . S
C644 C649 1.399 . S
C645 C644 1.399 . S
C645 C646 1.376 . S
C646 H633 0.930 . S
C646 C645 1.376 . S
C646 C647 1.388 . S
C647 H634 0.930 . S
C647 C646 1.388 . S
C647 C648 1.390 . S
C648 C647 1.390 . S
C648 C649 1.394 . S
C648 C654 1.465 . S
C649 C644 1.399 . S
C649 C648 1.394 . S
C649 C650 1.516 . S
C650 C649 1.516 . S
C650 C651 1.502 . S
C650 C652 1.561 . S
C650 C653 1.526 . S
C651 H635 0.959 . S
C651 H636 0.959 . S
C651 H637 0.961 . S
C651 C650 1.502 . S
C652 H638 0.960 . S
C652 H639 0.961 . S
C652 H640 0.959 . S
C652 C650 1.561 . S
C653 C650 1.526 . S
C653 C654 1.396 . S
C653 C658 1.390 . S
C654 C648 1.465 . S
C654 C653 1.396 . S
C654 C655 1.399 . S
C655 H641 0.929 . S
C655 C654 1.399 . S
C655 C656 1.385 . S
C656 H642 0.931 . S
C656 C655 1.385 . S
C656 C657 1.389 . S
C657 C656 1.389 . S
C657 C658 1.387 . S
C658 H643 0.930 . S
C658 C653 1.390 . S
C658 C657 1.387 . S
H659 C671 0.930 . S
H660 C673 0.930 . S
H661 C674 0.930 . S
H662 C678 0.959 . S
H663 C678 0.959 . S
H664 C678 0.961 . S
H665 C679 0.960 . S
H666 C679 0.961 . S
H667 C679 0.959 . S
H668 C682 0.929 . S
H669 C683 0.931 . S
H670 C685 0.930 . S
C671 H659 0.930 . S
C671 C672 1.399 . S
C671 C676 1.399 . S
C672 C671 1.399 . S
C672 C673 1.376 . S
C673 H660 0.930 . S
C673 C672 1.376 . S
C673 C674 1.388 . S
C674 H661 0.930 . S
C674 C673 1.388 . S
C674 C675 1.390 . S
C675 C674 1.390 . S
C675 C676 1.394 . S
C675 C681 1.465 . S
C676 C671 1.399 . S
C676 C675 1.394 . S
C676 C677 1.516 . S
C677 C676 1.516 . S
C677 C678 1.502 . S
C677 C679 1.561 . S
C677 C680 1.526 . S
C678 H662 0.959 . S
C678 H663 0.959 . S
C678 H664 0.961 . S
C678 C677 1.502 . S
C679 H665 0.960 . S
C679 H666 0.961 . S
C679 H667 0.959 . S
C679 C677 1.561 . S
C680 C677 1.526 . S
C680 C681 1.396 . S
C680 C685 1.390 . S
C681 C675 1.465 . S
C681 C680 1.396 . S
C681 C682 1.399 . S
C682 H668 0.929 . S
C682 C681 1.399 . S
C682 C683 1.385 . S
C683 H669 0.931 . S
C683 C682 1.385 . S
C683 C684 1.389 . S
C684 C683 1.389 . S
C684 C685 1.387 . S
C685 H670 0.930 . S
C685 C680 1.390 . S
C685 C684 1.387 . S
H686 C698 0.930 . S
H687 C700 0.930 . S
H688 C701 0.930 . S
H689 C705 0.959 . S
H690 C705 0.959 . S
H691 C705 0.961 . S
H692 C706 0.960 . S
H693 C706 0.961 . S
H694 C706 0.959 . S
H695 C709 0.929 . S
H696 C710 0.931 . S
H697 C712 0.930 . S
C698 H686 0.930 . S
C698 C699 1.399 . S
C698 C703 1.399 . S
C699 C698 1.399 . S
C699 C700 1.376 . S
C700 H687 0.930 . S
C700 C699 1.376 . S
C700 C701 1.388 . S
C701 H688 0.930 . S
C701 C700 1.388 . S
C701 C702 1.390 . S
C702 C701 1.390 . S
C702 C703 1.394 . S
C702 C708 1.465 . S
C703 C698 1.399 . S
C703 C702 1.394 . S
C703 C704 1.516 . S
C704 C703 1.516 . S
C704 C705 1.502 . S
C704 C706 1.561 . S
C704 C707 1.526 . S
C705 H689 0.959 . S
C705 H690 0.959 . S
C705 H691 0.961 . S
C705 C704 1.502 . S
C706 H692 0.960 . S
C706 H693 0.961 . S
C706 H694 0.959 . S
C706 C704 1.561 . S
C707 C704 1.526 . S
C707 C708 1.396 . S
C707 C712 1.390 . S
C708 C702 1.465 . S
C708 C707 1.396 . S
C708 C709 1.399 . S
C709 H695 0.929 . S
C709 C708 1.399 . S
C709 C710 1.385 . S
C710 H696 0.931 . S
C710 C709 1.385 . S
C710 C711 1.389 . S
C711 C710 1.389 . S
C711 C712 1.387 . S
C712 H697 0.930 . S
C712 C707 1.390 . S
C712 C711 1.387 . S
H713 C725 0.930 . S
H714 C727 0.930 . S
H715 C728 0.930 . S
H716 C732 0.959 . S
H717 C732 0.959 . S
H718 C732 0.961 . S
H719 C733 0.960 . S
H720 C733 0.961 . S
H721 C733 0.959 . S
H722 C736 0.929 . S
H723 C737 0.931 . S
H724 C739 0.930 . S
C725 H713 0.930 . S
C725 C726 1.399 . S
C725 C730 1.399 . S
C726 C725 1.399 . S
C726 C727 1.376 . S
C727 H714 0.930 . S
C727 C726 1.376 . S
C727 C728 1.388 . S
C728 H715 0.930 . S
C728 C727 1.388 . S
C728 C729 1.390 . S
C729 C728 1.390 . S
C729 C730 1.394 . S
C729 C735 1.465 . S
C730 C725 1.399 . S
C730 C729 1.394 . S
C730 C731 1.516 . S
C731 C730 1.516 . S
C731 C732 1.502 . S
C731 C733 1.561 . S
C731 C734 1.526 . S
C732 H716 0.959 . S
C732 H717 0.959 . S
C732 H718 0.961 . S
C732 C731 1.502 . S
C733 H719 0.960 . S
C733 H720 0.961 . S
C733 H721 0.959 . S
C733 C731 1.561 . S
C734 C731 1.526 . S
C734 C735 1.396 . S
C734 C739 1.390 . S
C735 C729 1.465 . S
C735 C734 1.396 . S
C735 C736 1.399 . S
C736 H722 0.929 . S
C736 C735 1.399 . S
C736 C737 1.385 . S
C737 H723 0.931 . S
C737 C736 1.385 . S
C737 C738 1.389 . S
C738 C737 1.389 . S
C738 C739 1.387 . S
C739 H724 0.930 . S
C739 C734 1.390 . S
C739 C738 1.387 . S
H740 C752 0.930 . S
H741 C754 0.930 . S
H742 C755 0.930 . S
H743 C759 0.959 . S
H744 C759 0.959 . S
H745 C759 0.961 . S
H746 C760 0.960 . S
H747 C760 0.961 . S
H748 C760 0.959 . S
H749 C763 0.929 . S
H750 C764 0.931 . S
H751 C766 0.930 . S
C752 H740 0.930 . S
C752 C753 1.399 . S
C752 C757 1.399 . S
C753 C752 1.399 . S
C753 C754 1.376 . S
C754 H741 0.930 . S
C754 C753 1.376 . S
C754 C755 1.388 . S
C755 H742 0.930 . S
C755 C754 1.388 . S
C755 C756 1.390 . S
C756 C755 1.390 . S
C756 C757 1.394 . S
C756 C762 1.465 . S
C757 C752 1.399 . S
C757 C756 1.394 . S
C757 C758 1.516 . S
C758 C757 1.516 . S
C758 C759 1.502 . S
C758 C760 1.561 . S
C758 C761 1.526 . S
C759 H743 0.959 . S
C759 H744 0.959 . S
C759 H745 0.961 . S
C759 C758 1.502 . S
C760 H746 0.960 . S
C760 H747 0.961 . S
C760 H748 0.959 . S
C760 C758 1.561 . S
C761 C758 1.526 . S
C761 C762 1.396 . S
C761 C766 1.390 . S
C762 C756 1.465 . S
C762 C761 1.396 . S
C762 C763 1.399 . S
C763 H749 0.929 . S
C763 C762 1.399 . S
C763 C764 1.385 . S
C764 H750 0.931 . S
C764 C763 1.385 . S
C764 C765 1.389 . S
C765 C764 1.389 . S
C765 C766 1.387 . S
C766 H751 0.930 . S
C766 C761 1.390 . S
C766 C765 1.387 . S
H767 C779 0.930 . S
H768 C781 0.930 . S
H769 C782 0.930 . S
H770 C786 0.959 . S
H771 C786 0.959 . S
H772 C786 0.961 . S
H773 C787 0.960 . S
H774 C787 0.961 . S
H775 C787 0.959 . S
H776 C790 0.929 . S
H777 C791 0.931 . S
H778 C793 0.930 . S
C779 H767 0.930 . S
C779 C780 1.399 . S
C779 C784 1.399 . S
C780 C779 1.399 . S
C780 C781 1.376 . S
C781 H768 0.930 . S
C781 C780 1.376 . S
C781 C782 1.388 . S
C782 H769 0.930 . S
C782 C781 1.388 . S
C782 C783 1.390 . S
C783 C782 1.390 . S
C783 C784 1.394 . S
C783 C789 1.465 . S
C784 C779 1.399 . S
C784 C783 1.394 . S
C784 C785 1.516 . S
C785 C784 1.516 . S
C785 C786 1.502 . S
C785 C787 1.561 . S
C785 C788 1.526 . S
C786 H770 0.959 . S
C786 H771 0.959 . S
C786 H772 0.961 . S
C786 C785 1.502 . S
C787 H773 0.960 . S
C787 H774 0.961 . S
C787 H775 0.959 . S
C787 C785 1.561 . S
C788 C785 1.526 . S
C788 C789 1.396 . S
C788 C793 1.390 . S
C789 C783 1.465 . S
C789 C788 1.396 . S
C789 C790 1.399 . S
C790 H776 0.929 . S
C790 C789 1.399 . S
C790 C791 1.385 . S
C791 H777 0.931 . S
C791 C790 1.385 . S
C791 C792 1.389 . S
C792 C791 1.389 . S
C792 C793 1.387 . S
C793 H778 0.930 . S
C793 C788 1.390 . S
C793 C792 1.387 . S
H794 C806 0.930 . S
H795 C808 0.930 . S
H796 C809 0.930 . S
H797 C813 0.959 . S
H798 C813 0.959 . S
H799 C813 0.961 . S
H800 C814 0.960 . S
H801 C814 0.961 . S
H802 C814 0.959 . S
H803 C817 0.929 . S
H804 C818 0.931 . S
H805 C820 0.930 . S
C806 H794 0.930 . S
C806 C807 1.399 . S
C806 C811 1.399 . S
C807 C806 1.399 . S
C807 C808 1.376 . S
C808 H795 0.930 . S
C808 C807 1.376 . S
C808 C809 1.388 . S
C809 H796 0.930 . S
C809 C808 1.388 . S
C809 C810 1.390 . S
C810 C809 1.390 . S
C810 C811 1.394 . S
C810 C816 1.465 . S
C811 C806 1.399 . S
C811 C810 1.394 . S
C811 C812 1.516 . S
C812 C811 1.516 . S
C812 C813 1.502 . S
C812 C814 1.561 . S
C812 C815 1.526 . S
C813 H797 0.959 . S
C813 H798 0.959 . S
C813 H799 0.961 . S
C813 C812 1.502 . S
C814 H800 0.960 . S
C814 H801 0.961 . S
C814 H802 0.959 . S
C814 C812 1.561 . S
C815 C812 1.526 . S
C815 C816 1.396 . S
C815 C820 1.390 . S
C816 C810 1.465 . S
C816 C815 1.396 . S
C816 C817 1.399 . S
C817 H803 0.929 . S
C817 C816 1.399 . S
C817 C818 1.385 . S
C818 H804 0.931 . S
C818 C817 1.385 . S
C818 C819 1.389 . S
C819 C818 1.389 . S
C819 C820 1.387 . S
C820 H805 0.930 . S
C820 C815 1.390 . S
C820 C819 1.387 . S
H821 C833 0.930 . S
H822 C835 0.930 . S
H823 C836 0.930 . S
H824 C840 0.959 . S
H825 C840 0.959 . S
H826 C840 0.961 . S
H827 C841 0.960 . S
H828 C841 0.961 . S
H829 C841 0.959 . S
H830 C844 0.929 . S
H831 C845 0.931 . S
H832 C847 0.930 . S
C833 H821 0.930 . S
C833 C834 1.399 . S
C833 C838 1.399 . S
C834 C833 1.399 . S
C834 C835 1.376 . S
C835 H822 0.930 . S
C835 C834 1.376 . S
C835 C836 1.388 . S
C836 H823 0.930 . S
C836 C835 1.388 . S
C836 C837 1.390 . S
C837 C836 1.390 . S
C837 C838 1.394 . S
C837 C843 1.465 . S
C838 C833 1.399 . S
C838 C837 1.394 . S
C838 C839 1.516 . S
C839 C838 1.516 . S
C839 C840 1.502 . S
C839 C841 1.561 . S
C839 C842 1.526 . S
C840 H824 0.959 . S
C840 H825 0.959 . S
C840 H826 0.961 . S
C840 C839 1.502 . S
C841 H827 0.960 . S
C841 H828 0.961 . S
C841 H829 0.959 . S
C841 C839 1.561 . S
C842 C839 1.526 . S
C842 C843 1.396 . S
C842 C847 1.390 . S
C843 C837 1.465 . S
C843 C842 1.396 . S
C843 C844 1.399 . S
C844 H830 0.929 . S
C844 C843 1.399 . S
C844 C845 1.385 . S
C845 H831 0.931 . S
C845 C844 1.385 . S
C845 C846 1.389 . S
C846 C845 1.389 . S
C846 C847 1.387 . S
C847 H832 0.930 . S
C847 C842 1.390 . S
C847 C846 1.387 . S
H848 C860 0.930 . S
H849 C862 0.930 . S
H850 C863 0.930 . S
H851 C867 0.959 . S
H852 C867 0.959 . S
H853 C867 0.961 . S
H854 C868 0.960 . S
H855 C868 0.961 . S
H856 C868 0.959 . S
H857 C871 0.929 . S
H858 C872 0.931 . S
H859 C874 0.930 . S
C860 H848 0.930 . S
C860 C861 1.399 . S
C860 C865 1.399 . S
C861 C860 1.399 . S
C861 C862 1.376 . S
C862 H849 0.930 . S
C862 C861 1.376 . S
C862 C863 1.388 . S
C863 H850 0.930 . S
C863 C862 1.388 . S
C863 C864 1.390 . S
C864 C863 1.390 . S
C864 C865 1.394 . S
C864 C870 1.465 . S
C865 C860 1.399 . S
C865 C864 1.394 . S
C865 C866 1.516 . S
C866 C865 1.516 . S
C866 C867 1.502 . S
C866 C868 1.561 . S
C866 C869 1.526 . S
C867 H851 0.959 . S
C867 H852 0.959 . S
C867 H853 0.961 . S
C867 C866 1.502 . S
C868 H854 0.960 . S
C868 H855 0.961 . S
C868 H856 0.959 . S
C868 C866 1.561 . S
C869 C866 1.526 . S
C869 C870 1.396 . S
C869 C874 1.390 . S
C870 C864 1.465 . S
C870 C869 1.396 . S
C870 C871 1.399 . S
C871 H857 0.929 . S
C871 C870 1.399 . S
C871 C872 1.385 . S
C872 H858 0.931 . S
C872 C871 1.385 . S
C872 C873 1.389 . S
C873 C872 1.389 . S
C873 C874 1.387 . S
C874 H859 0.930 . S
C874 C869 1.390 . S
C874 C873 1.387 . S
H875 C887 0.930 . S
H876 C889 0.930 . S
H877 C890 0.930 . S
H878 C894 0.959 . S
H879 C894 0.959 . S
H880 C894 0.961 . S
H881 C895 0.960 . S
H882 C895 0.961 . S
H883 C895 0.959 . S
H884 C898 0.929 . S
H885 C899 0.931 . S
H886 C901 0.930 . S
C887 H875 0.930 . S
C887 C888 1.399 . S
C887 C892 1.399 . S
C888 C887 1.399 . S
C888 C889 1.376 . S
C889 H876 0.930 . S
C889 C888 1.376 . S
C889 C890 1.388 . S
C890 H877 0.930 . S
C890 C889 1.388 . S
C890 C891 1.390 . S
C891 C890 1.390 . S
C891 C892 1.394 . S
C891 C897 1.465 . S
C892 C887 1.399 . S
C892 C891 1.394 . S
C892 C893 1.516 . S
C893 C892 1.516 . S
C893 C894 1.502 . S
C893 C895 1.561 . S
C893 C896 1.526 . S
C894 H878 0.959 . S
C894 H879 0.959 . S
C894 H880 0.961 . S
C894 C893 1.502 . S
C895 H881 0.960 . S
C895 H882 0.961 . S
C895 H883 0.959 . S
C895 C893 1.561 . S
C896 C893 1.526 . S
C896 C897 1.396 . S
C896 C901 1.390 . S
C897 C891 1.465 . S
C897 C896 1.396 . S
C897 C898 1.399 . S
C898 H884 0.929 . S
C898 C897 1.399 . S
C898 C899 1.385 . S
C899 H885 0.931 . S
C899 C898 1.385 . S
C899 C900 1.389 . S
C900 C899 1.389 . S
C900 C901 1.387 . S
C901 H886 0.930 . S
C901 C896 1.390 . S
C901 C900 1.387 . S
H902 C914 0.930 . S
H903 C916 0.930 . S
H904 C917 0.930 . S
H905 C921 0.959 . S
H906 C921 0.959 . S
H907 C921 0.961 . S
H908 C922 0.960 . S
H909 C922 0.961 . S
H910 C922 0.959 . S
H911 C925 0.929 . S
H912 C926 0.931 . S
H913 C928 0.930 . S
C914 H902 0.930 . S
C914 C915 1.399 . S
C914 C919 1.399 . S
C915 C914 1.399 . S
C915 C916 1.376 . S
C916 H903 0.930 . S
C916 C915 1.376 . S
C916 C917 1.388 . S
C917 H904 0.930 . S
C917 C916 1.388 . S
C917 C918 1.390 . S
C918 C917 1.390 . S
C918 C919 1.394 . S
C918 C924 1.465 . S
C919 C914 1.399 . S
C919 C918 1.394 . S
C919 C920 1.516 . S
C920 C919 1.516 . S
C920 C921 1.502 . S
C920 C922 1.561 . S
C920 C923 1.526 . S
C921 H905 0.959 . S
C921 H906 0.959 . S
C921 H907 0.961 . S
C921 C920 1.502 . S
C922 H908 0.960 . S
C922 H909 0.961 . S
C922 H910 0.959 . S
C922 C920 1.561 . S
C923 C920 1.526 . S
C923 C924 1.396 . S
C923 C928 1.390 . S
C924 C918 1.465 . S
C924 C923 1.396 . S
C924 C925 1.399 . S
C925 H911 0.929 . S
C925 C924 1.399 . S
C925 C926 1.385 . S
C926 H912 0.931 . S
C926 C925 1.385 . S
C926 C927 1.389 . S
C927 C926 1.389 . S
C927 C928 1.387 . S
C928 H913 0.930 . S
C928 C923 1.390 . S
C928 C927 1.387 . S
H929 C941 0.930 . S
H930 C943 0.930 . S
H931 C944 0.930 . S
H932 C948 0.959 . S
H933 C948 0.959 . S
H934 C948 0.961 . S
H935 C949 0.960 . S
H936 C949 0.961 . S
H937 C949 0.959 . S
H938 C952 0.929 . S
H939 C953 0.931 . S
H940 C955 0.930 . S
C941 H929 0.930 . S
C941 C942 1.399 . S
C941 C946 1.399 . S
C942 C941 1.399 . S
C942 C943 1.376 . S
C943 H930 0.930 . S
C943 C942 1.376 . S
C943 C944 1.388 . S
C944 H931 0.930 . S
C944 C943 1.388 . S
C944 C945 1.390 . S
C945 C944 1.390 . S
C945 C946 1.394 . S
C945 C951 1.465 . S
C946 C941 1.399 . S
C946 C945 1.394 . S
C946 C947 1.516 . S
C947 C946 1.516 . S
C947 C948 1.502 . S
C947 C949 1.561 . S
C947 C950 1.526 . S
C948 H932 0.959 . S
C948 H933 0.959 . S
C948 H934 0.961 . S
C948 C947 1.502 . S
C949 H935 0.960 . S
C949 H936 0.961 . S
C949 H937 0.959 . S
C949 C947 1.561 . S
C950 C947 1.526 . S
C950 C951 1.396 . S
C950 C955 1.390 . S
C951 C945 1.465 . S
C951 C950 1.396 . S
C951 C952 1.399 . S
C952 H938 0.929 . S
C952 C951 1.399 . S
C952 C953 1.385 . S
C953 H939 0.931 . S
C953 C952 1.385 . S
C953 C954 1.389 . S
C954 C953 1.389 . S
C954 C955 1.387 . S
C955 H940 0.930 . S
C955 C950 1.390 . S
C955 C954 1.387 . S
H956 C968 0.930 . S
H957 C970 0.930 . S
H958 C971 0.930 . S
H959 C975 0.959 . S
H960 C975 0.959 . S
H961 C975 0.961 . S
H962 C976 0.960 . S
H963 C976 0.961 . S
H964 C976 0.959 . S
H965 C979 0.929 . S
H966 C980 0.931 . S
H967 C982 0.930 . S
C968 H956 0.930 . S
C968 C969 1.399 . S
C968 C973 1.399 . S
C969 C968 1.399 . S
C969 C970 1.376 . S
C970 H957 0.930 . S
C970 C969 1.376 . S
C970 C971 1.388 . S
C971 H958 0.930 . S
C971 C970 1.388 . S
C971 C972 1.390 . S
C972 C971 1.390 . S
C972 C973 1.394 . S
C972 C978 1.465 . S
C973 C968 1.399 . S
C973 C972 1.394 . S
C973 C974 1.516 . S
C974 C973 1.516 . S
C974 C975 1.502 . S
C974 C976 1.561 . S
C974 C977 1.526 . S
C975 H959 0.959 . S
C975 H960 0.959 . S
C975 H961 0.961 . S
C975 C974 1.502 . S
C976 H962 0.960 . S
C976 H963 0.961 . S
C976 H964 0.959 . S
C976 C974 1.561 . S
C977 C974 1.526 . S
C977 C978 1.396 . S
C977 C982 1.390 . S
C978 C972 1.465 . S
C978 C977 1.396 . S
C978 C979 1.399 . S
C979 H965 0.929 . S
C979 C978 1.399 . S
C979 C980 1.385 . S
C980 H966 0.931 . S
C980 C979 1.385 . S
C980 C981 1.389 . S
C981 C980 1.389 . S
C981 C982 1.387 . S
C982 H967 0.930 . S
C982 C977 1.390 . S
C982 C981 1.387 . S
H983 C995 0.930 . S
H984 C997 0.930 . S
H985 C998 0.930 . S
H986 C1002 0.959 . S
H987 C1002 0.959 . S
H988 C1002 0.961 . S
H989 C1003 0.960 . S
H990 C1003 0.961 . S
H991 C1003 0.959 . S
H992 C1006 0.929 . S
H993 C1007 0.931 . S
H994 C1009 0.930 . S
C995 H983 0.930 . S
C995 C996 1.399 . S
C995 C1000 1.399 . S
C996 C995 1.399 . S
C996 C997 1.376 . S
C997 H984 0.930 . S
C997 C996 1.376 . S
C997 C998 1.388 . S
C998 H985 0.930 . S
C998 C997 1.388 . S
C998 C999 1.390 . S
C999 C998 1.390 . S
C999 C1000 1.394 . S
C999 C1005 1.465 . S
C1000 C995 1.399 . S
C1000 C999 1.394 . S
C1000 C1001 1.516 . S
C1001 C1000 1.516 . S
C1001 C1002 1.502 . S
C1001 C1003 1.561 . S
C1001 C1004 1.526 . S
C1002 H986 0.959 . S
C1002 H987 0.959 . S
C1002 H988 0.961 . S
C1002 C1001 1.502 . S
C1003 H989 0.960 . S
C1003 H990 0.961 . S
C1003 H991 0.959 . S
C1003 C1001 1.561 . S
C1004 C1001 1.526 . S
C1004 C1005 1.396 . S
C1004 C1009 1.390 . S
C1005 C999 1.465 . S
C1005 C1004 1.396 . S
C1005 C1006 1.399 . S
C1006 H992 0.929 . S
C1006 C1005 1.399 . S
C1006 C1007 1.385 . S
C1007 H993 0.931 . S
C1007 C1006 1.385 . S
C1007 C1008 1.389 . S
C1008 C1007 1.389 . S
C1008 C1009 1.387 . S
C1009 H994 0.930 . S
C1009 C1004 1.390 . S
C1009 C1008 1.387 . S
H1010 C1022 0.930 . S
H1011 C1024 0.930 . S
H1012 C1025 0.930 . S
H1013 C1029 0.959 . S
H1014 C1029 0.959 . S
H1015 C1029 0.961 . S
H1016 C1030 0.960 . S
H1017 C1030 0.961 . S
H1018 C1030 0.959 . S
H1019 C1033 0.929 . S
H1020 C1034 0.931 . S
H1021 C1036 0.930 . S
C1022 H1010 0.930 . S
C1022 C1023 1.399 . S
C1022 C1027 1.399 . S
C1023 C1022 1.399 . S
C1023 C1024 1.376 . S
C1024 H1011 0.930 . S
C1024 C1023 1.376 . S
C1024 C1025 1.388 . S
C1025 H1012 0.930 . S
C1025 C1024 1.388 . S
C1025 C1026 1.390 . S
C1026 C1025 1.390 . S
C1026 C1027 1.394 . S
C1026 C1032 1.465 . S
C1027 C1022 1.399 . S
C1027 C1026 1.394 . S
C1027 C1028 1.516 . S
C1028 C1027 1.516 . S
C1028 C1029 1.502 . S
C1028 C1030 1.561 . S
C1028 C1031 1.526 . S
C1029 H1013 0.959 . S
C1029 H1014 0.959 . S
C1029 H1015 0.961 . S
C1029 C1028 1.502 . S
C1030 H1016 0.960 . S
C1030 H1017 0.961 . S
C1030 H1018 0.959 . S
C1030 C1028 1.561 . S
C1031 C1028 1.526 . S
C1031 C1032 1.396 . S
C1031 C1036 1.390 . S
C1032 C1026 1.465 . S
C1032 C1031 1.396 . S
C1032 C1033 1.399 . S
C1033 H1019 0.929 . S
C1033 C1032 1.399 . S
C1033 C1034 1.385 . S
C1034 H1020 0.931 . S
C1034 C1033 1.385 . S
C1034 C1035 1.389 . S
C1035 C1034 1.389 . S
C1035 C1036 1.387 . S
C1036 H1021 0.930 . S
C1036 C1031 1.390 . S
C1036 C1035 1.387 . S
H1037 C1049 0.930 . S
H1038 C1051 0.930 . S
H1039 C1052 0.930 . S
H1040 C1056 0.959 . S
H1041 C1056 0.959 . S
H1042 C1056 0.961 . S
H1043 C1057 0.960 . S
H1044 C1057 0.961 . S
H1045 C1057 0.959 . S
H1046 C1060 0.929 . S
H1047 C1061 0.931 . S
H1048 C1063 0.930 . S
C1049 H1037 0.930 . S
C1049 C1050 1.399 . S
C1049 C1054 1.399 . S
C1050 C1049 1.399 . S
C1050 C1051 1.376 . S
C1051 H1038 0.930 . S
C1051 C1050 1.376 . S
C1051 C1052 1.388 . S
C1052 H1039 0.930 . S
C1052 C1051 1.388 . S
C1052 C1053 1.390 . S
C1053 C1052 1.390 . S
C1053 C1054 1.394 . S
C1053 C1059 1.465 . S
C1054 C1049 1.399 . S
C1054 C1053 1.394 . S
C1054 C1055 1.516 . S
C1055 C1054 1.516 . S
C1055 C1056 1.502 . S
C1055 C1057 1.561 . S
C1055 C1058 1.526 . S
C1056 H1040 0.959 . S
C1056 H1041 0.959 . S
C1056 H1042 0.961 . S
C1056 C1055 1.502 . S
C1057 H1043 0.960 . S
C1057 H1044 0.961 . S
C1057 H1045 0.959 . S
C1057 C1055 1.561 . S
C1058 C1055 1.526 . S
C1058 C1059 1.396 . S
C1058 C1063 1.390 . S
C1059 C1053 1.465 . S
C1059 C1058 1.396 . S
C1059 C1060 1.399 . S
C1060 H1046 0.929 . S
C1060 C1059 1.399 . S
C1060 C1061 1.385 . S
C1061 H1047 0.931 . S
C1061 C1060 1.385 . S
C1061 C1062 1.389 . S
C1062 C1061 1.389 . S
C1062 C1063 1.387 . S
C1063 H1048 0.930 . S
C1063 C1058 1.390 . S
C1063 C1062 1.387 . S
H1064 C1076 0.930 . S
H1065 C1078 0.930 . S
H1066 C1079 0.930 . S
H1067 C1083 0.959 . S
H1068 C1083 0.959 . S
H1069 C1083 0.961 . S
H1070 C1084 0.960 . S
H1071 C1084 0.961 . S
H1072 C1084 0.959 . S
H1073 C1087 0.929 . S
H1074 C1088 0.931 . S
H1075 C1090 0.930 . S
C1076 H1064 0.930 . S
C1076 C1077 1.399 . S
C1076 C1081 1.399 . S
C1077 C1076 1.399 . S
C1077 C1078 1.376 . S
C1078 H1065 0.930 . S
C1078 C1077 1.376 . S
C1078 C1079 1.388 . S
C1079 H1066 0.930 . S
C1079 C1078 1.388 . S
C1079 C1080 1.390 . S
C1080 C1079 1.390 . S
C1080 C1081 1.394 . S
C1080 C1086 1.465 . S
C1081 C1076 1.399 . S
C1081 C1080 1.394 . S
C1081 C1082 1.516 . S
C1082 C1081 1.516 . S
C1082 C1083 1.502 . S
C1082 C1084 1.561 . S
C1082 C1085 1.526 . S
C1083 H1067 0.959 . S
C1083 H1068 0.959 . S
C1083 H1069 0.961 . S
C1083 C1082 1.502 . S
C1084 H1070 0.960 . S
C1084 H1071 0.961 . S
C1084 H1072 0.959 . S
C1084 C1082 1.561 . S
C1085 C1082 1.526 . S
C1085 C1086 1.396 . S
C1085 C1090 1.390 . S
C1086 C1080 1.465 . S
C1086 C1085 1.396 . S
C1086 C1087 1.399 . S
C1087 H1073 0.929 . S
C1087 C1086 1.399 . S
C1087 C1088 1.385 . S
C1088 H1074 0.931 . S
C1088 C1087 1.385 . S
C1088 C1089 1.389 . S
C1089 C1088 1.389 . S
C1089 C1090 1.387 . S
C1090 H1075 0.930 . S
C1090 C1085 1.390 . S
C1090 C1089 1.387 . S
H1091 C1103 0.930 . S
H1092 C1105 0.930 . S
H1093 C1106 0.930 . S
H1094 C1110 0.959 . S
H1095 C1110 0.959 . S
H1096 C1110 0.961 . S
H1097 C1111 0.960 . S
H1098 C1111 0.961 . S
H1099 C1111 0.959 . S
H1100 C1114 0.929 . S
H1101 C1115 0.931 . S
H1102 C1117 0.930 . S
C1103 H1091 0.930 . S
C1103 C1104 1.399 . S
C1103 C1108 1.399 . S
C1104 C1103 1.399 . S
C1104 C1105 1.376 . S
C1105 H1092 0.930 . S
C1105 C1104 1.376 . S
C1105 C1106 1.388 . S
C1106 H1093 0.930 . S
C1106 C1105 1.388 . S
C1106 C1107 1.390 . S
C1107 C1106 1.390 . S
C1107 C1108 1.394 . S
C1107 C1113 1.465 . S
C1108 C1103 1.399 . S
C1108 C1107 1.394 . S
C1108 C1109 1.516 . S
C1109 C1108 1.516 . S
C1109 C1110 1.502 . S
C1109 C1111 1.561 . S
C1109 C1112 1.526 . S
C1110 H1094 0.959 . S
C1110 H1095 0.959 . S
C1110 H1096 0.961 . S
C1110 C1109 1.502 . S
C1111 H1097 0.960 . S
C1111 H1098 0.961 . S
C1111 H1099 0.959 . S
C1111 C1109 1.561 . S
C1112 C1109 1.526 . S
C1112 C1113 1.396 . S
C1112 C1117 1.390 . S
C1113 C1107 1.465 . S
C1113 C1112 1.396 . S
C1113 C1114 1.399 . S
C1114 H1100 0.929 . S
C1114 C1113 1.399 . S
C1114 C1115 1.385 . S
C1115 H1101 0.931 . S
C1115 C1114 1.385 . S
C1115 C1116 1.389 . S
C1116 C1115 1.389 . S
C1116 C1117 1.387 . S
C1117 H1102 0.930 . S
C1117 C1112 1.390 . S
C1117 C1116 1.387 . S
H1118 C1130 0.930 . S
H1119 C1132 0.930 . S
H1120 C1133 0.930 . S
H1121 C1137 0.959 . S
H1122 C1137 0.959 . S
H1123 C1137 0.961 . S
H1124 C1138 0.960 . S
H1125 C1138 0.961 . S
H1126 C1138 0.959 . S
H1127 C1141 0.929 . S
H1128 C1142 0.931 . S
H1129 C1144 0.930 . S
C1130 H1118 0.930 . S
C1130 C1131 1.399 . S
C1130 C1135 1.399 . S
C1131 C1130 1.399 . S
C1131 C1132 1.376 . S
C1132 H1119 0.930 . S
C1132 C1131 1.376 . S
C1132 C1133 1.388 . S
C1133 H1120 0.930 . S
C1133 C1132 1.388 . S
C1133 C1134 1.390 . S
C1134 C1133 1.390 . S
C1134 C1135 1.394 . S
C1134 C1140 1.465 . S
C1135 C1130 1.399 . S
C1135 C1134 1.394 . S
C1135 C1136 1.516 . S
C1136 C1135 1.516 . S
C1136 C1137 1.502 . S
C1136 C1138 1.561 . S
C1136 C1139 1.526 . S
C1137 H1121 0.959 . S
C1137 H1122 0.959 . S
C1137 H1123 0.961 . S
C1137 C1136 1.502 . S
C1138 H1124 0.960 . S
C1138 H1125 0.961 . S
C1138 H1126 0.959 . S
C1138 C1136 1.561 . S
C1139 C1136 1.526 . S
C1139 C1140 1.396 . S
C1139 C1144 1.390 . S
C1140 C1134 1.465 . S
C1140 C1139 1.396 . S
C1140 C1141 1.399 . S
C1141 H1127 0.929 . S
C1141 C1140 1.399 . S
C1141 C1142 1.385 . S
C1142 H1128 0.931 . S
C1142 C1141 1.385 . S
C1142 C1143 1.389 . S
C1143 C1142 1.389 . S
C1143 C1144 1.387 . S
C1144 H1129 0.930 . S
C1144 C1139 1.390 . S
C1144 C1143 1.387 . S
H1145 C1157 0.930 . S
H1146 C1159 0.930 . S
H1147 C1160 0.930 . S
H1148 C1164 0.959 . S
H1149 C1164 0.959 . S
H1150 C1164 0.961 . S
H1151 C1165 0.960 . S
H1152 C1165 0.961 . S
H1153 C1165 0.959 . S
H1154 C1168 0.929 . S
H1155 C1169 0.931 . S
H1156 C1171 0.930 . S
C1157 H1145 0.930 . S
C1157 C1158 1.399 . S
C1157 C1162 1.399 . S
C1158 C1157 1.399 . S
C1158 C1159 1.376 . S
C1159 H1146 0.930 . S
C1159 C1158 1.376 . S
C1159 C1160 1.388 . S
C1160 H1147 0.930 . S
C1160 C1159 1.388 . S
C1160 C1161 1.390 . S
C1161 C1160 1.390 . S
C1161 C1162 1.394 . S
C1161 C1167 1.465 . S
C1162 C1157 1.399 . S
C1162 C1161 1.394 . S
C1162 C1163 1.516 . S
C1163 C1162 1.516 . S
C1163 C1164 1.502 . S
C1163 C1165 1.561 . S
C1163 C1166 1.526 . S
C1164 H1148 0.959 . S
C1164 H1149 0.959 . S
C1164 H1150 0.961 . S
C1164 C1163 1.502 . S
C1165 H1151 0.960 . S
C1165 H1152 0.961 . S
C1165 H1153 0.959 . S
C1165 C1163 1.561 . S
C1166 C1163 1.526 . S
C1166 C1167 1.396 . S
C1166 C1171 1.390 . S
C1167 C1161 1.465 . S
C1167 C1166 1.396 . S
C1167 C1168 1.399 . S
C1168 H1154 0.929 . S
C1168 C1167 1.399 . S
C1168 C1169 1.385 . S
C1169 H1155 0.931 . S
C1169 C1168 1.385 . S
C1169 C1170 1.389 . S
C1170 C1169 1.389 . S
C1170 C1171 1.387 . S
C1171 H1156 0.930 . S
C1171 C1166 1.390 . S
C1171 C1170 1.387 . S
H1172 C1184 0.930 . S
H1173 C1186 0.930 . S
H1174 C1187 0.930 . S
H1175 C1191 0.959 . S
H1176 C1191 0.959 . S
H1177 C1191 0.961 . S
H1178 C1192 0.960 . S
H1179 C1192 0.961 . S
H1180 C1192 0.959 . S
H1181 C1195 0.929 . S
H1182 C1196 0.931 . S
H1183 C1198 0.930 . S
C1184 H1172 0.930 . S
C1184 C1185 1.399 . S
C1184 C1189 1.399 . S
C1185 C1184 1.399 . S
C1185 C1186 1.376 . S
C1186 H1173 0.930 . S
C1186 C1185 1.376 . S
C1186 C1187 1.388 . S
C1187 H1174 0.930 . S
C1187 C1186 1.388 . S
C1187 C1188 1.390 . S
C1188 C1187 1.390 . S
C1188 C1189 1.394 . S
C1188 C1194 1.465 . S
C1189 C1184 1.399 . S
C1189 C1188 1.394 . S
C1189 C1190 1.516 . S
C1190 C1189 1.516 . S
C1190 C1191 1.502 . S
C1190 C1192 1.561 . S
C1190 C1193 1.526 . S
C1191 H1175 0.959 . S
C1191 H1176 0.959 . S
C1191 H1177 0.961 . S
C1191 C1190 1.502 . S
C1192 H1178 0.960 . S
C1192 H1179 0.961 . S
C1192 H1180 0.959 . S
C1192 C1190 1.561 . S
C1193 C1190 1.526 . S
C1193 C1194 1.396 . S
C1193 C1198 1.390 . S
C1194 C1188 1.465 . S
C1194 C1193 1.396 . S
C1194 C1195 1.399 . S
C1195 H1181 0.929 . S
C1195 C1194 1.399 . S
C1195 C1196 1.385 . S
C1196 H1182 0.931 . S
C1196 C1195 1.385 . S
C1196 C1197 1.389 . S
C1197 C1196 1.389 . S
C1197 C1198 1.387 . S
C1198 H1183 0.930 . S
C1198 C1193 1.390 . S
C1198 C1197 1.387 . S
H1199 C1211 0.930 . S
H1200 C1213 0.930 . S
H1201 C1214 0.930 . S
H1202 C1218 0.959 . S
H1203 C1218 0.959 . S
H1204 C1218 0.961 . S
H1205 C1219 0.960 . S
H1206 C1219 0.961 . S
H1207 C1219 0.959 . S
H1208 C1222 0.929 . S
H1209 C1223 0.931 . S
H1210 C1225 0.930 . S
C1211 H1199 0.930 . S
C1211 C1212 1.399 . S
C1211 C1216 1.399 . S
C1212 C1211 1.399 . S
C1212 C1213 1.376 . S
C1213 H1200 0.930 . S
C1213 C1212 1.376 . S
C1213 C1214 1.388 . S
C1214 H1201 0.930 . S
C1214 C1213 1.388 . S
C1214 C1215 1.390 . S
C1215 C1214 1.390 . S
C1215 C1216 1.394 . S
C1215 C1221 1.465 . S
C1216 C1211 1.399 . S
C1216 C1215 1.394 . S
C1216 C1217 1.516 . S
C1217 C1216 1.516 . S
C1217 C1218 1.502 . S
C1217 C1219 1.561 . S
C1217 C1220 1.526 . S
C1218 H1202 0.959 . S
C1218 H1203 0.959 . S
C1218 H1204 0.961 . S
C1218 C1217 1.502 . S
C1219 H1205 0.960 . S
C1219 H1206 0.961 . S
C1219 H1207 0.959 . S
C1219 C1217 1.561 . S
C1220 C1217 1.526 . S
C1220 C1221 1.396 . S
C1220 C1225 1.390 . S
C1221 C1215 1.465 . S
C1221 C1220 1.396 . S
C1221 C1222 1.399 . S
C1222 H1208 0.929 . S
C1222 C1221 1.399 . S
C1222 C1223 1.385 . S
C1223 H1209 0.931 . S
C1223 C1222 1.385 . S
C1223 C1224 1.389 . S
C1224 C1223 1.389 . S
C1224 C1225 1.387 . S
C1225 H1210 0.930 . S
C1225 C1220 1.390 . S
C1225 C1224 1.387 . S
H1226 C1238 0.930 . S
H1227 C1240 0.930 . S
H1228 C1241 0.930 . S
H1229 C1245 0.959 . S
H1230 C1245 0.959 . S
H1231 C1245 0.961 . S
H1232 C1246 0.960 . S
H1233 C1246 0.961 . S
H1234 C1246 0.959 . S
H1235 C1249 0.929 . S
H1236 C1250 0.931 . S
H1237 C1252 0.930 . S
C1238 H1226 0.930 . S
C1238 C1239 1.399 . S
C1238 C1243 1.399 . S
C1239 C1238 1.399 . S
C1239 C1240 1.376 . S
C1240 H1227 0.930 . S
C1240 C1239 1.376 . S
C1240 C1241 1.388 . S
C1241 H1228 0.930 . S
C1241 C1240 1.388 . S
C1241 C1242 1.390 . S
C1242 C1241 1.390 . S
C1242 C1243 1.394 . S
C1242 C1248 1.465 . S
C1243 C1238 1.399 . S
C1243 C1242 1.394 . S
C1243 C1244 1.516 . S
C1244 C1243 1.516 . S
C1244 C1245 1.502 . S
C1244 C1246 1.561 . S
C1244 C1247 1.526 . S
C1245 H1229 0.959 . S
C1245 H1230 0.959 . S
C1245 H1231 0.961 . S
C1245 C1244 1.502 . S
C1246 H1232 0.960 . S
C1246 H1233 0.961 . S
C1246 H1234 0.959 . S
C1246 C1244 1.561 . S
C1247 C1244 1.526 . S
C1247 C1248 1.396 . S
C1247 C1252 1.390 . S
C1248 C1242 1.465 . S
C1248 C1247 1.396 . S
C1248 C1249 1.399 . S
C1249 H1235 0.929 . S
C1249 C1248 1.399 . S
C1249 C1250 1.385 . S
C1250 H1236 0.931 . S
C1250 C1249 1.385 . S
C1250 C1251 1.389 . S
C1251 C1250 1.389 . S
C1251 C1252 1.387 . S
C1252 H1237 0.930 . S
C1252 C1247 1.390 . S
C1252 C1251 1.387 . S
H1253 C1265 0.930 . S
H1254 C1267 0.930 . S
H1255 C1268 0.930 . S
H1256 C1272 0.959 . S
H1257 C1272 0.959 . S
H1258 C1272 0.961 . S
H1259 C1273 0.960 . S
H1260 C1273 0.961 . S
H1261 C1273 0.959 . S
H1262 C1276 0.929 . S
H1263 C1277 0.931 . S
H1264 C1279 0.930 . S
C1265 H1253 0.930 . S
C1265 C1266 1.399 . S
C1265 C1270 1.399 . S
C1266 C1265 1.399 . S
C1266 C1267 1.376 . S
C1267 H1254 0.930 . S
C1267 C1266 1.376 . S
C1267 C1268 1.388 . S
C1268 H1255 0.930 . S
C1268 C1267 1.388 . S
C1268 C1269 1.390 . S
C1269 C1268 1.390 . S
C1269 C1270 1.394 . S
C1269 C1275 1.465 . S
C1270 C1265 1.399 . S
C1270 C1269 1.394 . S
C1270 C1271 1.516 . S
C1271 C1270 1.516 . S
C1271 C1272 1.502 . S
C1271 C1273 1.561 . S
C1271 C1274 1.526 . S
C1272 H1256 0.959 . S
C1272 H1257 0.959 . S
C1272 H1258 0.961 . S
C1272 C1271 1.502 . S
C1273 H1259 0.960 . S
C1273 H1260 0.961 . S
C1273 H1261 0.959 . S
C1273 C1271 1.561 . S
C1274 C1271 1.526 . S
C1274 C1275 1.396 . S
C1274 C1279 1.390 . S
C1275 C1269 1.465 . S
C1275 C1274 1.396 . S
C1275 C1276 1.399 . S
C1276 H1262 0.929 . S
C1276 C1275 1.399 . S
C1276 C1277 1.385 . S
C1277 H1263 0.931 . S
C1277 C1276 1.385 . S
C1277 C1278 1.389 . S
C1278 C1277 1.389 . S
C1278 C1279 1.387 . S
C1279 H1264 0.930 . S
C1279 C1274 1.390 . S
C1279 C1278 1.387 . S
H1280 C1292 0.930 . S
H1281 C1294 0.930 . S
H1282 C1295 0.930 . S
H1283 C1299 0.959 . S
H1284 C1299 0.959 . S
H1285 C1299 0.961 . S
H1286 C1300 0.960 . S
H1287 C1300 0.961 . S
H1288 C1300 0.959 . S
H1289 C1303 0.929 . S
H1290 C1304 0.931 . S
H1291 C1306 0.930 . S
C1292 H1280 0.930 . S
C1292 C1293 1.399 . S
C1292 C1297 1.399 . S
C1293 C1292 1.399 . S
C1293 C1294 1.376 . S
C1294 H1281 0.930 . S
C1294 C1293 1.376 . S
C1294 C1295 1.388 . S
C1295 H1282 0.930 . S
C1295 C1294 1.388 . S
C1295 C1296 1.390 . S
C1296 C1295 1.390 . S
C1296 C1297 1.394 . S
C1296 C1302 1.465 . S
C1297 C1292 1.399 . S
C1297 C1296 1.394 . S
C1297 C1298 1.516 . S
C1298 C1297 1.516 . S
C1298 C1299 1.502 . S
C1298 C1300 1.561 . S
C1298 C1301 1.526 . S
C1299 H1283 0.959 . S
C1299 H1284 0.959 . S
C1299 H1285 0.961 . S
C1299 C1298 1.502 . S
C1300 H1286 0.960 . S
C1300 H1287 0.961 . S
C1300 H1288 0.959 . S
C1300 C1298 1.561 . S
C1301 C1298 1.526 . S
C1301 C1302 1.396 . S
C1301 C1306 1.390 . S
C1302 C1296 1.465 . S
C1302 C1301 1.396 . S
C1302 C1303 1.399 . S
C1303 H1289 0.929 . S
C1303 C1302 1.399 . S
C1303 C1304 1.385 . S
C1304 H1290 0.931 . S
C1304 C1303 1.385 . S
C1304 C1305 1.389 . S
C1305 C1304 1.389 . S
C1305 C1306 1.387 . S
C1306 H1291 0.930 . S
C1306 C1301 1.390 . S
C1306 C1305 1.387 . S
H1307 C1319 0.930 . S
H1308 C1321 0.930 . S
H1309 C1322 0.930 . S
H1310 C1326 0.959 . S
H1311 C1326 0.959 . S
H1312 C1326 0.961 . S
H1313 C1327 0.960 . S
H1314 C1327 0.961 . S
H1315 C1327 0.959 . S
H1316 C1330 0.929 . S
H1317 C1331 0.931 . S
H1318 C1333 0.930 . S
C1319 H1307 0.930 . S
C1319 C1320 1.399 1_545 S
C1319 C1324 1.399 . S
C1320 C1319 1.399 1_565 S
C1320 C1321 1.376 . S
C1321 H1308 0.930 . S
C1321 C1320 1.376 . S
C1321 C1322 1.388 . S
C1322 H1309 0.930 . S
C1322 C1321 1.388 . S
C1322 C1323 1.390 . S
C1323 C1322 1.390 . S
C1323 C1324 1.394 1_565 S
C1323 C1329 1.465 . S
C1324 C1319 1.399 . S
C1324 C1323 1.394 1_545 S
C1324 C1325 1.516 1_455 S
C1325 C1324 1.516 1_655 S
C1325 C1326 1.502 . S
C1325 C1327 1.561 1_655 S
C1325 C1328 1.526 . S
C1326 H1310 0.959 . S
C1326 H1311 0.959 . S
C1326 H1312 0.961 . S
C1326 C1325 1.502 . S
C1327 H1313 0.960 . S
C1327 H1314 0.961 . S
C1327 H1315 0.959 . S
C1327 C1325 1.561 1_455 S
C1328 C1325 1.526 . S
C1328 C1329 1.396 1_645 S
C1328 C1333 1.390 . S
C1329 C1323 1.465 . S
C1329 C1328 1.396 1_465 S
C1329 C1330 1.399 . S
C1330 H1316 0.929 . S
C1330 C1329 1.399 . S
C1330 C1331 1.385 1_455 S
C1331 H1317 0.931 . S
C1331 C1330 1.385 1_655 S
C1331 C1332 1.389 1_565 S
C1332 C1331 1.389 1_545 S
C1332 C1333 1.387 . S
C1333 H1318 0.930 . S
C1333 C1328 1.390 . S
C1333 C1332 1.387 . S
H1334 C1346 0.930 . S
H1335 C1348 0.930 . S
H1336 C1349 0.930 . S
H1337 C1353 0.959 . S
H1338 C1353 0.959 . S
H1339 C1353 0.961 . S
H1340 C1354 0.960 . S
H1341 C1354 0.961 . S
H1342 C1354 0.959 . S
H1343 C1357 0.929 . S
H1344 C1358 0.931 . S
H1345 C1360 0.930 . S
C1346 H1334 0.930 . S
C1346 C1347 1.399 . S
C1346 C1351 1.399 . S
C1347 C1346 1.399 . S
C1347 C1348 1.376 . S
C1348 H1335 0.930 . S
C1348 C1347 1.376 . S
C1348 C1349 1.388 . S
C1349 H1336 0.930 . S
C1349 C1348 1.388 . S
C1349 C1350 1.390 . S
C1350 C1349 1.390 . S
C1350 C1351 1.394 . S
C1350 C1356 1.465 . S
C1351 C1346 1.399 . S
C1351 C1350 1.394 . S
C1351 C1352 1.516 . S
C1352 C1351 1.516 . S
C1352 C1353 1.502 . S
C1352 C1354 1.561 . S
C1352 C1355 1.526 . S
C1353 H1337 0.959 . S
C1353 H1338 0.959 . S
C1353 H1339 0.961 . S
C1353 C1352 1.502 . S
C1354 H1340 0.960 . S
C1354 H1341 0.961 . S
C1354 H1342 0.959 . S
C1354 C1352 1.561 . S
C1355 C1352 1.526 . S
C1355 C1356 1.396 . S
C1355 C1360 1.390 . S
C1356 C1350 1.465 . S
C1356 C1355 1.396 . S
C1356 C1357 1.399 . S
C1357 H1343 0.929 . S
C1357 C1356 1.399 . S
C1357 C1358 1.385 . S
C1358 H1344 0.931 . S
C1358 C1357 1.385 . S
C1358 C1359 1.389 . S
C1359 C1358 1.389 . S
C1359 C1360 1.387 . S
C1360 H1345 0.930 . S
C1360 C1355 1.390 . S
C1360 C1359 1.387 . S
H1361 C1373 0.930 . S
H1362 C1375 0.930 . S
H1363 C1376 0.930 . S
H1364 C1380 0.959 . S
H1365 C1380 0.959 . S
H1366 C1380 1.000 . S
H1367 C1381 0.942 1_554 S
H1368 C1381 0.981 . S
H1369 C1381 0.953 1_554 S
H1370 C1384 0.929 . S
H1371 C1385 0.931 . S
H1372 C1387 0.930 . S
C1373 H1361 0.930 . S
C1373 C1374 1.399 . S
C1373 C1378 1.399 . S
C1374 C1373 1.399 . S
C1374 C1375 1.376 1_545 S
C1375 H1362 0.930 . S
C1375 C1374 1.376 1_565 S
C1375 C1376 1.388 . S
C1376 H1363 0.930 . S
C1376 C1375 1.388 . S
C1376 C1377 1.390 . S
C1377 C1376 1.390 . S
C1377 C1378 1.394 1_565 S
C1377 C1383 1.465 1_554 S
C1378 C1373 1.399 . S
C1378 C1377 1.394 1_545 S
C1378 C1379 1.516 1_554 S
C1379 C1378 1.516 1_556 S
C1379 C1380 1.502 . S
C1379 C1381 1.565 . S
C1379 C1382 1.526 . S
C1380 H1364 0.959 . S
C1380 H1365 0.959 . S
C1380 H1366 1.000 . S
C1380 C1379 1.502 . S
C1381 H1367 0.942 1_556 S
C1381 H1368 0.981 . S
C1381 H1369 0.953 1_556 S
C1381 C1379 1.565 . S
C1382 C1379 1.526 . S
C1382 C1383 1.396 1_545 S
C1382 C1387 1.390 . S
C1383 C1377 1.465 1_556 S
C1383 C1382 1.396 1_565 S
C1383 C1384 1.399 . S
C1384 H1370 0.929 . S
C1384 C1383 1.399 . S
C1384 C1385 1.385 . S
C1385 H1371 0.931 . S
C1385 C1384 1.385 . S
C1385 C1386 1.389 . S
C1386 C1385 1.389 . S
C1386 C1387 1.387 1_565 S
C1387 H1372 0.930 . S
C1387 C1382 1.390 . S
C1387 C1386 1.387 1_545 S
H1388 C1400 0.930 . S
H1389 C1402 0.930 . S
H1390 C1403 0.930 . S
H1391 C1407 0.959 . S
H1392 C1407 0.959 . S
H1393 C1407 0.961 . S
H1394 C1408 0.960 . S
H1395 C1408 0.961 . S
H1396 C1408 0.959 . S
H1397 C1411 0.929 . S
H1398 C1412 0.931 . S
H1399 C1414 0.930 . S
C1400 H1388 0.930 . S
C1400 C1401 1.399 . S
C1400 C1405 1.399 . S
C1401 C1400 1.399 . S
C1401 C1402 1.376 . S
C1402 H1389 0.930 . S
C1402 C1401 1.376 . S
C1402 C1403 1.388 . S
C1403 H1390 0.930 . S
C1403 C1402 1.388 . S
C1403 C1404 1.390 . S
C1404 C1403 1.390 . S
C1404 C1405 1.394 . S
C1404 C1410 1.465 . S
C1405 C1400 1.399 . S
C1405 C1404 1.394 . S
C1405 C1406 1.516 . S
C1406 C1405 1.516 . S
C1406 C1407 1.502 . S
C1406 C1408 1.561 . S
C1406 C1409 1.526 . S
C1407 H1391 0.959 . S
C1407 H1392 0.959 . S
C1407 H1393 0.961 . S
C1407 C1406 1.502 . S
C1408 H1394 0.960 . S
C1408 H1395 0.961 . S
C1408 H1396 0.959 . S
C1408 C1406 1.561 . S
C1409 C1406 1.526 . S
C1409 C1410 1.396 . S
C1409 C1414 1.390 . S
C1410 C1404 1.465 . S
C1410 C1409 1.396 . S
C1410 C1411 1.399 . S
C1411 H1397 0.929 . S
C1411 C1410 1.399 . S
C1411 C1412 1.385 . S
C1412 H1398 0.931 . S
C1412 C1411 1.385 . S
C1412 C1413 1.389 . S
C1413 C1412 1.389 . S
C1413 C1414 1.387 . S
C1414 H1399 0.930 . S
C1414 C1409 1.390 . S
C1414 C1413 1.387 . S
H1415 C1427 0.930 . S
H1416 C1429 0.930 . S
H1417 C1430 0.930 . S
H1418 C1434 0.959 . S
H1419 C1434 0.959 . S
H1420 C1434 0.961 . S
H1421 C1435 0.960 . S
H1422 C1435 0.961 . S
H1423 C1435 0.959 . S
H1424 C1438 0.929 . S
H1425 C1439 0.931 . S
H1426 C1441 0.930 . S
C1427 H1415 0.930 . S
C1427 C1428 1.399 1_545 S
C1427 C1432 1.399 . S
C1428 C1427 1.399 1_565 S
C1428 C1429 1.376 . S
C1429 H1416 0.930 . S
C1429 C1428 1.376 . S
C1429 C1430 1.388 . S
C1430 H1417 0.930 . S
C1430 C1429 1.388 . S
C1430 C1431 1.390 . S
C1431 C1430 1.390 . S
C1431 C1432 1.394 1_565 S
C1431 C1437 1.465 . S
C1432 C1427 1.399 . S
C1432 C1431 1.394 1_545 S
C1432 C1433 1.516 . S
C1433 C1432 1.516 . S
C1433 C1434 1.502 . S
C1433 C1435 1.561 . S
C1433 C1436 1.526 . S
C1434 H1418 0.959 . S
C1434 H1419 0.959 . S
C1434 H1420 0.961 . S
C1434 C1433 1.502 . S
C1435 H1421 0.960 . S
C1435 H1422 0.961 . S
C1435 H1423 0.959 . S
C1435 C1433 1.561 . S
C1436 C1433 1.526 . S
C1436 C1437 1.396 1_545 S
C1436 C1441 1.390 . S
C1437 C1431 1.465 . S
C1437 C1436 1.396 1_565 S
C1437 C1438 1.399 . S
C1438 H1424 0.929 . S
C1438 C1437 1.399 . S
C1438 C1439 1.385 . S
C1439 H1425 0.931 . S
C1439 C1438 1.385 . S
C1439 C1440 1.389 1_565 S
C1440 C1439 1.389 1_545 S
C1440 C1441 1.387 . S
C1441 H1426 0.930 . S
C1441 C1436 1.390 . S
C1441 C1440 1.387 . S
H1442 C1454 0.930 . S
H1443 C1456 0.930 . S
H1444 C1457 0.930 . S
H1445 C1461 0.959 . S
H1446 C1461 0.959 . S
H1447 C1461 0.961 . S
H1448 C1462 0.960 . S
H1449 C1462 0.961 . S
H1450 C1462 0.959 . S
H1451 C1465 0.929 . S
H1452 C1466 0.931 . S
H1453 C1468 0.930 . S
C1454 H1442 0.930 . S
C1454 C1455 1.399 . S
C1454 C1459 1.399 . S
C1455 C1454 1.399 . S
C1455 C1456 1.376 . S
C1456 H1443 0.930 . S
C1456 C1455 1.376 . S
C1456 C1457 1.388 . S
C1457 H1444 0.930 . S
C1457 C1456 1.388 . S
C1457 C1458 1.390 . S
C1458 C1457 1.390 . S
C1458 C1459 1.394 . S
C1458 C1464 1.465 . S
C1459 C1454 1.399 . S
C1459 C1458 1.394 . S
C1459 C1460 1.516 . S
C1460 C1459 1.516 . S
C1460 C1461 1.502 . S
C1460 C1462 1.561 . S
C1460 C1463 1.526 . S
C1461 H1445 0.959 . S
C1461 H1446 0.959 . S
C1461 H1447 0.961 . S
C1461 C1460 1.502 . S
C1462 H1448 0.960 . S
C1462 H1449 0.961 . S
C1462 H1450 0.959 . S
C1462 C1460 1.561 . S
C1463 C1460 1.526 . S
C1463 C1464 1.396 . S
C1463 C1468 1.390 . S
C1464 C1458 1.465 . S
C1464 C1463 1.396 . S
C1464 C1465 1.399 . S
C1465 H1451 0.929 . S
C1465 C1464 1.399 . S
C1465 C1466 1.385 . S
C1466 H1452 0.931 . S
C1466 C1465 1.385 . S
C1466 C1467 1.389 . S
C1467 C1466 1.389 . S
C1467 C1468 1.387 . S
C1468 H1453 0.930 . S
C1468 C1463 1.390 . S
C1468 C1467 1.387 . S
H1469 C1481 0.930 . S
H1470 C1483 0.931 . S
H1471 C1484 0.930 . S
H1472 C1488 0.959 . S
H1473 C1488 0.959 . S
H1474 C1488 0.961 . S
H1475 C1489 0.960 1_556 S
H1476 C1489 0.961 . S
H1477 C1489 0.959 . S
H1478 C1492 0.929 . S
H1479 C1493 0.931 . S
H1480 C1495 0.930 . S
C1481 H1469 0.930 . S
C1481 C1482 1.399 . S
C1481 C1486 1.399 . S
C1482 C1481 1.399 . S
C1482 C1483 1.376 1_545 S
C1483 H1470 0.931 . S
C1483 C1482 1.376 1_565 S
C1483 C1484 1.388 1_455 S
C1484 H1471 0.930 . S
C1484 C1483 1.388 1_655 S
C1484 C1485 1.390 . S
C1485 C1484 1.390 . S
C1485 C1486 1.394 1_665 S
C1485 C1491 1.465 1_556 S
C1486 C1481 1.399 . S
C1486 C1485 1.394 1_445 S
C1486 C1487 1.516 1_556 S
C1487 C1486 1.516 1_554 S
C1487 C1488 1.502 . S
C1487 C1489 1.561 1_455 S
C1487 C1490 1.526 1_455 S
C1488 H1472 0.959 . S
C1488 H1473 0.959 . S
C1488 H1474 0.961 . S
C1488 C1487 1.502 . S
C1489 H1475 0.960 1_554 S
C1489 H1476 0.961 . S
C1489 H1477 0.959 . S
C1489 C1487 1.561 1_655 S
C1490 C1487 1.526 1_655 S
C1490 C1491 1.396 1_545 S
C1490 C1495 1.390 . S
C1491 C1485 1.465 1_554 S
C1491 C1490 1.396 1_565 S
C1491 C1492 1.399 . S
C1492 H1478 0.929 . S
C1492 C1491 1.399 . S
C1492 C1493 1.385 . S
C1493 H1479 0.931 . S
C1493 C1492 1.385 . S
C1493 C1494 1.389 . S
C1494 C1493 1.389 . S
C1494 C1495 1.387 1_565 S
C1495 H1480 0.930 . S
C1495 C1490 1.390 . S
C1495 C1494 1.387 1_545 S
H1496 C1508 0.930 . S
H1497 C1510 0.930 . S
H1498 C1511 0.930 . S
H1499 C1515 0.959 . S
H1500 C1515 0.959 . S
H1501 C1515 0.961 . S
H1502 C1516 0.960 . S
H1503 C1516 0.961 . S
H1504 C1516 0.959 . S
H1505 C1519 0.929 . S
H1506 C1520 0.931 . S
H1507 C1522 0.930 . S
C1508 H1496 0.930 . S
C1508 C1509 1.399 . S
C1508 C1513 1.399 . S
C1509 C1508 1.399 . S
C1509 C1510 1.376 . S
C1510 H1497 0.930 . S
C1510 C1509 1.376 . S
C1510 C1511 1.388 . S
C1511 H1498 0.930 . S
C1511 C1510 1.388 . S
C1511 C1512 1.390 . S
C1512 C1511 1.390 . S
C1512 C1513 1.394 . S
C1512 C1518 1.465 . S
C1513 C1508 1.399 . S
C1513 C1512 1.394 . S
C1513 C1514 1.516 . S
C1514 C1513 1.516 . S
C1514 C1515 1.502 . S
C1514 C1516 1.561 . S
C1514 C1517 1.526 . S
C1515 H1499 0.959 . S
C1515 H1500 0.959 . S
C1515 H1501 0.961 . S
C1515 C1514 1.502 . S
C1516 H1502 0.960 . S
C1516 H1503 0.961 . S
C1516 H1504 0.959 . S
C1516 C1514 1.561 . S
C1517 C1514 1.526 . S
C1517 C1518 1.396 . S
C1517 C1522 1.390 . S
C1518 C1512 1.465 . S
C1518 C1517 1.396 . S
C1518 C1519 1.399 . S
C1519 H1505 0.929 . S
C1519 C1518 1.399 . S
C1519 C1520 1.385 . S
C1520 H1506 0.931 . S
C1520 C1519 1.385 . S
C1520 C1521 1.389 . S
C1521 C1520 1.389 . S
C1521 C1522 1.387 . S
C1522 H1507 0.930 . S
C1522 C1517 1.390 . S
C1522 C1521 1.387 . S
H1523 C1535 0.930 . S
H1524 C1537 0.930 . S
H1525 C1538 0.930 . S
H1526 C1542 0.959 . S
H1527 C1542 0.959 . S
H1528 C1542 0.961 . S
H1529 C1543 0.960 . S
H1530 C1543 0.961 . S
H1531 C1543 0.959 . S
H1532 C1546 0.929 . S
H1533 C1547 0.931 . S
H1534 C1549 0.930 . S
C1535 H1523 0.930 . S
C1535 C1536 1.399 . S
C1535 C1540 1.399 . S
C1536 C1535 1.399 . S
C1536 C1537 1.376 . S
C1537 H1524 0.930 . S
C1537 C1536 1.376 . S
C1537 C1538 1.388 . S
C1538 H1525 0.930 . S
C1538 C1537 1.388 . S
C1538 C1539 1.390 . S
C1539 C1538 1.390 . S
C1539 C1540 1.394 . S
C1539 C1545 1.465 . S
C1540 C1535 1.399 . S
C1540 C1539 1.394 . S
C1540 C1541 1.516 . S
C1541 C1540 1.516 . S
C1541 C1542 1.502 . S
C1541 C1543 1.561 . S
C1541 C1544 1.526 . S
C1542 H1526 0.959 . S
C1542 H1527 0.959 . S
C1542 H1528 0.961 . S
C1542 C1541 1.502 . S
C1543 H1529 0.960 . S
C1543 H1530 0.961 . S
C1543 H1531 0.959 . S
C1543 C1541 1.561 . S
C1544 C1541 1.526 . S
C1544 C1545 1.396 . S
C1544 C1549 1.390 . S
C1545 C1539 1.465 . S
C1545 C1544 1.396 . S
C1545 C1546 1.399 . S
C1546 H1532 0.929 . S
C1546 C1545 1.399 . S
C1546 C1547 1.385 . S
C1547 H1533 0.931 . S
C1547 C1546 1.385 . S
C1547 C1548 1.389 . S
C1548 C1547 1.389 . S
C1548 C1549 1.387 . S
C1549 H1534 0.930 . S
C1549 C1544 1.390 . S
C1549 C1548 1.387 . S
H1550 C1562 0.930 . S
H1551 C1564 0.930 . S
H1552 C1565 0.930 . S
H1553 C1569 0.959 . S
H1554 C1569 0.959 . S
H1555 C1569 0.961 . S
H1556 C1570 0.960 . S
H1557 C1570 0.961 . S
H1558 C1570 0.959 . S
H1559 C1573 0.929 . S
H1560 C1574 0.931 . S
H1561 C1576 0.930 . S
C1562 H1550 0.930 . S
C1562 C1563 1.399 . S
C1562 C1567 1.399 . S
C1563 C1562 1.399 . S
C1563 C1564 1.376 . S
C1564 H1551 0.930 . S
C1564 C1563 1.376 . S
C1564 C1565 1.388 . S
C1565 H1552 0.930 . S
C1565 C1564 1.388 . S
C1565 C1566 1.390 . S
C1566 C1565 1.390 . S
C1566 C1567 1.394 . S
C1566 C1572 1.465 . S
C1567 C1562 1.399 . S
C1567 C1566 1.394 . S
C1567 C1568 1.516 . S
C1568 C1567 1.516 . S
C1568 C1569 1.502 . S
C1568 C1570 1.561 . S
C1568 C1571 1.526 . S
C1569 H1553 0.959 . S
C1569 H1554 0.959 . S
C1569 H1555 0.961 . S
C1569 C1568 1.502 . S
C1570 H1556 0.960 . S
C1570 H1557 0.961 . S
C1570 H1558 0.959 . S
C1570 C1568 1.561 . S
C1571 C1568 1.526 . S
C1571 C1572 1.396 . S
C1571 C1576 1.390 . S
C1572 C1566 1.465 . S
C1572 C1571 1.396 . S
C1572 C1573 1.399 . S
C1573 H1559 0.929 . S
C1573 C1572 1.399 . S
C1573 C1574 1.385 . S
C1574 H1560 0.931 . S
C1574 C1573 1.385 . S
C1574 C1575 1.389 . S
C1575 C1574 1.389 . S
C1575 C1576 1.387 . S
C1576 H1561 0.930 . S
C1576 C1571 1.390 . S
C1576 C1575 1.387 . S
H1577 C1589 0.930 . S
H1578 C1591 0.930 . S
H1579 C1592 0.930 . S
H1580 C1596 0.959 . S
H1581 C1596 0.959 . S
H1582 C1596 0.961 . S
H1583 C1597 0.960 . S
H1584 C1597 0.961 . S
H1585 C1597 0.959 . S
H1586 C1600 0.929 . S
H1587 C1601 0.931 . S
H1588 C1603 0.930 . S
C1589 H1577 0.930 . S
C1589 C1590 1.399 . S
C1589 C1594 1.399 . S
C1590 C1589 1.399 . S
C1590 C1591 1.376 . S
C1591 H1578 0.930 . S
C1591 C1590 1.376 . S
C1591 C1592 1.388 . S
C1592 H1579 0.930 . S
C1592 C1591 1.388 . S
C1592 C1593 1.390 . S
C1593 C1592 1.390 . S
C1593 C1594 1.394 . S
C1593 C1599 1.465 . S
C1594 C1589 1.399 . S
C1594 C1593 1.394 . S
C1594 C1595 1.516 . S
C1595 C1594 1.516 . S
C1595 C1596 1.502 . S
C1595 C1597 1.561 . S
C1595 C1598 1.526 . S
C1596 H1580 0.959 . S
C1596 H1581 0.959 . S
C1596 H1582 0.961 . S
C1596 C1595 1.502 . S
C1597 H1583 0.960 . S
C1597 H1584 0.961 . S
C1597 H1585 0.959 . S
C1597 C1595 1.561 . S
C1598 C1595 1.526 . S
C1598 C1599 1.396 . S
C1598 C1603 1.390 . S
C1599 C1593 1.465 . S
C1599 C1598 1.396 . S
C1599 C1600 1.399 . S
C1600 H1586 0.929 . S
C1600 C1599 1.399 . S
C1600 C1601 1.385 . S
C1601 H1587 0.931 . S
C1601 C1600 1.385 . S
C1601 C1602 1.389 . S
C1602 C1601 1.389 . S
C1602 C1603 1.387 . S
C1603 H1588 0.930 . S
C1603 C1598 1.390 . S
C1603 C1602 1.387 . S
H1604 C1616 0.930 . S
H1605 C1618 0.930 . S
H1606 C1619 0.930 . S
H1607 C1623 0.959 . S
H1608 C1623 0.959 . S
H1609 C1623 0.961 . S
H1610 C1624 0.960 . S
H1611 C1624 0.961 1_556 S
H1612 C1624 0.959 1_556 S
H1613 C1627 0.929 . S
H1614 C1628 0.931 . S
H1615 C1630 0.930 . S
C1616 H1604 0.930 . S
C1616 C1617 1.399 . S
C1616 C1621 1.399 . S
C1617 C1616 1.399 . S
C1617 C1618 1.376 . S
C1618 H1605 0.930 . S
C1618 C1617 1.376 . S
C1618 C1619 1.388 . S
C1619 H1606 0.930 . S
C1619 C1618 1.388 . S
C1619 C1620 1.390 . S
C1620 C1619 1.390 . S
C1620 C1621 1.394 . S
C1620 C1626 1.465 1_554 S
C1621 C1616 1.399 . S
C1621 C1620 1.394 . S
C1621 C1622 1.516 . S
C1622 C1621 1.516 . S
C1622 C1623 1.502 . S
C1622 C1624 1.561 . S
C1622 C1625 1.526 1_554 S
C1623 H1607 0.959 . S
C1623 H1608 0.959 . S
C1623 H1609 0.961 . S
C1623 C1622 1.502 . S
C1624 H1610 0.960 . S
C1624 H1611 0.961 1_554 S
C1624 H1612 0.959 1_554 S
C1624 C1622 1.561 . S
C1625 C1622 1.526 1_556 S
C1625 C1626 1.396 . S
C1625 C1630 1.390 . S
C1626 C1620 1.465 1_556 S
C1626 C1625 1.396 . S
C1626 C1627 1.399 . S
C1627 H1613 0.929 . S
C1627 C1626 1.399 . S
C1627 C1628 1.385 . S
C1628 H1614 0.931 . S
C1628 C1627 1.385 . S
C1628 C1629 1.389 . S
C1629 C1628 1.389 . S
C1629 C1630 1.387 . S
C1630 H1615 0.930 . S
C1630 C1625 1.390 . S
C1630 C1629 1.387 . S
H1631 C1643 0.930 . S
H1632 C1645 0.930 . S
H1633 C1646 0.930 . S
H1634 C1650 0.959 . S
H1635 C1650 0.959 . S
H1636 C1650 0.961 . S
H1637 C1651 0.960 . S
H1638 C1651 0.961 . S
H1639 C1651 0.959 . S
H1640 C1654 0.929 . S
H1641 C1655 0.931 . S
H1642 C1657 0.930 . S
C1643 H1631 0.930 . S
C1643 C1644 1.399 1_655 S
C1643 C1648 1.399 . S
C1644 C1643 1.399 1_455 S
C1644 C1645 1.376 . S
C1645 H1632 0.930 . S
C1645 C1644 1.376 . S
C1645 C1646 1.388 . S
C1646 H1633 0.930 . S
C1646 C1645 1.388 . S
C1646 C1647 1.390 . S
C1647 C1646 1.390 . S
C1647 C1648 1.394 1_455 S
C1647 C1653 1.465 . S
C1648 C1643 1.399 . S
C1648 C1647 1.394 1_655 S
C1648 C1649 1.516 . S
C1649 C1648 1.516 . S
C1649 C1650 1.502 . S
C1649 C1651 1.561 . S
C1649 C1652 1.526 . S
C1650 H1634 0.959 . S
C1650 H1635 0.959 . S
C1650 H1636 0.961 . S
C1650 C1649 1.502 . S
C1651 H1637 0.960 . S
C1651 H1638 0.961 . S
C1651 H1639 0.959 . S
C1651 C1649 1.561 . S
C1652 C1649 1.526 . S
C1652 C1653 1.396 1_655 S
C1652 C1657 1.390 . S
C1653 C1647 1.465 . S
C1653 C1652 1.396 1_455 S
C1653 C1654 1.399 . S
C1654 H1640 0.929 . S
C1654 C1653 1.399 . S
C1654 C1655 1.385 . S
C1655 H1641 0.931 . S
C1655 C1654 1.385 . S
C1655 C1656 1.389 1_455 S
C1656 C1655 1.389 1_655 S
C1656 C1657 1.387 . S
C1657 H1642 0.930 . S
C1657 C1652 1.390 . S
C1657 C1656 1.387 . S
H1658 C1670 0.930 . S
H1659 C1672 0.930 1_655 S
H1660 C1673 0.930 . S
H1661 C1677 0.959 . S
H1662 C1677 0.959 . S
H1663 C1677 0.961 1_554 S
H1664 C1678 0.960 1_455 S
H1665 C1678 0.961 1_556 S
H1666 C1678 0.959 . S
H1667 C1681 0.929 . S
H1668 C1682 0.931 . S
H1669 C1684 0.940 . S
C1670 H1658 0.930 . S
C1670 C1671 1.399 . S
C1670 C1675 1.399 . S
C1671 C1670 1.399 . S
C1671 C1672 1.376 . S
C1672 H1659 0.930 1_455 S
C1672 C1671 1.376 . S
C1672 C1673 1.388 1_455 S
C1673 H1660 0.930 . S
C1673 C1672 1.388 1_655 S
C1673 C1674 1.390 . S
C1674 C1673 1.390 . S
C1674 C1675 1.394 1_655 S
C1674 C1680 1.465 1_554 S
C1675 C1670 1.399 . S
C1675 C1674 1.394 1_455 S
C1675 C1676 1.551 . S
C1676 C1675 1.551 . S
C1676 C1677 1.491 1_554 S
C1676 C1678 1.575 1_455 S
C1676 C1679 1.490 1_454 S
C1677 H1661 0.959 . S
C1677 H1662 0.959 . S
C1677 H1663 0.961 1_556 S
C1677 C1676 1.491 1_556 S
C1678 H1664 0.960 1_655 S
C1678 H1665 0.961 1_554 S
C1678 H1666 0.959 . S
C1678 C1676 1.575 1_655 S
C1679 C1676 1.490 1_656 S
C1679 C1680 1.396 . S
C1679 C1684 1.390 . S
C1680 C1674 1.465 1_556 S
C1680 C1679 1.396 . S
C1680 C1681 1.399 . S
C1681 H1667 0.929 . S
C1681 C1680 1.399 . S
C1681 C1682 1.385 . S
C1682 H1668 0.931 . S
C1682 C1681 1.385 . S
C1682 C1683 1.389 . S
C1683 C1682 1.389 . S
C1683 C1684 1.387 . S
C1684 H1669 0.940 . S
C1684 C1679 1.390 . S
C1684 C1683 1.387 . S
H1685 C1697 0.930 . S
H1686 C1699 0.930 . S
H1687 C1700 0.930 . S
H1688 C1704 0.959 . S
H1689 C1704 0.959 . S
H1690 C1704 0.961 . S
H1691 C1705 0.960 . S
H1692 C1705 0.961 . S
H1693 C1705 0.959 . S
H1694 C1708 0.929 . S
H1695 C1709 0.931 . S
H1696 C1711 0.930 . S
C1697 H1685 0.930 . S
C1697 C1698 1.399 . S
C1697 C1702 1.399 . S
C1698 C1697 1.399 . S
C1698 C1699 1.376 . S
C1699 H1686 0.930 . S
C1699 C1698 1.376 . S
C1699 C1700 1.388 . S
C1700 H1687 0.930 . S
C1700 C1699 1.388 . S
C1700 C1701 1.390 . S
C1701 C1700 1.390 . S
C1701 C1702 1.394 . S
C1701 C1707 1.465 . S
C1702 C1697 1.399 . S
C1702 C1701 1.394 . S
C1702 C1703 1.516 . S
C1703 C1702 1.516 . S
C1703 C1704 1.502 . S
C1703 C1705 1.561 . S
C1703 C1706 1.526 . S
C1704 H1688 0.959 . S
C1704 H1689 0.959 . S
C1704 H1690 0.961 . S
C1704 C1703 1.502 . S
C1705 H1691 0.960 . S
C1705 H1692 0.961 . S
C1705 H1693 0.959 . S
C1705 C1703 1.561 . S
C1706 C1703 1.526 . S
C1706 C1707 1.396 . S
C1706 C1711 1.390 . S
C1707 C1701 1.465 . S
C1707 C1706 1.396 . S
C1707 C1708 1.399 . S
C1708 H1694 0.929 . S
C1708 C1707 1.399 . S
C1708 C1709 1.385 . S
C1709 H1695 0.931 . S
C1709 C1708 1.385 . S
C1709 C1710 1.389 . S
C1710 C1709 1.389 . S
C1710 C1711 1.387 . S
C1711 H1696 0.930 . S
C1711 C1706 1.390 . S
C1711 C1710 1.387 . S
H1712 C1724 0.930 . S
H1713 C1726 0.930 . S
H1714 C1727 0.930 . S
H1715 C1731 0.959 . S
H1716 C1731 0.959 . S
H1717 C1731 0.961 . S
H1718 C1732 0.960 . S
H1719 C1732 0.961 . S
H1720 C1732 0.959 . S
H1721 C1735 0.929 . S
H1722 C1736 0.931 . S
H1723 C1738 0.930 . S
C1724 H1712 0.930 . S
C1724 C1725 1.399 . S
C1724 C1729 1.399 . S
C1725 C1724 1.399 . S
C1725 C1726 1.376 . S
C1726 H1713 0.930 . S
C1726 C1725 1.376 . S
C1726 C1727 1.388 . S
C1727 H1714 0.930 . S
C1727 C1726 1.388 . S
C1727 C1728 1.390 . S
C1728 C1727 1.390 . S
C1728 C1729 1.394 . S
C1728 C1734 1.465 . S
C1729 C1724 1.399 . S
C1729 C1728 1.394 . S
C1729 C1730 1.516 . S
C1730 C1729 1.516 . S
C1730 C1731 1.502 . S
C1730 C1732 1.561 . S
C1730 C1733 1.526 . S
C1731 H1715 0.959 . S
C1731 H1716 0.959 . S
C1731 H1717 0.961 . S
C1731 C1730 1.502 . S
C1732 H1718 0.960 . S
C1732 H1719 0.961 . S
C1732 H1720 0.959 . S
C1732 C1730 1.561 . S
C1733 C1730 1.526 . S
C1733 C1734 1.396 . S
C1733 C1738 1.390 . S
C1734 C1728 1.465 . S
C1734 C1733 1.396 . S
C1734 C1735 1.399 . S
C1735 H1721 0.929 . S
C1735 C1734 1.399 . S
C1735 C1736 1.385 . S
C1736 H1722 0.931 . S
C1736 C1735 1.385 . S
C1736 C1737 1.389 . S
C1737 C1736 1.389 . S
C1737 C1738 1.387 . S
C1738 H1723 0.930 . S
C1738 C1733 1.390 . S
C1738 C1737 1.387 . S
H1739 C1751 0.930 . S
H1740 C1753 0.930 . S
H1741 C1754 0.930 . S
H1742 C1758 0.959 . S
H1743 C1758 0.959 . S
H1744 C1758 0.961 . S
H1745 C1759 0.960 . S
H1746 C1759 0.961 . S
H1747 C1759 0.959 . S
H1748 C1762 0.929 . S
H1749 C1763 0.931 . S
H1750 C1765 0.930 . S
C1751 H1739 0.930 . S
C1751 C1752 1.399 . S
C1751 C1756 1.399 . S
C1752 C1751 1.399 . S
C1752 C1753 1.376 . S
C1753 H1740 0.930 . S
C1753 C1752 1.376 . S
C1753 C1754 1.388 . S
C1754 H1741 0.930 . S
C1754 C1753 1.388 . S
C1754 C1755 1.390 . S
C1755 C1754 1.390 . S
C1755 C1756 1.394 . S
C1755 C1761 1.465 . S
C1756 C1751 1.399 . S
C1756 C1755 1.394 . S
C1756 C1757 1.516 . S
C1757 C1756 1.516 . S
C1757 C1758 1.502 . S
C1757 C1759 1.561 . S
C1757 C1760 1.526 . S
C1758 H1742 0.959 . S
C1758 H1743 0.959 . S
C1758 H1744 0.961 . S
C1758 C1757 1.502 . S
C1759 H1745 0.960 . S
C1759 H1746 0.961 . S
C1759 H1747 0.959 . S
C1759 C1757 1.561 . S
C1760 C1757 1.526 . S
C1760 C1761 1.396 . S
C1760 C1765 1.390 . S
C1761 C1755 1.465 . S
C1761 C1760 1.396 . S
C1761 C1762 1.399 . S
C1762 H1748 0.929 . S
C1762 C1761 1.399 . S
C1762 C1763 1.385 . S
C1763 H1749 0.931 . S
C1763 C1762 1.385 . S
C1763 C1764 1.389 . S
C1764 C1763 1.389 . S
C1764 C1765 1.387 . S
C1765 H1750 0.930 . S
C1765 C1760 1.390 . S
C1765 C1764 1.387 . S
H1766 C1778 0.930 . S
H1767 C1780 0.930 . S
H1768 C1781 0.930 . S
H1769 C1785 0.959 . S
H1770 C1785 0.959 . S
H1771 C1785 0.961 . S
H1772 C1786 0.960 . S
H1773 C1786 0.961 . S
H1774 C1786 0.959 . S
H1775 C1789 0.929 . S
H1776 C1790 0.931 . S
H1777 C1792 0.930 . S
C1778 H1766 0.930 . S
C1778 C1779 1.399 . S
C1778 C1783 1.399 . S
C1779 C1778 1.399 . S
C1779 C1780 1.376 . S
C1780 H1767 0.930 . S
C1780 C1779 1.376 . S
C1780 C1781 1.388 . S
C1781 H1768 0.930 . S
C1781 C1780 1.388 . S
C1781 C1782 1.390 . S
C1782 C1781 1.390 . S
C1782 C1783 1.394 . S
C1782 C1788 1.465 . S
C1783 C1778 1.399 . S
C1783 C1782 1.394 . S
C1783 C1784 1.516 . S
C1784 C1783 1.516 . S
C1784 C1785 1.502 . S
C1784 C1786 1.561 . S
C1784 C1787 1.526 . S
C1785 H1769 0.959 . S
C1785 H1770 0.959 . S
C1785 H1771 0.961 . S
C1785 C1784 1.502 . S
C1786 H1772 0.960 . S
C1786 H1773 0.961 . S
C1786 H1774 0.959 . S
C1786 C1784 1.561 . S
C1787 C1784 1.526 . S
C1787 C1788 1.396 . S
C1787 C1792 1.390 . S
C1788 C1782 1.465 . S
C1788 C1787 1.396 . S
C1788 C1789 1.399 . S
C1789 H1775 0.929 . S
C1789 C1788 1.399 . S
C1789 C1790 1.385 . S
C1790 H1776 0.931 . S
C1790 C1789 1.385 . S
C1790 C1791 1.389 . S
C1791 C1790 1.389 . S
C1791 C1792 1.387 . S
C1792 H1777 0.930 . S
C1792 C1787 1.390 . S
C1792 C1791 1.387 . S
H1793 C1805 0.930 . S
H1794 C1807 0.930 . S
H1795 C1808 0.930 . S
H1796 C1812 0.959 . S
H1797 C1812 0.959 . S
H1798 C1812 0.961 . S
H1799 C1813 0.960 . S
H1800 C1813 0.961 . S
H1801 C1813 0.959 . S
H1802 C1816 0.929 . S
H1803 C1817 0.931 . S
H1804 C1819 0.930 . S
C1805 H1793 0.930 . S
C1805 C1806 1.399 . S
C1805 C1810 1.399 . S
C1806 C1805 1.399 . S
C1806 C1807 1.376 . S
C1807 H1794 0.930 . S
C1807 C1806 1.376 . S
C1807 C1808 1.388 . S
C1808 H1795 0.930 . S
C1808 C1807 1.388 . S
C1808 C1809 1.390 . S
C1809 C1808 1.390 . S
C1809 C1810 1.394 . S
C1809 C1815 1.465 . S
C1810 C1805 1.399 . S
C1810 C1809 1.394 . S
C1810 C1811 1.516 . S
C1811 C1810 1.516 . S
C1811 C1812 1.502 . S
C1811 C1813 1.561 . S
C1811 C1814 1.526 . S
C1812 H1796 0.959 . S
C1812 H1797 0.959 . S
C1812 H1798 0.961 . S
C1812 C1811 1.502 . S
C1813 H1799 0.960 . S
C1813 H1800 0.961 . S
C1813 H1801 0.959 . S
C1813 C1811 1.561 . S
C1814 C1811 1.526 . S
C1814 C1815 1.396 . S
C1814 C1819 1.390 . S
C1815 C1809 1.465 . S
C1815 C1814 1.396 . S
C1815 C1816 1.399 . S
C1816 H1802 0.929 . S
C1816 C1815 1.399 . S
C1816 C1817 1.385 . S
C1817 H1803 0.931 . S
C1817 C1816 1.385 . S
C1817 C1818 1.389 . S
C1818 C1817 1.389 . S
C1818 C1819 1.387 . S
C1819 H1804 0.930 . S
C1819 C1814 1.390 . S
C1819 C1818 1.387 . S
H1820 C1832 0.930 . S
H1821 C1834 0.930 . S
H1822 C1835 0.930 . S
H1823 C1839 0.959 . S
H1824 C1839 0.959 . S
H1825 C1839 0.961 . S
H1826 C1840 0.960 . S
H1827 C1840 0.961 . S
H1828 C1840 0.959 . S
H1829 C1843 0.929 . S
H1830 C1844 0.931 . S
H1831 C1846 0.930 . S
C1832 H1820 0.930 . S
C1832 C1833 1.399 . S
C1832 C1837 1.399 . S
C1833 C1832 1.399 . S
C1833 C1834 1.376 . S
C1834 H1821 0.930 . S
C1834 C1833 1.376 . S
C1834 C1835 1.388 . S
C1835 H1822 0.930 . S
C1835 C1834 1.388 . S
C1835 C1836 1.390 . S
C1836 C1835 1.390 . S
C1836 C1837 1.394 . S
C1836 C1842 1.465 . S
C1837 C1832 1.399 . S
C1837 C1836 1.394 . S
C1837 C1838 1.516 . S
C1838 C1837 1.516 . S
C1838 C1839 1.502 . S
C1838 C1840 1.561 . S
C1838 C1841 1.526 . S
C1839 H1823 0.959 . S
C1839 H1824 0.959 . S
C1839 H1825 0.961 . S
C1839 C1838 1.502 . S
C1840 H1826 0.960 . S
C1840 H1827 0.961 . S
C1840 H1828 0.959 . S
C1840 C1838 1.561 . S
C1841 C1838 1.526 . S
C1841 C1842 1.396 . S
C1841 C1846 1.390 . S
C1842 C1836 1.465 . S
C1842 C1841 1.396 . S
C1842 C1843 1.399 . S
C1843 H1829 0.929 . S
C1843 C1842 1.399 . S
C1843 C1844 1.385 . S
C1844 H1830 0.931 . S
C1844 C1843 1.385 . S
C1844 C1845 1.389 . S
C1845 C1844 1.389 . S
C1845 C1846 1.387 . S
C1846 H1831 0.930 . S
C1846 C1841 1.390 . S
C1846 C1845 1.387 . S
H1847 C1859 0.930 . S
H1848 C1861 0.930 . S
H1849 C1862 0.930 . S
H1850 C1866 0.959 . S
H1851 C1866 0.959 . S
H1852 C1866 0.961 . S
H1853 C1867 0.960 . S
H1854 C1867 0.961 . S
H1855 C1867 0.959 . S
H1856 C1870 0.929 . S
H1857 C1871 0.931 . S
H1858 C1873 0.930 . S
C1859 H1847 0.930 . S
C1859 C1860 1.399 . S
C1859 C1864 1.399 . S
C1860 C1859 1.399 . S
C1860 C1861 1.376 . S
C1861 H1848 0.930 . S
C1861 C1860 1.376 . S
C1861 C1862 1.388 . S
C1862 H1849 0.930 . S
C1862 C1861 1.388 . S
C1862 C1863 1.390 . S
C1863 C1862 1.390 . S
C1863 C1864 1.394 . S
C1863 C1869 1.465 . S
C1864 C1859 1.399 . S
C1864 C1863 1.394 . S
C1864 C1865 1.516 . S
C1865 C1864 1.516 . S
C1865 C1866 1.502 . S
C1865 C1867 1.561 . S
C1865 C1868 1.526 . S
C1866 H1850 0.959 . S
C1866 H1851 0.959 . S
C1866 H1852 0.961 . S
C1866 C1865 1.502 . S
C1867 H1853 0.960 . S
C1867 H1854 0.961 . S
C1867 H1855 0.959 . S
C1867 C1865 1.561 . S
C1868 C1865 1.526 . S
C1868 C1869 1.396 . S
C1868 C1873 1.390 . S
C1869 C1863 1.465 . S
C1869 C1868 1.396 . S
C1869 C1870 1.399 . S
C1870 H1856 0.929 . S
C1870 C1869 1.399 . S
C1870 C1871 1.385 . S
C1871 H1857 0.931 . S
C1871 C1870 1.385 . S
C1871 C1872 1.389 . S
C1872 C1871 1.389 . S
C1872 C1873 1.387 . S
C1873 H1858 0.930 . S
C1873 C1868 1.390 . S
C1873 C1872 1.387 . S
H1874 C1886 0.930 . S
H1875 C1888 0.930 . S
H1876 C1889 0.930 . S
H1877 C1893 0.959 . S
H1878 C1893 0.959 . S
H1879 C1893 0.961 . S
H1880 C1894 0.960 . S
H1881 C1894 0.961 . S
H1882 C1894 0.959 . S
H1883 C1897 0.929 . S
H1884 C1898 0.931 . S
H1885 C1900 0.930 . S
C1886 H1874 0.930 . S
C1886 C1887 1.399 . S
C1886 C1891 1.399 . S
C1887 C1886 1.399 . S
C1887 C1888 1.376 . S
C1888 H1875 0.930 . S
C1888 C1887 1.376 . S
C1888 C1889 1.388 . S
C1889 H1876 0.930 . S
C1889 C1888 1.388 . S
C1889 C1890 1.390 . S
C1890 C1889 1.390 . S
C1890 C1891 1.394 . S
C1890 C1896 1.465 . S
C1891 C1886 1.399 . S
C1891 C1890 1.394 . S
C1891 C1892 1.516 . S
C1892 C1891 1.516 . S
C1892 C1893 1.502 . S
C1892 C1894 1.561 . S
C1892 C1895 1.526 . S
C1893 H1877 0.959 . S
C1893 H1878 0.959 . S
C1893 H1879 0.961 . S
C1893 C1892 1.502 . S
C1894 H1880 0.960 . S
C1894 H1881 0.961 . S
C1894 H1882 0.959 . S
C1894 C1892 1.561 . S
C1895 C1892 1.526 . S
C1895 C1896 1.396 . S
C1895 C1900 1.390 . S
C1896 C1890 1.465 . S
C1896 C1895 1.396 . S
C1896 C1897 1.399 . S
C1897 H1883 0.929 . S
C1897 C1896 1.399 . S
C1897 C1898 1.385 . S
C1898 H1884 0.931 . S
C1898 C1897 1.385 . S
C1898 C1899 1.389 . S
C1899 C1898 1.389 . S
C1899 C1900 1.387 . S
C1900 H1885 0.930 . S
C1900 C1895 1.390 . S
C1900 C1899 1.387 . S
H1901 C1913 0.930 . S
H1902 C1915 0.930 . S
H1903 C1916 0.930 . S
H1904 C1920 0.959 . S
H1905 C1920 0.959 . S
H1906 C1920 0.961 . S
H1907 C1921 0.960 . S
H1908 C1921 0.961 . S
H1909 C1921 0.959 . S
H1910 C1924 0.929 . S
H1911 C1925 0.931 . S
H1912 C1927 0.930 . S
C1913 H1901 0.930 . S
C1913 C1914 1.399 . S
C1913 C1918 1.399 . S
C1914 C1913 1.399 . S
C1914 C1915 1.376 . S
C1915 H1902 0.930 . S
C1915 C1914 1.376 . S
C1915 C1916 1.388 . S
C1916 H1903 0.930 . S
C1916 C1915 1.388 . S
C1916 C1917 1.390 . S
C1917 C1916 1.390 . S
C1917 C1918 1.394 . S
C1917 C1923 1.465 . S
C1918 C1913 1.399 . S
C1918 C1917 1.394 . S
C1918 C1919 1.516 . S
C1919 C1918 1.516 . S
C1919 C1920 1.502 . S
C1919 C1921 1.561 . S
C1919 C1922 1.526 . S
C1920 H1904 0.959 . S
C1920 H1905 0.959 . S
C1920 H1906 0.961 . S
C1920 C1919 1.502 . S
C1921 H1907 0.960 . S
C1921 H1908 0.961 . S
C1921 H1909 0.959 . S
C1921 C1919 1.561 . S
C1922 C1919 1.526 . S
C1922 C1923 1.396 . S
C1922 C1927 1.390 . S
C1923 C1917 1.465 . S
C1923 C1922 1.396 . S
C1923 C1924 1.399 . S
C1924 H1910 0.929 . S
C1924 C1923 1.399 . S
C1924 C1925 1.385 . S
C1925 H1911 0.931 . S
C1925 C1924 1.385 . S
C1925 C1926 1.389 . S
C1926 C1925 1.389 . S
C1926 C1927 1.387 . S
C1927 H1912 0.930 . S
C1927 C1922 1.390 . S
C1927 C1926 1.387 . S
H1928 C1940 0.930 . S
H1929 C1942 0.930 . S
H1930 C1943 0.930 . S
H1931 C1947 0.959 . S
H1932 C1947 0.959 . S
H1933 C1947 0.961 . S
H1934 C1948 0.960 . S
H1935 C1948 0.961 . S
H1936 C1948 0.959 . S
H1937 C1951 0.929 . S
H1938 C1952 0.931 . S
H1939 C1954 0.930 . S
C1940 H1928 0.930 . S
C1940 C1941 1.399 . S
C1940 C1945 1.399 . S
C1941 C1940 1.399 . S
C1941 C1942 1.376 . S
C1942 H1929 0.930 . S
C1942 C1941 1.376 . S
C1942 C1943 1.388 . S
C1943 H1930 0.930 . S
C1943 C1942 1.388 . S
C1943 C1944 1.390 . S
C1944 C1943 1.390 . S
C1944 C1945 1.394 . S
C1944 C1950 1.465 . S
C1945 C1940 1.399 . S
C1945 C1944 1.394 . S
C1945 C1946 1.516 . S
C1946 C1945 1.516 . S
C1946 C1947 1.502 . S
C1946 C1948 1.561 . S
C1946 C1949 1.526 . S
C1947 H1931 0.959 . S
C1947 H1932 0.959 . S
C1947 H1933 0.961 . S
C1947 C1946 1.502 . S
C1948 H1934 0.960 . S
C1948 H1935 0.961 . S
C1948 H1936 0.959 . S
C1948 C1946 1.561 . S
C1949 C1946 1.526 . S
C1949 C1950 1.396 . S
C1949 C1954 1.390 . S
C1950 C1944 1.465 . S
C1950 C1949 1.396 . S
C1950 C1951 1.399 . S
C1951 H1937 0.929 . S
C1951 C1950 1.399 . S
C1951 C1952 1.385 . S
C1952 H1938 0.931 . S
C1952 C1951 1.385 . S
C1952 C1953 1.389 . S
C1953 C1952 1.389 . S
C1953 C1954 1.387 . S
C1954 H1939 0.930 . S
C1954 C1949 1.390 . S
C1954 C1953 1.387 . S
H1955 C1967 0.930 . S
H1956 C1969 0.930 . S
H1957 C1970 0.930 . S
H1958 C1974 0.959 . S
H1959 C1974 0.959 . S
H1960 C1974 0.961 . S
H1961 C1975 0.960 . S
H1962 C1975 0.961 . S
H1963 C1975 0.959 . S
H1964 C1978 0.929 . S
H1965 C1979 0.931 . S
H1966 C1981 0.930 . S
C1967 H1955 0.930 . S
C1967 C1968 1.399 . S
C1967 C1972 1.399 . S
C1968 C1967 1.399 . S
C1968 C1969 1.376 . S
C1969 H1956 0.930 . S
C1969 C1968 1.376 . S
C1969 C1970 1.388 . S
C1970 H1957 0.930 . S
C1970 C1969 1.388 . S
C1970 C1971 1.390 . S
C1971 C1970 1.390 . S
C1971 C1972 1.394 . S
C1971 C1977 1.465 . S
C1972 C1967 1.399 . S
C1972 C1971 1.394 . S
C1972 C1973 1.516 . S
C1973 C1972 1.516 . S
C1973 C1974 1.502 . S
C1973 C1975 1.561 . S
C1973 C1976 1.526 . S
C1974 H1958 0.959 . S
C1974 H1959 0.959 . S
C1974 H1960 0.961 . S
C1974 C1973 1.502 . S
C1975 H1961 0.960 . S
C1975 H1962 0.961 . S
C1975 H1963 0.959 . S
C1975 C1973 1.561 . S
C1976 C1973 1.526 . S
C1976 C1977 1.396 . S
C1976 C1981 1.390 . S
C1977 C1971 1.465 . S
C1977 C1976 1.396 . S
C1977 C1978 1.399 . S
C1978 H1964 0.929 . S
C1978 C1977 1.399 . S
C1978 C1979 1.385 . S
C1979 H1965 0.931 . S
C1979 C1978 1.385 . S
C1979 C1980 1.389 . S
C1980 C1979 1.389 . S
C1980 C1981 1.387 . S
C1981 H1966 0.930 . S
C1981 C1976 1.390 . S
C1981 C1980 1.387 . S
H1982 C1994 0.930 . S
H1983 C1996 0.930 . S
H1984 C1997 0.930 . S
H1985 C2001 0.959 . S
H1986 C2001 0.959 . S
H1987 C2001 0.961 . S
H1988 C2002 0.960 . S
H1989 C2002 0.961 . S
H1990 C2002 0.959 . S
H1991 C2005 0.929 . S
H1992 C2006 0.931 . S
H1993 C2008 0.930 . S
C1994 H1982 0.930 . S
C1994 C1995 1.399 . S
C1994 C1999 1.399 . S
C1995 C1994 1.399 . S
C1995 C1996 1.376 . S
C1996 H1983 0.930 . S
C1996 C1995 1.376 . S
C1996 C1997 1.388 . S
C1997 H1984 0.930 . S
C1997 C1996 1.388 . S
C1997 C1998 1.390 . S
C1998 C1997 1.390 . S
C1998 C1999 1.394 . S
C1998 C2004 1.465 . S
C1999 C1994 1.399 . S
C1999 C1998 1.394 . S
C1999 C2000 1.516 . S
C2000 C1999 1.516 . S
C2000 C2001 1.502 . S
C2000 C2002 1.561 . S
C2000 C2003 1.526 . S
C2001 H1985 0.959 . S
C2001 H1986 0.959 . S
C2001 H1987 0.961 . S
C2001 C2000 1.502 . S
C2002 H1988 0.960 . S
C2002 H1989 0.961 . S
C2002 H1990 0.959 . S
C2002 C2000 1.561 . S
C2003 C2000 1.526 . S
C2003 C2004 1.396 . S
C2003 C2008 1.390 . S
C2004 C1998 1.465 . S
C2004 C2003 1.396 . S
C2004 C2005 1.399 . S
C2005 H1991 0.929 . S
C2005 C2004 1.399 . S
C2005 C2006 1.385 . S
C2006 H1992 0.931 . S
C2006 C2005 1.385 . S
C2006 C2007 1.389 . S
C2007 C2006 1.389 . S
C2007 C2008 1.387 . S
C2008 H1993 0.930 . S
C2008 C2003 1.390 . S
C2008 C2007 1.387 . S
H2009 C2021 0.930 . S
H2010 C2023 0.930 . S
H2011 C2024 0.930 . S
H2012 C2028 0.959 . S
H2013 C2028 0.959 . S
H2014 C2028 0.961 . S
H2015 C2029 0.960 . S
H2016 C2029 0.961 . S
H2017 C2029 0.959 . S
H2018 C2032 0.929 . S
H2019 C2033 0.931 . S
H2020 C2035 0.930 . S
C2021 H2009 0.930 . S
C2021 C2022 1.399 . S
C2021 C2026 1.399 . S
C2022 C2021 1.399 . S
C2022 C2023 1.376 . S
C2023 H2010 0.930 . S
C2023 C2022 1.376 . S
C2023 C2024 1.388 . S
C2024 H2011 0.930 . S
C2024 C2023 1.388 . S
C2024 C2025 1.390 . S
C2025 C2024 1.390 . S
C2025 C2026 1.394 . S
C2025 C2031 1.465 . S
C2026 C2021 1.399 . S
C2026 C2025 1.394 . S
C2026 C2027 1.516 . S
C2027 C2026 1.516 . S
C2027 C2028 1.502 . S
C2027 C2029 1.561 . S
C2027 C2030 1.526 . S
C2028 H2012 0.959 . S
C2028 H2013 0.959 . S
C2028 H2014 0.961 . S
C2028 C2027 1.502 . S
C2029 H2015 0.960 . S
C2029 H2016 0.961 . S
C2029 H2017 0.959 . S
C2029 C2027 1.561 . S
C2030 C2027 1.526 . S
C2030 C2031 1.396 . S
C2030 C2035 1.390 . S
C2031 C2025 1.465 . S
C2031 C2030 1.396 . S
C2031 C2032 1.399 . S
C2032 H2018 0.929 . S
C2032 C2031 1.399 . S
C2032 C2033 1.385 . S
C2033 H2019 0.931 . S
C2033 C2032 1.385 . S
C2033 C2034 1.389 . S
C2034 C2033 1.389 . S
C2034 C2035 1.387 . S
C2035 H2020 0.930 . S
C2035 C2030 1.390 . S
C2035 C2034 1.387 . S
H2036 C2048 0.930 . S
H2037 C2050 0.930 . S
H2038 C2051 0.930 . S
H2039 C2055 0.959 . S
H2040 C2055 0.959 . S
H2041 C2055 0.961 . S
H2042 C2056 0.960 . S
H2043 C2056 0.961 . S
H2044 C2056 0.959 . S
H2045 C2059 0.929 . S
H2046 C2060 0.931 . S
H2047 C2062 0.930 . S
C2048 H2036 0.930 . S
C2048 C2049 1.399 . S
C2048 C2053 1.399 . S
C2049 C2048 1.399 . S
C2049 C2050 1.376 . S
C2050 H2037 0.930 . S
C2050 C2049 1.376 . S
C2050 C2051 1.388 . S
C2051 H2038 0.930 . S
C2051 C2050 1.388 . S
C2051 C2052 1.390 . S
C2052 C2051 1.390 . S
C2052 C2053 1.394 . S
C2052 C2058 1.465 . S
C2053 C2048 1.399 . S
C2053 C2052 1.394 . S
C2053 C2054 1.516 . S
C2054 C2053 1.516 . S
C2054 C2055 1.502 . S
C2054 C2056 1.561 . S
C2054 C2057 1.526 . S
C2055 H2039 0.959 . S
C2055 H2040 0.959 . S
C2055 H2041 0.961 . S
C2055 C2054 1.502 . S
C2056 H2042 0.960 . S
C2056 H2043 0.961 . S
C2056 H2044 0.959 . S
C2056 C2054 1.561 . S
C2057 C2054 1.526 . S
C2057 C2058 1.396 . S
C2057 C2062 1.390 . S
C2058 C2052 1.465 . S
C2058 C2057 1.396 . S
C2058 C2059 1.399 . S
C2059 H2045 0.929 . S
C2059 C2058 1.399 . S
C2059 C2060 1.385 . S
C2060 H2046 0.931 . S
C2060 C2059 1.385 . S
C2060 C2061 1.389 . S
C2061 C2060 1.389 . S
C2061 C2062 1.387 . S
C2062 H2047 0.930 . S
C2062 C2057 1.390 . S
C2062 C2061 1.387 . S
H2063 C2075 0.930 . S
H2064 C2077 0.930 . S
H2065 C2078 0.930 . S
H2066 C2082 0.959 . S
H2067 C2082 0.959 . S
H2068 C2082 0.961 . S
H2069 C2083 0.960 . S
H2070 C2083 0.961 . S
H2071 C2083 0.959 . S
H2072 C2086 0.929 . S
H2073 C2087 0.931 . S
H2074 C2089 0.930 . S
C2075 H2063 0.930 . S
C2075 C2076 1.399 . S
C2075 C2080 1.399 . S
C2076 C2075 1.399 . S
C2076 C2077 1.376 . S
C2077 H2064 0.930 . S
C2077 C2076 1.376 . S
C2077 C2078 1.388 . S
C2078 H2065 0.930 . S
C2078 C2077 1.388 . S
C2078 C2079 1.390 . S
C2079 C2078 1.390 . S
C2079 C2080 1.394 . S
C2079 C2085 1.465 . S
C2080 C2075 1.399 . S
C2080 C2079 1.394 . S
C2080 C2081 1.516 . S
C2081 C2080 1.516 . S
C2081 C2082 1.502 . S
C2081 C2083 1.561 . S
C2081 C2084 1.526 . S
C2082 H2066 0.959 . S
C2082 H2067 0.959 . S
C2082 H2068 0.961 . S
C2082 C2081 1.502 . S
C2083 H2069 0.960 . S
C2083 H2070 0.961 . S
C2083 H2071 0.959 . S
C2083 C2081 1.561 . S
C2084 C2081 1.526 . S
C2084 C2085 1.396 . S
C2084 C2089 1.390 . S
C2085 C2079 1.465 . S
C2085 C2084 1.396 . S
C2085 C2086 1.399 . S
C2086 H2072 0.929 . S
C2086 C2085 1.399 . S
C2086 C2087 1.385 . S
C2087 H2073 0.931 . S
C2087 C2086 1.385 . S
C2087 C2088 1.389 . S
C2088 C2087 1.389 . S
C2088 C2089 1.387 . S
C2089 H2074 0.930 . S
C2089 C2084 1.390 . S
C2089 C2088 1.387 . S
H2090 C2102 0.930 . S
H2091 C2104 0.930 . S
H2092 C2105 0.930 . S
H2093 C2109 0.959 . S
H2094 C2109 0.959 . S
H2095 C2109 0.961 . S
H2096 C2110 0.960 . S
H2097 C2110 0.961 . S
H2098 C2110 0.959 . S
H2099 C2113 0.929 . S
H2100 C2114 0.931 . S
H2101 C2116 0.930 . S
C2102 H2090 0.930 . S
C2102 C2103 1.399 . S
C2102 C2107 1.399 . S
C2103 C2102 1.399 . S
C2103 C2104 1.376 . S
C2104 H2091 0.930 . S
C2104 C2103 1.376 . S
C2104 C2105 1.388 . S
C2105 H2092 0.930 . S
C2105 C2104 1.388 . S
C2105 C2106 1.390 . S
C2106 C2105 1.390 . S
C2106 C2107 1.394 . S
C2106 C2112 1.465 . S
C2107 C2102 1.399 . S
C2107 C2106 1.394 . S
C2107 C2108 1.516 . S
C2108 C2107 1.516 . S
C2108 C2109 1.502 . S
C2108 C2110 1.561 . S
C2108 C2111 1.526 . S
C2109 H2093 0.959 . S
C2109 H2094 0.959 . S
C2109 H2095 0.961 . S
C2109 C2108 1.502 . S
C2110 H2096 0.960 . S
C2110 H2097 0.961 . S
C2110 H2098 0.959 . S
C2110 C2108 1.561 . S
C2111 C2108 1.526 . S
C2111 C2112 1.396 . S
C2111 C2116 1.390 . S
C2112 C2106 1.465 . S
C2112 C2111 1.396 . S
C2112 C2113 1.399 . S
C2113 H2099 0.929 . S
C2113 C2112 1.399 . S
C2113 C2114 1.385 . S
C2114 H2100 0.931 . S
C2114 C2113 1.385 . S
C2114 C2115 1.389 . S
C2115 C2114 1.389 . S
C2115 C2116 1.387 . S
C2116 H2101 0.930 . S
C2116 C2111 1.390 . S
C2116 C2115 1.387 . S
H2117 C2129 0.930 . S
H2118 C2131 0.930 . S
H2119 C2132 0.930 . S
H2120 C2136 0.959 . S
H2121 C2136 0.959 . S
H2122 C2136 0.961 . S
H2123 C2137 0.960 . S
H2124 C2137 0.961 . S
H2125 C2137 0.959 . S
H2126 C2140 0.929 . S
H2127 C2141 0.931 . S
H2128 C2143 0.930 . S
C2129 H2117 0.930 . S
C2129 C2130 1.399 . S
C2129 C2134 1.399 . S
C2130 C2129 1.399 . S
C2130 C2131 1.376 . S
C2131 H2118 0.930 . S
C2131 C2130 1.376 . S
C2131 C2132 1.388 . S
C2132 H2119 0.930 . S
C2132 C2131 1.388 . S
C2132 C2133 1.390 . S
C2133 C2132 1.390 . S
C2133 C2134 1.394 . S
C2133 C2139 1.465 . S
C2134 C2129 1.399 . S
C2134 C2133 1.394 . S
C2134 C2135 1.516 . S
C2135 C2134 1.516 . S
C2135 C2136 1.502 . S
C2135 C2137 1.561 . S
C2135 C2138 1.526 . S
C2136 H2120 0.959 . S
C2136 H2121 0.959 . S
C2136 H2122 0.961 . S
C2136 C2135 1.502 . S
C2137 H2123 0.960 . S
C2137 H2124 0.961 . S
C2137 H2125 0.959 . S
C2137 C2135 1.561 . S
C2138 C2135 1.526 . S
C2138 C2139 1.396 . S
C2138 C2143 1.390 . S
C2139 C2133 1.465 . S
C2139 C2138 1.396 . S
C2139 C2140 1.399 . S
C2140 H2126 0.929 . S
C2140 C2139 1.399 . S
C2140 C2141 1.385 . S
C2141 H2127 0.931 . S
C2141 C2140 1.385 . S
C2141 C2142 1.389 . S
C2142 C2141 1.389 . S
C2142 C2143 1.387 . S
C2143 H2128 0.930 . S
C2143 C2138 1.390 . S
C2143 C2142 1.387 . S
C429 C359 1.319 . S
C441 C5 1.262 . S
C456 C18 1.350 . S
C468 C112 1.377 . S
C483 C333 1.375 . S
C495 C31 1.344 . S
C510 C44 1.251 . S
C522 C138 1.317 . S
C537 C57 1.285 . S
C549 C385 1.334 . S
C564 C70 1.244 . S
C576 C190 1.311 . S
C591 C83 1.350 . S
C603 C411 1.377 . S
C618 C96 1.257 . S
C630 C164 1.318 . S
C645 C255 1.328 . S
C657 C109 1.252 . S
C672 C8 1.350 . S
C684 C122 1.278 . S
C699 C229 1.351 . S
C711 C135 1.280 . S
C726 C148 1.257 . S
C738 C34 1.311 . S
C753 C281 1.349 . S
C765 C161 1.331 . S
C780 C86 1.349 . S
C792 C174 1.331 . S
C807 C187 1.246 . S
C819 C307 1.323 . S
C834 C60 1.310 . S
C846 C200 1.258 . S
C861 C213 1.320 . S
C873 C151 1.360 . S
C888 C226 1.327 . S
C900 C320 1.361 . S
C915 C125 1.319 . S
C927 C239 1.262 . S
C942 C346 1.374 . S
C954 C252 1.342 . S
C969 C177 1.339 . S
C981 C265 1.286 . S
C996 C398 1.315 . S
C1008 C278 1.254 . S
C1023 C203 1.376 . S
C1035 C291 1.347 . S
C1050 C304 1.312 . S
C1062 C372 1.351 . S
C1077 C47 1.343 . S
C1089 C317 1.269 . S
C1104 C330 1.349 . S
C1116 C216 1.368 . S
C1131 C343 1.295 . S
C1143 C21 1.325 . S
C1158 C356 1.342 . S
C1170 C242 1.377 . S
C1185 C369 1.244 . S
C1197 C73 1.320 . S
C1212 C382 1.244 . S
C1224 C294 1.313 . S
C1239 C395 1.252 . S
C1251 C99 1.330 . S
C1266 C408 1.244 . S
C1278 C268 1.320 . S
C1293 C322 1.483 . S
C1305 C10 1.499 . S
C1320 C23 1.480 . S
C1332 C127 1.508 . S
C1347 C348 1.506 . S
C1359 C36 1.484 . S
C1374 C49 1.508 . S
C1386 C153 1.479 . S
C1401 C374 1.508 . S
C1413 C62 1.479 . S
C1428 C75 1.481 . S
C1440 C179 1.507 . S
C1455 C400 1.506 . S
C1467 C88 1.483 . S
C1482 C101 1.506 . S
C1494 C205 1.479 . S
C1509 C114 1.480 . S
C1521 C218 1.503 . S
C1536 C140 1.505 . S
C1548 C244 1.479 . S
C1563 C166 1.506 . S
C1575 C270 1.483 . S
C1590 C192 1.506 . S
C1602 C296 1.483 . S
C1617 C231 1.479 . S
C1629 C335 1.508 . S
C1644 C361 1.479 . S
C1656 C257 1.504 . S
C1671 C387 1.488 . S
C1683 C283 1.502 . S
C1698 C309 1.504 . S
C1710 C413 1.480 . S
C1725 C0 0.993 . S
C1737 C65 1.081 . S
C1752 C13 0.996 . S
C1764 C78 1.078 . S
C1779 C26 1.086 . S
C1791 C91 0.987 . S
C1806 C52 1.042 . S
C1818 C39 1.031 . S
C1833 C104 1.068 . S
C1845 C169 0.984 . S
C1860 C117 1.088 . S
C1872 C182 0.978 . S
C1887 C130 1.074 . S
C1899 C195 0.981 . S
C1914 C143 1.079 . S
C1926 C156 1.026 . S
C1941 C208 1.091 . S
C1953 C273 0.981 . S
C1968 C286 1.094 . S
C1980 C221 0.979 . S
C1995 C234 0.995 . S
C2007 C299 1.076 . S
C2022 C247 1.092 . S
C2034 C260 0.981 . S
C2049 C377 1.057 . S
C2061 C312 0.990 . S
C2076 C325 1.076 . S
C2088 C390 0.980 . S
C2103 C403 1.023 . S
C2115 C338 1.017 . S
C2130 C351 0.987 . S
C2142 C364 1.059 . S
