# Generated by pormake.
# Topology reo, (8)-cn, num edge types: 1
# Building blocks:
#     Node 0, Type 0, BuildingBlock: TAGTUT_clean_sbu_1, # of connection points: 8
#     Node 1, Type 0, BuildingBlock: TAGTUT_clean_sbu_1, # of connection points: 8
#     Node 2, Type 0, BuildingBlock: TAGTUT_clean_sbu_1, # of connection points: 8
#     Edge 3, Type (0, 0), BuildingBlock: MIFKUJ_clean_linker_0, # of connection points: 2
#     Edge 4, Type (0, 0), BuildingBlock: MIFKUJ_clean_linker_0, # of connection points: 2
#     Edge 5, Type (0, 0), BuildingBlock: MIFKUJ_clean_linker_0, # of connection points: 2
#     Edge 6, Type (0, 0), BuildingBlock: MIFKUJ_clean_linker_0, # of connection points: 2
#     Edge 7, Type (0, 0), BuildingBlock: MIFKUJ_clean_linker_0, # of connection points: 2
#     Edge 8, Type (0, 0), BuildingBlock: MIFKUJ_clean_linker_0, # of connection points: 2
#     Edge 9, Type (0, 0), BuildingBlock: MIFKUJ_clean_linker_0, # of connection points: 2
#     Edge 10, Type (0, 0), BuildingBlock: MIFKUJ_clean_linker_0, # of connection points: 2
#     Edge 11, Type (0, 0), BuildingBlock: MIFKUJ_clean_linker_0, # of connection points: 2
#     Edge 12, Type (0, 0), BuildingBlock: MIFKUJ_clean_linker_0, # of connection points: 2
#     Edge 13, Type (0, 0), BuildingBlock: MIFKUJ_clean_linker_0, # of connection points: 2
#     Edge 14, Type (0, 0), BuildingBlock: MIFKUJ_clean_linker_0, # of connection points: 2
# Relax obj value: 0.185
# Max RMSD: 0.227
# Mean RMSD: 0.181
data_MOF--net-reo--node1-TAGTUT_clean_sbu_1--edge1-MIFKUJ_clean_linker_0
_symmetry_space_group_name_H-M    P1
_symmetry_Int_Tables_number       1
_symmetry_cell_setting            triclinic
loop_
_symmetry_equiv_pos_as_xyz
'x, y, z'
_cell_length_a     26.772417
_cell_length_b     29.670646
_cell_length_c     32.580033
_cell_angle_alpha  91.077367
_cell_angle_beta   88.979128
_cell_angle_gamma 93.303294
loop_
_atom_site_label
_atom_site_type_symbol
_atom_site_fract_x
_atom_site_fract_y
_atom_site_fract_z
_atom_type_partial_charge
C0 C 0.02419 0.84369 0.56332 0.0
C1 C 0.95861 0.86149 0.44287 0.0
C2 C 0.09662 0.99249 0.42468 0.0
Mg3 Mg 0.94714 0.90567 0.52723 0.0
O4 O 0.00748 0.93997 0.52056 0.0
Mg5 Mg 0.06199 0.91279 0.487 0.0
Mg6 Mg 0.00437 0.99762 0.49186 0.0
O7 O 1.00217 0.05514 0.46303 0.0
Mg8 Mg 0.06375 0.08822 0.45631 0.0
Mg9 Mg 0.9493 0.08307 0.49757 0.0
C10 C 0.91294 0.00149 0.55919 0.0
C11 C 0.89834 0.9979 0.4455 0.0
O12 O 0.05804 0.85825 0.5375 0.0
O13 O 0.97942 0.8568 0.56386 0.0
O14 O 0.00576 0.87022 0.44638 0.0
O15 O 0.92728 0.87542 0.46944 0.0
O16 O 0.90476 0.95839 0.5565 0.0
O17 O 0.95016 0.02195 0.54066 0.0
C18 C 0.10977 -0.00079 0.5389 0.0
O19 O 0.07164 0.02093 0.52997 0.0
O20 O 0.11485 0.95854 0.52619 0.0
O21 O 0.9544 0.13849 0.44776 0.0
O22 O 0.03249 0.13847 0.42057 0.0
O23 O 0.00766 0.12402 0.53752 0.0
C24 C 0.98822 0.15279 0.42179 0.0
O25 O 0.08578 0.11772 0.51409 0.0
O26 O 0.10576 0.03549 0.4264 0.0
C27 C 0.05498 0.13208 0.54086 0.0
O28 O 0.05918 0.97315 0.44366 0.0
O29 O 0.93585 0.97488 0.45391 0.0
O30 O 0.89516 0.03873 0.4585 0.0
C31 C 0.54078 0.95116 0.14342 0.0
C32 C 0.39524 0.97243 0.09341 0.0
C33 C 0.45719 0.89917 0.95619 0.0
Mg34 Mg 0.49686 0.02517 0.08968 0.0
O35 O 0.51993 0.98519 0.04894 0.0
Mg36 Mg 0.49345 0.92054 0.05102 0.0
Mg37 Mg 0.50311 0.99776 0.99128 0.0
O38 O 0.48621 0.01082 0.93363 0.0
Mg39 Mg 0.50482 0.97007 0.89212 0.0
Mg40 Mg 0.51772 0.07399 0.93166 0.0
C41 C 0.54427 0.09614 0.02541 0.0
C42 C 0.41935 0.075 0.99145 0.0
O43 O 0.52867 0.92086 0.11599 0.0
O44 O 0.53248 0.99303 0.13931 0.0
O45 O 0.41859 0.93886 0.07967 0.0
O46 O 0.41696 0.01174 0.09691 0.0
O47 O 0.52705 0.08863 0.06198 0.0
O48 O 0.54475 0.0652 -0.00258 0.0
C49 C 0.59097 0.92428 0.99054 0.0
O50 O 0.57547 0.95994 0.97422 0.0
O51 O 0.56689 0.90419 0.01981 0.0
O52 O 0.48321 0.07635 0.86667 0.0
O53 O 0.47304 0.00476 0.84238 0.0
O54 O 0.59181 0.05077 0.90371 0.0
C55 C 0.46875 0.04735 0.83889 0.0
O56 O 0.58461 0.97783 0.88557 0.0
O57 O 0.47007 0.9083 0.91888 0.0
C58 C 0.61081 0.01487 0.88983 0.0
O59 O 0.46288 0.92858 0.98548 0.0
O60 O 0.43098 0.03779 0.00784 0.0
O61 O 0.44595 0.09347 0.96261 0.0
C62 C 0.05869 0.46736 0.83846 0.0
C63 C 0.02078 0.59576 0.89606 0.0
C64 C 0.10381 0.54011 0.02885 0.0
Mg65 Mg 0.97079 0.50041 0.89329 0.0
O66 O 0.01488 0.48351 0.93363 0.0
Mg67 Mg 0.08523 0.51117 0.93273 0.0
Mg68 Mg 0.99766 0.49743 0.99173 0.0
O69 O 0.98032 0.51092 0.05006 0.0
Mg70 Mg 0.02392 0.49282 0.09032 0.0
Mg71 Mg 0.9103 0.48241 0.05004 0.0
C72 C 0.89115 0.45492 0.95485 0.0
C73 C 0.91325 0.5745 -0.00288 0.0
O74 O 0.09033 0.4809 0.86601 0.0
O75 O 0.01145 0.4714 0.84306 0.0
O76 O 0.06017 0.57811 0.90829 0.0
O77 O 0.97985 0.57238 0.89066 0.0
O78 O 0.90086 0.46856 0.91819 0.0
O79 O 0.92353 0.45927 0.98337 0.0
C80 C 0.083 0.42135 0.98835 0.0
O81 O 0.0412 0.43245 0.00478 0.0
O82 O 0.1056 0.44549 0.96076 0.0
O83 O 0.90452 0.51068 0.11667 0.0
O84 O 0.98245 0.51958 0.14174 0.0
O85 O 0.93557 0.41505 0.07286 0.0
C86 C 0.93502 0.52325 0.14526 0.0
O87 O 0.01593 0.4205 0.09025 0.0
O88 O 0.09299 0.52636 0.06536 0.0
C89 C 0.97517 0.39708 0.08416 0.0
O90 O 0.07218 0.53555 -0.00032 0.0
O91 O 0.95416 0.56285 0.97936 0.0
O92 O 0.89071 0.54946 0.02411 0.0
H93 H 0.89215 0.33892 0.08271 0.0
H94 H 0.87839 0.27363 0.12652 0.0
H95 H 0.03465 0.28191 0.15739 0.0
H96 H 0.04901 0.3471 0.11361 0.0
H97 H 0.9863 0.194 0.16791 0.0
H98 H 0.96773 0.35437 0.20693 0.0
H99 H 0.93172 0.42767 0.19501 0.0
H100 H 0.78352 0.36449 0.203 0.0
H101 H 0.81886 0.2907 0.21447 0.0
H102 H 0.05036 0.20137 0.37034 0.0
H103 H 0.03045 0.22548 0.30184 0.0
H104 H 0.87441 0.18809 0.32402 0.0
H105 H 0.89404 0.16296 0.39291 0.0
H106 H 0.89792 0.27295 0.28117 0.0
H107 H 0.92867 0.11723 0.27156 0.0
H108 H 0.97228 0.04804 0.28418 0.0
H109 H 0.10335 0.10367 0.22136 0.0
H110 H 0.06093 0.17361 0.20901 0.0
C111 C 0.9241 0.32578 0.09743 0.0
C112 C 0.97119 0.34948 0.09655 0.0
C113 C 0.91613 0.28817 0.12218 0.0
C114 C 0.95516 0.27417 0.14608 0.0
C115 C 0.00393 0.29275 0.13949 0.0
C116 C 0.01197 0.33038 0.11478 0.0
C117 C 0.94383 0.25096 0.18496 0.0
C118 C 0.96638 0.21064 0.19263 0.0
C119 C 0.91722 0.27276 0.21686 0.0
C120 C 0.89584 0.31713 0.2112 0.0
C121 C 0.92747 0.35618 0.20606 0.0
C122 C 0.90722 0.39776 0.19935 0.0
C123 C 0.85536 0.40072 0.19818 0.0
C124 C 0.82367 0.36212 0.20386 0.0
C125 C 0.84378 0.32043 0.21047 0.0
C126 C 0.01159 0.19914 0.36112 0.0
C127 C 0.97386 0.17964 0.38678 0.0
C128 C 1.00041 0.21253 0.32186 0.0
C129 C 0.95133 0.20699 0.30772 0.0
C130 C 0.91266 0.19173 0.33444 0.0
C131 C 0.92389 0.17795 0.37387 0.0
C132 C 0.94167 0.21656 0.26455 0.0
C133 C 0.91563 0.25476 0.25618 0.0
C134 C 0.96562 0.19297 0.23225 0.0
C135 C 0.99158 0.15091 0.23958 0.0
C136 C 0.96694 0.11495 0.26075 0.0
C137 C 0.99145 0.07552 0.2678 0.0
C138 C 0.04057 0.07148 0.25362 0.0
C139 C 0.06528 0.10685 0.23231 0.0
C140 C 0.04098 0.14639 0.22524 0.0
H141 H 0.05944 0.04093 0.25914 0.0
H142 H 0.83975 0.43293 0.19294 0.0
H143 H 0.8065 0.02984 0.43299 0.0
H144 H 0.74176 -0.00091 0.38736 0.0
H145 H 0.83308 0.88856 0.35355 0.0
H146 H 0.89934 0.92064 0.39798 0.0
H147 H 0.79704 0.9213 0.28819 0.0
H148 H 0.72331 0.87062 0.41183 0.0
H149 H 0.69555 0.87327 0.48431 0.0
H150 H 0.59376 0.97481 0.4569 0.0
H151 H 0.62144 0.97334 0.38435 0.0
H152 H 0.58941 0.87344 0.15508 0.0
H153 H 0.64461 0.85786 0.21176 0.0
H154 H 0.61062 0.98442 0.27013 0.0
H155 H 0.55548 4e-05 0.2142 0.0
H156 H 0.61662 0.91627 0.32593 0.0
H157 H 0.71177 0.97427 0.20415 0.0
H158 H 0.74201 0.96768 0.13239 0.0
H159 H 0.8051 0.84185 0.15891 0.0
H160 H 0.77402 0.84712 0.23051 0.0
C161 C 0.8128 -0.0012 0.41615 0.0
C162 C 0.85796 0.97739 0.41953 0.0
C163 C 0.7754 0.9809 0.39036 0.0
C164 C 0.78192 0.94086 0.36771 0.0
C165 C 0.82687 0.91916 0.37114 0.0
C166 C 0.86456 0.93731 0.39681 0.0
C167 C 0.74328 0.92448 0.33796 0.0
C168 C 0.75769 0.91867 0.29667 0.0
C169 C 0.69182 0.92099 0.34894 0.0
C170 C 0.6746 0.92192 0.39256 0.0
C171 C 0.6952 0.89371 0.42126 0.0
C172 C 0.67946 0.89499 0.46239 0.0
C173 C 0.64293 0.9242 0.47521 0.0
C174 C 0.62202 0.95216 0.44691 0.0
C175 C 0.63765 0.95105 0.40575 0.0
C176 C 0.59297 0.89751 0.1804 0.0
C177 C 0.56851 0.93826 0.1799 0.0
C178 C 0.62463 0.88859 0.21267 0.0
C179 C 0.6321 0.92023 0.24488 0.0
C180 C 0.60541 0.95955 0.24556 0.0
C181 C 0.5741 0.96857 0.21338 0.0
C182 C 0.67063 0.91523 0.27627 0.0
C183 C 0.65613 0.91703 0.31784 0.0
C184 C 0.72203 0.914 0.26565 0.0
C185 C 0.74007 0.91082 0.22248 0.0
C186 C 0.73162 0.94498 0.19453 0.0
C187 C 0.74888 0.94145 0.15389 0.0
C188 C 0.7752 0.90422 0.14102 0.0
C189 C 0.7844 0.87048 0.1688 0.0
C190 C 0.76689 0.87368 0.20938 0.0
H191 H 0.78861 0.90159 0.10957 0.0
H192 H 0.63081 0.92516 0.50707 0.0
H193 H 0.0111 0.83437 0.37486 0.0
H194 H 0.98332 0.77903 0.32247 0.0
H195 H 0.8371 0.76693 0.38027 0.0
H196 H 0.86439 0.82246 0.43281 0.0
H197 H 0.87997 0.68518 0.36927 0.0
H198 H 0.84868 0.81308 0.28984 0.0
H199 H 0.86626 0.88655 0.25693 0.0
H200 H 0.9836 0.83124 0.18399 0.0
H201 H 0.96818 0.75783 0.21734 0.0
H202 H 0.85025 0.57001 0.1498 0.0
H203 H 0.82951 0.6265 0.20203 0.0
H204 H 0.95631 0.5924 0.27263 0.0
H205 H 0.97775 0.53628 0.22033 0.0
H206 H 0.89715 0.69902 0.21821 0.0
H207 H 0.92882 0.61355 0.37406 0.0
H208 H 0.91207 0.53916 0.40554 0.0
H209 H 0.79012 0.51008 0.32357 0.0
H210 H 0.80558 0.58456 0.29202 0.0
C211 C 0.97281 0.82045 0.37616 0.0
C212 C 0.94019 0.83235 0.40836 0.0
C213 C 0.9569 0.78905 0.34603 0.0
C214 C 0.90817 0.76895 0.34757 0.0
C215 C 0.87486 0.78209 0.37864 0.0
C216 C 0.89059 0.8138 0.40861 0.0
C217 C 0.89412 0.73097 0.31925 0.0
C218 C 0.88308 0.68828 0.33618 0.0
C219 C 0.8975 0.7353 0.27611 0.0
C220 C 0.90739 0.77982 0.25638 0.0
C221 C 0.87866 0.81662 0.26716 0.0
C222 C 0.8882 0.8583 0.24838 0.0
C223 C 0.92588 0.86353 0.21838 0.0
C224 C 0.95438 0.82715 0.20723 0.0
C225 C 0.94534 0.78551 0.22615 0.0
C226 C 0.87285 0.57353 0.17705 0.0
C227 C 0.91594 0.549 0.18085 0.0
C228 C 0.86103 0.60596 0.20673 0.0
C229 C 0.8914 0.61358 0.24106 0.0
C230 C 0.93217 0.58673 0.24647 0.0
C231 C 0.94448 0.5548 0.21652 0.0
C232 C 0.8851 0.65331 0.26831 0.0
C233 C 0.89269 0.69625 0.25121 0.0
C234 C 0.87867 0.64926 0.31121 0.0
C235 C 0.86858 0.60463 0.33051 0.0
C236 C 0.89821 0.59143 0.36291 0.0
C237 C 0.88898 0.5492 0.38074 0.0
C238 C 0.85012 0.51988 0.36651 0.0
C239 C 0.82031 0.53277 0.33449 0.0
C240 C 0.82934 0.57497 0.31658 0.0
H241 H 0.84307 0.48719 0.38033 0.0
H242 H 0.93298 0.89578 0.20376 0.0
H243 H 0.34343 0.89085 0.0994 0.0
H244 H 0.27441 0.87222 0.14681 0.0
H245 H 0.26264 0.01345 0.17642 0.0
H246 H 0.33288 0.03271 0.12966 0.0
H247 H 0.29734 0.90091 0.22998 0.0
H248 H 0.1268 0.01498 0.2082 0.0
H249 H 0.07352 0.0389 0.15271 0.0
H250 H 0.12217 0.93086 0.07515 0.0
H251 H 0.17326 0.90444 0.13096 0.0
H252 H 0.19314 0.00914 0.39983 0.0
H253 H 0.23213 0.97969 0.3374 0.0
H254 H 0.10215 0.88977 0.31698 0.0
H255 H 0.06312 0.91871 0.38 0.0
H256 H 0.12462 0.94904 0.25278 0.0
H257 H 0.20689 0.84205 0.32823 0.0
H258 H 0.25472 0.8132 0.38509 0.0
H259 H 0.38046 0.90287 0.35325 0.0
H260 H 0.33317 0.9328 0.29658 0.0
C261 C 0.32539 0.91826 0.11499 0.0
C262 C 0.34474 0.96326 0.11172 0.0
C263 C 0.28573 0.9074 0.14196 0.0
C264 C 0.26394 0.94139 0.16527 0.0
C265 C 0.27907 0.98678 0.1585 0.0
C266 C 0.31937 0.9977 0.13192 0.0
C267 C 0.23406 0.9294 0.20235 0.0
C268 C 0.25931 0.9109 0.23487 0.0
C269 C 0.18414 0.94149 0.2081 0.0
C270 C 0.15453 0.95801 0.17383 0.0
C271 C 0.12598 0.99609 0.17944 0.0
C272 C 0.09602 0.01005 0.14792 0.0
C273 C 0.09496 0.98678 0.11026 0.0
C274 C 0.12335 0.94911 0.10423 0.0
C275 C 0.15272 0.93452 0.13589 0.0
C276 C 0.17366 0.98196 0.38283 0.0
C277 C 0.12513 0.96636 0.39453 0.0
C278 C 0.19594 0.96511 0.34723 0.0
C279 C 0.16984 0.93273 0.3226 0.0
C280 C 0.1228 0.91471 0.33571 0.0
C281 C 0.10079 0.93104 0.37182 0.0
C282 C 0.18912 0.92328 0.28078 0.0
C283 C 0.16216 0.93802 0.24748 0.0
C284 C 0.23747 0.90773 0.27416 0.0
C285 C 0.26635 0.88975 0.30813 0.0
C286 C 0.24463 0.85584 0.33348 0.0
C287 C 0.27168 0.83926 0.36568 0.0
C288 C 0.32059 0.8562 0.37279 0.0
C289 C 0.34258 0.88973 0.34768 0.0
C290 C 0.31569 0.90646 0.31545 0.0
H291 H 0.34146 0.84333 0.39774 0.0
H292 H 0.0719 0.99779 0.08583 0.0
H293 H 0.11483 0.84839 0.60056 0.0
H294 H 0.12972 0.82668 0.67133 0.0
H295 H 0.9805 0.76381 0.67884 0.0
H296 H 0.96528 0.78564 0.60863 0.0
H297 H 1.00022 0.82603 0.74187 0.0
H298 H 0.08273 0.70129 0.67098 0.0
H299 H 0.14732 0.67113 0.62481 0.0
H300 H 0.26259 0.73891 0.69686 0.0
H301 H 0.19855 0.76982 0.74322 0.0
H302 H 0.95012 0.64168 0.85783 0.0
H303 H 0.96529 0.70965 0.81863 0.0
H304 H 0.11507 0.72639 0.86585 0.0
H305 H 0.10054 0.65707 0.9045 0.0
H306 H 0.11966 0.71668 0.78783 0.0
H307 H 0.03177 0.81336 0.87325 0.0
H308 H 0.9655 0.8384 0.92036 0.0
H309 H 0.85879 0.82363 0.82356 0.0
H310 H 0.92386 0.79758 0.77608 0.0
C311 C 0.08593 0.82849 0.61684 0.0
C312 C 0.03884 0.8187 0.59925 0.0
C313 C 0.09425 0.81671 0.65738 0.0
C314 C 0.05577 0.79461 0.68039 0.0
C315 C 0.01027 0.7817 0.66172 0.0
C316 C 1.00187 0.79359 0.62148 0.0
C317 C 0.06143 0.78541 0.7243 0.0
C318 C 0.0263 0.80224 0.75229 0.0
C319 C 0.09764 0.7568 0.73809 0.0
C320 C 0.13594 0.73835 0.71015 0.0
C321 C 0.12185 0.71006 0.67673 0.0
C322 C 0.15833 0.69276 0.65059 0.0
C323 C 0.20902 0.70325 0.6578 0.0
C324 C 0.22332 0.73093 0.69124 0.0
C325 C 0.18696 0.74833 0.71746 0.0
C326 C 0.98579 0.66048 0.86098 0.0
C327 C 0.02476 0.64312 0.88296 0.0
C328 C 0.99427 0.69992 0.83891 0.0
C329 C 0.04158 0.72305 0.83899 0.0
C330 C 0.07845 0.70886 0.86511 0.0
C331 C 0.07012 0.6691 0.887 0.0
C332 C 0.05519 0.75393 0.80496 0.0
C333 C 0.09455 0.7419 0.77855 0.0
C334 C 0.02263 0.78687 0.79272 0.0
C335 C 0.98305 0.8035 0.82094 0.0
C336 C 0.99415 0.81524 0.86198 0.0
C337 C 0.95671 0.82961 0.88881 0.0
C338 C 0.90798 0.83268 0.87498 0.0
C339 C 0.89655 0.82139 0.83426 0.0
C340 C 0.9338 0.8069 0.80731 0.0
H341 H 0.87916 0.84384 0.89586 0.0
H342 H 0.23722 0.68982 0.63754 0.0
H343 H 0.40207 0.11312 0.83872 0.0
H344 H 0.34175 0.1257 0.78485 0.0
H345 H 0.41179 0.02828 0.70635 0.0
H346 H 0.47098 0.01433 0.76054 0.0
H347 H 0.37229 0.11659 0.66823 0.0
H348 H 0.33067 0.98319 0.75432 0.0
H349 H 0.31624 0.94882 0.82216 0.0
H350 H 0.20116 0.04036 0.84955 0.0
H351 H 0.21547 0.07568 0.78209 0.0
H352 H 0.20861 0.98297 0.54154 0.0
H353 H 0.26994 0.01402 0.59084 0.0
H354 H 0.1576 0.0939 0.64811 0.0
H355 H 0.0961 0.06357 0.59833 0.0
H356 H 0.21161 0.03172 0.701 0.0
H357 H 0.23853 0.1546 0.61209 0.0
H358 H 0.25069 0.1926 0.54572 0.0
H359 H 0.38848 0.12768 0.52531 0.0
H360 H 0.37678 0.08876 0.59135 0.0
C361 C 0.40552 0.09546 0.80949 0.0
C362 C 0.44083 0.06255 0.80371 0.0
C363 C 0.3711 0.10266 0.77887 0.0
C364 C 0.37251 0.07781 0.74188 0.0
C365 C 0.41049 0.04789 0.73471 0.0
C366 C 0.44402 0.03981 0.76566 0.0
C367 C 0.33034 0.07742 0.71341 0.0
C368 C 0.33712 0.09815 0.67527 0.0
C369 C 0.28408 0.05444 0.72334 0.0
C370 C 0.2748 0.03261 0.7635 0.0
C371 C 0.3027 0.99631 0.77501 0.0
C372 C 0.29444 0.97657 0.81334 0.0
C373 C 0.25798 0.99255 0.84024 0.0
C374 C 0.22953 0.02814 0.82875 0.0
C375 C 0.23772 0.04804 0.79048 0.0
C376 C 0.19717 0.00758 0.56428 0.0
C377 C 0.14769 0.02081 0.56623 0.0
C378 C 0.23221 0.02545 0.59221 0.0
C379 C 0.21811 0.05621 0.62289 0.0
C380 C 0.16904 0.07029 0.62447 0.0
C381 C 0.13414 0.05307 0.59598 0.0
C382 C 0.25395 0.06986 0.65526 0.0
C383 C 0.24625 0.05113 0.69416 0.0
C384 C 0.29899 0.09511 0.64615 0.0
C385 C 0.30657 0.11849 0.60651 0.0
C386 C 0.27121 0.14812 0.59327 0.0
C387 C 0.27806 0.16989 0.55576 0.0
C388 C 0.32028 0.16248 0.53126 0.0
C389 C 0.35579 0.13337 0.54431 0.0
C390 C 0.34911 0.11149 0.58182 0.0
H391 H 0.32552 0.17935 0.50221 0.0
H392 H 0.25164 0.97724 0.86991 0.0
H393 H 0.155 0.44668 0.81666 0.0
H394 H 0.18049 0.39803 0.75916 0.0
H395 H 0.0265 0.38043 0.72202 0.0
H396 H 1.00146 0.4299 0.77725 0.0
H397 H 0.16198 0.31437 0.74396 0.0
H398 H 0.00744 0.36155 0.62721 0.0
H399 H 0.97275 0.43065 0.60168 0.0
H400 H 0.10467 0.5086 0.6393 0.0
H401 H 0.14062 0.43988 0.66449 0.0
H402 H 1.00049 0.16965 0.60266 0.0
H403 H 0.02771 0.23097 0.64917 0.0
H404 H 0.17879 0.22613 0.602 0.0
H405 H 0.15189 0.16433 0.55473 0.0
H406 H 0.07837 0.31454 0.60938 0.0
H407 H 0.24455 0.27606 0.70078 0.0
H408 H 0.29232 0.21288 0.72401 0.0
H409 H 0.15755 0.12734 0.72875 0.0
H410 H 0.10879 0.19019 0.70601 0.0
C411 C 0.12686 0.43328 0.79554 0.0
C412 C 0.07617 0.44244 0.80156 0.0
C413 C 0.14147 0.40532 0.7628 0.0
C414 C 0.10565 0.38616 0.73562 0.0
C415 C 0.0553 0.39589 0.74149 0.0
C416 C 0.04086 0.42405 0.77359 0.0
C417 C 0.11877 0.35276 0.70317 0.0
C418 C 0.14478 0.31505 0.7141 0.0
C419 C 0.09808 0.35398 0.66352 0.0
C420 C 0.07676 0.39541 0.64782 0.0
C421 C 0.02933 0.39331 0.62971 0.0
C422 C 0.00935 0.43247 0.61539 0.0
C423 C 0.03647 0.47399 0.61889 0.0
C424 C 0.08366 0.47643 0.63667 0.0
C425 C 0.10383 0.43738 0.65103 0.0
C426 C 0.03971 0.18091 0.60248 0.0
C427 C 0.07374 0.16274 0.57427 0.0
C428 C 0.05519 0.21598 0.62912 0.0
C429 C 0.10502 0.23329 0.62851 0.0
C430 C 0.14012 0.21319 0.6027 0.0
C431 C 0.12459 0.17799 0.57574 0.0
C432 C 0.11759 0.27538 0.65186 0.0
C433 C 0.09679 0.31482 0.63878 0.0
C434 C 0.14493 0.27638 0.68852 0.0
C435 C 0.17319 0.23771 0.70131 0.0
C436 C 0.22513 0.24373 0.70671 0.0
C437 C 0.25234 0.20806 0.71982 0.0
C438 C 0.22791 0.16628 0.72789 0.0
C439 C 0.17633 0.15982 0.72242 0.0
C440 C 0.14889 0.19543 0.70929 0.0
H441 H 0.24901 0.13915 0.73878 0.0
H442 H 0.02091 0.50426 0.60781 0.0
H443 H 0.68265 0.08371 0.90031 0.0
H444 H 0.7583 0.09715 0.85796 0.0
H445 H 0.7283 0.96886 0.79596 0.0
H446 H 0.65499 0.9541 0.83941 0.0
H447 H 0.82466 0.98631 0.79836 0.0
H448 H 0.67807 0.07473 0.76465 0.0
H449 H 0.61851 0.1327 0.78297 0.0
H450 H 0.74092 0.22973 0.80467 0.0
H451 H 0.80111 0.17217 0.78671 0.0
H452 H 0.82145 0.97709 0.59123 0.0
H453 H 0.79075 0.99811 0.65934 0.0
H454 H 0.91226 0.09906 0.67112 0.0
H455 H 0.94405 0.07772 0.60274 0.0
H456 H 0.80015 0.11487 0.70686 0.0
H457 H 0.94311 0.02549 0.71353 0.0
H458 H 0.99681 0.9643 0.69193 0.0
H459 H 0.87854 0.86566 0.72117 0.0
H460 H 0.82351 0.92627 0.74171 0.0
C461 C 0.69319 0.05775 0.87854 0.0
C462 C 0.6622 0.01829 0.8725 0.0
C463 C 0.73631 0.06559 0.85426 0.0
C464 C 0.74823 0.03458 0.82304 0.0
C465 C 0.71995 0.99334 0.81983 0.0
C466 C 0.67767 0.98503 0.84461 0.0
C467 C 0.78504 0.04646 0.78991 0.0
C468 C 0.81997 0.01481 0.77868 0.0
C469 C 0.78011 0.08451 0.76488 0.0
C470 C 0.74394 0.11918 0.77474 0.0
C471 C 0.69217 0.10845 0.77337 0.0
C472 C 0.65835 0.14119 0.78371 0.0
C473 C 0.67593 0.18485 0.79507 0.0
C474 C 0.72736 0.19591 0.79593 0.0
C475 C 0.76133 0.16326 0.78565 0.0
C476 C 0.84078 0.00481 0.60763 0.0
C477 C 0.88561 0.02518 0.59198 0.0
C478 C 0.82331 0.01664 0.64658 0.0
C479 C 0.85008 0.04924 0.67036 0.0
C480 C 0.89152 0.0735 0.65313 0.0
C481 C 0.90932 0.06148 0.61398 0.0
C482 C 0.83719 0.05319 0.71438 0.0
C483 C 0.80677 0.08765 0.72751 0.0
C484 C 0.84591 0.01742 0.74101 0.0
C485 C 0.87893 0.98063 0.72874 0.0
C486 C 0.92826 0.99081 0.71482 0.0
C487 C 0.95899 0.95619 0.70281 0.0
C488 C 0.94103 0.91113 0.705 0.0
C489 C 0.89234 0.90059 0.71934 0.0
C490 C 0.86134 0.9351 0.73113 0.0
H491 H 0.96487 0.8844 0.69563 0.0
H492 H 0.64971 0.21015 0.80314 0.0
H493 H 0.18227 0.41195 -0.00684 0.0
H494 H 0.22573 0.34341 0.0032 0.0
H495 H 0.08447 0.26844 0.02134 0.0
H496 H 0.04021 0.33833 0.01232 0.0
H497 H 0.1604 0.23663 0.07036 0.0
H498 H 0.13796 0.26369 0.92898 0.0
H499 H 0.13776 0.30844 0.86595 0.0
H500 H 0.29657 0.33561 0.87396 0.0
H501 H 0.29766 0.29162 0.93738 0.0
H502 H 0.32081 0.04496 0.00775 0.0
H503 H 0.24915 0.09363 0.01676 0.0
H504 H 0.35115 0.21152 0.01673 0.0
H505 H 0.4216 0.16382 0.00787 0.0
H506 H 0.27687 0.20759 0.954 0.0
H507 H 0.29447 0.177 0.09942 0.0
H508 H 0.28907 0.12845 0.16 0.0
H509 H 0.13141 0.10338 0.14226 0.0
H510 H 0.13626 0.14943 0.08019 0.0
C511 C 0.16027 0.38107 -0.00018 0.0
C512 C 0.10774 0.38041 0.00116 0.0
C513 C 0.18524 0.34179 0.00554 0.0
C514 C 0.15847 0.30035 0.01184 0.0
C515 C 0.10598 0.2999 0.01608 0.0
C516 C 0.08072 0.33979 0.01092 0.0
C517 C 0.18616 0.25799 0.01046 0.0
C518 C 0.1852 0.22964 0.04463 0.0
C519 C 0.2181 0.24839 0.97665 0.0
C520 C 0.21783 0.27444 0.93809 0.0
C521 C 0.17282 0.27939 0.91743 0.0
C522 C 0.17254 0.30462 0.88161 0.0
C523 C 0.2171 0.32488 0.86598 0.0
C524 C 0.26207 0.31987 0.88609 0.0
C525 C 0.26255 0.29472 0.92194 0.0
C526 C 0.32772 0.08117 0.01098 0.0
C527 C 0.37668 0.10069 0.00678 0.0
C528 C 0.28685 0.10894 0.0159 0.0
C529 C 0.29478 0.15633 0.01692 0.0
C530 C 0.34399 0.17519 0.01567 0.0
C531 C 0.38429 0.14782 0.01071 0.0
C532 C 0.25311 0.18744 0.01472 0.0
C533 C 0.25138 0.2138 0.97949 0.0
C534 C 0.21826 0.19428 0.04722 0.0
C535 C 0.21597 0.166 0.08443 0.0
C536 C 0.25884 0.16024 0.10773 0.0
C537 C 0.25587 0.13308 0.14243 0.0
C538 C 0.21002 0.11229 0.15472 0.0
C539 C 0.16706 0.11876 0.13239 0.0
C540 C 0.16994 0.14526 0.09734 0.0
H541 H 0.20769 0.09149 0.18171 0.0
H542 H 0.21679 0.34442 0.83826 0.0
H543 H 0.17969 0.55796 0.08308 0.0
H544 H 0.2545 0.60787 0.07287 0.0
H545 H 0.21379 0.62707 0.9472 0.0
H546 H 0.13909 0.57754 0.95699 0.0
H547 H 0.31772 0.62227 0.95749 0.0
H548 H 0.17682 0.69862 0.01716 0.0
H549 H 0.11093 0.71057 0.06946 0.0
H550 H 0.22217 0.72791 0.16267 0.0
H551 H 0.28868 0.71534 0.11095 0.0
H552 H 0.41275 0.8394 0.90184 0.0
H553 H 0.36699 0.76814 0.91667 0.0
H554 H 0.4043 0.78413 0.04466 0.0
H555 H 0.44786 0.85629 0.03035 0.0
H556 H 0.31139 0.76444 0.03958 0.0
H557 H 0.45418 0.70016 0.97832 0.0
H558 H 0.52036 0.68953 0.92603 0.0
H559 H 0.40929 0.64969 0.83696 0.0
H560 H 0.34236 0.6607 0.88854 0.0
C561 C 0.18705 0.57207 0.05301 0.0
C562 C 0.15292 0.56411 0.02096 0.0
C563 C 0.22988 0.60052 0.04727 0.0
C564 C 0.23922 0.62142 0.00944 0.0
C565 C 0.2072 0.61112 0.97661 0.0
C566 C 0.16432 0.58285 0.98235 0.0
C567 C 0.27875 0.65789 0.0052 0.0
C568 C 0.31658 0.65345 0.97533 0.0
C569 C 0.27764 0.69798 0.02926 0.0
C570 C 0.23762 0.70541 0.06032 0.0
C571 C 0.18717 0.70453 0.04888 0.0
C572 C 0.14973 0.71149 0.0784 0.0
C573 C 0.16234 0.71983 0.11939 0.0
C574 C 0.21244 0.72132 0.13093 0.0
C575 C 0.25002 0.71427 0.10154 0.0
C576 C 0.41186 0.8275 0.93308 0.0
C577 C 0.43397 0.85384 0.96495 0.0
C578 C 0.38597 0.78646 0.94147 0.0
C579 C 0.38277 0.77032 0.98173 0.0
C580 C 0.40629 0.79582 0.01334 0.0
C581 C 0.4313 0.83728 0.00509 0.0
C582 C 0.35072 0.72936 0.99145 0.0
C583 C 0.3138 0.73301 0.02228 0.0
C584 C 0.35303 0.68855 0.96838 0.0
C585 C 0.39321 0.68152 0.9373 0.0
C586 C 0.44383 0.6894 0.94752 0.0
C587 C 0.48149 0.68327 0.918 0.0
C588 C 0.46904 0.669 0.87818 0.0
C589 C 0.41888 0.66073 0.86782 0.0
C590 C 0.38107 0.66684 0.89721 0.0
H591 H 0.49825 0.6643 0.85537 0.0
H592 H 0.13331 0.72526 0.1422 0.0
H593 H 0.6197 0.1166 0.97171 0.0
H594 H 0.66037 0.19029 0.95855 0.0
H595 H 0.55419 0.25251 0.04 0.0
H596 H 0.51528 0.17767 0.05538 0.0
H597 H 0.64189 0.26287 0.92735 0.0
H598 H 0.60853 0.34613 0.08502 0.0
H599 H 0.59016 0.32558 0.15706 0.0
H600 H 0.66318 0.20154 0.13823 0.0
H601 H 0.68233 0.2216 0.06625 0.0
H602 H 0.80195 0.46166 0.9158 0.0
H603 H 0.72411 0.41564 0.9277 0.0
H604 H 0.79489 0.34671 0.02469 0.0
H605 H 0.87107 0.39353 0.01413 0.0
H606 H 0.70533 0.35438 0.04629 0.0
H607 H 0.78718 0.30663 0.92015 0.0
H608 H 0.82092 0.3144 0.84951 0.0
H609 H 0.67651 0.34749 0.80774 0.0
H610 H 0.64208 0.3404 0.87829 0.0
C611 C 0.60483 0.14602 0.98665 0.0
C612 C 0.56492 0.14154 0.01501 0.0
C613 C 0.62791 0.18827 0.97892 0.0
C614 C 0.61089 0.22713 -0.00132 0.0
C615 C 0.56887 0.22299 0.02517 0.0
C616 C 0.5466 0.18034 0.03389 0.0
C617 C 0.63988 0.27087 -0.00674 0.0
C618 C 0.65531 0.28317 0.95338 0.0
C619 C 0.65755 0.2975 0.02709 0.0
C620 C 0.64612 0.28506 0.0702 0.0
C621 C 0.62059 0.31448 0.09632 0.0
C622 C 0.61009 0.30293 0.13711 0.0
C623 C 0.62529 0.26219 0.15215 0.0
C624 C 0.65122 0.23299 0.12649 0.0
C625 C 0.66186 0.2444 0.0857 0.0
C626 C 0.80038 0.43714 0.94007 0.0
C627 C 0.84253 0.4311 0.96405 0.0
C628 C 0.75602 0.4108 0.94676 0.0
C629 C 0.75376 0.37721 0.97671 0.0
C630 C 0.79536 0.37255 0.0016 0.0
C631 C 0.83909 0.39937 -0.00449 0.0
C632 C 0.71014 0.34429 0.98067 0.0
C633 C 0.69106 0.3347 0.02018 0.0
C634 C 0.69144 0.31844 0.94672 0.0
C635 C 0.71232 0.32381 0.90455 0.0
C636 C 0.7628 0.31606 0.89596 0.0
C637 C 0.782 0.32025 0.85594 0.0
C638 C 0.75095 0.3317 0.8242 0.0
C639 C 0.70057 0.33886 0.83239 0.0
C640 C 0.68121 0.3348 0.87238 0.0
H641 H 0.76585 0.3348 0.79322 0.0
H642 H 0.61711 0.25331 0.18373 0.0
H643 H 0.95143 0.64516 0.94894 0.0
H644 H 0.91422 0.71801 0.93807 0.0
H645 H 0.78862 0.67591 0.01562 0.0
H646 H 0.82441 0.60385 0.02577 0.0
H647 H 0.82196 0.74137 0.90656 0.0
H648 H 0.75939 0.76141 0.07889 0.0
H649 H 0.79185 0.74738 0.14757 0.0
H650 H 0.94169 0.75025 0.09818 0.0
H651 H 0.91029 0.76477 0.02925 0.0
H652 H 0.59707 0.84908 0.94321 0.0
H653 H 0.67029 0.80415 0.93291 0.0
H654 H 0.76119 0.90643 -0.00275 0.0
H655 H 0.68754 0.95156 0.00728 0.0
H656 H 0.77011 0.82773 0.03052 0.0
H657 H 0.78756 0.88167 0.89757 0.0
H658 H 0.7665 0.904 0.82791 0.0
H659 H 0.72143 0.76652 0.7971 0.0
H660 H 0.74211 0.74322 0.86673 0.0
C661 C 0.91561 0.65126 0.96311 0.0
C662 C 0.89111 0.61831 0.9881 0.0
C663 C 0.89447 0.69301 0.95708 0.0
C664 C 0.84889 0.70278 0.97657 0.0
C665 C 0.82416 0.66961 0.0008 0.0
C666 C 0.84483 0.62813 0.00646 0.0
C667 C 0.82603 0.74717 0.97236 0.0
C668 C 0.81081 0.76046 0.93357 0.0
C669 C 0.81332 0.77339 0.00742 0.0
C670 C 0.83237 0.76389 0.04877 0.0
C671 C 0.79928 0.75914 0.08264 0.0
C672 C 0.81749 0.75102 0.12162 0.0
C673 C 0.86877 0.74787 0.12719 0.0
C674 C 0.90196 0.75258 0.09377 0.0
C675 C 0.88395 0.76061 0.05471 0.0
C676 C 0.63316 0.8627 0.95367 0.0
C677 C 0.63701 0.90402 0.97538 0.0
C678 C 0.67505 0.83701 0.94784 0.0
C679 C 0.72158 0.85184 0.96411 0.0
C680 C 0.72589 0.8943 0.9842 0.0
C681 C 0.68396 0.92025 0.98965 0.0
C682 C 0.76303 0.82021 0.96499 0.0
C683 C 0.78171 0.8092 0.0033 0.0
C684 C 0.77982 0.79698 0.92938 0.0
C685 C 0.76606 0.81072 0.88762 0.0
C686 C 0.77255 0.85622 0.87617 0.0
C687 C 0.7608 0.86906 0.8366 0.0
C688 C 0.74233 0.83677 0.80815 0.0
C689 C 0.73571 0.79151 0.81919 0.0
C690 C 0.74763 0.77843 0.85869 0.0
H691 H 0.73333 0.8468 0.7775 0.0
H692 H 0.8828 0.7419 0.15739 0.0
loop_
_geom_bond_atom_site_label_1
_geom_bond_atom_site_label_2
_geom_bond_distance
_geom_bond_site_symmetry_2
_ccdc_geom_bond_type
C0 O12 1.241 . S
C0 O13 1.280 1_455 S
C1 O14 1.277 1_655 S
C1 O15 1.245 . S
C2 O26 1.247 . S
C2 O28 1.289 1_545 S
Mg3 O4 1.926 . S
Mg3 O13 1.984 . S
Mg3 O15 1.988 . S
Mg3 O16 2.061 . S
O4 Mg3 1.926 . S
O4 Mg5 1.986 1_655 S
O4 Mg6 1.917 1_665 S
Mg5 O4 1.986 1_455 S
Mg5 O12 2.042 . S
Mg5 O14 2.041 . S
Mg5 O20 2.038 . S
Mg5 O28 2.238 . S
Mg6 O4 1.917 1_445 S
Mg6 O7 1.917 . S
Mg6 O17 2.106 1_455 S
Mg6 O19 2.079 . S
Mg6 O28 2.106 1_545 S
Mg6 O29 2.079 1_445 S
O7 Mg6 1.917 . S
O7 Mg8 1.926 . S
O7 Mg9 1.986 1_455 S
Mg8 O7 1.926 . S
Mg8 O22 1.984 . S
Mg8 O25 1.988 . S
Mg8 O26 2.061 . S
Mg9 O7 1.986 1_655 S
Mg9 O17 2.238 . S
Mg9 O21 2.042 . S
Mg9 O23 2.041 . S
Mg9 O30 2.038 . S
C10 O16 1.247 . S
C10 O17 1.289 1_565 S
C11 O29 1.245 1_545 S
C11 O30 1.274 . S
O12 C0 1.241 . S
O12 Mg5 2.042 . S
O13 C0 1.280 1_655 S
O13 Mg3 1.984 . S
O14 C1 1.277 1_455 S
O14 Mg5 2.041 . S
O15 C1 1.245 . S
O15 Mg3 1.988 . S
O16 Mg3 2.061 . S
O16 C10 1.247 . S
O17 Mg6 2.106 1_655 S
O17 Mg9 2.238 . S
O17 C10 1.289 1_545 S
C18 O19 1.245 1_565 S
C18 O20 1.274 . S
O19 Mg6 2.079 . S
O19 C18 1.245 1_545 S
O20 Mg5 2.038 . S
O20 C18 1.274 . S
O21 Mg9 2.042 . S
O21 C24 1.241 . S
O22 Mg8 1.984 . S
O22 C24 1.280 1_455 S
O23 Mg9 2.041 . S
O23 C27 1.277 1_655 S
C24 O21 1.241 . S
C24 O22 1.280 1_655 S
O25 Mg8 1.988 . S
O25 C27 1.245 . S
O26 C2 1.247 . S
O26 Mg8 2.061 . S
C27 O23 1.277 1_455 S
C27 O25 1.245 . S
O28 C2 1.289 1_565 S
O28 Mg5 2.238 . S
O28 Mg6 2.106 1_565 S
O29 Mg6 2.079 1_665 S
O29 C11 1.245 1_565 S
O30 Mg9 2.038 . S
O30 C11 1.274 . S
C31 O43 1.241 . S
C31 O44 1.280 1_565 S
C32 O45 1.277 1_545 S
C32 O46 1.245 . S
C33 O57 1.247 . S
C33 O59 1.289 1_556 S
Mg34 O35 1.926 . S
Mg34 O44 1.984 . S
Mg34 O46 1.988 . S
Mg34 O47 2.061 . S
O35 Mg34 1.926 . S
O35 Mg36 1.986 1_545 S
O35 Mg37 1.917 . S
Mg36 O35 1.986 1_565 S
Mg36 O43 2.042 . S
Mg36 O45 2.041 . S
Mg36 O51 2.038 . S
Mg36 O59 2.238 . S
Mg37 O35 1.917 . S
Mg37 O38 1.917 1_544 S
Mg37 O48 2.106 1_554 S
Mg37 O50 2.079 1_544 S
Mg37 O59 2.106 1_545 S
Mg37 O60 2.079 . S
O38 Mg37 1.917 1_566 S
O38 Mg39 1.926 . S
O38 Mg40 1.986 1_565 S
Mg39 O38 1.926 . S
Mg39 O53 1.984 . S
Mg39 O56 1.988 . S
Mg39 O57 2.061 . S
Mg40 O38 1.986 1_545 S
Mg40 O48 2.238 . S
Mg40 O52 2.042 . S
Mg40 O54 2.041 . S
Mg40 O61 2.038 . S
C41 O47 1.247 . S
C41 O48 1.289 1_554 S
C42 O60 1.245 1_556 S
C42 O61 1.274 . S
O43 C31 1.241 . S
O43 Mg36 2.042 . S
O44 C31 1.280 1_545 S
O44 Mg34 1.984 . S
O45 C32 1.277 1_565 S
O45 Mg36 2.041 . S
O46 C32 1.245 . S
O46 Mg34 1.988 . S
O47 Mg34 2.061 . S
O47 C41 1.247 . S
O48 Mg37 2.106 1_556 S
O48 Mg40 2.238 . S
O48 C41 1.289 1_556 S
C49 O50 1.245 1_554 S
C49 O51 1.274 . S
O50 Mg37 2.079 1_566 S
O50 C49 1.245 1_556 S
O51 Mg36 2.038 . S
O51 C49 1.274 . S
O52 Mg40 2.042 . S
O52 C55 1.241 . S
O53 Mg39 1.984 . S
O53 C55 1.280 1_565 S
O54 Mg40 2.041 . S
O54 C58 1.277 1_545 S
C55 O52 1.241 . S
C55 O53 1.280 1_545 S
O56 Mg39 1.988 . S
O56 C58 1.245 . S
O57 C33 1.247 . S
O57 Mg39 2.061 . S
C58 O54 1.277 1_565 S
C58 O56 1.245 . S
O59 C33 1.289 1_554 S
O59 Mg36 2.238 . S
O59 Mg37 2.106 1_565 S
O60 Mg37 2.079 . S
O60 C42 1.245 1_554 S
O61 Mg40 2.038 . S
O61 C42 1.274 . S
C62 O74 1.241 . S
C62 O75 1.280 1_455 S
C63 O76 1.277 1_655 S
C63 O77 1.245 . S
C64 O88 1.247 . S
C64 O90 1.289 1_554 S
Mg65 O66 1.926 . S
Mg65 O75 1.984 . S
Mg65 O77 1.988 . S
Mg65 O78 2.061 . S
O66 Mg65 1.926 . S
O66 Mg67 1.986 1_655 S
O66 Mg68 1.917 1_656 S
Mg67 O66 1.986 1_455 S
Mg67 O74 2.042 . S
Mg67 O76 2.041 . S
Mg67 O82 2.038 . S
Mg67 O90 2.238 . S
Mg68 O66 1.917 1_454 S
Mg68 O69 1.917 . S
Mg68 O79 2.106 1_455 S
Mg68 O81 2.079 . S
Mg68 O90 2.106 1_554 S
Mg68 O91 2.079 1_454 S
O69 Mg68 1.917 . S
O69 Mg70 1.926 . S
O69 Mg71 1.986 1_455 S
Mg70 O69 1.926 . S
Mg70 O84 1.984 . S
Mg70 O87 1.988 . S
Mg70 O88 2.061 . S
Mg71 O69 1.986 1_655 S
Mg71 O79 2.238 . S
Mg71 O83 2.042 . S
Mg71 O85 2.041 . S
Mg71 O92 2.038 . S
C72 O78 1.247 . S
C72 O79 1.289 1_556 S
C73 O91 1.245 1_554 S
C73 O92 1.274 . S
O74 C62 1.241 . S
O74 Mg67 2.042 . S
O75 C62 1.280 1_655 S
O75 Mg65 1.984 . S
O76 C63 1.277 1_455 S
O76 Mg67 2.041 . S
O77 C63 1.245 . S
O77 Mg65 1.988 . S
O78 Mg65 2.061 . S
O78 C72 1.247 . S
O79 Mg68 2.106 1_655 S
O79 Mg71 2.238 . S
O79 C72 1.289 1_554 S
C80 O81 1.245 1_556 S
C80 O82 1.274 . S
O81 Mg68 2.079 . S
O81 C80 1.245 1_554 S
O82 Mg67 2.038 . S
O82 C80 1.274 . S
O83 Mg71 2.042 . S
O83 C86 1.241 . S
O84 Mg70 1.984 . S
O84 C86 1.280 1_455 S
O85 Mg71 2.041 . S
O85 C89 1.277 1_655 S
C86 O83 1.241 . S
C86 O84 1.280 1_655 S
O87 Mg70 1.988 . S
O87 C89 1.245 . S
O88 C64 1.247 . S
O88 Mg70 2.061 . S
C89 O85 1.277 1_455 S
C89 O87 1.245 . S
O90 C64 1.289 1_556 S
O90 Mg67 2.238 . S
O90 Mg68 2.106 1_556 S
O91 Mg68 2.079 1_656 S
O91 C73 1.245 1_556 S
O92 Mg71 2.038 . S
O92 C73 1.274 . S
H93 C111 0.951 . S
H94 C113 0.951 . S
H95 C115 0.950 . S
H96 C116 0.950 . S
H97 C118 0.950 . S
H98 C121 0.950 . S
H99 C122 0.950 . S
H100 C124 0.950 . S
H101 C125 0.950 . S
H102 C126 0.951 . S
H103 C128 0.951 . S
H104 C130 0.950 . S
H105 C131 0.950 . S
H106 C133 0.950 . S
H107 C136 0.950 . S
H108 C137 0.950 . S
H109 C139 0.950 . S
H110 C140 0.950 . S
C111 H93 0.951 . S
C111 C112 1.366 1_655 S
C111 C113 1.388 . S
C112 C111 1.366 1_455 S
C112 C116 1.385 . S
C113 H94 0.951 . S
C113 C111 1.388 . S
C113 C114 1.366 . S
C114 C113 1.366 . S
C114 C115 1.414 1_655 S
C114 C117 1.499 . S
C115 H95 0.950 . S
C115 C114 1.414 1_455 S
C115 C116 1.374 . S
C116 H96 0.950 . S
C116 C112 1.385 . S
C116 C115 1.374 . S
C117 C114 1.499 . S
C117 C118 1.373 1_655 S
C117 C119 1.389 . S
C118 H97 0.950 . S
C118 C117 1.373 1_455 S
C118 C134 1.377 . S
C119 C117 1.389 . S
C119 C120 1.524 . S
C119 C133 1.377 . S
C120 C119 1.524 . S
C120 C121 1.397 . S
C120 C125 1.363 . S
C121 H98 0.950 . S
C121 C120 1.397 . S
C121 C122 1.334 . S
C122 H99 0.950 . S
C122 C121 1.334 . S
C122 C123 1.287 . S
C123 C122 1.287 . S
C123 C124 1.524 . S
C123 H142 0.913 . S
C124 H100 0.950 . S
C124 C123 1.524 . S
C124 C125 1.415 . S
C125 H101 0.950 . S
C125 C120 1.363 . S
C125 C124 1.415 . S
C126 H102 0.951 . S
C126 C127 1.366 1_455 S
C126 C128 1.388 . S
C127 C126 1.366 1_655 S
C127 C131 1.385 . S
C128 H103 0.951 . S
C128 C126 1.388 . S
C128 C129 1.366 1_455 S
C129 C128 1.366 1_655 S
C129 C130 1.414 . S
C129 C132 1.499 . S
C130 H104 0.950 . S
C130 C129 1.414 . S
C130 C131 1.374 . S
C131 H105 0.950 . S
C131 C127 1.385 . S
C131 C130 1.374 . S
C132 C129 1.499 . S
C132 C133 1.373 . S
C132 C134 1.389 1_655 S
C133 H106 0.950 . S
C133 C119 1.377 . S
C133 C132 1.373 . S
C134 C118 1.377 . S
C134 C132 1.389 1_455 S
C134 C135 1.524 . S
C135 C134 1.524 . S
C135 C136 1.397 . S
C135 C140 1.363 . S
C136 H107 0.950 . S
C136 C135 1.397 . S
C136 C137 1.334 . S
C137 H108 0.950 . S
C137 C136 1.334 . S
C137 C138 1.287 . S
C138 C137 1.287 . S
C138 C139 1.524 . S
C138 H141 0.999 . S
C139 H109 0.950 . S
C139 C138 1.524 . S
C139 C140 1.415 . S
C140 H110 0.950 . S
C140 C135 1.363 . S
C140 C139 1.415 . S
H141 C138 0.999 . S
H142 C123 0.913 . S
H143 C161 0.951 . S
H144 C163 0.951 . S
H145 C165 0.950 . S
H146 C166 0.950 . S
H147 C168 0.950 . S
H148 C171 0.950 . S
H149 C172 0.950 . S
H150 C174 0.950 . S
H151 C175 0.950 . S
H152 C176 0.951 . S
H153 C178 0.951 . S
H154 C180 0.950 . S
H155 C181 0.950 . S
H156 C183 0.950 . S
H157 C186 0.950 . S
H158 C187 0.950 . S
H159 C189 0.950 . S
H160 C190 0.950 1_565 S
C161 H143 0.951 . S
C161 C162 1.361 1_545 S
C161 C163 1.388 . S
C162 C161 1.361 1_565 S
C162 C166 1.389 . S
C163 H144 0.951 . S
C163 C161 1.388 . S
C163 C164 1.366 1_545 S
C164 C163 1.366 1_565 S
C164 C165 1.414 . S
C164 C167 1.499 . S
C165 H145 0.950 . S
C165 C164 1.414 . S
C165 C166 1.374 . S
C166 H146 0.950 . S
C166 C162 1.389 . S
C166 C165 1.374 . S
C167 C164 1.499 . S
C167 C168 1.373 1_565 S
C167 C169 1.389 . S
C168 H147 0.950 . S
C168 C167 1.373 1_545 S
C168 C184 1.377 . S
C169 C167 1.389 . S
C169 C170 1.524 . S
C169 C183 1.377 . S
C170 C169 1.524 . S
C170 C171 1.397 . S
C170 C175 1.363 . S
C171 H148 0.950 . S
C171 C170 1.397 . S
C171 C172 1.334 . S
C172 H149 0.950 . S
C172 C171 1.334 . S
C172 C173 1.287 . S
C173 C172 1.287 . S
C173 C174 1.524 . S
C173 H192 0.913 . S
C174 H150 0.950 . S
C174 C173 1.524 . S
C174 C175 1.415 . S
C175 H151 0.950 . S
C175 C170 1.363 . S
C175 C174 1.415 . S
C176 H152 0.951 . S
C176 C177 1.366 . S
C176 C178 1.388 . S
C177 C176 1.366 . S
C177 C181 1.385 1_565 S
C178 H153 0.951 . S
C178 C176 1.388 . S
C178 C179 1.366 . S
C179 C178 1.366 . S
C179 C180 1.414 1_565 S
C179 C182 1.499 . S
C180 H154 0.950 . S
C180 C179 1.414 1_545 S
C180 C181 1.374 . S
C181 H155 0.950 . S
C181 C177 1.385 1_545 S
C181 C180 1.374 . S
C182 C179 1.499 . S
C182 C183 1.373 . S
C182 C184 1.389 1_565 S
C183 H156 0.950 . S
C183 C169 1.377 . S
C183 C182 1.373 . S
C184 C168 1.377 . S
C184 C182 1.389 1_545 S
C184 C185 1.524 . S
C185 C184 1.524 . S
C185 C186 1.397 . S
C185 C190 1.363 . S
C186 H157 0.950 . S
C186 C185 1.397 . S
C186 C187 1.334 . S
C187 H158 0.950 . S
C187 C186 1.334 . S
C187 C188 1.287 . S
C188 C187 1.287 . S
C188 C189 1.524 . S
C188 H191 0.999 . S
C189 H159 0.950 . S
C189 C188 1.524 . S
C189 C190 1.415 . S
C190 H160 0.950 1_545 S
C190 C185 1.363 . S
C190 C189 1.415 . S
H191 C188 0.999 . S
H192 C173 0.913 . S
H193 C211 0.951 . S
H194 C213 0.951 . S
H195 C215 0.950 . S
H196 C216 0.950 . S
H197 C218 0.950 . S
H198 C221 0.950 . S
H199 C222 0.950 . S
H200 C224 0.950 . S
H201 C225 0.950 . S
H202 C226 0.951 . S
H203 C228 0.951 . S
H204 C230 0.950 . S
H205 C231 0.950 . S
H206 C233 0.950 1_455 S
H207 C236 0.950 1_455 S
H208 C237 0.950 1_455 S
H209 C239 0.950 . S
H210 C240 0.950 . S
C211 H193 0.951 . S
C211 C212 1.366 1_455 S
C211 C213 1.388 . S
C212 C211 1.366 1_655 S
C212 C216 1.385 . S
C213 H194 0.951 . S
C213 C211 1.388 . S
C213 C214 1.366 1_455 S
C214 C213 1.366 1_655 S
C214 C215 1.414 . S
C214 C217 1.499 . S
C215 H195 0.950 . S
C215 C214 1.414 . S
C215 C216 1.374 . S
C216 H196 0.950 . S
C216 C212 1.385 . S
C216 C215 1.374 . S
C217 C214 1.499 . S
C217 C218 1.373 . S
C217 C219 1.389 . S
C218 H197 0.950 . S
C218 C217 1.373 . S
C218 C234 1.377 . S
C219 C217 1.389 . S
C219 C220 1.524 1_655 S
C219 C233 1.377 . S
C220 C219 1.524 1_455 S
C220 C221 1.397 1_455 S
C220 C225 1.363 . S
C221 H198 0.950 . S
C221 C220 1.397 1_655 S
C221 C222 1.334 . S
C222 H199 0.950 . S
C222 C221 1.334 . S
C222 C223 1.287 1_655 S
C223 C222 1.287 1_455 S
C223 C224 1.524 . S
C223 H242 0.913 . S
C224 H200 0.950 . S
C224 C223 1.524 . S
C224 C225 1.415 . S
C225 H201 0.950 . S
C225 C220 1.363 . S
C225 C224 1.415 . S
C226 H202 0.951 . S
C226 C227 1.366 . S
C226 C228 1.388 . S
C227 C226 1.366 . S
C227 C231 1.385 1_655 S
C228 H203 0.951 . S
C228 C226 1.388 . S
C228 C229 1.366 . S
C229 C228 1.366 . S
C229 C230 1.414 1_655 S
C229 C232 1.499 . S
C230 H204 0.950 . S
C230 C229 1.414 1_455 S
C230 C231 1.374 . S
C231 H205 0.950 . S
C231 C227 1.385 1_455 S
C231 C230 1.374 . S
C232 C229 1.499 . S
C232 C233 1.373 . S
C232 C234 1.389 . S
C233 H206 0.950 1_655 S
C233 C219 1.377 . S
C233 C232 1.373 . S
C234 C218 1.377 . S
C234 C232 1.389 . S
C234 C235 1.524 . S
C235 C234 1.524 . S
C235 C236 1.397 . S
C235 C240 1.363 . S
C236 H207 0.950 1_655 S
C236 C235 1.397 . S
C236 C237 1.334 . S
C237 H208 0.950 1_655 S
C237 C236 1.334 . S
C237 C238 1.287 . S
C238 C237 1.287 . S
C238 C239 1.524 . S
C238 H241 0.999 . S
C239 H209 0.950 . S
C239 C238 1.524 . S
C239 C240 1.415 . S
C240 H210 0.950 . S
C240 C235 1.363 . S
C240 C239 1.415 . S
H241 C238 0.999 . S
H242 C223 0.913 . S
H243 C261 0.951 . S
H244 C263 0.951 . S
H245 C265 0.949 1_565 S
H246 C266 0.954 . S
H247 C268 0.950 . S
H248 C271 0.950 . S
H249 C272 0.950 . S
H250 C274 0.950 . S
H251 C275 0.950 . S
H252 C276 0.951 . S
H253 C278 0.951 . S
H254 C280 0.950 . S
H255 C281 0.950 . S
H256 C283 0.950 . S
H257 C286 0.950 . S
H258 C287 0.950 . S
H259 C289 0.950 . S
H260 C290 0.950 . S
C261 H243 0.951 . S
C261 C262 1.366 . S
C261 C263 1.388 . S
C262 C261 1.366 . S
C262 C266 1.385 . S
C263 H244 0.951 . S
C263 C261 1.388 . S
C263 C264 1.366 . S
C264 C263 1.366 . S
C264 C265 1.414 . S
C264 C267 1.499 . S
C265 H245 0.949 1_545 S
C265 C264 1.414 . S
C265 C266 1.374 . S
C266 H246 0.954 . S
C266 C262 1.385 . S
C266 C265 1.374 . S
C267 C264 1.499 . S
C267 C268 1.373 1_545 S
C267 C269 1.389 . S
C268 H247 0.950 . S
C268 C267 1.373 1_565 S
C268 C284 1.377 . S
C269 C267 1.389 . S
C269 C270 1.524 . S
C269 C283 1.377 . S
C270 C269 1.524 . S
C270 C271 1.397 . S
C270 C275 1.363 . S
C271 H248 0.950 . S
C271 C270 1.397 . S
C271 C272 1.334 . S
C272 H249 0.950 . S
C272 C271 1.334 . S
C272 C273 1.287 . S
C273 C272 1.287 . S
C273 C274 1.524 . S
C273 H292 0.913 . S
C274 H250 0.950 . S
C274 C273 1.524 . S
C274 C275 1.415 . S
C275 H251 0.950 . S
C275 C270 1.363 . S
C275 C274 1.415 . S
C276 H252 0.951 . S
C276 C277 1.364 1_565 S
C276 C278 1.388 . S
C277 C276 1.364 1_545 S
C277 C281 1.386 . S
C278 H253 0.951 . S
C278 C276 1.388 . S
C278 C279 1.366 . S
C279 C278 1.366 . S
C279 C280 1.413 1_565 S
C279 C282 1.499 1_565 S
C280 H254 0.950 . S
C280 C279 1.413 1_545 S
C280 C281 1.374 . S
C281 H255 0.950 . S
C281 C277 1.386 . S
C281 C280 1.374 . S
C282 C279 1.499 1_545 S
C282 C283 1.385 . S
C282 C284 1.379 1_545 S
C283 H256 0.950 . S
C283 C269 1.377 . S
C283 C282 1.385 . S
C284 C268 1.377 . S
C284 C282 1.379 1_565 S
C284 C285 1.524 . S
C285 C284 1.524 . S
C285 C286 1.397 . S
C285 C290 1.363 . S
C286 H257 0.950 . S
C286 C285 1.397 . S
C286 C287 1.334 . S
C287 H258 0.950 . S
C287 C286 1.334 . S
C287 C288 1.287 . S
C288 C287 1.287 . S
C288 C289 1.524 . S
C288 H291 0.999 . S
C289 H259 0.950 . S
C289 C288 1.524 . S
C289 C290 1.415 . S
C290 H260 0.950 . S
C290 C285 1.363 . S
C290 C289 1.415 . S
H291 C288 0.999 . S
H292 C273 0.913 . S
H293 C311 0.951 . S
H294 C313 0.951 . S
H295 C315 0.950 . S
H296 C316 0.950 . S
H297 C318 0.950 . S
H298 C321 0.950 . S
H299 C322 0.950 . S
H300 C324 0.950 . S
H301 C325 0.950 . S
H302 C326 0.951 . S
H303 C328 0.951 . S
H304 C330 0.950 . S
H305 C331 0.950 . S
H306 C333 0.950 . S
H307 C336 0.950 . S
H308 C337 0.950 . S
H309 C339 0.950 . S
H310 C340 0.950 . S
C311 H293 0.951 . S
C311 C312 1.366 . S
C311 C313 1.388 . S
C312 C311 1.366 . S
C312 C316 1.385 1_455 S
C313 H294 0.951 . S
C313 C311 1.388 . S
C313 C314 1.366 . S
C314 C313 1.366 . S
C314 C315 1.414 1_455 S
C314 C317 1.499 . S
C315 H295 0.950 . S
C315 C314 1.414 1_655 S
C315 C316 1.374 . S
C316 H296 0.950 . S
C316 C312 1.385 1_655 S
C316 C315 1.374 . S
C317 C314 1.499 . S
C317 C318 1.373 1_455 S
C317 C319 1.389 . S
C318 H297 0.950 . S
C318 C317 1.373 1_655 S
C318 C334 1.377 . S
C319 C317 1.389 . S
C319 C320 1.524 . S
C319 C333 1.377 . S
C320 C319 1.524 . S
C320 C321 1.397 . S
C320 C325 1.363 . S
C321 H298 0.950 . S
C321 C320 1.397 . S
C321 C322 1.334 . S
C322 H299 0.950 . S
C322 C321 1.334 . S
C322 C323 1.287 . S
C323 C322 1.287 . S
C323 C324 1.524 . S
C323 H342 0.913 . S
C324 H300 0.950 . S
C324 C323 1.524 . S
C324 C325 1.415 . S
C325 H301 0.950 . S
C325 C320 1.363 . S
C325 C324 1.415 . S
C326 H302 0.951 . S
C326 C327 1.366 . S
C326 C328 1.388 . S
C327 C326 1.366 . S
C327 C331 1.385 1_655 S
C328 H303 0.951 . S
C328 C326 1.388 . S
C328 C329 1.366 . S
C329 C328 1.366 . S
C329 C330 1.414 1_655 S
C329 C332 1.499 1_655 S
C330 H304 0.950 . S
C330 C329 1.414 1_455 S
C330 C331 1.374 . S
C331 H305 0.950 . S
C331 C327 1.385 1_455 S
C331 C330 1.374 . S
C332 C329 1.499 1_455 S
C332 C333 1.373 . S
C332 C334 1.389 1_455 S
C333 H306 0.950 . S
C333 C319 1.377 . S
C333 C332 1.373 . S
C334 C318 1.377 . S
C334 C332 1.389 1_655 S
C334 C335 1.524 . S
C335 C334 1.524 . S
C335 C336 1.397 . S
C335 C340 1.363 . S
C336 H307 0.950 . S
C336 C335 1.397 . S
C336 C337 1.334 . S
C337 H308 0.950 . S
C337 C336 1.334 . S
C337 C338 1.287 . S
C338 C337 1.287 . S
C338 C339 1.524 . S
C338 H341 0.999 . S
C339 H309 0.950 . S
C339 C338 1.524 . S
C339 C340 1.415 . S
C340 H310 0.950 . S
C340 C335 1.363 . S
C340 C339 1.415 . S
H341 C338 0.999 . S
H342 C323 0.913 . S
H343 C361 0.951 . S
H344 C363 0.951 . S
H345 C365 0.950 . S
H346 C366 0.950 . S
H347 C368 0.950 . S
H348 C371 0.950 . S
H349 C372 0.950 . S
H350 C374 0.950 . S
H351 C375 0.950 . S
H352 C376 0.951 1_565 S
H353 C378 0.951 . S
H354 C380 0.950 . S
H355 C381 0.950 . S
H356 C383 0.950 . S
H357 C386 0.950 . S
H358 C387 0.950 . S
H359 C389 0.950 . S
H360 C390 0.950 . S
C361 H343 0.951 . S
C361 C362 1.366 . S
C361 C363 1.388 . S
C362 C361 1.366 . S
C362 C366 1.385 . S
C363 H344 0.951 . S
C363 C361 1.388 . S
C363 C364 1.366 . S
C364 C363 1.366 . S
C364 C365 1.414 . S
C364 C367 1.499 . S
C365 H345 0.950 . S
C365 C364 1.414 . S
C365 C366 1.374 . S
C366 H346 0.950 . S
C366 C362 1.385 . S
C366 C365 1.374 . S
C367 C364 1.499 . S
C367 C368 1.373 . S
C367 C369 1.389 1_545 S
C368 H347 0.950 . S
C368 C367 1.373 . S
C368 C384 1.377 . S
C369 C367 1.389 1_565 S
C369 C370 1.524 . S
C369 C383 1.377 . S
C370 C369 1.524 . S
C370 C371 1.397 . S
C370 C375 1.363 . S
C371 H348 0.950 . S
C371 C370 1.397 . S
C371 C372 1.334 . S
C372 H349 0.950 . S
C372 C371 1.334 . S
C372 C373 1.287 . S
C373 C372 1.287 . S
C373 C374 1.524 . S
C373 H392 0.913 . S
C374 H350 0.950 . S
C374 C373 1.524 . S
C374 C375 1.415 . S
C375 H351 0.950 . S
C375 C370 1.363 . S
C375 C374 1.415 . S
C376 H352 0.951 1_545 S
C376 C377 1.364 . S
C376 C378 1.388 . S
C377 C376 1.364 . S
C377 C381 1.386 . S
C378 H353 0.951 . S
C378 C376 1.388 . S
C378 C379 1.366 . S
C379 C378 1.366 . S
C379 C380 1.414 . S
C379 C382 1.499 . S
C380 H354 0.950 . S
C380 C379 1.414 . S
C380 C381 1.374 . S
C381 H355 0.950 . S
C381 C377 1.386 . S
C381 C380 1.374 . S
C382 C379 1.499 . S
C382 C383 1.373 1_545 S
C382 C384 1.389 . S
C383 H356 0.950 . S
C383 C369 1.377 . S
C383 C382 1.373 1_565 S
C384 C368 1.377 . S
C384 C382 1.389 . S
C384 C385 1.524 . S
C385 C384 1.524 . S
C385 C386 1.397 . S
C385 C390 1.363 . S
C386 H357 0.950 . S
C386 C385 1.397 . S
C386 C387 1.334 . S
C387 H358 0.950 . S
C387 C386 1.334 . S
C387 C388 1.287 . S
C388 C387 1.287 . S
C388 C389 1.524 . S
C388 H391 0.999 . S
C389 H359 0.950 . S
C389 C388 1.524 . S
C389 C390 1.415 . S
C390 H360 0.950 . S
C390 C385 1.363 . S
C390 C389 1.415 . S
H391 C388 0.999 . S
H392 C373 0.913 . S
H393 C411 0.951 . S
H394 C413 0.951 . S
H395 C415 0.950 1_655 S
H396 C416 0.951 . S
H397 C418 0.950 . S
H398 C421 0.950 . S
H399 C422 0.950 . S
H400 C424 0.950 . S
H401 C425 0.950 . S
H402 C426 0.951 1_655 S
H403 C428 0.951 1_655 S
H404 C430 0.950 . S
H405 C431 0.950 . S
H406 C433 0.950 . S
H407 C436 0.950 . S
H408 C437 0.950 . S
H409 C439 0.950 . S
H410 C440 0.950 . S
C411 H393 0.951 . S
C411 C412 1.366 . S
C411 C413 1.388 . S
C412 C411 1.366 . S
C412 C416 1.385 . S
C413 H394 0.951 . S
C413 C411 1.388 . S
C413 C414 1.366 . S
C414 C413 1.366 . S
C414 C415 1.414 . S
C414 C417 1.499 . S
C415 H395 0.950 1_455 S
C415 C414 1.414 . S
C415 C416 1.374 . S
C416 H396 0.951 . S
C416 C412 1.385 . S
C416 C415 1.374 . S
C417 C414 1.499 . S
C417 C418 1.373 . S
C417 C419 1.389 1_455 S
C418 H397 0.950 . S
C418 C417 1.373 . S
C418 C434 1.377 . S
C419 C417 1.389 1_655 S
C419 C420 1.524 . S
C419 C433 1.377 . S
C420 C419 1.524 . S
C420 C421 1.397 . S
C420 C425 1.363 . S
C421 H398 0.950 . S
C421 C420 1.397 . S
C421 C422 1.334 . S
C422 H399 0.950 . S
C422 C421 1.334 . S
C422 C423 1.287 . S
C423 C422 1.287 . S
C423 C424 1.524 . S
C423 H442 0.913 . S
C424 H400 0.950 . S
C424 C423 1.524 . S
C424 C425 1.415 . S
C425 H401 0.950 . S
C425 C420 1.363 . S
C425 C424 1.415 . S
C426 H402 0.951 1_455 S
C426 C427 1.366 . S
C426 C428 1.388 . S
C427 C426 1.366 . S
C427 C431 1.385 . S
C428 H403 0.951 1_455 S
C428 C426 1.388 . S
C428 C429 1.366 . S
C429 C428 1.366 . S
C429 C430 1.414 . S
C429 C432 1.499 . S
C430 H404 0.950 . S
C430 C429 1.414 . S
C430 C431 1.374 . S
C431 H405 0.950 . S
C431 C427 1.385 . S
C431 C430 1.374 . S
C432 C429 1.499 . S
C432 C433 1.373 1_455 S
C432 C434 1.389 . S
C433 H406 0.950 . S
C433 C419 1.377 . S
C433 C432 1.373 1_655 S
C434 C418 1.377 . S
C434 C432 1.389 . S
C434 C435 1.524 . S
C435 C434 1.524 . S
C435 C436 1.397 . S
C435 C440 1.363 . S
C436 H407 0.950 . S
C436 C435 1.397 . S
C436 C437 1.334 . S
C437 H408 0.950 . S
C437 C436 1.334 . S
C437 C438 1.287 . S
C438 C437 1.287 . S
C438 C439 1.524 . S
C438 H441 0.999 . S
C439 H409 0.950 . S
C439 C438 1.524 . S
C439 C440 1.415 . S
C440 H410 0.950 . S
C440 C435 1.363 . S
C440 C439 1.415 . S
H441 C438 0.999 . S
H442 C423 0.913 . S
H443 C461 0.951 . S
H444 C463 0.951 . S
H445 C465 0.950 . S
H446 C466 0.950 . S
H447 C468 0.950 . S
H448 C471 0.950 . S
H449 C472 0.950 . S
H450 C474 0.950 . S
H451 C475 0.950 . S
H452 C476 0.951 . S
H453 C478 0.951 . S
H454 C480 0.950 . S
H455 C481 0.950 . S
H456 C483 0.950 . S
H457 C486 0.950 . S
H458 C487 0.950 . S
H459 C489 0.950 . S
H460 C490 0.950 . S
C461 H443 0.951 . S
C461 C462 1.366 1_545 S
C461 C463 1.388 . S
C462 C461 1.366 1_565 S
C462 C466 1.385 . S
C463 H444 0.951 . S
C463 C461 1.388 . S
C463 C464 1.366 1_545 S
C464 C463 1.366 1_565 S
C464 C465 1.414 . S
C464 C467 1.499 . S
C465 H445 0.950 . S
C465 C464 1.414 . S
C465 C466 1.374 . S
C466 H446 0.950 . S
C466 C462 1.385 . S
C466 C465 1.374 . S
C467 C464 1.499 . S
C467 C468 1.373 . S
C467 C469 1.389 1_565 S
C468 H447 0.950 . S
C468 C467 1.373 . S
C468 C484 1.377 . S
C469 C467 1.389 1_545 S
C469 C470 1.524 . S
C469 C483 1.377 . S
C470 C469 1.524 . S
C470 C471 1.397 . S
C470 C475 1.363 . S
C471 H448 0.950 . S
C471 C470 1.397 . S
C471 C472 1.334 . S
C472 H449 0.950 . S
C472 C471 1.334 . S
C472 C473 1.287 . S
C473 C472 1.287 . S
C473 C474 1.524 . S
C473 H492 0.913 . S
C474 H450 0.950 . S
C474 C473 1.524 . S
C474 C475 1.415 . S
C475 H451 0.950 . S
C475 C470 1.363 . S
C475 C474 1.415 . S
C476 H452 0.951 . S
C476 C477 1.367 . S
C476 C478 1.388 . S
C477 C476 1.367 . S
C477 C481 1.384 1_565 S
C478 H453 0.951 . S
C478 C476 1.388 . S
C478 C479 1.366 . S
C479 C478 1.366 . S
C479 C480 1.414 1_565 S
C479 C482 1.499 . S
C480 H454 0.950 . S
C480 C479 1.414 1_545 S
C480 C481 1.374 . S
C481 H455 0.950 . S
C481 C477 1.384 1_545 S
C481 C480 1.374 . S
C482 C479 1.499 . S
C482 C483 1.373 1_565 S
C482 C484 1.389 . S
C483 H456 0.950 . S
C483 C469 1.377 . S
C483 C482 1.373 1_545 S
C484 C468 1.377 . S
C484 C482 1.389 . S
C484 C485 1.524 . S
C485 C484 1.524 . S
C485 C486 1.397 . S
C485 C490 1.363 . S
C486 H457 0.950 . S
C486 C485 1.397 . S
C486 C487 1.334 . S
C487 H458 0.950 . S
C487 C486 1.334 . S
C487 C488 1.287 . S
C488 C487 1.287 . S
C488 C489 1.524 . S
C488 H491 0.999 . S
C489 H459 0.950 . S
C489 C488 1.524 . S
C489 C490 1.415 . S
C490 H460 0.950 . S
C490 C485 1.363 . S
C490 C489 1.415 . S
H491 C488 0.999 . S
H492 C473 0.913 . S
H493 C511 0.951 . S
H494 C513 0.951 . S
H495 C515 0.950 . S
H496 C516 0.950 . S
H497 C518 0.950 . S
H498 C521 0.950 . S
H499 C522 0.950 . S
H500 C524 0.950 . S
H501 C525 0.950 . S
H502 C526 0.951 . S
H503 C528 0.951 . S
H504 C530 0.950 . S
H505 C531 0.950 . S
H506 C533 0.950 . S
H507 C536 0.950 . S
H508 C537 0.950 . S
H509 C539 0.950 . S
H510 C540 0.950 . S
C511 H493 0.951 . S
C511 C512 1.366 1_554 S
C511 C513 1.388 . S
C512 C511 1.366 1_556 S
C512 C516 1.385 . S
C513 H494 0.951 . S
C513 C511 1.388 . S
C513 C514 1.366 1_554 S
C514 C513 1.366 1_556 S
C514 C515 1.414 . S
C514 C517 1.499 . S
C515 H495 0.950 . S
C515 C514 1.414 . S
C515 C516 1.374 . S
C516 H496 0.950 . S
C516 C512 1.385 . S
C516 C515 1.374 . S
C517 C514 1.499 . S
C517 C518 1.373 1_556 S
C517 C519 1.389 . S
C518 H497 0.950 . S
C518 C517 1.373 1_554 S
C518 C534 1.377 . S
C519 C517 1.389 . S
C519 C520 1.524 . S
C519 C533 1.377 . S
C520 C519 1.524 . S
C520 C521 1.397 . S
C520 C525 1.363 . S
C521 H498 0.950 . S
C521 C520 1.397 . S
C521 C522 1.334 . S
C522 H499 0.950 . S
C522 C521 1.334 . S
C522 C523 1.287 . S
C523 C522 1.287 . S
C523 C524 1.524 . S
C523 H542 0.913 . S
C524 H500 0.950 . S
C524 C523 1.524 . S
C524 C525 1.415 . S
C525 H501 0.950 . S
C525 C520 1.363 . S
C525 C524 1.415 . S
C526 H502 0.951 . S
C526 C527 1.366 . S
C526 C528 1.388 . S
C527 C526 1.366 . S
C527 C531 1.385 1_556 S
C528 H503 0.951 . S
C528 C526 1.388 . S
C528 C529 1.366 . S
C529 C528 1.366 . S
C529 C530 1.414 1_556 S
C529 C532 1.498 . S
C530 H504 0.950 . S
C530 C529 1.414 1_554 S
C530 C531 1.374 . S
C531 H505 0.950 . S
C531 C527 1.385 1_554 S
C531 C530 1.374 . S
C532 C529 1.498 . S
C532 C533 1.384 . S
C532 C534 1.381 1_556 S
C533 H506 0.950 . S
C533 C519 1.377 . S
C533 C532 1.384 . S
C534 C518 1.377 . S
C534 C532 1.381 1_554 S
C534 C535 1.524 . S
C535 C534 1.524 . S
C535 C536 1.397 . S
C535 C540 1.363 . S
C536 H507 0.950 . S
C536 C535 1.397 . S
C536 C537 1.334 . S
C537 H508 0.950 . S
C537 C536 1.334 . S
C537 C538 1.287 . S
C538 C537 1.287 . S
C538 C539 1.524 . S
C538 H541 0.999 . S
C539 H509 0.950 . S
C539 C538 1.524 . S
C539 C540 1.415 . S
C540 H510 0.950 . S
C540 C535 1.363 . S
C540 C539 1.415 . S
H541 C538 0.999 . S
H542 C523 0.913 . S
H543 C561 0.951 . S
H544 C563 0.951 . S
H545 C565 0.950 . S
H546 C566 0.950 . S
H547 C568 0.950 . S
H548 C571 0.950 . S
H549 C572 0.950 . S
H550 C574 0.950 . S
H551 C575 0.950 . S
H552 C576 0.951 . S
H553 C578 0.951 . S
H554 C580 0.950 . S
H555 C581 0.950 . S
H556 C583 0.950 . S
H557 C586 0.950 . S
H558 C587 0.950 . S
H559 C589 0.950 . S
H560 C590 0.950 . S
C561 H543 0.951 . S
C561 C562 1.366 1_554 S
C561 C563 1.388 . S
C562 C561 1.366 1_556 S
C562 C566 1.385 . S
C563 H544 0.951 . S
C563 C561 1.388 . S
C563 C564 1.362 1_554 S
C564 C563 1.362 1_556 S
C564 C565 1.419 . S
C564 C567 1.498 1_556 S
C565 H545 0.950 . S
C565 C564 1.419 . S
C565 C566 1.374 . S
C566 H546 0.950 . S
C566 C562 1.385 . S
C566 C565 1.374 . S
C567 C564 1.498 1_554 S
C567 C568 1.365 1_554 S
C567 C569 1.397 . S
C568 H547 0.950 . S
C568 C567 1.365 1_556 S
C568 C584 1.377 . S
C569 C567 1.397 . S
C569 C570 1.524 . S
C569 C583 1.377 . S
C570 C569 1.524 . S
C570 C571 1.397 . S
C570 C575 1.363 . S
C571 H548 0.950 . S
C571 C570 1.397 . S
C571 C572 1.334 . S
C572 H549 0.950 . S
C572 C571 1.334 . S
C572 C573 1.287 . S
C573 C572 1.287 . S
C573 C574 1.524 . S
C573 H592 0.913 . S
C574 H550 0.950 . S
C574 C573 1.524 . S
C574 C575 1.415 . S
C575 H551 0.950 . S
C575 C570 1.363 . S
C575 C574 1.415 . S
C576 H552 0.951 . S
C576 C577 1.366 1_556 S
C576 C578 1.388 . S
C577 C576 1.366 1_554 S
C577 C581 1.385 . S
C578 H553 0.951 . S
C578 C576 1.388 . S
C578 C579 1.367 . S
C579 C578 1.367 . S
C579 C580 1.412 1_556 S
C579 C582 1.499 . S
C580 H554 0.950 . S
C580 C579 1.412 1_554 S
C580 C581 1.374 . S
C581 H555 0.950 . S
C581 C577 1.385 . S
C581 C580 1.374 . S
C582 C579 1.499 . S
C582 C583 1.373 1_556 S
C582 C584 1.389 . S
C583 H556 0.950 . S
C583 C569 1.377 . S
C583 C582 1.373 1_554 S
C584 C568 1.377 . S
C584 C582 1.389 . S
C584 C585 1.524 . S
C585 C584 1.524 . S
C585 C586 1.397 . S
C585 C590 1.363 . S
C586 H557 0.950 . S
C586 C585 1.397 . S
C586 C587 1.334 . S
C587 H558 0.950 . S
C587 C586 1.334 . S
C587 C588 1.287 . S
C588 C587 1.287 . S
C588 C589 1.524 . S
C588 H591 0.999 . S
C589 H559 0.950 . S
C589 C588 1.524 . S
C589 C590 1.415 . S
C590 H560 0.950 . S
C590 C585 1.363 . S
C590 C589 1.415 . S
H591 C588 0.999 . S
H592 C573 0.913 . S
H593 C611 0.951 . S
H594 C613 0.951 . S
H595 C615 0.950 . S
H596 C616 0.950 1_554 S
H597 C618 0.950 . S
H598 C621 0.950 . S
H599 C622 0.950 . S
H600 C624 0.950 . S
H601 C625 0.950 . S
H602 C626 0.951 . S
H603 C628 0.951 . S
H604 C630 0.951 . S
H605 C631 0.950 . S
H606 C633 0.950 . S
H607 C636 0.950 . S
H608 C637 0.950 . S
H609 C639 0.950 . S
H610 C640 0.950 . S
C611 H593 0.951 . S
C611 C612 1.366 . S
C611 C613 1.388 . S
C612 C611 1.366 . S
C612 C616 1.385 . S
C613 H594 0.951 . S
C613 C611 1.388 . S
C613 C614 1.365 1_556 S
C614 C613 1.365 1_554 S
C614 C615 1.414 . S
C614 C617 1.499 . S
C615 H595 0.950 . S
C615 C614 1.414 . S
C615 C616 1.374 1_554 S
C616 H596 0.950 1_556 S
C616 C612 1.385 . S
C616 C615 1.374 1_556 S
C617 C614 1.499 . S
C617 C618 1.373 1_554 S
C617 C619 1.389 . S
C618 H597 0.950 . S
C618 C617 1.373 1_556 S
C618 C634 1.377 . S
C619 C617 1.389 . S
C619 C620 1.524 . S
C619 C633 1.377 . S
C620 C619 1.524 . S
C620 C621 1.397 . S
C620 C625 1.363 . S
C621 H598 0.950 . S
C621 C620 1.397 . S
C621 C622 1.334 . S
C622 H599 0.950 . S
C622 C621 1.334 . S
C622 C623 1.287 . S
C623 C622 1.287 . S
C623 C624 1.524 . S
C623 H642 0.913 . S
C624 H600 0.950 . S
C624 C623 1.524 . S
C624 C625 1.415 . S
C625 H601 0.950 . S
C625 C620 1.363 . S
C625 C624 1.415 . S
C626 H602 0.951 . S
C626 C627 1.366 . S
C626 C628 1.388 . S
C627 C626 1.366 . S
C627 C631 1.385 . S
C628 H603 0.951 . S
C628 C626 1.388 . S
C628 C629 1.367 . S
C629 C628 1.367 . S
C629 C630 1.414 1_554 S
C629 C632 1.498 1_554 S
C630 H604 0.951 . S
C630 C629 1.414 1_556 S
C630 C631 1.374 1_556 S
C631 H605 0.950 . S
C631 C627 1.385 . S
C631 C630 1.374 1_554 S
C632 C629 1.498 1_556 S
C632 C633 1.358 1_556 S
C632 C634 1.404 . S
C633 H606 0.950 . S
C633 C619 1.377 . S
C633 C632 1.358 1_554 S
C634 C618 1.377 . S
C634 C632 1.404 . S
C634 C635 1.524 . S
C635 C634 1.524 . S
C635 C636 1.397 . S
C635 C640 1.363 . S
C636 H607 0.950 . S
C636 C635 1.397 . S
C636 C637 1.334 . S
C637 H608 0.950 . S
C637 C636 1.334 . S
C637 C638 1.287 . S
C638 C637 1.287 . S
C638 C639 1.524 . S
C638 H641 0.999 . S
C639 H609 0.950 . S
C639 C638 1.524 . S
C639 C640 1.415 . S
C640 H610 0.950 . S
C640 C635 1.363 . S
C640 C639 1.415 . S
H641 C638 0.999 . S
H642 C623 0.913 . S
H643 C661 0.951 . S
H644 C663 0.951 . S
H645 C665 0.950 . S
H646 C666 0.950 . S
H647 C668 0.950 . S
H648 C671 0.950 . S
H649 C672 0.950 . S
H650 C674 0.950 . S
H651 C675 0.950 . S
H652 C676 0.951 . S
H653 C678 0.951 . S
H654 C680 0.950 . S
H655 C681 0.950 . S
H656 C683 0.950 . S
H657 C686 0.950 . S
H658 C687 0.950 . S
H659 C689 0.950 . S
H660 C690 0.950 . S
C661 H643 0.951 . S
C661 C662 1.366 . S
C661 C663 1.388 . S
C662 C661 1.366 . S
C662 C666 1.385 1_554 S
C663 H644 0.951 . S
C663 C661 1.388 . S
C663 C664 1.366 . S
C664 C663 1.366 . S
C664 C665 1.414 1_554 S
C664 C667 1.499 . S
C665 H645 0.950 . S
C665 C664 1.414 1_556 S
C665 C666 1.374 . S
C666 H646 0.950 . S
C666 C662 1.385 1_556 S
C666 C665 1.374 . S
C667 C664 1.499 . S
C667 C668 1.373 1_554 S
C667 C669 1.389 . S
C668 H647 0.950 . S
C668 C667 1.373 1_556 S
C668 C684 1.377 . S
C669 C667 1.389 . S
C669 C670 1.524 . S
C669 C683 1.377 . S
C670 C669 1.524 . S
C670 C671 1.397 . S
C670 C675 1.363 . S
C671 H648 0.950 . S
C671 C670 1.397 . S
C671 C672 1.334 . S
C672 H649 0.950 . S
C672 C671 1.334 . S
C672 C673 1.287 . S
C673 C672 1.287 . S
C673 C674 1.524 . S
C673 H692 0.913 . S
C674 H650 0.950 . S
C674 C673 1.524 . S
C674 C675 1.415 . S
C675 H651 0.950 . S
C675 C670 1.363 . S
C675 C674 1.415 . S
C676 H652 0.951 . S
C676 C677 1.366 1_556 S
C676 C678 1.388 . S
C677 C676 1.366 1_554 S
C677 C681 1.385 . S
C678 H653 0.951 . S
C678 C676 1.388 . S
C678 C679 1.366 1_556 S
C679 C678 1.366 1_554 S
C679 C680 1.414 . S
C679 C682 1.499 . S
C680 H654 0.950 . S
C680 C679 1.414 . S
C680 C681 1.374 . S
C681 H655 0.950 . S
C681 C677 1.385 . S
C681 C680 1.374 . S
C682 C679 1.499 . S
C682 C683 1.373 . S
C682 C684 1.389 1_554 S
C683 H656 0.950 . S
C683 C669 1.377 . S
C683 C682 1.373 . S
C684 C668 1.377 . S
C684 C682 1.389 1_556 S
C684 C685 1.524 . S
C685 C684 1.524 . S
C685 C686 1.397 . S
C685 C690 1.363 . S
C686 H657 0.950 . S
C686 C685 1.397 . S
C686 C687 1.334 . S
C687 H658 0.950 . S
C687 C686 1.334 . S
C687 C688 1.287 . S
C688 C687 1.287 . S
C688 C689 1.524 . S
C688 H691 0.999 . S
C689 H659 0.950 . S
C689 C688 1.524 . S
C689 C690 1.415 . S
C690 H660 0.950 . S
C690 C685 1.363 . S
C690 C689 1.415 . S
H691 C688 0.999 . S
H692 C673 0.913 . S
C112 C89 1.048 . S
C127 C24 1.049 . S
C162 C11 1.170 1_565 S
C177 C31 1.183 . S
C212 C1 0.862 . S
C227 C86 0.858 . S
C262 C32 1.131 . S
C277 C2 1.122 . S
C312 C0 1.052 . S
C327 C63 1.052 . S
C362 C55 1.182 . S
C377 C18 1.171 1_545 S
C412 C62 0.857 . S
C427 C27 0.864 . S
C462 C58 1.131 . S
C477 C10 1.127 . S
C512 C80 1.843 . S
C527 C42 1.809 . S
C562 C64 0.993 1_556 S
C577 C33 0.984 1_554 S
C612 C41 0.984 1_556 S
C627 C72 0.992 1_554 S
C662 C73 1.843 . S
C677 C49 1.817 . S
