# Generated by pormake.
# Topology smm, (6)-cn, num edge types: 1
# Building blocks:
#     Node 0, Type 0, BuildingBlock: GEDQOX_clean_sbu_0, # of connection points: 6
#     Node 1, Type 0, BuildingBlock: GEDQOX_clean_sbu_0, # of connection points: 6
#     Node 2, Type 0, BuildingBlock: GEDQOX_clean_sbu_0, # of connection points: 6
#     Node 3, Type 0, BuildingBlock: GEDQOX_clean_sbu_0, # of connection points: 6
#     Node 4, Type 0, BuildingBlock: GEDQOX_clean_sbu_0, # of connection points: 6
#     Node 5, Type 0, BuildingBlock: GEDQOX_clean_sbu_0, # of connection points: 6
#     Node 6, Type 0, BuildingBlock: GEDQOX_clean_sbu_0, # of connection points: 6
#     Node 7, Type 0, BuildingBlock: GEDQOX_clean_sbu_0, # of connection points: 6
#     Node 8, Type 0, BuildingBlock: GEDQOX_clean_sbu_0, # of connection points: 6
#     Edge 9, Type (0, 0), BuildingBlock: XIVTED_clean_linker_0, # of connection points: 2
#     Edge 10, Type (0, 0), BuildingBlock: XIVTED_clean_linker_0, # of connection points: 2
#     Edge 11, Type (0, 0), BuildingBlock: XIVTED_clean_linker_0, # of connection points: 2
#     Edge 12, Type (0, 0), BuildingBlock: XIVTED_clean_linker_0, # of connection points: 2
#     Edge 13, Type (0, 0), BuildingBlock: XIVTED_clean_linker_0, # of connection points: 2
#     Edge 14, Type (0, 0), BuildingBlock: XIVTED_clean_linker_0, # of connection points: 2
#     Edge 15, Type (0, 0), BuildingBlock: XIVTED_clean_linker_0, # of connection points: 2
#     Edge 16, Type (0, 0), BuildingBlock: XIVTED_clean_linker_0, # of connection points: 2
#     Edge 17, Type (0, 0), BuildingBlock: XIVTED_clean_linker_0, # of connection points: 2
#     Edge 18, Type (0, 0), BuildingBlock: XIVTED_clean_linker_0, # of connection points: 2
#     Edge 19, Type (0, 0), BuildingBlock: XIVTED_clean_linker_0, # of connection points: 2
#     Edge 20, Type (0, 0), BuildingBlock: XIVTED_clean_linker_0, # of connection points: 2
#     Edge 21, Type (0, 0), BuildingBlock: XIVTED_clean_linker_0, # of connection points: 2
#     Edge 22, Type (0, 0), BuildingBlock: XIVTED_clean_linker_0, # of connection points: 2
#     Edge 23, Type (0, 0), BuildingBlock: XIVTED_clean_linker_0, # of connection points: 2
#     Edge 24, Type (0, 0), BuildingBlock: XIVTED_clean_linker_0, # of connection points: 2
#     Edge 25, Type (0, 0), BuildingBlock: XIVTED_clean_linker_0, # of connection points: 2
#     Edge 26, Type (0, 0), BuildingBlock: XIVTED_clean_linker_0, # of connection points: 2
#     Edge 27, Type (0, 0), BuildingBlock: XIVTED_clean_linker_0, # of connection points: 2
#     Edge 28, Type (0, 0), BuildingBlock: XIVTED_clean_linker_0, # of connection points: 2
#     Edge 29, Type (0, 0), BuildingBlock: XIVTED_clean_linker_0, # of connection points: 2
#     Edge 30, Type (0, 0), BuildingBlock: XIVTED_clean_linker_0, # of connection points: 2
#     Edge 31, Type (0, 0), BuildingBlock: XIVTED_clean_linker_0, # of connection points: 2
#     Edge 32, Type (0, 0), BuildingBlock: XIVTED_clean_linker_0, # of connection points: 2
#     Edge 33, Type (0, 0), BuildingBlock: XIVTED_clean_linker_0, # of connection points: 2
#     Edge 34, Type (0, 0), BuildingBlock: XIVTED_clean_linker_0, # of connection points: 2
#     Edge 35, Type (0, 0), BuildingBlock: XIVTED_clean_linker_0, # of connection points: 2
# Relax obj value: 0.052
# Max RMSD: 0.131
# Mean RMSD: 0.131
data_MOF--net-smm--node1-GEDQOX_clean_sbu_0--edge1-XIVTED_clean_linker_0
_symmetry_space_group_name_H-M    P1
_symmetry_Int_Tables_number       1
_symmetry_cell_setting            triclinic
loop_
_symmetry_equiv_pos_as_xyz
'x, y, z'
_cell_length_a     71.260346
_cell_length_b     71.397679
_cell_length_c     14.533311
_cell_angle_alpha  89.84344
_cell_angle_beta   90.017013
_cell_angle_gamma 120.32628
loop_
_atom_site_label
_atom_site_type_symbol
_atom_site_fract_x
_atom_site_fract_y
_atom_site_fract_z
_atom_type_partial_charge
Nd0 Nd 0.07096 0.22995 0.01329 0.0
Nd1 Nd 1.02984 0.18689 0.97403 0.0
C2 C 0.10192 0.27004 0.05699 0.0
C3 C 0.11058 0.29216 0.01751 0.0
C4 C 0.13281 0.30755 0.02542 0.0
C5 C 0.14144 0.32833 -0.01349 0.0
C6 C 0.12805 0.33431 0.93861 0.0
C7 C 0.10574 0.31876 0.93075 0.0
C8 C 0.09713 0.29795 0.96942 0.0
C9 C 0.06267 0.22011 0.83067 0.0
C10 C 1.02336 0.22759 0.00959 0.0
C11 C 0.99964 0.14816 0.91217 0.0
C12 C 0.99115 0.12459 0.92868 0.0
C13 C 0.99069 0.11133 0.8564 0.0
C14 C 0.98125 0.08882 0.86867 0.0
C15 C 0.97186 0.07892 0.95354 0.0
C16 C 0.97264 0.09229 0.02626 0.0
C17 C 0.98216 0.1148 0.0141 0.0
C18 C 0.0373 0.19625 0.15694 0.0
C19 C 0.07692 0.18835 0.00254 0.0
O20 O 0.08234 0.2605 0.09227 0.0
O21 O 0.10548 0.25668 0.00929 0.0
O22 O 0.08184 0.22956 0.86627 0.0
O23 O 0.04846 0.21713 0.88939 0.0
O24 O 0.04317 0.23681 0.04471 0.0
O25 O 1.0155 0.20942 0.96154 0.0
O26 O 1.01879 0.15963 0.87365 0.0
O27 O 0.99621 0.15891 0.97619 0.0
O28 O 1.01812 0.18571 0.12093 0.0
O29 O 0.05188 0.19979 0.099 0.0
O30 O 0.0576 0.17886 0.96225 0.0
O31 O 0.08449 0.2073 0.04424 0.0
H32 H 0.14355 0.30347 0.06178 0.0
H33 H 0.15861 0.33982 -0.00478 0.0
H34 H 0.09491 0.32255 0.89342 0.0
H35 H 0.07997 0.28633 0.96121 0.0
H36 H 0.99728 0.11833 0.7896 0.0
H37 H 0.98079 0.07911 0.81068 0.0
H38 H 0.9659 0.08538 0.09299 0.0
H39 H 0.98222 0.12446 0.07153 0.0
Nd40 Nd 0.85597 0.86781 0.02557 0.0
Nd41 Nd 0.8988 0.86942 -0.01457 0.0
C42 C 0.81605 0.85895 0.07081 0.0
C43 C 0.7938 0.84577 0.03194 0.0
C44 C 0.77807 0.85165 0.04919 0.0
C45 C 0.75714 0.83977 0.01113 0.0
C46 C 0.75134 0.82162 0.95466 0.0
C47 C 0.76723 0.81579 0.93756 0.0
C48 C 0.78819 0.82774 0.97549 0.0
C49 C 0.86549 0.86889 0.84271 0.0
C50 C 0.85763 0.82236 0.026 0.0
C51 C 0.93712 0.87718 0.92121 0.0
C52 C 0.96085 0.89204 0.93381 0.0
C53 C 0.97506 0.88417 0.91802 0.0
C54 C 0.99752 0.89748 0.93117 0.0
C55 C 1.00646 0.91911 0.9606 0.0
C56 C 0.99213 0.92703 0.97591 0.0
C57 C 0.96958 0.91363 0.96296 0.0
C58 C 0.88972 0.86796 0.16858 0.0
C59 C 0.89808 0.91534 0.01111 0.0
O60 O 0.82523 0.84853 0.10459 0.0
O61 O 0.82968 0.876 0.02336 0.0
O62 O 0.85623 0.87871 0.87799 0.0
O63 O 0.86841 0.85773 0.90195 0.0
O64 O 0.84875 0.83323 0.06005 0.0
O65 O 0.87577 0.83236 0.97697 0.0
O66 O 0.92574 0.88488 0.88309 0.0
O67 O 0.92678 0.86383 -0.01116 0.0
O68 O 0.90006 0.8592 0.1328 0.0
O69 O 0.88627 0.87895 0.11017 0.0
O70 O 0.90732 0.90531 0.97146 0.0
O71 O 0.87916 0.90413 0.05399 0.0
H72 H 0.782 0.86552 0.09222 0.0
H73 H 0.7454 0.84467 0.02713 0.0
H74 H 0.76361 0.80217 0.89354 0.0
H75 H 0.80007 0.82296 0.96019 0.0
H76 H 0.96875 0.8676 0.89546 0.0
H77 H 1.00791 0.89082 0.9171 0.0
H78 H 0.9983 0.94349 -0.00054 0.0
H79 H 0.95896 0.92007 0.97632 0.0
Nd80 Nd 0.21805 1.01576 0.03679 0.0
Nd81 Nd 0.21638 0.05696 -0.0037 0.0
C82 C 0.22693 0.98487 0.08261 0.0
C83 C 0.24037 0.97611 0.04488 0.0
C84 C 0.23456 0.9545 0.06285 0.0
C85 C 0.24666 0.94572 0.02584 0.0
C86 C 0.26497 0.95833 0.9697 0.0
C87 C 0.27073 0.98004 0.95192 0.0
C88 C 0.25856 0.98879 -0.01118 0.0
C89 C 0.21678 0.02418 0.85397 0.0
C90 C 0.26367 0.06326 0.03458 0.0
C91 C 0.20884 0.08751 0.93147 0.0
C92 C 0.19438 0.09677 0.94319 0.0
C93 C 0.17187 0.08375 0.95829 0.0
C94 C 0.15884 0.09326 0.96873 0.0
C95 C 0.168 0.116 0.96477 0.0
C96 C 0.19057 0.12886 0.94969 0.0
C97 C 0.20352 0.11938 0.93908 0.0
C98 C 0.21809 0.04939 0.17939 0.0
C99 C 0.17033 1.00985 0.02442 0.0
O100 O 0.23716 1.00447 0.11692 0.0
O101 O 0.21005 0.98132 0.03398 0.0
O102 O 0.20703 1.00501 0.88958 0.0
O103 O 0.22799 0.03836 0.91284 0.0
O104 O 0.25285 0.04339 0.06881 0.0
O105 O 0.25355 0.07134 -0.01336 0.0
O106 O 0.20084 0.06828 0.89434 0.0
O107 O 0.2223 0.09066 -0.00147 0.0
O108 O 0.22675 0.06856 0.14332 0.0
O109 O 0.20703 0.03485 0.12137 0.0
O110 O 0.18027 0.02928 -0.01507 0.0
O111 O 0.18166 1.00223 0.06603 0.0
H112 H 0.22057 0.94435 0.10563 0.0
H113 H 0.2418 0.92908 0.04239 0.0
H114 H 0.28447 0.99024 0.90814 0.0
H115 H 0.26329 1.00545 0.973 0.0
H116 H 0.16437 0.06627 0.96232 0.0
H117 H 0.1416 0.08277 -0.01881 0.0
H118 H 0.19827 0.14634 0.94455 0.0
H119 H 0.2208 0.12979 0.92722 0.0
Nd120 Nd 0.73581 0.56423 0.34901 0.0
Nd121 Nd 0.69539 0.52042 0.31015 0.0
C122 C 0.76583 0.60478 0.39107 0.0
C123 C 0.77524 0.62666 0.34739 0.0
C124 C 0.77417 0.6434 0.39328 0.0
C125 C 0.78311 0.66415 0.35381 0.0
C126 C 0.7935 0.66883 0.26731 0.0
C127 C 0.79461 0.65204 0.22155 0.0
C128 C 0.78557 0.63125 0.26086 0.0
C129 C 0.72771 0.55414 0.16647 0.0
C130 C 0.68757 0.56028 0.34799 0.0
C131 C 0.666 0.48155 0.24629 0.0
C132 C 0.65818 0.45796 0.25856 0.0
C133 C 0.65756 0.44546 0.18283 0.0
C134 C 0.64853 0.42291 0.19102 0.0
C135 C 0.63972 0.41217 0.27519 0.0
C136 C 0.6407 0.4248 0.35138 0.0
C137 C 0.64981 0.44735 0.34327 0.0
C138 C 0.7025 0.53012 0.49281 0.0
C139 C 0.74317 0.52344 0.34255 0.0
O140 O 0.74573 0.59558 0.42001 0.0
O141 O 0.77024 0.59088 0.35303 0.0
O142 O 0.74689 0.56422 0.20192 0.0
O143 O 0.71338 0.55073 0.22526 0.0
O144 O 0.70736 0.56979 0.38334 0.0
O145 O 0.68008 0.54221 0.2994 0.0
O146 O 0.6849 0.49379 0.20685 0.0
O147 O 0.66236 0.49147 0.31329 0.0
O148 O 0.68335 0.51893 0.4568 0.0
O149 O 0.71724 0.53406 0.43513 0.0
O150 O 0.72383 0.5132 0.30234 0.0
O151 O 0.7502 0.5425 0.38241 0.0
H152 H 0.76646 0.64044 0.46016 0.0
H153 H 0.78215 0.67665 0.39197 0.0
H154 H 0.8022 0.65485 0.15448 0.0
H155 H 0.78666 0.61877 0.22315 0.0
H156 H 0.66365 0.45309 0.11648 0.0
H157 H 0.6479 0.41381 0.13046 0.0
H158 H 0.63442 0.41725 0.41766 0.0
H159 H 0.65 0.45641 0.40325 0.0
Nd160 Nd 0.52391 0.20025 0.3286 0.0
Nd161 Nd 0.56718 0.20281 0.28831 0.0
C162 C 0.48384 0.19085 0.37373 0.0
C163 C 0.46158 0.17767 0.33484 0.0
C164 C 0.45507 0.15812 0.288 0.0
C165 C 0.43408 0.14616 0.25037 0.0
C166 C 0.41908 0.15348 0.25806 0.0
C167 C 0.42579 0.17314 0.30476 0.0
C168 C 0.44673 0.18504 0.3426 0.0
C169 C 0.53364 0.20174 0.14568 0.0
C170 C 0.52645 0.15528 0.32783 0.0
C171 C 0.60585 0.21156 0.22444 0.0
C172 C 0.62966 0.22683 0.23739 0.0
C173 C 0.6419 0.24209 0.16874 0.0
C174 C 0.66457 0.25532 0.17677 0.0
C175 C 0.67572 0.25355 0.25343 0.0
C176 C 0.6634 0.23841 0.32254 0.0
C177 C 0.64074 0.22525 0.31466 0.0
C178 C 0.55795 0.20094 0.47151 0.0
C179 C 0.56552 0.2482 0.31647 0.0
O180 O 0.49316 0.1805 0.40689 0.0
O181 O 0.49739 0.20811 0.32714 0.0
O182 O 0.52407 0.21124 0.18113 0.0
O183 O 0.53676 0.1907 0.20475 0.0
O184 O 0.5172 0.16577 0.36222 0.0
O185 O 0.54463 0.16566 0.27914 0.0
O186 O 0.59418 0.21887 0.18572 0.0
O187 O 0.59537 0.19771 0.29048 0.0
O188 O 0.56865 0.19257 0.43557 0.0
O189 O 0.55425 0.21177 0.41328 0.0
O190 O 0.57509 0.2386 0.27584 0.0
O191 O 0.54663 0.23655 0.35907 0.0
H192 H 0.46624 0.15213 0.27999 0.0
H193 H 0.42973 0.1313 0.21398 0.0
H194 H 0.41474 0.17924 0.31339 0.0
H195 H 0.45135 0.20008 0.37811 0.0
H196 H 0.63397 0.24353 0.10774 0.0
H197 H 0.67342 0.26654 0.12149 0.0
H198 H 0.67125 0.23673 0.38322 0.0
H199 H 0.63198 0.21363 0.36887 0.0
Nd200 Nd 0.88959 0.35338 0.32482 0.0
Nd201 Nd 0.88268 0.39255 0.32911 0.0
C202 C 0.89223 0.31746 0.32492 0.0
C203 C 0.90655 0.30945 0.28814 0.0
C204 C 0.92479 0.31223 0.3375 0.0
C205 C 0.93759 0.30386 0.30408 0.0
C206 C 0.93251 0.29232 0.22043 0.0
C207 C 0.91424 0.28955 0.17126 0.0
C208 C 0.90145 0.29791 0.20467 0.0
C209 C 0.89901 0.37661 0.16358 0.0
C210 C 0.93173 0.39966 0.37389 0.0
C211 C 0.88086 0.42865 0.30633 0.0
C212 C 0.86546 0.43689 0.30778 0.0
C213 C 0.87319 0.45884 0.28799 0.0
C214 C 0.85936 0.46745 0.29292 0.0
C215 C 0.83734 0.45432 0.31789 0.0
C216 C 0.82955 0.43216 0.33657 0.0
C217 C 0.84348 0.42356 0.33181 0.0
C218 C 0.87325 0.36994 0.49159 0.0
C219 C 0.83977 0.34549 0.30746 0.0
O220 O 0.89955 0.33161 0.39206 0.0
O221 O 0.88089 0.32138 0.26524 0.0
O222 O 0.91076 0.36914 0.1973 0.0
O223 O 0.88305 0.37172 0.21514 0.0
O224 O 0.92256 0.37842 0.38343 0.0
O225 O 0.92051 0.4086 0.34222 0.0
O226 O 0.87938 0.41596 0.23837 0.0
O227 O 0.88489 0.4225 0.38504 0.0
O228 O 0.86204 0.37821 0.45878 0.0
O229 O 0.88901 0.37417 0.4394 0.0
O230 O 0.84854 0.36626 0.28635 0.0
O231 O 0.85191 0.33747 0.33763 0.0
H232 H 0.92911 0.32073 0.40263 0.0
H233 H 0.95126 0.30609 0.34504 0.0
H234 H 0.90985 0.28105 0.10617 0.0
H235 H 0.88744 0.29522 0.16501 0.0
H236 H 0.89008 0.46944 0.26925 0.0
H237 H 0.86595 0.48443 0.27641 0.0
H238 H 0.81279 0.42154 0.35682 0.0
H239 H 0.83715 0.40658 0.34786 0.0
Nd240 Nd 0.40052 0.89874 0.6813 0.0
Nd241 Nd 0.36114 0.85231 0.68289 0.0
C242 C 0.43693 0.9373 0.68412 0.0
C243 C 0.44516 0.95934 0.645 0.0
C244 C 0.46735 0.97489 0.65153 0.0
C245 C 0.47566 0.99558 0.61218 0.0
C246 C 0.46197 1.00129 0.56509 0.0
C247 C 0.43965 0.98559 0.55896 0.0
C248 C 0.43137 0.96486 0.59826 0.0
C249 C 0.37804 0.88521 0.51871 0.0
C250 C 0.35397 0.89411 0.72674 0.0
C251 C 0.3251 0.81423 0.65627 0.0
C252 C 0.3169 0.79057 0.65876 0.0
C253 C 0.33085 0.78221 0.67133 0.0
C254 C 0.32242 0.75966 0.67604 0.0
C255 C 0.29986 0.74497 0.66873 0.0
C256 C 0.28608 0.75357 0.65546 0.0
C257 C 0.2945 0.77604 0.65063 0.0
C258 C 0.38288 0.86519 0.84697 0.0
C259 C 0.40836 0.85683 0.66819 0.0
O260 O 0.4219 0.93073 0.74781 0.0
O261 O 0.43322 0.922 0.62535 0.0
O262 O 0.38558 0.90446 0.55227 0.0
O263 O 0.38264 0.87402 0.5706 0.0
O264 O 0.37521 0.90634 0.73799 0.0
O265 O 0.34515 0.87398 0.69444 0.0
O266 O 0.33857 0.8256 0.59007 0.0
O267 O 0.33039 0.82438 0.73511 0.0
O268 O 0.37449 0.84566 0.81434 0.0
O269 O 0.37904 0.87687 0.79424 0.0
O270 O 0.38768 0.84462 0.64537 0.0
O271 O 0.41626 0.87708 0.69726 0.0
H272 H 0.47834 0.971 0.68699 0.0
H273 H 0.49283 1.00719 0.61978 0.0
H274 H 0.42858 0.98917 0.52243 0.0
H275 H 0.41421 0.95308 0.59153 0.0
H276 H 0.3482 0.79312 0.67826 0.0
H277 H 0.33357 0.75376 0.68717 0.0
H278 H 0.26871 0.74293 0.64786 0.0
H279 H 0.28343 0.78209 0.64079 0.0
Nd280 Nd 0.18959 0.53303 0.70159 0.0
Nd281 Nd 0.23325 0.53624 0.66083 0.0
C282 C 0.1494 0.52332 0.74655 0.0
C283 C 0.12728 0.51041 0.70621 0.0
C284 C 0.12189 0.49285 0.64716 0.0
C285 C 0.10101 0.4811 0.60832 0.0
C286 C 0.085 0.48667 0.6271 0.0
C287 C 0.0906 0.50437 0.68606 0.0
C288 C 0.11144 0.51606 0.72503 0.0
C289 C 0.19935 0.53458 0.51855 0.0
C290 C 0.19277 0.4885 0.7029 0.0
C291 C 0.2713 0.54429 0.59187 0.0
C292 C 0.29518 0.55906 0.59793 0.0
C293 C 0.30895 0.55138 0.57032 0.0
C294 C 0.33159 0.56451 0.5771 0.0
C295 C 0.34117 0.58578 0.61192 0.0
C296 C 0.32728 0.59353 0.63898 0.0
C297 C 0.30452 0.58029 0.63229 0.0
C298 C 0.22395 0.53403 0.84409 0.0
C299 C 0.23108 0.58129 0.69268 0.0
O300 O 0.15861 0.51268 0.77753 0.0
O301 O 0.16307 0.5409 0.70211 0.0
O302 O 0.18956 0.54387 0.55388 0.0
O303 O 0.20268 0.52374 0.57787 0.0
O304 O 0.18333 0.49885 0.73686 0.0
O305 O 0.2109 0.49897 0.65393 0.0
O306 O 0.25947 0.55166 0.55524 0.0
O307 O 0.26182 0.5316 0.66236 0.0
O308 O 0.23509 0.52613 0.80808 0.0
O309 O 0.21999 0.54471 0.786 0.0
O310 O 0.2411 0.57213 0.65201 0.0
O311 O 0.21203 0.56925 0.73363 0.0
H312 H 0.13386 0.48828 0.63062 0.0
H313 H 0.09755 0.46783 0.56238 0.0
H314 H 0.07876 0.50905 0.70334 0.0
H315 H 0.1152 0.52957 0.7701 0.0
H316 H 0.30214 0.53508 0.54348 0.0
H317 H 0.34159 0.55801 0.55399 0.0
H318 H 0.33395 0.6097 0.66694 0.0
H319 H 0.29425 0.58657 0.65459 0.0
Nd320 Nd 0.55519 0.68768 0.65882 0.0
Nd321 Nd 0.54877 0.72726 0.65999 0.0
C322 C 0.55741 0.65153 0.66103 0.0
C323 C 0.57144 0.64315 0.62439 0.0
C324 C 0.59021 0.64661 0.67135 0.0
C325 C 0.60276 0.63795 0.63803 0.0
C326 C 0.59692 0.62545 0.55683 0.0
C327 C 0.57809 0.62198 0.51011 0.0
C328 C 0.56555 0.63063 0.54347 0.0
C329 C 0.56449 0.71034 0.49622 0.0
C330 C 0.59769 0.734 0.70514 0.0
C331 C 0.54743 0.76349 0.63279 0.0
C332 C 0.53226 0.77201 0.63237 0.0
C333 C 0.53942 0.79293 0.59792 0.0
C334 C 0.52597 0.802 0.60139 0.0
C335 C 0.50492 0.79038 0.63954 0.0
C336 C 0.49765 0.76919 0.6727 0.0
C337 C 0.51119 0.76013 0.66933 0.0
C338 C 0.53951 0.70535 0.82403 0.0
C339 C 0.50544 0.68028 0.64424 0.0
O340 O 0.56504 0.66594 0.72714 0.0
O341 O 0.54599 0.65536 0.60136 0.0
O342 O 0.57614 0.70278 0.53014 0.0
O343 O 0.54864 0.70576 0.54802 0.0
O344 O 0.58839 0.71277 0.71587 0.0
O345 O 0.58657 0.74299 0.67286 0.0
O346 O 0.54579 0.75042 0.56619 0.0
O347 O 0.55137 0.75763 0.71243 0.0
O348 O 0.52851 0.71384 0.79115 0.0
O349 O 0.5551 0.70915 0.77146 0.0
O350 O 0.51428 0.70097 0.62141 0.0
O351 O 0.51757 0.67218 0.67371 0.0
H352 H 0.59515 0.65589 0.73452 0.0
H353 H 0.61686 0.64075 0.67717 0.0
H354 H 0.5731 0.61272 0.44693 0.0
H355 H 0.55111 0.6274 0.50577 0.0
H356 H 0.5556 0.80241 0.56902 0.0
H357 H 0.53209 0.81815 0.57361 0.0
H358 H 0.48168 0.75976 0.70331 0.0
H359 H 0.50531 0.74398 0.69672 0.0
H360 H 0.10944 0.36002 0.93213 0.0
H361 H 0.21034 0.46181 0.68172 0.0
H362 H 0.16776 0.35999 0.85265 0.0
H363 H 0.15294 0.46137 0.77934 0.0
H364 H 0.19459 0.424 0.73435 0.0
H365 H 0.12463 0.39645 0.86776 0.0
C366 C 0.12538 0.36754 0.90052 0.0
C367 C 0.13723 0.35669 0.89817 0.0
C368 C 0.18543 0.43219 0.74375 0.0
C369 C 0.15501 0.39895 0.82437 0.0
C370 C 0.19438 0.45377 0.71323 0.0
C371 C 0.18305 0.46496 0.72609 0.0
C372 C 0.16494 0.42163 0.78718 0.0
C373 C 0.16243 0.4536 0.76808 0.0
C374 C 0.13414 0.38851 0.8641 0.0
C375 C 0.15804 0.36769 0.85739 0.0
N376 N 0.15415 0.43274 0.79704 0.0
N377 N 0.16622 0.38812 0.82223 0.0
H378 H 0.7263 0.77735 0.92985 0.0
H379 H 0.62288 0.77887 0.71495 0.0
H380 H 0.72469 0.83636 0.88749 0.0
H381 H 0.62558 0.72068 0.76518 0.0
H382 H 0.6603 0.80048 0.77283 0.0
H383 H 0.6898 0.75672 0.86504 0.0
C384 C 0.71841 0.78606 0.90637 0.0
C385 C 0.72885 0.80877 0.91446 0.0
C386 C 0.65269 0.78298 0.77084 0.0
C387 C 0.68648 0.78495 0.84028 0.0
C388 C 0.63131 0.77061 0.73747 0.0
C389 C 0.62087 0.74782 0.73494 0.0
C390 C 0.66384 0.77255 0.80196 0.0
C391 C 0.63275 0.73814 0.76566 0.0
C392 C 0.69739 0.77419 0.86971 0.0
C393 C 0.71735 0.81891 0.88402 0.0
N394 N 0.65343 0.75048 0.79775 0.0
N395 N 0.69689 0.80699 0.8484 0.0
H396 H 0.3094 0.97825 0.94571 0.0
H397 H 0.30897 0.87373 0.73576 0.0
H398 H 0.25056 0.91684 0.90404 0.0
H399 H 0.36697 0.93536 0.78561 0.0
H400 H 0.28704 0.88909 0.7921 0.0
H401 H 0.33036 0.9628 0.88257 0.0
C402 C 0.30079 0.96156 0.92274 0.0
C403 C 0.27803 0.94895 0.93053 0.0
C404 C 0.30457 0.89925 0.79038 0.0
C405 C 0.30225 0.93088 0.85828 0.0
C406 C 0.31713 0.89049 0.75788 0.0
C407 C 0.33996 0.90318 0.75571 0.0
C408 C 0.31485 0.9209 0.82095 0.0
C409 C 0.34949 0.92482 0.78588 0.0
C410 C 0.31286 0.95266 0.88704 0.0
C411 C 0.26804 0.92721 0.90078 0.0
N412 N 0.33697 0.9329 0.8171 0.0
N413 N 0.28016 0.91893 0.86609 0.0
H414 H 0.39439 0.16838 0.17217 0.0
H415 H 0.29009 0.04953 0.10718 0.0
H416 H 0.392 0.10904 0.25345 0.0
H417 H 0.29149 0.10766 0.01411 0.0
H418 H 0.32776 0.07137 0.15633 0.0
H419 H 0.35734 0.14695 0.11168 0.0
C420 C 0.38612 0.15087 0.17773 0.0
C421 C 0.39655 0.14061 0.21853 0.0
C422 C 0.31996 0.07943 0.12478 0.0
C423 C 0.3539 0.11585 0.14808 0.0
C424 C 0.29833 0.06692 0.0964 0.0
C425 C 0.28739 0.07669 0.05632 0.0
C426 C 0.33103 0.10208 0.11388 0.0
C427 C 0.29918 0.09935 0.04427 0.0
C428 C 0.36495 0.13862 0.14249 0.0
C429 C 0.38493 0.11779 0.22188 0.0
N430 N 0.32027 0.11127 0.07339 0.0
N431 N 0.36435 0.10629 0.18763 0.0
H432 H 0.97699 0.30993 0.23139 0.0
H433 H 0.97949 0.21123 0.97614 0.0
H434 H 0.91933 0.25377 0.12767 0.0
H435 H 0.03585 0.26656 0.09276 0.0
H436 H 0.95732 0.22704 0.02335 0.0
H437 H 0.99873 0.29464 0.17565 0.0
C438 C 0.9688 0.29433 0.1974 0.0
C439 C 0.94612 0.28319 0.18497 0.0
C440 C 0.97456 0.23575 0.03818 0.0
C441 C 0.97126 0.26555 0.11912 0.0
C442 C 0.98727 0.22676 0.01083 0.0
C443 C 1.00965 0.23748 0.03042 0.0
C444 C 0.98425 0.25567 0.08544 0.0
C445 C 1.0187 0.25755 0.07618 0.0
C446 C 0.98132 0.28564 0.16487 0.0
C447 C 0.93672 0.26318 0.13828 0.0
N448 N 1.00603 0.26589 0.1021 0.0
N449 N 0.94926 0.25502 0.10744 0.0
H450 H 0.81778 0.79628 0.104 0.0
H451 H 0.83164 0.69213 0.16788 0.0
H452 H 0.87398 0.7946 0.00487 0.0
H453 H 0.77709 0.69646 0.26967 0.0
H454 H 0.8468 0.72858 0.10138 0.0
H455 H 0.80217 0.759 0.15725 0.0
C456 C 0.82686 0.78806 0.09276 0.0
C457 C 0.84736 0.79881 0.04985 0.0
C458 C 0.8315 0.72153 0.13813 0.0
C459 C 0.82938 0.75563 0.11209 0.0
C460 C 0.82274 0.70062 0.17587 0.0
C461 C 0.803 0.69104 0.22512 0.0
C462 C 0.82046 0.73306 0.14909 0.0
C463 C 0.79247 0.70314 0.23384 0.0
C464 C 0.81787 0.76666 0.12354 0.0
C465 C 0.85813 0.78704 0.03724 0.0
N466 N 0.8013 0.72337 0.19643 0.0
N467 N 0.84909 0.76617 0.06863 0.0
H468 H 0.06024 0.44257 0.59764 0.0
H469 H 0.95663 0.44451 0.38759 0.0
H470 H 0.05825 0.50159 0.56313 0.0
H471 H 0.95978 0.38634 0.43111 0.0
H472 H 0.994 0.46603 0.44634 0.0
H473 H 1.02383 0.42215 0.53186 0.0
C474 C 0.05228 0.45133 0.57566 0.0
C475 C 0.06259 0.47397 0.58622 0.0
C476 C 0.9865 0.44855 0.44268 0.0
C477 C 1.02032 0.4504 0.51095 0.0
C478 C 0.96515 0.43624 0.4088 0.0
C479 C 0.95486 0.41349 0.40417 0.0
C480 C 0.99774 0.4381 0.47214 0.0
C481 C 0.96684 0.40378 0.43327 0.0
C482 C 1.03133 0.43958 0.53845 0.0
C483 C 0.05101 0.48418 0.55767 0.0
N484 N 0.98747 0.41606 0.46586 0.0
N485 N 1.0306 0.47237 0.52145 0.0
H486 H 0.6415 0.6435 0.56097 0.0
H487 H 0.64338 0.54319 0.31774 0.0
H488 H 0.58325 0.586 0.47055 0.0
H489 H 0.69991 0.59951 0.42757 0.0
H490 H 0.6211 0.559 0.36431 0.0
H491 H 0.663 0.62794 0.50573 0.0
C492 C 0.63313 0.62754 0.53006 0.0
C493 C 0.61035 0.61612 0.52131 0.0
C494 C 0.6384 0.5679 0.37779 0.0
C495 C 0.63522 0.59813 0.45588 0.0
C496 C 0.65117 0.55891 0.35081 0.0
C497 C 0.67363 0.56993 0.36871 0.0
C498 C 0.64815 0.58812 0.42279 0.0
C499 C 0.6827 0.59025 0.41239 0.0
C500 C 0.64551 0.61869 0.49777 0.0
C501 C 0.60071 0.59564 0.47829 0.0
N502 N 0.67 0.59858 0.43783 0.0
N503 N 0.61313 0.58733 0.44756 0.0
H504 H 0.54375 0.12843 0.3057 0.0
H505 H 0.44307 0.02679 0.55784 0.0
H506 H 0.48654 0.12824 0.40415 0.0
H507 H 0.50139 0.02689 0.47715 0.0
H508 H 0.45805 0.06312 0.49249 0.0
H509 H 0.5279 0.09061 0.35799 0.0
C510 C 0.52779 0.12043 0.3373 0.0
C511 C 0.51656 0.1317 0.35054 0.0
C512 C 0.4676 0.05522 0.48882 0.0
C513 C 0.49832 0.08834 0.41131 0.0
C514 C 0.45896 0.03431 0.52578 0.0
C515 C 0.4709 0.02353 0.52354 0.0
C516 C 0.48843 0.06568 0.44866 0.0
C517 C 0.49162 0.03453 0.482 0.0
C518 C 0.51878 0.09884 0.36763 0.0
C519 C 0.49595 0.1204 0.39264 0.0
N520 N 0.49969 0.0549 0.44642 0.0
N521 N 0.4876 0.09951 0.42148 0.0
H522 H 0.17815 0.15418 0.05318 0.0
H523 H 0.06591 0.14903 0.92547 0.0
H524 H 0.12635 0.10171 0.90105 0.0
H525 H 0.11774 0.20207 0.07501 0.0
H526 H 0.08749 0.13123 0.91935 0.0
H527 H 0.15617 0.17155 0.06458 0.0
C528 C 0.1622 0.14629 0.02174 0.0
C529 C 0.15427 0.12638 0.97552 0.0
C530 C 0.09418 0.14673 0.95371 0.0
C531 C 0.12873 0.1463 -0.01058 0.0
C532 C 0.08182 0.15697 0.95734 0.0
C533 C 0.08993 0.17719 0.00086 0.0
C534 C 0.11495 0.15668 -0.00622 0.0
C535 C 0.11073 0.18653 0.04072 0.0
C536 C 0.14958 0.15622 0.02882 0.0
C537 C 0.1332 0.11688 0.93812 0.0
N538 N 0.12248 0.17625 0.03609 0.0
N539 N 0.12128 0.12692 0.9456 0.0
H540 H 0.93731 0.94332 0.93048 0.0
H541 H 0.93418 0.05156 0.04839 0.0
H542 H 0.88484 0.94282 0.0808 0.0
H543 H 0.98453 0.05088 0.88619 0.0
H544 H 0.91655 1.01214 0.06607 0.0
H545 H 0.95528 0.98276 0.91872 0.0
C546 C 0.92953 0.95146 0.96136 0.0
C547 C 0.90942 0.93955 0.00671 0.0
C548 C 0.93147 1.02061 0.02669 0.0
C549 C 0.93011 0.98512 -0.0069 0.0
C550 C 0.94166 0.0432 0.01698 0.0
C551 C 0.96098 0.05476 0.96567 0.0
C552 C 0.94061 1.00929 -0.01483 0.0
C553 C 0.96958 0.04279 0.92541 0.0
C554 C 0.93985 0.97408 0.95443 0.0
C555 C 0.90029 0.95121 0.04521 0.0
N556 N 0.95939 1.02083 0.93611 0.0
N557 N 0.91067 0.97328 0.03745 0.0
H558 H 0.03303 0.96265 0.92016 0.0
H559 H 0.14341 0.96797 0.08605 0.0
H560 H 0.0352 0.90786 0.03361 0.0
H561 H 0.14161 1.02135 0.9551 0.0
H562 H 0.1037 0.94628 0.07449 0.0
H563 H 0.07246 0.9849 0.94012 0.0
C564 C 0.04171 0.95528 0.9499 0.0
C565 C 1.03057 0.9332 0.97479 0.0
C566 C 0.11198 0.96276 0.04848 0.0
C567 C 0.07608 0.95873 -0.00274 0.0
C568 C 0.13472 0.9752 0.05526 0.0
C569 C 0.14604 0.9966 0.02145 0.0
C570 C 0.10032 0.9717 0.00779 0.0
C571 C 0.13372 1.00497 -0.01795 0.0
C572 C 0.06432 0.96801 0.96076 0.0
C573 C 0.04296 0.92465 0.01191 0.0
N574 N 0.11165 0.99255 0.9763 0.0
N575 N 0.06492 0.93737 0.02192 0.0
H576 H 0.78476 0.53991 0.40977 0.0
H577 H 0.79414 0.43602 0.26796 0.0
H578 H 0.73315 0.48328 0.27704 0.0
H579 H 0.84709 0.49446 0.38381 0.0
H580 H 0.77107 0.45229 0.27726 0.0
H581 H 0.80725 0.52293 0.4066 0.0
C582 C 0.77809 0.52388 0.38022 0.0
C583 C 0.75694 0.51309 0.34357 0.0
C584 C 0.78774 0.46157 0.30067 0.0
C585 C 0.78278 0.49344 0.33964 0.0
C586 C 0.80093 0.45221 0.29592 0.0
C587 C 0.82275 0.46383 0.32474 0.0
C588 C 0.79627 0.48275 0.33496 0.0
C589 C 0.83055 0.48491 0.35926 0.0
C590 C 0.79099 0.51419 0.37829 0.0
C591 C 0.74932 0.49231 0.30606 0.0
N592 N 0.81739 0.49362 0.36337 0.0
N593 N 0.76218 0.48322 0.30508 0.0
H594 H 0.6525 0.38525 0.19634 0.0
H595 H 0.55211 0.27465 0.39524 0.0
H596 H 0.60278 0.38352 0.37158 0.0
H597 H 0.60396 0.27722 0.23217 0.0
H598 H 0.57017 0.31433 0.38717 0.0
H599 H 0.63469 0.34572 0.20765 0.0
C600 C 0.6378 0.37661 0.23696 0.0
C601 C 0.62922 0.38794 0.28298 0.0
C602 C 0.57762 0.30622 0.35331 0.0
C603 C 0.60866 0.34232 0.2968 0.0
C604 C 0.5673 0.2835 0.35791 0.0
C605 C 0.57645 0.27241 0.31439 0.0
C606 C 0.59728 0.31808 0.30456 0.0
C607 C 0.59621 0.28492 0.26696 0.0
C608 C 0.62767 0.35396 0.24382 0.0
C609 C 0.61024 0.37566 0.33573 0.0
N610 N 0.60587 0.30696 0.26322 0.0
N611 N 0.60062 0.35362 0.34091 0.0
H612 H 0.7024 0.29642 0.20391 0.0
H613 H 0.81402 0.30192 0.35044 0.0
H614 H 0.70483 0.24197 0.31972 0.0
H615 H 0.81021 0.35653 0.24589 0.0
H616 H 0.77432 0.27941 0.3373 0.0
H617 H 0.74197 0.31826 0.21567 0.0
C618 C 0.7112 0.28896 0.23139 0.0
C619 C 0.70004 0.2672 0.26083 0.0
C620 C 0.7822 0.29633 0.31722 0.0
C621 C 0.74574 0.29239 0.2753 0.0
C622 C 0.80491 0.30921 0.32463 0.0
C623 C 0.81565 0.33124 0.29933 0.0
C624 C 0.77001 0.30547 0.28404 0.0
C625 C 0.80281 0.33968 0.26638 0.0
C626 C 0.73388 0.30153 0.2386 0.0
C627 C 0.71254 0.2587 0.29722 0.0
N628 N 0.78082 0.32685 0.25974 0.0
N629 N 0.73462 0.27125 0.30323 0.0
H630 H 0.51703 0.83284 0.67865 0.0
H631 H 0.3969 0.81501 0.62397 0.0
H632 H 0.46052 0.77112 0.61391 0.0
H633 H 0.45248 0.87617 0.70272 0.0
H634 H 0.42011 0.79901 0.61788 0.0
H635 H 0.494 0.84912 0.68511 0.0
C636 C 0.49981 0.82267 0.66523 0.0
C637 C 0.49085 0.80047 0.64529 0.0
C638 C 0.42728 0.81593 0.63651 0.0
C639 C 0.46416 0.81918 0.65364 0.0
C640 C 0.41401 0.82516 0.63991 0.0
C641 C 0.42265 0.84709 0.66387 0.0
C642 C 0.44954 0.82863 0.65694 0.0
C643 C 0.445 0.85924 0.68394 0.0
C644 C 0.48662 0.83201 0.66955 0.0
C645 C 0.46826 0.7882 0.63045 0.0
N646 N 0.45762 0.84988 0.67991 0.0
N647 N 0.45579 0.7977 0.63465 0.0
H648 H 0.21577 0.6063 0.76885 0.0
H649 H 0.31664 0.72029 0.60046 0.0
H650 H 0.27043 0.61171 0.61777 0.0
H651 H 0.26178 0.71428 0.75201 0.0
H652 H 0.30061 0.68084 0.60923 0.0
H653 H 0.23281 0.64583 0.76573 0.0
C654 C 0.23138 0.61575 0.73518 0.0
C655 C 0.2416 0.60548 0.69345 0.0
C656 C 0.29209 0.68816 0.64064 0.0
C657 C 0.26131 0.6511 0.68942 0.0
C658 C 0.30131 0.71077 0.63615 0.0
C659 C 0.29059 0.72085 0.67516 0.0
C660 C 0.27194 0.67534 0.6847 0.0
C661 C 0.27057 0.70739 0.71941 0.0
C662 C 0.24112 0.63841 0.73336 0.0
C663 C 0.26186 0.61878 0.65086 0.0
N664 N 0.26196 0.68547 0.72284 0.0
N665 N 0.27099 0.6408 0.64985 0.0
H666 H 0.47563 0.69206 0.5946 0.0
H667 H 0.37082 0.57348 0.66171 0.0
H668 H 0.47966 0.63646 0.68333 0.0
H669 H 0.36737 0.62981 0.58 0.0
H670 H 0.41042 0.59599 0.66921 0.0
H671 H 0.43613 0.66939 0.58836 0.0
C672 C 0.46827 0.67506 0.61272 0.0
C673 C 0.48121 0.66625 0.63952 0.0
C674 C 0.40102 0.60345 0.64973 0.0
C675 C 0.4355 0.63999 0.6325 0.0
C676 C 0.37832 0.59055 0.64487 0.0
C677 C 0.36549 0.59962 0.6197 0.0
C678 C 0.41123 0.62571 0.62918 0.0
C679 C 0.37637 0.62202 0.60061 0.0
C680 C 0.4456 0.66209 0.60921 0.0
C681 C 0.47049 0.64405 0.66225 0.0
N682 N 0.3985 0.6342 0.60545 0.0
N683 N 0.44834 0.63173 0.65817 0.0
H684 H 0.09271 0.22838 0.69909 0.0
H685 H 1.00684 0.18693 0.28827 0.0
H686 H 1.02398 0.2029 0.73892 0.0
H687 H 0.07586 0.21408 0.24935 0.0
H688 H 1.01268 0.1924 0.45365 0.0
H689 H 0.08668 0.22272 0.53416 0.0
C690 C 0.07632 0.22157 0.67284 0.0
C691 C 0.05879 0.21617 0.73201 0.0
C692 C 1.02656 0.19718 0.40907 0.0
C693 C 0.05178 0.20966 0.54381 0.0
C694 C 1.02325 0.19406 0.31481 0.0
C695 C 0.04093 0.2 0.25579 0.0
C696 C 0.0477 0.20629 0.4442 0.0
C697 C 0.06183 0.20925 0.29304 0.0
C698 C 0.0729 0.21836 0.57875 0.0
C699 C 0.03789 0.20733 0.69504 0.0
N700 N 0.06465 0.21209 0.38528 0.0
N701 N 0.03495 0.20436 0.60283 0.0
H702 H 0.85742 0.89066 0.71094 0.0
H703 H 0.89856 0.84657 0.29993 0.0
H704 H 0.88241 0.84733 0.75083 0.0
H705 H 0.87215 0.88873 0.26113 0.0
H706 H 0.89292 0.8467 0.46526 0.0
H707 H 0.86311 0.8904 0.54601 0.0
C708 C 0.86412 0.88107 0.6847 0.0
C709 C 0.86939 0.8689 0.74395 0.0
C710 C 0.88835 0.85592 0.42074 0.0
C711 C 0.87594 0.86854 0.55562 0.0
C712 C 0.89156 0.85586 0.32648 0.0
C713 C 0.88588 0.86776 0.26747 0.0
C714 C 0.87939 0.86796 0.45594 0.0
C715 C 0.87679 0.87942 0.30478 0.0
C716 C 0.86735 0.88093 0.59059 0.0
C717 C 0.87809 0.85685 0.70693 0.0
N718 N 0.87384 0.87926 0.39705 0.0
N719 N 0.88109 0.85695 0.61465 0.0
H720 H 0.19516 0.99412 0.72265 0.0
H721 H 0.2395 0.07979 0.31018 0.0
H722 H 0.23836 0.06285 0.76145 0.0
H723 H 0.19739 1.01085 0.27253 0.0
H724 H 0.23933 0.074 0.47561 0.0
H725 H 0.1956 1.00008 0.55756 0.0
C726 C 0.20475 1.01051 0.69614 0.0
C727 C 0.21683 0.02805 0.75513 0.0
C728 C 0.23013 0.06013 0.43131 0.0
C729 C 0.21741 0.03498 0.56662 0.0
C730 C 0.23022 0.06341 0.337 0.0
C731 C 0.21834 0.04574 0.2783 0.0
C732 C 0.21807 0.03902 0.46686 0.0
C733 C 0.20668 0.02488 0.31595 0.0
C734 C 0.205 1.01388 0.60194 0.0
C735 C 0.2289 0.04892 0.71776 0.0
N736 N 0.2068 1.02208 0.40825 0.0
N737 N 0.22891 0.05183 0.62541 0.0
H738 H 0.67187 0.52019 0.62415 0.0
H739 H 0.758 0.56411 0.03413 0.0
H740 H 0.74111 0.54935 0.58478 0.0
H741 H 0.6889 0.53581 0.07517 0.0
H742 H 0.75201 0.55876 0.86906 0.0
H743 H 0.6777 0.52601 0.78947 0.0
C744 C 0.68832 0.52784 0.65057 0.0
C745 C 0.70607 0.5342 0.5915 0.0
C746 C 0.73814 0.55371 0.91395 0.0
C747 C 0.71284 0.54089 0.77973 0.0
C748 C 0.74154 0.55673 0.00811 0.0
C749 C 0.72389 0.55042 0.06768 0.0
C750 C 0.71692 0.54428 0.87933 0.0
C751 C 0.70291 0.54092 0.03098 0.0
C752 C 0.69162 0.53115 0.74478 0.0
C753 C 0.72703 0.54415 0.62854 0.0
N754 N 0.69998 0.53813 0.9387 0.0
N755 N 0.72985 0.54715 0.72069 0.0
H756 H 0.56751 0.18014 0.60315 0.0
H757 H 0.525 0.22306 0.01366 0.0
H758 H 0.53971 0.22107 0.56383 0.0
H759 H 0.55125 0.18082 0.05406 0.0
H760 H 0.53075 0.22285 0.8487 0.0
H761 H 0.5619 0.18029 0.76856 0.0
C762 C 0.56021 0.18916 0.6296 0.0
C763 C 0.55413 0.2007 0.57044 0.0
C764 C 0.53526 0.21361 0.89342 0.0
C765 C 0.54766 0.20094 0.75893 0.0
C766 C 0.532 0.21373 -0.01247 0.0
C767 C 0.53759 0.20184 0.04692 0.0
C768 C 0.5442 0.20152 0.8586 0.0
C769 C 0.54667 0.19011 0.01005 0.0
C770 C 0.55701 0.18924 0.72389 0.0
C771 C 0.54466 0.21204 0.6076 0.0
N772 N 0.54968 0.19022 0.91779 0.0
N773 N 0.54174 0.2119 0.69988 0.0
H774 H 0.84705 0.37101 0.62554 0.0
H775 H 0.92519 0.37538 0.02976 0.0
H776 H 0.90274 0.36331 0.58277 0.0
H777 H 0.86955 0.38316 0.07216 0.0
H778 H 0.9179 0.37202 0.86466 0.0
H779 H 0.85433 0.37428 0.7906 0.0
C780 C 0.86059 0.36964 0.65121 0.0
C781 C 0.87448 0.36715 0.59084 0.0
C782 C 0.90738 0.37463 0.91 0.0
C783 C 0.88316 0.37131 0.7785 0.0
C784 C 0.91167 0.37676 0.004 0.0
C785 C 0.89779 0.37931 0.06426 0.0
C786 C 0.8891 0.37505 0.87661 0.0
C787 C 0.88053 0.38105 0.02772 0.0
C788 C 0.86487 0.37172 0.7452 0.0
C789 C 0.89174 0.36538 0.62728 0.0
N790 N 0.87654 0.37867 0.93609 0.0
N791 N 0.89574 0.36772 0.71893 0.0
H792 H 0.37948 0.91266 0.38455 0.0
H793 H 0.38141 0.83782 -0.01863 0.0
H794 H 0.37077 0.84891 0.42831 0.0
H795 H 0.39004 0.90153 0.93713 0.0
H796 H 0.37856 0.84204 0.14647 0.0
H797 H 0.38222 0.90844 0.21929 0.0
C798 C 0.37777 0.89763 0.35907 0.0
C799 C 0.37513 0.88119 0.41966 0.0
C800 C 0.38123 0.85516 0.10072 0.0
C801 C 0.37868 0.87642 0.23191 0.0
C802 C 0.38306 0.85284 0.00672 0.0
C803 C 0.38572 0.86926 0.94601 0.0
C804 C 0.38205 0.87404 0.13367 0.0
C805 C 0.38784 0.88843 -0.01804 0.0
C806 C 0.37955 0.89531 0.26499 0.0
C807 C 0.37296 0.86202 0.38356 0.0
N808 N 0.38575 0.89022 0.07367 0.0
N809 N 0.375 0.86023 0.29182 0.0
H810 H 0.23392 0.51354 0.97589 0.0
H811 H 0.18965 0.55493 0.38577 0.0
H812 H 0.20472 0.55321 0.93622 0.0
H813 H 0.21756 0.51416 0.42724 0.0
H814 H 0.1952 0.5545 0.22075 0.0
H815 H 0.22798 0.51337 0.14126 0.0
C816 C 0.22624 0.52221 0.00224 0.0
C817 C 0.21989 0.53352 0.94299 0.0
C818 C 0.20012 0.54563 0.2657 0.0
C819 C 0.21305 0.53339 0.13143 0.0
C820 C 0.19697 0.54588 0.35987 0.0
C821 C 0.20312 0.53449 0.41963 0.0
C822 C 0.20952 0.53393 0.23114 0.0
C823 C 0.21257 0.52308 0.38298 0.0
C824 C 0.22286 0.52211 0.0965 0.0
C825 C 0.20992 0.54439 -0.01996 0.0
N826 N 0.21549 0.52308 0.29066 0.0
N827 N 0.20683 0.54409 0.07225 0.0
H828 H 0.5905 0.70883 0.36242 0.0
H829 H 0.51354 0.70679 0.95795 0.0
H830 H 0.53539 0.71748 0.40505 0.0
H831 H 0.56863 0.69812 0.91494 0.0
H832 H 0.52061 0.7096 0.12313 0.0
H833 H 0.58344 0.70597 0.19717 0.0
C834 C 0.57715 0.7105 0.33669 0.0
C835 C 0.56335 0.71316 0.39699 0.0
C836 C 0.53106 0.70693 0.07764 0.0
C837 C 0.55492 0.70948 0.20921 0.0
C838 C 0.5269 0.70512 -0.01641 0.0
C839 C 0.54069 0.70247 0.92318 0.0
C840 C 0.54913 0.70609 0.11095 0.0
C841 C 0.55772 0.70032 0.95952 0.0
C842 C 0.57299 0.70865 0.24261 0.0
C843 C 0.54631 0.71527 0.36054 0.0
N844 N 0.56161 0.70239 0.05126 0.0
N845 N 0.54243 0.71318 0.26881 0.0
loop_
_geom_bond_atom_site_label_1
_geom_bond_atom_site_label_2
_geom_bond_distance
_geom_bond_site_symmetry_2
_ccdc_geom_bond_type
Nd0 C2 2.836 . S
Nd0 O20 2.500 1_556 S
Nd0 O21 2.492 . S
Nd0 O22 2.487 . S
Nd0 O23 2.682 . S
Nd0 O24 2.410 . S
Nd0 O29 2.414 1_556 S
Nd0 O31 2.424 . S
Nd1 C11 2.836 . S
Nd1 O23 2.414 1_654 S
Nd1 O25 2.424 . S
Nd1 O26 2.500 1_554 S
Nd1 O27 2.492 . S
Nd1 O28 2.487 . S
Nd1 O29 2.682 1_655 S
Nd1 O30 2.410 1_655 S
C2 Nd0 2.836 . S
C2 C3 1.498 1_556 S
C2 O20 1.258 1_556 S
C2 O21 1.239 . S
C3 C2 1.498 1_554 S
C3 C4 1.366 . S
C3 C8 1.408 1_554 S
C4 C3 1.366 . S
C4 C5 1.392 . S
C4 H32 0.930 . S
C5 C4 1.392 . S
C5 C6 1.398 . S
C5 H33 0.929 . S
C6 C5 1.398 . S
C6 C7 1.352 1_554 S
C7 C6 1.352 1_556 S
C7 C8 1.384 . S
C7 H34 0.930 . S
C8 C3 1.408 1_556 S
C8 C7 1.384 . S
C8 H35 0.929 . S
C9 O22 1.241 . S
C9 O23 1.273 . S
C10 O24 1.251 1_654 S
C10 O25 1.268 . S
C11 Nd1 2.836 . S
C11 C12 1.498 . S
C11 O26 1.258 1_554 S
C11 O27 1.239 . S
C12 C11 1.498 . S
C12 C13 1.366 1_554 S
C12 C17 1.407 . S
C13 C12 1.366 1_556 S
C13 C14 1.392 . S
C13 H36 0.930 . S
C14 C13 1.392 . S
C14 C15 1.398 1_556 S
C14 H37 0.929 . S
C15 C14 1.398 1_554 S
C15 C16 1.352 . S
C16 C15 1.352 . S
C16 C17 1.384 . S
C16 H38 0.930 . S
C17 C12 1.407 . S
C17 C16 1.384 . S
C17 H39 0.929 . S
C18 O28 1.241 1_455 S
C18 O29 1.273 . S
C19 O30 1.251 1_556 S
C19 O31 1.268 . S
O20 Nd0 2.500 1_554 S
O20 C2 1.258 1_554 S
O21 Nd0 2.492 . S
O21 C2 1.239 . S
O22 Nd0 2.487 . S
O22 C9 1.241 . S
O23 Nd0 2.682 . S
O23 Nd1 2.414 1_456 S
O23 C9 1.273 . S
O24 Nd0 2.410 . S
O24 C10 1.251 1_456 S
O25 Nd1 2.424 . S
O25 C10 1.268 . S
O26 Nd1 2.500 1_556 S
O26 C11 1.258 1_556 S
O27 Nd1 2.492 . S
O27 C11 1.239 . S
O28 Nd1 2.487 . S
O28 C18 1.241 1_655 S
O29 Nd0 2.414 1_554 S
O29 Nd1 2.682 1_455 S
O29 C18 1.273 . S
O30 Nd1 2.410 1_455 S
O30 C19 1.251 1_554 S
O31 Nd0 2.424 . S
O31 C19 1.268 . S
H32 C4 0.930 . S
H33 C5 0.929 . S
H34 C7 0.930 . S
H35 C8 0.929 . S
H36 C13 0.930 . S
H37 C14 0.929 . S
H38 C16 0.930 . S
H39 C17 0.929 . S
Nd40 C42 2.836 . S
Nd40 O60 2.500 1_556 S
Nd40 O61 2.492 . S
Nd40 O62 2.487 . S
Nd40 O63 2.682 . S
Nd40 O64 2.410 . S
Nd40 O69 2.414 1_556 S
Nd40 O71 2.424 . S
Nd41 C51 2.836 . S
Nd41 O63 2.414 1_554 S
Nd41 O65 2.424 . S
Nd41 O66 2.500 1_554 S
Nd41 O67 2.492 . S
Nd41 O68 2.487 . S
Nd41 O69 2.682 . S
Nd41 O70 2.410 . S
C42 Nd40 2.836 . S
C42 C43 1.498 1_556 S
C42 O60 1.258 1_556 S
C42 O61 1.239 . S
C43 C42 1.498 1_554 S
C43 C44 1.366 . S
C43 C48 1.407 1_554 S
C44 C43 1.366 . S
C44 C45 1.392 . S
C44 H72 0.930 . S
C45 C44 1.392 . S
C45 C46 1.398 . S
C45 H73 0.929 . S
C46 C45 1.398 . S
C46 C47 1.352 1_554 S
C47 C46 1.352 1_556 S
C47 C48 1.384 . S
C47 H74 0.930 . S
C48 C43 1.407 1_556 S
C48 C47 1.384 . S
C48 H75 0.929 . S
C49 O62 1.241 . S
C49 O63 1.273 . S
C50 O64 1.251 1_554 S
C50 O65 1.268 . S
C51 Nd41 2.836 . S
C51 C52 1.498 . S
C51 O66 1.258 1_554 S
C51 O67 1.239 . S
C52 C51 1.498 . S
C52 C53 1.366 1_554 S
C52 C57 1.407 . S
C53 C52 1.366 1_556 S
C53 C54 1.392 . S
C53 H76 0.930 . S
C54 C53 1.392 . S
C54 C55 1.398 1_556 S
C54 H77 0.929 . S
C55 C54 1.398 1_554 S
C55 C56 1.352 . S
C56 C55 1.352 . S
C56 C57 1.384 . S
C56 H78 0.930 . S
C57 C52 1.407 . S
C57 C56 1.384 . S
C57 H79 0.929 . S
C58 O68 1.241 . S
C58 O69 1.273 . S
C59 O70 1.251 1_556 S
C59 O71 1.268 . S
O60 Nd40 2.500 1_554 S
O60 C42 1.258 1_554 S
O61 Nd40 2.492 . S
O61 C42 1.239 . S
O62 Nd40 2.487 . S
O62 C49 1.241 . S
O63 Nd40 2.682 . S
O63 Nd41 2.414 1_556 S
O63 C49 1.273 . S
O64 Nd40 2.410 . S
O64 C50 1.251 1_556 S
O65 Nd41 2.424 . S
O65 C50 1.268 . S
O66 Nd41 2.500 1_556 S
O66 C51 1.258 1_556 S
O67 Nd41 2.492 . S
O67 C51 1.239 . S
O68 Nd41 2.487 . S
O68 C58 1.241 . S
O69 Nd40 2.414 1_554 S
O69 Nd41 2.682 . S
O69 C58 1.273 . S
O70 Nd41 2.410 . S
O70 C59 1.251 1_554 S
O71 Nd40 2.424 . S
O71 C59 1.268 . S
H72 C44 0.930 . S
H73 C45 0.929 . S
H74 C47 0.930 . S
H75 C48 0.929 . S
H76 C53 0.930 . S
H77 C54 0.929 . S
H78 C56 0.930 . S
H79 C57 0.929 . S
Nd80 C82 2.836 . S
Nd80 O100 2.500 1_556 S
Nd80 O101 2.492 . S
Nd80 O102 2.501 . S
Nd80 O103 2.682 1_565 S
Nd80 O104 2.410 1_565 S
Nd80 O109 2.414 1_566 S
Nd80 O111 2.424 . S
Nd81 C91 2.836 . S
Nd81 O103 2.414 1_554 S
Nd81 O105 2.424 . S
Nd81 O106 2.500 1_554 S
Nd81 O107 2.492 . S
Nd81 O108 2.487 . S
Nd81 O109 2.682 . S
Nd81 O110 2.410 . S
C82 Nd80 2.836 . S
C82 C83 1.498 1_556 S
C82 O100 1.258 1_556 S
C82 O101 1.239 . S
C83 C82 1.498 1_554 S
C83 C84 1.366 . S
C83 C88 1.407 1_554 S
C84 C83 1.366 . S
C84 C85 1.392 . S
C84 H112 0.930 . S
C85 C84 1.392 . S
C85 C86 1.398 . S
C85 H113 0.929 . S
C86 C85 1.398 . S
C86 C87 1.352 1_554 S
C87 C86 1.352 1_556 S
C87 C88 1.384 . S
C87 H114 0.930 . S
C88 C83 1.407 1_556 S
C88 C87 1.384 . S
C88 H115 0.929 . S
C89 O102 1.190 1_545 S
C89 O103 1.273 . S
C90 O104 1.251 1_554 S
C90 O105 1.268 . S
C91 Nd81 2.836 . S
C91 C92 1.498 . S
C91 O106 1.258 1_554 S
C91 O107 1.239 . S
C92 C91 1.498 . S
C92 C93 1.366 1_554 S
C92 C97 1.407 . S
C93 C92 1.366 1_556 S
C93 C94 1.392 . S
C93 H116 0.930 . S
C94 C93 1.392 . S
C94 C95 1.398 1_556 S
C94 H117 0.929 . S
C95 C94 1.398 1_554 S
C95 C96 1.352 . S
C96 C95 1.352 . S
C96 C97 1.384 . S
C96 H118 0.930 . S
C97 C92 1.407 . S
C97 C96 1.384 . S
C97 H119 0.929 . S
C98 O108 1.241 . S
C98 O109 1.273 . S
C99 O110 1.251 1_566 S
C99 O111 1.268 . S
O100 Nd80 2.500 1_554 S
O100 C82 1.258 1_554 S
O101 Nd80 2.492 . S
O101 C82 1.239 . S
O102 Nd80 2.501 . S
O102 C89 1.190 1_565 S
O103 Nd80 2.682 1_545 S
O103 Nd81 2.414 1_556 S
O103 C89 1.273 . S
O104 Nd80 2.410 1_545 S
O104 C90 1.251 1_556 S
O105 Nd81 2.424 . S
O105 C90 1.268 . S
O106 Nd81 2.500 1_556 S
O106 C91 1.258 1_556 S
O107 Nd81 2.492 . S
O107 C91 1.239 . S
O108 Nd81 2.487 . S
O108 C98 1.241 . S
O109 Nd80 2.414 1_544 S
O109 Nd81 2.682 . S
O109 C98 1.273 . S
O110 Nd81 2.410 . S
O110 C99 1.251 1_544 S
O111 Nd80 2.424 . S
O111 C99 1.268 . S
H112 C84 0.930 . S
H113 C85 0.929 . S
H114 C87 0.930 . S
H115 C88 0.929 . S
H116 C93 0.930 . S
H117 C94 0.929 . S
H118 C96 0.930 . S
H119 C97 0.929 . S
Nd120 C122 2.836 . S
Nd120 O140 2.500 . S
Nd120 O141 2.492 . S
Nd120 O142 2.487 . S
Nd120 O143 2.682 . S
Nd120 O144 2.410 . S
Nd120 O149 2.414 . S
Nd120 O151 2.424 . S
Nd121 C131 2.836 . S
Nd121 O143 2.414 . S
Nd121 O145 2.424 . S
Nd121 O146 2.500 . S
Nd121 O147 2.492 . S
Nd121 O148 2.487 . S
Nd121 O149 2.682 . S
Nd121 O150 2.410 . S
C122 Nd120 2.836 . S
C122 C123 1.498 . S
C122 O140 1.258 . S
C122 O141 1.239 . S
C123 C122 1.498 . S
C123 C124 1.366 . S
C123 C128 1.407 . S
C124 C123 1.366 . S
C124 C125 1.392 . S
C124 H152 0.930 . S
C125 C124 1.392 . S
C125 C126 1.398 . S
C125 H153 0.929 . S
C126 C125 1.398 . S
C126 C127 1.352 . S
C127 C126 1.352 . S
C127 C128 1.384 . S
C127 H154 0.930 . S
C128 C123 1.407 . S
C128 C127 1.384 . S
C128 H155 0.929 . S
C129 O142 1.241 . S
C129 O143 1.273 . S
C130 O144 1.251 . S
C130 O145 1.268 . S
C131 Nd121 2.836 . S
C131 C132 1.498 . S
C131 O146 1.258 . S
C131 O147 1.239 . S
C132 C131 1.498 . S
C132 C133 1.366 . S
C132 C137 1.407 . S
C133 C132 1.366 . S
C133 C134 1.392 . S
C133 H156 0.930 . S
C134 C133 1.392 . S
C134 C135 1.398 . S
C134 H157 0.929 . S
C135 C134 1.398 . S
C135 C136 1.352 . S
C136 C135 1.352 . S
C136 C137 1.384 . S
C136 H158 0.930 . S
C137 C132 1.407 . S
C137 C136 1.384 . S
C137 H159 0.929 . S
C138 O148 1.241 . S
C138 O149 1.273 . S
C139 O150 1.251 . S
C139 O151 1.268 . S
O140 Nd120 2.500 . S
O140 C122 1.258 . S
O141 Nd120 2.492 . S
O141 C122 1.239 . S
O142 Nd120 2.487 . S
O142 C129 1.241 . S
O143 Nd120 2.682 . S
O143 Nd121 2.414 . S
O143 C129 1.273 . S
O144 Nd120 2.410 . S
O144 C130 1.251 . S
O145 Nd121 2.424 . S
O145 C130 1.268 . S
O146 Nd121 2.500 . S
O146 C131 1.258 . S
O147 Nd121 2.492 . S
O147 C131 1.239 . S
O148 Nd121 2.487 . S
O148 C138 1.241 . S
O149 Nd120 2.414 . S
O149 Nd121 2.682 . S
O149 C138 1.273 . S
O150 Nd121 2.410 . S
O150 C139 1.251 . S
O151 Nd120 2.424 . S
O151 C139 1.268 . S
H152 C124 0.930 . S
H153 C125 0.929 . S
H154 C127 0.930 . S
H155 C128 0.929 . S
H156 C133 0.930 . S
H157 C134 0.929 . S
H158 C136 0.930 . S
H159 C137 0.929 . S
Nd160 C162 2.836 . S
Nd160 O180 2.500 . S
Nd160 O181 2.492 . S
Nd160 O182 2.487 . S
Nd160 O183 2.682 . S
Nd160 O184 2.410 . S
Nd160 O189 2.414 . S
Nd160 O191 2.424 . S
Nd161 C171 2.836 . S
Nd161 O183 2.414 . S
Nd161 O185 2.424 . S
Nd161 O186 2.500 . S
Nd161 O187 2.492 . S
Nd161 O188 2.487 . S
Nd161 O189 2.682 . S
Nd161 O190 2.410 . S
C162 Nd160 2.836 . S
C162 C163 1.498 . S
C162 O180 1.258 . S
C162 O181 1.239 . S
C163 C162 1.498 . S
C163 C164 1.366 . S
C163 C168 1.407 . S
C164 C163 1.366 . S
C164 C165 1.392 . S
C164 H192 0.930 . S
C165 C164 1.392 . S
C165 C166 1.398 . S
C165 H193 0.929 . S
C166 C165 1.398 . S
C166 C167 1.352 . S
C167 C166 1.352 . S
C167 C168 1.384 . S
C167 H194 0.930 . S
C168 C163 1.407 . S
C168 C167 1.384 . S
C168 H195 0.929 . S
C169 O182 1.241 . S
C169 O183 1.273 . S
C170 O184 1.251 . S
C170 O185 1.268 . S
C171 Nd161 2.836 . S
C171 C172 1.498 . S
C171 O186 1.258 . S
C171 O187 1.239 . S
C172 C171 1.498 . S
C172 C173 1.366 . S
C172 C177 1.407 . S
C173 C172 1.366 . S
C173 C174 1.392 . S
C173 H196 0.930 . S
C174 C173 1.392 . S
C174 C175 1.398 . S
C174 H197 0.929 . S
C175 C174 1.398 . S
C175 C176 1.352 . S
C176 C175 1.352 . S
C176 C177 1.384 . S
C176 H198 0.930 . S
C177 C172 1.407 . S
C177 C176 1.384 . S
C177 H199 0.929 . S
C178 O188 1.241 . S
C178 O189 1.273 . S
C179 O190 1.251 . S
C179 O191 1.268 . S
O180 Nd160 2.500 . S
O180 C162 1.258 . S
O181 Nd160 2.492 . S
O181 C162 1.239 . S
O182 Nd160 2.487 . S
O182 C169 1.241 . S
O183 Nd160 2.682 . S
O183 Nd161 2.414 . S
O183 C169 1.273 . S
O184 Nd160 2.410 . S
O184 C170 1.251 . S
O185 Nd161 2.424 . S
O185 C170 1.268 . S
O186 Nd161 2.500 . S
O186 C171 1.258 . S
O187 Nd161 2.492 . S
O187 C171 1.239 . S
O188 Nd161 2.487 . S
O188 C178 1.241 . S
O189 Nd160 2.414 . S
O189 Nd161 2.682 . S
O189 C178 1.273 . S
O190 Nd161 2.410 . S
O190 C179 1.251 . S
O191 Nd160 2.424 . S
O191 C179 1.268 . S
H192 C164 0.930 . S
H193 C165 0.929 . S
H194 C167 0.930 . S
H195 C168 0.929 . S
H196 C173 0.930 . S
H197 C174 0.929 . S
H198 C176 0.930 . S
H199 C177 0.929 . S
Nd200 C202 2.836 . S
Nd200 O220 2.500 . S
Nd200 O221 2.492 . S
Nd200 O222 2.487 . S
Nd200 O223 2.682 . S
Nd200 O224 2.410 . S
Nd200 O229 2.414 . S
Nd200 O231 2.424 . S
Nd201 C211 2.836 . S
Nd201 O223 2.414 . S
Nd201 O225 2.424 . S
Nd201 O226 2.500 . S
Nd201 O227 2.492 . S
Nd201 O228 2.487 . S
Nd201 O229 2.682 . S
Nd201 O230 2.410 . S
C202 Nd200 2.836 . S
C202 C203 1.498 . S
C202 O220 1.258 . S
C202 O221 1.239 . S
C203 C202 1.498 . S
C203 C204 1.366 . S
C203 C208 1.407 . S
C204 C203 1.366 . S
C204 C205 1.392 . S
C204 H232 0.930 . S
C205 C204 1.392 . S
C205 C206 1.398 . S
C205 H233 0.929 . S
C206 C205 1.398 . S
C206 C207 1.352 . S
C207 C206 1.352 . S
C207 C208 1.384 . S
C207 H234 0.930 . S
C208 C203 1.407 . S
C208 C207 1.384 . S
C208 H235 0.929 . S
C209 O222 1.241 . S
C209 O223 1.273 . S
C210 O224 1.251 . S
C210 O225 1.268 . S
C211 Nd201 2.836 . S
C211 C212 1.498 . S
C211 O226 1.258 . S
C211 O227 1.239 . S
C212 C211 1.498 . S
C212 C213 1.366 . S
C212 C217 1.407 . S
C213 C212 1.366 . S
C213 C214 1.392 . S
C213 H236 0.930 . S
C214 C213 1.392 . S
C214 C215 1.398 . S
C214 H237 0.929 . S
C215 C214 1.398 . S
C215 C216 1.352 . S
C216 C215 1.352 . S
C216 C217 1.384 . S
C216 H238 0.930 . S
C217 C212 1.407 . S
C217 C216 1.384 . S
C217 H239 0.929 . S
C218 O228 1.241 . S
C218 O229 1.273 . S
C219 O230 1.251 . S
C219 O231 1.268 . S
O220 Nd200 2.500 . S
O220 C202 1.258 . S
O221 Nd200 2.492 . S
O221 C202 1.239 . S
O222 Nd200 2.487 . S
O222 C209 1.241 . S
O223 Nd200 2.682 . S
O223 Nd201 2.414 . S
O223 C209 1.273 . S
O224 Nd200 2.410 . S
O224 C210 1.251 . S
O225 Nd201 2.424 . S
O225 C210 1.268 . S
O226 Nd201 2.500 . S
O226 C211 1.258 . S
O227 Nd201 2.492 . S
O227 C211 1.239 . S
O228 Nd201 2.487 . S
O228 C218 1.241 . S
O229 Nd200 2.414 . S
O229 Nd201 2.682 . S
O229 C218 1.273 . S
O230 Nd201 2.410 . S
O230 C219 1.251 . S
O231 Nd200 2.424 . S
O231 C219 1.268 . S
H232 C204 0.930 . S
H233 C205 0.929 . S
H234 C207 0.930 . S
H235 C208 0.929 . S
H236 C213 0.930 . S
H237 C214 0.929 . S
H238 C216 0.930 . S
H239 C217 0.929 . S
Nd240 C242 2.836 . S
Nd240 O260 2.500 . S
Nd240 O261 2.492 . S
Nd240 O262 2.487 . S
Nd240 O263 2.682 . S
Nd240 O264 2.410 . S
Nd240 O269 2.414 . S
Nd240 O271 2.424 . S
Nd241 C251 2.836 . S
Nd241 O263 2.414 . S
Nd241 O265 2.424 . S
Nd241 O266 2.500 . S
Nd241 O267 2.492 . S
Nd241 O268 2.487 . S
Nd241 O269 2.682 . S
Nd241 O270 2.410 . S
C242 Nd240 2.836 . S
C242 C243 1.498 . S
C242 O260 1.258 . S
C242 O261 1.239 . S
C243 C242 1.498 . S
C243 C244 1.366 . S
C243 C248 1.407 . S
C244 C243 1.366 . S
C244 C245 1.392 . S
C244 H272 0.930 . S
C245 C244 1.392 . S
C245 C246 1.398 . S
C245 H273 0.929 . S
C246 C245 1.398 . S
C246 C247 1.352 . S
C247 C246 1.352 . S
C247 C248 1.384 . S
C247 H274 0.930 . S
C248 C243 1.407 . S
C248 C247 1.384 . S
C248 H275 0.929 . S
C249 O262 1.241 . S
C249 O263 1.273 . S
C250 O264 1.251 . S
C250 O265 1.268 . S
C251 Nd241 2.836 . S
C251 C252 1.498 . S
C251 O266 1.258 . S
C251 O267 1.239 . S
C252 C251 1.498 . S
C252 C253 1.366 . S
C252 C257 1.407 . S
C253 C252 1.366 . S
C253 C254 1.392 . S
C253 H276 0.930 . S
C254 C253 1.392 . S
C254 C255 1.398 . S
C254 H277 0.929 . S
C255 C254 1.398 . S
C255 C256 1.352 . S
C256 C255 1.352 . S
C256 C257 1.384 . S
C256 H278 0.930 . S
C257 C252 1.407 . S
C257 C256 1.384 . S
C257 H279 0.929 . S
C258 O268 1.241 . S
C258 O269 1.273 . S
C259 O270 1.251 . S
C259 O271 1.268 . S
O260 Nd240 2.500 . S
O260 C242 1.258 . S
O261 Nd240 2.492 . S
O261 C242 1.239 . S
O262 Nd240 2.487 . S
O262 C249 1.241 . S
O263 Nd240 2.682 . S
O263 Nd241 2.414 . S
O263 C249 1.273 . S
O264 Nd240 2.410 . S
O264 C250 1.251 . S
O265 Nd241 2.424 . S
O265 C250 1.268 . S
O266 Nd241 2.500 . S
O266 C251 1.258 . S
O267 Nd241 2.492 . S
O267 C251 1.239 . S
O268 Nd241 2.487 . S
O268 C258 1.241 . S
O269 Nd240 2.414 . S
O269 Nd241 2.682 . S
O269 C258 1.273 . S
O270 Nd241 2.410 . S
O270 C259 1.251 . S
O271 Nd240 2.424 . S
O271 C259 1.268 . S
H272 C244 0.930 . S
H273 C245 0.929 . S
H274 C247 0.930 . S
H275 C248 0.929 . S
H276 C253 0.930 . S
H277 C254 0.929 . S
H278 C256 0.930 . S
H279 C257 0.929 . S
Nd280 C282 2.836 . S
Nd280 O300 2.500 . S
Nd280 O301 2.492 . S
Nd280 O302 2.487 . S
Nd280 O303 2.682 . S
Nd280 O304 2.410 . S
Nd280 O309 2.414 . S
Nd280 O311 2.424 . S
Nd281 C291 2.836 . S
Nd281 O303 2.414 . S
Nd281 O305 2.424 . S
Nd281 O306 2.500 . S
Nd281 O307 2.492 . S
Nd281 O308 2.487 . S
Nd281 O309 2.682 . S
Nd281 O310 2.410 . S
C282 Nd280 2.836 . S
C282 C283 1.498 . S
C282 O300 1.258 . S
C282 O301 1.239 . S
C283 C282 1.498 . S
C283 C284 1.366 . S
C283 C288 1.407 . S
C284 C283 1.366 . S
C284 C285 1.392 . S
C284 H312 0.930 . S
C285 C284 1.392 . S
C285 C286 1.398 . S
C285 H313 0.929 . S
C286 C285 1.398 . S
C286 C287 1.352 . S
C287 C286 1.352 . S
C287 C288 1.384 . S
C287 H314 0.930 . S
C288 C283 1.407 . S
C288 C287 1.384 . S
C288 H315 0.929 . S
C289 O302 1.241 . S
C289 O303 1.273 . S
C290 O304 1.251 . S
C290 O305 1.268 . S
C291 Nd281 2.836 . S
C291 C292 1.498 . S
C291 O306 1.258 . S
C291 O307 1.239 . S
C292 C291 1.498 . S
C292 C293 1.366 . S
C292 C297 1.407 . S
C293 C292 1.366 . S
C293 C294 1.392 . S
C293 H316 0.930 . S
C294 C293 1.392 . S
C294 C295 1.398 . S
C294 H317 0.929 . S
C295 C294 1.398 . S
C295 C296 1.352 . S
C296 C295 1.352 . S
C296 C297 1.384 . S
C296 H318 0.930 . S
C297 C292 1.407 . S
C297 C296 1.384 . S
C297 H319 0.929 . S
C298 O308 1.241 . S
C298 O309 1.273 . S
C299 O310 1.251 . S
C299 O311 1.268 . S
O300 Nd280 2.500 . S
O300 C282 1.258 . S
O301 Nd280 2.492 . S
O301 C282 1.239 . S
O302 Nd280 2.487 . S
O302 C289 1.241 . S
O303 Nd280 2.682 . S
O303 Nd281 2.414 . S
O303 C289 1.273 . S
O304 Nd280 2.410 . S
O304 C290 1.251 . S
O305 Nd281 2.424 . S
O305 C290 1.268 . S
O306 Nd281 2.500 . S
O306 C291 1.258 . S
O307 Nd281 2.492 . S
O307 C291 1.239 . S
O308 Nd281 2.487 . S
O308 C298 1.241 . S
O309 Nd280 2.414 . S
O309 Nd281 2.682 . S
O309 C298 1.273 . S
O310 Nd281 2.410 . S
O310 C299 1.251 . S
O311 Nd280 2.424 . S
O311 C299 1.268 . S
H312 C284 0.930 . S
H313 C285 0.929 . S
H314 C287 0.930 . S
H315 C288 0.929 . S
H316 C293 0.930 . S
H317 C294 0.929 . S
H318 C296 0.930 . S
H319 C297 0.929 . S
Nd320 C322 2.836 . S
Nd320 O340 2.500 . S
Nd320 O341 2.492 . S
Nd320 O342 2.487 . S
Nd320 O343 2.682 . S
Nd320 O344 2.410 . S
Nd320 O349 2.414 . S
Nd320 O351 2.424 . S
Nd321 C331 2.836 . S
Nd321 O343 2.414 . S
Nd321 O345 2.424 . S
Nd321 O346 2.500 . S
Nd321 O347 2.492 . S
Nd321 O348 2.487 . S
Nd321 O349 2.682 . S
Nd321 O350 2.410 . S
C322 Nd320 2.836 . S
C322 C323 1.498 . S
C322 O340 1.258 . S
C322 O341 1.239 . S
C323 C322 1.498 . S
C323 C324 1.366 . S
C323 C328 1.407 . S
C324 C323 1.366 . S
C324 C325 1.392 . S
C324 H352 0.930 . S
C325 C324 1.392 . S
C325 C326 1.398 . S
C325 H353 0.929 . S
C326 C325 1.398 . S
C326 C327 1.352 . S
C327 C326 1.352 . S
C327 C328 1.384 . S
C327 H354 0.930 . S
C328 C323 1.407 . S
C328 C327 1.384 . S
C328 H355 0.929 . S
C329 O342 1.241 . S
C329 O343 1.273 . S
C330 O344 1.251 . S
C330 O345 1.268 . S
C331 Nd321 2.836 . S
C331 C332 1.498 . S
C331 O346 1.258 . S
C331 O347 1.239 . S
C332 C331 1.498 . S
C332 C333 1.366 . S
C332 C337 1.407 . S
C333 C332 1.366 . S
C333 C334 1.392 . S
C333 H356 0.930 . S
C334 C333 1.392 . S
C334 C335 1.398 . S
C334 H357 0.929 . S
C335 C334 1.398 . S
C335 C336 1.352 . S
C336 C335 1.352 . S
C336 C337 1.384 . S
C336 H358 0.930 . S
C337 C332 1.407 . S
C337 C336 1.384 . S
C337 H359 0.929 . S
C338 O348 1.241 . S
C338 O349 1.273 . S
C339 O350 1.251 . S
C339 O351 1.268 . S
O340 Nd320 2.500 . S
O340 C322 1.258 . S
O341 Nd320 2.492 . S
O341 C322 1.239 . S
O342 Nd320 2.487 . S
O342 C329 1.241 . S
O343 Nd320 2.682 . S
O343 Nd321 2.414 . S
O343 C329 1.273 . S
O344 Nd320 2.410 . S
O344 C330 1.251 . S
O345 Nd321 2.424 . S
O345 C330 1.268 . S
O346 Nd321 2.500 . S
O346 C331 1.258 . S
O347 Nd321 2.492 . S
O347 C331 1.239 . S
O348 Nd321 2.487 . S
O348 C338 1.241 . S
O349 Nd320 2.414 . S
O349 Nd321 2.682 . S
O349 C338 1.273 . S
O350 Nd321 2.410 . S
O350 C339 1.251 . S
O351 Nd320 2.424 . S
O351 C339 1.268 . S
H352 C324 0.930 . S
H353 C325 0.929 . S
H354 C327 0.930 . S
H355 C328 0.929 . S
H356 C333 0.930 . S
H357 C334 0.929 . S
H358 C336 0.930 . S
H359 C337 0.929 . S
H360 C366 0.930 . S
H361 C370 0.930 . S
H362 C375 0.929 . S
H363 C373 0.929 . S
H364 C368 0.929 . S
H365 C374 0.929 . S
C366 H360 0.930 . S
C366 C367 1.367 . S
C366 C374 1.378 . S
C367 C366 1.367 . S
C367 C375 1.433 1_556 S
C368 H364 0.929 . S
C368 C370 1.378 . S
C368 C372 1.350 . S
C369 C372 1.463 . S
C369 C374 1.350 . S
C369 N377 1.427 . S
C370 H361 0.930 . S
C370 C368 1.378 . S
C370 C371 1.367 . S
C371 C370 1.367 . S
C371 C373 1.433 . S
C372 C368 1.350 . S
C372 C369 1.463 . S
C372 N376 1.427 . S
C373 H363 0.929 . S
C373 C371 1.433 . S
C373 N376 1.384 . S
C374 H365 0.929 . S
C374 C366 1.378 . S
C374 C369 1.350 . S
C375 H362 0.929 . S
C375 C367 1.433 1_554 S
C375 N377 1.384 1_554 S
N376 C372 1.427 . S
N376 C373 1.384 . S
N377 C369 1.427 . S
N377 C375 1.384 1_556 S
H378 C384 0.930 . S
H379 C388 0.930 . S
H380 C393 0.929 . S
H381 C391 0.929 . S
H382 C386 0.929 . S
H383 C392 0.929 . S
C384 H378 0.930 . S
C384 C385 1.367 . S
C384 C392 1.378 . S
C385 C384 1.367 . S
C385 C393 1.433 1_556 S
C386 H382 0.929 . S
C386 C388 1.378 . S
C386 C390 1.350 . S
C387 C390 1.463 . S
C387 C392 1.350 . S
C387 N395 1.427 . S
C388 H379 0.930 . S
C388 C386 1.378 . S
C388 C389 1.367 . S
C389 C388 1.367 . S
C389 C391 1.433 . S
C390 C386 1.350 . S
C390 C387 1.463 . S
C390 N394 1.427 . S
C391 H381 0.929 . S
C391 C389 1.433 . S
C391 N394 1.384 . S
C392 H383 0.929 . S
C392 C384 1.378 . S
C392 C387 1.350 . S
C393 H380 0.929 . S
C393 C385 1.433 1_554 S
C393 N395 1.384 1_554 S
N394 C390 1.427 . S
N394 C391 1.384 . S
N395 C387 1.427 . S
N395 C393 1.384 1_556 S
H396 C402 0.930 . S
H397 C406 0.930 . S
H398 C411 0.929 . S
H399 C409 0.929 . S
H400 C404 0.929 . S
H401 C410 0.929 . S
C402 H396 0.930 . S
C402 C403 1.367 . S
C402 C410 1.378 . S
C403 C402 1.367 . S
C403 C411 1.433 1_556 S
C404 H400 0.929 . S
C404 C406 1.378 . S
C404 C408 1.350 . S
C405 C408 1.463 . S
C405 C410 1.350 . S
C405 N413 1.427 . S
C406 H397 0.930 . S
C406 C404 1.378 . S
C406 C407 1.367 . S
C407 C406 1.367 . S
C407 C409 1.433 . S
C408 C404 1.350 . S
C408 C405 1.463 . S
C408 N412 1.427 . S
C409 H399 0.929 . S
C409 C407 1.433 . S
C409 N412 1.384 . S
C410 H401 0.929 . S
C410 C402 1.378 . S
C410 C405 1.350 . S
C411 H398 0.929 . S
C411 C403 1.433 1_554 S
C411 N413 1.384 1_554 S
N412 C408 1.427 . S
N412 C409 1.384 . S
N413 C405 1.427 . S
N413 C411 1.384 1_556 S
H414 C420 0.930 . S
H415 C424 0.930 . S
H416 C429 0.929 . S
H417 C427 0.929 1_556 S
H418 C422 0.929 . S
H419 C428 0.929 . S
C420 H414 0.930 . S
C420 C421 1.367 . S
C420 C428 1.378 . S
C421 C420 1.367 . S
C421 C429 1.433 . S
C422 H418 0.929 . S
C422 C424 1.378 . S
C422 C426 1.350 . S
C423 C426 1.463 . S
C423 C428 1.350 . S
C423 N431 1.427 . S
C424 H415 0.930 . S
C424 C422 1.378 . S
C424 C425 1.367 . S
C425 C424 1.367 . S
C425 C427 1.433 . S
C426 C422 1.350 . S
C426 C423 1.463 . S
C426 N430 1.427 . S
C427 H417 0.929 1_554 S
C427 C425 1.433 . S
C427 N430 1.384 . S
C428 H419 0.929 . S
C428 C420 1.378 . S
C428 C423 1.350 . S
C429 H416 0.929 . S
C429 C421 1.433 . S
C429 N431 1.384 . S
N430 C426 1.427 . S
N430 C427 1.384 . S
N431 C423 1.427 . S
N431 C429 1.384 . S
H432 C438 0.930 . S
H433 C442 0.930 . S
H434 C447 0.929 . S
H435 C445 0.929 1_455 S
H436 C440 0.929 . S
H437 C446 0.929 . S
C438 H432 0.930 . S
C438 C439 1.367 . S
C438 C446 1.378 . S
C439 C438 1.367 . S
C439 C447 1.433 . S
C440 H436 0.929 . S
C440 C442 1.378 . S
C440 C444 1.350 . S
C441 C444 1.463 . S
C441 C446 1.350 . S
C441 N449 1.427 . S
C442 H433 0.930 . S
C442 C440 1.378 . S
C442 C443 1.367 . S
C443 C442 1.367 . S
C443 C445 1.433 . S
C444 C440 1.350 . S
C444 C441 1.463 . S
C444 N448 1.427 . S
C445 H435 0.929 1_655 S
C445 C443 1.433 . S
C445 N448 1.384 . S
C446 H437 0.929 . S
C446 C438 1.378 . S
C446 C441 1.350 . S
C447 H434 0.929 . S
C447 C439 1.433 . S
C447 N449 1.384 . S
N448 C444 1.427 . S
N448 C445 1.384 . S
N449 C441 1.427 . S
N449 C447 1.384 . S
H450 C456 0.930 . S
H451 C460 0.930 . S
H452 C465 0.929 1_556 S
H453 C463 0.929 . S
H454 C458 0.929 . S
H455 C464 0.929 . S
C456 H450 0.930 . S
C456 C457 1.367 . S
C456 C464 1.378 . S
C457 C456 1.367 . S
C457 C465 1.433 . S
C458 H454 0.929 . S
C458 C460 1.378 . S
C458 C462 1.350 . S
C459 C462 1.463 . S
C459 C464 1.350 . S
C459 N467 1.427 . S
C460 H451 0.930 . S
C460 C458 1.378 . S
C460 C461 1.367 . S
C461 C460 1.367 . S
C461 C463 1.433 . S
C462 C458 1.350 . S
C462 C459 1.463 . S
C462 N466 1.427 . S
C463 H453 0.929 . S
C463 C461 1.433 . S
C463 N466 1.384 . S
C464 H455 0.929 . S
C464 C456 1.378 . S
C464 C459 1.350 . S
C465 H452 0.929 1_554 S
C465 C457 1.433 . S
C465 N467 1.384 . S
N466 C462 1.427 . S
N466 C463 1.384 . S
N467 C459 1.427 . S
N467 C465 1.384 . S
H468 C474 0.923 1_455 S
H469 C478 0.930 . S
H470 C483 0.929 . S
H471 C481 0.929 . S
H472 C476 0.929 . S
H473 C482 0.929 . S
C474 H468 0.923 1_655 S
C474 C475 1.350 1_655 S
C474 C482 1.400 . S
C475 C474 1.350 1_455 S
C475 C483 1.433 . S
C476 H472 0.929 . S
C476 C478 1.378 . S
C476 C480 1.350 . S
C477 C480 1.463 . S
C477 C482 1.350 . S
C477 N485 1.427 . S
C478 H469 0.930 . S
C478 C476 1.378 . S
C478 C479 1.367 . S
C479 C478 1.367 . S
C479 C481 1.433 . S
C480 C476 1.350 . S
C480 C477 1.463 . S
C480 N484 1.427 . S
C481 H471 0.929 . S
C481 C479 1.433 . S
C481 N484 1.384 . S
C482 H473 0.929 . S
C482 C474 1.400 . S
C482 C477 1.350 . S
C483 H470 0.929 . S
C483 C475 1.433 . S
C483 N485 1.384 1_455 S
N484 C480 1.427 . S
N484 C481 1.384 . S
N485 C477 1.427 . S
N485 C483 1.384 1_655 S
H486 C492 0.930 . S
H487 C496 0.930 . S
H488 C501 0.929 . S
H489 C499 0.929 . S
H490 C494 0.929 . S
H491 C500 0.929 . S
C492 H486 0.930 . S
C492 C493 1.367 . S
C492 C500 1.378 . S
C493 C492 1.367 . S
C493 C501 1.433 . S
C494 H490 0.929 . S
C494 C496 1.378 . S
C494 C498 1.350 . S
C495 C498 1.463 . S
C495 C500 1.350 . S
C495 N503 1.427 . S
C496 H487 0.930 . S
C496 C494 1.378 . S
C496 C497 1.367 . S
C497 C496 1.367 . S
C497 C499 1.433 . S
C498 C494 1.350 . S
C498 C495 1.463 . S
C498 N502 1.427 . S
C499 H489 0.929 . S
C499 C497 1.433 . S
C499 N502 1.384 . S
C500 H491 0.929 . S
C500 C492 1.378 . S
C500 C495 1.350 . S
C501 H488 0.929 . S
C501 C493 1.433 . S
C501 N503 1.384 . S
N502 C498 1.427 . S
N502 C499 1.384 . S
N503 C495 1.427 . S
N503 C501 1.384 . S
H504 C510 0.930 . S
H505 C514 0.930 . S
H506 C519 0.929 . S
H507 C517 0.929 . S
H508 C512 0.929 . S
H509 C518 0.929 . S
C510 H504 0.930 . S
C510 C511 1.367 . S
C510 C518 1.378 . S
C511 C510 1.367 . S
C511 C519 1.433 . S
C512 H508 0.929 . S
C512 C514 1.378 . S
C512 C516 1.350 . S
C513 C516 1.463 . S
C513 C518 1.350 . S
C513 N521 1.427 . S
C514 H505 0.930 . S
C514 C512 1.378 . S
C514 C515 1.367 . S
C515 C514 1.367 . S
C515 C517 1.433 . S
C516 C512 1.350 . S
C516 C513 1.463 . S
C516 N520 1.427 . S
C517 H507 0.929 . S
C517 C515 1.433 . S
C517 N520 1.384 . S
C518 H509 0.929 . S
C518 C510 1.378 . S
C518 C513 1.350 . S
C519 H506 0.929 . S
C519 C511 1.433 . S
C519 N521 1.384 . S
N520 C516 1.427 . S
N520 C517 1.384 . S
N521 C513 1.427 . S
N521 C519 1.384 . S
H522 C528 0.930 . S
H523 C532 0.930 . S
H524 C537 0.929 . S
H525 C535 0.929 . S
H526 C530 0.929 . S
H527 C536 0.929 . S
C528 H522 0.930 . S
C528 C529 1.367 . S
C528 C536 1.378 . S
C529 C528 1.367 . S
C529 C537 1.433 1_554 S
C530 H526 0.929 . S
C530 C532 1.378 . S
C530 C534 1.350 . S
C531 C534 1.463 . S
C531 C536 1.350 1_556 S
C531 N539 1.427 . S
C532 H523 0.930 . S
C532 C530 1.378 . S
C532 C533 1.367 . S
C533 C532 1.367 . S
C533 C535 1.433 1_556 S
C534 C530 1.350 . S
C534 C531 1.463 . S
C534 N538 1.427 1_556 S
C535 H525 0.929 . S
C535 C533 1.433 1_554 S
C535 N538 1.384 . S
C536 H527 0.929 . S
C536 C528 1.378 . S
C536 C531 1.350 1_554 S
C537 H524 0.929 . S
C537 C529 1.433 1_556 S
C537 N539 1.384 . S
N538 C534 1.427 1_554 S
N538 C535 1.384 . S
N539 C531 1.427 . S
N539 C537 1.384 . S
H540 C546 0.930 . S
H541 C550 0.930 . S
H542 C555 0.929 . S
H543 C553 0.929 . S
H544 C548 0.929 . S
H545 C554 0.929 . S
C546 H540 0.930 . S
C546 C547 1.367 1_554 S
C546 C554 1.378 . S
C547 C546 1.367 1_556 S
C547 C555 1.433 . S
C548 H544 0.929 . S
C548 C550 1.378 1_565 S
C548 C552 1.350 . S
C549 C552 1.463 . S
C549 C554 1.350 1_556 S
C549 N557 1.427 . S
C550 H541 0.930 . S
C550 C548 1.378 1_545 S
C550 C551 1.368 . S
C551 C550 1.368 . S
C551 C553 1.432 1_556 S
C552 C548 1.350 . S
C552 C549 1.463 . S
C552 N556 1.427 1_556 S
C553 H543 0.929 . S
C553 C551 1.432 1_554 S
C553 N556 1.384 1_545 S
C554 H545 0.929 . S
C554 C546 1.378 . S
C554 C549 1.350 1_554 S
C555 H542 0.929 . S
C555 C547 1.433 . S
C555 N557 1.384 . S
N556 C552 1.427 1_554 S
N556 C553 1.384 1_565 S
N557 C549 1.427 . S
N557 C555 1.384 . S
H558 C564 0.930 . S
H559 C568 0.930 . S
H560 C573 0.929 . S
H561 C571 0.929 1_545 S
H562 C566 0.929 . S
H563 C572 0.929 . S
C564 H558 0.930 . S
C564 C565 1.367 . S
C564 C572 1.378 . S
C565 C564 1.367 . S
C565 C573 1.433 1_554 S
C566 H562 0.929 . S
C566 C568 1.378 . S
C566 C570 1.350 . S
C567 C570 1.463 . S
C567 C572 1.350 1_556 S
C567 N575 1.427 . S
C568 H559 0.930 . S
C568 C566 1.378 . S
C568 C569 1.367 . S
C569 C568 1.367 . S
C569 C571 1.433 1_556 S
C570 C566 1.350 . S
C570 C567 1.463 . S
C570 N574 1.427 1_556 S
C571 H561 0.929 1_565 S
C571 C569 1.433 1_554 S
C571 N574 1.384 . S
C572 H563 0.929 . S
C572 C564 1.378 . S
C572 C567 1.350 1_554 S
C573 H560 0.929 . S
C573 C565 1.433 1_556 S
C573 N575 1.384 . S
N574 C570 1.427 1_554 S
N574 C571 1.384 . S
N575 C567 1.427 . S
N575 C573 1.384 . S
H576 C582 0.930 . S
H577 C586 0.930 . S
H578 C591 0.929 . S
H579 C589 0.929 . S
H580 C584 0.929 . S
H581 C590 0.929 . S
C582 H576 0.930 . S
C582 C583 1.367 . S
C582 C590 1.378 . S
C583 C582 1.367 . S
C583 C591 1.433 . S
C584 H580 0.929 . S
C584 C586 1.378 . S
C584 C588 1.350 . S
C585 C588 1.463 . S
C585 C590 1.350 . S
C585 N593 1.427 . S
C586 H577 0.930 . S
C586 C584 1.378 . S
C586 C587 1.367 . S
C587 C586 1.367 . S
C587 C589 1.433 . S
C588 C584 1.350 . S
C588 C585 1.463 . S
C588 N592 1.427 . S
C589 H579 0.929 . S
C589 C587 1.433 . S
C589 N592 1.384 . S
C590 H581 0.929 . S
C590 C582 1.378 . S
C590 C585 1.350 . S
C591 H578 0.929 . S
C591 C583 1.433 . S
C591 N593 1.384 . S
N592 C588 1.427 . S
N592 C589 1.384 . S
N593 C585 1.427 . S
N593 C591 1.384 . S
H594 C600 0.930 . S
H595 C604 0.930 . S
H596 C609 0.929 . S
H597 C607 0.929 . S
H598 C602 0.929 . S
H599 C608 0.929 . S
C600 H594 0.930 . S
C600 C601 1.367 . S
C600 C608 1.378 . S
C601 C600 1.367 . S
C601 C609 1.433 . S
C602 H598 0.929 . S
C602 C604 1.378 . S
C602 C606 1.350 . S
C603 C606 1.463 . S
C603 C608 1.350 . S
C603 N611 1.427 . S
C604 H595 0.930 . S
C604 C602 1.378 . S
C604 C605 1.367 . S
C605 C604 1.367 . S
C605 C607 1.433 . S
C606 C602 1.350 . S
C606 C603 1.463 . S
C606 N610 1.427 . S
C607 H597 0.929 . S
C607 C605 1.433 . S
C607 N610 1.384 . S
C608 H599 0.929 . S
C608 C600 1.378 . S
C608 C603 1.350 . S
C609 H596 0.929 . S
C609 C601 1.433 . S
C609 N611 1.384 . S
N610 C606 1.427 . S
N610 C607 1.384 . S
N611 C603 1.427 . S
N611 C609 1.384 . S
H612 C618 0.930 . S
H613 C622 0.930 . S
H614 C627 0.929 . S
H615 C625 0.929 . S
H616 C620 0.929 . S
H617 C626 0.929 . S
C618 H612 0.930 . S
C618 C619 1.367 . S
C618 C626 1.378 . S
C619 C618 1.367 . S
C619 C627 1.433 . S
C620 H616 0.929 . S
C620 C622 1.378 . S
C620 C624 1.350 . S
C621 C624 1.463 . S
C621 C626 1.350 . S
C621 N629 1.427 . S
C622 H613 0.930 . S
C622 C620 1.378 . S
C622 C623 1.367 . S
C623 C622 1.367 . S
C623 C625 1.433 . S
C624 C620 1.350 . S
C624 C621 1.463 . S
C624 N628 1.427 . S
C625 H615 0.929 . S
C625 C623 1.433 . S
C625 N628 1.384 . S
C626 H617 0.929 . S
C626 C618 1.378 . S
C626 C621 1.350 . S
C627 H614 0.929 . S
C627 C619 1.433 . S
C627 N629 1.384 . S
N628 C624 1.427 . S
N628 C625 1.384 . S
N629 C621 1.427 . S
N629 C627 1.384 . S
H630 C636 0.930 . S
H631 C640 0.930 . S
H632 C645 0.929 . S
H633 C643 0.929 . S
H634 C638 0.929 . S
H635 C644 0.929 . S
C636 H630 0.930 . S
C636 C637 1.367 . S
C636 C644 1.378 . S
C637 C636 1.367 . S
C637 C645 1.433 . S
C638 H634 0.929 . S
C638 C640 1.378 . S
C638 C642 1.350 . S
C639 C642 1.463 . S
C639 C644 1.350 . S
C639 N647 1.427 . S
C640 H631 0.930 . S
C640 C638 1.378 . S
C640 C641 1.367 . S
C641 C640 1.367 . S
C641 C643 1.433 . S
C642 C638 1.350 . S
C642 C639 1.463 . S
C642 N646 1.427 . S
C643 H633 0.929 . S
C643 C641 1.433 . S
C643 N646 1.384 . S
C644 H635 0.929 . S
C644 C636 1.378 . S
C644 C639 1.350 . S
C645 H632 0.929 . S
C645 C637 1.433 . S
C645 N647 1.384 . S
N646 C642 1.427 . S
N646 C643 1.384 . S
N647 C639 1.427 . S
N647 C645 1.384 . S
H648 C654 0.930 . S
H649 C658 0.930 . S
H650 C663 0.929 . S
H651 C661 0.929 . S
H652 C656 0.929 . S
H653 C662 0.929 . S
C654 H648 0.930 . S
C654 C655 1.367 . S
C654 C662 1.378 . S
C655 C654 1.367 . S
C655 C663 1.433 . S
C656 H652 0.929 . S
C656 C658 1.378 . S
C656 C660 1.350 . S
C657 C660 1.463 . S
C657 C662 1.350 . S
C657 N665 1.427 . S
C658 H649 0.930 . S
C658 C656 1.378 . S
C658 C659 1.367 . S
C659 C658 1.367 . S
C659 C661 1.433 . S
C660 C656 1.350 . S
C660 C657 1.463 . S
C660 N664 1.427 . S
C661 H651 0.929 . S
C661 C659 1.433 . S
C661 N664 1.384 . S
C662 H653 0.929 . S
C662 C654 1.378 . S
C662 C657 1.350 . S
C663 H650 0.929 . S
C663 C655 1.433 . S
C663 N665 1.384 . S
N664 C660 1.427 . S
N664 C661 1.384 . S
N665 C657 1.427 . S
N665 C663 1.384 . S
H666 C672 0.930 . S
H667 C676 0.930 . S
H668 C681 0.929 . S
H669 C679 0.929 . S
H670 C674 0.929 . S
H671 C680 0.929 . S
C672 H666 0.930 . S
C672 C673 1.367 . S
C672 C680 1.378 . S
C673 C672 1.367 . S
C673 C681 1.433 . S
C674 H670 0.929 . S
C674 C676 1.378 . S
C674 C678 1.350 . S
C675 C678 1.463 . S
C675 C680 1.350 . S
C675 N683 1.427 . S
C676 H667 0.930 . S
C676 C674 1.378 . S
C676 C677 1.367 . S
C677 C676 1.367 . S
C677 C679 1.433 . S
C678 C674 1.350 . S
C678 C675 1.463 . S
C678 N682 1.427 . S
C679 H669 0.929 . S
C679 C677 1.433 . S
C679 N682 1.384 . S
C680 H671 0.929 . S
C680 C672 1.378 . S
C680 C675 1.350 . S
C681 H668 0.929 . S
C681 C673 1.433 . S
C681 N683 1.384 . S
N682 C678 1.427 . S
N682 C679 1.384 . S
N683 C675 1.427 . S
N683 C681 1.384 . S
H684 C690 0.930 . S
H685 C694 0.930 1_655 S
H686 C699 0.929 . S
H687 C697 0.929 . S
H688 C692 0.919 1_655 S
H689 C698 0.929 . S
C690 H684 0.930 . S
C690 C691 1.367 . S
C690 C698 1.378 . S
C691 C690 1.367 . S
C691 C699 1.433 1_455 S
C692 H688 0.919 1_455 S
C692 C694 1.378 . S
C692 C696 1.359 . S
C693 C696 1.463 . S
C693 C698 1.350 . S
C693 N701 1.427 1_455 S
C694 H685 0.930 1_455 S
C694 C692 1.378 . S
C694 C695 1.367 . S
C695 C694 1.367 . S
C695 C697 1.433 . S
C696 C692 1.359 . S
C696 C693 1.463 . S
C696 N700 1.427 . S
C697 H687 0.929 . S
C697 C695 1.433 . S
C697 N700 1.384 . S
C698 H689 0.929 . S
C698 C690 1.378 . S
C698 C693 1.350 . S
C699 H686 0.929 . S
C699 C691 1.433 1_655 S
C699 N701 1.384 . S
N700 C696 1.427 . S
N700 C697 1.384 . S
N701 C693 1.427 1_655 S
N701 C699 1.384 . S
H702 C708 0.930 . S
H703 C712 0.930 . S
H704 C717 0.929 . S
H705 C715 0.929 . S
H706 C710 0.929 . S
H707 C716 0.929 . S
C708 H702 0.930 . S
C708 C709 1.367 . S
C708 C716 1.378 . S
C709 C708 1.367 . S
C709 C717 1.433 . S
C710 H706 0.929 . S
C710 C712 1.378 . S
C710 C714 1.350 . S
C711 C714 1.463 . S
C711 C716 1.350 . S
C711 N719 1.427 . S
C712 H703 0.930 . S
C712 C710 1.378 . S
C712 C713 1.367 . S
C713 C712 1.367 . S
C713 C715 1.433 . S
C714 C710 1.350 . S
C714 C711 1.463 . S
C714 N718 1.427 . S
C715 H705 0.929 . S
C715 C713 1.433 . S
C715 N718 1.384 . S
C716 H707 0.929 . S
C716 C708 1.378 . S
C716 C711 1.350 . S
C717 H704 0.929 . S
C717 C709 1.433 . S
C717 N719 1.384 . S
N718 C714 1.427 . S
N718 C715 1.384 . S
N719 C711 1.427 . S
N719 C717 1.384 . S
H720 C726 0.907 1_565 S
H721 C730 0.930 . S
H722 C735 0.929 . S
H723 C733 0.929 . S
H724 C728 0.929 . S
H725 C734 0.941 . S
C726 H720 0.907 1_545 S
C726 C727 1.395 . S
C726 C734 1.374 1_545 S
C727 C726 1.395 . S
C727 C735 1.433 . S
C728 H724 0.929 . S
C728 C730 1.378 . S
C728 C732 1.350 . S
C729 C732 1.463 . S
C729 C734 1.339 1_545 S
C729 N737 1.427 . S
C730 H721 0.930 . S
C730 C728 1.378 . S
C730 C731 1.367 . S
C731 C730 1.367 . S
C731 C733 1.433 1_545 S
C732 C728 1.350 . S
C732 C729 1.463 . S
C732 N736 1.427 1_545 S
C733 H723 0.929 . S
C733 C731 1.433 1_565 S
C733 N736 1.384 . S
C734 H725 0.941 . S
C734 C726 1.374 1_565 S
C734 C729 1.339 1_565 S
C735 H722 0.929 . S
C735 C727 1.433 . S
C735 N737 1.384 . S
N736 C732 1.427 1_565 S
N736 C733 1.384 . S
N737 C729 1.427 . S
N737 C735 1.384 . S
H738 C744 0.930 . S
H739 C748 0.930 . S
H740 C753 0.929 . S
H741 C751 0.929 . S
H742 C746 0.929 . S
H743 C752 0.929 . S
C744 H738 0.930 . S
C744 C745 1.367 . S
C744 C752 1.378 . S
C745 C744 1.367 . S
C745 C753 1.433 . S
C746 H742 0.929 . S
C746 C748 1.378 1_556 S
C746 C750 1.350 . S
C747 C750 1.463 . S
C747 C752 1.350 . S
C747 N755 1.427 . S
C748 H739 0.930 . S
C748 C746 1.378 1_554 S
C748 C749 1.367 . S
C749 C748 1.367 . S
C749 C751 1.433 . S
C750 C746 1.350 . S
C750 C747 1.463 . S
C750 N754 1.427 . S
C751 H741 0.929 . S
C751 C749 1.433 . S
C751 N754 1.384 1_554 S
C752 H743 0.929 . S
C752 C744 1.378 . S
C752 C747 1.350 . S
C753 H740 0.929 . S
C753 C745 1.433 . S
C753 N755 1.384 . S
N754 C750 1.427 . S
N754 C751 1.384 1_556 S
N755 C747 1.427 . S
N755 C753 1.384 . S
H756 C762 0.930 . S
H757 C766 0.930 . S
H758 C771 0.929 . S
H759 C769 0.929 . S
H760 C764 0.929 . S
H761 C770 0.929 . S
C762 H756 0.930 . S
C762 C763 1.367 . S
C762 C770 1.378 . S
C763 C762 1.367 . S
C763 C771 1.433 . S
C764 H760 0.929 . S
C764 C766 1.378 1_556 S
C764 C768 1.350 . S
C765 C768 1.463 . S
C765 C770 1.350 . S
C765 N773 1.427 . S
C766 H757 0.930 . S
C766 C764 1.378 1_554 S
C766 C767 1.367 . S
C767 C766 1.367 . S
C767 C769 1.433 . S
C768 C764 1.350 . S
C768 C765 1.463 . S
C768 N772 1.427 . S
C769 H759 0.929 . S
C769 C767 1.433 . S
C769 N772 1.384 1_554 S
C770 H761 0.929 . S
C770 C762 1.378 . S
C770 C765 1.350 . S
C771 H758 0.929 . S
C771 C763 1.433 . S
C771 N773 1.384 . S
N772 C768 1.427 . S
N772 C769 1.384 1_556 S
N773 C765 1.427 . S
N773 C771 1.384 . S
H774 C780 0.930 . S
H775 C784 0.930 . S
H776 C789 0.929 . S
H777 C787 0.929 . S
H778 C782 0.929 . S
H779 C788 0.929 . S
C780 H774 0.930 . S
C780 C781 1.367 . S
C780 C788 1.378 . S
C781 C780 1.367 . S
C781 C789 1.433 . S
C782 H778 0.929 . S
C782 C784 1.378 1_556 S
C782 C786 1.350 . S
C783 C786 1.463 . S
C783 C788 1.350 . S
C783 N791 1.427 . S
C784 H775 0.930 . S
C784 C782 1.378 1_554 S
C784 C785 1.367 . S
C785 C784 1.367 . S
C785 C787 1.433 . S
C786 C782 1.350 . S
C786 C783 1.463 . S
C786 N790 1.427 . S
C787 H777 0.929 . S
C787 C785 1.433 . S
C787 N790 1.384 1_554 S
C788 H779 0.929 . S
C788 C780 1.378 . S
C788 C783 1.350 . S
C789 H776 0.929 . S
C789 C781 1.433 . S
C789 N791 1.384 . S
N790 C786 1.427 . S
N790 C787 1.384 1_556 S
N791 C783 1.427 . S
N791 C789 1.384 . S
H792 C798 0.930 . S
H793 C802 0.930 . S
H794 C807 0.929 . S
H795 C805 0.929 . S
H796 C800 0.929 . S
H797 C806 0.929 . S
C798 H792 0.930 . S
C798 C799 1.367 . S
C798 C806 1.378 . S
C799 C798 1.367 . S
C799 C807 1.433 . S
C800 H796 0.929 . S
C800 C802 1.378 1_554 S
C800 C804 1.350 . S
C801 C804 1.463 . S
C801 C806 1.350 . S
C801 N809 1.427 . S
C802 H793 0.930 . S
C802 C800 1.378 1_556 S
C802 C803 1.367 . S
C803 C802 1.367 . S
C803 C805 1.433 . S
C804 C800 1.350 . S
C804 C801 1.463 . S
C804 N808 1.427 . S
C805 H795 0.929 . S
C805 C803 1.433 . S
C805 N808 1.384 1_556 S
C806 H797 0.929 . S
C806 C798 1.378 . S
C806 C801 1.350 . S
C807 H794 0.929 . S
C807 C799 1.433 . S
C807 N809 1.384 . S
N808 C804 1.427 . S
N808 C805 1.384 1_554 S
N809 C801 1.427 . S
N809 C807 1.384 . S
H810 C816 0.930 . S
H811 C820 0.930 . S
H812 C825 0.929 . S
H813 C823 0.929 . S
H814 C818 0.929 . S
H815 C824 0.929 . S
C816 H810 0.930 . S
C816 C817 1.367 . S
C816 C824 1.378 1_556 S
C817 C816 1.367 . S
C817 C825 1.433 . S
C818 H814 0.929 . S
C818 C820 1.378 . S
C818 C822 1.350 . S
C819 C822 1.463 . S
C819 C824 1.350 . S
C819 N827 1.427 . S
C820 H811 0.930 . S
C820 C818 1.378 . S
C820 C821 1.367 . S
C821 C820 1.367 . S
C821 C823 1.433 . S
C822 C818 1.350 . S
C822 C819 1.463 . S
C822 N826 1.427 . S
C823 H813 0.929 . S
C823 C821 1.433 . S
C823 N826 1.384 . S
C824 H815 0.929 . S
C824 C816 1.378 1_554 S
C824 C819 1.350 . S
C825 H812 0.929 . S
C825 C817 1.433 . S
C825 N827 1.384 1_556 S
N826 C822 1.427 . S
N826 C823 1.384 . S
N827 C819 1.427 . S
N827 C825 1.384 1_554 S
H828 C834 0.930 . S
H829 C838 0.930 . S
H830 C843 0.929 . S
H831 C841 0.929 . S
H832 C836 0.929 . S
H833 C842 0.929 . S
C834 H828 0.930 . S
C834 C835 1.367 . S
C834 C842 1.378 . S
C835 C834 1.367 . S
C835 C843 1.433 . S
C836 H832 0.929 . S
C836 C838 1.378 1_554 S
C836 C840 1.350 . S
C837 C840 1.463 . S
C837 C842 1.350 . S
C837 N845 1.427 . S
C838 H829 0.930 . S
C838 C836 1.378 1_556 S
C838 C839 1.367 . S
C839 C838 1.367 . S
C839 C841 1.433 . S
C840 C836 1.350 . S
C840 C837 1.463 . S
C840 N844 1.427 . S
C841 H831 0.929 . S
C841 C839 1.433 . S
C841 N844 1.384 1_556 S
C842 H833 0.929 . S
C842 C834 1.378 . S
C842 C837 1.350 . S
C843 H830 0.929 . S
C843 C835 1.433 . S
C843 N845 1.384 . S
N844 C840 1.427 . S
N844 C841 1.384 1_554 S
N845 C837 1.427 . S
N845 C843 1.384 . S
C367 C6 1.992 1_556 S
C371 C290 2.050 . S
C385 C46 1.993 1_556 S
C389 C330 2.050 . S
C403 C86 1.992 1_556 S
C407 C250 2.050 . S
C421 C166 1.990 . S
C425 C90 2.051 . S
C439 C206 1.997 . S
C443 C10 2.051 . S
C457 C50 2.051 . S
C461 C126 1.990 . S
C475 C286 2.001 . S
C479 C210 2.054 . S
C493 C326 1.997 . S
C497 C130 2.051 . S
C511 C170 2.050 . S
C515 C246 1.992 1_545 S
C529 C95 1.689 . S
C533 C19 1.680 . S
C547 C59 1.677 . S
C551 C15 1.686 1_556 S
C565 C55 1.691 1_455 S
C569 C99 1.677 . S
C583 C139 1.678 . S
C587 C215 1.691 . S
C601 C135 1.691 . S
C605 C179 1.673 . S
C619 C175 1.691 . S
C623 C219 1.674 . S
C637 C335 1.688 . S
C641 C259 1.674 . S
C655 C299 1.673 . S
C659 C255 1.690 . S
C673 C339 1.674 . S
C677 C295 1.688 . S
C691 C9 0.944 . S
C695 C18 0.944 . S
C709 C49 0.957 . S
C713 C58 0.957 . S
C727 C89 0.943 . S
C731 C98 0.943 . S
C745 C138 0.957 . S
C749 C129 0.957 . S
C763 C178 0.944 . S
C767 C169 0.944 . S
C781 C218 0.936 . S
C785 C209 0.936 . S
C799 C249 0.936 . S
C803 C258 0.936 . S
C817 C298 0.957 . S
C821 C289 0.957 . S
C835 C329 0.961 . S
C839 C338 0.961 . S
