# Generated by pormake.
# Topology eci, (8)-cn, num edge types: 1
# Building blocks:
#     Node 0, Type 0, BuildingBlock: AJUNOK_clean_sbu_0, # of connection points: 8
#     Node 1, Type 0, BuildingBlock: AJUNOK_clean_sbu_0, # of connection points: 8
#     Node 2, Type 0, BuildingBlock: AJUNOK_clean_sbu_0, # of connection points: 8
#     Node 3, Type 0, BuildingBlock: AJUNOK_clean_sbu_0, # of connection points: 8
#     Edge 4, Type (0, 0), BuildingBlock: AJUNOK_clean_linker_0, # of connection points: 2
#     Edge 5, Type (0, 0), BuildingBlock: AJUNOK_clean_linker_0, # of connection points: 2
#     Edge 6, Type (0, 0), BuildingBlock: AJUNOK_clean_linker_0, # of connection points: 2
#     Edge 7, Type (0, 0), BuildingBlock: AJUNOK_clean_linker_0, # of connection points: 2
#     Edge 8, Type (0, 0), BuildingBlock: AJUNOK_clean_linker_0, # of connection points: 2
#     Edge 9, Type (0, 0), BuildingBlock: AJUNOK_clean_linker_0, # of connection points: 2
#     Edge 10, Type (0, 0), BuildingBlock: AJUNOK_clean_linker_0, # of connection points: 2
#     Edge 11, Type (0, 0), BuildingBlock: AJUNOK_clean_linker_0, # of connection points: 2
#     Edge 12, Type (0, 0), BuildingBlock: AJUNOK_clean_linker_0, # of connection points: 2
#     Edge 13, Type (0, 0), BuildingBlock: AJUNOK_clean_linker_0, # of connection points: 2
#     Edge 14, Type (0, 0), BuildingBlock: AJUNOK_clean_linker_0, # of connection points: 2
#     Edge 15, Type (0, 0), BuildingBlock: AJUNOK_clean_linker_0, # of connection points: 2
#     Edge 16, Type (0, 0), BuildingBlock: AJUNOK_clean_linker_0, # of connection points: 2
#     Edge 17, Type (0, 0), BuildingBlock: AJUNOK_clean_linker_0, # of connection points: 2
#     Edge 18, Type (0, 0), BuildingBlock: AJUNOK_clean_linker_0, # of connection points: 2
#     Edge 19, Type (0, 0), BuildingBlock: AJUNOK_clean_linker_0, # of connection points: 2
# Relax obj value: 0.381
# Max RMSD: 0.292
# Mean RMSD: 0.292
data_MOF--net-eci--node1-AJUNOK_clean_sbu_0--edge1-AJUNOK_clean_linker_0
_symmetry_space_group_name_H-M    P1
_symmetry_Int_Tables_number       1
_symmetry_cell_setting            triclinic
loop_
_symmetry_equiv_pos_as_xyz
'x, y, z'
_cell_length_a     26.461336
_cell_length_b     26.670418
_cell_length_c     15.075404
_cell_angle_alpha  89.971064
_cell_angle_beta   90.350978
_cell_angle_gamma 89.435331
loop_
_atom_site_label
_atom_site_type_symbol
_atom_site_fract_x
_atom_site_fract_y
_atom_site_fract_z
_atom_type_partial_charge
Cd0 Cd 0.83218 0.78867 0.09833 0.0
Cd1 Cd 0.76908 0.81961 0.828 0.0
C2 C 0.84965 0.67219 0.09372 0.0
N3 N 0.81116 0.7053 0.07945 0.0
C4 C 0.7517 0.63865 0.07067 0.0
C5 C 0.79076 0.60361 0.08714 0.0
C6 C 0.84043 0.62096 0.09628 0.0
C7 C 0.76288 0.6898 0.06687 0.0
H8 H 0.88732 0.68592 0.10647 0.0
H9 H 0.73284 0.71722 0.05842 0.0
C10 C 0.76479 0.89859 0.00717 0.0
C11 C 0.81609 0.92887 0.78348 0.0
C12 C 0.8523 0.96593 0.77117 0.0
C13 C 0.90281 0.95668 0.7963 0.0
C14 C 0.91483 0.91079 0.83725 0.0
C15 C 0.87707 0.87577 0.8514 0.0
N16 N 0.82917 0.88429 0.82156 0.0
H17 H 0.77757 0.93558 0.76198 0.0
H18 H 0.88673 0.84147 0.88465 0.0
C19 C 0.65456 0.83622 0.87606 0.0
N20 N 0.68841 0.79753 0.87894 0.0
C21 C 0.62095 0.73875 0.8935 0.0
C22 C 0.58535 0.77807 0.88524 0.0
C23 C 0.6029 0.82738 0.88034 0.0
C24 C 0.67283 0.74939 0.8897 0.0
H25 H 0.66726 0.87385 0.86294 0.0
H26 H 0.70025 0.71904 0.8884 0.0
C27 C 0.87695 0.74566 0.88718 0.0
C28 C 0.79949 0.78508 0.27545 0.0
N29 N 0.90879 0.82662 0.12931 0.0
C30 C 0.95334 0.81913 0.08614 0.0
C31 C 0.99428 0.85064 0.10324 0.0
C32 C 0.98862 0.88956 0.16507 0.0
C33 C 0.94346 0.89404 0.21232 0.0
C34 C 0.90366 0.86258 0.19222 0.0
C35 C 0.74948 0.81218 0.64321 0.0
O36 O 0.78904 0.86627 0.05276 0.0
O37 O 0.75165 0.88892 0.92809 0.0
O38 O 0.84171 0.76165 0.83679 0.0
O39 O 0.8768 0.75522 0.96966 0.0
O40 O 0.7683 0.79454 0.21293 0.0
O41 O 0.84485 0.77427 0.25468 0.0
O42 O 0.75661 0.7736 0.69063 0.0
O43 O 0.74784 0.85412 0.6826 0.0
H44 H 0.95672 0.79028 0.03623 0.0
H45 H 0.86769 0.86805 0.22434 0.0
H46 H 0.71269 0.62703 0.06564 0.0
H47 H 0.87161 0.59527 0.10896 0.0
H48 H 0.84096 0.00112 0.74083 0.0
H49 H 0.95321 0.90092 0.85577 0.0
H50 H 0.60888 0.70008 0.89573 0.0
H51 H 0.57672 0.85865 0.87334 0.0
H52 H 0.0289 0.84621 0.06594 0.0
H53 H 0.93826 0.92315 0.26165 0.0
Cd54 Cd 0.73724 0.31796 0.36353 0.0
Cd55 Cd 0.68027 0.28779 0.08799 0.0
C56 C 0.8512 0.32813 0.31126 0.0
N57 N 0.81627 0.29107 0.31316 0.0
C58 C 0.88182 0.22862 0.31393 0.0
C59 C 0.91855 0.26644 0.31697 0.0
C60 C 0.9026 0.31662 0.31214 0.0
C61 C 0.83038 0.24188 0.31211 0.0
H62 H 0.83953 0.36683 0.31796 0.0
H63 H 0.80198 0.21315 0.31752 0.0
C64 C 0.62003 0.26474 0.2928 0.0
C65 C 0.5587 0.30897 0.05402 0.0
C66 C 0.5173 0.33871 0.02839 0.0
C67 C 0.5256 0.38238 -0.02104 0.0
C68 C 0.57459 0.39343 0.95094 0.0
C69 C 0.61457 0.3625 -0.02286 0.0
N70 N 0.60628 0.32258 0.03074 0.0
H71 H 0.55289 0.27645 0.09535 0.0
H72 H 0.6527 0.37127 0.95786 0.0
C73 C 0.66461 0.17255 0.13148 0.0
N74 N 0.70298 0.2059 0.12577 0.0
C75 C 0.76372 0.13908 0.11902 0.0
C76 C 0.72448 0.10385 0.12059 0.0
C77 C 0.67463 0.12122 0.13068 0.0
C78 C 0.752 0.19037 0.12184 0.0
H79 H 0.62584 0.18559 0.13001 0.0
H80 H 0.7816 0.21769 0.11404 0.0
C81 C 0.74432 0.39722 0.18115 0.0
C82 C 0.75504 0.2934 0.54417 0.0
N83 N 0.69028 0.39155 0.38175 0.0
C84 C 0.70308 0.42763 0.44123 0.0
C85 C 0.67162 0.4694 0.45301 0.0
C86 C 0.62683 0.4739 0.40293 0.0
C87 C 0.61556 0.4369 0.34006 0.0
C88 C 0.64813 0.39609 0.33012 0.0
C89 C 0.72197 0.27412 0.91839 0.0
O90 O 0.65608 0.27783 0.34302 0.0
O91 O 0.6231 0.26858 0.20919 0.0
O92 O 0.7214 0.36696 0.13012 0.0
O93 O 0.75406 0.38547 0.26099 0.0
O94 O 0.73323 0.26374 0.49092 0.0
O95 O 0.77019 0.33475 0.51243 0.0
O96 O 0.74675 0.29586 -0.02037 0.0
O97 O 0.67852 0.25741 0.93787 0.0
H98 H 0.73722 0.42375 0.4804 0.0
H99 H 0.63947 0.36767 0.28158 0.0
H100 H 0.89271 0.18945 0.31851 0.0
H101 H 0.92942 0.34692 0.31737 0.0
H102 H 0.47977 0.32933 0.05097 0.0
H103 H 0.58204 0.4267 0.91204 0.0
H104 H 0.80258 0.12741 0.10909 0.0
H105 H 0.64333 0.09536 0.1321 0.0
H106 H 0.68157 0.49735 0.50203 0.0
H107 H 0.58095 0.43834 0.30138 0.0
Cd108 Cd 0.23333 0.19332 0.35996 0.0
Cd109 Cd 0.2053 0.21177 0.61884 0.0
C110 C 0.34566 0.17432 0.4224 0.0
N111 N 0.31309 0.2138 0.41375 0.0
C112 C 0.38192 0.27122 0.41356 0.0
C113 C 0.41621 0.23065 0.4164 0.0
C114 C 0.39753 0.182 0.42515 0.0
C115 C 0.32993 0.2618 0.41152 0.0
H116 H 0.33199 0.13644 0.41801 0.0
H117 H 0.30339 0.2923 0.40026 0.0
C118 C 0.12553 0.23814 0.44312 0.0
C119 C 0.10598 0.17373 0.72589 0.0
C120 C 0.06706 0.14161 0.74979 0.0
C121 C 0.05931 0.09768 0.70085 0.0
C122 C 0.09029 0.08708 0.62827 0.0
C123 C 0.12923 0.11976 0.60764 0.0
N124 N 0.13656 0.16199 0.65654 0.0
H125 H 0.11186 0.20771 0.76325 0.0
H126 H 0.1536 0.11149 0.5524 0.0
C127 C 0.18485 0.32601 0.56448 0.0
N128 N 0.22465 0.29396 0.57663 0.0
C129 C 0.28072 0.36314 0.5955 0.0
C130 C 0.23977 0.39663 0.58662 0.0
C131 C 0.19177 0.37773 0.56783 0.0
C132 C 0.27223 0.31142 0.5903 0.0
H133 H 0.14688 0.31177 0.56086 0.0
H134 H 0.30271 0.28529 0.60477 0.0
C135 C 0.25553 0.10639 0.52766 0.0
C136 C 0.25205 0.21882 0.17954 0.0
N137 N 0.18847 0.1229 0.31579 0.0
C138 C 0.20824 0.08977 0.25629 0.0
C139 C 0.1795 0.04942 0.22634 0.0
C140 C 0.13023 0.04371 0.25799 0.0
C141 C 0.11172 0.07711 0.32204 0.0
C142 C 0.14154 0.11674 0.34979 0.0
C143 C 0.23409 0.22766 0.79859 0.0
O144 O 0.16365 0.2508 0.39792 0.0
O145 O 0.13165 0.21846 0.51917 0.0
O146 O 0.26095 0.14071 0.58506 0.0
O147 O 0.24083 0.1166 0.44936 0.0
O148 O 0.21869 0.24129 0.22504 0.0
O149 O 0.27812 0.18547 0.21929 0.0
O150 O 0.25913 0.19937 0.74719 0.0
O151 O 0.19559 0.24975 0.7655 0.0
H152 H 0.24602 0.09493 0.23131 0.0
H153 H 0.12712 0.14258 0.39839 0.0
H154 H 0.39511 0.30921 0.40477 0.0
H155 H 0.42291 0.14987 0.42621 0.0
H156 H 0.0433 0.15085 0.80586 0.0
H157 H 0.08509 0.05339 0.58926 0.0
H158 H 0.31797 0.37663 0.61286 0.0
H159 H 0.15918 0.40257 0.56376 0.0
H160 H 0.19493 0.02394 0.17732 0.0
H161 H 0.07423 0.07299 0.34944 0.0
Cd162 Cd 0.30774 0.70597 0.59402 0.0
Cd163 Cd 0.2584 0.68696 0.86993 0.0
C164 C 0.33584 0.81958 0.59476 0.0
N165 N 0.29604 0.79154 0.62131 0.0
C166 C 0.24594 0.86564 0.64331 0.0
C167 C 0.28594 0.89518 0.6125 0.0
C168 C 0.33165 0.87162 0.59006 0.0
C169 C 0.2517 0.81333 0.64652 0.0
H170 H 0.37017 0.80118 0.57283 0.0
H171 H 0.22008 0.79017 0.66432 0.0
C172 C 0.24706 0.6018 0.71619 0.0
C173 C 0.30397 0.58744 0.96336 0.0
C174 C 0.33563 0.54615 -0.02182 0.0
C175 C 0.37448 0.53592 0.91818 0.0
C176 C 0.38096 0.56694 0.84442 0.0
C177 C 0.34866 0.60792 0.83238 0.0
N178 N 0.31107 0.61739 0.8915 0.0
H179 H 0.27398 0.59569 0.0095 0.0
H180 H 0.35345 0.63207 0.77562 0.0
C181 C 0.1629 0.70147 0.72845 0.0
N182 N 0.18837 0.7239 0.79641 0.0
C183 C 0.1126 0.76473 0.84435 0.0
C184 C 0.0847 0.73699 0.78256 0.0
C185 C 0.11045 0.70745 0.72049 0.0
C186 C 0.16481 0.7576 0.85011 0.0
H187 H 0.18159 0.67502 0.68581 0.0
H188 H 0.18541 0.77423 0.90459 0.0
C189 C 0.37689 0.73592 0.78655 0.0
C190 C 0.26151 0.71723 0.42549 0.0
N191 N 0.3781 0.6632 0.54341 0.0
C192 C 0.41289 0.68554 0.49084 0.0
C193 C 0.45552 0.65865 0.46301 0.0
C194 C 0.46207 0.60868 0.49036 0.0
C195 C 0.42542 0.58677 0.5445 0.0
C196 C 0.38355 0.6149 0.57049 0.0
C197 C 0.23362 0.70935 0.05078 0.0
O198 O 0.26785 0.63727 0.67408 0.0
O199 O 0.23278 0.60989 0.79521 0.0
O200 O 0.34226 0.72485 0.84129 0.0
O201 O 0.37081 0.73008 0.70353 0.0
O202 O 0.2384 0.69418 0.48686 0.0
O203 O 0.30525 0.73371 0.44315 0.0
O204 O 0.26246 0.7367 0.00514 0.0
O205 O 0.21503 0.67162 0.01174 0.0
H206 H 0.40779 0.7243 0.47134 0.0
H207 H 0.35552 0.59836 0.61299 0.0
H208 H 0.20979 0.88253 0.65967 0.0
H209 H 0.36322 0.89314 0.5658 0.0
H210 H 0.33034 0.52288 0.03624 0.0
H211 H 0.41109 0.55993 0.79753 0.0
H212 H 0.09364 0.78771 0.89347 0.0
H213 H 0.08986 0.68551 0.67209 0.0
H214 H 0.48349 0.67692 0.42237 0.0
H215 H 0.4292 0.54825 0.56664 0.0
C216 C 0.74077 0.77255 0.40279 0.0
C217 C 0.78548 0.7928 0.36849 0.0
C218 C 0.72789 0.77978 0.49222 0.0
C219 C 0.75816 0.80948 0.5477 0.0
H220 H 0.71658 0.74989 0.36108 0.0
H221 H 0.69449 0.76193 0.5182 0.0
S222 S 0.87752 0.87232 0.48857 0.0
N223 N 0.85958 0.84372 0.39669 0.0
N224 N 0.83375 0.85969 0.56262 0.0
C225 C 0.80188 0.83113 0.51324 0.0
C226 C 0.81597 0.82222 0.42391 0.0
C227 C 0.72544 0.24466 0.67416 0.0
C228 C 0.7563 0.28276 0.64034 0.0
C229 C 0.71709 0.24008 0.76522 0.0
C230 C 0.73988 0.27292 0.82593 0.0
H231 H 0.70498 0.22 0.62989 0.0
H232 H 0.69075 0.21202 0.78777 0.0
S233 S 0.83122 0.3731 0.77258 0.0
N234 N 0.81496 0.34967 0.67526 0.0
N235 N 0.7998 0.34062 0.84704 0.0
C236 C 0.7745 0.30817 0.79378 0.0
C237 C 0.78256 0.31323 0.70071 0.0
C238 C 0.21805 0.26353 0.94872 0.0
C239 C 0.24624 0.23104 0.8943 0.0
C240 C 0.22274 0.26161 0.04116 0.0
C241 C 0.25568 0.22701 0.08272 0.0
H242 H 0.19051 0.28925 0.92007 0.0
H243 H 0.19848 0.28584 0.08025 0.0
S244 S 0.34344 0.13874 0.96964 0.0
N245 N 0.31252 0.16712 0.88823 0.0
N246 N 0.3212 0.16346 0.06202 0.0
C247 C 0.28693 0.19697 0.02891 0.0
C248 C 0.28222 0.19899 0.93465 0.0
C249 C 0.2125 0.6773 0.20185 0.0
C250 C 0.22805 0.71718 0.1474 0.0
C251 C 0.21905 0.67924 0.29422 0.0
C252 C 0.2415 0.72101 0.33448 0.0
H253 H 0.19866 0.64292 0.1727 0.0
H254 H 0.21032 0.64634 0.33323 0.0
S255 S 0.27619 0.84002 0.22466 0.0
N256 N 0.25743 0.80339 0.14277 0.0
N257 N 0.27041 0.80649 0.31609 0.0
C258 C 0.252 0.76309 0.28208 0.0
C259 C 0.24503 0.76134 0.18842 0.0
C260 C 0.45855 0.78011 0.76646 0.0
C261 C 0.42792 0.74964 0.81937 0.0
C262 C 0.50886 0.78949 0.78972 0.0
C263 C 0.53108 0.76826 0.86629 0.0
H264 H 0.44372 0.79638 0.70566 0.0
H265 H 0.53102 0.81264 0.74585 0.0
S266 S 0.46763 0.68515 0.02734 0.0
N267 N 0.42349 0.69809 0.9525 0.0
N268 N 0.5186 0.71547 -0.00449 0.0
C269 C 0.501 0.73784 0.9203 0.0
C270 C 0.44927 0.72877 0.89724 0.0
C271 C 0.70381 0.02678 0.03417 0.0
C272 C 0.73406 0.05021 0.09885 0.0
C273 C 0.71341 0.97747 0.00704 0.0
C274 C 0.75352 0.94919 0.04364 0.0
H275 H 0.67321 0.04721 0.00204 0.0
H276 H 0.68945 0.96161 0.95594 0.0
S277 S 0.84329 0.9927 0.21706 0.0
N278 N 0.80498 0.04109 0.20075 0.0
N279 N 0.82357 0.94837 0.14902 0.0
C280 C 0.78359 0.97181 0.10967 0.0
C281 C 0.77386 0.02232 0.13717 0.0
C282 C 0.48881 0.21193 0.31762 0.0
C283 C 0.46983 0.23743 0.39224 0.0
C284 C 0.53802 0.21981 0.28769 0.0
C285 C 0.57051 0.25278 0.33214 0.0
H286 H 0.4648 0.18685 0.28019 0.0
H287 H 0.55042 0.20048 0.2284 0.0
S288 S 0.53923 0.32802 0.53226 0.0
N289 N 0.4871 0.29657 0.51062 0.0
N290 N 0.58037 0.31087 0.45575 0.0
C291 C 0.55245 0.27762 0.40847 0.0
C292 C 0.50185 0.2702 0.438 0.0
C293 C 0.28845 0.96803 0.50861 0.0
C294 C 0.27885 0.94951 0.59427 0.0
C295 C 0.2813 0.01886 0.48794 0.0
C296 C 0.26527 0.05338 0.55262 0.0
H297 H 0.30074 0.94277 0.45658 0.0
H298 H 0.28844 0.0312 0.42073 0.0
S299 S 0.2348 0.02387 0.78702 0.0
N300 N 0.25211 0.96939 0.74408 0.0
N301 N 0.23945 0.06528 0.70602 0.0
C302 C 0.25598 0.03544 0.63893 0.0
C303 C 0.26245 0.98341 0.6595 0.0
C304 C 0.94288 0.75853 0.77133 0.0
C305 C 0.92613 0.73195 0.84665 0.0
C306 C 0.99413 0.75819 0.74702 0.0
C307 C 0.02991 0.7308 0.79664 0.0
H308 H 0.9171 0.78292 0.73507 0.0
H309 H 0.00618 0.78151 0.69239 0.0
S310 S 1.00466 0.64863 -0.01082 0.0
N311 N 0.94889 0.67299 0.96317 0.0
N312 N 0.04479 0.67188 0.91686 0.0
C313 C 0.0131 0.70096 0.86707 0.0
C314 C 0.96126 0.70157 0.89214 0.0
C315 C 0.791 0.47716 0.20198 0.0
C316 C 0.75757 0.4484 0.15043 0.0
C317 C 0.80181 0.52678 0.17991 0.0
C318 C 0.77972 0.55006 0.10523 0.0
H319 H 0.80865 0.46153 0.26098 0.0
H320 H 0.82685 0.54747 0.2233 0.0
S321 S 0.69072 0.49142 0.9462 0.0
N322 N 0.70297 0.44703 0.01988 0.0
N323 N 0.72401 0.54038 -0.0222 0.0
C324 C 0.74682 0.52179 0.05202 0.0
C325 C 0.73576 0.47095 0.07452 0.0
C326 C 0.98312 0.22566 0.41558 0.0
C327 C 0.97213 0.25494 0.34019 0.0
C328 C 0.03268 0.22067 0.44811 0.0
C329 C 0.07346 0.24458 0.40638 0.0
H330 H 0.95292 0.208 0.45196 0.0
H331 H 0.03887 0.19809 0.50701 0.0
S332 S 0.06502 0.32251 0.2023 0.0
N333 N 0.00613 0.30593 0.22157 0.0
N334 N 0.09938 0.29664 0.2822 0.0
C335 C 0.06313 0.27263 0.32896 0.0
C336 C 0.01252 0.27783 0.29611 0.0
C337 C 0.23513 0.46028 0.70574 0.0
C338 C 0.24414 0.44917 0.61626 0.0
C339 C 0.2353 0.50976 0.7365 0.0
C340 C 0.24454 0.55026 0.67892 0.0
H341 H 0.22749 0.43035 0.7523 0.0
H342 H 0.22864 0.51611 0.80645 0.0
S343 S 0.26999 0.54036 0.4374 0.0
N344 N 0.26227 0.48172 0.46979 0.0
N345 N 0.2628 0.57529 0.52703 0.0
C346 C 0.25374 0.53945 0.5888 0.0
C347 C 0.25343 0.48876 0.55757 0.0
C348 C 0.11106 0.95357 0.22703 0.0
C349 C 0.09682 0.00449 0.22271 0.0
C350 C 0.07663 0.91592 0.20409 0.0
C351 C 0.02727 0.92844 0.17647 0.0
H352 H 0.1481 0.94281 0.25194 0.0
H353 H 0.08783 0.87697 0.21186 0.0
S354 S 0.97464 0.05632 0.141 0.0
N355 N 0.03246 0.06544 0.17904 0.0
N356 N 0.96785 0.99491 0.13653 0.0
C357 C 0.01386 0.97923 0.16691 0.0
C358 C 0.04867 0.01726 0.18988 0.0
C359 C 0.575 0.52172 0.5115 0.0
C360 C 0.58925 0.51371 0.42295 0.0
C361 C 0.53487 0.55389 0.53252 0.0
C362 C 0.50753 0.57933 0.46584 0.0
H363 H 0.59353 0.50132 0.56489 0.0
H364 H 0.52438 0.55801 0.60152 0.0
S365 S 0.5321 0.57423 0.22403 0.0
N366 N 0.57519 0.53641 0.26826 0.0
N367 N 0.49882 0.59642 0.30795 0.0
C368 C 0.52261 0.57339 0.37721 0.0
C369 C 0.56362 0.54055 0.3557 0.0
C370 C 0.97944 0.05234 0.66897 0.0
C371 C 0.01977 0.06226 0.72683 0.0
C372 C 0.94166 0.01859 0.69266 0.0
C373 C 0.9429 0.99351 0.77508 0.0
H374 H 0.97713 0.07083 0.60503 0.0
H375 H 0.91178 0.01143 0.64505 0.0
S376 S 0.04338 0.00534 0.9471 0.0
N377 N 0.06095 0.04341 0.867 0.0
N378 N 0.98927 0.9811 0.91402 0.0
C379 C 0.98366 0.00318 0.83324 0.0
C380 C 0.02219 0.03737 0.80854 0.0
C381 C 0.49045 0.46784 0.0014 0.0
C382 C 0.4849 0.41963 0.96509 0.0
C383 C 0.45378 0.50506 -0.01282 0.0
C384 C 0.4107 0.4952 0.9358 0.0
H385 H 0.52354 0.47683 0.04081 0.0
H386 H 0.45941 0.54196 0.01544 0.0
S387 S 0.37827 0.37551 0.82617 0.0
N388 N 0.43287 0.36389 0.87644 0.0
N389 N 0.36387 0.43458 0.84873 0.0
C390 C 0.40428 0.44723 0.89974 0.0
C391 C 0.44145 0.4091 0.91483 0.0
loop_
_geom_bond_atom_site_label_1
_geom_bond_atom_site_label_2
_geom_bond_distance
_geom_bond_site_symmetry_2
_ccdc_geom_bond_type
Cd0 N3 2.334 . S
Cd0 N29 2.304 . S
Cd0 O36 2.268 . S
Cd0 O39 2.273 . S
Cd0 O40 2.417 . S
Cd0 O41 2.330 . S
Cd1 N16 2.304 . S
Cd1 N20 2.334 . S
Cd1 O37 2.273 . S
Cd1 O38 2.268 . S
Cd1 O42 2.417 . S
Cd1 O43 2.330 . S
C2 N3 1.332 . S
C2 C6 1.381 . S
C2 H8 0.931 . S
N3 Cd0 2.334 . S
N3 C2 1.332 . S
N3 C7 1.328 . S
C4 C5 1.396 . S
C4 C7 1.378 . S
C4 H46 0.931 . S
C5 C4 1.396 . S
C5 C6 1.382 . S
C6 C2 1.381 . S
C6 C5 1.382 . S
C6 H47 0.930 . S
C7 N3 1.328 . S
C7 C4 1.378 . S
C7 H9 0.930 . S
H8 C2 0.931 . S
H9 C7 0.930 . S
C10 O36 1.238 . S
C10 O37 1.253 1_554 S
C11 C12 1.379 . S
C11 N16 1.337 . S
C11 H17 0.929 . S
C12 C11 1.379 . S
C12 C13 1.380 . S
C12 H48 0.929 1_565 S
C13 C12 1.380 . S
C13 C14 1.399 . S
C14 C13 1.399 . S
C14 C15 1.376 . S
C14 H49 0.916 1_655 S
C15 C14 1.376 . S
C15 N16 1.338 . S
C15 H18 0.930 . S
N16 Cd1 2.304 . S
N16 C11 1.337 . S
N16 C15 1.338 . S
H17 C11 0.929 . S
H18 C15 0.930 . S
C19 N20 1.332 . S
C19 C23 1.381 . S
C19 H25 0.931 . S
N20 Cd1 2.334 . S
N20 C19 1.332 . S
N20 C24 1.328 . S
C21 C22 1.396 . S
C21 C24 1.378 . S
C21 H50 0.931 . S
C22 C21 1.396 . S
C22 C23 1.382 . S
C23 C19 1.381 . S
C23 C22 1.382 . S
C23 H51 0.930 . S
C24 N20 1.328 . S
C24 C21 1.378 . S
C24 H26 0.930 . S
H25 C19 0.931 . S
H26 C24 0.930 . S
C27 O38 1.238 . S
C27 O39 1.253 1_556 S
C28 O40 1.239 . S
C28 O41 1.230 . S
N29 Cd0 2.304 . S
N29 C30 1.337 . S
N29 C34 1.338 . S
C30 N29 1.337 . S
C30 C31 1.379 . S
C30 H44 0.929 . S
C31 C30 1.379 . S
C31 C32 1.380 . S
C31 H52 0.929 1_655 S
C32 C31 1.380 . S
C32 C33 1.399 . S
C33 C32 1.399 . S
C33 C34 1.376 . S
C33 H53 0.916 1_565 S
C34 N29 1.338 . S
C34 C33 1.376 . S
C34 H45 0.930 . S
C35 O42 1.239 . S
C35 O43 1.230 . S
O36 Cd0 2.268 . S
O36 C10 1.238 . S
O37 Cd1 2.273 . S
O37 C10 1.253 1_556 S
O38 Cd1 2.268 . S
O38 C27 1.238 . S
O39 Cd0 2.273 . S
O39 C27 1.253 1_554 S
O40 Cd0 2.417 . S
O40 C28 1.239 . S
O41 Cd0 2.330 . S
O41 C28 1.230 . S
O42 Cd1 2.417 . S
O42 C35 1.239 . S
O43 Cd1 2.330 . S
O43 C35 1.230 . S
H44 C30 0.929 . S
H45 C34 0.930 . S
H46 C4 0.931 . S
H47 C6 0.930 . S
H48 C12 0.929 1_545 S
H49 C14 0.916 1_455 S
H50 C21 0.931 . S
H51 C23 0.930 . S
H52 C31 0.929 1_455 S
H53 C33 0.916 1_545 S
Cd54 N57 2.334 . S
Cd54 N83 2.304 . S
Cd54 O90 2.268 . S
Cd54 O93 2.273 . S
Cd54 O94 2.417 . S
Cd54 O95 2.330 . S
Cd55 N70 2.304 . S
Cd55 N74 2.334 . S
Cd55 O91 2.273 . S
Cd55 O92 2.268 . S
Cd55 O96 2.417 1_554 S
Cd55 O97 2.330 1_554 S
C56 N57 1.332 . S
C56 C60 1.381 . S
C56 H62 0.931 . S
N57 Cd54 2.334 . S
N57 C56 1.332 . S
N57 C61 1.328 . S
C58 C59 1.396 . S
C58 C61 1.378 . S
C58 H100 0.931 . S
C59 C58 1.396 . S
C59 C60 1.382 . S
C60 C56 1.381 . S
C60 C59 1.382 . S
C60 H101 0.930 . S
C61 N57 1.328 . S
C61 C58 1.378 . S
C61 H63 0.930 . S
H62 C56 0.931 . S
H63 C61 0.930 . S
C64 O90 1.238 . S
C64 O91 1.253 . S
C65 C66 1.379 . S
C65 N70 1.337 . S
C65 H71 0.929 . S
C66 C65 1.379 . S
C66 C67 1.380 . S
C66 H102 0.929 . S
C67 C66 1.380 . S
C67 C68 1.399 . S
C68 C67 1.399 . S
C68 C69 1.376 . S
C68 H103 0.931 . S
C69 C68 1.376 . S
C69 N70 1.338 . S
C69 H72 0.930 . S
N70 Cd55 2.304 . S
N70 C65 1.337 . S
N70 C69 1.338 . S
H71 C65 0.929 . S
H72 C69 0.930 . S
C73 N74 1.332 . S
C73 C77 1.381 . S
C73 H79 0.931 . S
N74 Cd55 2.334 . S
N74 C73 1.332 . S
N74 C78 1.328 . S
C75 C76 1.396 . S
C75 C78 1.378 . S
C75 H104 0.931 . S
C76 C75 1.396 . S
C76 C77 1.382 . S
C77 C73 1.381 . S
C77 C76 1.382 . S
C77 H105 0.930 . S
C78 N74 1.328 . S
C78 C75 1.378 . S
C78 H80 0.930 . S
H79 C73 0.931 . S
H80 C78 0.930 . S
C81 O92 1.238 . S
C81 O93 1.253 . S
C82 O94 1.239 . S
C82 O95 1.230 . S
N83 Cd54 2.304 . S
N83 C84 1.337 . S
N83 C88 1.338 . S
C84 N83 1.337 . S
C84 C85 1.379 . S
C84 H98 0.929 . S
C85 C84 1.379 . S
C85 C86 1.380 . S
C85 H106 0.929 . S
C86 C85 1.380 . S
C86 C87 1.399 . S
C87 C86 1.399 . S
C87 C88 1.376 . S
C87 H107 0.931 . S
C88 N83 1.338 . S
C88 C87 1.376 . S
C88 H99 0.930 . S
C89 O96 1.239 . S
C89 O97 1.230 . S
O90 Cd54 2.268 . S
O90 C64 1.238 . S
O91 Cd55 2.273 . S
O91 C64 1.253 . S
O92 Cd55 2.268 . S
O92 C81 1.238 . S
O93 Cd54 2.273 . S
O93 C81 1.253 . S
O94 Cd54 2.417 . S
O94 C82 1.239 . S
O95 Cd54 2.330 . S
O95 C82 1.230 . S
O96 Cd55 2.417 1_556 S
O96 C89 1.239 . S
O97 Cd55 2.330 1_556 S
O97 C89 1.230 . S
H98 C84 0.929 . S
H99 C88 0.930 . S
H100 C58 0.931 . S
H101 C60 0.930 . S
H102 C66 0.929 . S
H103 C68 0.931 . S
H104 C75 0.931 . S
H105 C77 0.930 . S
H106 C85 0.929 . S
H107 C87 0.931 . S
Cd108 N111 2.334 . S
Cd108 N137 2.304 . S
Cd108 O144 2.268 . S
Cd108 O147 2.273 . S
Cd108 O148 2.417 . S
Cd108 O149 2.330 . S
Cd109 N124 2.304 . S
Cd109 N128 2.334 . S
Cd109 O145 2.273 . S
Cd109 O146 2.268 . S
Cd109 O150 2.417 . S
Cd109 O151 2.330 . S
C110 N111 1.332 . S
C110 C114 1.381 . S
C110 H116 0.931 . S
N111 Cd108 2.334 . S
N111 C110 1.332 . S
N111 C115 1.328 . S
C112 C113 1.396 . S
C112 C115 1.378 . S
C112 H154 0.931 . S
C113 C112 1.396 . S
C113 C114 1.382 . S
C114 C110 1.381 . S
C114 C113 1.382 . S
C114 H155 0.930 . S
C115 N111 1.328 . S
C115 C112 1.378 . S
C115 H117 0.930 . S
H116 C110 0.931 . S
H117 C115 0.930 . S
C118 O144 1.238 . S
C118 O145 1.253 . S
C119 C120 1.379 . S
C119 N124 1.337 . S
C119 H125 0.929 . S
C120 C119 1.379 . S
C120 C121 1.380 . S
C120 H156 0.929 1_455 S
C121 C120 1.380 . S
C121 C122 1.399 . S
C122 C121 1.399 . S
C122 C123 1.376 . S
C122 H157 0.916 1_545 S
C123 C122 1.376 . S
C123 N124 1.338 . S
C123 H126 0.930 . S
N124 Cd109 2.304 . S
N124 C119 1.337 . S
N124 C123 1.338 . S
H125 C119 0.929 . S
H126 C123 0.930 . S
C127 N128 1.332 . S
C127 C131 1.381 . S
C127 H133 0.931 . S
N128 Cd109 2.334 . S
N128 C127 1.332 . S
N128 C132 1.328 . S
C129 C130 1.396 . S
C129 C132 1.378 . S
C129 H158 0.931 . S
C130 C129 1.396 . S
C130 C131 1.382 . S
C131 C127 1.381 . S
C131 C130 1.382 . S
C131 H159 0.930 . S
C132 N128 1.328 . S
C132 C129 1.378 . S
C132 H134 0.930 . S
H133 C127 0.931 . S
H134 C132 0.930 . S
C135 O146 1.238 . S
C135 O147 1.253 . S
C136 O148 1.239 . S
C136 O149 1.230 . S
N137 Cd108 2.304 . S
N137 C138 1.337 . S
N137 C142 1.338 . S
C138 N137 1.337 . S
C138 C139 1.379 . S
C138 H152 0.929 . S
C139 C138 1.379 . S
C139 C140 1.380 . S
C139 H160 0.929 1_545 S
C140 C139 1.380 . S
C140 C141 1.399 . S
C141 C140 1.399 . S
C141 C142 1.376 . S
C141 H161 0.916 1_455 S
C142 N137 1.338 . S
C142 C141 1.376 . S
C142 H153 0.930 . S
C143 O150 1.239 . S
C143 O151 1.230 . S
O144 Cd108 2.268 . S
O144 C118 1.238 . S
O145 Cd109 2.273 . S
O145 C118 1.253 . S
O146 Cd109 2.268 . S
O146 C135 1.238 . S
O147 Cd108 2.273 . S
O147 C135 1.253 . S
O148 Cd108 2.417 . S
O148 C136 1.239 . S
O149 Cd108 2.330 . S
O149 C136 1.230 . S
O150 Cd109 2.417 . S
O150 C143 1.239 . S
O151 Cd109 2.330 . S
O151 C143 1.230 . S
H152 C138 0.929 . S
H153 C142 0.930 . S
H154 C112 0.931 . S
H155 C114 0.930 . S
H156 C120 0.929 1_655 S
H157 C122 0.916 1_565 S
H158 C129 0.931 . S
H159 C131 0.930 . S
H160 C139 0.929 1_565 S
H161 C141 0.916 1_655 S
Cd162 N165 2.334 . S
Cd162 N191 2.304 . S
Cd162 O198 2.268 . S
Cd162 O201 2.273 . S
Cd162 O202 2.417 . S
Cd162 O203 2.330 . S
Cd163 N178 2.304 . S
Cd163 N182 2.334 . S
Cd163 O199 2.273 . S
Cd163 O200 2.268 . S
Cd163 O204 2.417 1_556 S
Cd163 O205 2.330 1_556 S
C164 N165 1.332 . S
C164 C168 1.381 . S
C164 H170 0.931 . S
N165 Cd162 2.334 . S
N165 C164 1.332 . S
N165 C169 1.328 . S
C166 C167 1.396 . S
C166 C169 1.378 . S
C166 H208 0.931 . S
C167 C166 1.396 . S
C167 C168 1.382 . S
C168 C164 1.381 . S
C168 C167 1.382 . S
C168 H209 0.930 . S
C169 N165 1.328 . S
C169 C166 1.378 . S
C169 H171 0.930 . S
H170 C164 0.931 . S
H171 C169 0.930 . S
C172 O198 1.238 . S
C172 O199 1.253 . S
C173 C174 1.379 . S
C173 N178 1.337 . S
C173 H179 0.929 . S
C174 C173 1.379 . S
C174 C175 1.380 . S
C174 H210 0.929 . S
C175 C174 1.380 . S
C175 C176 1.399 . S
C176 C175 1.399 . S
C176 C177 1.376 . S
C176 H211 0.931 . S
C177 C176 1.376 . S
C177 N178 1.338 . S
C177 H180 0.930 . S
N178 Cd163 2.304 . S
N178 C173 1.337 . S
N178 C177 1.338 . S
H179 C173 0.929 . S
H180 C177 0.930 . S
C181 N182 1.332 . S
C181 C185 1.381 . S
C181 H187 0.931 . S
N182 Cd163 2.334 . S
N182 C181 1.332 . S
N182 C186 1.328 . S
C183 C184 1.396 . S
C183 C186 1.378 . S
C183 H212 0.931 . S
C184 C183 1.396 . S
C184 C185 1.382 . S
C185 C181 1.381 . S
C185 C184 1.382 . S
C185 H213 0.930 . S
C186 N182 1.328 . S
C186 C183 1.378 . S
C186 H188 0.930 . S
H187 C181 0.931 . S
H188 C186 0.930 . S
C189 O200 1.238 . S
C189 O201 1.253 . S
C190 O202 1.239 . S
C190 O203 1.230 . S
N191 Cd162 2.304 . S
N191 C192 1.337 . S
N191 C196 1.338 . S
C192 N191 1.337 . S
C192 C193 1.379 . S
C192 H206 0.929 . S
C193 C192 1.379 . S
C193 C194 1.380 . S
C193 H214 0.929 . S
C194 C193 1.380 . S
C194 C195 1.399 . S
C195 C194 1.399 . S
C195 C196 1.376 . S
C195 H215 0.931 . S
C196 N191 1.338 . S
C196 C195 1.376 . S
C196 H207 0.930 . S
C197 O204 1.239 . S
C197 O205 1.230 . S
O198 Cd162 2.268 . S
O198 C172 1.238 . S
O199 Cd163 2.273 . S
O199 C172 1.253 . S
O200 Cd163 2.268 . S
O200 C189 1.238 . S
O201 Cd162 2.273 . S
O201 C189 1.253 . S
O202 Cd162 2.417 . S
O202 C190 1.239 . S
O203 Cd162 2.330 . S
O203 C190 1.230 . S
O204 Cd163 2.417 1_554 S
O204 C197 1.239 . S
O205 Cd163 2.330 1_554 S
O205 C197 1.230 . S
H206 C192 0.929 . S
H207 C196 0.930 . S
H208 C166 0.931 . S
H209 C168 0.930 . S
H210 C174 0.929 . S
H211 C176 0.931 . S
H212 C183 0.931 . S
H213 C185 0.930 . S
H214 C193 0.929 . S
H215 C195 0.931 . S
C216 C217 1.369 . S
C216 C218 1.419 . S
C216 H220 0.930 . S
C217 C216 1.369 . S
C217 C226 1.429 . S
C218 C216 1.419 . S
C218 C219 1.363 . S
C218 H221 0.929 . S
C219 C218 1.363 . S
C219 C225 1.428 . S
H220 C216 0.930 . S
H221 C218 0.929 . S
S222 N223 1.613 . S
S222 N224 1.610 . S
N223 S222 1.613 . S
N223 C226 1.350 . S
N224 S222 1.610 . S
N224 C225 1.351 . S
C225 C219 1.428 . S
C225 N224 1.351 . S
C225 C226 1.434 . S
C226 C217 1.429 . S
C226 N223 1.350 . S
C226 C225 1.434 . S
C227 C228 1.369 . S
C227 C229 1.419 . S
C227 H231 0.930 . S
C228 C227 1.369 . S
C228 C237 1.429 . S
C229 C227 1.419 . S
C229 C230 1.363 . S
C229 H232 0.929 . S
C230 C229 1.363 . S
C230 C236 1.428 . S
H231 C227 0.930 . S
H232 C229 0.929 . S
S233 N234 1.613 . S
S233 N235 1.610 . S
N234 S233 1.613 . S
N234 C237 1.350 . S
N235 S233 1.610 . S
N235 C236 1.351 . S
C236 C230 1.428 . S
C236 N235 1.351 . S
C236 C237 1.434 . S
C237 C228 1.429 . S
C237 N234 1.350 . S
C237 C236 1.434 . S
C238 C239 1.369 . S
C238 C240 1.419 1_556 S
C238 H242 0.930 . S
C239 C238 1.369 . S
C239 C248 1.429 . S
C240 C238 1.419 1_554 S
C240 C241 1.363 . S
C240 H243 0.929 . S
C241 C240 1.363 . S
C241 C247 1.428 . S
H242 C238 0.930 . S
H243 C240 0.929 . S
S244 N245 1.613 . S
S244 N246 1.610 1_556 S
N245 S244 1.613 . S
N245 C248 1.350 . S
N246 S244 1.610 1_554 S
N246 C247 1.351 . S
C247 C241 1.428 . S
C247 N246 1.351 . S
C247 C248 1.434 1_554 S
C248 C239 1.429 . S
C248 N245 1.350 . S
C248 C247 1.434 1_556 S
C249 C250 1.369 . S
C249 C251 1.419 . S
C249 H253 0.930 . S
C250 C249 1.369 . S
C250 C259 1.429 . S
C251 C249 1.419 . S
C251 C252 1.363 . S
C251 H254 0.929 . S
C252 C251 1.363 . S
C252 C258 1.428 . S
H253 C249 0.930 . S
H254 C251 0.929 . S
S255 N256 1.613 . S
S255 N257 1.610 . S
N256 S255 1.613 . S
N256 C259 1.350 . S
N257 S255 1.610 . S
N257 C258 1.351 . S
C258 C252 1.428 . S
C258 N257 1.351 . S
C258 C259 1.434 . S
C259 C250 1.429 . S
C259 N256 1.350 . S
C259 C258 1.434 . S
C260 C261 1.369 . S
C260 C262 1.419 . S
C260 H264 0.930 . S
C261 C260 1.369 . S
C261 C270 1.429 . S
C262 C260 1.419 . S
C262 C263 1.363 . S
C262 H265 0.929 . S
C263 C262 1.363 . S
C263 C269 1.428 . S
H264 C260 0.930 . S
H265 C262 0.929 . S
S266 N267 1.613 . S
S266 N268 1.610 . S
N267 S266 1.613 . S
N267 C270 1.350 . S
N268 S266 1.610 . S
N268 C269 1.351 . S
C269 C263 1.428 . S
C269 N268 1.351 . S
C269 C270 1.434 . S
C270 C261 1.429 . S
C270 N267 1.350 . S
C270 C269 1.434 . S
C271 C272 1.369 . S
C271 C273 1.419 . S
C271 H275 0.930 . S
C272 C271 1.369 . S
C272 C281 1.429 . S
C273 C271 1.419 . S
C273 C274 1.363 1_545 S
C273 H276 0.929 . S
C274 C273 1.363 1_565 S
C274 C280 1.428 1_565 S
H275 C271 0.930 . S
H276 C273 0.929 . S
S277 N278 1.613 . S
S277 N279 1.610 1_545 S
N278 S277 1.613 . S
N278 C281 1.350 . S
N279 S277 1.610 1_565 S
N279 C280 1.351 1_565 S
C280 C274 1.428 1_545 S
C280 N279 1.351 1_545 S
C280 C281 1.434 . S
C281 C272 1.429 . S
C281 N278 1.350 . S
C281 C280 1.434 . S
C282 C283 1.369 . S
C282 C284 1.419 . S
C282 H286 0.930 . S
C283 C282 1.369 . S
C283 C292 1.429 . S
C284 C282 1.419 . S
C284 C285 1.363 . S
C284 H287 0.929 . S
C285 C284 1.363 . S
C285 C291 1.428 . S
H286 C282 0.930 . S
H287 C284 0.929 . S
S288 N289 1.613 . S
S288 N290 1.610 . S
N289 S288 1.613 . S
N289 C292 1.350 . S
N290 S288 1.610 . S
N290 C291 1.351 . S
C291 C285 1.428 . S
C291 N290 1.351 . S
C291 C292 1.434 . S
C292 C283 1.429 . S
C292 N289 1.350 . S
C292 C291 1.434 . S
C293 C294 1.369 . S
C293 C295 1.419 . S
C293 H297 0.930 . S
C294 C293 1.369 . S
C294 C303 1.429 . S
C295 C293 1.419 . S
C295 C296 1.363 1_565 S
C295 H298 0.929 . S
C296 C295 1.363 1_545 S
C296 C302 1.428 1_545 S
H297 C293 0.930 . S
H298 C295 0.929 . S
S299 N300 1.613 . S
S299 N301 1.610 1_565 S
N300 S299 1.613 . S
N300 C303 1.350 . S
N301 S299 1.610 1_545 S
N301 C302 1.351 1_545 S
C302 C296 1.428 1_565 S
C302 N301 1.351 1_565 S
C302 C303 1.434 . S
C303 C294 1.429 . S
C303 N300 1.350 . S
C303 C302 1.434 . S
C304 C305 1.369 1_455 S
C304 C306 1.419 . S
C304 H308 0.930 1_455 S
C305 C304 1.369 1_655 S
C305 C314 1.429 1_655 S
C306 C304 1.419 . S
C306 C307 1.363 . S
C306 H309 0.929 . S
C307 C306 1.363 . S
C307 C313 1.428 . S
H308 C304 0.930 1_655 S
H309 C306 0.929 . S
S310 N311 1.613 . S
S310 N312 1.610 . S
N311 S310 1.613 . S
N311 C314 1.350 . S
N312 S310 1.610 . S
N312 C313 1.351 . S
C313 C307 1.428 . S
C313 N312 1.351 . S
C313 C314 1.434 . S
C314 C305 1.429 1_455 S
C314 N311 1.350 . S
C314 C313 1.434 . S
C315 C316 1.369 . S
C315 C317 1.419 . S
C315 H319 0.930 . S
C316 C315 1.369 . S
C316 C325 1.429 . S
C317 C315 1.419 . S
C317 C318 1.363 . S
C317 H320 0.929 . S
C318 C317 1.363 . S
C318 C324 1.428 . S
H319 C315 0.930 . S
H320 C317 0.929 . S
S321 N322 1.613 . S
S321 N323 1.610 . S
N322 S321 1.613 . S
N322 C325 1.350 . S
N323 S321 1.610 . S
N323 C324 1.351 . S
C324 C318 1.428 . S
C324 N323 1.351 . S
C324 C325 1.434 . S
C325 C316 1.429 . S
C325 N322 1.350 . S
C325 C324 1.434 . S
C326 C327 1.369 . S
C326 C328 1.419 . S
C326 H330 0.930 . S
C327 C326 1.369 . S
C327 C336 1.429 . S
C328 C326 1.419 . S
C328 C329 1.363 1_655 S
C328 H331 0.929 1_655 S
C329 C328 1.363 1_455 S
C329 C335 1.428 1_455 S
H330 C326 0.930 . S
H331 C328 0.929 1_455 S
S332 N333 1.613 . S
S332 N334 1.610 . S
N333 S332 1.613 . S
N333 C336 1.350 . S
N334 S332 1.610 . S
N334 C335 1.351 . S
C335 C329 1.428 1_655 S
C335 N334 1.351 . S
C335 C336 1.434 . S
C336 C327 1.429 . S
C336 N333 1.350 . S
C336 C335 1.434 . S
C337 C338 1.369 . S
C337 C339 1.419 . S
C337 H341 0.930 . S
C338 C337 1.369 . S
C338 C347 1.429 . S
C339 C337 1.419 . S
C339 C340 1.363 . S
C339 H342 0.929 . S
C340 C339 1.363 . S
C340 C346 1.428 . S
H341 C337 0.930 . S
H342 C339 0.929 . S
S343 N344 1.613 . S
S343 N345 1.610 . S
N344 S343 1.613 . S
N344 C347 1.350 . S
N345 S343 1.610 . S
N345 C346 1.351 . S
C346 C340 1.428 . S
C346 N345 1.351 . S
C346 C347 1.434 . S
C347 C338 1.429 . S
C347 N344 1.350 . S
C347 C346 1.434 . S
C348 C349 1.369 . S
C348 C350 1.419 1_455 S
C348 H352 0.930 . S
C349 C348 1.369 . S
C349 C358 1.429 1_565 S
C350 C348 1.419 1_655 S
C350 C351 1.363 1_655 S
C350 H353 0.929 . S
C351 C350 1.363 1_455 S
C351 C357 1.428 1_565 S
H352 C348 0.930 . S
H353 C350 0.929 . S
S354 N355 1.613 . S
S354 N356 1.610 . S
N355 S354 1.613 . S
N355 C358 1.350 . S
N356 S354 1.610 . S
N356 C357 1.351 . S
C357 C351 1.428 1_545 S
C357 N356 1.351 . S
C357 C358 1.434 . S
C358 C349 1.429 1_545 S
C358 N355 1.350 . S
C358 C357 1.434 . S
C359 C360 1.369 . S
C359 C361 1.419 . S
C359 H363 0.930 . S
C360 C359 1.369 . S
C360 C369 1.429 . S
C361 C359 1.419 . S
C361 C362 1.363 . S
C361 H364 0.929 . S
C362 C361 1.363 . S
C362 C368 1.428 . S
H363 C359 0.930 . S
H364 C361 0.929 . S
S365 N366 1.613 . S
S365 N367 1.610 . S
N366 S365 1.613 . S
N366 C369 1.350 . S
N367 S365 1.610 . S
N367 C368 1.351 . S
C368 C362 1.428 . S
C368 N367 1.351 . S
C368 C369 1.434 . S
C369 C360 1.429 . S
C369 N366 1.350 . S
C369 C368 1.434 . S
C370 C371 1.369 . S
C370 C372 1.419 . S
C370 H374 0.930 . S
C371 C370 1.369 . S
C371 C380 1.429 1_655 S
C372 C370 1.419 . S
C372 C373 1.363 . S
C372 H375 0.929 . S
C373 C372 1.363 . S
C373 C379 1.428 1_655 S
H374 C370 0.930 . S
H375 C372 0.929 . S
S376 N377 1.613 . S
S376 N378 1.610 . S
N377 S376 1.613 . S
N377 C380 1.350 . S
N378 S376 1.610 . S
N378 C379 1.351 . S
C379 C373 1.428 1_455 S
C379 N378 1.351 . S
C379 C380 1.434 . S
C380 C371 1.429 1_455 S
C380 N377 1.350 . S
C380 C379 1.434 . S
C381 C382 1.369 . S
C381 C383 1.419 1_554 S
C381 H385 0.930 . S
C382 C381 1.369 . S
C382 C391 1.429 . S
C383 C381 1.419 1_556 S
C383 C384 1.363 . S
C383 H386 0.929 . S
C384 C383 1.363 . S
C384 C390 1.428 . S
H385 C381 0.930 . S
H386 C383 0.929 . S
S387 N388 1.613 1_556 S
S387 N389 1.610 . S
N388 S387 1.613 1_554 S
N388 C391 1.350 . S
N389 S387 1.610 . S
N389 C390 1.351 . S
C390 C384 1.428 . S
C390 N389 1.351 . S
C390 C391 1.434 1_556 S
C391 C382 1.429 . S
C391 N388 1.350 . S
C391 C390 1.434 1_554 S
C217 C28 1.151 . S
C219 C35 1.147 . S
C228 C82 1.152 . S
C230 C89 1.146 . S
C239 C143 1.144 . S
C241 C136 1.152 . S
C250 C197 1.146 . S
C252 C190 1.151 . S
C261 C189 2.454 . S
C263 C22 2.441 . S
C272 C76 2.442 . S
C274 C10 2.451 . S
C283 C113 2.441 . S
C285 C64 2.455 . S
C294 C167 2.442 . S
C296 C135 2.454 . S
C305 C27 2.458 . S
C307 C184 2.435 . S
C316 C81 2.452 . S
C318 C5 2.441 . S
C327 C59 2.436 . S
C329 C118 2.458 . S
C338 C130 2.440 . S
C340 C172 2.455 . S
C349 C140 0.960 1_565 S
C351 C32 0.975 1_455 S
C360 C86 0.978 . S
C362 C194 0.961 . S
C371 C121 0.963 1_655 S
C373 C13 0.974 1_545 S
C382 C67 0.963 . S
C384 C175 0.973 . S
