# Generated by pormake.
# Topology crs, (6)-cn, num edge types: 1
# Building blocks:
#     Node 0, Type 0, BuildingBlock: BETDIP_clean_sbu_0, # of connection points: 6
#     Node 1, Type 0, BuildingBlock: BETDIP_clean_sbu_0, # of connection points: 6
#     Node 2, Type 0, BuildingBlock: BETDIP_clean_sbu_0, # of connection points: 6
#     Node 3, Type 0, BuildingBlock: BETDIP_clean_sbu_0, # of connection points: 6
#     Node 4, Type 0, BuildingBlock: BETDIP_clean_sbu_0, # of connection points: 6
#     Node 5, Type 0, BuildingBlock: BETDIP_clean_sbu_0, # of connection points: 6
#     Node 6, Type 0, BuildingBlock: BETDIP_clean_sbu_0, # of connection points: 6
#     Node 7, Type 0, BuildingBlock: BETDIP_clean_sbu_0, # of connection points: 6
#     Node 8, Type 0, BuildingBlock: BETDIP_clean_sbu_0, # of connection points: 6
#     Node 9, Type 0, BuildingBlock: BETDIP_clean_sbu_0, # of connection points: 6
#     Node 10, Type 0, BuildingBlock: BETDIP_clean_sbu_0, # of connection points: 6
#     Node 11, Type 0, BuildingBlock: BETDIP_clean_sbu_0, # of connection points: 6
#     Node 12, Type 0, BuildingBlock: BETDIP_clean_sbu_0, # of connection points: 6
#     Node 13, Type 0, BuildingBlock: BETDIP_clean_sbu_0, # of connection points: 6
#     Node 14, Type 0, BuildingBlock: BETDIP_clean_sbu_0, # of connection points: 6
#     Node 15, Type 0, BuildingBlock: BETDIP_clean_sbu_0, # of connection points: 6
#     Edge 16, Type (0, 0), BuildingBlock: CIFDUS_clean_linker_0, # of connection points: 2
#     Edge 17, Type (0, 0), BuildingBlock: CIFDUS_clean_linker_0, # of connection points: 2
#     Edge 18, Type (0, 0), BuildingBlock: CIFDUS_clean_linker_0, # of connection points: 2
#     Edge 19, Type (0, 0), BuildingBlock: CIFDUS_clean_linker_0, # of connection points: 2
#     Edge 20, Type (0, 0), BuildingBlock: CIFDUS_clean_linker_0, # of connection points: 2
#     Edge 21, Type (0, 0), BuildingBlock: CIFDUS_clean_linker_0, # of connection points: 2
#     Edge 22, Type (0, 0), BuildingBlock: CIFDUS_clean_linker_0, # of connection points: 2
#     Edge 23, Type (0, 0), BuildingBlock: CIFDUS_clean_linker_0, # of connection points: 2
#     Edge 24, Type (0, 0), BuildingBlock: CIFDUS_clean_linker_0, # of connection points: 2
#     Edge 25, Type (0, 0), BuildingBlock: CIFDUS_clean_linker_0, # of connection points: 2
#     Edge 26, Type (0, 0), BuildingBlock: CIFDUS_clean_linker_0, # of connection points: 2
#     Edge 27, Type (0, 0), BuildingBlock: CIFDUS_clean_linker_0, # of connection points: 2
#     Edge 28, Type (0, 0), BuildingBlock: CIFDUS_clean_linker_0, # of connection points: 2
#     Edge 29, Type (0, 0), BuildingBlock: CIFDUS_clean_linker_0, # of connection points: 2
#     Edge 30, Type (0, 0), BuildingBlock: CIFDUS_clean_linker_0, # of connection points: 2
#     Edge 31, Type (0, 0), BuildingBlock: CIFDUS_clean_linker_0, # of connection points: 2
#     Edge 32, Type (0, 0), BuildingBlock: CIFDUS_clean_linker_0, # of connection points: 2
#     Edge 33, Type (0, 0), BuildingBlock: CIFDUS_clean_linker_0, # of connection points: 2
#     Edge 34, Type (0, 0), BuildingBlock: CIFDUS_clean_linker_0, # of connection points: 2
#     Edge 35, Type (0, 0), BuildingBlock: CIFDUS_clean_linker_0, # of connection points: 2
#     Edge 36, Type (0, 0), BuildingBlock: CIFDUS_clean_linker_0, # of connection points: 2
#     Edge 37, Type (0, 0), BuildingBlock: CIFDUS_clean_linker_0, # of connection points: 2
#     Edge 38, Type (0, 0), BuildingBlock: CIFDUS_clean_linker_0, # of connection points: 2
#     Edge 39, Type (0, 0), BuildingBlock: CIFDUS_clean_linker_0, # of connection points: 2
#     Edge 40, Type (0, 0), BuildingBlock: CIFDUS_clean_linker_0, # of connection points: 2
#     Edge 41, Type (0, 0), BuildingBlock: CIFDUS_clean_linker_0, # of connection points: 2
#     Edge 42, Type (0, 0), BuildingBlock: CIFDUS_clean_linker_0, # of connection points: 2
#     Edge 43, Type (0, 0), BuildingBlock: CIFDUS_clean_linker_0, # of connection points: 2
#     Edge 44, Type (0, 0), BuildingBlock: CIFDUS_clean_linker_0, # of connection points: 2
#     Edge 45, Type (0, 0), BuildingBlock: CIFDUS_clean_linker_0, # of connection points: 2
#     Edge 46, Type (0, 0), BuildingBlock: CIFDUS_clean_linker_0, # of connection points: 2
#     Edge 47, Type (0, 0), BuildingBlock: CIFDUS_clean_linker_0, # of connection points: 2
#     Edge 48, Type (0, 0), BuildingBlock: CIFDUS_clean_linker_0, # of connection points: 2
#     Edge 49, Type (0, 0), BuildingBlock: CIFDUS_clean_linker_0, # of connection points: 2
#     Edge 50, Type (0, 0), BuildingBlock: CIFDUS_clean_linker_0, # of connection points: 2
#     Edge 51, Type (0, 0), BuildingBlock: CIFDUS_clean_linker_0, # of connection points: 2
#     Edge 52, Type (0, 0), BuildingBlock: CIFDUS_clean_linker_0, # of connection points: 2
#     Edge 53, Type (0, 0), BuildingBlock: CIFDUS_clean_linker_0, # of connection points: 2
#     Edge 54, Type (0, 0), BuildingBlock: CIFDUS_clean_linker_0, # of connection points: 2
#     Edge 55, Type (0, 0), BuildingBlock: CIFDUS_clean_linker_0, # of connection points: 2
#     Edge 56, Type (0, 0), BuildingBlock: CIFDUS_clean_linker_0, # of connection points: 2
#     Edge 57, Type (0, 0), BuildingBlock: CIFDUS_clean_linker_0, # of connection points: 2
#     Edge 58, Type (0, 0), BuildingBlock: CIFDUS_clean_linker_0, # of connection points: 2
#     Edge 59, Type (0, 0), BuildingBlock: CIFDUS_clean_linker_0, # of connection points: 2
#     Edge 60, Type (0, 0), BuildingBlock: CIFDUS_clean_linker_0, # of connection points: 2
#     Edge 61, Type (0, 0), BuildingBlock: CIFDUS_clean_linker_0, # of connection points: 2
#     Edge 62, Type (0, 0), BuildingBlock: CIFDUS_clean_linker_0, # of connection points: 2
#     Edge 63, Type (0, 0), BuildingBlock: CIFDUS_clean_linker_0, # of connection points: 2
# Relax obj value: 0.438
# Max RMSD: 0.335
# Mean RMSD: 0.334
data_MOF--net-crs--node1-BETDIP_clean_sbu_0--edge1-CIFDUS_clean_linker_0
_symmetry_space_group_name_H-M    P1
_symmetry_Int_Tables_number       1
_symmetry_cell_setting            triclinic
loop_
_symmetry_equiv_pos_as_xyz
'x, y, z'
_cell_length_a     34.833851
_cell_length_b     60.672575
_cell_length_c     38.096234
_cell_angle_alpha  89.977789
_cell_angle_beta   90.138585
_cell_angle_gamma 57.059111
loop_
_atom_site_label
_atom_site_type_symbol
_atom_site_fract_x
_atom_site_fract_y
_atom_site_fract_z
_atom_type_partial_charge
Tb0 Tb 0.93892 0.02249 0.04575 0.0
Tb1 Tb 0.01653 1.02024 1.00149 0.0
C2 C 0.86639 0.02513 0.05944 0.0
C3 C 0.85093 1.00829 0.04703 0.0
C4 C 0.86886 0.99421 1.01579 0.0
C5 C 0.86401 0.97351 1.00747 0.0
C6 C 0.84174 0.96612 0.03075 0.0
C7 C 0.82127 0.98129 0.06114 0.0
C8 C 0.82592 1.00223 0.06923 0.0
C9 C 0.0083 1.01354 0.08663 0.0
C10 C 0.01273 0.96904 1.00792 0.0
C11 C 0.08879 1.01519 0.98007 0.0
C12 C 0.10094 0.0349 0.98 0.0
C13 C 0.14669 0.02747 0.97851 0.0
C14 C 0.15747 0.0466 0.98014 0.0
C15 C 0.12258 0.07331 0.98384 0.0
C16 C 0.07688 0.08054 0.9853 0.0
C17 C 0.0662 0.06156 0.98323 0.0
C18 C 0.93766 0.03771 0.96888 0.0
C19 C 0.94771 0.07159 0.04402 0.0
O20 O 0.86879 0.04014 0.03575 0.0
O21 O 0.90306 1.01267 0.07924 0.0
O22 O 0.00356 1.0166 0.05397 0.0
O23 O 0.97177 1.01517 0.09796 0.0
O24 O 0.97515 0.98217 0.02714 0.0
O25 O 0.03495 0.97963 0.9958 0.0
O26 O 0.08489 1.00757 1.01131 0.0
O27 O 0.05479 1.0204 0.95926 0.0
O28 O 0.95686 1.01955 0.99134 0.0
O29 O 0.96376 0.04657 0.96343 0.0
O30 O -0.01128 0.0568 0.02978 0.0
O31 O 0.91949 0.06341 0.04792 0.0
H32 H 0.88933 0.9981 0.99906 0.0
H33 H 0.87974 0.96245 0.98371 0.0
H34 H 0.80436 0.97592 0.07987 0.0
H35 H 0.81261 1.01253 0.09386 0.0
H36 H 0.17395 1.00695 0.97627 0.0
H37 H 0.19298 0.04053 0.97897 0.0
H38 H 0.04921 0.10098 0.98747 0.0
H39 H 0.03062 0.06778 0.9841 0.0
Tb40 Tb 0.01692 0.27227 0.29922 0.0
Tb41 Tb 0.96266 0.2657 0.24724 0.0
C42 C 0.05947 0.28818 0.33333 0.0
C43 C 0.05031 0.31163 0.35298 0.0
C44 C 0.04472 0.33346 0.33499 0.0
C45 C 0.04134 0.35431 0.3534 0.0
C46 C 0.0438 0.3538 0.39021 0.0
C47 C 0.04786 0.33243 0.40834 0.0
C48 C 0.05136 0.31146 0.38987 0.0
C49 C 0.04202 0.22261 0.29191 0.0
C50 C 0.93298 0.27403 0.32721 0.0
C51 C 0.91929 0.25028 0.21318 0.0
C52 C 0.92816 0.22986 0.18772 0.0
C53 C 0.97113 0.20625 0.18553 0.0
C54 C 0.97763 0.18634 0.1629 0.0
C55 C 0.94128 0.18975 0.14208 0.0
C56 C 0.89865 0.21374 0.14385 0.0
C57 C 0.89219 0.23358 0.1665 0.0
C58 C 0.93648 0.31578 0.25645 0.0
C59 C 0.04515 0.2653 0.2184 0.0
O60 O 0.05248 0.29099 0.29949 0.0
O61 O 0.04603 0.27373 0.34707 0.0
O62 O 0.03055 0.239 0.26728 0.0
O63 O 0.04316 0.23325 0.32085 0.0
O64 O 0.95591 0.28548 0.33082 0.0
O65 O 0.93549 0.26205 0.29758 0.0
O66 O 0.93586 0.24212 0.2447 0.0
O67 O 0.92492 0.26873 0.20223 0.0
O68 O 0.94986 0.29834 0.27956 0.0
O69 O 0.93198 0.30621 0.22765 0.0
O70 O 0.01977 0.2556 0.21287 0.0
O71 O 0.04547 0.27509 0.24927 0.0
H72 H 0.04398 0.33426 0.30658 0.0
H73 H 0.03747 0.37071 0.33874 0.0
H74 H 0.0501 0.33147 0.43672 0.0
H75 H 0.05619 0.29479 0.40444 0.0
H76 H -0.00067 0.20301 0.20181 0.0
H77 H 0.01077 0.16802 0.16245 0.0
H78 H 0.8702 0.21716 0.12779 0.0
H79 H 0.85882 0.25172 0.16785 0.0
Tb80 Tb 0.77001 0.26701 0.52992 0.0
Tb81 Tb 0.68934 0.2748 0.49115 0.0
C82 C 0.83666 0.27017 0.5457 0.0
C83 C 0.83657 0.29422 0.55068 0.0
C84 C 0.8741 0.2953 0.5404 0.0
C85 C 0.8718 0.31905 0.54219 0.0
C86 C 0.8318 0.34204 0.55416 0.0
C87 C 0.79437 0.34075 0.56437 0.0
C88 C 0.79676 0.31711 0.56273 0.0
C89 C 0.70207 0.27671 0.57108 0.0
C90 C 0.69469 0.32339 0.49602 0.0
C91 C 0.62483 0.27096 0.46994 0.0
C92 C 0.61821 0.24901 0.47228 0.0
C93 C 0.57426 0.25382 0.47617 0.0
C94 C 0.56831 0.23284 0.47905 0.0
C95 C 0.60634 0.20674 0.47844 0.0
C96 C 0.65028 0.20208 0.47475 0.0
C97 C 0.65612 0.22296 0.47156 0.0
C98 C 0.75907 0.26531 0.45226 0.0
C99 C 0.76142 0.21981 0.52823 0.0
O100 O 0.82825 0.26631 0.51359 0.0
O101 O 0.8134 0.26615 0.56886 0.0
O102 O 0.69791 0.28725 0.54136 0.0
O103 O 0.74492 0.26225 0.57954 0.0
O104 O 0.7362 0.3071 0.50895 0.0
O105 O 0.66581 0.31595 0.49096 0.0
O106 O 0.62386 0.28194 0.49973 0.0
O107 O 0.65863 0.26685 0.45003 0.0
O108 O 0.76123 0.25407 0.4807 0.0
O109 O 0.71673 0.28207 0.44409 0.0
O110 O 0.71896 0.23697 0.51795 0.0
O111 O 0.79227 0.22606 0.52911 0.0
H112 H 0.90485 0.27791 0.53058 0.0
H113 H 0.90136 0.31939 0.53442 0.0
H114 H 0.76276 0.35815 0.57301 0.0
H115 H 0.76695 0.31691 0.57016 0.0
H116 H 0.54462 0.27378 0.47699 0.0
H117 H 0.53405 0.23701 0.48206 0.0
H118 H 0.6802 0.18223 0.47363 0.0
H119 H 0.69043 0.21866 0.46845 0.0
Tb120 Tb 0.70509 1.01751 0.79219 0.0
Tb121 Tb 0.76034 0.0286 0.74835 0.0
C122 C 0.67142 1.00005 0.83398 0.0
C123 C 0.6829 0.97761 0.85703 0.0
C124 C 0.66307 0.96326 0.84958 0.0
C125 C 0.66969 0.94328 0.87199 0.0
C126 C 0.69613 0.9372 0.90266 0.0
C127 C 0.71682 0.95123 0.90987 0.0
C128 C 0.71015 0.97134 0.88731 0.0
C129 C 0.66079 0.06806 0.7729 0.0
C130 C 0.7797 0.02494 0.82727 0.0
C131 C 0.79551 0.04407 0.70513 0.0
C132 C 0.78243 0.06416 0.678 0.0
C133 C 0.74183 0.08907 0.68046 0.0
C134 C 0.73314 0.10889 0.65677 0.0
C135 C 0.76483 0.10408 0.63019 0.0
C136 C 0.80442 0.07872 0.62698 0.0
C137 C 0.81315 0.05898 0.65076 0.0
C138 C 0.80342 0.97814 0.76806 0.0
C139 C 0.68561 0.02239 0.71298 0.0
O140 O 0.6762 0.99537 0.80035 0.0
O141 O 0.68385 1.01601 0.8434 0.0
O142 O 0.70251 0.05349 0.78113 0.0
O143 O 0.64215 0.05495 0.77845 0.0
O144 O 0.76029 1.01126 0.82805 0.0
O145 O 0.77714 0.03788 0.79872 0.0
O146 O 0.78488 0.05252 0.73737 0.0
O147 O 0.78831 0.02551 0.69827 0.0
O148 O 0.76213 0.99291 0.75912 0.0
O149 O 0.82249 0.99116 0.76388 0.0
O150 O 0.70428 0.03638 0.71301 0.0
O151 O 0.68938 1.00846 0.74083 0.0
H152 H 0.64174 0.96778 0.8265 0.0
H153 H 0.65408 0.93253 0.86519 0.0
H154 H 0.7373 0.94708 0.93334 0.0
H155 H 0.7257 0.98216 0.89385 0.0
H156 H 0.71763 0.09344 0.70134 0.0
H157 H 0.7025 0.12824 0.6602 0.0
H158 H 0.82907 0.07424 0.60644 0.0
H159 H 0.84461 0.03983 0.64846 0.0
Tb160 Tb 0.49951 0.77536 0.29284 0.0
Tb161 Tb 0.44519 0.77276 0.23957 0.0
C162 C 0.53042 0.78642 0.34552 0.0
C163 C 0.52264 0.80934 0.36579 0.0
C164 C 0.54186 0.8235 0.35517 0.0
C165 C 0.53764 0.84359 0.37623 0.0
C166 C 0.51424 0.84991 0.4084 0.0
C167 C 0.49459 0.83595 0.41879 0.0
C168 C 0.49895 0.81582 0.39782 0.0
C169 C 0.53562 0.72601 0.27017 0.0
C170 C 0.41791 0.76978 0.31442 0.0
C171 C 0.4123 0.76369 0.18648 0.0
C172 C 0.42505 0.74103 0.1642 0.0
C173 C 0.46508 0.71647 0.1708 0.0
C174 C 0.47491 0.69462 0.15096 0.0
C175 C 0.4448 0.69705 0.12425 0.0
C176 C 0.4053 0.7219 0.11731 0.0
C177 C 0.39551 0.74369 0.13719 0.0
C178 C 0.40773 0.82164 0.26436 0.0
C179 C 0.52951 0.77412 0.21782 0.0
O180 O 0.54703 0.78298 0.31392 0.0
O181 O 0.49872 0.78125 0.34718 0.0
O182 O 0.49404 0.74327 0.27477 0.0
O183 O 0.55863 0.73554 0.28129 0.0
O184 O 0.43973 0.78143 0.32216 0.0
O185 O 0.42257 0.75968 0.28298 0.0
O186 O 0.40214 0.76187 0.21878 0.0
O187 O 0.43833 0.77298 0.1847 0.0
O188 O 0.44957 0.80541 0.25822 0.0
O189 O 0.386 0.81105 0.2546 0.0
O190 O 0.50878 0.76162 0.21264 0.0
O191 O 0.52269 0.78693 0.24742 0.0
H192 H 0.56073 0.81886 0.33083 0.0
H193 H 0.55264 0.85424 0.36729 0.0
H194 H 0.47675 0.84016 0.44358 0.0
H195 H 0.48445 0.80497 0.40705 0.0
H196 H 0.48815 0.71414 0.19172 0.0
H197 H 0.50536 0.67571 0.1572 0.0
H198 H 0.38181 0.72448 0.09661 0.0
H199 H 0.36447 0.76256 0.13182 0.0
Tb200 Tb 0.26943 0.77089 0.55032 0.0
Tb201 Tb 0.19317 0.7771 0.50544 0.0
C202 C 0.33287 0.77456 0.57429 0.0
C203 C 0.34297 0.79522 0.5703 0.0
C204 C 0.36992 0.79458 0.5424 0.0
C205 C 0.37481 0.81569 0.53653 0.0
C206 C 0.35351 0.83768 0.55883 0.0
C207 C 0.32852 0.83766 0.58772 0.0
C208 C 0.32332 0.81672 0.59338 0.0
C209 C 0.2002 0.7762 0.5855 0.0
C210 C 0.1967 0.82629 0.51403 0.0
C211 C 0.13047 0.77236 0.48279 0.0
C212 C 0.12645 0.74928 0.48483 0.0
C213 C 0.10585 0.74549 0.5139 0.0
C214 C 0.11013 0.72141 0.51906 0.0
C215 C 0.1345 0.70081 0.49493 0.0
C216 C 0.15214 0.70533 0.46462 0.0
C217 C 0.14811 0.72926 0.45959 0.0
C218 C 0.26145 0.77247 0.46964 0.0
C219 C 0.26647 0.72152 0.54161 0.0
O220 O 0.33734 0.76079 0.54631 0.0
O221 O 0.29568 0.78144 0.59176 0.0
O222 O 0.19743 0.78817 0.55749 0.0
O223 O 0.24218 0.76247 0.59625 0.0
O224 O 0.23767 0.81033 0.52802 0.0
O225 O 0.16885 0.81843 0.50664 0.0
O226 O 0.12748 0.78416 0.51245 0.0
O227 O 0.1639 0.76926 0.46325 0.0
O228 O 0.26518 0.76016 0.49772 0.0
O229 O 0.21929 0.78555 0.4592 0.0
O230 O 0.22589 0.73727 0.52694 0.0
O231 O 0.29393 0.72959 0.54909 0.0
H232 H 0.38643 0.77804 0.5246 0.0
H233 H 0.39438 0.81503 0.51405 0.0
H234 H 0.31282 0.85389 0.60604 0.0
H235 H 0.30309 0.81766 0.61557 0.0
H236 H 0.08806 0.76071 0.53345 0.0
H237 H 0.09594 0.71861 0.54263 0.0
H238 H 0.16981 0.69016 0.44495 0.0
H239 H 0.16359 0.73164 0.43649 0.0
Tb240 Tb 0.20331 0.52149 0.7923 0.0
Tb241 Tb 0.26403 0.52474 0.74379 0.0
C242 C 0.16625 0.50918 0.83859 0.0
C243 C 0.17659 0.48699 0.86184 0.0
C244 C 0.17959 0.46453 0.84831 0.0
C245 C 0.18367 0.44519 0.87086 0.0
C246 C 0.18491 0.44779 0.90744 0.0
C247 C 0.18342 0.4698 0.92095 0.0
C248 C 0.179 0.48928 0.89837 0.0
C249 C 0.17171 0.57097 0.7729 0.0
C250 C 0.28751 0.52147 0.82208 0.0
C251 C 0.30287 0.5354 0.69697 0.0
C252 C 0.2917 0.55726 0.67329 0.0
C253 C 0.25016 0.58166 0.67607 0.0
C254 C 0.24181 0.60278 0.65502 0.0
C255 C 0.27492 0.59983 0.6309 0.0
C256 C 0.31602 0.57511 0.62778 0.0
C257 C 0.3243 0.55406 0.64881 0.0
C258 C 0.29458 0.47531 0.76411 0.0
C259 C 0.17708 0.52763 0.71442 0.0
O260 O 0.16421 0.50596 0.80495 0.0
O261 O 0.18621 0.52173 0.84543 0.0
O262 O 0.21273 0.55299 0.77884 0.0
O263 O 0.14678 0.56192 0.78073 0.0
O264 O 0.26367 0.51046 0.82499 0.0
O265 O 0.28664 0.53286 0.79239 0.0
O266 O 0.3035 0.53994 0.73034 0.0
O267 O 0.28264 0.52292 0.69083 0.0
O268 O 0.25416 0.49348 0.757 0.0
O269 O 0.32003 0.48423 0.75749 0.0
O270 O 0.20225 0.5378 0.71176 0.0
O271 O 0.17828 0.5154 0.74332 0.0
H272 H 0.17773 0.4621 0.82032 0.0
H273 H 0.18554 0.42823 0.85963 0.0
H274 H 0.18411 0.47241 0.94902 0.0
H275 H 0.17624 0.5065 0.90956 0.0
H276 H 0.22467 0.58449 0.69498 0.0
H277 H 0.21 0.6216 0.65839 0.0
H278 H 0.34193 0.57205 0.60917 0.0
H279 H 0.35656 0.53534 0.64635 0.0
Tb280 Tb 0.93797 0.53083 0.53902 0.0
Tb281 Tb 0.02278 0.52008 0.50108 0.0
C282 C 0.86841 0.53141 0.55773 0.0
C283 C 0.85541 0.51201 0.5534 0.0
C284 C 0.8435 0.50711 0.52035 0.0
C285 C 0.83754 0.48628 0.51579 0.0
C286 C 0.84304 0.47001 0.54421 0.0
C287 C 0.85266 0.47579 0.57761 0.0
C288 C 0.85856 0.49661 0.58216 0.0
C289 C 0.00652 0.52214 0.57942 0.0
C290 C 0.00541 0.4752 0.50185 0.0
C291 C 0.09755 0.51568 0.48966 0.0
C292 C 0.11545 0.53152 0.5013 0.0
C293 C 0.10332 0.54385 0.53424 0.0
C294 C 0.11026 0.56394 0.54173 0.0
C295 C 0.12911 0.57212 0.51633 0.0
C296 C 0.14511 0.55807 0.48467 0.0
C297 C 0.13829 0.53789 0.47723 0.0
C298 C 0.955 0.53021 0.45915 0.0
C299 C 0.95027 0.57688 0.53395 0.0
O300 O 0.86973 0.54317 0.52927 0.0
O301 O 0.90365 0.52398 0.57826 0.0
O302 O 0.00946 0.51038 0.55118 0.0
O303 O 0.96377 0.53841 0.58698 0.0
O304 O 0.96534 0.49208 0.51619 0.0
O305 O 0.03653 0.48086 0.49623 0.0
O306 O 0.09207 0.50238 0.51405 0.0
O307 O 0.06228 0.52796 0.46846 0.0
O308 O 0.9512 0.5407 0.48871 0.0
O309 O -0.00223 0.51629 0.45028 0.0
O310 O -0.00706 0.55934 0.52415 0.0
O311 O 0.91894 0.57105 0.53615 0.0
H312 H 0.83979 0.51895 0.49778 0.0
H313 H 0.82906 0.48274 0.48992 0.0
H314 H 0.85746 0.4636 0.60009 0.0
H315 H 0.86729 0.50005 0.60802 0.0
H316 H 0.0858 0.5392 0.5533 0.0
H317 H 0.09861 0.57403 0.56663 0.0
H318 H 0.15971 0.56396 0.46454 0.0
H319 H 0.14793 0.52856 0.4517 0.0
Tb320 Tb 0.26475 0.27512 0.03774 0.0
Tb321 Tb 0.19056 0.27779 0.99482 0.0
C322 C 0.32623 0.28082 0.06106 0.0
C323 C 0.33266 0.30282 0.05906 0.0
C324 C 0.32733 0.31593 0.02721 0.0
C325 C 0.32607 0.33935 0.0269 0.0
C326 C 0.32921 0.35026 0.05847 0.0
C327 C 0.3368 0.3364 0.09 0.0
C328 C 0.33864 0.31286 0.09025 0.0
C329 C 0.19872 0.27778 0.07481 0.0
C330 C 0.18885 0.32888 0.99941 0.0
C331 C 0.12909 0.27137 0.97387 0.0
C332 C 0.12092 0.25045 0.98138 0.0
C333 C 0.12611 0.24035 1.01554 0.0
C334 C 0.12402 0.21829 0.02147 0.0
C335 C 0.11746 0.20574 0.9933 0.0
C336 C 0.11127 0.21623 0.95932 0.0
C337 C 0.11286 0.23844 0.95345 0.0
C338 C 0.258 0.27359 0.95787 0.0
C339 C 0.26753 0.22393 0.03144 0.0
O340 O 0.33014 0.26846 0.03178 0.0
O341 O 0.29075 0.28572 0.0794 0.0
O342 O 0.19355 0.29015 0.04655 0.0
O343 O 0.2413 0.26501 0.08412 0.0
O344 O 0.2298 0.31441 1.0141 0.0
O345 O 0.16318 0.31941 0.99312 0.0
O346 O 0.12349 0.28692 0.99995 0.0
O347 O 0.16639 0.26373 0.9561 0.0
O348 O 0.26193 0.26204 0.98655 0.0
O349 O 0.21562 0.28645 0.94784 0.0
O350 O 0.22552 0.23881 0.01885 0.0
O351 O 0.29356 0.23328 0.03679 0.0
H352 H 0.32226 0.30873 1.00275 0.0
H353 H 0.32047 0.34951 1.00219 0.0
H354 H 0.34034 0.34406 0.11462 0.0
H355 H 0.34278 0.30305 0.11507 0.0
H356 H 0.13321 0.24895 0.0375 0.0
H357 H 0.12926 0.21047 0.04786 0.0
H358 H 0.10557 0.20712 0.93722 0.0
H359 H 0.10917 0.24578 0.92691 0.0
Tb360 Tb 0.2184 1.01336 0.2893 0.0
Tb361 Tb 0.27034 0.02533 0.23493 0.0
C362 C 0.20051 0.98779 0.32966 0.0
C363 C 0.19059 0.97239 0.35373 0.0
C364 C 0.22581 0.95207 0.374 0.0
C365 C 0.21729 0.9365 0.3954 0.0
C366 C 0.17332 0.94086 0.39704 0.0
C367 C 0.1379 0.96148 0.37712 0.0
C368 C 0.14644 0.97711 0.35571 0.0
C369 C 0.17739 0.06552 0.28099 0.0
C370 C 0.28742 0.02882 0.31458 0.0
C371 C 0.29907 0.04165 0.18765 0.0
C372 C 0.28407 0.06453 0.1646 0.0
C373 C 0.27651 0.08809 0.17832 0.0
C374 C 0.27023 0.10796 0.1559 0.0
C375 C 0.27112 0.10477 0.11936 0.0
C376 C 0.27607 0.08191 0.10558 0.0
C377 C 0.28286 0.06184 0.12806 0.0
C378 C 0.31254 0.97553 0.25668 0.0
C379 C 0.18845 1.02051 0.21 0.0
O380 O 0.24158 0.98358 0.32705 0.0
O381 O 0.16922 1.00681 0.3097 0.0
O382 O 0.21223 0.04693 0.26634 0.0
O383 O 0.16401 0.0546 0.30284 0.0
O384 O 0.26993 1.01454 0.32121 0.0
O385 O 0.28372 0.03929 0.28328 0.0
O386 O 0.30175 0.04509 0.22126 0.0
O387 O 0.28314 0.02684 0.18127 0.0
O388 O 0.27047 0.9912 0.25095 0.0
O389 O 0.33278 0.98717 0.24732 0.0
O390 O 0.21089 0.03224 0.20472 0.0
O391 O 0.19216 1.00833 0.23994 0.0
H392 H 0.26027 0.94784 0.37288 0.0
H393 H 0.24556 0.92051 0.40988 0.0
H394 H 0.10358 0.96549 0.37801 0.0
H395 H 0.11861 0.99265 0.34037 0.0
H396 H 0.27715 0.09088 0.20635 0.0
H397 H 0.26571 0.12563 0.16713 0.0
H398 H 0.27685 0.07904 0.07746 0.0
H399 H 0.28898 0.0438 0.11682 0.0
Tb400 Tb 0.51422 0.27337 0.79707 0.0
Tb401 Tb 0.45883 0.268 0.73412 0.0
C402 C 0.53898 0.29244 0.84347 0.0
C403 C 0.53913 0.31595 0.85301 0.0
C404 C 0.49851 0.33966 0.86192 0.0
C405 C 0.50021 0.36007 0.87705 0.0
C406 C 0.54248 0.35717 0.8835 0.0
C407 C 0.58287 0.33409 0.87271 0.0
C408 C 0.58119 0.3136 0.85777 0.0
C409 C 0.55024 0.22289 0.78055 0.0
C410 C 0.42551 0.27231 0.81338 0.0
C411 C 0.42669 0.25007 0.69243 0.0
C412 C 0.43299 0.22971 0.66796 0.0
C413 C 0.47359 0.20471 0.66652 0.0
C414 C 0.47537 0.18486 0.64624 0.0
C415 C 0.43634 0.18978 0.62783 0.0
C416 C 0.39644 0.21506 0.62861 0.0
C417 C 0.3949 0.23484 0.64836 0.0
C418 C 0.42537 0.31837 0.75105 0.0
C419 C 0.54245 0.27254 0.7179 0.0
O420 O 0.49952 0.29445 0.84374 0.0
O421 O 0.56545 0.27797 0.81754 0.0
O422 O 0.51546 0.24311 0.7677 0.0
O423 O 0.56565 0.23119 0.80464 0.0
O424 O 0.45972 0.27365 0.82595 0.0
O425 O 0.41953 0.26988 0.77959 0.0
O426 O 0.43463 0.24365 0.72576 0.0
O427 O 0.43881 0.26619 0.68258 0.0
O428 O 0.45893 0.29753 0.76334 0.0
O429 O 0.40832 0.31092 0.72704 0.0
O430 O 0.51913 0.26216 0.70763 0.0
O431 O 0.53909 0.28218 0.74988 0.0
H432 H 0.4655 0.34212 0.85853 0.0
H433 H 0.4685 0.37787 0.88463 0.0
H434 H 0.6159 0.33131 0.87751 0.0
H435 H 0.613 0.29544 0.85141 0.0
H436 H 0.50317 0.20037 0.68186 0.0
H437 H 0.50646 0.16544 0.64614 0.0
H438 H 0.36608 0.21936 0.61446 0.0
H439 H 0.3632 0.25398 0.64939 0.0
Tb440 Tb -0.00319 0.77845 0.80209 0.0
Tb441 Tb 0.94825 0.7735 0.74553 0.0
C442 C 0.02207 0.79032 0.85716 0.0
C443 C 0.02972 0.81052 0.86969 0.0
C444 C 0.0139 0.83379 0.85074 0.0
C445 C 0.01868 0.85353 0.86469 0.0
C446 C 0.03923 0.85026 0.89781 0.0
C447 C 0.0561 0.82655 0.91609 0.0
C448 C 0.05134 0.80689 0.90214 0.0
C449 C 0.03446 0.72871 0.78016 0.0
C450 C 0.91571 0.77112 0.81921 0.0
C451 C 0.9272 0.75962 0.69001 0.0
C452 C 0.92702 0.73708 0.67626 0.0
C453 C 0.95519 0.71202 0.69101 0.0
C454 C 0.95987 0.69012 0.67457 0.0
C455 C 0.9366 0.69293 0.64295 0.0
C456 C 0.90673 0.71827 0.62919 0.0
C457 C 0.90206 0.74015 0.64574 0.0
C458 C 0.90711 0.82298 0.76759 0.0
C459 C 0.02721 0.78348 0.72926 0.0
O460 O 0.05028 0.77412 0.83345 0.0
O461 O 0.97973 0.79826 0.85019 0.0
O462 O -0.00725 0.74591 0.78394 0.0
O463 O 0.05694 0.73871 0.79076 0.0
O464 O 0.93755 0.78233 0.82873 0.0
O465 O 0.92201 0.76078 0.78762 0.0
O466 O 0.89787 0.77355 0.71461 0.0
O467 O 0.96754 0.75528 0.69651 0.0
O468 O 0.94976 0.80696 0.76436 0.0
O469 O 0.88696 0.81196 0.75556 0.0
O470 O 0.00647 0.77166 0.71917 0.0
O471 O 0.02054 0.79307 0.76125 0.0
H472 H -0.00295 0.83688 0.82562 0.0
H473 H 0.00499 0.87166 0.85011 0.0
H474 H 0.07268 0.82328 0.94137 0.0
H475 H 0.06385 0.789 0.91703 0.0
H476 H 0.97484 0.70931 0.71444 0.0
H477 H -0.01743 0.67091 0.68615 0.0
H478 H 0.88863 0.72109 0.60476 0.0
H479 H 0.88038 0.75937 0.63388 0.0
Tb480 Tb 0.70593 0.51942 0.29382 0.0
Tb481 Tb 0.76686 0.52257 0.24573 0.0
C482 C 0.66878 0.50744 0.34053 0.0
C483 C 0.67859 0.48437 0.36163 0.0
C484 C 0.70219 0.47837 0.39379 0.0
C485 C 0.70843 0.45764 0.41462 0.0
C486 C 0.69094 0.44256 0.40388 0.0
C487 C 0.66769 0.44848 0.37159 0.0
C488 C 0.6614 0.46919 0.35083 0.0
C489 C 0.67348 0.56858 0.27252 0.0
C490 C 0.7891 0.5207 0.32409 0.0
C491 C 0.80423 0.53378 0.19842 0.0
C492 C 0.79048 0.55539 0.17355 0.0
C493 C 0.74921 0.57979 0.17768 0.0
C494 C 0.7388 0.60086 0.15571 0.0
C495 C 0.76945 0.59784 0.1292 0.0
C496 C 0.80998 0.57303 0.12452 0.0
C497 C 0.8204 0.55204 0.14657 0.0
C498 C 0.79857 0.47323 0.26716 0.0
C499 C 0.68398 0.52172 0.21556 0.0
O500 O 0.66273 0.50657 0.3069 0.0
O501 O 0.69247 0.5178 0.34724 0.0
O502 O 0.71431 0.55105 0.27956 0.0
O503 O 0.64877 0.55942 0.2805 0.0
O504 O 0.76491 0.50991 0.32741 0.0
O505 O 0.78941 0.53116 0.29391 0.0
O506 O 0.80303 0.53965 0.23148 0.0
O507 O 0.78752 0.51933 0.19308 0.0
O508 O 0.75808 0.49099 0.25951 0.0
O509 O 0.8233 0.48268 0.2608 0.0
O510 O 0.7068 0.53335 0.21295 0.0
O511 O 0.68599 0.50975 0.24501 0.0
H512 H 0.7153 0.48991 0.40317 0.0
H513 H 0.72611 0.45378 0.43951 0.0
H514 H 0.65443 0.43702 0.36221 0.0
H515 H 0.64261 0.47346 0.3264 0.0
H516 H 0.72568 0.5827 0.19842 0.0
H517 H 0.70752 0.61973 0.1603 0.0
H518 H 0.83394 0.56988 0.10403 0.0
H519 H 0.85234 0.53331 0.14298 0.0
Tb520 Tb 0.76788 0.76541 0.03733 0.0
Tb521 Tb 0.68373 0.77608 1.00209 0.0
C522 C 0.83646 0.76672 0.0526 0.0
C523 C 0.84099 0.7896 0.05142 0.0
C524 C 0.85882 0.79448 0.02147 0.0
C525 C 0.85516 0.81847 1.01749 0.0
C526 C 0.8334 0.83801 0.0433 0.0
C527 C 0.81796 0.83254 0.07406 0.0
C528 C 0.82192 0.80857 0.07818 0.0
C529 C 0.70051 0.77604 0.07996 0.0
C530 C 0.69562 0.82239 1.00445 0.0
C531 C 0.61495 0.77493 0.98615 0.0
C532 C 0.61121 0.75195 0.98454 0.0
C533 C 0.56975 0.75427 0.99169 0.0
C534 C 0.56773 0.73183 0.99268 0.0
C535 C 0.60738 0.7067 0.98707 0.0
C536 C 0.64874 0.70468 0.97986 0.0
C537 C 0.65046 0.72703 0.97814 0.0
C538 C 0.7507 0.7657 0.95924 0.0
C539 C 0.75737 0.71888 0.03454 0.0
O540 O 0.83151 0.75844 0.02221 0.0
O541 O 0.80816 0.76779 0.0761 0.0
O542 O 0.69658 0.78748 0.0512 0.0
O543 O 0.74328 0.75884 0.0864 0.0
O544 O 0.738 0.80469 1.01442 0.0
O545 O 0.66407 0.81665 1.00303 0.0
O546 O 0.62159 0.78102 1.01755 0.0
O547 O 0.64226 0.77522 0.96294 0.0
O548 O 0.75483 0.75424 0.98804 0.0
O549 O 0.70781 0.78246 0.95273 0.0
O550 O 0.71474 0.73652 0.02494 0.0
O551 O 0.78848 0.72487 0.03611 0.0
H552 H 0.87379 0.78024 1.00042 0.0
H553 H 0.86752 0.82215 0.99356 0.0
H554 H 0.8021 0.84702 0.09476 0.0
H555 H 0.80824 0.80542 0.10178 0.0
H556 H 0.53912 0.77334 0.99678 0.0
H557 H 0.5351 0.73422 0.99776 0.0
H558 H 0.68025 0.68576 0.97624 0.0
H559 H 0.68292 0.72469 0.97246 0.0
Tb560 Tb 0.45457 0.02242 0.53287 0.0
Tb561 Tb 0.53882 1.00788 0.49348 0.0
C562 C 0.38171 0.02738 0.55318 0.0
C563 C 0.36316 1.01074 0.54985 0.0
C564 C 0.3716 0.9955 0.51967 0.0
C565 C 0.35983 0.97689 0.51876 0.0
C566 C 0.33967 0.97312 0.54806 0.0
C567 C 0.32911 0.9893 0.57759 0.0
C568 C 0.34093 1.00793 0.57849 0.0
C569 C 0.5229 1.01482 0.5724 0.0
C570 C 0.52366 0.9633 0.50469 0.0
C571 C 0.6095 1.0057 0.47473 0.0
C572 C 0.62178 0.02525 0.48023 0.0
C573 C 0.62405 0.03362 0.51423 0.0
C574 C 0.62747 0.05535 0.51887 0.0
C575 C 0.62801 0.06928 0.48966 0.0
C576 C 0.62766 0.06027 0.45577 0.0
C577 C 0.62487 0.03837 0.45111 0.0
C578 C 0.47037 1.01584 0.45358 0.0
C579 C 0.47232 0.0664 0.52287 0.0
O580 O 0.38488 0.03793 0.52418 0.0
O581 O 0.41851 1.01742 0.57264 0.0
O582 O 0.52604 1.00139 0.54593 0.0
O583 O 0.48025 0.03208 0.57887 0.0
O584 O 0.48169 0.98204 0.51446 0.0
O585 O 0.55573 0.96825 0.49963 0.0
O586 O 0.60796 0.99363 0.50274 0.0
O587 O 0.57442 1.01345 0.45391 0.0
O588 O 0.46724 0.02899 0.48044 0.0
O589 O 0.51308 0.99836 0.44744 0.0
O590 O 0.51334 0.0476 0.51209 0.0
O591 O 0.43972 0.06197 0.52867 0.0
H592 H 0.38874 0.9973 0.49728 0.0
H593 H 0.36741 0.96504 0.49546 0.0
H594 H 0.31373 0.98667 0.60057 0.0
H595 H 0.33437 1.01942 0.60208 0.0
H596 H 0.62122 0.02414 0.53729 0.0
H597 H 0.62748 0.062 0.54526 0.0
H598 H 0.6287 0.0705 0.43284 0.0
H599 H 0.62303 0.03238 0.42469 0.0
Tb600 Tb 0.44605 0.52641 0.04145 0.0
Tb601 Tb 0.51912 0.52127 0.99741 0.0
C602 C 0.37176 0.5354 0.06469 0.0
C603 C 0.35142 0.5197 0.05957 0.0
C604 C 0.34232 0.51448 0.02562 0.0
C605 C 0.33384 0.49474 0.02021 0.0
C606 C 0.33411 0.4799 0.04863 0.0
C607 C 0.3398 0.48648 0.08281 0.0
C608 C 0.34826 0.50623 0.08821 0.0
C609 C 0.52378 0.50928 0.07591 0.0
C610 C 0.50977 0.47222 1.00533 0.0
C611 C 0.59236 0.51237 0.97176 0.0
C612 C 0.61209 0.52854 0.97306 0.0
C613 C 0.61438 0.53949 1.00488 0.0
C614 C 0.62368 0.55914 1.005 0.0
C615 C 0.63047 0.56841 0.97329 0.0
C616 C 0.63085 0.55631 0.94167 0.0
C617 C 0.62183 0.53651 0.9416 0.0
C618 C 0.441 0.53831 0.96343 0.0
C619 C 0.45561 0.57539 0.03361 0.0
O620 O 0.37458 0.54713 0.03682 0.0
O621 O 0.40958 0.52378 0.08316 0.0
O622 O 0.50632 0.52668 0.05243 0.0
O623 O 0.49614 0.50166 0.08179 0.0
O624 O 0.46919 0.48833 0.01929 0.0
O625 O 0.53709 0.48039 0.99751 0.0
O626 O 0.59047 0.50209 1.00148 0.0
O627 O 0.5542 0.52287 0.95392 0.0
O628 O 0.4592 0.52074 0.98659 0.0
O629 O 0.46775 0.54662 0.95798 0.0
O630 O 0.49642 0.55924 0.01998 0.0
O631 O 0.42812 0.56727 0.04099 0.0
H632 H 0.34398 0.52469 1.00297 0.0
H633 H 0.32862 0.49049 0.99366 0.0
H634 H 0.34052 0.47532 0.10528 0.0
H635 H 0.35523 0.50983 0.11461 0.0
H636 H 0.60694 0.5338 0.02957 0.0
H637 H 0.62406 0.56766 0.02988 0.0
H638 H 0.63556 0.5631 0.91674 0.0
H639 H 0.61982 0.52851 0.91674 0.0
H640 H 0.00112 0.09145 0.04654 0.0
H641 H 0.86879 0.10821 0.07816 0.0
H642 H 0.85449 0.14692 0.11016 0.0
H643 H 0.88191 0.17414 0.13236 0.0
H644 H 0.01471 0.15661 0.10086 0.0
H645 H 0.0267 0.11962 0.06605 0.0
C646 C 0.96879 0.10367 0.05999 0.0
C647 C 0.93608 0.09682 0.05989 0.0
C648 C 0.96117 0.12555 0.07879 0.0
C649 C 0.89458 0.11297 0.07771 0.0
C650 C 0.88646 0.13506 0.09616 0.0
C651 C 0.91317 0.16251 0.11741 0.0
C652 C 0.94743 0.16812 0.11937 0.0
C653 C 0.91985 0.14127 0.09734 0.0
C654 C -0.01195 0.15254 0.10027 0.0
C655 C -0.00517 0.13149 0.08015 0.0
H656 H 0.77051 0.30379 0.43061 0.0
H657 H 0.835 0.21984 0.43054 0.0
H658 H 0.89556 0.21491 0.39198 0.0
H659 H 0.92703 0.23501 0.35508 0.0
H660 H 0.86733 0.31847 0.36031 0.0
H661 H 0.80818 0.32326 0.4004 0.0
C662 C 0.79818 0.28444 0.42236 0.0
C663 C 0.79826 0.26218 0.4328 0.0
C664 C 0.83349 0.28178 0.40113 0.0
C665 C 0.83444 0.23716 0.42263 0.0
C666 C 0.86886 0.23439 0.40052 0.0
C667 C 0.90129 0.25417 0.36538 0.0
C668 C 0.90101 0.27643 0.35462 0.0
C669 C 0.86828 0.2566 0.38911 0.0
C670 C 0.86806 0.30112 0.36835 0.0
C671 C 0.83419 0.30385 0.39109 0.0
H672 H 0.82866 0.11405 0.60913 0.0
H673 H 0.68502 0.14315 0.60002 0.0
H674 H 0.67228 0.18083 0.56644 0.0
H675 H 0.7011 0.2059 0.54132 0.0
H676 H 0.84436 0.17763 0.55045 0.0
H677 H 0.85837 0.13849 0.58135 0.0
C678 C 0.79474 0.12829 0.5991 0.0
C679 C 0.75782 0.12577 0.60718 0.0
C680 C 0.78768 0.14981 0.5795 0.0
C681 C 0.71392 0.14475 0.59461 0.0
C682 C 0.70667 0.16618 0.57513 0.0
C683 C 0.73565 0.19104 0.54945 0.0
C684 C 0.77171 0.19467 0.54337 0.0
C685 C 0.74321 0.16896 0.56764 0.0
C686 C 0.81602 0.1753 0.55468 0.0
C687 C 0.82399 0.15297 0.57244 0.0
H688 H 0.9199 1.00075 0.95039 0.0
H689 H 0.88293 0.07919 0.92574 0.0
H690 H 0.83053 0.08237 0.87992 0.0
H691 H 0.79594 0.06245 0.84637 0.0
H692 H 0.82727 0.98563 0.87538 0.0
H693 H 0.87927 0.98264 0.92132 0.0
C694 C 0.89856 1.01904 0.93634 0.0
C695 C 0.9039 0.04012 0.94257 0.0
C696 C 0.86752 1.02095 0.91077 0.0
C697 C 0.87894 0.06286 0.92187 0.0
C698 C 0.84896 0.06466 0.89569 0.0
C699 C 0.81385 0.04515 0.86297 0.0
C700 C 0.80783 0.02422 0.8573 0.0
C701 C 0.84305 0.0438 0.88982 0.0
C702 C 0.83105 1.00204 0.87923 0.0
C703 C 0.861 1.00028 0.9054 0.0
H704 H 0.06375 0.03294 0.07877 0.0
H705 H 0.03497 0.98708 0.14729 0.0
H706 H 0.08866 0.98453 0.1907 0.0
H707 H 0.14058 0.99701 0.21098 0.0
H708 H 0.16894 0.04419 0.14477 0.0
H709 H 0.11884 0.04463 0.09907 0.0
C710 C 0.07003 1.02199 0.10292 0.0
C711 C 0.04571 1.00996 0.10966 0.0
C712 C 0.10043 1.02116 0.12851 0.0
C713 C 0.05338 0.99639 0.14142 0.0
C714 C 0.08398 0.995 0.16637 0.0
C715 C 0.13606 1.00739 0.18658 0.0
C716 C 0.15858 1.02063 0.18162 0.0
C717 C 0.10711 1.00765 0.16051 0.0
C718 C 0.15208 0.03385 0.14956 0.0
C719 C 0.1234 0.03409 0.1233 0.0
H720 H 0.06238 0.44469 0.44953 0.0
H721 H 0.96275 0.45083 0.52286 0.0
H722 H 0.96716 0.41306 0.4958 0.0
H723 H -0.00417 0.37989 0.44887 0.0
H724 H 0.09305 0.3751 0.37423 0.0
H725 H 0.09271 0.41081 0.40396 0.0
C726 C 0.04231 0.43745 0.46001 0.0
C727 C 0.01269 0.45038 0.48835 0.0
C728 C 0.044 0.41619 0.44371 0.0
C729 C -0.01392 0.44112 0.50114 0.0
C730 C -0.01163 0.4196 0.48559 0.0
C731 C 0.01727 0.38652 0.43939 0.0
C732 C 0.04419 0.37499 0.40929 0.0
C733 C 0.01667 0.40723 0.45649 0.0
C734 C 0.07148 0.38393 0.39706 0.0
C735 C 0.07153 0.40424 0.41415 0.0
H736 H 0.71199 0.25731 0.63621 0.0
H737 H 0.6089 0.30402 0.55853 0.0
H738 H 0.55037 0.30531 0.59592 0.0
H739 H 0.52888 0.29276 0.65146 0.0
H740 H 0.63191 0.25066 0.73108 0.0
H741 H 0.69016 0.24805 0.69242 0.0
C742 C 0.67669 0.26787 0.62739 0.0
C743 C 0.66505 0.27987 0.59408 0.0
C744 C 0.64325 0.26934 0.64956 0.0
C745 C 0.61902 0.29387 0.58347 0.0
C746 C 0.58551 0.29477 0.60502 0.0
C747 C 0.56415 0.28302 0.66012 0.0
C748 C 0.57642 0.27166 0.69385 0.0
C749 C 0.59729 0.28239 0.63809 0.0
C750 C 0.6219 0.25947 0.7052 0.0
C751 C 0.65515 0.25797 0.68312 0.0
H752 H 0.63144 0.92771 0.92318 0.0
H753 H 0.77437 0.89915 0.93595 0.0
H754 H 0.78554 0.86247 0.97111 0.0
H755 H 0.756 0.83714 0.99533 0.0
H756 H 0.6139 0.86435 0.98028 0.0
H757 H 0.60109 0.90315 0.94939 0.0
C758 C 0.66506 0.91348 0.93372 0.0
C759 C 0.70209 0.91612 0.92662 0.0
C760 C 0.67134 0.89229 0.95377 0.0
C761 C 0.74518 0.89777 0.94113 0.0
C762 C 0.75164 0.87672 0.96122 0.0
C763 C 0.72199 0.85168 0.98576 0.0
C764 C 0.68595 0.84771 0.99013 0.0
C765 C 0.71511 0.87362 0.96736 0.0
C766 C 0.64225 0.86683 0.97737 0.0
C767 C 0.63495 0.88899 0.95955 0.0
H768 H 0.21232 0.24852 0.132 0.0
H769 H 0.10501 0.30647 0.06466 0.0
H770 H 0.0476 0.30574 0.10116 0.0
H771 H 0.02795 0.29026 0.15495 0.0
H772 H 0.13658 0.2349 0.22362 0.0
H773 H 0.19351 0.23286 0.18399 0.0
C774 C 0.17635 0.261 0.12517 0.0
C775 C 0.16297 0.27748 0.09555 0.0
C776 C 0.1438 0.26088 0.14667 0.0
C777 C 0.11625 0.29344 0.08711 0.0
C778 C 0.08344 0.29309 0.1081 0.0
C779 C 0.06416 0.27749 0.16074 0.0
C780 C 0.07835 0.26246 0.19185 0.0
C781 C 0.09677 0.27707 0.13823 0.0
C782 C 0.12513 0.2464 0.19965 0.0
C783 C 0.1576 0.24533 0.17709 0.0
H784 H 0.62853 0.42964 0.41685 0.0
H785 H 0.76695 0.40625 0.44105 0.0
H786 H 0.77828 0.36898 0.4749 0.0
H787 H 0.75111 0.34127 0.49351 0.0
H788 H 0.61383 0.3633 0.46757 0.0
H789 H 0.59995 0.4029 0.4383 0.0
C790 C 0.66126 0.41633 0.42938 0.0
C791 C 0.69695 0.42067 0.42607 0.0
C792 C 0.66779 0.39469 0.4484 0.0
C793 C 0.73878 0.40354 0.44325 0.0
C794 C 0.74539 0.38211 0.46247 0.0
C795 C 0.71778 0.3549 0.48208 0.0
C796 C 0.68352 0.34924 0.48282 0.0
C797 C 0.71036 0.3773 0.46475 0.0
C798 C 0.64079 0.36712 0.46746 0.0
C799 C 0.63291 0.38972 0.45056 0.0
H800 H 0.53337 0.05269 0.59813 0.0
H801 H 0.59746 0.96879 0.59599 0.0
H802 H 0.65424 0.96342 0.63941 0.0
H803 H 0.68214 0.98318 0.68123 0.0
H804 H 0.62256 0.06673 0.67841 0.0
H805 H 0.56778 0.07177 0.63358 0.0
C806 C 0.56018 0.03323 0.60693 0.0
C807 C 0.56106 1.01115 0.59436 0.0
C808 C 0.59328 0.03032 0.63113 0.0
C809 C 0.59623 0.98601 0.60538 0.0
C810 C 0.62847 0.98299 0.63033 0.0
C811 C 0.65738 1.00241 0.6705 0.0
C812 C 0.65599 0.02461 0.68334 0.0
C813 C 0.6268 1.00505 0.64393 0.0
C814 C 0.62427 0.04939 0.66891 0.0
C815 C 0.59284 0.05228 0.64339 0.0
H816 H 0.04774 0.94766 0.94415 0.0
H817 H 0.00137 0.93348 0.04138 0.0
H818 H 0.0074 0.89473 1.01613 0.0
H819 H 0.0197 0.86713 0.96518 0.0
H820 H 0.0626 0.88216 0.86684 0.0
H821 H 0.06333 0.91863 0.89354 0.0
C822 C 0.04017 0.93566 0.96005 0.0
C823 C 0.02476 0.94317 0.99472 0.0
C824 C 0.04213 0.91392 0.94493 0.0
C825 C 0.01373 0.92791 1.01473 0.0
C826 C 0.01684 0.90588 1.00024 0.0
C827 C 0.02998 0.87808 0.94972 0.0
C828 C 0.04126 0.87186 0.91411 0.0
C829 C 0.03006 0.89904 0.96517 0.0
C830 C 0.05343 0.88668 0.89424 0.0
C831 C 0.05411 0.90742 0.90955 0.0
H832 H 0.0886 0.11429 0.02897 0.0
H833 H 0.17942 0.07875 0.94075 0.0
H834 H 0.18804 0.11611 0.93728 0.0
H835 H 0.16439 0.16052 0.95616 0.0
H836 H 0.07243 0.19639 0.04372 0.0
H837 H 0.06949 0.15724 0.0507 0.0
C838 C 0.11042 0.11471 1.00911 0.0
C839 C 0.13288 0.094 0.98487 0.0
C840 C 0.11462 0.13638 1.00698 0.0
C841 C 0.16189 0.09444 0.95975 0.0
C842 C 0.16652 0.11588 0.95759 0.0
C843 C 0.14366 0.15973 0.97671 0.0
C844 C 0.11801 0.18142 0.999 0.0
C845 C 0.14212 0.13723 0.98049 0.0
C846 C 0.09231 0.17994 0.02617 0.0
C847 C 0.09054 0.15762 0.0301 0.0
H848 H 0.58457 0.60899 0.26477 0.0
H849 H 0.72152 0.59224 0.27201 0.0
H850 H 0.69134 0.63931 0.27029 0.0
H851 H 0.62548 0.68554 0.26985 0.0
H852 H 0.48863 0.70213 0.26232 0.0
H853 H 0.51913 0.65508 0.26079 0.0
C854 C 0.60782 0.61565 0.26579 0.0
C855 C 0.65525 0.59708 0.26886 0.0
C856 C 0.59014 0.64282 0.26488 0.0
C857 C 0.68489 0.60607 0.26986 0.0
C858 C 0.66761 0.63302 0.26892 0.0
C859 C 0.60238 0.67884 0.26769 0.0
C860 C 0.55475 0.69739 0.26657 0.0
C861 C 0.62024 0.65163 0.26694 0.0
C862 C 0.52535 0.68834 0.26347 0.0
C863 C 0.5428 0.66139 0.26263 0.0
H864 H 0.28687 0.88949 0.56593 0.0
H865 H 0.42856 0.83743 0.53669 0.0
H866 H 0.43554 0.87502 0.52858 0.0
H867 H 0.40305 0.9223 0.53413 0.0
H868 H 0.26256 0.97427 0.56539 0.0
H869 H 0.25378 0.93692 0.56969 0.0
C870 C 0.31943 0.88631 0.55809 0.0
C871 C 0.35724 0.86061 0.55227 0.0
C872 C 0.3235 0.90795 0.55425 0.0
C873 C 0.39879 0.85696 0.54115 0.0
C874 C 0.40294 0.87843 0.53676 0.0
C875 C 0.37026 0.92546 0.54105 0.0
C876 C 0.33331 0.95093 0.54894 0.0
C877 C 0.36571 0.90395 0.5437 0.0
C878 C 0.2914 0.95478 0.55918 0.0
C879 C 0.28641 0.93347 0.56157 0.0
H880 H 0.12454 0.68812 0.77407 0.0
H881 H -0.01235 0.70459 0.77928 0.0
H882 H 0.01764 0.65778 0.7755 0.0
H883 H 0.08275 0.61183 0.77296 0.0
H884 H 0.22016 0.59451 0.76888 0.0
H885 H 0.19027 0.64163 0.76977 0.0
C886 C 0.10134 0.68143 0.77426 0.0
C887 C 0.05377 0.69999 0.77678 0.0
C888 C 0.11901 0.6542 0.77239 0.0
C889 C 0.02428 0.69089 0.77708 0.0
C890 C 0.04146 0.66404 0.77503 0.0
C891 C 0.1062 0.61834 0.77211 0.0
C892 C 0.15371 0.59958 0.77109 0.0
C893 C 0.08873 0.64548 0.77296 0.0
C894 C 0.1835 0.60847 0.76983 0.0
C895 C 0.16637 0.63545 0.77041 0.0
H896 H 0.86214 0.36291 0.50668 0.0
H897 H 0.79438 0.37813 0.60677 0.0
H898 H 0.78841 0.41994 0.61091 0.0
H899 H 0.8046 0.45149 0.58736 0.0
H900 H 0.87686 0.43534 0.48925 0.0
H901 H 0.87831 0.39484 0.48289 0.0
C902 C 0.84648 0.37528 0.52953 0.0
C903 C 0.82883 0.36735 0.55639 0.0
C904 C 0.84369 0.39922 0.53203 0.0
C905 C 0.8078 0.38386 0.58552 0.0
C906 C 0.80454 0.40774 0.58801 0.0
C907 C 0.82094 0.43906 0.56467 0.0
C908 C 0.84083 0.44643 0.53899 0.0
C909 C 0.82267 0.41551 0.56159 0.0
C910 C 0.86085 0.43034 0.50931 0.0
C911 C 0.86208 0.40703 0.50578 0.0
H912 H 0.27564 0.94579 0.26545 0.0
H913 H 0.40433 0.94009 0.25972 0.0
H914 H 0.44578 0.89226 0.26353 0.0
H915 H 0.44576 0.8514 0.26504 0.0
H916 H 0.31682 0.85736 0.27094 0.0
H917 H 0.27575 0.90517 0.27086 0.0
C918 C 0.31274 0.93407 0.26532 0.0
C919 C 0.33674 0.94659 0.26199 0.0
C920 C 0.33657 0.90639 0.26742 0.0
C921 C 0.38488 0.93104 0.26204 0.0
C922 C 0.40872 0.9036 0.26418 0.0
C923 C 0.40873 0.86319 0.26662 0.0
C924 C 0.38451 0.85069 0.26764 0.0
C925 C 0.385 0.89094 0.26635 0.0
C926 C 0.33645 0.86636 0.26984 0.0
C927 C 0.31279 0.8938 0.26975 0.0
H928 H 0.3796 0.43319 0.7831 0.0
H929 H 0.24768 0.45316 0.74494 0.0
H930 H 0.2762 0.40664 0.73879 0.0
H931 H 0.33961 0.36026 0.74071 0.0
H932 H 0.47048 0.33905 0.78242 0.0
H933 H 0.44155 0.38577 0.79122 0.0
C934 C 0.35707 0.42729 0.77373 0.0
C935 C 0.31161 0.44677 0.76404 0.0
C936 C 0.37361 0.40023 0.77084 0.0
C937 C 0.28274 0.43874 0.75241 0.0
C938 C 0.2991 0.41207 0.7488 0.0
C939 C 0.36172 0.36585 0.75204 0.0
C940 C 0.40729 0.34619 0.76061 0.0
C941 C 0.3446 0.39266 0.75738 0.0
C942 C 0.4353 0.35376 0.77563 0.0
C943 C 0.41876 0.38051 0.78046 0.0
H944 H 0.1668 0.80086 0.64734 0.0
H945 H 0.1517 0.75458 0.56991 0.0
H946 H 0.09465 0.75375 0.60647 0.0
H947 H 0.05239 0.76419 0.66244 0.0
H948 H 0.0703 0.80926 0.74087 0.0
H949 H 0.12263 0.81261 0.70227 0.0
C950 C 0.15015 0.79111 0.6383 0.0
C951 C 0.16181 0.77868 0.60544 0.0
C952 C 0.11829 0.79025 0.65995 0.0
C953 C 0.14138 0.76535 0.59433 0.0
C954 C 0.10938 0.76453 0.61554 0.0
C955 C 0.06747 0.7749 0.67101 0.0
C956 C 0.05742 0.78635 0.70469 0.0
C957 C 0.0979 0.77668 0.64864 0.0
C958 C 0.07743 0.80013 0.71524 0.0
C959 C 0.10743 0.80209 0.69314 0.0
H960 H 0.20594 0.92133 0.46242 0.0
H961 H 0.12299 0.92022 0.37901 0.0
H962 H 0.11675 0.88735 0.41081 0.0
H963 H 0.14239 0.85518 0.45902 0.0
H964 H 0.22952 0.85455 0.54027 0.0
H965 H 0.22649 0.89176 0.51276 0.0
C966 C 0.18636 0.91396 0.45124 0.0
C967 C 0.16535 0.92308 0.4182 0.0
C968 C 0.18374 0.89465 0.4693 0.0
C969 C 0.1393 0.91371 0.40447 0.0
C970 C 0.13595 0.89476 0.42255 0.0
C971 C 0.15959 0.86369 0.47121 0.0
C972 C 0.18606 0.85214 0.50165 0.0
C973 C 0.1589 0.88463 0.45461 0.0
C974 C 0.20887 0.86309 0.51683 0.0
C975 C 0.20738 0.88429 0.50101 0.0
H976 H 0.87547 0.68562 0.60843 0.0
H977 H 0.01922 0.64748 0.63263 0.0
H978 H 0.03589 0.60906 0.59938 0.0
H979 H 0.01033 0.58638 0.56303 0.0
H980 H 0.86674 0.62295 0.54029 0.0
H981 H 0.84956 0.66246 0.57198 0.0
C982 C 0.91049 0.669 0.60607 0.0
C983 C 0.94598 0.66944 0.62313 0.0
C984 C 0.92004 0.64697 0.58645 0.0
C985 C -0.00889 0.64755 0.62028 0.0
C986 C 0.00082 0.62567 0.60085 0.0
C987 C 0.97535 0.60315 0.5644 0.0
C988 C 0.93992 0.60193 0.54895 0.0
C989 C 0.96567 0.62524 0.58364 0.0
C990 C 0.89462 0.62356 0.55177 0.0
C991 C 0.88479 0.64605 0.57003 0.0
H992 H 0.27406 0.75947 0.40144 0.0
H993 H 0.32919 0.7804 0.48654 0.0
H994 H 0.38386 0.78095 0.44661 0.0
H995 H 0.41274 0.7779 0.3859 0.0
H996 H 0.35539 0.7573 0.30121 0.0
H997 H 0.30476 0.75446 0.34212 0.0
C998 C 0.29878 0.76359 0.4113 0.0
C999 C 0.29896 0.7689 0.44715 0.0
C1000 C 0.32919 0.76439 0.38793 0.0
C1001 C 0.33021 0.77488 0.4595 0.0
C1002 C 0.36075 0.77573 0.43642 0.0
C1003 C 0.38921 0.77276 0.37647 0.0
C1004 C 0.38787 0.76795 0.34038 0.0
C1005 C 0.36018 0.77084 0.40039 0.0
C1006 C 0.35735 0.7611 0.32872 0.0
C1007 C 0.32826 0.75945 0.35213 0.0
H1008 H 0.32254 0.12554 0.12401 0.0
H1009 H 0.21629 0.12823 0.06199 0.0
H1010 H 0.21047 0.16331 0.02581 0.0
H1011 H 0.23015 0.19593 1.01587 0.0
H1012 H 0.33576 0.19362 0.07854 0.0
H1013 H 0.34769 0.15534 0.11017 0.0
C1014 C 0.29808 0.13388 0.10256 0.0
C1015 C 0.26931 0.12476 0.09597 0.0
C1016 C 0.29478 0.15404 0.08209 0.0
C1017 C 0.23856 0.13512 0.06762 0.0
C1018 C 0.2351 0.15521 0.04707 0.0
C1019 C 0.25627 0.18684 0.03611 0.0
C1020 C 0.28169 0.19779 0.04513 0.0
C1021 C 0.26231 0.16519 0.05459 0.0
C1022 C 0.3158 0.18556 0.07104 0.0
C1023 C 0.32232 0.16383 0.08938 0.0
H1024 H 0.74639 0.80101 0.9141 0.0
H1025 H 0.83864 0.72264 0.95364 0.0
H1026 H 0.89793 0.71664 0.91252 0.0
H1027 H 0.92296 0.73394 0.86432 0.0
H1028 H 0.83079 0.81327 0.82797 0.0
H1029 H 0.77198 0.81879 0.86874 0.0
C1030 C 0.77951 0.78259 0.9137 0.0
C1031 C 0.78809 0.76217 0.93653 0.0
C1032 C 0.81329 0.7795 0.89039 0.0
C1033 C 0.83134 0.73861 0.93625 0.0
C1034 C 0.8651 0.73518 0.91266 0.0
C1035 C 0.88976 0.75226 0.86525 0.0
C1036 C 0.88053 0.77304 0.84279 0.0
C1037 C 0.85636 0.75544 0.88937 0.0
C1038 C 0.83805 0.79694 0.84464 0.0
C1039 C 0.80459 0.80011 0.86802 0.0
H1040 H 0.33628 0.61337 0.61704 0.0
H1041 H 0.19623 0.63781 0.59802 0.0
H1042 H 0.18243 0.67669 0.56701 0.0
H1043 H 0.20932 0.70419 0.54643 0.0
H1044 H 0.34866 0.68069 0.56683 0.0
H1045 H 0.36403 0.64032 0.59472 0.0
C1046 C 0.30297 0.6269 0.60548 0.0
C1047 C 0.26733 0.62264 0.60999 0.0
C1048 C 0.2953 0.64917 0.5874 0.0
C1049 C 0.22413 0.64072 0.59539 0.0
C1050 C 0.21632 0.66284 0.5773 0.0
C1051 C 0.24332 0.69012 0.55648 0.0
C1052 C 0.27786 0.69551 0.55442 0.0
C1053 C 0.25156 0.66733 0.57329 0.0
C1054 C 0.32148 0.67707 0.56798 0.0
C1055 C 0.33023 0.65402 0.58406 0.0
H1056 H 0.34128 0.99391 0.3652 0.0
H1057 H 0.29376 0.07124 0.32561 0.0
H1058 H 0.34155 0.07574 0.36858 0.0
H1059 H 0.40179 0.05617 0.41487 0.0
H1060 H 0.45685 0.97641 0.44701 0.0
H1061 H 0.40114 0.97442 0.41068 0.0
C1062 C 0.3409 1.01189 0.36635 0.0
C1063 C 0.31376 0.03227 0.3424 0.0
C1064 C 0.36994 1.01389 0.39013 0.0
C1065 C 0.31437 0.05524 0.34374 0.0
C1066 C 0.34171 0.05783 0.36835 0.0
C1067 C 0.40073 0.03863 0.41436 0.0
C1068 C 0.43238 1.01669 0.43459 0.0
C1069 C 0.37028 0.03711 0.39137 0.0
C1070 C 0.43201 0.99372 0.43259 0.0
C1071 C 0.40037 0.99252 0.41146 0.0
H1072 H 0.89434 0.84931 0.01978 0.0
H1073 H 0.75501 0.88556 0.05481 0.0
H1074 H 0.74372 0.92891 0.05095 0.0
H1075 H 0.77529 0.95611 0.04181 0.0
H1076 H 0.91563 0.9194 1.0087 0.0
H1077 H 0.9242 0.87686 1.00658 0.0
C1078 C 0.86138 0.86675 0.02612 0.0
C1079 C 0.82586 0.86427 0.03818 0.0
C1080 C 0.85525 0.89156 0.02412 0.0
C1081 C 0.78324 0.88699 0.04633 0.0
C1082 C 0.77667 0.91176 0.04393 0.0
C1083 C 0.80766 0.93881 0.03401 0.0
C1084 C 0.84471 0.94099 0.02559 0.0
C1085 C 0.81277 0.91422 0.03365 0.0
C1086 C 0.88628 0.91843 1.01494 0.0
C1087 C 0.89142 0.89398 1.01403 0.0
H1088 H 0.65657 0.16189 0.51665 0.0
H1089 H 0.54353 0.20099 0.44388 0.0
H1090 H 0.53894 0.16221 0.44228 0.0
H1091 H 0.57037 0.11622 0.4586 0.0
H1092 H 0.68306 0.07719 0.53162 0.0
H1093 H 0.68438 0.11705 0.5364 0.0
C1094 C 0.63074 0.16199 0.50066 0.0
C1095 C 0.60061 0.18424 0.48029 0.0
C1096 C 0.62848 0.13961 0.49976 0.0
C1097 C 0.56694 0.18419 0.45998 0.0
C1098 C 0.56451 0.16196 0.45886 0.0
C1099 C 0.59524 0.1165 0.47548 0.0
C1100 C 0.62711 0.09377 0.49426 0.0
C1101 C 0.59565 0.13942 0.47812 0.0
C1102 C 0.65839 0.09447 0.51681 0.0
C1103 C 0.6592 0.11719 0.51945 0.0
H1104 H 0.8724 0.43197 0.30061 0.0
H1105 H 0.76644 0.45045 0.2252 0.0
H1106 H 0.80029 0.40367 0.21431 0.0
H1107 H 0.86159 0.35724 0.22474 0.0
H1108 H 0.96226 0.33819 0.30504 0.0
H1109 H 0.92945 0.38507 0.31553 0.0
C1110 C 0.85661 0.42567 0.28204 0.0
C1111 C 0.81709 0.4447 0.26359 0.0
C1112 C 0.87564 0.39855 0.27661 0.0
C1113 C 0.79673 0.43626 0.23984 0.0
C1114 C 0.81623 0.40947 0.23346 0.0
C1115 C 0.87628 0.3634 0.24455 0.0
C1116 C 0.91494 0.34427 0.26364 0.0
C1117 C 0.85594 0.39042 0.2514 0.0
C1118 C 0.93293 0.35254 0.28975 0.0
C1119 C 0.91405 0.37937 0.29577 0.0
H1120 H 0.19471 0.58224 0.50224 0.0
H1121 H 0.05581 0.61867 0.5384 0.0
H1122 H 0.04613 0.6616 0.53779 0.0
H1123 H 0.07448 0.68932 0.52098 0.0
H1124 H 0.21319 0.65304 0.48415 0.0
H1125 H 0.22529 0.60968 0.49039 0.0
C1126 C 0.16254 0.59958 0.51032 0.0
C1127 C 0.12615 0.59727 0.52051 0.0
C1128 C 0.15684 0.62431 0.5091 0.0
C1129 C 0.08468 0.61984 0.53114 0.0
C1130 C 0.0789 0.64447 0.53036 0.0
C1131 C 0.10755 0.67192 0.5148 0.0
C1132 C 0.14249 0.67448 0.50137 0.0
C1133 C 0.11438 0.64701 0.51856 0.0
C1134 C 0.18519 0.65168 0.49348 0.0
C1135 C 0.19232 0.62685 0.49733 0.0
H1136 H 0.69221 0.1009 0.77004 0.0
H1137 H 0.56868 0.10088 0.76457 0.0
H1138 H 0.5227 0.14883 0.76131 0.0
H1139 H 0.51678 0.19158 0.76584 0.0
H1140 H 0.64084 0.19094 0.77272 0.0
H1141 H 0.68676 0.14317 0.76873 0.0
C1142 C 0.65528 0.11139 0.76783 0.0
C1143 C 0.63405 0.0972 0.7681 0.0
C1144 C 0.6288 0.13916 0.76605 0.0
C1145 C 0.58606 0.11122 0.76486 0.0
C1146 C 0.55959 0.13875 0.76293 0.0
C1147 C 0.55381 0.18096 0.76542 0.0
C1148 C 0.57529 0.19489 0.76935 0.0
C1149 C 0.58041 0.15308 0.76421 0.0
C1150 C 0.62341 0.18074 0.76955 0.0
C1151 C 0.64982 0.15332 0.76755 0.0
H1152 H 0.83038 0.61035 0.1094 0.0
H1153 H 0.68785 0.63696 0.10078 0.0
H1154 H 0.67225 0.67589 0.06861 0.0
H1155 H 0.69832 0.70345 0.04613 0.0
H1156 H 0.84103 0.67663 0.05432 0.0
H1157 H 0.8574 0.6364 0.08305 0.0
C1158 C 0.79602 0.6244 0.09997 0.0
C1159 C 0.76033 0.62072 0.10767 0.0
C1160 C 0.78731 0.64671 0.08149 0.0
C1161 C 0.71586 0.63945 0.09573 0.0
C1162 C 0.70695 0.66166 0.07718 0.0
C1163 C 0.73321 0.68862 0.05351 0.0
C1164 C 0.76842 0.6931 0.04792 0.0
C1165 C 0.74231 0.66565 0.07035 0.0
C1166 C 0.81326 0.67375 0.05824 0.0
C1167 C 0.82264 0.65075 0.07479 0.0
H1168 H 0.90422 0.50889 0.46053 0.0
H1169 H 0.92574 0.56186 0.40186 0.0
H1170 H 0.87516 0.56417 0.35509 0.0
H1171 H 0.82929 0.54861 0.32915 0.0
H1172 H 0.80887 0.49471 0.38724 0.0
H1173 H 0.85457 0.49515 0.4358 0.0
C1174 C 0.89649 0.52158 0.43801 0.0
C1175 C 0.91751 0.53576 0.43499 0.0
C1176 C 0.86826 0.52223 0.41085 0.0
C1177 C 0.909 0.55128 0.40504 0.0
C1178 C 0.88045 0.55238 0.37818 0.0
C1179 C 0.83458 0.53701 0.35248 0.0
C1180 C 0.8158 0.52146 0.35427 0.0
C1181 C 0.86066 0.5375 0.38047 0.0
C1182 C 0.82288 0.50679 0.38495 0.0
C1183 C 0.84894 0.5071 0.41286 0.0
H1184 H 0.18278 0.49174 0.66838 0.0
H1185 H 0.09674 0.57285 0.69896 0.0
H1186 H 0.03632 0.57873 0.65911 0.0
H1187 H 0.00582 0.55961 0.61907 0.0
H1188 H 0.09406 0.4795 0.58468 0.0
H1189 H 0.15583 0.47433 0.62218 0.0
C1190 C 0.15103 0.51077 0.66579 0.0
C1191 C 0.14399 0.53185 0.68654 0.0
C1192 C 0.11673 0.51404 0.64243 0.0
C1193 C 0.10286 0.55643 0.68307 0.0
C1194 C 0.06826 0.55972 0.66046 0.0
C1195 C 0.03871 0.54108 0.61965 0.0
C1196 C 0.04517 0.51977 0.59962 0.0
C1197 C 0.07442 0.5385 0.6406 0.0
C1198 C 0.08818 0.49608 0.60006 0.0
C1199 C 0.12346 0.49313 0.62154 0.0
H1200 H 0.5311 0.8119 0.17998 0.0
H1201 H 0.60562 0.72848 0.19866 0.0
H1202 H 0.66515 0.72161 0.15757 0.0
H1203 H 0.69694 0.73942 0.11725 0.0
H1204 H 0.61925 0.8221 0.09321 0.0
H1205 H 0.55986 0.82931 0.13503 0.0
C1206 C 0.56051 0.79229 0.175 0.0
C1207 C 0.56458 0.77072 0.19264 0.0
C1208 C 0.59386 0.78841 0.15032 0.0
C1209 C 0.60215 0.74533 0.18552 0.0
C1210 C 0.63611 0.74141 0.16205 0.0
C1211 C 0.66687 0.759 0.12115 0.0
C1212 C 0.6626 0.78028 0.10264 0.0
C1213 C 0.63248 0.7628 0.14444 0.0
C1214 C 0.62319 0.80546 0.10728 0.0
C1215 C 0.58939 0.80957 0.13128 0.0
H1216 H 0.6499 0.49095 0.20679 0.0
H1217 H 0.65589 0.55275 0.15655 0.0
H1218 H 0.60854 0.55372 0.10814 0.0
H1219 H 0.56274 0.53806 0.08114 0.0
H1220 H 0.55871 0.4756 0.13121 0.0
H1221 H 0.60791 0.47382 0.17844 0.0
C1222 C 0.6409 0.50466 0.18527 0.0
C1223 C 0.65624 0.5219 0.18556 0.0
C1224 C 0.61399 0.50495 0.15737 0.0
C1225 C 0.64458 0.53928 0.15714 0.0
C1226 C 0.61744 0.53986 0.12941 0.0
C1227 C 0.57331 0.52377 0.10207 0.0
C1228 C 0.55715 0.5069 0.10254 0.0
C1229 C 0.60169 0.52288 0.12932 0.0
C1230 C 0.57061 0.48878 0.13018 0.0
C1231 C 0.59868 0.4878 0.15728 0.0
H1232 H 0.28781 0.46358 0.08637 0.0
H1233 H 0.37794 0.44273 0.99761 0.0
H1234 H 0.38219 0.40143 0.99132 0.0
H1235 H 0.36509 0.36966 1.01396 0.0
H1236 H 0.27706 0.39011 0.10398 0.0
H1237 H 0.26794 0.43286 0.10724 0.0
C1238 C 0.30832 0.45001 0.06562 0.0
C1239 C 0.33255 0.45623 0.0426 0.0
C1240 C 0.31151 0.42604 0.06265 0.0
C1241 C 0.35841 0.43862 1.01545 0.0
C1242 C 0.36124 0.41486 1.01202 0.0
C1243 C 0.34358 0.3836 0.03405 0.0
C1244 C 0.32239 0.37659 0.05902 0.0
C1245 C 0.3386 0.40815 0.03587 0.0
C1246 C 0.29461 0.39483 0.08494 0.0
C1247 C 0.28911 0.41934 0.0867 0.0
H1248 H 0.10546 0.18497 0.24608 0.0
H1249 H 0.01779 0.1966 0.33331 0.0
H1250 H 0.05044 0.14944 0.33665 0.0
H1251 H 0.10677 0.1046 0.31751 0.0
H1252 H 0.19903 0.09124 0.23308 0.0
H1253 H 0.16246 0.13892 0.22599 0.0
C1254 C 0.09307 0.1771 0.2653 0.0
C1255 C 0.05873 0.19431 0.28919 0.0
C1256 C 0.11343 0.14955 0.26794 0.0
C1257 C 0.04382 0.18381 0.31452 0.0
C1258 C 0.06268 0.1568 0.31656 0.0
C1259 C 0.11885 0.1121 0.29745 0.0
C1260 C 0.15567 0.09434 0.27593 0.0
C1261 C 0.09802 0.13944 0.2939 0.0
C1262 C 0.17087 0.10445 0.25011 0.0
C1263 C 0.14983 0.13176 0.24602 0.0
H1264 H 0.22593 0.35752 1.01373 0.0
H1265 H 0.12243 0.35797 0.95056 0.0
H1266 H 0.1108 0.39561 0.91756 0.0
H1267 H 0.13484 0.42581 0.90308 0.0
H1268 H 0.23865 0.42529 0.96576 0.0
H1269 H 0.2445 0.39075 1.00296 0.0
C1270 C 0.20039 0.36605 0.99305 0.0
C1271 C 0.17547 0.35469 0.98443 0.0
C1272 C 0.19427 0.38752 0.97382 0.0
C1273 C 0.14208 0.36626 0.95785 0.0
C1274 C 0.13567 0.38768 0.93872 0.0
C1275 C 0.15895 0.41801 0.92477 0.0
C1276 C 0.18683 0.42779 0.93125 0.0
C1277 C 0.16249 0.39796 0.94581 0.0
C1278 C 0.21694 0.41803 0.96009 0.0
C1279 C 0.22055 0.39813 0.98123 0.0
H1280 H 0.25011 0.29499 0.89435 0.0
H1281 H 0.35053 0.24532 0.97206 0.0
H1282 H 0.4114 0.24204 0.93559 0.0
H1283 H 0.43613 0.25258 0.88015 0.0
H1284 H 0.3348 0.29872 0.80087 0.0
H1285 H 0.27441 0.30395 0.83913 0.0
C1286 C 0.28532 0.28344 0.90339 0.0
C1287 C 0.29567 0.27084 0.9362 0.0
C1288 C 0.32006 0.28092 0.88176 0.0
C1289 C 0.34152 0.25573 0.94731 0.0
C1290 C 0.37636 0.2537 0.92629 0.0
C1291 C 0.40077 0.26384 0.87146 0.0
C1292 C 0.38991 0.27528 0.83774 0.0
C1293 C 0.36607 0.26617 0.89335 0.0
C1294 C 0.34406 0.28958 0.82659 0.0
C1295 C 0.30946 0.29264 0.84847 0.0
H1296 H 0.40434 0.50835 0.95804 0.0
H1297 H 0.40625 0.57134 0.90741 0.0
H1298 H 0.35922 0.57161 0.85949 0.0
H1299 H 0.31976 0.55308 0.83083 0.0
H1300 H 0.31535 0.49096 0.88169 0.0
H1301 H 0.36086 0.49129 0.93064 0.0
C1302 C 0.39379 0.52242 0.93681 0.0
C1303 C 0.40872 0.53989 0.93639 0.0
C1304 C 0.36662 0.52246 0.9092 0.0
C1305 C 0.39527 0.55773 0.90841 0.0
C1306 C 0.36845 0.55784 0.88093 0.0
C1307 C 0.32874 0.53955 0.85258 0.0
C1308 C 0.31445 0.52182 0.85231 0.0
C1309 C 0.3544 0.5401 0.88081 0.0
C1310 C 0.32594 0.50476 0.88107 0.0
C1311 C 0.35198 0.50495 0.90911 0.0
H1312 H 0.65564 0.66242 0.94731 0.0
H1313 H 0.5565 0.69645 0.03108 0.0
H1314 H 0.555 0.65678 0.03396 0.0
H1315 H 0.58148 0.61264 1.01254 0.0
H1316 H 0.68551 0.57727 0.93251 0.0
H1317 H 0.68601 0.61729 0.92887 0.0
C1318 C 0.63424 0.66111 0.9667 0.0
C1319 C 0.60616 0.68258 0.98887 0.0
C1320 C 0.63456 0.63796 0.96902 0.0
C1321 C 0.57785 0.68055 1.01316 0.0
C1322 C 0.57731 0.65773 1.01513 0.0
C1323 C 0.60502 0.61341 0.99485 0.0
C1324 C 0.63347 0.59191 0.97289 0.0
C1325 C 0.60558 0.63632 0.99322 0.0
C1326 C 0.66286 0.59361 0.94943 0.0
C1327 C 0.66327 0.61645 0.94741 0.0
H1328 H 0.94246 0.85414 0.77258 0.0
H1329 H 0.81569 0.85738 0.77105 0.0
H1330 H 0.77229 0.90521 0.7722 0.0
H1331 H 0.7696 0.94665 0.77064 0.0
H1332 H 0.89577 0.94398 0.77315 0.0
H1333 H 0.93961 0.89596 0.77491 0.0
C1334 C 0.90539 0.86534 0.77287 0.0
C1335 C 0.8825 0.85207 0.77142 0.0
C1336 C 0.88027 0.89316 0.77348 0.0
C1337 C 0.83433 0.86699 0.77183 0.0
C1338 C 0.80933 0.89444 0.77247 0.0
C1339 C 0.80667 0.93555 0.77172 0.0
C1340 C 0.82927 0.94897 0.77136 0.0
C1341 C 0.83182 0.90781 0.77276 0.0
C1342 C 0.87739 0.93421 0.77313 0.0
C1343 C 0.90259 0.90668 0.77411 0.0
H1344 H 0.49524 0.15656 0.57793 0.0
H1345 H 0.37558 0.17552 0.63692 0.0
H1346 H 0.37324 0.14056 0.60726 0.0
H1347 H 0.40715 0.10337 0.56642 0.0
H1348 H 0.5261 0.0848 0.50647 0.0
H1349 H 0.52645 0.12092 0.53416 0.0
C1350 C 0.46878 0.15293 0.5842 0.0
C1351 C 0.43576 0.16843 0.60958 0.0
C1352 C 0.46729 0.133 0.5667 0.0
C1353 C 0.40126 0.16383 0.61732 0.0
C1354 C 0.39989 0.14388 0.60039 0.0
C1355 C 0.43253 0.10756 0.55884 0.0
C1356 C 0.46664 0.09129 0.53453 0.0
C1357 C 0.4328 0.12827 0.5751 0.0
C1358 C 0.49959 0.0969 0.5253 0.0
C1359 C 0.49996 0.11751 0.54122 0.0
H1360 H 0.49832 0.38015 0.94391 0.0
H1361 H 0.59232 0.37868 0.86903 0.0
H1362 H 0.59525 0.41205 0.90293 0.0
H1363 H 0.56698 0.44361 0.95178 0.0
H1364 H 0.47111 0.4456 0.02543 0.0
H1365 H 0.4735 0.40977 0.99433 0.0
C1366 C 0.51923 0.38727 0.93492 0.0
C1367 C 0.54456 0.3773 0.90381 0.0
C1368 C 0.52074 0.40633 0.95449 0.0
C1369 C 0.57242 0.38617 0.89288 0.0
C1370 C 0.57411 0.4052 0.91224 0.0
C1371 C 0.54751 0.43577 0.96151 0.0
C1372 C 0.51901 0.44721 0.99091 0.0
C1373 C 0.54807 0.41559 0.94293 0.0
C1374 C 0.49342 0.43709 1.00289 0.0
C1375 C 0.49448 0.41673 0.98499 0.0
H1376 H 0.58072 0.85903 0.42462 0.0
H1377 H 0.43859 0.88824 0.44307 0.0
H1378 H 0.43082 0.92393 0.47828 0.0
H1379 H 0.46293 0.94822 0.5016 0.0
H1380 H 0.60372 0.92077 0.48005 0.0
H1381 H 0.61378 0.88257 0.44972 0.0
C1382 C 0.54805 0.87321 0.43644 0.0
C1383 C 0.51026 0.87101 0.43105 0.0
C1384 C 0.5437 0.8938 0.45676 0.0
C1385 C 0.46835 0.88931 0.447 0.0
C1386 C 0.46385 0.90975 0.46725 0.0
C1387 C 0.49604 0.93374 0.49076 0.0
C1388 C 0.53229 0.93766 0.49283 0.0
C1389 C 0.50115 0.91232 0.47213 0.0
C1390 C 0.57504 0.91846 0.47874 0.0
C1391 C 0.58078 0.89665 0.46112 0.0
H1392 H 0.51464 0.59074 0.04426 0.0
H1393 H 0.3723 0.61727 0.05416 0.0
H1394 H 0.35621 0.65779 0.08197 0.0
H1395 H 0.3835 0.68437 0.10638 0.0
H1396 H 0.52636 0.65691 0.09818 0.0
H1397 H 0.54153 0.61759 0.06759 0.0
C1398 C 0.4799 0.60553 0.052 0.0
C1399 C 0.4446 0.60107 0.04696 0.0
C1400 C 0.47116 0.62839 0.06872 0.0
C1401 C 0.40001 0.62027 0.05767 0.0
C1402 C 0.39084 0.64338 0.07367 0.0
C1403 C 0.41781 0.67001 0.09733 0.0
C1404 C 0.45372 0.67363 0.10444 0.0
C1405 C 0.42628 0.64748 0.07973 0.0
C1406 C 0.49819 0.65452 0.09328 0.0
C1407 C 0.50682 0.63214 0.07553 0.0
loop_
_geom_bond_atom_site_label_1
_geom_bond_atom_site_label_2
_geom_bond_distance
_geom_bond_site_symmetry_2
_ccdc_geom_bond_type
Tb0 C2 2.809 . S
Tb0 O20 2.484 . S
Tb0 O21 2.440 . S
Tb0 O22 2.658 1_655 S
Tb0 O23 2.409 1_655 S
Tb0 O24 2.378 1_655 S
Tb0 O28 2.325 1_564 S
Tb0 O31 2.341 1_565 S
Tb1 C11 2.809 . S
Tb1 O22 2.325 1_546 S
Tb1 O25 2.341 1_545 S
Tb1 O26 2.484 . S
Tb1 O27 2.440 . S
Tb1 O28 2.658 1_455 S
Tb1 O29 2.409 1_455 S
Tb1 O30 2.378 1_455 S
C2 Tb0 2.809 . S
C2 C3 1.514 . S
C2 O20 1.248 . S
C2 O21 1.266 . S
C3 C2 1.514 . S
C3 C4 1.359 . S
C3 C8 1.348 . S
C4 C3 1.359 . S
C4 C5 1.380 . S
C4 H32 0.929 1_554 S
C5 C4 1.380 . S
C5 C6 1.347 . S
C5 H33 0.931 1_554 S
C6 C5 1.347 . S
C6 C7 1.369 . S
C7 C6 1.369 . S
C7 C8 1.408 . S
C7 H34 0.930 . S
C8 C3 1.348 . S
C8 C7 1.408 . S
C8 H35 0.930 . S
C9 O22 1.281 . S
C9 O23 1.254 . S
C10 O24 1.236 1_556 S
C10 O25 1.266 . S
C11 Tb1 2.809 . S
C11 C12 1.514 . S
C11 O26 1.248 . S
C11 O27 1.266 . S
C12 C11 1.514 . S
C12 C13 1.359 . S
C12 C17 1.348 . S
C13 C12 1.359 . S
C13 C14 1.380 . S
C13 H36 0.929 1_556 S
C14 C13 1.380 . S
C14 C15 1.347 . S
C14 H37 0.931 1_556 S
C15 C14 1.347 . S
C15 C16 1.369 . S
C16 C15 1.369 . S
C16 C17 1.408 . S
C16 H38 0.930 . S
C17 C12 1.348 . S
C17 C16 1.408 . S
C17 H39 0.930 . S
C18 O28 1.281 . S
C18 O29 1.254 . S
C19 O30 1.236 1_554 S
C19 O31 1.266 . S
O20 Tb0 2.484 . S
O20 C2 1.248 . S
O21 Tb0 2.440 . S
O21 C2 1.266 . S
O22 Tb0 2.658 1_455 S
O22 Tb1 2.325 1_564 S
O22 C9 1.281 . S
O23 Tb0 2.409 1_455 S
O23 C9 1.254 . S
O24 Tb0 2.378 1_455 S
O24 C10 1.236 1_554 S
O25 Tb1 2.341 1_565 S
O25 C10 1.266 . S
O26 Tb1 2.484 . S
O26 C11 1.248 . S
O27 Tb1 2.440 . S
O27 C11 1.266 . S
O28 Tb0 2.325 1_546 S
O28 Tb1 2.658 1_655 S
O28 C18 1.281 . S
O29 Tb1 2.409 1_655 S
O29 C18 1.254 . S
O30 Tb1 2.378 1_655 S
O30 C19 1.236 1_556 S
O31 Tb0 2.341 1_545 S
O31 C19 1.266 . S
H32 C4 0.929 1_556 S
H33 C5 0.931 1_556 S
H34 C7 0.930 . S
H35 C8 0.930 . S
H36 C13 0.929 1_554 S
H37 C14 0.931 1_554 S
H38 C16 0.930 . S
H39 C17 0.930 . S
Tb40 C42 2.809 . S
Tb40 O60 2.485 . S
Tb40 O61 2.440 . S
Tb40 O62 2.658 . S
Tb40 O63 2.409 . S
Tb40 O64 2.378 1_455 S
Tb40 O68 2.325 1_455 S
Tb40 O71 2.341 . S
Tb41 C51 2.809 . S
Tb41 O62 2.325 1_655 S
Tb41 O65 2.341 . S
Tb41 O66 2.484 . S
Tb41 O67 2.440 . S
Tb41 O68 2.658 . S
Tb41 O69 2.409 . S
Tb41 O70 2.378 1_655 S
C42 Tb40 2.809 . S
C42 C43 1.514 . S
C42 O60 1.250 . S
C42 O61 1.266 . S
C43 C42 1.514 . S
C43 C44 1.359 1_455 S
C43 C48 1.348 . S
C44 C43 1.359 1_655 S
C44 C45 1.380 . S
C44 H72 0.929 . S
C45 C44 1.380 . S
C45 C46 1.347 1_655 S
C45 H73 0.931 . S
C46 C45 1.347 1_455 S
C46 C47 1.369 . S
C47 C46 1.369 . S
C47 C48 1.408 . S
C47 H74 0.930 . S
C48 C43 1.348 . S
C48 C47 1.408 . S
C48 H75 0.930 . S
C49 O62 1.281 . S
C49 O63 1.254 . S
C50 O64 1.236 . S
C50 O65 1.266 . S
C51 Tb41 2.809 . S
C51 C52 1.514 . S
C51 O66 1.246 . S
C51 O67 1.266 . S
C52 C51 1.514 . S
C52 C53 1.359 1_655 S
C52 C57 1.348 . S
C53 C52 1.359 1_455 S
C53 C54 1.380 . S
C53 H76 0.929 . S
C54 C53 1.380 . S
C54 C55 1.347 1_455 S
C54 H77 0.931 . S
C55 C54 1.347 1_655 S
C55 C56 1.369 . S
C56 C55 1.369 . S
C56 C57 1.408 . S
C56 H78 0.930 . S
C57 C52 1.348 . S
C57 C56 1.408 . S
C57 H79 0.930 . S
C58 O68 1.281 . S
C58 O69 1.254 . S
C59 O70 1.236 . S
C59 O71 1.266 . S
O60 Tb40 2.485 . S
O60 C42 1.250 . S
O61 Tb40 2.440 . S
O61 C42 1.266 . S
O62 Tb40 2.658 . S
O62 Tb41 2.325 1_455 S
O62 C49 1.281 . S
O63 Tb40 2.409 . S
O63 C49 1.254 . S
O64 Tb40 2.378 1_655 S
O64 C50 1.236 . S
O65 Tb41 2.341 . S
O65 C50 1.266 . S
O66 Tb41 2.484 . S
O66 C51 1.246 . S
O67 Tb41 2.440 . S
O67 C51 1.266 . S
O68 Tb40 2.325 1_655 S
O68 Tb41 2.658 . S
O68 C58 1.281 . S
O69 Tb41 2.409 . S
O69 C58 1.254 . S
O70 Tb41 2.378 1_455 S
O70 C59 1.236 . S
O71 Tb40 2.341 . S
O71 C59 1.266 . S
H72 C44 0.929 . S
H73 C45 0.931 . S
H74 C47 0.930 . S
H75 C48 0.930 . S
H76 C53 0.929 . S
H77 C54 0.931 . S
H78 C56 0.930 . S
H79 C57 0.930 . S
Tb80 C82 2.809 . S
Tb80 O100 2.484 . S
Tb80 O101 2.440 . S
Tb80 O102 2.658 . S
Tb80 O103 2.409 . S
Tb80 O104 2.378 . S
Tb80 O108 2.325 . S
Tb80 O111 2.341 . S
Tb81 C91 2.809 . S
Tb81 O102 2.325 . S
Tb81 O105 2.341 . S
Tb81 O106 2.484 . S
Tb81 O107 2.440 . S
Tb81 O108 2.658 . S
Tb81 O109 2.409 . S
Tb81 O110 2.378 . S
C82 Tb80 2.809 . S
C82 C83 1.514 . S
C82 O100 1.248 . S
C82 O101 1.266 . S
C83 C82 1.514 . S
C83 C84 1.359 . S
C83 C88 1.348 . S
C84 C83 1.359 . S
C84 C85 1.380 . S
C84 H112 0.929 . S
C85 C84 1.380 . S
C85 C86 1.347 . S
C85 H113 0.931 . S
C86 C85 1.347 . S
C86 C87 1.369 . S
C87 C86 1.369 . S
C87 C88 1.408 . S
C87 H114 0.930 . S
C88 C83 1.348 . S
C88 C87 1.408 . S
C88 H115 0.930 . S
C89 O102 1.281 . S
C89 O103 1.254 . S
C90 O104 1.236 . S
C90 O105 1.266 . S
C91 Tb81 2.809 . S
C91 C92 1.514 . S
C91 O106 1.248 . S
C91 O107 1.266 . S
C92 C91 1.514 . S
C92 C93 1.359 . S
C92 C97 1.348 . S
C93 C92 1.359 . S
C93 C94 1.380 . S
C93 H116 0.929 . S
C94 C93 1.380 . S
C94 C95 1.347 . S
C94 H117 0.931 . S
C95 C94 1.347 . S
C95 C96 1.369 . S
C96 C95 1.369 . S
C96 C97 1.408 . S
C96 H118 0.930 . S
C97 C92 1.348 . S
C97 C96 1.408 . S
C97 H119 0.930 . S
C98 O108 1.281 . S
C98 O109 1.254 . S
C99 O110 1.236 . S
C99 O111 1.266 . S
O100 Tb80 2.484 . S
O100 C82 1.248 . S
O101 Tb80 2.440 . S
O101 C82 1.266 . S
O102 Tb80 2.658 . S
O102 Tb81 2.325 . S
O102 C89 1.281 . S
O103 Tb80 2.409 . S
O103 C89 1.254 . S
O104 Tb80 2.378 . S
O104 C90 1.236 . S
O105 Tb81 2.341 . S
O105 C90 1.266 . S
O106 Tb81 2.484 . S
O106 C91 1.248 . S
O107 Tb81 2.440 . S
O107 C91 1.266 . S
O108 Tb80 2.325 . S
O108 Tb81 2.658 . S
O108 C98 1.281 . S
O109 Tb81 2.409 . S
O109 C98 1.254 . S
O110 Tb81 2.378 . S
O110 C99 1.236 . S
O111 Tb80 2.341 . S
O111 C99 1.266 . S
H112 C84 0.929 . S
H113 C85 0.931 . S
H114 C87 0.930 . S
H115 C88 0.930 . S
H116 C93 0.929 . S
H117 C94 0.931 . S
H118 C96 0.930 . S
H119 C97 0.930 . S
Tb120 C122 2.809 . S
Tb120 O140 2.484 . S
Tb120 O141 2.440 . S
Tb120 O142 2.658 1_565 S
Tb120 O143 2.409 1_565 S
Tb120 O144 2.378 . S
Tb120 O148 2.325 . S
Tb120 O151 2.341 . S
Tb121 C131 2.809 . S
Tb121 O142 2.325 . S
Tb121 O145 2.341 . S
Tb121 O146 2.484 . S
Tb121 O147 2.440 . S
Tb121 O148 2.658 1_545 S
Tb121 O149 2.409 1_545 S
Tb121 O150 2.378 . S
C122 Tb120 2.809 . S
C122 C123 1.514 . S
C122 O140 1.248 . S
C122 O141 1.266 . S
C123 C122 1.514 . S
C123 C124 1.359 . S
C123 C128 1.348 . S
C124 C123 1.359 . S
C124 C125 1.380 . S
C124 H152 0.929 . S
C125 C124 1.380 . S
C125 C126 1.347 . S
C125 H153 0.931 . S
C126 C125 1.347 . S
C126 C127 1.369 . S
C127 C126 1.369 . S
C127 C128 1.408 . S
C127 H154 0.930 . S
C128 C123 1.348 . S
C128 C127 1.408 . S
C128 H155 0.930 . S
C129 O142 1.281 . S
C129 O143 1.254 . S
C130 O144 1.236 . S
C130 O145 1.266 1_565 S
C131 Tb121 2.809 . S
C131 C132 1.514 . S
C131 O146 1.248 . S
C131 O147 1.266 . S
C132 C131 1.514 . S
C132 C133 1.359 . S
C132 C137 1.348 . S
C133 C132 1.359 . S
C133 C134 1.380 . S
C133 H156 0.929 . S
C134 C133 1.380 . S
C134 C135 1.347 . S
C134 H157 0.931 . S
C135 C134 1.347 . S
C135 C136 1.369 . S
C136 C135 1.369 . S
C136 C137 1.408 . S
C136 H158 0.930 . S
C137 C132 1.348 . S
C137 C136 1.408 . S
C137 H159 0.930 . S
C138 O148 1.281 . S
C138 O149 1.254 . S
C139 O150 1.236 . S
C139 O151 1.266 1_545 S
O140 Tb120 2.484 . S
O140 C122 1.248 . S
O141 Tb120 2.440 . S
O141 C122 1.266 . S
O142 Tb120 2.658 1_545 S
O142 Tb121 2.325 . S
O142 C129 1.281 . S
O143 Tb120 2.409 1_545 S
O143 C129 1.254 . S
O144 Tb120 2.378 . S
O144 C130 1.236 . S
O145 Tb121 2.341 . S
O145 C130 1.266 1_545 S
O146 Tb121 2.484 . S
O146 C131 1.248 . S
O147 Tb121 2.440 . S
O147 C131 1.266 . S
O148 Tb120 2.325 . S
O148 Tb121 2.658 1_565 S
O148 C138 1.281 . S
O149 Tb121 2.409 1_565 S
O149 C138 1.254 . S
O150 Tb121 2.378 . S
O150 C139 1.236 . S
O151 Tb120 2.341 . S
O151 C139 1.266 1_565 S
H152 C124 0.929 . S
H153 C125 0.931 . S
H154 C127 0.930 . S
H155 C128 0.930 . S
H156 C133 0.929 . S
H157 C134 0.931 . S
H158 C136 0.930 . S
H159 C137 0.930 . S
Tb160 C162 2.809 . S
Tb160 O180 2.484 . S
Tb160 O181 2.440 . S
Tb160 O182 2.658 . S
Tb160 O183 2.409 . S
Tb160 O184 2.378 . S
Tb160 O188 2.325 . S
Tb160 O191 2.341 . S
Tb161 C171 2.809 . S
Tb161 O182 2.325 . S
Tb161 O185 2.341 . S
Tb161 O186 2.484 . S
Tb161 O187 2.440 . S
Tb161 O188 2.658 . S
Tb161 O189 2.409 . S
Tb161 O190 2.378 . S
C162 Tb160 2.809 . S
C162 C163 1.514 . S
C162 O180 1.248 . S
C162 O181 1.266 . S
C163 C162 1.514 . S
C163 C164 1.359 . S
C163 C168 1.348 . S
C164 C163 1.359 . S
C164 C165 1.380 . S
C164 H192 0.929 . S
C165 C164 1.380 . S
C165 C166 1.347 . S
C165 H193 0.931 . S
C166 C165 1.347 . S
C166 C167 1.369 . S
C167 C166 1.369 . S
C167 C168 1.408 . S
C167 H194 0.930 . S
C168 C163 1.348 . S
C168 C167 1.408 . S
C168 H195 0.930 . S
C169 O182 1.281 . S
C169 O183 1.254 . S
C170 O184 1.236 . S
C170 O185 1.266 . S
C171 Tb161 2.809 . S
C171 C172 1.514 . S
C171 O186 1.248 . S
C171 O187 1.266 . S
C172 C171 1.514 . S
C172 C173 1.359 . S
C172 C177 1.348 . S
C173 C172 1.359 . S
C173 C174 1.380 . S
C173 H196 0.929 . S
C174 C173 1.380 . S
C174 C175 1.347 . S
C174 H197 0.931 . S
C175 C174 1.347 . S
C175 C176 1.369 . S
C176 C175 1.369 . S
C176 C177 1.408 . S
C176 H198 0.930 . S
C177 C172 1.348 . S
C177 C176 1.408 . S
C177 H199 0.930 . S
C178 O188 1.281 . S
C178 O189 1.254 . S
C179 O190 1.236 . S
C179 O191 1.266 . S
O180 Tb160 2.484 . S
O180 C162 1.248 . S
O181 Tb160 2.440 . S
O181 C162 1.266 . S
O182 Tb160 2.658 . S
O182 Tb161 2.325 . S
O182 C169 1.281 . S
O183 Tb160 2.409 . S
O183 C169 1.254 . S
O184 Tb160 2.378 . S
O184 C170 1.236 . S
O185 Tb161 2.341 . S
O185 C170 1.266 . S
O186 Tb161 2.484 . S
O186 C171 1.248 . S
O187 Tb161 2.440 . S
O187 C171 1.266 . S
O188 Tb160 2.325 . S
O188 Tb161 2.658 . S
O188 C178 1.281 . S
O189 Tb161 2.409 . S
O189 C178 1.254 . S
O190 Tb161 2.378 . S
O190 C179 1.236 . S
O191 Tb160 2.341 . S
O191 C179 1.266 . S
H192 C164 0.929 . S
H193 C165 0.931 . S
H194 C167 0.930 . S
H195 C168 0.930 . S
H196 C173 0.929 . S
H197 C174 0.931 . S
H198 C176 0.930 . S
H199 C177 0.930 . S
Tb200 C202 2.809 . S
Tb200 O220 2.484 . S
Tb200 O221 2.440 . S
Tb200 O222 2.658 . S
Tb200 O223 2.409 . S
Tb200 O224 2.378 . S
Tb200 O228 2.325 . S
Tb200 O231 2.341 . S
Tb201 C211 2.809 . S
Tb201 O222 2.325 . S
Tb201 O225 2.341 . S
Tb201 O226 2.484 . S
Tb201 O227 2.440 . S
Tb201 O228 2.658 . S
Tb201 O229 2.409 . S
Tb201 O230 2.378 . S
C202 Tb200 2.809 . S
C202 C203 1.514 . S
C202 O220 1.248 . S
C202 O221 1.266 . S
C203 C202 1.514 . S
C203 C204 1.359 . S
C203 C208 1.348 . S
C204 C203 1.359 . S
C204 C205 1.380 . S
C204 H232 0.929 . S
C205 C204 1.380 . S
C205 C206 1.347 . S
C205 H233 0.931 . S
C206 C205 1.347 . S
C206 C207 1.369 . S
C207 C206 1.369 . S
C207 C208 1.408 . S
C207 H234 0.930 . S
C208 C203 1.348 . S
C208 C207 1.408 . S
C208 H235 0.930 . S
C209 O222 1.281 . S
C209 O223 1.254 . S
C210 O224 1.236 . S
C210 O225 1.266 . S
C211 Tb201 2.809 . S
C211 C212 1.514 . S
C211 O226 1.248 . S
C211 O227 1.266 . S
C212 C211 1.514 . S
C212 C213 1.359 . S
C212 C217 1.348 . S
C213 C212 1.359 . S
C213 C214 1.380 . S
C213 H236 0.929 . S
C214 C213 1.380 . S
C214 C215 1.347 . S
C214 H237 0.931 . S
C215 C214 1.347 . S
C215 C216 1.369 . S
C216 C215 1.369 . S
C216 C217 1.408 . S
C216 H238 0.930 . S
C217 C212 1.348 . S
C217 C216 1.408 . S
C217 H239 0.930 . S
C218 O228 1.281 . S
C218 O229 1.254 . S
C219 O230 1.236 . S
C219 O231 1.266 . S
O220 Tb200 2.484 . S
O220 C202 1.248 . S
O221 Tb200 2.440 . S
O221 C202 1.266 . S
O222 Tb200 2.658 . S
O222 Tb201 2.325 . S
O222 C209 1.281 . S
O223 Tb200 2.409 . S
O223 C209 1.254 . S
O224 Tb200 2.378 . S
O224 C210 1.236 . S
O225 Tb201 2.341 . S
O225 C210 1.266 . S
O226 Tb201 2.484 . S
O226 C211 1.248 . S
O227 Tb201 2.440 . S
O227 C211 1.266 . S
O228 Tb200 2.325 . S
O228 Tb201 2.658 . S
O228 C218 1.281 . S
O229 Tb201 2.409 . S
O229 C218 1.254 . S
O230 Tb201 2.378 . S
O230 C219 1.236 . S
O231 Tb200 2.341 . S
O231 C219 1.266 . S
H232 C204 0.929 . S
H233 C205 0.931 . S
H234 C207 0.930 . S
H235 C208 0.930 . S
H236 C213 0.929 . S
H237 C214 0.931 . S
H238 C216 0.930 . S
H239 C217 0.930 . S
Tb240 C242 2.809 . S
Tb240 O260 2.484 . S
Tb240 O261 2.440 . S
Tb240 O262 2.658 . S
Tb240 O263 2.409 . S
Tb240 O264 2.378 . S
Tb240 O268 2.325 . S
Tb240 O271 2.341 . S
Tb241 C251 2.809 . S
Tb241 O262 2.325 . S
Tb241 O265 2.341 . S
Tb241 O266 2.484 . S
Tb241 O267 2.440 . S
Tb241 O268 2.658 . S
Tb241 O269 2.409 . S
Tb241 O270 2.378 . S
C242 Tb240 2.809 . S
C242 C243 1.514 . S
C242 O260 1.248 . S
C242 O261 1.266 . S
C243 C242 1.514 . S
C243 C244 1.359 . S
C243 C248 1.348 . S
C244 C243 1.359 . S
C244 C245 1.380 . S
C244 H272 0.929 . S
C245 C244 1.380 . S
C245 C246 1.347 . S
C245 H273 0.931 . S
C246 C245 1.347 . S
C246 C247 1.369 . S
C247 C246 1.369 . S
C247 C248 1.408 . S
C247 H274 0.930 . S
C248 C243 1.348 . S
C248 C247 1.408 . S
C248 H275 0.930 . S
C249 O262 1.281 . S
C249 O263 1.254 . S
C250 O264 1.236 . S
C250 O265 1.266 . S
C251 Tb241 2.809 . S
C251 C252 1.514 . S
C251 O266 1.248 . S
C251 O267 1.266 . S
C252 C251 1.514 . S
C252 C253 1.359 . S
C252 C257 1.348 . S
C253 C252 1.359 . S
C253 C254 1.380 . S
C253 H276 0.929 . S
C254 C253 1.380 . S
C254 C255 1.347 . S
C254 H277 0.931 . S
C255 C254 1.347 . S
C255 C256 1.369 . S
C256 C255 1.369 . S
C256 C257 1.408 . S
C256 H278 0.930 . S
C257 C252 1.348 . S
C257 C256 1.408 . S
C257 H279 0.930 . S
C258 O268 1.281 . S
C258 O269 1.254 . S
C259 O270 1.236 . S
C259 O271 1.266 . S
O260 Tb240 2.484 . S
O260 C242 1.248 . S
O261 Tb240 2.440 . S
O261 C242 1.266 . S
O262 Tb240 2.658 . S
O262 Tb241 2.325 . S
O262 C249 1.281 . S
O263 Tb240 2.409 . S
O263 C249 1.254 . S
O264 Tb240 2.378 . S
O264 C250 1.236 . S
O265 Tb241 2.341 . S
O265 C250 1.266 . S
O266 Tb241 2.484 . S
O266 C251 1.248 . S
O267 Tb241 2.440 . S
O267 C251 1.266 . S
O268 Tb240 2.325 . S
O268 Tb241 2.658 . S
O268 C258 1.281 . S
O269 Tb241 2.409 . S
O269 C258 1.254 . S
O270 Tb241 2.378 . S
O270 C259 1.236 . S
O271 Tb240 2.341 . S
O271 C259 1.266 . S
H272 C244 0.929 . S
H273 C245 0.931 . S
H274 C247 0.930 . S
H275 C248 0.930 . S
H276 C253 0.929 . S
H277 C254 0.931 . S
H278 C256 0.930 . S
H279 C257 0.930 . S
Tb280 C282 2.809 . S
Tb280 O300 2.484 . S
Tb280 O301 2.440 . S
Tb280 O302 2.658 1_655 S
Tb280 O303 2.409 1_655 S
Tb280 O304 2.378 1_655 S
Tb280 O308 2.325 . S
Tb280 O311 2.341 . S
Tb281 C291 2.809 . S
Tb281 O302 2.325 . S
Tb281 O305 2.341 . S
Tb281 O306 2.484 . S
Tb281 O307 2.440 . S
Tb281 O308 2.658 1_455 S
Tb281 O309 2.409 1_455 S
Tb281 O310 2.378 1_455 S
C282 Tb280 2.809 . S
C282 C283 1.514 . S
C282 O300 1.248 . S
C282 O301 1.266 . S
C283 C282 1.514 . S
C283 C284 1.359 . S
C283 C288 1.348 . S
C284 C283 1.359 . S
C284 C285 1.380 . S
C284 H312 0.929 . S
C285 C284 1.380 . S
C285 C286 1.347 . S
C285 H313 0.931 . S
C286 C285 1.347 . S
C286 C287 1.369 . S
C287 C286 1.369 . S
C287 C288 1.408 . S
C287 H314 0.930 . S
C288 C283 1.348 . S
C288 C287 1.408 . S
C288 H315 0.930 . S
C289 O302 1.281 . S
C289 O303 1.254 . S
C290 O304 1.236 . S
C290 O305 1.266 . S
C291 Tb281 2.809 . S
C291 C292 1.514 . S
C291 O306 1.248 . S
C291 O307 1.266 . S
C292 C291 1.514 . S
C292 C293 1.359 . S
C292 C297 1.348 . S
C293 C292 1.359 . S
C293 C294 1.380 . S
C293 H316 0.929 . S
C294 C293 1.380 . S
C294 C295 1.347 . S
C294 H317 0.931 . S
C295 C294 1.347 . S
C295 C296 1.369 . S
C296 C295 1.369 . S
C296 C297 1.408 . S
C296 H318 0.930 . S
C297 C292 1.348 . S
C297 C296 1.408 . S
C297 H319 0.930 . S
C298 O308 1.281 . S
C298 O309 1.254 . S
C299 O310 1.236 . S
C299 O311 1.266 . S
O300 Tb280 2.484 . S
O300 C282 1.248 . S
O301 Tb280 2.440 . S
O301 C282 1.266 . S
O302 Tb280 2.658 1_455 S
O302 Tb281 2.325 . S
O302 C289 1.281 . S
O303 Tb280 2.409 1_455 S
O303 C289 1.254 . S
O304 Tb280 2.378 1_455 S
O304 C290 1.236 . S
O305 Tb281 2.341 . S
O305 C290 1.266 . S
O306 Tb281 2.484 . S
O306 C291 1.248 . S
O307 Tb281 2.440 . S
O307 C291 1.266 . S
O308 Tb280 2.325 . S
O308 Tb281 2.658 1_655 S
O308 C298 1.281 . S
O309 Tb281 2.409 1_655 S
O309 C298 1.254 . S
O310 Tb281 2.378 1_655 S
O310 C299 1.236 . S
O311 Tb280 2.341 . S
O311 C299 1.266 . S
H312 C284 0.929 . S
H313 C285 0.931 . S
H314 C287 0.930 . S
H315 C288 0.930 . S
H316 C293 0.929 . S
H317 C294 0.931 . S
H318 C296 0.930 . S
H319 C297 0.930 . S
Tb320 C322 2.809 . S
Tb320 O340 2.484 . S
Tb320 O341 2.440 . S
Tb320 O342 2.658 . S
Tb320 O343 2.409 . S
Tb320 O344 2.378 . S
Tb320 O348 2.325 1_554 S
Tb320 O351 2.341 . S
Tb321 C331 2.809 . S
Tb321 O342 2.325 1_556 S
Tb321 O345 2.341 . S
Tb321 O346 2.484 . S
Tb321 O347 2.440 . S
Tb321 O348 2.658 . S
Tb321 O349 2.409 . S
Tb321 O350 2.378 . S
C322 Tb320 2.809 . S
C322 C323 1.514 . S
C322 O340 1.248 . S
C322 O341 1.266 . S
C323 C322 1.514 . S
C323 C324 1.359 . S
C323 C328 1.348 . S
C324 C323 1.359 . S
C324 C325 1.380 . S
C324 H352 0.929 1_554 S
C325 C324 1.380 . S
C325 C326 1.347 . S
C325 H353 0.931 1_554 S
C326 C325 1.347 . S
C326 C327 1.369 . S
C327 C326 1.369 . S
C327 C328 1.408 . S
C327 H354 0.930 . S
C328 C323 1.348 . S
C328 C327 1.408 . S
C328 H355 0.930 . S
C329 O342 1.281 . S
C329 O343 1.254 . S
C330 O344 1.236 1_556 S
C330 O345 1.266 . S
C331 Tb321 2.809 . S
C331 C332 1.514 . S
C331 O346 1.248 . S
C331 O347 1.266 . S
C332 C331 1.514 . S
C332 C333 1.359 . S
C332 C337 1.348 . S
C333 C332 1.359 . S
C333 C334 1.380 . S
C333 H356 0.929 1_556 S
C334 C333 1.380 . S
C334 C335 1.347 . S
C334 H357 0.931 1_556 S
C335 C334 1.347 . S
C335 C336 1.369 . S
C336 C335 1.369 . S
C336 C337 1.408 . S
C336 H358 0.930 . S
C337 C332 1.348 . S
C337 C336 1.408 . S
C337 H359 0.930 . S
C338 O348 1.281 . S
C338 O349 1.254 . S
C339 O350 1.236 1_554 S
C339 O351 1.266 . S
O340 Tb320 2.484 . S
O340 C322 1.248 . S
O341 Tb320 2.440 . S
O341 C322 1.266 . S
O342 Tb320 2.658 . S
O342 Tb321 2.325 1_554 S
O342 C329 1.281 . S
O343 Tb320 2.409 . S
O343 C329 1.254 . S
O344 Tb320 2.378 . S
O344 C330 1.236 1_554 S
O345 Tb321 2.341 . S
O345 C330 1.266 . S
O346 Tb321 2.484 . S
O346 C331 1.248 . S
O347 Tb321 2.440 . S
O347 C331 1.266 . S
O348 Tb320 2.325 1_556 S
O348 Tb321 2.658 . S
O348 C338 1.281 . S
O349 Tb321 2.409 . S
O349 C338 1.254 . S
O350 Tb321 2.378 . S
O350 C339 1.236 1_556 S
O351 Tb320 2.341 . S
O351 C339 1.266 . S
H352 C324 0.929 1_556 S
H353 C325 0.931 1_556 S
H354 C327 0.930 . S
H355 C328 0.930 . S
H356 C333 0.929 1_554 S
H357 C334 0.931 1_554 S
H358 C336 0.930 . S
H359 C337 0.930 . S
Tb360 C362 2.809 . S
Tb360 O380 2.484 . S
Tb360 O381 2.440 . S
Tb360 O382 2.658 1_565 S
Tb360 O383 2.409 1_565 S
Tb360 O384 2.378 . S
Tb360 O388 2.325 . S
Tb360 O391 2.341 . S
Tb361 C371 2.809 . S
Tb361 O382 2.325 . S
Tb361 O385 2.341 . S
Tb361 O386 2.484 . S
Tb361 O387 2.440 . S
Tb361 O388 2.658 1_545 S
Tb361 O389 2.409 1_545 S
Tb361 O390 2.378 . S
C362 Tb360 2.809 . S
C362 C363 1.514 . S
C362 O380 1.248 . S
C362 O381 1.266 . S
C363 C362 1.514 . S
C363 C364 1.359 . S
C363 C368 1.348 . S
C364 C363 1.359 . S
C364 C365 1.380 . S
C364 H392 0.929 . S
C365 C364 1.380 . S
C365 C366 1.347 . S
C365 H393 0.931 . S
C366 C365 1.347 . S
C366 C367 1.369 . S
C367 C366 1.369 . S
C367 C368 1.408 . S
C367 H394 0.930 . S
C368 C363 1.348 . S
C368 C367 1.408 . S
C368 H395 0.930 . S
C369 O382 1.281 . S
C369 O383 1.254 . S
C370 O384 1.236 . S
C370 O385 1.266 1_565 S
C371 Tb361 2.809 . S
C371 C372 1.514 . S
C371 O386 1.248 . S
C371 O387 1.266 . S
C372 C371 1.514 . S
C372 C373 1.359 . S
C372 C377 1.348 . S
C373 C372 1.359 . S
C373 C374 1.380 . S
C373 H396 0.929 . S
C374 C373 1.380 . S
C374 C375 1.347 . S
C374 H397 0.931 . S
C375 C374 1.347 . S
C375 C376 1.369 . S
C376 C375 1.369 . S
C376 C377 1.408 . S
C376 H398 0.930 . S
C377 C372 1.348 . S
C377 C376 1.408 . S
C377 H399 0.930 . S
C378 O388 1.281 . S
C378 O389 1.254 . S
C379 O390 1.236 . S
C379 O391 1.266 1_545 S
O380 Tb360 2.484 . S
O380 C362 1.248 . S
O381 Tb360 2.440 . S
O381 C362 1.266 . S
O382 Tb360 2.658 1_545 S
O382 Tb361 2.325 . S
O382 C369 1.281 . S
O383 Tb360 2.409 1_545 S
O383 C369 1.254 . S
O384 Tb360 2.378 . S
O384 C370 1.236 . S
O385 Tb361 2.341 . S
O385 C370 1.266 1_545 S
O386 Tb361 2.484 . S
O386 C371 1.248 . S
O387 Tb361 2.440 . S
O387 C371 1.266 . S
O388 Tb360 2.325 . S
O388 Tb361 2.658 1_565 S
O388 C378 1.281 . S
O389 Tb361 2.409 1_565 S
O389 C378 1.254 . S
O390 Tb361 2.378 . S
O390 C379 1.236 . S
O391 Tb360 2.341 . S
O391 C379 1.266 1_565 S
H392 C364 0.929 . S
H393 C365 0.931 . S
H394 C367 0.930 . S
H395 C368 0.930 . S
H396 C373 0.929 . S
H397 C374 0.931 . S
H398 C376 0.930 . S
H399 C377 0.930 . S
Tb400 C402 2.809 . S
Tb400 O420 2.484 . S
Tb400 O421 2.440 . S
Tb400 O422 2.658 . S
Tb400 O423 2.409 . S
Tb400 O424 2.378 . S
Tb400 O428 2.325 . S
Tb400 O431 2.341 . S
Tb401 C411 2.809 . S
Tb401 O422 2.325 . S
Tb401 O425 2.341 . S
Tb401 O426 2.484 . S
Tb401 O427 2.440 . S
Tb401 O428 2.658 . S
Tb401 O429 2.409 . S
Tb401 O430 2.378 . S
C402 Tb400 2.809 . S
C402 C403 1.514 . S
C402 O420 1.248 . S
C402 O421 1.266 . S
C403 C402 1.514 . S
C403 C404 1.359 . S
C403 C408 1.348 . S
C404 C403 1.359 . S
C404 C405 1.380 . S
C404 H432 0.929 . S
C405 C404 1.380 . S
C405 C406 1.347 . S
C405 H433 0.931 . S
C406 C405 1.347 . S
C406 C407 1.369 . S
C407 C406 1.369 . S
C407 C408 1.408 . S
C407 H434 0.930 . S
C408 C403 1.348 . S
C408 C407 1.408 . S
C408 H435 0.930 . S
C409 O422 1.281 . S
C409 O423 1.254 . S
C410 O424 1.236 . S
C410 O425 1.266 . S
C411 Tb401 2.809 . S
C411 C412 1.514 . S
C411 O426 1.248 . S
C411 O427 1.266 . S
C412 C411 1.514 . S
C412 C413 1.359 . S
C412 C417 1.348 . S
C413 C412 1.359 . S
C413 C414 1.380 . S
C413 H436 0.929 . S
C414 C413 1.380 . S
C414 C415 1.347 . S
C414 H437 0.931 . S
C415 C414 1.347 . S
C415 C416 1.369 . S
C416 C415 1.369 . S
C416 C417 1.408 . S
C416 H438 0.930 . S
C417 C412 1.348 . S
C417 C416 1.408 . S
C417 H439 0.930 . S
C418 O428 1.281 . S
C418 O429 1.254 . S
C419 O430 1.236 . S
C419 O431 1.266 . S
O420 Tb400 2.484 . S
O420 C402 1.248 . S
O421 Tb400 2.440 . S
O421 C402 1.266 . S
O422 Tb400 2.658 . S
O422 Tb401 2.325 . S
O422 C409 1.281 . S
O423 Tb400 2.409 . S
O423 C409 1.254 . S
O424 Tb400 2.378 . S
O424 C410 1.236 . S
O425 Tb401 2.341 . S
O425 C410 1.266 . S
O426 Tb401 2.484 . S
O426 C411 1.248 . S
O427 Tb401 2.440 . S
O427 C411 1.266 . S
O428 Tb400 2.325 . S
O428 Tb401 2.658 . S
O428 C418 1.281 . S
O429 Tb401 2.409 . S
O429 C418 1.254 . S
O430 Tb401 2.378 . S
O430 C419 1.236 . S
O431 Tb400 2.341 . S
O431 C419 1.266 . S
H432 C404 0.929 . S
H433 C405 0.931 . S
H434 C407 0.930 . S
H435 C408 0.930 . S
H436 C413 0.929 . S
H437 C414 0.931 . S
H438 C416 0.930 . S
H439 C417 0.930 . S
Tb440 C442 2.809 . S
Tb440 O460 2.485 . S
Tb440 O461 2.440 . S
Tb440 O462 2.658 . S
Tb440 O463 2.409 . S
Tb440 O464 2.378 1_455 S
Tb440 O468 2.325 1_455 S
Tb440 O471 2.341 . S
Tb441 C451 2.809 . S
Tb441 O462 2.325 1_655 S
Tb441 O465 2.341 . S
Tb441 O466 2.485 1_655 S
Tb441 O467 2.440 . S
Tb441 O468 2.658 . S
Tb441 O469 2.409 . S
Tb441 O470 2.378 1_655 S
C442 Tb440 2.809 . S
C442 C443 1.514 . S
C442 O460 1.250 . S
C442 O461 1.266 . S
C443 C442 1.514 . S
C443 C444 1.359 1_455 S
C443 C448 1.348 . S
C444 C443 1.359 1_655 S
C444 C445 1.380 . S
C444 H472 0.929 . S
C445 C444 1.380 . S
C445 C446 1.347 1_655 S
C445 H473 0.931 . S
C446 C445 1.347 1_455 S
C446 C447 1.369 . S
C447 C446 1.369 . S
C447 C448 1.408 . S
C447 H474 0.930 . S
C448 C443 1.348 . S
C448 C447 1.408 . S
C448 H475 0.930 . S
C449 O462 1.281 . S
C449 O463 1.254 . S
C450 O464 1.236 . S
C450 O465 1.266 . S
C451 Tb441 2.809 . S
C451 C452 1.514 . S
C451 O466 1.250 1_655 S
C451 O467 1.266 . S
C452 C451 1.514 . S
C452 C453 1.359 1_655 S
C452 C457 1.348 . S
C453 C452 1.359 1_455 S
C453 C454 1.380 . S
C453 H476 0.929 . S
C454 C453 1.380 . S
C454 C455 1.347 1_455 S
C454 H477 0.931 . S
C455 C454 1.347 1_655 S
C455 C456 1.369 . S
C456 C455 1.369 . S
C456 C457 1.408 . S
C456 H478 0.930 . S
C457 C452 1.348 . S
C457 C456 1.408 . S
C457 H479 0.930 . S
C458 O468 1.281 . S
C458 O469 1.254 . S
C459 O470 1.236 . S
C459 O471 1.266 . S
O460 Tb440 2.485 . S
O460 C442 1.250 . S
O461 Tb440 2.440 . S
O461 C442 1.266 . S
O462 Tb440 2.658 . S
O462 Tb441 2.325 1_455 S
O462 C449 1.281 . S
O463 Tb440 2.409 . S
O463 C449 1.254 . S
O464 Tb440 2.378 1_655 S
O464 C450 1.236 . S
O465 Tb441 2.341 . S
O465 C450 1.266 . S
O466 Tb441 2.485 1_455 S
O466 C451 1.250 1_455 S
O467 Tb441 2.440 . S
O467 C451 1.266 . S
O468 Tb440 2.325 1_655 S
O468 Tb441 2.658 . S
O468 C458 1.281 . S
O469 Tb441 2.409 . S
O469 C458 1.254 . S
O470 Tb441 2.378 1_455 S
O470 C459 1.236 . S
O471 Tb440 2.341 . S
O471 C459 1.266 . S
H472 C444 0.929 . S
H473 C445 0.931 . S
H474 C447 0.930 . S
H475 C448 0.930 . S
H476 C453 0.929 . S
H477 C454 0.931 . S
H478 C456 0.930 . S
H479 C457 0.930 . S
Tb480 C482 2.809 . S
Tb480 O500 2.484 . S
Tb480 O501 2.440 . S
Tb480 O502 2.658 . S
Tb480 O503 2.409 . S
Tb480 O504 2.378 . S
Tb480 O508 2.325 . S
Tb480 O511 2.341 . S
Tb481 C491 2.809 . S
Tb481 O502 2.325 . S
Tb481 O505 2.341 . S
Tb481 O506 2.484 . S
Tb481 O507 2.440 . S
Tb481 O508 2.658 . S
Tb481 O509 2.409 . S
Tb481 O510 2.378 . S
C482 Tb480 2.809 . S
C482 C483 1.514 . S
C482 O500 1.248 . S
C482 O501 1.266 . S
C483 C482 1.514 . S
C483 C484 1.359 . S
C483 C488 1.348 . S
C484 C483 1.359 . S
C484 C485 1.380 . S
C484 H512 0.929 . S
C485 C484 1.380 . S
C485 C486 1.347 . S
C485 H513 0.931 . S
C486 C485 1.347 . S
C486 C487 1.369 . S
C487 C486 1.369 . S
C487 C488 1.408 . S
C487 H514 0.930 . S
C488 C483 1.348 . S
C488 C487 1.408 . S
C488 H515 0.930 . S
C489 O502 1.281 . S
C489 O503 1.254 . S
C490 O504 1.236 . S
C490 O505 1.266 . S
C491 Tb481 2.809 . S
C491 C492 1.514 . S
C491 O506 1.248 . S
C491 O507 1.266 . S
C492 C491 1.514 . S
C492 C493 1.359 . S
C492 C497 1.348 . S
C493 C492 1.359 . S
C493 C494 1.380 . S
C493 H516 0.929 . S
C494 C493 1.380 . S
C494 C495 1.347 . S
C494 H517 0.931 . S
C495 C494 1.347 . S
C495 C496 1.369 . S
C496 C495 1.369 . S
C496 C497 1.408 . S
C496 H518 0.930 . S
C497 C492 1.348 . S
C497 C496 1.408 . S
C497 H519 0.930 . S
C498 O508 1.281 . S
C498 O509 1.254 . S
C499 O510 1.236 . S
C499 O511 1.266 . S
O500 Tb480 2.484 . S
O500 C482 1.248 . S
O501 Tb480 2.440 . S
O501 C482 1.266 . S
O502 Tb480 2.658 . S
O502 Tb481 2.325 . S
O502 C489 1.281 . S
O503 Tb480 2.409 . S
O503 C489 1.254 . S
O504 Tb480 2.378 . S
O504 C490 1.236 . S
O505 Tb481 2.341 . S
O505 C490 1.266 . S
O506 Tb481 2.484 . S
O506 C491 1.248 . S
O507 Tb481 2.440 . S
O507 C491 1.266 . S
O508 Tb480 2.325 . S
O508 Tb481 2.658 . S
O508 C498 1.281 . S
O509 Tb481 2.409 . S
O509 C498 1.254 . S
O510 Tb481 2.378 . S
O510 C499 1.236 . S
O511 Tb480 2.341 . S
O511 C499 1.266 . S
H512 C484 0.929 . S
H513 C485 0.931 . S
H514 C487 0.930 . S
H515 C488 0.930 . S
H516 C493 0.929 . S
H517 C494 0.931 . S
H518 C496 0.930 . S
H519 C497 0.930 . S
Tb520 C522 2.809 . S
Tb520 O540 2.484 . S
Tb520 O541 2.440 . S
Tb520 O542 2.658 . S
Tb520 O543 2.409 . S
Tb520 O544 2.378 . S
Tb520 O548 2.325 1_554 S
Tb520 O551 2.341 . S
Tb521 C531 2.809 . S
Tb521 O542 2.325 1_556 S
Tb521 O545 2.341 . S
Tb521 O546 2.484 . S
Tb521 O547 2.440 . S
Tb521 O548 2.658 . S
Tb521 O549 2.409 . S
Tb521 O550 2.378 . S
C522 Tb520 2.809 . S
C522 C523 1.514 . S
C522 O540 1.248 . S
C522 O541 1.266 . S
C523 C522 1.514 . S
C523 C524 1.359 . S
C523 C528 1.348 . S
C524 C523 1.359 . S
C524 C525 1.380 . S
C524 H552 0.929 1_554 S
C525 C524 1.380 . S
C525 C526 1.347 . S
C525 H553 0.931 1_554 S
C526 C525 1.347 . S
C526 C527 1.369 . S
C527 C526 1.369 . S
C527 C528 1.408 . S
C527 H554 0.930 . S
C528 C523 1.348 . S
C528 C527 1.408 . S
C528 H555 0.930 . S
C529 O542 1.281 . S
C529 O543 1.254 . S
C530 O544 1.236 1_556 S
C530 O545 1.266 . S
C531 Tb521 2.809 . S
C531 C532 1.514 . S
C531 O546 1.248 . S
C531 O547 1.266 . S
C532 C531 1.514 . S
C532 C533 1.359 . S
C532 C537 1.348 . S
C533 C532 1.359 . S
C533 C534 1.380 . S
C533 H556 0.929 1_556 S
C534 C533 1.380 . S
C534 C535 1.347 . S
C534 H557 0.931 1_556 S
C535 C534 1.347 . S
C535 C536 1.369 . S
C536 C535 1.369 . S
C536 C537 1.408 . S
C536 H558 0.930 . S
C537 C532 1.348 . S
C537 C536 1.408 . S
C537 H559 0.930 . S
C538 O548 1.281 . S
C538 O549 1.254 . S
C539 O550 1.236 1_554 S
C539 O551 1.266 . S
O540 Tb520 2.484 . S
O540 C522 1.248 . S
O541 Tb520 2.440 . S
O541 C522 1.266 . S
O542 Tb520 2.658 . S
O542 Tb521 2.325 1_554 S
O542 C529 1.281 . S
O543 Tb520 2.409 . S
O543 C529 1.254 . S
O544 Tb520 2.378 . S
O544 C530 1.236 1_554 S
O545 Tb521 2.341 . S
O545 C530 1.266 . S
O546 Tb521 2.484 . S
O546 C531 1.248 . S
O547 Tb521 2.440 . S
O547 C531 1.266 . S
O548 Tb520 2.325 1_556 S
O548 Tb521 2.658 . S
O548 C538 1.281 . S
O549 Tb521 2.409 . S
O549 C538 1.254 . S
O550 Tb521 2.378 . S
O550 C539 1.236 1_556 S
O551 Tb520 2.341 . S
O551 C539 1.266 . S
H552 C524 0.929 1_556 S
H553 C525 0.931 1_556 S
H554 C527 0.930 . S
H555 C528 0.930 . S
H556 C533 0.929 1_554 S
H557 C534 0.931 1_554 S
H558 C536 0.930 . S
H559 C537 0.930 . S
Tb560 C562 2.809 . S
Tb560 O580 2.484 . S
Tb560 O581 2.440 . S
Tb560 O582 2.658 . S
Tb560 O583 2.409 . S
Tb560 O584 2.378 . S
Tb560 O588 2.325 1_565 S
Tb560 O591 2.341 1_565 S
Tb561 C571 2.809 . S
Tb561 O582 2.325 1_545 S
Tb561 O585 2.341 1_545 S
Tb561 O586 2.484 . S
Tb561 O587 2.440 . S
Tb561 O588 2.658 . S
Tb561 O589 2.409 . S
Tb561 O590 2.378 . S
C562 Tb560 2.809 . S
C562 C563 1.514 . S
C562 O580 1.248 . S
C562 O581 1.266 . S
C563 C562 1.514 . S
C563 C564 1.359 . S
C563 C568 1.348 . S
C564 C563 1.359 . S
C564 C565 1.380 . S
C564 H592 0.929 . S
C565 C564 1.380 . S
C565 C566 1.347 . S
C565 H593 0.931 . S
C566 C565 1.347 . S
C566 C567 1.369 . S
C567 C566 1.369 . S
C567 C568 1.408 . S
C567 H594 0.930 . S
C568 C563 1.348 . S
C568 C567 1.408 . S
C568 H595 0.930 . S
C569 O582 1.281 . S
C569 O583 1.254 . S
C570 O584 1.236 . S
C570 O585 1.266 . S
C571 Tb561 2.809 . S
C571 C572 1.514 . S
C571 O586 1.248 . S
C571 O587 1.266 . S
C572 C571 1.514 . S
C572 C573 1.359 . S
C572 C577 1.348 . S
C573 C572 1.359 . S
C573 C574 1.380 . S
C573 H596 0.929 . S
C574 C573 1.380 . S
C574 C575 1.347 . S
C574 H597 0.931 . S
C575 C574 1.347 . S
C575 C576 1.369 . S
C576 C575 1.369 . S
C576 C577 1.408 . S
C576 H598 0.930 . S
C577 C572 1.348 . S
C577 C576 1.408 . S
C577 H599 0.930 . S
C578 O588 1.281 . S
C578 O589 1.254 . S
C579 O590 1.236 . S
C579 O591 1.266 . S
O580 Tb560 2.484 . S
O580 C562 1.248 . S
O581 Tb560 2.440 . S
O581 C562 1.266 . S
O582 Tb560 2.658 . S
O582 Tb561 2.325 1_565 S
O582 C569 1.281 . S
O583 Tb560 2.409 . S
O583 C569 1.254 . S
O584 Tb560 2.378 . S
O584 C570 1.236 . S
O585 Tb561 2.341 1_565 S
O585 C570 1.266 . S
O586 Tb561 2.484 . S
O586 C571 1.248 . S
O587 Tb561 2.440 . S
O587 C571 1.266 . S
O588 Tb560 2.325 1_545 S
O588 Tb561 2.658 . S
O588 C578 1.281 . S
O589 Tb561 2.409 . S
O589 C578 1.254 . S
O590 Tb561 2.378 . S
O590 C579 1.236 . S
O591 Tb560 2.341 1_545 S
O591 C579 1.266 . S
H592 C564 0.929 . S
H593 C565 0.931 . S
H594 C567 0.930 . S
H595 C568 0.930 . S
H596 C573 0.929 . S
H597 C574 0.931 . S
H598 C576 0.930 . S
H599 C577 0.930 . S
Tb600 C602 2.809 . S
Tb600 O620 2.484 . S
Tb600 O621 2.440 . S
Tb600 O622 2.658 . S
Tb600 O623 2.409 . S
Tb600 O624 2.378 . S
Tb600 O628 2.325 1_554 S
Tb600 O631 2.341 . S
Tb601 C611 2.809 . S
Tb601 O622 2.325 1_556 S
Tb601 O625 2.341 . S
Tb601 O626 2.484 . S
Tb601 O627 2.440 . S
Tb601 O628 2.658 . S
Tb601 O629 2.409 . S
Tb601 O630 2.378 . S
C602 Tb600 2.809 . S
C602 C603 1.514 . S
C602 O620 1.248 . S
C602 O621 1.266 . S
C603 C602 1.514 . S
C603 C604 1.359 . S
C603 C608 1.348 . S
C604 C603 1.359 . S
C604 C605 1.380 . S
C604 H632 0.929 1_554 S
C605 C604 1.380 . S
C605 C606 1.347 . S
C605 H633 0.931 1_554 S
C606 C605 1.347 . S
C606 C607 1.369 . S
C607 C606 1.369 . S
C607 C608 1.408 . S
C607 H634 0.930 . S
C608 C603 1.348 . S
C608 C607 1.408 . S
C608 H635 0.930 . S
C609 O622 1.281 . S
C609 O623 1.254 . S
C610 O624 1.236 1_556 S
C610 O625 1.266 . S
C611 Tb601 2.809 . S
C611 C612 1.514 . S
C611 O626 1.248 . S
C611 O627 1.266 . S
C612 C611 1.514 . S
C612 C613 1.359 . S
C612 C617 1.348 . S
C613 C612 1.359 . S
C613 C614 1.380 . S
C613 H636 0.929 1_556 S
C614 C613 1.380 . S
C614 C615 1.347 . S
C614 H637 0.931 1_556 S
C615 C614 1.347 . S
C615 C616 1.369 . S
C616 C615 1.369 . S
C616 C617 1.408 . S
C616 H638 0.930 . S
C617 C612 1.348 . S
C617 C616 1.408 . S
C617 H639 0.930 . S
C618 O628 1.281 . S
C618 O629 1.254 . S
C619 O630 1.236 1_554 S
C619 O631 1.266 . S
O620 Tb600 2.484 . S
O620 C602 1.248 . S
O621 Tb600 2.440 . S
O621 C602 1.266 . S
O622 Tb600 2.658 . S
O622 Tb601 2.325 1_554 S
O622 C609 1.281 . S
O623 Tb600 2.409 . S
O623 C609 1.254 . S
O624 Tb600 2.378 . S
O624 C610 1.236 1_554 S
O625 Tb601 2.341 . S
O625 C610 1.266 . S
O626 Tb601 2.484 . S
O626 C611 1.248 . S
O627 Tb601 2.440 . S
O627 C611 1.266 . S
O628 Tb600 2.325 1_556 S
O628 Tb601 2.658 . S
O628 C618 1.281 . S
O629 Tb601 2.409 . S
O629 C618 1.254 . S
O630 Tb601 2.378 . S
O630 C619 1.236 1_556 S
O631 Tb600 2.341 . S
O631 C619 1.266 . S
H632 C604 0.929 1_556 S
H633 C605 0.931 1_556 S
H634 C607 0.930 . S
H635 C608 0.930 . S
H636 C613 0.929 1_554 S
H637 C614 0.931 1_554 S
H638 C616 0.930 . S
H639 C617 0.930 . S
H640 C646 0.930 1_455 S
H641 C649 0.930 . S
H642 C650 0.930 . S
H643 C651 0.930 . S
H644 C654 0.930 . S
H645 C655 0.930 . S
C646 H640 0.930 1_655 S
C646 C647 1.355 . S
C646 C648 1.415 . S
C647 C646 1.355 . S
C647 C649 1.419 . S
C648 C646 1.415 . S
C648 C653 1.425 . S
C648 C655 1.409 1_655 S
C649 H641 0.930 . S
C649 C647 1.419 . S
C649 C650 1.362 . S
C650 H642 0.930 . S
C650 C649 1.362 . S
C650 C653 1.409 . S
C651 H643 0.930 . S
C651 C652 1.355 . S
C651 C653 1.415 . S
C652 C651 1.355 . S
C652 C654 1.419 1_655 S
C653 C648 1.425 . S
C653 C650 1.409 . S
C653 C651 1.415 . S
C654 H644 0.930 . S
C654 C652 1.419 1_455 S
C654 C655 1.362 . S
C655 H645 0.930 . S
C655 C648 1.409 1_455 S
C655 C654 1.362 . S
H656 C662 0.930 . S
H657 C665 0.930 . S
H658 C666 0.930 . S
H659 C667 0.930 . S
H660 C670 0.930 . S
H661 C671 0.930 . S
C662 H656 0.930 . S
C662 C663 1.355 . S
C662 C664 1.415 . S
C663 C662 1.355 . S
C663 C665 1.419 . S
C664 C662 1.415 . S
C664 C669 1.425 . S
C664 C671 1.409 . S
C665 H657 0.930 . S
C665 C663 1.419 . S
C665 C666 1.362 . S
C666 H658 0.930 . S
C666 C665 1.362 . S
C666 C669 1.409 . S
C667 H659 0.930 . S
C667 C668 1.355 . S
C667 C669 1.415 . S
C668 C667 1.355 . S
C668 C670 1.419 . S
C669 C664 1.425 . S
C669 C666 1.409 . S
C669 C667 1.415 . S
C670 H660 0.930 . S
C670 C668 1.419 . S
C670 C671 1.362 . S
C671 H661 0.930 . S
C671 C664 1.409 . S
C671 C670 1.362 . S
H672 C678 0.930 . S
H673 C681 0.930 . S
H674 C682 0.930 . S
H675 C683 0.930 . S
H676 C686 0.930 . S
H677 C687 0.930 . S
C678 H672 0.930 . S
C678 C679 1.355 . S
C678 C680 1.415 . S
C679 C678 1.355 . S
C679 C681 1.419 . S
C680 C678 1.415 . S
C680 C685 1.425 . S
C680 C687 1.409 . S
C681 H673 0.930 . S
C681 C679 1.419 . S
C681 C682 1.362 . S
C682 H674 0.930 . S
C682 C681 1.362 . S
C682 C685 1.409 . S
C683 H675 0.930 . S
C683 C684 1.355 . S
C683 C685 1.415 . S
C684 C683 1.355 . S
C684 C686 1.419 . S
C685 C680 1.425 . S
C685 C682 1.409 . S
C685 C683 1.415 . S
C686 H676 0.930 . S
C686 C684 1.419 . S
C686 C687 1.362 . S
C687 H677 0.930 . S
C687 C680 1.409 . S
C687 C686 1.362 . S
H688 C694 0.930 . S
H689 C697 0.930 . S
H690 C698 0.930 . S
H691 C699 0.930 . S
H692 C702 0.930 . S
H693 C703 0.930 . S
C694 H688 0.930 . S
C694 C695 1.355 . S
C694 C696 1.415 . S
C695 C694 1.355 . S
C695 C697 1.419 . S
C696 C694 1.415 . S
C696 C701 1.425 . S
C696 C703 1.409 . S
C697 H689 0.930 . S
C697 C695 1.419 . S
C697 C698 1.362 1_545 S
C698 H690 0.930 . S
C698 C697 1.362 1_565 S
C698 C701 1.409 1_565 S
C699 H691 0.930 . S
C699 C700 1.355 . S
C699 C701 1.415 1_565 S
C700 C699 1.355 . S
C700 C702 1.419 1_565 S
C701 C696 1.425 . S
C701 C698 1.409 1_545 S
C701 C699 1.415 1_545 S
C702 H692 0.930 . S
C702 C700 1.419 1_545 S
C702 C703 1.362 . S
C703 H693 0.930 . S
C703 C696 1.409 . S
C703 C702 1.362 . S
H704 C710 0.930 1_545 S
H705 C713 0.930 . S
H706 C714 0.930 . S
H707 C715 0.930 . S
H708 C718 0.930 . S
H709 C719 0.930 . S
C710 H704 0.930 1_565 S
C710 C711 1.355 . S
C710 C712 1.401 1_565 S
C711 C710 1.355 . S
C711 C713 1.419 . S
C712 C710 1.401 1_545 S
C712 C717 1.409 1_545 S
C712 C719 1.439 . S
C713 H705 0.930 . S
C713 C711 1.419 . S
C713 C714 1.362 . S
C714 H706 0.930 . S
C714 C713 1.362 . S
C714 C717 1.409 . S
C715 H707 0.930 . S
C715 C716 1.355 1_565 S
C715 C717 1.415 . S
C716 C715 1.355 1_545 S
C716 C718 1.419 . S
C717 C712 1.409 1_565 S
C717 C714 1.409 . S
C717 C715 1.415 . S
C718 H708 0.930 . S
C718 C716 1.419 . S
C718 C719 1.362 . S
C719 H709 0.930 . S
C719 C712 1.439 . S
C719 C718 1.362 . S
H720 C726 0.930 . S
H721 C729 0.930 1_655 S
H722 C730 0.930 1_655 S
H723 C731 0.913 1_655 S
H724 C734 0.930 . S
H725 C735 0.930 . S
C726 H720 0.930 . S
C726 C727 1.355 . S
C726 C728 1.415 . S
C727 C726 1.355 . S
C727 C729 1.419 . S
C728 C726 1.415 . S
C728 C733 1.425 . S
C728 C735 1.409 . S
C729 H721 0.930 1_455 S
C729 C727 1.419 . S
C729 C730 1.362 . S
C730 H722 0.930 1_455 S
C730 C729 1.362 . S
C730 C733 1.409 . S
C731 H723 0.913 1_455 S
C731 C732 1.355 . S
C731 C733 1.415 . S
C732 C731 1.355 . S
C732 C734 1.419 . S
C733 C728 1.425 . S
C733 C730 1.409 . S
C733 C731 1.415 . S
C734 H724 0.930 . S
C734 C732 1.419 . S
C734 C735 1.362 . S
C735 H725 0.930 . S
C735 C728 1.409 . S
C735 C734 1.362 . S
H736 C742 0.930 . S
H737 C745 0.930 . S
H738 C746 0.930 . S
H739 C747 0.930 . S
H740 C750 0.930 . S
H741 C751 0.930 . S
C742 H736 0.930 . S
C742 C743 1.355 . S
C742 C744 1.415 . S
C743 C742 1.355 . S
C743 C745 1.419 . S
C744 C742 1.415 . S
C744 C749 1.425 . S
C744 C751 1.409 . S
C745 H737 0.930 . S
C745 C743 1.419 . S
C745 C746 1.362 . S
C746 H738 0.930 . S
C746 C745 1.362 . S
C746 C749 1.409 . S
C747 H739 0.930 . S
C747 C748 1.355 . S
C747 C749 1.415 . S
C748 C747 1.355 . S
C748 C750 1.419 . S
C749 C744 1.425 . S
C749 C746 1.409 . S
C749 C747 1.415 . S
C750 H740 0.930 . S
C750 C748 1.419 . S
C750 C751 1.362 . S
C751 H741 0.930 . S
C751 C744 1.409 . S
C751 C750 1.362 . S
H752 C758 0.930 . S
H753 C761 0.930 . S
H754 C762 0.930 1_554 S
H755 C763 0.930 . S
H756 C766 0.930 . S
H757 C767 0.930 . S
C758 H752 0.930 . S
C758 C759 1.355 . S
C758 C760 1.415 . S
C759 C758 1.355 . S
C759 C761 1.419 . S
C760 C758 1.415 . S
C760 C765 1.425 . S
C760 C767 1.409 . S
C761 H753 0.930 . S
C761 C759 1.419 . S
C761 C762 1.362 . S
C762 H754 0.930 1_556 S
C762 C761 1.362 . S
C762 C765 1.409 . S
C763 H755 0.930 . S
C763 C764 1.355 . S
C763 C765 1.415 . S
C764 C763 1.355 . S
C764 C766 1.419 . S
C765 C760 1.425 . S
C765 C762 1.409 . S
C765 C763 1.415 . S
C766 H756 0.930 . S
C766 C764 1.419 . S
C766 C767 1.362 . S
C767 H757 0.930 . S
C767 C760 1.409 . S
C767 C766 1.362 . S
H768 C774 0.930 . S
H769 C777 0.930 . S
H770 C778 0.930 . S
H771 C779 0.930 . S
H772 C782 0.930 . S
H773 C783 0.930 . S
C774 H768 0.930 . S
C774 C775 1.355 . S
C774 C776 1.415 . S
C775 C774 1.355 . S
C775 C777 1.419 . S
C776 C774 1.415 . S
C776 C781 1.425 . S
C776 C783 1.409 . S
C777 H769 0.930 . S
C777 C775 1.419 . S
C777 C778 1.362 . S
C778 H770 0.930 . S
C778 C777 1.362 . S
C778 C781 1.409 . S
C779 H771 0.930 . S
C779 C780 1.355 . S
C779 C781 1.415 . S
C780 C779 1.355 . S
C780 C782 1.419 . S
C781 C776 1.425 . S
C781 C778 1.409 . S
C781 C779 1.415 . S
C782 H772 0.930 . S
C782 C780 1.419 . S
C782 C783 1.362 . S
C783 H773 0.930 . S
C783 C776 1.409 . S
C783 C782 1.362 . S
H784 C790 0.930 . S
H785 C793 0.930 . S
H786 C794 0.930 . S
H787 C795 0.930 . S
H788 C798 0.930 . S
H789 C799 0.930 . S
C790 H784 0.930 . S
C790 C791 1.355 . S
C790 C792 1.415 . S
C791 C790 1.355 . S
C791 C793 1.419 . S
C792 C790 1.415 . S
C792 C797 1.425 . S
C792 C799 1.409 . S
C793 H785 0.930 . S
C793 C791 1.419 . S
C793 C794 1.362 . S
C794 H786 0.930 . S
C794 C793 1.362 . S
C794 C797 1.409 . S
C795 H787 0.930 . S
C795 C796 1.355 . S
C795 C797 1.415 . S
C796 C795 1.355 . S
C796 C798 1.419 . S
C797 C792 1.425 . S
C797 C794 1.409 . S
C797 C795 1.415 . S
C798 H788 0.930 . S
C798 C796 1.419 . S
C798 C799 1.362 . S
C799 H789 0.930 . S
C799 C792 1.409 . S
C799 C798 1.362 . S
H800 C806 0.930 . S
H801 C809 0.930 1_545 S
H802 C810 0.930 . S
H803 C811 0.930 . S
H804 C814 0.930 . S
H805 C815 0.930 . S
C806 H800 0.930 . S
C806 C807 1.355 . S
C806 C808 1.415 . S
C807 C806 1.355 . S
C807 C809 1.419 . S
C808 C806 1.415 . S
C808 C813 1.412 1_565 S
C808 C815 1.409 . S
C809 H801 0.930 1_565 S
C809 C807 1.419 . S
C809 C810 1.362 1_565 S
C810 H802 0.930 . S
C810 C809 1.362 1_545 S
C810 C813 1.396 . S
C811 H803 0.930 . S
C811 C812 1.355 . S
C811 C813 1.442 . S
C812 C811 1.355 . S
C812 C814 1.419 1_545 S
C813 C808 1.412 1_545 S
C813 C810 1.396 . S
C813 C811 1.442 . S
C814 H804 0.930 . S
C814 C812 1.419 1_565 S
C814 C815 1.362 . S
C815 H805 0.930 . S
C815 C808 1.409 . S
C815 C814 1.362 . S
H816 C822 0.930 . S
H817 C825 0.930 1_654 S
H818 C826 0.930 1_554 S
H819 C827 0.930 1_655 S
H820 C830 0.930 . S
H821 C831 0.930 . S
C822 H816 0.930 . S
C822 C823 1.355 . S
C822 C824 1.415 . S
C823 C822 1.355 . S
C823 C825 1.419 . S
C824 C822 1.415 . S
C824 C829 1.425 . S
C824 C831 1.409 . S
C825 H817 0.930 1_456 S
C825 C823 1.419 . S
C825 C826 1.362 1_455 S
C826 H818 0.930 1_556 S
C826 C825 1.362 1_655 S
C826 C829 1.409 1_655 S
C827 H819 0.930 1_455 S
C827 C828 1.355 . S
C827 C829 1.415 . S
C828 C827 1.355 . S
C828 C830 1.419 . S
C829 C824 1.425 . S
C829 C826 1.409 1_455 S
C829 C827 1.415 . S
C830 H820 0.930 . S
C830 C828 1.419 . S
C830 C831 1.362 . S
C831 H821 0.930 . S
C831 C824 1.409 . S
C831 C830 1.362 . S
H832 C838 0.930 . S
H833 C841 0.930 . S
H834 C842 0.930 . S
H835 C843 0.930 . S
H836 C846 0.930 . S
H837 C847 0.930 . S
C838 H832 0.930 . S
C838 C839 1.355 . S
C838 C840 1.415 . S
C839 C838 1.355 . S
C839 C841 1.419 . S
C840 C838 1.415 . S
C840 C845 1.425 . S
C840 C847 1.409 . S
C841 H833 0.930 . S
C841 C839 1.419 . S
C841 C842 1.362 . S
C842 H834 0.930 . S
C842 C841 1.362 . S
C842 C845 1.409 . S
C843 H835 0.930 . S
C843 C844 1.355 . S
C843 C845 1.415 . S
C844 C843 1.355 . S
C844 C846 1.419 . S
C845 C840 1.425 . S
C845 C842 1.409 . S
C845 C843 1.415 . S
C846 H836 0.930 . S
C846 C844 1.419 . S
C846 C847 1.362 . S
C847 H837 0.930 . S
C847 C840 1.409 . S
C847 C846 1.362 . S
H848 C854 0.930 . S
H849 C857 0.930 . S
H850 C858 0.930 . S
H851 C859 0.930 . S
H852 C862 0.930 . S
H853 C863 0.930 . S
C854 H848 0.930 . S
C854 C855 1.355 . S
C854 C856 1.415 . S
C855 C854 1.355 . S
C855 C857 1.419 . S
C856 C854 1.415 . S
C856 C861 1.425 . S
C856 C863 1.409 . S
C857 H849 0.930 . S
C857 C855 1.419 . S
C857 C858 1.362 . S
C858 H850 0.930 . S
C858 C857 1.362 . S
C858 C861 1.409 . S
C859 H851 0.930 . S
C859 C860 1.355 . S
C859 C861 1.415 . S
C860 C859 1.355 . S
C860 C862 1.419 . S
C861 C856 1.425 . S
C861 C858 1.409 . S
C861 C859 1.415 . S
C862 H852 0.930 . S
C862 C860 1.419 . S
C862 C863 1.362 . S
C863 H853 0.930 . S
C863 C856 1.409 . S
C863 C862 1.362 . S
H864 C870 0.930 . S
H865 C873 0.930 . S
H866 C874 0.930 . S
H867 C875 0.930 . S
H868 C878 0.930 . S
H869 C879 0.930 . S
C870 H864 0.930 . S
C870 C871 1.355 . S
C870 C872 1.415 . S
C871 C870 1.355 . S
C871 C873 1.419 . S
C872 C870 1.415 . S
C872 C877 1.425 . S
C872 C879 1.409 . S
C873 H865 0.930 . S
C873 C871 1.419 . S
C873 C874 1.362 . S
C874 H866 0.930 . S
C874 C873 1.362 . S
C874 C877 1.409 . S
C875 H867 0.930 . S
C875 C876 1.355 . S
C875 C877 1.415 . S
C876 C875 1.355 . S
C876 C878 1.419 . S
C877 C872 1.425 . S
C877 C874 1.409 . S
C877 C875 1.415 . S
C878 H868 0.930 . S
C878 C876 1.419 . S
C878 C879 1.362 . S
C879 H869 0.930 . S
C879 C872 1.409 . S
C879 C878 1.362 . S
H880 C886 0.930 . S
H881 C889 0.930 . S
H882 C890 0.930 . S
H883 C891 0.930 . S
H884 C894 0.930 . S
H885 C895 0.930 . S
C886 H880 0.930 . S
C886 C887 1.355 . S
C886 C888 1.415 . S
C887 C886 1.355 . S
C887 C889 1.419 . S
C888 C886 1.415 . S
C888 C893 1.425 . S
C888 C895 1.409 . S
C889 H881 0.930 . S
C889 C887 1.419 . S
C889 C890 1.362 . S
C890 H882 0.930 . S
C890 C889 1.362 . S
C890 C893 1.409 . S
C891 H883 0.930 . S
C891 C892 1.355 . S
C891 C893 1.415 . S
C892 C891 1.355 . S
C892 C894 1.419 . S
C893 C888 1.425 . S
C893 C890 1.409 . S
C893 C891 1.415 . S
C894 H884 0.930 . S
C894 C892 1.419 . S
C894 C895 1.362 . S
C895 H885 0.930 . S
C895 C888 1.409 . S
C895 C894 1.362 . S
H896 C902 0.930 . S
H897 C905 0.930 . S
H898 C906 0.930 . S
H899 C907 0.930 . S
H900 C910 0.930 . S
H901 C911 0.930 . S
C902 H896 0.930 . S
C902 C903 1.355 . S
C902 C904 1.415 . S
C903 C902 1.355 . S
C903 C905 1.419 . S
C904 C902 1.415 . S
C904 C909 1.425 . S
C904 C911 1.409 . S
C905 H897 0.930 . S
C905 C903 1.419 . S
C905 C906 1.362 . S
C906 H898 0.930 . S
C906 C905 1.362 . S
C906 C909 1.409 . S
C907 H899 0.930 . S
C907 C908 1.355 . S
C907 C909 1.415 . S
C908 C907 1.355 . S
C908 C910 1.419 . S
C909 C904 1.425 . S
C909 C906 1.409 . S
C909 C907 1.415 . S
C910 H900 0.930 . S
C910 C908 1.419 . S
C910 C911 1.362 . S
C911 H901 0.930 . S
C911 C904 1.409 . S
C911 C910 1.362 . S
H912 C918 0.930 . S
H913 C921 0.930 . S
H914 C922 0.930 . S
H915 C923 0.930 . S
H916 C926 0.930 . S
H917 C927 0.930 . S
C918 H912 0.930 . S
C918 C919 1.355 . S
C918 C920 1.415 . S
C919 C918 1.355 . S
C919 C921 1.419 . S
C920 C918 1.415 . S
C920 C925 1.425 . S
C920 C927 1.409 . S
C921 H913 0.930 . S
C921 C919 1.419 . S
C921 C922 1.362 . S
C922 H914 0.930 . S
C922 C921 1.362 . S
C922 C925 1.409 . S
C923 H915 0.930 . S
C923 C924 1.355 . S
C923 C925 1.415 . S
C924 C923 1.355 . S
C924 C926 1.419 . S
C925 C920 1.425 . S
C925 C922 1.409 . S
C925 C923 1.415 . S
C926 H916 0.930 . S
C926 C924 1.419 . S
C926 C927 1.362 . S
C927 H917 0.930 . S
C927 C920 1.409 . S
C927 C926 1.362 . S
H928 C934 0.930 . S
H929 C937 0.930 . S
H930 C938 0.930 . S
H931 C939 0.930 . S
H932 C942 0.930 . S
H933 C943 0.930 . S
C934 H928 0.930 . S
C934 C935 1.355 . S
C934 C936 1.415 . S
C935 C934 1.355 . S
C935 C937 1.419 . S
C936 C934 1.415 . S
C936 C941 1.425 . S
C936 C943 1.409 . S
C937 H929 0.930 . S
C937 C935 1.419 . S
C937 C938 1.362 . S
C938 H930 0.930 . S
C938 C937 1.362 . S
C938 C941 1.409 . S
C939 H931 0.930 . S
C939 C940 1.355 . S
C939 C941 1.415 . S
C940 C939 1.355 . S
C940 C942 1.419 . S
C941 C936 1.425 . S
C941 C938 1.409 . S
C941 C939 1.415 . S
C942 H932 0.930 . S
C942 C940 1.419 . S
C942 C943 1.362 . S
C943 H933 0.930 . S
C943 C936 1.409 . S
C943 C942 1.362 . S
H944 C950 0.930 . S
H945 C953 0.930 . S
H946 C954 0.930 . S
H947 C955 0.930 . S
H948 C958 0.930 . S
H949 C959 0.930 . S
C950 H944 0.930 . S
C950 C951 1.355 . S
C950 C952 1.415 . S
C951 C950 1.355 . S
C951 C953 1.419 . S
C952 C950 1.415 . S
C952 C957 1.425 . S
C952 C959 1.409 . S
C953 H945 0.930 . S
C953 C951 1.419 . S
C953 C954 1.362 . S
C954 H946 0.930 . S
C954 C953 1.362 . S
C954 C957 1.409 . S
C955 H947 0.930 . S
C955 C956 1.355 . S
C955 C957 1.415 . S
C956 C955 1.355 . S
C956 C958 1.419 . S
C957 C952 1.425 . S
C957 C954 1.409 . S
C957 C955 1.415 . S
C958 H948 0.930 . S
C958 C956 1.419 . S
C958 C959 1.362 . S
C959 H949 0.930 . S
C959 C952 1.409 . S
C959 C958 1.362 . S
H960 C966 0.930 . S
H961 C969 0.930 . S
H962 C970 0.930 . S
H963 C971 0.930 . S
H964 C974 0.930 . S
H965 C975 0.930 . S
C966 H960 0.930 . S
C966 C967 1.355 . S
C966 C968 1.415 . S
C967 C966 1.355 . S
C967 C969 1.419 . S
C968 C966 1.415 . S
C968 C973 1.425 . S
C968 C975 1.409 . S
C969 H961 0.930 . S
C969 C967 1.419 . S
C969 C970 1.362 . S
C970 H962 0.930 . S
C970 C969 1.362 . S
C970 C973 1.409 . S
C971 H963 0.930 . S
C971 C972 1.355 . S
C971 C973 1.415 . S
C972 C971 1.355 . S
C972 C974 1.419 . S
C973 C968 1.425 . S
C973 C970 1.409 . S
C973 C971 1.415 . S
C974 H964 0.930 . S
C974 C972 1.419 . S
C974 C975 1.362 . S
C975 H965 0.930 . S
C975 C968 1.409 . S
C975 C974 1.362 . S
H976 C982 0.930 . S
H977 C985 0.930 . S
H978 C986 0.930 . S
H979 C987 0.930 1_455 S
H980 C990 0.930 . S
H981 C991 0.930 . S
C982 H976 0.930 . S
C982 C983 1.355 . S
C982 C984 1.415 . S
C983 C982 1.355 . S
C983 C985 1.419 1_655 S
C984 C982 1.415 . S
C984 C989 1.425 . S
C984 C991 1.409 . S
C985 H977 0.930 . S
C985 C983 1.419 1_455 S
C985 C986 1.362 . S
C986 H978 0.930 . S
C986 C985 1.362 . S
C986 C989 1.409 1_455 S
C987 H979 0.930 1_655 S
C987 C988 1.355 . S
C987 C989 1.415 . S
C988 C987 1.355 . S
C988 C990 1.419 . S
C989 C984 1.425 . S
C989 C986 1.409 1_655 S
C989 C987 1.415 . S
C990 H980 0.930 . S
C990 C988 1.419 . S
C990 C991 1.362 . S
C991 H981 0.930 . S
C991 C984 1.409 . S
C991 C990 1.362 . S
H992 C998 0.930 . S
H993 C1001 0.930 . S
H994 C1002 0.930 . S
H995 C1003 0.930 . S
H996 C1006 0.930 . S
H997 C1007 0.930 . S
C998 H992 0.930 . S
C998 C999 1.355 . S
C998 C1000 1.415 . S
C999 C998 1.355 . S
C999 C1001 1.419 . S
C1000 C998 1.415 . S
C1000 C1005 1.425 . S
C1000 C1007 1.409 . S
C1001 H993 0.930 . S
C1001 C999 1.419 . S
C1001 C1002 1.362 . S
C1002 H994 0.930 . S
C1002 C1001 1.362 . S
C1002 C1005 1.409 . S
C1003 H995 0.930 . S
C1003 C1004 1.355 . S
C1003 C1005 1.415 . S
C1004 C1003 1.355 . S
C1004 C1006 1.419 . S
C1005 C1000 1.425 . S
C1005 C1002 1.409 . S
C1005 C1003 1.415 . S
C1006 H996 0.930 . S
C1006 C1004 1.419 . S
C1006 C1007 1.362 . S
C1007 H997 0.930 . S
C1007 C1000 1.409 . S
C1007 C1006 1.362 . S
H1008 C1014 0.930 . S
H1009 C1017 0.928 . S
H1010 C1018 0.930 1_556 S
H1011 C1019 0.930 1_556 S
H1012 C1022 0.930 . S
H1013 C1023 0.930 . S
C1014 H1008 0.930 . S
C1014 C1015 1.355 . S
C1014 C1016 1.415 . S
C1015 C1014 1.355 . S
C1015 C1017 1.419 . S
C1016 C1014 1.415 . S
C1016 C1021 1.425 . S
C1016 C1023 1.409 . S
C1017 H1009 0.928 . S
C1017 C1015 1.419 . S
C1017 C1018 1.362 . S
C1018 H1010 0.930 1_554 S
C1018 C1017 1.362 . S
C1018 C1021 1.409 . S
C1019 H1011 0.930 1_554 S
C1019 C1020 1.355 . S
C1019 C1021 1.415 . S
C1020 C1019 1.355 . S
C1020 C1022 1.419 . S
C1021 C1016 1.425 . S
C1021 C1018 1.409 . S
C1021 C1019 1.415 . S
C1022 H1012 0.930 . S
C1022 C1020 1.419 . S
C1022 C1023 1.362 . S
C1023 H1013 0.930 . S
C1023 C1016 1.409 . S
C1023 C1022 1.362 . S
H1024 C1030 0.930 . S
H1025 C1033 0.930 . S
H1026 C1034 0.930 . S
H1027 C1035 0.930 . S
H1028 C1038 0.930 . S
H1029 C1039 0.930 . S
C1030 H1024 0.930 . S
C1030 C1031 1.355 . S
C1030 C1032 1.415 . S
C1031 C1030 1.355 . S
C1031 C1033 1.419 . S
C1032 C1030 1.415 . S
C1032 C1037 1.425 . S
C1032 C1039 1.409 . S
C1033 H1025 0.930 . S
C1033 C1031 1.419 . S
C1033 C1034 1.362 . S
C1034 H1026 0.930 . S
C1034 C1033 1.362 . S
C1034 C1037 1.409 . S
C1035 H1027 0.930 . S
C1035 C1036 1.355 . S
C1035 C1037 1.415 . S
C1036 C1035 1.355 . S
C1036 C1038 1.419 . S
C1037 C1032 1.425 . S
C1037 C1034 1.409 . S
C1037 C1035 1.415 . S
C1038 H1028 0.930 . S
C1038 C1036 1.419 . S
C1038 C1039 1.362 . S
C1039 H1029 0.930 . S
C1039 C1032 1.409 . S
C1039 C1038 1.362 . S
H1040 C1046 0.930 . S
H1041 C1049 0.930 . S
H1042 C1050 0.930 . S
H1043 C1051 0.930 . S
H1044 C1054 0.930 . S
H1045 C1055 0.930 . S
C1046 H1040 0.930 . S
C1046 C1047 1.355 . S
C1046 C1048 1.415 . S
C1047 C1046 1.355 . S
C1047 C1049 1.419 . S
C1048 C1046 1.415 . S
C1048 C1053 1.425 . S
C1048 C1055 1.409 . S
C1049 H1041 0.930 . S
C1049 C1047 1.419 . S
C1049 C1050 1.362 . S
C1050 H1042 0.930 . S
C1050 C1049 1.362 . S
C1050 C1053 1.409 . S
C1051 H1043 0.930 . S
C1051 C1052 1.355 . S
C1051 C1053 1.415 . S
C1052 C1051 1.355 . S
C1052 C1054 1.419 . S
C1053 C1048 1.425 . S
C1053 C1050 1.409 . S
C1053 C1051 1.415 . S
C1054 H1044 0.930 . S
C1054 C1052 1.419 . S
C1054 C1055 1.362 . S
C1055 H1045 0.930 . S
C1055 C1048 1.409 . S
C1055 C1054 1.362 . S
H1056 C1062 0.930 . S
H1057 C1065 0.930 . S
H1058 C1066 0.930 . S
H1059 C1067 0.930 . S
H1060 C1070 0.930 . S
H1061 C1071 0.930 . S
C1062 H1056 0.930 . S
C1062 C1063 1.355 . S
C1062 C1064 1.415 . S
C1063 C1062 1.355 . S
C1063 C1065 1.419 1_565 S
C1064 C1062 1.415 . S
C1064 C1069 1.425 1_565 S
C1064 C1071 1.409 . S
C1065 H1057 0.930 . S
C1065 C1063 1.419 1_545 S
C1065 C1066 1.362 . S
C1066 H1058 0.930 . S
C1066 C1065 1.362 . S
C1066 C1069 1.409 . S
C1067 H1059 0.930 . S
C1067 C1068 1.355 . S
C1067 C1069 1.415 . S
C1068 C1067 1.355 . S
C1068 C1070 1.419 1_545 S
C1069 C1064 1.425 1_545 S
C1069 C1066 1.409 . S
C1069 C1067 1.415 . S
C1070 H1060 0.930 . S
C1070 C1068 1.419 1_565 S
C1070 C1071 1.362 . S
C1071 H1061 0.930 . S
C1071 C1064 1.409 . S
C1071 C1070 1.362 . S
H1072 C1078 0.930 . S
H1073 C1081 0.930 . S
H1074 C1082 0.930 . S
H1075 C1083 0.930 . S
H1076 C1086 0.930 . S
H1077 C1087 0.930 . S
C1078 H1072 0.930 . S
C1078 C1079 1.355 . S
C1078 C1080 1.415 . S
C1079 C1078 1.355 . S
C1079 C1081 1.419 . S
C1080 C1078 1.415 . S
C1080 C1085 1.425 . S
C1080 C1087 1.409 . S
C1081 H1073 0.930 . S
C1081 C1079 1.419 . S
C1081 C1082 1.362 . S
C1082 H1074 0.930 . S
C1082 C1081 1.362 . S
C1082 C1085 1.409 . S
C1083 H1075 0.930 . S
C1083 C1084 1.355 . S
C1083 C1085 1.415 . S
C1084 C1083 1.355 . S
C1084 C1086 1.419 . S
C1085 C1080 1.425 . S
C1085 C1082 1.409 . S
C1085 C1083 1.415 . S
C1086 H1076 0.930 . S
C1086 C1084 1.419 . S
C1086 C1087 1.362 . S
C1087 H1077 0.930 . S
C1087 C1080 1.409 . S
C1087 C1086 1.362 . S
H1088 C1094 0.930 . S
H1089 C1097 0.930 . S
H1090 C1098 0.930 . S
H1091 C1099 0.930 . S
H1092 C1102 0.930 . S
H1093 C1103 0.930 . S
C1094 H1088 0.930 . S
C1094 C1095 1.355 . S
C1094 C1096 1.415 . S
C1095 C1094 1.355 . S
C1095 C1097 1.419 . S
C1096 C1094 1.415 . S
C1096 C1101 1.425 . S
C1096 C1103 1.409 . S
C1097 H1089 0.930 . S
C1097 C1095 1.419 . S
C1097 C1098 1.362 . S
C1098 H1090 0.930 . S
C1098 C1097 1.362 . S
C1098 C1101 1.409 . S
C1099 H1091 0.930 . S
C1099 C1100 1.355 . S
C1099 C1101 1.415 . S
C1100 C1099 1.355 . S
C1100 C1102 1.419 . S
C1101 C1096 1.425 . S
C1101 C1098 1.409 . S
C1101 C1099 1.415 . S
C1102 H1092 0.930 . S
C1102 C1100 1.419 . S
C1102 C1103 1.362 . S
C1103 H1093 0.930 . S
C1103 C1096 1.409 . S
C1103 C1102 1.362 . S
H1104 C1110 0.930 . S
H1105 C1113 0.930 . S
H1106 C1114 0.930 . S
H1107 C1115 0.930 . S
H1108 C1118 0.930 . S
H1109 C1119 0.930 . S
C1110 H1104 0.930 . S
C1110 C1111 1.355 . S
C1110 C1112 1.415 . S
C1111 C1110 1.355 . S
C1111 C1113 1.419 . S
C1112 C1110 1.415 . S
C1112 C1117 1.425 . S
C1112 C1119 1.409 . S
C1113 H1105 0.930 . S
C1113 C1111 1.419 . S
C1113 C1114 1.362 . S
C1114 H1106 0.930 . S
C1114 C1113 1.362 . S
C1114 C1117 1.409 . S
C1115 H1107 0.930 . S
C1115 C1116 1.355 . S
C1115 C1117 1.415 . S
C1116 C1115 1.355 . S
C1116 C1118 1.419 . S
C1117 C1112 1.425 . S
C1117 C1114 1.409 . S
C1117 C1115 1.415 . S
C1118 H1108 0.930 . S
C1118 C1116 1.419 . S
C1118 C1119 1.362 . S
C1119 H1109 0.930 . S
C1119 C1112 1.409 . S
C1119 C1118 1.362 . S
H1120 C1126 0.930 . S
H1121 C1129 0.930 . S
H1122 C1130 0.930 . S
H1123 C1131 0.930 . S
H1124 C1134 0.930 . S
H1125 C1135 0.930 . S
C1126 H1120 0.930 . S
C1126 C1127 1.355 . S
C1126 C1128 1.415 . S
C1127 C1126 1.355 . S
C1127 C1129 1.419 . S
C1128 C1126 1.415 . S
C1128 C1133 1.425 . S
C1128 C1135 1.409 . S
C1129 H1121 0.930 . S
C1129 C1127 1.419 . S
C1129 C1130 1.362 . S
C1130 H1122 0.930 . S
C1130 C1129 1.362 . S
C1130 C1133 1.409 . S
C1131 H1123 0.930 . S
C1131 C1132 1.355 . S
C1131 C1133 1.415 . S
C1132 C1131 1.355 . S
C1132 C1134 1.419 . S
C1133 C1128 1.425 . S
C1133 C1130 1.409 . S
C1133 C1131 1.415 . S
C1134 H1124 0.930 . S
C1134 C1132 1.419 . S
C1134 C1135 1.362 . S
C1135 H1125 0.930 . S
C1135 C1128 1.409 . S
C1135 C1134 1.362 . S
H1136 C1142 0.930 . S
H1137 C1145 0.930 . S
H1138 C1146 0.930 . S
H1139 C1147 0.930 . S
H1140 C1150 0.930 . S
H1141 C1151 0.930 . S
C1142 H1136 0.930 . S
C1142 C1143 1.355 . S
C1142 C1144 1.415 . S
C1143 C1142 1.355 . S
C1143 C1145 1.419 . S
C1144 C1142 1.415 . S
C1144 C1149 1.425 . S
C1144 C1151 1.409 . S
C1145 H1137 0.930 . S
C1145 C1143 1.419 . S
C1145 C1146 1.362 . S
C1146 H1138 0.930 . S
C1146 C1145 1.362 . S
C1146 C1149 1.409 . S
C1147 H1139 0.930 . S
C1147 C1148 1.355 . S
C1147 C1149 1.415 . S
C1148 C1147 1.355 . S
C1148 C1150 1.419 . S
C1149 C1144 1.425 . S
C1149 C1146 1.409 . S
C1149 C1147 1.415 . S
C1150 H1140 0.930 . S
C1150 C1148 1.419 . S
C1150 C1151 1.362 . S
C1151 H1141 0.930 . S
C1151 C1144 1.409 . S
C1151 C1150 1.362 . S
H1152 C1158 0.930 . S
H1153 C1161 0.930 . S
H1154 C1162 0.930 . S
H1155 C1163 0.930 . S
H1156 C1166 0.930 . S
H1157 C1167 0.930 . S
C1158 H1152 0.930 . S
C1158 C1159 1.355 . S
C1158 C1160 1.415 . S
C1159 C1158 1.355 . S
C1159 C1161 1.419 . S
C1160 C1158 1.415 . S
C1160 C1165 1.425 . S
C1160 C1167 1.409 . S
C1161 H1153 0.930 . S
C1161 C1159 1.419 . S
C1161 C1162 1.362 . S
C1162 H1154 0.930 . S
C1162 C1161 1.362 . S
C1162 C1165 1.409 . S
C1163 H1155 0.930 . S
C1163 C1164 1.355 . S
C1163 C1165 1.415 . S
C1164 C1163 1.355 . S
C1164 C1166 1.419 . S
C1165 C1160 1.425 . S
C1165 C1162 1.409 . S
C1165 C1163 1.415 . S
C1166 H1156 0.930 . S
C1166 C1164 1.419 . S
C1166 C1167 1.362 . S
C1167 H1157 0.930 . S
C1167 C1160 1.409 . S
C1167 C1166 1.362 . S
H1168 C1174 0.930 . S
H1169 C1177 0.930 . S
H1170 C1178 0.930 . S
H1171 C1179 0.930 . S
H1172 C1182 0.930 . S
H1173 C1183 0.930 . S
C1174 H1168 0.930 . S
C1174 C1175 1.355 . S
C1174 C1176 1.415 . S
C1175 C1174 1.355 . S
C1175 C1177 1.419 . S
C1176 C1174 1.415 . S
C1176 C1181 1.425 . S
C1176 C1183 1.409 . S
C1177 H1169 0.930 . S
C1177 C1175 1.419 . S
C1177 C1178 1.362 . S
C1178 H1170 0.930 . S
C1178 C1177 1.362 . S
C1178 C1181 1.409 . S
C1179 H1171 0.930 . S
C1179 C1180 1.355 . S
C1179 C1181 1.415 . S
C1180 C1179 1.355 . S
C1180 C1182 1.419 . S
C1181 C1176 1.425 . S
C1181 C1178 1.409 . S
C1181 C1179 1.415 . S
C1182 H1172 0.930 . S
C1182 C1180 1.419 . S
C1182 C1183 1.362 . S
C1183 H1173 0.930 . S
C1183 C1176 1.409 . S
C1183 C1182 1.362 . S
H1184 C1190 0.930 . S
H1185 C1193 0.930 . S
H1186 C1194 0.930 . S
H1187 C1195 0.930 . S
H1188 C1198 0.930 . S
H1189 C1199 0.930 . S
C1190 H1184 0.930 . S
C1190 C1191 1.355 . S
C1190 C1192 1.415 . S
C1191 C1190 1.355 . S
C1191 C1193 1.419 . S
C1192 C1190 1.415 . S
C1192 C1197 1.425 . S
C1192 C1199 1.409 . S
C1193 H1185 0.930 . S
C1193 C1191 1.419 . S
C1193 C1194 1.362 . S
C1194 H1186 0.930 . S
C1194 C1193 1.362 . S
C1194 C1197 1.409 . S
C1195 H1187 0.930 . S
C1195 C1196 1.355 . S
C1195 C1197 1.415 . S
C1196 C1195 1.355 . S
C1196 C1198 1.419 . S
C1197 C1192 1.425 . S
C1197 C1194 1.409 . S
C1197 C1195 1.415 . S
C1198 H1188 0.930 . S
C1198 C1196 1.419 . S
C1198 C1199 1.362 . S
C1199 H1189 0.930 . S
C1199 C1192 1.409 . S
C1199 C1198 1.362 . S
H1200 C1206 0.930 . S
H1201 C1209 0.930 . S
H1202 C1210 0.930 . S
H1203 C1211 0.930 . S
H1204 C1214 0.930 . S
H1205 C1215 0.930 . S
C1206 H1200 0.930 . S
C1206 C1207 1.355 . S
C1206 C1208 1.415 . S
C1207 C1206 1.355 . S
C1207 C1209 1.419 . S
C1208 C1206 1.415 . S
C1208 C1213 1.425 . S
C1208 C1215 1.409 . S
C1209 H1201 0.930 . S
C1209 C1207 1.419 . S
C1209 C1210 1.362 . S
C1210 H1202 0.930 . S
C1210 C1209 1.362 . S
C1210 C1213 1.409 . S
C1211 H1203 0.930 . S
C1211 C1212 1.355 . S
C1211 C1213 1.415 . S
C1212 C1211 1.355 . S
C1212 C1214 1.419 . S
C1213 C1208 1.425 . S
C1213 C1210 1.409 . S
C1213 C1211 1.415 . S
C1214 H1204 0.930 . S
C1214 C1212 1.419 . S
C1214 C1215 1.362 . S
C1215 H1205 0.930 . S
C1215 C1208 1.409 . S
C1215 C1214 1.362 . S
H1216 C1222 0.930 . S
H1217 C1225 0.930 . S
H1218 C1226 0.930 . S
H1219 C1227 0.930 . S
H1220 C1230 0.930 . S
H1221 C1231 0.930 . S
C1222 H1216 0.930 . S
C1222 C1223 1.355 . S
C1222 C1224 1.415 . S
C1223 C1222 1.355 . S
C1223 C1225 1.419 . S
C1224 C1222 1.415 . S
C1224 C1229 1.425 . S
C1224 C1231 1.409 . S
C1225 H1217 0.930 . S
C1225 C1223 1.419 . S
C1225 C1226 1.362 . S
C1226 H1218 0.930 . S
C1226 C1225 1.362 . S
C1226 C1229 1.409 . S
C1227 H1219 0.930 . S
C1227 C1228 1.355 . S
C1227 C1229 1.415 . S
C1228 C1227 1.355 . S
C1228 C1230 1.419 . S
C1229 C1224 1.425 . S
C1229 C1226 1.409 . S
C1229 C1227 1.415 . S
C1230 H1220 0.930 . S
C1230 C1228 1.419 . S
C1230 C1231 1.362 . S
C1231 H1221 0.930 . S
C1231 C1224 1.409 . S
C1231 C1230 1.362 . S
H1232 C1238 0.930 . S
H1233 C1241 0.930 . S
H1234 C1242 0.930 . S
H1235 C1243 0.930 . S
H1236 C1246 0.930 . S
H1237 C1247 0.930 . S
C1238 H1232 0.930 . S
C1238 C1239 1.355 . S
C1238 C1240 1.415 . S
C1239 C1238 1.355 . S
C1239 C1241 1.419 . S
C1240 C1238 1.415 . S
C1240 C1245 1.425 . S
C1240 C1247 1.409 . S
C1241 H1233 0.930 . S
C1241 C1239 1.419 . S
C1241 C1242 1.362 . S
C1242 H1234 0.930 . S
C1242 C1241 1.362 . S
C1242 C1245 1.409 . S
C1243 H1235 0.930 . S
C1243 C1244 1.355 . S
C1243 C1245 1.415 . S
C1244 C1243 1.355 . S
C1244 C1246 1.419 . S
C1245 C1240 1.425 . S
C1245 C1242 1.409 . S
C1245 C1243 1.415 . S
C1246 H1236 0.930 . S
C1246 C1244 1.419 . S
C1246 C1247 1.362 . S
C1247 H1237 0.930 . S
C1247 C1240 1.409 . S
C1247 C1246 1.362 . S
H1248 C1254 0.930 . S
H1249 C1257 0.930 . S
H1250 C1258 0.930 . S
H1251 C1259 0.930 . S
H1252 C1262 0.930 . S
H1253 C1263 0.930 . S
C1254 H1248 0.930 . S
C1254 C1255 1.355 . S
C1254 C1256 1.415 . S
C1255 C1254 1.355 . S
C1255 C1257 1.419 . S
C1256 C1254 1.415 . S
C1256 C1261 1.425 . S
C1256 C1263 1.409 . S
C1257 H1249 0.930 . S
C1257 C1255 1.419 . S
C1257 C1258 1.362 . S
C1258 H1250 0.930 . S
C1258 C1257 1.362 . S
C1258 C1261 1.409 . S
C1259 H1251 0.930 . S
C1259 C1260 1.355 . S
C1259 C1261 1.415 . S
C1260 C1259 1.355 . S
C1260 C1262 1.419 . S
C1261 C1256 1.425 . S
C1261 C1258 1.409 . S
C1261 C1259 1.415 . S
C1262 H1252 0.930 . S
C1262 C1260 1.419 . S
C1262 C1263 1.362 . S
C1263 H1253 0.930 . S
C1263 C1256 1.409 . S
C1263 C1262 1.362 . S
H1264 C1270 0.930 1_554 S
H1265 C1273 0.930 . S
H1266 C1274 0.930 . S
H1267 C1275 0.930 . S
H1268 C1278 0.930 1_554 S
H1269 C1279 0.930 1_554 S
C1270 H1264 0.930 1_556 S
C1270 C1271 1.355 . S
C1270 C1272 1.415 . S
C1271 C1270 1.355 . S
C1271 C1273 1.419 . S
C1272 C1270 1.415 . S
C1272 C1277 1.425 . S
C1272 C1279 1.409 . S
C1273 H1265 0.930 . S
C1273 C1271 1.419 . S
C1273 C1274 1.362 . S
C1274 H1266 0.930 . S
C1274 C1273 1.362 . S
C1274 C1277 1.409 . S
C1275 H1267 0.930 . S
C1275 C1276 1.355 . S
C1275 C1277 1.415 . S
C1276 C1275 1.355 . S
C1276 C1278 1.419 . S
C1277 C1272 1.425 . S
C1277 C1274 1.409 . S
C1277 C1275 1.415 . S
C1278 H1268 0.930 1_556 S
C1278 C1276 1.419 . S
C1278 C1279 1.362 . S
C1279 H1269 0.930 1_556 S
C1279 C1272 1.409 . S
C1279 C1278 1.362 . S
H1280 C1286 0.930 . S
H1281 C1289 0.930 . S
H1282 C1290 0.930 . S
H1283 C1291 0.930 . S
H1284 C1294 0.930 . S
H1285 C1295 0.930 . S
C1286 H1280 0.930 . S
C1286 C1287 1.355 . S
C1286 C1288 1.415 . S
C1287 C1286 1.355 . S
C1287 C1289 1.419 . S
C1288 C1286 1.415 . S
C1288 C1293 1.425 . S
C1288 C1295 1.409 . S
C1289 H1281 0.930 . S
C1289 C1287 1.419 . S
C1289 C1290 1.362 . S
C1290 H1282 0.930 . S
C1290 C1289 1.362 . S
C1290 C1293 1.409 . S
C1291 H1283 0.930 . S
C1291 C1292 1.355 . S
C1291 C1293 1.415 . S
C1292 C1291 1.355 . S
C1292 C1294 1.419 . S
C1293 C1288 1.425 . S
C1293 C1290 1.409 . S
C1293 C1291 1.415 . S
C1294 H1284 0.930 . S
C1294 C1292 1.419 . S
C1294 C1295 1.362 . S
C1295 H1285 0.930 . S
C1295 C1288 1.409 . S
C1295 C1294 1.362 . S
H1296 C1302 0.930 . S
H1297 C1305 0.930 . S
H1298 C1306 0.930 . S
H1299 C1307 0.930 . S
H1300 C1310 0.930 . S
H1301 C1311 0.930 . S
C1302 H1296 0.930 . S
C1302 C1303 1.355 . S
C1302 C1304 1.415 . S
C1303 C1302 1.355 . S
C1303 C1305 1.419 . S
C1304 C1302 1.415 . S
C1304 C1309 1.425 . S
C1304 C1311 1.409 . S
C1305 H1297 0.930 . S
C1305 C1303 1.419 . S
C1305 C1306 1.362 . S
C1306 H1298 0.930 . S
C1306 C1305 1.362 . S
C1306 C1309 1.409 . S
C1307 H1299 0.930 . S
C1307 C1308 1.355 . S
C1307 C1309 1.415 . S
C1308 C1307 1.355 . S
C1308 C1310 1.419 . S
C1309 C1304 1.425 . S
C1309 C1306 1.409 . S
C1309 C1307 1.415 . S
C1310 H1300 0.930 . S
C1310 C1308 1.419 . S
C1310 C1311 1.362 . S
C1311 H1301 0.930 . S
C1311 C1304 1.409 . S
C1311 C1310 1.362 . S
H1312 C1318 0.930 . S
H1313 C1321 0.930 1_554 S
H1314 C1322 0.930 . S
H1315 C1323 0.930 1_554 S
H1316 C1326 0.930 . S
H1317 C1327 0.930 . S
C1318 H1312 0.930 . S
C1318 C1319 1.355 . S
C1318 C1320 1.415 . S
C1319 C1318 1.355 . S
C1319 C1321 1.419 . S
C1320 C1318 1.415 . S
C1320 C1325 1.425 . S
C1320 C1327 1.409 . S
C1321 H1313 0.930 1_556 S
C1321 C1319 1.419 . S
C1321 C1322 1.362 1_556 S
C1322 H1314 0.930 . S
C1322 C1321 1.362 1_554 S
C1322 C1325 1.409 1_554 S
C1323 H1315 0.930 1_556 S
C1323 C1324 1.355 . S
C1323 C1325 1.415 . S
C1324 C1323 1.355 . S
C1324 C1326 1.419 . S
C1325 C1320 1.425 . S
C1325 C1322 1.409 1_556 S
C1325 C1323 1.415 . S
C1326 H1316 0.930 . S
C1326 C1324 1.419 . S
C1326 C1327 1.362 . S
C1327 H1317 0.930 . S
C1327 C1320 1.409 . S
C1327 C1326 1.362 . S
H1328 C1334 0.930 . S
H1329 C1337 0.930 . S
H1330 C1338 0.930 . S
H1331 C1339 0.930 . S
H1332 C1342 0.930 . S
H1333 C1343 0.930 . S
C1334 H1328 0.930 . S
C1334 C1335 1.355 . S
C1334 C1336 1.415 . S
C1335 C1334 1.355 . S
C1335 C1337 1.419 . S
C1336 C1334 1.415 . S
C1336 C1341 1.425 . S
C1336 C1343 1.409 . S
C1337 H1329 0.930 . S
C1337 C1335 1.419 . S
C1337 C1338 1.362 . S
C1338 H1330 0.930 . S
C1338 C1337 1.362 . S
C1338 C1341 1.409 . S
C1339 H1331 0.930 . S
C1339 C1340 1.355 . S
C1339 C1341 1.415 . S
C1340 C1339 1.355 . S
C1340 C1342 1.419 . S
C1341 C1336 1.425 . S
C1341 C1338 1.409 . S
C1341 C1339 1.415 . S
C1342 H1332 0.930 . S
C1342 C1340 1.419 . S
C1342 C1343 1.362 . S
C1343 H1333 0.930 . S
C1343 C1336 1.409 . S
C1343 C1342 1.362 . S
H1344 C1350 0.930 . S
H1345 C1353 0.930 . S
H1346 C1354 0.930 . S
H1347 C1355 0.930 . S
H1348 C1358 0.930 . S
H1349 C1359 0.930 . S
C1350 H1344 0.930 . S
C1350 C1351 1.355 . S
C1350 C1352 1.415 . S
C1351 C1350 1.355 . S
C1351 C1353 1.419 . S
C1352 C1350 1.415 . S
C1352 C1357 1.425 . S
C1352 C1359 1.409 . S
C1353 H1345 0.930 . S
C1353 C1351 1.419 . S
C1353 C1354 1.362 . S
C1354 H1346 0.930 . S
C1354 C1353 1.362 . S
C1354 C1357 1.409 . S
C1355 H1347 0.930 . S
C1355 C1356 1.355 . S
C1355 C1357 1.415 . S
C1356 C1355 1.355 . S
C1356 C1358 1.419 . S
C1357 C1352 1.425 . S
C1357 C1354 1.409 . S
C1357 C1355 1.415 . S
C1358 H1348 0.930 . S
C1358 C1356 1.419 . S
C1358 C1359 1.362 . S
C1359 H1349 0.930 . S
C1359 C1352 1.409 . S
C1359 C1358 1.362 . S
H1360 C1366 0.930 . S
H1361 C1369 0.930 . S
H1362 C1370 0.930 . S
H1363 C1371 0.930 . S
H1364 C1374 0.930 1_554 S
H1365 C1375 0.930 1_554 S
C1366 H1360 0.930 . S
C1366 C1367 1.355 . S
C1366 C1368 1.415 . S
C1367 C1366 1.355 . S
C1367 C1369 1.419 . S
C1368 C1366 1.415 . S
C1368 C1373 1.425 . S
C1368 C1375 1.409 . S
C1369 H1361 0.930 . S
C1369 C1367 1.419 . S
C1369 C1370 1.362 . S
C1370 H1362 0.930 . S
C1370 C1369 1.362 . S
C1370 C1373 1.409 . S
C1371 H1363 0.930 . S
C1371 C1372 1.355 . S
C1371 C1373 1.415 . S
C1372 C1371 1.355 . S
C1372 C1374 1.419 . S
C1373 C1368 1.425 . S
C1373 C1370 1.409 . S
C1373 C1371 1.415 . S
C1374 H1364 0.930 1_556 S
C1374 C1372 1.419 . S
C1374 C1375 1.362 . S
C1375 H1365 0.930 1_556 S
C1375 C1368 1.409 . S
C1375 C1374 1.362 . S
H1376 C1382 0.930 . S
H1377 C1385 0.930 . S
H1378 C1386 0.930 . S
H1379 C1387 0.930 . S
H1380 C1390 0.930 . S
H1381 C1391 0.930 . S
C1382 H1376 0.930 . S
C1382 C1383 1.355 . S
C1382 C1384 1.415 . S
C1383 C1382 1.355 . S
C1383 C1385 1.419 . S
C1384 C1382 1.415 . S
C1384 C1389 1.425 . S
C1384 C1391 1.409 . S
C1385 H1377 0.930 . S
C1385 C1383 1.419 . S
C1385 C1386 1.362 . S
C1386 H1378 0.930 . S
C1386 C1385 1.362 . S
C1386 C1389 1.409 . S
C1387 H1379 0.930 . S
C1387 C1388 1.355 . S
C1387 C1389 1.415 . S
C1388 C1387 1.355 . S
C1388 C1390 1.419 . S
C1389 C1384 1.425 . S
C1389 C1386 1.409 . S
C1389 C1387 1.415 . S
C1390 H1380 0.930 . S
C1390 C1388 1.419 . S
C1390 C1391 1.362 . S
C1391 H1381 0.930 . S
C1391 C1384 1.409 . S
C1391 C1390 1.362 . S
H1392 C1398 0.930 . S
H1393 C1401 0.930 . S
H1394 C1402 0.930 . S
H1395 C1403 0.930 . S
H1396 C1406 0.930 . S
H1397 C1407 0.930 . S
C1398 H1392 0.930 . S
C1398 C1399 1.355 . S
C1398 C1400 1.415 . S
C1399 C1398 1.355 . S
C1399 C1401 1.419 . S
C1400 C1398 1.415 . S
C1400 C1405 1.425 . S
C1400 C1407 1.409 . S
C1401 H1393 0.930 . S
C1401 C1399 1.419 . S
C1401 C1402 1.362 . S
C1402 H1394 0.930 . S
C1402 C1401 1.362 . S
C1402 C1405 1.409 . S
C1403 H1395 0.930 . S
C1403 C1404 1.355 . S
C1403 C1405 1.415 . S
C1404 C1403 1.355 . S
C1404 C1406 1.419 . S
C1405 C1400 1.425 . S
C1405 C1402 1.409 . S
C1405 C1403 1.415 . S
C1406 H1396 0.930 . S
C1406 C1404 1.419 . S
C1406 C1407 1.362 . S
C1407 H1397 0.930 . S
C1407 C1400 1.409 . S
C1407 C1406 1.362 . S
C647 C19 1.977 . S
C652 C55 1.822 . S
C663 C98 1.733 . S
C668 C50 1.775 . S
C679 C135 1.828 . S
C684 C99 1.979 . S
C695 C18 1.696 . S
C700 C130 1.734 . S
C711 C9 1.754 . S
C716 C379 1.776 . S
C727 C290 1.946 . S
C732 C46 1.796 . S
C743 C89 1.763 . S
C748 C419 1.738 . S
C759 C126 1.850 . S
C764 C530 1.972 . S
C775 C329 1.755 . S
C780 C59 1.726 . S
C791 C486 1.807 . S
C796 C90 1.968 . S
C807 C569 1.704 . S
C812 C139 1.749 . S
C823 C10 1.948 . S
C828 C446 1.801 . S
C839 C15 0.350 . S
C844 C335 0.318 . S
C855 C489 1.907 . S
C860 C169 1.909 . S
C871 C206 0.277 . S
C876 C566 0.344 . S
C887 C449 1.903 . S
C892 C249 1.908 . S
C903 C86 0.334 . S
C908 C286 0.261 . S
C919 C378 1.889 . S
C924 C178 1.890 . S
C935 C258 1.907 . S
C940 C418 1.901 . S
C951 C209 1.697 . S
C956 C459 1.734 . S
C967 C366 1.785 . S
C972 C210 1.944 . S
C983 C455 1.794 . S
C988 C299 1.960 . S
C999 C218 1.738 . S
C1004 C170 1.714 . S
C1015 C375 1.870 . S
C1020 C339 1.989 . S
C1031 C538 1.710 . S
C1036 C450 1.757 . S
C1047 C255 1.814 . S
C1052 C219 1.972 . S
C1063 C370 1.721 . S
C1068 C578 1.694 . S
C1079 C526 0.304 . S
C1084 C6 0.241 . S
C1095 C95 0.349 . S
C1100 C575 0.290 . S
C1111 C498 1.899 . S
C1116 C58 1.893 . S
C1127 C295 0.245 . S
C1132 C215 0.310 . S
C1143 C129 1.890 . S
C1148 C409 1.894 . S
C1159 C495 1.827 . S
C1164 C539 1.978 . S
C1175 C298 1.714 . S
C1180 C490 1.760 . S
C1191 C259 1.761 . S
C1196 C289 1.771 . S
C1207 C179 1.748 . S
C1212 C529 1.703 . S
C1223 C499 1.737 . S
C1228 C609 1.697 . S
C1239 C606 0.250 . S
C1244 C326 0.271 . S
C1255 C49 1.906 . S
C1260 C369 1.901 . S
C1271 C330 1.990 . S
C1276 C246 1.870 . S
C1287 C338 1.771 . S
C1292 C410 1.756 . S
C1303 C618 1.704 . S
C1308 C250 1.748 . S
C1319 C535 0.297 . S
C1324 C615 0.352 . S
C1335 C458 1.889 . S
C1340 C138 1.890 . S
C1351 C415 1.840 . S
C1356 C579 1.966 . S
C1367 C406 1.781 . S
C1372 C610 1.945 . S
C1383 C166 1.865 . S
C1388 C570 1.984 . S
C1399 C619 1.975 . S
C1404 C175 1.819 . S
