# Generated by pormake.
# Topology sma, (6)-cn, num edge types: 1
# Building blocks:
#     Node 0, Type 0, BuildingBlock: UKALOJ_clean_sbu_0, # of connection points: 6
#     Node 1, Type 0, BuildingBlock: UKALOJ_clean_sbu_0, # of connection points: 6
#     Node 2, Type 0, BuildingBlock: UKALOJ_clean_sbu_0, # of connection points: 6
#     Edge 3, Type (0, 0), BuildingBlock: KIFKEQ_clean_linker_1, # of connection points: 2
#     Edge 4, Type (0, 0), BuildingBlock: KIFKEQ_clean_linker_1, # of connection points: 2
#     Edge 5, Type (0, 0), BuildingBlock: KIFKEQ_clean_linker_1, # of connection points: 2
#     Edge 6, Type (0, 0), BuildingBlock: KIFKEQ_clean_linker_1, # of connection points: 2
#     Edge 7, Type (0, 0), BuildingBlock: KIFKEQ_clean_linker_1, # of connection points: 2
#     Edge 8, Type (0, 0), BuildingBlock: KIFKEQ_clean_linker_1, # of connection points: 2
#     Edge 9, Type (0, 0), BuildingBlock: KIFKEQ_clean_linker_1, # of connection points: 2
#     Edge 10, Type (0, 0), BuildingBlock: KIFKEQ_clean_linker_1, # of connection points: 2
#     Edge 11, Type (0, 0), BuildingBlock: KIFKEQ_clean_linker_1, # of connection points: 2
# Relax obj value: 0.564
# Max RMSD: 0.349
# Mean RMSD: 0.349
data_MOF--net-sma--node1-UKALOJ_clean_sbu_0--edge1-KIFKEQ_clean_linker_1
_symmetry_space_group_name_H-M    P1
_symmetry_Int_Tables_number       1
_symmetry_cell_setting            triclinic
loop_
_symmetry_equiv_pos_as_xyz
'x, y, z'
_cell_length_a     26.122713
_cell_length_b     25.878133
_cell_length_c     19.054508
_cell_angle_alpha  91.418232
_cell_angle_beta   91.063394
_cell_angle_gamma 120.26471
loop_
_atom_site_label
_atom_site_type_symbol
_atom_site_fract_x
_atom_site_fract_y
_atom_site_fract_z
_atom_type_partial_charge
Zn0 Zn 0.06909 0.52073 0.114 0.0
O1 O 0.15097 0.61562 0.09802 0.0
C2 C 0.16782 0.52905 0.17402 0.0
Zn3 Zn 0.07191 0.56746 0.20335 0.0
C4 C 0.15368 0.661 0.13096 0.0
O5 O 0.11038 0.65135 0.167 0.0
C6 C 0.99765 0.43428 0.21264 0.0
O7 O 0.98595 0.56457 0.18513 0.0
O8 O 1.01033 0.5465 0.08253 0.0
N9 N 0.08649 0.60591 0.30073 0.0
C10 C 1.05438 0.58834 0.35875 0.0
C11 C 0.1398 0.66127 0.38921 0.0
N12 N 0.13916 0.65201 0.3194 0.0
N13 N 0.08719 0.62178 0.41559 0.0
C14 C 1.06071 0.51427 0.95349 0.0
C15 C 1.05083 0.42909 0.92691 0.0
N16 N 0.06458 0.49033 0.01377 0.0
N17 N 1.05845 0.43738 -0.00263 0.0
N18 N 1.05109 0.47637 0.89857 0.0
H19 H 1.02534 0.57276 0.94318 0.0
H20 H 0.0941 0.5973 0.9003 0.0
H21 H 0.0931 0.6049 -0.00577 0.0
C22 C 0.06919 0.57592 0.94777 0.0
C23 C 0.99186 0.53683 0.35989 0.0
H24 H 0.97385 0.51743 0.30672 0.0
H25 H 0.96279 0.55271 0.38111 0.0
H26 H 0.98973 0.50193 0.39438 0.0
O27 O 1.03153 0.48347 0.24536 0.0
O28 O 0.99512 0.43367 0.14542 0.0
C29 C 0.97661 0.55735 0.11847 0.0
O30 O 0.12356 0.4898 0.13898 0.0
O31 O 0.16219 0.56936 0.20832 0.0
Zn32 Zn 0.57219 1.04437 0.54806 0.0
O33 O 0.66583 0.11762 0.56359 0.0
C34 C 0.54714 0.14264 0.56781 0.0
Zn35 Zn 0.56148 0.07357 0.45192 0.0
C36 C 0.68669 0.1355 0.50304 0.0
O37 O 0.65155 0.11888 0.45028 0.0
C38 C 0.44767 0.97845 0.47327 0.0
O39 O 0.56044 0.99006 0.40962 0.0
O40 O 0.60549 0.99548 0.50911 0.0
N41 N 0.56242 0.10554 0.35628 0.0
C42 C 0.543 0.07724 0.2931 0.0
C43 C 0.59489 0.17055 0.27577 0.0
N44 N 0.59396 0.16368 0.34565 0.0
N45 N 0.56249 0.11693 0.24194 0.0
C46 C 0.59179 1.03398 0.70504 0.0
C47 C 0.54577 0.93936 0.71593 0.0
N48 N 0.57083 1.00832 0.6409 0.0
N49 N 0.54278 0.94955 0.64743 0.0
N50 N 0.57697 0.99168 0.75294 0.0
H51 H 0.66908 0.11648 0.73871 0.0
H52 H 0.60044 0.10932 0.76585 0.0
H53 H 0.62269 0.12574 0.67634 0.0
C54 C 0.62237 0.10014 0.72187 0.0
C55 C 0.51039 1.01067 0.28031 0.0
H56 H 0.54292 0.99582 0.27127 0.0
H57 H 0.48081 0.99786 0.23267 0.0
H58 H 0.48367 0.98759 0.32569 0.0
O59 O 0.47127 1.02948 0.44744 0.0
O60 O 0.47864 0.96879 0.51849 0.0
C61 C 0.58722 0.97113 0.44918 0.0
O62 O 0.53925 0.09507 0.59466 0.0
O63 O 0.5631 0.15191 0.50414 0.0
Zn64 Zn 0.58582 0.59495 0.8553 0.0
O65 O 0.58253 0.50947 0.88937 0.0
C66 C 0.68605 0.59901 0.80497 0.0
Zn67 Zn 0.55184 0.54407 0.76139 0.0
C68 C 0.5463 0.46036 0.8559 0.0
O69 O 0.51868 0.46296 0.80276 0.0
C70 C 0.59061 0.67266 0.74377 0.0
O71 O 0.46147 0.53072 0.76906 0.0
O72 O 0.49826 0.55834 0.87664 0.0
N73 N 0.5362 0.50244 0.66532 0.0
C74 C 0.52119 0.51526 0.60296 0.0
C75 C 0.55118 0.45375 0.58276 0.0
N76 N 0.55388 0.4634 0.65282 0.0
N77 N 0.53043 0.48552 0.5503 0.0
C78 C 0.62109 0.6177 0.01309 0.0
C79 C 0.58862 0.67518 0.0438 0.0
N80 N 0.60345 0.63263 0.95408 0.0
N81 N 0.5842 0.66927 0.97314 0.0
N82 N 0.61177 0.64325 0.07008 0.0
H83 H 0.60937 0.53001 0.02054 0.0
H84 H 0.67616 0.58849 0.06293 0.0
H85 H 0.67083 0.58015 0.96809 0.0
C86 C 0.64602 0.5768 0.01597 0.0
C87 C 0.5038 0.5617 0.59273 0.0
H88 H 0.48681 0.57062 0.64165 0.0
H89 H 0.46907 0.54664 0.55029 0.0
H90 H 0.54293 0.6037 0.57644 0.0
O91 O 0.584 0.62559 0.71359 0.0
O92 O 0.58753 0.67415 0.81063 0.0
C93 C 0.45403 0.53671 0.83438 0.0
O94 O 0.67385 0.63316 0.83989 0.0
O95 O 0.64432 0.55638 0.76692 0.0
H96 H 0.2501 0.62192 0.09946 0.0
H97 H 0.20515 0.44853 0.17273 0.0
H98 H 0.31414 0.61683 0.0156 0.0
H99 H 0.26349 0.43902 0.081 0.0
H100 H 0.40684 0.45569 0.93293 0.0
H101 H 0.34564 0.4571 0.02557 0.0
H102 H 0.31122 0.57784 0.90748 0.0
H103 H 0.37767 0.58 0.81747 0.0
C104 C 0.2568 0.58432 0.10185 0.0
C105 C 0.22476 0.53755 0.14763 0.0
C106 C 0.29138 0.5796 0.04964 0.0
C107 C 0.29318 0.5266 0.03853 0.0
C108 C 0.26419 0.48103 0.087 0.0
C109 C 0.23113 0.48677 0.14095 0.0
C110 C 0.38418 0.48068 0.92547 0.0
C111 C 0.39654 0.51711 0.86727 0.0
C112 C 0.34922 0.48204 0.97941 0.0
C113 C 0.32419 0.51904 0.97632 0.0
C114 C 0.33148 0.55062 0.91405 0.0
C115 C 0.36796 0.55037 0.86069 0.0
H116 H 0.75008 0.10468 0.42164 0.0
H117 H 0.76074 0.25389 0.54035 0.0
H118 H 0.83054 0.17349 0.3489 0.0
H119 H 0.84313 0.32318 0.46897 0.0
H120 H 1.01682 0.42456 0.35043 0.0
H121 H 0.9508 0.3511 0.43084 0.0
H122 H 0.82891 0.2504 0.25804 0.0
H123 H 0.89471 0.32623 0.17621 0.0
C124 C 0.77205 0.15226 0.43482 0.0
C125 C 0.74992 0.17384 0.48783 0.0
C126 C 0.81717 0.1916 0.39203 0.0
C127 C 0.84227 0.25363 0.40226 0.0
C128 C 0.82441 0.27544 0.45978 0.0
C129 C 0.77814 0.23586 0.50178 0.0
C130 C 0.97608 0.38676 0.32883 0.0
C131 C 0.96077 0.38199 0.25648 0.0
C132 C 0.93827 0.34466 0.3754 0.0
C133 C 0.88448 0.29541 0.3511 0.0
C134 C 0.87034 0.28812 0.27823 0.0
C135 C 0.90801 0.33127 0.23128 0.0
H136 H 0.48848 0.86345 0.45957 0.0
H137 H 0.6769 0.94791 0.43636 0.0
H138 H 0.49119 0.78977 0.53488 0.0
H139 H 0.68002 0.87385 0.51006 0.0
H140 H 0.6545 0.70822 0.62693 0.0
H141 H 0.64973 0.76948 0.53482 0.0
H142 H 0.53343 0.8045 0.65951 0.0
H143 H 0.53818 0.74237 0.7523 0.0
C144 C 0.52986 0.86387 0.46646 0.0
C145 C 0.58242 0.91197 0.44216 0.0
C146 C 0.53181 0.82278 0.51169 0.0
C147 C 0.58622 0.82729 0.531 0.0
C148 C 0.63735 0.86936 0.49729 0.0
C149 C 0.63537 0.91101 0.45315 0.0
C150 C 0.62899 0.73017 0.63553 0.0
C151 C 0.59744 0.72113 0.69755 0.0
C152 C 0.62592 0.76496 0.58234 0.0
C153 C 0.59049 0.79127 0.58895 0.0
C154 C 0.56031 0.78394 0.65204 0.0
C155 C 0.56397 0.74945 0.70594 0.0
H156 H 0.71342 0.50936 0.78995 0.0
H157 H 0.78246 0.68826 0.87757 0.0
H158 H 0.77641 0.49414 0.87255 0.0
H159 H 0.8495 0.67581 0.95549 0.0
H160 H 0.91956 0.62289 0.14336 0.0
H161 H 0.85302 0.63379 0.0598 0.0
H162 H 0.86351 0.50864 0.91436 0.0
H163 H 0.92409 0.49439 -0.0013 0.0
C164 C 0.74321 0.54599 0.82561 0.0
C165 C 0.74054 0.59872 0.82926 0.0
C166 C 0.77992 0.53761 0.87327 0.0
C167 C 0.8171 0.58302 0.92372 0.0
C168 C 0.81971 0.63852 0.92059 0.0
C169 C 0.78209 0.64621 0.87423 0.0
C170 C 0.90586 0.59651 0.09445 0.0
C171 C 0.92756 0.55809 0.07794 0.0
C172 C 0.86869 0.60356 0.04551 0.0
C173 C 0.85309 0.57291 0.97877 0.0
C174 C 0.87312 0.53273 0.96454 0.0
C175 C 0.90875 0.52492 0.01339 0.0
H176 H 0.39562 0.85433 0.47738 0.0
H177 H 0.37901 0.9925 0.37564 0.0
H178 H 0.32924 0.78158 0.38674 0.0
H179 H 0.31803 0.92268 0.28313 0.0
H180 H 0.17472 0.77459 0.14081 0.0
H181 H 0.23709 0.84855 0.23085 0.0
H182 H 0.32084 0.74486 0.27608 0.0
H183 H 0.25346 0.66864 0.19378 0.0
C184 C 0.37759 0.8692 0.43617 0.0
C185 C 0.39415 0.92984 0.43359 0.0
C186 C 0.34025 0.82766 0.38281 0.0
C187 C 0.31912 0.84575 0.32471 0.0
C188 C 0.33239 0.90565 0.32576 0.0
C189 C 0.36802 0.94636 0.3797 0.0
C190 C 0.20839 0.7689 0.16768 0.0
C191 C 0.20994 0.71576 0.15601 0.0
C192 C 0.24418 0.81139 0.22074 0.0
C193 C 0.2843 0.8032 0.26323 0.0
C194 C 0.28979 0.7529 0.24688 0.0
C195 C 0.2526 0.70962 0.19554 0.0
H196 H 0.45225 0.34742 0.8502 0.0
H197 H 0.64269 0.44542 0.86154 0.0
H198 H 0.45283 0.26711 0.78175 0.0
H199 H 0.64416 0.36646 0.78852 0.0
H200 H 0.60942 0.26635 0.56516 0.0
H201 H 0.6126 0.33713 0.65634 0.0
H202 H 0.48155 0.18928 0.77098 0.0
H203 H 0.47846 0.1193 0.68085 0.0
C204 C 0.49451 0.3505 0.84103 0.0
C205 C 0.5477 0.40393 0.85919 0.0
C206 C 0.49488 0.30492 0.80021 0.0
C207 C 0.54851 0.31151 0.77676 0.0
C208 C 0.60194 0.36102 0.80337 0.0
C209 C 0.60131 0.40594 0.84592 0.0
C210 C 0.58055 0.24921 0.60915 0.0
C211 C 0.54311 0.18718 0.61507 0.0
C212 C 0.58316 0.28959 0.66211 0.0
C213 C 0.54785 0.26884 0.72161 0.0
C214 C 0.50937 0.20693 0.72618 0.0
C215 C 0.50737 0.16681 0.67408 0.0
H216 H 0.10532 0.45648 0.79164 0.0
H217 H 0.98097 0.5139 0.84116 0.0
H218 H 0.10822 0.48791 0.67126 0.0
H219 H 0.98812 0.55124 0.72399 0.0
H220 H 0.98847 0.58514 0.4925 0.0
H221 H 0.97046 0.5371 0.60457 0.0
H222 H 0.1533 0.57956 0.61798 0.0
H223 H 0.16868 0.6209 0.50256 0.0
C224 C 0.07854 0.47572 0.77635 0.0
C225 C 1.04494 0.48526 0.82577 0.0
C226 C 0.08084 0.49469 0.70802 0.0
C227 C 1.05019 0.52429 0.68852 0.0
C228 C 1.01274 0.52917 0.73688 0.0
C229 C 1.00941 0.50883 0.80449 0.0
C230 C 1.02416 0.58266 0.51859 0.0
C231 C 0.07916 0.60446 0.48738 0.0
C232 C 1.01428 0.55611 0.58359 0.0
C233 C 1.06 0.55287 0.61974 0.0
C234 C 0.11627 0.57886 0.59056 0.0
C235 C 0.12556 0.60389 0.52499 0.0
H236 H 0.65237 0.10766 0.19341 0.0
H237 H 0.48547 0.09255 0.1342 0.0
H238 H 0.65769 0.06944 0.07672 0.0
H239 H 0.49096 0.05641 0.01591 0.0
H240 H 0.48501 0.93879 0.83743 0.0
H241 H 0.48343 0.96819 0.95982 0.0
H242 H 0.67145 0.0961 0.95667 0.0
H243 H 0.67299 0.06361 0.83581 0.0
C244 C 0.61774 0.09747 0.15411 0.0
C245 C 0.56907 0.10356 0.17099 0.0
C246 C 0.62048 0.07549 0.08778 0.0
C247 C 0.57455 0.05955 0.03734 0.0
C248 C 0.52646 0.06724 0.05417 0.0
C249 C 0.5236 0.08875 0.12092 0.0
C250 C 0.5261 0.97185 0.86397 0.0
C251 C 0.57887 1.00009 0.82753 0.0
C252 C 0.52512 0.98944 0.93336 0.0
C253 C 0.57698 1.03564 0.96711 0.0
C254 C 0.63069 0.06059 0.93202 0.0
C255 C 0.63163 1.04252 0.86285 0.0
H256 H 0.44903 0.46927 0.45037 0.0
H257 H 0.63622 0.54371 0.49239 0.0
H258 H 0.46925 0.50883 0.3318 0.0
H259 H 0.65702 0.58331 0.37434 0.0
H260 H 0.66681 0.7034 0.19105 0.0
H261 H 0.64647 0.66307 0.30952 0.0
H262 H 0.51128 0.4914 0.22045 0.0
H263 H 0.53184 0.53205 0.10315 0.0
C264 C 0.49431 0.49356 0.43349 0.0
C265 C 0.54114 0.50331 0.47921 0.0
C266 C 0.50598 0.51615 0.3662 0.0
C267 C 0.56475 0.54935 0.34438 0.0
C268 C 0.61145 0.55844 0.39023 0.0
C269 C 0.59965 0.53532 0.45706 0.0
C270 C 0.63314 0.65713 0.19753 0.0
C271 C 0.60141 0.62029 0.139 0.0
C272 C 0.62155 0.63402 0.26467 0.0
C273 C 0.57736 0.57413 0.27376 0.0
C274 C 0.54527 0.53773 0.21487 0.0
C275 C 0.55732 0.56064 0.14804 0.0
loop_
_geom_bond_atom_site_label_1
_geom_bond_atom_site_label_2
_geom_bond_distance
_geom_bond_site_symmetry_2
_ccdc_geom_bond_type
Zn0 O1 2.055 . S
Zn0 O8 2.046 1_455 S
Zn0 N16 2.036 1_454 S
Zn0 O28 2.053 1_455 S
Zn0 O30 2.066 . S
O1 Zn0 2.055 . S
O1 C4 1.259 . S
C2 O30 1.256 . S
C2 O31 1.244 . S
Zn3 O5 2.046 . S
Zn3 O7 2.055 1_455 S
Zn3 N9 2.036 . S
Zn3 O27 2.066 1_455 S
Zn3 O31 2.053 . S
C4 O1 1.259 . S
C4 O5 1.254 . S
O5 Zn3 2.046 . S
O5 C4 1.254 . S
C6 O27 1.256 . S
C6 O28 1.244 . S
O7 Zn3 2.055 1_655 S
O7 C29 1.259 . S
O8 Zn0 2.046 1_655 S
O8 C29 1.254 . S
N9 Zn3 2.036 . S
N9 C10 1.298 1_455 S
N9 N12 1.398 . S
C10 N9 1.298 1_655 S
C10 N13 1.367 1_655 S
C10 C23 1.481 . S
C11 N12 1.299 . S
C11 N13 1.379 . S
N12 N9 1.398 . S
N12 C11 1.299 . S
N13 C10 1.367 1_455 S
N13 C11 1.379 . S
C14 N16 1.298 1_455 S
C14 N18 1.367 . S
C14 C22 1.481 . S
C15 N17 1.299 . S
C15 N18 1.379 1_655 S
N16 Zn0 2.036 1_656 S
N16 C14 1.298 1_655 S
N16 N17 1.398 . S
N17 C15 1.299 . S
N17 N16 1.398 . S
N18 C14 1.367 . S
N18 C15 1.379 1_455 S
H19 C22 0.980 . S
H20 C22 0.981 . S
H21 C22 0.981 . S
C22 C14 1.481 . S
C22 H19 0.980 . S
C22 H20 0.981 . S
C22 H21 0.981 . S
C23 C10 1.481 . S
C23 H24 0.980 . S
C23 H25 0.981 . S
C23 H26 0.981 . S
H24 C23 0.980 . S
H25 C23 0.981 . S
H26 C23 0.981 . S
O27 Zn3 2.066 1_655 S
O27 C6 1.256 . S
O28 Zn0 2.053 1_655 S
O28 C6 1.244 . S
C29 O7 1.259 . S
C29 O8 1.254 . S
O30 Zn0 2.066 . S
O30 C2 1.256 . S
O31 C2 1.244 . S
O31 Zn3 2.053 . S
Zn32 O33 2.055 . S
Zn32 O40 2.046 1_545 S
Zn32 N48 2.036 1_545 S
Zn32 O60 2.053 1_545 S
Zn32 O62 2.066 . S
O33 Zn32 2.055 . S
O33 C36 1.259 . S
C34 O62 1.256 . S
C34 O63 1.244 . S
Zn35 O37 2.046 . S
Zn35 O39 2.055 1_545 S
Zn35 N41 2.036 . S
Zn35 O59 2.066 1_545 S
Zn35 O63 2.053 . S
C36 O33 1.259 . S
C36 O37 1.254 . S
O37 Zn35 2.046 . S
O37 C36 1.254 . S
C38 O59 1.256 . S
C38 O60 1.244 . S
O39 Zn35 2.055 1_565 S
O39 C61 1.259 . S
O40 Zn32 2.046 1_565 S
O40 C61 1.254 . S
N41 Zn35 2.036 . S
N41 C42 1.298 1_545 S
N41 N44 1.398 . S
C42 N41 1.298 1_565 S
C42 N45 1.367 1_565 S
C42 C55 1.481 . S
C43 N44 1.299 . S
C43 N45 1.379 . S
N44 N41 1.398 . S
N44 C43 1.299 . S
N45 C42 1.367 1_545 S
N45 C43 1.379 . S
C46 N48 1.298 1_545 S
C46 N50 1.367 . S
C46 C54 1.481 . S
C47 N49 1.299 . S
C47 N50 1.379 1_565 S
N48 Zn32 2.036 1_565 S
N48 C46 1.298 1_565 S
N48 N49 1.398 . S
N49 C47 1.299 . S
N49 N48 1.398 . S
N50 C46 1.367 . S
N50 C47 1.379 1_545 S
H51 C54 0.980 . S
H52 C54 0.981 . S
H53 C54 0.981 . S
C54 C46 1.481 . S
C54 H51 0.980 . S
C54 H52 0.981 . S
C54 H53 0.981 . S
C55 C42 1.481 . S
C55 H56 0.980 . S
C55 H57 0.981 . S
C55 H58 0.981 . S
H56 C55 0.980 . S
H57 C55 0.981 . S
H58 C55 0.981 . S
O59 Zn35 2.066 1_565 S
O59 C38 1.256 . S
O60 Zn32 2.053 1_565 S
O60 C38 1.244 . S
C61 O39 1.259 . S
C61 O40 1.254 . S
O62 Zn32 2.066 . S
O62 C34 1.256 . S
O63 C34 1.244 . S
O63 Zn35 2.053 . S
Zn64 O65 2.055 . S
Zn64 O72 2.046 . S
Zn64 N80 2.036 1_556 S
Zn64 O92 2.053 . S
Zn64 O94 2.066 . S
O65 Zn64 2.055 . S
O65 C68 1.259 . S
C66 O94 1.256 . S
C66 O95 1.244 . S
Zn67 O69 2.046 . S
Zn67 O71 2.055 . S
Zn67 N73 2.036 . S
Zn67 O91 2.066 . S
Zn67 O95 2.053 . S
C68 O65 1.259 . S
C68 O69 1.254 . S
O69 Zn67 2.046 . S
O69 C68 1.254 . S
C70 O91 1.256 . S
C70 O92 1.244 . S
O71 Zn67 2.055 . S
O71 C93 1.259 . S
O72 Zn64 2.046 . S
O72 C93 1.254 . S
N73 Zn67 2.036 . S
N73 C74 1.298 . S
N73 N76 1.398 . S
C74 N73 1.298 . S
C74 N77 1.367 . S
C74 C87 1.481 . S
C75 N76 1.299 . S
C75 N77 1.379 . S
N76 N73 1.398 . S
N76 C75 1.299 . S
N77 C74 1.367 . S
N77 C75 1.379 . S
C78 N80 1.298 . S
C78 N82 1.367 . S
C78 C86 1.481 . S
C79 N81 1.299 . S
C79 N82 1.379 . S
N80 Zn64 2.036 1_554 S
N80 C78 1.298 . S
N80 N81 1.398 . S
N81 C79 1.299 . S
N81 N80 1.398 . S
N82 C78 1.367 . S
N82 C79 1.379 . S
H83 C86 0.980 . S
H84 C86 0.981 . S
H85 C86 0.981 . S
C86 C78 1.481 . S
C86 H83 0.980 . S
C86 H84 0.981 . S
C86 H85 0.981 . S
C87 C74 1.481 . S
C87 H88 0.980 . S
C87 H89 0.981 . S
C87 H90 0.981 . S
H88 C87 0.980 . S
H89 C87 0.981 . S
H90 C87 0.981 . S
O91 Zn67 2.066 . S
O91 C70 1.256 . S
O92 Zn64 2.053 . S
O92 C70 1.244 . S
C93 O71 1.259 . S
C93 O72 1.254 . S
O94 Zn64 2.066 . S
O94 C66 1.256 . S
O95 C66 1.244 . S
O95 Zn67 2.053 . S
H96 C104 0.950 . S
H97 C109 0.950 . S
H98 C106 0.950 . S
H99 C108 0.950 . S
H100 C110 0.950 . S
H101 C112 0.950 . S
H102 C114 0.950 . S
H103 C115 0.950 . S
C104 H96 0.950 . S
C104 C105 1.386 . S
C104 C106 1.391 . S
C105 C104 1.386 . S
C105 C109 1.393 . S
C106 H98 0.950 . S
C106 C104 1.391 . S
C106 C107 1.400 . S
C107 C106 1.400 . S
C107 C108 1.398 . S
C107 C113 1.491 1_554 S
C108 H99 0.950 . S
C108 C107 1.398 . S
C108 C109 1.391 . S
C109 H97 0.950 . S
C109 C105 1.393 . S
C109 C108 1.391 . S
C110 H100 0.950 . S
C110 C111 1.386 . S
C110 C112 1.391 . S
C111 C110 1.386 . S
C111 C115 1.393 . S
C112 H101 0.950 . S
C112 C110 1.391 . S
C112 C113 1.400 . S
C113 C107 1.491 1_556 S
C113 C112 1.400 . S
C113 C114 1.398 . S
C114 H102 0.950 . S
C114 C113 1.398 . S
C114 C115 1.391 . S
C115 H103 0.950 . S
C115 C111 1.393 . S
C115 C114 1.391 . S
H116 C124 0.950 . S
H117 C129 0.950 . S
H118 C126 0.950 . S
H119 C128 0.950 . S
H120 C130 0.950 . S
H121 C132 0.950 . S
H122 C134 0.950 . S
H123 C135 0.950 . S
C124 H116 0.950 . S
C124 C125 1.386 . S
C124 C126 1.391 . S
C125 C124 1.386 . S
C125 C129 1.393 . S
C126 H118 0.950 . S
C126 C124 1.391 . S
C126 C127 1.400 . S
C127 C126 1.400 . S
C127 C128 1.398 . S
C127 C133 1.491 . S
C128 H119 0.950 . S
C128 C127 1.398 . S
C128 C129 1.391 . S
C129 H117 0.950 . S
C129 C125 1.393 . S
C129 C128 1.391 . S
C130 H120 0.950 . S
C130 C131 1.386 . S
C130 C132 1.391 . S
C131 C130 1.386 . S
C131 C135 1.393 . S
C132 H121 0.950 . S
C132 C130 1.391 . S
C132 C133 1.400 . S
C133 C127 1.491 . S
C133 C132 1.400 . S
C133 C134 1.398 . S
C134 H122 0.950 . S
C134 C133 1.398 . S
C134 C135 1.391 . S
C135 H123 0.950 . S
C135 C131 1.393 . S
C135 C134 1.391 . S
H136 C144 0.950 . S
H137 C149 0.950 . S
H138 C146 0.950 . S
H139 C148 0.950 . S
H140 C150 0.950 . S
H141 C152 0.950 . S
H142 C154 0.950 . S
H143 C155 0.950 . S
C144 H136 0.950 . S
C144 C145 1.386 . S
C144 C146 1.391 . S
C145 C144 1.386 . S
C145 C149 1.393 . S
C146 H138 0.950 . S
C146 C144 1.391 . S
C146 C147 1.400 . S
C147 C146 1.400 . S
C147 C148 1.398 . S
C147 C153 1.491 . S
C148 H139 0.950 . S
C148 C147 1.398 . S
C148 C149 1.391 . S
C149 H137 0.950 . S
C149 C145 1.393 . S
C149 C148 1.391 . S
C150 H140 0.950 . S
C150 C151 1.386 . S
C150 C152 1.391 . S
C151 C150 1.386 . S
C151 C155 1.393 . S
C152 H141 0.950 . S
C152 C150 1.391 . S
C152 C153 1.400 . S
C153 C147 1.491 . S
C153 C152 1.400 . S
C153 C154 1.398 . S
C154 H142 0.950 . S
C154 C153 1.398 . S
C154 C155 1.391 . S
C155 H143 0.950 . S
C155 C151 1.393 . S
C155 C154 1.391 . S
H156 C164 0.950 . S
H157 C169 0.950 . S
H158 C166 0.950 . S
H159 C168 0.950 . S
H160 C170 0.950 . S
H161 C172 0.950 . S
H162 C174 0.950 1_556 S
H163 C175 0.950 . S
C164 H156 0.950 . S
C164 C165 1.386 . S
C164 C166 1.391 . S
C165 C164 1.386 . S
C165 C169 1.393 . S
C166 H158 0.950 . S
C166 C164 1.391 . S
C166 C167 1.400 . S
C167 C166 1.400 . S
C167 C168 1.398 1_556 S
C167 C173 1.491 1_556 S
C168 H159 0.950 . S
C168 C167 1.398 1_554 S
C168 C169 1.391 1_554 S
C169 H157 0.950 . S
C169 C165 1.393 . S
C169 C168 1.391 1_556 S
C170 H160 0.950 . S
C170 C171 1.386 . S
C170 C172 1.391 . S
C171 C170 1.386 . S
C171 C175 1.393 . S
C172 H161 0.950 . S
C172 C170 1.391 . S
C172 C173 1.400 . S
C173 C167 1.491 1_554 S
C173 C172 1.400 . S
C173 C174 1.398 . S
C174 H162 0.950 1_554 S
C174 C173 1.398 . S
C174 C175 1.391 . S
C175 H163 0.950 . S
C175 C171 1.393 . S
C175 C174 1.391 . S
H176 C184 0.950 . S
H177 C189 0.950 . S
H178 C186 0.950 . S
H179 C188 0.950 . S
H180 C190 0.950 . S
H181 C192 0.950 . S
H182 C194 0.950 . S
H183 C195 0.950 . S
C184 H176 0.950 . S
C184 C185 1.386 . S
C184 C186 1.391 . S
C185 C184 1.386 . S
C185 C189 1.393 . S
C186 H178 0.950 . S
C186 C184 1.391 . S
C186 C187 1.400 . S
C187 C186 1.400 . S
C187 C188 1.398 . S
C187 C193 1.491 . S
C188 H179 0.950 . S
C188 C187 1.398 . S
C188 C189 1.391 . S
C189 H177 0.950 . S
C189 C185 1.393 . S
C189 C188 1.391 . S
C190 H180 0.950 . S
C190 C191 1.386 . S
C190 C192 1.391 . S
C191 C190 1.386 . S
C191 C195 1.393 . S
C192 H181 0.950 . S
C192 C190 1.391 . S
C192 C193 1.400 . S
C193 C187 1.491 . S
C193 C192 1.400 . S
C193 C194 1.398 . S
C194 H182 0.950 . S
C194 C193 1.398 . S
C194 C195 1.391 . S
C195 H183 0.950 . S
C195 C191 1.393 . S
C195 C194 1.391 . S
H196 C204 0.950 . S
H197 C209 0.950 . S
H198 C206 0.950 . S
H199 C208 0.950 . S
H200 C210 0.950 . S
H201 C212 0.950 . S
H202 C214 0.950 . S
H203 C215 0.950 . S
C204 H196 0.950 . S
C204 C205 1.386 . S
C204 C206 1.391 . S
C205 C204 1.386 . S
C205 C209 1.393 . S
C206 H198 0.950 . S
C206 C204 1.391 . S
C206 C207 1.400 . S
C207 C206 1.400 . S
C207 C208 1.398 . S
C207 C213 1.491 . S
C208 H199 0.950 . S
C208 C207 1.398 . S
C208 C209 1.391 . S
C209 H197 0.950 . S
C209 C205 1.393 . S
C209 C208 1.391 . S
C210 H200 0.950 . S
C210 C211 1.386 . S
C210 C212 1.391 . S
C211 C210 1.386 . S
C211 C215 1.393 . S
C212 H201 0.950 . S
C212 C210 1.391 . S
C212 C213 1.400 . S
C213 C207 1.491 . S
C213 C212 1.400 . S
C213 C214 1.398 . S
C214 H202 0.950 . S
C214 C213 1.398 . S
C214 C215 1.391 . S
C215 H203 0.950 . S
C215 C211 1.393 . S
C215 C214 1.391 . S
H216 C224 0.950 . S
H217 C229 0.950 1_655 S
H218 C226 0.950 . S
H219 C228 0.950 . S
H220 C230 0.950 . S
H221 C232 0.950 . S
H222 C234 0.950 . S
H223 C235 0.950 . S
C224 H216 0.950 . S
C224 C225 1.386 . S
C224 C226 1.391 . S
C225 C224 1.386 . S
C225 C229 1.393 . S
C226 H218 0.950 . S
C226 C224 1.391 . S
C226 C227 1.400 . S
C227 C226 1.400 . S
C227 C228 1.398 1_455 S
C227 C233 1.491 . S
C228 H219 0.950 . S
C228 C227 1.398 1_655 S
C228 C229 1.391 1_655 S
C229 H217 0.950 1_455 S
C229 C225 1.393 . S
C229 C228 1.391 1_455 S
C230 H220 0.950 . S
C230 C231 1.386 . S
C230 C232 1.391 . S
C231 C230 1.386 . S
C231 C235 1.393 1_655 S
C232 H221 0.950 . S
C232 C230 1.391 . S
C232 C233 1.400 1_655 S
C233 C227 1.491 . S
C233 C232 1.400 1_455 S
C233 C234 1.398 . S
C234 H222 0.950 . S
C234 C233 1.398 . S
C234 C235 1.391 . S
C235 H223 0.950 . S
C235 C231 1.393 1_455 S
C235 C234 1.391 . S
H236 C244 0.950 . S
H237 C249 0.950 . S
H238 C246 0.950 . S
H239 C248 0.950 . S
H240 C250 0.950 . S
H241 C252 0.950 . S
H242 C254 0.950 . S
H243 C255 0.950 . S
C244 H236 0.950 . S
C244 C245 1.386 . S
C244 C246 1.391 . S
C245 C244 1.386 . S
C245 C249 1.393 . S
C246 H238 0.950 . S
C246 C244 1.391 . S
C246 C247 1.400 1_565 S
C247 C246 1.400 1_545 S
C247 C248 1.398 1_545 S
C247 C253 1.491 1_554 S
C248 H239 0.950 . S
C248 C247 1.398 1_565 S
C248 C249 1.391 . S
C249 H237 0.950 . S
C249 C245 1.393 . S
C249 C248 1.391 . S
C250 H240 0.950 . S
C250 C251 1.386 . S
C250 C252 1.391 . S
C251 C250 1.386 . S
C251 C255 1.393 . S
C252 H241 0.950 . S
C252 C250 1.391 . S
C252 C253 1.400 . S
C253 C247 1.491 1_556 S
C253 C252 1.400 . S
C253 C254 1.398 . S
C254 H242 0.950 . S
C254 C253 1.398 . S
C254 C255 1.391 . S
C255 H243 0.950 . S
C255 C251 1.393 . S
C255 C254 1.391 . S
H256 C264 0.950 . S
H257 C269 0.950 . S
H258 C266 0.950 . S
H259 C268 0.950 . S
H260 C270 0.950 . S
H261 C272 0.950 . S
H262 C274 0.950 . S
H263 C275 0.950 . S
C264 H256 0.950 . S
C264 C265 1.386 . S
C264 C266 1.391 . S
C265 C264 1.386 . S
C265 C269 1.393 . S
C266 H258 0.950 . S
C266 C264 1.391 . S
C266 C267 1.400 . S
C267 C266 1.400 . S
C267 C268 1.398 . S
C267 C273 1.491 . S
C268 H259 0.950 . S
C268 C267 1.398 . S
C268 C269 1.391 . S
C269 H257 0.950 . S
C269 C265 1.393 . S
C269 C268 1.391 . S
C270 H260 0.950 . S
C270 C271 1.386 . S
C270 C272 1.391 . S
C271 C270 1.386 . S
C271 C275 1.393 . S
C272 H261 0.950 . S
C272 C270 1.391 . S
C272 C273 1.400 . S
C273 C267 1.491 . S
C273 C272 1.400 . S
C273 C274 1.398 . S
C274 H262 0.950 . S
C274 C273 1.398 . S
C274 C275 1.391 . S
C275 H263 0.950 . S
C275 C271 1.393 . S
C275 C274 1.391 . S
C105 C2 1.939 . S
C111 C93 1.920 . S
C125 C36 1.908 . S
C131 C6 1.933 . S
C145 C61 1.920 . S
C151 C70 1.940 . S
C165 C66 1.936 . S
C171 C29 1.912 . S
C185 C38 1.940 . S
C191 C4 1.918 . S
C205 C68 1.895 . S
C211 C34 1.919 . S
C225 N18 0.457 . S
C231 N13 0.451 1_655 S
C245 N45 0.547 1_565 S
C251 N50 0.545 . S
C265 N77 0.517 . S
C271 N82 0.503 . S
