# Generated by pormake.
# Topology ula, (4)-cn, num edge types: 1
# Building blocks:
#     Node 0, Type 0, BuildingBlock: NAWXER_clean_sbu_0, # of connection points: 4
#     Node 1, Type 0, BuildingBlock: NAWXER_clean_sbu_0, # of connection points: 4
#     Node 2, Type 0, BuildingBlock: NAWXER_clean_sbu_0, # of connection points: 4
#     Node 3, Type 0, BuildingBlock: NAWXER_clean_sbu_0, # of connection points: 4
#     Node 4, Type 0, BuildingBlock: NAWXER_clean_sbu_0, # of connection points: 4
#     Node 5, Type 0, BuildingBlock: NAWXER_clean_sbu_0, # of connection points: 4
#     Node 6, Type 0, BuildingBlock: NAWXER_clean_sbu_0, # of connection points: 4
#     Node 7, Type 0, BuildingBlock: NAWXER_clean_sbu_0, # of connection points: 4
#     Node 8, Type 0, BuildingBlock: NAWXER_clean_sbu_0, # of connection points: 4
#     Node 9, Type 0, BuildingBlock: NAWXER_clean_sbu_0, # of connection points: 4
#     Node 10, Type 0, BuildingBlock: NAWXER_clean_sbu_0, # of connection points: 4
#     Node 11, Type 0, BuildingBlock: NAWXER_clean_sbu_0, # of connection points: 4
#     Node 12, Type 0, BuildingBlock: NAWXER_clean_sbu_0, # of connection points: 4
#     Node 13, Type 0, BuildingBlock: NAWXER_clean_sbu_0, # of connection points: 4
#     Node 14, Type 0, BuildingBlock: NAWXER_clean_sbu_0, # of connection points: 4
#     Node 15, Type 0, BuildingBlock: NAWXER_clean_sbu_0, # of connection points: 4
#     Node 16, Type 0, BuildingBlock: NAWXER_clean_sbu_0, # of connection points: 4
#     Node 17, Type 0, BuildingBlock: NAWXER_clean_sbu_0, # of connection points: 4
#     Node 18, Type 0, BuildingBlock: NAWXER_clean_sbu_0, # of connection points: 4
#     Node 19, Type 0, BuildingBlock: NAWXER_clean_sbu_0, # of connection points: 4
#     Node 20, Type 0, BuildingBlock: NAWXER_clean_sbu_0, # of connection points: 4
#     Node 21, Type 0, BuildingBlock: NAWXER_clean_sbu_0, # of connection points: 4
#     Node 22, Type 0, BuildingBlock: NAWXER_clean_sbu_0, # of connection points: 4
#     Node 23, Type 0, BuildingBlock: NAWXER_clean_sbu_0, # of connection points: 4
#     Node 24, Type 0, BuildingBlock: NAWXER_clean_sbu_0, # of connection points: 4
#     Node 25, Type 0, BuildingBlock: NAWXER_clean_sbu_0, # of connection points: 4
#     Node 26, Type 0, BuildingBlock: NAWXER_clean_sbu_0, # of connection points: 4
#     Node 27, Type 0, BuildingBlock: NAWXER_clean_sbu_0, # of connection points: 4
#     Node 28, Type 0, BuildingBlock: NAWXER_clean_sbu_0, # of connection points: 4
#     Node 29, Type 0, BuildingBlock: NAWXER_clean_sbu_0, # of connection points: 4
#     Node 30, Type 0, BuildingBlock: NAWXER_clean_sbu_0, # of connection points: 4
#     Node 31, Type 0, BuildingBlock: NAWXER_clean_sbu_0, # of connection points: 4
#     Node 32, Type 0, BuildingBlock: NAWXER_clean_sbu_0, # of connection points: 4
#     Node 33, Type 0, BuildingBlock: NAWXER_clean_sbu_0, # of connection points: 4
#     Node 34, Type 0, BuildingBlock: NAWXER_clean_sbu_0, # of connection points: 4
#     Node 35, Type 0, BuildingBlock: NAWXER_clean_sbu_0, # of connection points: 4
#     Node 36, Type 0, BuildingBlock: NAWXER_clean_sbu_0, # of connection points: 4
#     Node 37, Type 0, BuildingBlock: NAWXER_clean_sbu_0, # of connection points: 4
#     Node 38, Type 0, BuildingBlock: NAWXER_clean_sbu_0, # of connection points: 4
#     Node 39, Type 0, BuildingBlock: NAWXER_clean_sbu_0, # of connection points: 4
#     Node 40, Type 0, BuildingBlock: NAWXER_clean_sbu_0, # of connection points: 4
#     Node 41, Type 0, BuildingBlock: NAWXER_clean_sbu_0, # of connection points: 4
#     Node 42, Type 0, BuildingBlock: NAWXER_clean_sbu_0, # of connection points: 4
#     Node 43, Type 0, BuildingBlock: NAWXER_clean_sbu_0, # of connection points: 4
#     Node 44, Type 0, BuildingBlock: NAWXER_clean_sbu_0, # of connection points: 4
#     Node 45, Type 0, BuildingBlock: NAWXER_clean_sbu_0, # of connection points: 4
#     Node 46, Type 0, BuildingBlock: NAWXER_clean_sbu_0, # of connection points: 4
#     Node 47, Type 0, BuildingBlock: NAWXER_clean_sbu_0, # of connection points: 4
#     Node 48, Type 0, BuildingBlock: NAWXER_clean_sbu_0, # of connection points: 4
#     Node 49, Type 0, BuildingBlock: NAWXER_clean_sbu_0, # of connection points: 4
#     Node 50, Type 0, BuildingBlock: NAWXER_clean_sbu_0, # of connection points: 4
#     Node 51, Type 0, BuildingBlock: NAWXER_clean_sbu_0, # of connection points: 4
#     Node 52, Type 0, BuildingBlock: NAWXER_clean_sbu_0, # of connection points: 4
#     Node 53, Type 0, BuildingBlock: NAWXER_clean_sbu_0, # of connection points: 4
#     Node 54, Type 0, BuildingBlock: NAWXER_clean_sbu_0, # of connection points: 4
#     Node 55, Type 0, BuildingBlock: NAWXER_clean_sbu_0, # of connection points: 4
#     Node 56, Type 0, BuildingBlock: NAWXER_clean_sbu_0, # of connection points: 4
#     Node 57, Type 0, BuildingBlock: NAWXER_clean_sbu_0, # of connection points: 4
#     Node 58, Type 0, BuildingBlock: NAWXER_clean_sbu_0, # of connection points: 4
#     Node 59, Type 0, BuildingBlock: NAWXER_clean_sbu_0, # of connection points: 4
#     Node 60, Type 0, BuildingBlock: NAWXER_clean_sbu_0, # of connection points: 4
#     Node 61, Type 0, BuildingBlock: NAWXER_clean_sbu_0, # of connection points: 4
#     Node 62, Type 0, BuildingBlock: NAWXER_clean_sbu_0, # of connection points: 4
#     Node 63, Type 0, BuildingBlock: NAWXER_clean_sbu_0, # of connection points: 4
#     Node 64, Type 0, BuildingBlock: NAWXER_clean_sbu_0, # of connection points: 4
#     Node 65, Type 0, BuildingBlock: NAWXER_clean_sbu_0, # of connection points: 4
#     Node 66, Type 0, BuildingBlock: NAWXER_clean_sbu_0, # of connection points: 4
#     Node 67, Type 0, BuildingBlock: NAWXER_clean_sbu_0, # of connection points: 4
#     Node 68, Type 0, BuildingBlock: NAWXER_clean_sbu_0, # of connection points: 4
#     Node 69, Type 0, BuildingBlock: NAWXER_clean_sbu_0, # of connection points: 4
#     Node 70, Type 0, BuildingBlock: NAWXER_clean_sbu_0, # of connection points: 4
#     Node 71, Type 0, BuildingBlock: NAWXER_clean_sbu_0, # of connection points: 4
#     Node 72, Type 0, BuildingBlock: NAWXER_clean_sbu_0, # of connection points: 4
#     Node 73, Type 0, BuildingBlock: NAWXER_clean_sbu_0, # of connection points: 4
#     Node 74, Type 0, BuildingBlock: NAWXER_clean_sbu_0, # of connection points: 4
#     Node 75, Type 0, BuildingBlock: NAWXER_clean_sbu_0, # of connection points: 4
#     Node 76, Type 0, BuildingBlock: NAWXER_clean_sbu_0, # of connection points: 4
#     Node 77, Type 0, BuildingBlock: NAWXER_clean_sbu_0, # of connection points: 4
#     Node 78, Type 0, BuildingBlock: NAWXER_clean_sbu_0, # of connection points: 4
#     Node 79, Type 0, BuildingBlock: NAWXER_clean_sbu_0, # of connection points: 4
#     Node 80, Type 0, BuildingBlock: NAWXER_clean_sbu_0, # of connection points: 4
#     Node 81, Type 0, BuildingBlock: NAWXER_clean_sbu_0, # of connection points: 4
#     Node 82, Type 0, BuildingBlock: NAWXER_clean_sbu_0, # of connection points: 4
#     Node 83, Type 0, BuildingBlock: NAWXER_clean_sbu_0, # of connection points: 4
#     Node 84, Type 0, BuildingBlock: NAWXER_clean_sbu_0, # of connection points: 4
#     Node 85, Type 0, BuildingBlock: NAWXER_clean_sbu_0, # of connection points: 4
#     Node 86, Type 0, BuildingBlock: NAWXER_clean_sbu_0, # of connection points: 4
#     Node 87, Type 0, BuildingBlock: NAWXER_clean_sbu_0, # of connection points: 4
#     Node 88, Type 0, BuildingBlock: NAWXER_clean_sbu_0, # of connection points: 4
#     Node 89, Type 0, BuildingBlock: NAWXER_clean_sbu_0, # of connection points: 4
#     Node 90, Type 0, BuildingBlock: NAWXER_clean_sbu_0, # of connection points: 4
#     Node 91, Type 0, BuildingBlock: NAWXER_clean_sbu_0, # of connection points: 4
#     Node 92, Type 0, BuildingBlock: NAWXER_clean_sbu_0, # of connection points: 4
#     Node 93, Type 0, BuildingBlock: NAWXER_clean_sbu_0, # of connection points: 4
#     Node 94, Type 0, BuildingBlock: NAWXER_clean_sbu_0, # of connection points: 4
#     Node 95, Type 0, BuildingBlock: NAWXER_clean_sbu_0, # of connection points: 4
#     Edge 96, Type (0, 0), None
#     Edge 97, Type (0, 0), None
#     Edge 98, Type (0, 0), None
#     Edge 99, Type (0, 0), None
#     Edge 100, Type (0, 0), None
#     Edge 101, Type (0, 0), None
#     Edge 102, Type (0, 0), None
#     Edge 103, Type (0, 0), None
#     Edge 104, Type (0, 0), None
#     Edge 105, Type (0, 0), None
#     Edge 106, Type (0, 0), None
#     Edge 107, Type (0, 0), None
#     Edge 108, Type (0, 0), None
#     Edge 109, Type (0, 0), None
#     Edge 110, Type (0, 0), None
#     Edge 111, Type (0, 0), None
#     Edge 112, Type (0, 0), None
#     Edge 113, Type (0, 0), None
#     Edge 114, Type (0, 0), None
#     Edge 115, Type (0, 0), None
#     Edge 116, Type (0, 0), None
#     Edge 117, Type (0, 0), None
#     Edge 118, Type (0, 0), None
#     Edge 119, Type (0, 0), None
#     Edge 120, Type (0, 0), None
#     Edge 121, Type (0, 0), None
#     Edge 122, Type (0, 0), None
#     Edge 123, Type (0, 0), None
#     Edge 124, Type (0, 0), None
#     Edge 125, Type (0, 0), None
#     Edge 126, Type (0, 0), None
#     Edge 127, Type (0, 0), None
#     Edge 128, Type (0, 0), None
#     Edge 129, Type (0, 0), None
#     Edge 130, Type (0, 0), None
#     Edge 131, Type (0, 0), None
#     Edge 132, Type (0, 0), None
#     Edge 133, Type (0, 0), None
#     Edge 134, Type (0, 0), None
#     Edge 135, Type (0, 0), None
#     Edge 136, Type (0, 0), None
#     Edge 137, Type (0, 0), None
#     Edge 138, Type (0, 0), None
#     Edge 139, Type (0, 0), None
#     Edge 140, Type (0, 0), None
#     Edge 141, Type (0, 0), None
#     Edge 142, Type (0, 0), None
#     Edge 143, Type (0, 0), None
#     Edge 144, Type (0, 0), None
#     Edge 145, Type (0, 0), None
#     Edge 146, Type (0, 0), None
#     Edge 147, Type (0, 0), None
#     Edge 148, Type (0, 0), None
#     Edge 149, Type (0, 0), None
#     Edge 150, Type (0, 0), None
#     Edge 151, Type (0, 0), None
#     Edge 152, Type (0, 0), None
#     Edge 153, Type (0, 0), None
#     Edge 154, Type (0, 0), None
#     Edge 155, Type (0, 0), None
#     Edge 156, Type (0, 0), None
#     Edge 157, Type (0, 0), None
#     Edge 158, Type (0, 0), None
#     Edge 159, Type (0, 0), None
#     Edge 160, Type (0, 0), None
#     Edge 161, Type (0, 0), None
#     Edge 162, Type (0, 0), None
#     Edge 163, Type (0, 0), None
#     Edge 164, Type (0, 0), None
#     Edge 165, Type (0, 0), None
#     Edge 166, Type (0, 0), None
#     Edge 167, Type (0, 0), None
#     Edge 168, Type (0, 0), None
#     Edge 169, Type (0, 0), None
#     Edge 170, Type (0, 0), None
#     Edge 171, Type (0, 0), None
#     Edge 172, Type (0, 0), None
#     Edge 173, Type (0, 0), None
#     Edge 174, Type (0, 0), None
#     Edge 175, Type (0, 0), None
#     Edge 176, Type (0, 0), None
#     Edge 177, Type (0, 0), None
#     Edge 178, Type (0, 0), None
#     Edge 179, Type (0, 0), None
#     Edge 180, Type (0, 0), None
#     Edge 181, Type (0, 0), None
#     Edge 182, Type (0, 0), None
#     Edge 183, Type (0, 0), None
#     Edge 184, Type (0, 0), None
#     Edge 185, Type (0, 0), None
#     Edge 186, Type (0, 0), None
#     Edge 187, Type (0, 0), None
#     Edge 188, Type (0, 0), None
#     Edge 189, Type (0, 0), None
#     Edge 190, Type (0, 0), None
#     Edge 191, Type (0, 0), None
#     Edge 192, Type (0, 0), None
#     Edge 193, Type (0, 0), None
#     Edge 194, Type (0, 0), None
#     Edge 195, Type (0, 0), None
#     Edge 196, Type (0, 0), None
#     Edge 197, Type (0, 0), None
#     Edge 198, Type (0, 0), None
#     Edge 199, Type (0, 0), None
#     Edge 200, Type (0, 0), None
#     Edge 201, Type (0, 0), None
#     Edge 202, Type (0, 0), None
#     Edge 203, Type (0, 0), None
#     Edge 204, Type (0, 0), None
#     Edge 205, Type (0, 0), None
#     Edge 206, Type (0, 0), None
#     Edge 207, Type (0, 0), None
#     Edge 208, Type (0, 0), None
#     Edge 209, Type (0, 0), None
#     Edge 210, Type (0, 0), None
#     Edge 211, Type (0, 0), None
#     Edge 212, Type (0, 0), None
#     Edge 213, Type (0, 0), None
#     Edge 214, Type (0, 0), None
#     Edge 215, Type (0, 0), None
#     Edge 216, Type (0, 0), None
#     Edge 217, Type (0, 0), None
#     Edge 218, Type (0, 0), None
#     Edge 219, Type (0, 0), None
#     Edge 220, Type (0, 0), None
#     Edge 221, Type (0, 0), None
#     Edge 222, Type (0, 0), None
#     Edge 223, Type (0, 0), None
#     Edge 224, Type (0, 0), None
#     Edge 225, Type (0, 0), None
#     Edge 226, Type (0, 0), None
#     Edge 227, Type (0, 0), None
#     Edge 228, Type (0, 0), None
#     Edge 229, Type (0, 0), None
#     Edge 230, Type (0, 0), None
#     Edge 231, Type (0, 0), None
#     Edge 232, Type (0, 0), None
#     Edge 233, Type (0, 0), None
#     Edge 234, Type (0, 0), None
#     Edge 235, Type (0, 0), None
#     Edge 236, Type (0, 0), None
#     Edge 237, Type (0, 0), None
#     Edge 238, Type (0, 0), None
#     Edge 239, Type (0, 0), None
#     Edge 240, Type (0, 0), None
#     Edge 241, Type (0, 0), None
#     Edge 242, Type (0, 0), None
#     Edge 243, Type (0, 0), None
#     Edge 244, Type (0, 0), None
#     Edge 245, Type (0, 0), None
#     Edge 246, Type (0, 0), None
#     Edge 247, Type (0, 0), None
#     Edge 248, Type (0, 0), None
#     Edge 249, Type (0, 0), None
#     Edge 250, Type (0, 0), None
#     Edge 251, Type (0, 0), None
#     Edge 252, Type (0, 0), None
#     Edge 253, Type (0, 0), None
#     Edge 254, Type (0, 0), None
#     Edge 255, Type (0, 0), None
#     Edge 256, Type (0, 0), None
#     Edge 257, Type (0, 0), None
#     Edge 258, Type (0, 0), None
#     Edge 259, Type (0, 0), None
#     Edge 260, Type (0, 0), None
#     Edge 261, Type (0, 0), None
#     Edge 262, Type (0, 0), None
#     Edge 263, Type (0, 0), None
#     Edge 264, Type (0, 0), None
#     Edge 265, Type (0, 0), None
#     Edge 266, Type (0, 0), None
#     Edge 267, Type (0, 0), None
#     Edge 268, Type (0, 0), None
#     Edge 269, Type (0, 0), None
#     Edge 270, Type (0, 0), None
#     Edge 271, Type (0, 0), None
#     Edge 272, Type (0, 0), None
#     Edge 273, Type (0, 0), None
#     Edge 274, Type (0, 0), None
#     Edge 275, Type (0, 0), None
#     Edge 276, Type (0, 0), None
#     Edge 277, Type (0, 0), None
#     Edge 278, Type (0, 0), None
#     Edge 279, Type (0, 0), None
#     Edge 280, Type (0, 0), None
#     Edge 281, Type (0, 0), None
#     Edge 282, Type (0, 0), None
#     Edge 283, Type (0, 0), None
#     Edge 284, Type (0, 0), None
#     Edge 285, Type (0, 0), None
#     Edge 286, Type (0, 0), None
#     Edge 287, Type (0, 0), None
# Relax obj value: 0.041
# Max RMSD: 0.060
# Mean RMSD: 0.060
data_MOF--net-ula--node1-NAWXER_clean_sbu_0--edge1-none
_symmetry_space_group_name_H-M    P1
_symmetry_Int_Tables_number       1
_symmetry_cell_setting            triclinic
loop_
_symmetry_equiv_pos_as_xyz
'x, y, z'
_cell_length_a     29.933961
_cell_length_b     29.934736
_cell_length_c     29.934882
_cell_angle_alpha  89.999947
_cell_angle_beta   89.999583
_cell_angle_gamma 89.999207
loop_
_atom_site_label
_atom_site_type_symbol
_atom_site_fract_x
_atom_site_fract_y
_atom_site_fract_z
_atom_type_partial_charge
C0 C 0.97277 1.01096 0.39761 0.0
C1 C 0.12384 0.08492 0.35188 0.0
O2 O 1.00913 0.99365 0.41273 0.0
Zn3 Zn 0.05312 0.03745 0.38658 0.0
O4 O 0.97501 0.04678 0.37539 0.0
Zn5 Zn 1.01835 0.09358 0.34961 0.0
O6 O 1.00104 0.07576 0.28961 0.0
O7 O 0.03632 1.02021 0.32365 0.0
O8 O 0.08782 0.10379 0.33904 0.0
O9 O 0.12042 0.05114 0.37813 0.0
O10 O 0.03071 0.08562 0.42918 0.0
O11 O 0.99806 0.14055 0.39342 0.0
C12 C 1.01479 0.03522 0.29059 0.0
C13 C 1.0077 0.12115 0.43031 0.0
C14 C 0.25723 0.76479 0.5406 0.0
C15 C 0.17127 0.75769 0.68032 0.0
O16 O 0.21668 0.75104 0.53962 0.0
Zn17 Zn 0.19885 0.76834 0.59962 0.0
O18 O 0.27223 0.78632 0.57366 0.0
Zn19 Zn 0.25498 0.80311 0.63659 0.0
O20 O 0.29878 0.75911 0.66275 0.0
O21 O 0.24565 0.725 0.62539 0.0
O22 O 0.2068 0.7807 0.67918 0.0
O23 O 0.15187 0.74805 0.64342 0.0
O24 O 0.18863 0.83781 0.58905 0.0
O25 O 0.24128 0.8704 0.62814 0.0
C26 C 0.28146 0.72275 0.64763 0.0
C27 C 0.2075 0.87382 0.6019 0.0
C28 C 0.52763 1.00719 0.79059 0.0
C29 C 0.53473 0.92125 0.93032 0.0
O30 O 0.54138 0.96665 0.78961 0.0
Zn31 Zn 0.52408 0.94883 0.84961 0.0
O32 O 0.5061 0.0222 0.82366 0.0
Zn33 Zn 0.48931 1.00495 0.88659 0.0
O34 O 0.53331 0.04875 0.91273 0.0
O35 O 0.56742 0.99562 0.87538 0.0
O36 O 0.51172 0.95678 0.92918 0.0
O37 O 0.54437 0.90185 0.89342 0.0
O38 O 0.4546 0.93861 0.83905 0.0
O39 O 0.42201 0.99126 0.87814 0.0
C40 C 0.56966 0.03144 0.89761 0.0
C41 C 0.41859 0.95748 0.85189 0.0
C42 C 0.37114 0.28468 0.18033 0.0
C43 C 0.28521 0.27765 0.0406 0.0
O44 O 0.39053 0.29436 0.14344 0.0
Zn45 Zn 0.34356 0.27407 0.09963 0.0
O46 O 0.3356 0.26168 0.17919 0.0
Zn47 Zn 0.28743 0.23929 0.13658 0.0
O48 O 0.30113 0.172 0.12812 0.0
O49 O 0.35378 0.2046 0.08905 0.0
O50 O 0.2702 0.25609 0.07364 0.0
O51 O 0.32576 0.29139 0.03963 0.0
O52 O 0.29675 0.31739 0.1254 0.0
O53 O 0.24362 0.28328 0.16273 0.0
C54 C 0.33491 0.16858 0.10188 0.0
C55 C 0.26092 0.31964 0.1476 0.0
C56 C 0.12383 0.9575 0.19053 0.0
C57 C 0.97279 0.03151 0.14478 0.0
O58 O 0.12042 0.99128 0.16428 0.0
Zn59 Zn 0.05314 1.00498 0.15582 0.0
O60 O 0.08781 0.93864 0.20337 0.0
Zn61 Zn 1.01834 0.94888 0.19279 0.0
O62 O 0.99803 0.9019 0.149 0.0
O63 O 0.03072 0.95681 0.11323 0.0
O64 O 0.97502 0.99569 0.167 0.0
O65 O 1.00916 0.04879 0.12965 0.0
O66 O 0.03633 0.02226 0.21874 0.0
O67 O 1.00102 0.96672 0.25278 0.0
C68 C 1.00771 0.92128 0.1121 0.0
C69 C 1.01477 1.00726 0.25179 0.0
C70 C 0.28518 0.76478 0.5018 0.0
C71 C 0.37115 0.75765 0.36209 0.0
O72 O 0.32573 0.75103 0.50279 0.0
Zn73 Zn 0.34356 0.76832 0.44279 0.0
O74 O 0.27018 0.78632 0.46874 0.0
Zn75 Zn 0.28745 0.8031 0.40581 0.0
O76 O 0.24365 0.75912 0.37965 0.0
O77 O 0.29676 0.72499 0.41702 0.0
O78 O 0.33562 0.78067 0.36322 0.0
O79 O 0.39054 0.74801 0.39899 0.0
O80 O 0.3538 0.83779 0.45335 0.0
O81 O 0.30116 0.87039 0.41425 0.0
C82 C 0.26095 0.72275 0.39478 0.0
C83 C 0.33494 0.87381 0.4405 0.0
C84 C 0.52763 0.03515 0.7518 0.0
C85 C 0.53475 0.12115 0.61212 0.0
O86 O 0.54138 0.07569 0.7528 0.0
Zn87 Zn 0.52408 0.09354 0.69281 0.0
O88 O 0.50609 1.02015 0.71873 0.0
Zn89 Zn 0.48929 0.03745 0.65581 0.0
O90 O 0.53328 0.99365 0.62963 0.0
O91 O 0.5674 0.04675 0.66701 0.0
O92 O 0.51172 0.08563 0.61324 0.0
O93 O 0.54439 0.14053 0.64903 0.0
O94 O 0.4546 0.10377 0.70338 0.0
O95 O 0.422 0.05115 0.66426 0.0
C96 C 0.56964 1.01095 0.64476 0.0
C97 C 0.41859 0.08491 0.69052 0.0
C98 C 0.20753 0.16858 0.94052 0.0
C99 C 0.28153 0.31963 0.89478 0.0
O100 O 0.24131 0.172 0.91427 0.0
Zn101 Zn 0.25501 0.23928 0.90582 0.0
O102 O 0.18866 0.2046 0.95335 0.0
Zn103 Zn 0.1989 0.27407 0.94278 0.0
O104 O 0.15193 0.29439 0.89898 0.0
O105 O 0.20684 0.26169 0.86322 0.0
O106 O 0.24571 0.31739 0.917 0.0
O107 O 0.29882 0.28326 0.87965 0.0
O108 O 0.27227 0.25609 0.96875 0.0
O109 O 0.21672 0.29139 1.00277 0.0
C110 C 0.17131 0.2847 0.86209 0.0
C111 C 0.25727 0.27765 1.00179 0.0
C112 C 0.3519 0.12381 0.0849 0.0
C113 C 0.39762 0.97275 1.01091 0.0
O114 O 0.37814 0.1204 0.05112 0.0
Zn115 Zn 0.3866 0.05311 0.03742 0.0
O116 O 0.33907 0.0878 0.10377 0.0
Zn117 Zn 0.34965 1.01832 0.09355 0.0
O118 O 0.39346 0.99803 0.14052 0.0
O119 O 0.42921 0.03071 0.08558 0.0
O120 O 0.37542 0.975 0.04674 0.0
O121 O 0.41275 1.00912 0.99361 0.0
O122 O 0.32367 0.03631 1.02018 0.0
O123 O 0.28964 1.00101 0.07574 0.0
C124 C 0.43035 1.00771 0.12112 0.0
C125 C 0.29062 1.01476 0.03519 0.0
C126 C 0.28471 0.18033 0.37112 0.0
C127 C 0.27767 0.04059 0.2852 0.0
O128 O 0.29439 0.14344 0.39052 0.0
Zn129 Zn 0.2741 0.09963 0.34355 0.0
O130 O 0.26172 0.17918 0.33558 0.0
Zn131 Zn 0.23932 0.13658 0.28742 0.0
O132 O 0.17203 0.12813 0.30111 0.0
O133 O 0.20462 0.08906 0.35377 0.0
O134 O 0.25612 0.07364 0.27019 0.0
O135 O 0.29141 0.03962 0.32575 0.0
O136 O 0.31743 0.12539 0.29674 0.0
O137 O 0.28331 0.16271 0.24361 0.0
C138 C 0.16861 0.10189 0.33489 0.0
C139 C 0.31968 0.14759 0.26091 0.0
C140 C 0.25183 0.02761 0.53521 0.0
C141 C 0.11209 0.03473 0.62113 0.0
O142 O 0.25281 0.04137 0.57575 0.0
Zn143 Zn 0.1928 0.02408 0.59357 0.0
O144 O 0.21877 1.00609 0.5202 0.0
Zn145 Zn 0.15583 0.9893 0.53744 0.0
O146 O 0.12969 0.03331 0.49364 0.0
O147 O 0.16704 0.06742 0.54677 0.0
O148 O 0.11323 1.01172 0.5856 0.0
O149 O 0.14899 0.04437 0.64054 0.0
O150 O 0.20336 0.9546 0.60379 0.0
O151 O 0.16428 0.92201 0.55114 0.0
C152 C 0.14481 0.06966 0.51095 0.0
C153 C 0.19052 0.91859 0.58492 0.0
C154 C 0.37382 0.94051 0.8349 0.0
C155 C 0.22276 0.89481 0.76091 0.0
O156 O 0.3704 0.91427 0.80112 0.0
Zn157 Zn 0.30311 0.90582 0.78742 0.0
O158 O 0.3378 0.95334 0.85378 0.0
Zn159 Zn 0.26832 0.94277 0.84355 0.0
O160 O 0.24803 0.89897 0.89052 0.0
O161 O 0.2807 0.86322 0.83559 0.0
O162 O 0.225 0.91701 0.79674 0.0
O163 O 0.25912 0.87968 0.74361 0.0
O164 O 0.28631 0.96876 0.77019 0.0
O165 O 0.25101 1.00278 0.82574 0.0
C166 C 0.25771 0.86208 0.87112 0.0
C167 C 0.26476 1.0018 0.7852 0.0
C168 C 0.29063 0.02762 0.50726 0.0
C169 C 0.43032 0.03474 0.42128 0.0
O170 O 0.28963 0.04137 0.46671 0.0
Zn171 Zn 0.34963 0.02407 0.44887 0.0
O172 O 0.32369 1.00608 0.52225 0.0
Zn173 Zn 0.38662 0.98928 0.50497 0.0
O174 O 0.41279 0.03327 0.54877 0.0
O175 O 0.37541 0.06739 0.49567 0.0
O176 O 0.4292 1.01172 0.4568 0.0
O177 O 0.39342 0.04438 0.40189 0.0
O178 O 0.33907 0.95459 0.43863 0.0
O179 O 0.37817 0.922 0.49126 0.0
C180 C 0.39766 0.06964 0.53147 0.0
C181 C 0.35192 0.91858 0.45749 0.0
C182 C 0.25771 0.18031 0.6713 0.0
C183 C 0.26475 0.04061 0.75725 0.0
O184 O 0.24802 0.14342 0.65191 0.0
Zn185 Zn 0.26832 0.09962 0.69889 0.0
O186 O 0.28071 0.17918 0.70683 0.0
Zn187 Zn 0.30312 0.13658 0.755 0.0
O188 O 0.3704 0.12813 0.7413 0.0
O189 O 0.3378 0.08906 0.68865 0.0
O190 O 0.28631 0.07366 0.77226 0.0
O191 O 0.25101 0.03963 0.71671 0.0
O192 O 0.22501 0.1254 0.74569 0.0
O193 O 0.25913 0.16275 0.79881 0.0
C194 C 0.37382 0.10189 0.70752 0.0
C195 C 0.22276 0.14762 0.78152 0.0
C196 C 0.25181 1.01476 1.00724 0.0
C197 C 0.11212 1.00768 0.92128 0.0
O198 O 0.25281 1.00102 0.9667 0.0
Zn199 Zn 0.19281 1.01833 0.94886 0.0
O200 O 0.21876 0.0363 0.02225 0.0
Zn201 Zn 0.15583 0.05311 1.00498 0.0
O202 O 0.12966 1.00911 0.04877 0.0
O203 O 0.16703 0.975 0.99566 0.0
O204 O 0.11325 0.03069 0.9568 0.0
O205 O 0.14902 0.99803 0.90188 0.0
O206 O 0.20338 0.0878 0.93864 0.0
O207 O 0.16429 0.1204 0.99128 0.0
C208 C 0.14478 0.97275 0.03146 0.0
C209 C 0.19054 0.12381 0.9575 0.0
C210 C 0.28471 0.86208 0.17131 0.0
C211 C 0.27768 1.00178 0.25726 0.0
O212 O 0.2944 0.89897 0.15192 0.0
Zn213 Zn 0.2741 0.94277 0.19889 0.0
O214 O 0.26171 0.86322 0.20684 0.0
Zn215 Zn 0.2393 0.90581 0.25501 0.0
O216 O 0.17201 0.91428 0.24131 0.0
O217 O 0.20462 0.95335 0.18866 0.0
O218 O 0.25611 0.96874 0.27227 0.0
O219 O 0.29141 1.00277 0.21672 0.0
O220 O 0.31741 0.91699 0.2457 0.0
O221 O 0.28328 0.87964 0.29881 0.0
C222 C 0.1686 0.94051 0.20752 0.0
C223 C 0.31965 0.89477 0.28153 0.0
C224 C 0.0849 0.35191 0.12381 0.0
C225 C 1.01089 0.39761 0.97275 0.0
O226 O 0.05112 0.37815 0.12039 0.0
Zn227 Zn 0.03741 0.3866 0.05311 0.0
O228 O 0.10377 0.33907 0.08779 0.0
Zn229 Zn 0.09354 0.34964 1.01832 0.0
O230 O 0.14051 0.39345 0.99802 0.0
O231 O 0.08558 0.4292 0.0307 0.0
O232 O 0.04672 0.37541 0.975 0.0
O233 O 0.9936 0.41274 1.00912 0.0
O234 O 1.02017 0.32367 0.03631 0.0
O235 O 0.07572 0.28964 1.00101 0.0
C236 C 0.12111 0.43034 1.0077 0.0
C237 C 0.03518 0.29062 1.01475 0.0
C238 C 0.58492 0.19052 0.91858 0.0
C239 C 0.51092 0.1448 0.06964 0.0
O240 O 0.55114 0.16428 0.92199 0.0
Zn241 Zn 0.53744 0.15582 0.98928 0.0
O242 O 0.60379 0.20336 0.9546 0.0
Zn243 Zn 0.59356 0.19278 0.02407 0.0
O244 O 0.64054 0.14898 0.04437 0.0
O245 O 0.58561 0.11322 1.01169 0.0
O246 O 0.54675 0.16701 0.06739 0.0
O247 O 0.49363 0.12967 0.03328 0.0
O248 O 0.52019 0.21875 1.00608 0.0
O249 O 0.57574 0.25278 0.04138 0.0
C250 C 0.62114 0.11209 0.03469 0.0
C251 C 0.53519 0.2518 0.02763 0.0
C252 C 0.14763 0.26096 0.31963 0.0
C253 C 0.1019 0.33493 0.16858 0.0
O254 O 0.16275 0.24365 0.28327 0.0
Zn255 Zn 0.1366 0.28746 0.23928 0.0
O256 O 0.12539 0.29678 0.31739 0.0
Zn257 Zn 0.09963 0.34358 0.27406 0.0
O258 O 0.03963 0.32576 0.29137 0.0
O259 O 0.07367 0.27021 0.25607 0.0
O260 O 0.08905 0.3538 0.20459 0.0
O261 O 0.12815 0.30116 0.17199 0.0
O262 O 0.1792 0.33563 0.26171 0.0
O263 O 0.14343 0.39055 0.29436 0.0
C264 C 0.04061 0.28522 0.27761 0.0
C265 C 0.18033 0.37115 0.28473 0.0
C266 C 0.95751 0.85188 0.41858 0.0
C267 C 0.03151 0.8976 0.56963 0.0
O268 O 0.99129 0.87812 0.42199 0.0
Zn269 Zn 1.00499 0.88658 0.48928 0.0
O270 O 0.93864 0.83905 0.45459 0.0
Zn271 Zn 0.94887 0.84962 0.52407 0.0
O272 O 0.9019 0.89342 0.54437 0.0
O273 O 0.95682 0.92917 0.51169 0.0
O274 O 0.99569 0.87539 0.56739 0.0
O275 O 0.0488 0.91273 0.53326 0.0
O276 O 0.02224 0.82365 0.50608 0.0
O277 O 0.96669 0.78962 0.54138 0.0
C278 C 0.92129 0.93031 0.53469 0.0
C279 C 1.00724 0.79059 0.52763 0.0
C280 C 0.86212 0.17128 0.28469 0.0
C281 C 1.0018 0.25726 0.27762 0.0
O282 O 0.89901 0.1519 0.29437 0.0
Zn283 Zn 0.94281 0.19888 0.27405 0.0
O284 O 0.86324 0.20681 0.26168 0.0
Zn285 Zn 0.90583 0.25498 0.23927 0.0
O286 O 0.91428 0.24127 0.17198 0.0
O287 O 0.95338 0.18864 0.20458 0.0
O288 O 0.96875 0.27226 0.25607 0.0
O289 O 1.0028 0.21671 0.29136 0.0
O290 O 0.91702 0.24568 0.31738 0.0
O291 O 0.87965 0.29878 0.28326 0.0
C292 C 0.94053 0.2075 0.16856 0.0
C293 C 0.8948 0.28149 0.31963 0.0
C294 C 0.45751 0.6905 0.6238 0.0
C295 C 0.53153 0.6448 0.47275 0.0
O296 O 0.4913 0.66427 0.62039 0.0
Zn297 Zn 0.505 0.65582 0.5531 0.0
O298 O 0.43864 0.70333 0.58778 0.0
Zn299 Zn 0.44888 0.69277 0.51831 0.0
O300 O 0.40191 0.64896 0.49801 0.0
O301 O 0.45684 0.61321 0.53069 0.0
O302 O 0.49569 0.667 0.47499 0.0
O303 O 0.54882 0.62968 0.50911 0.0
O304 O 0.52224 0.71875 0.5363 0.0
O305 O 0.46668 0.75277 0.501 0.0
C306 C 0.42131 0.61207 0.50769 0.0
C307 C 0.50722 0.7518 0.51475 0.0
C308 C 0.18034 0.6713 0.25769 0.0
C309 C 0.04062 0.75725 0.26476 0.0
O310 O 0.14345 0.65191 0.24801 0.0
Zn311 Zn 0.09964 0.69889 0.26831 0.0
O312 O 0.1792 0.70684 0.28069 0.0
Zn313 Zn 0.13661 0.755 0.3031 0.0
O314 O 0.12815 0.7413 0.37039 0.0
O315 O 0.08908 0.68865 0.33779 0.0
O316 O 0.07368 0.77225 0.28631 0.0
O317 O 0.03964 0.71671 0.25101 0.0
O318 O 0.12542 0.7457 0.22499 0.0
O319 O 0.16275 0.79881 0.25911 0.0
C320 C 0.10192 0.70751 0.3738 0.0
C321 C 0.14762 0.78152 0.22275 0.0
C322 C 0.39479 0.26094 0.72275 0.0
C323 C 0.44052 0.33491 0.87381 0.0
O324 O 0.37967 0.24363 0.75911 0.0
Zn325 Zn 0.40582 0.28743 0.8031 0.0
O326 O 0.41703 0.29675 0.72499 0.0
Zn327 Zn 0.4428 0.34354 0.76832 0.0
O328 O 0.5028 0.32572 0.75102 0.0
O329 O 0.46876 0.27017 0.78631 0.0
O330 O 0.45336 0.35378 0.83779 0.0
O331 O 0.41427 0.30114 0.87039 0.0
O332 O 0.36322 0.3356 0.78067 0.0
O333 O 0.399 0.39052 0.74801 0.0
C334 C 0.50182 0.28518 0.76477 0.0
C335 C 0.3621 0.37112 0.75765 0.0
C336 C 0.03475 0.92127 0.61209 0.0
C337 C 0.02761 1.00719 0.7518 0.0
O338 O 1.01173 0.9568 0.6132 0.0
Zn339 Zn 0.9893 1.00496 0.6558 0.0
O340 O 0.04439 0.90185 0.64898 0.0
Zn341 Zn 0.02408 0.94883 0.69278 0.0
O342 O 0.9546 0.93861 0.70333 0.0
O343 O 0.92201 0.99125 0.66424 0.0
O344 O 0.04136 0.96665 0.75278 0.0
O345 O 1.00609 0.0222 0.71873 0.0
O346 O 0.03329 0.04877 0.62966 0.0
O347 O 0.06742 0.99563 0.66703 0.0
C348 C 0.91859 0.95748 0.69049 0.0
C349 C 0.06964 0.03145 0.6448 0.0
C350 C 0.78518 0.27764 0.50179 0.0
C351 C 0.87111 0.28469 0.36208 0.0
O352 O 0.77018 0.25609 0.46874 0.0
Zn353 Zn 0.78742 0.23928 0.40581 0.0
O354 O 0.82573 0.29138 0.50277 0.0
Zn355 Zn 0.84355 0.27407 0.44277 0.0
O356 O 0.79674 0.31739 0.417 0.0
O357 O 0.74362 0.28328 0.37966 0.0
O358 O 0.89052 0.29438 0.39896 0.0
O359 O 0.83558 0.26169 0.3632 0.0
O360 O 0.80113 0.172 0.41427 0.0
O361 O 0.85378 0.2046 0.45334 0.0
C362 C 0.76091 0.31964 0.39479 0.0
C363 C 0.83491 0.16858 0.44051 0.0
C364 C 0.62384 0.08494 0.19051 0.0
C365 C 0.47279 1.01097 0.14481 0.0
O366 O 0.58783 0.1038 0.20336 0.0
Zn367 Zn 0.51835 0.09358 0.19279 0.0
O368 O 0.62042 0.05116 0.16427 0.0
Zn369 Zn 0.55313 0.03745 0.15582 0.0
O370 O 0.53071 0.08561 0.11322 0.0
O371 O 0.49805 0.14055 0.14899 0.0
O372 O 0.50914 0.99364 0.12966 0.0
O373 O 0.47502 0.04678 0.16704 0.0
O374 O 0.50106 0.07576 0.25279 0.0
O375 O 0.53634 1.0202 0.21875 0.0
C376 C 0.50769 0.12114 0.1121 0.0
C377 C 0.51481 0.03522 0.25182 0.0
C378 C 0.78153 0.72276 0.89477 0.0
C379 C 0.70752 0.87381 0.9405 0.0
O380 O 0.7457 0.72501 0.91698 0.0
Zn381 Zn 0.69889 0.76832 0.94276 0.0
O382 O 0.79882 0.75912 0.87964 0.0
Zn383 Zn 0.75501 0.80311 0.9058 0.0
O384 O 0.77227 0.78631 0.96873 0.0
O385 O 0.71672 0.75101 1.00276 0.0
O386 O 0.74131 0.8704 0.91426 0.0
O387 O 0.68866 0.8378 0.95334 0.0
O388 O 0.65192 0.74803 0.89896 0.0
O389 O 0.70684 0.78071 0.86321 0.0
C390 C 0.75726 0.76475 1.00178 0.0
C391 C 0.6713 0.75771 0.86207 0.0
C392 C 0.91861 0.0849 0.85189 0.0
C393 C 0.06966 1.01095 0.8976 0.0
O394 O 0.95462 0.10376 0.83904 0.0
Zn395 Zn 0.0241 0.09354 0.84959 0.0
O396 O 0.92203 0.05113 0.87815 0.0
Zn397 Zn 0.98932 0.03742 0.88659 0.0
O398 O 1.01175 0.0856 0.92916 0.0
O399 O 0.0444 0.14053 0.89339 0.0
O400 O 0.03332 0.99363 0.91276 0.0
O401 O 0.06745 0.04675 0.87535 0.0
O402 O 0.04137 0.07569 0.78959 0.0
O403 O 1.0061 1.02015 0.82366 0.0
C404 C 0.03476 0.12113 0.93029 0.0
C405 C 0.02763 0.03515 0.7906 0.0
C406 C 0.70749 0.16858 0.60187 0.0
C407 C 0.78146 0.31963 0.64762 0.0
O408 O 0.68862 0.2046 0.58902 0.0
Zn409 Zn 0.69886 0.27407 0.5996 0.0
O410 O 0.74126 0.172 0.62812 0.0
Zn411 Zn 0.75497 0.23929 0.63658 0.0
O412 O 0.7068 0.26171 0.67918 0.0
O413 O 0.65188 0.29438 0.64341 0.0
O414 O 0.79877 0.28327 0.66274 0.0
O415 O 0.74565 0.3174 0.62538 0.0
O416 O 0.71669 0.29138 0.53961 0.0
O417 O 0.77223 0.25609 0.57365 0.0
C418 C 0.67127 0.28473 0.6803 0.0
C419 C 0.75723 0.27763 0.5406 0.0
C420 C 0.51479 1.00726 0.29062 0.0
C421 C 0.50768 0.92129 0.43032 0.0
O422 O 0.53633 0.02226 0.32367 0.0
Zn423 Zn 0.55311 1.005 0.38661 0.0
O424 O 0.50104 0.96672 0.28962 0.0
Zn425 Zn 0.51833 0.94889 0.34962 0.0
O426 O 0.47499 0.99569 0.37538 0.0
O427 O 0.50913 0.04881 0.41276 0.0
O428 O 0.49801 0.90191 0.39342 0.0
O429 O 0.53069 0.95683 0.42919 0.0
O430 O 0.6204 0.99129 0.37816 0.0
O431 O 0.5878 0.93865 0.33907 0.0
C432 C 0.47278 0.03152 0.3976 0.0
C433 C 0.62382 0.95751 0.35192 0.0
C434 C 0.87115 0.75767 0.1803 0.0
C435 C 0.78521 0.76476 0.04059 0.0
O436 O 0.83563 0.78068 0.17916 0.0
Zn437 Zn 0.78746 0.8031 0.13657 0.0
O438 O 0.89056 0.74802 0.14341 0.0
Zn439 Zn 0.84358 0.76832 0.0996 0.0
O440 O 0.85381 0.83779 0.08904 0.0
O441 O 0.80116 0.87039 0.12812 0.0
O442 O 0.82576 0.75101 0.0396 0.0
O443 O 0.7702 0.7863 0.07364 0.0
O444 O 0.74365 0.75911 0.16272 0.0
O445 O 0.79678 0.72499 0.12537 0.0
C446 C 0.83494 0.87381 0.10188 0.0
C447 C 0.76097 0.72275 0.14761 0.0
C448 C 0.61212 0.03472 0.92128 0.0
C449 C 0.75184 0.02761 1.0072 0.0
O450 O 0.61325 1.01171 0.95681 0.0
Zn451 Zn 0.65584 0.9893 1.00497 0.0
O452 O 0.64901 0.04436 0.90185 0.0
Zn453 Zn 0.69282 0.02407 0.94883 0.0
O454 O 0.70338 0.9546 0.93862 0.0
O455 O 0.66429 0.922 0.99126 0.0
O456 O 0.75282 0.04135 0.96666 0.0
O457 O 0.71877 1.00609 0.02221 0.0
O458 O 0.62968 0.0333 0.04877 0.0
O459 O 0.66706 0.06741 0.99563 0.0
C460 C 0.69054 0.91858 0.95749 0.0
C461 C 0.64483 0.06964 0.03144 0.0
C462 C 0.76476 1.0018 0.75722 0.0
C463 C 0.75768 0.86208 0.67128 0.0
O464 O 0.78632 0.96875 0.77222 0.0
Zn465 Zn 0.80311 0.90581 0.75497 0.0
O466 O 0.75101 1.00277 0.71667 0.0
Zn467 Zn 0.76832 0.94278 0.69886 0.0
O468 O 0.725 0.91701 0.74567 0.0
O469 O 0.75913 0.87967 0.79878 0.0
O470 O 0.748 0.89898 0.65189 0.0
O471 O 0.78069 0.86321 0.70681 0.0
O472 O 0.8704 0.91426 0.74126 0.0
O473 O 0.8378 0.95334 0.68861 0.0
C474 C 0.72276 0.8948 0.7815 0.0
C475 C 0.87381 0.9405 0.70748 0.0
C476 C 0.8519 0.12381 0.45749 0.0
C477 C 0.8976 0.97275 0.53144 0.0
O478 O 0.83906 0.0878 0.43862 0.0
Zn479 Zn 0.84962 1.01832 0.44883 0.0
O480 O 0.87814 0.12039 0.49127 0.0
Zn481 Zn 0.88659 0.0531 0.50497 0.0
O482 O 0.92919 0.03068 0.45681 0.0
O483 O 0.89343 0.99804 0.40185 0.0
O484 O 0.91274 1.00909 0.54877 0.0
O485 O 0.87537 0.97498 0.49563 0.0
O486 O 0.78962 1.00103 0.46664 0.0
O487 O 0.82365 0.0363 0.5222 0.0
C488 C 0.93032 1.00768 0.42128 0.0
C489 C 0.79059 1.01477 0.50718 0.0
C490 C 0.81967 0.14759 0.2815 0.0
C491 C 0.66862 0.10192 0.2075 0.0
O492 O 0.81744 0.12537 0.24568 0.0
Zn493 Zn 0.77411 0.09962 0.19887 0.0
O494 O 0.78332 0.16276 0.2988 0.0
Zn495 Zn 0.73932 0.1366 0.25499 0.0
O496 O 0.75611 0.07367 0.27225 0.0
O497 O 0.79139 0.03962 0.2167 0.0
O498 O 0.67203 0.12816 0.24128 0.0
O499 O 0.70463 0.08907 0.18864 0.0
O500 O 0.79442 0.14343 0.15191 0.0
O501 O 0.76174 0.17919 0.20683 0.0
C502 C 0.77765 0.04061 0.25724 0.0
C503 C 0.78475 0.18032 0.17129 0.0
C504 C 0.75179 1.01476 0.53513 0.0
C505 C 0.61209 1.00771 0.62107 0.0
O506 O 0.71874 0.03631 0.52012 0.0
Zn507 Zn 0.65581 0.05312 0.53737 0.0
O508 O 0.75277 1.00102 0.57568 0.0
Zn509 Zn 0.69277 1.01832 0.5935 0.0
O510 O 0.667 0.97501 0.54669 0.0
O511 O 0.62965 1.00912 0.49357 0.0
O512 O 0.64897 0.99802 0.64048 0.0
O513 O 0.61321 0.03071 0.58554 0.0
O514 O 0.66427 0.12041 0.55109 0.0
O515 O 0.70334 0.0878 0.60374 0.0
C516 C 0.64479 0.97276 0.51087 0.0
C517 C 0.69051 0.12382 0.58487 0.0
C518 C 0.78473 0.8621 0.37115 0.0
C519 C 0.77764 1.00181 0.2852 0.0
O520 O 0.76172 0.86323 0.33562 0.0
Zn521 Zn 0.7393 0.90582 0.28745 0.0
O522 O 0.79438 0.89899 0.39054 0.0
Zn523 Zn 0.77408 0.9428 0.34357 0.0
O524 O 0.70461 0.95337 0.3538 0.0
O525 O 0.67201 0.91428 0.30116 0.0
O526 O 0.79139 1.00279 0.32574 0.0
O527 O 0.75609 0.96875 0.27019 0.0
O528 O 0.78328 0.87967 0.24365 0.0
O529 O 0.81741 0.91702 0.29677 0.0
C530 C 0.66859 0.94052 0.33493 0.0
C531 C 0.81965 0.89478 0.26096 0.0
C532 C 0.93033 0.03473 0.1211 0.0
C533 C 0.79064 0.02761 0.03515 0.0
O534 O 0.92922 1.01171 0.08558 0.0
Zn535 Zn 0.88663 0.98928 0.03742 0.0
O536 O 0.89344 0.04438 0.14051 0.0
Zn537 Zn 0.84964 0.02407 0.09353 0.0
O538 O 0.83908 0.95459 0.10376 0.0
O539 O 0.87818 0.922 0.05112 0.0
O540 O 0.78964 0.04136 0.0757 0.0
O541 O 0.8237 1.00608 1.02015 0.0
O542 O 0.91278 0.03328 0.99361 0.0
O543 O 0.87542 0.0674 0.04674 0.0
C544 C 0.85193 0.91858 0.0849 0.0
C545 C 0.89765 0.06964 1.01093 0.0
C546 C 0.76476 0.0406 0.78516 0.0
C547 C 0.75773 0.1803 0.87113 0.0
O548 O 0.78632 0.07365 0.77016 0.0
Zn549 Zn 0.80313 0.13657 0.78742 0.0
O550 O 0.75103 0.03962 0.82571 0.0
Zn551 Zn 0.76834 0.09961 0.84353 0.0
O552 O 0.72502 0.1254 0.79673 0.0
O553 O 0.75915 0.16274 0.74362 0.0
O554 O 0.74804 0.14341 0.89051 0.0
O555 O 0.78073 0.17916 0.83559 0.0
O556 O 0.87042 0.12811 0.80112 0.0
O557 O 0.83782 0.08904 0.85377 0.0
C558 C 0.72278 0.14761 0.76091 0.0
C559 C 0.87384 0.10188 0.8349 0.0
C560 C 0.03151 0.64478 0.06963 0.0
C561 C 0.9575 0.69051 0.91858 0.0
O562 O 0.99569 0.66699 0.06739 0.0
Zn563 Zn 0.94888 0.69277 0.02407 0.0
O564 O 0.04881 0.62965 0.03326 0.0
Zn565 Zn 1.005 0.65581 0.98928 0.0
O566 O 0.02225 0.71875 1.00609 0.0
O567 O 0.96669 0.75276 0.04139 0.0
O568 O 0.99129 0.66427 0.922 0.0
O569 O 0.93864 0.70334 0.9546 0.0
O570 O 0.9019 0.64897 0.04437 0.0
O571 O 0.95683 0.61322 1.01168 0.0
C572 C 1.00724 0.75179 0.02764 0.0
C573 C 0.92129 0.61208 0.03469 0.0
C574 C 0.45748 0.85188 0.12382 0.0
C575 C 0.53145 0.89757 0.97277 0.0
O576 O 0.43861 0.83904 0.08781 0.0
Zn577 Zn 0.44884 0.8496 1.01834 0.0
O578 O 0.49126 0.87813 0.1204 0.0
Zn579 Zn 0.50497 0.88657 0.05311 0.0
O580 O 0.45681 0.92917 0.03068 0.0
O581 O 0.40186 0.89341 0.99803 0.0
O582 O 0.54878 0.91272 1.00911 0.0
O583 O 0.49564 0.87535 0.97499 0.0
O584 O 0.46665 0.7896 1.00105 0.0
O585 O 0.52221 0.82364 0.03632 0.0
C586 C 0.42129 0.93029 1.00767 0.0
C587 C 0.5072 0.79057 1.0148 0.0
C588 C 0.8621 0.67127 0.75766 0.0
C589 C 1.0018 0.75725 0.76479 0.0
O590 O 0.86322 0.70679 0.78068 0.0
Zn591 Zn 0.9058 0.75496 0.80311 0.0
O592 O 0.89901 0.65188 0.74802 0.0
Zn593 Zn 0.9428 0.69887 0.76833 0.0
O594 O 0.95336 0.68863 0.8378 0.0
O595 O 0.91425 0.74126 0.8704 0.0
O596 O 1.00279 0.71671 0.75103 0.0
O597 O 0.96873 0.77225 0.78633 0.0
O598 O 0.87963 0.79876 0.75913 0.0
O599 O 0.91701 0.74566 0.72501 0.0
C600 C 0.94051 0.70749 0.87382 0.0
C601 C 0.89476 0.78146 0.72276 0.0
C602 C 0.08494 0.19052 0.62382 0.0
C603 C 1.01098 0.14483 0.47277 0.0
O604 O 0.10381 0.20337 0.58781 0.0
Zn605 Zn 0.09359 0.19281 0.51833 0.0
O606 O 0.05116 0.16428 0.6204 0.0
Zn607 Zn 0.03745 0.15583 0.55311 0.0
O608 O 0.08562 0.11324 0.53068 0.0
O609 O 0.14057 0.149 0.49804 0.0
O610 O 0.99365 0.12968 0.50911 0.0
O611 O 0.04679 0.16706 0.47499 0.0
O612 O 0.07576 0.25282 0.50105 0.0
O613 O 1.02021 0.21876 0.53632 0.0
C614 C 0.12115 0.11212 0.50768 0.0
C615 C 0.03522 0.25183 0.5148 0.0
C616 C 0.1803 0.87114 0.75767 0.0
C617 C 0.04059 0.78521 0.76479 0.0
O618 O 0.17918 0.83561 0.78068 0.0
Zn619 Zn 0.13659 0.78745 0.80311 0.0
O620 O 0.14341 0.89056 0.74803 0.0
Zn621 Zn 0.0996 0.84358 0.76834 0.0
O622 O 0.08904 0.8538 0.83781 0.0
O623 O 0.12814 0.80115 0.8704 0.0
O624 O 0.0396 0.82575 0.75105 0.0
O625 O 0.07366 0.7702 0.78632 0.0
O626 O 0.16274 0.74364 0.75911 0.0
O627 O 0.12536 0.79678 0.72499 0.0
C628 C 0.10189 0.83493 0.87382 0.0
C629 C 0.14759 0.76097 0.72277 0.0
C630 C 0.51091 0.39762 0.56963 0.0
C631 C 0.58493 0.35188 0.41858 0.0
O632 O 0.54674 0.37541 0.56739 0.0
Zn633 Zn 0.59355 0.34963 0.52408 0.0
O634 O 0.49362 0.41275 0.53326 0.0
Zn635 Zn 0.53744 0.38659 0.48928 0.0
O636 O 0.52018 0.32366 0.50609 0.0
O637 O 0.57573 0.28964 0.5414 0.0
O638 O 0.55115 0.37812 0.42199 0.0
O639 O 0.6038 0.33905 0.4546 0.0
O640 O 0.64052 0.39343 0.54439 0.0
O641 O 0.5856 0.42919 0.51169 0.0
C642 C 0.53518 0.29061 0.52765 0.0
C643 C 0.62113 0.43032 0.5347 0.0
C644 C 0.94052 0.33495 0.66859 0.0
C645 C 0.89481 0.26096 0.81965 0.0
O646 O 0.95337 0.35381 0.70461 0.0
Zn647 Zn 0.9428 0.34358 0.77408 0.0
O648 O 0.91428 0.30117 0.67201 0.0
Zn649 Zn 0.90584 0.28746 0.7393 0.0
O650 O 0.86324 0.33562 0.76172 0.0
O651 O 0.899 0.39055 0.79438 0.0
O652 O 0.87969 0.24365 0.78329 0.0
O653 O 0.91704 0.29677 0.81741 0.0
O654 O 1.00281 0.32576 0.79138 0.0
O655 O 0.96877 0.27021 0.75609 0.0
C656 C 0.8621 0.37115 0.78474 0.0
C657 C 1.00183 0.28522 0.77762 0.0
C658 C 0.60188 0.70746 0.16858 0.0
C659 C 0.64763 0.78143 0.31963 0.0
O660 O 0.58904 0.68859 0.2046 0.0
Zn661 Zn 0.59962 0.69882 0.27407 0.0
O662 O 0.62813 0.74123 0.172 0.0
Zn663 Zn 0.63659 0.75494 0.23928 0.0
O664 O 0.67918 0.70677 0.2617 0.0
O665 O 0.64342 0.65185 0.29436 0.0
O666 O 0.66274 0.79875 0.28327 0.0
O667 O 0.62539 0.74562 0.3174 0.0
O668 O 0.53962 0.71665 0.29138 0.0
O669 O 0.57366 0.7722 0.25608 0.0
C670 C 0.68032 0.67125 0.28472 0.0
C671 C 0.5406 0.75719 0.27762 0.0
C672 C 0.62383 0.58491 0.85188 0.0
C673 C 0.47279 0.51088 0.8976 0.0
O674 O 0.62043 0.55113 0.87812 0.0
Zn675 Zn 0.55314 0.53742 0.88658 0.0
O676 O 0.58781 0.60377 0.83904 0.0
Zn677 Zn 0.51834 0.59352 0.84962 0.0
O678 O 0.49802 0.64049 0.89342 0.0
O679 O 0.53071 0.58558 0.92918 0.0
O680 O 0.47502 0.54671 0.87539 0.0
O681 O 0.50916 0.4936 0.91273 0.0
O682 O 0.53634 0.52016 0.82365 0.0
O683 O 0.50103 0.5757 0.78962 0.0
C684 C 0.5077 0.6211 0.93031 0.0
C685 C 0.51478 0.53516 0.7906 0.0
C686 C 0.67131 0.25768 0.18033 0.0
C687 C 0.75727 0.26477 0.04062 0.0
O688 O 0.65193 0.248 0.14344 0.0
Zn689 Zn 0.6989 0.26832 0.09964 0.0
O690 O 0.70685 0.28068 0.1792 0.0
Zn691 Zn 0.75501 0.30311 0.13661 0.0
O692 O 0.7413 0.3704 0.12816 0.0
O693 O 0.68866 0.33779 0.08907 0.0
O694 O 0.77227 0.28632 0.07367 0.0
O695 O 0.71672 0.25103 0.03964 0.0
O696 O 0.74571 0.22499 0.12539 0.0
O697 O 0.79883 0.25912 0.16277 0.0
C698 C 0.70752 0.37381 0.10192 0.0
C699 C 0.78154 0.22277 0.1476 0.0
C700 C 0.03471 0.42131 0.43032 0.0
C701 C 0.02767 0.50724 0.2906 0.0
O702 O 0.0444 0.40192 0.39343 0.0
Zn703 Zn 0.0241 0.44888 0.34962 0.0
O704 O 1.01171 0.45685 0.42917 0.0
Zn705 Zn 0.9893 0.50501 0.38657 0.0
O706 O 0.92201 0.4913 0.37811 0.0
O707 O 0.95462 0.43864 0.33904 0.0
O708 O 1.00611 0.52225 0.32364 0.0
O709 O 0.04142 0.46669 0.28963 0.0
O710 O 0.06741 0.4957 0.37539 0.0
O711 O 0.03328 0.54882 0.41273 0.0
C712 C 0.9186 0.45751 0.35188 0.0
C713 C 0.06965 0.53153 0.3976 0.0
C714 C 0.87108 0.78471 0.68032 0.0
C715 C 0.78515 0.77763 0.54061 0.0
O716 O 0.89049 0.79439 0.64344 0.0
Zn717 Zn 0.84352 0.77408 0.59963 0.0
O718 O 0.83554 0.76171 0.67919 0.0
Zn719 Zn 0.78738 0.73929 0.6366 0.0
O720 O 0.8011 0.672 0.62815 0.0
O721 O 0.85375 0.7046 0.58907 0.0
O722 O 0.77014 0.75608 0.57366 0.0
O723 O 0.8257 0.79137 0.53963 0.0
O724 O 0.79671 0.81741 0.62538 0.0
O725 O 0.74357 0.78329 0.66275 0.0
C726 C 0.83489 0.66859 0.60191 0.0
C727 C 0.76088 0.81963 0.64759 0.0
C728 C 0.51478 0.50721 0.7518 0.0
C729 C 0.50767 0.42129 0.61209 0.0
O730 O 0.50103 0.46666 0.75278 0.0
Zn731 Zn 0.51833 0.44884 0.69278 0.0
O732 O 0.53632 0.52222 0.71874 0.0
Zn733 Zn 0.55311 0.50497 0.65581 0.0
O734 O 0.50912 0.54878 0.62967 0.0
O735 O 0.475 0.49564 0.66702 0.0
O736 O 0.53069 0.45681 0.6132 0.0
O737 O 0.49803 0.40187 0.64897 0.0
O738 O 0.58781 0.43861 0.70334 0.0
O739 O 0.62041 0.49126 0.66426 0.0
C740 C 0.47276 0.53146 0.64479 0.0
C741 C 0.62382 0.45748 0.6905 0.0
C742 C 0.78522 0.26478 1.00182 0.0
C743 C 0.87114 0.25767 0.8621 0.0
O744 O 0.82577 0.25104 1.0028 0.0
Zn745 Zn 0.84358 0.26832 0.9428 0.0
O746 O 0.7702 0.2863 0.96875 0.0
Zn747 Zn 0.78744 0.30309 0.90582 0.0
O748 O 0.74364 0.25909 0.87967 0.0
O749 O 0.79679 0.22498 0.91705 0.0
O750 O 0.8356 0.28068 0.86323 0.0
O751 O 0.89057 0.24804 0.89899 0.0
O752 O 0.8538 0.3378 0.95335 0.0
O753 O 0.80114 0.37038 0.91426 0.0
C754 C 0.76097 0.22275 0.89482 0.0
C755 C 0.83492 0.37381 0.9405 0.0
C756 C 0.03472 0.6211 0.11208 0.0
C757 C 0.02768 0.53518 0.25179 0.0
O758 O 0.04441 0.6405 0.14896 0.0
Zn759 Zn 0.0241 0.59353 0.19277 0.0
O760 O 1.01172 0.58556 0.1132 0.0
Zn761 Zn 0.98931 0.5374 0.15581 0.0
O762 O 0.92202 0.55111 0.16427 0.0
O763 O 0.95462 0.60376 0.20334 0.0
O764 O 1.00612 0.52017 0.21874 0.0
O765 O 0.04141 0.57573 0.25277 0.0
O766 O 0.06742 0.54672 0.16699 0.0
O767 O 0.0333 0.49359 0.12967 0.0
C768 C 0.9186 0.58489 0.1905 0.0
C769 C 0.06967 0.51089 0.1448 0.0
C770 C 0.7572 0.77762 0.50181 0.0
C771 C 0.67129 0.78472 0.36209 0.0
O772 O 0.71665 0.79136 0.50279 0.0
Zn773 Zn 0.69884 0.77407 0.44279 0.0
O774 O 0.77222 0.75609 0.46875 0.0
Zn775 Zn 0.75499 0.7393 0.40582 0.0
O776 O 0.79879 0.7833 0.37968 0.0
O777 O 0.74564 0.81742 0.41704 0.0
O778 O 0.70683 0.76172 0.36322 0.0
O779 O 0.65186 0.79436 0.39897 0.0
O780 O 0.68863 0.7046 0.45335 0.0
O781 O 0.74128 0.67201 0.41427 0.0
C782 C 0.78146 0.81964 0.39482 0.0
C783 C 0.7075 0.66859 0.44051 0.0
C784 C 0.93033 0.5077 0.62113 0.0
C785 C 0.79062 0.51476 0.53519 0.0
O786 O 0.89344 0.49801 0.64052 0.0
Zn787 Zn 0.84964 0.51833 0.59355 0.0
O788 O 0.9292 0.53071 0.5856 0.0
Zn789 Zn 0.88659 0.55312 0.53744 0.0
O790 O 0.87813 0.62041 0.55115 0.0
O791 O 0.83905 0.5878 0.60379 0.0
O792 O 0.82366 0.53632 0.52019 0.0
O793 O 0.78964 0.50101 0.57573 0.0
O794 O 0.87541 0.47501 0.54673 0.0
O795 O 0.91275 0.50915 0.49362 0.0
C796 C 0.85188 0.62382 0.58492 0.0
C797 C 0.89762 0.47278 0.5109 0.0
C798 C 0.6686 0.6019 0.83489 0.0
C799 C 0.81965 0.64759 0.76088 0.0
O800 O 0.67201 0.62814 0.80111 0.0
Zn801 Zn 0.7393 0.6366 0.78739 0.0
O802 O 0.70462 0.58906 0.85375 0.0
Zn803 Zn 0.7741 0.59963 0.84352 0.0
O804 O 0.79441 0.64342 0.89049 0.0
O805 O 0.76173 0.67919 0.83555 0.0
O806 O 0.81743 0.62538 0.79671 0.0
O807 O 0.7833 0.66275 0.74358 0.0
O808 O 0.7561 0.57366 0.77014 0.0
O809 O 0.79139 0.53962 0.82569 0.0
C810 C 0.78473 0.68031 0.87109 0.0
C811 C 0.77764 0.54061 0.78515 0.0
C812 C 0.6121 0.5347 0.12113 0.0
C813 C 0.7518 0.52762 0.03516 0.0
O814 O 0.649 0.54439 0.14051 0.0
Zn815 Zn 0.69279 0.52407 0.09353 0.0
O816 O 0.61323 0.51169 0.0856 0.0
Zn817 Zn 0.65582 0.48927 0.03743 0.0
O818 O 0.66428 0.42198 0.05115 0.0
O819 O 0.70336 0.45459 0.10378 0.0
O820 O 0.71874 0.50607 1.02016 0.0
O821 O 0.75278 0.54137 0.0757 0.0
O822 O 0.667 0.56738 0.04672 0.0
O823 O 0.62964 0.53325 0.99362 0.0
C824 C 0.69052 0.41857 0.08492 0.0
C825 C 0.64478 0.56962 1.0109 0.0
C826 C 0.87384 0.44051 0.33489 0.0
C827 C 0.72278 0.39477 0.26089 0.0
O828 O 0.87043 0.41427 0.30111 0.0
Zn829 Zn 0.80314 0.4058 0.2874 0.0
O830 O 0.83782 0.45335 0.35375 0.0
Zn831 Zn 0.76834 0.44277 0.34352 0.0
O832 O 0.74803 0.39898 0.3905 0.0
O833 O 0.78073 0.36321 0.33557 0.0
O834 O 0.72503 0.41699 0.29671 0.0
O835 O 0.75915 0.37964 0.2436 0.0
O836 O 0.78634 0.46873 0.27014 0.0
O837 O 0.75103 0.50276 0.32568 0.0
C838 C 0.75772 0.36209 0.3711 0.0
C839 C 0.76478 0.50178 0.28514 0.0
C840 C 0.7906 0.52762 1.0072 0.0
C841 C 0.93032 0.53473 0.92126 0.0
O842 O 0.78961 0.54136 0.96666 0.0
Zn843 Zn 0.84961 0.52407 0.94883 0.0
O844 O 0.82366 0.50609 0.02221 0.0
Zn845 Zn 0.8866 0.4893 1.00496 0.0
O846 O 0.91276 0.53329 0.04876 0.0
O847 O 0.87537 0.56741 0.99563 0.0
O848 O 0.92919 0.51172 0.95679 0.0
O849 O 0.89342 0.54436 0.90186 0.0
O850 O 0.83905 0.45459 0.93861 0.0
O851 O 0.87815 0.42201 0.99125 0.0
C852 C 0.8976 0.56963 0.03144 0.0
C853 C 0.8519 0.41858 0.95748 0.0
C854 C 0.72277 0.64757 0.28144 0.0
C855 C 0.87383 0.60188 0.20749 0.0
O856 O 0.75911 0.66272 0.29877 0.0
Zn857 Zn 0.80311 0.63657 0.25496 0.0
O858 O 0.72499 0.62535 0.24562 0.0
Zn859 Zn 0.76834 0.5996 0.19882 0.0
O860 O 0.75105 0.53959 0.21664 0.0
O861 O 0.78632 0.57364 0.2722 0.0
O862 O 0.83782 0.58904 0.18861 0.0
O863 O 0.87041 0.62812 0.24126 0.0
O864 O 0.78069 0.67917 0.20681 0.0
O865 O 0.74805 0.64341 0.15185 0.0
C866 C 0.76479 0.54058 0.25719 0.0
C867 C 0.75769 0.68029 0.17127 0.0
C868 C 0.69053 0.62381 0.45751 0.0
C869 C 0.64482 0.47277 0.5315 0.0
O870 O 0.66428 0.6204 0.49128 0.0
Zn871 Zn 0.65583 0.55311 0.505 0.0
O872 O 0.70337 0.5878 0.43864 0.0
Zn873 Zn 0.6928 0.51833 0.44887 0.0
O874 O 0.64899 0.49803 0.4019 0.0
O875 O 0.61324 0.5307 0.45683 0.0
O876 O 0.66703 0.475 0.49568 0.0
O877 O 0.62966 0.50912 0.5488 0.0
O878 O 0.71876 0.53631 0.52225 0.0
O879 O 0.7528 0.50102 0.46669 0.0
C880 C 0.6121 0.5077 0.42129 0.0
C881 C 0.75181 0.51476 0.50724 0.0
C882 C 0.77763 0.50181 0.7572 0.0
C883 C 0.78475 0.36209 0.67129 0.0
O884 O 0.79137 0.50279 0.71665 0.0
Zn885 Zn 0.77409 0.44278 0.69883 0.0
O886 O 0.7561 0.46875 0.77221 0.0
Zn887 Zn 0.73931 0.40581 0.75497 0.0
O888 O 0.78331 0.37967 0.79879 0.0
O889 O 0.81743 0.41704 0.74564 0.0
O890 O 0.76174 0.36321 0.70682 0.0
O891 O 0.79438 0.39897 0.65186 0.0
O892 O 0.70461 0.45334 0.68862 0.0
O893 O 0.67202 0.41426 0.74127 0.0
C894 C 0.81965 0.39482 0.78146 0.0
C895 C 0.6686 0.4405 0.70749 0.0
C896 C 0.58491 0.8519 0.6238 0.0
C897 C 0.51089 0.8976 0.47276 0.0
O898 O 0.55113 0.87814 0.62038 0.0
Zn899 Zn 0.53741 0.88659 0.5531 0.0
O900 O 0.60378 0.83906 0.58778 0.0
Zn901 Zn 0.59354 0.84962 0.5183 0.0
O902 O 0.64051 0.89342 0.49798 0.0
O903 O 0.58557 0.92919 0.53067 0.0
O904 O 0.54672 0.87539 0.47498 0.0
O905 O 0.4936 0.91276 0.50912 0.0
O906 O 0.52016 0.82366 0.5363 0.0
O907 O 0.57572 0.78962 0.50101 0.0
C908 C 0.6211 0.9303 0.50767 0.0
C909 C 0.53517 0.79061 0.51474 0.0
C910 C 1.01098 0.64477 0.56964 0.0
C911 C 0.08493 0.69052 0.41857 0.0
O912 O 0.99367 0.62964 0.53328 0.0
Zn913 Zn 0.03746 0.65581 0.48928 0.0
O914 O 0.04678 0.66701 0.56739 0.0
Zn915 Zn 0.09357 0.69279 0.52406 0.0
O916 O 0.07573 0.75279 0.54137 0.0
O917 O 1.02019 0.71874 0.50608 0.0
O918 O 0.1038 0.70337 0.45459 0.0
O919 O 0.05116 0.66427 0.42199 0.0
O920 O 0.08564 0.61322 0.5117 0.0
O921 O 0.14055 0.649 0.54436 0.0
C922 C 0.03519 0.75179 0.52763 0.0
C923 C 0.12116 0.6121 0.53472 0.0
C924 C 0.64761 0.76096 0.81962 0.0
C925 C 0.60191 0.83492 0.66857 0.0
O926 O 0.66277 0.74364 0.78328 0.0
Zn927 Zn 0.63661 0.78744 0.73928 0.0
O928 O 0.62537 0.79676 0.8174 0.0
Zn929 Zn 0.59961 0.84356 0.77406 0.0
O930 O 0.53961 0.82572 0.79134 0.0
O931 O 0.57367 0.77018 0.75607 0.0
O932 O 0.58906 0.85379 0.70458 0.0
O933 O 0.62816 0.80115 0.67199 0.0
O934 O 0.67919 0.8356 0.76171 0.0
O935 O 0.64341 0.89054 0.79437 0.0
C936 C 0.5406 0.78518 0.77759 0.0
C937 C 0.6803 0.87113 0.78473 0.0
C938 C 0.50724 0.29061 0.02763 0.0
C939 C 0.42128 0.43031 0.03472 0.0
O940 O 0.4667 0.28961 0.04137 0.0
Zn941 Zn 0.44886 0.34961 0.02406 0.0
O942 O 0.52225 0.32366 1.00609 0.0
Zn943 Zn 0.50498 0.38659 0.98929 0.0
O944 O 0.54878 0.41275 0.03328 0.0
O945 O 0.49566 0.37539 0.0674 0.0
O946 O 0.45681 0.42917 1.01171 0.0
O947 O 0.40188 0.39341 0.04436 0.0
O948 O 0.43864 0.33904 0.95459 0.0
O949 O 0.49128 0.37814 0.922 0.0
C950 C 0.53146 0.39763 0.06964 0.0
C951 C 0.4575 0.35189 0.91858 0.0
C952 C 0.50181 0.75722 0.7776 0.0
C953 C 0.36211 0.67125 0.78473 0.0
O954 O 0.50281 0.71668 0.79135 0.0
Zn955 Zn 0.44281 0.69884 0.77406 0.0
O956 O 0.46874 0.77222 0.75606 0.0
Zn957 Zn 0.40581 0.75494 0.73928 0.0
O958 O 0.37966 0.79875 0.78327 0.0
O959 O 0.41703 0.74564 0.81739 0.0
O960 O 0.36323 0.70677 0.76171 0.0
O961 O 0.39902 0.65186 0.79437 0.0
O962 O 0.45337 0.68861 0.70458 0.0
O963 O 0.41426 0.74124 0.67199 0.0
C964 C 0.39479 0.78144 0.81963 0.0
C965 C 0.44052 0.70748 0.66857 0.0
C966 C 0.03149 0.14482 0.97274 0.0
C967 C 0.95752 0.19051 0.12379 0.0
O968 O 0.04882 0.12967 1.00908 0.0
Zn969 Zn 1.00501 0.15582 0.05308 0.0
O970 O 0.99567 0.16704 0.97496 0.0
Zn971 Zn 0.94887 0.19279 1.0183 0.0
O972 O 0.96668 0.2528 1.00101 0.0
O973 O 0.02225 0.21875 0.03629 0.0
O974 O 0.93865 0.20335 0.08778 0.0
O975 O 0.9913 0.16427 0.12037 0.0
O976 O 0.95685 0.11322 0.03066 0.0
O977 O 0.90189 0.14898 0.99801 0.0
C978 C 1.00723 0.25181 1.01475 0.0
C979 C 0.92132 0.1121 1.00765 0.0
C980 C 0.68033 0.1713 0.7577 0.0
C981 C 0.54062 0.25723 0.76476 0.0
O982 O 0.64344 0.15189 0.74802 0.0
Zn983 Zn 0.59964 0.19886 0.76832 0.0
O984 O 0.67921 0.20683 0.78069 0.0
Zn985 Zn 0.63661 0.25499 0.8031 0.0
O986 O 0.62815 0.24129 0.87039 0.0
O987 O 0.58907 0.18864 0.83779 0.0
O988 O 0.57367 0.27224 0.78631 0.0
O989 O 0.53963 0.21668 0.75102 0.0
O990 O 0.62539 0.24567 0.72498 0.0
O991 O 0.66276 0.2988 0.75911 0.0
C992 C 0.60191 0.20751 0.87381 0.0
C993 C 0.6476 0.2815 0.72276 0.0
C994 C 1.00182 0.7852 0.26476 0.0
C995 C 0.8621 0.87111 0.25767 0.0
O996 O 1.0028 0.82575 0.25102 0.0
Zn997 Zn 0.9428 0.84356 0.26832 0.0
O998 O 0.96876 0.77018 0.2863 0.0
Zn999 Zn 0.90583 0.78742 0.30309 0.0
O1000 O 0.87968 0.74361 0.25909 0.0
O1001 O 0.91705 0.79676 0.22497 0.0
O1002 O 0.86323 0.83558 0.28068 0.0
O1003 O 0.89899 0.89054 0.24803 0.0
O1004 O 0.95336 0.85377 0.33779 0.0
O1005 O 0.91428 0.80112 0.37039 0.0
C1006 C 0.89483 0.76095 0.22275 0.0
C1007 C 0.94052 0.8349 0.37381 0.0
C1008 C 0.56965 0.53151 0.14482 0.0
C1009 C 0.4186 0.45751 0.1905 0.0
O1010 O 0.56742 0.49568 0.16703 0.0
Zn1011 Zn 0.52409 0.44887 0.19278 0.0
O1012 O 0.5333 0.54881 0.12966 0.0
Zn1013 Zn 0.4893 0.50501 0.15581 0.0
O1014 O 0.5061 0.52224 0.21875 0.0
O1015 O 0.54138 0.46668 0.25278 0.0
O1016 O 0.42201 0.49129 0.16427 0.0
O1017 O 0.45461 0.43864 0.20334 0.0
O1018 O 0.54439 0.40189 0.14897 0.0
O1019 O 0.51172 0.45685 0.11322 0.0
C1020 C 0.52764 0.50723 0.2518 0.0
C1021 C 0.53471 0.42131 0.11209 0.0
C1022 C 0.37112 0.78472 0.86208 0.0
C1023 C 0.28521 0.77759 1.00181 0.0
O1024 O 0.33559 0.76172 0.86321 0.0
Zn1025 Zn 0.28744 0.73929 0.90581 0.0
O1026 O 0.39055 0.79436 0.89897 0.0
Zn1027 Zn 0.34358 0.77406 0.94278 0.0
O1028 O 0.35381 0.70459 0.95333 0.0
O1029 O 0.30115 0.672 0.91425 0.0
O1030 O 0.32576 0.79134 1.00279 0.0
O1031 O 0.2702 0.75607 0.96874 0.0
O1032 O 0.24363 0.78329 0.87966 0.0
O1033 O 0.29677 0.81741 0.91704 0.0
C1034 C 0.33494 0.66858 0.94048 0.0
C1035 C 0.26096 0.81963 0.89481 0.0
C1036 C 0.97279 0.51089 0.64482 0.0
C1037 C 0.12384 0.58488 0.69051 0.0
O1038 O 0.97502 0.54672 0.66702 0.0
Zn1039 Zn 1.01835 0.59353 0.69277 0.0
O1040 O 1.00913 0.49359 0.62965 0.0
Zn1041 Zn 0.05314 0.53739 0.65581 0.0
O1042 O 0.03634 0.52015 0.71874 0.0
O1043 O 1.00105 0.57571 0.75277 0.0
O1044 O 0.12043 0.5511 0.66427 0.0
O1045 O 0.08782 0.60375 0.70334 0.0
O1046 O 0.99805 0.6405 0.64896 0.0
O1047 O 0.03073 0.58555 0.61321 0.0
C1048 C 1.0148 0.53516 0.75179 0.0
C1049 C 1.00773 0.62108 0.61208 0.0
C1050 C 0.20749 0.37383 0.44049 0.0
C1051 C 0.28146 0.22277 0.3948 0.0
O1052 O 0.18862 0.33782 0.45334 0.0
Zn1053 Zn 0.19885 0.26834 0.44278 0.0
O1054 O 0.24127 0.37041 0.41425 0.0
Zn1055 Zn 0.25499 0.30312 0.4058 0.0
O1056 O 0.20683 0.28069 0.36321 0.0
O1057 O 0.15187 0.24804 0.39897 0.0
O1058 O 0.29879 0.25911 0.37965 0.0
O1059 O 0.24565 0.225 0.41703 0.0
O1060 O 0.21667 0.25106 0.50278 0.0
O1061 O 0.27223 0.28633 0.46874 0.0
C1062 C 0.17129 0.25768 0.36209 0.0
C1063 C 0.25721 0.26481 0.5018 0.0
C1064 C 0.4186 0.58492 0.3519 0.0
C1065 C 0.56965 0.51095 0.3976 0.0
O1066 O 0.45462 0.60379 0.33905 0.0
Zn1067 Zn 0.52409 0.59356 0.34961 0.0
O1068 O 0.42202 0.55115 0.37815 0.0
Zn1069 Zn 0.48932 0.53744 0.3866 0.0
O1070 O 0.51175 0.5856 0.42918 0.0
O1071 O 0.5444 0.64054 0.3934 0.0
O1072 O 0.53331 0.49363 0.41276 0.0
O1073 O 0.56743 0.54676 0.37536 0.0
O1074 O 0.54138 0.57573 0.28961 0.0
O1075 O 0.5061 0.52018 0.32366 0.0
C1076 C 0.53476 0.62113 0.43029 0.0
C1077 C 0.52763 0.53518 0.2906 0.0
C1078 C 0.1713 0.78475 0.18029 0.0
C1079 C 0.25726 0.7776 0.04061 0.0
O1080 O 0.20682 0.76173 0.17918 0.0
Zn1081 Zn 0.25499 0.7393 0.13661 0.0
O1082 O 0.15189 0.7944 0.1434 0.0
Zn1083 Zn 0.19887 0.77408 0.09961 0.0
O1084 O 0.18863 0.7046 0.08906 0.0
O1085 O 0.24127 0.67201 0.12816 0.0
O1086 O 0.21671 0.79135 0.03961 0.0
O1087 O 0.27226 0.75608 0.07367 0.0
O1088 O 0.29879 0.78329 0.16277 0.0
O1089 O 0.24567 0.81742 0.12537 0.0
C1090 C 0.20749 0.66859 0.10191 0.0
C1091 C 0.28147 0.81964 0.14761 0.0
C1092 C 1.00766 0.42128 0.93029 0.0
C1093 C 1.0148 0.50721 0.7906 0.0
O1094 O 0.03068 0.45681 0.92918 0.0
Zn1095 Zn 0.05311 0.50496 0.88659 0.0
O1096 O 0.99802 0.40186 0.89341 0.0
Zn1097 Zn 1.01834 0.44884 0.84961 0.0
O1098 O 0.08781 0.43861 0.83905 0.0
O1099 O 0.12041 0.49125 0.87814 0.0
O1100 O 1.00105 0.46666 0.78961 0.0
O1101 O 0.03633 0.52222 0.82366 0.0
O1102 O 1.00912 0.54877 0.91274 0.0
O1103 O 0.97499 0.49564 0.87536 0.0
C1104 C 0.12383 0.45747 0.8519 0.0
C1105 C 0.97277 0.53145 0.89759 0.0
C1106 C 0.37112 0.25766 0.68029 0.0
C1107 C 0.28517 0.26479 0.5406 0.0
O1108 O 0.33559 0.28067 0.67918 0.0
Zn1109 Zn 0.28742 0.3031 0.6366 0.0
O1110 O 0.39054 0.24802 0.64341 0.0
Zn1111 Zn 0.34356 0.26833 0.59961 0.0
O1112 O 0.35378 0.3378 0.58905 0.0
O1113 O 0.30114 0.37039 0.62815 0.0
O1114 O 0.32572 0.25105 0.5396 0.0
O1115 O 0.27016 0.28632 0.57367 0.0
O1116 O 0.24363 0.2591 0.66276 0.0
O1117 O 0.29676 0.22498 0.62536 0.0
C1118 C 0.33492 0.37381 0.60191 0.0
C1119 C 0.26095 0.22276 0.64761 0.0
C1120 C 0.14484 0.56964 0.53149 0.0
C1121 C 0.19051 0.4186 0.45748 0.0
O1122 O 0.16704 0.56742 0.49566 0.0
Zn1123 Zn 0.19279 0.52409 0.44884 0.0
O1124 O 0.12967 0.53329 0.54879 0.0
Zn1125 Zn 0.15582 0.4893 0.50497 0.0
O1126 O 0.21875 0.50609 0.52222 0.0
O1127 O 0.2528 0.54137 0.46667 0.0
O1128 O 0.16427 0.42202 0.49126 0.0
O1129 O 0.20335 0.45462 0.43861 0.0
O1130 O 0.14899 0.54441 0.40188 0.0
O1131 O 0.11322 0.51173 0.45682 0.0
C1132 C 0.25181 0.52763 0.50721 0.0
C1133 C 0.11211 0.53473 0.42128 0.0
C1134 C 0.26479 0.5018 0.25722 0.0
C1135 C 0.25771 0.3621 0.17129 0.0
O1136 O 0.28633 0.46875 0.27222 0.0
Zn1137 Zn 0.30313 0.40581 0.25498 0.0
O1138 O 0.25104 0.50278 0.21667 0.0
Zn1139 Zn 0.26833 0.44278 0.19885 0.0
O1140 O 0.22501 0.41703 0.24566 0.0
O1141 O 0.25914 0.37966 0.29879 0.0
O1142 O 0.24803 0.39898 0.15188 0.0
O1143 O 0.28071 0.36321 0.20682 0.0
O1144 O 0.37042 0.41427 0.24127 0.0
O1145 O 0.33781 0.45335 0.18862 0.0
C1146 C 0.22279 0.39483 0.28149 0.0
C1147 C 0.37383 0.44051 0.20749 0.0
C1148 C 0.35192 0.62381 0.95746 0.0
C1149 C 0.3976 0.47276 0.03144 0.0
O1150 O 0.33907 0.58779 0.9386 0.0
Zn1151 Zn 0.34963 0.51832 0.94882 0.0
O1152 O 0.37817 0.62039 0.99124 0.0
Zn1153 Zn 0.38661 0.5531 1.00495 0.0
O1154 O 0.42921 0.53066 0.9568 0.0
O1155 O 0.39344 0.49801 0.90185 0.0
O1156 O 0.41275 0.5091 0.04876 0.0
O1157 O 0.37537 0.47498 0.99563 0.0
O1158 O 0.28962 0.50105 0.96665 0.0
O1159 O 0.32368 0.53632 0.0222 0.0
C1160 C 0.43033 0.50764 0.92127 0.0
C1161 C 0.29061 0.5148 1.00719 0.0
C1162 C 0.31966 0.64756 0.7815 0.0
C1163 C 0.16861 0.60187 0.7075 0.0
O1164 O 0.31744 0.62536 0.74567 0.0
Zn1165 Zn 0.2741 0.59961 0.69885 0.0
O1166 O 0.28331 0.66271 0.79881 0.0
Zn1167 Zn 0.23931 0.63657 0.755 0.0
O1168 O 0.25612 0.57363 0.77223 0.0
O1169 O 0.2914 0.53961 0.71667 0.0
O1170 O 0.17202 0.6281 0.74128 0.0
O1171 O 0.20463 0.58904 0.68863 0.0
O1172 O 0.2944 0.64343 0.65188 0.0
O1173 O 0.26172 0.67917 0.70684 0.0
C1174 C 0.27766 0.54058 0.75721 0.0
C1175 C 0.28471 0.6803 0.6713 0.0
C1176 C 0.19051 0.62382 0.08493 0.0
C1177 C 0.1448 0.47278 1.01094 0.0
O1178 O 0.20336 0.58781 0.10379 0.0
Zn1179 Zn 0.19281 0.51833 0.09355 0.0
O1180 O 0.16426 0.6204 0.05116 0.0
Zn1181 Zn 0.15581 0.55312 0.03743 0.0
O1182 O 0.11323 0.53068 0.0856 0.0
O1183 O 0.14902 0.49801 0.14053 0.0
O1184 O 0.12964 0.50913 0.99363 0.0
O1185 O 0.16705 0.475 0.04675 0.0
O1186 O 0.25281 0.50105 0.0757 0.0
O1187 O 0.21874 0.53633 1.02015 0.0
C1188 C 0.11213 0.50766 0.12112 0.0
C1189 C 0.25181 0.5148 0.03515 0.0
C1190 C 0.27766 0.50178 0.78516 0.0
C1191 C 0.28473 0.36208 0.87109 0.0
O1192 O 0.25611 0.46873 0.77016 0.0
Zn1193 Zn 0.2393 0.4058 0.78741 0.0
O1194 O 0.2914 0.50276 0.82571 0.0
Zn1195 Zn 0.2741 0.44276 0.84353 0.0
O1196 O 0.31742 0.417 0.79672 0.0
O1197 O 0.28329 0.37964 0.74359 0.0
O1198 O 0.29442 0.39896 0.8905 0.0
O1199 O 0.26173 0.3632 0.83556 0.0
O1200 O 0.17202 0.41425 0.80112 0.0
O1201 O 0.20462 0.45333 0.85377 0.0
C1202 C 0.31964 0.3948 0.76089 0.0
C1203 C 0.1686 0.44049 0.8349 0.0
C1204 C 0.4303 0.53473 0.62112 0.0
C1205 C 0.29061 0.52762 0.53517 0.0
O1206 O 0.42919 0.51172 0.58559 0.0
Zn1207 Zn 0.3866 0.48929 0.53743 0.0
O1208 O 0.39342 0.54438 0.64053 0.0
Zn1209 Zn 0.34962 0.52407 0.59355 0.0
O1210 O 0.33905 0.4546 0.60378 0.0
O1211 O 0.37815 0.422 0.55114 0.0
O1212 O 0.28962 0.54136 0.57571 0.0
O1213 O 0.32367 0.50608 0.52016 0.0
O1214 O 0.41277 0.53328 0.49362 0.0
O1215 O 0.37538 0.56741 0.54675 0.0
C1216 C 0.3519 0.41858 0.58492 0.0
C1217 C 0.39762 0.56962 0.51094 0.0
C1218 C 0.25768 0.6803 0.37111 0.0
C1219 C 0.26479 0.5406 0.28517 0.0
O1220 O 0.28069 0.67918 0.33558 0.0
Zn1221 Zn 0.30312 0.63659 0.28742 0.0
O1222 O 0.24804 0.64341 0.39053 0.0
Zn1223 Zn 0.26834 0.59961 0.34355 0.0
O1224 O 0.33782 0.58905 0.35378 0.0
O1225 O 0.37041 0.62815 0.30113 0.0
O1226 O 0.25105 0.53961 0.32571 0.0
O1227 O 0.28633 0.57366 0.27016 0.0
O1228 O 0.25913 0.66276 0.24361 0.0
O1229 O 0.225 0.62537 0.29675 0.0
C1230 C 0.37383 0.6019 0.33491 0.0
C1231 C 0.22278 0.64761 0.26094 0.0
C1232 C 0.53153 0.14484 0.56967 0.0
C1233 C 0.45753 0.1905 0.41861 0.0
O1234 O 0.49569 0.16703 0.56744 0.0
Zn1235 Zn 0.44888 0.19278 0.5241 0.0
O1236 O 0.54884 0.12968 0.53332 0.0
Zn1237 Zn 0.50503 0.15582 0.48932 0.0
O1238 O 0.52226 0.21876 0.50612 0.0
O1239 O 0.46669 0.25279 0.54139 0.0
O1240 O 0.49132 0.16427 0.42203 0.0
O1241 O 0.43865 0.20334 0.45462 0.0
O1242 O 0.40191 0.14896 0.54439 0.0
O1243 O 0.45688 0.11322 0.51173 0.0
C1244 C 0.50724 0.25181 0.52766 0.0
C1245 C 0.42133 0.11209 0.53472 0.0
C1246 C 0.9213 0.43032 0.50767 0.0
C1247 C 1.00726 0.29063 0.5148 0.0
O1248 O 0.95683 0.42921 0.53068 0.0
Zn1249 Zn 1.00499 0.38663 0.55311 0.0
O1250 O 0.90189 0.39343 0.49803 0.0
Zn1251 Zn 0.94887 0.34963 0.51834 0.0
O1252 O 0.93864 0.33908 0.58781 0.0
O1253 O 0.99128 0.37818 0.6204 0.0
O1254 O 0.96671 0.28963 0.50106 0.0
O1255 O 0.02226 0.3237 0.53633 0.0
O1256 O 0.04879 0.41279 0.50911 0.0
O1257 O 0.99566 0.37539 0.47499 0.0
C1258 C 0.95751 0.35193 0.62382 0.0
C1259 C 0.03147 0.39763 0.47277 0.0
C1260 C 0.44054 0.20748 0.37383 0.0
C1261 C 0.39482 0.28143 0.22278 0.0
O1262 O 0.45339 0.18861 0.33782 0.0
Zn1263 Zn 0.44282 0.19882 0.26835 0.0
O1264 O 0.41429 0.24125 0.37041 0.0
Zn1265 Zn 0.40584 0.25495 0.30312 0.0
O1266 O 0.36325 0.20678 0.28069 0.0
O1267 O 0.39903 0.15184 0.24804 0.0
O1268 O 0.37967 0.29875 0.25912 0.0
O1269 O 0.41706 0.24562 0.225 0.0
O1270 O 0.50282 0.21665 0.25106 0.0
O1271 O 0.46877 0.2722 0.28633 0.0
C1272 C 0.36214 0.17126 0.25768 0.0
C1273 C 0.50184 0.25719 0.2648 0.0
C1274 C 0.5109 0.64479 0.97276 0.0
C1275 C 0.58489 0.69047 0.12381 0.0
O1276 O 0.54672 0.667 0.97499 0.0
Zn1277 Zn 0.59353 0.69276 1.01832 0.0
O1278 O 0.49359 0.62962 1.00911 0.0
Zn1279 Zn 0.53739 0.65578 0.05311 0.0
O1280 O 0.52014 0.71871 0.03632 0.0
O1281 O 0.5757 0.75276 1.00104 0.0
O1282 O 0.55111 0.66423 0.1204 0.0
O1283 O 0.60376 0.70331 0.0878 0.0
O1284 O 0.6405 0.64895 0.99801 0.0
O1285 O 0.58556 0.61319 0.03069 0.0
C1286 C 0.53515 0.75177 1.01478 0.0
C1287 C 0.6211 0.61207 1.00769 0.0
C1288 C 0.64762 0.26088 0.22278 0.0
C1289 C 0.60193 0.33489 0.37382 0.0
O1290 O 0.62541 0.2967 0.225 0.0
Zn1291 Zn 0.59965 0.34352 0.26833 0.0
O1292 O 0.66279 0.24358 0.25913 0.0
Zn1293 Zn 0.63663 0.28739 0.30312 0.0
O1294 O 0.57369 0.27014 0.28633 0.0
O1295 O 0.53964 0.32569 0.25104 0.0
O1296 O 0.62817 0.30111 0.37041 0.0
O1297 O 0.58909 0.35375 0.3378 0.0
O1298 O 0.64345 0.39049 0.24801 0.0
O1299 O 0.67922 0.33555 0.28069 0.0
C1300 C 0.54064 0.28514 0.26478 0.0
C1301 C 0.68033 0.37109 0.25769 0.0
C1302 C 1.01091 0.89758 0.06966 0.0
C1303 C 0.0849 0.8519 0.9186 0.0
O1304 O 0.04674 0.87537 0.06743 0.0
Zn1305 Zn 0.09354 0.84962 0.02409 0.0
O1306 O 0.9936 0.91274 0.03331 0.0
Zn1307 Zn 0.0374 0.88658 0.98931 0.0
O1308 O 1.02017 0.82365 1.00611 0.0
O1309 O 0.07573 0.78962 0.04138 0.0
O1310 O 0.05111 0.87814 0.92202 0.0
O1311 O 0.10377 0.83906 0.95461 0.0
O1312 O 0.14052 0.89343 0.04439 0.0
O1313 O 0.08556 0.92918 1.01172 0.0
C1314 C 0.03518 0.7906 0.02765 0.0
C1315 C 0.1211 0.93031 0.03471 0.0
C1316 C 0.39482 0.76088 0.31964 0.0
C1317 C 0.4405 0.83489 0.1686 0.0
O1318 O 0.41703 0.79671 0.31742 0.0
Zn1319 Zn 0.44279 0.84352 0.27409 0.0
O1320 O 0.37966 0.74358 0.28329 0.0
Zn1321 Zn 0.40581 0.7874 0.2393 0.0
O1322 O 0.46875 0.77015 0.25609 0.0
O1323 O 0.50279 0.82569 0.29138 0.0
O1324 O 0.41426 0.80111 0.17201 0.0
O1325 O 0.45335 0.85376 0.20461 0.0
O1326 O 0.39899 0.89049 0.29441 0.0
O1327 O 0.36322 0.83555 0.26173 0.0
C1328 C 0.5018 0.78515 0.27764 0.0
C1329 C 0.3621 0.87109 0.28473 0.0
C1330 C 0.04063 0.25727 0.77764 0.0
C1331 C 0.18031 0.1713 0.78472 0.0
O1332 O 0.07368 0.27227 0.75609 0.0
Zn1333 Zn 0.13662 0.25501 0.7393 0.0
O1334 O 0.03963 0.21672 0.79137 0.0
Zn1335 Zn 0.09963 0.19888 0.77408 0.0
O1336 O 0.1254 0.24569 0.81741 0.0
O1337 O 0.16279 0.2988 0.78329 0.0
O1338 O 0.14342 0.1519 0.7944 0.0
O1339 O 0.1792 0.20684 0.76172 0.0
O1340 O 0.12816 0.24129 0.67201 0.0
O1341 O 0.08907 0.18865 0.70461 0.0
C1342 C 0.14762 0.28151 0.81964 0.0
C1343 C 0.10192 0.20751 0.66859 0.0
loop_
_geom_bond_atom_site_label_1
_geom_bond_atom_site_label_2
_geom_bond_distance
_geom_bond_site_symmetry_2
_ccdc_geom_bond_type
C0 O2 1.247 . S
C0 O4 1.258 . S
C1 O8 1.247 . S
C1 O9 1.258 . S
O2 C0 1.247 . S
O2 Zn3 2.028 1_655 S
Zn3 O2 2.028 1_455 S
Zn3 O7 2.035 1_545 S
Zn3 O9 2.035 . S
Zn3 O10 2.028 . S
O4 C0 1.258 . S
O4 Zn5 2.035 1_655 S
Zn5 O4 2.035 1_455 S
Zn5 O6 2.028 . S
Zn5 O8 2.028 . S
Zn5 O11 2.035 . S
O6 Zn5 2.028 . S
O6 C12 1.247 . S
O7 Zn3 2.035 1_565 S
O7 C12 1.258 1_565 S
O8 C1 1.247 . S
O8 Zn5 2.028 . S
O9 C1 1.258 . S
O9 Zn3 2.035 . S
O10 Zn3 2.028 . S
O10 C13 1.247 . S
O11 Zn5 2.035 . S
O11 C13 1.258 . S
C12 O6 1.247 . S
C12 O7 1.258 1_545 S
C13 O10 1.247 . S
C13 O11 1.258 . S
C14 O16 1.247 . S
C14 O18 1.258 . S
C15 O22 1.247 . S
C15 O23 1.258 . S
O16 C14 1.247 . S
O16 Zn17 2.028 . S
Zn17 O16 2.028 . S
Zn17 O21 2.035 . S
Zn17 O23 2.035 . S
Zn17 O24 2.028 . S
O18 C14 1.258 . S
O18 Zn19 2.035 . S
Zn19 O18 2.035 . S
Zn19 O20 2.028 . S
Zn19 O22 2.028 . S
Zn19 O25 2.035 . S
O20 Zn19 2.028 . S
O20 C26 1.247 . S
O21 Zn17 2.035 . S
O21 C26 1.258 . S
O22 C15 1.247 . S
O22 Zn19 2.028 . S
O23 C15 1.258 . S
O23 Zn17 2.035 . S
O24 Zn17 2.028 . S
O24 C27 1.247 . S
O25 Zn19 2.035 . S
O25 C27 1.258 . S
C26 O20 1.247 . S
C26 O21 1.258 . S
C27 O24 1.247 . S
C27 O25 1.258 . S
C28 O30 1.247 . S
C28 O32 1.258 1_565 S
C29 O36 1.247 . S
C29 O37 1.258 . S
O30 C28 1.247 . S
O30 Zn31 2.028 . S
Zn31 O30 2.028 . S
Zn31 O35 2.035 . S
Zn31 O37 2.035 . S
Zn31 O38 2.028 . S
O32 C28 1.258 1_545 S
O32 Zn33 2.035 1_545 S
Zn33 O32 2.035 1_565 S
Zn33 O34 2.028 . S
Zn33 O36 2.028 . S
Zn33 O39 2.035 . S
O34 Zn33 2.028 . S
O34 C40 1.247 . S
O35 Zn31 2.035 . S
O35 C40 1.258 . S
O36 C29 1.247 . S
O36 Zn33 2.028 . S
O37 C29 1.258 . S
O37 Zn31 2.035 . S
O38 Zn31 2.028 . S
O38 C41 1.247 . S
O39 Zn33 2.035 . S
O39 C41 1.258 . S
C40 O34 1.247 . S
C40 O35 1.258 . S
C41 O38 1.247 . S
C41 O39 1.258 . S
C42 O44 1.247 . S
C42 O46 1.258 . S
C43 O50 1.247 . S
C43 O51 1.258 . S
O44 C42 1.247 . S
O44 Zn45 2.028 . S
Zn45 O44 2.028 . S
Zn45 O49 2.035 . S
Zn45 O51 2.035 . S
Zn45 O52 2.028 . S
O46 C42 1.258 . S
O46 Zn47 2.035 . S
Zn47 O46 2.035 . S
Zn47 O48 2.028 . S
Zn47 O50 2.028 . S
Zn47 O53 2.035 . S
O48 Zn47 2.028 . S
O48 C54 1.247 . S
O49 Zn45 2.035 . S
O49 C54 1.258 . S
O50 C43 1.247 . S
O50 Zn47 2.028 . S
O51 C43 1.258 . S
O51 Zn45 2.035 . S
O52 Zn45 2.028 . S
O52 C55 1.247 . S
O53 Zn47 2.035 . S
O53 C55 1.258 . S
C54 O48 1.247 . S
C54 O49 1.258 . S
C55 O52 1.247 . S
C55 O53 1.258 . S
C56 O58 1.247 . S
C56 O60 1.258 . S
C57 O64 1.247 . S
C57 O65 1.258 . S
O58 C56 1.247 . S
O58 Zn59 2.028 . S
Zn59 O58 2.028 . S
Zn59 O63 2.035 . S
Zn59 O65 2.035 1_455 S
Zn59 O66 2.028 1_565 S
O60 C56 1.258 . S
O60 Zn61 2.035 . S
Zn61 O60 2.035 . S
Zn61 O62 2.028 . S
Zn61 O64 2.028 1_455 S
Zn61 O67 2.035 . S
O62 Zn61 2.028 . S
O62 C68 1.247 . S
O63 Zn59 2.035 . S
O63 C68 1.258 . S
O64 C57 1.247 . S
O64 Zn61 2.028 1_655 S
O65 C57 1.258 . S
O65 Zn59 2.035 1_655 S
O66 Zn59 2.028 1_545 S
O66 C69 1.247 1_545 S
O67 Zn61 2.035 . S
O67 C69 1.258 . S
C68 O62 1.247 . S
C68 O63 1.258 . S
C69 O66 1.247 1_565 S
C69 O67 1.258 . S
C70 O72 1.247 . S
C70 O74 1.258 . S
C71 O78 1.247 . S
C71 O79 1.258 . S
O72 C70 1.247 . S
O72 Zn73 2.028 . S
Zn73 O72 2.028 . S
Zn73 O77 2.035 . S
Zn73 O79 2.035 . S
Zn73 O80 2.028 . S
O74 C70 1.258 . S
O74 Zn75 2.035 . S
Zn75 O74 2.035 . S
Zn75 O76 2.028 . S
Zn75 O78 2.028 . S
Zn75 O81 2.035 . S
O76 Zn75 2.028 . S
O76 C82 1.247 . S
O77 Zn73 2.035 . S
O77 C82 1.258 . S
O78 C71 1.247 . S
O78 Zn75 2.028 . S
O79 C71 1.258 . S
O79 Zn73 2.035 . S
O80 Zn73 2.028 . S
O80 C83 1.247 . S
O81 Zn75 2.035 . S
O81 C83 1.258 . S
C82 O76 1.247 . S
C82 O77 1.258 . S
C83 O80 1.247 . S
C83 O81 1.258 . S
C84 O86 1.247 . S
C84 O88 1.258 1_545 S
C85 O92 1.247 . S
C85 O93 1.258 . S
O86 C84 1.247 . S
O86 Zn87 2.028 . S
Zn87 O86 2.028 . S
Zn87 O91 2.035 . S
Zn87 O93 2.035 . S
Zn87 O94 2.028 . S
O88 C84 1.258 1_565 S
O88 Zn89 2.035 1_565 S
Zn89 O88 2.035 1_545 S
Zn89 O90 2.028 . S
Zn89 O92 2.028 . S
Zn89 O95 2.035 . S
O90 Zn89 2.028 . S
O90 C96 1.247 . S
O91 Zn87 2.035 . S
O91 C96 1.258 . S
O92 C85 1.247 . S
O92 Zn89 2.028 . S
O93 C85 1.258 . S
O93 Zn87 2.035 . S
O94 Zn87 2.028 . S
O94 C97 1.247 . S
O95 Zn89 2.035 . S
O95 C97 1.258 . S
C96 O90 1.247 . S
C96 O91 1.258 . S
C97 O94 1.247 . S
C97 O95 1.258 . S
C98 O100 1.247 . S
C98 O102 1.258 . S
C99 O106 1.247 . S
C99 O107 1.258 . S
O100 C98 1.247 . S
O100 Zn101 2.028 . S
Zn101 O100 2.028 . S
Zn101 O105 2.035 . S
Zn101 O107 2.035 . S
Zn101 O108 2.028 . S
O102 C98 1.258 . S
O102 Zn103 2.035 . S
Zn103 O102 2.035 . S
Zn103 O104 2.028 . S
Zn103 O106 2.028 . S
Zn103 O109 2.035 . S
O104 Zn103 2.028 . S
O104 C110 1.247 . S
O105 Zn101 2.035 . S
O105 C110 1.258 . S
O106 C99 1.247 . S
O106 Zn103 2.028 . S
O107 C99 1.258 . S
O107 Zn101 2.035 . S
O108 Zn101 2.028 . S
O108 C111 1.247 . S
O109 Zn103 2.035 . S
O109 C111 1.258 . S
C110 O104 1.247 . S
C110 O105 1.258 . S
C111 O108 1.247 . S
C111 O109 1.258 . S
C112 O114 1.247 . S
C112 O116 1.258 . S
C113 O120 1.247 . S
C113 O121 1.258 . S
O114 C112 1.247 . S
O114 Zn115 2.028 . S
Zn115 O114 2.028 . S
Zn115 O119 2.035 . S
Zn115 O121 2.035 1_545 S
Zn115 O122 2.028 1_554 S
O116 C112 1.258 . S
O116 Zn117 2.035 . S
Zn117 O116 2.035 . S
Zn117 O118 2.028 . S
Zn117 O120 2.028 1_545 S
Zn117 O123 2.035 . S
O118 Zn117 2.028 . S
O118 C124 1.247 . S
O119 Zn115 2.035 . S
O119 C124 1.258 . S
O120 C113 1.247 . S
O120 Zn117 2.028 1_565 S
O121 C113 1.258 . S
O121 Zn115 2.035 1_565 S
O122 Zn115 2.028 1_556 S
O122 C125 1.247 1_556 S
O123 Zn117 2.035 . S
O123 C125 1.258 . S
C124 O118 1.247 . S
C124 O119 1.258 . S
C125 O122 1.247 1_554 S
C125 O123 1.258 . S
C126 O128 1.247 . S
C126 O130 1.258 . S
C127 O134 1.247 . S
C127 O135 1.258 . S
O128 C126 1.247 . S
O128 Zn129 2.028 . S
Zn129 O128 2.028 . S
Zn129 O133 2.035 . S
Zn129 O135 2.035 . S
Zn129 O136 2.028 . S
O130 C126 1.258 . S
O130 Zn131 2.035 . S
Zn131 O130 2.035 . S
Zn131 O132 2.028 . S
Zn131 O134 2.028 . S
Zn131 O137 2.035 . S
O132 Zn131 2.028 . S
O132 C138 1.247 . S
O133 Zn129 2.035 . S
O133 C138 1.258 . S
O134 C127 1.247 . S
O134 Zn131 2.028 . S
O135 C127 1.258 . S
O135 Zn129 2.035 . S
O136 Zn129 2.028 . S
O136 C139 1.247 . S
O137 Zn131 2.035 . S
O137 C139 1.258 . S
C138 O132 1.247 . S
C138 O133 1.258 . S
C139 O136 1.247 . S
C139 O137 1.258 . S
C140 O142 1.247 . S
C140 O144 1.258 . S
C141 O148 1.247 . S
C141 O149 1.258 . S
O142 C140 1.247 . S
O142 Zn143 2.028 . S
Zn143 O142 2.028 . S
Zn143 O147 2.035 1_565 S
Zn143 O149 2.035 . S
Zn143 O150 2.028 . S
O144 C140 1.258 . S
O144 Zn145 2.035 . S
Zn145 O144 2.035 . S
Zn145 O146 2.028 1_565 S
Zn145 O148 2.028 . S
Zn145 O151 2.035 . S
O146 Zn145 2.028 1_545 S
O146 C152 1.247 . S
O147 Zn143 2.035 1_545 S
O147 C152 1.258 . S
O148 C141 1.247 . S
O148 Zn145 2.028 . S
O149 C141 1.258 . S
O149 Zn143 2.035 . S
O150 Zn143 2.028 . S
O150 C153 1.247 . S
O151 Zn145 2.035 . S
O151 C153 1.258 . S
C152 O146 1.247 . S
C152 O147 1.258 . S
C153 O150 1.247 . S
C153 O151 1.258 . S
C154 O156 1.247 . S
C154 O158 1.258 . S
C155 O162 1.247 . S
C155 O163 1.258 . S
O156 C154 1.247 . S
O156 Zn157 2.028 . S
Zn157 O156 2.028 . S
Zn157 O161 2.035 . S
Zn157 O163 2.035 . S
Zn157 O164 2.028 . S
O158 C154 1.258 . S
O158 Zn159 2.035 . S
Zn159 O158 2.035 . S
Zn159 O160 2.028 . S
Zn159 O162 2.028 . S
Zn159 O165 2.035 . S
O160 Zn159 2.028 . S
O160 C166 1.247 . S
O161 Zn157 2.035 . S
O161 C166 1.258 . S
O162 C155 1.247 . S
O162 Zn159 2.028 . S
O163 C155 1.258 . S
O163 Zn157 2.035 . S
O164 Zn157 2.028 . S
O164 C167 1.247 . S
O165 Zn159 2.035 . S
O165 C167 1.258 . S
C166 O160 1.247 . S
C166 O161 1.258 . S
C167 O164 1.247 . S
C167 O165 1.258 . S
C168 O170 1.247 . S
C168 O172 1.258 . S
C169 O176 1.247 . S
C169 O177 1.258 . S
O170 C168 1.247 . S
O170 Zn171 2.028 . S
Zn171 O170 2.028 . S
Zn171 O175 2.035 1_565 S
Zn171 O177 2.035 . S
Zn171 O178 2.028 . S
O172 C168 1.258 . S
O172 Zn173 2.035 . S
Zn173 O172 2.035 . S
Zn173 O174 2.028 1_565 S
Zn173 O176 2.028 . S
Zn173 O179 2.035 . S
O174 Zn173 2.028 1_545 S
O174 C180 1.247 . S
O175 Zn171 2.035 1_545 S
O175 C180 1.258 . S
O176 C169 1.247 . S
O176 Zn173 2.028 . S
O177 C169 1.258 . S
O177 Zn171 2.035 . S
O178 Zn171 2.028 . S
O178 C181 1.247 . S
O179 Zn173 2.035 . S
O179 C181 1.258 . S
C180 O174 1.247 . S
C180 O175 1.258 . S
C181 O178 1.247 . S
C181 O179 1.258 . S
C182 O184 1.247 . S
C182 O186 1.258 . S
C183 O190 1.247 . S
C183 O191 1.258 . S
O184 C182 1.247 . S
O184 Zn185 2.028 . S
Zn185 O184 2.028 . S
Zn185 O189 2.035 . S
Zn185 O191 2.035 . S
Zn185 O192 2.028 . S
O186 C182 1.258 . S
O186 Zn187 2.035 . S
Zn187 O186 2.035 . S
Zn187 O188 2.028 . S
Zn187 O190 2.028 . S
Zn187 O193 2.035 . S
O188 Zn187 2.028 . S
O188 C194 1.247 . S
O189 Zn185 2.035 . S
O189 C194 1.258 . S
O190 C183 1.247 . S
O190 Zn187 2.028 . S
O191 C183 1.258 . S
O191 Zn185 2.035 . S
O192 Zn185 2.028 . S
O192 C195 1.247 . S
O193 Zn187 2.035 . S
O193 C195 1.258 . S
C194 O188 1.247 . S
C194 O189 1.258 . S
C195 O192 1.247 . S
C195 O193 1.258 . S
C196 O198 1.247 . S
C196 O200 1.258 1_556 S
C197 O204 1.247 . S
C197 O205 1.258 . S
O198 C196 1.247 . S
O198 Zn199 2.028 . S
Zn199 O198 2.028 . S
Zn199 O203 2.035 1_545 S
Zn199 O205 2.035 . S
Zn199 O206 2.028 . S
O200 C196 1.258 1_554 S
O200 Zn201 2.035 1_554 S
Zn201 O200 2.035 1_556 S
Zn201 O202 2.028 1_545 S
Zn201 O204 2.028 . S
Zn201 O207 2.035 . S
O202 Zn201 2.028 1_565 S
O202 C208 1.247 . S
O203 Zn199 2.035 1_565 S
O203 C208 1.258 . S
O204 C197 1.247 . S
O204 Zn201 2.028 . S
O205 C197 1.258 . S
O205 Zn199 2.035 . S
O206 Zn199 2.028 . S
O206 C209 1.247 . S
O207 Zn201 2.035 . S
O207 C209 1.258 . S
C208 O202 1.247 . S
C208 O203 1.258 . S
C209 O206 1.247 . S
C209 O207 1.258 . S
C210 O212 1.247 . S
C210 O214 1.258 . S
C211 O218 1.247 . S
C211 O219 1.258 . S
O212 C210 1.247 . S
O212 Zn213 2.028 . S
Zn213 O212 2.028 . S
Zn213 O217 2.035 . S
Zn213 O219 2.035 . S
Zn213 O220 2.028 . S
O214 C210 1.258 . S
O214 Zn215 2.035 . S
Zn215 O214 2.035 . S
Zn215 O216 2.028 . S
Zn215 O218 2.028 . S
Zn215 O221 2.035 . S
O216 Zn215 2.028 . S
O216 C222 1.247 . S
O217 Zn213 2.035 . S
O217 C222 1.258 . S
O218 C211 1.247 . S
O218 Zn215 2.028 . S
O219 C211 1.258 . S
O219 Zn213 2.035 . S
O220 Zn213 2.028 . S
O220 C223 1.247 . S
O221 Zn215 2.035 . S
O221 C223 1.258 . S
C222 O216 1.247 . S
C222 O217 1.258 . S
C223 O220 1.247 . S
C223 O221 1.258 . S
C224 O226 1.247 . S
C224 O228 1.258 . S
C225 O232 1.247 . S
C225 O233 1.258 . S
O226 C224 1.247 . S
O226 Zn227 2.028 . S
Zn227 O226 2.028 . S
Zn227 O231 2.035 . S
Zn227 O233 2.035 1_554 S
Zn227 O234 2.028 1_455 S
O228 C224 1.258 . S
O228 Zn229 2.035 . S
Zn229 O228 2.035 . S
Zn229 O230 2.028 . S
Zn229 O232 2.028 1_554 S
Zn229 O235 2.035 . S
O230 Zn229 2.028 . S
O230 C236 1.247 . S
O231 Zn227 2.035 . S
O231 C236 1.258 . S
O232 C225 1.247 . S
O232 Zn229 2.028 1_556 S
O233 C225 1.258 . S
O233 Zn227 2.035 1_556 S
O234 Zn227 2.028 1_655 S
O234 C237 1.247 1_655 S
O235 Zn229 2.035 . S
O235 C237 1.258 . S
C236 O230 1.247 . S
C236 O231 1.258 . S
C237 O234 1.247 1_455 S
C237 O235 1.258 . S
C238 O240 1.247 . S
C238 O242 1.258 . S
C239 O246 1.247 . S
C239 O247 1.258 . S
O240 C238 1.247 . S
O240 Zn241 2.028 . S
Zn241 O240 2.028 . S
Zn241 O245 2.035 . S
Zn241 O247 2.035 1_556 S
Zn241 O248 2.028 . S
O242 C238 1.258 . S
O242 Zn243 2.035 . S
Zn243 O242 2.035 . S
Zn243 O244 2.028 . S
Zn243 O246 2.028 1_556 S
Zn243 O249 2.035 . S
O244 Zn243 2.028 . S
O244 C250 1.247 . S
O245 Zn241 2.035 . S
O245 C250 1.258 . S
O246 C239 1.247 . S
O246 Zn243 2.028 1_554 S
O247 C239 1.258 . S
O247 Zn241 2.035 1_554 S
O248 Zn241 2.028 . S
O248 C251 1.247 . S
O249 Zn243 2.035 . S
O249 C251 1.258 . S
C250 O244 1.247 . S
C250 O245 1.258 . S
C251 O248 1.247 . S
C251 O249 1.258 . S
C252 O254 1.247 . S
C252 O256 1.258 . S
C253 O260 1.247 . S
C253 O261 1.258 . S
O254 C252 1.247 . S
O254 Zn255 2.028 . S
Zn255 O254 2.028 . S
Zn255 O259 2.035 . S
Zn255 O261 2.035 . S
Zn255 O262 2.028 . S
O256 C252 1.258 . S
O256 Zn257 2.035 . S
Zn257 O256 2.035 . S
Zn257 O258 2.028 . S
Zn257 O260 2.028 . S
Zn257 O263 2.035 . S
O258 Zn257 2.028 . S
O258 C264 1.247 . S
O259 Zn255 2.035 . S
O259 C264 1.258 . S
O260 C253 1.247 . S
O260 Zn257 2.028 . S
O261 C253 1.258 . S
O261 Zn255 2.035 . S
O262 Zn255 2.028 . S
O262 C265 1.247 . S
O263 Zn257 2.035 . S
O263 C265 1.258 . S
C264 O258 1.247 . S
C264 O259 1.258 . S
C265 O262 1.247 . S
C265 O263 1.258 . S
C266 O268 1.247 . S
C266 O270 1.258 . S
C267 O274 1.247 . S
C267 O275 1.258 . S
O268 C266 1.247 . S
O268 Zn269 2.028 . S
Zn269 O268 2.028 . S
Zn269 O273 2.035 . S
Zn269 O275 2.035 . S
Zn269 O276 2.028 1_655 S
O270 C266 1.258 . S
O270 Zn271 2.035 . S
Zn271 O270 2.035 . S
Zn271 O272 2.028 . S
Zn271 O274 2.028 . S
Zn271 O277 2.035 . S
O272 Zn271 2.028 . S
O272 C278 1.247 . S
O273 Zn269 2.035 . S
O273 C278 1.258 . S
O274 C267 1.247 . S
O274 Zn271 2.028 . S
O275 C267 1.258 . S
O275 Zn269 2.035 . S
O276 Zn269 2.028 1_455 S
O276 C279 1.247 1_455 S
O277 Zn271 2.035 . S
O277 C279 1.258 . S
C278 O272 1.247 . S
C278 O273 1.258 . S
C279 O276 1.247 1_655 S
C279 O277 1.258 . S
C280 O282 1.247 . S
C280 O284 1.258 . S
C281 O288 1.247 . S
C281 O289 1.258 . S
O282 C280 1.247 . S
O282 Zn283 2.028 . S
Zn283 O282 2.028 . S
Zn283 O287 2.035 . S
Zn283 O289 2.035 . S
Zn283 O290 2.028 . S
O284 C280 1.258 . S
O284 Zn285 2.035 . S
Zn285 O284 2.035 . S
Zn285 O286 2.028 . S
Zn285 O288 2.028 . S
Zn285 O291 2.035 . S
O286 Zn285 2.028 . S
O286 C292 1.247 . S
O287 Zn283 2.035 . S
O287 C292 1.258 . S
O288 C281 1.247 . S
O288 Zn285 2.028 . S
O289 C281 1.258 . S
O289 Zn283 2.035 . S
O290 Zn283 2.028 . S
O290 C293 1.247 . S
O291 Zn285 2.035 . S
O291 C293 1.258 . S
C292 O286 1.247 . S
C292 O287 1.258 . S
C293 O290 1.247 . S
C293 O291 1.258 . S
C294 O296 1.247 . S
C294 O298 1.258 . S
C295 O302 1.247 . S
C295 O303 1.258 . S
O296 C294 1.247 . S
O296 Zn297 2.028 . S
Zn297 O296 2.028 . S
Zn297 O301 2.035 . S
Zn297 O303 2.035 . S
Zn297 O304 2.028 . S
O298 C294 1.258 . S
O298 Zn299 2.035 . S
Zn299 O298 2.035 . S
Zn299 O300 2.028 . S
Zn299 O302 2.028 . S
Zn299 O305 2.035 . S
O300 Zn299 2.028 . S
O300 C306 1.247 . S
O301 Zn297 2.035 . S
O301 C306 1.258 . S
O302 C295 1.247 . S
O302 Zn299 2.028 . S
O303 C295 1.258 . S
O303 Zn297 2.035 . S
O304 Zn297 2.028 . S
O304 C307 1.247 . S
O305 Zn299 2.035 . S
O305 C307 1.258 . S
C306 O300 1.247 . S
C306 O301 1.258 . S
C307 O304 1.247 . S
C307 O305 1.258 . S
C308 O310 1.247 . S
C308 O312 1.258 . S
C309 O316 1.247 . S
C309 O317 1.258 . S
O310 C308 1.247 . S
O310 Zn311 2.028 . S
Zn311 O310 2.028 . S
Zn311 O315 2.035 . S
Zn311 O317 2.035 . S
Zn311 O318 2.028 . S
O312 C308 1.258 . S
O312 Zn313 2.035 . S
Zn313 O312 2.035 . S
Zn313 O314 2.028 . S
Zn313 O316 2.028 . S
Zn313 O319 2.035 . S
O314 Zn313 2.028 . S
O314 C320 1.247 . S
O315 Zn311 2.035 . S
O315 C320 1.258 . S
O316 C309 1.247 . S
O316 Zn313 2.028 . S
O317 C309 1.258 . S
O317 Zn311 2.035 . S
O318 Zn311 2.028 . S
O318 C321 1.247 . S
O319 Zn313 2.035 . S
O319 C321 1.258 . S
C320 O314 1.247 . S
C320 O315 1.258 . S
C321 O318 1.247 . S
C321 O319 1.258 . S
C322 O324 1.247 . S
C322 O326 1.258 . S
C323 O330 1.247 . S
C323 O331 1.258 . S
O324 C322 1.247 . S
O324 Zn325 2.028 . S
Zn325 O324 2.028 . S
Zn325 O329 2.035 . S
Zn325 O331 2.035 . S
Zn325 O332 2.028 . S
O326 C322 1.258 . S
O326 Zn327 2.035 . S
Zn327 O326 2.035 . S
Zn327 O328 2.028 . S
Zn327 O330 2.028 . S
Zn327 O333 2.035 . S
O328 Zn327 2.028 . S
O328 C334 1.247 . S
O329 Zn325 2.035 . S
O329 C334 1.258 . S
O330 C323 1.247 . S
O330 Zn327 2.028 . S
O331 C323 1.258 . S
O331 Zn325 2.035 . S
O332 Zn325 2.028 . S
O332 C335 1.247 . S
O333 Zn327 2.035 . S
O333 C335 1.258 . S
C334 O328 1.247 . S
C334 O329 1.258 . S
C335 O332 1.247 . S
C335 O333 1.258 . S
C336 O338 1.247 . S
C336 O340 1.258 . S
C337 O344 1.247 . S
C337 O345 1.258 1_565 S
O338 C336 1.247 . S
O338 Zn339 2.028 . S
Zn339 O338 2.028 . S
Zn339 O343 2.035 . S
Zn339 O345 2.035 1_565 S
Zn339 O346 2.028 1_655 S
O340 C336 1.258 . S
O340 Zn341 2.035 . S
Zn341 O340 2.035 . S
Zn341 O342 2.028 . S
Zn341 O344 2.028 . S
Zn341 O347 2.035 1_655 S
O342 Zn341 2.028 . S
O342 C348 1.247 . S
O343 Zn339 2.035 . S
O343 C348 1.258 . S
O344 C337 1.247 . S
O344 Zn341 2.028 . S
O345 C337 1.258 1_545 S
O345 Zn339 2.035 1_545 S
O346 Zn339 2.028 1_455 S
O346 C349 1.247 . S
O347 Zn341 2.035 1_455 S
O347 C349 1.258 . S
C348 O342 1.247 . S
C348 O343 1.258 . S
C349 O346 1.247 . S
C349 O347 1.258 . S
C350 O352 1.247 . S
C350 O354 1.258 . S
C351 O358 1.247 . S
C351 O359 1.258 . S
O352 C350 1.247 . S
O352 Zn353 2.028 . S
Zn353 O352 2.028 . S
Zn353 O357 2.035 . S
Zn353 O359 2.035 . S
Zn353 O360 2.028 . S
O354 C350 1.258 . S
O354 Zn355 2.035 . S
Zn355 O354 2.035 . S
Zn355 O356 2.028 . S
Zn355 O358 2.028 . S
Zn355 O361 2.035 . S
O356 Zn355 2.028 . S
O356 C362 1.247 . S
O357 Zn353 2.035 . S
O357 C362 1.258 . S
O358 C351 1.247 . S
O358 Zn355 2.028 . S
O359 C351 1.258 . S
O359 Zn353 2.035 . S
O360 Zn353 2.028 . S
O360 C363 1.247 . S
O361 Zn355 2.035 . S
O361 C363 1.258 . S
C362 O356 1.247 . S
C362 O357 1.258 . S
C363 O360 1.247 . S
C363 O361 1.258 . S
C364 O366 1.247 . S
C364 O368 1.258 . S
C365 O372 1.247 . S
C365 O373 1.258 . S
O366 C364 1.247 . S
O366 Zn367 2.028 . S
Zn367 O366 2.028 . S
Zn367 O371 2.035 . S
Zn367 O373 2.035 . S
Zn367 O374 2.028 . S
O368 C364 1.258 . S
O368 Zn369 2.035 . S
Zn369 O368 2.035 . S
Zn369 O370 2.028 . S
Zn369 O372 2.028 . S
Zn369 O375 2.035 1_545 S
O370 Zn369 2.028 . S
O370 C376 1.247 . S
O371 Zn367 2.035 . S
O371 C376 1.258 . S
O372 C365 1.247 . S
O372 Zn369 2.028 . S
O373 C365 1.258 . S
O373 Zn367 2.035 . S
O374 Zn367 2.028 . S
O374 C377 1.247 . S
O375 Zn369 2.035 1_565 S
O375 C377 1.258 1_565 S
C376 O370 1.247 . S
C376 O371 1.258 . S
C377 O374 1.247 . S
C377 O375 1.258 1_545 S
C378 O380 1.247 . S
C378 O382 1.258 . S
C379 O386 1.247 . S
C379 O387 1.258 . S
O380 C378 1.247 . S
O380 Zn381 2.028 . S
Zn381 O380 2.028 . S
Zn381 O385 2.035 . S
Zn381 O387 2.035 . S
Zn381 O388 2.028 . S
O382 C378 1.258 . S
O382 Zn383 2.035 . S
Zn383 O382 2.035 . S
Zn383 O384 2.028 . S
Zn383 O386 2.028 . S
Zn383 O389 2.035 . S
O384 Zn383 2.028 . S
O384 C390 1.247 . S
O385 Zn381 2.035 . S
O385 C390 1.258 . S
O386 C379 1.247 . S
O386 Zn383 2.028 . S
O387 C379 1.258 . S
O387 Zn381 2.035 . S
O388 Zn381 2.028 . S
O388 C391 1.247 . S
O389 Zn383 2.035 . S
O389 C391 1.258 . S
C390 O384 1.247 . S
C390 O385 1.258 . S
C391 O388 1.247 . S
C391 O389 1.258 . S
C392 O394 1.247 . S
C392 O396 1.258 . S
C393 O400 1.247 . S
C393 O401 1.258 . S
O394 C392 1.247 . S
O394 Zn395 2.028 . S
Zn395 O394 2.028 . S
Zn395 O399 2.035 . S
Zn395 O401 2.035 1_655 S
Zn395 O402 2.028 . S
O396 C392 1.258 . S
O396 Zn397 2.035 . S
Zn397 O396 2.035 . S
Zn397 O398 2.028 . S
Zn397 O400 2.028 1_655 S
Zn397 O403 2.035 1_545 S
O398 Zn397 2.028 . S
O398 C404 1.247 . S
O399 Zn395 2.035 . S
O399 C404 1.258 . S
O400 C393 1.247 . S
O400 Zn397 2.028 1_455 S
O401 C393 1.258 . S
O401 Zn395 2.035 1_455 S
O402 Zn395 2.028 . S
O402 C405 1.247 . S
O403 Zn397 2.035 1_565 S
O403 C405 1.258 1_565 S
C404 O398 1.247 . S
C404 O399 1.258 . S
C405 O402 1.247 . S
C405 O403 1.258 1_545 S
C406 O408 1.247 . S
C406 O410 1.258 . S
C407 O414 1.247 . S
C407 O415 1.258 . S
O408 C406 1.247 . S
O408 Zn409 2.028 . S
Zn409 O408 2.028 . S
Zn409 O413 2.035 . S
Zn409 O415 2.035 . S
Zn409 O416 2.028 . S
O410 C406 1.258 . S
O410 Zn411 2.035 . S
Zn411 O410 2.035 . S
Zn411 O412 2.028 . S
Zn411 O414 2.028 . S
Zn411 O417 2.035 . S
O412 Zn411 2.028 . S
O412 C418 1.247 . S
O413 Zn409 2.035 . S
O413 C418 1.258 . S
O414 C407 1.247 . S
O414 Zn411 2.028 . S
O415 C407 1.258 . S
O415 Zn409 2.035 . S
O416 Zn409 2.028 . S
O416 C419 1.247 . S
O417 Zn411 2.035 . S
O417 C419 1.258 . S
C418 O412 1.247 . S
C418 O413 1.258 . S
C419 O416 1.247 . S
C419 O417 1.258 . S
C420 O422 1.247 1_565 S
C420 O424 1.258 . S
C421 O428 1.247 . S
C421 O429 1.258 . S
O422 C420 1.247 1_545 S
O422 Zn423 2.028 1_545 S
Zn423 O422 2.028 1_565 S
Zn423 O427 2.035 . S
Zn423 O429 2.035 . S
Zn423 O430 2.028 . S
O424 C420 1.258 . S
O424 Zn425 2.035 . S
Zn425 O424 2.035 . S
Zn425 O426 2.028 . S
Zn425 O428 2.028 . S
Zn425 O431 2.035 . S
O426 Zn425 2.028 . S
O426 C432 1.247 . S
O427 Zn423 2.035 . S
O427 C432 1.258 . S
O428 C421 1.247 . S
O428 Zn425 2.028 . S
O429 C421 1.258 . S
O429 Zn423 2.035 . S
O430 Zn423 2.028 . S
O430 C433 1.247 . S
O431 Zn425 2.035 . S
O431 C433 1.258 . S
C432 O426 1.247 . S
C432 O427 1.258 . S
C433 O430 1.247 . S
C433 O431 1.258 . S
C434 O436 1.247 . S
C434 O438 1.258 . S
C435 O442 1.247 . S
C435 O443 1.258 . S
O436 C434 1.247 . S
O436 Zn437 2.028 . S
Zn437 O436 2.028 . S
Zn437 O441 2.035 . S
Zn437 O443 2.035 . S
Zn437 O444 2.028 . S
O438 C434 1.258 . S
O438 Zn439 2.035 . S
Zn439 O438 2.035 . S
Zn439 O440 2.028 . S
Zn439 O442 2.028 . S
Zn439 O445 2.035 . S
O440 Zn439 2.028 . S
O440 C446 1.247 . S
O441 Zn437 2.035 . S
O441 C446 1.258 . S
O442 C435 1.247 . S
O442 Zn439 2.028 . S
O443 C435 1.258 . S
O443 Zn437 2.035 . S
O444 Zn437 2.028 . S
O444 C447 1.247 . S
O445 Zn439 2.035 . S
O445 C447 1.258 . S
C446 O440 1.247 . S
C446 O441 1.258 . S
C447 O444 1.247 . S
C447 O445 1.258 . S
C448 O450 1.247 . S
C448 O452 1.258 . S
C449 O456 1.247 . S
C449 O457 1.258 1_556 S
O450 C448 1.247 . S
O450 Zn451 2.028 . S
Zn451 O450 2.028 . S
Zn451 O455 2.035 . S
Zn451 O457 2.035 1_556 S
Zn451 O458 2.028 1_565 S
O452 C448 1.258 . S
O452 Zn453 2.035 . S
Zn453 O452 2.035 . S
Zn453 O454 2.028 . S
Zn453 O456 2.028 . S
Zn453 O459 2.035 1_565 S
O454 Zn453 2.028 . S
O454 C460 1.247 . S
O455 Zn451 2.035 . S
O455 C460 1.258 . S
O456 C449 1.247 . S
O456 Zn453 2.028 . S
O457 C449 1.258 1_554 S
O457 Zn451 2.035 1_554 S
O458 Zn451 2.028 1_545 S
O458 C461 1.247 . S
O459 Zn453 2.035 1_545 S
O459 C461 1.258 . S
C460 O454 1.247 . S
C460 O455 1.258 . S
C461 O458 1.247 . S
C461 O459 1.258 . S
C462 O464 1.247 . S
C462 O466 1.258 . S
C463 O470 1.247 . S
C463 O471 1.258 . S
O464 C462 1.247 . S
O464 Zn465 2.028 . S
Zn465 O464 2.028 . S
Zn465 O469 2.035 . S
Zn465 O471 2.035 . S
Zn465 O472 2.028 . S
O466 C462 1.258 . S
O466 Zn467 2.035 . S
Zn467 O466 2.035 . S
Zn467 O468 2.028 . S
Zn467 O470 2.028 . S
Zn467 O473 2.035 . S
O468 Zn467 2.028 . S
O468 C474 1.247 . S
O469 Zn465 2.035 . S
O469 C474 1.258 . S
O470 C463 1.247 . S
O470 Zn467 2.028 . S
O471 C463 1.258 . S
O471 Zn465 2.035 . S
O472 Zn465 2.028 . S
O472 C475 1.247 . S
O473 Zn467 2.035 . S
O473 C475 1.258 . S
C474 O468 1.247 . S
C474 O469 1.258 . S
C475 O472 1.247 . S
C475 O473 1.258 . S
C476 O478 1.247 . S
C476 O480 1.258 . S
C477 O484 1.247 . S
C477 O485 1.258 . S
O478 C476 1.247 . S
O478 Zn479 2.028 . S
Zn479 O478 2.028 . S
Zn479 O483 2.035 . S
Zn479 O485 2.035 1_545 S
Zn479 O486 2.028 . S
O480 C476 1.258 . S
O480 Zn481 2.035 . S
Zn481 O480 2.035 . S
Zn481 O482 2.028 . S
Zn481 O484 2.028 1_545 S
Zn481 O487 2.035 . S
O482 Zn481 2.028 . S
O482 C488 1.247 . S
O483 Zn479 2.035 . S
O483 C488 1.258 . S
O484 C477 1.247 . S
O484 Zn481 2.028 1_565 S
O485 C477 1.258 . S
O485 Zn479 2.035 1_565 S
O486 Zn479 2.028 . S
O486 C489 1.247 . S
O487 Zn481 2.035 . S
O487 C489 1.258 . S
C488 O482 1.247 . S
C488 O483 1.258 . S
C489 O486 1.247 . S
C489 O487 1.258 . S
C490 O492 1.247 . S
C490 O494 1.258 . S
C491 O498 1.247 . S
C491 O499 1.258 . S
O492 C490 1.247 . S
O492 Zn493 2.028 . S
Zn493 O492 2.028 . S
Zn493 O497 2.035 . S
Zn493 O499 2.035 . S
Zn493 O500 2.028 . S
O494 C490 1.258 . S
O494 Zn495 2.035 . S
Zn495 O494 2.035 . S
Zn495 O496 2.028 . S
Zn495 O498 2.028 . S
Zn495 O501 2.035 . S
O496 Zn495 2.028 . S
O496 C502 1.247 . S
O497 Zn493 2.035 . S
O497 C502 1.258 . S
O498 C491 1.247 . S
O498 Zn495 2.028 . S
O499 C491 1.258 . S
O499 Zn493 2.035 . S
O500 Zn493 2.028 . S
O500 C503 1.247 . S
O501 Zn495 2.035 . S
O501 C503 1.258 . S
C502 O496 1.247 . S
C502 O497 1.258 . S
C503 O500 1.247 . S
C503 O501 1.258 . S
C504 O506 1.247 . S
C504 O508 1.258 . S
C505 O512 1.247 . S
C505 O513 1.258 . S
O506 C504 1.247 . S
O506 Zn507 2.028 . S
Zn507 O506 2.028 . S
Zn507 O511 2.035 1_545 S
Zn507 O513 2.035 . S
Zn507 O514 2.028 . S
O508 C504 1.258 . S
O508 Zn509 2.035 . S
Zn509 O508 2.035 . S
Zn509 O510 2.028 1_545 S
Zn509 O512 2.028 . S
Zn509 O515 2.035 . S
O510 Zn509 2.028 1_565 S
O510 C516 1.247 . S
O511 Zn507 2.035 1_565 S
O511 C516 1.258 . S
O512 C505 1.247 . S
O512 Zn509 2.028 . S
O513 C505 1.258 . S
O513 Zn507 2.035 . S
O514 Zn507 2.028 . S
O514 C517 1.247 . S
O515 Zn509 2.035 . S
O515 C517 1.258 . S
C516 O510 1.247 . S
C516 O511 1.258 . S
C517 O514 1.247 . S
C517 O515 1.258 . S
C518 O520 1.247 . S
C518 O522 1.258 . S
C519 O526 1.247 . S
C519 O527 1.258 . S
O520 C518 1.247 . S
O520 Zn521 2.028 . S
Zn521 O520 2.028 . S
Zn521 O525 2.035 . S
Zn521 O527 2.035 . S
Zn521 O528 2.028 . S
O522 C518 1.258 . S
O522 Zn523 2.035 . S
Zn523 O522 2.035 . S
Zn523 O524 2.028 . S
Zn523 O526 2.028 . S
Zn523 O529 2.035 . S
O524 Zn523 2.028 . S
O524 C530 1.247 . S
O525 Zn521 2.035 . S
O525 C530 1.258 . S
O526 C519 1.247 . S
O526 Zn523 2.028 . S
O527 C519 1.258 . S
O527 Zn521 2.035 . S
O528 Zn521 2.028 . S
O528 C531 1.247 . S
O529 Zn523 2.035 . S
O529 C531 1.258 . S
C530 O524 1.247 . S
C530 O525 1.258 . S
C531 O528 1.247 . S
C531 O529 1.258 . S
C532 O534 1.247 . S
C532 O536 1.258 . S
C533 O540 1.247 . S
C533 O541 1.258 1_554 S
O534 C532 1.247 . S
O534 Zn535 2.028 . S
Zn535 O534 2.028 . S
Zn535 O539 2.035 . S
Zn535 O541 2.035 1_554 S
Zn535 O542 2.028 1_565 S
O536 C532 1.258 . S
O536 Zn537 2.035 . S
Zn537 O536 2.035 . S
Zn537 O538 2.028 . S
Zn537 O540 2.028 . S
Zn537 O543 2.035 1_565 S
O538 Zn537 2.028 . S
O538 C544 1.247 . S
O539 Zn535 2.035 . S
O539 C544 1.258 . S
O540 C533 1.247 . S
O540 Zn537 2.028 . S
O541 C533 1.258 1_556 S
O541 Zn535 2.035 1_556 S
O542 Zn535 2.028 1_545 S
O542 C545 1.247 . S
O543 Zn537 2.035 1_545 S
O543 C545 1.258 . S
C544 O538 1.247 . S
C544 O539 1.258 . S
C545 O542 1.247 . S
C545 O543 1.258 . S
C546 O548 1.247 . S
C546 O550 1.258 . S
C547 O554 1.247 . S
C547 O555 1.258 . S
O548 C546 1.247 . S
O548 Zn549 2.028 . S
Zn549 O548 2.028 . S
Zn549 O553 2.035 . S
Zn549 O555 2.035 . S
Zn549 O556 2.028 . S
O550 C546 1.258 . S
O550 Zn551 2.035 . S
Zn551 O550 2.035 . S
Zn551 O552 2.028 . S
Zn551 O554 2.028 . S
Zn551 O557 2.035 . S
O552 Zn551 2.028 . S
O552 C558 1.247 . S
O553 Zn549 2.035 . S
O553 C558 1.258 . S
O554 C547 1.247 . S
O554 Zn551 2.028 . S
O555 C547 1.258 . S
O555 Zn549 2.035 . S
O556 Zn549 2.028 . S
O556 C559 1.247 . S
O557 Zn551 2.035 . S
O557 C559 1.258 . S
C558 O552 1.247 . S
C558 O553 1.258 . S
C559 O556 1.247 . S
C559 O557 1.258 . S
C560 O562 1.247 . S
C560 O564 1.258 . S
C561 O568 1.247 . S
C561 O569 1.258 . S
O562 C560 1.247 . S
O562 Zn563 2.028 1_554 S
Zn563 O562 2.028 1_556 S
Zn563 O567 2.035 . S
Zn563 O569 2.035 . S
Zn563 O570 2.028 . S
O564 C560 1.258 . S
O564 Zn565 2.035 1_554 S
Zn565 O564 2.035 1_556 S
Zn565 O566 2.028 1_655 S
Zn565 O568 2.028 . S
Zn565 O571 2.035 . S
O566 Zn565 2.028 1_455 S
O566 C572 1.247 1_455 S
O567 Zn563 2.035 . S
O567 C572 1.258 . S
O568 C561 1.247 . S
O568 Zn565 2.028 . S
O569 C561 1.258 . S
O569 Zn563 2.035 . S
O570 Zn563 2.028 . S
O570 C573 1.247 . S
O571 Zn565 2.035 . S
O571 C573 1.258 . S
C572 O566 1.247 1_655 S
C572 O567 1.258 . S
C573 O570 1.247 . S
C573 O571 1.258 . S
C574 O576 1.247 . S
C574 O578 1.258 . S
C575 O582 1.247 . S
C575 O583 1.258 . S
O576 C574 1.247 . S
O576 Zn577 2.028 . S
Zn577 O576 2.028 . S
Zn577 O581 2.035 . S
Zn577 O583 2.035 1_554 S
Zn577 O584 2.028 . S
O578 C574 1.258 . S
O578 Zn579 2.035 . S
Zn579 O578 2.035 . S
Zn579 O580 2.028 . S
Zn579 O582 2.028 1_554 S
Zn579 O585 2.035 . S
O580 Zn579 2.028 . S
O580 C586 1.247 . S
O581 Zn577 2.035 . S
O581 C586 1.258 . S
O582 C575 1.247 . S
O582 Zn579 2.028 1_556 S
O583 C575 1.258 . S
O583 Zn577 2.035 1_556 S
O584 Zn577 2.028 . S
O584 C587 1.247 . S
O585 Zn579 2.035 . S
O585 C587 1.258 . S
C586 O580 1.247 . S
C586 O581 1.258 . S
C587 O584 1.247 . S
C587 O585 1.258 . S
C588 O590 1.247 . S
C588 O592 1.258 . S
C589 O596 1.247 . S
C589 O597 1.258 . S
O590 C588 1.247 . S
O590 Zn591 2.028 . S
Zn591 O590 2.028 . S
Zn591 O595 2.035 . S
Zn591 O597 2.035 . S
Zn591 O598 2.028 . S
O592 C588 1.258 . S
O592 Zn593 2.035 . S
Zn593 O592 2.035 . S
Zn593 O594 2.028 . S
Zn593 O596 2.028 . S
Zn593 O599 2.035 . S
O594 Zn593 2.028 . S
O594 C600 1.247 . S
O595 Zn591 2.035 . S
O595 C600 1.258 . S
O596 C589 1.247 . S
O596 Zn593 2.028 . S
O597 C589 1.258 . S
O597 Zn591 2.035 . S
O598 Zn591 2.028 . S
O598 C601 1.247 . S
O599 Zn593 2.035 . S
O599 C601 1.258 . S
C600 O594 1.247 . S
C600 O595 1.258 . S
C601 O598 1.247 . S
C601 O599 1.258 . S
C602 O604 1.247 . S
C602 O606 1.258 . S
C603 O610 1.247 . S
C603 O611 1.258 . S
O604 C602 1.247 . S
O604 Zn605 2.028 . S
Zn605 O604 2.028 . S
Zn605 O609 2.035 . S
Zn605 O611 2.035 . S
Zn605 O612 2.028 . S
O606 C602 1.258 . S
O606 Zn607 2.035 . S
Zn607 O606 2.035 . S
Zn607 O608 2.028 . S
Zn607 O610 2.028 . S
Zn607 O613 2.035 1_455 S
O608 Zn607 2.028 . S
O608 C614 1.247 . S
O609 Zn605 2.035 . S
O609 C614 1.258 . S
O610 C603 1.247 . S
O610 Zn607 2.028 . S
O611 C603 1.258 . S
O611 Zn605 2.035 . S
O612 Zn605 2.028 . S
O612 C615 1.247 . S
O613 Zn607 2.035 1_655 S
O613 C615 1.258 1_655 S
C614 O608 1.247 . S
C614 O609 1.258 . S
C615 O612 1.247 . S
C615 O613 1.258 1_455 S
C616 O618 1.247 . S
C616 O620 1.258 . S
C617 O624 1.247 . S
C617 O625 1.258 . S
O618 C616 1.247 . S
O618 Zn619 2.028 . S
Zn619 O618 2.028 . S
Zn619 O623 2.035 . S
Zn619 O625 2.035 . S
Zn619 O626 2.028 . S
O620 C616 1.258 . S
O620 Zn621 2.035 . S
Zn621 O620 2.035 . S
Zn621 O622 2.028 . S
Zn621 O624 2.028 . S
Zn621 O627 2.035 . S
O622 Zn621 2.028 . S
O622 C628 1.247 . S
O623 Zn619 2.035 . S
O623 C628 1.258 . S
O624 C617 1.247 . S
O624 Zn621 2.028 . S
O625 C617 1.258 . S
O625 Zn619 2.035 . S
O626 Zn619 2.028 . S
O626 C629 1.247 . S
O627 Zn621 2.035 . S
O627 C629 1.258 . S
C628 O622 1.247 . S
C628 O623 1.258 . S
C629 O626 1.247 . S
C629 O627 1.258 . S
C630 O632 1.247 . S
C630 O634 1.258 . S
C631 O638 1.247 . S
C631 O639 1.258 . S
O632 C630 1.247 . S
O632 Zn633 2.028 . S
Zn633 O632 2.028 . S
Zn633 O637 2.035 . S
Zn633 O639 2.035 . S
Zn633 O640 2.028 . S
O634 C630 1.258 . S
O634 Zn635 2.035 . S
Zn635 O634 2.035 . S
Zn635 O636 2.028 . S
Zn635 O638 2.028 . S
Zn635 O641 2.035 . S
O636 Zn635 2.028 . S
O636 C642 1.247 . S
O637 Zn633 2.035 . S
O637 C642 1.258 . S
O638 C631 1.247 . S
O638 Zn635 2.028 . S
O639 C631 1.258 . S
O639 Zn633 2.035 . S
O640 Zn633 2.028 . S
O640 C643 1.247 . S
O641 Zn635 2.035 . S
O641 C643 1.258 . S
C642 O636 1.247 . S
C642 O637 1.258 . S
C643 O640 1.247 . S
C643 O641 1.258 . S
C644 O646 1.247 . S
C644 O648 1.258 . S
C645 O652 1.247 . S
C645 O653 1.258 . S
O646 C644 1.247 . S
O646 Zn647 2.028 . S
Zn647 O646 2.028 . S
Zn647 O651 2.035 . S
Zn647 O653 2.035 . S
Zn647 O654 2.028 . S
O648 C644 1.258 . S
O648 Zn649 2.035 . S
Zn649 O648 2.035 . S
Zn649 O650 2.028 . S
Zn649 O652 2.028 . S
Zn649 O655 2.035 . S
O650 Zn649 2.028 . S
O650 C656 1.247 . S
O651 Zn647 2.035 . S
O651 C656 1.258 . S
O652 C645 1.247 . S
O652 Zn649 2.028 . S
O653 C645 1.258 . S
O653 Zn647 2.035 . S
O654 Zn647 2.028 . S
O654 C657 1.247 . S
O655 Zn649 2.035 . S
O655 C657 1.258 . S
C656 O650 1.247 . S
C656 O651 1.258 . S
C657 O654 1.247 . S
C657 O655 1.258 . S
C658 O660 1.247 . S
C658 O662 1.258 . S
C659 O666 1.247 . S
C659 O667 1.258 . S
O660 C658 1.247 . S
O660 Zn661 2.028 . S
Zn661 O660 2.028 . S
Zn661 O665 2.035 . S
Zn661 O667 2.035 . S
Zn661 O668 2.028 . S
O662 C658 1.258 . S
O662 Zn663 2.035 . S
Zn663 O662 2.035 . S
Zn663 O664 2.028 . S
Zn663 O666 2.028 . S
Zn663 O669 2.035 . S
O664 Zn663 2.028 . S
O664 C670 1.247 . S
O665 Zn661 2.035 . S
O665 C670 1.258 . S
O666 C659 1.247 . S
O666 Zn663 2.028 . S
O667 C659 1.258 . S
O667 Zn661 2.035 . S
O668 Zn661 2.028 . S
O668 C671 1.247 . S
O669 Zn663 2.035 . S
O669 C671 1.258 . S
C670 O664 1.247 . S
C670 O665 1.258 . S
C671 O668 1.247 . S
C671 O669 1.258 . S
C672 O674 1.247 . S
C672 O676 1.258 . S
C673 O680 1.247 . S
C673 O681 1.258 . S
O674 C672 1.247 . S
O674 Zn675 2.028 . S
Zn675 O674 2.028 . S
Zn675 O679 2.035 . S
Zn675 O681 2.035 . S
Zn675 O682 2.028 . S
O676 C672 1.258 . S
O676 Zn677 2.035 . S
Zn677 O676 2.035 . S
Zn677 O678 2.028 . S
Zn677 O680 2.028 . S
Zn677 O683 2.035 . S
O678 Zn677 2.028 . S
O678 C684 1.247 . S
O679 Zn675 2.035 . S
O679 C684 1.258 . S
O680 C673 1.247 . S
O680 Zn677 2.028 . S
O681 C673 1.258 . S
O681 Zn675 2.035 . S
O682 Zn675 2.028 . S
O682 C685 1.247 . S
O683 Zn677 2.035 . S
O683 C685 1.258 . S
C684 O678 1.247 . S
C684 O679 1.258 . S
C685 O682 1.247 . S
C685 O683 1.258 . S
C686 O688 1.247 . S
C686 O690 1.258 . S
C687 O694 1.247 . S
C687 O695 1.258 . S
O688 C686 1.247 . S
O688 Zn689 2.028 . S
Zn689 O688 2.028 . S
Zn689 O693 2.035 . S
Zn689 O695 2.035 . S
Zn689 O696 2.028 . S
O690 C686 1.258 . S
O690 Zn691 2.035 . S
Zn691 O690 2.035 . S
Zn691 O692 2.028 . S
Zn691 O694 2.028 . S
Zn691 O697 2.035 . S
O692 Zn691 2.028 . S
O692 C698 1.247 . S
O693 Zn689 2.035 . S
O693 C698 1.258 . S
O694 C687 1.247 . S
O694 Zn691 2.028 . S
O695 C687 1.258 . S
O695 Zn689 2.035 . S
O696 Zn689 2.028 . S
O696 C699 1.247 . S
O697 Zn691 2.035 . S
O697 C699 1.258 . S
C698 O692 1.247 . S
C698 O693 1.258 . S
C699 O696 1.247 . S
C699 O697 1.258 . S
C700 O702 1.247 . S
C700 O704 1.258 . S
C701 O708 1.247 . S
C701 O709 1.258 . S
O702 C700 1.247 . S
O702 Zn703 2.028 . S
Zn703 O702 2.028 . S
Zn703 O707 2.035 . S
Zn703 O709 2.035 . S
Zn703 O710 2.028 1_655 S
O704 C700 1.258 . S
O704 Zn705 2.035 . S
Zn705 O704 2.035 . S
Zn705 O706 2.028 . S
Zn705 O708 2.028 . S
Zn705 O711 2.035 1_655 S
O706 Zn705 2.028 . S
O706 C712 1.247 . S
O707 Zn703 2.035 . S
O707 C712 1.258 . S
O708 C701 1.247 . S
O708 Zn705 2.028 . S
O709 C701 1.258 . S
O709 Zn703 2.035 . S
O710 Zn703 2.028 1_455 S
O710 C713 1.247 . S
O711 Zn705 2.035 1_455 S
O711 C713 1.258 . S
C712 O706 1.247 . S
C712 O707 1.258 . S
C713 O710 1.247 . S
C713 O711 1.258 . S
C714 O716 1.247 . S
C714 O718 1.258 . S
C715 O722 1.247 . S
C715 O723 1.258 . S
O716 C714 1.247 . S
O716 Zn717 2.028 . S
Zn717 O716 2.028 . S
Zn717 O721 2.035 . S
Zn717 O723 2.035 . S
Zn717 O724 2.028 . S
O718 C714 1.258 . S
O718 Zn719 2.035 . S
Zn719 O718 2.035 . S
Zn719 O720 2.028 . S
Zn719 O722 2.028 . S
Zn719 O725 2.035 . S
O720 Zn719 2.028 . S
O720 C726 1.247 . S
O721 Zn717 2.035 . S
O721 C726 1.258 . S
O722 C715 1.247 . S
O722 Zn719 2.028 . S
O723 C715 1.258 . S
O723 Zn717 2.035 . S
O724 Zn717 2.028 . S
O724 C727 1.247 . S
O725 Zn719 2.035 . S
O725 C727 1.258 . S
C726 O720 1.247 . S
C726 O721 1.258 . S
C727 O724 1.247 . S
C727 O725 1.258 . S
C728 O730 1.247 . S
C728 O732 1.258 . S
C729 O736 1.247 . S
C729 O737 1.258 . S
O730 C728 1.247 . S
O730 Zn731 2.028 . S
Zn731 O730 2.028 . S
Zn731 O735 2.035 . S
Zn731 O737 2.035 . S
Zn731 O738 2.028 . S
O732 C728 1.258 . S
O732 Zn733 2.035 . S
Zn733 O732 2.035 . S
Zn733 O734 2.028 . S
Zn733 O736 2.028 . S
Zn733 O739 2.035 . S
O734 Zn733 2.028 . S
O734 C740 1.247 . S
O735 Zn731 2.035 . S
O735 C740 1.258 . S
O736 C729 1.247 . S
O736 Zn733 2.028 . S
O737 C729 1.258 . S
O737 Zn731 2.035 . S
O738 Zn731 2.028 . S
O738 C741 1.247 . S
O739 Zn733 2.035 . S
O739 C741 1.258 . S
C740 O734 1.247 . S
C740 O735 1.258 . S
C741 O738 1.247 . S
C741 O739 1.258 . S
C742 O744 1.247 . S
C742 O746 1.258 . S
C743 O750 1.247 . S
C743 O751 1.258 . S
O744 C742 1.247 . S
O744 Zn745 2.028 . S
Zn745 O744 2.028 . S
Zn745 O749 2.035 . S
Zn745 O751 2.035 . S
Zn745 O752 2.028 . S
O746 C742 1.258 . S
O746 Zn747 2.035 . S
Zn747 O746 2.035 . S
Zn747 O748 2.028 . S
Zn747 O750 2.028 . S
Zn747 O753 2.035 . S
O748 Zn747 2.028 . S
O748 C754 1.247 . S
O749 Zn745 2.035 . S
O749 C754 1.258 . S
O750 C743 1.247 . S
O750 Zn747 2.028 . S
O751 C743 1.258 . S
O751 Zn745 2.035 . S
O752 Zn745 2.028 . S
O752 C755 1.247 . S
O753 Zn747 2.035 . S
O753 C755 1.258 . S
C754 O748 1.247 . S
C754 O749 1.258 . S
C755 O752 1.247 . S
C755 O753 1.258 . S
C756 O758 1.247 . S
C756 O760 1.258 . S
C757 O764 1.247 . S
C757 O765 1.258 . S
O758 C756 1.247 . S
O758 Zn759 2.028 . S
Zn759 O758 2.028 . S
Zn759 O763 2.035 . S
Zn759 O765 2.035 . S
Zn759 O766 2.028 1_655 S
O760 C756 1.258 . S
O760 Zn761 2.035 . S
Zn761 O760 2.035 . S
Zn761 O762 2.028 . S
Zn761 O764 2.028 . S
Zn761 O767 2.035 1_655 S
O762 Zn761 2.028 . S
O762 C768 1.247 . S
O763 Zn759 2.035 . S
O763 C768 1.258 . S
O764 C757 1.247 . S
O764 Zn761 2.028 . S
O765 C757 1.258 . S
O765 Zn759 2.035 . S
O766 Zn759 2.028 1_455 S
O766 C769 1.247 . S
O767 Zn761 2.035 1_455 S
O767 C769 1.258 . S
C768 O762 1.247 . S
C768 O763 1.258 . S
C769 O766 1.247 . S
C769 O767 1.258 . S
C770 O772 1.247 . S
C770 O774 1.258 . S
C771 O778 1.247 . S
C771 O779 1.258 . S
O772 C770 1.247 . S
O772 Zn773 2.028 . S
Zn773 O772 2.028 . S
Zn773 O777 2.035 . S
Zn773 O779 2.035 . S
Zn773 O780 2.028 . S
O774 C770 1.258 . S
O774 Zn775 2.035 . S
Zn775 O774 2.035 . S
Zn775 O776 2.028 . S
Zn775 O778 2.028 . S
Zn775 O781 2.035 . S
O776 Zn775 2.028 . S
O776 C782 1.247 . S
O777 Zn773 2.035 . S
O777 C782 1.258 . S
O778 C771 1.247 . S
O778 Zn775 2.028 . S
O779 C771 1.258 . S
O779 Zn773 2.035 . S
O780 Zn773 2.028 . S
O780 C783 1.247 . S
O781 Zn775 2.035 . S
O781 C783 1.258 . S
C782 O776 1.247 . S
C782 O777 1.258 . S
C783 O780 1.247 . S
C783 O781 1.258 . S
C784 O786 1.247 . S
C784 O788 1.258 . S
C785 O792 1.247 . S
C785 O793 1.258 . S
O786 C784 1.247 . S
O786 Zn787 2.028 . S
Zn787 O786 2.028 . S
Zn787 O791 2.035 . S
Zn787 O793 2.035 . S
Zn787 O794 2.028 . S
O788 C784 1.258 . S
O788 Zn789 2.035 . S
Zn789 O788 2.035 . S
Zn789 O790 2.028 . S
Zn789 O792 2.028 . S
Zn789 O795 2.035 . S
O790 Zn789 2.028 . S
O790 C796 1.247 . S
O791 Zn787 2.035 . S
O791 C796 1.258 . S
O792 C785 1.247 . S
O792 Zn789 2.028 . S
O793 C785 1.258 . S
O793 Zn787 2.035 . S
O794 Zn787 2.028 . S
O794 C797 1.247 . S
O795 Zn789 2.035 . S
O795 C797 1.258 . S
C796 O790 1.247 . S
C796 O791 1.258 . S
C797 O794 1.247 . S
C797 O795 1.258 . S
C798 O800 1.247 . S
C798 O802 1.258 . S
C799 O806 1.247 . S
C799 O807 1.258 . S
O800 C798 1.247 . S
O800 Zn801 2.028 . S
Zn801 O800 2.028 . S
Zn801 O805 2.035 . S
Zn801 O807 2.035 . S
Zn801 O808 2.028 . S
O802 C798 1.258 . S
O802 Zn803 2.035 . S
Zn803 O802 2.035 . S
Zn803 O804 2.028 . S
Zn803 O806 2.028 . S
Zn803 O809 2.035 . S
O804 Zn803 2.028 . S
O804 C810 1.247 . S
O805 Zn801 2.035 . S
O805 C810 1.258 . S
O806 C799 1.247 . S
O806 Zn803 2.028 . S
O807 C799 1.258 . S
O807 Zn801 2.035 . S
O808 Zn801 2.028 . S
O808 C811 1.247 . S
O809 Zn803 2.035 . S
O809 C811 1.258 . S
C810 O804 1.247 . S
C810 O805 1.258 . S
C811 O808 1.247 . S
C811 O809 1.258 . S
C812 O814 1.247 . S
C812 O816 1.258 . S
C813 O820 1.247 1_554 S
C813 O821 1.258 . S
O814 C812 1.247 . S
O814 Zn815 2.028 . S
Zn815 O814 2.028 . S
Zn815 O819 2.035 . S
Zn815 O821 2.035 . S
Zn815 O822 2.028 . S
O816 C812 1.258 . S
O816 Zn817 2.035 . S
Zn817 O816 2.035 . S
Zn817 O818 2.028 . S
Zn817 O820 2.028 1_554 S
Zn817 O823 2.035 . S
O818 Zn817 2.028 . S
O818 C824 1.247 . S
O819 Zn815 2.035 . S
O819 C824 1.258 . S
O820 C813 1.247 1_556 S
O820 Zn817 2.028 1_556 S
O821 C813 1.258 . S
O821 Zn815 2.035 . S
O822 Zn815 2.028 . S
O822 C825 1.247 . S
O823 Zn817 2.035 . S
O823 C825 1.258 . S
C824 O818 1.247 . S
C824 O819 1.258 . S
C825 O822 1.247 . S
C825 O823 1.258 . S
C826 O828 1.247 . S
C826 O830 1.258 . S
C827 O834 1.247 . S
C827 O835 1.258 . S
O828 C826 1.247 . S
O828 Zn829 2.028 . S
Zn829 O828 2.028 . S
Zn829 O833 2.035 . S
Zn829 O835 2.035 . S
Zn829 O836 2.028 . S
O830 C826 1.258 . S
O830 Zn831 2.035 . S
Zn831 O830 2.035 . S
Zn831 O832 2.028 . S
Zn831 O834 2.028 . S
Zn831 O837 2.035 . S
O832 Zn831 2.028 . S
O832 C838 1.247 . S
O833 Zn829 2.035 . S
O833 C838 1.258 . S
O834 C827 1.247 . S
O834 Zn831 2.028 . S
O835 C827 1.258 . S
O835 Zn829 2.035 . S
O836 Zn829 2.028 . S
O836 C839 1.247 . S
O837 Zn831 2.035 . S
O837 C839 1.258 . S
C838 O832 1.247 . S
C838 O833 1.258 . S
C839 O836 1.247 . S
C839 O837 1.258 . S
C840 O842 1.247 . S
C840 O844 1.258 1_556 S
C841 O848 1.247 . S
C841 O849 1.258 . S
O842 C840 1.247 . S
O842 Zn843 2.028 . S
Zn843 O842 2.028 . S
Zn843 O847 2.035 . S
Zn843 O849 2.035 . S
Zn843 O850 2.028 . S
O844 C840 1.258 1_554 S
O844 Zn845 2.035 1_554 S
Zn845 O844 2.035 1_556 S
Zn845 O846 2.028 . S
Zn845 O848 2.028 . S
Zn845 O851 2.035 . S
O846 Zn845 2.028 . S
O846 C852 1.247 . S
O847 Zn843 2.035 . S
O847 C852 1.258 . S
O848 C841 1.247 . S
O848 Zn845 2.028 . S
O849 C841 1.258 . S
O849 Zn843 2.035 . S
O850 Zn843 2.028 . S
O850 C853 1.247 . S
O851 Zn845 2.035 . S
O851 C853 1.258 . S
C852 O846 1.247 . S
C852 O847 1.258 . S
C853 O850 1.247 . S
C853 O851 1.258 . S
C854 O856 1.247 . S
C854 O858 1.258 . S
C855 O862 1.247 . S
C855 O863 1.258 . S
O856 C854 1.247 . S
O856 Zn857 2.028 . S
Zn857 O856 2.028 . S
Zn857 O861 2.035 . S
Zn857 O863 2.035 . S
Zn857 O864 2.028 . S
O858 C854 1.258 . S
O858 Zn859 2.035 . S
Zn859 O858 2.035 . S
Zn859 O860 2.028 . S
Zn859 O862 2.028 . S
Zn859 O865 2.035 . S
O860 Zn859 2.028 . S
O860 C866 1.247 . S
O861 Zn857 2.035 . S
O861 C866 1.258 . S
O862 C855 1.247 . S
O862 Zn859 2.028 . S
O863 C855 1.258 . S
O863 Zn857 2.035 . S
O864 Zn857 2.028 . S
O864 C867 1.247 . S
O865 Zn859 2.035 . S
O865 C867 1.258 . S
C866 O860 1.247 . S
C866 O861 1.258 . S
C867 O864 1.247 . S
C867 O865 1.258 . S
C868 O870 1.247 . S
C868 O872 1.258 . S
C869 O876 1.247 . S
C869 O877 1.258 . S
O870 C868 1.247 . S
O870 Zn871 2.028 . S
Zn871 O870 2.028 . S
Zn871 O875 2.035 . S
Zn871 O877 2.035 . S
Zn871 O878 2.028 . S
O872 C868 1.258 . S
O872 Zn873 2.035 . S
Zn873 O872 2.035 . S
Zn873 O874 2.028 . S
Zn873 O876 2.028 . S
Zn873 O879 2.035 . S
O874 Zn873 2.028 . S
O874 C880 1.247 . S
O875 Zn871 2.035 . S
O875 C880 1.258 . S
O876 C869 1.247 . S
O876 Zn873 2.028 . S
O877 C869 1.258 . S
O877 Zn871 2.035 . S
O878 Zn871 2.028 . S
O878 C881 1.247 . S
O879 Zn873 2.035 . S
O879 C881 1.258 . S
C880 O874 1.247 . S
C880 O875 1.258 . S
C881 O878 1.247 . S
C881 O879 1.258 . S
C882 O884 1.247 . S
C882 O886 1.258 . S
C883 O890 1.247 . S
C883 O891 1.258 . S
O884 C882 1.247 . S
O884 Zn885 2.028 . S
Zn885 O884 2.028 . S
Zn885 O889 2.035 . S
Zn885 O891 2.035 . S
Zn885 O892 2.028 . S
O886 C882 1.258 . S
O886 Zn887 2.035 . S
Zn887 O886 2.035 . S
Zn887 O888 2.028 . S
Zn887 O890 2.028 . S
Zn887 O893 2.035 . S
O888 Zn887 2.028 . S
O888 C894 1.247 . S
O889 Zn885 2.035 . S
O889 C894 1.258 . S
O890 C883 1.247 . S
O890 Zn887 2.028 . S
O891 C883 1.258 . S
O891 Zn885 2.035 . S
O892 Zn885 2.028 . S
O892 C895 1.247 . S
O893 Zn887 2.035 . S
O893 C895 1.258 . S
C894 O888 1.247 . S
C894 O889 1.258 . S
C895 O892 1.247 . S
C895 O893 1.258 . S
C896 O898 1.247 . S
C896 O900 1.258 . S
C897 O904 1.247 . S
C897 O905 1.258 . S
O898 C896 1.247 . S
O898 Zn899 2.028 . S
Zn899 O898 2.028 . S
Zn899 O903 2.035 . S
Zn899 O905 2.035 . S
Zn899 O906 2.028 . S
O900 C896 1.258 . S
O900 Zn901 2.035 . S
Zn901 O900 2.035 . S
Zn901 O902 2.028 . S
Zn901 O904 2.028 . S
Zn901 O907 2.035 . S
O902 Zn901 2.028 . S
O902 C908 1.247 . S
O903 Zn899 2.035 . S
O903 C908 1.258 . S
O904 C897 1.247 . S
O904 Zn901 2.028 . S
O905 C897 1.258 . S
O905 Zn899 2.035 . S
O906 Zn899 2.028 . S
O906 C909 1.247 . S
O907 Zn901 2.035 . S
O907 C909 1.258 . S
C908 O902 1.247 . S
C908 O903 1.258 . S
C909 O906 1.247 . S
C909 O907 1.258 . S
C910 O912 1.247 . S
C910 O914 1.258 . S
C911 O918 1.247 . S
C911 O919 1.258 . S
O912 C910 1.247 . S
O912 Zn913 2.028 . S
Zn913 O912 2.028 . S
Zn913 O917 2.035 1_455 S
Zn913 O919 2.035 . S
Zn913 O920 2.028 . S
O914 C910 1.258 . S
O914 Zn915 2.035 . S
Zn915 O914 2.035 . S
Zn915 O916 2.028 . S
Zn915 O918 2.028 . S
Zn915 O921 2.035 . S
O916 Zn915 2.028 . S
O916 C922 1.247 . S
O917 Zn913 2.035 1_655 S
O917 C922 1.258 1_655 S
O918 C911 1.247 . S
O918 Zn915 2.028 . S
O919 C911 1.258 . S
O919 Zn913 2.035 . S
O920 Zn913 2.028 . S
O920 C923 1.247 . S
O921 Zn915 2.035 . S
O921 C923 1.258 . S
C922 O916 1.247 . S
C922 O917 1.258 1_455 S
C923 O920 1.247 . S
C923 O921 1.258 . S
C924 O926 1.247 . S
C924 O928 1.258 . S
C925 O932 1.247 . S
C925 O933 1.258 . S
O926 C924 1.247 . S
O926 Zn927 2.028 . S
Zn927 O926 2.028 . S
Zn927 O931 2.035 . S
Zn927 O933 2.035 . S
Zn927 O934 2.028 . S
O928 C924 1.258 . S
O928 Zn929 2.035 . S
Zn929 O928 2.035 . S
Zn929 O930 2.028 . S
Zn929 O932 2.028 . S
Zn929 O935 2.035 . S
O930 Zn929 2.028 . S
O930 C936 1.247 . S
O931 Zn927 2.035 . S
O931 C936 1.258 . S
O932 C925 1.247 . S
O932 Zn929 2.028 . S
O933 C925 1.258 . S
O933 Zn927 2.035 . S
O934 Zn927 2.028 . S
O934 C937 1.247 . S
O935 Zn929 2.035 . S
O935 C937 1.258 . S
C936 O930 1.247 . S
C936 O931 1.258 . S
C937 O934 1.247 . S
C937 O935 1.258 . S
C938 O940 1.247 . S
C938 O942 1.258 . S
C939 O946 1.247 . S
C939 O947 1.258 . S
O940 C938 1.247 . S
O940 Zn941 2.028 . S
Zn941 O940 2.028 . S
Zn941 O945 2.035 1_556 S
Zn941 O947 2.035 . S
Zn941 O948 2.028 . S
O942 C938 1.258 . S
O942 Zn943 2.035 . S
Zn943 O942 2.035 . S
Zn943 O944 2.028 1_556 S
Zn943 O946 2.028 . S
Zn943 O949 2.035 . S
O944 Zn943 2.028 1_554 S
O944 C950 1.247 . S
O945 Zn941 2.035 1_554 S
O945 C950 1.258 . S
O946 C939 1.247 . S
O946 Zn943 2.028 . S
O947 C939 1.258 . S
O947 Zn941 2.035 . S
O948 Zn941 2.028 . S
O948 C951 1.247 . S
O949 Zn943 2.035 . S
O949 C951 1.258 . S
C950 O944 1.247 . S
C950 O945 1.258 . S
C951 O948 1.247 . S
C951 O949 1.258 . S
C952 O954 1.247 . S
C952 O956 1.258 . S
C953 O960 1.247 . S
C953 O961 1.258 . S
O954 C952 1.247 . S
O954 Zn955 2.028 . S
Zn955 O954 2.028 . S
Zn955 O959 2.035 . S
Zn955 O961 2.035 . S
Zn955 O962 2.028 . S
O956 C952 1.258 . S
O956 Zn957 2.035 . S
Zn957 O956 2.035 . S
Zn957 O958 2.028 . S
Zn957 O960 2.028 . S
Zn957 O963 2.035 . S
O958 Zn957 2.028 . S
O958 C964 1.247 . S
O959 Zn955 2.035 . S
O959 C964 1.258 . S
O960 C953 1.247 . S
O960 Zn957 2.028 . S
O961 C953 1.258 . S
O961 Zn955 2.035 . S
O962 Zn955 2.028 . S
O962 C965 1.247 . S
O963 Zn957 2.035 . S
O963 C965 1.258 . S
C964 O958 1.247 . S
C964 O959 1.258 . S
C965 O962 1.247 . S
C965 O963 1.258 . S
C966 O968 1.247 . S
C966 O970 1.258 . S
C967 O974 1.247 . S
C967 O975 1.258 . S
O968 C966 1.247 . S
O968 Zn969 2.028 1_556 S
Zn969 O968 2.028 1_554 S
Zn969 O973 2.035 1_655 S
Zn969 O975 2.035 . S
Zn969 O976 2.028 . S
O970 C966 1.258 . S
O970 Zn971 2.035 1_556 S
Zn971 O970 2.035 1_554 S
Zn971 O972 2.028 . S
Zn971 O974 2.028 . S
Zn971 O977 2.035 . S
O972 Zn971 2.028 . S
O972 C978 1.247 . S
O973 Zn969 2.035 1_455 S
O973 C978 1.258 1_455 S
O974 C967 1.247 . S
O974 Zn971 2.028 . S
O975 C967 1.258 . S
O975 Zn969 2.035 . S
O976 Zn969 2.028 . S
O976 C979 1.247 . S
O977 Zn971 2.035 . S
O977 C979 1.258 . S
C978 O972 1.247 . S
C978 O973 1.258 1_655 S
C979 O976 1.247 . S
C979 O977 1.258 . S
C980 O982 1.247 . S
C980 O984 1.258 . S
C981 O988 1.247 . S
C981 O989 1.258 . S
O982 C980 1.247 . S
O982 Zn983 2.028 . S
Zn983 O982 2.028 . S
Zn983 O987 2.035 . S
Zn983 O989 2.035 . S
Zn983 O990 2.028 . S
O984 C980 1.258 . S
O984 Zn985 2.035 . S
Zn985 O984 2.035 . S
Zn985 O986 2.028 . S
Zn985 O988 2.028 . S
Zn985 O991 2.035 . S
O986 Zn985 2.028 . S
O986 C992 1.247 . S
O987 Zn983 2.035 . S
O987 C992 1.258 . S
O988 C981 1.247 . S
O988 Zn985 2.028 . S
O989 C981 1.258 . S
O989 Zn983 2.035 . S
O990 Zn983 2.028 . S
O990 C993 1.247 . S
O991 Zn985 2.035 . S
O991 C993 1.258 . S
C992 O986 1.247 . S
C992 O987 1.258 . S
C993 O990 1.247 . S
C993 O991 1.258 . S
C994 O996 1.247 . S
C994 O998 1.258 . S
C995 O1002 1.247 . S
C995 O1003 1.258 . S
O996 C994 1.247 . S
O996 Zn997 2.028 . S
Zn997 O996 2.028 . S
Zn997 O1001 2.035 . S
Zn997 O1003 2.035 . S
Zn997 O1004 2.028 . S
O998 C994 1.258 . S
O998 Zn999 2.035 . S
Zn999 O998 2.035 . S
Zn999 O1000 2.028 . S
Zn999 O1002 2.028 . S
Zn999 O1005 2.035 . S
O1000 Zn999 2.028 . S
O1000 C1006 1.247 . S
O1001 Zn997 2.035 . S
O1001 C1006 1.258 . S
O1002 C995 1.247 . S
O1002 Zn999 2.028 . S
O1003 C995 1.258 . S
O1003 Zn997 2.035 . S
O1004 Zn997 2.028 . S
O1004 C1007 1.247 . S
O1005 Zn999 2.035 . S
O1005 C1007 1.258 . S
C1006 O1000 1.247 . S
C1006 O1001 1.258 . S
C1007 O1004 1.247 . S
C1007 O1005 1.258 . S
C1008 O1010 1.247 . S
C1008 O1012 1.258 . S
C1009 O1016 1.247 . S
C1009 O1017 1.258 . S
O1010 C1008 1.247 . S
O1010 Zn1011 2.028 . S
Zn1011 O1010 2.028 . S
Zn1011 O1015 2.035 . S
Zn1011 O1017 2.035 . S
Zn1011 O1018 2.028 . S
O1012 C1008 1.258 . S
O1012 Zn1013 2.035 . S
Zn1013 O1012 2.035 . S
Zn1013 O1014 2.028 . S
Zn1013 O1016 2.028 . S
Zn1013 O1019 2.035 . S
O1014 Zn1013 2.028 . S
O1014 C1020 1.247 . S
O1015 Zn1011 2.035 . S
O1015 C1020 1.258 . S
O1016 C1009 1.247 . S
O1016 Zn1013 2.028 . S
O1017 C1009 1.258 . S
O1017 Zn1011 2.035 . S
O1018 Zn1011 2.028 . S
O1018 C1021 1.247 . S
O1019 Zn1013 2.035 . S
O1019 C1021 1.258 . S
C1020 O1014 1.247 . S
C1020 O1015 1.258 . S
C1021 O1018 1.247 . S
C1021 O1019 1.258 . S
C1022 O1024 1.247 . S
C1022 O1026 1.258 . S
C1023 O1030 1.247 . S
C1023 O1031 1.258 . S
O1024 C1022 1.247 . S
O1024 Zn1025 2.028 . S
Zn1025 O1024 2.028 . S
Zn1025 O1029 2.035 . S
Zn1025 O1031 2.035 . S
Zn1025 O1032 2.028 . S
O1026 C1022 1.258 . S
O1026 Zn1027 2.035 . S
Zn1027 O1026 2.035 . S
Zn1027 O1028 2.028 . S
Zn1027 O1030 2.028 . S
Zn1027 O1033 2.035 . S
O1028 Zn1027 2.028 . S
O1028 C1034 1.247 . S
O1029 Zn1025 2.035 . S
O1029 C1034 1.258 . S
O1030 C1023 1.247 . S
O1030 Zn1027 2.028 . S
O1031 C1023 1.258 . S
O1031 Zn1025 2.035 . S
O1032 Zn1025 2.028 . S
O1032 C1035 1.247 . S
O1033 Zn1027 2.035 . S
O1033 C1035 1.258 . S
C1034 O1028 1.247 . S
C1034 O1029 1.258 . S
C1035 O1032 1.247 . S
C1035 O1033 1.258 . S
C1036 O1038 1.247 . S
C1036 O1040 1.258 . S
C1037 O1044 1.247 . S
C1037 O1045 1.258 . S
O1038 C1036 1.247 . S
O1038 Zn1039 2.028 1_655 S
Zn1039 O1038 2.028 1_455 S
Zn1039 O1043 2.035 . S
Zn1039 O1045 2.035 . S
Zn1039 O1046 2.028 . S
O1040 C1036 1.258 . S
O1040 Zn1041 2.035 1_655 S
Zn1041 O1040 2.035 1_455 S
Zn1041 O1042 2.028 . S
Zn1041 O1044 2.028 . S
Zn1041 O1047 2.035 . S
O1042 Zn1041 2.028 . S
O1042 C1048 1.247 . S
O1043 Zn1039 2.035 . S
O1043 C1048 1.258 . S
O1044 C1037 1.247 . S
O1044 Zn1041 2.028 . S
O1045 C1037 1.258 . S
O1045 Zn1039 2.035 . S
O1046 Zn1039 2.028 . S
O1046 C1049 1.247 . S
O1047 Zn1041 2.035 . S
O1047 C1049 1.258 . S
C1048 O1042 1.247 . S
C1048 O1043 1.258 . S
C1049 O1046 1.247 . S
C1049 O1047 1.258 . S
C1050 O1052 1.247 . S
C1050 O1054 1.258 . S
C1051 O1058 1.247 . S
C1051 O1059 1.258 . S
O1052 C1050 1.247 . S
O1052 Zn1053 2.028 . S
Zn1053 O1052 2.028 . S
Zn1053 O1057 2.035 . S
Zn1053 O1059 2.035 . S
Zn1053 O1060 2.028 . S
O1054 C1050 1.258 . S
O1054 Zn1055 2.035 . S
Zn1055 O1054 2.035 . S
Zn1055 O1056 2.028 . S
Zn1055 O1058 2.028 . S
Zn1055 O1061 2.035 . S
O1056 Zn1055 2.028 . S
O1056 C1062 1.247 . S
O1057 Zn1053 2.035 . S
O1057 C1062 1.258 . S
O1058 C1051 1.247 . S
O1058 Zn1055 2.028 . S
O1059 C1051 1.258 . S
O1059 Zn1053 2.035 . S
O1060 Zn1053 2.028 . S
O1060 C1063 1.247 . S
O1061 Zn1055 2.035 . S
O1061 C1063 1.258 . S
C1062 O1056 1.247 . S
C1062 O1057 1.258 . S
C1063 O1060 1.247 . S
C1063 O1061 1.258 . S
C1064 O1066 1.247 . S
C1064 O1068 1.258 . S
C1065 O1072 1.247 . S
C1065 O1073 1.258 . S
O1066 C1064 1.247 . S
O1066 Zn1067 2.028 . S
Zn1067 O1066 2.028 . S
Zn1067 O1071 2.035 . S
Zn1067 O1073 2.035 . S
Zn1067 O1074 2.028 . S
O1068 C1064 1.258 . S
O1068 Zn1069 2.035 . S
Zn1069 O1068 2.035 . S
Zn1069 O1070 2.028 . S
Zn1069 O1072 2.028 . S
Zn1069 O1075 2.035 . S
O1070 Zn1069 2.028 . S
O1070 C1076 1.247 . S
O1071 Zn1067 2.035 . S
O1071 C1076 1.258 . S
O1072 C1065 1.247 . S
O1072 Zn1069 2.028 . S
O1073 C1065 1.258 . S
O1073 Zn1067 2.035 . S
O1074 Zn1067 2.028 . S
O1074 C1077 1.247 . S
O1075 Zn1069 2.035 . S
O1075 C1077 1.258 . S
C1076 O1070 1.247 . S
C1076 O1071 1.258 . S
C1077 O1074 1.247 . S
C1077 O1075 1.258 . S
C1078 O1080 1.247 . S
C1078 O1082 1.258 . S
C1079 O1086 1.247 . S
C1079 O1087 1.258 . S
O1080 C1078 1.247 . S
O1080 Zn1081 2.028 . S
Zn1081 O1080 2.028 . S
Zn1081 O1085 2.035 . S
Zn1081 O1087 2.035 . S
Zn1081 O1088 2.028 . S
O1082 C1078 1.258 . S
O1082 Zn1083 2.035 . S
Zn1083 O1082 2.035 . S
Zn1083 O1084 2.028 . S
Zn1083 O1086 2.028 . S
Zn1083 O1089 2.035 . S
O1084 Zn1083 2.028 . S
O1084 C1090 1.247 . S
O1085 Zn1081 2.035 . S
O1085 C1090 1.258 . S
O1086 C1079 1.247 . S
O1086 Zn1083 2.028 . S
O1087 C1079 1.258 . S
O1087 Zn1081 2.035 . S
O1088 Zn1081 2.028 . S
O1088 C1091 1.247 . S
O1089 Zn1083 2.035 . S
O1089 C1091 1.258 . S
C1090 O1084 1.247 . S
C1090 O1085 1.258 . S
C1091 O1088 1.247 . S
C1091 O1089 1.258 . S
C1092 O1094 1.247 . S
C1092 O1096 1.258 . S
C1093 O1100 1.247 . S
C1093 O1101 1.258 . S
O1094 C1092 1.247 . S
O1094 Zn1095 2.028 . S
Zn1095 O1094 2.028 . S
Zn1095 O1099 2.035 . S
Zn1095 O1101 2.035 . S
Zn1095 O1102 2.028 1_455 S
O1096 C1092 1.258 . S
O1096 Zn1097 2.035 . S
Zn1097 O1096 2.035 . S
Zn1097 O1098 2.028 . S
Zn1097 O1100 2.028 . S
Zn1097 O1103 2.035 1_455 S
O1098 Zn1097 2.028 . S
O1098 C1104 1.247 . S
O1099 Zn1095 2.035 . S
O1099 C1104 1.258 . S
O1100 C1093 1.247 . S
O1100 Zn1097 2.028 . S
O1101 C1093 1.258 . S
O1101 Zn1095 2.035 . S
O1102 Zn1095 2.028 1_655 S
O1102 C1105 1.247 . S
O1103 Zn1097 2.035 1_655 S
O1103 C1105 1.258 . S
C1104 O1098 1.247 . S
C1104 O1099 1.258 . S
C1105 O1102 1.247 . S
C1105 O1103 1.258 . S
C1106 O1108 1.247 . S
C1106 O1110 1.258 . S
C1107 O1114 1.247 . S
C1107 O1115 1.258 . S
O1108 C1106 1.247 . S
O1108 Zn1109 2.028 . S
Zn1109 O1108 2.028 . S
Zn1109 O1113 2.035 . S
Zn1109 O1115 2.035 . S
Zn1109 O1116 2.028 . S
O1110 C1106 1.258 . S
O1110 Zn1111 2.035 . S
Zn1111 O1110 2.035 . S
Zn1111 O1112 2.028 . S
Zn1111 O1114 2.028 . S
Zn1111 O1117 2.035 . S
O1112 Zn1111 2.028 . S
O1112 C1118 1.247 . S
O1113 Zn1109 2.035 . S
O1113 C1118 1.258 . S
O1114 C1107 1.247 . S
O1114 Zn1111 2.028 . S
O1115 C1107 1.258 . S
O1115 Zn1109 2.035 . S
O1116 Zn1109 2.028 . S
O1116 C1119 1.247 . S
O1117 Zn1111 2.035 . S
O1117 C1119 1.258 . S
C1118 O1112 1.247 . S
C1118 O1113 1.258 . S
C1119 O1116 1.247 . S
C1119 O1117 1.258 . S
C1120 O1122 1.247 . S
C1120 O1124 1.258 . S
C1121 O1128 1.247 . S
C1121 O1129 1.258 . S
O1122 C1120 1.247 . S
O1122 Zn1123 2.028 . S
Zn1123 O1122 2.028 . S
Zn1123 O1127 2.035 . S
Zn1123 O1129 2.035 . S
Zn1123 O1130 2.028 . S
O1124 C1120 1.258 . S
O1124 Zn1125 2.035 . S
Zn1125 O1124 2.035 . S
Zn1125 O1126 2.028 . S
Zn1125 O1128 2.028 . S
Zn1125 O1131 2.035 . S
O1126 Zn1125 2.028 . S
O1126 C1132 1.247 . S
O1127 Zn1123 2.035 . S
O1127 C1132 1.258 . S
O1128 C1121 1.247 . S
O1128 Zn1125 2.028 . S
O1129 C1121 1.258 . S
O1129 Zn1123 2.035 . S
O1130 Zn1123 2.028 . S
O1130 C1133 1.247 . S
O1131 Zn1125 2.035 . S
O1131 C1133 1.258 . S
C1132 O1126 1.247 . S
C1132 O1127 1.258 . S
C1133 O1130 1.247 . S
C1133 O1131 1.258 . S
C1134 O1136 1.247 . S
C1134 O1138 1.258 . S
C1135 O1142 1.247 . S
C1135 O1143 1.258 . S
O1136 C1134 1.247 . S
O1136 Zn1137 2.028 . S
Zn1137 O1136 2.028 . S
Zn1137 O1141 2.035 . S
Zn1137 O1143 2.035 . S
Zn1137 O1144 2.028 . S
O1138 C1134 1.258 . S
O1138 Zn1139 2.035 . S
Zn1139 O1138 2.035 . S
Zn1139 O1140 2.028 . S
Zn1139 O1142 2.028 . S
Zn1139 O1145 2.035 . S
O1140 Zn1139 2.028 . S
O1140 C1146 1.247 . S
O1141 Zn1137 2.035 . S
O1141 C1146 1.258 . S
O1142 C1135 1.247 . S
O1142 Zn1139 2.028 . S
O1143 C1135 1.258 . S
O1143 Zn1137 2.035 . S
O1144 Zn1137 2.028 . S
O1144 C1147 1.247 . S
O1145 Zn1139 2.035 . S
O1145 C1147 1.258 . S
C1146 O1140 1.247 . S
C1146 O1141 1.258 . S
C1147 O1144 1.247 . S
C1147 O1145 1.258 . S
C1148 O1150 1.247 . S
C1148 O1152 1.258 . S
C1149 O1156 1.247 . S
C1149 O1157 1.258 . S
O1150 C1148 1.247 . S
O1150 Zn1151 2.028 . S
Zn1151 O1150 2.028 . S
Zn1151 O1155 2.035 . S
Zn1151 O1157 2.035 . S
Zn1151 O1158 2.028 . S
O1152 C1148 1.258 . S
O1152 Zn1153 2.035 . S
Zn1153 O1152 2.035 . S
Zn1153 O1154 2.028 . S
Zn1153 O1156 2.028 . S
Zn1153 O1159 2.035 1_556 S
O1154 Zn1153 2.028 . S
O1154 C1160 1.247 . S
O1155 Zn1151 2.035 . S
O1155 C1160 1.258 . S
O1156 C1149 1.247 . S
O1156 Zn1153 2.028 . S
O1157 C1149 1.258 . S
O1157 Zn1151 2.035 . S
O1158 Zn1151 2.028 . S
O1158 C1161 1.247 . S
O1159 Zn1153 2.035 1_554 S
O1159 C1161 1.258 1_554 S
C1160 O1154 1.247 . S
C1160 O1155 1.258 . S
C1161 O1158 1.247 . S
C1161 O1159 1.258 1_556 S
C1162 O1164 1.247 . S
C1162 O1166 1.258 . S
C1163 O1170 1.247 . S
C1163 O1171 1.258 . S
O1164 C1162 1.247 . S
O1164 Zn1165 2.028 . S
Zn1165 O1164 2.028 . S
Zn1165 O1169 2.035 . S
Zn1165 O1171 2.035 . S
Zn1165 O1172 2.028 . S
O1166 C1162 1.258 . S
O1166 Zn1167 2.035 . S
Zn1167 O1166 2.035 . S
Zn1167 O1168 2.028 . S
Zn1167 O1170 2.028 . S
Zn1167 O1173 2.035 . S
O1168 Zn1167 2.028 . S
O1168 C1174 1.247 . S
O1169 Zn1165 2.035 . S
O1169 C1174 1.258 . S
O1170 C1163 1.247 . S
O1170 Zn1167 2.028 . S
O1171 C1163 1.258 . S
O1171 Zn1165 2.035 . S
O1172 Zn1165 2.028 . S
O1172 C1175 1.247 . S
O1173 Zn1167 2.035 . S
O1173 C1175 1.258 . S
C1174 O1168 1.247 . S
C1174 O1169 1.258 . S
C1175 O1172 1.247 . S
C1175 O1173 1.258 . S
C1176 O1178 1.247 . S
C1176 O1180 1.258 . S
C1177 O1184 1.247 . S
C1177 O1185 1.258 . S
O1178 C1176 1.247 . S
O1178 Zn1179 2.028 . S
Zn1179 O1178 2.028 . S
Zn1179 O1183 2.035 . S
Zn1179 O1185 2.035 . S
Zn1179 O1186 2.028 . S
O1180 C1176 1.258 . S
O1180 Zn1181 2.035 . S
Zn1181 O1180 2.035 . S
Zn1181 O1182 2.028 . S
Zn1181 O1184 2.028 . S
Zn1181 O1187 2.035 1_554 S
O1182 Zn1181 2.028 . S
O1182 C1188 1.247 . S
O1183 Zn1179 2.035 . S
O1183 C1188 1.258 . S
O1184 C1177 1.247 . S
O1184 Zn1181 2.028 . S
O1185 C1177 1.258 . S
O1185 Zn1179 2.035 . S
O1186 Zn1179 2.028 . S
O1186 C1189 1.247 . S
O1187 Zn1181 2.035 1_556 S
O1187 C1189 1.258 1_556 S
C1188 O1182 1.247 . S
C1188 O1183 1.258 . S
C1189 O1186 1.247 . S
C1189 O1187 1.258 1_554 S
C1190 O1192 1.247 . S
C1190 O1194 1.258 . S
C1191 O1198 1.247 . S
C1191 O1199 1.258 . S
O1192 C1190 1.247 . S
O1192 Zn1193 2.028 . S
Zn1193 O1192 2.028 . S
Zn1193 O1197 2.035 . S
Zn1193 O1199 2.035 . S
Zn1193 O1200 2.028 . S
O1194 C1190 1.258 . S
O1194 Zn1195 2.035 . S
Zn1195 O1194 2.035 . S
Zn1195 O1196 2.028 . S
Zn1195 O1198 2.028 . S
Zn1195 O1201 2.035 . S
O1196 Zn1195 2.028 . S
O1196 C1202 1.247 . S
O1197 Zn1193 2.035 . S
O1197 C1202 1.258 . S
O1198 C1191 1.247 . S
O1198 Zn1195 2.028 . S
O1199 C1191 1.258 . S
O1199 Zn1193 2.035 . S
O1200 Zn1193 2.028 . S
O1200 C1203 1.247 . S
O1201 Zn1195 2.035 . S
O1201 C1203 1.258 . S
C1202 O1196 1.247 . S
C1202 O1197 1.258 . S
C1203 O1200 1.247 . S
C1203 O1201 1.258 . S
C1204 O1206 1.247 . S
C1204 O1208 1.258 . S
C1205 O1212 1.247 . S
C1205 O1213 1.258 . S
O1206 C1204 1.247 . S
O1206 Zn1207 2.028 . S
Zn1207 O1206 2.028 . S
Zn1207 O1211 2.035 . S
Zn1207 O1213 2.035 . S
Zn1207 O1214 2.028 . S
O1208 C1204 1.258 . S
O1208 Zn1209 2.035 . S
Zn1209 O1208 2.035 . S
Zn1209 O1210 2.028 . S
Zn1209 O1212 2.028 . S
Zn1209 O1215 2.035 . S
O1210 Zn1209 2.028 . S
O1210 C1216 1.247 . S
O1211 Zn1207 2.035 . S
O1211 C1216 1.258 . S
O1212 C1205 1.247 . S
O1212 Zn1209 2.028 . S
O1213 C1205 1.258 . S
O1213 Zn1207 2.035 . S
O1214 Zn1207 2.028 . S
O1214 C1217 1.247 . S
O1215 Zn1209 2.035 . S
O1215 C1217 1.258 . S
C1216 O1210 1.247 . S
C1216 O1211 1.258 . S
C1217 O1214 1.247 . S
C1217 O1215 1.258 . S
C1218 O1220 1.247 . S
C1218 O1222 1.258 . S
C1219 O1226 1.247 . S
C1219 O1227 1.258 . S
O1220 C1218 1.247 . S
O1220 Zn1221 2.028 . S
Zn1221 O1220 2.028 . S
Zn1221 O1225 2.035 . S
Zn1221 O1227 2.035 . S
Zn1221 O1228 2.028 . S
O1222 C1218 1.258 . S
O1222 Zn1223 2.035 . S
Zn1223 O1222 2.035 . S
Zn1223 O1224 2.028 . S
Zn1223 O1226 2.028 . S
Zn1223 O1229 2.035 . S
O1224 Zn1223 2.028 . S
O1224 C1230 1.247 . S
O1225 Zn1221 2.035 . S
O1225 C1230 1.258 . S
O1226 C1219 1.247 . S
O1226 Zn1223 2.028 . S
O1227 C1219 1.258 . S
O1227 Zn1221 2.035 . S
O1228 Zn1221 2.028 . S
O1228 C1231 1.247 . S
O1229 Zn1223 2.035 . S
O1229 C1231 1.258 . S
C1230 O1224 1.247 . S
C1230 O1225 1.258 . S
C1231 O1228 1.247 . S
C1231 O1229 1.258 . S
C1232 O1234 1.247 . S
C1232 O1236 1.258 . S
C1233 O1240 1.247 . S
C1233 O1241 1.258 . S
O1234 C1232 1.247 . S
O1234 Zn1235 2.028 . S
Zn1235 O1234 2.028 . S
Zn1235 O1239 2.035 . S
Zn1235 O1241 2.035 . S
Zn1235 O1242 2.028 . S
O1236 C1232 1.258 . S
O1236 Zn1237 2.035 . S
Zn1237 O1236 2.035 . S
Zn1237 O1238 2.028 . S
Zn1237 O1240 2.028 . S
Zn1237 O1243 2.035 . S
O1238 Zn1237 2.028 . S
O1238 C1244 1.247 . S
O1239 Zn1235 2.035 . S
O1239 C1244 1.258 . S
O1240 C1233 1.247 . S
O1240 Zn1237 2.028 . S
O1241 C1233 1.258 . S
O1241 Zn1235 2.035 . S
O1242 Zn1235 2.028 . S
O1242 C1245 1.247 . S
O1243 Zn1237 2.035 . S
O1243 C1245 1.258 . S
C1244 O1238 1.247 . S
C1244 O1239 1.258 . S
C1245 O1242 1.247 . S
C1245 O1243 1.258 . S
C1246 O1248 1.247 . S
C1246 O1250 1.258 . S
C1247 O1254 1.247 . S
C1247 O1255 1.258 1_655 S
O1248 C1246 1.247 . S
O1248 Zn1249 2.028 . S
Zn1249 O1248 2.028 . S
Zn1249 O1253 2.035 . S
Zn1249 O1255 2.035 1_655 S
Zn1249 O1256 2.028 . S
O1250 C1246 1.258 . S
O1250 Zn1251 2.035 . S
Zn1251 O1250 2.035 . S
Zn1251 O1252 2.028 . S
Zn1251 O1254 2.028 . S
Zn1251 O1257 2.035 . S
O1252 Zn1251 2.028 . S
O1252 C1258 1.247 . S
O1253 Zn1249 2.035 . S
O1253 C1258 1.258 . S
O1254 C1247 1.247 . S
O1254 Zn1251 2.028 . S
O1255 C1247 1.258 1_455 S
O1255 Zn1249 2.035 1_455 S
O1256 Zn1249 2.028 . S
O1256 C1259 1.247 . S
O1257 Zn1251 2.035 . S
O1257 C1259 1.258 . S
C1258 O1252 1.247 . S
C1258 O1253 1.258 . S
C1259 O1256 1.247 . S
C1259 O1257 1.258 . S
C1260 O1262 1.247 . S
C1260 O1264 1.258 . S
C1261 O1268 1.247 . S
C1261 O1269 1.258 . S
O1262 C1260 1.247 . S
O1262 Zn1263 2.028 . S
Zn1263 O1262 2.028 . S
Zn1263 O1267 2.035 . S
Zn1263 O1269 2.035 . S
Zn1263 O1270 2.028 . S
O1264 C1260 1.258 . S
O1264 Zn1265 2.035 . S
Zn1265 O1264 2.035 . S
Zn1265 O1266 2.028 . S
Zn1265 O1268 2.028 . S
Zn1265 O1271 2.035 . S
O1266 Zn1265 2.028 . S
O1266 C1272 1.247 . S
O1267 Zn1263 2.035 . S
O1267 C1272 1.258 . S
O1268 C1261 1.247 . S
O1268 Zn1265 2.028 . S
O1269 C1261 1.258 . S
O1269 Zn1263 2.035 . S
O1270 Zn1263 2.028 . S
O1270 C1273 1.247 . S
O1271 Zn1265 2.035 . S
O1271 C1273 1.258 . S
C1272 O1266 1.247 . S
C1272 O1267 1.258 . S
C1273 O1270 1.247 . S
C1273 O1271 1.258 . S
C1274 O1276 1.247 . S
C1274 O1278 1.258 . S
C1275 O1282 1.247 . S
C1275 O1283 1.258 . S
O1276 C1274 1.247 . S
O1276 Zn1277 2.028 1_556 S
Zn1277 O1276 2.028 1_554 S
Zn1277 O1281 2.035 . S
Zn1277 O1283 2.035 . S
Zn1277 O1284 2.028 . S
O1278 C1274 1.258 . S
O1278 Zn1279 2.035 1_556 S
Zn1279 O1278 2.035 1_554 S
Zn1279 O1280 2.028 . S
Zn1279 O1282 2.028 . S
Zn1279 O1285 2.035 . S
O1280 Zn1279 2.028 . S
O1280 C1286 1.247 . S
O1281 Zn1277 2.035 . S
O1281 C1286 1.258 . S
O1282 C1275 1.247 . S
O1282 Zn1279 2.028 . S
O1283 C1275 1.258 . S
O1283 Zn1277 2.035 . S
O1284 Zn1277 2.028 . S
O1284 C1287 1.247 . S
O1285 Zn1279 2.035 . S
O1285 C1287 1.258 . S
C1286 O1280 1.247 . S
C1286 O1281 1.258 . S
C1287 O1284 1.247 . S
C1287 O1285 1.258 . S
C1288 O1290 1.247 . S
C1288 O1292 1.258 . S
C1289 O1296 1.247 . S
C1289 O1297 1.258 . S
O1290 C1288 1.247 . S
O1290 Zn1291 2.028 . S
Zn1291 O1290 2.028 . S
Zn1291 O1295 2.035 . S
Zn1291 O1297 2.035 . S
Zn1291 O1298 2.028 . S
O1292 C1288 1.258 . S
O1292 Zn1293 2.035 . S
Zn1293 O1292 2.035 . S
Zn1293 O1294 2.028 . S
Zn1293 O1296 2.028 . S
Zn1293 O1299 2.035 . S
O1294 Zn1293 2.028 . S
O1294 C1300 1.247 . S
O1295 Zn1291 2.035 . S
O1295 C1300 1.258 . S
O1296 C1289 1.247 . S
O1296 Zn1293 2.028 . S
O1297 C1289 1.258 . S
O1297 Zn1291 2.035 . S
O1298 Zn1291 2.028 . S
O1298 C1301 1.247 . S
O1299 Zn1293 2.035 . S
O1299 C1301 1.258 . S
C1300 O1294 1.247 . S
C1300 O1295 1.258 . S
C1301 O1298 1.247 . S
C1301 O1299 1.258 . S
C1302 O1304 1.247 . S
C1302 O1306 1.258 . S
C1303 O1310 1.247 . S
C1303 O1311 1.258 . S
O1304 C1302 1.247 . S
O1304 Zn1305 2.028 1_554 S
Zn1305 O1304 2.028 1_556 S
Zn1305 O1309 2.035 . S
Zn1305 O1311 2.035 . S
Zn1305 O1312 2.028 . S
O1306 C1302 1.258 . S
O1306 Zn1307 2.035 1_554 S
Zn1307 O1306 2.035 1_556 S
Zn1307 O1308 2.028 1_455 S
Zn1307 O1310 2.028 . S
Zn1307 O1313 2.035 . S
O1308 Zn1307 2.028 1_655 S
O1308 C1314 1.247 1_655 S
O1309 Zn1305 2.035 . S
O1309 C1314 1.258 . S
O1310 C1303 1.247 . S
O1310 Zn1307 2.028 . S
O1311 C1303 1.258 . S
O1311 Zn1305 2.035 . S
O1312 Zn1305 2.028 . S
O1312 C1315 1.247 . S
O1313 Zn1307 2.035 . S
O1313 C1315 1.258 . S
C1314 O1308 1.247 1_455 S
C1314 O1309 1.258 . S
C1315 O1312 1.247 . S
C1315 O1313 1.258 . S
C1316 O1318 1.247 . S
C1316 O1320 1.258 . S
C1317 O1324 1.247 . S
C1317 O1325 1.258 . S
O1318 C1316 1.247 . S
O1318 Zn1319 2.028 . S
Zn1319 O1318 2.028 . S
Zn1319 O1323 2.035 . S
Zn1319 O1325 2.035 . S
Zn1319 O1326 2.028 . S
O1320 C1316 1.258 . S
O1320 Zn1321 2.035 . S
Zn1321 O1320 2.035 . S
Zn1321 O1322 2.028 . S
Zn1321 O1324 2.028 . S
Zn1321 O1327 2.035 . S
O1322 Zn1321 2.028 . S
O1322 C1328 1.247 . S
O1323 Zn1319 2.035 . S
O1323 C1328 1.258 . S
O1324 C1317 1.247 . S
O1324 Zn1321 2.028 . S
O1325 C1317 1.258 . S
O1325 Zn1319 2.035 . S
O1326 Zn1319 2.028 . S
O1326 C1329 1.247 . S
O1327 Zn1321 2.035 . S
O1327 C1329 1.258 . S
C1328 O1322 1.247 . S
C1328 O1323 1.258 . S
C1329 O1326 1.247 . S
C1329 O1327 1.258 . S
C1330 O1332 1.247 . S
C1330 O1334 1.258 . S
C1331 O1338 1.247 . S
C1331 O1339 1.258 . S
O1332 C1330 1.247 . S
O1332 Zn1333 2.028 . S
Zn1333 O1332 2.028 . S
Zn1333 O1337 2.035 . S
Zn1333 O1339 2.035 . S
Zn1333 O1340 2.028 . S
O1334 C1330 1.258 . S
O1334 Zn1335 2.035 . S
Zn1335 O1334 2.035 . S
Zn1335 O1336 2.028 . S
Zn1335 O1338 2.028 . S
Zn1335 O1341 2.035 . S
O1336 Zn1335 2.028 . S
O1336 C1342 1.247 . S
O1337 Zn1333 2.035 . S
O1337 C1342 1.258 . S
O1338 C1331 1.247 . S
O1338 Zn1335 2.028 . S
O1339 C1331 1.258 . S
O1339 Zn1333 2.035 . S
O1340 Zn1333 2.028 . S
O1340 C1343 1.247 . S
O1341 Zn1335 2.035 . S
O1341 C1343 1.258 . S
C1342 O1336 1.247 . S
C1342 O1337 1.258 . S
C1343 O1340 1.247 . S
C1343 O1341 1.258 . S
C13 C603 1.558 . S
C629 C15 1.558 . S
C29 C575 1.558 . S
C1261 C42 1.557 . S
C1302 C68 1.559 . S
C1316 C71 1.561 . S
C1232 C85 1.561 . S
C1342 C110 1.559 . S
C124 C365 1.556 . S
C1051 C126 1.557 . S
C349 C141 1.558 . S
C1035 C166 1.556 . S
C169 C432 1.561 . S
C182 C1119 1.557 . S
C197 C393 1.558 . S
C210 C1091 1.557 . S
C1177 C236 1.556 . S
C250 C461 1.556 . S
C265 C1146 1.561 . S
C477 C278 1.557 . S
C490 C280 1.559 . S
C1217 C306 1.557 . S
C308 C1231 1.557 . S
C1202 C335 1.561 . S
C267 C336 1.561 . S
C351 C293 1.559 . S
C376 C239 1.561 . S
C391 C924 1.557 . S
C966 C404 1.558 . S
C418 C993 1.561 . S
C897 C421 1.559 . S
C1006 C434 1.558 . S
C448 C40 1.558 . S
C727 C463 1.559 . S
C488 C0 1.558 . S
C699 C503 1.559 . S
C505 C96 1.556 . S
C518 C782 1.558 . S
C57 C532 1.561 . S
C754 C547 1.557 . S
C852 C573 1.556 . S
C113 C586 1.561 . S
C799 C588 1.561 . S
C614 C152 1.558 . S
C616 C155 1.561 . S
C643 C869 1.559 . S
C656 C894 1.558 . S
C670 C854 1.558 . S
C1274 C684 1.559 . S
C1288 C686 1.559 . S
C1259 C700 1.556 . S
C714 C601 1.557 . S
C729 C630 1.561 . S
C743 C645 1.558 . S
C560 C756 1.559 . S
C659 C771 1.558 . S
C784 C1036 1.559 . S
C378 C810 1.559 . S
C812 C1008 1.559 . S
C362 C838 1.559 . S
C841 C1105 1.558 . S
C447 C867 1.558 . S
C880 C1065 1.557 . S
C883 C407 1.558 . S
C908 C516 1.559 . S
C1120 C923 1.561 . S
C937 C474 1.561 . S
C939 C1149 1.558 . S
C953 C1162 1.561 . S
C545 C979 1.558 . S
C558 C980 1.559 . S
C995 C531 1.558 . S
C1021 C950 1.557 . S
C1022 C964 1.558 . S
C1049 C910 1.556 . S
C252 C1062 1.558 . S
C295 C1076 1.561 . S
C1078 C321 1.561 . S
C225 C1092 1.561 . S
C322 C1106 1.558 . S
C1133 C713 1.559 . S
C55 C1135 1.559 . S
C1160 C673 1.561 . S
C26 C1175 1.557 . S
C769 C1188 1.561 . S
C99 C1191 1.559 . S
C1204 C740 1.558 . S
C82 C1218 1.558 . S
C180 C1245 1.557 . S
C1246 C797 1.561 . S
C1272 C139 1.561 . S
C1287 C825 1.559 . S
C827 C1301 1.559 . S
C1315 C208 1.557 . S
C223 C1329 1.559 . S
C1331 C195 1.559 . S
C69 C12 1.616 1_565 S
C14 C70 1.616 . S
C28 C84 1.616 1_565 S
C111 C43 1.615 1_556 S
C196 C125 1.616 1_556 S
C127 C211 1.615 1_545 S
C140 C168 1.617 . S
C183 C167 1.615 1_545 S
C978 C237 1.616 1_655 S
C251 C938 1.616 . S
C281 C264 1.615 1_655 S
C922 C279 1.616 1_455 S
C909 C307 1.615 . S
C309 C994 1.615 1_455 S
C981 C334 1.615 . S
C337 C405 1.617 1_565 S
C419 C350 1.615 . S
C420 C377 1.616 1_565 S
C435 C390 1.615 1_554 S
C449 C533 1.617 1_556 S
C546 C462 1.615 1_545 S
C504 C489 1.616 . S
C519 C502 1.615 1_565 S
C1314 C572 1.615 1_455 S
C587 C1286 1.616 . S
C617 C589 1.616 1_455 S
C615 C1247 1.616 1_455 S
C642 C1244 1.615 . S
C1330 C657 1.615 1_455 S
C671 C1328 1.615 . S
C685 C728 1.616 . S
C687 C742 1.615 1_554 S
C757 C701 1.615 . S
C715 C770 1.615 . S
C881 C785 1.615 . S
C882 C811 1.615 . S
C813 C840 1.616 1_554 S
C839 C866 1.615 . S
C952 C936 1.616 . S
C1077 C1020 1.616 . S
C1023 C1079 1.616 1_556 S
C1048 C1093 1.616 . S
C1063 C1107 1.616 . S
C1132 C1205 1.616 . S
C1134 C1219 1.615 . S
C1161 C1189 1.616 1_556 S
C1174 C1190 1.615 . S
C1300 C1273 1.615 . S
C138 C1 1.591 . S
C153 C27 1.596 . S
C154 C41 1.591 . S
C54 C112 1.587 . S
C222 C56 1.587 . S
C181 C83 1.596 . S
C97 C194 1.591 . S
C98 C209 1.591 . S
C224 C253 1.591 . S
C238 C992 1.587 . S
C266 C1007 1.591 . S
C967 C292 1.591 . S
C294 C965 1.591 . S
C320 C911 1.591 . S
C323 C951 1.596 . S
C348 C475 1.591 . S
C363 C476 1.591 . S
C364 C491 1.591 . S
C379 C460 1.591 . S
C392 C559 1.591 . S
C517 C406 1.591 . S
C433 C530 1.591 . S
C446 C544 1.596 . S
C561 C600 1.591 . S
C574 C1317 1.591 . S
C1343 C602 1.591 . S
C1303 C628 1.591 . S
C1289 C631 1.587 . S
C1258 C644 1.596 . S
C658 C1275 1.591 . S
C672 C798 1.587 . S
C698 C824 1.587 . S
C712 C826 1.587 . S
C796 C726 1.587 . S
C741 C895 1.596 . S
C755 C853 1.596 . S
C855 C768 1.591 . S
C868 C783 1.591 . S
C925 C896 1.591 . S
C1147 C1009 1.587 . S
C1034 C1148 1.596 . S
C1163 C1037 1.587 . S
C1121 C1050 1.591 . S
C1230 C1064 1.596 . S
C1090 C1176 1.596 . S
C1203 C1104 1.591 . S
C1216 C1118 1.596 . S
C1260 C1233 1.591 . S
