# Generated by pormake.
# Topology wmi, (6)-cn, num edge types: 1
# Building blocks:
#     Node 0, Type 0, BuildingBlock: VOLQOD_clean_sbu_1, # of connection points: 6
#     Node 1, Type 0, BuildingBlock: VOLQOD_clean_sbu_1, # of connection points: 6
#     Node 2, Type 0, BuildingBlock: VOLQOD_clean_sbu_1, # of connection points: 6
#     Node 3, Type 0, BuildingBlock: VOLQOD_clean_sbu_1, # of connection points: 6
#     Node 4, Type 0, BuildingBlock: VOLQOD_clean_sbu_1, # of connection points: 6
#     Node 5, Type 0, BuildingBlock: VOLQOD_clean_sbu_1, # of connection points: 6
#     Node 6, Type 0, BuildingBlock: VOLQOD_clean_sbu_1, # of connection points: 6
#     Node 7, Type 0, BuildingBlock: VOLQOD_clean_sbu_1, # of connection points: 6
#     Node 8, Type 0, BuildingBlock: VOLQOD_clean_sbu_1, # of connection points: 6
#     Node 9, Type 0, BuildingBlock: VOLQOD_clean_sbu_1, # of connection points: 6
#     Node 10, Type 0, BuildingBlock: VOLQOD_clean_sbu_1, # of connection points: 6
#     Node 11, Type 0, BuildingBlock: VOLQOD_clean_sbu_1, # of connection points: 6
#     Node 12, Type 0, BuildingBlock: VOLQOD_clean_sbu_1, # of connection points: 6
#     Node 13, Type 0, BuildingBlock: VOLQOD_clean_sbu_1, # of connection points: 6
#     Node 14, Type 0, BuildingBlock: VOLQOD_clean_sbu_1, # of connection points: 6
#     Node 15, Type 0, BuildingBlock: VOLQOD_clean_sbu_1, # of connection points: 6
#     Node 16, Type 0, BuildingBlock: VOLQOD_clean_sbu_1, # of connection points: 6
#     Node 17, Type 0, BuildingBlock: VOLQOD_clean_sbu_1, # of connection points: 6
#     Edge 18, Type (0, 0), BuildingBlock: AJUNOK_clean_linker_0, # of connection points: 2
#     Edge 19, Type (0, 0), BuildingBlock: AJUNOK_clean_linker_0, # of connection points: 2
#     Edge 20, Type (0, 0), BuildingBlock: AJUNOK_clean_linker_0, # of connection points: 2
#     Edge 21, Type (0, 0), BuildingBlock: AJUNOK_clean_linker_0, # of connection points: 2
#     Edge 22, Type (0, 0), BuildingBlock: AJUNOK_clean_linker_0, # of connection points: 2
#     Edge 23, Type (0, 0), BuildingBlock: AJUNOK_clean_linker_0, # of connection points: 2
#     Edge 24, Type (0, 0), BuildingBlock: AJUNOK_clean_linker_0, # of connection points: 2
#     Edge 25, Type (0, 0), BuildingBlock: AJUNOK_clean_linker_0, # of connection points: 2
#     Edge 26, Type (0, 0), BuildingBlock: AJUNOK_clean_linker_0, # of connection points: 2
#     Edge 27, Type (0, 0), BuildingBlock: AJUNOK_clean_linker_0, # of connection points: 2
#     Edge 28, Type (0, 0), BuildingBlock: AJUNOK_clean_linker_0, # of connection points: 2
#     Edge 29, Type (0, 0), BuildingBlock: AJUNOK_clean_linker_0, # of connection points: 2
#     Edge 30, Type (0, 0), BuildingBlock: AJUNOK_clean_linker_0, # of connection points: 2
#     Edge 31, Type (0, 0), BuildingBlock: AJUNOK_clean_linker_0, # of connection points: 2
#     Edge 32, Type (0, 0), BuildingBlock: AJUNOK_clean_linker_0, # of connection points: 2
#     Edge 33, Type (0, 0), BuildingBlock: AJUNOK_clean_linker_0, # of connection points: 2
#     Edge 34, Type (0, 0), BuildingBlock: AJUNOK_clean_linker_0, # of connection points: 2
#     Edge 35, Type (0, 0), BuildingBlock: AJUNOK_clean_linker_0, # of connection points: 2
#     Edge 36, Type (0, 0), BuildingBlock: AJUNOK_clean_linker_0, # of connection points: 2
#     Edge 37, Type (0, 0), BuildingBlock: AJUNOK_clean_linker_0, # of connection points: 2
#     Edge 38, Type (0, 0), BuildingBlock: AJUNOK_clean_linker_0, # of connection points: 2
#     Edge 39, Type (0, 0), BuildingBlock: AJUNOK_clean_linker_0, # of connection points: 2
#     Edge 40, Type (0, 0), BuildingBlock: AJUNOK_clean_linker_0, # of connection points: 2
#     Edge 41, Type (0, 0), BuildingBlock: AJUNOK_clean_linker_0, # of connection points: 2
#     Edge 42, Type (0, 0), BuildingBlock: AJUNOK_clean_linker_0, # of connection points: 2
#     Edge 43, Type (0, 0), BuildingBlock: AJUNOK_clean_linker_0, # of connection points: 2
#     Edge 44, Type (0, 0), BuildingBlock: AJUNOK_clean_linker_0, # of connection points: 2
#     Edge 45, Type (0, 0), BuildingBlock: AJUNOK_clean_linker_0, # of connection points: 2
#     Edge 46, Type (0, 0), BuildingBlock: AJUNOK_clean_linker_0, # of connection points: 2
#     Edge 47, Type (0, 0), BuildingBlock: AJUNOK_clean_linker_0, # of connection points: 2
#     Edge 48, Type (0, 0), BuildingBlock: AJUNOK_clean_linker_0, # of connection points: 2
#     Edge 49, Type (0, 0), BuildingBlock: AJUNOK_clean_linker_0, # of connection points: 2
#     Edge 50, Type (0, 0), BuildingBlock: AJUNOK_clean_linker_0, # of connection points: 2
#     Edge 51, Type (0, 0), BuildingBlock: AJUNOK_clean_linker_0, # of connection points: 2
#     Edge 52, Type (0, 0), BuildingBlock: AJUNOK_clean_linker_0, # of connection points: 2
#     Edge 53, Type (0, 0), BuildingBlock: AJUNOK_clean_linker_0, # of connection points: 2
#     Edge 54, Type (0, 0), BuildingBlock: AJUNOK_clean_linker_0, # of connection points: 2
#     Edge 55, Type (0, 0), BuildingBlock: AJUNOK_clean_linker_0, # of connection points: 2
#     Edge 56, Type (0, 0), BuildingBlock: AJUNOK_clean_linker_0, # of connection points: 2
#     Edge 57, Type (0, 0), BuildingBlock: AJUNOK_clean_linker_0, # of connection points: 2
#     Edge 58, Type (0, 0), BuildingBlock: AJUNOK_clean_linker_0, # of connection points: 2
#     Edge 59, Type (0, 0), BuildingBlock: AJUNOK_clean_linker_0, # of connection points: 2
#     Edge 60, Type (0, 0), BuildingBlock: AJUNOK_clean_linker_0, # of connection points: 2
#     Edge 61, Type (0, 0), BuildingBlock: AJUNOK_clean_linker_0, # of connection points: 2
#     Edge 62, Type (0, 0), BuildingBlock: AJUNOK_clean_linker_0, # of connection points: 2
#     Edge 63, Type (0, 0), BuildingBlock: AJUNOK_clean_linker_0, # of connection points: 2
#     Edge 64, Type (0, 0), BuildingBlock: AJUNOK_clean_linker_0, # of connection points: 2
#     Edge 65, Type (0, 0), BuildingBlock: AJUNOK_clean_linker_0, # of connection points: 2
#     Edge 66, Type (0, 0), BuildingBlock: AJUNOK_clean_linker_0, # of connection points: 2
#     Edge 67, Type (0, 0), BuildingBlock: AJUNOK_clean_linker_0, # of connection points: 2
#     Edge 68, Type (0, 0), BuildingBlock: AJUNOK_clean_linker_0, # of connection points: 2
#     Edge 69, Type (0, 0), BuildingBlock: AJUNOK_clean_linker_0, # of connection points: 2
#     Edge 70, Type (0, 0), BuildingBlock: AJUNOK_clean_linker_0, # of connection points: 2
#     Edge 71, Type (0, 0), BuildingBlock: AJUNOK_clean_linker_0, # of connection points: 2
# Relax obj value: 0.312
# Max RMSD: 0.231
# Mean RMSD: 0.231
data_MOF--net-wmi--node1-VOLQOD_clean_sbu_1--edge1-AJUNOK_clean_linker_0
_symmetry_space_group_name_H-M    P1
_symmetry_Int_Tables_number       1
_symmetry_cell_setting            triclinic
loop_
_symmetry_equiv_pos_as_xyz
'x, y, z'
_cell_length_a     24.438102
_cell_length_b     24.410176
_cell_length_c     76.21075
_cell_angle_alpha  90.128122
_cell_angle_beta   89.961732
_cell_angle_gamma 119.9752
loop_
_atom_site_label
_atom_site_type_symbol
_atom_site_fract_x
_atom_site_fract_y
_atom_site_fract_z
_atom_type_partial_charge
O0 O 0.55175 0.05568 0.09434 0.0
Zn1 Zn 0.46584 0.97653 0.09404 0.0
O2 O 0.41489 0.97696 0.07433 0.0
Zn3 Zn 0.33977 0.97619 0.08246 0.0
Zn4 Zn 0.46412 0.04839 0.06015 0.0
Zn5 Zn 0.39273 0.90688 0.05933 0.0
O6 O 0.26087 0.89965 0.07321 0.0
O7 O 0.30474 0.84348 0.06397 0.0
O8 O 0.41735 0.95901 0.11708 0.0
O9 O 0.3318 0.96029 0.10798 0.0
O10 O 0.34718 0.06211 0.07915 0.0
O11 O 0.44007 0.11239 0.0654 0.0
O12 O 0.45377 0.03066 0.03433 0.0
O13 O 0.49177 0.91152 0.08991 0.0
O14 O 0.39794 0.92644 0.03386 0.0
O15 O 0.45081 0.874 0.06363 0.0
C16 C 0.58207 0.085 0.08062 0.0
C17 C 0.25662 0.84789 0.06802 0.0
C18 C 0.39293 0.11204 0.07256 0.0
C19 C 0.36325 0.95321 0.1201 0.0
C20 C 0.4255 0.97892 0.02586 0.0
C21 C 0.48681 0.87905 0.0763 0.0
O22 O 0.55365 0.08194 0.06635 0.0
O23 O 0.90001 0.47897 0.09335 0.0
Zn24 Zn -0.02004 0.47348 0.09479 0.0
O25 O -0.01888 0.41779 0.07655 0.0
Zn26 Zn -0.01921 0.34511 0.08653 0.0
Zn27 Zn 0.91119 0.3923 0.06145 0.0
Zn28 Zn 0.05327 0.46177 0.06211 0.0
O29 O 0.05453 0.33674 0.07802 0.0
O30 O 0.11446 0.43603 0.06866 0.0
O31 O -0.00141 0.44913 0.11881 0.0
O32 O 7e-05 0.36152 0.11168 0.0
O33 O 0.89445 0.26683 0.08444 0.0
O34 O 0.847 0.30537 0.06761 0.0
O35 O 0.93196 0.39347 0.03594 0.0
O36 O 0.04511 0.56324 0.08938 0.0
O37 O 0.03604 0.44211 0.03674 0.0
O38 O 0.08836 0.55389 0.06477 0.0
C39 C 0.87064 0.47597 0.0792 0.0
C40 C 0.10753 0.38284 0.07318 0.0
C41 C 0.84586 0.26082 0.07649 0.0
C42 C 0.00684 0.40298 0.12288 0.0
C43 C -0.01523 0.41492 0.02816 0.0
C44 C 0.08152 0.58777 0.07627 0.0
O45 O 0.87552 0.44834 0.06559 0.0
O46 O 0.48014 0.40322 0.09375 0.0
Zn47 Zn 0.48546 0.48859 0.09566 0.0
O48 O 0.53524 0.54354 0.07639 0.0
Zn49 Zn 0.61102 0.61627 0.08476 0.0
Zn50 Zn 0.55521 0.49737 0.06034 0.0
Zn51 Zn 0.48709 0.57055 0.06347 0.0
O52 O 0.61787 0.69726 0.07569 0.0
O53 O 0.51521 0.65812 0.06997 0.0
O54 O 0.51749 0.53468 0.11912 0.0
O55 O 0.60207 0.62345 0.11029 0.0
O56 O 0.687 0.6047 0.08112 0.0
O57 O 0.64268 0.51731 0.06474 0.0
O58 O 0.54646 0.51523 0.03516 0.0
O59 O 0.39376 0.46173 0.09243 0.0
O60 O 0.49729 0.57003 0.03757 0.0
O61 O 0.39679 0.51278 0.06804 0.0
C62 C 0.47601 0.37538 0.07919 0.0
C63 C 0.57049 0.7044 0.07262 0.0
C64 C 0.68983 0.56039 0.073 0.0
C65 C 0.5643 0.58974 0.12232 0.0
C66 C 0.52167 0.54493 0.02817 0.0
C67 C 0.36615 0.47194 0.07978 0.0
O68 O 0.4983 0.40658 0.06509 0.0
O69 O 0.03632 0.55595 0.88577 0.0
Zn70 Zn 0.95698 0.47002 0.88665 0.0
O71 O 0.96384 0.416 0.9041 0.0
Zn72 Zn 0.96699 0.34637 0.8933 0.0
Zn73 Zn 0.03691 0.46772 0.91722 0.0
Zn74 Zn 0.89777 0.38514 0.92054 0.0
O75 O 0.89868 0.26206 0.9027 0.0
O76 O 0.83816 0.2967 0.91474 0.0
O77 O 0.93083 0.42525 0.86294 0.0
O78 O 0.93963 0.34074 0.86864 0.0
O79 O 0.05762 0.36425 0.89259 0.0
O80 O 0.10353 0.45673 0.90675 0.0
O81 O 0.02954 0.44776 0.94298 0.0
O82 O 0.89354 0.49279 0.8951 0.0
O83 O 0.92617 0.38639 0.94495 0.0
O84 O 0.85842 0.43876 0.91993 0.0
C85 C 0.06405 0.58626 0.89969 0.0
C86 C 0.84623 0.25214 0.90913 0.0
C87 C 0.10676 0.41504 0.89753 0.0
C88 C 0.92579 0.37263 0.85826 0.0
C89 C -0.01963 0.41381 0.95206 0.0
C90 C 0.86117 0.47969 0.90913 0.0
O91 O 0.06103 0.55741 0.91385 0.0
O92 O 0.39577 0.47359 0.88164 0.0
Zn93 Zn 0.47759 0.4755 0.88484 0.0
O94 O 0.52485 0.53214 0.90404 0.0
Zn95 Zn 0.60477 0.60131 0.89593 0.0
Zn96 Zn 0.47642 0.56229 0.91608 0.0
Zn97 Zn 0.54075 0.48572 0.92089 0.0
O98 O 0.67862 0.60446 0.90883 0.0
O99 O 0.62794 0.50556 0.91869 0.0
O100 O 0.52908 0.50005 0.86247 0.0
O101 O 0.61817 0.58465 0.87119 0.0
O102 O 0.60234 0.68315 0.89576 0.0
O103 O 0.50984 0.65083 0.90907 0.0
O104 O 0.4807 0.56007 0.94277 0.0
O105 O 0.44883 0.38517 0.89094 0.0
O106 O 0.53345 0.50884 0.94501 0.0
O107 O 0.4828 0.39412 0.91828 0.0
C108 C 0.36452 0.48563 0.89281 0.0
C109 C 0.67882 0.55667 0.9155 0.0
C110 C 0.55886 0.69306 0.90134 0.0
C111 C 0.5855 0.54412 0.85953 0.0
C112 C 0.50806 0.53759 0.95209 0.0
C113 C 0.4505 0.36028 0.90542 0.0
O114 O 0.3882 0.51465 0.90718 0.0
O115 O 0.47574 0.90029 0.88099 0.0
Zn116 Zn 0.47158 0.98096 0.88195 0.0
O117 O 0.41776 0.97805 0.90138 0.0
Zn118 Zn 0.34456 0.98031 0.89304 0.0
Zn119 Zn 0.3931 0.90487 0.91535 0.0
Zn120 Zn 0.46427 0.04817 0.91634 0.0
O121 O 0.33724 0.05156 0.90399 0.0
O122 O 0.43728 0.11052 0.91272 0.0
O123 O 0.4441 0.00427 0.85915 0.0
O124 O 0.35728 0.00408 0.86801 0.0
O125 O 0.26619 0.89442 0.89501 0.0
O126 O 0.30419 0.8415 0.90966 0.0
O127 O 0.39971 0.92169 0.9415 0.0
O128 O 0.56309 0.04401 0.8871 0.0
O129 O 0.45011 0.02607 0.94137 0.0
O130 O 0.55558 0.08345 0.91263 0.0
C131 C 0.47584 0.86987 0.89458 0.0
C132 C 0.38317 0.10365 0.90948 0.0
C133 C 0.25943 0.84379 0.90182 0.0
C134 C 0.39746 0.01292 0.85617 0.0
C135 C 0.42488 0.97426 0.94965 0.0
C136 C 0.58852 0.07763 0.90068 0.0
O137 O 0.44966 0.87164 0.90887 0.0
O138 O 0.23666 0.41248 0.42853 0.0
Zn139 Zn 0.15053 0.33383 0.42977 0.0
O140 O 0.09692 0.33098 0.41039 0.0
Zn141 Zn 0.0223 0.33072 0.41877 0.0
Zn142 Zn 0.14439 0.40003 0.39518 0.0
Zn143 Zn 0.0729 0.25865 0.39638 0.0
O144 O 0.94251 0.25504 0.40948 0.0
O145 O -0.01475 0.19634 0.40168 0.0
O146 O 0.1051 0.32137 0.45315 0.0
O147 O 0.01499 0.31446 0.44434 0.0
O148 O 0.0316 0.41767 0.41543 0.0
O149 O 0.12237 0.46547 0.40055 0.0
O150 O 0.12802 0.37846 0.36952 0.0
O151 O 0.17534 0.2673 0.42641 0.0
O152 O 0.07505 0.27435 0.37081 0.0
O153 O 0.13081 0.22602 0.40074 0.0
C154 C 0.26537 0.43802 0.41426 0.0
C155 C 0.93752 0.20226 0.40505 0.0
C156 C 0.07681 0.46664 0.40826 0.0
C157 C 0.0498 0.31225 0.45635 0.0
C158 C 0.09902 0.32491 0.36194 0.0
C159 C 0.16802 0.23231 0.4132 0.0
O160 O 0.23521 0.43297 0.40018 0.0
O161 O 0.58342 0.83251 0.42823 0.0
Zn162 Zn 0.6623 0.82553 0.4289 0.0
O163 O 0.66199 0.7713 0.41002 0.0
Zn164 Zn 0.66446 0.69876 0.41904 0.0
Zn165 Zn 0.58999 0.74562 0.39569 0.0
Zn166 Zn 0.73155 0.81799 0.39497 0.0
O167 O 0.74069 0.69561 0.40996 0.0
O168 O 0.79565 0.79489 0.4002 0.0
O169 O 0.67933 0.79737 0.45242 0.0
O170 O 0.68223 0.71119 0.44447 0.0
O171 O 0.57881 0.61911 0.41642 0.0
O172 O 0.52655 0.65878 0.40221 0.0
O173 O 0.60694 0.74611 0.36987 0.0
O174 O 0.72792 0.916 0.42433 0.0
O175 O 0.71113 0.79849 0.36978 0.0
O176 O 0.76472 0.90967 0.39826 0.0
C177 C 0.55381 0.831 0.41429 0.0
C178 C 0.79199 0.74298 0.4046 0.0
C179 C 0.5282 0.61348 0.40988 0.0
C180 C 0.68747 0.75087 0.45609 0.0
C181 C 0.65905 0.76927 0.36164 0.0
C182 C 0.76071 0.94221 0.41071 0.0
O183 O 0.55651 0.80295 0.4005 0.0
O184 O 0.16181 0.75931 0.42789 0.0
Zn185 Zn 0.16955 0.84584 0.429 0.0
O186 O 0.22279 0.89993 0.41002 0.0
Zn187 Zn 0.29699 0.97341 0.41907 0.0
Zn188 Zn 0.24555 0.85276 0.39503 0.0
Zn189 Zn 0.17698 0.92591 0.39557 0.0
O190 O 0.30275 0.0545 0.41061 0.0
O191 O 0.20306 0.01361 0.40147 0.0
O192 O 0.19925 0.89092 0.45265 0.0
O193 O 0.28623 0.97856 0.44453 0.0
O194 O 0.37481 0.96507 0.41591 0.0
O195 O 0.3327 0.87509 0.40061 0.0
O196 O 0.24188 0.86911 0.3694 0.0
O197 O 0.07928 0.82215 0.42471 0.0
O198 O 0.19351 0.92488 0.37004 0.0
O199 O 0.08546 0.86903 0.39929 0.0
C200 C 0.16225 0.73109 0.41381 0.0
C201 C 0.25605 0.06053 0.40582 0.0
C202 C 0.379 0.92036 0.40853 0.0
C203 C 0.24684 0.94498 0.45625 0.0
C204 C 0.21971 0.8996 0.3615 0.0
C205 C 0.05309 0.83115 0.41148 0.0
O206 O 0.18879 0.76185 0.39992 0.0
O207 O 0.72868 0.89679 0.21785 0.0
Zn208 Zn 0.64989 0.80954 0.21776 0.0
O209 O 0.65215 0.75757 0.23703 0.0
Zn210 Zn 0.65185 0.68294 0.22853 0.0
Zn211 Zn 0.7242 0.80637 0.25109 0.0
Zn212 Zn 0.58266 0.73311 0.25237 0.0
O213 O 0.57722 0.60296 0.2378 0.0
O214 O 0.51993 0.64472 0.24762 0.0
O215 O 0.63115 0.76104 0.1944 0.0
O216 O 0.63352 0.67547 0.20324 0.0
O217 O 0.7376 0.69014 0.23147 0.0
O218 O 0.78796 0.7828 0.24545 0.0
O219 O 0.70829 0.79365 0.2769 0.0
O220 O 0.58357 0.83356 0.2228 0.0
O221 O 0.60425 0.73747 0.27767 0.0
O222 O 0.54756 0.78951 0.24883 0.0
C223 C 0.75948 0.92601 0.23159 0.0
C224 C 0.52544 0.59737 0.24334 0.0
C225 C 0.78738 0.73561 0.23821 0.0
C226 C 0.62488 0.70662 0.19134 0.0
C227 C 0.65715 0.76403 0.28549 0.0
C228 C 0.55108 0.82628 0.23657 0.0
O229 O 0.75755 0.89632 0.24548 0.0
O230 O 0.07661 0.81728 0.21963 0.0
Zn231 Zn 0.16325 0.8265 0.21869 0.0
O232 O 0.21837 0.88464 0.23684 0.0
Zn233 Zn 0.29288 0.95518 0.22682 0.0
Zn234 Zn 0.17288 0.91386 0.25037 0.0
Zn235 Zn 0.24212 0.84114 0.25294 0.0
O236 O 0.37283 0.95931 0.23567 0.0
O237 O 0.32981 0.86415 0.2482 0.0
O238 O 0.20452 0.85236 0.1946 0.0
O239 O 0.29521 0.93861 0.20155 0.0
O240 O 0.2884 0.03602 0.22849 0.0
O241 O 0.19609 -0.00067 0.24233 0.0
O242 O 0.18997 0.91827 0.27628 0.0
O243 O 0.14122 0.73723 0.22436 0.0
O244 O 0.23959 0.8638 0.27782 0.0
O245 O 0.18486 0.74886 0.25061 0.0
C246 C 0.04988 0.8226 0.23338 0.0
C247 C 0.37748 0.91424 0.24256 0.0
C248 C 0.24345 0.04311 0.23439 0.0
C249 C 0.25886 0.89807 0.19039 0.0
C250 C 0.2173 0.89503 0.28523 0.0
C251 C 0.14845 0.71381 0.23849 0.0
O252 O 0.08176 0.8555 0.24645 0.0
O253 O 0.15688 0.2492 0.21703 0.0
Zn254 Zn 0.14987 0.3284 0.21782 0.0
O255 O 0.09609 0.32507 0.23726 0.0
Zn256 Zn 0.02241 0.32685 0.22913 0.0
Zn257 Zn 0.07345 0.25215 0.25092 0.0
Zn258 Zn 0.14176 0.39363 0.25273 0.0
O259 O 0.01811 0.40167 0.23921 0.0
O260 O 0.11809 0.45788 0.24833 0.0
O261 O 0.1206 0.3487 0.19482 0.0
O262 O 0.03349 0.34745 0.20393 0.0
O263 O 0.94429 0.23978 0.2313 0.0
O264 O -0.01343 0.18791 0.24444 0.0
O265 O 0.07547 0.26685 0.277 0.0
O266 O 0.2405 0.39315 0.22301 0.0
O267 O 0.12331 0.371 0.27779 0.0
O268 O 0.2329 0.42689 0.24947 0.0
C269 C 0.15913 0.22036 0.23072 0.0
C270 C 0.06529 0.45326 0.24458 0.0
C271 C 0.94027 0.18897 0.23718 0.0
C272 C 0.07307 0.35601 0.19196 0.0
C273 C 0.09703 0.31818 0.28562 0.0
C274 C 0.26587 0.42372 0.23705 0.0
O275 O 0.13271 0.22157 0.245 0.0
O276 O 0.87594 0.72431 0.76519 0.0
Zn277 Zn 0.79266 0.64473 0.76225 0.0
O278 O 0.741 0.65568 0.74457 0.0
Zn279 Zn 0.6668 0.65094 0.75535 0.0
Zn280 Zn 0.78905 0.73334 0.73222 0.0
Zn281 Zn 0.71465 0.59127 0.72729 0.0
O282 O 0.58638 0.5797 0.74565 0.0
O283 O 0.62576 0.52809 0.73104 0.0
O284 O 0.74564 0.61474 0.7854 0.0
O285 O 0.6622 0.62563 0.78009 0.0
O286 O 0.66927 0.73443 0.75468 0.0
O287 O 0.7539 0.78822 0.73771 0.0
O288 O 0.78808 0.72466 0.70586 0.0
O289 O 0.81862 0.58365 0.75363 0.0
O290 O 0.72153 0.62234 0.70309 0.0
O291 O 0.76823 0.55186 0.72822 0.0
C292 C 0.90395 0.77037 0.75461 0.0
C293 C 0.57934 0.53129 0.73737 0.0
C294 C 0.70815 0.78445 0.74658 0.0
C295 C 0.69369 0.61055 0.79024 0.0
C296 C 0.75528 0.67641 0.69629 0.0
C297 C 0.80748 0.55297 0.73933 0.0
O298 O 0.87696 0.77684 0.74115 0.0
O299 O 0.22626 0.15953 0.76515 0.0
Zn300 Zn 0.30795 0.15709 0.7637 0.0
O301 O 0.30512 0.10472 0.74414 0.0
Zn302 Zn 0.30163 0.02841 0.75193 0.0
Zn303 Zn 0.23434 0.0889 0.73053 0.0
Zn304 Zn 0.37422 0.14712 0.72911 0.0
O305 O 0.36955 0.01557 0.74031 0.0
O306 O 0.43353 0.11676 0.73317 0.0
O307 O 0.33183 0.12886 0.78634 0.0
O308 O 0.32884 0.04123 0.77675 0.0
O309 O 0.21022 0.95688 0.75167 0.0
O310 O 0.16604 0.00765 0.73899 0.0
O311 O 0.2468 0.0855 0.70439 0.0
O312 O 0.37075 0.24761 0.75798 0.0
O313 O 0.3507 0.12999 0.70409 0.0
O314 O 0.41113 0.23847 0.73273 0.0
C315 C 0.2015 0.16935 0.75163 0.0
C316 C 0.42342 0.06091 0.73556 0.0
C317 C 0.16162 0.96018 0.74712 0.0
C318 C 0.33973 0.08145 0.78879 0.0
C319 C 0.29835 0.10508 0.69602 0.0
C320 C 0.40508 0.27207 0.74447 0.0
O321 O 0.20956 0.15336 0.73634 0.0
O322 O 0.78828 0.07528 0.76372 0.0
Zn323 Zn 0.7933 0.15973 0.76221 0.0
O324 O 0.85158 0.20979 0.74373 0.0
Zn325 Zn 0.9217 0.28744 0.75219 0.0
Zn326 Zn 0.88074 0.16169 0.73154 0.0
Zn327 Zn 0.80699 0.22802 0.72696 0.0
O328 O 0.92547 0.36327 0.74001 0.0
O329 O 0.82589 0.31453 0.73056 0.0
O330 O 0.81799 0.20892 0.78523 0.0
O331 O 0.90422 0.2979 0.77713 0.0
O332 O 0.00219 0.28146 0.75192 0.0
O333 O 0.96405 0.18352 0.74139 0.0
O334 O 0.89088 0.17873 0.70527 0.0
O335 O 0.70307 0.1325 0.75546 0.0
O336 O 0.83556 0.22739 0.70299 0.0
O337 O 0.7153 0.16792 0.72821 0.0
C338 C 0.78979 0.04431 0.75041 0.0
C339 C 0.87766 0.36477 0.73383 0.0
C340 C 0.00813 0.2335 0.74837 0.0
C341 C 0.86297 0.26478 0.78858 0.0
C342 C 0.86944 0.2074 0.69611 0.0
C343 C 0.67992 0.13436 0.74064 0.0
O344 O 0.81926 0.07181 0.73643 0.0
O345 O 0.4055 0.24649 0.55351 0.0
Zn346 Zn 0.32595 0.16065 0.55203 0.0
O347 O 0.32253 0.10694 0.57146 0.0
Zn348 Zn 0.32356 0.03285 0.56328 0.0
Zn349 Zn 0.39013 0.15362 0.58713 0.0
Zn350 Zn 0.24883 0.08145 0.58487 0.0
O351 O 0.24889 0.95255 0.57266 0.0
O352 O 0.18777 -0.00598 0.57891 0.0
O353 O 0.31107 0.11369 0.52862 0.0
O354 O 0.30628 0.02503 0.53788 0.0
O355 O 0.41075 0.04322 0.56642 0.0
O356 O 0.45632 0.13204 0.58224 0.0
O357 O 0.36584 0.13672 0.61265 0.0
O358 O 0.26016 0.18634 0.5554 0.0
O359 O 0.26201 0.08201 0.61052 0.0
O360 O 0.21597 0.13915 0.58054 0.0
C361 C 0.43144 0.27498 0.56782 0.0
C362 C 0.19522 0.94677 0.57623 0.0
C363 C 0.45883 0.08782 0.5741 0.0
C364 C 0.30179 0.05803 0.52574 0.0
C365 C 0.31166 0.10655 0.6198 0.0
C366 C 0.22367 0.17758 0.56831 0.0
O367 O 0.42444 0.24448 0.58197 0.0
O368 O 0.75163 0.17455 0.55392 0.0
Zn369 Zn 0.83814 0.18174 0.55265 0.0
O370 O 0.89174 0.23367 0.57206 0.0
Zn371 Zn 0.96531 0.30868 0.56369 0.0
Zn372 Zn 0.84498 0.25612 0.58716 0.0
Zn373 Zn 0.9172 0.18666 0.58626 0.0
O374 O 0.04595 0.31246 0.5717 0.0
O375 O 0.00447 0.21189 0.58017 0.0
O376 O 0.88469 0.21336 0.52906 0.0
O377 O 0.97007 0.30041 0.53822 0.0
O378 O 0.958 0.38688 0.56747 0.0
O379 O 0.86711 0.34374 0.58218 0.0
O380 O 0.86085 0.25027 0.61264 0.0
O381 O 0.81305 0.09052 0.55664 0.0
O382 O 0.91578 0.20087 0.61199 0.0
O383 O 0.859 0.09581 0.58221 0.0
C384 C 0.7236 0.17429 0.56811 0.0
C385 C 0.05152 0.265 0.576 0.0
C386 C 0.91293 0.39069 0.57468 0.0
C387 C 0.93848 0.26227 0.52603 0.0
C388 C 0.89047 0.2271 0.62051 0.0
C389 C 0.82073 0.06397 0.57003 0.0
O390 O 0.7545 0.19991 0.58206 0.0
O391 O 0.82554 0.59507 0.55424 0.0
Zn392 Zn 0.8195 0.67473 0.55298 0.0
O393 O 0.76634 0.67652 0.57188 0.0
Zn394 Zn 0.69211 0.67537 0.563 0.0
Zn395 Zn 0.74348 0.60736 0.58696 0.0
Zn396 Zn 0.81255 0.74897 0.5861 0.0
O397 O 0.68672 0.75111 0.57166 0.0
O398 O 0.7876 0.81101 0.57979 0.0
O399 O 0.79078 0.69105 0.52927 0.0
O400 O 0.70395 0.69182 0.53765 0.0
O401 O 0.61427 0.58848 0.56595 0.0
O402 O 0.65678 0.54136 0.58128 0.0
O403 O 0.74626 0.62875 0.61242 0.0
O404 O 0.91029 0.73973 0.55761 0.0
O405 O 0.79525 0.733 0.61161 0.0
O406 O 0.9038 0.78156 0.58287 0.0
C407 C 0.82669 0.56851 0.56855 0.0
C408 C 0.73402 0.80437 0.57593 0.0
C409 C 0.6104 0.53969 0.57327 0.0
C410 C 0.7435 0.69826 0.52589 0.0
C411 C 0.76861 0.68177 0.6202 0.0
C412 C 0.93621 0.77436 0.57101 0.0
O413 O 0.8012 0.57431 0.58247 0.0
C414 C 0.54415 0.82978 0.09025 0.0
C415 C 0.52394 0.8468 0.07498 0.0
C416 C 0.56966 0.78971 0.08927 0.0
C417 C 0.57612 0.76646 0.07302 0.0
H418 H 0.5358 0.84336 0.10308 0.0
H419 H 0.57818 0.77175 0.10135 0.0
S420 S 0.54373 0.80792 0.02911 0.0
N421 N 0.52276 0.84624 0.04297 0.0
N422 N 0.56976 0.77001 0.04137 0.0
C423 C 0.56291 0.78876 0.05764 0.0
C424 C 0.53684 0.82918 0.05856 0.0
C425 C 0.18102 0.74632 0.05484 0.0
C426 C 0.19682 0.78848 0.06895 0.0
C427 C 0.14094 0.68164 0.05722 0.0
C428 C 0.1157 0.6569 0.07384 0.0
H429 H 0.20376 0.7629 0.04221 0.0
H430 H 0.13234 0.65065 0.04609 0.0
S431 S 0.13709 0.74941 0.11448 0.0
N432 N 0.17998 0.80291 0.0996 0.0
N433 N 0.10381 0.68061 0.1042 0.0
C434 C 0.12671 0.69932 0.08771 0.0
C435 C 0.16752 0.7655 0.08522 0.0
C436 C 0.19246 0.3857 0.09101 0.0
C437 C 0.16511 0.37946 0.07439 0.0
C438 C 0.25798 0.41224 0.09275 0.0
C439 C 0.29724 0.43359 0.0779 0.0
H440 H 0.1641 0.3762 0.10276 0.0
H441 H 0.27823 0.42059 0.1058 0.0
S442 S 0.24562 0.41436 0.03138 0.0
N443 N 0.17981 0.38691 0.04287 0.0
N444 N 0.30281 0.43588 0.04594 0.0
C445 C 0.26925 0.42082 0.06115 0.0
C446 C 0.20296 0.39375 0.05944 0.0
C447 C 0.77925 0.4872 0.92639 0.0
C448 C 0.82445 0.51116 0.91292 0.0
C449 C 0.73675 0.50878 0.92861 0.0
C450 C 0.73746 0.55459 0.91732 0.0
H451 H 0.77385 0.44877 0.93467 0.0
H452 H 0.69973 0.48557 0.93831 0.0
S453 S 0.859 0.64651 0.88386 0.0
N454 N 0.87731 0.59385 0.89099 0.0
N455 N 0.79544 0.63341 0.89492 0.0
C456 C 0.78744 0.58496 0.90538 0.0
C457 C 0.83127 0.56313 0.90315 0.0
C458 C 0.40515 0.20122 0.92453 0.0
C459 C 0.37819 0.16066 0.91014 0.0
C460 C 0.42417 0.26515 0.92321 0.0
C461 C 0.4178 0.29086 0.90733 0.0
H462 H 0.41623 0.18441 0.93642 0.0
H463 H 0.44793 0.29511 0.93441 0.0
S464 S 0.33884 0.2007 0.8669 0.0
N465 N 0.33727 0.1473 0.88048 0.0
N466 N 0.3733 0.26833 0.8778 0.0
C467 C 0.38473 0.24922 0.89342 0.0
C468 C 0.36472 0.18369 0.8949 0.0
C469 C 0.6984 0.1288 0.88857 0.0
C470 C 0.65754 0.10959 0.90312 0.0
C471 C 0.76361 0.16897 0.89079 0.0
C472 C 0.78927 0.19038 0.90758 0.0
H473 H 0.67955 0.11685 0.87538 0.0
H474 H 0.79288 0.1885 0.87923 0.0
S475 S 0.70479 0.14183 0.95 0.0
N476 N 0.6492 0.10543 0.93504 0.0
N477 N 0.77147 0.1819 0.93898 0.0
C478 C 0.75004 0.16568 0.92224 0.0
C479 C 0.68403 0.12505 0.92006 0.0
C480 C 0.23862 0.14152 0.39268 0.0
C481 C 0.25817 0.12101 0.40727 0.0
C482 C 0.21275 0.18062 0.39476 0.0
C483 C 0.20506 0.20003 0.41155 0.0
H484 H 0.23819 0.12273 0.37974 0.0
H485 H 0.19551 0.19279 0.38316 0.0
S486 S 0.25786 0.16597 0.45368 0.0
N487 N 0.27544 0.12801 0.43875 0.0
N488 N 0.22675 0.20235 0.44281 0.0
C489 C 0.23027 0.18486 0.4261 0.0
C490 C 0.25698 0.14505 0.42391 0.0
C491 C 0.86141 0.10347 0.39082 0.0
C492 C 0.87676 0.14383 0.40534 0.0
C493 C 0.82088 0.0386 0.39256 0.0
C494 C 0.79476 0.01175 0.40896 0.0
H495 H 0.8851 0.12151 0.37837 0.0
H496 H 0.81294 0.00909 0.38113 0.0
S497 S 0.8132 0.09977 0.45038 0.0
N498 N 0.85759 0.15486 0.43602 0.0
N499 N 0.78059 0.03213 0.43949 0.0
C500 C 0.80497 0.0526 0.42322 0.0
C501 C 0.84621 0.11903 0.42135 0.0
C502 C 0.95723 0.7933 0.39305 0.0
C503 C -0.01626 0.79564 0.40962 0.0
C504 C 0.89234 0.76773 0.39102 0.0
C505 C 0.85165 0.74317 0.40544 0.0
H506 H -0.01305 0.81414 0.38164 0.0
H507 H 0.8744 0.77177 0.37837 0.0
S508 S 0.89527 0.72927 0.45104 0.0
N509 N 0.9631 0.76414 0.44033 0.0
N510 N 0.84031 0.71613 0.43636 0.0
C511 C 0.87634 0.73953 0.42172 0.0
C512 C 0.94278 0.76593 0.42386 0.0
C513 C 0.46199 0.91169 0.22557 0.0
C514 C 0.43686 0.91378 0.24196 0.0
C515 C 0.50189 0.88611 0.22395 0.0
C516 C 0.51729 0.86183 0.23869 0.0
H517 H 0.44617 0.92436 0.21377 0.0
H518 H 0.51726 0.88161 0.21096 0.0
S519 S 0.47332 0.86952 0.28496 0.0
N520 N 0.43679 0.89873 0.27337 0.0
N521 N 0.51285 0.85196 0.2706 0.0
C522 C 0.49739 0.86993 0.25537 0.0
C523 C 0.45688 0.89573 0.25694 0.0
C524 C 0.08621 0.60364 0.22658 0.0
C525 C 0.11404 0.64453 0.24101 0.0
C526 C 0.06155 0.53833 0.22831 0.0
C527 C 0.06392 0.5123 0.24449 0.0
H528 H 0.08706 0.62241 0.21366 0.0
H529 H 0.04612 0.50908 0.21664 0.0
S530 S 0.11914 0.59609 0.28692 0.0
N531 N 0.13237 0.65214 0.27264 0.0
N532 N 0.08729 0.52957 0.27555 0.0
C533 C 0.08561 0.55145 0.25928 0.0
C534 C 0.11049 0.61767 0.25762 0.0
C535 C 0.44 0.51283 0.22614 0.0
C536 C 0.46711 0.53675 0.24262 0.0
C537 C 0.37469 0.47287 0.22444 0.0
C538 C 0.33503 0.45626 0.23921 0.0
H539 H 0.46836 0.53002 0.21437 0.0
H540 H 0.35492 0.45879 0.21139 0.0
S541 S 0.38646 0.49634 0.28563 0.0
N542 N 0.45216 0.53415 0.27408 0.0
N543 N 0.32948 0.4577 0.27118 0.0
C544 C 0.36294 0.47454 0.25596 0.0
C545 C 0.42916 0.51519 0.25759 0.0
C546 C 0.81349 0.46959 0.72229 0.0
C547 C 0.83778 0.51492 0.73578 0.0
C548 C 0.83299 0.42528 0.72044 0.0
C549 C 0.87713 0.42433 0.73206 0.0
H550 H 0.7762 0.46548 0.71374 0.0
H551 H 0.80957 0.3884 0.71066 0.0
S552 S 0.96944 0.54497 0.76581 0.0
N553 N 0.9191 0.56566 0.7582 0.0
N554 N 0.95491 0.48052 0.75489 0.0
C555 C 0.90792 0.47418 0.74407 0.0
C556 C 0.88811 0.51981 0.74596 0.0
C557 C 0.49336 0.44691 0.75448 0.0
C558 C 0.51919 0.47244 0.73801 0.0
C559 C 0.45306 0.38175 0.75643 0.0
C560 C 0.4379 0.34093 0.74194 0.0
H561 H 0.50926 0.47631 0.76615 0.0
H562 H 0.43754 0.36299 0.7695 0.0
S563 S 0.48175 0.38824 0.69546 0.0
N564 N 0.51892 0.45493 0.70669 0.0
N565 N 0.44184 0.33251 0.7101 0.0
C566 C 0.4577 0.36732 0.72512 0.0
C567 C 0.4987 0.43332 0.72321 0.0
C568 C 0.50453 0.0467 0.75053 0.0
C569 C 0.479 0.05336 0.73476 0.0
C570 C 0.56953 0.06953 0.75213 0.0
C571 C 0.61062 0.0993 0.7379 0.0
H572 H 0.47535 0.02987 0.76213 0.0
H573 H 0.58797 0.06773 0.76491 0.0
S574 S 0.56259 0.11304 0.69256 0.0
N575 N 0.49637 0.08109 0.70398 0.0
N576 N 0.6182 0.12223 0.70652 0.0
C577 C 0.58383 0.09858 0.72145 0.0
C578 C 0.51793 0.07582 0.71997 0.0
C579 C 0.1344 0.24973 0.58881 0.0
C580 C 0.11158 0.26667 0.57418 0.0
C581 C 0.17385 0.22425 0.58671 0.0
C582 C 0.19125 0.2144 0.56989 0.0
H583 H 0.11736 0.25119 0.60184 0.0
H584 H 0.18798 0.209 0.59835 0.0
S585 S 0.14898 0.25785 0.52754 0.0
N586 N 0.11298 0.27761 0.54252 0.0
N587 N 0.18816 0.22995 0.53846 0.0
C588 C 0.17333 0.23652 0.55523 0.0
C589 C 0.13308 0.26267 0.55741 0.0
C590 C 0.73625 0.89003 0.55856 0.0
C591 C 0.73103 0.86235 0.57505 0.0
C592 C 0.76194 0.95553 0.55699 0.0
C593 C 0.78362 -0.00526 0.5719 0.0
H594 H 0.72642 0.86198 0.54675 0.0
H595 H 0.76919 0.97581 0.54398 0.0
S596 S 0.76779 0.94215 0.61825 0.0
N597 N 0.74046 0.87657 0.60658 0.0
N598 N 0.78777 -0.00041 0.60388 0.0
C599 C 0.77225 0.96638 0.58858 0.0
C600 C 0.74606 0.89999 0.5901 0.0
C601 C 0.1102 0.85879 0.5599 0.0
C602 C 0.13777 0.88537 0.57614 0.0
C603 C 0.0447 0.81942 0.55841 0.0
C604 C 0.00534 0.80633 0.57313 0.0
H605 H 0.1384 0.8736 0.54806 0.0
H606 H 0.02461 0.80319 0.54548 0.0
S607 S 0.05766 0.85479 0.61915 0.0
N608 N 0.12332 0.88901 0.60748 0.0
N609 N 0.00027 0.81419 0.60496 0.0
C610 C 0.03356 0.82728 0.58974 0.0
C611 C 0.09997 0.867 0.59118 0.0
C612 C 0.38326 0.92441 -0.00288 0.0
C613 C 0.42587 0.97923 0.00646 0.0
C614 C 0.38339 0.92288 0.97875 0.0
C615 C 0.42606 0.97613 0.96904 0.0
H616 H 0.34921 0.8823 0.00402 0.0
H617 H 0.34935 0.87987 0.97213 0.0
S618 S 0.55061 0.12985 0.98718 0.0
N619 N 0.51392 0.0871 0.00458 0.0
N620 N 0.51439 0.08429 0.97013 0.0
C621 C 0.46957 0.031 0.97821 0.0
C622 C 0.46938 0.03255 -0.0031 0.0
C623 C 0.92864 0.37599 0.98116 0.0
C624 C -0.01539 0.40959 0.97135 0.0
C625 C 0.92953 0.37662 -0.00053 0.0
C626 C -0.01356 0.41061 0.00881 0.0
H627 H 0.88316 0.35022 0.97471 0.0
H628 H 0.88485 0.35119 0.00633 0.0
S629 S 0.14715 0.50139 0.98941 0.0
N630 N 0.09928 0.47417 0.97235 0.0
N631 N 0.10112 0.47516 0.00685 0.0
C632 C 0.04328 0.442 -0.0008 0.0
C633 C 0.04232 0.44153 0.98047 0.0
C634 C 0.55433 0.5309 0.98046 0.0
C635 C 0.51219 0.54445 0.97142 0.0
C636 C 0.55781 0.53263 -0.00129 0.0
C637 C 0.5195 0.54822 0.00882 0.0
H638 H 0.58484 0.5181 0.97341 0.0
H639 H 0.59057 0.521 0.00493 0.0
S640 S 0.40252 0.58986 -0.00829 0.0
N641 N 0.43241 0.57581 0.97397 0.0
N642 N 0.43893 0.57929 0.0085 0.0
C643 C 0.47824 0.56371 3e-05 0.0
C644 C 0.47462 0.5618 0.98129 0.0
C645 C 0.12431 0.37719 0.3326 0.0
C646 C 0.09484 0.32128 0.34252 0.0
C647 C 0.12379 0.37542 0.31428 0.0
C648 C 0.09386 0.31765 0.30504 0.0
H649 H 0.14881 0.42296 0.33899 0.0
H650 H 0.14798 0.42004 0.30735 0.0
S651 S 0.00678 0.15743 0.32476 0.0
N652 N 0.03254 0.20609 0.34171 0.0
N653 N 0.03182 0.20297 0.30722 0.0
C654 C 0.06302 0.26126 0.31476 0.0
C655 C 0.06343 0.26302 0.33348 0.0
C656 C 0.6033 0.74541 0.3328 0.0
C657 C 0.6593 0.76443 0.34229 0.0
C658 C 0.60296 0.74432 0.31446 0.0
C659 C 0.65862 0.76225 0.30486 0.0
H660 H 0.55947 0.73254 0.33954 0.0
H661 H 0.55882 0.73061 0.30778 0.0
S662 S 0.81661 0.80958 0.32343 0.0
N663 N 0.77118 0.79719 0.34071 0.0
N664 N 0.77041 0.79522 0.30622 0.0
C665 C 0.71459 0.77935 0.31417 0.0
C666 C 0.71496 0.78039 0.33287 0.0
C667 C 0.24629 0.87007 0.3143 0.0
C668 C 0.22102 0.9013 0.3046 0.0
C669 C 0.24685 0.87106 0.33262 0.0
C670 C 0.22221 0.90337 0.34208 0.0
H671 H 0.26487 0.84339 0.30774 0.0
H672 H 0.26581 0.84516 0.33937 0.0
S673 S 0.15504 -0.00283 0.32299 0.0
N674 N 0.17392 0.96867 0.30583 0.0
N675 N 0.17501 0.9707 0.34034 0.0
C676 C 0.19863 0.93667 0.33258 0.0
C677 C 0.19802 0.9356 0.31384 0.0
C678 C 0.72081 0.62642 0.66684 0.0
C679 C 0.7576 0.6813 0.67691 0.0
C680 C 0.72421 0.62747 0.64857 0.0
C681 C 0.76429 0.6835 0.63952 0.0
H682 H 0.68947 0.58161 0.67308 0.0
H683 H 0.6953 0.58366 0.64153 0.0
S684 S 0.869 0.8411 0.65952 0.0
N685 N 0.83429 0.79399 0.67639 0.0
N686 N 0.84059 0.79609 0.6419 0.0
C687 C 0.80035 0.73931 0.64932 0.0
C688 C 0.79703 0.73818 0.66803 0.0
C689 C 0.36108 0.13196 0.64951 0.0
C690 C 0.30618 0.10204 0.63918 0.0
C691 C 0.35766 0.13163 0.6678 0.0
C692 C 0.29917 0.1015 0.67662 0.0
H693 H 0.40735 0.15673 0.64347 0.0
H694 H 0.40164 0.15626 0.67503 0.0
S695 S 0.14108 0.01256 0.65576 0.0
N696 N 0.19112 0.03858 0.63916 0.0
N697 N 0.18495 0.03837 0.67363 0.0
C698 C 0.24376 0.07005 0.66651 0.0
C699 C 0.2472 0.07018 0.6478 0.0
C700 C 0.90034 0.18157 0.64891 0.0
C701 C 0.89222 0.22733 0.63987 0.0
C702 C 0.89546 0.1767 0.66724 0.0
C703 C 0.88233 0.21746 0.67711 0.0
H704 H 0.90811 0.14766 0.64175 0.0
H705 H 0.89951 0.13927 0.67362 0.0
S706 S 0.86735 0.35181 0.65993 0.0
N707 N 0.87754 0.3185 0.64231 0.0
N708 N 0.86881 0.30985 0.67668 0.0
C709 C 0.87789 0.26578 0.66829 0.0
C710 C 0.88267 0.27057 0.64969 0.0
C711 C 0.34571 0.9241 0.16922 0.0
C712 C 0.282 0.90572 0.17226 0.0
C713 C 0.3714 0.93832 0.15231 0.0
C714 C 0.33463 0.93602 0.13785 0.0
H715 H 0.37615 0.92808 0.18007 0.0
H716 H 0.42076 0.95251 0.15065 0.0
S717 S 0.16496 0.89165 0.13919 0.0
N718 N 0.18257 0.88555 0.15973 0.0
N719 N 0.23036 0.91371 0.12789 0.0
C720 C 0.27039 0.91717 0.14079 0.0
C721 C 0.24415 0.90154 0.158 0.0
C722 C 0.06179 0.36484 0.14268 0.0
C723 C 0.02792 0.39733 0.14062 0.0
C724 C 0.07892 0.35406 0.15929 0.0
C725 C 0.06199 0.37452 0.17446 0.0
H726 H 0.07462 0.34677 0.13135 0.0
H727 H 0.10338 0.32741 0.16025 0.0
S728 S -0.02135 0.46684 0.17624 0.0
N729 N -0.01763 0.4539 0.15511 0.0
N730 N 0.01374 0.43309 0.18642 0.0
C731 C 0.03038 0.40931 0.17258 0.0
C732 C 0.01366 0.42097 0.15563 0.0
C733 C 0.6222 0.71302 0.15858 0.0
C734 C 0.60499 0.67636 0.17388 0.0
C735 C 0.60802 0.68425 0.142 0.0
C736 C 0.57513 0.61777 0.14009 0.0
H737 H 0.64846 0.76417 0.15941 0.0
H738 H 0.62332 0.71455 0.13055 0.0
S739 S 0.51467 0.50061 0.17615 0.0
N740 N 0.55008 0.56994 0.18614 0.0
N741 N 0.52284 0.51636 0.15494 0.0
C742 C 0.55539 0.58063 0.15528 0.0
C743 C 0.57056 0.60981 0.17217 0.0
C744 C 0.87606 0.28025 0.83789 0.0
C745 C 0.90282 0.34597 0.84056 0.0
C746 C 0.85966 0.25358 0.82109 0.0
C747 C 0.87037 0.29179 0.80633 0.0
H748 H 0.86888 0.24911 0.84883 0.0
H749 H 0.84144 0.20324 0.81959 0.0
S750 S 0.9316 0.46487 0.80636 0.0
N751 N 0.9333 0.44743 0.82719 0.0
N752 N 0.90353 0.39753 0.79548 0.0
C753 C 0.89397 0.35699 0.80886 0.0
C754 C 0.9098 0.38402 0.82602 0.0
C755 C 0.57473 0.54201 0.8271 0.0
C756 C 0.61283 0.55215 0.84186 0.0
C757 C 0.60144 0.55935 0.81038 0.0
C758 C 0.66709 0.58653 0.8078 0.0
H759 H 0.52441 0.52359 0.82855 0.0
H760 H 0.5704 0.55264 0.79944 0.0
S761 S 0.78575 0.61393 0.84198 0.0
N762 N 0.71836 0.58505 0.85279 0.0
N763 N 0.76846 0.61663 0.82118 0.0
C764 C 0.70508 0.59284 0.82231 0.0
C765 C 0.67797 0.57603 0.83941 0.0
C766 C 0.34047 0.0845 0.82157 0.0
C767 C 0.36139 0.07098 0.8059 0.0
C768 C 0.3536 0.0665 0.83777 0.0
C769 C 0.38913 0.0354 0.8389 0.0
H770 H 0.31148 0.10657 0.8213 0.0
H771 H 0.3348 0.07619 0.84949 0.0
S772 S 0.46065 -0.00429 0.80168 0.0
N773 N 0.42322 0.02891 0.7925 0.0
N774 N 0.44881 -0.00372 0.82298 0.0
C775 C 0.41319 0.02478 0.82338 0.0
C776 C 0.39901 0.0422 0.80687 0.0
C777 C 0.93185 0.24216 0.49355 0.0
C778 C 0.96787 0.27465 0.50833 0.0
C779 C 0.95917 0.25421 0.4768 0.0
C780 C 0.02376 0.29796 0.47427 0.0
H781 H 0.88204 0.20794 0.49484 0.0
H782 H 0.92946 0.22902 0.46571 0.0
S783 S 0.13923 0.396 0.50837 0.0
N784 N 0.07232 0.35377 0.5191 0.0
N785 N 0.12298 0.37396 0.48766 0.0
C786 C 0.06063 0.32995 0.48885 0.0
C787 C 0.03282 0.31898 0.50586 0.0
C788 C 0.73664 0.70765 0.47642 0.0
C789 C 0.70513 0.74232 0.474 0.0
C790 C 0.75129 0.69548 0.49321 0.0
C791 C 0.73385 0.7165 0.50819 0.0
H792 H 0.74971 0.68919 0.46524 0.0
H793 H 0.77444 0.66768 0.49446 0.0
S794 S 0.65448 0.81273 0.50906 0.0
N795 N 0.66032 0.80045 0.48801 0.0
N796 N 0.68668 0.77683 0.51959 0.0
C797 C 0.70394 0.75275 0.50596 0.0
C798 C 0.68993 0.76592 0.48886 0.0
C799 C 0.2936 0.0384 0.47635 0.0
C800 C 0.2567 0.97219 0.47412 0.0
C801 C 0.30629 0.0663 0.49302 0.0
C802 C 0.28365 0.02894 0.50812 0.0
H803 H 0.31331 0.06918 0.4651 0.0
H804 H 0.33561 0.1172 0.49409 0.0
S805 S 0.18195 0.85391 0.50955 0.0
N806 N 0.19516 0.87051 0.48846 0.0
N807 N 0.21983 0.92252 0.51987 0.0
C808 C 0.2455 0.96281 0.5061 0.0
C809 C 0.23176 0.93453 0.4891 0.0
C810 C 0.43868 0.27763 0.06141 0.0
C811 C 0.44475 0.30558 0.07804 0.0
C812 C 0.41541 0.21295 0.05962 0.0
C813 C 0.3964 0.17335 0.0743 0.0
H814 H 0.45442 0.30608 0.04962 0.0
H815 H 0.4157 0.19428 0.04672 0.0
S816 S 0.39462 0.22005 0.12047 0.0
N817 N 0.42364 0.2869 0.10937 0.0
N818 N 0.37953 0.16429 0.10581 0.0
C819 C 0.39738 0.19914 0.09085 0.0
C820 C 0.42174 0.2656 0.09277 0.0
C821 C 0.68293 0.13844 0.06417 0.0
C822 C 0.6518 0.12162 0.08051 0.0
C823 C 0.74787 0.17885 0.0631 0.0
C824 C 0.7844 0.20349 0.07828 0.0
H825 H 0.65674 0.1224 0.05199 0.0
H826 H 0.76916 0.19407 0.05025 0.0
S827 S 0.72833 0.16841 0.12423 0.0
N828 N 0.66383 0.12777 0.1123 0.0
N829 N 0.78708 0.20452 0.11013 0.0
C830 C 0.75534 0.18337 0.09472 0.0
C831 C 0.68862 0.14217 0.09587 0.0
C832 C 0.76045 0.52663 0.05998 0.0
C833 C 0.74581 0.55306 0.07431 0.0
C834 C 0.80202 0.50359 0.06173 0.0
C835 C 0.83056 0.50554 0.07795 0.0
H836 H 0.73732 0.52109 0.04744 0.0
H837 H 0.81012 0.4823 0.05026 0.0
S838 S 0.81231 0.57622 0.11919 0.0
N839 N 0.76615 0.5847 0.10495 0.0
N840 N 0.84522 0.5414 0.10835 0.0
C841 C 0.81925 0.53543 0.09221 0.0
C842 C 0.77677 0.55935 0.09035 0.0
C843 C 0.25237 0.40141 0.89137 0.0
C844 C 0.29867 0.46534 0.88937 0.0
C845 C 0.18835 0.38359 0.89265 0.0
C846 C 0.17002 0.42964 0.89202 0.0
H847 H 0.26609 0.36589 0.89319 0.0
H848 H 0.15395 0.33471 0.89542 0.0
S849 S 0.27345 0.60142 0.88365 0.0
N850 N 0.32218 0.57305 0.88459 0.0
N851 N 0.20203 0.54005 0.88653 0.0
C852 C 0.21578 0.49278 0.88836 0.0
C853 C 0.28038 0.51064 0.8872 0.0
C854 C 0.53539 0.82838 0.91063 0.0
C855 C 0.51025 0.83465 0.89463 0.0
C856 C 0.55964 0.78766 0.91218 0.0
C857 C 0.56015 0.75233 0.89776 0.0
H858 H 0.5334 0.85267 0.92232 0.0
H859 H 0.57333 0.77992 0.92506 0.0
S860 S 0.50715 0.75686 0.85256 0.0
N861 N 0.49334 0.80696 0.86366 0.0
N862 N 0.53895 0.72954 0.86669 0.0
C863 C 0.54039 0.76202 0.88135 0.0
C864 C 0.51544 0.8036 0.87974 0.0
C865 C 0.18174 0.75153 0.8845 0.0
C866 C 0.19922 0.7849 0.90044 0.0
C867 C 0.13447 0.68762 0.88402 0.0
C868 C 0.10402 0.65571 0.89953 0.0
H869 H 0.20773 0.77357 0.87261 0.0
H870 H 0.12484 0.66219 0.87171 0.0
S871 S 0.12651 0.72673 0.94397 0.0
N872 N 0.17848 0.78478 0.93153 0.0
N873 N 0.08865 0.66527 0.93077 0.0
C874 C 0.11776 0.69063 0.91525 0.0
C875 C 0.16585 0.7552 0.91568 0.0
C876 C 0.12429 0.63238 0.39646 0.0
C877 C 0.13059 0.66121 0.41295 0.0
C878 C 0.10058 0.56754 0.39494 0.0
C879 C 0.08148 0.52864 0.40979 0.0
H880 H 0.13998 0.66025 0.38456 0.0
H881 H 0.10047 0.54813 0.38212 0.0
S882 S 0.08071 0.57805 0.45572 0.0
N883 N 0.10988 0.6443 0.44433 0.0
N884 N 0.06505 0.52139 0.44131 0.0
C885 C 0.08282 0.5554 0.42621 0.0
C886 C 0.10753 0.62202 0.42783 0.0
C887 C 0.43635 0.54155 0.42802 0.0
C888 C 0.46783 0.55513 0.41182 0.0
C889 C 0.37076 0.5009 0.42896 0.0
C890 C 0.33511 0.47348 0.41366 0.0
H891 H 0.46163 0.56629 0.43978 0.0
H892 H 0.34753 0.49411 0.44152 0.0
S893 S 0.39866 0.48678 0.36857 0.0
N894 N 0.461 0.53312 0.38066 0.0
N895 N 0.33818 0.45579 0.38223 0.0
C896 C 0.36743 0.48281 0.39763 0.0
C897 C 0.4338 0.52399 0.39676 0.0
C898 C 0.49657 0.87226 0.39688 0.0
C899 C 0.51709 0.86404 0.41343 0.0
C900 C 0.45659 0.89723 0.39532 0.0
C901 C 0.43603 0.91557 0.41019 0.0
H902 H 0.50939 0.85709 0.38496 0.0
H903 H 0.43855 0.89866 0.38243 0.0
S904 S 0.48172 0.91191 0.4563 0.0
N905 N 0.51875 0.88254 0.44491 0.0
N906 N 0.44277 0.92969 0.44182 0.0
C907 C 0.45979 0.9126 0.42669 0.0
C908 C 0.50055 0.88667 0.42836 0.0
C909 C 0.87719 0.74618 0.22061 0.0
C910 C 0.84803 0.73791 0.23703 0.0
C911 C 0.94269 0.77108 0.21943 0.0
C912 C -0.01961 0.78869 0.23465 0.0
H913 H 0.8502 0.73828 0.20867 0.0
H914 H 0.96422 0.78008 0.20655 0.0
S915 S 0.9231 0.7647 0.28073 0.0
N916 N 0.85907 0.741 0.26866 0.0
N917 N -0.01824 0.78665 0.26666 0.0
C918 C 0.95037 0.77507 0.25114 0.0
C919 C 0.88412 0.74987 0.25227 0.0
C920 C 0.2197 0.11197 0.21606 0.0
C921 C 0.24306 0.10213 0.23187 0.0
C922 C 0.19591 0.15371 0.21534 0.0
C923 C 0.19409 0.18564 0.23052 0.0
H924 H 0.21502 0.0835 0.20462 0.0
H925 H 0.17484 0.15746 0.20323 0.0
S926 S 0.25974 0.18309 0.27425 0.0
N927 N 0.27015 0.13256 0.26228 0.0
N928 N 0.22642 0.21158 0.26107 0.0
C929 C 0.22257 0.18009 0.24596 0.0
C930 C 0.2468 0.13802 0.24661 0.0
C931 C 0.81643 0.02551 0.24871 0.0
C932 C 0.79734 -0.00412 0.23218 0.0
C933 C 0.85837 0.09018 0.25019 0.0
C934 C 0.88223 0.12804 0.23525 0.0
H935 H 0.80098 -0.00173 0.26072 0.0
H936 H 0.87518 0.11011 0.26313 0.0
S937 S 0.84217 0.07648 0.18901 0.0
N938 N 0.8012 0.01102 0.20053 0.0
N939 N 0.88067 0.13372 0.20347 0.0
C940 C 0.86021 0.10063 0.21867 0.0
C941 C 0.81748 0.03417 0.2171 0.0
C942 C 0.71264 0.87772 0.7335 0.0
C943 C 0.70647 0.84286 0.74867 0.0
C944 C 0.73634 0.94264 0.73443 0.0
C945 C 0.75508 0.97485 0.75058 0.0
H946 H 0.70393 0.8555 0.72068 0.0
H947 H 0.74313 0.96817 0.72227 0.0
S948 S 0.73933 0.9025 0.79435 0.0
N949 N 0.71362 0.84264 0.78044 0.0
N950 N 0.75834 0.96578 0.78232 0.0
C951 C 0.74331 0.93947 0.76605 0.0
C952 C 0.71884 0.87294 0.76506 0.0
C953 C 0.08041 0.84698 0.75268 0.0
C954 C 0.09793 0.91125 0.75246 0.0
C955 C 0.01695 0.80031 0.75504 0.0
C956 C 0.9702 0.81723 0.75729 0.0
H957 H 0.11498 0.83266 0.74997 0.0
H958 H 0.00382 0.75098 0.75386 0.0
S959 S -0.00637 0.97858 0.76122 0.0
N960 N 0.06487 -0.01076 0.75751 0.0
N961 N 0.94589 0.90122 0.76143 0.0
C962 C -0.0121 0.88103 0.75855 0.0
C963 C 0.05194 0.92828 0.75628 0.0
C964 C 0.15907 0.2352 0.7396 0.0
C965 C 0.16052 0.19738 0.75333 0.0
C966 C 0.11296 0.25317 0.73906 0.0
C967 C 0.06688 0.23376 0.75219 0.0
H968 H 0.19193 0.2484 0.72875 0.0
H969 H 0.11055 0.27837 0.72766 0.0
S970 S 0.0521 0.13815 0.79143 0.0
N971 N 0.11436 0.14487 0.78095 0.0
N972 N 0.02675 0.17785 0.77968 0.0
C973 C 0.0699 0.19925 0.76649 0.0
C974 C 0.11722 0.1814 0.76716 0.0
C975 C 0.56095 0.1145 0.58722 0.0
C976 C 0.52139 0.09387 0.57249 0.0
C977 C 0.62566 0.13822 0.58557 0.0
C978 C 0.65381 0.14305 0.56906 0.0
H979 H 0.54212 0.1153 0.60004 0.0
H980 H 0.65393 0.15495 0.5974 0.0
S981 S 0.56887 0.08909 0.52659 0.0
N982 N 0.51288 0.07461 0.54106 0.0
N983 N 0.63557 0.11954 0.53782 0.0
C984 C 0.61403 0.1187 0.55431 0.0
C985 C 0.5475 0.09393 0.55606 0.0
C986 C 0.88787 0.46721 0.58786 0.0
C987 C 0.90826 0.44792 0.57314 0.0
C988 C 0.86393 0.50804 0.58617 0.0
C989 C 0.85864 0.53069 0.56963 0.0
H990 H 0.88711 0.44769 0.60069 0.0
H991 H 0.84717 0.51977 0.59797 0.0
S992 S 0.91253 0.49905 0.5272 0.0
N993 N 0.92733 0.45798 0.54173 0.0
N994 N 0.88199 0.53544 0.53838 0.0
C995 C 0.88309 0.51516 0.5549 0.0
C996 C 0.90809 0.47362 0.5567 0.0
C997 C 0.49231 0.3739 0.58509 0.0
C998 C 0.47 0.34488 0.56862 0.0
C999 C 0.5334 0.43874 0.58657 0.0
C1000 C 0.55341 0.47751 0.5717 0.0
H1001 H 0.47998 0.3462 0.59702 0.0
H1002 H 0.55241 0.45826 0.5994 0.0
S1003 S 0.50386 0.4277 0.52577 0.0
N1004 N 0.46668 0.36156 0.5372 0.0
N1005 N 0.54468 0.48446 0.54015 0.0
C1006 C 0.52831 0.45058 0.55528 0.0
C1007 C 0.48644 0.38395 0.55369 0.0
loop_
_geom_bond_atom_site_label_1
_geom_bond_atom_site_label_2
_geom_bond_distance
_geom_bond_site_symmetry_2
_ccdc_geom_bond_type
O0 Zn1 1.953 . S
O0 C16 1.225 . S
Zn1 O0 1.953 . S
Zn1 O2 1.949 . S
Zn1 O8 1.919 . S
Zn1 O13 1.924 1_545 S
O2 Zn1 1.949 . S
O2 Zn3 1.923 . S
O2 Zn4 1.950 . S
O2 Zn5 1.945 1_545 S
Zn3 O2 1.923 . S
Zn3 O6 1.933 1_545 S
Zn3 O9 1.941 . S
Zn3 O10 1.965 . S
Zn4 O2 1.950 . S
Zn4 O11 1.938 . S
Zn4 O12 1.906 . S
Zn4 O22 1.953 . S
Zn5 O2 1.945 1_565 S
Zn5 O7 1.932 . S
Zn5 O14 1.977 . S
Zn5 O15 1.910 . S
O6 Zn3 1.933 1_565 S
O6 C17 1.226 . S
O7 Zn5 1.932 . S
O7 C17 1.307 . S
O8 Zn1 1.919 . S
O8 C19 1.256 1_545 S
O9 Zn3 1.941 . S
O9 C19 1.279 1_545 S
O10 Zn3 1.965 . S
O10 C18 1.303 . S
O11 Zn4 1.938 . S
O11 C18 1.247 . S
O12 Zn4 1.906 . S
O12 C20 1.304 1_545 S
O13 Zn1 1.924 1_565 S
O13 C21 1.311 . S
O14 Zn5 1.977 . S
O14 C20 1.272 . S
O15 Zn5 1.910 . S
O15 C21 1.231 . S
C16 O0 1.225 . S
C16 O22 1.298 . S
C17 O6 1.226 . S
C17 O7 1.307 . S
C18 O10 1.303 . S
C18 O11 1.247 . S
C19 O8 1.256 1_565 S
C19 O9 1.279 1_565 S
C20 O12 1.304 1_565 S
C20 O14 1.272 . S
C21 O13 1.311 . S
C21 O15 1.231 . S
O22 Zn4 1.953 . S
O22 C16 1.298 . S
O23 Zn24 1.953 1_655 S
O23 C39 1.225 . S
Zn24 O23 1.953 1_455 S
Zn24 O25 1.949 . S
Zn24 O31 1.919 . S
Zn24 O36 1.924 . S
O25 Zn24 1.949 . S
O25 Zn26 1.923 . S
O25 Zn27 1.950 1_455 S
O25 Zn28 1.945 . S
Zn26 O25 1.923 . S
Zn26 O29 1.933 . S
Zn26 O32 1.941 . S
Zn26 O33 1.965 1_455 S
Zn27 O25 1.950 1_655 S
Zn27 O34 1.938 . S
Zn27 O35 1.906 . S
Zn27 O45 1.953 . S
Zn28 O25 1.945 . S
Zn28 O30 1.932 . S
Zn28 O37 1.977 . S
Zn28 O38 1.910 . S
O29 Zn26 1.933 . S
O29 C40 1.226 . S
O30 Zn28 1.932 . S
O30 C40 1.307 . S
O31 Zn24 1.919 . S
O31 C42 1.253 . S
O32 Zn26 1.941 . S
O32 C42 1.283 . S
O33 Zn26 1.965 1_655 S
O33 C41 1.303 . S
O34 Zn27 1.938 . S
O34 C41 1.247 . S
O35 Zn27 1.906 . S
O35 C43 1.304 1_655 S
O36 Zn24 1.924 . S
O36 C44 1.311 . S
O37 Zn28 1.977 . S
O37 C43 1.272 . S
O38 Zn28 1.910 . S
O38 C44 1.231 . S
C39 O23 1.225 . S
C39 O45 1.298 . S
C40 O29 1.226 . S
C40 O30 1.307 . S
C41 O33 1.303 . S
C41 O34 1.247 . S
C42 O31 1.253 . S
C42 O32 1.283 . S
C43 O35 1.304 1_455 S
C43 O37 1.272 . S
C44 O36 1.311 . S
C44 O38 1.231 . S
O45 Zn27 1.953 . S
O45 C39 1.298 . S
O46 Zn47 1.953 . S
O46 C62 1.225 . S
Zn47 O46 1.953 . S
Zn47 O48 1.949 . S
Zn47 O54 1.919 . S
Zn47 O59 1.924 . S
O48 Zn47 1.949 . S
O48 Zn49 1.923 . S
O48 Zn50 1.950 . S
O48 Zn51 1.945 . S
Zn49 O48 1.923 . S
Zn49 O52 1.933 . S
Zn49 O55 1.941 . S
Zn49 O56 1.965 . S
Zn50 O48 1.950 . S
Zn50 O57 1.938 . S
Zn50 O58 1.906 . S
Zn50 O68 1.953 . S
Zn51 O48 1.945 . S
Zn51 O53 1.932 . S
Zn51 O60 1.977 . S
Zn51 O61 1.910 . S
O52 Zn49 1.933 . S
O52 C63 1.226 . S
O53 Zn51 1.932 . S
O53 C63 1.307 . S
O54 Zn47 1.919 . S
O54 C65 1.253 . S
O55 Zn49 1.941 . S
O55 C65 1.283 . S
O56 Zn49 1.965 . S
O56 C64 1.303 . S
O57 Zn50 1.938 . S
O57 C64 1.247 . S
O58 Zn50 1.906 . S
O58 C66 1.304 . S
O59 Zn47 1.924 . S
O59 C67 1.311 . S
O60 Zn51 1.977 . S
O60 C66 1.272 . S
O61 Zn51 1.910 . S
O61 C67 1.231 . S
C62 O46 1.225 . S
C62 O68 1.298 . S
C63 O52 1.226 . S
C63 O53 1.307 . S
C64 O56 1.303 . S
C64 O57 1.247 . S
C65 O54 1.253 . S
C65 O55 1.283 . S
C66 O58 1.304 . S
C66 O60 1.272 . S
C67 O59 1.311 . S
C67 O61 1.231 . S
O68 Zn50 1.953 . S
O68 C62 1.298 . S
O69 Zn70 1.953 . S
O69 C85 1.225 . S
Zn70 O69 1.953 . S
Zn70 O71 1.949 . S
Zn70 O77 1.919 . S
Zn70 O82 1.924 1_455 S
O71 Zn70 1.949 . S
O71 Zn72 1.923 . S
O71 Zn73 1.950 . S
O71 Zn74 1.945 1_455 S
Zn72 O71 1.923 . S
Zn72 O75 1.933 1_455 S
Zn72 O78 1.941 . S
Zn72 O79 1.965 . S
Zn73 O71 1.950 . S
Zn73 O80 1.938 . S
Zn73 O81 1.906 . S
Zn73 O91 1.953 . S
Zn74 O71 1.945 1_655 S
Zn74 O76 1.932 . S
Zn74 O83 1.977 . S
Zn74 O84 1.910 . S
O75 Zn72 1.933 1_655 S
O75 C86 1.226 . S
O76 Zn74 1.932 . S
O76 C86 1.307 . S
O77 Zn70 1.919 . S
O77 C88 1.256 1_455 S
O78 Zn72 1.941 . S
O78 C88 1.279 1_455 S
O79 Zn72 1.965 . S
O79 C87 1.303 . S
O80 Zn73 1.938 . S
O80 C87 1.247 . S
O81 Zn73 1.906 . S
O81 C89 1.304 1_455 S
O82 Zn70 1.924 1_655 S
O82 C90 1.311 . S
O83 Zn74 1.977 . S
O83 C89 1.272 . S
O84 Zn74 1.910 . S
O84 C90 1.231 . S
C85 O69 1.225 . S
C85 O91 1.298 . S
C86 O75 1.226 . S
C86 O76 1.307 . S
C87 O79 1.303 . S
C87 O80 1.247 . S
C88 O77 1.256 1_655 S
C88 O78 1.279 1_655 S
C89 O81 1.304 1_655 S
C89 O83 1.272 . S
C90 O82 1.311 . S
C90 O84 1.231 . S
O91 Zn73 1.953 . S
O91 C85 1.298 . S
O92 Zn93 1.953 . S
O92 C108 1.225 . S
Zn93 O92 1.953 . S
Zn93 O94 1.949 . S
Zn93 O100 1.919 . S
Zn93 O105 1.924 . S
O94 Zn93 1.949 . S
O94 Zn95 1.923 . S
O94 Zn96 1.950 . S
O94 Zn97 1.945 . S
Zn95 O94 1.923 . S
Zn95 O98 1.933 . S
Zn95 O101 1.941 . S
Zn95 O102 1.965 . S
Zn96 O94 1.950 . S
Zn96 O103 1.938 . S
Zn96 O104 1.906 . S
Zn96 O114 1.953 . S
Zn97 O94 1.945 . S
Zn97 O99 1.932 . S
Zn97 O106 1.977 . S
Zn97 O107 1.910 . S
O98 Zn95 1.933 . S
O98 C109 1.226 . S
O99 Zn97 1.932 . S
O99 C109 1.307 . S
O100 Zn93 1.919 . S
O100 C111 1.253 . S
O101 Zn95 1.941 . S
O101 C111 1.283 . S
O102 Zn95 1.965 . S
O102 C110 1.303 . S
O103 Zn96 1.938 . S
O103 C110 1.247 . S
O104 Zn96 1.906 . S
O104 C112 1.304 . S
O105 Zn93 1.924 . S
O105 C113 1.311 . S
O106 Zn97 1.977 . S
O106 C112 1.272 . S
O107 Zn97 1.910 . S
O107 C113 1.231 . S
C108 O92 1.225 . S
C108 O114 1.298 . S
C109 O98 1.226 . S
C109 O99 1.307 . S
C110 O102 1.303 . S
C110 O103 1.247 . S
C111 O100 1.253 . S
C111 O101 1.283 . S
C112 O104 1.304 . S
C112 O106 1.272 . S
C113 O105 1.311 . S
C113 O107 1.231 . S
O114 Zn96 1.953 . S
O114 C108 1.298 . S
O115 Zn116 1.953 1_565 S
O115 C131 1.225 . S
Zn116 O115 1.953 1_545 S
Zn116 O117 1.949 . S
Zn116 O123 1.919 . S
Zn116 O128 1.924 . S
O117 Zn116 1.949 . S
O117 Zn118 1.923 . S
O117 Zn119 1.950 1_545 S
O117 Zn120 1.945 . S
Zn118 O117 1.923 . S
Zn118 O121 1.933 . S
Zn118 O124 1.941 . S
Zn118 O125 1.965 1_545 S
Zn119 O117 1.950 1_565 S
Zn119 O126 1.938 . S
Zn119 O127 1.906 . S
Zn119 O137 1.953 . S
Zn120 O117 1.945 . S
Zn120 O122 1.932 . S
Zn120 O129 1.977 . S
Zn120 O130 1.910 . S
O121 Zn118 1.933 . S
O121 C132 1.226 . S
O122 Zn120 1.932 . S
O122 C132 1.307 . S
O123 Zn116 1.919 . S
O123 C134 1.253 . S
O124 Zn118 1.941 . S
O124 C134 1.283 . S
O125 Zn118 1.965 1_565 S
O125 C133 1.303 . S
O126 Zn119 1.938 . S
O126 C133 1.247 . S
O127 Zn119 1.906 . S
O127 C135 1.304 1_565 S
O128 Zn116 1.924 . S
O128 C136 1.311 . S
O129 Zn120 1.977 . S
O129 C135 1.272 . S
O130 Zn120 1.910 . S
O130 C136 1.231 . S
C131 O115 1.225 . S
C131 O137 1.298 . S
C132 O121 1.226 . S
C132 O122 1.307 . S
C133 O125 1.303 . S
C133 O126 1.247 . S
C134 O123 1.253 . S
C134 O124 1.283 . S
C135 O127 1.304 1_545 S
C135 O129 1.272 . S
C136 O128 1.311 . S
C136 O130 1.231 . S
O137 Zn119 1.953 . S
O137 C131 1.298 . S
O138 Zn139 1.953 . S
O138 C154 1.225 . S
Zn139 O138 1.953 . S
Zn139 O140 1.949 . S
Zn139 O146 1.919 . S
Zn139 O151 1.924 . S
O140 Zn139 1.949 . S
O140 Zn141 1.923 . S
O140 Zn142 1.950 . S
O140 Zn143 1.945 . S
Zn141 O140 1.923 . S
Zn141 O144 1.933 1_455 S
Zn141 O147 1.941 . S
Zn141 O148 1.965 . S
Zn142 O140 1.950 . S
Zn142 O149 1.938 . S
Zn142 O150 1.906 . S
Zn142 O160 1.953 . S
Zn143 O140 1.945 . S
Zn143 O145 1.932 1_455 S
Zn143 O152 1.977 . S
Zn143 O153 1.910 . S
O144 Zn141 1.933 1_655 S
O144 C155 1.226 . S
O145 Zn143 1.932 1_655 S
O145 C155 1.307 . S
O146 Zn139 1.919 . S
O146 C157 1.253 . S
O147 Zn141 1.941 . S
O147 C157 1.283 . S
O148 Zn141 1.965 . S
O148 C156 1.303 . S
O149 Zn142 1.938 . S
O149 C156 1.247 . S
O150 Zn142 1.906 . S
O150 C158 1.304 . S
O151 Zn139 1.924 . S
O151 C159 1.311 . S
O152 Zn143 1.977 . S
O152 C158 1.272 . S
O153 Zn143 1.910 . S
O153 C159 1.231 . S
C154 O138 1.225 . S
C154 O160 1.298 . S
C155 O144 1.226 . S
C155 O145 1.307 . S
C156 O148 1.303 . S
C156 O149 1.247 . S
C157 O146 1.253 . S
C157 O147 1.283 . S
C158 O150 1.304 . S
C158 O152 1.272 . S
C159 O151 1.311 . S
C159 O153 1.231 . S
O160 Zn142 1.953 . S
O160 C154 1.298 . S
O161 Zn162 1.953 . S
O161 C177 1.225 . S
Zn162 O161 1.953 . S
Zn162 O163 1.949 . S
Zn162 O169 1.919 . S
Zn162 O174 1.924 . S
O163 Zn162 1.949 . S
O163 Zn164 1.923 . S
O163 Zn165 1.950 . S
O163 Zn166 1.945 . S
Zn164 O163 1.923 . S
Zn164 O167 1.933 . S
Zn164 O170 1.941 . S
Zn164 O171 1.965 . S
Zn165 O163 1.950 . S
Zn165 O172 1.938 . S
Zn165 O173 1.906 . S
Zn165 O183 1.953 . S
Zn166 O163 1.945 . S
Zn166 O168 1.932 . S
Zn166 O175 1.977 . S
Zn166 O176 1.910 . S
O167 Zn164 1.933 . S
O167 C178 1.226 . S
O168 Zn166 1.932 . S
O168 C178 1.307 . S
O169 Zn162 1.919 . S
O169 C180 1.253 . S
O170 Zn164 1.941 . S
O170 C180 1.283 . S
O171 Zn164 1.965 . S
O171 C179 1.303 . S
O172 Zn165 1.938 . S
O172 C179 1.247 . S
O173 Zn165 1.906 . S
O173 C181 1.304 . S
O174 Zn162 1.924 . S
O174 C182 1.311 . S
O175 Zn166 1.977 . S
O175 C181 1.272 . S
O176 Zn166 1.910 . S
O176 C182 1.231 . S
C177 O161 1.225 . S
C177 O183 1.298 . S
C178 O167 1.226 . S
C178 O168 1.307 . S
C179 O171 1.303 . S
C179 O172 1.247 . S
C180 O169 1.253 . S
C180 O170 1.283 . S
C181 O173 1.304 . S
C181 O175 1.272 . S
C182 O174 1.311 . S
C182 O176 1.231 . S
O183 Zn165 1.953 . S
O183 C177 1.298 . S
O184 Zn185 1.953 . S
O184 C200 1.225 . S
Zn185 O184 1.953 . S
Zn185 O186 1.949 . S
Zn185 O192 1.919 . S
Zn185 O197 1.924 . S
O186 Zn185 1.949 . S
O186 Zn187 1.923 . S
O186 Zn188 1.950 . S
O186 Zn189 1.945 . S
Zn187 O186 1.923 . S
Zn187 O190 1.933 1_565 S
Zn187 O193 1.941 . S
Zn187 O194 1.965 . S
Zn188 O186 1.950 . S
Zn188 O195 1.938 . S
Zn188 O196 1.906 . S
Zn188 O206 1.953 . S
Zn189 O186 1.945 . S
Zn189 O191 1.932 1_565 S
Zn189 O198 1.977 . S
Zn189 O199 1.910 . S
O190 Zn187 1.933 1_545 S
O190 C201 1.226 . S
O191 Zn189 1.932 1_545 S
O191 C201 1.307 . S
O192 Zn185 1.919 . S
O192 C203 1.253 . S
O193 Zn187 1.941 . S
O193 C203 1.283 . S
O194 Zn187 1.965 . S
O194 C202 1.303 . S
O195 Zn188 1.938 . S
O195 C202 1.247 . S
O196 Zn188 1.906 . S
O196 C204 1.304 . S
O197 Zn185 1.924 . S
O197 C205 1.311 . S
O198 Zn189 1.977 . S
O198 C204 1.272 . S
O199 Zn189 1.910 . S
O199 C205 1.231 . S
C200 O184 1.225 . S
C200 O206 1.298 . S
C201 O190 1.226 . S
C201 O191 1.307 . S
C202 O194 1.303 . S
C202 O195 1.247 . S
C203 O192 1.253 . S
C203 O193 1.283 . S
C204 O196 1.304 . S
C204 O198 1.272 . S
C205 O197 1.311 . S
C205 O199 1.231 . S
O206 Zn188 1.953 . S
O206 C200 1.298 . S
O207 Zn208 1.953 . S
O207 C223 1.225 . S
Zn208 O207 1.953 . S
Zn208 O209 1.949 . S
Zn208 O215 1.919 . S
Zn208 O220 1.924 . S
O209 Zn208 1.949 . S
O209 Zn210 1.923 . S
O209 Zn211 1.950 . S
O209 Zn212 1.945 . S
Zn210 O209 1.923 . S
Zn210 O213 1.933 . S
Zn210 O216 1.941 . S
Zn210 O217 1.965 . S
Zn211 O209 1.950 . S
Zn211 O218 1.938 . S
Zn211 O219 1.906 . S
Zn211 O229 1.953 . S
Zn212 O209 1.945 . S
Zn212 O214 1.932 . S
Zn212 O221 1.977 . S
Zn212 O222 1.910 . S
O213 Zn210 1.933 . S
O213 C224 1.226 . S
O214 Zn212 1.932 . S
O214 C224 1.307 . S
O215 Zn208 1.919 . S
O215 C226 1.253 . S
O216 Zn210 1.941 . S
O216 C226 1.283 . S
O217 Zn210 1.965 . S
O217 C225 1.303 . S
O218 Zn211 1.938 . S
O218 C225 1.247 . S
O219 Zn211 1.906 . S
O219 C227 1.304 . S
O220 Zn208 1.924 . S
O220 C228 1.311 . S
O221 Zn212 1.977 . S
O221 C227 1.272 . S
O222 Zn212 1.910 . S
O222 C228 1.231 . S
C223 O207 1.225 . S
C223 O229 1.298 . S
C224 O213 1.226 . S
C224 O214 1.307 . S
C225 O217 1.303 . S
C225 O218 1.247 . S
C226 O215 1.253 . S
C226 O216 1.283 . S
C227 O219 1.304 . S
C227 O221 1.272 . S
C228 O220 1.311 . S
C228 O222 1.231 . S
O229 Zn211 1.953 . S
O229 C223 1.298 . S
O230 Zn231 1.953 . S
O230 C246 1.225 . S
Zn231 O230 1.953 . S
Zn231 O232 1.949 . S
Zn231 O238 1.919 . S
Zn231 O243 1.924 . S
O232 Zn231 1.949 . S
O232 Zn233 1.923 . S
O232 Zn234 1.950 . S
O232 Zn235 1.945 . S
Zn233 O232 1.923 . S
Zn233 O236 1.933 . S
Zn233 O239 1.941 . S
Zn233 O240 1.965 1_565 S
Zn234 O232 1.950 . S
Zn234 O241 1.938 1_565 S
Zn234 O242 1.906 . S
Zn234 O252 1.953 . S
Zn235 O232 1.945 . S
Zn235 O237 1.932 . S
Zn235 O244 1.977 . S
Zn235 O245 1.910 . S
O236 Zn233 1.933 . S
O236 C247 1.226 . S
O237 Zn235 1.932 . S
O237 C247 1.307 . S
O238 Zn231 1.919 . S
O238 C249 1.253 . S
O239 Zn233 1.941 . S
O239 C249 1.283 . S
O240 Zn233 1.965 1_545 S
O240 C248 1.303 . S
O241 Zn234 1.938 1_545 S
O241 C248 1.247 . S
O242 Zn234 1.906 . S
O242 C250 1.304 . S
O243 Zn231 1.924 . S
O243 C251 1.311 . S
O244 Zn235 1.977 . S
O244 C250 1.272 . S
O245 Zn235 1.910 . S
O245 C251 1.231 . S
C246 O230 1.225 . S
C246 O252 1.298 . S
C247 O236 1.226 . S
C247 O237 1.307 . S
C248 O240 1.303 . S
C248 O241 1.247 . S
C249 O238 1.253 . S
C249 O239 1.283 . S
C250 O242 1.304 . S
C250 O244 1.272 . S
C251 O243 1.311 . S
C251 O245 1.231 . S
O252 Zn234 1.953 . S
O252 C246 1.298 . S
O253 Zn254 1.953 . S
O253 C269 1.225 . S
Zn254 O253 1.953 . S
Zn254 O255 1.949 . S
Zn254 O261 1.919 . S
Zn254 O266 1.924 . S
O255 Zn254 1.949 . S
O255 Zn256 1.923 . S
O255 Zn257 1.950 . S
O255 Zn258 1.945 . S
Zn256 O255 1.923 . S
Zn256 O259 1.933 . S
Zn256 O262 1.941 . S
Zn256 O263 1.965 1_455 S
Zn257 O255 1.950 . S
Zn257 O264 1.938 . S
Zn257 O265 1.906 . S
Zn257 O275 1.953 . S
Zn258 O255 1.945 . S
Zn258 O260 1.932 . S
Zn258 O267 1.977 . S
Zn258 O268 1.910 . S
O259 Zn256 1.933 . S
O259 C270 1.226 . S
O260 Zn258 1.932 . S
O260 C270 1.307 . S
O261 Zn254 1.919 . S
O261 C272 1.253 . S
O262 Zn256 1.941 . S
O262 C272 1.283 . S
O263 Zn256 1.965 1_655 S
O263 C271 1.303 . S
O264 Zn257 1.938 . S
O264 C271 1.247 1_455 S
O265 Zn257 1.906 . S
O265 C273 1.304 . S
O266 Zn254 1.924 . S
O266 C274 1.311 . S
O267 Zn258 1.977 . S
O267 C273 1.272 . S
O268 Zn258 1.910 . S
O268 C274 1.231 . S
C269 O253 1.225 . S
C269 O275 1.298 . S
C270 O259 1.226 . S
C270 O260 1.307 . S
C271 O263 1.303 . S
C271 O264 1.247 1_655 S
C272 O261 1.253 . S
C272 O262 1.283 . S
C273 O265 1.304 . S
C273 O267 1.272 . S
C274 O266 1.311 . S
C274 O268 1.231 . S
O275 Zn257 1.953 . S
O275 C269 1.298 . S
O276 Zn277 1.953 . S
O276 C292 1.225 . S
Zn277 O276 1.953 . S
Zn277 O278 1.949 . S
Zn277 O284 1.919 . S
Zn277 O289 1.924 . S
O278 Zn277 1.949 . S
O278 Zn279 1.923 . S
O278 Zn280 1.950 . S
O278 Zn281 1.945 . S
Zn279 O278 1.923 . S
Zn279 O282 1.933 . S
Zn279 O285 1.941 . S
Zn279 O286 1.965 . S
Zn280 O278 1.950 . S
Zn280 O287 1.938 . S
Zn280 O288 1.906 . S
Zn280 O298 1.953 . S
Zn281 O278 1.945 . S
Zn281 O283 1.932 . S
Zn281 O290 1.977 . S
Zn281 O291 1.910 . S
O282 Zn279 1.933 . S
O282 C293 1.226 . S
O283 Zn281 1.932 . S
O283 C293 1.307 . S
O284 Zn277 1.919 . S
O284 C295 1.253 . S
O285 Zn279 1.941 . S
O285 C295 1.283 . S
O286 Zn279 1.965 . S
O286 C294 1.303 . S
O287 Zn280 1.938 . S
O287 C294 1.247 . S
O288 Zn280 1.906 . S
O288 C296 1.304 . S
O289 Zn277 1.924 . S
O289 C297 1.311 . S
O290 Zn281 1.977 . S
O290 C296 1.272 . S
O291 Zn281 1.910 . S
O291 C297 1.231 . S
C292 O276 1.225 . S
C292 O298 1.298 . S
C293 O282 1.226 . S
C293 O283 1.307 . S
C294 O286 1.303 . S
C294 O287 1.247 . S
C295 O284 1.253 . S
C295 O285 1.283 . S
C296 O288 1.304 . S
C296 O290 1.272 . S
C297 O289 1.311 . S
C297 O291 1.231 . S
O298 Zn280 1.953 . S
O298 C292 1.298 . S
O299 Zn300 1.953 . S
O299 C315 1.225 . S
Zn300 O299 1.953 . S
Zn300 O301 1.949 . S
Zn300 O307 1.919 . S
Zn300 O312 1.924 . S
O301 Zn300 1.949 . S
O301 Zn302 1.923 . S
O301 Zn303 1.950 . S
O301 Zn304 1.945 . S
Zn302 O301 1.923 . S
Zn302 O305 1.933 . S
Zn302 O308 1.941 . S
Zn302 O309 1.965 1_545 S
Zn303 O301 1.950 . S
Zn303 O310 1.938 . S
Zn303 O311 1.906 . S
Zn303 O321 1.953 . S
Zn304 O301 1.945 . S
Zn304 O306 1.932 . S
Zn304 O313 1.977 . S
Zn304 O314 1.910 . S
O305 Zn302 1.933 . S
O305 C316 1.226 . S
O306 Zn304 1.932 . S
O306 C316 1.307 . S
O307 Zn300 1.919 . S
O307 C318 1.253 . S
O308 Zn302 1.941 . S
O308 C318 1.283 . S
O309 Zn302 1.965 1_565 S
O309 C317 1.303 . S
O310 Zn303 1.938 . S
O310 C317 1.247 1_545 S
O311 Zn303 1.906 . S
O311 C319 1.304 . S
O312 Zn300 1.924 . S
O312 C320 1.311 . S
O313 Zn304 1.977 . S
O313 C319 1.272 . S
O314 Zn304 1.910 . S
O314 C320 1.231 . S
C315 O299 1.225 . S
C315 O321 1.298 . S
C316 O305 1.226 . S
C316 O306 1.307 . S
C317 O309 1.303 . S
C317 O310 1.247 1_565 S
C318 O307 1.253 . S
C318 O308 1.283 . S
C319 O311 1.304 . S
C319 O313 1.272 . S
C320 O312 1.311 . S
C320 O314 1.231 . S
O321 Zn303 1.953 . S
O321 C315 1.298 . S
O322 Zn323 1.953 . S
O322 C338 1.225 . S
Zn323 O322 1.953 . S
Zn323 O324 1.949 . S
Zn323 O330 1.919 . S
Zn323 O335 1.924 . S
O324 Zn323 1.949 . S
O324 Zn325 1.923 . S
O324 Zn326 1.950 . S
O324 Zn327 1.945 . S
Zn325 O324 1.923 . S
Zn325 O328 1.933 . S
Zn325 O331 1.941 . S
Zn325 O332 1.965 1_655 S
Zn326 O324 1.950 . S
Zn326 O333 1.938 1_655 S
Zn326 O334 1.906 . S
Zn326 O344 1.953 . S
Zn327 O324 1.945 . S
Zn327 O329 1.932 . S
Zn327 O336 1.977 . S
Zn327 O337 1.910 . S
O328 Zn325 1.933 . S
O328 C339 1.226 . S
O329 Zn327 1.932 . S
O329 C339 1.307 . S
O330 Zn323 1.919 . S
O330 C341 1.253 . S
O331 Zn325 1.941 . S
O331 C341 1.283 . S
O332 Zn325 1.965 1_455 S
O332 C340 1.303 . S
O333 Zn326 1.938 1_455 S
O333 C340 1.247 . S
O334 Zn326 1.906 . S
O334 C342 1.304 . S
O335 Zn323 1.924 . S
O335 C343 1.311 . S
O336 Zn327 1.977 . S
O336 C342 1.272 . S
O337 Zn327 1.910 . S
O337 C343 1.231 . S
C338 O322 1.225 . S
C338 O344 1.298 . S
C339 O328 1.226 . S
C339 O329 1.307 . S
C340 O332 1.303 . S
C340 O333 1.247 . S
C341 O330 1.253 . S
C341 O331 1.283 . S
C342 O334 1.304 . S
C342 O336 1.272 . S
C343 O335 1.311 . S
C343 O337 1.231 . S
O344 Zn326 1.953 . S
O344 C338 1.298 . S
O345 Zn346 1.953 . S
O345 C361 1.225 . S
Zn346 O345 1.953 . S
Zn346 O347 1.949 . S
Zn346 O353 1.919 . S
Zn346 O358 1.924 . S
O347 Zn346 1.949 . S
O347 Zn348 1.923 . S
O347 Zn349 1.950 . S
O347 Zn350 1.945 . S
Zn348 O347 1.923 . S
Zn348 O351 1.933 1_545 S
Zn348 O354 1.941 . S
Zn348 O355 1.965 . S
Zn349 O347 1.950 . S
Zn349 O356 1.938 . S
Zn349 O357 1.906 . S
Zn349 O367 1.953 . S
Zn350 O347 1.945 . S
Zn350 O352 1.932 1_545 S
Zn350 O359 1.977 . S
Zn350 O360 1.910 . S
O351 Zn348 1.933 1_565 S
O351 C362 1.226 . S
O352 Zn350 1.932 1_565 S
O352 C362 1.307 . S
O353 Zn346 1.919 . S
O353 C364 1.253 . S
O354 Zn348 1.941 . S
O354 C364 1.283 . S
O355 Zn348 1.965 . S
O355 C363 1.303 . S
O356 Zn349 1.938 . S
O356 C363 1.247 . S
O357 Zn349 1.906 . S
O357 C365 1.304 . S
O358 Zn346 1.924 . S
O358 C366 1.311 . S
O359 Zn350 1.977 . S
O359 C365 1.272 . S
O360 Zn350 1.910 . S
O360 C366 1.231 . S
C361 O345 1.225 . S
C361 O367 1.298 . S
C362 O351 1.226 . S
C362 O352 1.307 . S
C363 O355 1.303 . S
C363 O356 1.247 . S
C364 O353 1.253 . S
C364 O354 1.283 . S
C365 O357 1.304 . S
C365 O359 1.272 . S
C366 O358 1.311 . S
C366 O360 1.231 . S
O367 Zn349 1.953 . S
O367 C361 1.298 . S
O368 Zn369 1.953 . S
O368 C384 1.225 . S
Zn369 O368 1.953 . S
Zn369 O370 1.949 . S
Zn369 O376 1.919 . S
Zn369 O381 1.924 . S
O370 Zn369 1.949 . S
O370 Zn371 1.923 . S
O370 Zn372 1.950 . S
O370 Zn373 1.945 . S
Zn371 O370 1.923 . S
Zn371 O374 1.933 1_655 S
Zn371 O377 1.941 . S
Zn371 O378 1.965 . S
Zn372 O370 1.950 . S
Zn372 O379 1.938 . S
Zn372 O380 1.906 . S
Zn372 O390 1.953 . S
Zn373 O370 1.945 . S
Zn373 O375 1.932 1_655 S
Zn373 O382 1.977 . S
Zn373 O383 1.910 . S
O374 Zn371 1.933 1_455 S
O374 C385 1.226 . S
O375 Zn373 1.932 1_455 S
O375 C385 1.307 . S
O376 Zn369 1.919 . S
O376 C387 1.253 . S
O377 Zn371 1.941 . S
O377 C387 1.283 . S
O378 Zn371 1.965 . S
O378 C386 1.303 . S
O379 Zn372 1.938 . S
O379 C386 1.247 . S
O380 Zn372 1.906 . S
O380 C388 1.304 . S
O381 Zn369 1.924 . S
O381 C389 1.311 . S
O382 Zn373 1.977 . S
O382 C388 1.272 . S
O383 Zn373 1.910 . S
O383 C389 1.231 . S
C384 O368 1.225 . S
C384 O390 1.298 . S
C385 O374 1.226 . S
C385 O375 1.307 . S
C386 O378 1.303 . S
C386 O379 1.247 . S
C387 O376 1.253 . S
C387 O377 1.283 . S
C388 O380 1.304 . S
C388 O382 1.272 . S
C389 O381 1.311 . S
C389 O383 1.231 . S
O390 Zn372 1.953 . S
O390 C384 1.298 . S
O391 Zn392 1.953 . S
O391 C407 1.225 . S
Zn392 O391 1.953 . S
Zn392 O393 1.949 . S
Zn392 O399 1.919 . S
Zn392 O404 1.924 . S
O393 Zn392 1.949 . S
O393 Zn394 1.923 . S
O393 Zn395 1.950 . S
O393 Zn396 1.945 . S
Zn394 O393 1.923 . S
Zn394 O397 1.933 . S
Zn394 O400 1.941 . S
Zn394 O401 1.965 . S
Zn395 O393 1.950 . S
Zn395 O402 1.938 . S
Zn395 O403 1.906 . S
Zn395 O413 1.953 . S
Zn396 O393 1.945 . S
Zn396 O398 1.932 . S
Zn396 O405 1.977 . S
Zn396 O406 1.910 . S
O397 Zn394 1.933 . S
O397 C408 1.226 . S
O398 Zn396 1.932 . S
O398 C408 1.307 . S
O399 Zn392 1.919 . S
O399 C410 1.253 . S
O400 Zn394 1.941 . S
O400 C410 1.283 . S
O401 Zn394 1.965 . S
O401 C409 1.303 . S
O402 Zn395 1.938 . S
O402 C409 1.247 . S
O403 Zn395 1.906 . S
O403 C411 1.304 . S
O404 Zn392 1.924 . S
O404 C412 1.311 . S
O405 Zn396 1.977 . S
O405 C411 1.272 . S
O406 Zn396 1.910 . S
O406 C412 1.231 . S
C407 O391 1.225 . S
C407 O413 1.298 . S
C408 O397 1.226 . S
C408 O398 1.307 . S
C409 O401 1.303 . S
C409 O402 1.247 . S
C410 O399 1.253 . S
C410 O400 1.283 . S
C411 O403 1.304 . S
C411 O405 1.272 . S
C412 O404 1.311 . S
C412 O406 1.231 . S
O413 Zn395 1.953 . S
O413 C407 1.298 . S
C414 C415 1.369 . S
C414 C416 1.419 . S
C414 H418 0.930 . S
C415 C414 1.369 . S
C415 C424 1.429 . S
C416 C414 1.419 . S
C416 C417 1.363 . S
C416 H419 0.929 . S
C417 C416 1.363 . S
C417 C423 1.428 . S
H418 C414 0.930 . S
H419 C416 0.929 . S
S420 N421 1.613 . S
S420 N422 1.610 . S
N421 S420 1.613 . S
N421 C424 1.350 . S
N422 S420 1.610 . S
N422 C423 1.351 . S
C423 C417 1.428 . S
C423 N422 1.351 . S
C423 C424 1.434 . S
C424 C415 1.429 . S
C424 N421 1.350 . S
C424 C423 1.434 . S
C425 C426 1.369 . S
C425 C427 1.419 . S
C425 H429 0.930 . S
C426 C425 1.369 . S
C426 C435 1.429 . S
C427 C425 1.419 . S
C427 C428 1.363 . S
C427 H430 0.929 . S
C428 C427 1.363 . S
C428 C434 1.428 . S
H429 C425 0.930 . S
H430 C427 0.929 . S
S431 N432 1.613 . S
S431 N433 1.610 . S
N432 S431 1.613 . S
N432 C435 1.350 . S
N433 S431 1.610 . S
N433 C434 1.351 . S
C434 C428 1.428 . S
C434 N433 1.351 . S
C434 C435 1.434 . S
C435 C426 1.429 . S
C435 N432 1.350 . S
C435 C434 1.434 . S
C436 C437 1.369 . S
C436 C438 1.419 . S
C436 H440 0.930 . S
C437 C436 1.369 . S
C437 C446 1.429 . S
C438 C436 1.419 . S
C438 C439 1.363 . S
C438 H441 0.929 . S
C439 C438 1.363 . S
C439 C445 1.428 . S
H440 C436 0.930 . S
H441 C438 0.929 . S
S442 N443 1.613 . S
S442 N444 1.610 . S
N443 S442 1.613 . S
N443 C446 1.350 . S
N444 S442 1.610 . S
N444 C445 1.351 . S
C445 C439 1.428 . S
C445 N444 1.351 . S
C445 C446 1.434 . S
C446 C437 1.429 . S
C446 N443 1.350 . S
C446 C445 1.434 . S
C447 C448 1.369 . S
C447 C449 1.419 . S
C447 H451 0.930 . S
C448 C447 1.369 . S
C448 C457 1.429 . S
C449 C447 1.419 . S
C449 C450 1.363 . S
C449 H452 0.929 . S
C450 C449 1.363 . S
C450 C456 1.428 . S
H451 C447 0.930 . S
H452 C449 0.929 . S
S453 N454 1.613 . S
S453 N455 1.610 . S
N454 S453 1.613 . S
N454 C457 1.350 . S
N455 S453 1.610 . S
N455 C456 1.351 . S
C456 C450 1.428 . S
C456 N455 1.351 . S
C456 C457 1.434 . S
C457 C448 1.429 . S
C457 N454 1.350 . S
C457 C456 1.434 . S
C458 C459 1.369 . S
C458 C460 1.419 . S
C458 H462 0.930 . S
C459 C458 1.369 . S
C459 C468 1.429 . S
C460 C458 1.419 . S
C460 C461 1.363 . S
C460 H463 0.929 . S
C461 C460 1.363 . S
C461 C467 1.428 . S
H462 C458 0.930 . S
H463 C460 0.929 . S
S464 N465 1.613 . S
S464 N466 1.610 . S
N465 S464 1.613 . S
N465 C468 1.350 . S
N466 S464 1.610 . S
N466 C467 1.351 . S
C467 C461 1.428 . S
C467 N466 1.351 . S
C467 C468 1.434 . S
C468 C459 1.429 . S
C468 N465 1.350 . S
C468 C467 1.434 . S
C469 C470 1.369 . S
C469 C471 1.419 . S
C469 H473 0.930 . S
C470 C469 1.369 . S
C470 C479 1.429 . S
C471 C469 1.419 . S
C471 C472 1.363 . S
C471 H474 0.929 . S
C472 C471 1.363 . S
C472 C478 1.428 . S
H473 C469 0.930 . S
H474 C471 0.929 . S
S475 N476 1.613 . S
S475 N477 1.610 . S
N476 S475 1.613 . S
N476 C479 1.350 . S
N477 S475 1.610 . S
N477 C478 1.351 . S
C478 C472 1.428 . S
C478 N477 1.351 . S
C478 C479 1.434 . S
C479 C470 1.429 . S
C479 N476 1.350 . S
C479 C478 1.434 . S
C480 C481 1.369 . S
C480 C482 1.419 . S
C480 H484 0.930 . S
C481 C480 1.369 . S
C481 C490 1.429 . S
C482 C480 1.419 . S
C482 C483 1.363 . S
C482 H485 0.929 . S
C483 C482 1.363 . S
C483 C489 1.428 . S
H484 C480 0.930 . S
H485 C482 0.929 . S
S486 N487 1.613 . S
S486 N488 1.610 . S
N487 S486 1.613 . S
N487 C490 1.350 . S
N488 S486 1.610 . S
N488 C489 1.351 . S
C489 C483 1.428 . S
C489 N488 1.351 . S
C489 C490 1.434 . S
C490 C481 1.429 . S
C490 N487 1.350 . S
C490 C489 1.434 . S
C491 C492 1.369 . S
C491 C493 1.419 . S
C491 H495 0.930 . S
C492 C491 1.369 . S
C492 C501 1.429 . S
C493 C491 1.419 . S
C493 C494 1.363 . S
C493 H496 0.929 . S
C494 C493 1.363 . S
C494 C500 1.428 . S
H495 C491 0.930 . S
H496 C493 0.929 . S
S497 N498 1.613 . S
S497 N499 1.610 . S
N498 S497 1.613 . S
N498 C501 1.350 . S
N499 S497 1.610 . S
N499 C500 1.351 . S
C500 C494 1.428 . S
C500 N499 1.351 . S
C500 C501 1.434 . S
C501 C492 1.429 . S
C501 N498 1.350 . S
C501 C500 1.434 . S
C502 C503 1.369 . S
C502 C504 1.419 . S
C502 H506 0.930 . S
C503 C502 1.369 . S
C503 C512 1.429 . S
C504 C502 1.419 . S
C504 C505 1.363 . S
C504 H507 0.929 . S
C505 C504 1.363 . S
C505 C511 1.428 . S
H506 C502 0.930 . S
H507 C504 0.929 . S
S508 N509 1.613 . S
S508 N510 1.610 . S
N509 S508 1.613 . S
N509 C512 1.350 . S
N510 S508 1.610 . S
N510 C511 1.351 . S
C511 C505 1.428 . S
C511 N510 1.351 . S
C511 C512 1.434 . S
C512 C503 1.429 . S
C512 N509 1.350 . S
C512 C511 1.434 . S
C513 C514 1.369 . S
C513 C515 1.419 . S
C513 H517 0.930 1_565 S
C514 C513 1.369 . S
C514 C523 1.429 . S
C515 C513 1.419 . S
C515 C516 1.363 . S
C515 H518 0.929 . S
C516 C515 1.363 . S
C516 C522 1.428 . S
H517 C513 0.930 1_545 S
H518 C515 0.929 . S
S519 N520 1.613 . S
S519 N521 1.610 . S
N520 S519 1.613 . S
N520 C523 1.350 . S
N521 S519 1.610 . S
N521 C522 1.351 . S
C522 C516 1.428 . S
C522 N521 1.351 . S
C522 C523 1.434 . S
C523 C514 1.429 . S
C523 N520 1.350 . S
C523 C522 1.434 . S
C524 C525 1.369 . S
C524 C526 1.419 . S
C524 H528 0.930 . S
C525 C524 1.369 . S
C525 C534 1.429 . S
C526 C524 1.419 . S
C526 C527 1.363 . S
C526 H529 0.929 . S
C527 C526 1.363 . S
C527 C533 1.428 . S
H528 C524 0.930 . S
H529 C526 0.929 . S
S530 N531 1.613 1_655 S
S530 N532 1.610 . S
N531 S530 1.613 1_455 S
N531 C534 1.350 . S
N532 S530 1.610 . S
N532 C533 1.351 1_655 S
C533 C527 1.428 . S
C533 N532 1.351 1_455 S
C533 C534 1.434 . S
C534 C525 1.429 . S
C534 N531 1.350 . S
C534 C533 1.434 . S
C535 C536 1.369 . S
C535 C537 1.419 . S
C535 H539 0.930 . S
C536 C535 1.369 . S
C536 C545 1.429 . S
C537 C535 1.419 . S
C537 C538 1.363 . S
C537 H540 0.929 . S
C538 C537 1.363 . S
C538 C544 1.428 . S
H539 C535 0.930 . S
H540 C537 0.929 . S
S541 N542 1.613 . S
S541 N543 1.610 . S
N542 S541 1.613 . S
N542 C545 1.350 . S
N543 S541 1.610 . S
N543 C544 1.351 . S
C544 C538 1.428 . S
C544 N543 1.351 . S
C544 C545 1.434 . S
C545 C536 1.429 . S
C545 N542 1.350 . S
C545 C544 1.434 . S
C546 C547 1.369 . S
C546 C548 1.419 . S
C546 H550 0.930 . S
C547 C546 1.369 . S
C547 C556 1.429 . S
C548 C546 1.419 . S
C548 C549 1.363 . S
C548 H551 0.929 . S
C549 C548 1.363 . S
C549 C555 1.428 . S
H550 C546 0.930 . S
H551 C548 0.929 . S
S552 N553 1.613 . S
S552 N554 1.610 . S
N553 S552 1.613 . S
N553 C556 1.350 . S
N554 S552 1.610 . S
N554 C555 1.351 . S
C555 C549 1.428 . S
C555 N554 1.351 . S
C555 C556 1.434 . S
C556 C547 1.429 . S
C556 N553 1.350 . S
C556 C555 1.434 . S
C557 C558 1.369 . S
C557 C559 1.419 . S
C557 H561 0.930 . S
C558 C557 1.369 . S
C558 C567 1.429 . S
C559 C557 1.419 . S
C559 C560 1.363 . S
C559 H562 0.929 . S
C560 C559 1.363 . S
C560 C566 1.428 . S
H561 C557 0.930 . S
H562 C559 0.929 . S
S563 N564 1.613 . S
S563 N565 1.610 . S
N564 S563 1.613 . S
N564 C567 1.350 . S
N565 S563 1.610 . S
N565 C566 1.351 . S
C566 C560 1.428 . S
C566 N565 1.351 . S
C566 C567 1.434 . S
C567 C558 1.429 . S
C567 N564 1.350 . S
C567 C566 1.434 . S
C568 C569 1.369 . S
C568 C570 1.419 . S
C568 H572 0.930 . S
C569 C568 1.369 . S
C569 C578 1.429 . S
C570 C568 1.419 . S
C570 C571 1.363 . S
C570 H573 0.929 . S
C571 C570 1.363 . S
C571 C577 1.428 . S
H572 C568 0.930 . S
H573 C570 0.929 . S
S574 N575 1.613 . S
S574 N576 1.610 . S
N575 S574 1.613 . S
N575 C578 1.350 . S
N576 S574 1.610 . S
N576 C577 1.351 . S
C577 C571 1.428 . S
C577 N576 1.351 . S
C577 C578 1.434 . S
C578 C569 1.429 . S
C578 N575 1.350 . S
C578 C577 1.434 . S
C579 C580 1.369 . S
C579 C581 1.419 . S
C579 H583 0.930 . S
C580 C579 1.369 . S
C580 C589 1.429 . S
C581 C579 1.419 . S
C581 C582 1.363 . S
C581 H584 0.929 . S
C582 C581 1.363 . S
C582 C588 1.428 . S
H583 C579 0.930 . S
H584 C581 0.929 . S
S585 N586 1.613 . S
S585 N587 1.610 . S
N586 S585 1.613 . S
N586 C589 1.350 . S
N587 S585 1.610 . S
N587 C588 1.351 . S
C588 C582 1.428 . S
C588 N587 1.351 . S
C588 C589 1.434 . S
C589 C580 1.429 . S
C589 N586 1.350 . S
C589 C588 1.434 . S
C590 C591 1.369 . S
C590 C592 1.419 . S
C590 H594 0.930 . S
C591 C590 1.369 . S
C591 C600 1.429 . S
C592 C590 1.419 . S
C592 C593 1.363 . S
C592 H595 0.929 . S
C593 C592 1.363 . S
C593 C599 1.428 . S
H594 C590 0.930 . S
H595 C592 0.929 . S
S596 N597 1.613 . S
S596 N598 1.610 . S
N597 S596 1.613 . S
N597 C600 1.350 . S
N598 S596 1.610 . S
N598 C599 1.351 . S
C599 C593 1.428 . S
C599 N598 1.351 . S
C599 C600 1.434 . S
C600 C591 1.429 . S
C600 N597 1.350 . S
C600 C599 1.434 . S
C601 C602 1.369 . S
C601 C603 1.419 . S
C601 H605 0.930 . S
C602 C601 1.369 . S
C602 C611 1.429 . S
C603 C601 1.419 . S
C603 C604 1.363 . S
C603 H606 0.929 . S
C604 C603 1.363 . S
C604 C610 1.428 . S
H605 C601 0.930 . S
H606 C603 0.929 . S
S607 N608 1.613 . S
S607 N609 1.610 . S
N608 S607 1.613 . S
N608 C611 1.350 . S
N609 S607 1.610 . S
N609 C610 1.351 . S
C610 C604 1.428 . S
C610 N609 1.351 . S
C610 C611 1.434 . S
C611 C602 1.429 . S
C611 N608 1.350 . S
C611 C610 1.434 . S
C612 C613 1.378 . S
C612 C614 1.419 1_554 S
C612 H616 0.930 . S
C613 C612 1.378 . S
C613 C622 1.422 . S
C614 C612 1.419 1_556 S
C614 C615 1.363 . S
C614 H617 0.929 . S
C615 C614 1.363 . S
C615 C621 1.428 . S
H616 C612 0.930 . S
H617 C614 0.929 . S
S618 N619 1.612 1_556 S
S618 N620 1.608 . S
N619 S618 1.612 1_554 S
N619 C622 1.357 . S
N620 S618 1.608 . S
N620 C621 1.351 . S
C621 C615 1.428 . S
C621 N620 1.351 . S
C621 C622 1.434 1_556 S
C622 C613 1.422 . S
C622 N619 1.357 . S
C622 C621 1.434 1_554 S
C623 C624 1.356 1_655 S
C623 C625 1.419 1_556 S
C623 H627 0.930 . S
C624 C623 1.356 1_455 S
C624 C633 1.444 . S
C625 C623 1.419 1_554 S
C625 C626 1.363 1_655 S
C625 H628 0.929 . S
C626 C625 1.363 1_455 S
C626 C632 1.428 . S
H627 C623 0.930 . S
H628 C625 0.929 . S
S629 N630 1.613 . S
S629 N631 1.610 1_556 S
N630 S629 1.613 . S
N630 C633 1.350 . S
N631 S629 1.610 1_554 S
N631 C632 1.351 . S
C632 C626 1.428 . S
C632 N631 1.351 . S
C632 C633 1.434 1_554 S
C633 C624 1.444 . S
C633 N630 1.350 . S
C633 C632 1.434 1_556 S
C634 C635 1.369 . S
C634 C636 1.419 1_556 S
C634 H638 0.930 . S
C635 C634 1.369 . S
C635 C644 1.429 . S
C636 C634 1.419 1_554 S
C636 C637 1.363 . S
C636 H639 0.929 . S
C637 C636 1.363 . S
C637 C643 1.428 . S
H638 C634 0.930 . S
H639 C636 0.929 . S
S640 N641 1.616 1_554 S
S640 N642 1.607 . S
N641 S640 1.616 1_556 S
N641 C644 1.350 . S
N642 S640 1.607 . S
N642 C643 1.351 . S
C643 C637 1.428 . S
C643 N642 1.351 . S
C643 C644 1.434 1_554 S
C644 C635 1.429 . S
C644 N641 1.350 . S
C644 C643 1.434 1_556 S
C645 C646 1.369 . S
C645 C647 1.419 . S
C645 H649 0.930 . S
C646 C645 1.369 . S
C646 C655 1.429 . S
C647 C645 1.419 . S
C647 C648 1.363 . S
C647 H650 0.929 . S
C648 C647 1.363 . S
C648 C654 1.428 . S
H649 C645 0.930 . S
H650 C647 0.929 . S
S651 N652 1.613 1_655 S
S651 N653 1.610 1_655 S
N652 S651 1.613 1_455 S
N652 C655 1.350 . S
N653 S651 1.610 1_455 S
N653 C654 1.351 . S
C654 C648 1.428 . S
C654 N653 1.351 . S
C654 C655 1.434 . S
C655 C646 1.429 . S
C655 N652 1.350 . S
C655 C654 1.434 . S
C656 C657 1.369 . S
C656 C658 1.419 . S
C656 H660 0.930 . S
C657 C656 1.369 . S
C657 C666 1.429 . S
C658 C656 1.419 . S
C658 C659 1.363 . S
C658 H661 0.929 . S
C659 C658 1.363 . S
C659 C665 1.428 . S
H660 C656 0.930 . S
H661 C658 0.929 . S
S662 N663 1.613 . S
S662 N664 1.610 . S
N663 S662 1.613 . S
N663 C666 1.350 . S
N664 S662 1.610 . S
N664 C665 1.351 . S
C665 C659 1.428 . S
C665 N664 1.351 . S
C665 C666 1.434 . S
C666 C657 1.429 . S
C666 N663 1.350 . S
C666 C665 1.434 . S
C667 C668 1.369 . S
C667 C669 1.419 . S
C667 H671 0.930 . S
C668 C667 1.369 . S
C668 C677 1.429 . S
C669 C667 1.419 . S
C669 C670 1.363 . S
C669 H672 0.929 . S
C670 C669 1.363 . S
C670 C676 1.428 . S
H671 C667 0.930 . S
H672 C669 0.929 . S
S673 N674 1.613 . S
S673 N675 1.610 . S
N674 S673 1.613 . S
N674 C677 1.350 . S
N675 S673 1.610 . S
N675 C676 1.351 . S
C676 C670 1.428 . S
C676 N675 1.351 . S
C676 C677 1.434 . S
C677 C668 1.429 . S
C677 N674 1.350 . S
C677 C676 1.434 . S
C678 C679 1.369 . S
C678 C680 1.419 . S
C678 H682 0.930 . S
C679 C678 1.369 . S
C679 C688 1.429 . S
C680 C678 1.419 . S
C680 C681 1.363 . S
C680 H683 0.929 . S
C681 C680 1.363 . S
C681 C687 1.428 . S
H682 C678 0.930 . S
H683 C680 0.929 . S
S684 N685 1.613 . S
S684 N686 1.610 . S
N685 S684 1.613 . S
N685 C688 1.350 . S
N686 S684 1.610 . S
N686 C687 1.351 . S
C687 C681 1.428 . S
C687 N686 1.351 . S
C687 C688 1.434 . S
C688 C679 1.429 . S
C688 N685 1.350 . S
C688 C687 1.434 . S
C689 C690 1.369 . S
C689 C691 1.419 . S
C689 H693 0.930 . S
C690 C689 1.369 . S
C690 C699 1.429 . S
C691 C689 1.419 . S
C691 C692 1.363 . S
C691 H694 0.929 . S
C692 C691 1.363 . S
C692 C698 1.428 . S
H693 C689 0.930 . S
H694 C691 0.929 . S
S695 N696 1.613 . S
S695 N697 1.610 . S
N696 S695 1.613 . S
N696 C699 1.350 . S
N697 S695 1.610 . S
N697 C698 1.351 . S
C698 C692 1.428 . S
C698 N697 1.351 . S
C698 C699 1.434 . S
C699 C690 1.429 . S
C699 N696 1.350 . S
C699 C698 1.434 . S
C700 C701 1.369 . S
C700 C702 1.419 . S
C700 H704 0.930 . S
C701 C700 1.369 . S
C701 C710 1.429 . S
C702 C700 1.419 . S
C702 C703 1.363 . S
C702 H705 0.929 . S
C703 C702 1.363 . S
C703 C709 1.428 . S
H704 C700 0.930 . S
H705 C702 0.929 . S
S706 N707 1.613 . S
S706 N708 1.610 . S
N707 S706 1.613 . S
N707 C710 1.350 . S
N708 S706 1.610 . S
N708 C709 1.351 . S
C709 C703 1.428 . S
C709 N708 1.351 . S
C709 C710 1.434 . S
C710 C701 1.429 . S
C710 N707 1.350 . S
C710 C709 1.434 . S
C711 C712 1.369 . S
C711 C713 1.419 1_565 S
C711 H715 0.930 1_565 S
C712 C711 1.369 . S
C712 C721 1.429 . S
C713 C711 1.419 1_545 S
C713 C714 1.363 1_545 S
C713 H716 0.929 . S
C714 C713 1.363 1_565 S
C714 C720 1.428 . S
H715 C711 0.930 1_545 S
H716 C713 0.929 . S
S717 N718 1.613 . S
S717 N719 1.610 . S
N718 S717 1.613 . S
N718 C721 1.350 . S
N719 S717 1.610 . S
N719 C720 1.351 . S
C720 C714 1.428 . S
C720 N719 1.351 . S
C720 C721 1.434 . S
C721 C712 1.429 . S
C721 N718 1.350 . S
C721 C720 1.434 . S
C722 C723 1.369 . S
C722 C724 1.419 . S
C722 H726 0.930 . S
C723 C722 1.369 . S
C723 C732 1.429 . S
C724 C722 1.419 . S
C724 C725 1.363 . S
C724 H727 0.929 . S
C725 C724 1.363 . S
C725 C731 1.428 . S
H726 C722 0.930 . S
H727 C724 0.929 . S
S728 N729 1.613 . S
S728 N730 1.610 . S
N729 S728 1.613 . S
N729 C732 1.350 1_655 S
N730 S728 1.610 . S
N730 C731 1.351 1_655 S
C731 C725 1.428 . S
C731 N730 1.351 1_455 S
C731 C732 1.434 . S
C732 C723 1.429 . S
C732 N729 1.350 1_455 S
C732 C731 1.434 . S
C733 C734 1.369 . S
C733 C735 1.419 . S
C733 H737 0.930 . S
C734 C733 1.369 . S
C734 C743 1.429 . S
C735 C733 1.419 . S
C735 C736 1.363 . S
C735 H738 0.929 . S
C736 C735 1.363 . S
C736 C742 1.428 . S
H737 C733 0.930 . S
H738 C735 0.929 . S
S739 N740 1.613 . S
S739 N741 1.610 . S
N740 S739 1.613 . S
N740 C743 1.350 . S
N741 S739 1.610 . S
N741 C742 1.351 . S
C742 C736 1.428 . S
C742 N741 1.351 . S
C742 C743 1.434 . S
C743 C734 1.429 . S
C743 N740 1.350 . S
C743 C742 1.434 . S
C744 C745 1.369 1_455 S
C744 C746 1.419 1_455 S
C744 H748 0.930 . S
C745 C744 1.369 1_655 S
C745 C754 1.429 . S
C746 C744 1.419 1_655 S
C746 C747 1.363 . S
C746 H749 0.929 1_655 S
C747 C746 1.363 . S
C747 C753 1.428 . S
H748 C744 0.930 . S
H749 C746 0.929 1_455 S
S750 N751 1.613 . S
S750 N752 1.610 . S
N751 S750 1.613 . S
N751 C754 1.350 . S
N752 S750 1.610 . S
N752 C753 1.351 . S
C753 C747 1.428 . S
C753 N752 1.351 . S
C753 C754 1.434 . S
C754 C745 1.429 . S
C754 N751 1.350 . S
C754 C753 1.434 . S
C755 C756 1.369 . S
C755 C757 1.419 . S
C755 H759 0.930 . S
C756 C755 1.369 . S
C756 C765 1.429 . S
C757 C755 1.419 . S
C757 C758 1.363 . S
C757 H760 0.929 . S
C758 C757 1.363 . S
C758 C764 1.428 . S
H759 C755 0.930 . S
H760 C757 0.929 . S
S761 N762 1.613 . S
S761 N763 1.610 . S
N762 S761 1.613 . S
N762 C765 1.350 . S
N763 S761 1.610 . S
N763 C764 1.351 . S
C764 C758 1.428 . S
C764 N763 1.351 . S
C764 C765 1.434 . S
C765 C756 1.429 . S
C765 N762 1.350 . S
C765 C764 1.434 . S
C766 C767 1.369 . S
C766 C768 1.419 . S
C766 H770 0.930 . S
C767 C766 1.369 . S
C767 C776 1.429 . S
C768 C766 1.419 . S
C768 C769 1.363 . S
C768 H771 0.929 . S
C769 C768 1.363 . S
C769 C775 1.428 . S
H770 C766 0.930 . S
H771 C768 0.929 . S
S772 N773 1.613 . S
S772 N774 1.610 . S
N773 S772 1.613 . S
N773 C776 1.350 1_565 S
N774 S772 1.610 . S
N774 C775 1.351 1_565 S
C775 C769 1.428 . S
C775 N774 1.351 1_545 S
C775 C776 1.434 . S
C776 C767 1.429 . S
C776 N773 1.350 1_545 S
C776 C775 1.434 . S
C777 C778 1.369 . S
C777 C779 1.419 . S
C777 H781 0.930 . S
C778 C777 1.369 . S
C778 C787 1.429 1_655 S
C779 C777 1.419 . S
C779 C780 1.363 1_655 S
C779 H782 0.929 . S
C780 C779 1.363 1_455 S
C780 C786 1.428 . S
H781 C777 0.930 . S
H782 C779 0.929 . S
S783 N784 1.613 . S
S783 N785 1.610 . S
N784 S783 1.613 . S
N784 C787 1.350 . S
N785 S783 1.610 . S
N785 C786 1.351 . S
C786 C780 1.428 . S
C786 N785 1.351 . S
C786 C787 1.434 . S
C787 C778 1.429 1_455 S
C787 N784 1.350 . S
C787 C786 1.434 . S
C788 C789 1.369 . S
C788 C790 1.419 . S
C788 H792 0.930 . S
C789 C788 1.369 . S
C789 C798 1.429 . S
C790 C788 1.419 . S
C790 C791 1.363 . S
C790 H793 0.929 . S
C791 C790 1.363 . S
C791 C797 1.428 . S
H792 C788 0.930 . S
H793 C790 0.929 . S
S794 N795 1.613 . S
S794 N796 1.610 . S
N795 S794 1.613 . S
N795 C798 1.350 . S
N796 S794 1.610 . S
N796 C797 1.351 . S
C797 C791 1.428 . S
C797 N796 1.351 . S
C797 C798 1.434 . S
C798 C789 1.429 . S
C798 N795 1.350 . S
C798 C797 1.434 . S
C799 C800 1.369 . S
C799 C801 1.419 1_565 S
C799 H803 0.930 . S
C800 C799 1.369 . S
C800 C809 1.429 1_565 S
C801 C799 1.419 1_545 S
C801 C802 1.363 . S
C801 H804 0.929 . S
C802 C801 1.363 . S
C802 C808 1.428 . S
H803 C799 0.930 . S
H804 C801 0.929 . S
S805 N806 1.613 . S
S805 N807 1.610 . S
N806 S805 1.613 . S
N806 C809 1.350 . S
N807 S805 1.610 . S
N807 C808 1.351 . S
C808 C802 1.428 . S
C808 N807 1.351 . S
C808 C809 1.434 . S
C809 C800 1.429 1_545 S
C809 N806 1.350 . S
C809 C808 1.434 . S
C810 C811 1.369 . S
C810 C812 1.419 . S
C810 H814 0.930 . S
C811 C810 1.369 . S
C811 C820 1.429 . S
C812 C810 1.419 . S
C812 C813 1.363 . S
C812 H815 0.929 . S
C813 C812 1.363 . S
C813 C819 1.428 . S
H814 C810 0.930 . S
H815 C812 0.929 . S
S816 N817 1.613 . S
S816 N818 1.610 . S
N817 S816 1.613 . S
N817 C820 1.350 . S
N818 S816 1.610 . S
N818 C819 1.351 . S
C819 C813 1.428 . S
C819 N818 1.351 . S
C819 C820 1.434 . S
C820 C811 1.429 . S
C820 N817 1.350 . S
C820 C819 1.434 . S
C821 C822 1.369 . S
C821 C823 1.419 . S
C821 H825 0.930 . S
C822 C821 1.369 . S
C822 C831 1.429 . S
C823 C821 1.419 . S
C823 C824 1.363 . S
C823 H826 0.929 . S
C824 C823 1.363 . S
C824 C830 1.428 . S
H825 C821 0.930 . S
H826 C823 0.929 . S
S827 N828 1.613 . S
S827 N829 1.610 . S
N828 S827 1.613 . S
N828 C831 1.350 . S
N829 S827 1.610 . S
N829 C830 1.351 . S
C830 C824 1.428 . S
C830 N829 1.351 . S
C830 C831 1.434 . S
C831 C822 1.429 . S
C831 N828 1.350 . S
C831 C830 1.434 . S
C832 C833 1.369 . S
C832 C834 1.419 . S
C832 H836 0.930 . S
C833 C832 1.369 . S
C833 C842 1.429 . S
C834 C832 1.419 . S
C834 C835 1.363 . S
C834 H837 0.929 . S
C835 C834 1.363 . S
C835 C841 1.428 . S
H836 C832 0.930 . S
H837 C834 0.929 . S
S838 N839 1.613 . S
S838 N840 1.610 . S
N839 S838 1.613 . S
N839 C842 1.350 . S
N840 S838 1.610 . S
N840 C841 1.351 . S
C841 C835 1.428 . S
C841 N840 1.351 . S
C841 C842 1.434 . S
C842 C833 1.429 . S
C842 N839 1.350 . S
C842 C841 1.434 . S
C843 C844 1.369 . S
C843 C845 1.419 . S
C843 H847 0.930 . S
C844 C843 1.369 . S
C844 C853 1.429 . S
C845 C843 1.419 . S
C845 C846 1.363 . S
C845 H848 0.929 . S
C846 C845 1.363 . S
C846 C852 1.428 . S
H847 C843 0.930 . S
H848 C845 0.929 . S
S849 N850 1.613 . S
S849 N851 1.610 . S
N850 S849 1.613 . S
N850 C853 1.350 . S
N851 S849 1.610 . S
N851 C852 1.351 . S
C852 C846 1.428 . S
C852 N851 1.351 . S
C852 C853 1.434 . S
C853 C844 1.429 . S
C853 N850 1.350 . S
C853 C852 1.434 . S
C854 C855 1.369 . S
C854 C856 1.419 . S
C854 H858 0.930 . S
C855 C854 1.369 . S
C855 C864 1.429 . S
C856 C854 1.419 . S
C856 C857 1.363 . S
C856 H859 0.929 . S
C857 C856 1.363 . S
C857 C863 1.428 . S
H858 C854 0.930 . S
H859 C856 0.929 . S
S860 N861 1.613 . S
S860 N862 1.610 . S
N861 S860 1.613 . S
N861 C864 1.350 . S
N862 S860 1.610 . S
N862 C863 1.351 . S
C863 C857 1.428 . S
C863 N862 1.351 . S
C863 C864 1.434 . S
C864 C855 1.429 . S
C864 N861 1.350 . S
C864 C863 1.434 . S
C865 C866 1.369 . S
C865 C867 1.419 . S
C865 H869 0.930 . S
C866 C865 1.369 . S
C866 C875 1.429 . S
C867 C865 1.419 . S
C867 C868 1.363 . S
C867 H870 0.929 . S
C868 C867 1.363 . S
C868 C874 1.428 . S
H869 C865 0.930 . S
H870 C867 0.929 . S
S871 N872 1.613 . S
S871 N873 1.610 . S
N872 S871 1.613 . S
N872 C875 1.350 . S
N873 S871 1.610 . S
N873 C874 1.351 . S
C874 C868 1.428 . S
C874 N873 1.351 . S
C874 C875 1.434 . S
C875 C866 1.429 . S
C875 N872 1.350 . S
C875 C874 1.434 . S
C876 C877 1.369 . S
C876 C878 1.419 . S
C876 H880 0.930 . S
C877 C876 1.369 . S
C877 C886 1.429 . S
C878 C876 1.419 . S
C878 C879 1.363 . S
C878 H881 0.929 . S
C879 C878 1.363 . S
C879 C885 1.428 . S
H880 C876 0.930 . S
H881 C878 0.929 . S
S882 N883 1.613 . S
S882 N884 1.610 . S
N883 S882 1.613 . S
N883 C886 1.350 . S
N884 S882 1.610 . S
N884 C885 1.351 . S
C885 C879 1.428 . S
C885 N884 1.351 . S
C885 C886 1.434 . S
C886 C877 1.429 . S
C886 N883 1.350 . S
C886 C885 1.434 . S
C887 C888 1.369 . S
C887 C889 1.419 . S
C887 H891 0.930 . S
C888 C887 1.369 . S
C888 C897 1.429 . S
C889 C887 1.419 . S
C889 C890 1.363 . S
C889 H892 0.929 . S
C890 C889 1.363 . S
C890 C896 1.428 . S
H891 C887 0.930 . S
H892 C889 0.929 . S
S893 N894 1.613 . S
S893 N895 1.610 . S
N894 S893 1.613 . S
N894 C897 1.350 . S
N895 S893 1.610 . S
N895 C896 1.351 . S
C896 C890 1.428 . S
C896 N895 1.351 . S
C896 C897 1.434 . S
C897 C888 1.429 . S
C897 N894 1.350 . S
C897 C896 1.434 . S
C898 C899 1.369 . S
C898 C900 1.419 . S
C898 H902 0.930 . S
C899 C898 1.369 . S
C899 C908 1.429 . S
C900 C898 1.419 . S
C900 C901 1.363 . S
C900 H903 0.929 . S
C901 C900 1.363 . S
C901 C907 1.428 . S
H902 C898 0.930 . S
H903 C900 0.929 . S
S904 N905 1.613 . S
S904 N906 1.610 . S
N905 S904 1.613 . S
N905 C908 1.350 . S
N906 S904 1.610 . S
N906 C907 1.351 . S
C907 C901 1.428 . S
C907 N906 1.351 . S
C907 C908 1.434 . S
C908 C899 1.429 . S
C908 N905 1.350 . S
C908 C907 1.434 . S
C909 C910 1.369 . S
C909 C911 1.419 . S
C909 H913 0.930 . S
C910 C909 1.369 . S
C910 C919 1.429 . S
C911 C909 1.419 . S
C911 C912 1.363 1_655 S
C911 H914 0.929 . S
C912 C911 1.363 1_455 S
C912 C918 1.428 1_455 S
H913 C909 0.930 . S
H914 C911 0.929 . S
S915 N916 1.613 . S
S915 N917 1.610 1_655 S
N916 S915 1.613 . S
N916 C919 1.350 . S
N917 S915 1.610 1_455 S
N917 C918 1.351 1_455 S
C918 C912 1.428 1_655 S
C918 N917 1.351 1_655 S
C918 C919 1.434 . S
C919 C910 1.429 . S
C919 N916 1.350 . S
C919 C918 1.434 . S
C920 C921 1.369 . S
C920 C922 1.419 . S
C920 H924 0.930 . S
C921 C920 1.369 . S
C921 C930 1.429 . S
C922 C920 1.419 . S
C922 C923 1.363 . S
C922 H925 0.929 . S
C923 C922 1.363 . S
C923 C929 1.428 . S
H924 C920 0.930 . S
H925 C922 0.929 . S
S926 N927 1.613 . S
S926 N928 1.610 . S
N927 S926 1.613 . S
N927 C930 1.350 . S
N928 S926 1.610 . S
N928 C929 1.351 . S
C929 C923 1.428 . S
C929 N928 1.351 . S
C929 C930 1.434 . S
C930 C921 1.429 . S
C930 N927 1.350 . S
C930 C929 1.434 . S
C931 C932 1.369 . S
C931 C933 1.419 . S
C931 H935 0.930 . S
C932 C931 1.369 . S
C932 C941 1.429 . S
C933 C931 1.419 . S
C933 C934 1.363 . S
C933 H936 0.929 . S
C934 C933 1.363 . S
C934 C940 1.428 . S
H935 C931 0.930 . S
H936 C933 0.929 . S
S937 N938 1.613 . S
S937 N939 1.610 . S
N938 S937 1.613 . S
N938 C941 1.350 . S
N939 S937 1.610 . S
N939 C940 1.351 . S
C940 C934 1.428 . S
C940 N939 1.351 . S
C940 C941 1.434 . S
C941 C932 1.429 . S
C941 N938 1.350 . S
C941 C940 1.434 . S
C942 C943 1.369 . S
C942 C944 1.419 . S
C942 H946 0.930 . S
C943 C942 1.369 . S
C943 C952 1.429 . S
C944 C942 1.419 . S
C944 C945 1.363 1_565 S
C944 H947 0.929 . S
C945 C944 1.363 1_545 S
C945 C951 1.428 1_545 S
H946 C942 0.930 . S
H947 C944 0.929 . S
S948 N949 1.613 . S
S948 N950 1.610 1_565 S
N949 S948 1.613 . S
N949 C952 1.350 . S
N950 S948 1.610 1_545 S
N950 C951 1.351 1_545 S
C951 C945 1.428 1_565 S
C951 N950 1.351 1_565 S
C951 C952 1.434 . S
C952 C943 1.429 . S
C952 N949 1.350 . S
C952 C951 1.434 . S
C953 C954 1.369 . S
C953 C955 1.419 . S
C953 H957 0.930 . S
C954 C953 1.369 . S
C954 C963 1.429 . S
C955 C953 1.419 . S
C955 C956 1.363 . S
C955 H958 0.929 . S
C956 C955 1.363 . S
C956 C962 1.428 . S
H957 C953 0.930 . S
H958 C955 0.929 . S
S959 N960 1.613 . S
S959 N961 1.610 1_545 S
N960 S959 1.613 . S
N960 C963 1.350 1_545 S
N961 S959 1.610 1_565 S
N961 C962 1.351 . S
C962 C956 1.428 . S
C962 N961 1.351 . S
C962 C963 1.434 . S
C963 C954 1.429 . S
C963 N960 1.350 1_565 S
C963 C962 1.434 . S
C964 C965 1.369 . S
C964 C966 1.419 . S
C964 H968 0.930 . S
C965 C964 1.369 . S
C965 C974 1.429 . S
C966 C964 1.419 . S
C966 C967 1.363 . S
C966 H969 0.929 . S
C967 C966 1.363 . S
C967 C973 1.428 . S
H968 C964 0.930 . S
H969 C966 0.929 . S
S970 N971 1.613 . S
S970 N972 1.610 . S
N971 S970 1.613 . S
N971 C974 1.350 . S
N972 S970 1.610 . S
N972 C973 1.351 . S
C973 C967 1.428 . S
C973 N972 1.351 . S
C973 C974 1.434 . S
C974 C965 1.429 . S
C974 N971 1.350 . S
C974 C973 1.434 . S
C975 C976 1.369 . S
C975 C977 1.419 . S
C975 H979 0.930 . S
C976 C975 1.369 . S
C976 C985 1.429 . S
C977 C975 1.419 . S
C977 C978 1.363 . S
C977 H980 0.929 . S
C978 C977 1.363 . S
C978 C984 1.428 . S
H979 C975 0.930 . S
H980 C977 0.929 . S
S981 N982 1.613 1_565 S
S981 N983 1.610 1_565 S
N982 S981 1.613 1_545 S
N982 C985 1.350 . S
N983 S981 1.610 1_545 S
N983 C984 1.351 . S
C984 C978 1.428 . S
C984 N983 1.351 . S
C984 C985 1.434 . S
C985 C976 1.429 . S
C985 N982 1.350 . S
C985 C984 1.434 . S
C986 C987 1.369 . S
C986 C988 1.419 . S
C986 H990 0.930 . S
C987 C986 1.369 . S
C987 C996 1.429 . S
C988 C986 1.419 . S
C988 C989 1.363 . S
C988 H991 0.929 . S
C989 C988 1.363 . S
C989 C995 1.428 . S
H990 C986 0.930 . S
H991 C988 0.929 . S
S992 N993 1.613 . S
S992 N994 1.610 . S
N993 S992 1.613 . S
N993 C996 1.350 . S
N994 S992 1.610 . S
N994 C995 1.351 . S
C995 C989 1.428 . S
C995 N994 1.351 . S
C995 C996 1.434 . S
C996 C987 1.429 . S
C996 N993 1.350 . S
C996 C995 1.434 . S
C997 C998 1.369 . S
C997 C999 1.419 . S
C997 H1001 0.930 . S
C998 C997 1.369 . S
C998 C1007 1.429 . S
C999 C997 1.419 . S
C999 C1000 1.363 . S
C999 H1002 0.929 . S
C1000 C999 1.363 . S
C1000 C1006 1.428 . S
H1001 C997 0.930 . S
H1002 C999 0.929 . S
S1003 N1004 1.613 . S
S1003 N1005 1.610 . S
N1004 S1003 1.613 . S
N1004 C1007 1.350 . S
N1005 S1003 1.610 . S
N1005 C1006 1.351 . S
C1006 C1000 1.428 . S
C1006 N1005 1.351 . S
C1006 C1007 1.434 . S
C1007 C998 1.429 . S
C1007 N1004 1.350 . S
C1007 C1006 1.434 . S
C415 C21 1.286 . S
C417 C63 1.249 . S
C426 C17 1.246 . S
C428 C44 1.286 . S
C437 C40 1.250 . S
C439 C67 1.288 . S
C448 C90 1.286 . S
C450 C109 1.245 . S
C459 C132 1.243 . S
C461 C113 1.285 . S
C470 C136 1.284 . S
C472 C86 1.246 . S
C481 C201 1.240 . S
C483 C159 1.283 . S
C492 C155 1.246 . S
C494 C182 1.287 1_545 S
C503 C205 1.286 1_655 S
C505 C178 1.245 . S
C514 C247 1.245 . S
C516 C228 1.284 . S
C525 C251 1.287 . S
C527 C270 1.250 . S
C536 C224 1.250 . S
C538 C274 1.286 . S
C547 C297 1.286 . S
C549 C339 1.244 . S
C558 C293 1.243 . S
C560 C320 1.283 . S
C569 C316 1.244 . S
C571 C343 1.283 . S
C580 C385 1.241 . S
C582 C366 1.283 . S
C591 C408 1.250 . S
C593 C389 1.288 1_565 S
C602 C362 1.247 . S
C604 C412 1.284 1_455 S
C613 C20 1.519 1_545 S
C615 C135 1.522 . S
C624 C89 1.523 1_455 S
C626 C43 1.526 . S
C635 C112 1.520 . S
C637 C66 1.522 . S
C646 C158 1.526 . S
C648 C273 1.522 . S
C657 C181 1.525 . S
C659 C227 1.522 . S
C668 C250 1.522 . S
C670 C204 1.525 . S
C679 C296 1.521 . S
C681 C411 1.524 . S
C690 C365 1.524 . S
C692 C319 1.521 . S
C701 C388 1.521 . S
C703 C342 1.524 . S
C712 C249 1.563 . S
C714 C19 1.563 . S
C723 C42 1.560 . S
C725 C272 1.560 . S
C734 C226 1.562 . S
C736 C65 1.563 . S
C745 C88 1.564 . S
C747 C341 1.563 . S
C756 C111 1.563 . S
C758 C295 1.563 . S
C767 C318 1.559 . S
C769 C134 1.560 . S
C778 C387 1.560 . S
C780 C157 1.561 . S
C789 C180 1.563 . S
C791 C410 1.563 . S
C800 C203 1.563 . S
C802 C364 1.563 . S
C811 C62 1.159 . S
C813 C18 1.152 . S
C822 C16 1.160 . S
C824 C41 1.148 . S
C833 C64 1.152 . S
C835 C39 1.157 . S
C844 C108 1.160 . S
C846 C87 1.148 . S
C855 C131 1.159 . S
C857 C110 1.151 . S
C866 C133 1.148 . S
C868 C85 1.156 . S
C877 C200 1.158 . S
C879 C156 1.146 . S
C888 C179 1.150 . S
C890 C154 1.156 . S
C899 C177 1.160 . S
C901 C202 1.149 . S
C910 C225 1.145 . S
C912 C246 1.158 . S
C921 C248 1.150 . S
C923 C269 1.156 . S
C932 C223 1.160 1_545 S
C934 C271 1.150 . S
C943 C294 1.150 . S
C945 C338 1.160 . S
C954 C317 1.147 . S
C956 C292 1.160 1_455 S
C965 C315 1.159 . S
C967 C340 1.147 . S
C976 C363 1.151 . S
C978 C384 1.157 . S
C987 C386 1.149 . S
C989 C407 1.160 . S
C998 C361 1.159 . S
C1000 C409 1.152 . S
