# Generated by pormake.
# Topology zfa, (5)-cn, num edge types: 1
# Building blocks:
#     Node 0, Type 0, BuildingBlock: XOMCOT_clean_sbu_0, # of connection points: 5
#     Node 1, Type 0, BuildingBlock: XOMCOT_clean_sbu_0, # of connection points: 5
#     Node 2, Type 0, BuildingBlock: XOMCOT_clean_sbu_0, # of connection points: 5
#     Node 3, Type 0, BuildingBlock: XOMCOT_clean_sbu_0, # of connection points: 5
#     Node 4, Type 0, BuildingBlock: XOMCOT_clean_sbu_0, # of connection points: 5
#     Node 5, Type 0, BuildingBlock: XOMCOT_clean_sbu_0, # of connection points: 5
#     Node 6, Type 0, BuildingBlock: XOMCOT_clean_sbu_0, # of connection points: 5
#     Node 7, Type 0, BuildingBlock: XOMCOT_clean_sbu_0, # of connection points: 5
#     Edge 8, Type (0, 0), BuildingBlock: CIFDUS_clean_linker_0, # of connection points: 2
#     Edge 9, Type (0, 0), BuildingBlock: CIFDUS_clean_linker_0, # of connection points: 2
#     Edge 10, Type (0, 0), BuildingBlock: CIFDUS_clean_linker_0, # of connection points: 2
#     Edge 11, Type (0, 0), BuildingBlock: CIFDUS_clean_linker_0, # of connection points: 2
#     Edge 12, Type (0, 0), BuildingBlock: CIFDUS_clean_linker_0, # of connection points: 2
#     Edge 13, Type (0, 0), BuildingBlock: CIFDUS_clean_linker_0, # of connection points: 2
#     Edge 14, Type (0, 0), BuildingBlock: CIFDUS_clean_linker_0, # of connection points: 2
#     Edge 15, Type (0, 0), BuildingBlock: CIFDUS_clean_linker_0, # of connection points: 2
#     Edge 16, Type (0, 0), BuildingBlock: CIFDUS_clean_linker_0, # of connection points: 2
#     Edge 17, Type (0, 0), BuildingBlock: CIFDUS_clean_linker_0, # of connection points: 2
#     Edge 18, Type (0, 0), BuildingBlock: CIFDUS_clean_linker_0, # of connection points: 2
#     Edge 19, Type (0, 0), BuildingBlock: CIFDUS_clean_linker_0, # of connection points: 2
#     Edge 20, Type (0, 0), BuildingBlock: CIFDUS_clean_linker_0, # of connection points: 2
#     Edge 21, Type (0, 0), BuildingBlock: CIFDUS_clean_linker_0, # of connection points: 2
#     Edge 22, Type (0, 0), BuildingBlock: CIFDUS_clean_linker_0, # of connection points: 2
#     Edge 23, Type (0, 0), BuildingBlock: CIFDUS_clean_linker_0, # of connection points: 2
#     Edge 24, Type (0, 0), BuildingBlock: CIFDUS_clean_linker_0, # of connection points: 2
#     Edge 25, Type (0, 0), BuildingBlock: CIFDUS_clean_linker_0, # of connection points: 2
#     Edge 26, Type (0, 0), BuildingBlock: CIFDUS_clean_linker_0, # of connection points: 2
#     Edge 27, Type (0, 0), BuildingBlock: CIFDUS_clean_linker_0, # of connection points: 2
# Relax obj value: 0.211
# Max RMSD: 0.192
# Mean RMSD: 0.192
data_MOF--net-zfa--node1-XOMCOT_clean_sbu_0--edge1-CIFDUS_clean_linker_0
_symmetry_space_group_name_H-M    P1
_symmetry_Int_Tables_number       1
_symmetry_cell_setting            triclinic
loop_
_symmetry_equiv_pos_as_xyz
'x, y, z'
_cell_length_a     27.8838
_cell_length_b     27.840338
_cell_length_c     36.074831
_cell_angle_alpha  89.566878
_cell_angle_beta   89.467953
_cell_angle_gamma 90.046317
loop_
_atom_site_label
_atom_site_type_symbol
_atom_site_fract_x
_atom_site_fract_y
_atom_site_fract_z
_atom_type_partial_charge
Co0 Co 0.12742 0.24899 0.35767 0.0
C1 C 0.08008 0.34079 0.3776 0.0
C2 C 0.15575 0.35109 0.3715 0.0
C3 C 0.13487 0.39501 0.37712 0.0
N4 N 0.12145 0.31661 0.37153 0.0
N5 N 0.08727 0.38847 0.38054 0.0
H6 H 0.04487 0.32459 0.37771 0.0
H7 H 0.19364 0.34573 0.36687 0.0
C8 C 0.17591 0.25127 0.43172 0.0
O9 O 0.20114 0.28797 0.41964 0.0
N10 N 0.13272 0.18295 0.34319 0.0
C11 C 0.15254 0.1666 0.31148 0.0
C12 C 0.13901 0.1196 0.30691 0.0
C13 C 0.10734 0.14606 0.35738 0.0
N14 N 0.11006 0.10706 0.33551 0.0
C15 C 0.20123 0.2876 0.3111 0.0
C16 C 0.27483 0.23117 0.33802 0.0
C17 C 0.28398 0.2618 0.30767 0.0
C18 C 0.2465 0.29073 0.29459 0.0
C19 C 0.22918 0.22979 0.35416 0.0
N20 N 0.19322 0.25831 0.34102 0.0
H21 H 0.17228 0.3088 0.29984 0.0
H22 H 0.22208 0.20378 0.37589 0.0
H23 H 0.17215 0.18835 0.29153 0.0
H24 H 0.08445 0.14902 0.38165 0.0
O25 O 0.09505 0.26241 0.31137 0.0
O26 O 0.05883 0.2401 0.36358 0.0
O27 O 0.14639 0.23052 0.41015 0.0
C28 C 0.05532 0.25113 0.32857 0.0
H29 H 0.15321 0.42928 0.37757 0.0
H30 H 0.14616 0.09793 0.28269 0.0
H31 H 0.30203 0.2069 0.34831 0.0
H32 H 0.25178 0.31527 0.27149 0.0
Co33 Co 0.27481 0.63359 0.86394 0.0
C34 C 0.1691 0.61606 0.86113 0.0
C35 C 0.19555 0.61796 0.91666 0.0
C36 C 0.14769 0.60702 0.91821 0.0
N37 N 0.20884 0.62597 0.88101 0.0
N38 N 0.13125 0.60582 0.88337 0.0
H39 H 0.16828 0.61316 0.8313 0.0
H40 H 0.21952 0.61692 0.94 0.0
C41 C 0.26783 0.69817 0.92902 0.0
O42 O 0.23022 0.71651 0.91237 0.0
N43 N 0.34069 0.63838 0.84673 0.0
C44 C 0.35499 0.65814 0.81419 0.0
C45 C 0.40039 0.64263 0.80591 0.0
C46 C 0.3776 0.61031 0.85742 0.0
N47 N 0.41424 0.61161 0.83261 0.0
C48 C 0.22863 0.70387 0.81504 0.0
C49 C 0.28751 0.77962 0.83423 0.0
C50 C 0.25205 0.78791 0.80768 0.0
C51 C 0.2224 0.74905 0.79806 0.0
C52 C 0.29222 0.73439 0.8506 0.0
N53 N 0.26244 0.69713 0.84172 0.0
H54 H 0.20724 0.6742 0.80579 0.0
H55 H 0.32131 0.7289 0.86975 0.0
H56 H 0.33255 0.67877 0.79572 0.0
H57 H 0.37548 0.5854 0.88054 0.0
O58 O 0.2624 0.59144 0.82213 0.0
O59 O 0.28532 0.5673 0.87779 0.0
O60 O 0.29178 0.66451 0.91324 0.0
C61 C 0.27428 0.55595 0.84404 0.0
H62 H 0.12722 0.59723 0.94279 0.0
H63 H 0.42001 0.65072 0.78061 0.0
H64 H 0.31279 0.80741 0.8416 0.0
H65 H 0.19479 0.75326 0.7774 0.0
Co66 Co 0.89255 0.7626 0.36384 0.0
C67 C 0.92163 0.66058 0.35584 0.0
C68 C 0.88 0.67165 0.40519 0.0
C69 C 0.89663 0.62532 0.40552 0.0
N70 N 0.89591 0.69411 0.37413 0.0
N71 N 0.92334 0.61854 0.3747 0.0
H72 H 0.94075 0.66724 0.33014 0.0
H73 H 0.86016 0.68811 0.42756 0.0
C74 C 0.88669 0.79787 0.44054 0.0
O75 O 0.92783 0.81946 0.43397 0.0
N76 N 0.88827 0.83119 0.35505 0.0
C77 C 0.84865 0.85867 0.35871 0.0
C78 C 0.86144 0.90621 0.355 0.0
C79 C 0.92455 0.86253 0.34991 0.0
N80 N 0.90928 0.90843 0.34956 0.0
C81 C 0.81844 0.76935 0.30967 0.0
C82 C 0.74359 0.74048 0.3555 0.0
C83 C 0.73294 0.75787 0.31989 0.0
C84 C 0.77137 0.77146 0.29659 0.0
C85 C 0.79105 0.73936 0.36758 0.0
N86 N 0.82767 0.75499 0.34514 0.0
H87 H 0.84741 0.78186 0.29196 0.0
H88 H 0.7978 0.72711 0.39543 0.0
H89 H 0.8131 0.84539 0.36526 0.0
H90 H 0.96187 0.85247 0.34893 0.0
O91 O 0.92884 0.75472 0.318 0.0
O92 O 0.96161 0.76757 0.37249 0.0
O93 O 0.86691 0.7736 0.4151 0.0
C94 C 0.96778 0.76049 0.33708 0.0
H95 H 0.89257 0.59998 0.42823 0.0
H96 H 0.83752 0.93665 0.35724 0.0
H97 H 0.71544 0.72827 0.37418 0.0
H98 H 0.76518 0.78545 0.26897 0.0
Co99 Co 0.76682 0.4042 0.86671 0.0
C100 C 0.87118 0.42585 0.85881 0.0
C101 C 0.8473 0.42388 0.91537 0.0
C102 C 0.89283 0.44212 0.91433 0.0
N103 N 0.83363 0.4123 0.88071 0.0
N104 N 0.90769 0.44362 0.87883 0.0
H105 H 0.86982 0.42842 0.82891 0.0
H106 H 0.82406 0.42463 0.93947 0.0
C107 C 0.77447 0.34379 0.93411 0.0
O108 O 0.81204 0.32519 0.91726 0.0
N109 N 0.70031 0.39932 0.85331 0.0
C110 C 0.68301 0.3825 0.82116 0.0
C111 C 0.6359 0.39625 0.81819 0.0
C112 C 0.6638 0.42332 0.86931 0.0
N113 N 0.62411 0.42252 0.84822 0.0
C114 C 0.81095 0.33025 0.82159 0.0
C115 C 0.74657 0.25882 0.84179 0.0
C116 C 0.78114 0.24874 0.81449 0.0
C117 C 0.81406 0.28511 0.80479 0.0
C118 C 0.74512 0.30392 0.85813 0.0
N119 N 0.77698 0.3392 0.84809 0.0
H120 H 0.83474 0.35835 0.8122 0.0
H121 H 0.71669 0.31121 0.87786 0.0
H122 H 0.70412 0.3647 0.80005 0.0
H123 H 0.66782 0.44516 0.89379 0.0
O124 O 0.7785 0.4397 0.8214 0.0
O125 O 0.75796 0.4726 0.87497 0.0
O126 O 0.751 0.37767 0.91819 0.0
C127 C 0.76845 0.47838 0.8399 0.0
H128 H 0.91172 0.45778 0.9374 0.0
H129 H 0.6132 0.39033 0.79448 0.0
H130 H 0.7193 0.23283 0.84954 0.0
H131 H 0.84155 0.27919 0.78394 0.0
Co132 Co 0.62822 0.26304 0.20858 0.0
C133 C 0.60418 0.15859 0.20539 0.0
C134 C 0.60616 0.19194 0.15179 0.0
C135 C 0.58549 0.14754 0.1485 0.0
N136 N 0.61899 0.19917 0.18737 0.0
N137 N 0.58366 0.12674 0.18223 0.0
H138 H 0.60285 0.15469 0.23523 0.0
H139 H 0.60594 0.21902 0.13023 0.0
C140 C 0.68379 0.27093 0.13811 0.0
O141 O 0.70542 0.23119 0.14853 0.0
N142 N 0.63384 0.32646 0.22953 0.0
C143 C 0.65008 0.33668 0.26358 0.0
C144 C 0.63702 0.38288 0.2722 0.0
C145 C 0.61079 0.36638 0.21799 0.0
N146 N 0.61184 0.40161 0.24368 0.0
C147 C 0.70339 0.21051 0.24608 0.0
C148 C 0.77496 0.27709 0.23135 0.0
C149 C 0.78546 0.23781 0.25443 0.0
C150 C 0.74899 0.20392 0.26135 0.0
C151 C 0.72914 0.28224 0.21663 0.0
N152 N 0.69388 0.24919 0.2239 0.0
H153 H 0.67534 0.18545 0.25332 0.0
H154 H 0.72141 0.31414 0.20052 0.0
H155 H 0.66703 0.31112 0.28199 0.0
H156 H 0.59111 0.36812 0.19234 0.0
O157 O 0.59456 0.24312 0.25303 0.0
O158 O 0.56048 0.27363 0.20263 0.0
O159 O 0.65132 0.2892 0.15895 0.0
C160 C 0.5557 0.25691 0.23629 0.0
H161 H 0.56901 0.13344 0.12379 0.0
H162 H 0.64253 0.39971 0.29874 0.0
H163 H 0.80125 0.30497 0.22594 0.0
H164 H 0.75527 0.17295 0.27897 0.0
Co165 Co 0.25859 0.13545 0.70826 0.0
C166 C 0.36303 0.1121 0.70928 0.0
C167 C 0.33311 0.10978 0.65488 0.0
C168 C 0.37769 0.08944 0.6535 0.0
N169 N 0.32371 0.12519 0.68964 0.0
N170 N 0.3963 0.09022 0.68771 0.0
H171 H 0.36493 0.11299 0.73919 0.0
H172 H 0.30733 0.1079 0.63279 0.0
C173 C 0.26138 0.19115 0.63808 0.0
O174 O 0.30133 0.20903 0.65132 0.0
N175 N 0.19371 0.14211 0.72721 0.0
C176 C 0.18109 0.16478 0.75873 0.0
C177 C 0.13606 0.15004 0.76936 0.0
C178 C 0.15627 0.11321 0.7195 0.0
N179 N 0.12077 0.11678 0.74515 0.0
C180 C 0.30748 0.21361 0.74716 0.0
C181 C 0.24481 0.28432 0.72334 0.0
C182 C 0.28184 0.29742 0.74707 0.0
C183 C 0.31328 0.26125 0.75942 0.0
C184 C 0.23985 0.2368 0.71238 0.0
N185 N 0.27145 0.20197 0.7234 0.0
H186 H 0.33119 0.18607 0.75743 0.0
H187 H 0.20941 0.22777 0.69548 0.0
H188 H 0.20448 0.1873 0.77486 0.0
H189 H 0.15729 0.08649 0.69789 0.0
O190 O 0.27403 0.10083 0.75351 0.0
O191 O 0.24787 0.06719 0.70208 0.0
O192 O 0.23812 0.15943 0.65706 0.0
C193 C 0.26137 0.06186 0.73629 0.0
H194 H 0.39337 0.07127 0.62988 0.0
H195 H 0.11758 0.16075 0.79446 0.0
H196 H 0.2187 0.31047 0.71404 0.0
H197 H 0.34204 0.2697 0.77826 0.0
Co198 Co 0.39691 0.75623 0.20666 0.0
C199 C 0.41073 0.86287 0.20287 0.0
C200 C 0.4003 0.83214 0.14936 0.0
C201 C 0.41132 0.87975 0.14467 0.0
N202 N 0.39782 0.8214 0.18594 0.0
N203 N 0.41823 0.89905 0.17821 0.0
H204 H 0.41755 0.86597 0.23222 0.0
H205 H 0.3991 0.80657 0.12708 0.0
C206 C 0.33172 0.74552 0.14157 0.0
O207 O 0.30657 0.78176 0.15446 0.0
N208 N 0.39915 0.69183 0.22672 0.0
C209 C 0.39277 0.67972 0.26268 0.0
C210 C 0.41106 0.63437 0.26836 0.0
C211 C 0.42092 0.65374 0.21094 0.0
N212 N 0.4287 0.61827 0.23584 0.0
C213 C 0.32317 0.80238 0.25234 0.0
C214 C 0.25393 0.73264 0.24168 0.0
C215 C 0.24235 0.77164 0.26447 0.0
C216 C 0.27801 0.80671 0.26983 0.0
C217 C 0.29929 0.7296 0.22493 0.0
N218 N 0.33314 0.76464 0.22955 0.0
H219 H 0.35026 0.82898 0.25772 0.0
H220 H 0.30737 0.69843 0.20834 0.0
H221 H 0.37954 0.70375 0.28385 0.0
H222 H 0.43515 0.65396 0.18291 0.0
O223 O 0.43843 0.7766 0.24678 0.0
O224 O 0.46304 0.75022 0.19202 0.0
O225 O 0.36799 0.7302 0.15956 0.0
C226 C 0.47413 0.76535 0.22482 0.0
H227 H 0.41792 0.89788 0.11844 0.0
H228 H 0.41411 0.61591 0.29475 0.0
H229 H 0.22854 0.7038 0.23743 0.0
H230 H 0.27117 0.83741 0.28735 0.0
Co231 Co 0.76626 0.90701 0.71372 0.0
C232 C 0.66024 0.92137 0.71008 0.0
C233 C 0.69162 0.91235 0.65621 0.0
C234 C 0.64391 0.92263 0.65201 0.0
N235 N 0.70198 0.90963 0.6927 0.0
N236 N 0.62432 0.92855 0.68581 0.0
H237 H 0.65655 0.9271 0.73959 0.0
H238 H 0.71726 0.91147 0.6337 0.0
C239 C 0.78435 0.84968 0.64435 0.0
O240 O 0.74843 0.82114 0.65331 0.0
N241 N 0.82993 0.90709 0.73382 0.0
C242 C 0.84334 0.89492 0.76839 0.0
C243 C 0.88978 0.9104 0.77343 0.0
C244 C 0.86788 0.92963 0.71834 0.0
N245 N 0.90491 0.9325 0.74196 0.0
C246 C 0.71946 0.8297 0.75377 0.0
C247 C 0.79059 0.76223 0.7418 0.0
C248 C 0.75166 0.74983 0.76486 0.0
C249 C 0.7156 0.78427 0.77053 0.0
C250 C 0.79303 0.80791 0.72562 0.0
N251 N 0.75755 0.84101 0.73133 0.0
H252 H 0.69259 0.85628 0.76001 0.0
H253 H 0.82453 0.81725 0.70943 0.0
H254 H 0.82008 0.87864 0.78912 0.0
H255 H 0.86676 0.94732 0.69154 0.0
O256 O 0.74421 0.94077 0.75724 0.0
O257 O 0.77178 0.97542 0.70571 0.0
O258 O 0.79483 0.88522 0.66498 0.0
C259 C 0.75584 0.9801 0.73953 0.0
H260 H 0.62579 0.92913 0.62603 0.0
H261 H 0.90989 0.90775 0.79888 0.0
H262 H 0.82001 0.73751 0.73733 0.0
H263 H 0.68487 0.7765 0.78814 0.0
H264 H 0.91244 0.52753 0.39908 0.0
H265 H 1.00744 0.62048 0.33615 0.0
H266 H 0.0661 0.55628 0.3316 0.0
H267 H 0.09265 0.47556 0.34855 0.0
H268 H 1.00009 0.3832 0.41372 0.0
H269 H 0.93834 0.44563 0.41477 0.0
C270 C 0.94595 0.53373 0.38437 0.0
C271 C 0.95539 0.57892 0.36817 0.0
C272 C 0.98022 0.497 0.38266 0.0
C273 C 0.99868 0.58603 0.34852 0.0
C274 C 0.03263 0.54945 0.34625 0.0
C275 C 0.0592 0.46929 0.36334 0.0
C276 C 0.05112 0.42517 0.38148 0.0
C277 C 0.02415 0.5052 0.36383 0.0
C278 C 1.00703 0.41696 0.39958 0.0
C279 C 0.97183 0.45261 0.40021 0.0
H280 H 0.92121 0.53632 0.89126 0.0
H281 H 0.98313 0.41321 0.83802 0.0
H282 H 0.05881 0.45734 0.8281 0.0
H283 H 0.11055 0.52669 0.84466 0.0
H284 H 0.04834 0.64649 0.90227 0.0
H285 H 0.96906 0.60893 0.90001 0.0
C286 C 0.95109 0.51981 0.87672 0.0
C287 C 0.94741 0.47181 0.86565 0.0
C288 C 0.99426 0.54489 0.87221 0.0
C289 C 0.9857 0.45028 0.84665 0.0
C290 C 0.02884 0.47539 0.8413 0.0
C291 C 0.07912 0.54497 0.85544 0.0
C292 C 0.08458 0.58919 0.87345 0.0
C293 C 0.0341 0.5221 0.8553 0.0
C294 C 0.04429 0.61255 0.88815 0.0
C295 C 0.99927 0.59094 0.88709 0.0
H296 H 0.49527 0.92384 0.21918 0.0
H297 H 0.38473 0.9802 0.14859 0.0
H298 H 0.42464 0.05831 0.14645 0.0
H299 H 0.49525 0.10747 0.15861 0.0
H300 H 0.60807 0.05285 0.22761 0.0
H301 H 0.56319 0.97739 0.23703 0.0
C302 C 0.47947 0.95376 0.20429 0.0
C303 C 0.4371 0.94653 0.18404 0.0
C304 C 0.50348 0.99847 0.20244 0.0
C305 C 0.41725 0.9852 0.1643 0.0
C306 C 0.44019 0.02967 0.16292 0.0
C307 C 0.50982 0.07909 0.17589 0.0
C308 C 0.5552 0.08511 0.19184 0.0
C309 C 0.48405 0.0362 0.18082 0.0
C310 C 0.57327 0.04871 0.21494 0.0
C311 C 0.54768 1.00563 0.22015 0.0
H312 H 0.59908 1.00697 0.72498 0.0
H313 H 0.54354 0.89094 0.65984 0.0
H314 H 0.46447 0.92876 0.65896 0.0
H315 H 0.41469 0.99948 0.6695 0.0
H316 H 0.46931 0.11868 0.73147 0.0
H317 H 0.54503 0.07514 0.74161 0.0
C318 C 0.56912 0.98957 0.71162 0.0
C319 C 0.57668 0.94625 0.69252 0.0
C320 C 0.52405 1.01251 0.71025 0.0
C321 C 0.53812 0.9242 0.67467 0.0
C322 C 0.49315 0.94594 0.67402 0.0
C323 C 0.44308 0.01562 0.68557 0.0
C324 C 0.4371 0.06238 0.6992 0.0
C325 C 0.48625 0.99084 0.69052 0.0
C326 C 0.47346 0.08273 0.72066 0.0
C327 C 0.51669 0.05794 0.72621 0.0
H328 H 0.46855 0.26688 0.20475 0.0
H329 H 0.53747 0.24315 0.3099 0.0
H330 H 0.45953 0.24352 0.34142 0.0
H331 H 0.37216 0.2524 0.33917 0.0
H332 H 0.3031 0.271 0.23329 0.0
H333 H 0.38091 0.27198 0.20219 0.0
C334 C 0.46647 0.26172 0.23456 0.0
C335 C 0.50858 0.25514 0.255 0.0
C336 C 0.42161 0.26157 0.25243 0.0
C337 C 0.50544 0.24814 0.29355 0.0
C338 C 0.46094 0.24851 0.3116 0.0
C339 C 0.37396 0.25607 0.30925 0.0
C340 C 0.33162 0.26205 0.28878 0.0
C341 C 0.4188 0.25535 0.29132 0.0
C342 C 0.33498 0.26748 0.25001 0.0
C343 C 0.3795 0.26757 0.23206 0.0
H344 H 0.24043 0.97482 0.70604 0.0
H345 H 0.28076 0.04157 0.80874 0.0
H346 H 0.27877 0.9635 0.84007 0.0
H347 H 0.266 0.87644 0.83842 0.0
H348 H 0.22976 0.80868 0.73507 0.0
H349 H 0.2283 0.88704 0.70433 0.0
C350 C 0.24885 0.97229 0.73527 0.0
C351 C 0.26088 1.01411 0.75496 0.0
C352 C 0.24786 0.92711 0.75315 0.0
C353 C 0.27158 1.01008 0.79284 0.0
C354 C 0.27033 0.9654 0.81083 0.0
C355 C 0.25821 0.87852 0.80907 0.0
C356 C 0.24818 0.83618 0.78925 0.0
C357 C 0.25866 0.92366 0.79125 0.0
C358 C 0.23698 0.84031 0.75138 0.0
C359 C 0.23662 0.88522 0.7336 0.0
H360 H 0.50981 0.78616 0.29339 0.0
H361 H 0.55272 0.74484 0.18288 0.0
H362 H 0.63586 0.73894 0.20229 0.0
H363 H 0.69631 0.74226 0.25094 0.0
H364 H 0.65476 0.78564 0.36128 0.0
H365 H 0.57155 0.79304 0.34179 0.0
C366 C 0.53744 0.7763 0.27352 0.0
C367 C 0.52488 0.76594 0.23675 0.0
C368 C 0.58555 0.77268 0.28491 0.0
C369 C 0.56119 0.75303 0.21138 0.0
C370 C 0.60889 0.74949 0.22246 0.0
C371 C 0.66928 0.75392 0.27069 0.0
C372 C 0.68212 0.76296 0.30764 0.0
C373 C 0.62146 0.75878 0.25921 0.0
C374 C 0.64608 0.77738 0.33284 0.0
C375 C 0.59838 0.78207 0.32164 0.0
H376 H 0.75906 0.16051 0.84379 0.0
H377 H 0.80166 0.23028 0.74127 0.0
H378 H 0.79715 0.15373 0.70913 0.0
H379 H 0.77955 0.0671 0.70972 0.0
H380 H 0.73263 0.99869 0.81154 0.0
H381 H 0.73863 0.07507 0.84393 0.0
C382 C 0.76682 0.15933 0.81431 0.0
C383 C 0.78073 0.2015 0.79517 0.0
C384 C 0.76272 0.11545 0.79567 0.0
C385 C 0.79173 0.19854 0.75708 0.0
C386 C 0.7886 0.15477 0.73849 0.0
C387 C 0.77026 0.06898 0.73893 0.0
C388 C 0.75555 0.02725 0.75814 0.0
C389 C 0.77385 0.11306 0.75745 0.0
C390 C 0.74382 0.03028 0.79602 0.0
C391 C 0.74748 0.07392 0.81463 0.0
H392 H 0.96862 0.22313 0.35663 0.0
H393 H 0.03712 0.27723 0.257 0.0
H394 H 0.96037 0.2759 0.22491 0.0
H395 H 0.87368 0.2601 0.22522 0.0
H396 H 0.80476 0.20802 0.32539 0.0
H397 H 0.88188 0.20671 0.35675 0.0
C398 C 0.96675 0.23472 0.32791 0.0
C399 C 1.00857 0.25051 0.30933 0.0
C400 C 0.92245 0.23378 0.30956 0.0
C401 C 1.00552 0.26506 0.27203 0.0
C402 C 0.96161 0.26425 0.25362 0.0
C403 C 0.87538 0.2487 0.25398 0.0
C404 C 0.83316 0.23421 0.27278 0.0
C405 C 0.91981 0.24883 0.27214 0.0
C406 C 0.83651 0.21869 0.3099 0.0
C407 C 0.88063 0.21837 0.32804 0.0
H408 H 0.26993 0.52193 0.77314 0.0
H409 H 0.2869 0.4759 0.88669 0.0
H410 H 0.29424 0.39258 0.86692 0.0
H411 H 0.2935 0.33178 0.81738 0.0
H412 H 0.27701 0.37794 0.70387 0.0
H413 H 0.27238 0.46158 0.72346 0.0
C414 C 0.27507 0.49365 0.79355 0.0
C415 C 0.27746 0.5053 0.83138 0.0
C416 C 0.27969 0.44556 0.78195 0.0
C417 C 0.28469 0.46811 0.85739 0.0
C418 C 0.28904 0.42032 0.8461 0.0
C419 C 0.28972 0.36024 0.79693 0.0
C420 C 0.28548 0.34846 0.75921 0.0
C421 C 0.28651 0.40849 0.80845 0.0
C422 C 0.27999 0.38588 0.73311 0.0
C423 C 0.27724 0.43379 0.74429 0.0
H424 H 0.05459 0.78752 0.36611 0.0
H425 H 0.98985 0.73291 0.26677 0.0
H426 H 0.06789 0.73251 0.23565 0.0
H427 H 0.15469 0.74751 0.23617 0.0
H428 H 0.22048 0.802 0.33514 0.0
H429 H 0.14225 0.80345 0.36632 0.0
C430 C 0.05762 0.77538 0.3377 0.0
C431 C 0.01616 0.76007 0.31894 0.0
C432 C 0.10293 0.77557 0.31966 0.0
C433 C 0.02089 0.7449 0.28199 0.0
C434 C 0.06565 0.74465 0.26409 0.0
C435 C 0.15215 0.75942 0.26466 0.0
C436 C 0.19395 0.77447 0.28313 0.0
C437 C 0.10695 0.75985 0.28261 0.0
C438 C 0.18923 0.79069 0.31988 0.0
C439 C 0.14438 0.79118 0.33792 0.0
H440 H 0.77757 0.6627 0.73696 0.0
H441 H 0.7224 0.72939 0.83615 0.0
H442 H 0.72249 0.65176 0.86816 0.0
H443 H 0.73982 0.56468 0.86845 0.0
H444 H 0.79625 0.49913 0.76918 0.0
H445 H 0.79491 0.57649 0.73719 0.0
C446 C 0.76588 0.66043 0.76567 0.0
C447 C 0.75003 0.70207 0.78399 0.0
C448 C 0.76655 0.61575 0.78409 0.0
C449 C 0.73417 0.698 0.82106 0.0
C450 C 0.73459 0.6536 0.83955 0.0
C451 C 0.75196 0.56741 0.83987 0.0
C452 C 0.76822 0.52609 0.82133 0.0
C453 C 0.75093 0.61221 0.82142 0.0
C454 C 0.78356 0.53025 0.7842 0.0
C455 C 0.78278 0.57454 0.7658 0.0
H456 H 0.22797 0.29394 0.48486 0.0
H457 H 0.14119 0.16854 0.46519 0.0
H458 H 0.15737 0.13935 0.52825 0.0
H459 H 0.19951 0.1485 0.58865 0.0
H460 H 0.28623 0.27498 0.60545 0.0
H461 H 0.26647 0.30453 0.5441 0.0
C462 C 0.21245 0.26016 0.49419 0.0
C463 C 0.18371 0.23336 0.47012 0.0
C464 C 0.22194 0.2437 0.53018 0.0
C465 C 0.1636 0.18991 0.48307 0.0
C466 C 0.17287 0.17318 0.51915 0.0
C467 C 0.21359 0.18269 0.57891 0.0
C468 C 0.24467 0.20921 0.60162 0.0
C469 C 0.20239 0.19963 0.54296 0.0
C470 C 0.26273 0.25344 0.58853 0.0
C471 C 0.25143 0.27054 0.55337 0.0
H472 H 0.27653 0.78722 0.08889 0.0
H473 H 0.36973 0.66603 0.10773 0.0
H474 H 0.36018 0.64131 0.04321 0.0
H475 H 0.32503 0.65443 0.98101 0.0
H476 H 0.23317 0.77718 0.96345 0.0
H477 H 0.24307 0.80104 1.02757 0.0
C478 C 0.29449 0.75513 0.07908 0.0
C479 C 0.32351 0.72838 0.10327 0.0
C480 C 0.28949 0.7416 0.0419 0.0
C481 C 0.34698 0.68724 0.08977 0.0
C482 C 0.34168 0.67316 0.05281 0.0
C483 C 0.30762 0.68663 0.99117 0.0
C484 C 0.27834 0.71385 0.96732 0.0
C485 C 0.31318 0.70022 1.02849 0.0
C486 C 0.25577 0.75533 0.98108 0.0
C487 C 0.26127 0.76906 1.01786 0.0
H488 H 0.76017 0.79195 0.5868 0.0
H489 H 0.86704 0.89399 0.62158 0.0
H490 H 0.90852 0.88653 0.56202 0.0
H491 H 0.91372 0.85225 0.49946 0.0
H492 H 0.80562 0.75159 0.46442 0.0
H493 H 0.76559 0.75741 0.52452 0.0
C494 C 0.79268 0.81236 0.58146 0.0
C495 C 0.81036 0.84348 0.60867 0.0
C496 C 0.81614 0.80833 0.54697 0.0
C497 C 0.85245 0.86987 0.60112 0.0
C498 C 0.87626 0.86564 0.56704 0.0
C499 C 0.88147 0.8315 0.50498 0.0
C500 C 0.86283 0.80155 0.47734 0.0
C501 C 0.85829 0.83521 0.53964 0.0
C502 C 0.82086 0.77503 0.48504 0.0
C503 C 0.79786 0.77827 0.51949 0.0
H504 H 0.74848 0.23857 0.08801 0.0
H505 H 0.64406 0.35074 0.10493 0.0
H506 H 0.66195 0.38334 0.04301 0.0
H507 H 0.70769 0.37943 0.98356 0.0
H508 H 0.81164 0.26595 0.96881 0.0
H509 H 0.7932 0.23458 1.03014 0.0
C510 C 0.72956 0.27022 0.07833 0.0
C511 C 0.69498 0.29209 0.10116 0.0
C512 C 0.73987 0.28857 0.04286 0.0
C513 C 0.67093 0.33314 0.08796 0.0
C514 C 0.68109 0.35176 0.0525 0.0
C515 C 0.72614 0.3478 0.9938 0.0
C516 C 0.76111 0.32528 0.97147 0.0
C517 C 0.71549 0.32968 1.02959 0.0
C518 C 0.78474 0.28433 0.98526 0.0
C519 C 0.77425 0.26619 1.02045 0.0
H520 H 0.99808 0.91446 0.32006 0.0
H521 H 0.88847 0.99746 0.37559 0.0
H522 H 0.94187 0.06678 0.37648 0.0
H523 H 0.01995 0.103 0.36253 0.0
H524 H 0.13101 0.01851 0.31054 0.0
H525 H 0.0768 0.94955 0.30818 0.0
C526 C 0.98591 0.94737 0.33288 0.0
C527 C 0.93937 0.95041 0.34805 0.0
C528 C 0.01718 0.98651 0.33431 0.0
C529 C 0.92387 0.99406 0.3634 0.0
C530 C 0.95456 0.03362 0.36427 0.0
C531 C 0.03267 0.06925 0.3514 0.0
C532 C 0.07954 0.06559 0.33702 0.0
C533 C 1.00142 0.03001 0.35017 0.0
C534 C 0.095 0.02203 0.32167 0.0
C535 C 0.06407 0.98276 0.32029 0.0
H536 H 0.45905 0.56652 0.8891 0.0
H537 H 0.4567 0.57939 0.76972 0.0
H538 H 0.52041 0.52074 0.76442 0.0
H539 H 0.5772 0.46626 0.79304 0.0
H540 H 0.581 0.45089 0.91192 0.0
H541 H 0.51587 0.50959 0.9181 0.0
C542 C 0.47245 0.55634 0.86198 0.0
C543 C 0.45335 0.57798 0.82998 0.0
C544 C 0.50903 0.52184 0.85898 0.0
C545 C 0.47131 0.56451 0.79497 0.0
C546 C 0.5075 0.53042 0.7918 0.0
C547 C 0.56321 0.47493 0.82029 0.0
C548 C 0.58343 0.45388 0.85196 0.0
C549 C 0.52652 0.50886 0.82355 0.0
C550 C 0.56584 0.46669 0.88715 0.0
C551 C 0.52874 0.50023 0.89065 0.0
H552 H 0.50569 0.59612 0.27588 0.0
H553 H 0.42054 0.54976 0.18401 0.0
H554 H 0.4712 0.47805 0.17698 0.0
H555 H 0.5374 0.42746 0.19925 0.0
H556 H 0.62608 0.47815 0.28853 0.0
H557 H 0.5763 0.54924 0.29435 0.0
C558 C 0.49838 0.57009 0.25443 0.0
C559 C 0.45923 0.57729 0.23087 0.0
C560 C 0.52815 0.52986 0.2502 0.0
C561 C 0.45044 0.54435 0.20252 0.0
C562 C 0.47934 0.50355 0.19859 0.0
C563 C 0.54654 0.45413 0.21966 0.0
C564 C 0.58525 0.44632 0.24394 0.0
C565 C 0.51812 0.49573 0.22252 0.0
C566 C 0.59596 0.482 0.2701 0.0
C567 C 0.56758 0.52303 0.27338 0.0
H568 H 0.07632 0.0649 0.6925 0.0
H569 H 0.07489 0.09467 0.80987 0.0
H570 H 1.00907 0.03886 0.81917 0.0
H571 H 0.95118 0.982 0.79439 0.0
H572 H 0.95262 0.94989 0.67769 0.0
H573 H 0.01968 1.00547 0.66787 0.0
C574 C 0.06185 0.059 0.72013 0.0
C575 C 0.08058 0.08458 0.75025 0.0
C576 C 0.02416 0.02605 0.72554 0.0
C577 C 0.06085 0.07663 0.78586 0.0
C578 C 0.02337 0.04416 0.79139 0.0
C579 C 0.96669 0.98645 0.76693 0.0
C580 C 0.94709 0.96173 0.73685 0.0
C581 C 1.00479 0.01868 0.76148 0.0
C582 C 0.96698 0.96877 0.70125 0.0
C583 C 1.00526 1.00052 0.69564 0.0
loop_
_geom_bond_atom_site_label_1
_geom_bond_atom_site_label_2
_geom_bond_distance
_geom_bond_site_symmetry_2
_ccdc_geom_bond_type
Co0 N4 2.148 . S
Co0 N10 2.128 . S
Co0 N20 2.194 . S
Co0 O25 2.351 1_455 S
Co0 O26 2.155 1_455 S
Co0 O27 2.096 . S
C1 N4 1.301 . S
C1 N5 1.328 . S
C1 H6 0.930 . S
C2 C3 1.333 . S
C2 N4 1.317 . S
C2 H7 0.930 . S
C3 C2 1.333 . S
C3 N5 1.350 . S
C3 H29 0.931 . S
N4 Co0 2.148 . S
N4 C1 1.301 . S
N4 C2 1.317 . S
N5 C1 1.328 . S
N5 C3 1.350 . S
H6 C1 0.930 . S
H7 C2 0.930 . S
C8 O9 1.224 . S
C8 O27 1.247 . S
O9 C8 1.224 . S
N10 Co0 2.128 . S
N10 C11 1.355 . S
N10 C13 1.311 . S
C11 N10 1.355 . S
C11 C12 1.363 . S
C11 H23 0.929 . S
C12 C11 1.363 . S
C12 N14 1.375 . S
C12 H30 0.931 . S
C13 N10 1.311 . S
C13 N14 1.347 . S
C13 H24 0.929 . S
N14 C12 1.375 . S
N14 C13 1.347 . S
C15 C18 1.365 . S
C15 N20 1.328 . S
C15 H21 0.929 . S
C16 C17 1.362 . S
C16 C19 1.378 . S
C16 H31 0.929 . S
C17 C16 1.362 . S
C17 C18 1.366 . S
C18 C15 1.365 . S
C18 C17 1.366 . S
C18 H32 0.930 . S
C19 C16 1.378 . S
C19 N20 1.315 . S
C19 H22 0.930 . S
N20 Co0 2.194 . S
N20 C15 1.328 . S
N20 C19 1.315 . S
H21 C15 0.929 . S
H22 C19 0.930 . S
H23 C11 0.929 . S
H24 C13 0.929 . S
O25 Co0 2.351 1_655 S
O25 C28 1.244 . S
O26 Co0 2.155 1_655 S
O26 C28 1.240 . S
O27 Co0 2.096 . S
O27 C8 1.247 . S
C28 O25 1.244 . S
C28 O26 1.240 . S
H29 C3 0.931 . S
H30 C12 0.931 . S
H31 C16 0.929 . S
H32 C18 0.930 . S
Co33 N37 2.148 . S
Co33 N43 2.128 . S
Co33 N53 2.194 . S
Co33 O58 2.351 . S
Co33 O59 2.155 . S
Co33 O60 2.096 . S
C34 N37 1.301 . S
C34 N38 1.328 . S
C34 H39 0.930 . S
C35 C36 1.333 . S
C35 N37 1.317 . S
C35 H40 0.930 . S
C36 C35 1.333 . S
C36 N38 1.350 . S
C36 H62 0.931 . S
N37 Co33 2.148 . S
N37 C34 1.301 . S
N37 C35 1.317 . S
N38 C34 1.328 . S
N38 C36 1.350 . S
H39 C34 0.930 . S
H40 C35 0.930 . S
C41 O42 1.224 . S
C41 O60 1.247 . S
O42 C41 1.224 . S
N43 Co33 2.128 . S
N43 C44 1.355 . S
N43 C46 1.311 . S
C44 N43 1.355 . S
C44 C45 1.363 . S
C44 H56 0.929 . S
C45 C44 1.363 . S
C45 N47 1.375 . S
C45 H63 0.931 . S
C46 N43 1.311 . S
C46 N47 1.347 . S
C46 H57 0.929 . S
N47 C45 1.375 . S
N47 C46 1.347 . S
C48 C51 1.365 . S
C48 N53 1.328 . S
C48 H54 0.929 . S
C49 C50 1.362 . S
C49 C52 1.378 . S
C49 H64 0.929 . S
C50 C49 1.362 . S
C50 C51 1.366 . S
C51 C48 1.365 . S
C51 C50 1.366 . S
C51 H65 0.930 . S
C52 C49 1.378 . S
C52 N53 1.315 . S
C52 H55 0.930 . S
N53 Co33 2.194 . S
N53 C48 1.328 . S
N53 C52 1.315 . S
H54 C48 0.929 . S
H55 C52 0.930 . S
H56 C44 0.929 . S
H57 C46 0.929 . S
O58 Co33 2.351 . S
O58 C61 1.244 . S
O59 Co33 2.155 . S
O59 C61 1.240 . S
O60 Co33 2.096 . S
O60 C41 1.247 . S
C61 O58 1.244 . S
C61 O59 1.240 . S
H62 C36 0.931 . S
H63 C45 0.931 . S
H64 C49 0.929 . S
H65 C51 0.930 . S
Co66 N70 2.148 . S
Co66 N76 2.128 . S
Co66 N86 2.194 . S
Co66 O91 2.351 1_655 S
Co66 O92 2.155 1_655 S
Co66 O93 2.096 . S
C67 N70 1.301 . S
C67 N71 1.328 . S
C67 H72 0.930 . S
C68 C69 1.333 . S
C68 N70 1.317 . S
C68 H73 0.930 . S
C69 C68 1.333 . S
C69 N71 1.350 . S
C69 H95 0.931 . S
N70 Co66 2.148 . S
N70 C67 1.301 . S
N70 C68 1.317 . S
N71 C67 1.328 . S
N71 C69 1.350 . S
H72 C67 0.930 . S
H73 C68 0.930 . S
C74 O75 1.224 . S
C74 O93 1.247 . S
O75 C74 1.224 . S
N76 Co66 2.128 . S
N76 C77 1.355 . S
N76 C79 1.311 . S
C77 N76 1.355 . S
C77 C78 1.363 . S
C77 H89 0.929 . S
C78 C77 1.363 . S
C78 N80 1.375 . S
C78 H96 0.931 . S
C79 N76 1.311 . S
C79 N80 1.347 . S
C79 H90 0.929 . S
N80 C78 1.375 . S
N80 C79 1.347 . S
C81 C84 1.365 . S
C81 N86 1.328 . S
C81 H87 0.929 . S
C82 C83 1.362 . S
C82 C85 1.378 . S
C82 H97 0.929 . S
C83 C82 1.362 . S
C83 C84 1.366 . S
C84 C81 1.365 . S
C84 C83 1.366 . S
C84 H98 0.930 . S
C85 C82 1.378 . S
C85 N86 1.315 . S
C85 H88 0.930 . S
N86 Co66 2.194 . S
N86 C81 1.328 . S
N86 C85 1.315 . S
H87 C81 0.929 . S
H88 C85 0.930 . S
H89 C77 0.929 . S
H90 C79 0.929 . S
O91 Co66 2.351 1_455 S
O91 C94 1.244 . S
O92 Co66 2.155 1_455 S
O92 C94 1.240 . S
O93 Co66 2.096 . S
O93 C74 1.247 . S
C94 O91 1.244 . S
C94 O92 1.240 . S
H95 C69 0.931 . S
H96 C78 0.931 . S
H97 C82 0.929 . S
H98 C84 0.930 . S
Co99 N103 2.148 . S
Co99 N109 2.128 . S
Co99 N119 2.194 . S
Co99 O124 2.351 . S
Co99 O125 2.155 . S
Co99 O126 2.096 . S
C100 N103 1.301 . S
C100 N104 1.328 . S
C100 H105 0.930 . S
C101 C102 1.333 . S
C101 N103 1.317 . S
C101 H106 0.930 . S
C102 C101 1.333 . S
C102 N104 1.350 . S
C102 H128 0.931 . S
N103 Co99 2.148 . S
N103 C100 1.301 . S
N103 C101 1.317 . S
N104 C100 1.328 . S
N104 C102 1.350 . S
H105 C100 0.930 . S
H106 C101 0.930 . S
C107 O108 1.224 . S
C107 O126 1.247 . S
O108 C107 1.224 . S
N109 Co99 2.128 . S
N109 C110 1.355 . S
N109 C112 1.311 . S
C110 N109 1.355 . S
C110 C111 1.363 . S
C110 H122 0.929 . S
C111 C110 1.363 . S
C111 N113 1.375 . S
C111 H129 0.931 . S
C112 N109 1.311 . S
C112 N113 1.347 . S
C112 H123 0.929 . S
N113 C111 1.375 . S
N113 C112 1.347 . S
C114 C117 1.365 . S
C114 N119 1.328 . S
C114 H120 0.929 . S
C115 C116 1.362 . S
C115 C118 1.378 . S
C115 H130 0.929 . S
C116 C115 1.362 . S
C116 C117 1.366 . S
C117 C114 1.365 . S
C117 C116 1.366 . S
C117 H131 0.930 . S
C118 C115 1.378 . S
C118 N119 1.315 . S
C118 H121 0.930 . S
N119 Co99 2.194 . S
N119 C114 1.328 . S
N119 C118 1.315 . S
H120 C114 0.929 . S
H121 C118 0.930 . S
H122 C110 0.929 . S
H123 C112 0.929 . S
O124 Co99 2.351 . S
O124 C127 1.244 . S
O125 Co99 2.155 . S
O125 C127 1.240 . S
O126 Co99 2.096 . S
O126 C107 1.247 . S
C127 O124 1.244 . S
C127 O125 1.240 . S
H128 C102 0.931 . S
H129 C111 0.931 . S
H130 C115 0.929 . S
H131 C117 0.930 . S
Co132 N136 2.148 . S
Co132 N142 2.128 . S
Co132 N152 2.194 . S
Co132 O157 2.351 . S
Co132 O158 2.155 . S
Co132 O159 2.096 . S
C133 N136 1.301 . S
C133 N137 1.328 . S
C133 H138 0.930 . S
C134 C135 1.333 . S
C134 N136 1.317 . S
C134 H139 0.930 . S
C135 C134 1.333 . S
C135 N137 1.350 . S
C135 H161 0.931 . S
N136 Co132 2.148 . S
N136 C133 1.301 . S
N136 C134 1.317 . S
N137 C133 1.328 . S
N137 C135 1.350 . S
H138 C133 0.930 . S
H139 C134 0.930 . S
C140 O141 1.224 . S
C140 O159 1.247 . S
O141 C140 1.224 . S
N142 Co132 2.128 . S
N142 C143 1.355 . S
N142 C145 1.311 . S
C143 N142 1.355 . S
C143 C144 1.363 . S
C143 H155 0.929 . S
C144 C143 1.363 . S
C144 N146 1.375 . S
C144 H162 0.931 . S
C145 N142 1.311 . S
C145 N146 1.347 . S
C145 H156 0.929 . S
N146 C144 1.375 . S
N146 C145 1.347 . S
C147 C150 1.365 . S
C147 N152 1.328 . S
C147 H153 0.929 . S
C148 C149 1.362 . S
C148 C151 1.378 . S
C148 H163 0.929 . S
C149 C148 1.362 . S
C149 C150 1.366 . S
C150 C147 1.365 . S
C150 C149 1.366 . S
C150 H164 0.930 . S
C151 C148 1.378 . S
C151 N152 1.315 . S
C151 H154 0.930 . S
N152 Co132 2.194 . S
N152 C147 1.328 . S
N152 C151 1.315 . S
H153 C147 0.929 . S
H154 C151 0.930 . S
H155 C143 0.929 . S
H156 C145 0.929 . S
O157 Co132 2.351 . S
O157 C160 1.244 . S
O158 Co132 2.155 . S
O158 C160 1.240 . S
O159 Co132 2.096 . S
O159 C140 1.247 . S
C160 O157 1.244 . S
C160 O158 1.240 . S
H161 C135 0.931 . S
H162 C144 0.931 . S
H163 C148 0.929 . S
H164 C150 0.930 . S
Co165 N169 2.148 . S
Co165 N175 2.128 . S
Co165 N185 2.194 . S
Co165 O190 2.351 1_545 S
Co165 O191 2.155 1_545 S
Co165 O192 2.096 . S
C166 N169 1.301 . S
C166 N170 1.328 . S
C166 H171 0.930 . S
C167 C168 1.333 . S
C167 N169 1.317 . S
C167 H172 0.930 . S
C168 C167 1.333 . S
C168 N170 1.350 . S
C168 H194 0.931 . S
N169 Co165 2.148 . S
N169 C166 1.301 . S
N169 C167 1.317 . S
N170 C166 1.328 . S
N170 C168 1.350 . S
H171 C166 0.930 . S
H172 C167 0.930 . S
C173 O174 1.224 . S
C173 O192 1.247 . S
O174 C173 1.224 . S
N175 Co165 2.128 . S
N175 C176 1.355 . S
N175 C178 1.311 . S
C176 N175 1.355 . S
C176 C177 1.363 . S
C176 H188 0.929 . S
C177 C176 1.363 . S
C177 N179 1.375 . S
C177 H195 0.931 . S
C178 N175 1.311 . S
C178 N179 1.347 . S
C178 H189 0.929 . S
N179 C177 1.375 . S
N179 C178 1.347 . S
C180 C183 1.365 . S
C180 N185 1.328 . S
C180 H186 0.929 . S
C181 C182 1.362 . S
C181 C184 1.378 . S
C181 H196 0.929 . S
C182 C181 1.362 . S
C182 C183 1.366 . S
C183 C180 1.365 . S
C183 C182 1.366 . S
C183 H197 0.930 . S
C184 C181 1.378 . S
C184 N185 1.315 . S
C184 H187 0.930 . S
N185 Co165 2.194 . S
N185 C180 1.328 . S
N185 C184 1.315 . S
H186 C180 0.929 . S
H187 C184 0.930 . S
H188 C176 0.929 . S
H189 C178 0.929 . S
O190 Co165 2.351 1_565 S
O190 C193 1.244 . S
O191 Co165 2.155 1_565 S
O191 C193 1.240 . S
O192 Co165 2.096 . S
O192 C173 1.247 . S
C193 O190 1.244 . S
C193 O191 1.240 . S
H194 C168 0.931 . S
H195 C177 0.931 . S
H196 C181 0.929 . S
H197 C183 0.930 . S
Co198 N202 2.148 . S
Co198 N208 2.128 . S
Co198 N218 2.194 . S
Co198 O223 2.351 . S
Co198 O224 2.155 . S
Co198 O225 2.096 . S
C199 N202 1.301 . S
C199 N203 1.328 . S
C199 H204 0.930 . S
C200 C201 1.333 . S
C200 N202 1.317 . S
C200 H205 0.930 . S
C201 C200 1.333 . S
C201 N203 1.350 . S
C201 H227 0.931 . S
N202 Co198 2.148 . S
N202 C199 1.301 . S
N202 C200 1.317 . S
N203 C199 1.328 . S
N203 C201 1.350 . S
H204 C199 0.930 . S
H205 C200 0.930 . S
C206 O207 1.224 . S
C206 O225 1.247 . S
O207 C206 1.224 . S
N208 Co198 2.128 . S
N208 C209 1.355 . S
N208 C211 1.311 . S
C209 N208 1.355 . S
C209 C210 1.363 . S
C209 H221 0.929 . S
C210 C209 1.363 . S
C210 N212 1.375 . S
C210 H228 0.931 . S
C211 N208 1.311 . S
C211 N212 1.347 . S
C211 H222 0.929 . S
N212 C210 1.375 . S
N212 C211 1.347 . S
C213 C216 1.365 . S
C213 N218 1.328 . S
C213 H219 0.929 . S
C214 C215 1.362 . S
C214 C217 1.378 . S
C214 H229 0.929 . S
C215 C214 1.362 . S
C215 C216 1.366 . S
C216 C213 1.365 . S
C216 C215 1.366 . S
C216 H230 0.930 . S
C217 C214 1.378 . S
C217 N218 1.315 . S
C217 H220 0.930 . S
N218 Co198 2.194 . S
N218 C213 1.328 . S
N218 C217 1.315 . S
H219 C213 0.929 . S
H220 C217 0.930 . S
H221 C209 0.929 . S
H222 C211 0.929 . S
O223 Co198 2.351 . S
O223 C226 1.244 . S
O224 Co198 2.155 . S
O224 C226 1.240 . S
O225 Co198 2.096 . S
O225 C206 1.247 . S
C226 O223 1.244 . S
C226 O224 1.240 . S
H227 C201 0.931 . S
H228 C210 0.931 . S
H229 C214 0.929 . S
H230 C216 0.930 . S
Co231 N235 2.148 . S
Co231 N241 2.128 . S
Co231 N251 2.194 . S
Co231 O256 2.351 1_565 S
Co231 O257 2.155 1_565 S
Co231 O258 2.096 . S
C232 N235 1.301 . S
C232 N236 1.328 . S
C232 H237 0.930 . S
C233 C234 1.333 . S
C233 N235 1.317 . S
C233 H238 0.930 . S
C234 C233 1.333 . S
C234 N236 1.350 . S
C234 H260 0.931 . S
N235 Co231 2.148 . S
N235 C232 1.301 . S
N235 C233 1.317 . S
N236 C232 1.328 . S
N236 C234 1.350 . S
H237 C232 0.930 . S
H238 C233 0.930 . S
C239 O240 1.224 . S
C239 O258 1.247 . S
O240 C239 1.224 . S
N241 Co231 2.128 . S
N241 C242 1.355 . S
N241 C244 1.311 . S
C242 N241 1.355 . S
C242 C243 1.363 . S
C242 H254 0.929 . S
C243 C242 1.363 . S
C243 N245 1.375 . S
C243 H261 0.931 . S
C244 N241 1.311 . S
C244 N245 1.347 . S
C244 H255 0.929 . S
N245 C243 1.375 . S
N245 C244 1.347 . S
C246 C249 1.365 . S
C246 N251 1.328 . S
C246 H252 0.929 . S
C247 C248 1.362 . S
C247 C250 1.378 . S
C247 H262 0.929 . S
C248 C247 1.362 . S
C248 C249 1.366 . S
C249 C246 1.365 . S
C249 C248 1.366 . S
C249 H263 0.930 . S
C250 C247 1.378 . S
C250 N251 1.315 . S
C250 H253 0.930 . S
N251 Co231 2.194 . S
N251 C246 1.328 . S
N251 C250 1.315 . S
H252 C246 0.929 . S
H253 C250 0.930 . S
H254 C242 0.929 . S
H255 C244 0.929 . S
O256 Co231 2.351 1_545 S
O256 C259 1.244 . S
O257 Co231 2.155 1_545 S
O257 C259 1.240 . S
O258 Co231 2.096 . S
O258 C239 1.247 . S
C259 O256 1.244 . S
C259 O257 1.240 . S
H260 C234 0.931 . S
H261 C243 0.931 . S
H262 C247 0.929 . S
H263 C249 0.930 . S
H264 C270 0.930 . S
H265 C273 0.930 . S
H266 C274 0.930 . S
H267 C275 0.930 . S
H268 C278 0.930 . S
H269 C279 0.930 . S
C270 H264 0.930 . S
C270 C271 1.355 . S
C270 C272 1.415 . S
C271 C270 1.355 . S
C271 C273 1.419 1_655 S
C272 C270 1.415 . S
C272 C277 1.425 1_655 S
C272 C279 1.409 . S
C273 H265 0.930 . S
C273 C271 1.419 1_455 S
C273 C274 1.362 . S
C274 H266 0.930 . S
C274 C273 1.362 . S
C274 C277 1.409 . S
C275 H267 0.930 . S
C275 C276 1.355 . S
C275 C277 1.415 . S
C276 C275 1.355 . S
C276 C278 1.419 1_455 S
C277 C272 1.425 1_455 S
C277 C274 1.409 . S
C277 C275 1.415 . S
C278 H268 0.930 . S
C278 C276 1.419 1_655 S
C278 C279 1.362 . S
C279 H269 0.930 . S
C279 C272 1.409 . S
C279 C278 1.362 . S
H280 C286 0.930 . S
H281 C289 0.930 . S
H282 C290 0.930 1_455 S
H283 C291 0.930 . S
H284 C294 0.930 . S
H285 C295 0.930 1_655 S
C286 H280 0.930 . S
C286 C287 1.355 . S
C286 C288 1.415 . S
C287 C286 1.355 . S
C287 C289 1.419 . S
C288 C286 1.415 . S
C288 C293 1.425 1_655 S
C288 C295 1.409 1_655 S
C289 H281 0.930 . S
C289 C287 1.419 . S
C289 C290 1.362 . S
C290 H282 0.930 1_655 S
C290 C289 1.362 . S
C290 C293 1.409 1_655 S
C291 H283 0.930 . S
C291 C292 1.355 . S
C291 C293 1.415 . S
C292 C291 1.355 . S
C292 C294 1.419 . S
C293 C288 1.425 1_455 S
C293 C290 1.409 1_455 S
C293 C291 1.415 . S
C294 H284 0.930 . S
C294 C292 1.419 . S
C294 C295 1.362 . S
C295 H285 0.930 1_455 S
C295 C288 1.409 1_455 S
C295 C294 1.362 . S
H296 C302 0.930 . S
H297 C305 0.930 . S
H298 C306 0.930 1_545 S
H299 C307 0.930 . S
H300 C310 0.930 . S
H301 C311 0.930 1_565 S
C302 H296 0.930 . S
C302 C303 1.355 . S
C302 C304 1.415 . S
C303 C302 1.355 . S
C303 C305 1.419 . S
C304 C302 1.415 . S
C304 C309 1.425 1_565 S
C304 C311 1.409 1_565 S
C305 H297 0.930 . S
C305 C303 1.419 . S
C305 C306 1.362 . S
C306 H298 0.930 1_565 S
C306 C305 1.362 . S
C306 C309 1.409 1_565 S
C307 H299 0.930 . S
C307 C308 1.355 . S
C307 C309 1.415 . S
C308 C307 1.355 . S
C308 C310 1.419 . S
C309 C304 1.425 1_545 S
C309 C306 1.409 1_545 S
C309 C307 1.415 . S
C310 H300 0.930 . S
C310 C308 1.419 . S
C310 C311 1.362 . S
C311 H301 0.930 1_545 S
C311 C304 1.409 1_545 S
C311 C310 1.362 . S
H312 C318 0.930 . S
H313 C321 0.930 . S
H314 C322 0.930 . S
H315 C323 0.930 . S
H316 C326 0.930 . S
H317 C327 0.930 . S
C318 H312 0.930 . S
C318 C319 1.355 1_545 S
C318 C320 1.415 . S
C319 C318 1.355 1_565 S
C319 C321 1.419 . S
C320 C318 1.415 . S
C320 C325 1.425 1_545 S
C320 C327 1.409 . S
C321 H313 0.930 . S
C321 C319 1.419 . S
C321 C322 1.362 . S
C322 H314 0.930 . S
C322 C321 1.362 . S
C322 C325 1.409 . S
C323 H315 0.930 . S
C323 C324 1.355 1_565 S
C323 C325 1.415 . S
C324 C323 1.355 1_545 S
C324 C326 1.419 . S
C325 C320 1.425 1_565 S
C325 C322 1.409 . S
C325 C323 1.415 . S
C326 H316 0.930 . S
C326 C324 1.419 . S
C326 C327 1.362 . S
C327 H317 0.930 . S
C327 C320 1.409 . S
C327 C326 1.362 . S
H328 C334 0.930 . S
H329 C337 0.930 . S
H330 C338 0.930 . S
H331 C339 0.930 . S
H332 C342 0.930 . S
H333 C343 0.930 . S
C334 H328 0.930 . S
C334 C335 1.355 . S
C334 C336 1.415 . S
C335 C334 1.355 . S
C335 C337 1.419 . S
C336 C334 1.415 . S
C336 C341 1.425 . S
C336 C343 1.409 . S
C337 H329 0.930 . S
C337 C335 1.419 . S
C337 C338 1.362 . S
C338 H330 0.930 . S
C338 C337 1.362 . S
C338 C341 1.409 . S
C339 H331 0.930 . S
C339 C340 1.355 . S
C339 C341 1.415 . S
C340 C339 1.355 . S
C340 C342 1.419 . S
C341 C336 1.425 . S
C341 C338 1.409 . S
C341 C339 1.415 . S
C342 H332 0.930 . S
C342 C340 1.419 . S
C342 C343 1.362 . S
C343 H333 0.930 . S
C343 C336 1.409 . S
C343 C342 1.362 . S
H344 C350 0.930 . S
H345 C353 0.930 . S
H346 C354 0.930 . S
H347 C355 0.930 . S
H348 C358 0.930 . S
H349 C359 0.930 . S
C350 H344 0.930 . S
C350 C351 1.355 . S
C350 C352 1.415 . S
C351 C350 1.355 . S
C351 C353 1.419 . S
C352 C350 1.415 . S
C352 C357 1.425 . S
C352 C359 1.409 . S
C353 H345 0.930 . S
C353 C351 1.419 . S
C353 C354 1.362 . S
C354 H346 0.930 . S
C354 C353 1.362 . S
C354 C357 1.409 . S
C355 H347 0.930 . S
C355 C356 1.355 . S
C355 C357 1.415 . S
C356 C355 1.355 . S
C356 C358 1.419 . S
C357 C352 1.425 . S
C357 C354 1.409 . S
C357 C355 1.415 . S
C358 H348 0.930 . S
C358 C356 1.419 . S
C358 C359 1.362 . S
C359 H349 0.930 . S
C359 C352 1.409 . S
C359 C358 1.362 . S
H360 C366 0.930 . S
H361 C369 0.930 . S
H362 C370 0.930 . S
H363 C371 0.930 . S
H364 C374 0.930 . S
H365 C375 0.930 . S
C366 H360 0.930 . S
C366 C367 1.355 . S
C366 C368 1.415 . S
C367 C366 1.355 . S
C367 C369 1.419 . S
C368 C366 1.415 . S
C368 C373 1.425 . S
C368 C375 1.409 . S
C369 H361 0.930 . S
C369 C367 1.419 . S
C369 C370 1.362 . S
C370 H362 0.930 . S
C370 C369 1.362 . S
C370 C373 1.409 . S
C371 H363 0.930 . S
C371 C372 1.355 . S
C371 C373 1.415 . S
C372 C371 1.355 . S
C372 C374 1.419 . S
C373 C368 1.425 . S
C373 C370 1.409 . S
C373 C371 1.415 . S
C374 H364 0.930 . S
C374 C372 1.419 . S
C374 C375 1.362 . S
C375 H365 0.930 . S
C375 C368 1.409 . S
C375 C374 1.362 . S
H376 C382 0.930 . S
H377 C385 0.930 . S
H378 C386 0.930 . S
H379 C387 0.930 . S
H380 C390 0.930 . S
H381 C391 0.930 . S
C382 H376 0.930 . S
C382 C383 1.355 . S
C382 C384 1.415 . S
C383 C382 1.355 . S
C383 C385 1.419 . S
C384 C382 1.415 . S
C384 C389 1.425 . S
C384 C391 1.409 . S
C385 H377 0.930 . S
C385 C383 1.419 . S
C385 C386 1.362 . S
C386 H378 0.930 . S
C386 C385 1.362 . S
C386 C389 1.409 . S
C387 H379 0.930 . S
C387 C388 1.355 . S
C387 C389 1.415 . S
C388 C387 1.355 . S
C388 C390 1.419 . S
C389 C384 1.425 . S
C389 C386 1.409 . S
C389 C387 1.415 . S
C390 H380 0.930 . S
C390 C388 1.419 . S
C390 C391 1.362 . S
C391 H381 0.930 . S
C391 C384 1.409 . S
C391 C390 1.362 . S
H392 C398 0.930 . S
H393 C401 0.930 . S
H394 C402 0.930 . S
H395 C403 0.930 . S
H396 C406 0.930 . S
H397 C407 0.930 . S
C398 H392 0.930 . S
C398 C399 1.355 . S
C398 C400 1.415 . S
C399 C398 1.355 . S
C399 C401 1.419 . S
C400 C398 1.415 . S
C400 C405 1.425 . S
C400 C407 1.409 . S
C401 H393 0.930 . S
C401 C399 1.419 . S
C401 C402 1.362 . S
C402 H394 0.930 . S
C402 C401 1.362 . S
C402 C405 1.409 . S
C403 H395 0.930 . S
C403 C404 1.355 . S
C403 C405 1.415 . S
C404 C403 1.355 . S
C404 C406 1.419 . S
C405 C400 1.425 . S
C405 C402 1.409 . S
C405 C403 1.415 . S
C406 H396 0.930 . S
C406 C404 1.419 . S
C406 C407 1.362 . S
C407 H397 0.930 . S
C407 C400 1.409 . S
C407 C406 1.362 . S
H408 C414 0.930 . S
H409 C417 0.930 . S
H410 C418 0.930 . S
H411 C419 0.930 . S
H412 C422 0.930 . S
H413 C423 0.930 . S
C414 H408 0.930 . S
C414 C415 1.355 . S
C414 C416 1.415 . S
C415 C414 1.355 . S
C415 C417 1.419 . S
C416 C414 1.415 . S
C416 C421 1.425 . S
C416 C423 1.409 . S
C417 H409 0.930 . S
C417 C415 1.419 . S
C417 C418 1.362 . S
C418 H410 0.930 . S
C418 C417 1.362 . S
C418 C421 1.409 . S
C419 H411 0.930 . S
C419 C420 1.355 . S
C419 C421 1.415 . S
C420 C419 1.355 . S
C420 C422 1.419 . S
C421 C416 1.425 . S
C421 C418 1.409 . S
C421 C419 1.415 . S
C422 H412 0.930 . S
C422 C420 1.419 . S
C422 C423 1.362 . S
C423 H413 0.930 . S
C423 C416 1.409 . S
C423 C422 1.362 . S
H424 C430 0.930 . S
H425 C433 0.930 . S
H426 C434 0.930 . S
H427 C435 0.930 . S
H428 C438 0.930 . S
H429 C439 0.930 . S
C430 H424 0.930 . S
C430 C431 1.355 . S
C430 C432 1.415 . S
C431 C430 1.355 . S
C431 C433 1.419 . S
C432 C430 1.415 . S
C432 C437 1.425 . S
C432 C439 1.409 . S
C433 H425 0.930 . S
C433 C431 1.419 . S
C433 C434 1.362 . S
C434 H426 0.930 . S
C434 C433 1.362 . S
C434 C437 1.409 . S
C435 H427 0.930 . S
C435 C436 1.355 . S
C435 C437 1.415 . S
C436 C435 1.355 . S
C436 C438 1.419 . S
C437 C432 1.425 . S
C437 C434 1.409 . S
C437 C435 1.415 . S
C438 H428 0.930 . S
C438 C436 1.419 . S
C438 C439 1.362 . S
C439 H429 0.930 . S
C439 C432 1.409 . S
C439 C438 1.362 . S
H440 C446 0.930 . S
H441 C449 0.930 . S
H442 C450 0.930 . S
H443 C451 0.930 . S
H444 C454 0.930 . S
H445 C455 0.930 . S
C446 H440 0.930 . S
C446 C447 1.355 . S
C446 C448 1.415 . S
C447 C446 1.355 . S
C447 C449 1.419 . S
C448 C446 1.415 . S
C448 C453 1.425 . S
C448 C455 1.409 . S
C449 H441 0.930 . S
C449 C447 1.419 . S
C449 C450 1.362 . S
C450 H442 0.930 . S
C450 C449 1.362 . S
C450 C453 1.409 . S
C451 H443 0.930 . S
C451 C452 1.355 . S
C451 C453 1.415 . S
C452 C451 1.355 . S
C452 C454 1.419 . S
C453 C448 1.425 . S
C453 C450 1.409 . S
C453 C451 1.415 . S
C454 H444 0.930 . S
C454 C452 1.419 . S
C454 C455 1.362 . S
C455 H445 0.930 . S
C455 C448 1.409 . S
C455 C454 1.362 . S
H456 C462 0.930 . S
H457 C465 0.930 . S
H458 C466 0.930 . S
H459 C467 0.930 . S
H460 C470 0.930 . S
H461 C471 0.930 . S
C462 H456 0.930 . S
C462 C463 1.355 . S
C462 C464 1.415 . S
C463 C462 1.355 . S
C463 C465 1.419 . S
C464 C462 1.415 . S
C464 C469 1.425 . S
C464 C471 1.409 . S
C465 H457 0.930 . S
C465 C463 1.419 . S
C465 C466 1.362 . S
C466 H458 0.930 . S
C466 C465 1.362 . S
C466 C469 1.409 . S
C467 H459 0.930 . S
C467 C468 1.355 . S
C467 C469 1.415 . S
C468 C467 1.355 . S
C468 C470 1.419 . S
C469 C464 1.425 . S
C469 C466 1.409 . S
C469 C467 1.415 . S
C470 H460 0.930 . S
C470 C468 1.419 . S
C470 C471 1.362 . S
C471 H461 0.930 . S
C471 C464 1.409 . S
C471 C470 1.362 . S
H472 C478 0.930 . S
H473 C481 0.930 . S
H474 C482 0.930 . S
H475 C483 0.930 . S
H476 C486 0.930 . S
H477 C487 0.930 . S
C478 H472 0.930 . S
C478 C479 1.355 . S
C478 C480 1.415 . S
C479 C478 1.355 . S
C479 C481 1.419 . S
C480 C478 1.415 . S
C480 C485 1.425 1_554 S
C480 C487 1.409 . S
C481 H473 0.930 . S
C481 C479 1.419 . S
C481 C482 1.362 1_554 S
C482 H474 0.930 . S
C482 C481 1.362 1_556 S
C482 C485 1.409 . S
C483 H475 0.930 . S
C483 C484 1.355 . S
C483 C485 1.415 . S
C484 C483 1.355 . S
C484 C486 1.419 . S
C485 C480 1.425 1_556 S
C485 C482 1.409 . S
C485 C483 1.415 . S
C486 H476 0.930 . S
C486 C484 1.419 . S
C486 C487 1.362 1_556 S
C487 H477 0.930 . S
C487 C480 1.409 . S
C487 C486 1.362 1_554 S
H488 C494 0.930 . S
H489 C497 0.930 . S
H490 C498 0.930 . S
H491 C499 0.930 . S
H492 C502 0.930 . S
H493 C503 0.930 . S
C494 H488 0.930 . S
C494 C495 1.355 . S
C494 C496 1.415 . S
C495 C494 1.355 . S
C495 C497 1.419 . S
C496 C494 1.415 . S
C496 C501 1.425 . S
C496 C503 1.409 . S
C497 H489 0.930 . S
C497 C495 1.419 . S
C497 C498 1.362 . S
C498 H490 0.930 . S
C498 C497 1.362 . S
C498 C501 1.409 . S
C499 H491 0.930 . S
C499 C500 1.355 . S
C499 C501 1.415 . S
C500 C499 1.355 . S
C500 C502 1.419 . S
C501 C496 1.425 . S
C501 C498 1.409 . S
C501 C499 1.415 . S
C502 H492 0.930 . S
C502 C500 1.419 . S
C502 C503 1.362 . S
C503 H493 0.930 . S
C503 C496 1.409 . S
C503 C502 1.362 . S
H504 C510 0.930 . S
H505 C513 0.930 . S
H506 C514 0.930 . S
H507 C515 0.930 . S
H508 C518 0.930 . S
H509 C519 0.930 . S
C510 H504 0.930 . S
C510 C511 1.355 . S
C510 C512 1.415 . S
C511 C510 1.355 . S
C511 C513 1.419 . S
C512 C510 1.415 . S
C512 C517 1.425 1_554 S
C512 C519 1.409 . S
C513 H505 0.930 . S
C513 C511 1.419 . S
C513 C514 1.362 1_554 S
C514 H506 0.930 . S
C514 C513 1.362 1_556 S
C514 C517 1.409 . S
C515 H507 0.930 . S
C515 C516 1.355 . S
C515 C517 1.415 . S
C516 C515 1.355 . S
C516 C518 1.419 . S
C517 C512 1.425 1_556 S
C517 C514 1.409 . S
C517 C515 1.415 . S
C518 H508 0.930 . S
C518 C516 1.419 . S
C518 C519 1.362 1_556 S
C519 H509 0.930 . S
C519 C512 1.409 . S
C519 C518 1.362 1_554 S
H520 C526 0.930 1_455 S
H521 C529 0.930 . S
H522 C530 0.930 . S
H523 C531 0.930 1_655 S
H524 C534 0.930 . S
H525 C535 0.930 . S
C526 H520 0.930 1_655 S
C526 C527 1.355 . S
C526 C528 1.415 1_655 S
C527 C526 1.355 . S
C527 C529 1.419 . S
C528 C526 1.415 1_455 S
C528 C533 1.425 1_465 S
C528 C535 1.409 . S
C529 H521 0.930 . S
C529 C527 1.419 . S
C529 C530 1.362 1_565 S
C530 H522 0.930 . S
C530 C529 1.362 1_545 S
C530 C533 1.409 . S
C531 H523 0.930 1_455 S
C531 C532 1.355 . S
C531 C533 1.415 1_455 S
C532 C531 1.355 . S
C532 C534 1.419 . S
C533 C528 1.425 1_645 S
C533 C530 1.409 . S
C533 C531 1.415 1_655 S
C534 H524 0.930 . S
C534 C532 1.419 . S
C534 C535 1.362 1_545 S
C535 H525 0.930 . S
C535 C528 1.409 . S
C535 C534 1.362 1_565 S
H536 C542 0.930 . S
H537 C545 0.930 . S
H538 C546 0.930 . S
H539 C547 0.930 . S
H540 C550 0.930 . S
H541 C551 0.930 . S
C542 H536 0.930 . S
C542 C543 1.355 . S
C542 C544 1.415 . S
C543 C542 1.355 . S
C543 C545 1.419 . S
C544 C542 1.415 . S
C544 C549 1.425 . S
C544 C551 1.409 . S
C545 H537 0.930 . S
C545 C543 1.419 . S
C545 C546 1.362 . S
C546 H538 0.930 . S
C546 C545 1.362 . S
C546 C549 1.409 . S
C547 H539 0.930 . S
C547 C548 1.355 . S
C547 C549 1.415 . S
C548 C547 1.355 . S
C548 C550 1.419 . S
C549 C544 1.425 . S
C549 C546 1.409 . S
C549 C547 1.415 . S
C550 H540 0.930 . S
C550 C548 1.419 . S
C550 C551 1.362 . S
C551 H541 0.930 . S
C551 C544 1.409 . S
C551 C550 1.362 . S
H552 C558 0.930 . S
H553 C561 0.930 . S
H554 C562 0.930 . S
H555 C563 0.930 . S
H556 C566 0.930 . S
H557 C567 0.930 . S
C558 H552 0.930 . S
C558 C559 1.355 . S
C558 C560 1.415 . S
C559 C558 1.355 . S
C559 C561 1.419 . S
C560 C558 1.415 . S
C560 C565 1.425 . S
C560 C567 1.409 . S
C561 H553 0.930 . S
C561 C559 1.419 . S
C561 C562 1.362 . S
C562 H554 0.930 . S
C562 C561 1.362 . S
C562 C565 1.409 . S
C563 H555 0.930 . S
C563 C564 1.355 . S
C563 C565 1.415 . S
C564 C563 1.355 . S
C564 C566 1.419 . S
C565 C560 1.425 . S
C565 C562 1.409 . S
C565 C563 1.415 . S
C566 H556 0.930 . S
C566 C564 1.419 . S
C566 C567 1.362 . S
C567 H557 0.930 . S
C567 C560 1.409 . S
C567 C566 1.362 . S
H568 C574 0.930 . S
H569 C577 0.930 . S
H570 C578 0.930 . S
H571 C579 0.930 . S
H572 C582 0.930 . S
H573 C583 0.930 . S
C574 H568 0.930 . S
C574 C575 1.355 . S
C574 C576 1.415 1_455 S
C575 C574 1.355 . S
C575 C577 1.419 . S
C576 C574 1.415 1_655 S
C576 C581 1.425 1_645 S
C576 C583 1.409 . S
C577 H569 0.930 . S
C577 C575 1.419 . S
C577 C578 1.362 1_545 S
C578 H570 0.930 . S
C578 C577 1.362 1_565 S
C578 C581 1.409 . S
C579 H571 0.930 . S
C579 C580 1.355 . S
C579 C581 1.415 1_655 S
C580 C579 1.355 . S
C580 C582 1.419 . S
C581 C576 1.425 1_465 S
C581 C578 1.409 . S
C581 C579 1.415 1_455 S
C582 H572 0.930 . S
C582 C580 1.419 . S
C582 C583 1.362 1_565 S
C583 H573 0.930 . S
C583 C576 1.409 . S
C583 C582 1.362 1_545 S
C271 N71 1.197 . S
C276 N5 1.164 . S
C287 N104 1.227 . S
C292 N38 1.200 . S
C303 N203 1.199 . S
C308 N137 1.227 . S
C319 N236 1.218 . S
C324 N170 1.213 . S
C335 C160 1.887 . S
C340 C17 1.900 . S
C351 C193 1.898 . S
C356 C50 1.904 . S
C367 C226 1.885 . S
C372 C83 1.895 . S
C383 C116 1.900 . S
C388 C259 1.904 . S
C399 C28 1.886 . S
C404 C149 1.899 . S
C415 C61 1.903 . S
C420 C182 1.886 . S
C431 C94 1.895 . S
C436 C215 1.905 . S
C447 C248 1.887 . S
C452 C127 1.904 . S
C463 C8 1.846 . S
C468 C173 1.835 . S
C479 C206 1.857 . S
C484 C41 1.849 . S
C495 C239 1.814 . S
C500 C74 1.805 . S
C511 C140 1.855 . S
C516 C107 1.847 . S
C527 N80 0.710 . S
C532 N14 0.690 . S
C543 N47 0.483 . S
C548 N113 0.609 . S
C559 N212 0.712 . S
C564 N146 0.631 . S
C575 N179 0.471 . S
C580 N245 0.591 . S
