# Generated by pormake.
# Topology unr, (4)-cn, num edge types: 1
# Building blocks:
#     Node 0, Type 0, BuildingBlock: TATPOV_clean_sbu_0, # of connection points: 4
#     Node 1, Type 0, BuildingBlock: TATPOV_clean_sbu_0, # of connection points: 4
#     Node 2, Type 0, BuildingBlock: TATPOV_clean_sbu_0, # of connection points: 4
#     Node 3, Type 0, BuildingBlock: TATPOV_clean_sbu_0, # of connection points: 4
#     Node 4, Type 0, BuildingBlock: TATPOV_clean_sbu_0, # of connection points: 4
#     Node 5, Type 0, BuildingBlock: TATPOV_clean_sbu_0, # of connection points: 4
#     Node 6, Type 0, BuildingBlock: TATPOV_clean_sbu_0, # of connection points: 4
#     Node 7, Type 0, BuildingBlock: TATPOV_clean_sbu_0, # of connection points: 4
#     Node 8, Type 0, BuildingBlock: TATPOV_clean_sbu_0, # of connection points: 4
#     Node 9, Type 0, BuildingBlock: TATPOV_clean_sbu_0, # of connection points: 4
#     Node 10, Type 0, BuildingBlock: TATPOV_clean_sbu_0, # of connection points: 4
#     Node 11, Type 0, BuildingBlock: TATPOV_clean_sbu_0, # of connection points: 4
#     Node 12, Type 0, BuildingBlock: TATPOV_clean_sbu_0, # of connection points: 4
#     Node 13, Type 0, BuildingBlock: TATPOV_clean_sbu_0, # of connection points: 4
#     Node 14, Type 0, BuildingBlock: TATPOV_clean_sbu_0, # of connection points: 4
#     Node 15, Type 0, BuildingBlock: TATPOV_clean_sbu_0, # of connection points: 4
#     Node 16, Type 0, BuildingBlock: TATPOV_clean_sbu_0, # of connection points: 4
#     Node 17, Type 0, BuildingBlock: TATPOV_clean_sbu_0, # of connection points: 4
#     Node 18, Type 0, BuildingBlock: TATPOV_clean_sbu_0, # of connection points: 4
#     Node 19, Type 0, BuildingBlock: TATPOV_clean_sbu_0, # of connection points: 4
#     Node 20, Type 0, BuildingBlock: TATPOV_clean_sbu_0, # of connection points: 4
#     Node 21, Type 0, BuildingBlock: TATPOV_clean_sbu_0, # of connection points: 4
#     Node 22, Type 0, BuildingBlock: TATPOV_clean_sbu_0, # of connection points: 4
#     Node 23, Type 0, BuildingBlock: TATPOV_clean_sbu_0, # of connection points: 4
#     Node 24, Type 0, BuildingBlock: TATPOV_clean_sbu_0, # of connection points: 4
#     Node 25, Type 0, BuildingBlock: TATPOV_clean_sbu_0, # of connection points: 4
#     Node 26, Type 0, BuildingBlock: TATPOV_clean_sbu_0, # of connection points: 4
#     Node 27, Type 0, BuildingBlock: TATPOV_clean_sbu_0, # of connection points: 4
#     Node 28, Type 0, BuildingBlock: TATPOV_clean_sbu_0, # of connection points: 4
#     Node 29, Type 0, BuildingBlock: TATPOV_clean_sbu_0, # of connection points: 4
#     Node 30, Type 0, BuildingBlock: TATPOV_clean_sbu_0, # of connection points: 4
#     Node 31, Type 0, BuildingBlock: TATPOV_clean_sbu_0, # of connection points: 4
#     Node 32, Type 0, BuildingBlock: TATPOV_clean_sbu_0, # of connection points: 4
#     Node 33, Type 0, BuildingBlock: TATPOV_clean_sbu_0, # of connection points: 4
#     Node 34, Type 0, BuildingBlock: TATPOV_clean_sbu_0, # of connection points: 4
#     Node 35, Type 0, BuildingBlock: TATPOV_clean_sbu_0, # of connection points: 4
#     Edge 36, Type (0, 0), BuildingBlock: KIFKEQ_clean_linker_1, # of connection points: 2
#     Edge 37, Type (0, 0), BuildingBlock: KIFKEQ_clean_linker_1, # of connection points: 2
#     Edge 38, Type (0, 0), BuildingBlock: KIFKEQ_clean_linker_1, # of connection points: 2
#     Edge 39, Type (0, 0), BuildingBlock: KIFKEQ_clean_linker_1, # of connection points: 2
#     Edge 40, Type (0, 0), BuildingBlock: KIFKEQ_clean_linker_1, # of connection points: 2
#     Edge 41, Type (0, 0), BuildingBlock: KIFKEQ_clean_linker_1, # of connection points: 2
#     Edge 42, Type (0, 0), BuildingBlock: KIFKEQ_clean_linker_1, # of connection points: 2
#     Edge 43, Type (0, 0), BuildingBlock: KIFKEQ_clean_linker_1, # of connection points: 2
#     Edge 44, Type (0, 0), BuildingBlock: KIFKEQ_clean_linker_1, # of connection points: 2
#     Edge 45, Type (0, 0), BuildingBlock: KIFKEQ_clean_linker_1, # of connection points: 2
#     Edge 46, Type (0, 0), BuildingBlock: KIFKEQ_clean_linker_1, # of connection points: 2
#     Edge 47, Type (0, 0), BuildingBlock: KIFKEQ_clean_linker_1, # of connection points: 2
#     Edge 48, Type (0, 0), BuildingBlock: KIFKEQ_clean_linker_1, # of connection points: 2
#     Edge 49, Type (0, 0), BuildingBlock: KIFKEQ_clean_linker_1, # of connection points: 2
#     Edge 50, Type (0, 0), BuildingBlock: KIFKEQ_clean_linker_1, # of connection points: 2
#     Edge 51, Type (0, 0), BuildingBlock: KIFKEQ_clean_linker_1, # of connection points: 2
#     Edge 52, Type (0, 0), BuildingBlock: KIFKEQ_clean_linker_1, # of connection points: 2
#     Edge 53, Type (0, 0), BuildingBlock: KIFKEQ_clean_linker_1, # of connection points: 2
#     Edge 54, Type (0, 0), BuildingBlock: KIFKEQ_clean_linker_1, # of connection points: 2
#     Edge 55, Type (0, 0), BuildingBlock: KIFKEQ_clean_linker_1, # of connection points: 2
#     Edge 56, Type (0, 0), BuildingBlock: KIFKEQ_clean_linker_1, # of connection points: 2
#     Edge 57, Type (0, 0), BuildingBlock: KIFKEQ_clean_linker_1, # of connection points: 2
#     Edge 58, Type (0, 0), BuildingBlock: KIFKEQ_clean_linker_1, # of connection points: 2
#     Edge 59, Type (0, 0), BuildingBlock: KIFKEQ_clean_linker_1, # of connection points: 2
#     Edge 60, Type (0, 0), BuildingBlock: KIFKEQ_clean_linker_1, # of connection points: 2
#     Edge 61, Type (0, 0), BuildingBlock: KIFKEQ_clean_linker_1, # of connection points: 2
#     Edge 62, Type (0, 0), BuildingBlock: KIFKEQ_clean_linker_1, # of connection points: 2
#     Edge 63, Type (0, 0), BuildingBlock: KIFKEQ_clean_linker_1, # of connection points: 2
#     Edge 64, Type (0, 0), BuildingBlock: KIFKEQ_clean_linker_1, # of connection points: 2
#     Edge 65, Type (0, 0), BuildingBlock: KIFKEQ_clean_linker_1, # of connection points: 2
#     Edge 66, Type (0, 0), BuildingBlock: KIFKEQ_clean_linker_1, # of connection points: 2
#     Edge 67, Type (0, 0), BuildingBlock: KIFKEQ_clean_linker_1, # of connection points: 2
#     Edge 68, Type (0, 0), BuildingBlock: KIFKEQ_clean_linker_1, # of connection points: 2
#     Edge 69, Type (0, 0), BuildingBlock: KIFKEQ_clean_linker_1, # of connection points: 2
#     Edge 70, Type (0, 0), BuildingBlock: KIFKEQ_clean_linker_1, # of connection points: 2
#     Edge 71, Type (0, 0), BuildingBlock: KIFKEQ_clean_linker_1, # of connection points: 2
#     Edge 72, Type (0, 0), BuildingBlock: KIFKEQ_clean_linker_1, # of connection points: 2
#     Edge 73, Type (0, 0), BuildingBlock: KIFKEQ_clean_linker_1, # of connection points: 2
#     Edge 74, Type (0, 0), BuildingBlock: KIFKEQ_clean_linker_1, # of connection points: 2
#     Edge 75, Type (0, 0), BuildingBlock: KIFKEQ_clean_linker_1, # of connection points: 2
#     Edge 76, Type (0, 0), BuildingBlock: KIFKEQ_clean_linker_1, # of connection points: 2
#     Edge 77, Type (0, 0), BuildingBlock: KIFKEQ_clean_linker_1, # of connection points: 2
#     Edge 78, Type (0, 0), BuildingBlock: KIFKEQ_clean_linker_1, # of connection points: 2
#     Edge 79, Type (0, 0), BuildingBlock: KIFKEQ_clean_linker_1, # of connection points: 2
#     Edge 80, Type (0, 0), BuildingBlock: KIFKEQ_clean_linker_1, # of connection points: 2
#     Edge 81, Type (0, 0), BuildingBlock: KIFKEQ_clean_linker_1, # of connection points: 2
#     Edge 82, Type (0, 0), BuildingBlock: KIFKEQ_clean_linker_1, # of connection points: 2
#     Edge 83, Type (0, 0), BuildingBlock: KIFKEQ_clean_linker_1, # of connection points: 2
#     Edge 84, Type (0, 0), BuildingBlock: KIFKEQ_clean_linker_1, # of connection points: 2
#     Edge 85, Type (0, 0), BuildingBlock: KIFKEQ_clean_linker_1, # of connection points: 2
#     Edge 86, Type (0, 0), BuildingBlock: KIFKEQ_clean_linker_1, # of connection points: 2
#     Edge 87, Type (0, 0), BuildingBlock: KIFKEQ_clean_linker_1, # of connection points: 2
#     Edge 88, Type (0, 0), BuildingBlock: KIFKEQ_clean_linker_1, # of connection points: 2
#     Edge 89, Type (0, 0), BuildingBlock: KIFKEQ_clean_linker_1, # of connection points: 2
#     Edge 90, Type (0, 0), BuildingBlock: KIFKEQ_clean_linker_1, # of connection points: 2
#     Edge 91, Type (0, 0), BuildingBlock: KIFKEQ_clean_linker_1, # of connection points: 2
#     Edge 92, Type (0, 0), BuildingBlock: KIFKEQ_clean_linker_1, # of connection points: 2
#     Edge 93, Type (0, 0), BuildingBlock: KIFKEQ_clean_linker_1, # of connection points: 2
#     Edge 94, Type (0, 0), BuildingBlock: KIFKEQ_clean_linker_1, # of connection points: 2
#     Edge 95, Type (0, 0), BuildingBlock: KIFKEQ_clean_linker_1, # of connection points: 2
#     Edge 96, Type (0, 0), BuildingBlock: KIFKEQ_clean_linker_1, # of connection points: 2
#     Edge 97, Type (0, 0), BuildingBlock: KIFKEQ_clean_linker_1, # of connection points: 2
#     Edge 98, Type (0, 0), BuildingBlock: KIFKEQ_clean_linker_1, # of connection points: 2
#     Edge 99, Type (0, 0), BuildingBlock: KIFKEQ_clean_linker_1, # of connection points: 2
#     Edge 100, Type (0, 0), BuildingBlock: KIFKEQ_clean_linker_1, # of connection points: 2
#     Edge 101, Type (0, 0), BuildingBlock: KIFKEQ_clean_linker_1, # of connection points: 2
#     Edge 102, Type (0, 0), BuildingBlock: KIFKEQ_clean_linker_1, # of connection points: 2
#     Edge 103, Type (0, 0), BuildingBlock: KIFKEQ_clean_linker_1, # of connection points: 2
#     Edge 104, Type (0, 0), BuildingBlock: KIFKEQ_clean_linker_1, # of connection points: 2
#     Edge 105, Type (0, 0), BuildingBlock: KIFKEQ_clean_linker_1, # of connection points: 2
#     Edge 106, Type (0, 0), BuildingBlock: KIFKEQ_clean_linker_1, # of connection points: 2
#     Edge 107, Type (0, 0), BuildingBlock: KIFKEQ_clean_linker_1, # of connection points: 2
# Relax obj value: 0.390
# Max RMSD: 0.218
# Mean RMSD: 0.218
data_MOF--net-unr--node1-TATPOV_clean_sbu_0--edge1-KIFKEQ_clean_linker_1
_symmetry_space_group_name_H-M    P1
_symmetry_Int_Tables_number       1
_symmetry_cell_setting            triclinic
loop_
_symmetry_equiv_pos_as_xyz
'x, y, z'
_cell_length_a     47.560808
_cell_length_b     47.5797707
_cell_length_c     119.7749
_cell_angle_alpha  89.959874
_cell_angle_beta   89.980787
_cell_angle_gamma 120.00728
loop_
_atom_site_label
_atom_site_type_symbol
_atom_site_fract_x
_atom_site_fract_y
_atom_site_fract_z
_atom_type_partial_charge
Zn0 Zn 0.10154 0.11608 0.18314 0.0
Zn1 Zn 0.16218 0.15168 0.17693 0.0
O2 O 0.14477 0.10673 0.169 0.0
O3 O 0.09444 0.07695 0.17481 0.0
O4 O 0.20977 0.17528 0.17263 0.0
O5 O 0.11497 0.12297 0.1994 0.0
O6 O 0.16593 0.15037 0.19397 0.0
C7 C 0.11797 0.07984 0.16903 0.0
C8 C 0.11328 0.1746 0.17248 0.0
O9 O 0.14288 0.18131 0.17264 0.0
O10 O 0.091 0.14716 0.17578 0.0
C11 C 0.22024 0.16978 0.1636 0.0
O12 O 0.19928 0.15085 0.15605 0.0
C13 C 0.14493 0.13885 0.20176 0.0
Zn14 Zn 0.92866 0.12605 0.21779 0.0
Zn15 Zn 0.89213 0.11438 0.20088 0.0
O16 O 0.93418 0.15953 0.20005 0.0
O17 O 0.96076 0.1736 0.21584 0.0
O18 O 0.86371 0.1207 0.18979 0.0
O19 O 0.89363 0.10808 0.22947 0.0
O20 O 0.86224 0.09291 0.21469 0.0
C21 C 0.95826 0.18018 0.20579 0.0
C22 C 0.92637 0.07863 0.20053 0.0
O23 O 0.9049 0.08203 0.19531 0.0
O24 O 0.93873 0.09434 0.20949 0.0
C25 C 0.87628 0.13662 0.18087 0.0
O26 O 0.90595 0.14379 0.17821 0.0
C27 C 0.86559 0.09212 0.22524 0.0
Zn28 Zn 0.05432 0.90732 0.20239 0.0
Zn29 Zn 0.00209 0.8588 0.19713 0.0
O30 O 0.9846 0.88969 0.19511 0.0
O31 O 0.03317 0.93299 0.19658 0.0
O32 O 0.9666 0.81396 0.19255 0.0
O33 O 0.05416 0.89892 0.21851 0.0
O34 O 0.00873 0.85449 0.21427 0.0
C35 C 0.00305 0.92035 0.19449 0.0
C36 C 0.06807 0.88732 0.18385 0.0
O37 O 0.03711 0.87174 0.18454 0.0
O38 O 0.08424 0.90069 0.19254 0.0
C39 C 0.93629 0.80366 0.19328 0.0
O40 O 0.92635 0.82293 0.19727 0.0
C41 C 0.02987 0.87249 0.2215 0.0
Zn42 Zn 0.16071 0.10609 0.30095 0.0
Zn43 Zn 0.14766 0.1508 0.30563 0.0
O44 O 0.10042 0.1159 0.30397 0.0
O45 O 0.11112 0.07631 0.30151 0.0
O46 O 0.14809 0.19223 0.30971 0.0
O47 O 0.18234 0.12361 0.2863 0.0
O48 O 0.16956 0.16104 0.28996 0.0
C49 C 0.09064 0.08583 0.30269 0.0
C50 C 0.17853 0.12284 0.32239 0.0
O51 O 0.1639 0.1383 0.31987 0.0
O52 O 0.18636 0.10995 0.31469 0.0
C53 C 0.13564 0.19517 0.31871 0.0
O54 O 0.12154 0.17031 0.32556 0.0
C55 C 0.18146 0.14865 0.28335 0.0
Zn56 Zn 0.80472 0.86858 0.27754 0.0
Zn57 Zn 0.78371 0.88438 0.29504 0.0
O58 O 0.77858 0.83879 0.29667 0.0
O59 O 0.79006 0.82183 0.28129 0.0
O60 O 0.7532 0.88278 0.30714 0.0
O61 O 0.78323 0.88338 0.26628 0.0
O62 O 0.77146 0.90221 0.2812 0.0
C63 C 0.78123 0.81698 0.2914 0.0
C64 C 0.8542 0.92029 0.29263 0.0
O65 O 0.83076 0.91711 0.29872 0.0
O66 O 0.84855 0.90303 0.28392 0.0
C67 C 0.75041 0.86758 0.3162 0.0
O68 O 0.77108 0.85754 0.31828 0.0
C69 C 0.77245 0.90041 0.2706 0.0
Zn70 Zn 0.98265 0.89681 0.32455 0.0
Zn71 Zn 0.00804 0.85846 0.32775 0.0
O72 O 0.03636 0.90037 0.33692 0.0
O73 O 0.01471 0.93147 0.3348 0.0
O74 O 0.03215 0.83386 0.3297 0.0
O75 O 0.9909 0.89656 0.30774 0.0
O76 O 0.01251 0.86588 0.31101 0.0
C77 C 0.03625 0.92657 0.33902 0.0
C78 C 0.93573 0.83301 0.3323 0.0
O79 O 0.95922 0.82733 0.33148 0.0
O80 O 0.94056 0.86137 0.33062 0.0
C81 C 0.0485 0.83555 0.33833 0.0
O82 O 0.04687 0.85088 0.3472 0.0
C83 C 0.00411 0.88081 0.30418 0.0
Zn84 Zn 0.83426 0.88366 0.80646 0.0
Zn85 Zn 0.78932 0.85704 0.81842 0.0
O86 O 0.80375 0.90643 0.81961 0.0
O87 O 0.85396 0.92683 0.81391 0.0
O88 O 0.74656 0.83607 0.82666 0.0
O89 O 0.80958 0.87491 0.79211 0.0
O90 O 0.77826 0.83389 0.80285 0.0
C91 C 0.83234 0.93063 0.8186 0.0
C92 C 0.84158 0.84205 0.8214 0.0
O93 O 0.82071 0.84597 0.82682 0.0
O94 O 0.84817 0.85206 0.81143 0.0
C95 C 0.74295 0.85031 0.83506 0.0
O96 O 0.76813 0.87687 0.83886 0.0
C97 C 0.7873 0.84569 0.79307 0.0
Zn98 Zn 0.08191 0.96923 0.79231 0.0
Zn99 Zn 0.11573 0.94944 0.79866 0.0
O100 O 0.07121 0.91934 0.80642 0.0
O101 O 0.0508 0.95147 0.8051 0.0
O102 O 0.14044 0.92715 0.80352 0.0
O103 O 0.07084 0.94715 0.7775 0.0
O104 O 0.11768 0.95064 0.78107 0.0
C105 C 0.04988 0.92667 0.80929 0.0
C106 C 0.13839 0.01993 0.80112 0.0
O107 O 0.13848 0.99572 0.80567 0.0
O108 O 0.11891 0.01503 0.7932 0.0
C109 C 0.14255 0.92363 0.81396 0.0
O110 O 0.13212 0.93781 0.8209 0.0
C111 C 0.09577 0.94683 0.77407 0.0
Zn112 Zn 0.00334 0.14256 0.79292 0.0
Zn113 Zn 0.02732 0.19421 0.80354 0.0
O114 O 0.05947 0.17728 0.80635 0.0
O115 O 0.02916 0.12644 0.80128 0.0
O116 O 0.05073 0.23832 0.81074 0.0
O117 O 0.01856 0.16434 0.77809 0.0
O118 O 0.02388 0.20684 0.78716 0.0
C119 C 0.05461 0.14846 0.80587 0.0
C120 C 0.95749 0.1433 0.80762 0.0
O121 O 0.98315 0.16704 0.81173 0.0
O122 O 0.95906 0.13101 0.79844 0.0
C123 C 0.07058 0.24479 0.81876 0.0
O124 O 0.07271 0.22107 0.82354 0.0
C125 C 0.02305 0.19284 0.778 0.0
Zn126 Zn 0.94992 0.85253 0.72519 0.0
Zn127 Zn 0.91164 0.81667 0.70878 0.0
O128 O 0.95451 0.81621 0.70702 0.0
O129 O 0.98754 0.8469 0.72022 0.0
O130 O 0.88325 0.7816 0.69791 0.0
O131 O 0.918 0.82463 0.73711 0.0
O132 O 0.8841 0.80149 0.72318 0.0
C133 C 0.98228 0.82932 0.71167 0.0
C134 C 0.9304 0.88663 0.70888 0.0
O135 O 0.91689 0.85997 0.70347 0.0
O136 O 0.94432 0.88869 0.71814 0.0
C137 C 0.89356 0.77931 0.68836 0.0
O138 O 0.92207 0.80253 0.68494 0.0
C139 C 0.8895 0.80565 0.73363 0.0
Zn140 Zn 0.07961 0.9854 0.67112 0.0
Zn141 Zn 0.14098 0.0219 0.67026 0.0
O142 O 0.12012 0.04382 0.66049 0.0
O143 O 0.0674 0.01291 0.66247 0.0
O144 O 0.18932 0.05368 0.66879 0.0
O145 O 0.08072 0.98643 0.68801 0.0
O146 O 0.13352 0.01961 0.68727 0.0
C147 C 0.09131 0.03793 0.65839 0.0
C148 C 0.10863 0.95003 0.66362 0.0
O149 O 0.13431 0.9766 0.66604 0.0
O150 O 0.08155 0.94905 0.66356 0.0
C151 C 0.19928 0.08393 0.66953 0.0
O152 O 0.17795 0.0934 0.67114 0.0
C153 C 0.10768 0.0029 0.69295 0.0
Zn154 Zn 0.0295 0.17612 0.68375 0.0
Zn155 Zn 0.97471 0.16532 0.67877 0.0
O156 O 0.95972 0.11875 0.68377 0.0
O157 O 0.00944 0.12671 0.68464 0.0
O158 O 0.93464 0.16634 0.67344 0.0
O159 O 0.03672 0.20196 0.69731 0.0
O160 O 0.98925 0.19599 0.69286 0.0
C161 C 0.97896 0.10761 0.685 0.0
C162 C 0.03337 0.18748 0.66215 0.0
O163 O 0.00295 0.17284 0.6643 0.0
O164 O 0.0531 0.19973 0.67013 0.0
C165 C 0.91178 0.14409 0.66773 0.0
O166 O 0.91359 0.11836 0.66491 0.0
C167 C 0.01399 0.20765 0.69929 0.0
Zn168 Zn 0.8644 0.41058 0.54851 0.0
Zn169 Zn 0.89381 0.44312 0.53117 0.0
O170 O 0.88991 0.39773 0.53035 0.0
O171 O 0.86655 0.3701 0.54549 0.0
O172 O 0.92874 0.46726 0.51965 0.0
O173 O 0.89227 0.44371 0.55988 0.0
O174 O 0.90857 0.47418 0.54488 0.0
C175 C 0.87885 0.37161 0.536 0.0
C176 C 0.8259 0.4258 0.53229 0.0
O177 O 0.85078 0.43787 0.52596 0.0
O178 O 0.82673 0.41444 0.54181 0.0
C179 C 0.92749 0.45278 0.51058 0.0
O180 O 0.90107 0.42519 0.50832 0.0
C181 C 0.90711 0.47163 0.5555 0.0
Zn182 Zn 0.53153 0.2817 0.52606 0.0
Zn183 Zn 0.52487 0.32909 0.52292 0.0
O184 O 0.57474 0.35126 0.52272 0.0
O185 O 0.57881 0.30738 0.52144 0.0
O186 O 0.51666 0.36648 0.52009 0.0
O187 O 0.51971 0.27528 0.54192 0.0
O188 O 0.50595 0.31246 0.53911 0.0
C189 C 0.59206 0.33802 0.5213 0.0
C190 C 0.49512 0.26859 0.50743 0.0
O191 O 0.50603 0.29898 0.50875 0.0
O192 O 0.49802 0.25265 0.51532 0.0
C193 C 0.53162 0.38677 0.51229 0.0
O194 O 0.55161 0.38251 0.50589 0.0
C195 C 0.50732 0.29161 0.5455 0.0
Zn196 Zn 0.66363 0.21532 0.51158 0.0
Zn197 Zn 0.64414 0.15748 0.50371 0.0
O198 O 0.61852 0.17598 0.49486 0.0
O199 O 0.63736 0.22542 0.50132 0.0
O200 O 0.62297 0.11133 0.49789 0.0
O201 O 0.64794 0.19786 0.52707 0.0
O202 O 0.63545 0.14968 0.52065 0.0
C203 C 0.61895 0.20305 0.49471 0.0
C204 C 0.71604 0.20829 0.50278 0.0
O205 O 0.69403 0.17904 0.5008 0.0
O206 O 0.70876 0.22806 0.50711 0.0
C207 C 0.59205 0.09554 0.49815 0.0
O208 O 0.57664 0.11001 0.50199 0.0
C209 C 0.63791 0.16806 0.52876 0.0
Zn210 Zn 0.74335 0.50456 0.60713 0.0
Zn211 Zn 0.7754 0.53285 0.62511 0.0
O212 O 0.73103 0.53112 0.62586 0.0
O213 O 0.70365 0.50796 0.61065 0.0
O214 O 0.80064 0.56528 0.63724 0.0
O215 O 0.77811 0.53409 0.59636 0.0
O216 O 0.80724 0.55017 0.61166 0.0
C217 C 0.70516 0.5205 0.6201 0.0
C218 C 0.75671 0.46403 0.62286 0.0
O219 O 0.76861 0.48838 0.62942 0.0
O220 O 0.74607 0.46581 0.61331 0.0
C221 C 0.78632 0.56763 0.64586 0.0
O222 O 0.75564 0.546 0.64751 0.0
C223 C 0.80557 0.54965 0.60103 0.0
Zn224 Zn 0.55925 0.31413 0.64707 0.0
Zn225 Zn 0.49861 0.29068 0.65266 0.0
O226 O 0.51641 0.26428 0.66147 0.0
O227 O 0.56808 0.28663 0.65714 0.0
O228 O 0.45055 0.26717 0.65677 0.0
O229 O 0.54695 0.30186 0.63094 0.0
O230 O 0.49619 0.28513 0.63555 0.0
C231 C 0.54384 0.26571 0.66257 0.0
C232 C 0.54696 0.36316 0.65554 0.0
O233 O 0.51757 0.34 0.65617 0.0
O234 O 0.56909 0.35769 0.65231 0.0
C235 C 0.43909 0.2481 0.66511 0.0
O236 O 0.45917 0.24573 0.67205 0.0
C237 C 0.51757 0.29061 0.62814 0.0
Zn238 Zn 0.61692 0.16783 0.62913 0.0
Zn239 Zn 0.66514 0.16317 0.63335 0.0
O240 O 0.68676 0.21298 0.6331 0.0
O241 O 0.64196 0.21569 0.6331 0.0
O242 O 0.70218 0.15526 0.63737 0.0
O243 O 0.61169 0.15407 0.61349 0.0
O244 O 0.65083 0.14359 0.6171 0.0
C245 C 0.67262 0.22968 0.63374 0.0
C246 C 0.60292 0.13421 0.64831 0.0
O247 O 0.63343 0.1453 0.64721 0.0
O248 O 0.58713 0.13569 0.64009 0.0
C249 C 0.71692 0.16568 0.64663 0.0
O250 O 0.70735 0.18088 0.65345 0.0
C251 C 0.62968 0.14309 0.61037 0.0
Zn252 Zn 0.54512 0.18643 0.14569 0.0
Zn253 Zn 0.49985 0.19884 0.14891 0.0
O254 O 0.53487 0.24453 0.14429 0.0
O255 O 0.57609 0.23575 0.14513 0.0
O256 O 0.45973 0.20255 0.15157 0.0
O257 O 0.52732 0.16061 0.1319 0.0
O258 O 0.48528 0.16643 0.13554 0.0
C259 C 0.56537 0.25526 0.14405 0.0
C260 C 0.529 0.17488 0.16743 0.0
O261 O 0.51451 0.19008 0.16434 0.0
O262 O 0.53838 0.16252 0.16002 0.0
C263 C 0.44357 0.19591 0.1606 0.0
O264 O 0.45337 0.18648 0.16935 0.0
C265 C 0.49892 0.15446 0.12955 0.0
Zn266 Zn 0.76938 0.38007 0.15277 0.0
Zn267 Zn 0.79459 0.3437 0.15424 0.0
O268 O 0.75279 0.32225 0.16427 0.0
O269 O 0.72865 0.35041 0.16082 0.0
O270 O 0.81191 0.31287 0.15631 0.0
O271 O 0.77256 0.38026 0.13594 0.0
O272 O 0.78765 0.34355 0.13714 0.0
C273 C 0.72887 0.327 0.16573 0.0
C274 C 0.83217 0.41432 0.16207 0.0
O275 O 0.83267 0.38886 0.15905 0.0
O276 O 0.80605 0.41513 0.16137 0.0
C277 C 0.79276 0.28245 0.1553 0.0
O278 O 0.76225 0.27185 0.15269 0.0
C279 C 0.7805 0.36141 0.13123 0.0
Zn280 Zn 0.78295 0.53854 0.11614 0.0
Zn281 Zn 0.77424 0.5609 0.13498 0.0
O282 O 0.82044 0.56694 0.13504 0.0
O283 O 0.8285 0.54827 0.11938 0.0
O284 O 0.77796 0.5889 0.14822 0.0
O285 O 0.77385 0.56805 0.10673 0.0
O286 O 0.75716 0.57857 0.12244 0.0
C287 C 0.8386 0.56088 0.12888 0.0
C288 C 0.73117 0.49025 0.13105 0.0
O289 O 0.74051 0.51329 0.13812 0.0
O290 O 0.74446 0.49549 0.12149 0.0
C291 C 0.79311 0.58847 0.15692 0.0
O292 O 0.80124 0.56593 0.15784 0.0
C293 C 0.75952 0.58058 0.11183 0.0
Zn294 Zn 0.57666 0.20406 0.03849 0.0
Zn295 Zn 0.54041 0.15302 0.02756 0.0
O296 O 0.58792 0.16248 0.0252 0.0
O297 O 0.61604 0.19923 0.03785 0.0
O298 O 0.51445 0.1092 0.02032 0.0
O299 O 0.54794 0.18992 0.05184 0.0
O300 O 0.52125 0.14236 0.04363 0.0
C301 C 0.61463 0.17997 0.03032 0.0
C302 C 0.54584 0.21604 0.02008 0.0
O303 O 0.52963 0.18515 0.01945 0.0
O304 O 0.56912 0.2299 0.02691 0.0
C305 C 0.52574 0.09967 0.01249 0.0
O306 O 0.55342 0.12053 0.0078 0.0
C307 C 0.52568 0.16054 0.05204 0.0
Zn308 Zn 0.76499 0.3653 0.02557 0.0
Zn309 Zn 0.8273 0.3972 0.02451 0.0
O310 O 0.81158 0.42666 0.01699 0.0
O311 O 0.7585 0.39965 0.01882 0.0
O312 O 0.87565 0.42574 0.02229 0.0
O313 O 0.76726 0.3605 0.04227 0.0
O314 O 0.82039 0.39203 0.04167 0.0
C315 C 0.78401 0.42443 0.01543 0.0
C316 C 0.78824 0.3303 0.01345 0.0
O317 O 0.81565 0.35301 0.0169 0.0
O318 O 0.76269 0.33129 0.0155 0.0
C319 C 0.88588 0.43103 0.01227 0.0
O320 O 0.86518 0.41557 0.00417 0.0
C321 C 0.79434 0.37517 0.04726 0.0
Zn322 Zn 0.63733 0.48203 0.04111 0.0
Zn323 Zn 0.6078 0.49846 0.02932 0.0
O324 O 0.58334 0.44801 0.02706 0.0
O325 O 0.62023 0.43856 0.03422 0.0
O326 O 0.57816 0.5109 0.02152 0.0
O327 O 0.62099 0.48715 0.05586 0.0
O328 O 0.61424 0.52039 0.04507 0.0
C329 C 0.59449 0.42889 0.02864 0.0
C330 C 0.67848 0.52677 0.02496 0.0
O331 O 0.65103 0.51871 0.02058 0.0
O332 O 0.67943 0.51831 0.03492 0.0
C333 C 0.56921 0.50298 0.01146 0.0
O334 O 0.58126 0.488 0.00567 0.0
C335 C 0.61694 0.51129 0.05484 0.0
Zn336 Zn 0.44278 0.66942 0.89129 0.0
Zn337 Zn 0.47619 0.72531 0.88211 0.0
O338 O 0.48451 0.69148 0.87396 0.0
O339 O 0.46148 0.64568 0.88317 0.0
O340 O 0.51314 0.76567 0.87549 0.0
O341 O 0.45604 0.68561 0.90687 0.0
O342 O 0.48039 0.73406 0.89919 0.0
C343 C 0.47841 0.66232 0.87501 0.0
C344 C 0.40567 0.69527 0.87915 0.0
O345 O 0.43301 0.72047 0.87716 0.0
O346 O 0.40438 0.67164 0.88454 0.0
C347 C 0.51721 0.76587 0.86499 0.0
O348 O 0.49377 0.74342 0.8589 0.0
C349 C 0.47122 0.71616 0.90789 0.0
Zn350 Zn 0.11403 0.6203 0.86737 0.0
Zn351 Zn 0.13109 0.67581 0.85885 0.0
O352 O 0.1765 0.68674 0.86384 0.0
O353 O 0.16173 0.63926 0.87152 0.0
O354 O 0.13614 0.71694 0.85201 0.0
O355 O 0.0831 0.61925 0.87871 0.0
O356 O 0.10107 0.66884 0.87261 0.0
C357 C 0.18379 0.66777 0.86895 0.0
C358 C 0.10743 0.61314 0.84451 0.0
O359 O 0.11919 0.64371 0.84557 0.0
O360 O 0.09891 0.59544 0.85314 0.0
C361 C 0.15529 0.73252 0.84402 0.0
O362 O 0.17347 0.72172 0.83967 0.0
C363 C 0.08401 0.64615 0.87953 0.0
Zn364 Zn 0.33372 0.59734 0.83292 0.0
Zn365 Zn 0.30168 0.53539 0.83221 0.0
O366 O 0.27117 0.55168 0.82609 0.0
O367 O 0.29788 0.60462 0.82797 0.0
O368 O 0.27306 0.48711 0.83079 0.0
O369 O 0.34265 0.59387 0.84937 0.0
O370 O 0.3108 0.54091 0.849 0.0
C371 C 0.2724 0.57898 0.82511 0.0
C372 C 0.36881 0.57451 0.82105 0.0
O373 O 0.34552 0.54757 0.8246 0.0
O374 O 0.3666 0.59985 0.82189 0.0
C375 C 0.2563 0.47488 0.82203 0.0
O376 O 0.26028 0.49389 0.81349 0.0
C377 C 0.3298 0.56666 0.85433 0.0
Zn378 Zn 0.39824 0.73521 0.00611 0.0
Zn379 Zn 0.4321 0.79775 0.00508 0.0
O380 O 0.38853 0.78572 0.01311 0.0
O381 O 0.36021 0.7326 0.01407 0.0
O382 O 0.45501 0.84652 0.00514 0.0
O383 O 0.39994 0.73437 0.98909 0.0
O384 O 0.42785 0.78767 0.98843 0.0
C385 C 0.36277 0.75987 0.01603 0.0
C386 C 0.46145 0.75753 0.0143 0.0
O387 O 0.46474 0.78467 0.01116 0.0
O388 O 0.43343 0.73258 0.01441 0.0
C389 C 0.45348 0.86181 0.01359 0.0
O390 O 0.43915 0.84554 0.02271 0.0
C391 C 0.4148 0.7604 0.98347 0.0
Zn392 Zn 0.18496 0.7331 0.96675 0.0
Zn393 Zn 0.14362 0.67605 0.97492 0.0
O394 O 0.17864 0.66609 0.96951 0.0
O395 O 0.21422 0.71444 0.96311 0.0
O396 O 0.10866 0.63363 0.98149 0.0
O397 O 0.15421 0.73236 0.95526 0.0
O398 O 0.11967 0.68398 0.96179 0.0
C399 C 0.20615 0.68517 0.96511 0.0
C400 C 0.18018 0.73766 0.98984 0.0
O401 O 0.16174 0.70716 0.98849 0.0
O402 O 0.1915 0.75589 0.98138 0.0
C403 C 0.08988 0.63317 0.98914 0.0
O404 O 0.0937 0.66081 0.99289 0.0
C405 C 0.12676 0.7068 0.95478 0.0
Zn406 Zn 0.44456 0.6446 0.94197 0.0
Zn407 Zn 0.419 0.59496 0.95451 0.0
O408 O 0.4618 0.63111 0.96157 0.0
O409 O 0.48515 0.67354 0.95065 0.0
O410 O 0.41348 0.55797 0.96418 0.0
O411 O 0.44588 0.62138 0.92828 0.0
O412 O 0.41363 0.57816 0.93815 0.0
C413 C 0.4849 0.6598 0.95969 0.0
C414 C 0.38016 0.62655 0.95215 0.0
O415 O 0.38259 0.60469 0.95749 0.0
O416 O 0.40219 0.64475 0.94528 0.0
C417 C 0.41827 0.56443 0.97454 0.0
O418 O 0.41844 0.59047 0.97829 0.0
C419 C 0.42632 0.59118 0.9288 0.0
Zn420 Zn 0.22159 0.45062 0.46279 0.0
Zn421 Zn 0.18176 0.46479 0.47282 0.0
O422 O 0.21575 0.51105 0.46821 0.0
O423 O 0.25019 0.49926 0.46015 0.0
O424 O 0.14531 0.46775 0.48036 0.0
O425 O 0.19049 0.42237 0.45108 0.0
O426 O 0.15733 0.43541 0.45927 0.0
C427 C 0.24268 0.52017 0.46326 0.0
C428 C 0.2203 0.43787 0.48559 0.0
O429 O 0.20182 0.45018 0.48536 0.0
O430 O 0.22981 0.43186 0.47651 0.0
C431 C 0.1384 0.48991 0.47844 0.0
O432 O 0.15696 0.5139 0.47169 0.0
C433 C 0.16315 0.4207 0.4515 0.0
Zn434 Zn 0.4515 0.65356 0.4978 0.0
Zn435 Zn 0.48146 0.62276 0.49411 0.0
O436 O 0.43815 0.59254 0.5027 0.0
O437 O 0.41309 0.61981 0.50595 0.0
O438 O 0.50155 0.59389 0.49422 0.0
O439 O 0.45045 0.6585 0.48092 0.0
O440 O 0.47505 0.63055 0.47764 0.0
C441 C 0.41401 0.59383 0.50677 0.0
C442 C 0.51567 0.692 0.50426 0.0
O443 O 0.5168 0.66808 0.4999 0.0
O444 O 0.48832 0.68954 0.50606 0.0
C445 C 0.5041 0.58336 0.50372 0.0
O446 O 0.49673 0.59426 0.51269 0.0
C447 C 0.4625 0.64708 0.47406 0.0
Zn448 Zn 0.47665 0.79776 0.43783 0.0
Zn449 Zn 0.45739 0.82268 0.45213 0.0
O450 O 0.50134 0.8263 0.45695 0.0
O451 O 0.51954 0.80706 0.44401 0.0
O452 O 0.45806 0.85819 0.46166 0.0
O453 O 0.47336 0.82049 0.42436 0.0
O454 O 0.44481 0.83106 0.43623 0.0
C455 C 0.5228 0.81975 0.45351 0.0
C456 C 0.41593 0.75317 0.45069 0.0
O457 O 0.42086 0.77767 0.45652 0.0
O458 O 0.43524 0.75661 0.44279 0.0
C459 C 0.47098 0.86366 0.4713 0.0
O460 O 0.47797 0.8425 0.47563 0.0
C461 C 0.45329 0.82999 0.42621 0.0
Zn462 Zn 0.13203 0.49505 0.36319 0.0
Zn463 Zn 0.13982 0.45103 0.35435 0.0
O464 O 0.18812 0.48241 0.35702 0.0
O465 O 0.18131 0.52362 0.36138 0.0
O466 O 0.13625 0.41109 0.34699 0.0
O467 O 0.11292 0.4721 0.37748 0.0
O468 O 0.11574 0.4322 0.36942 0.0
C469 C 0.19998 0.51248 0.35914 0.0
C470 C 0.1108 0.4892 0.34217 0.0
O471 O 0.12527 0.47268 0.34226 0.0
O472 O 0.10346 0.49691 0.35136 0.0
C473 C 0.1586 0.41041 0.34138 0.0
O474 O 0.18615 0.4375 0.33975 0.0
C475 C 0.10782 0.44339 0.37778 0.0
Zn476 Zn 0.4446 0.75347 0.38425 0.0
Zn477 Zn 0.48799 0.74965 0.37286 0.0
O478 O 0.48624 0.78968 0.36649 0.0
O479 O 0.4478 0.7914 0.37596 0.0
O480 O 0.52893 0.75648 0.36525 0.0
O481 O 0.46543 0.75853 0.39911 0.0
O482 O 0.4956 0.74364 0.38977 0.0
C483 C 0.46884 0.80266 0.3683 0.0
C484 C 0.42096 0.69353 0.37129 0.0
O485 O 0.4494 0.70711 0.36708 0.0
O486 O 0.41387 0.70766 0.37882 0.0
C487 C 0.53257 0.76325 0.35488 0.0
O488 O 0.50812 0.76169 0.34925 0.0
C489 C 0.48582 0.74887 0.39907 0.0
Zn490 Zn 0.31307 0.74351 0.33439 0.0
Zn491 Zn 0.28157 0.77339 0.33822 0.0
O492 O 0.24941 0.72668 0.33217 0.0
O493 O 0.27702 0.70212 0.32844 0.0
O494 O 0.25156 0.79215 0.3393 0.0
O495 O 0.3263 0.75068 0.35088 0.0
O496 O 0.29821 0.7751 0.35418 0.0
C497 C 0.25044 0.70201 0.32853 0.0
C498 C 0.34407 0.80414 0.32386 0.0
O499 O 0.322 0.80659 0.32911 0.0
O500 O 0.34279 0.77695 0.32353 0.0
C501 C 0.23064 0.78495 0.33159 0.0
O502 O 0.23139 0.76841 0.32293 0.0
C503 C 0.31741 0.76548 0.35757 0.0
H504 H 0.14124 0.23445 0.18213 0.0
H505 H 0.06287 0.16988 0.16059 0.0
H506 H 0.1094 0.25889 0.18833 0.0
H507 H 0.0307 0.19302 0.16689 0.0
H508 H 0.96167 0.20375 0.18459 0.0
H509 H 0.00945 0.22507 0.17265 0.0
H510 H 0.06797 0.23323 0.20142 0.0
H511 H 0.02087 0.21366 0.21327 0.0
C512 C 0.11798 0.2268 0.17822 0.0
C513 C 0.10413 0.19977 0.17109 0.0
C514 C 0.09939 0.24039 0.18192 0.0
C515 C 0.06671 0.22692 0.17859 0.0
C516 C 0.05546 0.20402 0.16985 0.0
C517 C 0.07403 0.19061 0.16615 0.0
C518 C 0.98506 0.21155 0.18842 0.0
C519 C 0.9872 0.20566 0.19981 0.0
C520 C 0.01251 0.22357 0.18155 0.0
C521 C 0.04243 0.22929 0.18591 0.0
C522 C 0.04547 0.22873 0.19761 0.0
C523 C 0.01815 0.21726 0.20449 0.0
H524 H 0.89328 0.02361 0.18767 0.0
H525 H 0.98448 0.08348 0.20451 0.0
H526 H 0.91064 0.9841 0.18322 0.0
H527 H 0.00155 0.04457 0.20019 0.0
H528 H 0.0362 0.9823 0.18672 0.0
H529 H 0.01669 0.02062 0.18501 0.0
H530 H 0.92058 0.94565 0.19477 0.0
H531 H 0.94001 0.9069 0.19622 0.0
C532 C 0.91716 0.02857 0.19024 0.0
C533 C 0.93743 0.05644 0.19651 0.0
C534 C 0.927 0.00594 0.18776 0.0
C535 C 0.95747 0.01125 0.19134 0.0
C536 C 0.97813 0.0399 0.19716 0.0
C537 C 0.96821 0.06211 0.19974 0.0
C538 C 0.01079 0.97383 0.18835 0.0
C539 C 0.98978 0.9418 0.19186 0.0
C540 C 0.99961 0.99578 0.18736 0.0
C541 C 0.96724 0.9863 0.18996 0.0
C542 C 0.94562 0.95364 0.19267 0.0
C543 C 0.95679 0.93151 0.19358 0.0
H544 H 0.16622 0.06933 0.16093 0.0
H545 H 0.06216 0.02412 0.16438 0.0
H546 H 0.1604 0.01664 0.15624 0.0
H547 H 0.05626 0.97211 0.16019 0.0
H548 H 0.03915 0.88189 0.16341 0.0
H549 H 0.05771 0.92931 0.15152 0.0
H550 H 0.15065 0.97439 0.16823 0.0
H551 H 0.13291 0.92636 0.17941 0.0
C552 C 0.14207 0.04834 0.16039 0.0
C553 C 0.11473 0.05067 0.16337 0.0
C554 C 0.13869 0.01806 0.15774 0.0
C555 C 0.10795 0.98964 0.1581 0.0
C556 C 0.08045 0.99302 0.15975 0.0
C557 C 0.08382 0.02307 0.16235 0.0
C558 C 0.06424 0.90106 0.16406 0.0
C559 C 0.08373 0.90159 0.17297 0.0
C560 C 0.07479 0.92861 0.15733 0.0
C561 C 0.1046 0.95688 0.15962 0.0
C562 C 0.12693 0.9538 0.16649 0.0
C563 C 0.11665 0.92596 0.173 0.0
H564 H 0.21103 0.09501 0.33223 0.0
H565 H 0.13467 0.117 0.33817 0.0
H566 H 0.18378 0.04789 0.34435 0.0
H567 H 0.1059 0.06892 0.34918 0.0
H568 H 0.03601 0.96974 0.35398 0.0
H569 H 0.08172 0.02297 0.35838 0.0
H570 H 0.14468 0.9992 0.33937 0.0
H571 H 0.09971 0.94548 0.33618 0.0
C572 C 0.18897 0.09043 0.33644 0.0
C573 C 0.17402 0.10859 0.33371 0.0
C574 C 0.17276 0.06282 0.3432 0.0
C575 C 0.14087 0.05235 0.34693 0.0
C576 C 0.12961 0.0747 0.34617 0.0
C577 C 0.14639 0.10287 0.33977 0.0
C578 C 0.06005 0.97574 0.35119 0.0
C579 C 0.06431 0.95392 0.34453 0.0
C580 C 0.08635 0.00654 0.35353 0.0
C581 C 0.11707 0.01684 0.34869 0.0
C582 C 0.1218 0.99317 0.34323 0.0
C583 C 0.09576 0.96198 0.3413 0.0
H584 H 0.90827 0.9246 0.28334 0.0
H585 H 0.8776 0.96984 0.30809 0.0
H586 H 0.96447 0.96448 0.28688 0.0
H587 H 0.93467 0.01002 0.31176 0.0
H588 H 0.03911 0.09677 0.303 0.0
H589 H 0.98132 0.05629 0.30185 0.0
H590 H 0.00519 0.97982 0.30141 0.0
H591 H 0.06259 0.01996 0.30232 0.0
C592 C 0.91351 0.94299 0.28961 0.0
C593 C 0.88836 0.94407 0.29542 0.0
C594 C 0.94585 0.96576 0.29169 0.0
C595 C 0.95406 0.99034 0.29964 0.0
C596 C 0.92903 0.99144 0.30554 0.0
C597 C 0.89643 0.96836 0.30349 0.0
C598 C 0.03197 0.0713 0.3027 0.0
C599 C 0.0555 0.06164 0.30258 0.0
C600 C 0.99887 0.04813 0.30213 0.0
C601 C 0.98873 0.0149 0.30144 0.0
C602 C 0.01225 0.00528 0.30173 0.0
C603 C 0.04519 0.02833 0.30226 0.0
H604 H 0.81485 0.78635 0.28597 0.0
H605 H 0.7557 0.79268 0.31206 0.0
H606 H 0.84107 0.76939 0.29942 0.0
H607 H 0.78066 0.77367 0.3256 0.0
H608 H 0.88394 0.83326 0.34161 0.0
H609 H 0.83093 0.8074 0.33316 0.0
H610 H 0.8561 0.74666 0.31363 0.0
H611 H 0.91016 0.77404 0.32193 0.0
C612 C 0.80609 0.78235 0.2945 0.0
C613 C 0.78421 0.79225 0.29803 0.0
C614 C 0.82121 0.77245 0.30232 0.0
C615 C 0.81431 0.77171 0.31381 0.0
C616 C 0.78782 0.7755 0.31693 0.0
C617 C 0.77319 0.78609 0.30914 0.0
C618 C 0.8776 0.81323 0.33594 0.0
C619 C 0.90153 0.80649 0.33215 0.0
C620 C 0.84691 0.79817 0.33101 0.0
C621 C 0.83947 0.77588 0.32221 0.0
C622 C 0.86139 0.76473 0.32002 0.0
C623 C 0.89231 0.78004 0.32493 0.0
H624 H 0.8718 0.86261 0.84154 0.0
H625 H 0.86324 0.80363 0.81303 0.0
H626 H 0.92713 0.87359 0.84458 0.0
H627 H 0.91837 0.81518 0.81575 0.0
H628 H 0.02217 0.86112 0.81327 0.0
H629 H 0.97021 0.8266 0.82271 0.0
H630 H 0.96582 0.91225 0.83188 0.0
H631 H 0.01711 0.94601 0.82269 0.0
C632 C 0.881 0.85036 0.83634 0.0
C633 C 0.86383 0.83321 0.82683 0.0
C634 C 0.9129 0.85697 0.83798 0.0
C635 C 0.92782 0.84674 0.83004 0.0
C636 C 0.9081 0.82406 0.82193 0.0
C637 C 0.87629 0.81736 0.82035 0.0
C638 C 0.01043 0.87242 0.81763 0.0
C639 C 0.02306 0.9061 0.81698 0.0
C640 C 0.98072 0.8527 0.82304 0.0
C641 C 0.96342 0.86648 0.82793 0.0
C642 C 0.97824 0.90051 0.82831 0.0
C643 C 0.00756 0.92001 0.82286 0.0
H644 H 0.1211 0.18531 0.80534 0.0
H645 H 0.04199 0.09281 0.8161 0.0
H646 H 0.15944 0.16591 0.8089 0.0
H647 H 0.07972 0.07373 0.81981 0.0
H648 H 0.13601 0.03214 0.82314 0.0
H649 H 0.12784 0.07643 0.82926 0.0
H650 H 0.16159 0.12309 0.79723 0.0
H651 H 0.16971 0.07899 0.7912 0.0
C652 C 0.11211 0.1613 0.80883 0.0
C653 C 0.07861 0.14026 0.81025 0.0
C654 C 0.13401 0.15024 0.81088 0.0
C655 C 0.12269 0.11828 0.81463 0.0
C656 C 0.08947 0.09861 0.81708 0.0
C657 C 0.06768 0.10936 0.81481 0.0
C658 C 0.14386 0.05299 0.81771 0.0
C659 C 0.1526 0.05182 0.80659 0.0
C660 C 0.13884 0.07823 0.82117 0.0
C661 C 0.1428 0.10253 0.81356 0.0
C662 C 0.15792 0.1046 0.80327 0.0
C663 C 0.1627 0.07929 0.7998 0.0
H664 H 0.7952 0.96007 0.81822 0.0
H665 H 0.88909 0.97483 0.82777 0.0
H666 H 0.81528 0.01833 0.82073 0.0
H667 H 0.90903 0.03215 0.8303 0.0
H668 H 0.95294 0.13102 0.83001 0.0
H669 H 0.91086 0.08019 0.83815 0.0
H670 H 0.85387 0.06047 0.80808 0.0
H671 H 0.89544 0.11124 0.80014 0.0
C672 C 0.81973 0.97558 0.82122 0.0
C673 C 0.8409 0.96329 0.82256 0.0
C674 C 0.83123 0.00886 0.82266 0.0
C675 C 0.86386 0.03006 0.82563 0.0
C676 C 0.88371 0.01676 0.82813 0.0
C677 C 0.87243 0.98385 0.82652 0.0
C678 C 0.9305 0.1168 0.82545 0.0
C679 C 0.92781 0.12442 0.81432 0.0
C680 C 0.90648 0.08749 0.83006 0.0
C681 C 0.87969 0.06562 0.82357 0.0
C682 C 0.8743 0.07641 0.81329 0.0
C683 C 0.89826 0.10561 0.8087 0.0
H684 H 0.92279 0.06405 0.69561 0.0
H685 H 0.00712 0.07244 0.67888 0.0
H686 H 0.90559 0.00754 0.70049 0.0
H687 H 0.98949 0.01598 0.68349 0.0
H688 H 0.93164 0.90409 0.687 0.0
H689 H 0.93876 0.9558 0.67996 0.0
H690 H 0.93687 0.98628 0.71374 0.0
H691 H 0.9307 0.93529 0.72078 0.0
C692 C 0.93727 0.05364 0.69281 0.0
C693 C 0.96641 0.07265 0.68697 0.0
C694 C 0.92748 0.02142 0.6956 0.0
C695 C 0.94622 0.0075 0.69233 0.0
C696 C 0.97449 0.02606 0.68602 0.0
C697 C 0.98467 0.05841 0.68347 0.0
C698 C 0.93227 0.92168 0.69288 0.0
C699 C 0.93081 0.91581 0.70443 0.0
C700 C 0.93642 0.9512 0.68887 0.0
C701 C 0.93824 0.97487 0.69633 0.0
C702 C 0.93522 0.9683 0.70782 0.0
C703 C 0.93191 0.93924 0.71184 0.0
H704 H 0.14915 0.93722 0.67618 0.0
H705 H 0.06414 0.8909 0.65528 0.0
H706 H 0.12612 0.88997 0.68832 0.0
H707 H 0.0402 0.84482 0.6676 0.0
H708 H 0.98024 0.79079 0.69426 0.0
H709 H 0.02321 0.80483 0.68061 0.0
H710 H 0.08904 0.88552 0.70141 0.0
H711 H 0.04699 0.87017 0.71516 0.0
C712 C 0.1263 0.91625 0.6738 0.0
C713 C 0.10738 0.91857 0.66522 0.0
C714 C 0.11268 0.88928 0.68093 0.0
C715 C 0.08004 0.86469 0.67956 0.0
C716 C 0.06485 0.86363 0.66933 0.0
C717 C 0.07874 0.89028 0.66212 0.0
C718 C 0.00433 0.81071 0.69609 0.0
C719 C 0.00988 0.8301 0.7056 0.0
C720 C 0.02902 0.81899 0.6882 0.0
C721 C 0.05942 0.84739 0.68951 0.0
C722 C 0.06611 0.86368 0.69986 0.0
C723 C 0.04168 0.85499 0.70783 0.0
H724 H 0.0964 0.21052 0.65583 0.0
H725 H 0.99814 0.14418 0.64543 0.0
H726 H 0.1137 0.17452 0.64863 0.0
H727 H 0.01607 0.10937 0.63702 0.0
H728 H 0.03278 0.03231 0.65395 0.0
H729 H 0.02181 0.07339 0.64749 0.0
H730 H 0.12436 0.13747 0.64118 0.0
H731 H 0.13546 0.09612 0.64854 0.0
C732 C 0.07872 0.18905 0.6514 0.0
C733 C 0.04543 0.17889 0.65201 0.0
C734 C 0.08875 0.16811 0.64719 0.0
C735 C 0.06573 0.13734 0.64307 0.0
C736 C 0.03406 0.13161 0.64097 0.0
C737 C 0.02379 0.15202 0.64558 0.0
C738 C 0.0531 0.05497 0.65105 0.0
C739 C 0.08514 0.06123 0.65212 0.0
C740 C 0.04672 0.07874 0.64711 0.0
C741 C 0.07217 0.10958 0.64393 0.0
C742 C 0.10407 0.11458 0.64387 0.0
C743 C 0.11052 0.09078 0.64804 0.0
H744 H 0.63168 0.40115 0.52766 0.0
H745 H 0.63292 0.31961 0.51233 0.0
H746 H 0.69114 0.43073 0.52819 0.0
H747 H 0.69207 0.34922 0.51277 0.0
H748 H 0.80034 0.41471 0.5112 0.0
H749 H 0.74458 0.40008 0.50616 0.0
H750 H 0.72666 0.41625 0.54025 0.0
H751 H 0.78176 0.43025 0.54527 0.0
C752 C 0.64463 0.38985 0.52418 0.0
C753 C 0.62769 0.3579 0.52011 0.0
C754 C 0.6786 0.40676 0.52449 0.0
C755 C 0.69615 0.39221 0.52054 0.0
C756 C 0.67921 0.36115 0.51577 0.0
C757 C 0.64532 0.34408 0.51563 0.0
C758 C 0.78467 0.41592 0.51751 0.0
C759 C 0.79512 0.42326 0.52863 0.0
C760 C 0.75282 0.40745 0.51465 0.0
C761 C 0.73134 0.40698 0.52283 0.0
C762 C 0.74273 0.4167 0.53375 0.0
C763 C 0.7742 0.42448 0.53664 0.0
H764 H 0.46025 0.20459 0.50181 0.0
H765 H 0.52068 0.29924 0.48741 0.0
H766 H 0.48562 0.18252 0.49018 0.0
H767 H 0.54432 0.27661 0.47484 0.0
H768 H 0.62714 0.26051 0.48754 0.0
H769 H 0.58538 0.27177 0.48204 0.0
H770 H 0.51677 0.16861 0.48005 0.0
H771 H 0.55932 0.15763 0.48622 0.0
C772 C 0.47747 0.22031 0.49557 0.0
C773 C 0.49052 0.25409 0.49618 0.0
C774 C 0.49237 0.20759 0.48882 0.0
C775 C 0.51965 0.22853 0.48233 0.0
C776 C 0.52537 0.2603 0.48049 0.0
C777 C 0.5112 0.27326 0.48754 0.0
C778 C 0.60332 0.24015 0.48567 0.0
C779 C 0.59616 0.20824 0.48778 0.0
C780 C 0.57905 0.24657 0.48233 0.0
C781 C 0.54674 0.22116 0.48103 0.0
C782 C 0.54088 0.18897 0.48145 0.0
C783 C 0.56535 0.18255 0.48489 0.0
H784 H 0.7609 0.2598 0.49119 0.0
H785 H 0.74939 0.18368 0.51348 0.0
H786 H 0.81562 0.2943 0.49786 0.0
H787 H 0.80491 0.21805 0.52017 0.0
H788 H 0.84535 0.30953 0.54405 0.0
H789 H 0.81726 0.26122 0.53275 0.0
H790 H 0.87011 0.31574 0.50361 0.0
H791 H 0.89762 0.36466 0.51496 0.0
C792 C 0.77097 0.24969 0.497 0.0
C793 C 0.75088 0.21933 0.50192 0.0
C794 C 0.80252 0.26957 0.50091 0.0
C795 C 0.81446 0.25949 0.5099 0.0
C796 C 0.79617 0.22694 0.51346 0.0
C797 C 0.7645 0.20697 0.5095 0.0
C798 C 0.85198 0.31109 0.53532 0.0
C799 C 0.87273 0.34129 0.53034 0.0
C800 C 0.83591 0.28311 0.52879 0.0
C801 C 0.84045 0.28469 0.51713 0.0
C802 C 0.8652 0.31384 0.5125 0.0
C803 C 0.88111 0.34193 0.51903 0.0
H804 H 0.7604 0.42006 0.60953 0.0
H805 H 0.74539 0.43738 0.64381 0.0
H806 H 0.74681 0.36487 0.6143 0.0
H807 H 0.73108 0.38154 0.64857 0.0
H808 H 0.65219 0.26928 0.64235 0.0
H809 H 0.68017 0.32841 0.64172 0.0
H810 H 0.76328 0.33019 0.62645 0.0
H811 H 0.73539 0.27074 0.62723 0.0
C812 C 0.75475 0.41219 0.61814 0.0
C813 C 0.75369 0.43284 0.62629 0.0
C814 C 0.74721 0.38068 0.62088 0.0
C815 C 0.73784 0.36895 0.63179 0.0
C816 C 0.73821 0.39006 0.64009 0.0
C817 C 0.74648 0.42195 0.63738 0.0
C818 C 0.67667 0.28229 0.63904 0.0
C819 C 0.69149 0.26542 0.63471 0.0
C820 C 0.69278 0.31615 0.63878 0.0
C821 C 0.72384 0.33382 0.63402 0.0
C822 C 0.73931 0.31707 0.63015 0.0
C823 C 0.72339 0.28313 0.63061 0.0
H824 H 0.51948 0.39255 0.64402 0.0
H825 H 0.59635 0.41119 0.66708 0.0
H826 H 0.55201 0.44713 0.63635 0.0
H827 H 0.62915 0.46494 0.6594 0.0
H828 H 0.64289 0.485 0.6124 0.0
H829 H 0.59499 0.45861 0.62398 0.0
H830 H 0.64991 0.51739 0.65208 0.0
H831 H 0.69848 0.54314 0.64047 0.0
C832 C 0.54247 0.40903 0.64794 0.0
C833 C 0.55575 0.39753 0.65598 0.0
C834 C 0.56146 0.44018 0.6434 0.0
C835 C 0.59391 0.46004 0.64685 0.0
C836 C 0.60454 0.45051 0.65636 0.0
C837 C 0.58559 0.41951 0.66086 0.0
C838 C 0.64462 0.49326 0.62093 0.0
C839 C 0.67489 0.51517 0.62562 0.0
C840 C 0.61685 0.47816 0.62763 0.0
C841 C 0.61868 0.48486 0.63915 0.0
C842 C 0.64782 0.51073 0.64335 0.0
C843 C 0.67571 0.52563 0.63667 0.0
H844 H 0.53853 0.1028 0.65358 0.0
H845 H 0.6332 0.15948 0.66841 0.0
H846 H 0.51777 0.12938 0.6652 0.0
H847 H 0.61172 0.18414 0.68102 0.0
H848 H 0.59985 0.2706 0.67001 0.0
H849 H 0.60878 0.22685 0.67475 0.0
H850 H 0.50484 0.16074 0.67539 0.0
H851 H 0.49627 0.2053 0.66987 0.0
C852 C 0.55448 0.11953 0.65988 0.0
C853 C 0.58806 0.1311 0.65944 0.0
C854 C 0.54251 0.13509 0.66663 0.0
C855 C 0.56392 0.16161 0.67333 0.0
C856 C 0.59516 0.16594 0.67522 0.0
C857 C 0.60744 0.15115 0.66815 0.0
C858 C 0.57879 0.24685 0.67138 0.0
C859 C 0.54745 0.24112 0.66904 0.0
C860 C 0.58385 0.22139 0.67429 0.0
C861 C 0.55761 0.1893 0.67499 0.0
C862 C 0.52587 0.18465 0.6744 0.0
C863 C 0.52083 0.2103 0.67133 0.0
H864 H 0.71991 0.2746 0.17836 0.0
H865 H 0.67349 0.32921 0.16887 0.0
H866 H 0.67001 0.2347 0.18768 0.0
H867 H 0.62387 0.28926 0.17739 0.0
H868 H 0.53341 0.21888 0.18334 0.0
H869 H 0.58661 0.25784 0.19054 0.0
H870 H 0.62166 0.19253 0.18191 0.0
H871 H 0.56807 0.15282 0.17585 0.0
C872 C 0.69918 0.27824 0.17835 0.0
C873 C 0.70047 0.30467 0.17263 0.0
C874 C 0.67047 0.25534 0.18368 0.0
C875 C 0.64229 0.25809 0.18324 0.0
C876 C 0.64472 0.286 0.17819 0.0
C877 C 0.67334 0.30894 0.17305 0.0
C878 C 0.55191 0.21196 0.18367 0.0
C879 C 0.54753 0.18413 0.17805 0.0
C880 C 0.58279 0.23469 0.18758 0.0
C881 C 0.60933 0.22982 0.18571 0.0
C882 C 0.60247 0.19822 0.18299 0.0
C883 C 0.57133 0.1751 0.17949 0.0
H884 H 0.84207 0.46448 0.17541 0.0
H885 H 0.88994 0.43623 0.15106 0.0
H886 H 0.87093 0.51929 0.16867 0.0
H887 H 0.92083 0.49208 0.14455 0.0
H888 H 0.87141 0.53183 0.12078 0.0
H889 H 0.89682 0.50952 0.13223 0.0
H890 H 0.89758 0.56782 0.16009 0.0
H891 H 0.86968 0.58847 0.14862 0.0
C892 C 0.86047 0.47054 0.16906 0.0
C893 C 0.86232 0.44586 0.1633 0.0
C894 C 0.87726 0.50235 0.16508 0.0
C895 C 0.89629 0.50982 0.15531 0.0
C896 C 0.90453 0.48674 0.15155 0.0
C897 C 0.88726 0.45467 0.15544 0.0
C898 C 0.87794 0.5408 0.12924 0.0
C899 C 0.86676 0.56039 0.13398 0.0
C900 C 0.89293 0.52804 0.13592 0.0
C901 C 0.89732 0.53493 0.14745 0.0
C902 C 0.89265 0.56018 0.15146 0.0
C903 C 0.87688 0.57235 0.14484 0.0
H904 H 0.55403 0.30135 0.13489 0.0
H905 H 0.62883 0.28878 0.15057 0.0
H906 H 0.59283 0.35933 0.1325 0.0
H907 H 0.66731 0.34682 0.14835 0.0
H908 H 0.71453 0.46008 0.1515 0.0
H909 H 0.6732 0.40336 0.15536 0.0
H910 H 0.64699 0.38933 0.12049 0.0
H911 H 0.68855 0.44534 0.11659 0.0
C912 C 0.57865 0.31099 0.13789 0.0
C913 C 0.58846 0.29047 0.14282 0.0
C914 C 0.6008 0.34411 0.13652 0.0
C915 C 0.63296 0.35747 0.14029 0.0
C916 C 0.64257 0.33715 0.14547 0.0
C917 C 0.62062 0.30392 0.14664 0.0
C918 C 0.69971 0.4449 0.14471 0.0
C919 C 0.70478 0.45706 0.13375 0.0
C920 C 0.67625 0.41251 0.1469 0.0
C921 C 0.65694 0.3921 0.13821 0.0
C922 C 0.66139 0.40461 0.12734 0.0
C923 C 0.68527 0.43661 0.12511 0.0
H924 H 0.62624 0.39847 0.0219 0.0
H925 H 0.53018 0.38664 0.02321 0.0
H926 H 0.60417 0.34416 0.01472 0.0
H927 H 0.50746 0.33098 0.01593 0.0
H928 H 0.49849 0.22771 0.02661 0.0
H929 H 0.50308 0.28081 0.02464 0.0
H930 H 0.577 0.30637 -0.00054 0.0
H931 H 0.57328 0.2537 0.00187 0.0
C932 C 0.60027 0.38424 0.02053 0.0
C933 C 0.57986 0.39659 0.02331 0.0
C934 C 0.5876 0.35314 0.01621 0.0
C935 C 0.554 0.33318 0.01462 0.0
C936 C 0.53347 0.34585 0.01701 0.0
C937 C 0.54639 0.37757 0.0212 0.0
C938 C 0.5142 0.24394 0.02015 0.0
C939 C 0.53567 0.23683 0.01443 0.0
C940 C 0.51697 0.27451 0.01905 0.0
C941 C 0.54119 0.29819 0.01216 0.0
C942 C 0.55865 0.28886 0.00503 0.0
C943 C 0.55625 0.25853 0.00628 0.0
H944 H 0.80926 0.29231 0.02314 0.0
H945 H 0.75408 0.29648 0.99536 0.0
H946 H 0.77141 0.23436 0.02503 0.0
H947 H 0.7156 0.2395 0.99742 0.0
H948 H 0.62826 0.1636 0.00981 0.0
H949 H 0.68253 0.18499 0.0019 0.0
H950 H 0.72409 0.22385 0.03429 0.0
H951 H 0.67049 0.20181 0.04206 0.0
C952 C 0.7903 0.28046 0.01695 0.0
C953 C 0.7835 0.29898 0.00947 0.0
C954 C 0.76813 0.24724 0.01815 0.0
C955 C 0.73893 0.23275 0.01199 0.0
C956 C 0.737 0.24974 0.00266 0.0
C957 C 0.75935 0.28273 0.00138 0.0
C958 C 0.64907 0.17554 0.0153 0.0
C959 C 0.64526 0.18222 0.02645 0.0
C960 C 0.68026 0.18796 0.01076 0.0
C961 C 0.70801 0.20747 0.01728 0.0
C962 C 0.70372 0.20941 0.02885 0.0
C963 C 0.67272 0.19703 0.03335 0.0
H964 H 0.73331 0.41924 0.00362 0.0
H965 H 0.82773 0.48995 0.01608 0.0
H966 H 0.72037 0.46141 0.00028 0.0
H967 H 0.81511 0.53317 0.01251 0.0
H968 H 0.74134 0.55559 0.03186 0.0
H969 H 0.78037 0.54337 0.02371 0.0
H970 H 0.72191 0.50886 0.99383 0.0
H971 H 0.68181 0.51974 0.00234 0.0
C972 C 0.75178 0.44414 0.00529 0.0
C973 C 0.78107 0.45123 0.01044 0.0
C974 C 0.74456 0.46863 0.00322 0.0
C975 C 0.76637 0.50089 0.00637 0.0
C976 C 0.79744 0.50851 0.01021 0.0
C977 C 0.80476 0.48381 0.01223 0.0
C978 C 0.73751 0.54681 0.02334 0.0
C979 C 0.7077 0.53689 0.01799 0.0
C980 C 0.76013 0.53988 0.01859 0.0
C981 C 0.75332 0.5232 0.00836 0.0
C982 C 0.72709 0.52026 0.00197 0.0
C983 C 0.70417 0.52683 0.00681 0.0
H984 H 0.23843 0.7148 0.85838 0.0
H985 H 0.2064 0.64177 0.88422 0.0
H986 H 0.29364 0.72362 0.85998 0.0
H987 H 0.26127 0.65117 0.88605 0.0
H988 H 0.34646 0.64123 0.87727 0.0
H989 H 0.29443 0.63797 0.8746 0.0
H990 H 0.34227 0.74242 0.87181 0.0
H991 H 0.39501 0.74561 0.87414 0.0
C992 C 0.24333 0.70118 0.86456 0.0
C993 C 0.21804 0.67731 0.87108 0.0
C994 C 0.27492 0.7062 0.86547 0.0
C995 C 0.28169 0.68756 0.87296 0.0
C996 C 0.2567 0.66522 0.87994 0.0
C997 C 0.22527 0.66001 0.87897 0.0
C998 C 0.34604 0.66353 0.87594 0.0
C999 C 0.37485 0.6937 0.87601 0.0
C1000 C 0.31612 0.66169 0.87452 0.0
C1001 C 0.31409 0.69 0.87329 0.0
C1002 C 0.34301 0.72017 0.87278 0.0
C1003 C 0.37319 0.722 0.8741 0.0
H1004 H 0.13763 0.646 0.82525 0.0
H1005 H 0.09411 0.55109 0.84049 0.0
H1006 H 0.17239 0.63306 0.8141 0.0
H1007 H 0.13012 0.53907 0.83008 0.0
H1008 H 0.21174 0.52909 0.81932 0.0
H1009 H 0.16227 0.53216 0.81721 0.0
H1010 H 0.21848 0.63628 0.82168 0.0
H1011 H 0.2673 0.63323 0.8232 0.0
C1012 C 0.13453 0.6219 0.82593 0.0
C1013 C 0.1144 0.60028 0.83423 0.0
C1014 C 0.15489 0.61462 0.81965 0.0
C1015 C 0.15577 0.5859 0.82173 0.0
C1016 C 0.13102 0.56184 0.82838 0.0
C1017 C 0.11019 0.56883 0.83445 0.0
C1018 C 0.21349 0.55267 0.81955 0.0
C1019 C 0.24336 0.58081 0.82173 0.0
C1020 C 0.18509 0.55446 0.81838 0.0
C1021 C 0.18593 0.58438 0.81949 0.0
C1022 C 0.21641 0.61272 0.82065 0.0
C1023 C 0.24466 0.61096 0.8217 0.0
H1024 H 0.38977 0.53154 0.82651 0.0
H1025 H 0.42472 0.62876 0.81437 0.0
H1026 H 0.43931 0.55034 0.83719 0.0
H1027 H 0.47231 0.64823 0.82572 0.0
H1028 H 0.51683 0.6898 0.85648 0.0
H1029 H 0.51029 0.66303 0.8386 0.0
H1030 H 0.44356 0.57095 0.8541 0.0
H1031 H 0.45229 0.5973 0.87176 0.0
C1032 C 0.40854 0.55676 0.82575 0.0
C1033 C 0.40211 0.57928 0.82042 0.0
C1034 C 0.43681 0.56783 0.83214 0.0
C1035 C 0.4582 0.60147 0.83347 0.0
C1036 C 0.45577 0.62234 0.82564 0.0
C1037 C 0.42811 0.61107 0.81898 0.0
C1038 C 0.50179 0.66362 0.85608 0.0
C1039 C 0.484 0.64587 0.86546 0.0
C1040 C 0.49762 0.64816 0.84575 0.0
C1041 C 0.47455 0.61488 0.84452 0.0
C1042 C 0.461 0.59662 0.85435 0.0
C1043 C 0.46585 0.61192 0.86467 0.0
H1044 H 0.51844 0.72556 0.96164 0.0
H1045 H 0.49848 0.63809 0.97909 0.0
H1046 H 0.53401 0.75524 0.97886 0.0
H1047 H 0.51678 0.66843 0.99646 0.0
H1048 H 0.52339 0.79905 0.00659 0.0
H1049 H 0.55255 0.77937 0.99541 0.0
H1050 H 0.49008 0.68261 0.00835 0.0
H1051 H 0.46341 0.70294 0.02007 0.0
C1052 C 0.51891 0.71296 0.96912 0.0
C1053 C 0.50601 0.67921 0.96906 0.0
C1054 C 0.52813 0.73017 0.97915 0.0
C1055 C 0.52522 0.71415 0.98938 0.0
C1056 C 0.51769 0.68146 0.98893 0.0
C1057 C 0.50754 0.664 0.97892 0.0
C1058 C 0.51719 0.77395 0.00752 0.0
C1059 C 0.4895 0.75201 0.0136 0.0
C1060 C 0.5335 0.76239 0.00088 0.0
C1061 C 0.52177 0.72873 6e-05 0.0
C1062 C 0.49928 0.70848 0.0082 0.0
C1063 C 0.48369 0.72023 0.01505 0.0
H1064 H 0.22962 0.79863 0.99464 0.0
H1065 H 0.16819 0.70518 0.00989 0.0
H1066 H 0.27197 0.80928 0.00772 0.0
H1067 H 0.20988 0.71697 0.0238 0.0
H1068 H 0.3025 0.70888 0.0203 0.0
H1069 H 0.25263 0.70993 0.02048 0.0
H1070 H 0.30668 0.81499 0.0215 0.0
H1071 H 0.35717 0.81365 0.02051 0.0
C1072 C 0.22446 0.78094 0.00118 0.0
C1073 C 0.19637 0.75015 0.00076 0.0
C1074 C 0.24899 0.78716 0.00884 0.0
C1075 C 0.24549 0.76295 0.01642 0.0
C1076 C 0.2144 0.7353 0.0176 0.0
C1077 C 0.19015 0.72868 0.0097 0.0
C1078 C 0.30389 0.73228 0.02081 0.0
C1079 C 0.33381 0.76118 0.01987 0.0
C1080 C 0.27494 0.73297 0.02105 0.0
C1081 C 0.27512 0.76266 0.02052 0.0
C1082 C 0.30533 0.7916 0.02137 0.0
C1083 C 0.33441 0.79089 0.02089 0.0
H1084 H 0.26646 0.72023 0.95595 0.0
H1085 H 0.19948 0.62517 0.96917 0.0
H1086 H 0.30648 0.70366 0.95291 0.0
H1087 H 0.23969 0.60828 0.96587 0.0
H1088 H 0.35914 0.65681 0.93805 0.0
H1089 H 0.31532 0.66826 0.94087 0.0
H1090 H 0.29334 0.6189 0.97269 0.0
H1091 H 0.33725 0.60683 0.96974 0.0
C1092 C 0.26009 0.69564 0.95811 0.0
C1093 C 0.22963 0.674 0.96277 0.0
C1094 C 0.28306 0.68608 0.95632 0.0
C1095 C 0.27623 0.65457 0.95908 0.0
C1096 C 0.24577 0.6328 0.96373 0.0
C1097 C 0.22266 0.64241 0.96554 0.0
C1098 C 0.34492 0.64824 0.94564 0.0
C1099 C 0.35192 0.63125 0.95374 0.0
C1100 C 0.31986 0.65494 0.94728 0.0
C1101 C 0.30109 0.64489 0.95707 0.0
C1102 C 0.30726 0.62684 0.96502 0.0
C1103 C 0.33244 0.62002 0.96336 0.0
H1104 H 0.21564 0.46008 0.50638 0.0
H1105 H 0.26819 0.42263 0.48817 0.0
H1106 H 0.26191 0.48924 0.51873 0.0
H1107 H 0.31499 0.45364 0.49968 0.0
H1108 H 0.40602 0.53294 0.51003 0.0
H1109 H 0.35453 0.48248 0.51214 0.0
H1110 H 0.30486 0.53774 0.51412 0.0
H1111 H 0.3559 0.58728 0.51283 0.0
C1112 C 0.23663 0.45716 0.50522 0.0
C1113 C 0.23899 0.44067 0.49586 0.0
C1114 C 0.26352 0.4744 0.5122 0.0
C1115 C 0.29335 0.47615 0.5097 0.0
C1116 C 0.29313 0.45415 0.50178 0.0
C1117 C 0.26599 0.43621 0.49504 0.0
C1118 C 0.38408 0.53414 0.51127 0.0
C1119 C 0.38492 0.56406 0.51085 0.0
C1120 C 0.35441 0.50515 0.51241 0.0
C1121 C 0.32492 0.50549 0.51283 0.0
C1122 C 0.32655 0.5358 0.51378 0.0
C1123 C 0.35613 0.56462 0.51289 0.0
H1124 H 0.57366 0.71188 0.4933 0.0
H1125 H 0.5216 0.74866 0.51211 0.0
H1126 H 0.59909 0.76134 0.48227 0.0
H1127 H 0.54432 0.79633 0.50062 0.0
H1128 H 0.54415 0.85288 0.47333 0.0
H1129 H 0.56737 0.83813 0.48882 0.0
H1130 H 0.57459 0.76854 0.46746 0.0
H1131 H 0.55409 0.7852 0.45206 0.0
C1132 C 0.56855 0.73102 0.49541 0.0
C1133 C 0.5438 0.72536 0.50304 0.0
C1134 C 0.58263 0.75926 0.48888 0.0
C1135 C 0.57154 0.78171 0.48975 0.0
C1136 C 0.55274 0.77933 0.49919 0.0
C1137 C 0.53948 0.75161 0.50591 0.0
C1138 C 0.55198 0.83536 0.4719 0.0
C1139 C 0.54629 0.81945 0.46157 0.0
C1140 C 0.565 0.82653 0.48083 0.0
C1141 C 0.5714 0.80071 0.47973 0.0
C1142 C 0.56987 0.78823 0.46892 0.0
C1143 C 0.55776 0.7977 0.45995 0.0
H1144 H 0.39086 0.70249 0.43635 0.0
H1145 H 0.37703 0.72975 0.46944 0.0
H1146 H 0.34739 0.64751 0.43953 0.0
H1147 H 0.33319 0.67372 0.47271 0.0
H1148 H 0.30223 0.54647 0.45353 0.0
H1149 H 0.34214 0.60328 0.45106 0.0
H1150 H 0.27722 0.63059 0.46651 0.0
H1151 H 0.23698 0.57306 0.46923 0.0
C1152 C 0.37854 0.69673 0.44435 0.0
C1153 C 0.38777 0.72043 0.45272 0.0
C1154 C 0.35361 0.66509 0.44617 0.0
C1155 C 0.33719 0.65609 0.45644 0.0
C1156 C 0.34541 0.67998 0.46471 0.0
C1157 C 0.37052 0.71197 0.46285 0.0
C1158 C 0.29622 0.56443 0.45638 0.0
C1159 C 0.26622 0.55511 0.4615 0.0
C1160 C 0.31915 0.5971 0.45493 0.0
C1161 C 0.31274 0.62147 0.45849 0.0
C1162 C 0.2829 0.61234 0.46373 0.0
C1163 C 0.25979 0.57943 0.4652 0.0
H1164 H 0.24309 0.66125 0.31146 0.0
H1165 H 0.19076 0.67557 0.33816 0.0
H1166 H 0.19746 0.60688 0.30832 0.0
H1167 H 0.14627 0.62054 0.3358 0.0
H1168 H 0.0779 0.52147 0.33745 0.0
H1169 H 0.10364 0.57463 0.32859 0.0
H1170 H 0.18134 0.5594 0.31715 0.0
H1171 H 0.15446 0.50604 0.32521 0.0
C1172 C 0.22153 0.65275 0.31657 0.0
C1173 C 0.22057 0.67221 0.32519 0.0
C1174 C 0.1954 0.62146 0.31484 0.0
C1175 C 0.16828 0.60843 0.32202 0.0
C1176 C 0.16635 0.62927 0.33 0.0
C1177 C 0.19209 0.66095 0.33147 0.0
C1178 C 0.09953 0.52887 0.33248 0.0
C1179 C 0.1149 0.51017 0.33245 0.0
C1180 C 0.11473 0.5597 0.32757 0.0
C1181 C 0.1458 0.5725 0.32277 0.0
C1182 C 0.15785 0.55115 0.32095 0.0
C1183 C 0.14223 0.52007 0.3256 0.0
H1184 H 0.24895 0.50026 0.36448 0.0
H1185 H 0.2307 0.57567 0.35293 0.0
H1186 H 0.30733 0.54006 0.36556 0.0
H1187 H 0.28869 0.61487 0.3537 0.0
H1188 H 0.39726 0.6751 0.35021 0.0
H1189 H 0.34566 0.62654 0.34521 0.0
H1190 H 0.33505 0.59208 0.37915 0.0
H1191 H 0.38582 0.64086 0.38417 0.0
C1192 C 0.25749 0.52513 0.36197 0.0
C1193 C 0.23537 0.53504 0.35876 0.0
C1194 C 0.29077 0.54779 0.36257 0.0
C1195 C 0.30242 0.5804 0.35963 0.0
C1196 C 0.2804 0.58981 0.35587 0.0
C1197 C 0.24721 0.56745 0.35555 0.0
C1198 C 0.38436 0.65654 0.35646 0.0
C1199 C 0.39531 0.66144 0.36754 0.0
C1200 C 0.35488 0.62894 0.35363 0.0
C1201 C 0.3365 0.60565 0.36181 0.0
C1202 C 0.34892 0.60945 0.37267 0.0
C1203 C 0.37787 0.63734 0.37554 0.0
H1204 H 0.36778 0.86607 0.33214 0.0
H1205 H 0.39579 0.80891 0.3121 0.0
H1206 H 0.42038 0.89153 0.34125 0.0
H1207 H 0.4468 0.83178 0.3218 0.0
H1208 H 0.50295 0.82587 0.34859 0.0
H1209 H 0.49049 0.85285 0.33363 0.0
H1210 H 0.42128 0.85951 0.35535 0.0
H1211 H 0.43414 0.83384 0.36994 0.0
C1212 C 0.38568 0.86001 0.32925 0.0
C1213 C 0.3766 0.83319 0.32221 0.0
C1214 C 0.41581 0.87421 0.33465 0.0
C1215 C 0.43635 0.86103 0.33319 0.0
C1216 C 0.43101 0.84138 0.32374 0.0
C1217 C 0.40141 0.82813 0.31807 0.0
C1218 C 0.48594 0.83423 0.35023 0.0
C1219 C 0.46897 0.82689 0.36042 0.0
C1220 C 0.47865 0.84963 0.34162 0.0
C1221 C 0.454 0.85763 0.34301 0.0
C1222 C 0.44039 0.85402 0.35373 0.0
C1223 C 0.44767 0.8388 0.36226 0.0
H1224 H 0.16345 0.1872 0.27213 0.0
H1225 H 0.21255 0.13224 0.26767 0.0
H1226 H 0.15975 0.1907 0.25191 0.0
H1227 H 0.2088 0.13586 0.24746 0.0
H1228 H 0.20591 0.161 0.21038 0.0
H1229 H 0.22239 0.17189 0.23002 0.0
H1230 H 0.12384 0.14284 0.23933 0.0
H1231 H 0.10732 0.13174 0.21987 0.0
C1232 C 0.17441 0.17679 0.26686 0.0
C1233 C 0.18781 0.15897 0.27151 0.0
C1234 C 0.17204 0.17859 0.25528 0.0
C1235 C 0.18341 0.16299 0.24815 0.0
C1236 C 0.19979 0.14806 0.25277 0.0
C1237 C 0.20186 0.14596 0.26435 0.0
C1238 C 0.18782 0.15702 0.21664 0.0
C1239 C 0.15527 0.14531 0.21358 0.0
C1240 C 0.19728 0.1633 0.22785 0.0
C1241 C 0.17448 0.15858 0.23617 0.0
C1242 C 0.14207 0.14727 0.23308 0.0
C1243 C 0.13254 0.14055 0.22193 0.0
H1244 H 0.86256 0.08689 0.24799 0.0
H1245 H 0.8082 0.04033 0.21814 0.0
H1246 H 0.8273 0.03857 0.25876 0.0
H1247 H 0.77258 0.99188 0.22899 0.0
H1248 H 0.77435 0.90474 0.24778 0.0
H1249 H 0.78579 0.95231 0.23683 0.0
H1250 H 0.77463 0.99806 0.26631 0.0
H1251 H 0.76351 0.95048 0.27733 0.0
C1252 C 0.84239 0.06676 0.24379 0.0
C1253 C 0.83862 0.06736 0.23216 0.0
C1254 C 0.82199 0.03898 0.24999 0.0
C1255 C 0.79738 0.01106 0.24471 0.0
C1256 C 0.79163 0.01278 0.23328 0.0
C1257 C 0.81193 0.04071 0.22708 0.0
C1258 C 0.77323 0.92444 0.25188 0.0
C1259 C 0.76868 0.92397 0.26349 0.0
C1260 C 0.7797 0.9518 0.24557 0.0
C1261 C 0.7818 0.97935 0.25073 0.0
C1262 C 0.77381 0.97749 0.26212 0.0
C1263 C 0.76719 0.95005 0.26843 0.0
H1264 H 0.04027 0.85824 0.29401 0.0
H1265 H 0.97607 0.89577 0.28691 0.0
H1266 H 0.04453 0.85043 0.27408 0.0
H1267 H 0.98032 0.88775 0.26695 0.0
H1268 H 0.97221 0.84113 0.2328 0.0
H1269 H 0.96489 0.84056 0.2531 0.0
H1270 H 0.0688 0.88849 0.25757 0.0
H1271 H 0.07609 0.88935 0.2374 0.0
C1272 C 0.02711 0.86488 0.2882 0.0
C1273 C 0.00795 0.87779 0.29205 0.0
C1274 C 0.02953 0.86034 0.2768 0.0
C1275 C 0.01253 0.86821 0.269 0.0
C1276 C 0.99329 0.88102 0.27281 0.0
C1277 C 0.99118 0.88597 0.28422 0.0
C1278 C 0.99336 0.85071 0.23816 0.0
C1279 C 0.02471 0.8653 0.23355 0.0
C1280 C 0.9892 0.85074 0.24974 0.0
C1281 C 0.01631 0.8648 0.25687 0.0
C1282 C 0.04748 0.87742 0.25228 0.0
C1283 C 0.05164 0.87789 0.24074 0.0
H1284 H 0.82703 0.79011 0.72926 0.0
H1285 H 0.89043 0.7958 0.75604 0.0
H1286 H 0.78706 0.78629 0.74293 0.0
H1287 H 0.85029 0.79134 0.76965 0.0
H1288 H 0.77816 0.78448 0.79317 0.0
H1289 H 0.79185 0.76012 0.77769 0.0
H1290 H 0.79829 0.8349 0.75564 0.0
H1291 H 0.78532 0.85961 0.77114 0.0
C1292 C 0.83188 0.7892 0.73804 0.0
C1293 C 0.86207 0.7937 0.74159 0.0
C1294 C 0.80901 0.7871 0.74586 0.0
C1295 C 0.81564 0.78871 0.75734 0.0
C1296 C 0.84435 0.78974 0.76086 0.0
C1297 C 0.86746 0.79249 0.75306 0.0
C1298 C 0.78083 0.79476 0.7849 0.0
C1299 C 0.78108 0.8242 0.78337 0.0
C1300 C 0.78894 0.78092 0.77606 0.0
C1301 C 0.79665 0.79591 0.76552 0.0
C1302 C 0.7924 0.82273 0.76366 0.0
C1303 C 0.78493 0.83691 0.77254 0.0
H1304 H 0.05189 0.91382 0.7578 0.0
H1305 H 0.15208 0.98658 0.76304 0.0
H1306 H 0.05716 0.92738 0.73803 0.0
H1307 H 0.15711 0.00182 0.74337 0.0
H1308 H 0.05926 0.98501 0.70823 0.0
H1309 H 0.05896 0.96934 0.72755 0.0
H1310 H 0.15869 0.99192 0.72426 0.0
H1311 H 0.15931 0.00922 0.70504 0.0
C1312 C 0.07526 0.93233 0.75464 0.0
C1313 C 0.10159 0.94907 0.76192 0.0
C1314 C 0.07819 0.9406 0.74334 0.0
C1315 C 0.10728 0.9665 0.7391 0.0
C1316 C 0.13432 0.98175 0.74627 0.0
C1317 C 0.13155 0.97292 0.75756 0.0
C1318 C 0.08129 0.98717 0.7117 0.0
C1319 C 0.10932 0.99846 0.70512 0.0
C1320 C 0.08102 0.97766 0.72275 0.0
C1321 C 0.10857 0.97852 0.72747 0.0
C1322 C 0.13703 0.99098 0.72098 0.0
C1323 C 0.13745 0.00104 0.70995 0.0
H1324 H 0.9631 0.19399 0.71321 0.0
H1325 H 0.06696 0.25465 0.70987 0.0
H1326 H 0.96798 0.20307 0.73341 0.0
H1327 H 0.07175 0.26386 0.72996 0.0
H1328 H 0.06035 0.19537 0.76072 0.0
H1329 H 0.05935 0.21299 0.74172 0.0
H1330 H 0.98982 0.24153 0.75155 0.0
H1331 H 0.99172 0.22461 0.77086 0.0
C1332 C 0.9867 0.21064 0.7167 0.0
C1333 C 0.01474 0.22309 0.71005 0.0
C1334 C 0.98951 0.21582 0.72827 0.0
C1335 C 0.02034 0.23359 0.73323 0.0
C1336 C 0.04777 0.24972 0.72634 0.0
C1337 C 0.045 0.24447 0.71485 0.0
C1338 C 0.04559 0.20628 0.75889 0.0
C1339 C 0.02621 0.20878 0.76719 0.0
C1340 C 0.0451 0.21653 0.74804 0.0
C1341 C 0.02462 0.2288 0.74519 0.0
C1342 C 0.00595 0.23235 0.75357 0.0
C1343 C 0.00714 0.22284 0.76458 0.0
H1344 H 0.91111 0.47623 0.57824 0.0
H1345 H 0.91684 0.53082 0.54866 0.0
H1346 H 0.89987 0.51195 0.58941 0.0
H1347 H 0.90596 0.56702 0.55991 0.0
H1348 H 0.81152 0.55451 0.57832 0.0
H1349 H 0.85236 0.55059 0.56741 0.0
H1350 H 0.90778 0.56242 0.59736 0.0
H1351 H 0.86648 0.56593 0.60835 0.0
C1352 C 0.91141 0.49674 0.57418 0.0
C1353 C 0.91391 0.50005 0.56251 0.0
C1354 C 0.90507 0.51744 0.58062 0.0
C1355 C 0.90109 0.54187 0.57551 0.0
C1356 C 0.90815 0.54796 0.56406 0.0
C1357 C 0.91465 0.52731 0.55762 0.0
C1358 C 0.83299 0.55753 0.58254 0.0
C1359 C 0.83522 0.55959 0.59425 0.0
C1360 C 0.85664 0.55546 0.57626 0.0
C1361 C 0.88303 0.55537 0.58154 0.0
C1362 C 0.8874 0.56172 0.59307 0.0
C1363 C 0.86377 0.56394 0.59936 0.0
H1364 H 0.49095 0.23905 0.55845 0.0
H1365 H 0.50148 0.33465 0.55942 0.0
H1366 H 0.48705 0.23582 0.57868 0.0
H1367 H 0.49716 0.33105 0.57991 0.0
H1368 H 0.46845 0.29476 0.61774 0.0
H1369 H 0.45836 0.29292 0.59753 0.0
H1370 H 0.53743 0.27489 0.59153 0.0
H1371 H 0.54798 0.27743 0.61152 0.0
C1372 C 0.49169 0.25912 0.56297 0.0
C1373 C 0.49715 0.2874 0.55735 0.0
C1374 C 0.48942 0.25718 0.57456 0.0
C1375 C 0.49229 0.28334 0.58082 0.0
C1376 C 0.49484 0.31054 0.57522 0.0
C1377 C 0.49728 0.31258 0.56353 0.0
C1378 C 0.48335 0.29 0.61208 0.0
C1379 C 0.50894 0.2861 0.61618 0.0
C1380 C 0.47773 0.28922 0.60056 0.0
C1381 C 0.49708 0.28371 0.59303 0.0
C1382 C 0.52202 0.27895 0.59718 0.0
C1383 C 0.52807 0.28043 0.60861 0.0
H1384 H 0.64692 0.12022 0.53777 0.0
H1385 H 0.61582 0.18888 0.54591 0.0
H1386 H 0.64294 0.10507 0.5576 0.0
H1387 H 0.61105 0.17318 0.56551 0.0
H1388 H 0.57652 0.11927 0.59722 0.0
H1389 H 0.57528 0.11763 0.57692 0.0
H1390 H 0.67599 0.14319 0.57627 0.0
H1391 H 0.6775 0.14521 0.59679 0.0
C1392 C 0.63858 0.13152 0.54375 0.0
C1393 C 0.63156 0.15565 0.54033 0.0
C1394 C 0.63657 0.12303 0.55506 0.0
C1395 C 0.62662 0.13792 0.56302 0.0
C1396 C 0.61853 0.16116 0.55951 0.0
C1397 C 0.62128 0.17017 0.54831 0.0
C1398 C 0.59822 0.12366 0.59279 0.0
C1399 C 0.6273 0.13294 0.59858 0.0
C1400 C 0.59744 0.1227 0.58117 0.0
C1401 C 0.62563 0.13075 0.57508 0.0
C1402 C 0.65392 0.13681 0.58083 0.0
C1403 C 0.65476 0.13791 0.59255 0.0
H1404 H 0.50789 0.19383 0.06573 0.0
H1405 H 0.49845 0.0995 0.06119 0.0
H1406 H 0.48481 0.17847 0.08426 0.0
H1407 H 0.47508 0.08378 0.08001 0.0
H1408 H 0.51469 0.11599 0.11744 0.0
H1409 H 0.50559 0.10519 0.09759 0.0
H1410 H 0.44142 0.14493 0.09747 0.0
H1411 H 0.45105 0.15633 0.11742 0.0
C1412 C 0.50007 0.16943 0.06863 0.0
C1413 C 0.50555 0.14808 0.06216 0.0
C1414 C 0.48639 0.16041 0.07922 0.0
C1415 C 0.47825 0.12992 0.08366 0.0
C1416 C 0.48128 0.1075 0.07682 0.0
C1417 C 0.49462 0.11645 0.06608 0.0
C1418 C 0.49773 0.1214 0.11327 0.0
C1419 C 0.48444 0.138 0.11888 0.0
C1420 C 0.49223 0.11488 0.10188 0.0
C1421 C 0.47344 0.12499 0.0959 0.0
C1422 C 0.45654 0.13746 0.10184 0.0
C1423 C 0.46198 0.1439 0.11327 0.0
H1424 H 0.75053 0.32557 0.06021 0.0
H1425 H 0.83966 0.41773 0.06207 0.0
H1426 H 0.7494 0.32124 0.08054 0.0
H1427 H 0.83803 0.41362 0.08252 0.0
H1428 H 0.78878 0.41004 0.11725 0.0
H1429 H 0.79524 0.41282 0.09702 0.0
H1430 H 0.78556 0.3177 0.09691 0.0
H1431 H 0.7798 0.31506 0.11733 0.0
C1432 C 0.76996 0.34487 0.06497 0.0
C1433 C 0.79511 0.37212 0.05955 0.0
C1434 C 0.76938 0.34223 0.07659 0.0
C1435 C 0.79358 0.36709 0.08308 0.0
C1436 C 0.81903 0.39416 0.07769 0.0
C1437 C 0.82001 0.39647 0.06601 0.0
C1438 C 0.788 0.38965 0.11294 0.0
C1439 C 0.78358 0.36221 0.1189 0.0
C1440 C 0.79202 0.39143 0.10137 0.0
C1441 C 0.79108 0.36558 0.09543 0.0
C1442 C 0.7864 0.33797 0.10132 0.0
C1443 C 0.78309 0.33647 0.11298 0.0
H1444 H 0.7694 0.60288 0.09043 0.0
H1445 H 0.70323 0.57826 0.1182 0.0
H1446 H 0.72753 0.59866 0.0778 0.0
H1447 H 0.66101 0.57375 0.10548 0.0
H1448 H 0.60288 0.49424 0.07663 0.0
H1449 H 0.63549 0.52668 0.09224 0.0
H1450 H 0.68467 0.61003 0.07056 0.0
H1451 H 0.65156 0.57739 0.05489 0.0
C1452 C 0.74633 0.59797 0.0939 0.0
C1453 C 0.73939 0.59023 0.10525 0.0
C1454 C 0.72228 0.59571 0.08666 0.0
C1455 C 0.6907 0.58524 0.09061 0.0
C1456 C 0.68502 0.58154 0.10219 0.0
C1457 C 0.70929 0.58427 0.10947 0.0
C1458 C 0.61939 0.51993 0.07533 0.0
C1459 C 0.62508 0.53315 0.06453 0.0
C1460 C 0.63813 0.53864 0.0843 0.0
C1461 C 0.66323 0.57078 0.08258 0.0
C1462 C 0.66577 0.58522 0.07209 0.0
C1463 C 0.64661 0.56657 0.06314 0.0
H1464 H 0.458 0.80952 0.96982 0.0
H1465 H 0.3868 0.70713 0.97 0.0
H1466 H 0.47635 0.80367 0.95131 0.0
H1467 H 0.40507 0.70169 0.95162 0.0
H1468 H 0.46934 0.68931 0.92803 0.0
H1469 H 0.45601 0.70427 0.94593 0.0
H1470 H 0.46017 0.78847 0.93083 0.0
H1471 H 0.47387 0.77375 0.91283 0.0
C1472 C 0.44575 0.78597 0.96582 0.0
C1473 C 0.42121 0.75868 0.97146 0.0
C1474 C 0.45636 0.78266 0.95524 0.0
C1475 C 0.44264 0.75203 0.95016 0.0
C1476 C 0.4166 0.72537 0.95547 0.0
C1477 C 0.40599 0.72859 0.96598 0.0
C1478 C 0.46814 0.7114 0.92858 0.0
C1479 C 0.47225 0.73009 0.91901 0.0
C1480 C 0.46025 0.71976 0.93877 0.0
C1481 C 0.4561 0.74686 0.93967 0.0
C1482 C 0.46296 0.76726 0.93035 0.0
C1483 C 0.47101 0.75893 0.92008 0.0
H1484 H 0.06659 0.65444 0.95008 0.0
H1485 H 0.13986 0.74704 0.93695 0.0
H1486 H 0.04028 0.64028 0.93186 0.0
H1487 H 0.11535 0.73233 0.91876 0.0
H1488 H 0.08445 0.70232 0.88538 0.0
H1489 H 0.07975 0.71843 0.90428 0.0
H1490 H 0.05308 0.62226 0.91608 0.0
H1491 H 0.05546 0.60587 0.89728 0.0
C1492 C 0.07675 0.67203 0.94337 0.0
C1493 C 0.10588 0.70146 0.9449 0.0
C1494 C 0.06185 0.66381 0.93286 0.0
C1495 C 0.07619 0.68454 0.92361 0.0
C1496 C 0.10327 0.71547 0.92554 0.0
C1497 C 0.11771 0.72389 0.93605 0.0
C1498 C 0.07638 0.68434 0.89197 0.0
C1499 C 0.07142 0.65314 0.88987 0.0
C1500 C 0.07403 0.69366 0.90287 0.0
C1501 C 0.06746 0.67219 0.9119 0.0
C1502 C 0.05842 0.63979 0.9095 0.0
C1503 C 0.06007 0.63034 0.89861 0.0
H1504 H 0.37628 0.61604 0.86667 0.0
H1505 H 0.30841 0.51282 0.86786 0.0
H1506 H 0.39857 0.61259 0.88447 0.0
H1507 H 0.33152 0.50962 0.88585 0.0
H1508 H 0.45757 0.59992 0.909 0.0
H1509 H 0.43181 0.58646 0.89068 0.0
H1510 H 0.33765 0.53289 0.90622 0.0
H1511 H 0.36351 0.54501 0.92461 0.0
C1512 C 0.3659 0.59261 0.87075 0.0
C1513 C 0.34046 0.56471 0.8658 0.0
C1514 C 0.37911 0.59062 0.88088 0.0
C1515 C 0.36746 0.56075 0.88638 0.0
C1516 C 0.3412 0.53291 0.88172 0.0
C1517 C 0.32793 0.53482 0.87146 0.0
C1518 C 0.4315 0.58411 0.9085 0.0
C1519 C 0.41253 0.5738 0.91822 0.0
C1520 C 0.41673 0.57681 0.89802 0.0
C1521 C 0.38273 0.55977 0.89707 0.0
C1522 C 0.36391 0.54627 0.90671 0.0
C1523 C 0.37876 0.5531 0.91724 0.0
H1524 H 0.10373 0.41619 0.44856 0.0
H1525 H 0.17162 0.39363 0.43266 0.0
H1526 H 0.07479 0.40694 0.43093 0.0
H1527 H 0.14401 0.38604 0.41507 0.0
H1528 H 0.10384 0.38519 0.38296 0.0
H1529 H 0.10267 0.3645 0.40169 0.0
H1530 H 0.09039 0.44164 0.41553 0.0
H1531 H 0.09001 0.46108 0.39696 0.0
C1532 C 0.11206 0.40854 0.44138 0.0
C1533 C 0.14056 0.40661 0.44194 0.0
C1534 C 0.09558 0.40342 0.43124 0.0
C1535 C 0.10756 0.39673 0.42144 0.0
C1536 C 0.13386 0.39114 0.42236 0.0
C1537 C 0.15003 0.39584 0.4325 0.0
C1538 C 0.09975 0.39699 0.38999 0.0
C1539 C 0.098 0.42537 0.38849 0.0
C1540 C 0.09931 0.38527 0.40076 0.0
C1541 C 0.09745 0.40192 0.4102 0.0
C1542 C 0.09187 0.42801 0.40854 0.0
C1543 C 0.09199 0.43947 0.39782 0.0
H1544 H 0.48704 0.77265 0.41975 0.0
H1545 H 0.49812 0.69905 0.4026 0.0
H1546 H 0.4835 0.7461 0.43752 0.0
H1547 H 0.49358 0.67184 0.42046 0.0
H1548 H 0.42839 0.67077 0.46328 0.0
H1549 H 0.43941 0.69631 0.44504 0.0
H1550 H 0.51529 0.67314 0.43965 0.0
H1551 H 0.50393 0.64691 0.45804 0.0
C1552 C 0.48938 0.75116 0.41981 0.0
C1553 C 0.49262 0.73785 0.40978 0.0
C1554 C 0.48693 0.73573 0.42997 0.0
C1555 C 0.48716 0.70633 0.43036 0.0
C1556 C 0.49311 0.69436 0.42044 0.0
C1557 C 0.49591 0.71006 0.41022 0.0
C1558 C 0.44715 0.67065 0.45818 0.0
C1559 C 0.46544 0.65698 0.46217 0.0
C1560 C 0.45369 0.68562 0.44774 0.0
C1561 C 0.4788 0.68754 0.441 0.0
C1562 C 0.4959 0.67221 0.44467 0.0
C1563 C 0.48928 0.65706 0.45517 0.0
H1564 H 0.39155 0.82102 0.42624 0.0
H1565 H 0.47201 0.84135 0.40449 0.0
H1566 H 0.35578 0.80718 0.40994 0.0
H1567 H 0.43659 0.82804 0.38844 0.0
H1568 H 0.31372 0.80661 0.37297 0.0
H1569 H 0.34648 0.82849 0.38996 0.0
H1570 H 0.38906 0.76822 0.38436 0.0
H1571 H 0.35712 0.74675 0.36744 0.0
C1572 C 0.40189 0.82374 0.41798 0.0
C1573 C 0.43456 0.83189 0.41665 0.0
C1574 C 0.38134 0.81561 0.40867 0.0
C1575 C 0.39322 0.81557 0.39793 0.0
C1576 C 0.42652 0.82688 0.39659 0.0
C1577 C 0.44694 0.8349 0.40582 0.0
C1578 C 0.32976 0.79771 0.37545 0.0
C1579 C 0.33293 0.77507 0.36876 0.0
C1580 C 0.34856 0.81034 0.38515 0.0
C1581 C 0.37097 0.80072 0.38827 0.0
C1582 C 0.3728 0.77689 0.38192 0.0
C1583 C 0.35415 0.7643 0.37229 0.0
H1584 H 0.25018 0.15848 0.14608 0.0
H1585 H 0.26929 0.20379 0.17858 0.0
H1586 H 0.30564 0.16854 0.14529 0.0
H1587 H 0.32498 0.21432 0.17769 0.0
H1588 H 0.40279 0.18285 0.17842 0.0
H1589 H 0.35068 0.18104 0.17875 0.0
H1590 H 0.36284 0.20981 0.14407 0.0
H1591 H 0.41475 0.21113 0.14368 0.0
C1592 C 0.26636 0.17111 0.15297 0.0
C1593 C 0.25516 0.1801 0.16243 0.0
C1594 C 0.29824 0.17699 0.1525 0.0
C1595 C 0.31971 0.19199 0.16147 0.0
C1596 C 0.30891 0.20223 0.17072 0.0
C1597 C 0.27704 0.1964 0.17118 0.0
C1598 C 0.39449 0.18902 0.17088 0.0
C1599 C 0.41291 0.19695 0.16101 0.0
C1600 C 0.36468 0.18819 0.17109 0.0
C1601 C 0.35252 0.19524 0.16143 0.0
C1602 C 0.37129 0.20387 0.15162 0.0
C1603 C 0.40115 0.20477 0.15142 0.0
H1604 H 0.8165 0.13008 0.1848 0.0
H1605 H 0.9013 0.18044 0.16376 0.0
H1606 H 0.79545 0.16364 0.17735 0.0
H1607 H 0.88004 0.21373 0.15625 0.0
H1608 H 0.85479 0.29586 0.15963 0.0
H1609 H 0.87296 0.25758 0.16425 0.0
H1610 H 0.77484 0.17788 0.16062 0.0
H1611 H 0.75654 0.21618 0.15608 0.0
C1612 C 0.83035 0.14784 0.17843 0.0
C1613 C 0.86074 0.15273 0.17496 0.0
C1614 C 0.81823 0.16704 0.17413 0.0
C1615 C 0.83627 0.19165 0.16631 0.0
C1616 C 0.86583 0.19537 0.16241 0.0
C1617 C 0.87787 0.17607 0.16666 0.0
C1618 C 0.83711 0.27018 0.15974 0.0
C1619 C 0.80419 0.25913 0.15753 0.0
C1620 C 0.84757 0.24819 0.16231 0.0
C1621 C 0.82534 0.21465 0.16279 0.0
C1622 C 0.79251 0.20357 0.16041 0.0
C1623 C 0.78207 0.22554 0.15777 0.0
H1624 H 0.94869 0.75631 0.18626 0.0
H1625 H 0.87014 0.77576 0.19154 0.0
H1626 H 0.9103 0.70264 0.17917 0.0
H1627 H 0.83154 0.72167 0.18452 0.0
H1628 H 0.78657 0.64255 0.15625 0.0
H1629 H 0.81874 0.69321 0.1664 0.0
H1630 H 0.86522 0.64969 0.18488 0.0
H1631 H 0.83343 0.59917 0.17464 0.0
C1632 C 0.92319 0.74907 0.18599 0.0
C1633 C 0.91255 0.77045 0.18943 0.0
C1634 C 0.9011 0.71813 0.18201 0.0
C1635 C 0.8678 0.70779 0.18131 0.0
C1636 C 0.85705 0.72899 0.18488 0.0
C1637 C 0.87917 0.75994 0.18894 0.0
C1638 C 0.80318 0.64355 0.16263 0.0
C1639 C 0.80768 0.61687 0.16453 0.0
C1640 C 0.82158 0.67261 0.16847 0.0
C1641 C 0.84492 0.67565 0.17633 0.0
C1642 C 0.84791 0.64833 0.17872 0.0
C1643 C 0.82947 0.61927 0.17291 0.0
H1644 H 0.20241 0.39951 0.33013 0.0
H1645 H 0.10482 0.35015 0.34341 0.0
H1646 H 0.19609 0.34751 0.32436 0.0
H1647 H 0.09831 0.29829 0.33744 0.0
H1648 H 0.1132 0.21015 0.33752 0.0
H1649 H 0.1182 0.26209 0.34251 0.0
H1650 H 0.1675 0.30307 0.31132 0.0
H1651 H 0.16309 0.25127 0.30642 0.0
C1652 C 0.1795 0.37762 0.33173 0.0
C1653 C 0.15419 0.37903 0.33728 0.0
C1654 C 0.17582 0.34779 0.32837 0.0
C1655 C 0.14673 0.31867 0.33048 0.0
C1656 C 0.12122 0.32018 0.33585 0.0
C1657 C 0.1249 0.34997 0.33921 0.0
C1658 C 0.12504 0.23019 0.33171 0.0
C1659 C 0.1378 0.22652 0.32158 0.0
C1660 C 0.12774 0.25996 0.33454 0.0
C1661 C 0.14325 0.2868 0.32731 0.0
C1662 C 0.15578 0.28304 0.31714 0.0
C1663 C 0.15308 0.25326 0.31431 0.0
H1664 H 0.59078 0.77969 0.36481 0.0
H1665 H 0.54784 0.77861 0.33292 0.0
H1666 H 0.64461 0.80734 0.35629 0.0
H1667 H 0.60142 0.80542 0.32436 0.0
H1668 H 0.70192 0.88242 0.31415 0.0
H1669 H 0.65009 0.85751 0.32397 0.0
H1670 H 0.67937 0.80007 0.34348 0.0
H1671 H 0.7315 0.82559 0.33388 0.0
C1672 C 0.59277 0.78494 0.35595 0.0
C1673 C 0.56497 0.77698 0.34956 0.0
C1674 C 0.62366 0.80079 0.35106 0.0
C1675 C 0.62746 0.80898 0.33965 0.0
C1676 C 0.59953 0.80021 0.33322 0.0
C1677 C 0.56872 0.78449 0.33811 0.0
C1678 C 0.69751 0.86484 0.32065 0.0
C1679 C 0.72085 0.85592 0.32318 0.0
C1680 C 0.66763 0.85029 0.32621 0.0
C1681 C 0.66029 0.82637 0.3344 0.0
C1682 C 0.6842 0.81849 0.33726 0.0
C1683 C 0.71414 0.83314 0.33173 0.0
H1684 H 0.06931 0.81806 0.31976 0.0
H1685 H 0.08359 0.82981 0.35544 0.0
H1686 H 0.11335 0.80646 0.31831 0.0
H1687 H 0.12691 0.81664 0.35408 0.0
H1688 H 0.22596 0.82697 0.34617 0.0
H1689 H 0.18113 0.83787 0.34801 0.0
H1690 H 0.12925 0.76836 0.32185 0.0
H1691 H 0.17448 0.75881 0.31969 0.0
C1692 C 0.08144 0.81752 0.32735 0.0
C1693 C 0.07288 0.82485 0.33772 0.0
C1694 C 0.10674 0.81073 0.32652 0.0
C1695 C 0.12391 0.8106 0.33607 0.0
C1696 C 0.11473 0.8171 0.34651 0.0
C1697 C 0.08963 0.82432 0.34731 0.0
C1698 C 0.20502 0.81422 0.34078 0.0
C1699 C 0.20393 0.79226 0.33272 0.0
C1700 C 0.17914 0.82021 0.34189 0.0
C1701 C 0.15141 0.80404 0.33507 0.0
C1702 C 0.15036 0.78184 0.3271 0.0
C1703 C 0.17634 0.77623 0.32588 0.0
H1704 H 0.68609 0.79514 0.82991 0.0
H1705 H 0.72567 0.88087 0.85063 0.0
H1706 H 0.63189 0.7786 0.83688 0.0
H1707 H 0.67135 0.86486 0.85733 0.0
H1708 H 0.57416 0.80383 0.87614 0.0
H1709 H 0.62893 0.82552 0.86889 0.0
H1710 H 0.59014 0.7928 0.8358 0.0
H1711 H 0.53524 0.77017 0.84312 0.0
C1712 C 0.68323 0.81048 0.83594 0.0
C1713 C 0.71022 0.83927 0.83973 0.0
C1714 C 0.65208 0.80119 0.83985 0.0
C1715 C 0.64716 0.82057 0.84759 0.0
C1716 C 0.67425 0.84921 0.85146 0.0
C1717 C 0.70542 0.8584 0.84759 0.0
C1718 C 0.57729 0.80178 0.86728 0.0
C1719 C 0.55027 0.78496 0.86023 0.0
C1720 C 0.60878 0.81427 0.86311 0.0
C1721 C 0.61396 0.81043 0.85179 0.0
C1722 C 0.58699 0.79544 0.84462 0.0
C1723 C 0.5555 0.78279 0.84879 0.0
H1724 H 0.19245 0.77151 0.82678 0.0
H1725 H 0.1214 0.76131 0.85136 0.0
H1726 H 0.1942 0.82047 0.81959 0.0
H1727 H 0.12272 0.80963 0.84408 0.0
H1728 H 0.15059 0.91181 0.83568 0.0
H1729 H 0.15736 0.86782 0.84298 0.0
H1730 H 0.16 0.83652 0.80934 0.0
H1731 H 0.15389 0.88106 0.80201 0.0
C1732 C 0.17722 0.77968 0.83065 0.0
C1733 C 0.15679 0.76245 0.83965 0.0
C1734 C 0.17813 0.80767 0.8265 0.0
C1735 C 0.15873 0.81911 0.83128 0.0
C1736 C 0.13844 0.8019 0.84031 0.0
C1737 C 0.1375 0.77398 0.84444 0.0
C1738 C 0.15308 0.89586 0.82982 0.0
C1739 C 0.15139 0.89982 0.81825 0.0
C1740 C 0.15673 0.87046 0.83401 0.0
C1741 C 0.1587 0.84828 0.82676 0.0
C1742 C 0.1587 0.85322 0.81517 0.0
C1743 C 0.15512 0.87873 0.81096 0.0
H1744 H 0.21712 0.44072 0.80459 0.0
H1745 H 0.23545 0.43158 0.83936 0.0
H1746 H 0.17126 0.38554 0.8048 0.0
H1747 H 0.18898 0.37666 0.83966 0.0
H1748 H 0.12517 0.26728 0.83159 0.0
H1749 H 0.17027 0.32277 0.83272 0.0
H1750 H 0.11716 0.35523 0.81225 0.0
H1751 H 0.07244 0.29959 0.81085 0.0
C1752 C 0.21139 0.42693 0.81228 0.0
C1753 C 0.22994 0.44057 0.82195 0.0
C1754 C 0.18487 0.39539 0.81243 0.0
C1755 C 0.17616 0.37678 0.82229 0.0
C1756 C 0.19512 0.39022 0.83191 0.0
C1757 C 0.22175 0.42174 0.83174 0.0
C1758 C 0.12289 0.28631 0.82747 0.0
C1759 C 0.09532 0.27896 0.82104 0.0
C1760 C 0.14878 0.31818 0.82813 0.0
C1761 C 0.14757 0.3434 0.82243 0.0
C1762 C 0.11923 0.33625 0.81651 0.0
C1763 C 0.09344 0.30439 0.8158 0.0
H1764 H 0.85071 0.61411 0.64633 0.0
H1765 H 0.75798 0.58826 0.6611 0.0
H1766 H 0.87594 0.665 0.65669 0.0
H1767 H 0.78277 0.63959 0.67106 0.0
H1768 H 0.84282 0.72145 0.69538 0.0
H1769 H 0.81776 0.66973 0.68566 0.0
H1770 H 0.87896 0.71615 0.65699 0.0
H1771 H 0.90502 0.7677 0.66694 0.0
C1772 C 0.83573 0.61926 0.65181 0.0
C1773 C 0.80236 0.5971 0.6529 0.0
C1774 C 0.85012 0.64862 0.65767 0.0
C1775 C 0.83139 0.6567 0.66465 0.0
C1776 C 0.79811 0.63414 0.66589 0.0
C1777 C 0.78383 0.60465 0.66015 0.0
C1778 C 0.85076 0.7207 0.68696 0.0
C1779 C 0.87596 0.74872 0.68194 0.0
C1780 C 0.8363 0.69097 0.68136 0.0
C1781 C 0.8464 0.68856 0.67053 0.0
C1782 C 0.87101 0.71686 0.6654 0.0
C1783 C 0.88574 0.74654 0.67106 0.0
H1784 H 0.40778 0.19777 0.67977 0.0
H1785 H 0.38996 0.24774 0.65297 0.0
H1786 H 0.3499 0.15851 0.68078 0.0
H1787 H 0.33191 0.20827 0.654 0.0
H1788 H 0.22698 0.14975 0.66778 0.0
H1789 H 0.2846 0.19024 0.66695 0.0
H1790 H 0.3087 0.11408 0.66872 0.0
H1791 H 0.25098 0.07346 0.66959 0.0
C1792 C 0.39152 0.20057 0.67415 0.0
C1793 C 0.40357 0.22594 0.66628 0.0
C1794 C 0.35835 0.17787 0.67467 0.0
C1795 C 0.33636 0.18012 0.66742 0.0
C1796 C 0.34824 0.20597 0.65974 0.0
C1797 C 0.3815 0.22854 0.65914 0.0
C1798 C 0.24453 0.14158 0.66798 0.0
C1799 C 0.23435 0.10833 0.66877 0.0
C1800 C 0.27756 0.16482 0.66745 0.0
C1801 C 0.30121 0.15539 0.6678 0.0
C1802 C 0.29105 0.12213 0.66856 0.0
C1803 C 0.25799 0.09885 0.66898 0.0
H1804 H 0.75166 0.18331 0.66605 0.0
H1805 H 0.74579 0.13876 0.63407 0.0
H1806 H 0.79809 0.17751 0.67103 0.0
H1807 H 0.79286 0.13361 0.63897 0.0
H1808 H 0.85763 0.10021 0.65622 0.0
H1809 H 0.81038 0.10474 0.65114 0.0
H1810 H 0.85439 0.19955 0.66645 0.0
H1811 H 0.90122 0.19472 0.67175 0.0
C1812 C 0.76032 0.17235 0.66005 0.0
C1813 C 0.74495 0.16154 0.64965 0.0
C1814 C 0.78715 0.16922 0.66289 0.0
C1815 C 0.79944 0.15525 0.65539 0.0
C1816 C 0.78389 0.14417 0.645 0.0
C1817 C 0.75697 0.14727 0.64217 0.0
C1818 C 0.85724 0.12204 0.65851 0.0
C1819 C 0.88324 0.14706 0.66443 0.0
C1820 C 0.83019 0.12471 0.65553 0.0
C1821 C 0.82844 0.15248 0.65839 0.0
C1822 C 0.85459 0.17758 0.66425 0.0
C1823 C 0.8816 0.17489 0.66724 0.0
H1824 H 0.08788 0.43693 0.48822 0.0
H1825 H 0.1201 0.53618 0.47878 0.0
H1826 H 0.03665 0.43087 0.49477 0.0
H1827 H 0.06859 0.53003 0.48547 0.0
H1828 H 0.93662 0.41924 0.49387 0.0
H1829 H 0.98797 0.43043 0.48557 0.0
H1830 H 0.03813 0.51951 0.50436 0.0
H1831 H 0.98665 0.50834 0.51278 0.0
C1832 C 0.08413 0.45753 0.4876 0.0
C1833 C 0.10808 0.48704 0.48297 0.0
C1834 C 0.05466 0.45395 0.49127 0.0
C1835 C 0.04855 0.47989 0.49052 0.0
C1836 C 0.0727 0.50966 0.48613 0.0
C1837 C 0.10211 0.51313 0.4823 0.0
C1838 C 0.95844 0.44154 0.4961 0.0
C1839 C 0.95755 0.46275 0.50408 0.0
C1840 C 0.98788 0.4478 0.4914 0.0
C1841 C 0.01705 0.47557 0.49446 0.0
C1842 C 0.01598 0.49791 0.50186 0.0
C1843 C 0.98651 0.49147 0.50668 0.0
H1844 H 0.49296 0.40359 0.52415 0.0
H1845 H 0.56156 0.43541 0.49686 0.0
H1846 H 0.48769 0.45166 0.52182 0.0
H1847 H 0.55679 0.4838 0.49468 0.0
H1848 H 0.51268 0.54909 0.48691 0.0
H1849 H 0.51937 0.50163 0.48877 0.0
H1850 H 0.51879 0.50963 0.52468 0.0
H1851 H 0.5115 0.5565 0.52283 0.0
C1852 C 0.50695 0.42084 0.51766 0.0
C1853 C 0.5277 0.4156 0.51071 0.0
C1854 C 0.50412 0.44856 0.51637 0.0
C1855 C 0.52198 0.47177 0.5081 0.0
C1856 C 0.54245 0.46633 0.50107 0.0
C1857 C 0.54529 0.4386 0.50236 0.0
C1858 C 0.51428 0.54088 0.4952 0.0
C1859 C 0.51141 0.55656 0.50471 0.0
C1860 C 0.51817 0.51369 0.49627 0.0
C1861 C 0.5193 0.50156 0.50689 0.0
C1862 C 0.51735 0.51786 0.51638 0.0
C1863 C 0.51345 0.54496 0.51531 0.0
H1864 H 0.61477 0.05406 0.49337 0.0
H1865 H 0.52681 0.05951 0.49449 0.0
H1866 H 0.58319 0.99727 0.48758 0.0
H1867 H 0.49539 0.00288 0.4887 0.0
H1868 H 0.46096 0.91338 0.46494 0.0
H1869 H 0.48949 0.96932 0.47171 0.0
H1870 H 0.54071 0.94394 0.49577 0.0
H1871 H 0.51229 0.88811 0.48906 0.0
C1872 C 0.58875 0.04319 0.49236 0.0
C1873 C 0.57333 0.06131 0.4944 0.0
C1874 C 0.57064 0.01061 0.48912 0.0
C1875 C 0.53678 0.99559 0.48773 0.0
C1876 C 0.52144 0.01383 0.48965 0.0
C1877 C 0.53947 0.04625 0.493 0.0
C1878 C 0.47792 0.9196 0.47179 0.0
C1879 C 0.48437 0.89624 0.47643 0.0
C1880 C 0.49426 0.95165 0.47567 0.0
C1881 C 0.51763 0.96109 0.48418 0.0
C1882 C 0.52322 0.9375 0.48908 0.0
C1883 C 0.50666 0.90542 0.48529 0.0
H1884 H 0.55128 0.0695 0.00011 0.0
H1885 H 0.46866 0.05009 0.0206 0.0
H1886 H 0.53331 0.01176 -0.00022 0.0
H1887 H 0.45028 0.99228 0.02004 0.0
H1888 H 0.45368 0.90158 0.03004 0.0
H1889 H 0.46901 0.95848 0.0285 0.0
H1890 H 0.49258 0.95811 0.99368 0.0
H1891 H 0.47796 0.90129 0.99528 0.0
C1892 C 0.52888 0.05286 0.00433 0.0
C1893 C 0.51162 0.06445 0.01049 0.0
C1894 C 0.51856 0.01971 0.00413 0.0
C1895 C 0.49067 0.99745 0.01005 0.0
C1896 C 0.47232 0.00888 0.01563 0.0
C1897 C 0.4827 0.042 0.01586 0.0
C1898 C 0.46229 0.91365 0.02206 0.0
C1899 C 0.46462 0.89688 0.01279 0.0
C1900 C 0.47076 0.94621 0.02115 0.0
C1901 C 0.48167 0.96277 0.01093 0.0
C1902 C 0.48445 0.94613 0.00168 0.0
C1903 C 0.47603 0.91354 0.00261 0.0
H1904 H 0.91501 0.4472 0.99181 0.0
H1905 H 0.93206 0.47469 0.02659 0.0
H1906 H 0.96674 0.49452 0.98692 0.0
H1907 H 0.98421 0.52191 0.02169 0.0
H1908 H 0.04685 0.62401 0.0058 0.0
H1909 H 0.00049 0.57315 0.01199 0.0
H1910 H 0.02578 0.5206 0.98846 0.0
H1911 H 0.07201 0.57163 0.98213 0.0
C1912 C 0.93003 0.46305 0.99844 0.0
C1913 C 0.91924 0.45729 0.00958 0.0
C1914 C 0.95982 0.49012 0.99564 0.0
C1915 C 0.97953 0.51215 0.0039 0.0
C1916 C 0.96937 0.50565 0.01511 0.0
C1917 C 0.93959 0.47847 0.01792 0.0
C1918 C 0.0427 0.60162 0.00199 0.0
C1919 C 0.06303 0.60195 0.9934 0.0
C1920 C 0.01623 0.5724 0.00561 0.0
C1921 C 0.00938 0.54278 0.00071 0.0
C1922 C 0.03018 0.54303 0.99232 0.0
C1923 C 0.05675 0.57227 0.98872 0.0
H1924 H 0.42225 0.51016 0.96975 0.0
H1925 H 0.44854 0.5849 0.99465 0.0
H1926 H 0.45537 0.49169 0.97933 0.0
H1927 H 0.48254 0.56751 0.0039 0.0
H1928 H 0.52913 0.51942 0.02239 0.0
H1929 H 0.48734 0.52862 0.01445 0.0
H1930 H 0.51152 0.51041 0.98144 0.0
H1931 H 0.55234 0.4998 0.98949 0.0
C1932 C 0.4347 0.52234 0.97735 0.0
C1933 C 0.43285 0.54909 0.9814 0.0
C1934 C 0.45401 0.51201 0.98278 0.0
C1935 C 0.47213 0.52841 0.99231 0.0
C1936 C 0.46877 0.55402 0.99667 0.0
C1937 C 0.44922 0.56408 0.99133 0.0
C1938 C 0.52548 0.51734 0.01344 0.0
C1939 C 0.54419 0.50908 0.00656 0.0
C1940 C 0.50153 0.52269 0.00887 0.0
C1941 C 0.49597 0.52035 0.99728 0.0
C1942 C 0.51461 0.51186 0.99042 0.0
C1943 C 0.5383 0.50609 0.99501 0.0
loop_
_geom_bond_atom_site_label_1
_geom_bond_atom_site_label_2
_geom_bond_distance
_geom_bond_site_symmetry_2
_ccdc_geom_bond_type
Zn0 O3 2.031 . S
Zn0 O5 2.049 . S
Zn0 O10 2.067 . S
Zn1 O2 1.962 . S
Zn1 O4 1.986 . S
Zn1 O6 1.996 . S
Zn1 O9 1.943 . S
O2 Zn1 1.962 . S
O2 C7 1.254 . S
O3 Zn0 2.031 . S
O3 C7 1.269 . S
O4 Zn1 1.986 . S
O4 C11 1.262 . S
O5 Zn0 2.049 . S
O5 C13 1.260 . S
O6 Zn1 1.996 . S
O6 C13 1.257 . S
C7 O2 1.254 . S
C7 O3 1.269 . S
C8 O9 1.249 . S
C8 O10 1.270 . S
O9 Zn1 1.943 . S
O9 C8 1.249 . S
O10 Zn0 2.067 . S
O10 C8 1.270 . S
C11 O4 1.262 . S
C11 O12 1.232 . S
O12 C11 1.232 . S
C13 O5 1.260 . S
C13 O6 1.257 . S
Zn14 O17 2.031 . S
Zn14 O19 2.049 1_545 S
Zn14 O24 2.067 1_545 S
Zn15 O16 1.962 . S
Zn15 O18 1.986 . S
Zn15 O20 1.996 . S
Zn15 O23 1.943 1_545 S
O16 Zn15 1.962 . S
O16 C21 1.254 . S
O17 Zn14 2.031 . S
O17 C21 1.269 . S
O18 Zn15 1.986 . S
O18 C25 1.262 . S
O19 Zn14 2.049 1_565 S
O19 C27 1.260 1_565 S
O20 Zn15 1.996 . S
O20 C27 1.257 . S
C21 O16 1.254 . S
C21 O17 1.269 . S
C22 O23 1.249 . S
C22 O24 1.270 . S
O23 Zn15 1.943 1_565 S
O23 C22 1.249 . S
O24 Zn14 2.067 1_565 S
O24 C22 1.270 . S
C25 O18 1.262 . S
C25 O26 1.232 . S
O26 C25 1.232 . S
C27 O19 1.260 1_545 S
C27 O20 1.257 . S
Zn28 O31 2.031 . S
Zn28 O33 2.049 1_655 S
Zn28 O38 2.067 1_655 S
Zn29 O30 1.962 . S
Zn29 O32 1.986 . S
Zn29 O34 1.996 . S
Zn29 O37 1.943 1_655 S
O30 Zn29 1.962 . S
O30 C35 1.254 . S
O31 Zn28 2.031 . S
O31 C35 1.269 . S
O32 Zn29 1.986 . S
O32 C39 1.262 . S
O33 Zn28 2.049 1_455 S
O33 C41 1.260 1_455 S
O34 Zn29 1.996 . S
O34 C41 1.257 . S
C35 O30 1.254 . S
C35 O31 1.269 . S
C36 O37 1.249 . S
C36 O38 1.270 . S
O37 Zn29 1.943 1_455 S
O37 C36 1.249 . S
O38 Zn28 2.067 1_455 S
O38 C36 1.270 . S
C39 O32 1.262 . S
C39 O40 1.232 . S
O40 C39 1.232 . S
C41 O33 1.260 1_655 S
C41 O34 1.257 . S
Zn42 O45 2.031 . S
Zn42 O47 2.049 . S
Zn42 O52 2.067 . S
Zn43 O44 1.962 . S
Zn43 O46 1.986 . S
Zn43 O48 1.996 . S
Zn43 O51 1.943 . S
O44 Zn43 1.962 . S
O44 C49 1.254 . S
O45 Zn42 2.031 . S
O45 C49 1.269 . S
O46 Zn43 1.986 . S
O46 C53 1.262 . S
O47 Zn42 2.049 . S
O47 C55 1.260 . S
O48 Zn43 1.996 . S
O48 C55 1.257 . S
C49 O44 1.254 . S
C49 O45 1.269 . S
C50 O51 1.249 . S
C50 O52 1.270 . S
O51 Zn43 1.943 . S
O51 C50 1.249 . S
O52 Zn42 2.067 . S
O52 C50 1.270 . S
C53 O46 1.262 . S
C53 O54 1.232 . S
O54 C53 1.232 . S
C55 O47 1.260 . S
C55 O48 1.257 . S
Zn56 O59 2.031 . S
Zn56 O61 2.049 1_565 S
Zn56 O66 2.067 1_565 S
Zn57 O58 1.962 . S
Zn57 O60 1.986 . S
Zn57 O62 1.996 . S
Zn57 O65 1.943 1_565 S
O58 Zn57 1.962 . S
O58 C63 1.254 . S
O59 Zn56 2.031 . S
O59 C63 1.269 . S
O60 Zn57 1.986 . S
O60 C67 1.262 . S
O61 Zn56 2.049 1_545 S
O61 C69 1.260 1_545 S
O62 Zn57 1.996 . S
O62 C69 1.257 . S
C63 O58 1.254 . S
C63 O59 1.269 . S
C64 O65 1.249 . S
C64 O66 1.270 . S
O65 Zn57 1.943 1_545 S
O65 C64 1.249 . S
O66 Zn56 2.067 1_545 S
O66 C64 1.270 . S
C67 O60 1.262 . S
C67 O68 1.232 . S
O68 C67 1.232 . S
C69 O61 1.260 1_565 S
C69 O62 1.257 . S
Zn70 O73 2.031 . S
Zn70 O75 2.049 1_455 S
Zn70 O80 2.067 1_455 S
Zn71 O72 1.962 . S
Zn71 O74 1.986 . S
Zn71 O76 1.996 . S
Zn71 O79 1.943 1_455 S
O72 Zn71 1.962 . S
O72 C77 1.254 . S
O73 Zn70 2.031 . S
O73 C77 1.269 . S
O74 Zn71 1.986 . S
O74 C81 1.262 . S
O75 Zn70 2.049 1_655 S
O75 C83 1.260 1_655 S
O76 Zn71 1.996 . S
O76 C83 1.257 . S
C77 O72 1.254 . S
C77 O73 1.269 . S
C78 O79 1.249 . S
C78 O80 1.270 . S
O79 Zn71 1.943 1_655 S
O79 C78 1.249 . S
O80 Zn70 2.067 1_655 S
O80 C78 1.270 . S
C81 O74 1.262 . S
C81 O82 1.232 . S
O82 C81 1.232 . S
C83 O75 1.260 1_455 S
C83 O76 1.257 . S
Zn84 O87 2.031 . S
Zn84 O89 2.049 . S
Zn84 O94 2.067 . S
Zn85 O86 1.962 . S
Zn85 O88 1.986 . S
Zn85 O90 1.996 . S
Zn85 O93 1.943 . S
O86 Zn85 1.962 . S
O86 C91 1.254 . S
O87 Zn84 2.031 . S
O87 C91 1.269 . S
O88 Zn85 1.986 . S
O88 C95 1.262 . S
O89 Zn84 2.049 . S
O89 C97 1.260 . S
O90 Zn85 1.996 . S
O90 C97 1.257 . S
C91 O86 1.254 . S
C91 O87 1.269 . S
C92 O93 1.249 . S
C92 O94 1.270 . S
O93 Zn85 1.943 . S
O93 C92 1.249 . S
O94 Zn84 2.067 . S
O94 C92 1.270 . S
C95 O88 1.262 . S
C95 O96 1.232 . S
O96 C95 1.232 . S
C97 O89 1.260 . S
C97 O90 1.257 . S
Zn98 O101 2.031 . S
Zn98 O103 2.049 1_565 S
Zn98 O108 2.067 1_565 S
Zn99 O100 1.962 . S
Zn99 O102 1.986 . S
Zn99 O104 1.996 . S
Zn99 O107 1.943 1_565 S
O100 Zn99 1.962 . S
O100 C105 1.254 . S
O101 Zn98 2.031 . S
O101 C105 1.269 . S
O102 Zn99 1.986 . S
O102 C109 1.262 . S
O103 Zn98 2.049 1_545 S
O103 C111 1.260 1_545 S
O104 Zn99 1.996 . S
O104 C111 1.257 . S
C105 O100 1.254 . S
C105 O101 1.269 . S
C106 O107 1.249 . S
C106 O108 1.270 . S
O107 Zn99 1.943 1_545 S
O107 C106 1.249 . S
O108 Zn98 2.067 1_545 S
O108 C106 1.270 . S
C109 O102 1.262 . S
C109 O110 1.232 . S
O110 C109 1.232 . S
C111 O103 1.260 1_565 S
C111 O104 1.257 . S
Zn112 O115 2.031 . S
Zn112 O117 2.049 1_455 S
Zn112 O122 2.067 1_455 S
Zn113 O114 1.962 . S
Zn113 O116 1.986 . S
Zn113 O118 1.996 . S
Zn113 O121 1.943 1_455 S
O114 Zn113 1.962 . S
O114 C119 1.254 . S
O115 Zn112 2.031 . S
O115 C119 1.269 . S
O116 Zn113 1.986 . S
O116 C123 1.262 . S
O117 Zn112 2.049 1_655 S
O117 C125 1.260 1_655 S
O118 Zn113 1.996 . S
O118 C125 1.257 . S
C119 O114 1.254 . S
C119 O115 1.269 . S
C120 O121 1.249 . S
C120 O122 1.270 . S
O121 Zn113 1.943 1_655 S
O121 C120 1.249 . S
O122 Zn112 2.067 1_655 S
O122 C120 1.270 . S
C123 O116 1.262 . S
C123 O124 1.232 . S
O124 C123 1.232 . S
C125 O117 1.260 1_455 S
C125 O118 1.257 . S
Zn126 O129 2.031 . S
Zn126 O131 2.049 . S
Zn126 O136 2.067 . S
Zn127 O128 1.962 . S
Zn127 O130 1.986 . S
Zn127 O132 1.996 . S
Zn127 O135 1.943 . S
O128 Zn127 1.962 . S
O128 C133 1.254 . S
O129 Zn126 2.031 . S
O129 C133 1.269 . S
O130 Zn127 1.986 . S
O130 C137 1.262 . S
O131 Zn126 2.049 . S
O131 C139 1.260 . S
O132 Zn127 1.996 . S
O132 C139 1.257 . S
C133 O128 1.254 . S
C133 O129 1.269 . S
C134 O135 1.249 . S
C134 O136 1.270 . S
O135 Zn127 1.943 . S
O135 C134 1.249 . S
O136 Zn126 2.067 . S
O136 C134 1.270 . S
C137 O130 1.262 . S
C137 O138 1.232 . S
O138 C137 1.232 . S
C139 O131 1.260 . S
C139 O132 1.257 . S
Zn140 O143 2.031 . S
Zn140 O145 2.049 1_545 S
Zn140 O150 2.067 1_545 S
Zn141 O142 1.962 . S
Zn141 O144 1.986 . S
Zn141 O146 1.996 . S
Zn141 O149 1.943 1_545 S
O142 Zn141 1.962 . S
O142 C147 1.254 . S
O143 Zn140 2.031 . S
O143 C147 1.269 . S
O144 Zn141 1.986 . S
O144 C151 1.262 . S
O145 Zn140 2.049 1_565 S
O145 C153 1.260 1_565 S
O146 Zn141 1.996 . S
O146 C153 1.257 . S
C147 O142 1.254 . S
C147 O143 1.269 . S
C148 O149 1.249 . S
C148 O150 1.270 . S
O149 Zn141 1.943 1_565 S
O149 C148 1.249 . S
O150 Zn140 2.067 1_565 S
O150 C148 1.270 . S
C151 O144 1.262 . S
C151 O152 1.232 . S
O152 C151 1.232 . S
C153 O145 1.260 1_545 S
C153 O146 1.257 . S
Zn154 O157 2.031 . S
Zn154 O159 2.049 1_655 S
Zn154 O164 2.067 1_655 S
Zn155 O156 1.962 . S
Zn155 O158 1.986 . S
Zn155 O160 1.996 . S
Zn155 O163 1.943 1_655 S
O156 Zn155 1.962 . S
O156 C161 1.254 . S
O157 Zn154 2.031 . S
O157 C161 1.269 . S
O158 Zn155 1.986 . S
O158 C165 1.262 . S
O159 Zn154 2.049 1_455 S
O159 C167 1.260 1_455 S
O160 Zn155 1.996 . S
O160 C167 1.257 . S
C161 O156 1.254 . S
C161 O157 1.269 . S
C162 O163 1.249 . S
C162 O164 1.270 . S
O163 Zn155 1.943 1_455 S
O163 C162 1.249 . S
O164 Zn154 2.067 1_455 S
O164 C162 1.270 . S
C165 O158 1.262 . S
C165 O166 1.232 . S
O166 C165 1.232 . S
C167 O159 1.260 1_655 S
C167 O160 1.257 . S
Zn168 O171 2.031 . S
Zn168 O173 2.049 . S
Zn168 O178 2.067 . S
Zn169 O170 1.962 . S
Zn169 O172 1.986 . S
Zn169 O174 1.996 . S
Zn169 O177 1.943 . S
O170 Zn169 1.962 . S
O170 C175 1.254 . S
O171 Zn168 2.031 . S
O171 C175 1.269 . S
O172 Zn169 1.986 . S
O172 C179 1.262 . S
O173 Zn168 2.049 . S
O173 C181 1.260 . S
O174 Zn169 1.996 . S
O174 C181 1.257 . S
C175 O170 1.254 . S
C175 O171 1.269 . S
C176 O177 1.249 . S
C176 O178 1.270 . S
O177 Zn169 1.943 . S
O177 C176 1.249 . S
O178 Zn168 2.067 . S
O178 C176 1.270 . S
C179 O172 1.262 . S
C179 O180 1.232 . S
O180 C179 1.232 . S
C181 O173 1.260 . S
C181 O174 1.257 . S
Zn182 O185 2.031 . S
Zn182 O187 2.049 . S
Zn182 O192 2.067 . S
Zn183 O184 1.962 . S
Zn183 O186 1.986 . S
Zn183 O188 1.996 . S
Zn183 O191 1.943 . S
O184 Zn183 1.962 . S
O184 C189 1.254 . S
O185 Zn182 2.031 . S
O185 C189 1.269 . S
O186 Zn183 1.986 . S
O186 C193 1.262 . S
O187 Zn182 2.049 . S
O187 C195 1.260 . S
O188 Zn183 1.996 . S
O188 C195 1.257 . S
C189 O184 1.254 . S
C189 O185 1.269 . S
C190 O191 1.249 . S
C190 O192 1.270 . S
O191 Zn183 1.943 . S
O191 C190 1.249 . S
O192 Zn182 2.067 . S
O192 C190 1.270 . S
C193 O186 1.262 . S
C193 O194 1.232 . S
O194 C193 1.232 . S
C195 O187 1.260 . S
C195 O188 1.257 . S
Zn196 O199 2.031 . S
Zn196 O201 2.049 . S
Zn196 O206 2.067 . S
Zn197 O198 1.962 . S
Zn197 O200 1.986 . S
Zn197 O202 1.996 . S
Zn197 O205 1.943 . S
O198 Zn197 1.962 . S
O198 C203 1.254 . S
O199 Zn196 2.031 . S
O199 C203 1.269 . S
O200 Zn197 1.986 . S
O200 C207 1.262 . S
O201 Zn196 2.049 . S
O201 C209 1.260 . S
O202 Zn197 1.996 . S
O202 C209 1.257 . S
C203 O198 1.254 . S
C203 O199 1.269 . S
C204 O205 1.249 . S
C204 O206 1.270 . S
O205 Zn197 1.943 . S
O205 C204 1.249 . S
O206 Zn196 2.067 . S
O206 C204 1.270 . S
C207 O200 1.262 . S
C207 O208 1.232 . S
O208 C207 1.232 . S
C209 O201 1.260 . S
C209 O202 1.257 . S
Zn210 O213 2.031 . S
Zn210 O215 2.049 . S
Zn210 O220 2.067 . S
Zn211 O212 1.962 . S
Zn211 O214 1.986 . S
Zn211 O216 1.996 . S
Zn211 O219 1.943 . S
O212 Zn211 1.962 . S
O212 C217 1.254 . S
O213 Zn210 2.031 . S
O213 C217 1.269 . S
O214 Zn211 1.986 . S
O214 C221 1.262 . S
O215 Zn210 2.049 . S
O215 C223 1.260 . S
O216 Zn211 1.996 . S
O216 C223 1.257 . S
C217 O212 1.254 . S
C217 O213 1.269 . S
C218 O219 1.249 . S
C218 O220 1.270 . S
O219 Zn211 1.943 . S
O219 C218 1.249 . S
O220 Zn210 2.067 . S
O220 C218 1.270 . S
C221 O214 1.262 . S
C221 O222 1.232 . S
O222 C221 1.232 . S
C223 O215 1.260 . S
C223 O216 1.257 . S
Zn224 O227 2.031 . S
Zn224 O229 2.049 . S
Zn224 O234 2.067 . S
Zn225 O226 1.962 . S
Zn225 O228 1.986 . S
Zn225 O230 1.996 . S
Zn225 O233 1.943 . S
O226 Zn225 1.962 . S
O226 C231 1.254 . S
O227 Zn224 2.031 . S
O227 C231 1.269 . S
O228 Zn225 1.986 . S
O228 C235 1.262 . S
O229 Zn224 2.049 . S
O229 C237 1.260 . S
O230 Zn225 1.996 . S
O230 C237 1.257 . S
C231 O226 1.254 . S
C231 O227 1.269 . S
C232 O233 1.249 . S
C232 O234 1.270 . S
O233 Zn225 1.943 . S
O233 C232 1.249 . S
O234 Zn224 2.067 . S
O234 C232 1.270 . S
C235 O228 1.262 . S
C235 O236 1.232 . S
O236 C235 1.232 . S
C237 O229 1.260 . S
C237 O230 1.257 . S
Zn238 O241 2.031 . S
Zn238 O243 2.049 . S
Zn238 O248 2.067 . S
Zn239 O240 1.962 . S
Zn239 O242 1.986 . S
Zn239 O244 1.996 . S
Zn239 O247 1.943 . S
O240 Zn239 1.962 . S
O240 C245 1.254 . S
O241 Zn238 2.031 . S
O241 C245 1.269 . S
O242 Zn239 1.986 . S
O242 C249 1.262 . S
O243 Zn238 2.049 . S
O243 C251 1.260 . S
O244 Zn239 1.996 . S
O244 C251 1.257 . S
C245 O240 1.254 . S
C245 O241 1.269 . S
C246 O247 1.249 . S
C246 O248 1.270 . S
O247 Zn239 1.943 . S
O247 C246 1.249 . S
O248 Zn238 2.067 . S
O248 C246 1.270 . S
C249 O242 1.262 . S
C249 O250 1.232 . S
O250 C249 1.232 . S
C251 O243 1.260 . S
C251 O244 1.257 . S
Zn252 O255 2.031 . S
Zn252 O257 2.049 . S
Zn252 O262 2.067 . S
Zn253 O254 1.962 . S
Zn253 O256 1.986 . S
Zn253 O258 1.996 . S
Zn253 O261 1.943 . S
O254 Zn253 1.962 . S
O254 C259 1.254 . S
O255 Zn252 2.031 . S
O255 C259 1.269 . S
O256 Zn253 1.986 . S
O256 C263 1.262 . S
O257 Zn252 2.049 . S
O257 C265 1.260 . S
O258 Zn253 1.996 . S
O258 C265 1.257 . S
C259 O254 1.254 . S
C259 O255 1.269 . S
C260 O261 1.249 . S
C260 O262 1.270 . S
O261 Zn253 1.943 . S
O261 C260 1.249 . S
O262 Zn252 2.067 . S
O262 C260 1.270 . S
C263 O256 1.262 . S
C263 O264 1.232 . S
O264 C263 1.232 . S
C265 O257 1.260 . S
C265 O258 1.257 . S
Zn266 O269 2.031 . S
Zn266 O271 2.049 . S
Zn266 O276 2.067 . S
Zn267 O268 1.962 . S
Zn267 O270 1.986 . S
Zn267 O272 1.996 . S
Zn267 O275 1.943 . S
O268 Zn267 1.962 . S
O268 C273 1.254 . S
O269 Zn266 2.031 . S
O269 C273 1.269 . S
O270 Zn267 1.986 . S
O270 C277 1.262 . S
O271 Zn266 2.049 . S
O271 C279 1.260 . S
O272 Zn267 1.996 . S
O272 C279 1.257 . S
C273 O268 1.254 . S
C273 O269 1.269 . S
C274 O275 1.249 . S
C274 O276 1.270 . S
O275 Zn267 1.943 . S
O275 C274 1.249 . S
O276 Zn266 2.067 . S
O276 C274 1.270 . S
C277 O270 1.262 . S
C277 O278 1.232 . S
O278 C277 1.232 . S
C279 O271 1.260 . S
C279 O272 1.257 . S
Zn280 O283 2.031 . S
Zn280 O285 2.049 . S
Zn280 O290 2.067 . S
Zn281 O282 1.962 . S
Zn281 O284 1.986 . S
Zn281 O286 1.996 . S
Zn281 O289 1.943 . S
O282 Zn281 1.962 . S
O282 C287 1.254 . S
O283 Zn280 2.031 . S
O283 C287 1.269 . S
O284 Zn281 1.986 . S
O284 C291 1.262 . S
O285 Zn280 2.049 . S
O285 C293 1.260 . S
O286 Zn281 1.996 . S
O286 C293 1.257 . S
C287 O282 1.254 . S
C287 O283 1.269 . S
C288 O289 1.249 . S
C288 O290 1.270 . S
O289 Zn281 1.943 . S
O289 C288 1.249 . S
O290 Zn280 2.067 . S
O290 C288 1.270 . S
C291 O284 1.262 . S
C291 O292 1.232 . S
O292 C291 1.232 . S
C293 O285 1.260 . S
C293 O286 1.257 . S
Zn294 O297 2.031 . S
Zn294 O299 2.049 . S
Zn294 O304 2.067 . S
Zn295 O296 1.962 . S
Zn295 O298 1.986 . S
Zn295 O300 1.996 . S
Zn295 O303 1.943 . S
O296 Zn295 1.962 . S
O296 C301 1.254 . S
O297 Zn294 2.031 . S
O297 C301 1.269 . S
O298 Zn295 1.986 . S
O298 C305 1.262 . S
O299 Zn294 2.049 . S
O299 C307 1.260 . S
O300 Zn295 1.996 . S
O300 C307 1.257 . S
C301 O296 1.254 . S
C301 O297 1.269 . S
C302 O303 1.249 . S
C302 O304 1.270 . S
O303 Zn295 1.943 . S
O303 C302 1.249 . S
O304 Zn294 2.067 . S
O304 C302 1.270 . S
C305 O298 1.262 . S
C305 O306 1.275 . S
O306 C305 1.275 . S
C307 O299 1.260 . S
C307 O300 1.257 . S
Zn308 O311 2.031 . S
Zn308 O313 2.049 . S
Zn308 O318 2.067 . S
Zn309 O310 1.962 . S
Zn309 O312 1.986 . S
Zn309 O314 1.996 . S
Zn309 O317 1.943 . S
O310 Zn309 1.962 . S
O310 C315 1.254 . S
O311 Zn308 2.031 . S
O311 C315 1.269 . S
O312 Zn309 1.986 . S
O312 C319 1.262 . S
O313 Zn308 2.049 . S
O313 C321 1.260 . S
O314 Zn309 1.996 . S
O314 C321 1.257 . S
C315 O310 1.254 . S
C315 O311 1.269 . S
C316 O317 1.249 . S
C316 O318 1.270 . S
O317 Zn309 1.943 . S
O317 C316 1.249 . S
O318 Zn308 2.067 . S
O318 C316 1.270 . S
C319 O312 1.262 . S
C319 O320 1.275 . S
O320 C319 1.275 . S
C321 O313 1.260 . S
C321 O314 1.257 . S
Zn322 O325 2.031 . S
Zn322 O327 2.049 . S
Zn322 O332 2.067 . S
Zn323 O324 1.962 . S
Zn323 O326 1.986 . S
Zn323 O328 1.996 . S
Zn323 O331 1.943 . S
O324 Zn323 1.962 . S
O324 C329 1.254 . S
O325 Zn322 2.031 . S
O325 C329 1.269 . S
O326 Zn323 1.986 . S
O326 C333 1.262 . S
O327 Zn322 2.049 . S
O327 C335 1.260 . S
O328 Zn323 1.996 . S
O328 C335 1.257 . S
C329 O324 1.254 . S
C329 O325 1.269 . S
C330 O331 1.249 . S
C330 O332 1.270 . S
O331 Zn323 1.943 . S
O331 C330 1.249 . S
O332 Zn322 2.067 . S
O332 C330 1.270 . S
C333 O326 1.262 . S
C333 O334 1.275 . S
O334 C333 1.275 . S
C335 O327 1.260 . S
C335 O328 1.257 . S
Zn336 O339 2.031 . S
Zn336 O341 2.049 . S
Zn336 O346 2.067 . S
Zn337 O338 1.962 . S
Zn337 O340 1.986 . S
Zn337 O342 1.996 . S
Zn337 O345 1.943 . S
O338 Zn337 1.962 . S
O338 C343 1.254 . S
O339 Zn336 2.031 . S
O339 C343 1.269 . S
O340 Zn337 1.986 . S
O340 C347 1.262 . S
O341 Zn336 2.049 . S
O341 C349 1.260 . S
O342 Zn337 1.996 . S
O342 C349 1.257 . S
C343 O338 1.254 . S
C343 O339 1.269 . S
C344 O345 1.249 . S
C344 O346 1.270 . S
O345 Zn337 1.943 . S
O345 C344 1.249 . S
O346 Zn336 2.067 . S
O346 C344 1.270 . S
C347 O340 1.262 . S
C347 O348 1.232 . S
O348 C347 1.232 . S
C349 O341 1.260 . S
C349 O342 1.257 . S
Zn350 O353 2.031 . S
Zn350 O355 2.049 . S
Zn350 O360 2.067 . S
Zn351 O352 1.962 . S
Zn351 O354 1.986 . S
Zn351 O356 1.996 . S
Zn351 O359 1.943 . S
O352 Zn351 1.962 . S
O352 C357 1.254 . S
O353 Zn350 2.031 . S
O353 C357 1.269 . S
O354 Zn351 1.986 . S
O354 C361 1.262 . S
O355 Zn350 2.049 . S
O355 C363 1.260 . S
O356 Zn351 1.996 . S
O356 C363 1.257 . S
C357 O352 1.254 . S
C357 O353 1.269 . S
C358 O359 1.249 . S
C358 O360 1.270 . S
O359 Zn351 1.943 . S
O359 C358 1.249 . S
O360 Zn350 2.067 . S
O360 C358 1.270 . S
C361 O354 1.262 . S
C361 O362 1.232 . S
O362 C361 1.232 . S
C363 O355 1.260 . S
C363 O356 1.257 . S
Zn364 O367 2.031 . S
Zn364 O369 2.049 . S
Zn364 O374 2.067 . S
Zn365 O366 1.962 . S
Zn365 O368 1.986 . S
Zn365 O370 1.996 . S
Zn365 O373 1.943 . S
O366 Zn365 1.962 . S
O366 C371 1.254 . S
O367 Zn364 2.031 . S
O367 C371 1.269 . S
O368 Zn365 1.986 . S
O368 C375 1.262 . S
O369 Zn364 2.049 . S
O369 C377 1.260 . S
O370 Zn365 1.996 . S
O370 C377 1.257 . S
C371 O366 1.254 . S
C371 O367 1.269 . S
C372 O373 1.249 . S
C372 O374 1.270 . S
O373 Zn365 1.943 . S
O373 C372 1.249 . S
O374 Zn364 2.067 . S
O374 C372 1.270 . S
C375 O368 1.262 . S
C375 O376 1.232 . S
O376 C375 1.232 . S
C377 O369 1.260 . S
C377 O370 1.257 . S
Zn378 O381 2.031 . S
Zn378 O383 2.049 . S
Zn378 O388 2.067 . S
Zn379 O380 1.962 . S
Zn379 O382 1.986 . S
Zn379 O384 1.996 . S
Zn379 O387 1.943 . S
O380 Zn379 1.962 . S
O380 C385 1.254 . S
O381 Zn378 2.031 . S
O381 C385 1.269 . S
O382 Zn379 1.986 . S
O382 C389 1.262 . S
O383 Zn378 2.049 . S
O383 C391 1.260 . S
O384 Zn379 1.996 . S
O384 C391 1.257 . S
C385 O380 1.254 . S
C385 O381 1.269 . S
C386 O387 1.249 . S
C386 O388 1.270 . S
O387 Zn379 1.943 . S
O387 C386 1.249 . S
O388 Zn378 2.067 . S
O388 C386 1.270 . S
C389 O382 1.262 . S
C389 O390 1.275 . S
O390 C389 1.275 . S
C391 O383 1.260 . S
C391 O384 1.257 . S
Zn392 O395 2.031 . S
Zn392 O397 2.049 . S
Zn392 O402 2.067 . S
Zn393 O394 1.962 . S
Zn393 O396 1.986 . S
Zn393 O398 1.996 . S
Zn393 O401 1.943 . S
O394 Zn393 1.962 . S
O394 C399 1.254 . S
O395 Zn392 2.031 . S
O395 C399 1.269 . S
O396 Zn393 1.986 . S
O396 C403 1.262 . S
O397 Zn392 2.049 . S
O397 C405 1.260 . S
O398 Zn393 1.996 . S
O398 C405 1.257 . S
C399 O394 1.254 . S
C399 O395 1.269 . S
C400 O401 1.249 . S
C400 O402 1.270 . S
O401 Zn393 1.943 . S
O401 C400 1.249 . S
O402 Zn392 2.067 . S
O402 C400 1.270 . S
C403 O396 1.262 . S
C403 O404 1.275 . S
O404 C403 1.275 . S
C405 O397 1.260 . S
C405 O398 1.257 . S
Zn406 O409 2.031 . S
Zn406 O411 2.049 . S
Zn406 O416 2.067 . S
Zn407 O408 1.962 . S
Zn407 O410 1.986 . S
Zn407 O412 1.996 . S
Zn407 O415 1.943 . S
O408 Zn407 1.962 . S
O408 C413 1.254 . S
O409 Zn406 2.031 . S
O409 C413 1.269 . S
O410 Zn407 1.986 . S
O410 C417 1.262 . S
O411 Zn406 2.049 . S
O411 C419 1.260 . S
O412 Zn407 1.996 . S
O412 C419 1.257 . S
C413 O408 1.254 . S
C413 O409 1.269 . S
C414 O415 1.249 . S
C414 O416 1.270 . S
O415 Zn407 1.943 . S
O415 C414 1.249 . S
O416 Zn406 2.067 . S
O416 C414 1.270 . S
C417 O410 1.262 . S
C417 O418 1.275 . S
O418 C417 1.275 . S
C419 O411 1.260 . S
C419 O412 1.257 . S
Zn420 O423 2.031 . S
Zn420 O425 2.049 . S
Zn420 O430 2.067 . S
Zn421 O422 1.962 . S
Zn421 O424 1.986 . S
Zn421 O426 1.996 . S
Zn421 O429 1.943 . S
O422 Zn421 1.962 . S
O422 C427 1.254 . S
O423 Zn420 2.031 . S
O423 C427 1.269 . S
O424 Zn421 1.986 . S
O424 C431 1.262 . S
O425 Zn420 2.049 . S
O425 C433 1.260 . S
O426 Zn421 1.996 . S
O426 C433 1.257 . S
C427 O422 1.254 . S
C427 O423 1.269 . S
C428 O429 1.249 . S
C428 O430 1.270 . S
O429 Zn421 1.943 . S
O429 C428 1.249 . S
O430 Zn420 2.067 . S
O430 C428 1.270 . S
C431 O424 1.262 . S
C431 O432 1.232 . S
O432 C431 1.232 . S
C433 O425 1.260 . S
C433 O426 1.257 . S
Zn434 O437 2.031 . S
Zn434 O439 2.049 . S
Zn434 O444 2.067 . S
Zn435 O436 1.962 . S
Zn435 O438 1.986 . S
Zn435 O440 1.996 . S
Zn435 O443 1.943 . S
O436 Zn435 1.962 . S
O436 C441 1.254 . S
O437 Zn434 2.031 . S
O437 C441 1.269 . S
O438 Zn435 1.986 . S
O438 C445 1.262 . S
O439 Zn434 2.049 . S
O439 C447 1.260 . S
O440 Zn435 1.996 . S
O440 C447 1.257 . S
C441 O436 1.254 . S
C441 O437 1.269 . S
C442 O443 1.249 . S
C442 O444 1.270 . S
O443 Zn435 1.943 . S
O443 C442 1.249 . S
O444 Zn434 2.067 . S
O444 C442 1.270 . S
C445 O438 1.262 . S
C445 O446 1.232 . S
O446 C445 1.232 . S
C447 O439 1.260 . S
C447 O440 1.257 . S
Zn448 O451 2.031 . S
Zn448 O453 2.049 . S
Zn448 O458 2.067 . S
Zn449 O450 1.962 . S
Zn449 O452 1.986 . S
Zn449 O454 1.996 . S
Zn449 O457 1.943 . S
O450 Zn449 1.962 . S
O450 C455 1.254 . S
O451 Zn448 2.031 . S
O451 C455 1.269 . S
O452 Zn449 1.986 . S
O452 C459 1.262 . S
O453 Zn448 2.049 . S
O453 C461 1.260 . S
O454 Zn449 1.996 . S
O454 C461 1.257 . S
C455 O450 1.254 . S
C455 O451 1.269 . S
C456 O457 1.249 . S
C456 O458 1.270 . S
O457 Zn449 1.943 . S
O457 C456 1.249 . S
O458 Zn448 2.067 . S
O458 C456 1.270 . S
C459 O452 1.262 . S
C459 O460 1.232 . S
O460 C459 1.232 . S
C461 O453 1.260 . S
C461 O454 1.257 . S
Zn462 O465 2.031 . S
Zn462 O467 2.049 . S
Zn462 O472 2.067 . S
Zn463 O464 1.962 . S
Zn463 O466 1.986 . S
Zn463 O468 1.996 . S
Zn463 O471 1.943 . S
O464 Zn463 1.962 . S
O464 C469 1.254 . S
O465 Zn462 2.031 . S
O465 C469 1.269 . S
O466 Zn463 1.986 . S
O466 C473 1.262 . S
O467 Zn462 2.049 . S
O467 C475 1.260 . S
O468 Zn463 1.996 . S
O468 C475 1.257 . S
C469 O464 1.254 . S
C469 O465 1.269 . S
C470 O471 1.249 . S
C470 O472 1.270 . S
O471 Zn463 1.943 . S
O471 C470 1.249 . S
O472 Zn462 2.067 . S
O472 C470 1.270 . S
C473 O466 1.262 . S
C473 O474 1.232 . S
O474 C473 1.232 . S
C475 O467 1.260 . S
C475 O468 1.257 . S
Zn476 O479 2.031 . S
Zn476 O481 2.049 . S
Zn476 O486 2.067 . S
Zn477 O478 1.962 . S
Zn477 O480 1.986 . S
Zn477 O482 1.996 . S
Zn477 O485 1.943 . S
O478 Zn477 1.962 . S
O478 C483 1.254 . S
O479 Zn476 2.031 . S
O479 C483 1.269 . S
O480 Zn477 1.986 . S
O480 C487 1.262 . S
O481 Zn476 2.049 . S
O481 C489 1.260 . S
O482 Zn477 1.996 . S
O482 C489 1.257 . S
C483 O478 1.254 . S
C483 O479 1.269 . S
C484 O485 1.249 . S
C484 O486 1.270 . S
O485 Zn477 1.943 . S
O485 C484 1.249 . S
O486 Zn476 2.067 . S
O486 C484 1.270 . S
C487 O480 1.262 . S
C487 O488 1.232 . S
O488 C487 1.232 . S
C489 O481 1.260 . S
C489 O482 1.257 . S
Zn490 O493 2.031 . S
Zn490 O495 2.049 . S
Zn490 O500 2.067 . S
Zn491 O492 1.962 . S
Zn491 O494 1.986 . S
Zn491 O496 1.996 . S
Zn491 O499 1.943 . S
O492 Zn491 1.962 . S
O492 C497 1.254 . S
O493 Zn490 2.031 . S
O493 C497 1.269 . S
O494 Zn491 1.986 . S
O494 C501 1.262 . S
O495 Zn490 2.049 . S
O495 C503 1.260 . S
O496 Zn491 1.996 . S
O496 C503 1.257 . S
C497 O492 1.254 . S
C497 O493 1.269 . S
C498 O499 1.249 . S
C498 O500 1.270 . S
O499 Zn491 1.943 . S
O499 C498 1.249 . S
O500 Zn490 2.067 . S
O500 C498 1.270 . S
C501 O494 1.262 . S
C501 O502 1.232 . S
O502 C501 1.232 . S
C503 O495 1.260 . S
C503 O496 1.257 . S
H504 C512 0.950 . S
H505 C517 0.950 . S
H506 C514 0.950 . S
H507 C516 0.950 . S
H508 C518 0.950 . S
H509 C520 0.961 . S
H510 C522 0.950 1_455 S
H511 C523 0.950 . S
C512 H504 0.950 . S
C512 C513 1.386 . S
C512 C514 1.391 . S
C513 C512 1.386 . S
C513 C517 1.393 . S
C514 H506 0.950 . S
C514 C512 1.391 . S
C514 C515 1.400 . S
C515 C514 1.400 . S
C515 C516 1.398 . S
C515 C521 1.491 . S
C516 H507 0.950 . S
C516 C515 1.398 . S
C516 C517 1.391 . S
C517 H505 0.950 . S
C517 C513 1.393 . S
C517 C516 1.391 . S
C518 H508 0.950 . S
C518 C519 1.386 . S
C518 C520 1.391 . S
C519 C518 1.386 . S
C519 C523 1.393 . S
C520 H509 0.961 . S
C520 C518 1.391 . S
C520 C521 1.400 1_655 S
C521 C515 1.491 . S
C521 C520 1.400 1_455 S
C521 C522 1.398 1_455 S
C522 H510 0.950 1_655 S
C522 C521 1.398 1_655 S
C522 C523 1.391 . S
C523 H511 0.950 . S
C523 C519 1.393 . S
C523 C522 1.391 . S
H524 C532 0.950 . S
H525 C537 0.950 . S
H526 C534 0.950 . S
H527 C536 0.950 . S
H528 C538 0.950 . S
H529 C540 0.950 . S
H530 C542 0.950 . S
H531 C543 0.950 . S
C532 H524 0.950 . S
C532 C533 1.386 . S
C532 C534 1.391 . S
C533 C532 1.386 . S
C533 C537 1.393 . S
C534 H526 0.950 . S
C534 C532 1.391 . S
C534 C535 1.400 . S
C535 C534 1.400 . S
C535 C536 1.398 . S
C535 C541 1.491 . S
C536 H527 0.950 . S
C536 C535 1.398 . S
C536 C537 1.391 . S
C537 H525 0.950 . S
C537 C533 1.393 . S
C537 C536 1.391 . S
C538 H528 0.950 . S
C538 C539 1.386 . S
C538 C540 1.391 . S
C539 C538 1.386 . S
C539 C543 1.393 . S
C540 H529 0.950 . S
C540 C538 1.391 . S
C540 C541 1.400 . S
C541 C535 1.491 . S
C541 C540 1.400 . S
C541 C542 1.398 . S
C542 H530 0.950 . S
C542 C541 1.398 . S
C542 C543 1.391 . S
C543 H531 0.950 . S
C543 C539 1.393 . S
C543 C542 1.391 . S
H544 C552 0.950 . S
H545 C557 0.950 . S
H546 C554 0.950 1_565 S
H547 C556 0.950 1_565 S
H548 C558 0.950 . S
H549 C560 0.950 . S
H550 C562 0.950 . S
H551 C563 0.950 . S
C552 H544 0.950 . S
C552 C553 1.386 . S
C552 C554 1.391 . S
C553 C552 1.386 . S
C553 C557 1.393 . S
C554 H546 0.950 1_545 S
C554 C552 1.391 . S
C554 C555 1.400 1_545 S
C555 C554 1.400 1_565 S
C555 C556 1.398 1_565 S
C555 C561 1.491 . S
C556 H547 0.950 1_545 S
C556 C555 1.398 1_545 S
C556 C557 1.391 . S
C557 H545 0.950 . S
C557 C553 1.393 . S
C557 C556 1.391 . S
C558 H548 0.950 . S
C558 C559 1.386 . S
C558 C560 1.391 . S
C559 C558 1.386 . S
C559 C563 1.393 . S
C560 H549 0.950 . S
C560 C558 1.391 . S
C560 C561 1.400 . S
C561 C555 1.491 . S
C561 C560 1.400 . S
C561 C562 1.398 . S
C562 H550 0.950 . S
C562 C561 1.398 . S
C562 C563 1.391 . S
C563 H551 0.950 . S
C563 C559 1.393 . S
C563 C562 1.391 . S
H564 C572 0.950 . S
H565 C577 0.950 . S
H566 C574 0.950 . S
H567 C576 0.950 . S
H568 C578 0.950 . S
H569 C580 0.973 . S
H570 C582 0.950 1_545 S
H571 C583 0.950 . S
C572 H564 0.950 . S
C572 C573 1.386 . S
C572 C574 1.391 . S
C573 C572 1.386 . S
C573 C577 1.393 . S
C574 H566 0.950 . S
C574 C572 1.391 . S
C574 C575 1.400 . S
C575 C574 1.400 . S
C575 C576 1.398 . S
C575 C581 1.491 . S
C576 H567 0.950 . S
C576 C575 1.398 . S
C576 C577 1.391 . S
C577 H565 0.950 . S
C577 C573 1.393 . S
C577 C576 1.391 . S
C578 H568 0.950 . S
C578 C579 1.386 . S
C578 C580 1.391 . S
C579 C578 1.386 . S
C579 C583 1.393 . S
C580 H569 0.973 . S
C580 C578 1.391 . S
C580 C581 1.400 1_565 S
C581 C575 1.491 . S
C581 C580 1.400 1_545 S
C581 C582 1.398 1_545 S
C582 H570 0.950 1_565 S
C582 C581 1.398 1_565 S
C582 C583 1.391 . S
C583 H571 0.950 . S
C583 C579 1.393 . S
C583 C582 1.391 . S
H584 C592 0.950 . S
H585 C597 0.950 . S
H586 C594 0.950 . S
H587 C596 0.950 . S
H588 C598 0.950 . S
H589 C600 0.950 . S
H590 C602 0.950 1_655 S
H591 C603 0.950 . S
C592 H584 0.950 . S
C592 C593 1.386 . S
C592 C594 1.391 . S
C593 C592 1.386 . S
C593 C597 1.393 . S
C594 H586 0.950 . S
C594 C592 1.391 . S
C594 C595 1.400 . S
C595 C594 1.400 . S
C595 C596 1.398 . S
C595 C601 1.491 . S
C596 H587 0.950 . S
C596 C595 1.398 . S
C596 C597 1.391 . S
C597 H585 0.950 . S
C597 C593 1.393 . S
C597 C596 1.391 . S
C598 H588 0.950 . S
C598 C599 1.386 . S
C598 C600 1.391 . S
C599 C598 1.386 . S
C599 C603 1.393 . S
C600 H589 0.950 . S
C600 C598 1.391 . S
C600 C601 1.400 1_455 S
C601 C595 1.491 . S
C601 C600 1.400 1_655 S
C601 C602 1.398 1_655 S
C602 H590 0.950 1_455 S
C602 C601 1.398 1_455 S
C602 C603 1.391 . S
C603 H591 0.950 . S
C603 C599 1.393 . S
C603 C602 1.391 . S
H604 C612 0.950 . S
H605 C617 0.950 . S
H606 C614 0.950 . S
H607 C616 0.950 . S
H608 C618 0.950 . S
H609 C620 0.950 . S
H610 C622 0.950 . S
H611 C623 0.950 . S
C612 H604 0.950 . S
C612 C613 1.386 . S
C612 C614 1.391 . S
C613 C612 1.386 . S
C613 C617 1.393 . S
C614 H606 0.950 . S
C614 C612 1.391 . S
C614 C615 1.400 . S
C615 C614 1.400 . S
C615 C616 1.398 . S
C615 C621 1.491 . S
C616 H607 0.950 . S
C616 C615 1.398 . S
C616 C617 1.391 . S
C617 H605 0.950 . S
C617 C613 1.393 . S
C617 C616 1.391 . S
C618 H608 0.950 . S
C618 C619 1.386 . S
C618 C620 1.391 . S
C619 C618 1.386 . S
C619 C623 1.393 . S
C620 H609 0.950 . S
C620 C618 1.391 . S
C620 C621 1.400 . S
C621 C615 1.491 . S
C621 C620 1.400 . S
C621 C622 1.398 . S
C622 H610 0.950 . S
C622 C621 1.398 . S
C622 C623 1.391 . S
C623 H611 0.950 . S
C623 C619 1.393 . S
C623 C622 1.391 . S
H624 C632 0.950 . S
H625 C637 0.950 . S
H626 C634 0.950 . S
H627 C636 0.950 . S
H628 C638 0.950 . S
H629 C640 0.950 . S
H630 C642 0.950 1_655 S
H631 C643 0.950 . S
C632 H624 0.950 . S
C632 C633 1.386 . S
C632 C634 1.391 . S
C633 C632 1.386 . S
C633 C637 1.393 . S
C634 H626 0.950 . S
C634 C632 1.391 . S
C634 C635 1.400 . S
C635 C634 1.400 . S
C635 C636 1.398 . S
C635 C641 1.491 . S
C636 H627 0.950 . S
C636 C635 1.398 . S
C636 C637 1.391 . S
C637 H625 0.950 . S
C637 C633 1.393 . S
C637 C636 1.391 . S
C638 H628 0.950 . S
C638 C639 1.386 . S
C638 C640 1.391 . S
C639 C638 1.386 . S
C639 C643 1.393 . S
C640 H629 0.950 . S
C640 C638 1.391 . S
C640 C641 1.400 1_455 S
C641 C635 1.491 . S
C641 C640 1.400 1_655 S
C641 C642 1.398 1_655 S
C642 H630 0.950 1_455 S
C642 C641 1.398 1_455 S
C642 C643 1.391 . S
C643 H631 0.950 . S
C643 C639 1.393 . S
C643 C642 1.391 . S
H644 C652 0.950 . S
H645 C657 0.950 . S
H646 C654 0.950 . S
H647 C656 0.950 . S
H648 C658 0.950 . S
H649 C660 0.950 . S
H650 C662 0.950 . S
H651 C663 0.950 . S
C652 H644 0.950 . S
C652 C653 1.386 . S
C652 C654 1.391 . S
C653 C652 1.386 . S
C653 C657 1.393 . S
C654 H646 0.950 . S
C654 C652 1.391 . S
C654 C655 1.400 . S
C655 C654 1.400 . S
C655 C656 1.398 . S
C655 C661 1.491 . S
C656 H647 0.950 . S
C656 C655 1.398 . S
C656 C657 1.391 . S
C657 H645 0.950 . S
C657 C653 1.393 . S
C657 C656 1.391 . S
C658 H648 0.950 . S
C658 C659 1.386 . S
C658 C660 1.391 . S
C659 C658 1.386 . S
C659 C663 1.393 . S
C660 H649 0.950 . S
C660 C658 1.391 . S
C660 C661 1.400 . S
C661 C655 1.491 . S
C661 C660 1.400 . S
C661 C662 1.398 . S
C662 H650 0.950 . S
C662 C661 1.398 . S
C662 C663 1.391 . S
C663 H651 0.950 . S
C663 C659 1.393 . S
C663 C662 1.391 . S
H664 C672 0.950 . S
H665 C677 0.950 . S
H666 C674 0.979 . S
H667 C676 0.950 1_545 S
H668 C678 0.950 . S
H669 C680 0.950 . S
H670 C682 0.950 . S
H671 C683 0.950 . S
C672 H664 0.950 . S
C672 C673 1.386 . S
C672 C674 1.391 . S
C673 C672 1.386 . S
C673 C677 1.393 . S
C674 H666 0.979 . S
C674 C672 1.391 . S
C674 C675 1.400 1_565 S
C675 C674 1.400 1_545 S
C675 C676 1.398 1_545 S
C675 C681 1.491 . S
C676 H667 0.950 1_565 S
C676 C675 1.398 1_565 S
C676 C677 1.391 . S
C677 H665 0.950 . S
C677 C673 1.393 . S
C677 C676 1.391 . S
C678 H668 0.950 . S
C678 C679 1.386 . S
C678 C680 1.391 . S
C679 C678 1.386 . S
C679 C683 1.393 . S
C680 H669 0.950 . S
C680 C678 1.391 . S
C680 C681 1.400 . S
C681 C675 1.491 . S
C681 C680 1.400 . S
C681 C682 1.398 . S
C682 H670 0.950 . S
C682 C681 1.398 . S
C682 C683 1.391 . S
C683 H671 0.950 . S
C683 C679 1.393 . S
C683 C682 1.391 . S
H684 C692 0.950 . S
H685 C697 0.950 . S
H686 C694 0.952 . S
H687 C696 0.950 1_565 S
H688 C698 0.950 . S
H689 C700 0.950 . S
H690 C702 0.950 . S
H691 C703 0.950 . S
C692 H684 0.950 . S
C692 C693 1.386 . S
C692 C694 1.391 . S
C693 C692 1.386 . S
C693 C697 1.393 . S
C694 H686 0.952 . S
C694 C692 1.391 . S
C694 C695 1.400 1_545 S
C695 C694 1.400 1_565 S
C695 C696 1.398 1_565 S
C695 C701 1.491 . S
C696 H687 0.950 1_545 S
C696 C695 1.398 1_545 S
C696 C697 1.391 . S
C697 H685 0.950 . S
C697 C693 1.393 . S
C697 C696 1.391 . S
C698 H688 0.950 . S
C698 C699 1.386 . S
C698 C700 1.391 . S
C699 C698 1.386 . S
C699 C703 1.393 . S
C700 H689 0.950 . S
C700 C698 1.391 . S
C700 C701 1.400 . S
C701 C695 1.491 . S
C701 C700 1.400 . S
C701 C702 1.398 . S
C702 H690 0.950 . S
C702 C701 1.398 . S
C702 C703 1.391 . S
C703 H691 0.950 . S
C703 C699 1.393 . S
C703 C702 1.391 . S
H704 C712 0.950 . S
H705 C717 0.950 . S
H706 C714 0.950 . S
H707 C716 0.950 . S
H708 C718 0.950 . S
H709 C720 0.949 1_455 S
H710 C722 0.950 1_455 S
H711 C723 0.950 . S
C712 H704 0.950 . S
C712 C713 1.386 . S
C712 C714 1.391 . S
C713 C712 1.386 . S
C713 C717 1.393 . S
C714 H706 0.950 . S
C714 C712 1.391 . S
C714 C715 1.400 . S
C715 C714 1.400 . S
C715 C716 1.398 . S
C715 C721 1.491 . S
C716 H707 0.950 . S
C716 C715 1.398 . S
C716 C717 1.391 . S
C717 H705 0.950 . S
C717 C713 1.393 . S
C717 C716 1.391 . S
C718 H708 0.950 . S
C718 C719 1.386 . S
C718 C720 1.391 . S
C719 C718 1.386 . S
C719 C723 1.393 . S
C720 H709 0.949 1_655 S
C720 C718 1.391 . S
C720 C721 1.400 1_655 S
C721 C715 1.491 . S
C721 C720 1.400 1_455 S
C721 C722 1.398 1_455 S
C722 H710 0.950 1_655 S
C722 C721 1.398 1_655 S
C722 C723 1.391 . S
C723 H711 0.950 . S
C723 C719 1.393 . S
C723 C722 1.391 . S
H724 C732 0.950 . S
H725 C737 0.950 . S
H726 C734 0.950 . S
H727 C736 0.950 . S
H728 C738 0.950 . S
H729 C740 0.950 . S
H730 C742 0.950 . S
H731 C743 0.950 . S
C732 H724 0.950 . S
C732 C733 1.386 . S
C732 C734 1.391 . S
C733 C732 1.386 . S
C733 C737 1.393 . S
C734 H726 0.950 . S
C734 C732 1.391 . S
C734 C735 1.400 . S
C735 C734 1.400 . S
C735 C736 1.398 . S
C735 C741 1.491 . S
C736 H727 0.950 . S
C736 C735 1.398 . S
C736 C737 1.391 . S
C737 H725 0.950 . S
C737 C733 1.393 . S
C737 C736 1.391 . S
C738 H728 0.950 . S
C738 C739 1.386 . S
C738 C740 1.391 . S
C739 C738 1.386 . S
C739 C743 1.393 . S
C740 H729 0.950 . S
C740 C738 1.391 . S
C740 C741 1.400 . S
C741 C735 1.491 . S
C741 C740 1.400 . S
C741 C742 1.398 . S
C742 H730 0.950 . S
C742 C741 1.398 . S
C742 C743 1.391 . S
C743 H731 0.950 . S
C743 C739 1.393 . S
C743 C742 1.391 . S
H744 C752 0.950 . S
H745 C757 0.950 . S
H746 C754 0.950 . S
H747 C756 0.950 . S
H748 C758 0.950 . S
H749 C760 0.950 . S
H750 C762 0.950 . S
H751 C763 0.950 . S
C752 H744 0.950 . S
C752 C753 1.386 . S
C752 C754 1.391 . S
C753 C752 1.386 . S
C753 C757 1.393 . S
C754 H746 0.950 . S
C754 C752 1.391 . S
C754 C755 1.400 . S
C755 C754 1.400 . S
C755 C756 1.398 . S
C755 C761 1.491 . S
C756 H747 0.950 . S
C756 C755 1.398 . S
C756 C757 1.391 . S
C757 H745 0.950 . S
C757 C753 1.393 . S
C757 C756 1.391 . S
C758 H748 0.950 . S
C758 C759 1.386 . S
C758 C760 1.391 . S
C759 C758 1.386 . S
C759 C763 1.393 . S
C760 H749 0.950 . S
C760 C758 1.391 . S
C760 C761 1.400 . S
C761 C755 1.491 . S
C761 C760 1.400 . S
C761 C762 1.398 . S
C762 H750 0.950 . S
C762 C761 1.398 . S
C762 C763 1.391 . S
C763 H751 0.950 . S
C763 C759 1.393 . S
C763 C762 1.391 . S
H764 C772 0.950 . S
H765 C777 0.950 . S
H766 C774 0.950 . S
H767 C776 0.950 . S
H768 C778 0.950 . S
H769 C780 0.950 . S
H770 C782 0.950 . S
H771 C783 0.950 . S
C772 H764 0.950 . S
C772 C773 1.386 . S
C772 C774 1.391 . S
C773 C772 1.386 . S
C773 C777 1.393 . S
C774 H766 0.950 . S
C774 C772 1.391 . S
C774 C775 1.400 . S
C775 C774 1.400 . S
C775 C776 1.398 . S
C775 C781 1.491 . S
C776 H767 0.950 . S
C776 C775 1.398 . S
C776 C777 1.391 . S
C777 H765 0.950 . S
C777 C773 1.393 . S
C777 C776 1.391 . S
C778 H768 0.950 . S
C778 C779 1.386 . S
C778 C780 1.391 . S
C779 C778 1.386 . S
C779 C783 1.393 . S
C780 H769 0.950 . S
C780 C778 1.391 . S
C780 C781 1.400 . S
C781 C775 1.491 . S
C781 C780 1.400 . S
C781 C782 1.398 . S
C782 H770 0.950 . S
C782 C781 1.398 . S
C782 C783 1.391 . S
C783 H771 0.950 . S
C783 C779 1.393 . S
C783 C782 1.391 . S
H784 C792 0.950 . S
H785 C797 0.950 . S
H786 C794 0.950 . S
H787 C796 0.950 . S
H788 C798 0.950 . S
H789 C800 0.950 . S
H790 C802 0.950 . S
H791 C803 0.950 . S
C792 H784 0.950 . S
C792 C793 1.386 . S
C792 C794 1.391 . S
C793 C792 1.386 . S
C793 C797 1.393 . S
C794 H786 0.950 . S
C794 C792 1.391 . S
C794 C795 1.400 . S
C795 C794 1.400 . S
C795 C796 1.398 . S
C795 C801 1.491 . S
C796 H787 0.950 . S
C796 C795 1.398 . S
C796 C797 1.391 . S
C797 H785 0.950 . S
C797 C793 1.393 . S
C797 C796 1.391 . S
C798 H788 0.950 . S
C798 C799 1.386 . S
C798 C800 1.391 . S
C799 C798 1.386 . S
C799 C803 1.393 . S
C800 H789 0.950 . S
C800 C798 1.391 . S
C800 C801 1.400 . S
C801 C795 1.491 . S
C801 C800 1.400 . S
C801 C802 1.398 . S
C802 H790 0.950 . S
C802 C801 1.398 . S
C802 C803 1.391 . S
C803 H791 0.950 . S
C803 C799 1.393 . S
C803 C802 1.391 . S
H804 C812 0.950 . S
H805 C817 0.950 . S
H806 C814 0.950 . S
H807 C816 0.950 . S
H808 C818 0.950 . S
H809 C820 0.950 . S
H810 C822 0.950 . S
H811 C823 0.950 . S
C812 H804 0.950 . S
C812 C813 1.386 . S
C812 C814 1.391 . S
C813 C812 1.386 . S
C813 C817 1.393 . S
C814 H806 0.950 . S
C814 C812 1.391 . S
C814 C815 1.400 . S
C815 C814 1.400 . S
C815 C816 1.398 . S
C815 C821 1.491 . S
C816 H807 0.950 . S
C816 C815 1.398 . S
C816 C817 1.391 . S
C817 H805 0.950 . S
C817 C813 1.393 . S
C817 C816 1.391 . S
C818 H808 0.950 . S
C818 C819 1.386 . S
C818 C820 1.391 . S
C819 C818 1.386 . S
C819 C823 1.393 . S
C820 H809 0.950 . S
C820 C818 1.391 . S
C820 C821 1.400 . S
C821 C815 1.491 . S
C821 C820 1.400 . S
C821 C822 1.398 . S
C822 H810 0.950 . S
C822 C821 1.398 . S
C822 C823 1.391 . S
C823 H811 0.950 . S
C823 C819 1.393 . S
C823 C822 1.391 . S
H824 C832 0.950 . S
H825 C837 0.950 . S
H826 C834 0.950 . S
H827 C836 0.950 . S
H828 C838 0.950 . S
H829 C840 0.950 . S
H830 C842 0.950 . S
H831 C843 0.950 . S
C832 H824 0.950 . S
C832 C833 1.386 . S
C832 C834 1.391 . S
C833 C832 1.386 . S
C833 C837 1.393 . S
C834 H826 0.950 . S
C834 C832 1.391 . S
C834 C835 1.400 . S
C835 C834 1.400 . S
C835 C836 1.398 . S
C835 C841 1.491 . S
C836 H827 0.950 . S
C836 C835 1.398 . S
C836 C837 1.391 . S
C837 H825 0.950 . S
C837 C833 1.393 . S
C837 C836 1.391 . S
C838 H828 0.950 . S
C838 C839 1.386 . S
C838 C840 1.391 . S
C839 C838 1.386 . S
C839 C843 1.393 . S
C840 H829 0.950 . S
C840 C838 1.391 . S
C840 C841 1.400 . S
C841 C835 1.491 . S
C841 C840 1.400 . S
C841 C842 1.398 . S
C842 H830 0.950 . S
C842 C841 1.398 . S
C842 C843 1.391 . S
C843 H831 0.950 . S
C843 C839 1.393 . S
C843 C842 1.391 . S
H844 C852 0.950 . S
H845 C857 0.950 . S
H846 C854 0.950 . S
H847 C856 0.950 . S
H848 C858 0.950 . S
H849 C860 0.950 . S
H850 C862 0.950 . S
H851 C863 0.950 . S
C852 H844 0.950 . S
C852 C853 1.386 . S
C852 C854 1.391 . S
C853 C852 1.386 . S
C853 C857 1.393 . S
C854 H846 0.950 . S
C854 C852 1.391 . S
C854 C855 1.400 . S
C855 C854 1.400 . S
C855 C856 1.398 . S
C855 C861 1.491 . S
C856 H847 0.950 . S
C856 C855 1.398 . S
C856 C857 1.391 . S
C857 H845 0.950 . S
C857 C853 1.393 . S
C857 C856 1.391 . S
C858 H848 0.950 . S
C858 C859 1.386 . S
C858 C860 1.391 . S
C859 C858 1.386 . S
C859 C863 1.393 . S
C860 H849 0.950 . S
C860 C858 1.391 . S
C860 C861 1.400 . S
C861 C855 1.491 . S
C861 C860 1.400 . S
C861 C862 1.398 . S
C862 H850 0.950 . S
C862 C861 1.398 . S
C862 C863 1.391 . S
C863 H851 0.950 . S
C863 C859 1.393 . S
C863 C862 1.391 . S
H864 C872 0.950 . S
H865 C877 0.950 . S
H866 C874 0.950 . S
H867 C876 0.950 . S
H868 C878 0.950 . S
H869 C880 0.950 . S
H870 C882 0.950 . S
H871 C883 0.950 . S
C872 H864 0.950 . S
C872 C873 1.386 . S
C872 C874 1.391 . S
C873 C872 1.386 . S
C873 C877 1.393 . S
C874 H866 0.950 . S
C874 C872 1.391 . S
C874 C875 1.400 . S
C875 C874 1.400 . S
C875 C876 1.398 . S
C875 C881 1.491 . S
C876 H867 0.950 . S
C876 C875 1.398 . S
C876 C877 1.391 . S
C877 H865 0.950 . S
C877 C873 1.393 . S
C877 C876 1.391 . S
C878 H868 0.950 . S
C878 C879 1.386 . S
C878 C880 1.391 . S
C879 C878 1.386 . S
C879 C883 1.393 . S
C880 H869 0.950 . S
C880 C878 1.391 . S
C880 C881 1.400 . S
C881 C875 1.491 . S
C881 C880 1.400 . S
C881 C882 1.398 . S
C882 H870 0.950 . S
C882 C881 1.398 . S
C882 C883 1.391 . S
C883 H871 0.950 . S
C883 C879 1.393 . S
C883 C882 1.391 . S
H884 C892 0.950 . S
H885 C897 0.950 . S
H886 C894 0.950 . S
H887 C896 0.950 . S
H888 C898 0.950 . S
H889 C900 0.950 . S
H890 C902 0.950 . S
H891 C903 0.950 . S
C892 H884 0.950 . S
C892 C893 1.386 . S
C892 C894 1.391 . S
C893 C892 1.386 . S
C893 C897 1.393 . S
C894 H886 0.950 . S
C894 C892 1.391 . S
C894 C895 1.400 . S
C895 C894 1.400 . S
C895 C896 1.398 . S
C895 C901 1.491 . S
C896 H887 0.950 . S
C896 C895 1.398 . S
C896 C897 1.391 . S
C897 H885 0.950 . S
C897 C893 1.393 . S
C897 C896 1.391 . S
C898 H888 0.950 . S
C898 C899 1.386 . S
C898 C900 1.391 . S
C899 C898 1.386 . S
C899 C903 1.393 . S
C900 H889 0.950 . S
C900 C898 1.391 . S
C900 C901 1.400 . S
C901 C895 1.491 . S
C901 C900 1.400 . S
C901 C902 1.398 . S
C902 H890 0.950 . S
C902 C901 1.398 . S
C902 C903 1.391 . S
C903 H891 0.950 . S
C903 C899 1.393 . S
C903 C902 1.391 . S
H904 C912 0.950 . S
H905 C917 0.950 . S
H906 C914 0.950 . S
H907 C916 0.950 . S
H908 C918 0.950 . S
H909 C920 0.950 . S
H910 C922 0.950 . S
H911 C923 0.950 . S
C912 H904 0.950 . S
C912 C913 1.386 . S
C912 C914 1.391 . S
C913 C912 1.386 . S
C913 C917 1.393 . S
C914 H906 0.950 . S
C914 C912 1.391 . S
C914 C915 1.400 . S
C915 C914 1.400 . S
C915 C916 1.398 . S
C915 C921 1.491 . S
C916 H907 0.950 . S
C916 C915 1.398 . S
C916 C917 1.391 . S
C917 H905 0.950 . S
C917 C913 1.393 . S
C917 C916 1.391 . S
C918 H908 0.950 . S
C918 C919 1.386 . S
C918 C920 1.391 . S
C919 C918 1.386 . S
C919 C923 1.393 . S
C920 H909 0.950 . S
C920 C918 1.391 . S
C920 C921 1.400 . S
C921 C915 1.491 . S
C921 C920 1.400 . S
C921 C922 1.398 . S
C922 H910 0.950 . S
C922 C921 1.398 . S
C922 C923 1.391 . S
C923 H911 0.950 . S
C923 C919 1.393 . S
C923 C922 1.391 . S
H924 C932 0.950 . S
H925 C937 0.950 . S
H926 C934 0.950 . S
H927 C936 0.950 . S
H928 C938 0.950 . S
H929 C940 0.950 . S
H930 C942 0.954 . S
H931 C943 0.950 1_556 S
C932 H924 0.950 . S
C932 C933 1.386 . S
C932 C934 1.391 . S
C933 C932 1.386 . S
C933 C937 1.393 . S
C934 H926 0.950 . S
C934 C932 1.391 . S
C934 C935 1.400 . S
C935 C934 1.400 . S
C935 C936 1.398 . S
C935 C941 1.491 . S
C936 H927 0.950 . S
C936 C935 1.398 . S
C936 C937 1.391 . S
C937 H925 0.950 . S
C937 C933 1.393 . S
C937 C936 1.391 . S
C938 H928 0.950 . S
C938 C939 1.386 . S
C938 C940 1.391 . S
C939 C938 1.386 . S
C939 C943 1.393 . S
C940 H929 0.950 . S
C940 C938 1.391 . S
C940 C941 1.400 . S
C941 C935 1.491 . S
C941 C940 1.400 . S
C941 C942 1.398 . S
C942 H930 0.954 . S
C942 C941 1.398 . S
C942 C943 1.391 . S
C943 H931 0.950 1_554 S
C943 C939 1.393 . S
C943 C942 1.391 . S
H944 C952 0.950 . S
H945 C957 0.950 1_556 S
H946 C954 0.950 . S
H947 C956 0.950 1_556 S
H948 C958 1.000 . S
H949 C960 0.877 1_556 S
H950 C962 0.950 . S
H951 C963 0.950 . S
C952 H944 0.950 . S
C952 C953 1.386 . S
C952 C954 1.391 . S
C953 C952 1.386 . S
C953 C957 1.393 . S
C954 H946 0.950 . S
C954 C952 1.391 . S
C954 C955 1.400 . S
C955 C954 1.400 . S
C955 C956 1.398 . S
C955 C961 1.491 . S
C956 H947 0.950 1_554 S
C956 C955 1.398 . S
C956 C957 1.391 . S
C957 H945 0.950 1_554 S
C957 C953 1.393 . S
C957 C956 1.391 . S
C958 H948 1.000 . S
C958 C959 1.386 . S
C958 C960 1.391 . S
C959 C958 1.386 . S
C959 C963 1.393 . S
C960 H949 0.877 1_554 S
C960 C958 1.391 . S
C960 C961 1.400 . S
C961 C955 1.491 . S
C961 C960 1.400 . S
C961 C962 1.398 . S
C962 H950 0.950 . S
C962 C961 1.398 . S
C962 C963 1.391 . S
C963 H951 0.950 . S
C963 C959 1.393 . S
C963 C962 1.391 . S
H964 C972 0.950 . S
H965 C977 0.950 . S
H966 C974 0.950 . S
H967 C976 0.950 . S
H968 C978 0.950 . S
H969 C980 0.950 . S
H970 C982 0.950 . S
H971 C983 0.950 . S
C972 H964 0.950 . S
C972 C973 1.386 . S
C972 C974 1.391 . S
C973 C972 1.386 . S
C973 C977 1.393 . S
C974 H966 0.950 . S
C974 C972 1.391 . S
C974 C975 1.400 . S
C975 C974 1.400 . S
C975 C976 1.398 . S
C975 C981 1.491 . S
C976 H967 0.950 . S
C976 C975 1.398 . S
C976 C977 1.391 . S
C977 H965 0.950 . S
C977 C973 1.393 . S
C977 C976 1.391 . S
C978 H968 0.950 . S
C978 C979 1.386 . S
C978 C980 1.391 . S
C979 C978 1.386 . S
C979 C983 1.393 . S
C980 H969 0.950 . S
C980 C978 1.391 . S
C980 C981 1.400 . S
C981 C975 1.491 . S
C981 C980 1.400 . S
C981 C982 1.398 . S
C982 H970 0.950 . S
C982 C981 1.398 . S
C982 C983 1.391 . S
C983 H971 0.950 . S
C983 C979 1.393 . S
C983 C982 1.391 . S
H984 C992 0.950 . S
H985 C997 0.950 . S
H986 C994 0.950 . S
H987 C996 0.950 . S
H988 C998 0.950 . S
H989 C1000 0.950 . S
H990 C1002 0.950 . S
H991 C1003 0.950 . S
C992 H984 0.950 . S
C992 C993 1.386 . S
C992 C994 1.391 . S
C993 C992 1.386 . S
C993 C997 1.393 . S
C994 H986 0.950 . S
C994 C992 1.391 . S
C994 C995 1.400 . S
C995 C994 1.400 . S
C995 C996 1.398 . S
C995 C1001 1.491 . S
C996 H987 0.950 . S
C996 C995 1.398 . S
C996 C997 1.391 . S
C997 H985 0.950 . S
C997 C993 1.393 . S
C997 C996 1.391 . S
C998 H988 0.950 . S
C998 C999 1.386 . S
C998 C1000 1.391 . S
C999 C998 1.386 . S
C999 C1003 1.393 . S
C1000 H989 0.950 . S
C1000 C998 1.391 . S
C1000 C1001 1.400 . S
C1001 C995 1.491 . S
C1001 C1000 1.400 . S
C1001 C1002 1.398 . S
C1002 H990 0.950 . S
C1002 C1001 1.398 . S
C1002 C1003 1.391 . S
C1003 H991 0.950 . S
C1003 C999 1.393 . S
C1003 C1002 1.391 . S
H1004 C1012 0.950 . S
H1005 C1017 0.950 . S
H1006 C1014 0.950 . S
H1007 C1016 0.950 . S
H1008 C1018 0.950 . S
H1009 C1020 0.950 . S
H1010 C1022 0.950 . S
H1011 C1023 0.950 . S
C1012 H1004 0.950 . S
C1012 C1013 1.386 . S
C1012 C1014 1.391 . S
C1013 C1012 1.386 . S
C1013 C1017 1.393 . S
C1014 H1006 0.950 . S
C1014 C1012 1.391 . S
C1014 C1015 1.400 . S
C1015 C1014 1.400 . S
C1015 C1016 1.398 . S
C1015 C1021 1.491 . S
C1016 H1007 0.950 . S
C1016 C1015 1.398 . S
C1016 C1017 1.391 . S
C1017 H1005 0.950 . S
C1017 C1013 1.393 . S
C1017 C1016 1.391 . S
C1018 H1008 0.950 . S
C1018 C1019 1.386 . S
C1018 C1020 1.391 . S
C1019 C1018 1.386 . S
C1019 C1023 1.393 . S
C1020 H1009 0.950 . S
C1020 C1018 1.391 . S
C1020 C1021 1.400 . S
C1021 C1015 1.491 . S
C1021 C1020 1.400 . S
C1021 C1022 1.398 . S
C1022 H1010 0.950 . S
C1022 C1021 1.398 . S
C1022 C1023 1.391 . S
C1023 H1011 0.950 . S
C1023 C1019 1.393 . S
C1023 C1022 1.391 . S
H1024 C1032 0.950 . S
H1025 C1037 0.950 . S
H1026 C1034 0.950 . S
H1027 C1036 0.950 . S
H1028 C1038 0.950 . S
H1029 C1040 0.950 . S
H1030 C1042 0.950 . S
H1031 C1043 0.950 . S
C1032 H1024 0.950 . S
C1032 C1033 1.386 . S
C1032 C1034 1.391 . S
C1033 C1032 1.386 . S
C1033 C1037 1.393 . S
C1034 H1026 0.950 . S
C1034 C1032 1.391 . S
C1034 C1035 1.400 . S
C1035 C1034 1.400 . S
C1035 C1036 1.398 . S
C1035 C1041 1.491 . S
C1036 H1027 0.950 . S
C1036 C1035 1.398 . S
C1036 C1037 1.391 . S
C1037 H1025 0.950 . S
C1037 C1033 1.393 . S
C1037 C1036 1.391 . S
C1038 H1028 0.950 . S
C1038 C1039 1.386 . S
C1038 C1040 1.391 . S
C1039 C1038 1.386 . S
C1039 C1043 1.393 . S
C1040 H1029 0.950 . S
C1040 C1038 1.391 . S
C1040 C1041 1.400 . S
C1041 C1035 1.491 . S
C1041 C1040 1.400 . S
C1041 C1042 1.398 . S
C1042 H1030 0.950 . S
C1042 C1041 1.398 . S
C1042 C1043 1.391 . S
C1043 H1031 0.950 . S
C1043 C1039 1.393 . S
C1043 C1042 1.391 . S
H1044 C1052 0.950 . S
H1045 C1057 0.950 . S
H1046 C1054 0.950 . S
H1047 C1056 0.950 . S
H1048 C1058 0.950 . S
H1049 C1060 0.950 . S
H1050 C1062 0.950 . S
H1051 C1063 0.950 . S
C1052 H1044 0.950 . S
C1052 C1053 1.386 . S
C1052 C1054 1.391 . S
C1053 C1052 1.386 . S
C1053 C1057 1.393 . S
C1054 H1046 0.950 . S
C1054 C1052 1.391 . S
C1054 C1055 1.400 . S
C1055 C1054 1.400 . S
C1055 C1056 1.398 . S
C1055 C1061 1.491 . S
C1056 H1047 0.950 . S
C1056 C1055 1.398 . S
C1056 C1057 1.391 . S
C1057 H1045 0.950 . S
C1057 C1053 1.393 . S
C1057 C1056 1.391 . S
C1058 H1048 0.950 . S
C1058 C1059 1.386 . S
C1058 C1060 1.391 . S
C1059 C1058 1.386 . S
C1059 C1063 1.393 . S
C1060 H1049 0.950 . S
C1060 C1058 1.391 . S
C1060 C1061 1.400 . S
C1061 C1055 1.491 . S
C1061 C1060 1.400 . S
C1061 C1062 1.398 . S
C1062 H1050 0.950 . S
C1062 C1061 1.398 . S
C1062 C1063 1.391 . S
C1063 H1051 0.950 . S
C1063 C1059 1.393 . S
C1063 C1062 1.391 . S
H1064 C1072 0.950 . S
H1065 C1077 0.950 . S
H1066 C1074 0.950 . S
H1067 C1076 0.950 . S
H1068 C1078 0.950 . S
H1069 C1080 0.950 . S
H1070 C1082 0.950 . S
H1071 C1083 0.950 . S
C1072 H1064 0.950 . S
C1072 C1073 1.386 . S
C1072 C1074 1.391 . S
C1073 C1072 1.386 . S
C1073 C1077 1.393 . S
C1074 H1066 0.950 . S
C1074 C1072 1.391 . S
C1074 C1075 1.400 . S
C1075 C1074 1.400 . S
C1075 C1076 1.398 . S
C1075 C1081 1.491 . S
C1076 H1067 0.950 . S
C1076 C1075 1.398 . S
C1076 C1077 1.391 . S
C1077 H1065 0.950 . S
C1077 C1073 1.393 . S
C1077 C1076 1.391 . S
C1078 H1068 0.950 . S
C1078 C1079 1.386 . S
C1078 C1080 1.391 . S
C1079 C1078 1.386 . S
C1079 C1083 1.393 . S
C1080 H1069 0.950 . S
C1080 C1078 1.391 . S
C1080 C1081 1.400 . S
C1081 C1075 1.491 . S
C1081 C1080 1.400 . S
C1081 C1082 1.398 . S
C1082 H1070 0.950 . S
C1082 C1081 1.398 . S
C1082 C1083 1.391 . S
C1083 H1071 0.950 . S
C1083 C1079 1.393 . S
C1083 C1082 1.391 . S
H1084 C1092 0.950 . S
H1085 C1097 0.950 . S
H1086 C1094 0.950 . S
H1087 C1096 0.950 . S
H1088 C1098 0.950 . S
H1089 C1100 0.950 . S
H1090 C1102 0.950 . S
H1091 C1103 0.892 1_554 S
C1092 H1084 0.950 . S
C1092 C1093 1.386 . S
C1092 C1094 1.391 . S
C1093 C1092 1.386 . S
C1093 C1097 1.393 . S
C1094 H1086 0.950 . S
C1094 C1092 1.391 . S
C1094 C1095 1.400 . S
C1095 C1094 1.400 . S
C1095 C1096 1.398 . S
C1095 C1101 1.491 . S
C1096 H1087 0.950 . S
C1096 C1095 1.398 . S
C1096 C1097 1.391 . S
C1097 H1085 0.950 . S
C1097 C1093 1.393 . S
C1097 C1096 1.391 . S
C1098 H1088 0.950 . S
C1098 C1099 1.386 . S
C1098 C1100 1.391 . S
C1099 C1098 1.386 . S
C1099 C1103 1.393 . S
C1100 H1089 0.950 . S
C1100 C1098 1.391 . S
C1100 C1101 1.400 . S
C1101 C1095 1.491 . S
C1101 C1100 1.400 . S
C1101 C1102 1.398 . S
C1102 H1090 0.950 . S
C1102 C1101 1.398 . S
C1102 C1103 1.391 . S
C1103 H1091 0.892 1_556 S
C1103 C1099 1.393 . S
C1103 C1102 1.391 . S
H1104 C1112 0.950 . S
H1105 C1117 0.950 . S
H1106 C1114 0.950 . S
H1107 C1116 0.950 . S
H1108 C1118 0.950 . S
H1109 C1120 0.950 . S
H1110 C1122 0.950 . S
H1111 C1123 0.950 . S
C1112 H1104 0.950 . S
C1112 C1113 1.386 . S
C1112 C1114 1.391 . S
C1113 C1112 1.386 . S
C1113 C1117 1.393 . S
C1114 H1106 0.950 . S
C1114 C1112 1.391 . S
C1114 C1115 1.400 . S
C1115 C1114 1.400 . S
C1115 C1116 1.398 . S
C1115 C1121 1.491 . S
C1116 H1107 0.950 . S
C1116 C1115 1.398 . S
C1116 C1117 1.391 . S
C1117 H1105 0.950 . S
C1117 C1113 1.393 . S
C1117 C1116 1.391 . S
C1118 H1108 0.950 . S
C1118 C1119 1.386 . S
C1118 C1120 1.391 . S
C1119 C1118 1.386 . S
C1119 C1123 1.393 . S
C1120 H1109 0.950 . S
C1120 C1118 1.391 . S
C1120 C1121 1.400 . S
C1121 C1115 1.491 . S
C1121 C1120 1.400 . S
C1121 C1122 1.398 . S
C1122 H1110 0.950 . S
C1122 C1121 1.398 . S
C1122 C1123 1.391 . S
C1123 H1111 0.950 . S
C1123 C1119 1.393 . S
C1123 C1122 1.391 . S
H1124 C1132 0.950 . S
H1125 C1137 0.950 . S
H1126 C1134 0.950 . S
H1127 C1136 0.950 . S
H1128 C1138 0.950 . S
H1129 C1140 0.950 . S
H1130 C1142 0.950 . S
H1131 C1143 0.950 . S
C1132 H1124 0.950 . S
C1132 C1133 1.386 . S
C1132 C1134 1.391 . S
C1133 C1132 1.386 . S
C1133 C1137 1.393 . S
C1134 H1126 0.950 . S
C1134 C1132 1.391 . S
C1134 C1135 1.400 . S
C1135 C1134 1.400 . S
C1135 C1136 1.398 . S
C1135 C1141 1.491 . S
C1136 H1127 0.950 . S
C1136 C1135 1.398 . S
C1136 C1137 1.391 . S
C1137 H1125 0.950 . S
C1137 C1133 1.393 . S
C1137 C1136 1.391 . S
C1138 H1128 0.950 . S
C1138 C1139 1.386 . S
C1138 C1140 1.391 . S
C1139 C1138 1.386 . S
C1139 C1143 1.393 . S
C1140 H1129 0.950 . S
C1140 C1138 1.391 . S
C1140 C1141 1.400 . S
C1141 C1135 1.491 . S
C1141 C1140 1.400 . S
C1141 C1142 1.398 . S
C1142 H1130 0.950 . S
C1142 C1141 1.398 . S
C1142 C1143 1.391 . S
C1143 H1131 0.950 . S
C1143 C1139 1.393 . S
C1143 C1142 1.391 . S
H1144 C1152 0.950 . S
H1145 C1157 0.950 . S
H1146 C1154 0.950 . S
H1147 C1156 0.950 . S
H1148 C1158 0.950 . S
H1149 C1160 0.950 . S
H1150 C1162 0.950 . S
H1151 C1163 0.950 . S
C1152 H1144 0.950 . S
C1152 C1153 1.386 . S
C1152 C1154 1.391 . S
C1153 C1152 1.386 . S
C1153 C1157 1.393 . S
C1154 H1146 0.950 . S
C1154 C1152 1.391 . S
C1154 C1155 1.400 . S
C1155 C1154 1.400 . S
C1155 C1156 1.398 . S
C1155 C1161 1.491 . S
C1156 H1147 0.950 . S
C1156 C1155 1.398 . S
C1156 C1157 1.391 . S
C1157 H1145 0.950 . S
C1157 C1153 1.393 . S
C1157 C1156 1.391 . S
C1158 H1148 0.950 . S
C1158 C1159 1.386 . S
C1158 C1160 1.391 . S
C1159 C1158 1.386 . S
C1159 C1163 1.393 . S
C1160 H1149 0.950 . S
C1160 C1158 1.391 . S
C1160 C1161 1.400 . S
C1161 C1155 1.491 . S
C1161 C1160 1.400 . S
C1161 C1162 1.398 . S
C1162 H1150 0.950 . S
C1162 C1161 1.398 . S
C1162 C1163 1.391 . S
C1163 H1151 0.950 . S
C1163 C1159 1.393 . S
C1163 C1162 1.391 . S
H1164 C1172 0.950 . S
H1165 C1177 0.950 . S
H1166 C1174 0.950 . S
H1167 C1176 0.950 . S
H1168 C1178 0.950 . S
H1169 C1180 0.950 . S
H1170 C1182 0.950 . S
H1171 C1183 0.950 . S
C1172 H1164 0.950 . S
C1172 C1173 1.386 . S
C1172 C1174 1.391 . S
C1173 C1172 1.386 . S
C1173 C1177 1.393 . S
C1174 H1166 0.950 . S
C1174 C1172 1.391 . S
C1174 C1175 1.400 . S
C1175 C1174 1.400 . S
C1175 C1176 1.398 . S
C1175 C1181 1.491 . S
C1176 H1167 0.950 . S
C1176 C1175 1.398 . S
C1176 C1177 1.391 . S
C1177 H1165 0.950 . S
C1177 C1173 1.393 . S
C1177 C1176 1.391 . S
C1178 H1168 0.950 . S
C1178 C1179 1.386 . S
C1178 C1180 1.391 . S
C1179 C1178 1.386 . S
C1179 C1183 1.393 . S
C1180 H1169 0.950 . S
C1180 C1178 1.391 . S
C1180 C1181 1.400 . S
C1181 C1175 1.491 . S
C1181 C1180 1.400 . S
C1181 C1182 1.398 . S
C1182 H1170 0.950 . S
C1182 C1181 1.398 . S
C1182 C1183 1.391 . S
C1183 H1171 0.950 . S
C1183 C1179 1.393 . S
C1183 C1182 1.391 . S
H1184 C1192 0.950 . S
H1185 C1197 0.950 . S
H1186 C1194 0.950 . S
H1187 C1196 0.950 . S
H1188 C1198 0.950 . S
H1189 C1200 0.950 . S
H1190 C1202 0.950 . S
H1191 C1203 0.950 . S
C1192 H1184 0.950 . S
C1192 C1193 1.386 . S
C1192 C1194 1.391 . S
C1193 C1192 1.386 . S
C1193 C1197 1.393 . S
C1194 H1186 0.950 . S
C1194 C1192 1.391 . S
C1194 C1195 1.400 . S
C1195 C1194 1.400 . S
C1195 C1196 1.398 . S
C1195 C1201 1.491 . S
C1196 H1187 0.950 . S
C1196 C1195 1.398 . S
C1196 C1197 1.391 . S
C1197 H1185 0.950 . S
C1197 C1193 1.393 . S
C1197 C1196 1.391 . S
C1198 H1188 0.950 . S
C1198 C1199 1.386 . S
C1198 C1200 1.391 . S
C1199 C1198 1.386 . S
C1199 C1203 1.393 . S
C1200 H1189 0.950 . S
C1200 C1198 1.391 . S
C1200 C1201 1.400 . S
C1201 C1195 1.491 . S
C1201 C1200 1.400 . S
C1201 C1202 1.398 . S
C1202 H1190 0.950 . S
C1202 C1201 1.398 . S
C1202 C1203 1.391 . S
C1203 H1191 0.950 . S
C1203 C1199 1.393 . S
C1203 C1202 1.391 . S
H1204 C1212 0.950 . S
H1205 C1217 0.950 . S
H1206 C1214 0.950 . S
H1207 C1216 0.950 . S
H1208 C1218 0.950 . S
H1209 C1220 0.950 . S
H1210 C1222 0.950 . S
H1211 C1223 0.950 . S
C1212 H1204 0.950 . S
C1212 C1213 1.386 . S
C1212 C1214 1.391 . S
C1213 C1212 1.386 . S
C1213 C1217 1.393 . S
C1214 H1206 0.950 . S
C1214 C1212 1.391 . S
C1214 C1215 1.400 . S
C1215 C1214 1.400 . S
C1215 C1216 1.398 . S
C1215 C1221 1.491 . S
C1216 H1207 0.950 . S
C1216 C1215 1.398 . S
C1216 C1217 1.391 . S
C1217 H1205 0.950 . S
C1217 C1213 1.393 . S
C1217 C1216 1.391 . S
C1218 H1208 0.950 . S
C1218 C1219 1.386 . S
C1218 C1220 1.391 . S
C1219 C1218 1.386 . S
C1219 C1223 1.393 . S
C1220 H1209 0.950 . S
C1220 C1218 1.391 . S
C1220 C1221 1.400 . S
C1221 C1215 1.491 . S
C1221 C1220 1.400 . S
C1221 C1222 1.398 . S
C1222 H1210 0.950 . S
C1222 C1221 1.398 . S
C1222 C1223 1.391 . S
C1223 H1211 0.950 . S
C1223 C1219 1.393 . S
C1223 C1222 1.391 . S
H1224 C1232 0.950 . S
H1225 C1237 0.950 . S
H1226 C1234 0.950 . S
H1227 C1236 0.950 . S
H1228 C1238 0.950 . S
H1229 C1240 0.950 . S
H1230 C1242 0.950 . S
H1231 C1243 0.950 . S
C1232 H1224 0.950 . S
C1232 C1233 1.386 . S
C1232 C1234 1.391 . S
C1233 C1232 1.386 . S
C1233 C1237 1.393 . S
C1234 H1226 0.950 . S
C1234 C1232 1.391 . S
C1234 C1235 1.400 . S
C1235 C1234 1.400 . S
C1235 C1236 1.398 . S
C1235 C1241 1.491 . S
C1236 H1227 0.950 . S
C1236 C1235 1.398 . S
C1236 C1237 1.391 . S
C1237 H1225 0.950 . S
C1237 C1233 1.393 . S
C1237 C1236 1.391 . S
C1238 H1228 0.950 . S
C1238 C1239 1.386 . S
C1238 C1240 1.391 . S
C1239 C1238 1.386 . S
C1239 C1243 1.393 . S
C1240 H1229 0.950 . S
C1240 C1238 1.391 . S
C1240 C1241 1.400 . S
C1241 C1235 1.491 . S
C1241 C1240 1.400 . S
C1241 C1242 1.398 . S
C1242 H1230 0.950 . S
C1242 C1241 1.398 . S
C1242 C1243 1.391 . S
C1243 H1231 0.950 . S
C1243 C1239 1.393 . S
C1243 C1242 1.391 . S
H1244 C1252 0.950 . S
H1245 C1257 0.950 . S
H1246 C1254 0.950 . S
H1247 C1256 0.950 . S
H1248 C1258 0.950 . S
H1249 C1260 0.950 . S
H1250 C1262 0.950 . S
H1251 C1263 0.950 . S
C1252 H1244 0.950 . S
C1252 C1253 1.386 . S
C1252 C1254 1.391 . S
C1253 C1252 1.386 . S
C1253 C1257 1.393 1_545 S
C1254 H1246 0.950 . S
C1254 C1252 1.391 . S
C1254 C1255 1.400 . S
C1255 C1254 1.400 . S
C1255 C1256 1.398 1_545 S
C1255 C1261 1.491 1_545 S
C1256 H1247 0.950 . S
C1256 C1255 1.398 1_565 S
C1256 C1257 1.391 . S
C1257 H1245 0.950 . S
C1257 C1253 1.393 1_565 S
C1257 C1256 1.391 . S
C1258 H1248 0.950 . S
C1258 C1259 1.386 . S
C1258 C1260 1.391 . S
C1259 C1258 1.386 . S
C1259 C1263 1.393 1_565 S
C1260 H1249 0.950 . S
C1260 C1258 1.391 . S
C1260 C1261 1.400 . S
C1261 C1255 1.491 1_565 S
C1261 C1260 1.400 . S
C1261 C1262 1.398 1_565 S
C1262 H1250 0.950 . S
C1262 C1261 1.398 1_545 S
C1262 C1263 1.391 . S
C1263 H1251 0.950 . S
C1263 C1259 1.393 1_545 S
C1263 C1262 1.391 . S
H1264 C1272 0.950 . S
H1265 C1277 0.950 . S
H1266 C1274 0.950 . S
H1267 C1276 0.950 . S
H1268 C1278 0.950 . S
H1269 C1280 0.950 . S
H1270 C1282 0.950 . S
H1271 C1283 0.950 . S
C1272 H1264 0.950 . S
C1272 C1273 1.386 1_655 S
C1272 C1274 1.391 . S
C1273 C1272 1.386 1_455 S
C1273 C1277 1.393 . S
C1274 H1266 0.950 . S
C1274 C1272 1.391 . S
C1274 C1275 1.400 1_655 S
C1275 C1274 1.400 1_455 S
C1275 C1276 1.398 . S
C1275 C1281 1.491 1_455 S
C1276 H1267 0.950 . S
C1276 C1275 1.398 . S
C1276 C1277 1.391 . S
C1277 H1265 0.950 . S
C1277 C1273 1.393 . S
C1277 C1276 1.391 . S
C1278 H1268 0.950 . S
C1278 C1279 1.386 1_455 S
C1278 C1280 1.391 . S
C1279 C1278 1.386 1_655 S
C1279 C1283 1.393 . S
C1280 H1269 0.950 . S
C1280 C1278 1.391 . S
C1280 C1281 1.400 1_455 S
C1281 C1275 1.491 1_655 S
C1281 C1280 1.400 1_655 S
C1281 C1282 1.398 . S
C1282 H1270 0.950 . S
C1282 C1281 1.398 . S
C1282 C1283 1.391 . S
C1283 H1271 0.950 . S
C1283 C1279 1.393 . S
C1283 C1282 1.391 . S
H1284 C1292 0.950 . S
H1285 C1297 0.950 . S
H1286 C1294 0.950 . S
H1287 C1296 0.950 . S
H1288 C1298 0.950 . S
H1289 C1300 0.950 . S
H1290 C1302 0.950 . S
H1291 C1303 0.950 . S
C1292 H1284 0.950 . S
C1292 C1293 1.386 . S
C1292 C1294 1.391 . S
C1293 C1292 1.386 . S
C1293 C1297 1.393 . S
C1294 H1286 0.950 . S
C1294 C1292 1.391 . S
C1294 C1295 1.400 . S
C1295 C1294 1.400 . S
C1295 C1296 1.398 . S
C1295 C1301 1.491 . S
C1296 H1287 0.950 . S
C1296 C1295 1.398 . S
C1296 C1297 1.391 . S
C1297 H1285 0.950 . S
C1297 C1293 1.393 . S
C1297 C1296 1.391 . S
C1298 H1288 0.950 . S
C1298 C1299 1.386 . S
C1298 C1300 1.391 . S
C1299 C1298 1.386 . S
C1299 C1303 1.393 . S
C1300 H1289 0.950 . S
C1300 C1298 1.391 . S
C1300 C1301 1.400 . S
C1301 C1295 1.491 . S
C1301 C1300 1.400 . S
C1301 C1302 1.398 . S
C1302 H1290 0.950 . S
C1302 C1301 1.398 . S
C1302 C1303 1.391 . S
C1303 H1291 0.950 . S
C1303 C1299 1.393 . S
C1303 C1302 1.391 . S
H1304 C1312 0.950 . S
H1305 C1317 0.950 . S
H1306 C1314 0.950 . S
H1307 C1316 0.950 . S
H1308 C1318 0.950 . S
H1309 C1320 0.950 . S
H1310 C1322 0.950 . S
H1311 C1323 0.950 . S
C1312 H1304 0.950 . S
C1312 C1313 1.386 . S
C1312 C1314 1.391 . S
C1313 C1312 1.386 . S
C1313 C1317 1.393 1_565 S
C1314 H1306 0.950 . S
C1314 C1312 1.391 . S
C1314 C1315 1.400 . S
C1315 C1314 1.400 . S
C1315 C1316 1.398 1_565 S
C1315 C1321 1.491 1_565 S
C1316 H1307 0.950 . S
C1316 C1315 1.398 1_545 S
C1316 C1317 1.391 . S
C1317 H1305 0.950 . S
C1317 C1313 1.393 1_545 S
C1317 C1316 1.391 . S
C1318 H1308 0.950 . S
C1318 C1319 1.386 . S
C1318 C1320 1.391 . S
C1319 C1318 1.386 . S
C1319 C1323 1.393 1_545 S
C1320 H1309 0.950 . S
C1320 C1318 1.391 . S
C1320 C1321 1.400 . S
C1321 C1315 1.491 1_545 S
C1321 C1320 1.400 . S
C1321 C1322 1.398 1_545 S
C1322 H1310 0.950 . S
C1322 C1321 1.398 1_565 S
C1322 C1323 1.391 . S
C1323 H1311 0.950 . S
C1323 C1319 1.393 1_565 S
C1323 C1322 1.391 . S
H1324 C1332 0.950 . S
H1325 C1337 0.950 . S
H1326 C1334 0.950 . S
H1327 C1336 0.950 . S
H1328 C1338 0.950 . S
H1329 C1340 0.950 . S
H1330 C1342 0.950 . S
H1331 C1343 0.950 . S
C1332 H1324 0.950 . S
C1332 C1333 1.386 . S
C1332 C1334 1.391 . S
C1333 C1332 1.386 . S
C1333 C1337 1.393 1_655 S
C1334 H1326 0.950 . S
C1334 C1332 1.391 . S
C1334 C1335 1.400 . S
C1335 C1334 1.400 . S
C1335 C1336 1.398 1_655 S
C1335 C1341 1.491 1_655 S
C1336 H1327 0.950 . S
C1336 C1335 1.398 1_455 S
C1336 C1337 1.391 . S
C1337 H1325 0.950 . S
C1337 C1333 1.393 1_455 S
C1337 C1336 1.391 . S
C1338 H1328 0.950 . S
C1338 C1339 1.386 . S
C1338 C1340 1.391 . S
C1339 C1338 1.386 . S
C1339 C1343 1.393 1_455 S
C1340 H1329 0.950 . S
C1340 C1338 1.391 . S
C1340 C1341 1.400 . S
C1341 C1335 1.491 1_455 S
C1341 C1340 1.400 . S
C1341 C1342 1.398 1_455 S
C1342 H1330 0.950 . S
C1342 C1341 1.398 1_655 S
C1342 C1343 1.391 . S
C1343 H1331 0.950 . S
C1343 C1339 1.393 1_655 S
C1343 C1342 1.391 . S
H1344 C1352 0.950 . S
H1345 C1357 0.950 . S
H1346 C1354 0.950 . S
H1347 C1356 0.950 . S
H1348 C1358 0.950 . S
H1349 C1360 0.950 . S
H1350 C1362 0.950 . S
H1351 C1363 0.950 . S
C1352 H1344 0.950 . S
C1352 C1353 1.386 . S
C1352 C1354 1.391 . S
C1353 C1352 1.386 . S
C1353 C1357 1.393 . S
C1354 H1346 0.950 . S
C1354 C1352 1.391 . S
C1354 C1355 1.400 . S
C1355 C1354 1.400 . S
C1355 C1356 1.398 . S
C1355 C1361 1.491 . S
C1356 H1347 0.950 . S
C1356 C1355 1.398 . S
C1356 C1357 1.391 . S
C1357 H1345 0.950 . S
C1357 C1353 1.393 . S
C1357 C1356 1.391 . S
C1358 H1348 0.950 . S
C1358 C1359 1.386 . S
C1358 C1360 1.391 . S
C1359 C1358 1.386 . S
C1359 C1363 1.393 . S
C1360 H1349 0.950 . S
C1360 C1358 1.391 . S
C1360 C1361 1.400 . S
C1361 C1355 1.491 . S
C1361 C1360 1.400 . S
C1361 C1362 1.398 . S
C1362 H1350 0.950 . S
C1362 C1361 1.398 . S
C1362 C1363 1.391 . S
C1363 H1351 0.950 . S
C1363 C1359 1.393 . S
C1363 C1362 1.391 . S
H1364 C1372 0.950 . S
H1365 C1377 0.950 . S
H1366 C1374 0.950 . S
H1367 C1376 0.950 . S
H1368 C1378 0.950 . S
H1369 C1380 0.950 . S
H1370 C1382 0.950 . S
H1371 C1383 0.950 . S
C1372 H1364 0.950 . S
C1372 C1373 1.386 . S
C1372 C1374 1.391 . S
C1373 C1372 1.386 . S
C1373 C1377 1.393 . S
C1374 H1366 0.950 . S
C1374 C1372 1.391 . S
C1374 C1375 1.400 . S
C1375 C1374 1.400 . S
C1375 C1376 1.398 . S
C1375 C1381 1.491 . S
C1376 H1367 0.950 . S
C1376 C1375 1.398 . S
C1376 C1377 1.391 . S
C1377 H1365 0.950 . S
C1377 C1373 1.393 . S
C1377 C1376 1.391 . S
C1378 H1368 0.950 . S
C1378 C1379 1.386 . S
C1378 C1380 1.391 . S
C1379 C1378 1.386 . S
C1379 C1383 1.393 . S
C1380 H1369 0.950 . S
C1380 C1378 1.391 . S
C1380 C1381 1.400 . S
C1381 C1375 1.491 . S
C1381 C1380 1.400 . S
C1381 C1382 1.398 . S
C1382 H1370 0.950 . S
C1382 C1381 1.398 . S
C1382 C1383 1.391 . S
C1383 H1371 0.950 . S
C1383 C1379 1.393 . S
C1383 C1382 1.391 . S
H1384 C1392 0.950 . S
H1385 C1397 0.950 . S
H1386 C1394 0.950 . S
H1387 C1396 0.950 . S
H1388 C1398 0.950 . S
H1389 C1400 0.950 . S
H1390 C1402 0.950 . S
H1391 C1403 0.950 . S
C1392 H1384 0.950 . S
C1392 C1393 1.386 . S
C1392 C1394 1.391 . S
C1393 C1392 1.386 . S
C1393 C1397 1.393 . S
C1394 H1386 0.950 . S
C1394 C1392 1.391 . S
C1394 C1395 1.400 . S
C1395 C1394 1.400 . S
C1395 C1396 1.398 . S
C1395 C1401 1.491 . S
C1396 H1387 0.950 . S
C1396 C1395 1.398 . S
C1396 C1397 1.391 . S
C1397 H1385 0.950 . S
C1397 C1393 1.393 . S
C1397 C1396 1.391 . S
C1398 H1388 0.950 . S
C1398 C1399 1.386 . S
C1398 C1400 1.391 . S
C1399 C1398 1.386 . S
C1399 C1403 1.393 . S
C1400 H1389 0.950 . S
C1400 C1398 1.391 . S
C1400 C1401 1.400 . S
C1401 C1395 1.491 . S
C1401 C1400 1.400 . S
C1401 C1402 1.398 . S
C1402 H1390 0.950 . S
C1402 C1401 1.398 . S
C1402 C1403 1.391 . S
C1403 H1391 0.950 . S
C1403 C1399 1.393 . S
C1403 C1402 1.391 . S
H1404 C1412 0.950 . S
H1405 C1417 0.950 . S
H1406 C1414 0.950 . S
H1407 C1416 0.950 . S
H1408 C1418 0.950 . S
H1409 C1420 0.950 . S
H1410 C1422 0.950 . S
H1411 C1423 0.950 . S
C1412 H1404 0.950 . S
C1412 C1413 1.386 . S
C1412 C1414 1.391 . S
C1413 C1412 1.386 . S
C1413 C1417 1.393 . S
C1414 H1406 0.950 . S
C1414 C1412 1.391 . S
C1414 C1415 1.400 . S
C1415 C1414 1.400 . S
C1415 C1416 1.398 . S
C1415 C1421 1.491 . S
C1416 H1407 0.950 . S
C1416 C1415 1.398 . S
C1416 C1417 1.391 . S
C1417 H1405 0.950 . S
C1417 C1413 1.393 . S
C1417 C1416 1.391 . S
C1418 H1408 0.950 . S
C1418 C1419 1.386 . S
C1418 C1420 1.391 . S
C1419 C1418 1.386 . S
C1419 C1423 1.393 . S
C1420 H1409 0.950 . S
C1420 C1418 1.391 . S
C1420 C1421 1.400 . S
C1421 C1415 1.491 . S
C1421 C1420 1.400 . S
C1421 C1422 1.398 . S
C1422 H1410 0.950 . S
C1422 C1421 1.398 . S
C1422 C1423 1.391 . S
C1423 H1411 0.950 . S
C1423 C1419 1.393 . S
C1423 C1422 1.391 . S
H1424 C1432 0.950 . S
H1425 C1437 0.950 . S
H1426 C1434 0.950 . S
H1427 C1436 0.950 . S
H1428 C1438 0.950 . S
H1429 C1440 0.950 . S
H1430 C1442 0.950 . S
H1431 C1443 0.950 . S
C1432 H1424 0.950 . S
C1432 C1433 1.386 . S
C1432 C1434 1.391 . S
C1433 C1432 1.386 . S
C1433 C1437 1.393 . S
C1434 H1426 0.950 . S
C1434 C1432 1.391 . S
C1434 C1435 1.400 . S
C1435 C1434 1.400 . S
C1435 C1436 1.398 . S
C1435 C1441 1.491 . S
C1436 H1427 0.950 . S
C1436 C1435 1.398 . S
C1436 C1437 1.391 . S
C1437 H1425 0.950 . S
C1437 C1433 1.393 . S
C1437 C1436 1.391 . S
C1438 H1428 0.950 . S
C1438 C1439 1.386 . S
C1438 C1440 1.391 . S
C1439 C1438 1.386 . S
C1439 C1443 1.393 . S
C1440 H1429 0.950 . S
C1440 C1438 1.391 . S
C1440 C1441 1.400 . S
C1441 C1435 1.491 . S
C1441 C1440 1.400 . S
C1441 C1442 1.398 . S
C1442 H1430 0.950 . S
C1442 C1441 1.398 . S
C1442 C1443 1.391 . S
C1443 H1431 0.950 . S
C1443 C1439 1.393 . S
C1443 C1442 1.391 . S
H1444 C1452 0.950 . S
H1445 C1457 0.950 . S
H1446 C1454 0.950 . S
H1447 C1456 0.950 . S
H1448 C1458 0.950 . S
H1449 C1460 0.950 . S
H1450 C1462 0.950 . S
H1451 C1463 0.950 . S
C1452 H1444 0.950 . S
C1452 C1453 1.386 . S
C1452 C1454 1.391 . S
C1453 C1452 1.386 . S
C1453 C1457 1.393 . S
C1454 H1446 0.950 . S
C1454 C1452 1.391 . S
C1454 C1455 1.400 . S
C1455 C1454 1.400 . S
C1455 C1456 1.398 . S
C1455 C1461 1.491 . S
C1456 H1447 0.950 . S
C1456 C1455 1.398 . S
C1456 C1457 1.391 . S
C1457 H1445 0.950 . S
C1457 C1453 1.393 . S
C1457 C1456 1.391 . S
C1458 H1448 0.950 . S
C1458 C1459 1.386 . S
C1458 C1460 1.391 . S
C1459 C1458 1.386 . S
C1459 C1463 1.393 . S
C1460 H1449 0.950 . S
C1460 C1458 1.391 . S
C1460 C1461 1.400 . S
C1461 C1455 1.491 . S
C1461 C1460 1.400 . S
C1461 C1462 1.398 . S
C1462 H1450 0.950 . S
C1462 C1461 1.398 . S
C1462 C1463 1.391 . S
C1463 H1451 0.950 . S
C1463 C1459 1.393 . S
C1463 C1462 1.391 . S
H1464 C1472 0.950 . S
H1465 C1477 0.950 . S
H1466 C1474 0.950 . S
H1467 C1476 0.950 . S
H1468 C1478 0.950 . S
H1469 C1480 0.950 . S
H1470 C1482 0.950 . S
H1471 C1483 0.950 . S
C1472 H1464 0.950 . S
C1472 C1473 1.386 . S
C1472 C1474 1.391 . S
C1473 C1472 1.386 . S
C1473 C1477 1.393 . S
C1474 H1466 0.950 . S
C1474 C1472 1.391 . S
C1474 C1475 1.400 . S
C1475 C1474 1.400 . S
C1475 C1476 1.398 . S
C1475 C1481 1.491 . S
C1476 H1467 0.950 . S
C1476 C1475 1.398 . S
C1476 C1477 1.391 . S
C1477 H1465 0.950 . S
C1477 C1473 1.393 . S
C1477 C1476 1.391 . S
C1478 H1468 0.950 . S
C1478 C1479 1.386 . S
C1478 C1480 1.391 . S
C1479 C1478 1.386 . S
C1479 C1483 1.393 . S
C1480 H1469 0.950 . S
C1480 C1478 1.391 . S
C1480 C1481 1.400 . S
C1481 C1475 1.491 . S
C1481 C1480 1.400 . S
C1481 C1482 1.398 . S
C1482 H1470 0.950 . S
C1482 C1481 1.398 . S
C1482 C1483 1.391 . S
C1483 H1471 0.950 . S
C1483 C1479 1.393 . S
C1483 C1482 1.391 . S
H1484 C1492 0.950 . S
H1485 C1497 0.950 . S
H1486 C1494 0.950 . S
H1487 C1496 0.950 . S
H1488 C1498 0.950 . S
H1489 C1500 0.950 . S
H1490 C1502 0.950 . S
H1491 C1503 0.950 . S
C1492 H1484 0.950 . S
C1492 C1493 1.386 . S
C1492 C1494 1.391 . S
C1493 C1492 1.386 . S
C1493 C1497 1.393 . S
C1494 H1486 0.950 . S
C1494 C1492 1.391 . S
C1494 C1495 1.400 . S
C1495 C1494 1.400 . S
C1495 C1496 1.398 . S
C1495 C1501 1.491 . S
C1496 H1487 0.950 . S
C1496 C1495 1.398 . S
C1496 C1497 1.391 . S
C1497 H1485 0.950 . S
C1497 C1493 1.393 . S
C1497 C1496 1.391 . S
C1498 H1488 0.950 . S
C1498 C1499 1.386 . S
C1498 C1500 1.391 . S
C1499 C1498 1.386 . S
C1499 C1503 1.393 . S
C1500 H1489 0.950 . S
C1500 C1498 1.391 . S
C1500 C1501 1.400 . S
C1501 C1495 1.491 . S
C1501 C1500 1.400 . S
C1501 C1502 1.398 . S
C1502 H1490 0.950 . S
C1502 C1501 1.398 . S
C1502 C1503 1.391 . S
C1503 H1491 0.950 . S
C1503 C1499 1.393 . S
C1503 C1502 1.391 . S
H1504 C1512 0.950 . S
H1505 C1517 0.950 . S
H1506 C1514 0.950 . S
H1507 C1516 0.950 . S
H1508 C1518 0.950 . S
H1509 C1520 0.950 . S
H1510 C1522 0.950 . S
H1511 C1523 0.950 . S
C1512 H1504 0.950 . S
C1512 C1513 1.386 . S
C1512 C1514 1.391 . S
C1513 C1512 1.386 . S
C1513 C1517 1.393 . S
C1514 H1506 0.950 . S
C1514 C1512 1.391 . S
C1514 C1515 1.400 . S
C1515 C1514 1.400 . S
C1515 C1516 1.398 . S
C1515 C1521 1.491 . S
C1516 H1507 0.950 . S
C1516 C1515 1.398 . S
C1516 C1517 1.391 . S
C1517 H1505 0.950 . S
C1517 C1513 1.393 . S
C1517 C1516 1.391 . S
C1518 H1508 0.950 . S
C1518 C1519 1.386 . S
C1518 C1520 1.391 . S
C1519 C1518 1.386 . S
C1519 C1523 1.393 . S
C1520 H1509 0.950 . S
C1520 C1518 1.391 . S
C1520 C1521 1.400 . S
C1521 C1515 1.491 . S
C1521 C1520 1.400 . S
C1521 C1522 1.398 . S
C1522 H1510 0.950 . S
C1522 C1521 1.398 . S
C1522 C1523 1.391 . S
C1523 H1511 0.950 . S
C1523 C1519 1.393 . S
C1523 C1522 1.391 . S
H1524 C1532 0.950 . S
H1525 C1537 0.950 . S
H1526 C1534 0.950 . S
H1527 C1536 0.950 . S
H1528 C1538 0.950 . S
H1529 C1540 0.950 . S
H1530 C1542 0.950 . S
H1531 C1543 0.950 . S
C1532 H1524 0.950 . S
C1532 C1533 1.386 . S
C1532 C1534 1.391 . S
C1533 C1532 1.386 . S
C1533 C1537 1.393 . S
C1534 H1526 0.950 . S
C1534 C1532 1.391 . S
C1534 C1535 1.400 . S
C1535 C1534 1.400 . S
C1535 C1536 1.398 . S
C1535 C1541 1.491 . S
C1536 H1527 0.950 . S
C1536 C1535 1.398 . S
C1536 C1537 1.391 . S
C1537 H1525 0.950 . S
C1537 C1533 1.393 . S
C1537 C1536 1.391 . S
C1538 H1528 0.950 . S
C1538 C1539 1.386 . S
C1538 C1540 1.391 . S
C1539 C1538 1.386 . S
C1539 C1543 1.393 . S
C1540 H1529 0.950 . S
C1540 C1538 1.391 . S
C1540 C1541 1.400 . S
C1541 C1535 1.491 . S
C1541 C1540 1.400 . S
C1541 C1542 1.398 . S
C1542 H1530 0.950 . S
C1542 C1541 1.398 . S
C1542 C1543 1.391 . S
C1543 H1531 0.950 . S
C1543 C1539 1.393 . S
C1543 C1542 1.391 . S
H1544 C1552 0.950 . S
H1545 C1557 0.950 . S
H1546 C1554 0.950 . S
H1547 C1556 0.950 . S
H1548 C1558 0.950 . S
H1549 C1560 0.950 . S
H1550 C1562 0.950 . S
H1551 C1563 0.950 . S
C1552 H1544 0.950 . S
C1552 C1553 1.386 . S
C1552 C1554 1.391 . S
C1553 C1552 1.386 . S
C1553 C1557 1.393 . S
C1554 H1546 0.950 . S
C1554 C1552 1.391 . S
C1554 C1555 1.400 . S
C1555 C1554 1.400 . S
C1555 C1556 1.398 . S
C1555 C1561 1.491 . S
C1556 H1547 0.950 . S
C1556 C1555 1.398 . S
C1556 C1557 1.391 . S
C1557 H1545 0.950 . S
C1557 C1553 1.393 . S
C1557 C1556 1.391 . S
C1558 H1548 0.950 . S
C1558 C1559 1.386 . S
C1558 C1560 1.391 . S
C1559 C1558 1.386 . S
C1559 C1563 1.393 . S
C1560 H1549 0.950 . S
C1560 C1558 1.391 . S
C1560 C1561 1.400 . S
C1561 C1555 1.491 . S
C1561 C1560 1.400 . S
C1561 C1562 1.398 . S
C1562 H1550 0.950 . S
C1562 C1561 1.398 . S
C1562 C1563 1.391 . S
C1563 H1551 0.950 . S
C1563 C1559 1.393 . S
C1563 C1562 1.391 . S
H1564 C1572 0.950 . S
H1565 C1577 0.950 . S
H1566 C1574 0.950 . S
H1567 C1576 0.950 . S
H1568 C1578 0.950 . S
H1569 C1580 0.950 . S
H1570 C1582 0.950 . S
H1571 C1583 0.950 . S
C1572 H1564 0.950 . S
C1572 C1573 1.386 . S
C1572 C1574 1.391 . S
C1573 C1572 1.386 . S
C1573 C1577 1.393 . S
C1574 H1566 0.950 . S
C1574 C1572 1.391 . S
C1574 C1575 1.400 . S
C1575 C1574 1.400 . S
C1575 C1576 1.398 . S
C1575 C1581 1.491 . S
C1576 H1567 0.950 . S
C1576 C1575 1.398 . S
C1576 C1577 1.391 . S
C1577 H1565 0.950 . S
C1577 C1573 1.393 . S
C1577 C1576 1.391 . S
C1578 H1568 0.950 . S
C1578 C1579 1.386 . S
C1578 C1580 1.391 . S
C1579 C1578 1.386 . S
C1579 C1583 1.393 . S
C1580 H1569 0.950 . S
C1580 C1578 1.391 . S
C1580 C1581 1.400 . S
C1581 C1575 1.491 . S
C1581 C1580 1.400 . S
C1581 C1582 1.398 . S
C1582 H1570 0.950 . S
C1582 C1581 1.398 . S
C1582 C1583 1.391 . S
C1583 H1571 0.950 . S
C1583 C1579 1.393 . S
C1583 C1582 1.391 . S
H1584 C1592 0.950 . S
H1585 C1597 0.950 . S
H1586 C1594 0.950 . S
H1587 C1596 0.950 . S
H1588 C1598 0.950 . S
H1589 C1600 0.950 . S
H1590 C1602 0.950 . S
H1591 C1603 0.950 . S
C1592 H1584 0.950 . S
C1592 C1593 1.386 . S
C1592 C1594 1.391 . S
C1593 C1592 1.386 . S
C1593 C1597 1.393 . S
C1594 H1586 0.950 . S
C1594 C1592 1.391 . S
C1594 C1595 1.400 . S
C1595 C1594 1.400 . S
C1595 C1596 1.398 . S
C1595 C1601 1.491 . S
C1596 H1587 0.950 . S
C1596 C1595 1.398 . S
C1596 C1597 1.391 . S
C1597 H1585 0.950 . S
C1597 C1593 1.393 . S
C1597 C1596 1.391 . S
C1598 H1588 0.950 . S
C1598 C1599 1.386 . S
C1598 C1600 1.391 . S
C1599 C1598 1.386 . S
C1599 C1603 1.393 . S
C1600 H1589 0.950 . S
C1600 C1598 1.391 . S
C1600 C1601 1.400 . S
C1601 C1595 1.491 . S
C1601 C1600 1.400 . S
C1601 C1602 1.398 . S
C1602 H1590 0.950 . S
C1602 C1601 1.398 . S
C1602 C1603 1.391 . S
C1603 H1591 0.950 . S
C1603 C1599 1.393 . S
C1603 C1602 1.391 . S
H1604 C1612 0.950 . S
H1605 C1617 0.950 . S
H1606 C1614 0.950 . S
H1607 C1616 0.950 . S
H1608 C1618 0.950 . S
H1609 C1620 0.950 . S
H1610 C1622 0.950 . S
H1611 C1623 0.950 . S
C1612 H1604 0.950 . S
C1612 C1613 1.386 . S
C1612 C1614 1.391 . S
C1613 C1612 1.386 . S
C1613 C1617 1.393 . S
C1614 H1606 0.950 . S
C1614 C1612 1.391 . S
C1614 C1615 1.400 . S
C1615 C1614 1.400 . S
C1615 C1616 1.398 . S
C1615 C1621 1.491 . S
C1616 H1607 0.950 . S
C1616 C1615 1.398 . S
C1616 C1617 1.391 . S
C1617 H1605 0.950 . S
C1617 C1613 1.393 . S
C1617 C1616 1.391 . S
C1618 H1608 0.950 . S
C1618 C1619 1.386 . S
C1618 C1620 1.391 . S
C1619 C1618 1.386 . S
C1619 C1623 1.393 . S
C1620 H1609 0.950 . S
C1620 C1618 1.391 . S
C1620 C1621 1.400 . S
C1621 C1615 1.491 . S
C1621 C1620 1.400 . S
C1621 C1622 1.398 . S
C1622 H1610 0.950 . S
C1622 C1621 1.398 . S
C1622 C1623 1.391 . S
C1623 H1611 0.950 . S
C1623 C1619 1.393 . S
C1623 C1622 1.391 . S
H1624 C1632 0.950 . S
H1625 C1637 0.950 . S
H1626 C1634 0.950 . S
H1627 C1636 0.950 . S
H1628 C1638 0.950 . S
H1629 C1640 0.950 . S
H1630 C1642 0.950 . S
H1631 C1643 0.950 . S
C1632 H1624 0.950 . S
C1632 C1633 1.386 . S
C1632 C1634 1.391 . S
C1633 C1632 1.386 . S
C1633 C1637 1.393 . S
C1634 H1626 0.950 . S
C1634 C1632 1.391 . S
C1634 C1635 1.400 . S
C1635 C1634 1.400 . S
C1635 C1636 1.398 . S
C1635 C1641 1.491 . S
C1636 H1627 0.950 . S
C1636 C1635 1.398 . S
C1636 C1637 1.391 . S
C1637 H1625 0.950 . S
C1637 C1633 1.393 . S
C1637 C1636 1.391 . S
C1638 H1628 0.950 . S
C1638 C1639 1.386 . S
C1638 C1640 1.391 . S
C1639 C1638 1.386 . S
C1639 C1643 1.393 . S
C1640 H1629 0.950 . S
C1640 C1638 1.391 . S
C1640 C1641 1.400 . S
C1641 C1635 1.491 . S
C1641 C1640 1.400 . S
C1641 C1642 1.398 . S
C1642 H1630 0.950 . S
C1642 C1641 1.398 . S
C1642 C1643 1.391 . S
C1643 H1631 0.950 . S
C1643 C1639 1.393 . S
C1643 C1642 1.391 . S
H1644 C1652 0.950 . S
H1645 C1657 0.950 . S
H1646 C1654 0.950 . S
H1647 C1656 0.950 . S
H1648 C1658 0.950 . S
H1649 C1660 0.950 . S
H1650 C1662 0.950 . S
H1651 C1663 0.950 . S
C1652 H1644 0.950 . S
C1652 C1653 1.386 . S
C1652 C1654 1.391 . S
C1653 C1652 1.386 . S
C1653 C1657 1.393 . S
C1654 H1646 0.950 . S
C1654 C1652 1.391 . S
C1654 C1655 1.400 . S
C1655 C1654 1.400 . S
C1655 C1656 1.398 . S
C1655 C1661 1.491 . S
C1656 H1647 0.950 . S
C1656 C1655 1.398 . S
C1656 C1657 1.391 . S
C1657 H1645 0.950 . S
C1657 C1653 1.393 . S
C1657 C1656 1.391 . S
C1658 H1648 0.950 . S
C1658 C1659 1.386 . S
C1658 C1660 1.391 . S
C1659 C1658 1.386 . S
C1659 C1663 1.393 . S
C1660 H1649 0.950 . S
C1660 C1658 1.391 . S
C1660 C1661 1.400 . S
C1661 C1655 1.491 . S
C1661 C1660 1.400 . S
C1661 C1662 1.398 . S
C1662 H1650 0.950 . S
C1662 C1661 1.398 . S
C1662 C1663 1.391 . S
C1663 H1651 0.950 . S
C1663 C1659 1.393 . S
C1663 C1662 1.391 . S
H1664 C1672 0.950 . S
H1665 C1677 0.950 . S
H1666 C1674 0.950 . S
H1667 C1676 0.950 . S
H1668 C1678 0.950 . S
H1669 C1680 0.950 . S
H1670 C1682 0.950 . S
H1671 C1683 0.950 . S
C1672 H1664 0.950 . S
C1672 C1673 1.386 . S
C1672 C1674 1.391 . S
C1673 C1672 1.386 . S
C1673 C1677 1.393 . S
C1674 H1666 0.950 . S
C1674 C1672 1.391 . S
C1674 C1675 1.400 . S
C1675 C1674 1.400 . S
C1675 C1676 1.398 . S
C1675 C1681 1.491 . S
C1676 H1667 0.950 . S
C1676 C1675 1.398 . S
C1676 C1677 1.391 . S
C1677 H1665 0.950 . S
C1677 C1673 1.393 . S
C1677 C1676 1.391 . S
C1678 H1668 0.950 . S
C1678 C1679 1.386 . S
C1678 C1680 1.391 . S
C1679 C1678 1.386 . S
C1679 C1683 1.393 . S
C1680 H1669 0.950 . S
C1680 C1678 1.391 . S
C1680 C1681 1.400 . S
C1681 C1675 1.491 . S
C1681 C1680 1.400 . S
C1681 C1682 1.398 . S
C1682 H1670 0.950 . S
C1682 C1681 1.398 . S
C1682 C1683 1.391 . S
C1683 H1671 0.950 . S
C1683 C1679 1.393 . S
C1683 C1682 1.391 . S
H1684 C1692 0.950 . S
H1685 C1697 0.950 . S
H1686 C1694 0.950 . S
H1687 C1696 0.950 . S
H1688 C1698 0.950 . S
H1689 C1700 0.950 . S
H1690 C1702 0.950 . S
H1691 C1703 0.950 . S
C1692 H1684 0.950 . S
C1692 C1693 1.386 . S
C1692 C1694 1.391 . S
C1693 C1692 1.386 . S
C1693 C1697 1.393 . S
C1694 H1686 0.950 . S
C1694 C1692 1.391 . S
C1694 C1695 1.400 . S
C1695 C1694 1.400 . S
C1695 C1696 1.398 . S
C1695 C1701 1.491 . S
C1696 H1687 0.950 . S
C1696 C1695 1.398 . S
C1696 C1697 1.391 . S
C1697 H1685 0.950 . S
C1697 C1693 1.393 . S
C1697 C1696 1.391 . S
C1698 H1688 0.950 . S
C1698 C1699 1.386 . S
C1698 C1700 1.391 . S
C1699 C1698 1.386 . S
C1699 C1703 1.393 . S
C1700 H1689 0.950 . S
C1700 C1698 1.391 . S
C1700 C1701 1.400 . S
C1701 C1695 1.491 . S
C1701 C1700 1.400 . S
C1701 C1702 1.398 . S
C1702 H1690 0.950 . S
C1702 C1701 1.398 . S
C1702 C1703 1.391 . S
C1703 H1691 0.950 . S
C1703 C1699 1.393 . S
C1703 C1702 1.391 . S
H1704 C1712 0.950 . S
H1705 C1717 0.950 . S
H1706 C1714 0.950 . S
H1707 C1716 0.950 . S
H1708 C1718 0.950 . S
H1709 C1720 0.950 . S
H1710 C1722 0.950 . S
H1711 C1723 0.950 . S
C1712 H1704 0.950 . S
C1712 C1713 1.386 . S
C1712 C1714 1.391 . S
C1713 C1712 1.386 . S
C1713 C1717 1.393 . S
C1714 H1706 0.950 . S
C1714 C1712 1.391 . S
C1714 C1715 1.400 . S
C1715 C1714 1.400 . S
C1715 C1716 1.398 . S
C1715 C1721 1.491 . S
C1716 H1707 0.950 . S
C1716 C1715 1.398 . S
C1716 C1717 1.391 . S
C1717 H1705 0.950 . S
C1717 C1713 1.393 . S
C1717 C1716 1.391 . S
C1718 H1708 0.950 . S
C1718 C1719 1.386 . S
C1718 C1720 1.391 . S
C1719 C1718 1.386 . S
C1719 C1723 1.393 . S
C1720 H1709 0.950 . S
C1720 C1718 1.391 . S
C1720 C1721 1.400 . S
C1721 C1715 1.491 . S
C1721 C1720 1.400 . S
C1721 C1722 1.398 . S
C1722 H1710 0.950 . S
C1722 C1721 1.398 . S
C1722 C1723 1.391 . S
C1723 H1711 0.950 . S
C1723 C1719 1.393 . S
C1723 C1722 1.391 . S
H1724 C1732 0.950 . S
H1725 C1737 0.950 . S
H1726 C1734 0.950 . S
H1727 C1736 0.950 . S
H1728 C1738 0.950 . S
H1729 C1740 0.950 . S
H1730 C1742 0.950 . S
H1731 C1743 0.950 . S
C1732 H1724 0.950 . S
C1732 C1733 1.386 . S
C1732 C1734 1.391 . S
C1733 C1732 1.386 . S
C1733 C1737 1.393 . S
C1734 H1726 0.950 . S
C1734 C1732 1.391 . S
C1734 C1735 1.400 . S
C1735 C1734 1.400 . S
C1735 C1736 1.398 . S
C1735 C1741 1.491 . S
C1736 H1727 0.950 . S
C1736 C1735 1.398 . S
C1736 C1737 1.391 . S
C1737 H1725 0.950 . S
C1737 C1733 1.393 . S
C1737 C1736 1.391 . S
C1738 H1728 0.950 . S
C1738 C1739 1.386 . S
C1738 C1740 1.391 . S
C1739 C1738 1.386 . S
C1739 C1743 1.393 . S
C1740 H1729 0.950 . S
C1740 C1738 1.391 . S
C1740 C1741 1.400 . S
C1741 C1735 1.491 . S
C1741 C1740 1.400 . S
C1741 C1742 1.398 . S
C1742 H1730 0.950 . S
C1742 C1741 1.398 . S
C1742 C1743 1.391 . S
C1743 H1731 0.950 . S
C1743 C1739 1.393 . S
C1743 C1742 1.391 . S
H1744 C1752 0.950 . S
H1745 C1757 0.950 . S
H1746 C1754 0.950 . S
H1747 C1756 0.950 . S
H1748 C1758 0.950 . S
H1749 C1760 0.950 . S
H1750 C1762 0.950 . S
H1751 C1763 0.950 . S
C1752 H1744 0.950 . S
C1752 C1753 1.386 . S
C1752 C1754 1.391 . S
C1753 C1752 1.386 . S
C1753 C1757 1.393 . S
C1754 H1746 0.950 . S
C1754 C1752 1.391 . S
C1754 C1755 1.400 . S
C1755 C1754 1.400 . S
C1755 C1756 1.398 . S
C1755 C1761 1.491 . S
C1756 H1747 0.950 . S
C1756 C1755 1.398 . S
C1756 C1757 1.391 . S
C1757 H1745 0.950 . S
C1757 C1753 1.393 . S
C1757 C1756 1.391 . S
C1758 H1748 0.950 . S
C1758 C1759 1.386 . S
C1758 C1760 1.391 . S
C1759 C1758 1.386 . S
C1759 C1763 1.393 . S
C1760 H1749 0.950 . S
C1760 C1758 1.391 . S
C1760 C1761 1.400 . S
C1761 C1755 1.491 . S
C1761 C1760 1.400 . S
C1761 C1762 1.398 . S
C1762 H1750 0.950 . S
C1762 C1761 1.398 . S
C1762 C1763 1.391 . S
C1763 H1751 0.950 . S
C1763 C1759 1.393 . S
C1763 C1762 1.391 . S
H1764 C1772 0.950 . S
H1765 C1777 0.950 . S
H1766 C1774 0.950 . S
H1767 C1776 0.950 . S
H1768 C1778 0.950 . S
H1769 C1780 0.950 . S
H1770 C1782 0.950 . S
H1771 C1783 0.950 . S
C1772 H1764 0.950 . S
C1772 C1773 1.386 . S
C1772 C1774 1.391 . S
C1773 C1772 1.386 . S
C1773 C1777 1.393 . S
C1774 H1766 0.950 . S
C1774 C1772 1.391 . S
C1774 C1775 1.400 . S
C1775 C1774 1.400 . S
C1775 C1776 1.398 . S
C1775 C1781 1.491 . S
C1776 H1767 0.950 . S
C1776 C1775 1.398 . S
C1776 C1777 1.391 . S
C1777 H1765 0.950 . S
C1777 C1773 1.393 . S
C1777 C1776 1.391 . S
C1778 H1768 0.950 . S
C1778 C1779 1.386 . S
C1778 C1780 1.391 . S
C1779 C1778 1.386 . S
C1779 C1783 1.393 . S
C1780 H1769 0.950 . S
C1780 C1778 1.391 . S
C1780 C1781 1.400 . S
C1781 C1775 1.491 . S
C1781 C1780 1.400 . S
C1781 C1782 1.398 . S
C1782 H1770 0.950 . S
C1782 C1781 1.398 . S
C1782 C1783 1.391 . S
C1783 H1771 0.950 . S
C1783 C1779 1.393 . S
C1783 C1782 1.391 . S
H1784 C1792 0.950 . S
H1785 C1797 0.950 . S
H1786 C1794 0.950 . S
H1787 C1796 0.950 . S
H1788 C1798 0.950 . S
H1789 C1800 0.950 . S
H1790 C1802 0.950 . S
H1791 C1803 0.950 . S
C1792 H1784 0.950 . S
C1792 C1793 1.386 . S
C1792 C1794 1.391 . S
C1793 C1792 1.386 . S
C1793 C1797 1.393 . S
C1794 H1786 0.950 . S
C1794 C1792 1.391 . S
C1794 C1795 1.400 . S
C1795 C1794 1.400 . S
C1795 C1796 1.398 . S
C1795 C1801 1.491 . S
C1796 H1787 0.950 . S
C1796 C1795 1.398 . S
C1796 C1797 1.391 . S
C1797 H1785 0.950 . S
C1797 C1793 1.393 . S
C1797 C1796 1.391 . S
C1798 H1788 0.950 . S
C1798 C1799 1.386 . S
C1798 C1800 1.391 . S
C1799 C1798 1.386 . S
C1799 C1803 1.393 . S
C1800 H1789 0.950 . S
C1800 C1798 1.391 . S
C1800 C1801 1.400 . S
C1801 C1795 1.491 . S
C1801 C1800 1.400 . S
C1801 C1802 1.398 . S
C1802 H1790 0.950 . S
C1802 C1801 1.398 . S
C1802 C1803 1.391 . S
C1803 H1791 0.950 . S
C1803 C1799 1.393 . S
C1803 C1802 1.391 . S
H1804 C1812 0.950 . S
H1805 C1817 0.950 . S
H1806 C1814 0.950 . S
H1807 C1816 0.950 . S
H1808 C1818 0.950 . S
H1809 C1820 0.950 . S
H1810 C1822 0.950 . S
H1811 C1823 0.950 . S
C1812 H1804 0.950 . S
C1812 C1813 1.386 . S
C1812 C1814 1.391 . S
C1813 C1812 1.386 . S
C1813 C1817 1.393 . S
C1814 H1806 0.950 . S
C1814 C1812 1.391 . S
C1814 C1815 1.400 . S
C1815 C1814 1.400 . S
C1815 C1816 1.398 . S
C1815 C1821 1.491 . S
C1816 H1807 0.950 . S
C1816 C1815 1.398 . S
C1816 C1817 1.391 . S
C1817 H1805 0.950 . S
C1817 C1813 1.393 . S
C1817 C1816 1.391 . S
C1818 H1808 0.950 . S
C1818 C1819 1.386 . S
C1818 C1820 1.391 . S
C1819 C1818 1.386 . S
C1819 C1823 1.393 . S
C1820 H1809 0.950 . S
C1820 C1818 1.391 . S
C1820 C1821 1.400 . S
C1821 C1815 1.491 . S
C1821 C1820 1.400 . S
C1821 C1822 1.398 . S
C1822 H1810 0.950 . S
C1822 C1821 1.398 . S
C1822 C1823 1.391 . S
C1823 H1811 0.950 . S
C1823 C1819 1.393 . S
C1823 C1822 1.391 . S
H1824 C1832 0.950 . S
H1825 C1837 0.950 . S
H1826 C1834 0.950 1_655 S
H1827 C1836 0.950 . S
H1828 C1838 0.950 . S
H1829 C1840 0.950 1_455 S
H1830 C1842 0.950 . S
H1831 C1843 0.950 . S
C1832 H1824 0.950 . S
C1832 C1833 1.386 . S
C1832 C1834 1.391 . S
C1833 C1832 1.386 . S
C1833 C1837 1.393 . S
C1834 H1826 0.950 1_455 S
C1834 C1832 1.391 . S
C1834 C1835 1.400 . S
C1835 C1834 1.400 . S
C1835 C1836 1.398 . S
C1835 C1841 1.491 1_455 S
C1836 H1827 0.950 . S
C1836 C1835 1.398 . S
C1836 C1837 1.391 . S
C1837 H1825 0.950 . S
C1837 C1833 1.393 . S
C1837 C1836 1.391 . S
C1838 H1828 0.950 . S
C1838 C1839 1.386 . S
C1838 C1840 1.391 . S
C1839 C1838 1.386 . S
C1839 C1843 1.393 . S
C1840 H1829 0.950 1_655 S
C1840 C1838 1.391 . S
C1840 C1841 1.400 . S
C1841 C1835 1.491 1_655 S
C1841 C1840 1.400 . S
C1841 C1842 1.398 . S
C1842 H1830 0.950 . S
C1842 C1841 1.398 . S
C1842 C1843 1.391 . S
C1843 H1831 0.950 . S
C1843 C1839 1.393 . S
C1843 C1842 1.391 . S
H1844 C1852 0.950 . S
H1845 C1857 0.950 . S
H1846 C1854 0.950 . S
H1847 C1856 0.950 . S
H1848 C1858 0.950 . S
H1849 C1860 0.950 . S
H1850 C1862 0.950 . S
H1851 C1863 0.950 . S
C1852 H1844 0.950 . S
C1852 C1853 1.386 . S
C1852 C1854 1.391 . S
C1853 C1852 1.386 . S
C1853 C1857 1.393 . S
C1854 H1846 0.950 . S
C1854 C1852 1.391 . S
C1854 C1855 1.400 . S
C1855 C1854 1.400 . S
C1855 C1856 1.398 . S
C1855 C1861 1.491 . S
C1856 H1847 0.950 . S
C1856 C1855 1.398 . S
C1856 C1857 1.391 . S
C1857 H1845 0.950 . S
C1857 C1853 1.393 . S
C1857 C1856 1.391 . S
C1858 H1848 0.950 . S
C1858 C1859 1.386 . S
C1858 C1860 1.391 . S
C1859 C1858 1.386 . S
C1859 C1863 1.393 . S
C1860 H1849 0.950 . S
C1860 C1858 1.391 . S
C1860 C1861 1.400 . S
C1861 C1855 1.491 . S
C1861 C1860 1.400 . S
C1861 C1862 1.398 . S
C1862 H1850 0.950 . S
C1862 C1861 1.398 . S
C1862 C1863 1.391 . S
C1863 H1851 0.950 . S
C1863 C1859 1.393 . S
C1863 C1862 1.391 . S
H1864 C1872 0.950 . S
H1865 C1877 0.950 . S
H1866 C1874 0.950 1_565 S
H1867 C1876 0.950 . S
H1868 C1878 0.950 . S
H1869 C1880 0.950 1_545 S
H1870 C1882 0.950 . S
H1871 C1883 0.950 . S
C1872 H1864 0.950 . S
C1872 C1873 1.386 . S
C1872 C1874 1.391 . S
C1873 C1872 1.386 . S
C1873 C1877 1.393 . S
C1874 H1866 0.950 1_545 S
C1874 C1872 1.391 . S
C1874 C1875 1.400 . S
C1875 C1874 1.400 . S
C1875 C1876 1.398 . S
C1875 C1881 1.491 1_545 S
C1876 H1867 0.950 . S
C1876 C1875 1.398 . S
C1876 C1877 1.391 . S
C1877 H1865 0.950 . S
C1877 C1873 1.393 . S
C1877 C1876 1.391 . S
C1878 H1868 0.950 . S
C1878 C1879 1.386 . S
C1878 C1880 1.391 . S
C1879 C1878 1.386 . S
C1879 C1883 1.393 . S
C1880 H1869 0.950 1_565 S
C1880 C1878 1.391 . S
C1880 C1881 1.400 . S
C1881 C1875 1.491 1_565 S
C1881 C1880 1.400 . S
C1881 C1882 1.398 . S
C1882 H1870 0.950 . S
C1882 C1881 1.398 . S
C1882 C1883 1.391 . S
C1883 H1871 0.950 . S
C1883 C1879 1.393 . S
C1883 C1882 1.391 . S
H1884 C1892 0.939 1_556 S
H1885 C1897 0.950 . S
H1886 C1894 0.980 . S
H1887 C1896 0.950 1_565 S
H1888 C1898 0.939 1_554 S
H1889 C1900 0.980 . S
H1890 C1902 0.950 1_545 S
H1891 C1903 0.950 . S
C1892 H1884 0.939 1_554 S
C1892 C1893 1.402 . S
C1892 C1894 1.381 1_554 S
C1893 C1892 1.402 . S
C1893 C1897 1.393 . S
C1894 H1886 0.980 . S
C1894 C1892 1.381 1_556 S
C1894 C1895 1.384 1_556 S
C1895 C1894 1.384 1_554 S
C1895 C1896 1.431 . S
C1895 C1901 1.475 1_544 S
C1896 H1887 0.950 1_545 S
C1896 C1895 1.431 . S
C1896 C1897 1.391 . S
C1897 H1885 0.950 . S
C1897 C1893 1.393 . S
C1897 C1896 1.391 . S
C1898 H1888 0.939 1_556 S
C1898 C1899 1.402 . S
C1898 C1900 1.381 1_556 S
C1899 C1898 1.402 . S
C1899 C1903 1.393 . S
C1900 H1889 0.980 . S
C1900 C1898 1.381 1_554 S
C1900 C1901 1.384 1_554 S
C1901 C1895 1.475 1_566 S
C1901 C1900 1.384 1_556 S
C1901 C1902 1.431 . S
C1902 H1890 0.950 1_565 S
C1902 C1901 1.431 . S
C1902 C1903 1.391 . S
C1903 H1891 0.950 . S
C1903 C1899 1.393 . S
C1903 C1902 1.391 . S
H1904 C1912 0.977 . S
H1905 C1917 0.950 . S
H1906 C1914 0.950 . S
H1907 C1916 0.950 1_455 S
H1908 C1918 0.977 . S
H1909 C1920 0.950 . S
H1910 C1922 0.950 1_655 S
H1911 C1923 0.950 . S
C1912 H1904 0.977 . S
C1912 C1913 1.354 1_556 S
C1912 C1914 1.405 . S
C1913 C1912 1.354 1_554 S
C1913 C1917 1.393 . S
C1914 H1906 0.950 . S
C1914 C1912 1.405 . S
C1914 C1915 1.378 1_556 S
C1915 C1914 1.378 1_554 S
C1915 C1916 1.441 . S
C1915 C1921 1.475 1_654 S
C1916 H1907 0.950 1_655 S
C1916 C1915 1.441 . S
C1916 C1917 1.391 . S
C1917 H1905 0.950 . S
C1917 C1913 1.393 . S
C1917 C1916 1.391 . S
C1918 H1908 0.977 . S
C1918 C1919 1.354 1_554 S
C1918 C1920 1.405 . S
C1919 C1918 1.354 1_556 S
C1919 C1923 1.393 . S
C1920 H1909 0.950 . S
C1920 C1918 1.405 . S
C1920 C1921 1.378 1_554 S
C1921 C1915 1.475 1_456 S
C1921 C1920 1.378 1_556 S
C1921 C1922 1.441 . S
C1922 H1910 0.950 1_455 S
C1922 C1921 1.441 . S
C1922 C1923 1.391 . S
C1923 H1911 0.950 . S
C1923 C1919 1.393 . S
C1923 C1922 1.391 . S
H1924 C1932 0.950 . S
H1925 C1937 0.950 . S
H1926 C1934 0.950 . S
H1927 C1936 0.950 . S
H1928 C1938 0.950 . S
H1929 C1940 0.950 . S
H1930 C1942 0.950 . S
H1931 C1943 0.950 . S
C1932 H1924 0.950 . S
C1932 C1933 1.386 . S
C1932 C1934 1.391 . S
C1933 C1932 1.386 . S
C1933 C1937 1.393 1_556 S
C1934 H1926 0.950 . S
C1934 C1932 1.391 . S
C1934 C1935 1.466 . S
C1935 C1934 1.466 . S
C1935 C1936 1.343 1_556 S
C1935 C1941 1.481 1_556 S
C1936 H1927 0.950 . S
C1936 C1935 1.343 1_554 S
C1936 C1937 1.391 . S
C1937 H1925 0.950 . S
C1937 C1933 1.393 1_554 S
C1937 C1936 1.391 . S
C1938 H1928 0.950 . S
C1938 C1939 1.386 . S
C1938 C1940 1.391 . S
C1939 C1938 1.386 . S
C1939 C1943 1.393 1_554 S
C1940 H1929 0.950 . S
C1940 C1938 1.391 . S
C1940 C1941 1.466 . S
C1941 C1935 1.481 1_554 S
C1941 C1940 1.466 . S
C1941 C1942 1.343 1_554 S
C1942 H1930 0.950 . S
C1942 C1941 1.343 1_556 S
C1942 C1943 1.391 . S
C1943 H1931 0.950 . S
C1943 C1939 1.393 1_556 S
C1943 C1942 1.391 . S
C513 C8 0.930 . S
C519 C21 0.998 . S
C533 C22 0.930 . S
C539 C35 0.997 . S
C553 C7 0.997 . S
C559 C36 0.929 . S
C573 C50 0.928 . S
C579 C77 0.998 . S
C593 C64 0.919 . S
C599 C49 1.000 . S
C613 C63 0.997 . S
C619 C78 0.931 . S
C633 C92 0.914 . S
C639 C105 1.001 . S
C653 C119 1.008 . S
C659 C106 0.887 . S
C673 C91 1.008 . S
C679 C120 0.887 . S
C693 C161 1.009 . S
C699 C134 0.887 . S
C713 C148 0.857 . S
C719 C133 1.014 . S
C733 C162 0.858 . S
C739 C147 1.015 . S
C753 C189 0.997 . S
C759 C176 0.929 . S
C773 C190 0.896 . S
C779 C203 1.004 . S
C793 C204 0.858 . S
C799 C175 1.014 . S
C813 C218 0.915 . S
C819 C245 1.001 . S
C833 C232 0.910 . S
C839 C217 1.001 . S
C853 C246 0.921 . S
C859 C231 0.999 . S
C873 C273 1.011 . S
C879 C260 0.879 . S
C893 C274 0.931 . S
C899 C287 0.997 . S
C913 C259 1.014 . S
C919 C288 0.862 . S
C933 C329 0.997 . S
C939 C302 0.931 . S
C953 C316 0.862 . S
C959 C301 1.013 . S
C973 C315 1.000 . S
C979 C330 0.914 . S
C993 C357 1.001 . S
C999 C344 0.915 . S
C1013 C358 0.890 . S
C1019 C371 1.008 . S
C1033 C372 0.930 . S
C1039 C343 0.996 . S
C1053 C413 1.014 . S
C1059 C386 0.864 . S
C1073 C400 0.920 . S
C1079 C385 0.999 . S
C1093 C399 1.014 . S
C1099 C414 0.858 . S
C1113 C428 0.930 . S
C1119 C441 0.997 . S
C1133 C442 0.864 . S
C1139 C455 1.012 . S
C1153 C456 0.865 . S
C1159 C427 1.013 . S
C1173 C497 0.998 . S
C1179 C470 0.931 . S
C1193 C469 1.010 . S
C1199 C484 0.877 . S
C1213 C498 0.861 . S
C1219 C483 1.014 . S
C1233 C55 1.426 . S
C1239 C13 1.400 . S
C1253 C27 1.431 . S
C1259 C69 1.390 . S
C1273 C83 1.399 . S
C1279 C41 1.421 . S
C1293 C139 1.428 . S
C1299 C97 1.398 . S
C1313 C111 1.390 . S
C1319 C153 1.433 . S
C1333 C167 1.394 . S
C1339 C125 1.427 . S
C1353 C181 1.421 . S
C1359 C223 1.400 . S
C1373 C195 1.390 . S
C1379 C237 1.431 . S
C1393 C209 1.390 . S
C1399 C251 1.433 . S
C1413 C307 1.421 . S
C1419 C265 1.406 . S
C1433 C321 1.428 . S
C1439 C279 1.396 . S
C1453 C293 1.390 . S
C1459 C335 1.432 . S
C1473 C391 1.427 . S
C1479 C349 1.399 . S
C1493 C405 1.429 . S
C1499 C363 1.395 . S
C1513 C377 1.433 . S
C1519 C419 1.390 . S
C1533 C433 1.400 . S
C1539 C475 1.426 . S
C1553 C489 1.392 . S
C1559 C447 1.428 . S
C1573 C461 1.431 . S
C1579 C503 1.391 . S
C1593 C11 1.554 . S
C1599 C263 1.554 . S
C1613 C25 1.529 . S
C1619 C277 1.529 . S
C1633 C39 1.523 . S
C1639 C291 1.523 . S
C1653 C473 1.530 . S
C1659 C53 1.530 . S
C1673 C487 1.549 . S
C1679 C67 1.549 . S
C1693 C81 1.530 . S
C1699 C501 1.530 . S
C1713 C95 1.549 . S
C1719 C347 1.549 . S
C1733 C361 1.559 . S
C1739 C109 1.559 . S
C1753 C375 1.557 . S
C1759 C123 1.557 . S
C1773 C221 1.526 . S
C1779 C137 1.526 . S
C1793 C235 1.560 . S
C1799 C151 1.560 . S
C1813 C249 1.561 . S
C1819 C165 1.561 . S
C1833 C431 1.537 . S
C1839 C179 1.537 . S
C1853 C193 1.540 . S
C1859 C445 1.540 . S
C1873 C207 1.528 . S
C1879 C459 1.528 . S
C1893 C305 1.533 . S
C1899 C389 1.533 . S
C1913 C319 1.530 . S
C1919 C403 1.530 . S
C1933 C417 1.525 . S
C1939 C333 1.525 . S
