# Generated by pormake.
# Topology gan, (5)-cn, num edge types: 1
# Building blocks:
#     Node 0, Type 0, BuildingBlock: BEQFEK_clean_sbu_0, # of connection points: 5
#     Node 1, Type 0, BuildingBlock: BEQFEK_clean_sbu_0, # of connection points: 5
#     Node 2, Type 0, BuildingBlock: BEQFEK_clean_sbu_0, # of connection points: 5
#     Node 3, Type 0, BuildingBlock: BEQFEK_clean_sbu_0, # of connection points: 5
#     Node 4, Type 0, BuildingBlock: BEQFEK_clean_sbu_0, # of connection points: 5
#     Node 5, Type 0, BuildingBlock: BEQFEK_clean_sbu_0, # of connection points: 5
#     Node 6, Type 0, BuildingBlock: BEQFEK_clean_sbu_0, # of connection points: 5
#     Node 7, Type 0, BuildingBlock: BEQFEK_clean_sbu_0, # of connection points: 5
#     Node 8, Type 0, BuildingBlock: BEQFEK_clean_sbu_0, # of connection points: 5
#     Node 9, Type 0, BuildingBlock: BEQFEK_clean_sbu_0, # of connection points: 5
#     Node 10, Type 0, BuildingBlock: BEQFEK_clean_sbu_0, # of connection points: 5
#     Node 11, Type 0, BuildingBlock: BEQFEK_clean_sbu_0, # of connection points: 5
#     Node 12, Type 0, BuildingBlock: BEQFEK_clean_sbu_0, # of connection points: 5
#     Node 13, Type 0, BuildingBlock: BEQFEK_clean_sbu_0, # of connection points: 5
#     Node 14, Type 0, BuildingBlock: BEQFEK_clean_sbu_0, # of connection points: 5
#     Node 15, Type 0, BuildingBlock: BEQFEK_clean_sbu_0, # of connection points: 5
#     Edge 16, Type (0, 0), BuildingBlock: EZIPEK_clean_linker_0, # of connection points: 2
#     Edge 17, Type (0, 0), BuildingBlock: EZIPEK_clean_linker_0, # of connection points: 2
#     Edge 18, Type (0, 0), BuildingBlock: EZIPEK_clean_linker_0, # of connection points: 2
#     Edge 19, Type (0, 0), BuildingBlock: EZIPEK_clean_linker_0, # of connection points: 2
#     Edge 20, Type (0, 0), BuildingBlock: EZIPEK_clean_linker_0, # of connection points: 2
#     Edge 21, Type (0, 0), BuildingBlock: EZIPEK_clean_linker_0, # of connection points: 2
#     Edge 22, Type (0, 0), BuildingBlock: EZIPEK_clean_linker_0, # of connection points: 2
#     Edge 23, Type (0, 0), BuildingBlock: EZIPEK_clean_linker_0, # of connection points: 2
#     Edge 24, Type (0, 0), BuildingBlock: EZIPEK_clean_linker_0, # of connection points: 2
#     Edge 25, Type (0, 0), BuildingBlock: EZIPEK_clean_linker_0, # of connection points: 2
#     Edge 26, Type (0, 0), BuildingBlock: EZIPEK_clean_linker_0, # of connection points: 2
#     Edge 27, Type (0, 0), BuildingBlock: EZIPEK_clean_linker_0, # of connection points: 2
#     Edge 28, Type (0, 0), BuildingBlock: EZIPEK_clean_linker_0, # of connection points: 2
#     Edge 29, Type (0, 0), BuildingBlock: EZIPEK_clean_linker_0, # of connection points: 2
#     Edge 30, Type (0, 0), BuildingBlock: EZIPEK_clean_linker_0, # of connection points: 2
#     Edge 31, Type (0, 0), BuildingBlock: EZIPEK_clean_linker_0, # of connection points: 2
#     Edge 32, Type (0, 0), BuildingBlock: EZIPEK_clean_linker_0, # of connection points: 2
#     Edge 33, Type (0, 0), BuildingBlock: EZIPEK_clean_linker_0, # of connection points: 2
#     Edge 34, Type (0, 0), BuildingBlock: EZIPEK_clean_linker_0, # of connection points: 2
#     Edge 35, Type (0, 0), BuildingBlock: EZIPEK_clean_linker_0, # of connection points: 2
#     Edge 36, Type (0, 0), BuildingBlock: EZIPEK_clean_linker_0, # of connection points: 2
#     Edge 37, Type (0, 0), BuildingBlock: EZIPEK_clean_linker_0, # of connection points: 2
#     Edge 38, Type (0, 0), BuildingBlock: EZIPEK_clean_linker_0, # of connection points: 2
#     Edge 39, Type (0, 0), BuildingBlock: EZIPEK_clean_linker_0, # of connection points: 2
#     Edge 40, Type (0, 0), BuildingBlock: EZIPEK_clean_linker_0, # of connection points: 2
#     Edge 41, Type (0, 0), BuildingBlock: EZIPEK_clean_linker_0, # of connection points: 2
#     Edge 42, Type (0, 0), BuildingBlock: EZIPEK_clean_linker_0, # of connection points: 2
#     Edge 43, Type (0, 0), BuildingBlock: EZIPEK_clean_linker_0, # of connection points: 2
#     Edge 44, Type (0, 0), BuildingBlock: EZIPEK_clean_linker_0, # of connection points: 2
#     Edge 45, Type (0, 0), BuildingBlock: EZIPEK_clean_linker_0, # of connection points: 2
#     Edge 46, Type (0, 0), BuildingBlock: EZIPEK_clean_linker_0, # of connection points: 2
#     Edge 47, Type (0, 0), BuildingBlock: EZIPEK_clean_linker_0, # of connection points: 2
#     Edge 48, Type (0, 0), BuildingBlock: EZIPEK_clean_linker_0, # of connection points: 2
#     Edge 49, Type (0, 0), BuildingBlock: EZIPEK_clean_linker_0, # of connection points: 2
#     Edge 50, Type (0, 0), BuildingBlock: EZIPEK_clean_linker_0, # of connection points: 2
#     Edge 51, Type (0, 0), BuildingBlock: EZIPEK_clean_linker_0, # of connection points: 2
#     Edge 52, Type (0, 0), BuildingBlock: EZIPEK_clean_linker_0, # of connection points: 2
#     Edge 53, Type (0, 0), BuildingBlock: EZIPEK_clean_linker_0, # of connection points: 2
#     Edge 54, Type (0, 0), BuildingBlock: EZIPEK_clean_linker_0, # of connection points: 2
#     Edge 55, Type (0, 0), BuildingBlock: EZIPEK_clean_linker_0, # of connection points: 2
# Relax obj value: 0.126
# Max RMSD: 0.210
# Mean RMSD: 0.185
data_MOF--net-gan--node1-BEQFEK_clean_sbu_0--edge1-EZIPEK_clean_linker_0
_symmetry_space_group_name_H-M    P1
_symmetry_Int_Tables_number       1
_symmetry_cell_setting            triclinic
loop_
_symmetry_equiv_pos_as_xyz
'x, y, z'
_cell_length_a     34.018284
_cell_length_b     33.897115
_cell_length_c     32.886121
_cell_angle_alpha  92.276426
_cell_angle_beta   92.216164
_cell_angle_gamma 94.319616
loop_
_atom_site_label
_atom_site_type_symbol
_atom_site_fract_x
_atom_site_fract_y
_atom_site_fract_z
_atom_type_partial_charge
Co0 Co 0.11644 0.13554 0.10587 0.0
Co1 Co 0.15671 0.19105 0.16956 0.0
C2 C 0.14163 0.11029 0.19235 0.0
O3 O 0.12754 0.104 0.15603 0.0
O4 O 0.15541 0.14474 0.20446 0.0
C5 C 0.05122 0.0889 0.1 0.0
O6 O 0.04966 0.10694 0.13593 0.0
C7 C 0.17668 0.23455 0.25675 0.0
C8 C 0.18919 0.32152 0.22121 0.0
C9 C 0.19018 0.29296 0.27686 0.0
N10 N 0.17145 0.2362 0.20196 0.0
N11 N 0.17766 0.28124 0.18327 0.0
C12 C 0.18331 0.1985 0.27966 0.0
H13 H 0.20504 0.18116 0.26393 0.0
H14 H 0.15515 0.17986 0.28032 0.0
H15 H 0.19421 0.20708 0.31123 0.0
C16 C 0.05672 0.19794 0.10626 0.0
N17 N 0.09027 0.18181 0.11841 0.0
N18 N 0.10478 0.20069 0.15167 0.0
C19 C 0.07939 0.22704 0.16389 0.0
C20 C 0.04867 0.22731 0.13508 0.0
C21 C 0.03442 0.18749 0.06678 0.0
H22 H 0.04854 0.16422 0.04918 0.0
H23 H 1.00347 0.17731 0.07234 0.0
H24 H 0.03357 0.21438 0.04868 0.0
O25 O 0.16499 0.14687 0.07586 0.0
O26 O 0.1968 0.18578 0.12412 0.0
H27 H 0.09672 0.27921 0.20063 0.0
H28 H 0.05191 0.25348 0.21493 0.0
C29 C 0.08191 0.24937 0.20413 0.0
H30 H 0.09816 0.23313 0.22711 0.0
H31 H 0.17462 0.28578 0.15214 0.0
O32 O 0.07883 0.09878 0.07663 0.0
C33 C 0.19593 0.16773 0.08899 0.0
Co34 Co 0.11603 0.93082 0.41955 0.0
Co35 Co 0.16387 0.8827 0.36582 0.0
C36 C 0.19957 0.91207 0.44651 0.0
O37 O 0.16698 0.92724 0.45263 0.0
O38 O 0.20443 0.89274 0.41306 0.0
C39 C 0.07945 0.95426 0.48506 0.0
O40 O 0.09277 0.92098 0.49681 0.0
C41 C 0.20832 0.82839 0.31853 0.0
C42 C 0.173 0.82649 0.26023 0.0
C43 C 0.20338 0.8097 0.28043 0.0
N44 N 0.18167 0.85538 0.32085 0.0
N45 N 0.16061 0.854 0.28609 0.0
C46 C 0.23481 0.81838 0.35333 0.0
H47 H 0.21655 0.8076 0.37846 0.0
H48 H 0.25257 0.84555 0.36503 0.0
H49 H 0.2547 0.79543 0.34407 0.0
C50 C 0.11822 0.98555 0.34964 0.0
N51 N 0.1254 0.9517 0.36785 0.0
N52 N 0.14791 0.93139 0.34518 0.0
C53 C 0.15669 0.95182 0.31186 0.0
C54 C 0.13435 0.9853 0.31058 0.0
C55 C 0.10585 1.02059 0.37398 0.0
H56 H 0.11883 1.02058 0.40546 0.0
H57 H 0.11602 0.04898 0.36081 0.0
H58 H 0.07332 1.0183 0.37632 0.0
O59 O 0.0804 0.88092 0.41517 0.0
O60 O 0.11779 0.84462 0.37846 0.0
H61 H 0.18839 0.92439 0.26396 0.0
H62 H 0.20715 0.97437 0.27907 0.0
C63 C 0.19402 0.94598 0.29005 0.0
H64 H 0.21589 0.93365 0.311 0.0
H65 H 0.13631 0.87041 0.28078 0.0
O66 O 0.08641 0.9663 0.44997 0.0
C67 C 0.08616 0.84822 0.39714 0.0
Co68 Co 0.40072 0.97205 0.61641 0.0
Co69 Co 0.34755 0.91766 0.66316 0.0
C70 C 0.37256 1.0016 0.69682 0.0
O71 O 0.39275 1.00743 0.66561 0.0
O72 O 0.35402 0.96786 0.69949 0.0
C73 C 0.46459 0.02804 0.60133 0.0
O74 O 0.45882 0.04379 0.6375 0.0
C75 C 0.33763 0.87537 0.7352 0.0
C76 C 0.28665 0.8325 0.71936 0.0
C77 C 0.31428 0.84503 0.75016 0.0
N78 N 0.32479 0.88053 0.69689 0.0
N79 N 0.29437 0.85488 0.68734 0.0
C80 C 0.37116 0.89959 0.75702 0.0
H81 H 0.39377 0.90908 0.73525 0.0
H82 H 0.38465 0.88295 0.78163 0.0
H83 H 0.35982 0.92639 0.77126 0.0
C84 C 0.45497 0.90595 0.62465 0.0
N85 N 0.42124 0.92355 0.63129 0.0
N86 N 0.39633 0.89845 0.64814 0.0
C87 C 0.41241 0.86333 0.65069 0.0
C88 C 0.45059 0.86694 0.63684 0.0
C89 C 0.49054 0.92604 0.60675 0.0
H90 H 0.49847 0.9547 0.62354 0.0
H91 H 0.51609 0.90756 0.60815 0.0
H92 H 0.48346 0.93233 0.57454 0.0
O93 O 0.35192 0.96048 0.57759 0.0
O94 O 0.31264 0.92086 0.61307 0.0
H95 H 0.40453 0.79951 0.6508 0.0
H96 H 0.39143 0.82546 0.69637 0.0
C97 C 0.39068 0.82597 0.66283 0.0
H98 H 0.35949 0.8248 0.65148 0.0
H99 H 0.27902 0.85272 0.65915 0.0
O100 O 0.44197 0.99909 0.58653 0.0
C101 C 0.31959 0.93898 0.58054 0.0
Co102 Co 0.37951 0.19621 0.86892 0.0
Co103 Co 0.42981 0.14656 0.91997 0.0
C104 C 0.40202 0.11476 0.83744 0.0
O105 O 0.38679 0.14761 0.83351 0.0
O106 O 0.42079 0.10803 0.87055 0.0
C107 C 0.31119 0.19851 0.82337 0.0
O108 O 0.31029 0.16018 0.82815 0.0
C109 C 0.46389 0.08701 0.97012 0.0
C110 C 0.49304 0.12629 1.01964 0.0
C111 C 0.48554 0.08711 1.00658 0.0
N112 N 0.45834 0.12472 0.96222 0.0
N113 N 0.47596 0.14801 0.99172 0.0
C114 C 0.44878 0.05212 0.94321 0.0
H115 H 0.46271 0.05413 0.91332 0.0
H116 H 0.41648 0.05291 0.93761 0.0
H117 H 0.45528 0.02378 0.95684 0.0
C118 C 0.32769 0.19224 0.94113 0.0
N119 N 0.3601 0.18381 0.92083 0.0
N120 N 0.38072 0.16031 0.94235 0.0
C121 C 0.36147 0.15222 0.97676 0.0
C122 C 0.32699 0.17217 0.97727 0.0
C123 C 0.29732 0.21832 0.92581 0.0
H124 H 0.31144 0.24279 0.90881 0.0
H125 H 0.27598 0.20049 0.90503 0.0
H126 H 0.28074 0.23074 0.95104 0.0
O127 O 0.42779 0.23345 0.87307 0.0
O128 O 0.46536 0.19542 0.90822 0.0
H129 H 0.40304 0.13875 1.02348 0.0
H130 H 0.35318 0.11982 0.03164 0.0
C131 C 0.37535 0.12528 1.00824 0.0
H132 H 0.38164 0.09679 0.99309 0.0
H133 H 0.47582 0.1788 0.99302 0.0
O134 O 0.33909 0.22133 0.83974 0.0
C135 C 0.4608 0.22756 0.89034 0.0
Co136 Co 0.61785 0.43653 0.91912 0.0
Co137 Co 0.66695 0.38895 0.86625 0.0
C138 C 0.69724 0.41116 0.95087 0.0
O139 O 0.66525 0.42789 0.95515 0.0
O140 O 0.70417 0.39382 0.91685 0.0
C141 C 0.58004 0.45867 0.98362 0.0
O142 O 0.59168 0.42432 0.99422 0.0
C143 C 0.71286 0.33518 0.81951 0.0
C144 C 0.67796 0.3329 0.76094 0.0
C145 C 0.70856 0.3166 0.7813 0.0
N146 N 0.68567 0.36164 0.82171 0.0
N147 N 0.66487 0.36004 0.78679 0.0
C148 C 0.7394 0.32552 0.85442 0.0
H149 H 0.72121 0.31279 0.8787 0.0
H150 H 0.75551 0.35314 0.86737 0.0
H151 H 0.76074 0.30411 0.84482 0.0
C152 C 0.62794 0.49598 0.85446 0.0
N153 N 0.63294 0.46053 0.87049 0.0
N154 N 0.65589 0.44066 0.84755 0.0
C155 C 0.66673 0.46326 0.81607 0.0
C156 C 0.64904 0.49912 0.81903 0.0
C157 C 0.60452 0.52676 0.8737 0.0
H158 H 0.6167 0.53437 0.90506 0.0
H159 H 0.60507 0.55397 0.85598 0.0
H160 H 0.57358 0.51443 0.87613 0.0
O161 O 0.58039 0.38848 0.91077 0.0
O162 O 0.6187 0.35216 0.87533 0.0
H163 H 0.6761 0.43573 0.7581 0.0
H164 H 0.71015 0.47735 0.77153 0.0
C165 C 0.69381 0.45121 0.78378 0.0
H166 H 0.71512 0.43105 0.79607 0.0
H167 H 0.64027 0.37601 0.78142 0.0
O168 O 0.58866 0.47205 0.94949 0.0
C169 C 0.58635 0.35595 0.8926 0.0
Co170 Co 0.83022 0.39902 0.18121 0.0
Co171 Co 0.88359 0.44947 0.13227 0.0
C172 C 0.80623 0.42568 0.09471 0.0
O173 O 0.79909 0.40743 0.12735 0.0
O174 O 0.83884 0.44612 0.09154 0.0
C175 C 0.79703 0.32372 0.19458 0.0
O176 O 0.81521 0.31552 0.16111 0.0
C177 C 0.9412 0.48479 0.07895 0.0
C178 C 0.98434 0.51305 0.12574 0.0
C179 C 0.97736 0.50596 0.08443 0.0
N180 N 0.92754 0.47883 0.11586 0.0
N181 N 0.9531 0.49602 0.14364 0.0
C182 C 0.92097 0.46898 0.03974 0.0
H183 H 0.89838 0.44469 0.04515 0.0
H184 H 0.94285 0.45851 1.01841 0.0
H185 H 0.9058 0.49296 0.02523 0.0
C186 C 0.90001 0.34553 0.17741 0.0
N187 N 0.88042 0.37806 0.16947 0.0
N188 N 0.89954 0.39798 0.14206 0.0
C189 C 0.92942 0.3773 0.12907 0.0
C190 C 0.93105 0.34336 0.15113 0.0
C191 C 0.89255 0.31924 0.21221 0.0
H192 H 0.87723 0.33504 0.23617 0.0
H193 H 0.87447 0.29196 0.20157 0.0
H194 H 0.92088 0.31 0.22516 0.0
O195 O 0.8377 0.44555 0.22196 0.0
O196 O 0.87588 0.48129 0.18312 0.0
H197 H 0.97459 0.41546 0.10507 0.0
H198 H 0.9737 0.36493 0.08555 0.0
C199 C 0.95519 0.38895 0.09508 0.0
H200 H 0.93658 0.39608 0.06852 0.0
H201 H 0.94989 0.49506 0.17501 0.0
O202 O 0.79784 0.35928 0.20786 0.0
C203 C 0.85925 0.47704 0.2166 0.0
Co204 Co 0.87967 0.68698 0.36511 0.0
Co205 Co 0.92768 0.64017 0.42137 0.0
C206 C 0.90553 0.6047 0.33891 0.0
O207 O 0.88967 0.637 0.33342 0.0
O208 O 0.92179 0.59952 0.37377 0.0
C209 C 0.81746 0.69008 0.3083 0.0
O210 O 0.82039 0.65176 0.30439 0.0
C211 C 0.97943 0.59353 0.46861 0.0
C212 C 0.97747 0.62262 0.5299 0.0
C213 C 0.99386 0.5926 0.50829 0.0
N214 N 0.95471 0.62227 0.46677 0.0
N215 N 0.95432 0.6402 0.5032 0.0
C216 C 0.99037 0.56894 0.4327 0.0
H217 H 0.99365 0.58772 0.40599 0.0
H218 H 0.96635 0.54545 0.42548 0.0
H219 H 0.01824 0.55481 0.43899 0.0
C220 C 0.82213 0.68105 0.43167 0.0
N221 N 0.8571 0.67481 0.41543 0.0
N222 N 0.87633 0.65162 0.43871 0.0
C223 C 0.85338 0.64096 0.46986 0.0
C224 C 0.81833 0.65961 0.46671 0.0
C225 C 0.79239 0.70618 0.41333 0.0
H226 H 0.77673 0.68947 0.38722 0.0
H227 H 0.77027 0.71416 0.43552 0.0
H228 H 0.80749 0.73345 0.4019 0.0
O229 O 0.92716 0.7255 0.37139 0.0
O230 O 0.96296 0.68907 0.4101 0.0
H231 H 0.87756 0.62927 0.52866 0.0
H232 H 0.83718 0.59529 0.51134 0.0
C233 C 0.86387 0.61248 0.50144 0.0
H234 H 0.88479 0.59176 0.48947 0.0
H235 H 0.9386 0.66481 0.50967 0.0
O236 O 0.84033 0.71141 0.33296 0.0
C237 C 0.95921 0.72064 0.39107 0.0
Co238 Co 0.8584 0.85979 0.86944 0.0
Co239 Co 0.90081 0.9071 0.93804 0.0
C240 C 0.88442 0.94859 0.8634 0.0
O241 O 0.86702 0.91563 0.85061 0.0
O242 O 0.90135 0.95175 0.89881 0.0
C243 C 0.86848 0.83966 0.79005 0.0
O244 O 0.90214 0.86047 0.79847 0.0
C245 C 0.94827 0.95498 0.99858 0.0
C246 C 0.9433 0.91703 0.05191 0.0
C247 C 0.95904 0.95291 0.03911 0.0
N248 N 0.92675 0.92158 0.98744 0.0
N249 N 0.92387 0.89888 1.01917 0.0
C250 C 0.95763 0.98818 0.97101 0.0
H251 H 0.96811 0.97613 0.94184 0.0
H252 H 0.98039 1.01026 0.98512 0.0
H253 H 0.93033 1.00306 0.96413 0.0
C254 C 0.92555 0.80732 0.88132 0.0
N255 N 0.90549 0.83934 0.89021 0.0
N256 N 0.92619 0.86237 0.91728 0.0
C257 C 0.96103 0.84673 0.9252 0.0
C258 C 0.96194 0.81091 0.90278 0.0
C259 C 0.90977 0.77316 0.8538 0.0
H260 H 0.87705 0.77128 0.85193 0.0
H261 H 0.92085 0.77732 0.82294 0.0
H262 H 0.92022 0.74508 0.86485 0.0
O263 O 0.8139 0.85593 0.90808 0.0
O264 O 0.84579 0.89384 0.95673 0.0
H265 H 0.98716 0.86007 0.9847 0.0
H266 H 0.02231 0.85511 0.94554 0.0
C267 C 0.99344 0.86635 0.95265 0.0
H268 H 0.99484 0.8989 0.94957 0.0
H269 H 0.90817 0.87118 1.01851 0.0
O270 O 0.84462 0.83231 0.8181 0.0
C271 C 0.81472 0.87365 0.94307 0.0
Co272 Co 0.86069 0.1705 0.67836 0.0
Co273 Co 0.91417 0.12061 0.63308 0.0
C274 C 0.83973 0.13933 0.58979 0.0
O275 O 0.83283 0.15847 0.62267 0.0
O276 O 0.87045 0.11983 0.58917 0.0
C277 C 0.78814 0.19099 0.70883 0.0
O278 O 0.77177 0.16263 0.68399 0.0
C279 C 0.95909 0.065 0.58764 0.0
C280 C 1.01331 0.0682 0.62777 0.0
C281 C 0.99586 0.05086 0.59222 0.0
N282 N 0.95472 0.08969 0.61954 0.0
N283 N 0.98705 0.09151 0.6434 0.0
C284 C 0.92963 0.05706 0.55283 0.0
H285 H 0.89969 0.05144 0.56462 0.0
H286 H 0.93681 0.03146 0.53314 0.0
H287 H 0.92958 0.08369 0.53431 0.0
C288 C 0.86661 0.10731 0.74067 0.0
N289 N 0.8745 0.12404 0.70486 0.0
N290 N 0.89617 0.10106 0.68375 0.0
C291 C 0.90192 0.06835 0.70495 0.0
C292 C 0.88381 0.07123 0.74211 0.0
C293 C 0.84309 0.12546 0.77292 0.0
H294 H 0.85066 0.15789 0.77572 0.0
H295 H 0.81132 0.12036 0.76391 0.0
H296 H 0.84837 0.11206 0.80271 0.0
O297 O 0.90642 0.21092 0.6745 0.0
O298 O 0.94392 0.17443 0.63797 0.0
H299 H 0.95508 0.03985 0.69662 0.0
H300 H 0.91284 1.00646 0.70471 0.0
C301 C 0.92299 0.0339 0.68961 0.0
H302 H 0.91789 0.02938 0.6562 0.0
H303 H 0.99123 0.10906 0.67024 0.0
O304 O 0.82523 0.19754 0.71176 0.0
C305 C 0.93793 0.20732 0.65566 0.0
Co306 Co 0.63483 0.0796 0.42948 0.0
Co307 Co 0.68417 0.12921 0.37415 0.0
C308 C 0.72059 0.11287 0.45374 0.0
O309 O 0.68839 0.09231 0.46011 0.0
O310 O 0.72525 0.12968 0.41991 0.0
C311 C 0.5919 0.07383 0.49959 0.0
O312 O 0.60885 0.10964 0.50705 0.0
C313 C 0.7288 0.18296 0.32077 0.0
C314 C 0.68164 0.18649 0.2728 0.0
C315 C 0.7197 0.20044 0.28454 0.0
N316 N 0.69695 0.16012 0.3303 0.0
N317 N 0.66924 0.16182 0.30125 0.0
C318 C 0.76635 0.18815 0.34623 0.0
H319 H 0.77472 0.15885 0.356 0.0
H320 H 0.7615 0.20632 0.37415 0.0
H321 H 0.79054 0.20289 0.32932 0.0
C322 C 0.58097 0.14818 0.42054 0.0
N323 N 0.61343 0.12827 0.41364 0.0
N324 N 0.63841 0.15137 0.39435 0.0
C325 C 0.62417 0.18735 0.3911 0.0
C326 C 0.58695 0.18655 0.40706 0.0
C327 C 0.54338 0.13044 0.43632 0.0
H328 H 0.54505 0.13163 0.47004 0.0
H329 H 0.51802 0.147 0.42634 0.0
H330 H 0.53844 0.0994 0.42465 0.0
O331 O 0.63463 0.04027 0.38219 0.0
O332 O 0.67305 0.0765 0.34363 0.0
H333 H 0.64013 0.22435 0.34226 0.0
H334 H 0.63764 0.25044 0.3905 0.0
C335 C 0.64663 0.22284 0.37543 0.0
H336 H 0.67876 0.22081 0.38092 0.0
H337 H 0.64136 0.14671 0.30144 0.0
O338 O 0.60036 0.05427 0.46805 0.0
C339 C 0.6523 0.04456 0.34914 0.0
Co340 Co 0.59404 0.90855 0.125 0.0
Co341 Co 0.63854 0.85019 0.1705 0.0
C342 C 0.62956 0.92858 0.21114 0.0
O343 O 0.60967 0.93751 0.17947 0.0
O344 O 0.64394 0.89496 0.21274 0.0
C345 C 0.54453 0.96581 0.10322 0.0
O346 O 0.53145 0.95988 0.13972 0.0
C347 C 0.69347 0.80478 0.21535 0.0
C348 C 0.68347 0.74711 0.18073 0.0
C349 C 0.70503 0.76675 0.21277 0.0
N350 N 0.66612 0.80777 0.18561 0.0
N351 N 0.66014 0.77337 0.16508 0.0
C352 C 0.70787 0.83758 0.24525 0.0
H353 H 0.71651 0.86459 0.22873 0.0
H354 H 0.73325 0.82933 0.26446 0.0
H355 H 0.68344 0.84464 0.26506 0.0
C356 C 0.65698 0.89671 0.06356 0.0
N357 N 0.63832 0.88914 0.09834 0.0
N358 N 0.65811 0.86476 0.11916 0.0
C359 C 0.69037 0.85617 0.09892 0.0
C360 C 0.6891 0.87253 0.06004 0.0
C361 C 0.64998 0.93333 0.04098 0.0
H362 H 0.64275 0.95722 0.06282 0.0
H363 H 0.6764 0.94427 0.02488 0.0
H364 H 0.62418 0.92748 1.01933 0.0
O365 O 0.55024 0.86567 0.13004 0.0
O366 O 0.58363 0.82493 0.16601 0.0
H367 H 0.72343 0.80985 0.12245 0.0
H368 H 0.75372 0.85276 0.1071 0.0
C369 C 0.7259 0.84256 0.12123 0.0
H370 H 0.7273 0.85476 0.15309 0.0
H371 H 0.64023 0.76799 0.14018 0.0
O372 O 0.57204 0.94635 0.0901 0.0
C373 C 0.55167 0.83347 0.14849 0.0
Co374 Co 0.35251 0.6637 0.17659 0.0
Co375 Co 0.40952 0.61841 0.13118 0.0
C376 C 0.33157 0.62837 0.09024 0.0
O377 O 0.32323 0.64886 0.12184 0.0
O378 O 0.36483 0.6133 0.08865 0.0
C379 C 0.27965 0.68202 0.20816 0.0
O380 O 0.26325 0.65477 0.18209 0.0
C381 C 0.45783 0.56722 0.08505 0.0
C382 C 0.51188 0.57245 0.12559 0.0
C383 C 0.49531 0.5548 0.08978 0.0
N384 N 0.45215 0.591 0.11725 0.0
N385 N 0.48443 0.59429 0.14122 0.0
C386 C 0.42838 0.55788 0.05043 0.0
H387 H 0.42046 0.58587 0.03696 0.0
H388 H 0.40107 0.54325 0.06218 0.0
H389 H 0.44 0.53838 0.02656 0.0
C390 C 0.36426 0.60133 0.23902 0.0
N391 N 0.37051 0.61875 0.20321 0.0
N392 N 0.39384 0.59776 0.18192 0.0
C393 C 0.40221 0.56557 0.20281 0.0
C394 C 0.38432 0.56682 0.24015 0.0
C395 C 0.33945 0.61736 0.27138 0.0
H396 H 0.34664 0.64973 0.27607 0.0
H397 H 0.30794 0.61256 0.26112 0.0
H398 H 0.34396 0.60249 0.30049 0.0
O399 O 0.3954 0.70712 0.17161 0.0
O400 O 0.43555 0.67346 0.13549 0.0
H401 H 0.45698 0.54024 0.19371 0.0
H402 H 0.41651 0.5046 0.20146 0.0
C403 C 0.42509 0.53272 0.18678 0.0
H404 H 0.41992 0.52846 0.15336 0.0
H405 H 0.4876 0.61151 0.16833 0.0
O406 O 0.31673 0.68838 0.21135 0.0
C407 C 0.4273 0.70564 0.15299 0.0
Co408 Co 0.13263 0.58961 0.91363 0.0
Co409 Co 0.18871 0.64413 0.87244 0.0
C410 C 0.21509 0.61013 0.95162 0.0
O411 O 0.18104 0.59187 0.95255 0.0
O412 O 0.22181 0.63267 0.92225 0.0
C413 C 0.08995 0.56051 0.97546 0.0
O414 O 0.11446 0.58586 0.99679 0.0
C415 C 0.24143 0.71363 0.86567 0.0
C416 C 0.24049 0.72022 0.79901 0.0
C417 C 0.25587 0.73713 0.8358 0.0
N418 N 0.218 0.68399 0.84743 0.0
N419 N 0.21758 0.68788 0.80763 0.0
C420 C 0.24937 0.71933 0.91065 0.0
H421 H 0.22199 0.71186 0.92691 0.0
H422 H 0.26101 0.75016 0.91907 0.0
H423 H 0.27175 0.69908 0.92034 0.0
C424 C 0.08067 0.65873 0.9104 0.0
N425 N 0.11416 0.6406 0.90381 0.0
N426 N 0.13905 0.665 0.8859 0.0
C427 C 0.12224 0.69969 0.88104 0.0
C428 C 0.08446 0.69703 0.89641 0.0
C429 C 0.04451 0.63906 0.92729 0.0
H430 H 0.052 0.62704 0.95719 0.0
H431 H 0.02092 0.65963 0.93096 0.0
H432 H 0.03328 0.61443 0.90586 0.0
O433 O 0.1391 0.55862 0.86268 0.0
O434 O 0.18235 0.59676 0.83128 0.0
H435 H 0.15214 0.72718 0.83231 0.0
H436 H 0.12268 0.75985 0.86105 0.0
C437 C 0.14227 0.73523 0.86307 0.0
H438 H 0.16855 0.74528 0.88265 0.0
H439 H 0.20135 0.66873 0.78652 0.0
O440 O 0.09187 0.55756 0.93738 0.0
C441 C 0.16023 0.56469 0.83233 0.0
Co442 Co 0.10002 0.4112 0.62041 0.0
Co443 Co 0.14867 0.35892 0.66833 0.0
C444 C 0.13842 0.43741 0.70488 0.0
O445 O 0.11582 0.44221 0.67378 0.0
O446 O 0.15523 0.40523 0.70816 0.0
C447 C 0.09282 0.47996 0.57642 0.0
O448 O 0.13122 0.4854 0.58291 0.0
C449 C 0.20004 0.31193 0.71583 0.0
C450 C 0.19446 0.25644 0.67712 0.0
C451 C 0.2116 0.27393 0.71266 0.0
N452 N 0.17681 0.31695 0.68311 0.0
N453 N 0.17342 0.28385 0.66016 0.0
C454 C 0.21004 0.34259 0.74931 0.0
H455 H 0.22269 0.37017 0.73617 0.0
H456 H 0.23131 0.33226 0.77225 0.0
H457 H 0.18261 0.34966 0.76432 0.0
C458 C 0.16399 0.39875 0.55797 0.0
N459 N 0.14578 0.39375 0.59366 0.0
N460 N 0.16816 0.37367 0.61728 0.0
C461 C 0.20195 0.36722 0.59863 0.0
C462 C 0.20046 0.38252 0.56016 0.0
C463 C 0.14663 0.41688 0.52145 0.0
H464 H 0.11413 0.41502 0.52254 0.0
H465 H 0.15815 0.4483 0.52059 0.0
H466 H 0.15536 0.40142 0.49318 0.0
O467 O 0.05824 0.36696 0.6265 0.0
O468 O 0.09416 0.33142 0.66572 0.0
H469 H 0.2319 0.31623 0.61356 0.0
H470 H 0.26421 0.35892 0.60389 0.0
C471 C 0.23627 0.34888 0.61801 0.0
H472 H 0.23865 0.3567 0.65112 0.0
H473 H 0.15645 0.28 0.63297 0.0
O474 O 0.0744 0.44916 0.58868 0.0
C475 C 0.06155 0.33654 0.64737 0.0
Co476 Co 0.61442 0.63949 0.6154 0.0
Co477 Co 0.67019 0.69885 0.66131 0.0
C478 C 0.65238 0.62516 0.7011 0.0
O479 O 0.63228 0.61546 0.66811 0.0
O480 O 0.67008 0.65976 0.70612 0.0
C481 C 0.54323 0.59583 0.61991 0.0
O482 O 0.54171 0.61656 0.65426 0.0
C483 C 0.73267 0.75616 0.69443 0.0
C484 C 0.72991 0.80051 0.64672 0.0
C485 C 0.7514 0.79045 0.68063 0.0
N486 N 0.70115 0.74636 0.66966 0.0
N487 N 0.69945 0.77307 0.6415 0.0
C488 C 0.7462 0.73124 0.72799 0.0
H489 H 0.7627 0.7071 0.71483 0.0
H490 H 0.72035 0.71749 0.74317 0.0
H491 H 0.76582 0.74911 0.75066 0.0
C492 C 0.56177 0.70802 0.61601 0.0
N493 N 0.59511 0.69017 0.62513 0.0
N494 N 0.61852 0.7144 0.64876 0.0
C495 C 0.60034 0.74777 0.65689 0.0
C496 C 0.56387 0.74517 0.636 0.0
C497 C 0.52811 0.69 0.58927 0.0
H498 H 0.53686 0.66406 0.57119 0.0
H499 H 0.50333 0.68093 0.60861 0.0
H500 H 0.51745 0.71217 0.5684 0.0
O501 O 0.65584 0.64039 0.57371 0.0
O502 O 0.69795 0.67811 0.61332 0.0
H503 H 0.63147 0.8048 0.6654 0.0
H504 H 0.59395 0.79537 0.70109 0.0
C505 C 0.61738 0.78169 0.68419 0.0
H506 H 0.63965 0.77169 0.70621 0.0
H507 H 0.67848 0.77143 0.61737 0.0
O508 O 0.57134 0.60277 0.59637 0.0
C509 C 0.6901 0.65761 0.58045 0.0
Co510 Co 0.37257 0.35677 0.37585 0.0
Co511 Co 0.41668 0.40974 0.43955 0.0
C512 C 0.39695 0.44406 0.36045 0.0
O513 O 0.3804 0.40993 0.34954 0.0
O514 O 0.41434 0.44999 0.39565 0.0
C515 C 0.34751 0.29148 0.30616 0.0
O516 O 0.37337 0.2833 0.27911 0.0
C517 C 0.45884 0.46213 0.502 0.0
C518 C 0.45841 0.42081 0.55276 0.0
C519 C 0.46879 0.45923 0.54282 0.0
N520 N 0.44305 0.42666 0.4882 0.0
N521 N 0.44306 0.40207 0.51844 0.0
C522 C 0.46201 0.49817 0.47719 0.0
H523 H 0.4326 0.51014 0.47436 0.0
H524 H 0.4711 0.4901 0.44609 0.0
H525 H 0.48341 0.52137 0.49168 0.0
C526 C 0.43953 0.30571 0.39162 0.0
N527 N 0.41995 0.33857 0.39798 0.0
N528 N 0.44143 0.36345 0.42261 0.0
C529 C 0.47616 0.34789 0.43154 0.0
C530 C 0.47597 0.31045 0.41232 0.0
C531 C 0.42407 0.26983 0.36645 0.0
H532 H 0.42847 0.27539 0.33392 0.0
H533 H 0.43986 0.24354 0.37443 0.0
H534 H 0.39236 0.26336 0.37125 0.0
O535 O 0.32905 0.35812 0.41546 0.0
O536 O 0.36232 0.39906 0.46027 0.0
H537 H 0.50607 0.3622 0.48908 0.0
H538 H 0.53819 0.35853 0.44721 0.0
C539 C 0.50956 0.36885 0.45661 0.0
H540 H 0.50952 0.40133 0.45357 0.0
H541 H 0.43133 0.37269 0.51585 0.0
O542 O 0.35734 0.31742 0.3339 0.0
C543 C 0.33068 0.37863 0.44885 0.0
C544 C 0.24719 0.28019 0.25981 0.0
C545 C 0.22904 0.29421 0.29296 0.0
C546 C 0.28251 0.27914 0.33757 0.0
C547 C 0.30575 0.27635 0.30225 0.0
N548 N 0.30645 0.25899 0.23006 0.0
N549 N 0.21855 0.29392 0.36412 0.0
C550 C 0.28692 0.27152 0.26303 0.0
C551 C 0.24288 0.28926 0.33264 0.0
N552 N 0.22123 0.26991 0.22709 0.0
N553 N 0.2985 0.27135 0.37473 0.0
H554 H 0.18953 0.3012 0.3589 0.0
H555 H 0.227 0.29135 0.39459 0.0
H556 H 0.32661 0.26127 0.37776 0.0
H557 H 0.28325 0.27201 0.4015 0.0
H558 H 0.23526 0.25726 0.20212 0.0
H559 H 0.15688 0.27748 0.23245 0.0
H560 H 0.29593 0.26089 0.2001 0.0
H561 H 0.33266 0.24513 0.23299 0.0
C562 C 0.04749 0.0435 0.5423 0.0
C563 C 1.01545 0.02616 0.56321 0.0
C564 C 0.02272 0.96209 0.52944 0.0
C565 C 0.05783 0.97842 0.51274 0.0
N566 N 0.10821 0.03241 0.50968 0.0
N567 N 0.97514 0.96845 0.58165 0.0
C568 C 0.07154 1.01856 0.52084 0.0
C569 C 1.00368 0.98526 0.55823 0.0
N570 N 0.05426 0.08377 0.54203 0.0
N571 N 1.0067 0.92529 0.51654 0.0
H572 H 0.96013 0.9847 0.60282 0.0
H573 H 0.96849 0.93799 0.58233 0.0
H574 H 0.01935 0.90762 0.49472 0.0
H575 H 0.97898 0.91377 0.52465 0.0
H576 H 0.07484 0.09787 0.52373 0.0
H577 H 0.03661 0.1032 0.55685 0.0
H578 H 0.12097 0.0605 0.51852 0.0
H579 H 0.12764 1.0146 0.49527 0.0
C580 C 0.26588 0.80972 0.83956 0.0
C581 C 0.28272 0.77295 0.83977 0.0
C582 C 0.33681 0.79774 0.79988 0.0
C583 C 0.31466 0.83032 0.79141 0.0
N584 N 0.26898 0.87617 0.81379 0.0
N585 N 0.34033 0.73698 0.83653 0.0
C586 C 0.28319 0.83967 0.81577 0.0
C587 C 0.32103 0.76922 0.82623 0.0
N588 N 0.23176 0.81417 0.85908 0.0
N589 N 0.37078 0.79287 0.78023 0.0
H590 H 0.32782 0.71603 0.85566 0.0
H591 H 0.36906 0.73245 0.82879 0.0
H592 H 0.38325 0.81474 0.76235 0.0
H593 H 0.38658 0.76783 0.7818 0.0
H594 H 0.21544 0.83882 0.8572 0.0
H595 H 0.22011 0.79247 0.87773 0.0
H596 H 0.24656 0.88573 0.83148 0.0
H597 H 0.28206 0.89794 0.79595 0.0
C598 C 0.54103 0.05095 0.03314 0.0
C599 C 0.49984 0.05338 0.02791 0.0
C600 C 0.48784 0.99481 0.06786 0.0
C601 C 0.52882 0.99612 0.0779 0.0
N602 N 0.59374 0.03041 0.07665 0.0
N603 N 0.4335 0.03147 0.04508 0.0
C604 C 0.55535 0.02547 0.06225 0.0
C605 C 0.47296 0.02629 0.04645 0.0
N606 N 0.56643 0.07238 1.00972 0.0
N607 N 0.46339 0.96293 0.07738 0.0
H608 H 0.4214 0.05433 0.02986 0.0
H609 H 0.41323 1.01507 0.06188 0.0
H610 H 0.47333 0.93877 0.09234 0.0
H611 H 0.43401 0.95869 0.06695 0.0
H612 H 0.59656 0.0687 1.00962 0.0
H613 H 0.55682 0.09076 0.98726 0.0
H614 H 0.61316 0.05392 0.06896 0.0
H615 H 0.6051 1.01365 0.09963 0.0
C616 C 0.26387 0.75176 0.21054 0.0
C617 C 0.25661 0.71306 0.22477 0.0
C618 C 0.21293 0.73743 0.27548 0.0
C619 C 0.22371 0.77655 0.26392 0.0
N620 N 0.26454 0.82206 0.22618 0.0
N621 N 0.22807 0.6686 0.27284 0.0
C622 C 0.25071 0.78407 0.2331 0.0
C623 C 0.23206 0.70562 0.25777 0.0
N624 N 0.28236 0.75739 0.17478 0.0
N625 N 0.18373 0.73068 0.30236 0.0
H626 H 0.24074 0.64441 0.25956 0.0
H627 H 0.21427 0.66235 0.29981 0.0
H628 H 0.16951 0.75338 0.31651 0.0
H629 H 0.1717 0.70251 0.30856 0.0
H630 H 0.28506 0.78455 0.161 0.0
H631 H 0.29148 0.7341 0.15664 0.0
H632 H 0.2875 0.82898 0.20701 0.0
H633 H 0.25567 0.84664 0.24253 0.0
C634 C 0.53714 0.04524 0.59377 0.0
C635 C 0.49775 0.04271 0.57733 0.0
C636 C 0.52168 0.04931 0.50913 0.0
C637 C 0.56061 0.05837 0.52582 0.0
N638 N 0.60555 0.06705 0.58478 0.0
N639 N 0.45271 0.05357 0.52112 0.0
C640 C 0.56833 0.0574 0.56849 0.0
C641 C 0.4901 0.04831 0.53555 0.0
N642 N 0.54515 0.03368 0.63238 0.0
N643 N 0.51438 0.04017 0.46859 0.0
H644 H 0.42885 0.05474 0.54004 0.0
H645 H 0.44646 0.06139 0.49134 0.0
H646 H 0.53626 0.0372 0.44779 0.0
H647 H 0.4864 0.03039 0.45648 0.0
H648 H 0.57365 0.03076 0.64402 0.0
H649 H 0.52347 0.02344 0.65171 0.0
H650 H 0.61173 0.07176 0.61595 0.0
H651 H 0.63007 0.07201 0.56705 0.0
C652 C 0.24336 0.21168 0.79857 0.0
C653 C 0.28466 0.21449 0.79335 0.0
C654 C 0.27778 0.25714 0.73598 0.0
C655 C 0.23667 0.2546 0.74127 0.0
N656 N 0.17952 0.234 0.7784 0.0
N657 N 0.34001 0.23001 0.75137 0.0
C658 C 0.21909 0.23288 0.77265 0.0
C659 C 0.30164 0.2346 0.76053 0.0
N660 N 0.22748 0.18811 0.82752 0.0
N661 N 0.29404 0.28207 0.70837 0.0
H662 H 0.358 0.21186 0.7674 0.0
H663 H 0.35294 0.24068 0.7254 0.0
H664 H 0.27728 0.29856 0.68908 0.0
H665 H 0.32426 0.28894 0.70671 0.0
H666 H 0.19741 0.18199 0.83085 0.0
H667 H 0.24433 0.17211 0.84706 0.0
H668 H 0.16508 0.22213 0.80293 0.0
H669 H 0.16086 0.24901 0.75957 0.0
C670 C 0.04494 1.01642 0.08636 0.0
C671 C 0.02653 0.05239 0.09094 0.0
C672 C 0.96201 1.01783 0.07586 0.0
C673 C 0.98134 0.98401 0.06388 0.0
N674 N 0.04061 0.95016 0.05575 0.0
N675 N 0.96802 0.08853 0.09098 0.0
C676 C 0.02262 0.98274 0.0691 0.0
C677 C 0.98505 0.05341 0.08667 0.0
N678 N 0.08331 1.01426 0.09956 0.0
N679 N 0.92174 1.0157 0.07656 0.0
H680 H 0.98399 0.11511 0.09984 0.0
H681 H 0.93849 0.09192 0.08355 0.0
H682 H 0.90422 0.98973 0.06861 0.0
H683 H 0.90589 0.03832 0.08833 0.0
H684 H 0.09694 0.98779 0.10061 0.0
H685 H 0.1004 0.03827 0.1134 0.0
H686 H 0.07108 0.94965 0.054 0.0
H687 H 0.02497 0.92426 0.04409 0.0
C688 C 0.73947 0.21339 0.75805 0.0
C689 C 0.76466 0.22165 0.7257 0.0
C690 C 0.75728 0.29241 0.73463 0.0
C691 C 0.72979 0.28404 0.7648 0.0
N692 N 0.68999 0.23707 0.80209 0.0
N693 N 0.79077 0.26711 0.6769 0.0
C694 C 0.71951 0.24464 0.77577 0.0
C695 C 0.7716 0.26065 0.71212 0.0
N696 N 0.73565 0.17613 0.77256 0.0
N697 N 0.77046 0.33072 0.72827 0.0
H698 H 0.80098 0.24433 0.6589 0.0
H699 H 0.79309 0.29441 0.66338 0.0
H700 H 0.76069 0.35491 0.74453 0.0
H701 H 0.79371 0.33833 0.70969 0.0
H702 H 0.72148 0.16931 0.79918 0.0
H703 H 0.74875 0.15227 0.75918 0.0
H704 H 0.67826 0.20867 0.8078 0.0
H705 H 0.67523 0.25935 0.8163 0.0
C706 C 0.01994 0.54294 0.98857 0.0
C707 C 0.06004 0.53652 0.99595 0.0
C708 C 0.04314 0.49967 0.05545 0.0
C709 C 1.00548 0.51512 0.05331 0.0
N710 N 0.96051 0.55767 1.02124 0.0
N711 N 0.11047 0.50582 0.03395 0.0
C712 C 0.99431 0.53832 1.02069 0.0
C713 C 0.07188 0.51378 0.02866 0.0
N714 N 1.00607 0.55234 0.95104 0.0
N715 N 0.05098 0.47091 0.08193 0.0
H716 H 0.13124 0.51235 1.0122 0.0
H717 H 0.12192 0.49389 0.06018 0.0
H718 H 0.03033 0.45909 0.10154 0.0
H719 H 0.07673 0.45613 0.08185 0.0
H720 H 0.97624 0.55514 0.94425 0.0
H721 H 0.0232 0.55131 0.92555 0.0
H722 H 0.95341 0.5777 0.99935 0.0
H723 H 0.94184 0.55699 0.04567 0.0
C724 C 0.80256 0.73769 0.25555 0.0
C725 C 0.78879 0.70895 0.28298 0.0
C726 C 0.72062 0.72302 0.26839 0.0
C727 C 0.73412 0.74928 0.23874 0.0
N728 N 0.78641 0.78008 0.20069 0.0
N729 N 0.73515 0.66959 0.31158 0.0
C730 C 0.77472 0.7565 0.23153 0.0
C731 C 0.74793 0.7001 0.2882 0.0
N732 N 0.8422 0.74665 0.25224 0.0
N733 N 0.68191 0.72112 0.27856 0.0
H734 H 0.75404 0.6526 0.32783 0.0
H735 H 0.70568 0.65897 0.3125 0.0
H736 H 0.66102 0.73781 0.26471 0.0
H737 H 0.67114 0.70587 0.30317 0.0
H738 H 0.85403 0.77096 0.23722 0.0
H739 H 0.86372 0.7306 0.26588 0.0
H740 H 0.81508 0.78299 0.19067 0.0
H741 H 0.76684 0.79527 0.18318 0.0
C742 C 1.00916 0.52333 0.52013 0.0
C743 C 0.02017 0.56435 0.52496 0.0
C744 C 0.07813 0.55074 0.56627 0.0
C745 C 0.07012 0.50963 0.55636 0.0
N746 N 0.03313 0.45867 0.51352 0.0
N747 N 0.07021 0.61688 0.54423 0.0
C748 C 0.03723 0.49643 0.53005 0.0
C749 C 0.0563 0.57809 0.54535 0.0
N750 N 0.97154 0.50988 0.50776 0.0
N751 N 0.10424 0.56385 0.59737 0.0
H752 H 0.05556 0.63771 0.52818 0.0
H753 H 0.09827 0.62723 0.55567 0.0
H754 H 0.11853 0.54506 0.61624 0.0
H755 H 0.10797 0.59345 0.60762 0.0
H756 H 0.96154 0.48002 0.50745 0.0
H757 H 0.9492 0.52868 0.50227 0.0
H758 H 1.01124 0.44925 0.49143 0.0
H759 H 0.05403 0.43825 0.51805 0.0
C760 C 0.57291 0.52215 1.02107 0.0
C761 C 0.55846 0.48246 1.01156 0.0
C762 C 0.50341 0.48936 0.0557 0.0
C763 C 0.51566 0.53011 0.06152 0.0
N764 N 0.55621 0.58746 0.04243 0.0
N765 N 0.506 0.43026 1.01269 0.0
C766 C 0.54869 0.54724 0.04201 0.0
C767 C 0.52259 0.46643 0.02689 0.0
N768 N 0.61031 0.5354 1.01165 0.0
N769 N 0.47435 0.47241 0.07839 0.0
H770 H 0.51867 0.41281 0.99069 0.0
H771 H 0.47782 0.41921 1.01987 0.0
H772 H 0.45952 0.48835 0.09995 0.0
H773 H 0.46728 0.44196 0.07827 0.0
H774 H 0.62338 0.56309 1.02151 0.0
H775 H 0.62987 0.51733 0.99779 0.0
H776 H 0.57773 0.6014 0.02509 0.0
H777 H 0.53836 0.60706 0.05669 0.0
C778 C 0.78983 0.84865 0.71511 0.0
C779 C 0.78894 0.81023 0.69631 0.0
C780 C 0.85392 0.80024 0.72591 0.0
C781 C 0.85218 0.83619 0.74838 0.0
N782 N 0.82966 0.90152 0.75237 0.0
N783 N 0.82476 0.75628 0.67104 0.0
C784 C 0.82408 0.86304 0.73818 0.0
C785 C 0.82288 0.78837 0.69716 0.0
N786 N 0.75715 0.86979 0.71402 0.0
N787 N 0.88401 0.7769 0.7339 0.0
H788 H 0.80228 0.74768 0.64927 0.0
H789 H 0.84968 0.74045 0.66858 0.0
H790 H 0.90808 0.78691 0.7532 0.0
H791 H 0.88483 0.74803 0.7221 0.0
H792 H 0.75499 0.89584 0.73138 0.0
H793 H 0.73111 0.86021 0.69772 0.0
H794 H 0.81142 0.92343 0.74394 0.0
H795 H 0.85521 0.91208 0.76917 0.0
C796 C 0.74832 0.22434 0.22086 0.0
C797 C 0.74295 0.23062 0.26298 0.0
C798 C 0.77914 0.29509 0.26169 0.0
C799 C 0.77849 0.2917 0.21827 0.0
N800 N 0.75127 0.25607 0.15681 0.0
N801 N 0.7434 0.27719 0.32077 0.0
C802 C 0.76012 0.25707 0.19775 0.0
C803 C 0.75553 0.26743 0.28279 0.0
N804 N 0.74234 0.18723 0.20289 0.0
N805 N 0.80298 0.32338 0.28332 0.0
H806 H 0.72403 0.25883 0.33662 0.0
H807 H 0.74905 0.30545 0.33441 0.0
H808 H 0.82282 0.34347 0.27036 0.0
H809 H 0.80637 0.32377 0.315 0.0
H810 H 0.74912 0.18096 0.17278 0.0
H811 H 0.73482 0.16222 0.21928 0.0
H812 H 0.73507 0.23222 0.14161 0.0
H813 H 0.75521 0.28075 0.13909 0.0
C814 C 0.4611 0.52305 0.58016 0.0
C815 C 0.48453 0.49116 0.5713 0.0
C816 C 0.53933 0.52354 0.6124 0.0
C817 C 0.51927 0.55852 0.613 0.0
N818 N 0.46044 0.59229 0.60147 0.0
N819 N 0.54642 0.46068 0.57754 0.0
C820 C 0.47958 0.55836 0.59878 0.0
C821 C 0.52356 0.49078 0.58773 0.0
N822 N 0.42142 0.51928 0.57095 0.0
N823 N 0.57363 0.52213 0.63516 0.0
H824 H 0.53619 0.43614 0.55894 0.0
H825 H 0.57652 0.46145 0.585 0.0
H826 H 0.58527 0.546 0.65405 0.0
H827 H 0.588 0.49633 0.63865 0.0
H828 H 0.40225 0.54033 0.57955 0.0
H829 H 0.40706 0.49335 0.55771 0.0
H830 H 0.43318 0.59558 0.58703 0.0
H831 H 0.47269 0.61771 0.61746 0.0
C832 C 0.15568 0.04149 0.21317 0.0
C833 C 0.13821 0.07752 0.22156 0.0
C834 C 0.10499 0.04586 0.27839 0.0
C835 C 0.13016 1.01437 0.27614 0.0
N836 N 0.14714 0.97116 0.22095 0.0
N837 N 0.09337 0.11304 0.26217 0.0
C838 C 0.14704 1.00853 0.23773 0.0
C839 C 0.11229 0.0796 0.25443 0.0
N840 N 0.18078 0.03848 0.18201 0.0
N841 N 0.0696 0.03991 0.29611 0.0
H842 H 0.09509 0.13738 0.24374 0.0
H843 H 0.07762 0.11712 0.2884 0.0
H844 H 0.05959 1.01201 0.30553 0.0
H845 H 0.0481 0.06025 0.29549 0.0
H846 H 0.19668 1.01368 0.1772 0.0
H847 H 0.18812 0.06189 0.16336 0.0
H848 H 0.15583 0.96522 0.1914 0.0
H849 H 0.13252 0.94709 0.23429 0.0
C850 C 0.24592 0.9581 0.49245 0.0
C851 C 0.23252 0.91877 0.47878 0.0
C852 C 0.28059 0.89345 0.52764 0.0
C853 C 0.29048 0.93247 0.54458 0.0
N854 N 0.2781 1.00153 0.54635 0.0
N855 N 0.23342 0.84863 0.4879 0.0
C856 C 0.27204 0.96471 0.5277 0.0
C857 C 0.24903 0.88634 0.49748 0.0
N858 N 0.23481 0.98932 0.47081 0.0
N859 N 0.30237 0.86321 0.53926 0.0
H860 H 0.21035 0.8421 0.46632 0.0
H861 H 0.24096 0.82416 0.50383 0.0
H862 H 0.32606 0.86715 0.5605 0.0
H863 H 0.2995 0.8351 0.52499 0.0
H864 H 0.24668 1.01832 0.47655 0.0
H865 H 0.21663 0.98582 0.44443 0.0
H866 H 0.26207 0.02529 0.5385 0.0
H867 H 0.29676 1.00757 0.57212 0.0
C868 C 0.35892 0.0245 0.77084 0.0
C869 C 0.37454 0.03288 0.73207 0.0
C870 C 0.40857 0.09461 0.76327 0.0
C871 C 0.39605 0.08436 0.80245 0.0
N872 N 0.36225 0.03701 0.84426 0.0
N873 N 0.3964 0.08667 0.69039 0.0
C874 C 0.37235 0.04841 0.80643 0.0
C875 C 0.39466 0.07091 0.72794 0.0
N876 N 0.32746 0.99724 0.77309 0.0
N877 N 0.43505 0.12657 0.75984 0.0
H878 H 0.38068 0.07363 0.66486 0.0
H879 H 0.40775 0.11544 0.68569 0.0
H880 H 0.44637 0.14426 0.78491 0.0
H881 H 0.44888 0.133 0.7329 0.0
H882 H 0.31288 0.99164 0.79975 0.0
H883 H 0.31146 0.98492 0.74747 0.0
H884 H 0.34987 1.0088 0.84985 0.0
H885 H 0.36902 0.05453 0.87071 0.0
C886 C 0.27171 0.13501 1.0135 0.0
C887 C 0.29513 0.17075 1.00808 0.0
C888 C 0.25316 0.20555 0.05516 0.0
C889 C 0.23183 0.1691 0.06321 0.0
N890 N 0.22963 0.09763 0.05827 0.0
N891 N 0.3136 0.23808 0.03144 0.0
C892 C 0.2437 0.13338 0.04473 0.0
C893 C 0.28755 0.20539 0.03138 0.0
N894 N 0.27511 0.10277 0.98796 0.0
N895 N 0.23958 0.24061 0.06814 0.0
H896 H 0.33904 0.23899 1.01466 0.0
H897 H 0.31188 0.26279 0.05098 0.0
H898 H 0.21391 0.24238 0.08419 0.0
H899 H 0.2516 0.26803 0.05947 0.0
H900 H 0.25584 0.07736 0.98778 0.0
H901 H 0.29477 0.10274 0.9644 0.0
H902 H 0.24012 0.07087 0.04858 0.0
H903 H 0.21103 0.09496 0.08265 0.0
C904 C 0.97679 0.24335 0.13776 0.0
C905 C 0.0173 0.25613 0.13515 0.0
C906 C 1.00146 0.32441 0.15053 0.0
C907 C 0.9605 0.31259 0.14752 0.0
N908 N 0.90938 0.26091 0.12882 0.0
N909 N 0.06617 0.31068 0.12847 0.0
C910 C 0.94813 0.27203 0.13843 0.0
C911 C 0.02897 0.29728 0.13821 0.0
N912 N 0.96566 0.20418 0.14158 0.0
N913 N 1.01438 0.36113 0.16651 0.0
H914 H 0.08671 0.29184 0.11775 0.0
H915 H 0.075 0.34068 0.12689 0.0
H916 H 0.99529 0.38122 0.17778 0.0
H917 H 0.04414 0.3698 0.1726 0.0
H918 H 0.93691 0.19386 0.14753 0.0
H919 H 0.98585 0.18254 0.14273 0.0
H920 H 0.89954 0.23229 0.1184 0.0
H921 H 0.88775 0.28107 0.12726 0.0
C922 C 0.53859 0.30506 0.85418 0.0
C923 C 0.55526 0.32194 0.89187 0.0
C924 C 0.50869 0.27819 0.92846 0.0
C925 C 0.49406 0.25934 0.89091 0.0
N926 N 0.50024 0.24996 0.81852 0.0
N927 N 0.56153 0.31876 0.96493 0.0
C928 C 0.51051 0.27143 0.8539 0.0
C929 C 0.54176 0.30686 0.92903 0.0
N930 N 0.54821 0.32223 0.8186 0.0
N931 N 0.48996 0.26996 0.96353 0.0
H932 H 0.58627 0.33899 0.96663 0.0
H933 H 0.55587 0.30577 0.99249 0.0
H934 H 0.46555 0.24953 0.96448 0.0
H935 H 0.49634 0.2859 0.99102 0.0
H936 H 0.53388 0.3141 0.79063 0.0
H937 H 0.56812 0.34704 0.8174 0.0
H938 H 0.51433 0.25445 0.79135 0.0
H939 H 0.48001 0.22518 0.81714 0.0
C940 C 1.00984 0.76503 0.35631 0.0
C941 C 0.99245 0.75262 0.39274 0.0
C942 C 0.03995 0.79935 0.43236 0.0
C943 C 0.0545 0.81462 0.39572 0.0
N944 N 0.04785 0.8165 0.32245 0.0
N945 N 0.98689 0.76264 0.46528 0.0
C946 C 0.03805 0.79857 0.35757 0.0
C947 C 1.00651 0.77099 0.43076 0.0
N948 N 1.00047 0.74391 0.32053 0.0
N949 N 0.05897 0.81085 0.46876 0.0
H950 H 0.96213 0.74256 0.46547 0.0
H951 H 0.9929 0.77821 0.49303 0.0
H952 H 0.08376 0.831 0.47115 0.0
H953 H 0.05254 0.7977 0.49605 0.0
H954 H 1.01537 0.7487 0.29388 0.0
H955 H 0.98034 0.71906 0.31836 0.0
H956 H 0.03363 0.80889 0.29431 0.0
H957 H 0.0675 0.84158 0.32182 0.0
C958 C 0.51421 0.7848 0.67153 0.0
C959 C 0.53396 0.77554 0.63556 0.0
C960 C 0.49564 0.82281 0.59902 0.0
C961 C 0.47987 0.8358 0.63621 0.0
N962 N 0.48118 0.83419 0.70962 0.0
N963 N 0.54875 0.79137 0.56667 0.0
C964 C 0.4911 0.81814 0.67299 0.0
C965 C 0.52618 0.79616 0.59972 0.0
N966 N 0.51669 0.76118 0.7041 0.0
N967 N 0.4804 0.83451 0.56281 0.0
H968 H 0.57153 0.77244 0.56606 0.0
H969 H 0.54711 0.80877 0.54133 0.0
H970 H 0.45722 0.85289 0.5609 0.0
H971 H 0.48807 0.82283 0.53468 0.0
H972 H 0.49965 0.76413 0.72954 0.0
H973 H 0.533 0.73631 0.70404 0.0
H974 H 0.49184 0.82484 0.73747 0.0
H975 H 0.4657 0.85951 0.71226 0.0
C976 C 0.84806 1.02021 0.7852 0.0
C977 C 0.88358 0.04204 0.7757 0.0
C978 C 0.92034 1.00291 0.82406 0.0
C979 C 0.88439 0.98313 0.83579 0.0
N980 N 0.81327 0.97983 0.83365 0.0
N981 N 0.95244 0.0596 0.79233 0.0
C982 C 0.84804 0.99387 0.81811 0.0
C983 C 0.91938 0.035 0.79708 0.0
N984 N 0.81452 0.02322 0.76165 0.0
N985 N 0.95558 0.98975 0.83676 0.0
H986 H 0.95288 0.08343 0.7732 0.0
H987 H 0.97831 0.05869 0.81015 0.0
H988 H 0.95779 0.96613 0.85585 0.0
H989 H 0.98251 0.99991 0.82548 0.0
H990 H 0.78894 1.00468 0.764 0.0
H991 H 0.81328 0.04184 0.73722 0.0
H992 H 0.78602 0.98958 0.82486 0.0
H993 H 0.81199 0.96154 0.85841 0.0
C994 C 0.77283 0.15364 0.55469 0.0
C995 C 0.8108 0.13828 0.55249 0.0
C996 C 0.79059 0.1097 0.4834 0.0
C997 C 0.75153 0.12088 0.48793 0.0
N998 N 0.70469 0.15197 0.5295 0.0
N999 N 0.85955 0.12114 0.50471 0.0
C1000 C 0.74244 0.14206 0.52421 0.0
C1001 C 0.82079 0.12144 0.51406 0.0
N1002 N 0.76711 0.18362 0.58237 0.0
N1003 N 0.79871 0.08646 0.45034 0.0
H1004 H 0.88219 0.13601 0.52285 0.0
H1005 H 0.86887 0.11222 0.47624 0.0
H1006 H 0.77762 0.07732 0.42735 0.0
H1007 H 0.82519 0.07321 0.44763 0.0
H1008 H 0.74098 0.1976 0.58415 0.0
H1009 H 0.79023 0.19998 0.59828 0.0
H1010 H 0.69464 0.16127 0.55756 0.0
H1011 H 0.6826 0.14883 0.50652 0.0
C1012 C 0.67935 0.99609 0.29843 0.0
C1013 C 0.6464 1.01347 0.31501 0.0
C1014 C 0.6023 0.97203 0.26637 0.0
C1015 C 0.63546 0.95766 0.24711 0.0
N1016 N 0.70605 0.9614 0.24092 0.0
N1017 N 0.5769 0.02345 0.30907 0.0
C1018 C 0.67416 0.97107 0.2622 0.0
C1019 C 0.60795 1.00284 0.29748 0.0
N1020 N 0.71557 1.00247 0.31804 0.0
N1021 N 0.56528 0.95519 0.25612 0.0
H1022 H 0.57962 0.04661 0.33107 0.0
H1023 H 0.54921 1.02015 0.29413 0.0
H1024 H 0.55981 0.93216 0.23418 0.0
H1025 H 0.54047 0.96134 0.27213 0.0
H1026 H 0.7399 0.98738 0.31012 0.0
H1027 H 0.72044 1.02018 0.34469 0.0
H1028 H 0.73463 0.9737 0.24775 0.0
H1029 H 0.70359 0.94385 0.21404 0.0
C1030 C 0.74597 0.83839 0.02609 0.0
C1031 C 0.71681 0.86627 0.02455 0.0
C1032 C 0.7455 0.88963 0.96122 0.0
C1033 C 0.77987 0.86946 0.96958 0.0
N1034 N 0.8124 0.82348 1.01116 0.0
N1035 N 0.67539 0.88788 0.97032 0.0
C1036 C 0.78005 0.8436 1.00247 0.0
C1037 C 0.71233 0.88401 0.98635 0.0
N1038 N 0.73755 0.80303 0.04336 0.0
N1039 N 0.7444 0.91454 0.92969 0.0
H1040 H 0.65053 0.87532 0.98398 0.0
H1041 H 0.66996 0.89744 0.94104 0.0
H1042 H 0.76769 0.91893 0.91022 0.0
H1043 H 0.72141 0.93276 0.92498 0.0
H1044 H 0.75626 0.78005 0.04231 0.0
H1045 H 0.70933 0.79496 0.05307 0.0
H1046 H 0.81496 0.80728 0.03733 0.0
H1047 H 0.83741 0.82504 0.99373 0.0
C1048 C 0.03805 0.74237 0.86159 0.0
C1049 C 0.05448 0.72787 0.89798 0.0
C1050 C 1.00809 0.76528 0.93733 0.0
C1051 C 0.99455 0.78291 0.90137 0.0
N1052 N 1.00453 0.79497 0.83057 0.0
N1053 N 0.06086 0.73325 0.97132 0.0
C1054 C 1.01182 0.77336 0.86385 0.0
C1055 C 0.04122 0.74173 0.9361 0.0
N1056 N 0.0462 0.7256 0.82472 0.0
N1057 N 0.98824 0.76933 0.97239 0.0
H1058 H 0.08557 0.7168 0.9717 0.0
H1059 H 0.05504 0.74582 0.99967 0.0
H1060 H 0.96307 0.78494 0.97427 0.0
H1061 H 0.99435 0.75387 0.99836 0.0
H1062 H 0.03179 0.7321 0.79754 0.0
H1063 H 0.06459 0.70249 0.82169 0.0
H1064 H 0.01923 0.79186 0.80355 0.0
H1065 H 0.98689 0.81884 0.83134 0.0
C1066 C 0.474 0.75911 0.18868 0.0
C1067 C 0.45598 0.74143 0.15197 0.0
C1068 C 0.49979 0.78527 0.11245 0.0
C1069 C 0.51625 0.8044 0.14916 0.0
N1070 N 0.51289 0.81527 0.22171 0.0
N1071 N 0.44581 0.74358 0.07919 0.0
C1072 C 0.50141 0.79303 0.18712 0.0
C1073 C 0.46713 0.75634 0.11394 0.0
N1074 N 0.46668 0.74227 0.22499 0.0
N1075 N 0.51663 0.79309 0.07627 0.0
H1076 H 0.42148 0.7229 0.07913 0.0
H1077 H 0.44978 0.75623 0.05116 0.0
H1078 H 0.54054 0.81382 0.07371 0.0
H1079 H 0.50902 0.77673 0.04927 0.0
H1080 H 0.48238 0.75098 0.25208 0.0
H1081 H 0.44731 0.71726 0.22759 0.0
H1082 H 0.50015 0.81105 0.24966 0.0
H1083 H 0.53244 0.84051 0.22162 0.0
C1084 C 0.97907 0.25607 0.61525 0.0
C1085 C 0.96805 0.24193 0.65367 0.0
C1086 C 1.01355 0.29434 0.6876 0.0
C1087 C 0.02781 0.30543 0.64926 0.0
N1088 N 0.02855 0.29174 0.57671 0.0
N1089 N 0.97958 0.24388 0.72656 0.0
C1090 C 1.01162 0.28503 0.61307 0.0
C1091 C 0.98647 0.2602 0.68992 0.0
N1092 N 0.95757 0.24281 0.58077 0.0
N1093 N 0.02496 0.3172 0.7218 0.0
H1094 H 0.9605 0.21871 0.7296 0.0
H1095 H 0.99544 0.25307 0.75343 0.0
H1096 H 0.04416 0.34265 0.72126 0.0
H1097 H 1.0125 0.3132 0.74992 0.0
H1098 H 0.96142 0.25508 0.55253 0.0
H1099 H 0.93324 0.22218 0.58106 0.0
H1100 H 0.021 0.27455 0.55021 0.0
H1101 H 0.05271 0.31207 0.57366 0.0
C1102 C 0.51816 0.26245 0.44822 0.0
C1103 C 0.50737 0.28145 0.41216 0.0
C1104 C 0.54576 0.23592 0.37247 0.0
C1105 C 0.5596 0.21946 0.40892 0.0
N1106 N 0.56535 0.22345 0.48235 0.0
N1107 N 0.51839 0.29198 0.3413 0.0
C1108 C 0.54765 0.23462 0.44708 0.0
C1109 C 0.52356 0.26993 0.3747 0.0
N1110 N 0.499 0.26946 0.48322 0.0
N1111 N 0.55207 0.21799 0.3356 0.0
H1112 H 0.50309 0.31753 0.342 0.0
H1113 H 0.53262 0.28725 0.31424 0.0
H1114 H 0.56692 0.19229 0.33261 0.0
H1115 H 0.53915 0.22626 0.30831 0.0
H1116 H 0.50255 0.25321 0.50916 0.0
H1117 H 0.4769 0.28906 0.48527 0.0
H1118 H 0.56073 0.23656 0.51078 0.0
H1119 H 0.58755 0.20386 0.48284 0.0
C1120 C 0.68636 0.55584 0.78425 0.0
C1121 C 0.65054 0.53253 0.7899 0.0
C1122 C 0.61595 0.57642 0.74531 0.0
C1123 C 0.65241 0.5957 0.73443 0.0
N1124 N 0.72357 0.59918 0.74011 0.0
N1125 N 0.58218 0.51679 0.76904 0.0
C1126 C 0.68803 0.58432 0.75314 0.0
C1127 C 0.61562 0.54172 0.76842 0.0
N1128 N 0.71857 0.55164 0.80933 0.0
N1129 N 0.58144 0.59255 0.73549 0.0
H1130 H 0.58075 0.49075 0.78495 0.0
H1131 H 0.55718 0.52002 0.75051 0.0
H1132 H 0.58086 0.61984 0.72203 0.0
H1133 H 0.55417 0.58161 0.74542 0.0
H1134 H 0.74422 0.57051 0.80946 0.0
H1135 H 0.71834 0.5315 0.83251 0.0
H1136 H 0.75032 0.58875 0.74956 0.0
H1137 H 0.72619 0.61945 0.71717 0.0
C1138 C 0.73847 0.37964 1.00548 0.0
C1139 C 0.72701 0.41409 0.98625 0.0
C1140 C 0.76309 0.45553 0.04123 0.0
C1141 C 0.77736 0.42133 0.05852 0.0
N1142 N 0.78436 0.351 0.05219 0.0
N1143 N 0.73498 0.48504 0.98178 0.0
C1144 C 0.76654 0.38339 0.03933 0.0
C1145 C 0.74119 0.45209 1.00308 0.0
N1146 N 0.72142 0.34331 0.99249 0.0
N1147 N 0.76916 0.49132 0.06205 0.0
H1148 H 0.72001 0.48379 0.95341 0.0
H1149 H 0.748 0.51312 0.99017 0.0
H1150 H 0.78436 0.49495 0.09028 0.0
H1151 H 0.7559 0.51656 0.05338 0.0
H1152 H 0.72494 0.31762 1.00816 0.0
H1153 H 0.70107 0.33927 0.96786 0.0
H1154 H 0.78106 0.32349 0.03668 0.0
H1155 H 0.80531 0.35231 0.07629 0.0
C1156 C 0.89022 0.50012 0.28614 0.0
C1157 C 0.86876 0.50858 0.24984 0.0
C1158 C 0.88259 0.57992 0.26669 0.0
C1159 C 0.89987 0.57183 0.30539 0.0
N1160 N 0.93715 0.52486 0.34025 0.0
N1161 N 0.83902 0.55675 0.20926 0.0
C1162 C 0.90808 0.53195 0.31233 0.0
C1163 C 0.86346 0.54857 0.24129 0.0
N1164 N 0.89417 0.46166 0.29553 0.0
N1165 N 0.88839 0.61694 0.25192 0.0
H1166 H 0.82389 0.53464 0.19047 0.0
H1167 H 0.83049 0.58508 0.20413 0.0
H1168 H 0.90782 0.63892 0.26621 0.0
H1169 H 0.87928 0.62392 0.22265 0.0
H1170 H 0.90457 0.45338 0.32389 0.0
H1171 H 0.88445 0.43755 0.2762 0.0
H1172 H 0.94662 0.49697 0.34552 0.0
H1173 H 0.95674 0.5475 0.35277 0.0
C1174 C 0.74216 0.6936 0.54019 0.0
C1175 C 0.72091 0.65733 0.54888 0.0
C1176 C 0.76 0.62313 0.4988 0.0
C1177 C 0.78486 0.65837 0.49521 0.0
N1178 N 0.80375 0.72547 0.51947 0.0
N1179 N 0.71466 0.58595 0.54077 0.0
C1180 C 0.77721 0.69307 0.51808 0.0
C1181 C 0.73105 0.62157 0.52921 0.0
N1182 N 0.72767 0.72885 0.55099 0.0
N1183 N 0.76327 0.59145 0.47251 0.0
H1184 H 0.69439 0.58332 0.56364 0.0
H1185 H 0.72404 0.55892 0.53037 0.0
H1186 H 0.78387 0.59162 0.44981 0.0
H1187 H 0.74333 0.5665 0.47097 0.0
H1188 H 0.74031 0.7561 0.54249 0.0
H1189 H 0.70022 0.73054 0.5637 0.0
H1190 H 0.80143 0.75005 0.53906 0.0
H1191 H 0.83001 0.72624 0.50406 0.0
C1192 C 0.35314 0.51353 0.28394 0.0
C1193 C 0.387 0.53749 0.27342 0.0
C1194 C 0.42808 0.49963 0.31912 0.0
C1195 C 0.3938 0.47766 0.33194 0.0
N1196 N 0.32272 0.47099 0.33336 0.0
N1197 N 0.45555 0.55864 0.28765 0.0
C1198 C 0.35604 0.48675 0.31627 0.0
C1199 C 0.42413 0.53208 0.29305 0.0
N1200 N 0.31841 0.51499 0.26195 0.0
N1201 N 0.46459 0.48839 0.33015 0.0
H1202 H 0.45372 0.58298 0.26941 0.0
H1203 H 0.48226 0.55878 0.30424 0.0
H1204 H 0.46885 0.46463 0.34858 0.0
H1205 H 0.49051 0.5003 0.31806 0.0
H1206 H 0.29397 0.49509 0.26514 0.0
H1207 H 0.31506 0.53374 0.23789 0.0
H1208 H 0.29463 0.47964 0.32614 0.0
H1209 H 0.32344 0.45241 0.35787 0.0
C1210 C 0.2863 0.62323 0.98068 0.0
C1211 C 0.24667 0.60784 0.98601 0.0
C1212 C 0.26418 0.60183 0.05952 0.0
C1213 C 0.30202 0.62162 0.0546 0.0
N1214 N 0.34655 0.65672 1.01092 0.0
N1215 N 0.2067 0.5648 0.02767 0.0
C1216 C 0.31239 0.63361 1.01525 0.0
C1217 C 0.23772 0.59245 0.02478 0.0
N1218 N 0.30059 0.62395 0.94243 0.0
N1219 N 0.25342 0.59148 0.09751 0.0
H1220 H 0.19231 0.5502 1.00233 0.0
H1221 H 0.19962 0.55082 0.0543 0.0
H1222 H 0.27295 0.5935 0.12283 0.0
H1223 H 0.22449 0.58302 0.10452 0.0
H1224 H 0.33003 0.63161 0.93673 0.0
H1225 H 0.28477 0.61094 0.91695 0.0
H1226 H 0.35337 0.67045 0.98401 0.0
H1227 H 0.36623 0.66557 0.03526 0.0
C1228 C 0.15832 0.49243 0.80913 0.0
C1229 C 0.15875 0.53286 0.79876 0.0
C1230 C 0.15327 0.51042 0.72639 0.0
C1231 C 0.14587 0.47029 0.73726 0.0
N1232 N 0.1329 0.42521 0.7912 0.0
N1233 N 0.14857 0.57942 0.74621 0.0
C1234 C 0.14615 0.46184 0.77927 0.0
C1235 C 0.15411 0.54168 0.75699 0.0
N1236 N 0.17082 0.48294 0.84724 0.0
N1237 N 0.16137 0.5189 0.6872 0.0
H1238 H 0.14744 0.60301 0.76731 0.0
H1239 H 0.141 0.58641 0.71647 0.0
H1240 H 0.16368 0.4971 0.66435 0.0
H1241 H 0.1705 0.54731 0.67862 0.0
H1242 H 0.17434 0.4539 0.85516 0.0
H1243 H 0.18225 0.50416 0.86927 0.0
H1244 H 0.12913 0.41887 0.82162 0.0
H1245 H 0.12127 0.40258 0.77084 0.0
C1246 C 0.28212 0.41649 0.48867 0.0
C1247 C 0.29545 0.37953 0.47509 0.0
C1248 C 0.24178 0.34524 0.51152 0.0
C1249 C 0.23175 0.38193 0.52906 0.0
N1250 N 0.24732 0.45226 0.53964 0.0
N1251 N 0.29226 0.3086 0.48072 0.0
C1252 C 0.25322 0.41755 0.51901 0.0
C1253 C 0.27628 0.34382 0.48824 0.0
N1254 N 0.29596 0.45062 0.47152 0.0
N1255 N 0.21788 0.31168 0.51641 0.0
H1256 H 0.31826 0.30629 0.46533 0.0
H1257 H 0.28194 0.28223 0.49323 0.0
H1258 H 0.1923 0.31157 0.53291 0.0
H1259 H 0.22134 0.28486 0.50087 0.0
H1260 H 0.28452 0.47785 0.47728 0.0
H1261 H 0.31597 0.45111 0.44827 0.0
H1262 H 0.26521 0.47828 0.53694 0.0
H1263 H 0.22681 0.45431 0.56224 0.0
loop_
_geom_bond_atom_site_label_1
_geom_bond_atom_site_label_2
_geom_bond_distance
_geom_bond_site_symmetry_2
_ccdc_geom_bond_type
Co0 O3 1.970 . S
Co0 N17 1.989 . S
Co0 O25 1.967 . S
Co0 O32 1.920 . S
Co1 O4 1.966 . S
Co1 N10 2.022 . S
Co1 N18 1.993 . S
Co1 O26 1.941 . S
C2 O3 1.258 . S
C2 O4 1.263 . S
O3 Co0 1.970 . S
O3 C2 1.258 . S
O4 Co1 1.966 . S
O4 C2 1.263 . S
C5 O6 1.235 . S
C5 O32 1.289 . S
O6 C5 1.235 . S
C7 C9 1.400 . S
C7 N10 1.351 . S
C7 C12 1.501 . S
C8 C9 1.387 . S
C8 N11 1.341 . S
C9 C7 1.400 . S
C9 C8 1.387 . S
N10 Co1 2.022 . S
N10 C7 1.351 . S
N10 N11 1.365 . S
N11 C8 1.341 . S
N11 N10 1.365 . S
N11 H31 0.862 . S
C12 C7 1.501 . S
C12 H13 0.961 . S
C12 H14 0.961 . S
C12 H15 0.960 . S
H13 C12 0.961 . S
H14 C12 0.961 . S
H15 C12 0.960 . S
C16 N17 1.342 . S
C16 C20 1.401 . S
C16 C21 1.499 . S
N17 Co0 1.989 . S
N17 C16 1.342 . S
N17 N18 1.388 . S
N18 Co1 1.993 . S
N18 N17 1.388 . S
N18 C19 1.346 . S
C19 N18 1.346 . S
C19 C20 1.396 . S
C19 C29 1.510 . S
C20 C16 1.401 . S
C20 C19 1.396 . S
C21 C16 1.499 . S
C21 H22 0.959 . S
C21 H23 0.960 . S
C21 H24 0.961 . S
H22 C21 0.959 . S
H23 C21 0.960 . S
H24 C21 0.961 . S
O25 Co0 1.967 . S
O25 C33 1.258 . S
O26 Co1 1.941 . S
O26 C33 1.266 . S
H27 C29 0.959 . S
H28 C29 0.961 . S
C29 C19 1.510 . S
C29 H27 0.959 . S
C29 H28 0.961 . S
C29 H30 0.960 . S
H30 C29 0.960 . S
H31 N11 0.862 . S
O32 Co0 1.920 . S
O32 C5 1.289 . S
C33 O25 1.258 . S
C33 O26 1.266 . S
Co34 O37 1.970 . S
Co34 N51 1.989 . S
Co34 O59 1.967 . S
Co34 O66 1.920 . S
Co35 O38 1.966 . S
Co35 N44 2.022 . S
Co35 N52 1.993 . S
Co35 O60 1.941 . S
C36 O37 1.258 . S
C36 O38 1.263 . S
O37 Co34 1.970 . S
O37 C36 1.258 . S
O38 Co35 1.966 . S
O38 C36 1.263 . S
C39 O40 1.235 . S
C39 O66 1.289 . S
O40 C39 1.235 . S
C41 C43 1.400 . S
C41 N44 1.351 . S
C41 C46 1.501 . S
C42 C43 1.387 . S
C42 N45 1.341 . S
C43 C41 1.400 . S
C43 C42 1.387 . S
N44 Co35 2.022 . S
N44 C41 1.351 . S
N44 N45 1.365 . S
N45 C42 1.341 . S
N45 N44 1.365 . S
N45 H65 0.862 . S
C46 C41 1.501 . S
C46 H47 0.961 . S
C46 H48 0.961 . S
C46 H49 0.960 . S
H47 C46 0.961 . S
H48 C46 0.961 . S
H49 C46 0.960 . S
C50 N51 1.342 . S
C50 C54 1.401 . S
C50 C55 1.499 . S
N51 Co34 1.989 . S
N51 C50 1.342 . S
N51 N52 1.388 . S
N52 Co35 1.993 . S
N52 N51 1.388 . S
N52 C53 1.346 . S
C53 N52 1.346 . S
C53 C54 1.396 . S
C53 C63 1.510 . S
C54 C50 1.401 . S
C54 C53 1.396 . S
C55 C50 1.499 . S
C55 H56 0.959 . S
C55 H57 0.960 . S
C55 H58 0.961 . S
H56 C55 0.959 . S
H57 C55 0.960 . S
H58 C55 0.961 . S
O59 Co34 1.967 . S
O59 C67 1.258 . S
O60 Co35 1.941 . S
O60 C67 1.266 . S
H61 C63 0.959 . S
H62 C63 0.961 . S
C63 C53 1.510 . S
C63 H61 0.959 . S
C63 H62 0.961 . S
C63 H64 0.960 . S
H64 C63 0.960 . S
H65 N45 0.862 . S
O66 Co34 1.920 . S
O66 C39 1.289 . S
C67 O59 1.258 . S
C67 O60 1.266 . S
Co68 O71 1.970 . S
Co68 N85 1.989 . S
Co68 O93 1.967 . S
Co68 O100 1.920 . S
Co69 O72 1.966 . S
Co69 N78 2.022 . S
Co69 N86 1.993 . S
Co69 O94 1.941 . S
C70 O71 1.258 . S
C70 O72 1.263 . S
O71 Co68 1.970 . S
O71 C70 1.258 . S
O72 Co69 1.966 . S
O72 C70 1.263 . S
C73 O74 1.235 . S
C73 O100 1.289 . S
O74 C73 1.235 . S
C75 C77 1.400 . S
C75 N78 1.351 . S
C75 C80 1.501 . S
C76 C77 1.387 . S
C76 N79 1.341 . S
C77 C75 1.400 . S
C77 C76 1.387 . S
N78 Co69 2.022 . S
N78 C75 1.351 . S
N78 N79 1.365 . S
N79 C76 1.341 . S
N79 N78 1.365 . S
N79 H99 0.862 . S
C80 C75 1.501 . S
C80 H81 0.961 . S
C80 H82 0.961 . S
C80 H83 0.960 . S
H81 C80 0.961 . S
H82 C80 0.961 . S
H83 C80 0.960 . S
C84 N85 1.342 . S
C84 C88 1.401 . S
C84 C89 1.499 . S
N85 Co68 1.989 . S
N85 C84 1.342 . S
N85 N86 1.388 . S
N86 Co69 1.993 . S
N86 N85 1.388 . S
N86 C87 1.346 . S
C87 N86 1.346 . S
C87 C88 1.396 . S
C87 C97 1.510 . S
C88 C84 1.401 . S
C88 C87 1.396 . S
C89 C84 1.499 . S
C89 H90 0.959 . S
C89 H91 0.960 . S
C89 H92 0.961 . S
H90 C89 0.959 . S
H91 C89 0.960 . S
H92 C89 0.961 . S
O93 Co68 1.967 . S
O93 C101 1.258 . S
O94 Co69 1.941 . S
O94 C101 1.266 . S
H95 C97 0.959 . S
H96 C97 0.961 . S
C97 C87 1.510 . S
C97 H95 0.959 . S
C97 H96 0.961 . S
C97 H98 0.960 . S
H98 C97 0.960 . S
H99 N79 0.862 . S
O100 Co68 1.920 . S
O100 C73 1.289 . S
C101 O93 1.258 . S
C101 O94 1.266 . S
Co102 O105 1.970 . S
Co102 N119 1.989 . S
Co102 O127 1.967 . S
Co102 O134 1.920 . S
Co103 O106 1.966 . S
Co103 N112 2.022 . S
Co103 N120 1.993 . S
Co103 O128 1.941 . S
C104 O105 1.258 . S
C104 O106 1.263 . S
O105 Co102 1.970 . S
O105 C104 1.258 . S
O106 Co103 1.966 . S
O106 C104 1.263 . S
C107 O108 1.235 . S
C107 O134 1.289 . S
O108 C107 1.235 . S
C109 C111 1.400 . S
C109 N112 1.351 . S
C109 C114 1.501 . S
C110 C111 1.387 . S
C110 N113 1.341 . S
C111 C109 1.400 . S
C111 C110 1.387 . S
N112 Co103 2.022 . S
N112 C109 1.351 . S
N112 N113 1.365 . S
N113 C110 1.341 . S
N113 N112 1.365 . S
N113 H133 0.862 . S
C114 C109 1.501 . S
C114 H115 0.961 . S
C114 H116 0.961 . S
C114 H117 0.960 . S
H115 C114 0.961 . S
H116 C114 0.961 . S
H117 C114 0.960 . S
C118 N119 1.342 . S
C118 C122 1.401 . S
C118 C123 1.499 . S
N119 Co102 1.989 . S
N119 C118 1.342 . S
N119 N120 1.388 . S
N120 Co103 1.993 . S
N120 N119 1.388 . S
N120 C121 1.346 . S
C121 N120 1.346 . S
C121 C122 1.396 . S
C121 C131 1.510 . S
C122 C118 1.401 . S
C122 C121 1.396 . S
C123 C118 1.499 . S
C123 H124 0.959 . S
C123 H125 0.960 . S
C123 H126 0.961 . S
H124 C123 0.959 . S
H125 C123 0.960 . S
H126 C123 0.961 . S
O127 Co102 1.967 . S
O127 C135 1.258 . S
O128 Co103 1.941 . S
O128 C135 1.266 . S
H129 C131 0.959 1_554 S
H130 C131 0.961 . S
C131 C121 1.510 . S
C131 H129 0.959 1_556 S
C131 H130 0.961 . S
C131 H132 0.960 . S
H132 C131 0.960 . S
H133 N113 0.862 . S
O134 Co102 1.920 . S
O134 C107 1.289 . S
C135 O127 1.258 . S
C135 O128 1.266 . S
Co136 O139 1.970 . S
Co136 N153 1.989 . S
Co136 O161 1.967 . S
Co136 O168 1.920 . S
Co137 O140 1.966 . S
Co137 N146 2.022 . S
Co137 N154 1.993 . S
Co137 O162 1.941 . S
C138 O139 1.258 . S
C138 O140 1.263 . S
O139 Co136 1.970 . S
O139 C138 1.258 . S
O140 Co137 1.966 . S
O140 C138 1.263 . S
C141 O142 1.235 . S
C141 O168 1.289 . S
O142 C141 1.235 . S
C143 C145 1.400 . S
C143 N146 1.351 . S
C143 C148 1.501 . S
C144 C145 1.387 . S
C144 N147 1.341 . S
C145 C143 1.400 . S
C145 C144 1.387 . S
N146 Co137 2.022 . S
N146 C143 1.351 . S
N146 N147 1.365 . S
N147 C144 1.341 . S
N147 N146 1.365 . S
N147 H167 0.862 . S
C148 C143 1.501 . S
C148 H149 0.961 . S
C148 H150 0.961 . S
C148 H151 0.960 . S
H149 C148 0.961 . S
H150 C148 0.961 . S
H151 C148 0.960 . S
C152 N153 1.342 . S
C152 C156 1.401 . S
C152 C157 1.499 . S
N153 Co136 1.989 . S
N153 C152 1.342 . S
N153 N154 1.388 . S
N154 Co137 1.993 . S
N154 N153 1.388 . S
N154 C155 1.346 . S
C155 N154 1.346 . S
C155 C156 1.396 . S
C155 C165 1.510 . S
C156 C152 1.401 . S
C156 C155 1.396 . S
C157 C152 1.499 . S
C157 H158 0.959 . S
C157 H159 0.960 . S
C157 H160 0.961 . S
H158 C157 0.959 . S
H159 C157 0.960 . S
H160 C157 0.961 . S
O161 Co136 1.967 . S
O161 C169 1.258 . S
O162 Co137 1.941 . S
O162 C169 1.266 . S
H163 C165 0.959 . S
H164 C165 0.961 . S
C165 C155 1.510 . S
C165 H163 0.959 . S
C165 H164 0.961 . S
C165 H166 0.960 . S
H166 C165 0.960 . S
H167 N147 0.862 . S
O168 Co136 1.920 . S
O168 C141 1.289 . S
C169 O161 1.258 . S
C169 O162 1.266 . S
Co170 O173 1.970 . S
Co170 N187 1.989 . S
Co170 O195 1.967 . S
Co170 O202 1.920 . S
Co171 O174 1.966 . S
Co171 N180 2.022 . S
Co171 N188 1.993 . S
Co171 O196 1.941 . S
C172 O173 1.258 . S
C172 O174 1.263 . S
O173 Co170 1.970 . S
O173 C172 1.258 . S
O174 Co171 1.966 . S
O174 C172 1.263 . S
C175 O176 1.235 . S
C175 O202 1.289 . S
O176 C175 1.235 . S
C177 C179 1.400 . S
C177 N180 1.351 . S
C177 C182 1.501 . S
C178 C179 1.387 . S
C178 N181 1.341 . S
C179 C177 1.400 . S
C179 C178 1.387 . S
N180 Co171 2.022 . S
N180 C177 1.351 . S
N180 N181 1.365 . S
N181 C178 1.341 . S
N181 N180 1.365 . S
N181 H201 0.862 . S
C182 C177 1.501 . S
C182 H183 0.961 . S
C182 H184 0.961 1_554 S
C182 H185 0.960 1_554 S
H183 C182 0.961 . S
H184 C182 0.961 1_556 S
H185 C182 0.960 1_556 S
C186 N187 1.342 . S
C186 C190 1.401 . S
C186 C191 1.499 . S
N187 Co170 1.989 . S
N187 C186 1.342 . S
N187 N188 1.388 . S
N188 Co171 1.993 . S
N188 N187 1.388 . S
N188 C189 1.346 . S
C189 N188 1.346 . S
C189 C190 1.396 . S
C189 C199 1.510 . S
C190 C186 1.401 . S
C190 C189 1.396 . S
C191 C186 1.499 . S
C191 H192 0.959 . S
C191 H193 0.960 . S
C191 H194 0.961 . S
H192 C191 0.959 . S
H193 C191 0.960 . S
H194 C191 0.961 . S
O195 Co170 1.967 . S
O195 C203 1.258 . S
O196 Co171 1.941 . S
O196 C203 1.266 . S
H197 C199 0.959 . S
H198 C199 0.961 . S
C199 C189 1.510 . S
C199 H197 0.959 . S
C199 H198 0.961 . S
C199 H200 0.960 . S
H200 C199 0.960 . S
H201 N181 0.862 . S
O202 Co170 1.920 . S
O202 C175 1.289 . S
C203 O195 1.258 . S
C203 O196 1.266 . S
Co204 O207 1.970 . S
Co204 N221 1.989 . S
Co204 O229 1.967 . S
Co204 O236 1.920 . S
Co205 O208 1.966 . S
Co205 N214 2.022 . S
Co205 N222 1.993 . S
Co205 O230 1.941 . S
C206 O207 1.258 . S
C206 O208 1.263 . S
O207 Co204 1.970 . S
O207 C206 1.258 . S
O208 Co205 1.966 . S
O208 C206 1.263 . S
C209 O210 1.235 . S
C209 O236 1.289 . S
O210 C209 1.235 . S
C211 C213 1.400 . S
C211 N214 1.351 . S
C211 C216 1.501 . S
C212 C213 1.387 . S
C212 N215 1.341 . S
C213 C211 1.400 . S
C213 C212 1.387 . S
N214 Co205 2.022 . S
N214 C211 1.351 . S
N214 N215 1.365 . S
N215 C212 1.341 . S
N215 N214 1.365 . S
N215 H235 0.862 . S
C216 C211 1.501 . S
C216 H217 0.961 . S
C216 H218 0.961 . S
C216 H219 0.960 . S
H217 C216 0.961 . S
H218 C216 0.961 . S
H219 C216 0.960 . S
C220 N221 1.342 . S
C220 C224 1.401 . S
C220 C225 1.499 . S
N221 Co204 1.989 . S
N221 C220 1.342 . S
N221 N222 1.388 . S
N222 Co205 1.993 . S
N222 N221 1.388 . S
N222 C223 1.346 . S
C223 N222 1.346 . S
C223 C224 1.396 . S
C223 C233 1.510 . S
C224 C220 1.401 . S
C224 C223 1.396 . S
C225 C220 1.499 . S
C225 H226 0.959 . S
C225 H227 0.960 . S
C225 H228 0.961 . S
H226 C225 0.959 . S
H227 C225 0.960 . S
H228 C225 0.961 . S
O229 Co204 1.967 . S
O229 C237 1.258 . S
O230 Co205 1.941 . S
O230 C237 1.266 . S
H231 C233 0.959 . S
H232 C233 0.961 . S
C233 C223 1.510 . S
C233 H231 0.959 . S
C233 H232 0.961 . S
C233 H234 0.960 . S
H234 C233 0.960 . S
H235 N215 0.862 . S
O236 Co204 1.920 . S
O236 C209 1.289 . S
C237 O229 1.258 . S
C237 O230 1.266 . S
Co238 O241 1.970 . S
Co238 N255 1.989 . S
Co238 O263 1.967 . S
Co238 O270 1.920 . S
Co239 O242 1.966 . S
Co239 N248 2.022 . S
Co239 N256 1.993 . S
Co239 O264 1.941 . S
C240 O241 1.258 . S
C240 O242 1.263 . S
O241 Co238 1.970 . S
O241 C240 1.258 . S
O242 Co239 1.966 . S
O242 C240 1.263 . S
C243 O244 1.235 . S
C243 O270 1.289 . S
O244 C243 1.235 . S
C245 C247 1.400 . S
C245 N248 1.351 . S
C245 C250 1.501 . S
C246 C247 1.387 . S
C246 N249 1.341 . S
C247 C245 1.400 . S
C247 C246 1.387 . S
N248 Co239 2.022 . S
N248 C245 1.351 . S
N248 N249 1.365 . S
N249 C246 1.341 . S
N249 N248 1.365 . S
N249 H269 0.872 . S
C250 C245 1.501 . S
C250 H251 0.961 . S
C250 H252 0.961 . S
C250 H253 0.960 1_565 S
H251 C250 0.961 . S
H252 C250 0.961 . S
H253 C250 0.960 1_545 S
C254 N255 1.342 . S
C254 C258 1.401 . S
C254 C259 1.499 . S
N255 Co238 1.989 . S
N255 C254 1.342 . S
N255 N256 1.388 . S
N256 Co239 1.993 . S
N256 N255 1.388 . S
N256 C257 1.346 . S
C257 N256 1.346 . S
C257 C258 1.396 . S
C257 C267 1.510 . S
C258 C254 1.401 . S
C258 C257 1.396 . S
C259 C254 1.499 . S
C259 H260 0.959 . S
C259 H261 0.960 . S
C259 H262 0.961 . S
H260 C259 0.959 . S
H261 C259 0.960 . S
H262 C259 0.961 . S
O263 Co238 1.967 . S
O263 C271 1.258 . S
O264 Co239 1.941 . S
O264 C271 1.266 . S
H265 C267 0.959 . S
H266 C267 0.961 . S
C267 C257 1.510 . S
C267 H265 0.959 . S
C267 H266 0.961 . S
C267 H268 0.960 . S
H268 C267 0.960 . S
H269 N249 0.872 . S
O270 Co238 1.920 . S
O270 C243 1.289 . S
C271 O263 1.258 . S
C271 O264 1.266 . S
Co272 O275 1.970 . S
Co272 N289 1.989 . S
Co272 O297 1.967 . S
Co272 O304 1.920 . S
Co273 O276 1.966 . S
Co273 N282 2.022 . S
Co273 N290 1.993 . S
Co273 O298 1.941 . S
C274 O275 1.258 . S
C274 O276 1.263 . S
O275 Co272 1.970 . S
O275 C274 1.258 . S
O276 Co273 1.966 . S
O276 C274 1.263 . S
C277 O278 1.235 . S
C277 O304 1.289 . S
O278 C277 1.235 . S
C279 C281 1.400 . S
C279 N282 1.351 . S
C279 C284 1.501 . S
C280 C281 1.387 . S
C280 N283 1.341 . S
C281 C279 1.400 . S
C281 C280 1.387 . S
N282 Co273 2.022 . S
N282 C279 1.351 . S
N282 N283 1.365 . S
N283 C280 1.341 . S
N283 N282 1.365 . S
N283 H303 0.862 . S
C284 C279 1.501 . S
C284 H285 0.961 . S
C284 H286 0.961 . S
C284 H287 0.960 . S
H285 C284 0.961 . S
H286 C284 0.961 . S
H287 C284 0.960 . S
C288 N289 1.342 . S
C288 C292 1.401 . S
C288 C293 1.499 . S
N289 Co272 1.989 . S
N289 C288 1.342 . S
N289 N290 1.388 . S
N290 Co273 1.993 . S
N290 N289 1.388 . S
N290 C291 1.346 . S
C291 N290 1.346 . S
C291 C292 1.396 . S
C291 C301 1.510 . S
C292 C288 1.401 . S
C292 C291 1.396 . S
C293 C288 1.499 . S
C293 H294 0.959 . S
C293 H295 0.960 . S
C293 H296 0.961 . S
H294 C293 0.959 . S
H295 C293 0.960 . S
H296 C293 0.961 . S
O297 Co272 1.967 . S
O297 C305 1.258 . S
O298 Co273 1.941 . S
O298 C305 1.266 . S
H299 C301 0.959 . S
H300 C301 0.972 . S
C301 C291 1.510 . S
C301 H299 0.959 . S
C301 H300 0.972 . S
C301 H302 0.960 . S
H302 C301 0.960 . S
H303 N283 0.862 . S
O304 Co272 1.920 . S
O304 C277 1.289 . S
C305 O297 1.258 . S
C305 O298 1.266 . S
Co306 O309 1.970 . S
Co306 N323 1.989 . S
Co306 O331 1.967 . S
Co306 O338 1.920 . S
Co307 O310 1.966 . S
Co307 N316 2.022 . S
Co307 N324 1.993 . S
Co307 O332 1.941 . S
C308 O309 1.258 . S
C308 O310 1.263 . S
O309 Co306 1.970 . S
O309 C308 1.258 . S
O310 Co307 1.966 . S
O310 C308 1.263 . S
C311 O312 1.235 . S
C311 O338 1.289 . S
O312 C311 1.235 . S
C313 C315 1.400 . S
C313 N316 1.351 . S
C313 C318 1.501 . S
C314 C315 1.387 . S
C314 N317 1.341 . S
C315 C313 1.400 . S
C315 C314 1.387 . S
N316 Co307 2.022 . S
N316 C313 1.351 . S
N316 N317 1.365 . S
N317 C314 1.341 . S
N317 N316 1.365 . S
N317 H337 0.862 . S
C318 C313 1.501 . S
C318 H319 0.961 . S
C318 H320 0.961 . S
C318 H321 0.960 . S
H319 C318 0.961 . S
H320 C318 0.961 . S
H321 C318 0.960 . S
C322 N323 1.342 . S
C322 C326 1.401 . S
C322 C327 1.499 . S
N323 Co306 1.989 . S
N323 C322 1.342 . S
N323 N324 1.388 . S
N324 Co307 1.993 . S
N324 N323 1.388 . S
N324 C325 1.346 . S
C325 N324 1.346 . S
C325 C326 1.396 . S
C325 C335 1.510 . S
C326 C322 1.401 . S
C326 C325 1.396 . S
C327 C322 1.499 . S
C327 H328 0.959 . S
C327 H329 0.960 . S
C327 H330 0.961 . S
H328 C327 0.959 . S
H329 C327 0.960 . S
H330 C327 0.961 . S
O331 Co306 1.967 . S
O331 C339 1.258 . S
O332 Co307 1.941 . S
O332 C339 1.266 . S
H333 C335 0.959 . S
H334 C335 0.961 . S
C335 C325 1.510 . S
C335 H333 0.959 . S
C335 H334 0.961 . S
C335 H336 0.960 . S
H336 C335 0.960 . S
H337 N317 0.862 . S
O338 Co306 1.920 . S
O338 C311 1.289 . S
C339 O331 1.258 . S
C339 O332 1.266 . S
Co340 O343 1.970 . S
Co340 N357 1.989 . S
Co340 O365 1.967 . S
Co340 O372 1.920 . S
Co341 O344 1.966 . S
Co341 N350 2.022 . S
Co341 N358 1.993 . S
Co341 O366 1.941 . S
C342 O343 1.258 . S
C342 O344 1.263 . S
O343 Co340 1.970 . S
O343 C342 1.258 . S
O344 Co341 1.966 . S
O344 C342 1.263 . S
C345 O346 1.235 . S
C345 O372 1.289 . S
O346 C345 1.235 . S
C347 C349 1.400 . S
C347 N350 1.351 . S
C347 C352 1.501 . S
C348 C349 1.387 . S
C348 N351 1.341 . S
C349 C347 1.400 . S
C349 C348 1.387 . S
N350 Co341 2.022 . S
N350 C347 1.351 . S
N350 N351 1.365 . S
N351 C348 1.341 . S
N351 N350 1.365 . S
N351 H371 0.862 . S
C352 C347 1.501 . S
C352 H353 0.961 . S
C352 H354 0.961 . S
C352 H355 0.960 . S
H353 C352 0.961 . S
H354 C352 0.961 . S
H355 C352 0.960 . S
C356 N357 1.342 . S
C356 C360 1.401 . S
C356 C361 1.499 . S
N357 Co340 1.989 . S
N357 C356 1.342 . S
N357 N358 1.388 . S
N358 Co341 1.993 . S
N358 N357 1.388 . S
N358 C359 1.346 . S
C359 N358 1.346 . S
C359 C360 1.396 . S
C359 C369 1.510 . S
C360 C356 1.401 . S
C360 C359 1.396 . S
C361 C356 1.499 . S
C361 H362 0.959 . S
C361 H363 0.960 . S
C361 H364 0.961 1_554 S
H362 C361 0.959 . S
H363 C361 0.960 . S
H364 C361 0.961 1_556 S
O365 Co340 1.967 . S
O365 C373 1.258 . S
O366 Co341 1.941 . S
O366 C373 1.266 . S
H367 C369 0.959 . S
H368 C369 0.961 . S
C369 C359 1.510 . S
C369 H367 0.959 . S
C369 H368 0.961 . S
C369 H370 0.960 . S
H370 C369 0.960 . S
H371 N351 0.862 . S
O372 Co340 1.920 . S
O372 C345 1.289 . S
C373 O365 1.258 . S
C373 O366 1.266 . S
Co374 O377 1.970 . S
Co374 N391 1.989 . S
Co374 O399 1.967 . S
Co374 O406 1.920 . S
Co375 O378 1.966 . S
Co375 N384 2.022 . S
Co375 N392 1.993 . S
Co375 O400 1.941 . S
C376 O377 1.258 . S
C376 O378 1.263 . S
O377 Co374 1.970 . S
O377 C376 1.258 . S
O378 Co375 1.966 . S
O378 C376 1.263 . S
C379 O380 1.235 . S
C379 O406 1.289 . S
O380 C379 1.235 . S
C381 C383 1.400 . S
C381 N384 1.351 . S
C381 C386 1.501 . S
C382 C383 1.387 . S
C382 N385 1.341 . S
C383 C381 1.400 . S
C383 C382 1.387 . S
N384 Co375 2.022 . S
N384 C381 1.351 . S
N384 N385 1.365 . S
N385 C382 1.341 . S
N385 N384 1.365 . S
N385 H405 0.862 . S
C386 C381 1.501 . S
C386 H387 0.961 . S
C386 H388 0.961 . S
C386 H389 0.960 1_554 S
H387 C386 0.961 . S
H388 C386 0.961 . S
H389 C386 0.960 1_556 S
C390 N391 1.342 . S
C390 C394 1.401 . S
C390 C395 1.499 . S
N391 Co374 1.989 . S
N391 C390 1.342 . S
N391 N392 1.388 . S
N392 Co375 1.993 . S
N392 N391 1.388 . S
N392 C393 1.346 . S
C393 N392 1.346 . S
C393 C394 1.396 . S
C393 C403 1.510 . S
C394 C390 1.401 . S
C394 C393 1.396 . S
C395 C390 1.499 . S
C395 H396 0.959 . S
C395 H397 0.960 . S
C395 H398 0.961 . S
H396 C395 0.959 . S
H397 C395 0.960 . S
H398 C395 0.961 . S
O399 Co374 1.967 . S
O399 C407 1.258 . S
O400 Co375 1.941 . S
O400 C407 1.266 . S
H401 C403 0.959 . S
H402 C403 0.961 . S
C403 C393 1.510 . S
C403 H401 0.959 . S
C403 H402 0.961 . S
C403 H404 0.960 . S
H404 C403 0.960 . S
H405 N385 0.862 . S
O406 Co374 1.920 . S
O406 C379 1.289 . S
C407 O399 1.258 . S
C407 O400 1.266 . S
Co408 O411 1.970 . S
Co408 N425 1.989 . S
Co408 O433 1.967 . S
Co408 O440 1.920 . S
Co409 O412 1.966 . S
Co409 N418 2.022 . S
Co409 N426 1.993 . S
Co409 O434 1.941 . S
C410 O411 1.258 . S
C410 O412 1.263 . S
O411 Co408 1.970 . S
O411 C410 1.258 . S
O412 Co409 1.966 . S
O412 C410 1.263 . S
C413 O414 1.235 . S
C413 O440 1.289 . S
O414 C413 1.235 . S
C415 C417 1.400 . S
C415 N418 1.351 . S
C415 C420 1.501 . S
C416 C417 1.387 . S
C416 N419 1.341 . S
C417 C415 1.400 . S
C417 C416 1.387 . S
N418 Co409 2.022 . S
N418 C415 1.351 . S
N418 N419 1.365 . S
N419 C416 1.341 . S
N419 N418 1.365 . S
N419 H439 0.862 . S
C420 C415 1.501 . S
C420 H421 0.961 . S
C420 H422 0.961 . S
C420 H423 0.960 . S
H421 C420 0.961 . S
H422 C420 0.961 . S
H423 C420 0.960 . S
C424 N425 1.342 . S
C424 C428 1.401 . S
C424 C429 1.499 . S
N425 Co408 1.989 . S
N425 C424 1.342 . S
N425 N426 1.388 . S
N426 Co409 1.993 . S
N426 N425 1.388 . S
N426 C427 1.346 . S
C427 N426 1.346 . S
C427 C428 1.396 . S
C427 C437 1.510 . S
C428 C424 1.401 . S
C428 C427 1.396 . S
C429 C424 1.499 . S
C429 H430 0.959 . S
C429 H431 0.960 . S
C429 H432 0.961 1_455 S
H430 C429 0.959 . S
H431 C429 0.960 . S
H432 C429 0.961 1_655 S
O433 Co408 1.967 . S
O433 C441 1.258 . S
O434 Co409 1.941 . S
O434 C441 1.266 . S
H435 C437 0.959 . S
H436 C437 0.961 . S
C437 C427 1.510 . S
C437 H435 0.959 . S
C437 H436 0.961 . S
C437 H438 0.960 . S
H438 C437 0.960 . S
H439 N419 0.862 . S
O440 Co408 1.920 . S
O440 C413 1.289 . S
C441 O433 1.258 . S
C441 O434 1.266 . S
Co442 O445 1.970 . S
Co442 N459 1.989 . S
Co442 O467 1.967 . S
Co442 O474 1.920 . S
Co443 O446 1.966 . S
Co443 N452 2.022 . S
Co443 N460 1.993 . S
Co443 O468 1.941 . S
C444 O445 1.258 . S
C444 O446 1.263 . S
O445 Co442 1.970 . S
O445 C444 1.258 . S
O446 Co443 1.966 . S
O446 C444 1.263 . S
C447 O448 1.235 . S
C447 O474 1.289 . S
O448 C447 1.235 . S
C449 C451 1.400 . S
C449 N452 1.351 . S
C449 C454 1.501 . S
C450 C451 1.387 . S
C450 N453 1.341 . S
C451 C449 1.400 . S
C451 C450 1.387 . S
N452 Co443 2.022 . S
N452 C449 1.351 . S
N452 N453 1.365 . S
N453 C450 1.341 . S
N453 N452 1.365 . S
N453 H473 0.862 . S
C454 C449 1.501 . S
C454 H455 0.961 . S
C454 H456 0.961 . S
C454 H457 0.960 . S
H455 C454 0.961 . S
H456 C454 0.961 . S
H457 C454 0.960 . S
C458 N459 1.342 . S
C458 C462 1.401 . S
C458 C463 1.499 . S
N459 Co442 1.989 . S
N459 C458 1.342 . S
N459 N460 1.388 . S
N460 Co443 1.993 . S
N460 N459 1.388 . S
N460 C461 1.346 . S
C461 N460 1.346 . S
C461 C462 1.396 . S
C461 C471 1.510 . S
C462 C458 1.401 . S
C462 C461 1.396 . S
C463 C458 1.499 . S
C463 H464 0.959 . S
C463 H465 0.960 . S
C463 H466 0.961 . S
H464 C463 0.959 . S
H465 C463 0.960 . S
H466 C463 0.961 . S
O467 Co442 1.967 . S
O467 C475 1.258 . S
O468 Co443 1.941 . S
O468 C475 1.266 . S
H469 C471 0.959 . S
H470 C471 0.961 . S
C471 C461 1.510 . S
C471 H469 0.959 . S
C471 H470 0.961 . S
C471 H472 0.960 . S
H472 C471 0.960 . S
H473 N453 0.862 . S
O474 Co442 1.920 . S
O474 C447 1.289 . S
C475 O467 1.258 . S
C475 O468 1.266 . S
Co476 O479 1.970 . S
Co476 N493 1.989 . S
Co476 O501 1.967 . S
Co476 O508 1.920 . S
Co477 O480 1.966 . S
Co477 N486 2.022 . S
Co477 N494 1.993 . S
Co477 O502 1.941 . S
C478 O479 1.258 . S
C478 O480 1.263 . S
O479 Co476 1.970 . S
O479 C478 1.258 . S
O480 Co477 1.966 . S
O480 C478 1.263 . S
C481 O482 1.235 . S
C481 O508 1.289 . S
O482 C481 1.235 . S
C483 C485 1.400 . S
C483 N486 1.351 . S
C483 C488 1.501 . S
C484 C485 1.387 . S
C484 N487 1.341 . S
C485 C483 1.400 . S
C485 C484 1.387 . S
N486 Co477 2.022 . S
N486 C483 1.351 . S
N486 N487 1.365 . S
N487 C484 1.341 . S
N487 N486 1.365 . S
N487 H507 0.862 . S
C488 C483 1.501 . S
C488 H489 0.961 . S
C488 H490 0.961 . S
C488 H491 0.960 . S
H489 C488 0.961 . S
H490 C488 0.961 . S
H491 C488 0.960 . S
C492 N493 1.342 . S
C492 C496 1.401 . S
C492 C497 1.499 . S
N493 Co476 1.989 . S
N493 C492 1.342 . S
N493 N494 1.388 . S
N494 Co477 1.993 . S
N494 N493 1.388 . S
N494 C495 1.346 . S
C495 N494 1.346 . S
C495 C496 1.396 . S
C495 C505 1.510 . S
C496 C492 1.401 . S
C496 C495 1.396 . S
C497 C492 1.499 . S
C497 H498 0.959 . S
C497 H499 0.960 . S
C497 H500 0.961 . S
H498 C497 0.959 . S
H499 C497 0.960 . S
H500 C497 0.961 . S
O501 Co476 1.967 . S
O501 C509 1.258 . S
O502 Co477 1.941 . S
O502 C509 1.266 . S
H503 C505 0.959 . S
H504 C505 0.961 . S
C505 C495 1.510 . S
C505 H503 0.959 . S
C505 H504 0.961 . S
C505 H506 0.960 . S
H506 C505 0.960 . S
H507 N487 0.862 . S
O508 Co476 1.920 . S
O508 C481 1.289 . S
C509 O501 1.258 . S
C509 O502 1.266 . S
Co510 O513 1.970 . S
Co510 N527 1.989 . S
Co510 O535 1.967 . S
Co510 O542 1.920 . S
Co511 O514 1.966 . S
Co511 N520 2.022 . S
Co511 N528 1.993 . S
Co511 O536 1.941 . S
C512 O513 1.258 . S
C512 O514 1.263 . S
O513 Co510 1.970 . S
O513 C512 1.258 . S
O514 Co511 1.966 . S
O514 C512 1.263 . S
C515 O516 1.235 . S
C515 O542 1.289 . S
O516 C515 1.235 . S
C517 C519 1.400 . S
C517 N520 1.351 . S
C517 C522 1.501 . S
C518 C519 1.387 . S
C518 N521 1.341 . S
C519 C517 1.400 . S
C519 C518 1.387 . S
N520 Co511 2.022 . S
N520 C517 1.351 . S
N520 N521 1.365 . S
N521 C518 1.341 . S
N521 N520 1.365 . S
N521 H541 0.862 . S
C522 C517 1.501 . S
C522 H523 0.961 . S
C522 H524 0.961 . S
C522 H525 0.960 . S
H523 C522 0.961 . S
H524 C522 0.961 . S
H525 C522 0.960 . S
C526 N527 1.342 . S
C526 C530 1.401 . S
C526 C531 1.499 . S
N527 Co510 1.989 . S
N527 C526 1.342 . S
N527 N528 1.388 . S
N528 Co511 1.993 . S
N528 N527 1.388 . S
N528 C529 1.346 . S
C529 N528 1.346 . S
C529 C530 1.396 . S
C529 C539 1.510 . S
C530 C526 1.401 . S
C530 C529 1.396 . S
C531 C526 1.499 . S
C531 H532 0.959 . S
C531 H533 0.960 . S
C531 H534 0.961 . S
H532 C531 0.959 . S
H533 C531 0.960 . S
H534 C531 0.961 . S
O535 Co510 1.967 . S
O535 C543 1.258 . S
O536 Co511 1.941 . S
O536 C543 1.266 . S
H537 C539 0.959 . S
H538 C539 0.961 . S
C539 C529 1.510 . S
C539 H537 0.959 . S
C539 H538 0.961 . S
C539 H540 0.960 . S
H540 C539 0.960 . S
H541 N521 0.862 . S
O542 Co510 1.920 . S
O542 C515 1.289 . S
C543 O535 1.258 . S
C543 O536 1.266 . S
C544 C545 1.363 . S
C544 C550 1.379 . S
C544 N552 1.356 . S
C545 C544 1.363 . S
C545 C551 1.363 . S
C546 C547 1.363 . S
C546 C551 1.379 . S
C546 N553 1.356 . S
C547 C546 1.363 . S
C547 C550 1.363 . S
N548 C550 1.356 . S
N548 H560 0.984 . S
N548 H561 0.985 . S
N549 C551 1.356 . S
N549 H554 0.984 . S
N549 H555 0.985 . S
C550 C544 1.379 . S
C550 C547 1.363 . S
C550 N548 1.356 . S
C551 C545 1.363 . S
C551 C546 1.379 . S
C551 N549 1.356 . S
N552 C544 1.356 . S
N552 H558 0.984 . S
N552 H559 0.984 . S
N553 C546 1.356 . S
N553 H556 0.984 . S
N553 H557 0.985 . S
H554 N549 0.984 . S
H555 N549 0.985 . S
H556 N553 0.984 . S
H557 N553 0.985 . S
H558 N552 0.984 . S
H559 N552 0.984 . S
H560 N548 0.984 . S
H561 N548 0.985 . S
C562 C563 1.363 1_545 S
C562 C568 1.379 1_655 S
C562 N570 1.356 . S
C563 C562 1.363 1_565 S
C563 C569 1.363 . S
C564 C565 1.363 . S
C564 C569 1.379 1_455 S
C564 N571 1.356 . S
C565 C564 1.363 . S
C565 C568 1.363 1_565 S
N566 C568 1.356 . S
N566 H578 0.984 . S
N566 H579 0.985 . S
N567 C569 1.356 . S
N567 H572 0.984 . S
N567 H573 0.985 . S
C568 C562 1.379 1_455 S
C568 C565 1.363 1_545 S
C568 N566 1.356 . S
C569 C563 1.363 . S
C569 C564 1.379 1_655 S
C569 N567 1.356 . S
N570 C562 1.356 . S
N570 H576 0.984 . S
N570 H577 0.984 . S
N571 C564 1.356 . S
N571 H574 0.984 . S
N571 H575 0.985 . S
H572 N567 0.984 . S
H573 N567 0.985 . S
H574 N571 0.984 . S
H575 N571 0.985 . S
H576 N570 0.984 . S
H577 N570 0.984 . S
H578 N566 0.984 . S
H579 N566 0.985 . S
C580 C581 1.363 . S
C580 C586 1.379 . S
C580 N588 1.356 . S
C581 C580 1.363 . S
C581 C587 1.363 . S
C582 C583 1.363 . S
C582 C587 1.379 . S
C582 N589 1.356 . S
C583 C582 1.363 . S
C583 C586 1.363 . S
N584 C586 1.356 . S
N584 H596 0.984 . S
N584 H597 0.985 . S
N585 C587 1.356 . S
N585 H590 0.984 . S
N585 H591 0.985 . S
C586 C580 1.379 . S
C586 C583 1.363 . S
C586 N584 1.356 . S
C587 C581 1.363 . S
C587 C582 1.379 . S
C587 N585 1.356 . S
N588 C580 1.356 . S
N588 H594 0.984 . S
N588 H595 0.984 . S
N589 C582 1.356 . S
N589 H592 0.984 . S
N589 H593 0.985 . S
H590 N585 0.984 . S
H591 N585 0.985 . S
H592 N589 0.984 . S
H593 N589 0.985 . S
H594 N588 0.984 . S
H595 N588 0.984 . S
H596 N584 0.984 . S
H597 N584 0.985 . S
C598 C599 1.363 . S
C598 C604 1.379 1_556 S
C598 N606 1.356 . S
C599 C598 1.363 . S
C599 C605 1.363 1_546 S
C600 C601 1.363 . S
C600 C605 1.379 . S
C600 N607 1.356 . S
C601 C600 1.363 . S
C601 C604 1.363 1_565 S
N602 C604 1.356 . S
N602 H614 0.984 . S
N602 H615 0.985 1_545 S
N603 C605 1.357 . S
N603 H608 0.984 1_554 S
N603 H609 0.985 . S
C604 C598 1.379 1_554 S
C604 C601 1.363 1_545 S
C604 N602 1.356 . S
C605 C599 1.363 1_564 S
C605 C600 1.379 . S
C605 N603 1.357 . S
N606 C598 1.356 . S
N606 H612 0.984 . S
N606 H613 0.984 . S
N607 C600 1.356 . S
N607 H610 0.984 . S
N607 H611 0.985 . S
H608 N603 0.984 1_556 S
H609 N603 0.985 . S
H610 N607 0.984 . S
H611 N607 0.985 . S
H612 N606 0.984 . S
H613 N606 0.984 . S
H614 N602 0.984 . S
H615 N602 0.985 1_565 S
C616 C617 1.363 . S
C616 C622 1.379 . S
C616 N624 1.356 . S
C617 C616 1.363 . S
C617 C623 1.363 . S
C618 C619 1.363 . S
C618 C623 1.379 . S
C618 N625 1.356 . S
C619 C618 1.363 . S
C619 C622 1.363 . S
N620 C622 1.356 . S
N620 H632 0.984 . S
N620 H633 0.985 . S
N621 C623 1.356 . S
N621 H626 0.984 . S
N621 H627 0.985 . S
C622 C616 1.379 . S
C622 C619 1.363 . S
C622 N620 1.356 . S
C623 C617 1.363 . S
C623 C618 1.379 . S
C623 N621 1.356 . S
N624 C616 1.356 . S
N624 H630 0.984 . S
N624 H631 0.984 . S
N625 C618 1.356 . S
N625 H628 0.984 . S
N625 H629 0.985 . S
H626 N621 0.984 . S
H627 N621 0.985 . S
H628 N625 0.984 . S
H629 N625 0.985 . S
H630 N624 0.984 . S
H631 N624 0.984 . S
H632 N620 0.984 . S
H633 N620 0.985 . S
C634 C635 1.363 . S
C634 C640 1.379 1_565 S
C634 N642 1.356 . S
C635 C634 1.363 . S
C635 C641 1.363 1_565 S
C636 C637 1.363 . S
C636 C641 1.379 . S
C636 N643 1.356 . S
C637 C636 1.363 . S
C637 C640 1.363 . S
N638 C640 1.356 . S
N638 H650 0.984 . S
N638 H651 0.985 . S
N639 C641 1.356 . S
N639 H644 0.984 1_545 S
N639 H645 0.985 . S
C640 C634 1.379 1_545 S
C640 C637 1.363 . S
C640 N638 1.356 . S
C641 C635 1.363 1_545 S
C641 C636 1.379 . S
C641 N639 1.356 . S
N642 C634 1.356 . S
N642 H648 0.984 . S
N642 H649 0.984 . S
N643 C636 1.356 . S
N643 H646 0.984 . S
N643 H647 0.985 . S
H644 N639 0.984 1_565 S
H645 N639 0.985 . S
H646 N643 0.984 . S
H647 N643 0.985 . S
H648 N642 0.984 . S
H649 N642 0.984 . S
H650 N638 0.984 . S
H651 N638 0.985 . S
C652 C653 1.363 . S
C652 C658 1.379 . S
C652 N660 1.356 . S
C653 C652 1.363 . S
C653 C659 1.363 . S
C654 C655 1.363 . S
C654 C659 1.379 . S
C654 N661 1.356 . S
C655 C654 1.363 . S
C655 C658 1.363 . S
N656 C658 1.356 . S
N656 H668 0.984 . S
N656 H669 0.985 . S
N657 C659 1.356 . S
N657 H662 0.984 . S
N657 H663 0.985 . S
C658 C652 1.379 . S
C658 C655 1.363 . S
C658 N656 1.356 . S
C659 C653 1.363 . S
C659 C654 1.379 . S
C659 N657 1.356 . S
N660 C652 1.356 . S
N660 H666 0.984 . S
N660 H667 0.984 . S
N661 C654 1.356 . S
N661 H664 0.984 . S
N661 H665 0.985 . S
H662 N657 0.984 . S
H663 N657 0.985 . S
H664 N661 0.984 . S
H665 N661 0.985 . S
H666 N660 0.984 . S
H667 N660 0.984 . S
H668 N656 0.984 . S
H669 N656 0.985 . S
C670 C671 1.387 . S
C670 C676 1.366 1_545 S
C670 N678 1.353 1_545 S
C671 C670 1.387 . S
C671 C677 1.363 . S
C672 C673 1.363 1_645 S
C672 C677 1.379 1_656 S
C672 N679 1.356 . S
C673 C672 1.363 1_465 S
C673 C676 1.363 1_556 S
N674 C676 1.356 1_556 S
N674 H686 0.984 1_556 S
N674 H687 0.985 . S
N675 C677 1.356 . S
N675 H680 0.984 . S
N675 H681 0.985 1_455 S
C676 C670 1.366 1_565 S
C676 C673 1.363 1_554 S
C676 N674 1.356 1_554 S
C677 C671 1.363 . S
C677 C672 1.379 1_454 S
C677 N675 1.356 . S
N678 C670 1.353 1_565 S
N678 H684 0.984 . S
N678 H685 0.984 1_565 S
N679 C672 1.356 . S
N679 H682 0.984 . S
N679 H683 0.985 . S
H680 N675 0.984 . S
H681 N675 0.985 1_655 S
H682 N679 0.984 . S
H683 N679 0.985 . S
H684 N678 0.984 . S
H685 N678 0.984 1_545 S
H686 N674 0.984 1_554 S
H687 N674 0.985 . S
C688 C689 1.363 . S
C688 C694 1.379 . S
C688 N696 1.356 . S
C689 C688 1.363 . S
C689 C695 1.363 . S
C690 C691 1.363 . S
C690 C695 1.379 . S
C690 N697 1.356 . S
C691 C690 1.363 . S
C691 C694 1.363 . S
N692 C694 1.356 . S
N692 H704 0.984 . S
N692 H705 0.985 . S
N693 C695 1.356 . S
N693 H698 0.984 . S
N693 H699 0.985 . S
C694 C688 1.379 . S
C694 C691 1.363 . S
C694 N692 1.356 . S
C695 C689 1.363 . S
C695 C690 1.379 . S
C695 N693 1.356 . S
N696 C688 1.356 . S
N696 H702 0.984 . S
N696 H703 0.984 . S
N697 C690 1.356 . S
N697 H700 0.984 . S
N697 H701 0.985 . S
H698 N693 0.984 . S
H699 N693 0.985 . S
H700 N697 0.984 . S
H701 N697 0.985 . S
H702 N696 0.984 . S
H703 N696 0.984 . S
H704 N692 0.984 . S
H705 N692 0.985 . S
C706 C707 1.363 . S
C706 C712 1.379 1_455 S
C706 N714 1.356 . S
C707 C706 1.363 . S
C707 C713 1.363 1_556 S
C708 C709 1.363 1_455 S
C708 C713 1.379 . S
C708 N715 1.357 . S
C709 C708 1.363 1_655 S
C709 C712 1.363 1_554 S
N710 C712 1.356 . S
N710 H722 0.984 . S
N710 H723 0.985 . S
N711 C713 1.356 . S
N711 H716 0.984 . S
N711 H717 0.985 . S
C712 C706 1.379 1_655 S
C712 C709 1.363 1_556 S
C712 N710 1.356 . S
C713 C707 1.363 1_554 S
C713 C708 1.379 . S
C713 N711 1.356 . S
N714 C706 1.356 . S
N714 H720 0.993 . S
N714 H721 0.984 . S
N715 C708 1.357 . S
N715 H718 0.981 1_455 S
N715 H719 0.987 . S
H716 N711 0.984 . S
H717 N711 0.985 . S
H718 N715 0.981 1_655 S
H719 N715 0.987 . S
H720 N714 0.993 . S
H721 N714 0.984 . S
H722 N710 0.984 . S
H723 N710 0.985 . S
C724 C725 1.363 . S
C724 C730 1.379 . S
C724 N732 1.356 . S
C725 C724 1.363 . S
C725 C731 1.363 . S
C726 C727 1.363 . S
C726 C731 1.379 . S
C726 N733 1.356 . S
C727 C726 1.363 . S
C727 C730 1.363 . S
N728 C730 1.356 . S
N728 H740 0.984 . S
N728 H741 0.985 . S
N729 C731 1.356 . S
N729 H734 0.984 . S
N729 H735 0.985 . S
C730 C724 1.379 . S
C730 C727 1.363 . S
C730 N728 1.356 . S
C731 C725 1.363 . S
C731 C726 1.379 . S
C731 N729 1.356 . S
N732 C724 1.356 . S
N732 H738 0.984 . S
N732 H739 0.984 . S
N733 C726 1.356 . S
N733 H736 0.984 . S
N733 H737 0.985 . S
H734 N729 0.984 . S
H735 N729 0.985 . S
H736 N733 0.984 . S
H737 N733 0.985 . S
H738 N732 0.984 . S
H739 N732 0.984 . S
H740 N728 0.984 . S
H741 N728 0.985 . S
C742 C743 1.363 . S
C742 C748 1.379 . S
C742 N750 1.356 . S
C743 C742 1.363 . S
C743 C749 1.363 . S
C744 C745 1.363 . S
C744 C749 1.379 1_455 S
C744 N751 1.356 . S
C745 C744 1.363 . S
C745 C748 1.363 1_455 S
N746 C748 1.356 1_455 S
N746 H758 0.984 1_455 S
N746 H759 0.985 . S
N747 C749 1.356 . S
N747 H752 0.984 . S
N747 H753 0.985 . S
C748 C742 1.379 . S
C748 C745 1.363 1_655 S
C748 N746 1.356 1_655 S
C749 C743 1.363 . S
C749 C744 1.379 1_655 S
C749 N747 1.356 . S
N750 C742 1.356 . S
N750 H756 0.984 . S
N750 H757 0.984 . S
N751 C744 1.356 . S
N751 H754 0.984 . S
N751 H755 0.985 . S
H752 N747 0.984 . S
H753 N747 0.985 . S
H754 N751 0.984 . S
H755 N751 0.985 . S
H756 N750 0.984 . S
H757 N750 0.984 . S
H758 N746 0.984 1_655 S
H759 N746 0.985 . S
C760 C761 1.363 . S
C760 C766 1.379 . S
C760 N768 1.356 . S
C761 C760 1.363 . S
C761 C767 1.363 . S
C762 C763 1.363 1_556 S
C762 C767 1.379 . S
C762 N769 1.356 1_556 S
C763 C762 1.363 1_554 S
C763 C766 1.363 1_554 S
N764 C766 1.356 1_554 S
N764 H776 0.984 . S
N764 H777 0.985 . S
N765 C767 1.356 . S
N765 H770 0.984 . S
N765 H771 0.985 . S
C766 C760 1.379 . S
C766 C763 1.363 1_556 S
C766 N764 1.356 1_556 S
C767 C761 1.363 . S
C767 C762 1.379 . S
C767 N765 1.356 . S
N768 C760 1.356 . S
N768 H774 0.984 . S
N768 H775 0.984 . S
N769 C762 1.356 1_554 S
N769 H772 0.984 . S
N769 H773 0.986 . S
H770 N765 0.984 . S
H771 N765 0.985 . S
H772 N769 0.984 . S
H773 N769 0.986 . S
H774 N768 0.984 . S
H775 N768 0.984 . S
H776 N764 0.984 . S
H777 N764 0.985 . S
C778 C779 1.363 . S
C778 C784 1.379 . S
C778 N786 1.356 . S
C779 C778 1.363 . S
C779 C785 1.363 . S
C780 C781 1.363 . S
C780 C785 1.379 . S
C780 N787 1.356 . S
C781 C780 1.363 . S
C781 C784 1.363 . S
N782 C784 1.356 . S
N782 H794 0.984 . S
N782 H795 0.985 . S
N783 C785 1.356 . S
N783 H788 0.984 . S
N783 H789 0.985 . S
C784 C778 1.379 . S
C784 C781 1.363 . S
C784 N782 1.356 . S
C785 C779 1.363 . S
C785 C780 1.379 . S
C785 N783 1.356 . S
N786 C778 1.356 . S
N786 H792 0.984 . S
N786 H793 0.984 . S
N787 C780 1.356 . S
N787 H790 0.984 . S
N787 H791 0.985 . S
H788 N783 0.984 . S
H789 N783 0.985 . S
H790 N787 0.984 . S
H791 N787 0.985 . S
H792 N786 0.984 . S
H793 N786 0.984 . S
H794 N782 0.984 . S
H795 N782 0.985 . S
C796 C797 1.363 . S
C796 C802 1.379 . S
C796 N804 1.356 . S
C797 C796 1.363 . S
C797 C803 1.363 . S
C798 C799 1.363 . S
C798 C803 1.379 . S
C798 N805 1.356 . S
C799 C798 1.363 . S
C799 C802 1.363 . S
N800 C802 1.356 . S
N800 H812 0.984 . S
N800 H813 0.985 . S
N801 C803 1.356 . S
N801 H806 0.984 . S
N801 H807 0.985 . S
C802 C796 1.379 . S
C802 C799 1.363 . S
C802 N800 1.356 . S
C803 C797 1.363 . S
C803 C798 1.379 . S
C803 N801 1.356 . S
N804 C796 1.356 . S
N804 H810 0.984 . S
N804 H811 0.984 . S
N805 C798 1.356 . S
N805 H808 0.984 . S
N805 H809 0.985 . S
H806 N801 0.984 . S
H807 N801 0.985 . S
H808 N805 0.984 . S
H809 N805 0.985 . S
H810 N804 0.984 . S
H811 N804 0.984 . S
H812 N800 0.984 . S
H813 N800 0.985 . S
C814 C815 1.363 . S
C814 C820 1.379 . S
C814 N822 1.356 . S
C815 C814 1.363 . S
C815 C821 1.363 . S
C816 C817 1.363 . S
C816 C821 1.379 . S
C816 N823 1.356 . S
C817 C816 1.363 . S
C817 C820 1.363 . S
N818 C820 1.356 . S
N818 H830 0.984 . S
N818 H831 0.985 . S
N819 C821 1.356 . S
N819 H824 0.984 . S
N819 H825 0.985 . S
C820 C814 1.379 . S
C820 C817 1.363 . S
C820 N818 1.356 . S
C821 C815 1.363 . S
C821 C816 1.379 . S
C821 N819 1.356 . S
N822 C814 1.356 . S
N822 H828 0.984 . S
N822 H829 0.984 . S
N823 C816 1.356 . S
N823 H826 0.984 . S
N823 H827 0.985 . S
H824 N819 0.984 . S
H825 N819 0.985 . S
H826 N823 0.984 . S
H827 N823 0.985 . S
H828 N822 0.984 . S
H829 N822 0.984 . S
H830 N818 0.984 . S
H831 N818 0.985 . S
C832 C833 1.363 . S
C832 C838 1.379 1_545 S
C832 N840 1.356 . S
C833 C832 1.363 . S
C833 C839 1.363 . S
C834 C835 1.363 1_545 S
C834 C839 1.379 . S
C834 N841 1.351 1_545 S
C835 C834 1.363 1_565 S
C835 C838 1.363 . S
N836 C838 1.356 . S
N836 H848 0.984 . S
N836 H849 0.985 . S
N837 C839 1.356 . S
N837 H842 0.984 . S
N837 H843 0.985 . S
C838 C832 1.379 1_565 S
C838 C835 1.363 . S
C838 N836 1.356 . S
C839 C833 1.363 . S
C839 C834 1.379 . S
C839 N837 1.356 . S
N840 C832 1.356 . S
N840 H846 0.984 1_545 S
N840 H847 0.984 . S
N841 C834 1.351 1_565 S
N841 H844 1.010 . S
N841 H845 0.965 1_565 S
H842 N837 0.984 . S
H843 N837 0.985 . S
H844 N841 1.010 . S
H845 N841 0.965 1_545 S
H846 N840 0.984 1_565 S
H847 N840 0.984 . S
H848 N836 0.984 . S
H849 N836 0.985 . S
C850 C851 1.363 . S
C850 C856 1.379 . S
C850 N858 1.356 . S
C851 C850 1.363 . S
C851 C857 1.363 . S
C852 C853 1.363 . S
C852 C857 1.379 . S
C852 N859 1.356 . S
C853 C852 1.363 . S
C853 C856 1.363 . S
N854 C856 1.356 . S
N854 H866 0.984 . S
N854 H867 0.985 . S
N855 C857 1.356 . S
N855 H860 0.984 . S
N855 H861 0.985 . S
C856 C850 1.379 . S
C856 C853 1.363 . S
C856 N854 1.356 . S
C857 C851 1.363 . S
C857 C852 1.379 . S
C857 N855 1.356 . S
N858 C850 1.356 . S
N858 H864 0.984 . S
N858 H865 0.984 . S
N859 C852 1.356 . S
N859 H862 0.984 . S
N859 H863 0.985 . S
H860 N855 0.984 . S
H861 N855 0.985 . S
H862 N859 0.984 . S
H863 N859 0.985 . S
H864 N858 0.984 . S
H865 N858 0.984 . S
H866 N854 0.984 . S
H867 N854 0.985 . S
C868 C869 1.363 . S
C868 C874 1.379 1_565 S
C868 N876 1.356 . S
C869 C868 1.363 . S
C869 C875 1.363 1_565 S
C870 C871 1.363 . S
C870 C875 1.379 . S
C870 N877 1.356 . S
C871 C870 1.363 . S
C871 C874 1.363 . S
N872 C874 1.356 . S
N872 H884 0.984 . S
N872 H885 0.985 . S
N873 C875 1.356 . S
N873 H878 1.006 . S
N873 H879 0.985 . S
C874 C868 1.379 1_545 S
C874 C871 1.363 . S
C874 N872 1.356 . S
C875 C869 1.363 1_545 S
C875 C870 1.379 . S
C875 N873 1.356 . S
N876 C868 1.356 . S
N876 H882 0.984 . S
N876 H883 0.984 . S
N877 C870 1.356 . S
N877 H880 0.984 . S
N877 H881 0.985 . S
H878 N873 1.006 . S
H879 N873 0.985 . S
H880 N877 0.984 . S
H881 N877 0.985 . S
H882 N876 0.984 . S
H883 N876 0.984 . S
H884 N872 0.984 . S
H885 N872 0.985 . S
C886 C887 1.363 . S
C886 C892 1.379 1_556 S
C886 N894 1.356 . S
C887 C886 1.363 . S
C887 C893 1.363 1_556 S
C888 C889 1.363 . S
C888 C893 1.379 . S
C888 N895 1.356 . S
C889 C888 1.363 . S
C889 C892 1.363 . S
N890 C892 1.356 . S
N890 H902 0.984 1_554 S
N890 H903 0.985 . S
N891 C893 1.356 . S
N891 H896 0.984 1_554 S
N891 H897 0.985 . S
C892 C886 1.379 1_554 S
C892 C889 1.363 . S
C892 N890 1.356 . S
C893 C887 1.363 1_554 S
C893 C888 1.379 . S
C893 N891 1.356 . S
N894 C886 1.356 . S
N894 H900 0.984 . S
N894 H901 0.984 . S
N895 C888 1.356 . S
N895 H898 0.984 . S
N895 H899 0.985 . S
H896 N891 0.984 1_556 S
H897 N891 0.985 . S
H898 N895 0.984 . S
H899 N895 0.985 . S
H900 N894 0.984 . S
H901 N894 0.984 . S
H902 N890 0.984 1_556 S
H903 N890 0.985 . S
C904 C905 1.363 1_655 S
C904 C910 1.379 . S
C904 N912 1.356 1_655 S
C905 C904 1.363 1_455 S
C905 C911 1.363 . S
C906 C907 1.363 1_455 S
C906 C911 1.379 . S
C906 N913 1.356 . S
C907 C906 1.363 1_655 S
C907 C910 1.363 . S
N908 C910 1.356 . S
N908 H920 0.984 . S
N908 H921 0.985 . S
N909 C911 1.356 . S
N909 H914 0.984 . S
N909 H915 0.985 . S
C910 C904 1.379 . S
C910 C907 1.363 . S
C910 N908 1.356 . S
C911 C905 1.363 . S
C911 C906 1.379 . S
C911 N909 1.356 . S
N912 C904 1.356 1_455 S
N912 H918 0.981 1_455 S
N912 H919 0.989 . S
N913 C906 1.356 . S
N913 H916 0.984 1_455 S
N913 H917 0.985 . S
H914 N909 0.984 . S
H915 N909 0.985 . S
H916 N913 0.984 1_655 S
H917 N913 0.985 . S
H918 N912 0.981 1_655 S
H919 N912 0.989 . S
H920 N908 0.984 . S
H921 N908 0.985 . S
C922 C923 1.363 . S
C922 C928 1.379 . S
C922 N930 1.356 . S
C923 C922 1.363 . S
C923 C929 1.363 . S
C924 C925 1.363 . S
C924 C929 1.379 . S
C924 N931 1.356 . S
C925 C924 1.363 . S
C925 C928 1.363 . S
N926 C928 1.356 . S
N926 H938 0.984 . S
N926 H939 0.985 . S
N927 C929 1.356 . S
N927 H932 0.984 . S
N927 H933 0.985 . S
C928 C922 1.379 . S
C928 C925 1.363 . S
C928 N926 1.356 . S
C929 C923 1.363 . S
C929 C924 1.379 . S
C929 N927 1.356 . S
N930 C922 1.356 . S
N930 H936 0.984 . S
N930 H937 0.984 . S
N931 C924 1.356 . S
N931 H934 0.984 . S
N931 H935 0.985 . S
H932 N927 0.984 . S
H933 N927 0.985 . S
H934 N931 0.984 . S
H935 N931 0.985 . S
H936 N930 0.984 . S
H937 N930 0.984 . S
H938 N926 0.984 . S
H939 N926 0.985 . S
C940 C941 1.363 1_455 S
C940 C946 1.379 . S
C940 N948 1.356 1_455 S
C941 C940 1.363 1_655 S
C941 C947 1.363 . S
C942 C943 1.363 . S
C942 C947 1.379 1_455 S
C942 N949 1.356 . S
C943 C942 1.363 . S
C943 C946 1.363 . S
N944 C946 1.356 . S
N944 H956 0.984 . S
N944 H957 0.985 . S
N945 C947 1.356 . S
N945 H950 0.984 . S
N945 H951 0.985 . S
C946 C940 1.379 . S
C946 C943 1.363 . S
C946 N944 1.356 . S
C947 C941 1.363 . S
C947 C942 1.379 1_655 S
C947 N945 1.356 . S
N948 C940 1.356 1_655 S
N948 H954 0.984 1_655 S
N948 H955 0.984 . S
N949 C942 1.356 . S
N949 H952 0.984 . S
N949 H953 0.985 1_455 S
H950 N945 0.984 . S
H951 N945 0.985 . S
H952 N949 0.984 . S
H953 N949 0.985 1_655 S
H954 N948 0.984 1_455 S
H955 N948 0.984 . S
H956 N944 0.984 . S
H957 N944 0.985 . S
C958 C959 1.363 . S
C958 C964 1.379 . S
C958 N966 1.356 . S
C959 C958 1.363 . S
C959 C965 1.363 . S
C960 C961 1.363 . S
C960 C965 1.379 . S
C960 N967 1.356 . S
C961 C960 1.363 . S
C961 C964 1.363 . S
N962 C964 1.356 . S
N962 H974 0.984 . S
N962 H975 0.985 . S
N963 C965 1.356 . S
N963 H968 0.984 . S
N963 H969 0.985 . S
C964 C958 1.379 . S
C964 C961 1.363 . S
C964 N962 1.356 . S
C965 C959 1.363 . S
C965 C960 1.379 . S
C965 N963 1.356 . S
N966 C958 1.356 . S
N966 H972 0.984 . S
N966 H973 0.984 . S
N967 C960 1.356 . S
N967 H970 0.984 . S
N967 H971 0.985 . S
H968 N963 0.984 . S
H969 N963 0.985 . S
H970 N967 0.984 . S
H971 N967 0.985 . S
H972 N966 0.984 . S
H973 N966 0.984 . S
H974 N962 0.984 . S
H975 N962 0.985 . S
C976 C977 1.363 1_565 S
C976 C982 1.379 . S
C976 N984 1.356 . S
C977 C976 1.363 1_545 S
C977 C983 1.363 . S
C978 C979 1.349 1_545 S
C978 C983 1.392 . S
C978 N985 1.352 1_545 S
C979 C978 1.349 1_565 S
C979 C982 1.363 . S
N980 C982 1.356 . S
N980 H992 0.984 . S
N980 H993 0.985 . S
N981 C983 1.356 . S
N981 H986 0.984 . S
N981 H987 0.985 . S
C982 C976 1.379 . S
C982 C979 1.363 . S
C982 N980 1.356 . S
C983 C977 1.363 . S
C983 C978 1.392 . S
C983 N981 1.356 . S
N984 C976 1.356 . S
N984 H990 0.984 . S
N984 H991 0.984 1_565 S
N985 C978 1.352 1_565 S
N985 H988 0.984 . S
N985 H989 0.985 1_565 S
H986 N981 0.984 . S
H987 N981 0.985 . S
H988 N985 0.984 . S
H989 N985 0.985 1_545 S
H990 N984 0.984 . S
H991 N984 0.984 1_545 S
H992 N980 0.984 . S
H993 N980 0.985 . S
C994 C995 1.363 . S
C994 C1000 1.379 . S
C994 N1002 1.356 . S
C995 C994 1.363 . S
C995 C1001 1.363 . S
C996 C997 1.363 . S
C996 C1001 1.379 . S
C996 N1003 1.356 . S
C997 C996 1.363 . S
C997 C1000 1.363 . S
N998 C1000 1.356 . S
N998 H1010 0.984 . S
N998 H1011 0.985 . S
N999 C1001 1.356 . S
N999 H1004 0.984 . S
N999 H1005 0.985 . S
C1000 C994 1.379 . S
C1000 C997 1.363 . S
C1000 N998 1.356 . S
C1001 C995 1.363 . S
C1001 C996 1.379 . S
C1001 N999 1.356 . S
N1002 C994 1.356 . S
N1002 H1008 0.984 . S
N1002 H1009 0.984 . S
N1003 C996 1.356 . S
N1003 H1006 0.984 . S
N1003 H1007 0.985 . S
H1004 N999 0.984 . S
H1005 N999 0.985 . S
H1006 N1003 0.984 . S
H1007 N1003 0.985 . S
H1008 N1002 0.984 . S
H1009 N1002 0.984 . S
H1010 N998 0.984 . S
H1011 N998 0.985 . S
C1012 C1013 1.359 1_565 S
C1012 C1018 1.388 . S
C1012 N1020 1.348 1_565 S
C1013 C1012 1.359 1_545 S
C1013 C1019 1.363 1_545 S
C1014 C1015 1.363 . S
C1014 C1019 1.379 . S
C1014 N1021 1.356 . S
C1015 C1014 1.363 . S
C1015 C1018 1.363 . S
N1016 C1018 1.356 . S
N1016 H1028 0.984 . S
N1016 H1029 0.985 . S
N1017 C1019 1.356 1_545 S
N1017 H1022 0.984 . S
N1017 H1023 0.985 1_545 S
C1018 C1012 1.388 . S
C1018 C1015 1.363 . S
C1018 N1016 1.356 . S
C1019 C1013 1.363 1_565 S
C1019 C1014 1.379 . S
C1019 N1017 1.356 1_565 S
N1020 C1012 1.348 1_545 S
N1020 H1026 0.984 . S
N1020 H1027 0.984 . S
N1021 C1014 1.356 . S
N1021 H1024 0.984 . S
N1021 H1025 0.985 . S
H1022 N1017 0.984 . S
H1023 N1017 0.985 1_565 S
H1024 N1021 0.984 . S
H1025 N1021 0.985 . S
H1026 N1020 0.984 . S
H1027 N1020 0.984 . S
H1028 N1016 0.984 . S
H1029 N1016 0.985 . S
C1030 C1031 1.363 . S
C1030 C1036 1.379 1_554 S
C1030 N1038 1.356 . S
C1031 C1030 1.363 . S
C1031 C1037 1.363 1_554 S
C1032 C1033 1.363 . S
C1032 C1037 1.379 . S
C1032 N1039 1.356 . S
C1033 C1032 1.363 . S
C1033 C1036 1.363 . S
N1034 C1036 1.356 . S
N1034 H1046 0.984 1_556 S
N1034 H1047 0.985 . S
N1035 C1037 1.356 . S
N1035 H1040 0.984 1_556 S
N1035 H1041 0.985 . S
C1036 C1030 1.379 1_556 S
C1036 C1033 1.363 . S
C1036 N1034 1.356 . S
C1037 C1031 1.363 1_556 S
C1037 C1032 1.379 . S
C1037 N1035 1.356 . S
N1038 C1030 1.356 . S
N1038 H1044 0.984 . S
N1038 H1045 0.984 . S
N1039 C1032 1.356 . S
N1039 H1042 0.984 . S
N1039 H1043 0.985 . S
H1040 N1035 0.984 1_554 S
H1041 N1035 0.985 . S
H1042 N1039 0.984 . S
H1043 N1039 0.985 . S
H1044 N1038 0.984 . S
H1045 N1038 0.984 . S
H1046 N1034 0.984 1_554 S
H1047 N1034 0.985 . S
C1048 C1049 1.363 . S
C1048 C1054 1.379 1_455 S
C1048 N1056 1.356 . S
C1049 C1048 1.363 . S
C1049 C1055 1.365 . S
C1050 C1051 1.363 . S
C1050 C1055 1.376 1_655 S
C1050 N1057 1.356 . S
C1051 C1050 1.363 . S
C1051 C1054 1.363 . S
N1052 C1054 1.356 . S
N1052 H1064 0.984 . S
N1052 H1065 0.985 . S
N1053 C1055 1.358 . S
N1053 H1058 0.984 . S
N1053 H1059 0.985 . S
C1054 C1048 1.379 1_655 S
C1054 C1051 1.363 . S
C1054 N1052 1.356 . S
C1055 C1049 1.365 . S
C1055 C1050 1.376 1_455 S
C1055 N1053 1.358 . S
N1056 C1048 1.356 . S
N1056 H1062 0.984 . S
N1056 H1063 0.984 . S
N1057 C1050 1.356 . S
N1057 H1060 0.984 . S
N1057 H1061 0.985 . S
H1058 N1053 0.984 . S
H1059 N1053 0.985 . S
H1060 N1057 0.984 . S
H1061 N1057 0.985 . S
H1062 N1056 0.984 . S
H1063 N1056 0.984 . S
H1064 N1052 0.984 . S
H1065 N1052 0.985 . S
C1066 C1067 1.363 . S
C1066 C1072 1.379 . S
C1066 N1074 1.356 . S
C1067 C1066 1.363 . S
C1067 C1073 1.363 . S
C1068 C1069 1.363 . S
C1068 C1073 1.379 . S
C1068 N1075 1.356 . S
C1069 C1068 1.363 . S
C1069 C1072 1.363 . S
N1070 C1072 1.356 . S
N1070 H1082 0.984 . S
N1070 H1083 0.985 . S
N1071 C1073 1.356 . S
N1071 H1076 0.984 . S
N1071 H1077 0.985 . S
C1072 C1066 1.379 . S
C1072 C1069 1.363 . S
C1072 N1070 1.356 . S
C1073 C1067 1.363 . S
C1073 C1068 1.379 . S
C1073 N1071 1.356 . S
N1074 C1066 1.356 . S
N1074 H1080 0.984 . S
N1074 H1081 0.984 . S
N1075 C1068 1.356 . S
N1075 H1078 0.984 . S
N1075 H1079 0.985 . S
H1076 N1071 0.984 . S
H1077 N1071 0.985 . S
H1078 N1075 0.984 . S
H1079 N1075 0.985 . S
H1080 N1074 0.984 . S
H1081 N1074 0.984 . S
H1082 N1070 0.984 . S
H1083 N1070 0.985 . S
C1084 C1085 1.363 . S
C1084 C1090 1.379 1_655 S
C1084 N1092 1.356 . S
C1085 C1084 1.363 . S
C1085 C1091 1.363 . S
C1086 C1087 1.363 1_655 S
C1086 C1091 1.379 . S
C1086 N1093 1.356 . S
C1087 C1086 1.363 1_455 S
C1087 C1090 1.363 . S
N1088 C1090 1.356 . S
N1088 H1100 0.984 . S
N1088 H1101 0.985 . S
N1089 C1091 1.356 . S
N1089 H1094 0.984 . S
N1089 H1095 0.985 . S
C1090 C1084 1.379 1_455 S
C1090 C1087 1.363 . S
C1090 N1088 1.356 . S
C1091 C1085 1.363 . S
C1091 C1086 1.379 . S
C1091 N1089 1.356 . S
N1092 C1084 1.356 . S
N1092 H1098 0.984 . S
N1092 H1099 0.984 . S
N1093 C1086 1.356 . S
N1093 H1096 0.984 1_655 S
N1093 H1097 0.985 . S
H1094 N1089 0.984 . S
H1095 N1089 0.985 . S
H1096 N1093 0.984 1_455 S
H1097 N1093 0.985 . S
H1098 N1092 0.984 . S
H1099 N1092 0.984 . S
H1100 N1088 0.984 . S
H1101 N1088 0.985 . S
C1102 C1103 1.363 . S
C1102 C1108 1.379 . S
C1102 N1110 1.356 . S
C1103 C1102 1.363 . S
C1103 C1109 1.363 . S
C1104 C1105 1.363 . S
C1104 C1109 1.379 . S
C1104 N1111 1.356 . S
C1105 C1104 1.363 . S
C1105 C1108 1.363 . S
N1106 C1108 1.356 . S
N1106 H1118 0.984 . S
N1106 H1119 0.985 . S
N1107 C1109 1.356 . S
N1107 H1112 0.984 . S
N1107 H1113 0.985 . S
C1108 C1102 1.379 . S
C1108 C1105 1.363 . S
C1108 N1106 1.356 . S
C1109 C1103 1.363 . S
C1109 C1104 1.379 . S
C1109 N1107 1.356 . S
N1110 C1102 1.356 . S
N1110 H1116 0.984 . S
N1110 H1117 0.984 . S
N1111 C1104 1.356 . S
N1111 H1114 0.984 . S
N1111 H1115 0.985 . S
H1112 N1107 0.984 . S
H1113 N1107 0.985 . S
H1114 N1111 0.984 . S
H1115 N1111 0.985 . S
H1116 N1110 0.984 . S
H1117 N1110 0.984 . S
H1118 N1106 0.984 . S
H1119 N1106 0.985 . S
C1120 C1121 1.363 . S
C1120 C1126 1.379 . S
C1120 N1128 1.356 . S
C1121 C1120 1.363 . S
C1121 C1127 1.363 . S
C1122 C1123 1.363 . S
C1122 C1127 1.379 . S
C1122 N1129 1.356 . S
C1123 C1122 1.363 . S
C1123 C1126 1.363 . S
N1124 C1126 1.356 . S
N1124 H1136 0.984 . S
N1124 H1137 0.985 . S
N1125 C1127 1.356 . S
N1125 H1130 0.984 . S
N1125 H1131 0.985 . S
C1126 C1120 1.379 . S
C1126 C1123 1.363 . S
C1126 N1124 1.356 . S
C1127 C1121 1.363 . S
C1127 C1122 1.379 . S
C1127 N1125 1.356 . S
N1128 C1120 1.356 . S
N1128 H1134 0.984 . S
N1128 H1135 0.984 . S
N1129 C1122 1.356 . S
N1129 H1132 0.984 . S
N1129 H1133 0.985 . S
H1130 N1125 0.984 . S
H1131 N1125 0.985 . S
H1132 N1129 0.984 . S
H1133 N1129 0.985 . S
H1134 N1128 0.984 . S
H1135 N1128 0.984 . S
H1136 N1124 0.984 . S
H1137 N1124 0.985 . S
C1138 C1139 1.363 1_554 S
C1138 C1144 1.379 . S
C1138 N1146 1.356 1_554 S
C1139 C1138 1.363 1_556 S
C1139 C1145 1.363 . S
C1140 C1141 1.363 . S
C1140 C1145 1.379 1_554 S
C1140 N1147 1.356 . S
C1141 C1140 1.363 . S
C1141 C1144 1.363 . S
N1142 C1144 1.356 . S
N1142 H1154 0.984 . S
N1142 H1155 0.985 . S
N1143 C1145 1.356 . S
N1143 H1148 0.984 . S
N1143 H1149 0.985 . S
C1144 C1138 1.379 . S
C1144 C1141 1.363 . S
C1144 N1142 1.356 . S
C1145 C1139 1.363 . S
C1145 C1140 1.379 1_556 S
C1145 N1143 1.356 . S
N1146 C1138 1.356 1_556 S
N1146 H1152 0.984 1_556 S
N1146 H1153 0.984 . S
N1147 C1140 1.356 . S
N1147 H1150 0.984 . S
N1147 H1151 0.985 . S
H1148 N1143 0.984 . S
H1149 N1143 0.985 . S
H1150 N1147 0.984 . S
H1151 N1147 0.985 . S
H1152 N1146 0.984 1_554 S
H1153 N1146 0.984 . S
H1154 N1142 0.984 . S
H1155 N1142 0.985 . S
C1156 C1157 1.363 . S
C1156 C1162 1.379 . S
C1156 N1164 1.356 . S
C1157 C1156 1.363 . S
C1157 C1163 1.363 . S
C1158 C1159 1.363 . S
C1158 C1163 1.379 . S
C1158 N1165 1.356 . S
C1159 C1158 1.363 . S
C1159 C1162 1.363 . S
N1160 C1162 1.356 . S
N1160 H1172 0.984 . S
N1160 H1173 0.985 . S
N1161 C1163 1.356 . S
N1161 H1166 0.984 . S
N1161 H1167 0.985 . S
C1162 C1156 1.379 . S
C1162 C1159 1.363 . S
C1162 N1160 1.356 . S
C1163 C1157 1.363 . S
C1163 C1158 1.379 . S
C1163 N1161 1.356 . S
N1164 C1156 1.356 . S
N1164 H1170 0.984 . S
N1164 H1171 0.984 . S
N1165 C1158 1.356 . S
N1165 H1168 0.984 . S
N1165 H1169 0.985 . S
H1166 N1161 0.984 . S
H1167 N1161 0.985 . S
H1168 N1165 0.984 . S
H1169 N1165 0.985 . S
H1170 N1164 0.984 . S
H1171 N1164 0.984 . S
H1172 N1160 0.984 . S
H1173 N1160 0.985 . S
C1174 C1175 1.363 . S
C1174 C1180 1.379 . S
C1174 N1182 1.356 . S
C1175 C1174 1.363 . S
C1175 C1181 1.363 . S
C1176 C1177 1.363 . S
C1176 C1181 1.379 . S
C1176 N1183 1.356 . S
C1177 C1176 1.363 . S
C1177 C1180 1.363 . S
N1178 C1180 1.356 . S
N1178 H1190 0.984 . S
N1178 H1191 0.985 . S
N1179 C1181 1.356 . S
N1179 H1184 0.984 . S
N1179 H1185 0.985 . S
C1180 C1174 1.379 . S
C1180 C1177 1.363 . S
C1180 N1178 1.356 . S
C1181 C1175 1.363 . S
C1181 C1176 1.379 . S
C1181 N1179 1.356 . S
N1182 C1174 1.356 . S
N1182 H1188 0.984 . S
N1182 H1189 0.984 . S
N1183 C1176 1.356 . S
N1183 H1186 0.984 . S
N1183 H1187 0.985 . S
H1184 N1179 0.984 . S
H1185 N1179 0.985 . S
H1186 N1183 0.984 . S
H1187 N1183 0.985 . S
H1188 N1182 0.984 . S
H1189 N1182 0.984 . S
H1190 N1178 0.984 . S
H1191 N1178 0.985 . S
C1192 C1193 1.363 . S
C1192 C1198 1.379 . S
C1192 N1200 1.356 . S
C1193 C1192 1.363 . S
C1193 C1199 1.363 . S
C1194 C1195 1.363 . S
C1194 C1199 1.379 . S
C1194 N1201 1.356 . S
C1195 C1194 1.363 . S
C1195 C1198 1.363 . S
N1196 C1198 1.356 . S
N1196 H1208 0.984 . S
N1196 H1209 0.985 . S
N1197 C1199 1.356 . S
N1197 H1202 0.984 . S
N1197 H1203 0.985 . S
C1198 C1192 1.379 . S
C1198 C1195 1.363 . S
C1198 N1196 1.356 . S
C1199 C1193 1.363 . S
C1199 C1194 1.379 . S
C1199 N1197 1.356 . S
N1200 C1192 1.356 . S
N1200 H1206 0.984 . S
N1200 H1207 0.984 . S
N1201 C1194 1.356 . S
N1201 H1204 0.984 . S
N1201 H1205 0.985 . S
H1202 N1197 0.984 . S
H1203 N1197 0.985 . S
H1204 N1201 0.984 . S
H1205 N1201 0.985 . S
H1206 N1200 0.984 . S
H1207 N1200 0.984 . S
H1208 N1196 0.984 . S
H1209 N1196 0.985 . S
C1210 C1211 1.363 . S
C1210 C1216 1.379 . S
C1210 N1218 1.356 . S
C1211 C1210 1.363 . S
C1211 C1217 1.363 . S
C1212 C1213 1.363 . S
C1212 C1217 1.379 1_554 S
C1212 N1219 1.356 . S
C1213 C1212 1.363 . S
C1213 C1216 1.363 1_554 S
N1214 C1216 1.356 . S
N1214 H1226 0.984 . S
N1214 H1227 0.985 1_556 S
N1215 C1217 1.356 . S
N1215 H1220 0.984 . S
N1215 H1221 0.985 1_556 S
C1216 C1210 1.379 . S
C1216 C1213 1.363 1_556 S
C1216 N1214 1.356 . S
C1217 C1211 1.363 . S
C1217 C1212 1.379 1_556 S
C1217 N1215 1.356 . S
N1218 C1210 1.356 . S
N1218 H1224 0.984 . S
N1218 H1225 0.984 . S
N1219 C1212 1.356 . S
N1219 H1222 0.984 . S
N1219 H1223 0.985 . S
H1220 N1215 0.984 . S
H1221 N1215 0.985 1_554 S
H1222 N1219 0.984 . S
H1223 N1219 0.985 . S
H1224 N1218 0.984 . S
H1225 N1218 0.984 . S
H1226 N1214 0.984 . S
H1227 N1214 0.985 1_554 S
C1228 C1229 1.363 . S
C1228 C1234 1.379 . S
C1228 N1236 1.356 . S
C1229 C1228 1.363 . S
C1229 C1235 1.363 . S
C1230 C1231 1.363 . S
C1230 C1235 1.379 . S
C1230 N1237 1.356 . S
C1231 C1230 1.363 . S
C1231 C1234 1.363 . S
N1232 C1234 1.356 . S
N1232 H1244 0.984 . S
N1232 H1245 0.985 . S
N1233 C1235 1.356 . S
N1233 H1238 0.984 . S
N1233 H1239 0.985 . S
C1234 C1228 1.379 . S
C1234 C1231 1.363 . S
C1234 N1232 1.356 . S
C1235 C1229 1.363 . S
C1235 C1230 1.379 . S
C1235 N1233 1.356 . S
N1236 C1228 1.356 . S
N1236 H1242 0.984 . S
N1236 H1243 0.984 . S
N1237 C1230 1.356 . S
N1237 H1240 0.984 . S
N1237 H1241 0.985 . S
H1238 N1233 0.984 . S
H1239 N1233 0.985 . S
H1240 N1237 0.984 . S
H1241 N1237 0.985 . S
H1242 N1236 0.984 . S
H1243 N1236 0.984 . S
H1244 N1232 0.984 . S
H1245 N1232 0.985 . S
C1246 C1247 1.363 . S
C1246 C1252 1.379 . S
C1246 N1254 1.356 . S
C1247 C1246 1.363 . S
C1247 C1253 1.363 . S
C1248 C1249 1.363 . S
C1248 C1253 1.379 . S
C1248 N1255 1.356 . S
C1249 C1248 1.363 . S
C1249 C1252 1.363 . S
N1250 C1252 1.356 . S
N1250 H1262 0.984 . S
N1250 H1263 0.985 . S
N1251 C1253 1.356 . S
N1251 H1256 0.984 . S
N1251 H1257 0.985 . S
C1252 C1246 1.379 . S
C1252 C1249 1.363 . S
C1252 N1250 1.356 . S
C1253 C1247 1.363 . S
C1253 C1248 1.379 . S
C1253 N1251 1.356 . S
N1254 C1246 1.356 . S
N1254 H1260 0.984 . S
N1254 H1261 0.984 . S
N1255 C1248 1.356 . S
N1255 H1258 0.984 . S
N1255 H1259 0.985 . S
H1256 N1251 0.984 . S
H1257 N1251 0.985 . S
H1258 N1255 0.984 . S
H1259 N1255 0.985 . S
H1260 N1254 0.984 . S
H1261 N1254 0.984 . S
H1262 N1250 0.984 . S
H1263 N1250 0.985 . S
C545 C9 0.885 . S
C547 C515 0.975 . S
C563 C281 1.536 1_565 S
C565 C39 1.787 . S
C581 C417 1.084 . S
C583 C77 1.100 . S
C599 C111 1.460 . S
C601 C345 1.614 . S
C617 C379 1.550 . S
C619 C43 1.332 . S
C635 C73 1.357 . S
C637 C311 1.350 . S
C653 C107 1.622 . S
C655 C451 1.431 . S
C671 C5 1.135 . S
C673 C247 1.006 1_455 S
C689 C277 1.578 . S
C691 C145 1.370 . S
C707 C413 1.203 . S
C709 C179 1.065 . S
C725 C209 1.696 . S
C727 C349 1.493 . S
C743 C213 1.411 . S
C745 C447 1.572 . S
C761 C141 1.709 . S
C763 C383 1.468 . S
C779 C485 0.921 . S
C781 C243 1.019 . S
C797 C315 1.333 . S
C799 C175 1.533 . S
C815 C519 0.961 . S
C817 C481 1.073 . S
C833 C2 1.857 . S
C835 C54 1.859 . S
C851 C36 2.147 . S
C853 C101 2.171 . S
C869 C70 2.087 . S
C871 C104 2.105 . S
C887 C122 1.558 . S
C889 C33 1.568 . S
C905 C20 1.784 . S
C907 C190 1.784 . S
C923 C169 1.696 . S
C925 C135 1.695 . S
C941 C237 1.879 . S
C943 C67 1.880 . S
C959 C496 1.758 . S
C961 C88 1.757 . S
C977 C292 2.033 . S
C979 C240 2.016 . S
C995 C274 2.092 . S
C997 C308 2.097 . S
C1013 C339 2.113 . S
C1015 C342 2.068 . S
C1031 C360 1.799 . S
C1033 C271 1.824 . S
C1049 C428 1.721 . S
C1051 C258 1.721 . S
C1067 C407 1.619 . S
C1069 C373 1.616 . S
C1085 C305 1.612 . S
C1087 C475 1.609 . S
C1103 C530 1.678 . S
C1105 C326 1.679 . S
C1121 C156 1.986 . S
C1123 C478 1.981 . S
C1139 C138 2.328 . S
C1141 C172 2.324 . S
C1157 C203 1.923 . S
C1159 C206 1.910 . S
C1175 C509 1.451 . S
C1177 C224 1.440 . S
C1193 C394 2.014 . S
C1195 C512 1.996 . S
C1211 C410 2.037 . S
C1213 C376 2.036 . S
C1229 C441 2.065 . S
C1231 C444 2.019 . S
C1247 C543 1.806 . S
C1249 C462 1.781 . S
