# Generated by pormake.
# Topology vby, (6)-cn, num edge types: 1
# Building blocks:
#     Node 0, Type 0, BuildingBlock: KUMBOL_clean_sbu_1, # of connection points: 6
#     Node 1, Type 0, BuildingBlock: KUMBOL_clean_sbu_1, # of connection points: 6
#     Node 2, Type 0, BuildingBlock: KUMBOL_clean_sbu_1, # of connection points: 6
#     Node 3, Type 0, BuildingBlock: KUMBOL_clean_sbu_1, # of connection points: 6
#     Node 4, Type 0, BuildingBlock: KUMBOL_clean_sbu_1, # of connection points: 6
#     Node 5, Type 0, BuildingBlock: KUMBOL_clean_sbu_1, # of connection points: 6
#     Node 6, Type 0, BuildingBlock: KUMBOL_clean_sbu_1, # of connection points: 6
#     Node 7, Type 0, BuildingBlock: KUMBOL_clean_sbu_1, # of connection points: 6
#     Edge 8, Type (0, 0), BuildingBlock: TEMPAE_clean_linker_10, # of connection points: 2
#     Edge 9, Type (0, 0), BuildingBlock: TEMPAE_clean_linker_10, # of connection points: 2
#     Edge 10, Type (0, 0), BuildingBlock: TEMPAE_clean_linker_10, # of connection points: 2
#     Edge 11, Type (0, 0), BuildingBlock: TEMPAE_clean_linker_10, # of connection points: 2
#     Edge 12, Type (0, 0), BuildingBlock: TEMPAE_clean_linker_10, # of connection points: 2
#     Edge 13, Type (0, 0), BuildingBlock: TEMPAE_clean_linker_10, # of connection points: 2
#     Edge 14, Type (0, 0), BuildingBlock: TEMPAE_clean_linker_10, # of connection points: 2
#     Edge 15, Type (0, 0), BuildingBlock: TEMPAE_clean_linker_10, # of connection points: 2
#     Edge 16, Type (0, 0), BuildingBlock: TEMPAE_clean_linker_10, # of connection points: 2
#     Edge 17, Type (0, 0), BuildingBlock: TEMPAE_clean_linker_10, # of connection points: 2
#     Edge 18, Type (0, 0), BuildingBlock: TEMPAE_clean_linker_10, # of connection points: 2
#     Edge 19, Type (0, 0), BuildingBlock: TEMPAE_clean_linker_10, # of connection points: 2
#     Edge 20, Type (0, 0), BuildingBlock: TEMPAE_clean_linker_10, # of connection points: 2
#     Edge 21, Type (0, 0), BuildingBlock: TEMPAE_clean_linker_10, # of connection points: 2
#     Edge 22, Type (0, 0), BuildingBlock: TEMPAE_clean_linker_10, # of connection points: 2
#     Edge 23, Type (0, 0), BuildingBlock: TEMPAE_clean_linker_10, # of connection points: 2
#     Edge 24, Type (0, 0), BuildingBlock: TEMPAE_clean_linker_10, # of connection points: 2
#     Edge 25, Type (0, 0), BuildingBlock: TEMPAE_clean_linker_10, # of connection points: 2
#     Edge 26, Type (0, 0), BuildingBlock: TEMPAE_clean_linker_10, # of connection points: 2
#     Edge 27, Type (0, 0), BuildingBlock: TEMPAE_clean_linker_10, # of connection points: 2
#     Edge 28, Type (0, 0), BuildingBlock: TEMPAE_clean_linker_10, # of connection points: 2
#     Edge 29, Type (0, 0), BuildingBlock: TEMPAE_clean_linker_10, # of connection points: 2
#     Edge 30, Type (0, 0), BuildingBlock: TEMPAE_clean_linker_10, # of connection points: 2
#     Edge 31, Type (0, 0), BuildingBlock: TEMPAE_clean_linker_10, # of connection points: 2
# Relax obj value: 0.083
# Max RMSD: 0.155
# Mean RMSD: 0.155
data_MOF--net-vby--node1-KUMBOL_clean_sbu_1--edge1-TEMPAE_clean_linker_10
_symmetry_space_group_name_H-M    P1
_symmetry_Int_Tables_number       1
_symmetry_cell_setting            triclinic
loop_
_symmetry_equiv_pos_as_xyz
'x, y, z'
_cell_length_a     15.470556
_cell_length_b     100.00133
_cell_length_c     30.070986
_cell_angle_alpha  113.96861
_cell_angle_beta   90.039625
_cell_angle_gamma 90.037275
loop_
_atom_site_label
_atom_site_type_symbol
_atom_site_fract_x
_atom_site_fract_y
_atom_site_fract_z
_atom_type_partial_charge
C0 C 0.26024 0.41328 0.09059 0.0
C1 C 0.36075 0.41805 0.03648 0.0
C2 C 0.28079 0.41272 0.04472 0.0
C3 C 0.42171 0.4233 0.0742 0.0
C4 C 0.3206 0.41903 0.12892 0.0
C5 C 0.40214 0.42362 0.1201 0.0
N6 N 0.17965 0.4092 0.09856 0.0
C7 C 0.15251 0.41244 0.1451 0.0
C8 C 0.29583 0.42067 0.17561 0.0
C9 C 0.2108 0.41766 0.1839 0.0
Gd10 Gd 0.08742 0.35653 0.98522 0.0
Gd11 Gd 0.08997 0.4002 0.02923 0.0
N12 N 0.22186 0.40718 0.00822 0.0
C13 C 0.37649 0.41816 0.99072 0.0
C14 C 0.23476 0.40788 0.96426 0.0
C15 C 0.31281 0.41321 0.95463 0.0
H16 H 0.18506 0.40406 0.93657 0.0
H17 H 0.32389 0.41345 0.91945 0.0
H18 H 0.04146 0.35301 0.08917 0.0
H19 H 0.08551 0.41144 0.15311 0.0
H20 H 0.9224 0.34384 0.12337 0.0
H21 H 0.4372 0.4222 0.98306 0.0
H22 H 0.48351 0.42745 0.06854 0.0
H23 H 0.04877 0.3448 0.86508 0.0
H24 H 0.34044 0.425 0.20595 0.0
H25 H 0.18943 0.41975 0.22041 0.0
H26 H 0.73257 0.3204 0.98749 0.0
H27 H 0.44942 0.42798 0.14906 0.0
H28 H 0.81398 0.32022 0.83355 0.0
H29 H 0.93756 0.33071 0.80635 0.0
N30 N 0.98543 0.3435 0.92601 0.0
C31 C 0.92059 0.33721 0.94134 0.0
C32 C 0.99358 0.34087 0.87799 0.0
C33 C 0.8621 0.32663 0.85975 0.0
C34 C 0.9314 0.33261 0.84431 0.0
C35 C 0.85648 0.32875 0.90865 0.0
H36 H 0.73847 0.31636 0.90125 0.0
N37 N 0.98096 0.34745 0.02081 0.0
C38 C 0.91737 0.33949 0.99022 0.0
C39 C 0.85043 0.33537 0.05618 0.0
C40 C 0.84989 0.33334 0.00727 0.0
C41 C 0.9853 0.34846 0.06731 0.0
C42 C 0.9192 0.34279 0.08614 0.0
O43 O 0.20707 0.38584 0.99296 0.0
O44 O 0.20721 0.36877 0.02436 0.0
O45 O 0.12464 0.33686 0.99525 0.0
O46 O 0.17389 0.34075 0.93314 0.0
O47 O 0.03872 0.38647 0.95483 0.0
O48 O 0.11925 0.36531 0.92792 0.0
O49 O 0.95473 0.36702 0.98537 0.0
O50 O 0.95472 0.39203 0.03527 0.0
O51 O 0.0432 0.41397 0.99396 0.0
O52 O 0.06252 0.4232 0.0719 0.0
O53 O 0.11632 0.37095 0.064 0.0
O54 O 0.0354 0.39181 0.08287 0.0
C55 C 0.25006 0.37755 0.0098 0.0
C56 C 0.07762 0.37564 0.91983 0.0
C57 C 0.21999 0.31814 0.93914 0.0
C58 C 0.26262 0.29558 0.94684 0.0
C59 C 0.32543 0.30181 0.88371 0.0
C60 C 0.27638 0.31458 0.89941 0.0
C61 C 0.31913 0.29243 0.90739 0.0
C62 C 0.21227 0.30845 0.96256 0.0
C63 C 0.17161 0.3321 0.95604 0.0
C64 C 0.78513 0.32514 0.97494 0.0
C65 C 0.78865 0.3228 0.92577 0.0
H66 H 0.79967 0.33084 0.07069 0.0
C67 C 0.91394 0.37951 0.01046 0.0
C68 C 0.06681 0.38137 0.09413 0.0
C69 C 0.97811 0.43693 0.03956 0.0
C70 C 0.94281 0.46047 0.03747 0.0
C71 C 0.83383 0.44677 0.06016 0.0
C72 C 0.89361 0.4357 0.05399 0.0
C73 C 0.85811 0.45908 0.05211 0.0
C74 C 1.0025 0.44923 0.03105 0.0
C75 C 0.04322 0.42577 0.03402 0.0
H76 H 0.36891 0.29921 0.85316 0.0
H77 H 0.28332 0.32174 0.8806 0.0
H78 H 0.35805 0.28258 0.89458 0.0
H79 H 0.1688 0.31097 0.99316 0.0
H80 H 0.76843 0.44583 0.07129 0.0
H81 H 0.8742 0.42626 0.06062 0.0
H82 H 0.81032 0.46746 0.05686 0.0
H83 H 0.06843 0.45018 0.02039 0.0
C84 C 0.08721 0.6748 0.11451 0.0
C85 C 0.20403 0.67966 0.0687 0.0
C86 C 0.12439 0.67295 0.0699 0.0
C87 C 0.24599 0.68821 0.11246 0.0
C88 C 0.12835 0.68381 0.15843 0.0
C89 C 0.20834 0.69027 0.1571 0.0
N90 N 1.00895 0.66858 0.11511 0.0
C91 C 0.96497 0.67214 0.15788 0.0
C92 C 0.08642 0.68653 0.20252 0.0
C93 C 1.00376 0.68091 0.20219 0.0
Gd94 Gd 0.94627 0.61022 0.98463 0.0
Gd95 Gd 0.95095 0.65503 0.03782 0.0
N96 N 0.08351 0.66443 0.02768 0.0
C97 C 0.23943 0.67753 0.02343 0.0
C98 C 0.11566 0.66283 0.98359 0.0
C99 C 0.19475 0.66916 0.98074 0.0
H100 H 0.08021 0.65671 0.95081 0.0
H101 H 0.22086 0.66769 0.94568 0.0
H102 H 0.82713 0.60006 0.05706 0.0
H103 H 0.89947 0.66839 0.15805 0.0
H104 H 0.67966 0.59073 0.05933 0.0
H105 H 0.30077 0.68243 0.02107 0.0
H106 H 0.30746 0.69337 0.11218 0.0
H107 H 0.98327 0.59995 0.86307 0.0
H108 H 0.11598 0.69341 0.23694 0.0
H109 H 0.96952 0.68343 0.23602 0.0
H110 H 0.55269 0.58643 0.90841 0.0
H111 H 0.24098 0.69713 0.19052 0.0
H112 H 0.73898 0.59228 0.79122 0.0
H113 H 0.89757 0.59504 0.78922 0.0
N114 N 0.87359 0.60331 0.90927 0.0
C115 C 0.78827 0.60011 0.90982 0.0
C116 C 0.91376 0.60016 0.86562 0.0
C117 C 0.77611 0.59526 0.82444 0.0
C118 C 0.8655 0.59684 0.82316 0.0
C119 C 0.73707 0.59612 0.86748 0.0
H120 H 0.61015 0.58902 0.83629 0.0
N121 N 0.80683 0.60203 0.99014 0.0
C122 C 0.75464 0.59899 0.95095 0.0
C123 C 0.6424 0.59102 0.99059 0.0
C124 C 0.67011 0.5937 0.9506 0.0
C125 C 0.78263 0.59847 0.02767 0.0
C126 C 0.69957 0.59314 0.02888 0.0
O127 O 0.08364 0.64393 0.03018 0.0
O128 O 0.08461 0.61835 0.98989 0.0
O129 O 0.98133 0.59527 0.01768 0.0
O130 O 0.97859 0.58755 0.93957 0.0
O131 O 0.92672 0.64077 0.95909 0.0
O132 O 1.00976 0.62033 0.93724 0.0
O133 O 0.83009 0.62407 0.02507 0.0
O134 O 0.82749 0.64325 0.00263 0.0
O135 O 0.93241 0.67196 0.01055 0.0
O136 O 0.86252 0.67307 0.07427 0.0
O137 O 0.98794 0.62252 0.06277 0.0
O138 O 0.91639 0.6449 0.0908 0.0
C139 C 0.12418 0.63114 0.01162 0.0
C140 C 0.98295 0.63173 0.92974 0.0
C141 C 0.05678 0.57342 0.97298 0.0
C142 C 0.09618 0.55051 0.97871 0.0
C143 C 0.20452 0.56488 0.95853 0.0
C144 C 0.14231 0.57533 0.9616 0.0
C145 C 0.18183 0.55256 0.96692 0.0
C146 C 0.03386 0.56107 0.98155 0.0
C147 C 0.98959 0.58409 0.97639 0.0
C148 C 0.61758 0.59059 0.90956 0.0
C149 C 0.65054 0.59201 0.86834 0.0
H150 H 0.57795 0.58692 0.99162 0.0
C151 C 0.78657 0.63355 0.01368 0.0
C152 C 0.95825 0.63444 0.0981 0.0
C153 C 0.89817 0.69562 0.06939 0.0
C154 C 0.88186 0.72019 0.07126 0.0
C155 C 0.95608 0.71676 0.13703 0.0
C156 C 0.94107 0.70176 0.11437 0.0
C157 C 0.92654 0.72593 0.11581 0.0
C158 C 0.86934 0.70492 0.04752 0.0
C159 C 0.88093 0.67969 0.04588 0.0
H160 H 0.27061 0.56631 0.9495 0.0
H161 H 0.16072 0.58483 0.95508 0.0
H162 H 0.23127 0.54456 0.96365 0.0
H163 H 0.96764 0.55981 0.99107 0.0
H164 H 0.98964 0.72132 0.1716 0.0
H165 H 0.9619 0.69512 0.13272 0.0
H166 H 0.93837 0.73758 0.13439 0.0
H167 H 0.83515 0.70036 0.01308 0.0
C168 C 0.23995 0.59469 0.43301 0.0
C169 C 0.34259 0.59503 0.49491 0.0
C170 C 0.26139 0.59884 0.4822 0.0
C171 C 0.40109 0.58692 0.45821 0.0
C172 C 0.29894 0.58655 0.39626 0.0
C173 C 0.37928 0.58267 0.40915 0.0
N174 N 0.16245 0.59879 0.42112 0.0
C175 C 0.13768 0.59443 0.37378 0.0
C176 C 0.27552 0.58256 0.34751 0.0
C177 C 0.19435 0.58645 0.33624 0.0
Gd178 Gd 0.06251 0.65465 0.53995 0.0
Gd179 Gd 0.07194 0.61068 0.48688 0.0
N180 N 0.20393 0.60681 0.51746 0.0
C181 C 0.36285 0.59949 0.54424 0.0
C182 C 0.22167 0.61049 0.56541 0.0
C183 C 0.3019 0.60716 0.57958 0.0
H184 H 0.1739 0.61556 0.59284 0.0
H185 H 0.31607 0.61027 0.61774 0.0
H186 H 0.94838 0.66601 0.46983 0.0
H187 H 0.07363 0.59683 0.36477 0.0
H188 H 0.80568 0.67749 0.47046 0.0
H189 H 0.42482 0.59685 0.55541 0.0
H190 H 0.46366 0.58389 0.46739 0.0
H191 H 0.12072 0.66763 0.65856 0.0
H192 H 0.31923 0.57634 0.3183 0.0
H193 H 0.175 0.58315 0.29866 0.0
H194 H 0.69027 0.68631 0.62854 0.0
H195 H 0.42543 0.57645 0.38137 0.0
H196 H 0.89145 0.6826 0.74428 0.0
H197 H 0.04805 0.67709 0.7388 0.0
N198 N 1.00422 0.66582 0.619 0.0
C199 C 0.92047 0.67008 0.62165 0.0
C200 C 0.05161 0.66935 0.66058 0.0
C201 C 0.92253 0.67801 0.70898 0.0
C202 C 1.01097 0.67495 0.70606 0.0
C203 C 0.87702 0.67622 0.66665 0.0
H204 H 0.75682 0.68582 0.70233 0.0
N205 N 0.92926 0.66532 0.53863 0.0
C206 C 0.88223 0.67013 0.58016 0.0
C207 C 0.77179 0.67885 0.54182 0.0
C208 C 0.80079 0.67664 0.5825 0.0
C209 C 0.90566 0.66867 0.50065 0.0
C210 C 0.82575 0.67527 0.50126 0.0
O211 O 0.18669 0.62436 0.47895 0.0
O212 O 0.19085 0.64519 0.54908 0.0
O213 O 0.13389 0.6653 0.50102 0.0
O214 O 0.09289 0.67782 0.57478 0.0
O215 O 0.02569 0.62252 0.56359 0.0
O216 O 0.10589 0.64349 0.58883 0.0
O217 O 0.93598 0.64264 0.50803 0.0
O218 O 0.93672 0.61986 0.5114 0.0
O219 O 0.06986 0.59214 0.50699 0.0
O220 O 1.00916 0.5904 0.43987 0.0
O221 O 0.07628 0.64208 0.45798 0.0
O222 O 1.01682 0.61865 0.43257 0.0
C223 C 0.23132 0.63471 0.51344 0.0
C224 C 0.05829 0.6341 0.59853 0.0
C225 C 0.21019 0.68709 0.54638 0.0
C226 C 0.28429 0.70872 0.54643 0.0
C227 C 0.35793 0.69201 0.57463 0.0
C228 C 0.28436 0.68323 0.56503 0.0
C229 C 0.35799 0.70466 0.56561 0.0
C230 C 0.21001 0.69982 0.53717 0.0
C231 C 0.13185 0.67813 0.53703 0.0
C232 C 0.75394 0.68158 0.62622 0.0
C233 C 0.79188 0.68129 0.66825 0.0
H234 H 0.70981 0.68393 0.54223 0.0
C235 C 0.89538 0.63128 0.51015 0.0
C236 C 0.03904 0.63031 0.4251 0.0
C237 C 0.96001 0.5744 0.47549 0.0
C238 C 0.92227 0.55208 0.48589 0.0
C239 C 0.80962 0.56786 0.47743 0.0
C240 C 0.87197 0.57744 0.47367 0.0
C241 C 0.83444 0.5552 0.48305 0.0
C242 C 0.98503 0.56182 0.48245 0.0
C243 C 0.02687 0.58382 0.46846 0.0
H244 H 0.41512 0.68904 0.58928 0.0
H245 H 0.28505 0.67348 0.57238 0.0
H246 H 0.41578 0.71135 0.57412 0.0
H247 H 0.15253 0.70265 0.52221 0.0
H248 H 0.74174 0.57021 0.47569 0.0
H249 H 0.85147 0.58713 0.46887 0.0
H250 H 0.7849 0.54791 0.48577 0.0
H251 H 0.05309 0.55944 0.484 0.0
C252 C 0.1105 0.3375 0.40311 0.0
C253 C 0.21402 0.3299 0.44888 0.0
C254 C 0.14069 0.338 0.44714 0.0
C255 C 0.26028 0.32209 0.40595 0.0
C256 C 0.15393 0.329 0.35952 0.0
C257 C 0.23058 0.32172 0.36138 0.0
N258 N 0.03302 0.34378 0.40241 0.0
C259 C 0.99196 0.34087 0.35933 0.0
C260 C 0.11604 0.32731 0.31525 0.0
C261 C 0.03382 0.33305 0.31514 0.0
Gd262 Gd 0.96723 0.40143 0.53998 0.0
Gd263 Gd 0.96757 0.35687 0.47828 0.0
N264 N 0.09424 0.34561 0.48795 0.0
C265 C 0.23658 0.32946 0.4934 0.0
C266 C 0.11411 0.34487 0.5311 0.0
C267 C 0.18606 0.33691 0.53464 0.0
H268 H 0.07387 0.35033 0.56257 0.0
H269 H 0.20221 0.33647 0.56904 0.0
H270 H 0.86878 0.40057 0.43835 0.0
H271 H 0.92563 0.34412 0.35913 0.0
H272 H 0.72757 0.40742 0.41634 0.0
H273 H 0.29205 0.32323 0.49617 0.0
H274 H 0.31751 0.31594 0.4066 0.0
H275 H 0.96028 0.40987 0.6602 0.0
H276 H 0.14738 0.3209 0.28095 0.0
H277 H 1.00159 0.33108 0.28108 0.0
H278 H 0.57638 0.42903 0.56824 0.0
H279 H 0.26516 0.31522 0.32831 0.0
H280 H 0.71513 0.42992 0.71184 0.0
H281 H 0.85723 0.42136 0.72763 0.0
N282 N 0.87578 0.41143 0.60667 0.0
C283 C 0.79914 0.41645 0.59719 0.0
C284 C 0.89774 0.41328 0.65273 0.0
C285 C 0.75995 0.42483 0.68204 0.0
C286 C 0.83993 0.41994 0.69108 0.0
C287 C 0.73865 0.42312 0.63472 0.0
H288 H 0.61124 0.4328 0.65223 0.0
N289 N 0.83726 0.4073 0.51303 0.0
C290 C 0.77927 0.41429 0.54923 0.0
C291 C 0.67948 0.41601 0.48991 0.0
C292 C 0.69839 0.41871 0.53837 0.0
C293 C 0.82065 0.40517 0.46613 0.0
C294 C 0.74106 0.4093 0.45373 0.0
O295 O 0.10313 0.36711 0.49516 0.0
O296 O 0.1035 0.3926 0.52282 0.0
O297 O 0.98647 0.42014 0.52078 0.0
O298 O 0.02617 0.42129 0.59234 0.0
O299 O 0.94748 0.37002 0.55917 0.0
O300 O 0.02788 0.39117 0.58659 0.0
O301 O 0.8491 0.38793 0.54337 0.0
O302 O 0.84632 0.3683 0.47013 0.0
O303 O 0.91268 0.34391 0.51534 0.0
O304 O 0.89428 0.33711 0.43841 0.0
O305 O 1.00828 0.39024 0.46179 0.0
O306 O 0.93395 0.36836 0.42893 0.0
C307 C 0.14341 0.37986 0.50837 0.0
C308 C 1.00186 0.37917 0.59064 0.0
C309 C 0.05148 0.44313 0.57724 0.0
C310 C 0.05632 0.46622 0.56718 0.0
C311 C 0.14599 0.46284 0.62807 0.0
C312 C 0.11283 0.44878 0.61473 0.0
C313 C 0.11826 0.47148 0.60439 0.0
C314 C 1.02265 0.45197 0.55349 0.0
C315 C 1.02008 0.42798 0.56319 0.0
C316 C 0.6386 0.42549 0.57592 0.0
C317 C 0.65859 0.42768 0.62384 0.0
H318 H 0.61778 0.41917 0.4801 0.0
C319 C 0.80542 0.3783 0.50673 0.0
C320 C 0.97632 0.37918 0.42436 0.0
C321 C 0.91415 0.31829 0.46557 0.0
C322 C 0.89345 0.29504 0.47305 0.0
C323 C 1.00789 0.29751 0.42191 0.0
C324 C 0.98251 0.31185 0.43312 0.0
C325 C 0.96351 0.28912 0.44157 0.0
C326 C 0.86958 0.30978 0.48594 0.0
C327 C 0.88682 0.33343 0.47499 0.0
H328 H 0.19358 0.46704 0.65685 0.0
H329 H 0.13612 0.44225 0.63348 0.0
H330 H 0.14471 0.4824 0.61541 0.0
H331 H 0.97489 0.44783 0.52467 0.0
H332 H 0.06082 0.29277 0.39691 0.0
H333 H 1.01489 0.3177 0.41499 0.0
H334 H 0.98294 0.27785 0.43152 0.0
H335 H 0.81531 0.31439 0.5101 0.0
C336 C 0.75108 0.91666 0.07005 0.0
C337 C 0.82754 0.91732 0.00046 0.0
C338 C 0.75428 0.91337 0.02029 0.0
C339 C 0.8972 0.92442 0.03086 0.0
C340 C 0.82029 0.92402 0.10075 0.0
C341 C 0.89329 0.92786 0.08086 0.0
N342 N 0.68149 0.91223 0.08816 0.0
C343 C 0.67477 0.91532 0.13652 0.0
C344 C 0.81473 0.92703 0.15042 0.0
C345 C 0.74156 0.92268 0.16838 0.0
Gd346 Gd 0.56374 0.85787 0.98153 0.0
Gd347 Gd 0.56973 0.9018 0.03335 0.0
N348 N 0.6854 0.90662 0.9916 0.0
C349 C 0.82783 0.91435 0.95079 0.0
C350 C 0.68224 0.9051 0.94443 0.0
C351 C 0.75422 0.90844 0.92286 0.0
H352 H 0.6234 0.90208 0.92383 0.0
H353 H 0.75184 0.90689 0.88509 0.0
H354 H 0.43978 0.84718 0.05055 0.0
H355 H 0.61745 0.91232 0.15062 0.0
H356 H 0.29605 0.8356 0.0461 0.0
H357 H 0.8831 0.91714 0.93415 0.0
H358 H 0.95401 0.92749 0.01615 0.0
H359 H 0.63021 0.84488 0.86449 0.0
H360 H 0.86663 0.93266 0.17516 0.0
H361 H 0.73636 0.92507 0.20676 0.0
H362 H 0.19419 0.82659 0.88522 0.0
H363 H 0.94745 0.93341 0.1038 0.0
H364 H 0.40642 0.82966 0.77374 0.0
H365 H 0.56315 0.83512 0.78264 0.0
N366 N 0.51083 0.84651 0.90139 0.0
C367 C 0.42669 0.84237 0.897 0.0
C368 C 0.56124 0.84296 0.8609 0.0
C369 C 0.43516 0.83428 0.8097 0.0
C370 C 0.52371 0.83728 0.81454 0.0
C371 C 0.38625 0.83621 0.85106 0.0
H372 H 0.26759 0.82677 0.8128 0.0
N373 N 0.42849 0.84741 0.98052 0.0
C374 C 0.38461 0.84253 0.93782 0.0
C375 C 0.26895 0.8341 0.9738 0.0
C376 C 0.3022 0.83617 0.9337 0.0
C377 C 0.40055 0.8442 0.01815 0.0
C378 C 0.31967 0.83767 0.01563 0.0
O379 O 0.68772 0.88869 0.04098 0.0
O380 O 0.69151 0.86748 0.97177 0.0
O381 O 0.63003 0.84724 0.02215 0.0
O382 O 0.59684 0.83482 0.94699 0.0
O383 O 0.52178 0.88945 0.95697 0.0
O384 O 0.60737 0.86919 0.93361 0.0
O385 O 0.43771 0.86996 0.01428 0.0
O386 O 0.43811 0.89166 0.0041 0.0
O387 O 0.55094 0.92189 0.02243 0.0
O388 O 0.50422 0.92033 0.0889 0.0
O389 O 0.58665 0.8709 0.06219 0.0
O390 O 0.51914 0.89348 0.08806 0.0
C391 C 0.73209 0.87833 0.00639 0.0
C392 C 0.55703 0.87799 0.92275 0.0
C393 C 0.71257 0.82618 0.97842 0.0
C394 C 0.78996 0.8052 0.98069 0.0
C395 C 0.86304 0.82247 0.9549 0.0
C396 C 0.78736 0.83065 0.96208 0.0
C397 C 0.86448 0.80984 0.96401 0.0
C398 C 0.71374 0.81348 0.98761 0.0
C399 C 0.63236 0.83453 0.98565 0.0
C400 C 0.25852 0.83121 0.8889 0.0
C401 C 0.30036 0.83131 0.84764 0.0
H402 H 0.20606 0.82914 0.97203 0.0
C403 C 0.3965 0.88083 0.0092 0.0
C404 C 0.54359 0.88184 0.09505 0.0
C405 C 0.48167 0.94367 0.08237 0.0
C406 C 0.47128 0.96743 0.07676 0.0
C407 C 0.39968 0.96346 0.14245 0.0
C408 C 0.43015 0.94914 0.12434 0.0
C409 C 0.41996 0.97253 0.119 0.0
C410 C 0.50279 0.95292 0.05869 0.0
C411 C 0.51373 0.92844 0.06451 0.0
H412 H 0.92078 0.82592 0.94213 0.0
H413 H 0.78696 0.8404 0.95477 0.0
H414 H 0.92391 0.80363 0.9576 0.0
H415 H 0.65573 0.8102 0.00081 0.0
H416 H 0.36027 0.96757 0.17496 0.0
H417 H 0.41331 0.94233 0.14335 0.0
H418 H 0.39622 0.98368 0.13443 0.0
H419 H 0.54277 0.94886 0.02632 0.0
C420 C 0.6124 0.17094 0.10537 0.0
C421 C 0.72345 0.17289 0.05085 0.0
C422 C 0.641 0.16815 0.05816 0.0
C423 C 0.77661 0.1805 0.0911 0.0
C424 C 0.666 0.17857 0.14569 0.0
C425 C 0.74802 0.18332 0.13828 0.0
N426 N 0.53335 0.16595 0.11174 0.0
C427 C 0.50228 0.16889 0.15725 0.0
C428 C 0.63583 0.18115 0.19239 0.0
C429 C 0.55348 0.17636 0.19818 0.0
Gd430 Gd 0.45042 0.10985 0.98573 0.0
Gd431 Gd 0.45526 0.15408 0.03995 0.0
N432 N 0.5899 0.16024 0.01937 0.0
C433 C 0.75057 0.16968 0.00315 0.0
C434 C 0.61422 0.15764 0.97308 0.0
C435 C 0.69543 0.16212 0.96416 0.0
H436 H 0.57076 0.15237 0.94316 0.0
H437 H 0.7151 0.15988 0.92728 0.0
H438 H 0.34743 0.1058 0.07524 0.0
H439 H 0.43742 0.16579 0.16236 0.0
H440 H 0.21832 0.09269 0.08586 0.0
H441 H 0.8136 0.17311 0.99605 0.0
H442 H 0.84038 0.18415 0.0861 0.0
H443 H 0.47512 0.09879 0.86334 0.0
H444 H 0.67528 0.18695 0.22424 0.0
H445 H 0.52906 0.17854 0.2342 0.0
H446 H 0.08949 0.07199 0.92659 0.0
H447 H 0.79016 0.18915 0.16886 0.0
H448 H 0.24504 0.07619 0.79518 0.0
H449 H 0.38842 0.08632 0.78956 0.0
N450 N 0.37685 0.09782 0.91167 0.0
C451 C 0.30016 0.09165 0.91534 0.0
C452 C 0.41034 0.09541 0.86701 0.0
C453 C 0.28144 0.08221 0.82809 0.0
C454 C 0.36222 0.08795 0.82477 0.0
C455 C 0.25054 0.08366 0.87357 0.0
H456 H 0.13423 0.0708 0.84658 0.0
N457 N 0.32188 0.10045 0.00057 0.0
C458 C 0.27344 0.09256 0.96074 0.0
C459 C 0.17854 0.08533 0.01083 0.0
C460 C 0.19867 0.08518 0.96517 0.0
C461 C 0.30484 0.10023 0.04477 0.0
C462 C 0.23256 0.09272 0.05066 0.0
O463 O 0.57698 0.14127 0.04288 0.0
O464 O 0.57938 0.11907 0.97643 0.0
O465 O 0.50301 0.09759 0.02497 0.0
O466 O 0.49271 0.08737 0.94621 0.0
O467 O 0.41855 0.14087 0.96141 0.0
O468 O 0.50008 0.11992 0.93579 0.0
O469 O 0.31827 0.12112 0.00253 0.0
O470 O 0.31708 0.14651 0.02954 0.0
O471 O 0.43562 0.17027 0.00968 0.0
O472 O 0.40412 0.17549 0.08508 0.0
O473 O 0.48192 0.12355 0.06435 0.0
O474 O 0.39921 0.14443 0.08998 0.0
C475 C 0.61955 0.13035 0.00948 0.0
C476 C 0.46292 0.13053 0.92769 0.0
C477 C 0.57672 0.07502 0.98414 0.0
C478 C 0.61418 0.0521 0.98991 0.0
C479 C 0.72502 0.06664 0.97301 0.0
C480 C 0.66326 0.07704 0.97482 0.0
C481 C 0.70071 0.05421 0.98044 0.0
C482 C 0.55224 0.06257 0.99181 0.0
C483 C 0.51004 0.08557 0.98577 0.0
C484 C 0.14786 0.07759 0.92384 0.0
C485 C 0.17336 0.07693 0.87826 0.0
H486 H 0.12209 0.07963 0.01559 0.0
C487 C 0.27781 0.13378 0.01555 0.0
C488 C 0.43389 0.13347 0.0973 0.0
C489 C 0.32691 0.18798 0.04578 0.0
C490 C 0.2633 0.20895 0.03591 0.0
C491 C 0.17165 0.19165 0.05186 0.0
C492 C 0.24412 0.1835 0.05306 0.0
C493 C 0.18112 0.20437 0.04379 0.0
C494 C 0.33627 0.20062 0.03646 0.0
C495 C 0.4041 0.17999 0.05003 0.0
H496 H 0.79196 0.0682 0.96583 0.0
H497 H 0.68279 0.08661 0.96895 0.0
H498 H 0.74942 0.04627 0.97902 0.0
H499 H 0.48518 0.06101 -0.00083 0.0
H500 H 0.10797 0.18817 0.05769 0.0
H501 H 0.23568 0.17384 0.06041 0.0
H502 H 0.12416 0.21061 0.04338 0.0
H503 H 0.4001 0.20416 0.03089 0.0
C504 C 0.75072 0.09763 0.45352 0.0
C505 C 0.82648 0.09816 0.52497 0.0
C506 C 0.75241 0.10128 0.50355 0.0
C507 C 0.89814 0.09147 0.49589 0.0
C508 C 0.8226 0.09086 0.42427 0.0
C509 C 0.8963 0.08785 0.44576 0.0
N510 N 0.67967 0.10103 0.43364 0.0
C511 C 0.6744 0.0975 0.38487 0.0
C512 C 0.81857 0.08745 0.37427 0.0
C513 C 0.74403 0.09075 0.3545 0.0
Gd514 Gd 0.55858 0.15544 0.54444 0.0
Gd515 Gd 0.56472 0.11086 0.48661 0.0
N516 N 0.68152 0.10758 0.531 0.0
C517 C 0.82565 0.1015 0.57487 0.0
C518 C 0.67777 0.10947 0.57849 0.0
C519 C 0.75041 0.10695 0.60157 0.0
H520 H 0.61825 0.11211 0.59823 0.0
H521 H 0.74737 0.10878 0.63957 0.0
H522 H 0.38437 0.16872 0.51158 0.0
H523 H 0.61624 0.09971 0.36922 0.0
H524 H 0.25388 0.18317 0.55023 0.0
H525 H 0.88152 0.09935 0.59269 0.0
H526 H 0.95494 0.08884 0.5118 0.0
H527 H 0.71429 0.16674 0.62881 0.0
H528 H 0.87257 0.08227 0.35065 0.0
H529 H 0.73998 0.08802 0.31584 0.0
H530 H 0.30861 0.19937 0.72147 0.0
H531 H 0.95229 0.0827 0.42391 0.0
H532 H 0.5977 0.19278 0.76615 0.0
H533 H 0.72751 0.18128 0.71757 0.0
N534 N 0.5784 0.16971 0.62778 0.0
C535 C 0.50764 0.17664 0.65321 0.0
C536 C 0.65748 0.17175 0.64976 0.0
C537 C 0.59161 0.18638 0.72732 0.0
C538 C 0.66514 0.17998 0.69997 0.0
C539 C 0.51193 0.18508 0.70379 0.0
H540 H 0.43966 0.19903 0.76753 0.0
N541 N 0.43655 0.16988 0.5783 0.0
C542 C 0.43382 0.17671 0.62747 0.0
C543 C 0.29505 0.18714 0.62307 0.0
C544 C 0.3624 0.18538 0.65138 0.0
C545 C 0.37636 0.17296 0.55065 0.0
C546 C 0.30323 0.18123 0.57243 0.0
O547 O 0.67457 0.12508 0.47727 0.0
O548 O 0.68255 0.14437 0.55058 0.0
O549 O 0.64954 0.16061 0.49855 0.0
O550 O 0.57473 0.17784 0.55252 0.0
O551 O 0.50731 0.12266 0.56138 0.0
O552 O 0.58854 0.1435 0.59221 0.0
O553 O 0.4252 0.14492 0.52248 0.0
O554 O 0.42675 0.11962 0.5011 0.0
O555 O 0.54761 0.09094 0.49963 0.0
O556 O 0.50879 0.09144 0.43039 0.0
O557 O 0.52438 0.14376 0.46467 0.0
O558 O 0.5202 0.11817 0.42906 0.0
C559 C 0.72154 0.13438 0.51319 0.0
C560 C 0.53463 0.13429 0.59853 0.0
C561 C 0.71026 0.18443 0.53344 0.0
C562 C 0.77996 0.20704 0.53941 0.0
C563 C 0.85325 0.19059 0.56868 0.0
C564 C 0.78276 0.18109 0.55494 0.0
C565 C 0.85207 0.20345 0.56098 0.0
C566 C 0.70856 0.19746 0.52607 0.0
C567 C 0.63497 0.17466 0.51979 0.0
C568 C 0.36343 0.19282 0.70232 0.0
C569 C 0.43814 0.19265 0.72854 0.0
H570 H 0.23905 0.19375 0.63996 0.0
C571 C 0.3859 0.13215 0.5107 0.0
C572 C 0.51288 0.13107 0.42723 0.0
C573 C 0.48789 0.06825 0.43776 0.0
C574 C 0.47218 0.04483 0.4455 0.0
C575 C 0.4222 0.04737 0.37259 0.0
C576 C 0.44885 0.06192 0.39167 0.0
C577 C 0.43364 0.0389 0.39914 0.0
C578 C 0.50028 0.05958 0.46464 0.0
C579 C 0.51632 0.08374 0.45623 0.0
H580 H 0.90909 0.18798 0.58534 0.0
H581 H 0.78479 0.17116 0.56115 0.0
H582 H 0.90757 0.21067 0.57222 0.0
H583 H 0.65244 0.2 0.50929 0.0
H584 H 0.39253 0.04262 0.33693 0.0
H585 H 0.43895 0.06821 0.37006 0.0
H586 H 0.41285 0.02758 0.38309 0.0
H587 H 0.53046 0.06428 0.50023 0.0
C588 C 0.60801 0.84167 0.40169 0.0
C589 C 0.71804 0.83369 0.44303 0.0
C590 C 0.64088 0.84126 0.44396 0.0
C591 C 0.76568 0.82763 0.39965 0.0
C592 C 0.65301 0.83485 0.35741 0.0
C593 C 0.73347 0.82828 0.35697 0.0
N594 N 0.52796 0.84738 0.40302 0.0
C595 C 0.48608 0.84538 0.36075 0.0
C596 C 0.61367 0.83412 0.31453 0.0
C597 C 0.52915 0.83919 0.31613 0.0
Gd598 Gd 0.46331 0.90291 0.53915 0.0
Gd599 Gd 0.46315 0.85836 0.48031 0.0
N600 N 0.59297 0.84712 0.48517 0.0
C601 C 0.74253 0.83182 0.48502 0.0
C602 C 0.61368 0.84468 0.5254 0.0
C603 C 0.68926 0.83711 0.52612 0.0
H604 H 0.57221 0.84879 0.557 0.0
H605 H 0.70662 0.83545 0.55837 0.0
H606 H 0.38233 0.90254 0.43365 0.0
H607 H 0.41927 0.84859 0.36133 0.0
H608 H 0.24643 0.90906 0.40537 0.0
H609 H 0.80112 0.82598 0.48567 0.0
H610 H 0.82589 0.82195 0.39832 0.0
H611 H 0.43841 0.91154 0.65827 0.0
H612 H 0.64628 0.82904 0.27979 0.0
H613 H 0.49662 0.83809 0.28294 0.0
H614 H 0.07526 0.93063 0.55004 0.0
H615 H 0.76938 0.82309 0.32337 0.0
H616 H 0.19207 0.93231 0.6998 0.0
H617 H 0.32865 0.92355 0.72152 0.0
N618 N 0.36298 0.913 0.60133 0.0
C619 C 0.2897 0.91812 0.58862 0.0
C620 C 0.37827 0.91504 0.6483 0.0
C621 C 0.2399 0.92701 0.67188 0.0
C622 C 0.31668 0.92199 0.68426 0.0
C623 C 0.22556 0.92509 0.62363 0.0
H624 H 0.09842 0.93497 0.63568 0.0
N625 N 0.33898 0.90861 0.50628 0.0
C626 C 0.27677 0.91566 0.5398 0.0
C627 C 0.18752 0.91739 0.47638 0.0
C628 C 0.19904 0.92011 0.5255 0.0
C629 C 0.33009 0.90671 0.45899 0.0
C630 C 0.25366 0.91079 0.44312 0.0
O631 O 0.59488 0.86937 0.50782 0.0
O632 O 0.59496 0.89298 0.51067 0.0
O633 O 0.48136 0.92298 0.52751 0.0
O634 O 0.52917 0.92151 0.59398 0.0
O635 O 0.44009 0.87127 0.56088 0.0
O636 O 0.5184 0.89279 0.58795 0.0
O637 O 0.34397 0.88978 0.54456 0.0
O638 O 0.33956 0.86943 0.47298 0.0
O639 O 0.40728 0.84518 0.51628 0.0
O640 O 0.39759 0.83789 0.43873 0.0
O641 O 0.50631 0.89174 0.46119 0.0
O642 O 0.42353 0.87103 0.43602 0.0
C643 C 0.63568 0.88116 0.50891 0.0
C644 C 0.49105 0.88099 0.59311 0.0
C645 C 0.55219 0.94482 0.58735 0.0
C646 C 0.55941 0.96902 0.58457 0.0
C647 C 0.63486 0.96443 0.64801 0.0
C648 C 0.6047 0.95008 0.62904 0.0
C649 C 0.61255 0.97382 0.6261 0.0
C650 C 0.53003 0.95433 0.56475 0.0
C651 C 0.5194 0.92958 0.56943 0.0
C652 C 0.1353 0.92712 0.56045 0.0
C653 C 0.14861 0.92964 0.60931 0.0
H654 H 0.12846 0.92058 0.46394 0.0
C655 C 0.29941 0.87984 0.50895 0.0
C656 C 0.47504 0.87994 0.42643 0.0
C657 C 0.41827 0.81955 0.46805 0.0
C658 C 0.40103 0.79633 0.47627 0.0
C659 C 0.52082 0.7997 0.42987 0.0
C660 C 0.49176 0.81375 0.43913 0.0
C661 C 0.47563 0.79101 0.4481 0.0
C662 C 0.3729 0.81075 0.48702 0.0
C663 C 0.38721 0.83436 0.47546 0.0
H664 H 0.67559 0.96833 0.68005 0.0
H665 H 0.62265 0.94309 0.64718 0.0
H666 H 0.63747 0.9849 0.64166 0.0
H667 H 0.4886 0.9505 0.53292 0.0
H668 H 0.57759 0.79542 0.40759 0.0
H669 H 0.52572 0.8199 0.42242 0.0
H670 H 0.49828 0.77999 0.43968 0.0
H671 H 0.3151 0.8149 0.50857 0.0
C672 C 0.39344 0.38215 0.97797 0.0
C673 C 0.34738 0.37754 0.00951 0.0
C674 C 0.48469 0.38296 0.97876 0.0
C675 C 0.5326 0.37865 0.01102 0.0
C676 C 0.48652 0.37361 0.04211 0.0
C677 C 0.39498 0.37316 0.0411 0.0
C678 C 0.52988 0.38845 0.94497 0.0
C679 C 0.53412 0.36871 0.07664 0.0
C680 C 0.76955 0.36724 0.9789 0.0
C681 C 0.81625 0.37947 0.01055 0.0
C682 C 0.6783 0.36678 0.97897 0.0
C683 C 0.63061 0.37899 0.01111 0.0
C684 C 0.67706 0.39152 0.04268 0.0
C685 C 0.76865 0.39162 0.04206 0.0
C686 C 0.63315 0.35307 0.9447 0.0
C687 C 0.63007 0.40503 0.07646 0.0
H688 H 0.35797 0.38511 0.95228 0.0
H689 H 0.36058 0.36951 0.06553 0.0
H690 H 0.56675 0.39853 0.96662 0.0
H691 H 0.57693 0.38018 0.92184 0.0
H692 H 0.48392 0.39095 0.92099 0.0
H693 H 0.48949 0.36514 0.09862 0.0
H694 H 0.5779 0.3595 0.05585 0.0
H695 H 0.57491 0.37778 0.10166 0.0
H696 H 0.8042 0.35799 0.95324 0.0
H697 H 0.80292 0.40127 0.06646 0.0
H698 H 0.57896 0.35577 0.92563 0.0
H699 H 0.60557 0.34724 0.96591 0.0
H700 H 0.67782 0.34553 0.91695 0.0
H701 H 0.59927 0.41033 0.05453 0.0
H702 H 0.67422 0.41307 0.10322 0.0
H703 H 0.5781 0.40214 0.09643 0.0
C704 C 0.26712 0.64321 0.04646 0.0
C705 C 0.22142 0.63126 0.01261 0.0
C706 C 0.35835 0.64377 0.04691 0.0
C707 C 0.40657 0.63193 0.01318 0.0
C708 C 0.36084 0.61965 0.97962 0.0
C709 C 0.26942 0.61946 0.9797 0.0
C710 C 0.40287 0.65719 0.0833 0.0
C711 C 0.40848 0.60657 0.94392 0.0
C712 C 0.6413 0.63865 0.985 0.0
C713 C 0.6894 0.63347 0.01439 0.0
C714 C 0.54987 0.63819 0.98419 0.0
C715 C 0.50442 0.63237 0.01334 0.0
C716 C 0.55279 0.62724 0.04338 0.0
C717 C 0.64405 0.62803 0.04397 0.0
C718 C 0.50174 0.64392 0.95193 0.0
C719 C 0.50806 0.62093 0.0751 0.0
H720 H 0.23158 0.6521 0.07342 0.0
H721 H 0.23552 0.61007 0.95355 0.0
H722 H 0.45708 0.6541 0.10138 0.0
H723 H 0.43032 0.66361 0.06404 0.0
H724 H 0.35778 0.66432 0.11176 0.0
H725 H 0.36429 0.59839 0.91764 0.0
H726 H 0.45655 0.61004 0.92336 0.0
H727 H 0.44417 0.60121 0.96423 0.0
H728 H 0.67528 0.64292 0.96204 0.0
H729 H 0.68006 0.62441 0.06794 0.0
H730 H 0.45751 0.65286 0.97424 0.0
H731 H 0.46136 0.63509 0.92545 0.0
H732 H 0.54601 0.64815 0.93154 0.0
H733 H 0.46424 0.62922 0.10104 0.0
H734 H 0.55455 0.61728 0.09604 0.0
H735 H 0.46768 0.61144 0.05229 0.0
C736 C 0.74911 0.62224 0.52548 0.0
C737 C 0.79782 0.63111 0.5086 0.0
C738 C 0.65745 0.62261 0.52605 0.0
C739 C 0.61234 0.63218 0.50983 0.0
C740 C 0.66128 0.64093 0.49191 0.0
C741 C 0.75247 0.64009 0.49081 0.0
C742 C 0.60872 0.61275 0.54417 0.0
C743 C 0.61738 0.65137 0.47431 0.0
C744 C 0.37385 0.6251 0.47038 0.0
C745 C 0.32896 0.63441 0.51216 0.0
C746 C 0.46507 0.62406 0.46948 0.0
C747 C 0.51436 0.63292 0.51082 0.0
C748 C 0.4697 0.64277 0.55253 0.0
C749 C 0.37816 0.64328 0.5529 0.0
C750 C 0.50876 0.61337 0.42412 0.0
C751 C 0.51877 0.65284 0.5969 0.0
H752 H 0.78263 0.61509 0.53883 0.0
H753 H 0.78837 0.64639 0.47528 0.0
H754 H 0.56905 0.61943 0.57624 0.0
H755 H 0.56372 0.60566 0.51556 0.0
H756 H 0.65253 0.60568 0.5545 0.0
H757 H 0.6636 0.6565 0.45769 0.0
H758 H 0.56673 0.64562 0.44711 0.0
H759 H 0.58498 0.66016 0.50541 0.0
H760 H 0.33759 0.61854 0.43808 0.0
H761 H 0.34509 0.65062 0.58538 0.0
H762 H 0.54383 0.60501 0.43262 0.0
H763 H 0.55728 0.61908 0.41096 0.0
H764 H 0.46204 0.60771 0.39427 0.0
H765 H 0.55813 0.6463 0.61167 0.0
H766 H 0.47517 0.6601 0.62602 0.0
H767 H 0.56408 0.65975 0.58678 0.0
C768 C 0.66101 0.37281 0.46342 0.0
C769 C 0.70846 0.37881 0.50697 0.0
C770 C 0.56973 0.3735 0.46324 0.0
C771 C 0.52382 0.38016 0.50774 0.0
C772 C 0.57157 0.38621 0.55182 0.0
C773 C 0.66275 0.38552 0.55086 0.0
C774 C 0.52231 0.36715 0.41526 0.0
C775 C 0.52633 0.39326 0.60026 0.0
C776 C 0.28714 0.39207 0.50768 0.0
C777 C 0.24085 0.38004 0.50839 0.0
C778 C 0.37863 0.39225 0.50713 0.0
C779 C 0.42609 0.38025 0.50827 0.0
C780 C 0.37974 0.36823 0.50995 0.0
C781 C 0.28854 0.36828 0.5098 0.0
C782 C 0.42439 0.40538 0.50561 0.0
C783 C 0.42649 0.35523 0.51188 0.0
H784 H 0.69537 0.36771 0.42923 0.0
H785 H 0.69839 0.39008 0.58479 0.0
H786 H 0.48047 0.35798 0.41385 0.0
H787 H 0.4796 0.37558 0.4117 0.0
H788 H 0.56712 0.36305 0.38371 0.0
H789 H 0.57233 0.39688 0.63134 0.0
H790 H 0.48916 0.40291 0.60181 0.0
H791 H 0.47959 0.38545 0.60463 0.0
H792 H 0.25186 0.40134 0.50697 0.0
H793 H 0.25465 0.35919 0.51191 0.0
H794 H 0.47653 0.40191 0.4779 0.0
H795 H 0.45486 0.41169 0.54143 0.0
H796 H 0.37943 0.41275 0.49746 0.0
H797 H 0.38246 0.34792 0.52082 0.0
H798 H 0.47891 0.35886 0.53945 0.0
H799 H 0.45662 0.3488 0.47604 0.0
C800 C 0.87542 0.88779 0.04906 0.0
C801 C 0.82978 0.87845 0.0076 0.0
C802 C 0.96672 0.88868 0.04971 0.0
C803 C 1.01537 0.87944 0.00874 0.0
C804 C 0.96996 0.86943 0.96761 0.0
C805 C 0.87836 0.86922 0.96722 0.0
C806 C 1.01116 0.89967 0.0943 0.0
C807 C 1.01826 0.85884 0.92393 0.0
C808 C 0.25052 0.88927 0.9911 0.0
C809 C 0.29893 0.88097 0.01041 0.0
C810 C 0.15886 0.88902 0.99083 0.0
C811 C 0.1134 0.88004 0.00942 0.0
C812 C 0.16203 0.87179 0.02943 0.0
C813 C 0.25325 0.87265 0.03068 0.0
C814 C 0.11048 0.89844 0.97074 0.0
C815 C 0.11775 0.86187 0.04907 0.0
H816 H 0.83972 0.89441 0.08141 0.0
H817 H 0.84479 0.86177 0.93505 0.0
H818 H 0.05903 0.89414 0.10852 0.0
H819 H 0.04709 0.90768 0.08443 0.0
H820 H 0.96485 0.90571 0.12384 0.0
H821 H 0.97414 0.85125 0.8958 0.0
H822 H 0.05707 0.86495 0.90737 0.0
H823 H 0.06401 0.85227 0.93532 0.0
H824 H 0.28428 0.89593 0.97585 0.0
H825 H 0.28889 0.8669 0.04831 0.0
H826 H 0.06611 0.90589 -0.00114 0.0
H827 H 0.07019 0.89146 0.93933 0.0
H828 H 0.15457 0.9051 0.95877 0.0
H829 H 0.0694 0.86806 0.07705 0.0
H830 H 0.16411 0.85667 0.06541 0.0
H831 H 0.08245 0.85312 0.01918 0.0
C832 C 0.13526 0.12348 0.02697 0.0
C833 C 0.18115 0.13374 0.01551 0.0
C834 C 0.04441 0.12292 0.026 0.0
C835 C 0.99705 0.13298 0.01332 0.0
C836 C 0.04277 0.14363 0.00262 0.0
C837 C 0.13407 0.14389 0.0039 0.0
C838 C 0.99959 0.11142 0.03823 0.0
C839 C 0.99523 0.15468 0.98946 0.0
C840 C 0.76454 0.1225 0.9687 0.0
C841 C 0.71614 0.13074 0.01034 0.0
C842 C 0.85568 0.12324 0.96895 0.0
C843 C 0.89994 0.13242 0.0119 0.0
C844 C 0.85131 0.14062 0.05416 0.0
C845 C 0.76049 0.13964 0.05289 0.0
C846 C 0.90471 0.11419 0.92323 0.0
C847 C 0.89528 0.15029 0.10109 0.0
H848 H 0.17035 0.11608 0.03793 0.0
H849 H 0.16865 0.15188 0.99487 0.0
H850 H 0.94174 0.11595 0.0612 0.0
H851 H 0.97783 0.10238 0.00407 0.0
H852 H 0.04315 0.10677 0.05767 0.0
H853 H 0.03994 0.16216 0.98168 0.0
H854 H 0.954 0.14895 0.95701 0.0
H855 H 0.95184 0.16134 0.0197 0.0
H856 H 0.73114 0.11558 0.93562 0.0
H857 H 0.72413 0.1458 0.08561 0.0
H858 H 0.94671 0.10622 0.92999 0.0
H859 H 0.94743 0.12134 0.91272 0.0
H860 H 0.86098 0.10808 0.89227 0.0
H861 H 0.94165 0.14377 0.11227 0.0
H862 H 0.84848 0.15559 0.13116 0.0
H863 H 0.93272 0.15897 0.09565 0.0
C864 C 0.24082 0.12112 0.51666 0.0
C865 C 0.28851 0.13195 0.50893 0.0
C866 C 0.14926 0.1212 0.51703 0.0
C867 C 0.10293 0.13232 0.50916 0.0
C868 C 0.15092 0.14314 0.50057 0.0
C869 C 0.24225 0.14271 0.50001 0.0
C870 C 0.10233 0.1092 0.52519 0.0
C871 C 0.10578 0.15527 0.49204 0.0
C872 C 0.86444 0.12647 0.46795 0.0
C873 C 0.81919 0.13395 0.51162 0.0
C874 C 0.9559 0.1256 0.46674 0.0
C875 C 1.00479 0.13274 0.51001 0.0
C876 C 0.95952 0.14059 0.55402 0.0
C877 C 0.86805 0.14104 0.55433 0.0
C878 C 1.00029 0.11697 0.41895 0.0
C879 C 1.00789 0.14851 0.60109 0.0
H880 H 0.27512 0.11262 0.5231 0.0
H881 H 0.27738 0.1507 0.49156 0.0
H882 H 0.0492 0.11374 0.55189 0.0
H883 H 0.07339 0.10166 0.49025 0.0
H884 H 0.1462 0.10276 0.53825 0.0
H885 H 0.15197 0.16271 0.48512 0.0
H886 H 0.06137 0.15057 0.46046 0.0
H887 H 0.066 0.16181 0.52424 0.0
H888 H 0.82822 0.12126 0.43446 0.0
H889 H 0.83466 0.14692 0.5884 0.0
H890 H 0.03878 0.10801 0.42185 0.0
H891 H 0.04586 0.12412 0.41017 0.0
H892 H 0.95369 0.11214 0.38844 0.0
H893 H 0.04829 0.14063 0.60933 0.0
H894 H 0.96378 0.15415 0.63226 0.0
H895 H 0.05212 0.15675 0.59747 0.0
C896 C 0.78023 0.87121 0.5216 0.0
C897 C 0.73334 0.88138 0.50991 0.0
C898 C 0.87153 0.87096 0.52162 0.0
C899 C 0.91893 0.88135 0.51047 0.0
C900 C 0.8723 0.89193 0.49983 0.0
C901 C 0.78068 0.89181 0.49961 0.0
C902 C 0.91717 0.85941 0.53316 0.0
C903 C 0.91937 0.90338 0.48847 0.0
C904 C 0.15621 0.88835 0.55228 0.0
C905 C 0.20207 0.88019 0.50948 0.0
C906 C 0.06491 0.88905 0.55296 0.0
C907 C 1.01686 0.88112 0.50998 0.0
C908 C 0.06275 0.87264 0.4668 0.0
C909 C 0.15419 0.87232 0.46703 0.0
C910 C 1.0198 0.89822 0.59998 0.0
C911 C 1.01511 0.86384 0.42019 0.0
H912 H 0.74554 0.86354 0.53164 0.0
H913 H 0.74614 0.89988 0.49096 0.0
H914 H 0.94778 0.85137 0.4996 0.0
H915 H 0.96925 0.86437 0.56029 0.0
H916 H 0.87226 0.85345 0.54751 0.0
H917 H 0.87438 0.91085 0.48087 0.0
H918 H 0.96138 0.90999 0.51956 0.0
H919 H 0.96199 0.89803 0.45644 0.0
H920 H 0.19174 0.8941 0.58567 0.0
H921 H 0.18827 0.86591 0.43365 0.0
H922 H 0.97447 0.89133 0.61016 0.0
H923 H 0.98101 0.90687 0.59516 0.0
H924 H 0.06597 0.90354 0.63043 0.0
H925 H 0.9725 0.8557 0.42557 0.0
H926 H 0.05975 0.85798 0.3895 0.0
H927 H 0.97309 0.87115 0.41002 0.0
C928 C 0.99518 0.52978 0.97002 0.0
C929 C 0.07255 0.53743 0.98816 0.0
C930 C 0.97411 0.51718 0.9776 0.0
C931 C 0.03171 0.51208 0.00393 0.0
C932 C 0.10929 0.51983 0.02272 0.0
C933 C 0.12851 0.53242 0.01482 0.0
C934 C 0.89048 0.50926 0.95723 0.0
C935 C 0.17223 0.51482 0.05117 0.0
C936 C 0.94335 0.48763 0.06261 0.0
C937 C 0.96841 0.47367 0.02936 0.0
C938 C 0.96369 0.50019 0.05481 0.0
C939 C 1.01025 0.4988 0.01264 0.0
C940 C 0.03684 0.48475 0.97916 0.0
C941 C 1.01595 0.47235 0.98803 0.0
C942 C 0.9348 0.51497 0.09161 0.0
C943 C 0.08661 0.4828 0.93377 0.0
H944 H 0.95175 0.53349 0.94908 0.0
H945 H 0.18748 0.53841 0.02985 0.0
H946 H 0.90414 0.49781 0.93172 0.0
H947 H 0.85022 0.50878 0.98708 0.0
H948 H 0.85256 0.51462 0.93767 0.0
H949 H 0.23023 0.52197 0.06284 0.0
H950 H 0.14015 0.51469 0.08397 0.0
H951 H 0.19353 0.50347 0.02869 0.0
H952 H 0.90796 0.48875 0.09503 0.0
H953 H 0.03515 0.46159 0.96205 0.0
H954 H 0.89195 0.52024 0.07386 0.0
H955 H 0.99155 0.52224 0.10605 0.0
H956 H 0.89952 0.51419 0.12264 0.0
H957 H 0.04807 0.48701 0.91108 0.0
H958 H 0.10299 0.47116 0.91153 0.0
H959 H 0.14736 0.48925 0.9437 0.0
C960 C 0.08566 0.47951 0.5145 0.0
C961 C 0.02809 0.47608 0.54425 0.0
C962 C 0.06921 0.49121 0.50116 0.0
C963 C 0.99402 0.49983 0.51871 0.0
C964 C 0.93401 0.49602 0.54729 0.0
C965 C 0.95167 0.48413 0.55958 0.0
C966 C 0.1343 0.49476 0.47018 0.0
C967 C 0.85338 0.50496 0.56698 0.0
C968 C 0.99725 0.53945 0.53211 0.0
C969 C 0.94703 0.53861 0.49225 0.0
C970 C 1.01328 0.52691 0.5411 0.0
C971 C 0.97985 0.51316 0.50882 0.0
C972 C 0.93181 0.51221 0.46755 0.0
C973 C 0.91533 0.52496 0.46004 0.0
C974 C 0.064 0.52845 0.58584 0.0
C975 C 0.89653 0.49776 0.43177 0.0
H976 H 0.14541 0.47339 0.50335 0.0
H977 H 0.90813 0.48163 0.58342 0.0
H978 H 0.10169 0.4958 0.43886 0.0
H979 H 0.16531 0.50545 0.49196 0.0
H980 H 0.18556 0.4863 0.45614 0.0
H981 H 0.81113 0.50014 0.58649 0.0
H982 H 0.87155 0.51621 0.59251 0.0
H983 H 0.81586 0.50591 0.53695 0.0
H984 H 1.02131 0.55002 0.5572 0.0
H985 H 0.87701 0.52429 0.429 0.0
H986 H 0.12145 0.5212 0.57526 0.0
H987 H 0.02357 0.52495 0.60969 0.0
H988 H 0.08591 0.53987 0.60713 0.0
H989 H 0.94955 0.48966 0.41783 0.0
H990 H 0.8638 0.49877 0.40038 0.0
H991 H 0.84956 0.49337 0.45029 0.0
C992 C 0.5765 0.97955 0.0406 0.0
C993 C 0.49149 0.97762 0.05318 0.0
C994 C 0.59721 0.99093 0.0261 0.0
C995 C 0.53138 1.00055 0.02415 0.0
C996 C 0.4449 0.99808 0.03408 0.0
C997 C 0.42605 0.98663 0.04815 0.0
C998 C 0.6901 0.99312 0.01529 0.0
C999 C 0.37262 0.00797 0.03216 0.0
C1000 C 0.58963 0.03973 0.0459 0.0
C1001 C 0.58953 0.03908 -0.00144 0.0
C1002 C 0.57186 0.02722 0.05462 0.0
C1003 C 0.5531 0.01377 0.01496 0.0
C1004 C 0.55199 0.01315 0.96702 0.0
C1005 C 0.57044 0.02584 0.95939 0.0
C1006 C 0.5735 0.02841 0.1063 0.0
C1007 C 0.53152 0.99909 0.92385 0.0
H1008 H 0.62745 0.97266 0.04443 0.0
H1009 H 0.35994 0.98502 0.05687 0.0
H1010 H 0.69487 0.99419 0.98006 0.0
H1011 H 0.71504 1.00343 0.04389 0.0
H1012 H 0.73219 0.98396 0.01388 0.0
H1013 H 0.30815 1.004 0.03769 0.0
H1014 H 0.38267 0.01914 0.06084 0.0
H1015 H 0.37273 0.00889 0.99662 0.0
H1016 H 0.60469 0.05002 0.07604 0.0
H1017 H 0.57059 0.02541 0.92278 0.0
H1018 H 0.62106 0.02056 0.10961 0.0
H1019 H 0.50925 0.02548 0.11611 0.0
H1020 H 0.59064 0.03959 0.13291 0.0
H1021 H 0.57797 0.99044 0.92212 0.0
H1022 H 0.53412 1.0004 0.88892 0.0
H1023 H 0.46605 0.9952 0.92795 0.0
C1024 C 0.41175 0.02652 0.47413 0.0
C1025 C 0.48171 0.03524 0.4724 0.0
C1026 C 0.42128 0.01571 0.49234 0.0
C1027 C 0.50285 0.01355 0.50963 0.0
C1028 C 0.57315 0.02271 0.50987 0.0
C1029 C 0.5617 0.0335 0.49138 0.0
C1030 C 0.34428 1.00639 0.49206 0.0
C1031 C 0.66104 0.02081 0.5283 0.0
C1032 C 0.51023 0.99393 0.59473 0.0
C1033 C 0.53576 0.97972 0.56354 0.0
C1034 C 0.49931 1.00497 0.57768 0.0
C1035 C 0.51376 1.00179 0.52795 0.0
C1036 C 0.53657 0.98733 0.49576 0.0
C1037 C 0.54696 0.97644 0.5139 0.0
C1038 C 0.47372 0.02013 0.61319 0.0
C1039 C 0.55213 0.98346 0.44241 0.0
H1040 H 0.34947 0.02794 0.46008 0.0
H1041 H 0.61613 0.04014 0.48989 0.0
H1042 H 0.35799 0.99475 0.46871 0.0
H1043 H 0.3318 0.00716 0.52934 0.0
H1044 H 0.28479 0.00969 0.47839 0.0
H1045 H 0.70852 0.029 0.52718 0.0
H1046 H 0.65607 0.02177 0.56628 0.0
H1047 H 0.68599 0.00969 0.5059 0.0
H1048 H 0.50026 0.9965 0.63302 0.0
H1049 H 0.56714 0.96552 0.48966 0.0
H1050 H 0.41333 0.02356 0.60087 0.0
H1051 H 0.52469 0.02811 0.61464 0.0
H1052 H 0.46351 0.02075 0.65055 0.0
H1053 H 0.49384 0.98599 0.42573 0.0
H1054 H 0.56849 0.97172 0.42204 0.0
H1055 H 0.60585 0.99021 0.43816 0.0
C1056 C 0.33363 0.28193 0.9901 0.0
C1057 C 0.25827 0.28515 0.97047 0.0
C1058 C 0.33639 0.27019 0.00429 0.0
C1059 C 0.26224 0.26131 0.99814 0.0
C1060 C 0.1848 0.26487 0.98009 0.0
C1061 C 0.18356 0.27684 0.96676 0.0
C1062 C 0.41953 0.26698 0.02438 0.0
C1063 C 0.10464 0.25559 0.97255 0.0
C1064 C 0.29679 0.22186 0.98213 0.0
C1065 C 0.27132 0.22251 0.02761 0.0
C1066 C 0.29402 0.23441 0.97201 0.0
C1067 C 0.26696 0.24796 0.00868 0.0
C1068 C 0.24439 0.24872 0.05528 0.0
C1069 C 0.24591 0.23594 0.06399 0.0
C1070 C 0.31787 0.23308 0.9217 0.0
C1071 C 0.21714 0.26296 0.09567 0.0
H1072 H 0.39142 0.28836 0.99283 0.0
H1073 H 0.12566 0.27922 0.95098 0.0
H1074 H 0.40813 0.26728 0.0612 0.0
H1075 H 0.44247 0.25581 0.00099 0.0
H1076 H 0.47147 0.27493 0.02684 0.0
H1077 H 0.04858 0.26019 0.96039 0.0
H1078 H 0.11757 0.24439 0.94474 0.0
H1079 H 0.0871 0.25453 0.00674 0.0
H1080 H 0.31576 0.21142 0.95396 0.0
H1081 H 0.22635 0.23638 0.09918 0.0
H1082 H 0.37169 0.24067 0.92396 0.0
H1083 H 0.26198 0.23627 0.905 0.0
H1084 H 0.33766 0.22179 0.89735 0.0
H1085 H 0.26734 0.27145 0.10163 0.0
H1086 H 0.20594 0.26185 0.13049 0.0
H1087 H 0.15674 0.26694 0.08525 0.0
C1088 C 0.72552 0.78165 0.97777 0.0
C1089 C 0.7931 0.79194 0.99159 0.0
C1090 C 0.73039 0.7689 0.98673 0.0
C1091 C 0.80443 0.7664 0.01002 0.0
C1092 C 0.8722 0.77683 0.02442 0.0
C1093 C 0.86544 0.78946 0.0153 0.0
C1094 C 0.65652 0.75809 0.97138 0.0
C1095 C 0.95202 0.77469 0.04973 0.0
C1096 C 0.80234 0.74294 0.08206 0.0
C1097 C 0.84804 0.73052 0.05132 0.0
C1098 C 0.78322 0.75433 0.06787 0.0
C1099 C 0.81034 0.75329 0.02166 0.0
C1100 C 0.85139 0.74033 0.98908 0.0
C1101 C 0.86959 0.72903 0.00428 0.0
C1102 C 0.73887 0.76787 0.10367 0.0
C1103 C 0.8812 0.7388 0.93948 0.0
H1104 H 0.66948 0.78344 0.95925 0.0
H1105 H 0.91696 0.7975 0.02712 0.0
H1106 H 0.68017 0.7472 0.94592 0.0
H1107 H 0.62971 0.75677 0.00358 0.0
H1108 H 0.60365 0.76156 0.95339 0.0
H1109 H 1.00002 0.78361 0.05717 0.0
H1110 H 0.93388 0.77424 0.08479 0.0
H1111 H 0.98323 0.76412 0.02704 0.0
H1112 H 0.78459 0.744 0.11823 0.0
H1113 H 0.90507 0.71945 0.9805 0.0
H1114 H 0.68427 0.77099 0.08592 0.0
H1115 H 0.78519 0.77715 0.11646 0.0
H1116 H 0.71397 0.76633 0.13591 0.0
H1117 H 0.82857 0.74183 0.92027 0.0
H1118 H 0.90287 0.72749 0.9165 0.0
H1119 H 0.93586 0.74641 0.94366 0.0
C1120 C 0.36146 0.72539 0.51601 0.0
C1121 C 0.28655 0.72209 0.53583 0.0
C1122 C 0.36842 0.73834 0.50871 0.0
C1123 C 0.2981 0.74824 0.52066 0.0
C1124 C 0.22103 0.7448 0.53924 0.0
C1125 C 0.21615 0.73178 0.54673 0.0
C1126 C 0.45181 0.74147 0.48862 0.0
C1127 C 0.14429 0.75498 0.55165 0.0
C1128 C 0.36496 0.78675 0.5388 0.0
C1129 C 0.35339 0.78614 0.49185 0.0
C1130 C 0.3417 0.77482 0.54982 0.0
C1131 C 0.3061 0.76203 0.51291 0.0
C1132 C 0.28863 0.76187 0.46645 0.0
C1133 C 0.31296 0.77389 0.45644 0.0
C1134 C 0.36192 0.77545 0.59972 0.0
C1135 C 0.25052 0.74855 0.42607 0.0
H1136 H 0.4153 0.71781 0.50621 0.0
H1137 H 0.15796 0.72938 0.56216 0.0
H1138 H 0.43923 0.74253 0.45388 0.0
H1139 H 0.47935 0.75202 0.51446 0.0
H1140 H 0.50084 0.73276 0.48193 0.0
H1141 H 0.08801 0.75055 0.56424 0.0
H1142 H 0.16224 0.76573 0.58065 0.0
H1143 H 0.12463 0.75698 0.51937 0.0
H1144 H 0.39778 0.79611 0.56585 0.0
H1145 H 0.30534 0.77336 0.4199 0.0
H1146 H 0.41708 0.76808 0.59714 0.0
H1147 H 0.30597 0.77157 0.61429 0.0
H1148 H 0.3792 0.78668 0.6259 0.0
H1149 H 0.29933 0.73967 0.41329 0.0
H1150 H 0.23006 0.75088 0.39451 0.0
H1151 H 0.19399 0.74444 0.43944 0.0
C1152 C 0.85949 0.28556 0.53607 0.0
C1153 C 0.8454 0.2851 0.4895 0.0
C1154 C 0.83634 0.27363 0.54708 0.0
C1155 C 0.79857 0.261 0.5105 0.0
C1156 C 0.77825 0.26105 0.46464 0.0
C1157 C 0.80215 0.27308 0.4547 0.0
C1158 C 0.85916 0.27404 0.59641 0.0
C1159 C 0.73817 0.24788 0.42457 0.0
C1160 C 0.85584 0.22409 0.51056 0.0
C1161 C 0.7814 0.22058 0.53016 0.0
C1162 C 0.86198 0.23719 0.50422 0.0
C1163 C 0.79166 0.2471 0.51756 0.0
C1164 C 0.71535 0.24353 0.5364 0.0
C1165 C 0.71093 0.23027 0.54236 0.0
C1166 C 0.9443 0.24044 0.48348 0.0
C1167 C 0.63903 0.25379 0.55071 0.0
H1168 H 0.89434 0.29476 0.56263 0.0
H1169 H 0.79244 0.27269 0.41846 0.0
H1170 H 0.8045 0.26999 0.61138 0.0
H1171 H 0.91508 0.26673 0.59276 0.0
H1172 H 0.87655 0.28525 0.62276 0.0
H1173 H 0.71596 0.25037 0.39362 0.0
H1174 H 0.78647 0.23892 0.41069 0.0
H1175 H 0.68247 0.24377 0.43861 0.0
H1176 H 0.90977 0.21652 0.50015 0.0
H1177 H 0.65325 0.22765 0.55766 0.0
H1178 H 0.97292 0.25084 0.50964 0.0
H1179 H 0.92999 0.24185 0.44949 0.0
H1180 H 0.99313 0.23162 0.47526 0.0
H1181 H 0.65847 0.26447 0.57962 0.0
H1182 H 0.58391 0.24936 0.5642 0.0
H1183 H 0.61701 0.25594 0.5191 0.0
C1184 C 0.11064 0.37506 0.16339 0.0
C1185 C 0.05323 0.38216 0.144 0.0
C1186 C 0.09506 0.37456 0.20863 0.0
C1187 C 1.02175 0.38174 0.23604 0.0
C1188 C 0.96515 0.38939 0.21751 0.0
C1189 C 0.98129 0.38943 0.17154 0.0
C1190 C 0.15639 0.36613 0.22672 0.0
C1191 C 0.88724 0.39741 0.2461 0.0
C1192 C 0.94091 0.37005 0.33457 0.0
C1193 C 0.98434 0.37989 0.37591 0.0
C1194 C 0.95326 0.37037 0.28864 0.0
C1195 C 1.00564 0.38143 0.28449 0.0
C1196 C 0.04518 0.39196 0.32654 0.0
C1197 C 0.03549 0.39089 0.37135 0.0
C1198 C 0.91176 0.3587 0.2444 0.0
C1199 C 0.09876 0.40428 0.32418 0.0
H1200 H 0.16692 0.36956 0.14254 0.0
H1201 H 0.9368 0.39497 0.15682 0.0
H1202 H 0.18567 0.37356 0.26176 0.0
H1203 H 0.12045 0.35755 0.2336 0.0
H1204 H 0.20914 0.36082 0.20041 0.0
H1205 H 0.8514 0.40329 0.22745 0.0
H1206 H 0.8426 0.38957 0.25178 0.0
H1207 H 0.90752 0.40545 0.2826 0.0
H1208 H 0.89683 0.36214 0.33786 0.0
H1209 H 0.06825 0.3988 0.40296 0.0
H1210 H 0.96256 0.35248 0.21808 0.0
H1211 H 0.86964 0.36379 0.22576 0.0
H1212 H 0.87267 0.35087 0.2537 0.0
H1213 H 0.15724 0.39978 0.30177 0.0
H1214 H 0.11946 0.41223 0.36079 0.0
H1215 H 0.06139 0.41023 0.30643 0.0
C1216 C 1.02094 0.64416 0.18191 0.0
C1217 C 0.96272 0.63485 0.14766 0.0
C1218 C 0.02963 0.6439 0.22813 0.0
C1219 C 0.98197 0.63356 0.23937 0.0
C1220 C 0.92408 0.62396 0.20438 0.0
C1221 C 0.91467 0.62483 0.15914 0.0
C1222 C 0.09125 0.65447 0.26447 0.0
C1223 C 0.8739 0.61249 0.21418 0.0
C1224 C 0.07532 0.62272 0.3373 0.0
C1225 C 1.0219 0.63041 0.37701 0.0
C1226 C 0.0617 0.62335 0.29196 0.0
C1227 C 0.99515 0.63238 0.28688 0.0
C1228 C 0.94166 0.6403 0.32728 0.0
C1229 C 0.9549 0.63902 0.37163 0.0
C1230 C 0.11916 0.6145 0.24968 0.0
C1231 C 0.87132 0.6503 0.32392 0.0
H1232 H 0.06166 0.65134 0.17207 0.0
H1233 H 0.87071 0.61748 0.13231 0.0
H1234 H 0.05833 0.6603 0.29991 0.0
H1235 H 0.14626 0.64836 0.27086 0.0
H1236 H 0.11717 0.66269 0.25186 0.0
H1237 H 0.83074 0.60599 0.1834 0.0
H1238 H 0.91938 0.60492 0.22078 0.0
H1239 H 0.83418 0.61773 0.24748 0.0
H1240 H 0.12882 0.61643 0.34187 0.0
H1241 H 0.91306 0.64482 0.40227 0.0
H1242 H 0.15815 0.62194 0.23859 0.0
H1243 H 0.07928 0.60764 0.21786 0.0
H1244 H 0.16377 0.60725 0.25869 0.0
H1245 H 0.89941 0.65864 0.31257 0.0
H1246 H 0.83706 0.656 0.35907 0.0
H1247 H 0.82348 0.64392 0.29579 0.0
C1248 C 0.96114 0.64349 0.87109 0.0
C1249 C 1.00226 0.63278 0.88267 0.0
C1250 C 0.97578 0.64449 0.82647 0.0
C1251 C 0.0314 0.63433 0.79178 0.0
C1252 C 0.0746 0.62369 0.80348 0.0
C1253 C 0.06089 0.62323 0.84914 0.0
C1254 C 0.93012 0.65625 0.81605 0.0
C1255 C 0.13341 0.61251 0.76721 0.0
C1256 C 0.9864 0.62675 0.65942 0.0
C1257 C 0.052 0.6347 0.64872 0.0
C1258 C 0.98028 0.62632 0.70535 0.0
C1259 C 0.03995 0.63433 0.74228 0.0
C1260 C 0.10618 0.64246 0.73199 0.0
C1261 C 0.11256 0.64229 0.68501 0.0
C1262 C 0.90984 0.61724 0.71427 0.0
C1263 C 0.17011 0.65134 0.77065 0.0
H1264 H 0.91685 0.65112 0.8969 0.0
H1265 H 0.09509 0.61521 0.85814 0.0
H1266 H 0.9773 0.66248 0.80409 0.0
H1267 H 0.8832 0.65115 0.78592 0.0
H1268 H 0.89481 0.66405 0.84831 0.0
H1269 H 0.16434 0.60524 0.78235 0.0
H1270 H 0.09586 0.60564 0.73438 0.0
H1271 H 0.18472 0.61806 0.75525 0.0
H1272 H 0.93963 0.62074 0.63158 0.0
H1273 H 0.1654 0.64799 0.67666 0.0
H1274 H 0.86603 0.6244 0.74338 0.0
H1275 H 0.93853 0.60924 0.72696 0.0
H1276 H 0.87083 0.61117 0.6811 0.0
H1277 H 0.13527 0.65929 0.80275 0.0
H1278 H 0.21603 0.65745 0.75738 0.0
H1279 H 0.20746 0.64406 0.78318 0.0
C1280 C 0.97238 0.36753 0.6489 0.0
C1281 C 1.01886 0.3777 0.63711 0.0
C1282 C 0.98564 0.36629 0.69329 0.0
C1283 C 0.04725 0.3754 0.72679 0.0
C1284 C 0.0959 0.38545 0.71466 0.0
C1285 C 0.08095 0.38652 0.67008 0.0
C1286 C 0.93171 0.35555 0.70495 0.0
C1287 C 0.16265 0.39528 0.74922 0.0
C1288 C 1.01299 0.38466 0.86105 0.0
C1289 C 0.07064 0.37515 0.86982 0.0
C1290 C 1.00491 0.38479 0.81484 0.0
C1291 C 0.05593 0.37521 0.77598 0.0
C1292 C 0.11438 0.36555 0.7843 0.0
C1293 C 0.12106 0.36561 0.83117 0.0
C1294 C 0.94136 0.39522 0.80766 0.0
C1295 C 0.17029 0.35525 0.74376 0.0
H1296 H 0.92432 0.36064 0.62375 0.0
H1297 H 0.11771 0.39434 0.6612 0.0
H1298 H 0.97397 0.34824 0.71496 0.0
H1299 H 0.88982 0.36156 0.73677 0.0
H1300 H 0.89005 0.34869 0.67393 0.0
H1301 H 0.19932 0.40175 0.73302 0.0
H1302 H 0.13061 0.40297 0.78289 0.0
H1303 H 0.20894 0.38866 0.76003 0.0
H1304 H 0.97336 0.39206 0.89042 0.0
H1305 H 0.16622 0.3583 0.83759 0.0
H1306 H 0.89367 0.38901 0.77915 0.0
H1307 H 0.97571 0.40276 0.79498 0.0
H1308 H 0.90586 0.40187 0.84159 0.0
H1309 H 0.12921 0.34795 0.71331 0.0
H1310 H 0.21235 0.34839 0.75598 0.0
H1311 H 0.21169 0.3616 0.72918 0.0
C1312 C 0.50487 0.89381 0.1841 0.0
C1313 C 0.52821 0.88126 0.14307 0.0
C1314 C 0.4946 0.8933 0.2299 0.0
C1315 C 0.50526 0.87985 0.23452 0.0
C1316 C 0.52579 0.86707 0.19294 0.0
C1317 C 0.53781 0.86796 0.14797 0.0
C1318 C 0.47362 0.90721 0.27354 0.0
C1319 C 0.53622 0.85245 0.19603 0.0
C1320 C 0.56264 0.88175 0.35993 0.0
C1321 C 0.4829 0.8789 0.37621 0.0
C1322 C 0.57118 0.88174 0.31346 0.0
C1323 C 0.49754 0.87922 0.28308 0.0
C1324 C 0.41676 0.87623 0.29935 0.0
C1325 C 0.41061 0.87591 0.34558 0.0
C1326 C 0.65885 0.88461 0.29713 0.0
C1327 C 0.33653 0.87373 0.26842 0.0
H1328 H 0.49602 0.9041 0.18074 0.0
H1329 H 0.55462 0.85814 0.1165 0.0
H1330 H 0.41292 0.9058 0.29079 0.0
H1331 H 0.52569 0.90967 0.30114 0.0
H1332 H 0.4663 0.91675 0.26385 0.0
H1333 H 0.54949 0.84345 0.15998 0.0
H1334 H 0.59015 0.853 0.22106 0.0
H1335 H 0.4768 0.84971 0.21121 0.0
H1336 H 0.61853 0.88397 0.38368 0.0
H1337 H 0.34871 0.87385 0.35849 0.0
H1338 H 0.65669 0.89476 0.2906 0.0
H1339 H 0.67677 0.87551 0.26223 0.0
H1340 H 0.71016 0.88581 0.32436 0.0
H1341 H 0.32306 0.88356 0.26119 0.0
H1342 H 0.2789 0.87137 0.28607 0.0
H1343 H 0.34671 0.86446 0.23268 0.0
C1344 C 0.36572 0.13557 0.17523 0.0
C1345 C 0.43995 0.13441 0.1474 0.0
C1346 C 0.37148 0.13499 0.22117 0.0
C1347 C 0.45362 0.13365 0.23998 0.0
C1348 C 0.52889 0.13298 0.21239 0.0
C1349 C 0.52099 0.13318 0.1662 0.0
C1350 C 0.28972 0.13543 0.24902 0.0
C1351 C 0.61782 0.13191 0.23143 0.0
C1352 C 0.48576 0.14514 0.37591 0.0
C1353 C 0.49102 0.1316 0.37966 0.0
C1354 C 0.47143 0.14596 0.33099 0.0
C1355 C 0.46154 0.13294 0.28846 0.0
C1356 C 0.46431 0.11923 0.29197 0.0
C1357 C 0.4791 0.11872 0.33746 0.0
C1358 C 0.46972 0.16079 0.32887 0.0
C1359 C 0.45366 0.10509 0.24744 0.0
H1360 H 0.30309 0.13637 0.16029 0.0
H1361 H 0.57849 0.1324 0.14464 0.0
H1362 H 0.28389 0.12522 0.25498 0.0
H1363 H 0.29225 0.14466 0.2854 0.0
H1364 H 0.23104 0.13662 0.22963 0.0
H1365 H 0.66994 0.1321 0.20629 0.0
H1366 H 0.62833 0.14113 0.2673 0.0
H1367 H 0.62334 0.12163 0.23694 0.0
H1368 H 0.49462 0.1552 0.40804 0.0
H1369 H 0.48253 0.10819 0.33969 0.0
H1370 H 0.40902 0.16215 0.31151 0.0
H1371 H 0.5241 0.16167 0.30617 0.0
H1372 H 0.4749 0.1699 0.36551 0.0
H1373 H 0.39341 0.10539 0.22782 0.0
H1374 H 0.4515 0.0954 0.25664 0.0
H1375 H 0.50825 0.10372 0.22205 0.0
C1376 C 0.53864 0.12351 0.84761 0.0
C1377 C 0.47125 0.13095 0.87914 0.0
C1378 C 0.54873 0.12432 0.80232 0.0
C1379 C 0.48997 0.13275 0.78823 0.0
C1380 C 0.42191 0.14027 0.81993 0.0
C1381 C 0.41355 0.13932 0.86502 0.0
C1382 C 0.62262 0.11625 0.76968 0.0
C1383 C 0.35786 0.14934 0.80622 0.0
C1384 C 0.56122 0.14487 0.68921 0.0
C1385 C 0.51904 0.13473 0.64805 0.0
C1386 C 0.5508 0.14461 0.73528 0.0
C1387 C 0.49908 0.13359 0.74009 0.0
C1388 C 0.45652 0.12326 0.69876 0.0
C1389 C 0.4658 0.12411 0.65357 0.0
C1390 C 0.59604 0.15599 0.77872 0.0
C1391 C 0.4024 0.11112 0.70204 0.0
H1392 H 0.58441 0.11723 0.85865 0.0
H1393 H 0.36142 0.14512 0.88922 0.0
H1394 H 0.59729 0.10841 0.73409 0.0
H1395 H 0.66482 0.1241 0.76237 0.0
H1396 H 0.66255 0.11014 0.7859 0.0
H1397 H 0.30866 0.15453 0.835 0.0
H1398 H 0.39224 0.15806 0.79936 0.0
H1399 H 0.3242 0.14237 0.77202 0.0
H1400 H 0.60411 0.1528 0.68539 0.0
H1401 H 0.433 0.11611 0.62215 0.0
H1402 H 0.63949 0.15059 0.79578 0.0
H1403 H 0.54771 0.16232 0.80656 0.0
H1404 H 0.63472 0.16374 0.76888 0.0
H1405 H 0.44275 0.10427 0.71509 0.0
H1406 H 0.37349 0.10395 0.66646 0.0
H1407 H 0.34962 0.11581 0.72884 0.0
C1408 C 0.4765 0.86742 0.64678 0.0
C1409 C 0.50725 0.87966 0.63988 0.0
C1410 C 0.48837 0.86612 0.6911 0.0
C1411 C 0.53121 0.8774 0.72987 0.0
C1412 C 0.56404 0.88965 0.72299 0.0
C1413 C 0.5522 0.89059 0.67799 0.0
C1414 C 0.4532 0.8528 0.69678 0.0
C1415 C 0.60982 0.90193 0.76361 0.0
C1416 C 0.47665 0.8827 0.85898 0.0
C1417 C 0.549 0.87667 0.87204 0.0
C1418 C 0.47004 0.88293 0.81283 0.0
C1419 C 0.53702 0.87681 0.77851 0.0
C1420 C 0.60953 0.8704 0.79104 0.0
C1421 C 0.61525 0.87058 0.83797 0.0
C1422 C 0.39201 0.88999 0.80116 0.0
C1423 C 0.68173 0.86363 0.75521 0.0
H1424 H 0.44227 0.85884 0.61761 0.0
H1425 H 0.57695 0.90004 0.67306 0.0
H1426 H 0.50452 0.84762 0.7102 0.0
H1427 H 0.4007 0.85613 0.72426 0.0
H1428 H 0.42716 0.84452 0.66207 0.0
H1429 H 0.6349 0.91039 0.75184 0.0
H1430 H 0.5647 0.90725 0.79447 0.0
H1431 H 0.66457 0.89754 0.77743 0.0
H1432 H 0.42542 0.88747 0.88528 0.0
H1433 H 0.6723 0.86623 0.8483 0.0
H1434 H 0.3584 0.88201 0.7686 0.0
H1435 H 0.41275 0.89928 0.79245 0.0
H1436 H 0.34527 0.89414 0.8318 0.0
H1437 H 0.65536 0.85539 0.7206 0.0
H1438 H 0.7308 0.85826 0.76944 0.0
H1439 H 0.71416 0.87219 0.74661 0.0
loop_
_geom_bond_atom_site_label_1
_geom_bond_atom_site_label_2
_geom_bond_distance
_geom_bond_site_symmetry_2
_ccdc_geom_bond_type
C0 C2 1.422 . S
C0 C4 1.415 . S
C0 N6 1.369 . S
C1 C2 1.421 . S
C1 C3 1.417 . S
C1 C13 1.422 . S
C2 C0 1.422 . S
C2 C1 1.421 . S
C2 N12 1.359 . S
C3 C1 1.417 . S
C3 C5 1.329 . S
C3 H22 0.930 . S
C4 C0 1.415 . S
C4 C5 1.437 . S
C4 C8 1.413 . S
C5 C3 1.329 . S
C5 C4 1.437 . S
C5 H27 0.929 . S
N6 C0 1.369 . S
N6 C7 1.338 . S
N6 Gd11 2.622 . S
C7 N6 1.338 . S
C7 C9 1.378 . S
C7 H19 0.929 . S
C8 C4 1.413 . S
C8 C9 1.348 . S
C8 H24 0.931 . S
C9 C7 1.378 . S
C9 C8 1.348 . S
C9 H25 0.930 . S
Gd10 N30 2.622 1_455 S
Gd10 N37 2.570 1_455 S
Gd10 O44 2.353 . S
Gd10 O45 2.468 1_556 S
Gd10 O46 2.427 . S
Gd10 O48 2.388 . S
Gd10 O49 2.386 1_455 S
Gd10 O53 2.307 1_556 S
Gd10 C63 2.805 . S
Gd11 N6 2.622 . S
Gd11 N12 2.570 . S
Gd11 O43 2.386 . S
Gd11 O47 2.307 1_554 S
Gd11 O50 2.353 1_455 S
Gd11 O51 2.468 . S
Gd11 O52 2.427 . S
Gd11 O54 2.388 . S
Gd11 C75 2.802 1_455 S
N12 C2 1.359 . S
N12 Gd11 2.570 . S
N12 C14 1.343 1_554 S
C13 C1 1.422 . S
C13 C15 1.321 1_554 S
C13 H21 0.931 1_554 S
C14 N12 1.343 1_556 S
C14 C15 1.390 . S
C14 H16 0.931 . S
C15 C13 1.321 1_556 S
C15 C14 1.390 . S
C15 H17 0.930 . S
H16 C14 0.931 . S
H17 C15 0.930 . S
H18 C41 0.931 . S
H19 C7 0.929 . S
H20 C42 0.930 . S
H21 C13 0.931 1_556 S
H22 C3 0.930 . S
H23 C32 0.929 1_455 S
H24 C8 0.931 . S
H25 C9 0.930 . S
H26 C64 0.930 . S
H27 C5 0.929 . S
H28 C33 0.931 . S
H29 C34 0.930 . S
N30 Gd10 2.622 1_655 S
N30 C31 1.369 . S
N30 C32 1.338 . S
C31 N30 1.369 . S
C31 C35 1.415 . S
C31 C38 1.422 . S
C32 H23 0.929 1_655 S
C32 N30 1.338 . S
C32 C34 1.378 . S
C33 H28 0.931 . S
C33 C34 1.348 . S
C33 C35 1.413 . S
C34 H29 0.930 . S
C34 C32 1.378 . S
C34 C33 1.348 . S
C35 C31 1.415 . S
C35 C33 1.413 . S
C35 C65 1.437 . S
H36 C65 0.929 . S
N37 Gd10 2.570 1_655 S
N37 C38 1.359 . S
N37 C41 1.343 1_556 S
C38 C31 1.422 . S
C38 N37 1.359 . S
C38 C40 1.421 . S
C39 C40 1.422 1_554 S
C39 C42 1.321 . S
C39 H66 0.931 . S
C40 C38 1.421 . S
C40 C39 1.422 1_556 S
C40 C64 1.417 . S
C41 H18 0.931 . S
C41 N37 1.343 1_554 S
C41 C42 1.390 . S
C42 H20 0.930 . S
C42 C39 1.321 . S
C42 C41 1.390 . S
O43 Gd11 2.386 . S
O43 C55 1.265 . S
O44 Gd10 2.353 . S
O44 C55 1.242 1_556 S
O45 Gd10 2.468 1_554 S
O45 C63 1.263 1_554 S
O46 Gd10 2.427 . S
O46 C63 1.252 . S
O47 Gd11 2.307 1_556 S
O47 C56 1.261 . S
O48 Gd10 2.388 . S
O48 C56 1.252 . S
O49 Gd10 2.386 1_655 S
O49 C67 1.265 1_556 S
O50 Gd11 2.353 1_655 S
O50 C67 1.242 . S
O51 Gd11 2.468 . S
O51 C75 1.261 1_455 S
O52 Gd11 2.427 . S
O52 C75 1.252 1_455 S
O53 Gd10 2.307 1_554 S
O53 C68 1.261 . S
O54 Gd11 2.388 . S
O54 C68 1.252 . S
C55 O43 1.265 . S
C55 O44 1.242 1_554 S
C56 O47 1.261 . S
C56 O48 1.252 . S
C57 C60 1.394 . S
C57 C62 1.375 . S
C57 C63 1.500 . S
C58 C61 1.383 . S
C58 C62 1.394 . S
C59 C60 1.396 . S
C59 C61 1.365 . S
C59 H76 0.929 . S
C60 C57 1.394 . S
C60 C59 1.396 . S
C60 H77 0.930 . S
C61 C58 1.383 . S
C61 C59 1.365 . S
C61 H78 0.931 . S
C62 C57 1.375 . S
C62 C58 1.394 . S
C62 H79 0.926 1_556 S
C63 Gd10 2.805 . S
C63 O45 1.263 1_556 S
C63 O46 1.252 . S
C63 C57 1.500 . S
C64 H26 0.930 . S
C64 C40 1.417 . S
C64 C65 1.329 . S
C65 C35 1.437 . S
C65 H36 0.929 . S
C65 C64 1.329 . S
H66 C39 0.931 . S
C67 O49 1.265 1_554 S
C67 O50 1.242 . S
C68 O53 1.261 . S
C68 O54 1.252 . S
C69 C72 1.394 . S
C69 C74 1.370 . S
C69 C75 1.504 . S
C70 C73 1.383 . S
C70 C74 1.395 . S
C71 C72 1.396 . S
C71 C73 1.365 . S
C71 H80 0.929 . S
C72 C69 1.394 . S
C72 C71 1.396 . S
C72 H81 0.930 . S
C73 C70 1.383 . S
C73 C71 1.365 . S
C73 H82 0.931 . S
C74 C69 1.370 . S
C74 C70 1.395 . S
C74 H83 0.930 1_554 S
C75 Gd11 2.802 1_655 S
C75 O51 1.261 1_655 S
C75 O52 1.252 1_655 S
C75 C69 1.504 . S
H76 C59 0.929 . S
H77 C60 0.930 . S
H78 C61 0.931 . S
H79 C62 0.926 1_554 S
H80 C71 0.929 . S
H81 C72 0.930 . S
H82 C73 0.931 . S
H83 C74 0.930 1_556 S
C84 C86 1.422 . S
C84 C88 1.415 . S
C84 N90 1.369 . S
C85 C86 1.421 . S
C85 C87 1.417 . S
C85 C97 1.422 . S
C86 C84 1.422 . S
C86 C85 1.421 . S
C86 N96 1.359 . S
C87 C85 1.417 . S
C87 C89 1.329 . S
C87 H106 0.930 . S
C88 C84 1.415 . S
C88 C89 1.437 . S
C88 C92 1.413 . S
C89 C87 1.329 . S
C89 C88 1.437 . S
C89 H111 0.929 . S
N90 C84 1.369 . S
N90 C91 1.338 . S
N90 Gd95 2.622 1_455 S
C91 N90 1.338 . S
C91 C93 1.378 . S
C91 H103 0.929 1_455 S
C92 C88 1.413 . S
C92 C93 1.348 . S
C92 H108 0.931 . S
C93 C91 1.378 . S
C93 C92 1.348 . S
C93 H109 0.930 . S
Gd94 N114 2.622 . S
Gd94 N121 2.570 . S
Gd94 O128 2.353 1_655 S
Gd94 O129 2.468 1_556 S
Gd94 O130 2.427 . S
Gd94 O132 2.388 . S
Gd94 O133 2.386 . S
Gd94 O137 2.307 1_556 S
Gd94 C147 2.801 1_655 S
Gd95 N90 2.622 1_655 S
Gd95 N96 2.570 1_655 S
Gd95 O127 2.386 1_655 S
Gd95 O131 2.307 1_554 S
Gd95 O134 2.353 . S
Gd95 O135 2.468 . S
Gd95 O136 2.427 . S
Gd95 O138 2.388 . S
Gd95 C159 2.805 . S
N96 C86 1.359 . S
N96 Gd95 2.570 1_455 S
N96 C98 1.343 1_554 S
C97 C85 1.422 . S
C97 C99 1.321 1_554 S
C97 H105 0.931 . S
C98 N96 1.343 1_556 S
C98 C99 1.390 . S
C98 H100 0.931 . S
C99 C97 1.321 1_556 S
C99 C98 1.390 . S
C99 H101 0.930 . S
H100 C98 0.931 . S
H101 C99 0.930 . S
H102 C125 0.931 . S
H103 C91 0.929 1_655 S
H104 C126 0.930 . S
H105 C97 0.931 . S
H106 C87 0.930 . S
H107 C116 0.929 . S
H108 C92 0.931 . S
H109 C93 0.930 . S
H110 C148 0.930 . S
H111 C89 0.929 . S
H112 C117 0.931 . S
H113 C118 0.930 . S
N114 Gd94 2.622 . S
N114 C115 1.369 . S
N114 C116 1.338 . S
C115 N114 1.369 . S
C115 C119 1.415 . S
C115 C122 1.422 . S
C116 H107 0.929 . S
C116 N114 1.338 . S
C116 C118 1.378 . S
C117 H112 0.931 . S
C117 C118 1.348 . S
C117 C119 1.413 . S
C118 H113 0.930 . S
C118 C116 1.378 . S
C118 C117 1.348 . S
C119 C115 1.415 . S
C119 C117 1.413 . S
C119 C149 1.437 . S
H120 C149 0.929 . S
N121 Gd94 2.570 . S
N121 C122 1.359 . S
N121 C125 1.343 1_556 S
C122 C115 1.422 . S
C122 N121 1.359 . S
C122 C124 1.421 . S
C123 C124 1.422 1_554 S
C123 C126 1.321 . S
C123 H150 0.931 . S
C124 C122 1.421 . S
C124 C123 1.422 1_556 S
C124 C148 1.417 . S
C125 H102 0.931 . S
C125 N121 1.343 1_554 S
C125 C126 1.390 . S
C126 H104 0.930 . S
C126 C123 1.321 . S
C126 C125 1.390 . S
O127 Gd95 2.386 1_455 S
O127 C139 1.265 . S
O128 Gd94 2.353 1_455 S
O128 C139 1.242 1_556 S
O129 Gd94 2.468 1_554 S
O129 C147 1.261 1_654 S
O130 Gd94 2.427 . S
O130 C147 1.251 1_655 S
O131 Gd95 2.307 1_556 S
O131 C140 1.261 . S
O132 Gd94 2.388 . S
O132 C140 1.252 . S
O133 Gd94 2.386 . S
O133 C151 1.265 1_556 S
O134 Gd95 2.353 . S
O134 C151 1.242 . S
O135 Gd95 2.468 . S
O135 C159 1.263 . S
O136 Gd95 2.427 . S
O136 C159 1.252 . S
O137 Gd94 2.307 1_554 S
O137 C152 1.261 . S
O138 Gd95 2.388 . S
O138 C152 1.252 . S
C139 O127 1.265 . S
C139 O128 1.242 1_554 S
C140 O131 1.261 . S
C140 O132 1.252 . S
C141 C144 1.394 . S
C141 C146 1.370 1_556 S
C141 C147 1.504 . S
C142 C145 1.396 . S
C142 C146 1.400 1_556 S
C143 C144 1.396 . S
C143 C145 1.365 . S
C143 H160 0.929 . S
C144 C141 1.394 . S
C144 C143 1.396 . S
C144 H161 0.930 . S
C145 C142 1.396 . S
C145 C143 1.365 . S
C145 H162 0.931 . S
C146 C141 1.370 1_554 S
C146 C142 1.400 1_554 S
C146 H163 0.930 . S
C147 Gd94 2.801 1_455 S
C147 O129 1.261 1_456 S
C147 O130 1.251 1_455 S
C147 C141 1.504 . S
C148 H110 0.930 . S
C148 C124 1.417 . S
C148 C149 1.329 . S
C149 C119 1.437 . S
C149 H120 0.929 . S
C149 C148 1.329 . S
H150 C123 0.931 . S
C151 O133 1.265 1_554 S
C151 O134 1.242 . S
C152 O137 1.261 . S
C152 O138 1.252 . S
C153 C156 1.394 . S
C153 C158 1.370 . S
C153 C159 1.500 . S
C154 C157 1.383 . S
C154 C158 1.395 . S
C155 C156 1.396 . S
C155 C157 1.365 . S
C155 H164 0.929 . S
C156 C153 1.394 . S
C156 C155 1.396 . S
C156 H165 0.930 . S
C157 C154 1.383 . S
C157 C155 1.365 . S
C157 H166 0.931 . S
C158 C153 1.370 . S
C158 C154 1.395 . S
C158 H167 0.930 1_554 S
C159 Gd95 2.805 . S
C159 O135 1.263 . S
C159 O136 1.252 . S
C159 C153 1.500 . S
H160 C143 0.929 . S
H161 C144 0.930 . S
H162 C145 0.931 . S
H163 C146 0.930 . S
H164 C155 0.929 . S
H165 C156 0.930 . S
H166 C157 0.931 . S
H167 C158 0.930 1_556 S
C168 C170 1.422 . S
C168 C172 1.415 . S
C168 N174 1.369 . S
C169 C170 1.421 . S
C169 C171 1.417 . S
C169 C181 1.422 . S
C170 C168 1.422 . S
C170 C169 1.421 . S
C170 N180 1.359 . S
C171 C169 1.417 . S
C171 C173 1.329 . S
C171 H190 0.930 . S
C172 C168 1.415 . S
C172 C173 1.437 . S
C172 C176 1.413 . S
C173 C171 1.329 . S
C173 C172 1.437 . S
C173 H195 0.929 . S
N174 C168 1.369 . S
N174 C175 1.338 . S
N174 Gd179 2.622 . S
C175 N174 1.338 . S
C175 C177 1.378 . S
C175 H187 0.929 . S
C176 C172 1.413 . S
C176 C177 1.348 . S
C176 H192 0.931 . S
C177 C175 1.378 . S
C177 C176 1.348 . S
C177 H193 0.930 . S
Gd178 N198 2.622 1_455 S
Gd178 N205 2.570 1_455 S
Gd178 O212 2.353 . S
Gd178 O213 2.468 . S
Gd178 O214 2.427 . S
Gd178 O216 2.388 . S
Gd178 O217 2.386 1_455 S
Gd178 O221 2.307 . S
Gd178 C231 2.805 . S
Gd179 N174 2.622 . S
Gd179 N180 2.570 . S
Gd179 O211 2.386 . S
Gd179 O215 2.307 . S
Gd179 O218 2.353 1_455 S
Gd179 O219 2.468 . S
Gd179 O220 2.427 . S
Gd179 O222 2.388 . S
Gd179 C243 2.802 1_455 S
N180 C170 1.359 . S
N180 Gd179 2.570 . S
N180 C182 1.343 . S
C181 C169 1.422 . S
C181 C183 1.321 . S
C181 H189 0.931 . S
C182 N180 1.343 . S
C182 C183 1.390 . S
C182 H184 0.931 . S
C183 C181 1.321 . S
C183 C182 1.390 . S
C183 H185 0.930 . S
H184 C182 0.931 . S
H185 C183 0.930 . S
H186 C209 0.931 . S
H187 C175 0.929 . S
H188 C210 0.930 . S
H189 C181 0.931 . S
H190 C171 0.930 . S
H191 C200 0.929 1_455 S
H192 C176 0.931 . S
H193 C177 0.930 . S
H194 C232 0.930 . S
H195 C173 0.929 . S
H196 C201 0.931 . S
H197 C202 0.930 . S
N198 Gd178 2.622 1_655 S
N198 C199 1.369 . S
N198 C200 1.338 . S
C199 N198 1.369 . S
C199 C203 1.415 . S
C199 C206 1.422 . S
C200 H191 0.929 1_655 S
C200 N198 1.338 . S
C200 C202 1.378 . S
C201 H196 0.931 . S
C201 C202 1.348 . S
C201 C203 1.413 . S
C202 H197 0.930 . S
C202 C200 1.378 . S
C202 C201 1.348 . S
C203 C199 1.415 . S
C203 C201 1.413 . S
C203 C233 1.437 . S
H204 C233 0.929 . S
N205 Gd178 2.570 1_655 S
N205 C206 1.359 . S
N205 C209 1.343 . S
C206 C199 1.422 . S
C206 N205 1.359 . S
C206 C208 1.421 . S
C207 C208 1.422 . S
C207 C210 1.321 . S
C207 H234 0.931 . S
C208 C206 1.421 . S
C208 C207 1.422 . S
C208 C232 1.417 . S
C209 H186 0.931 . S
C209 N205 1.343 . S
C209 C210 1.390 . S
C210 H188 0.930 . S
C210 C207 1.321 . S
C210 C209 1.390 . S
O211 Gd179 2.386 . S
O211 C223 1.265 . S
O212 Gd178 2.353 . S
O212 C223 1.242 . S
O213 Gd178 2.468 . S
O213 C231 1.263 . S
O214 Gd178 2.427 . S
O214 C231 1.252 . S
O215 Gd179 2.307 . S
O215 C224 1.261 . S
O216 Gd178 2.388 . S
O216 C224 1.252 . S
O217 Gd178 2.386 1_655 S
O217 C235 1.265 . S
O218 Gd179 2.353 1_655 S
O218 C235 1.242 . S
O219 Gd179 2.468 . S
O219 C243 1.261 1_455 S
O220 Gd179 2.427 . S
O220 C243 1.252 1_455 S
O221 Gd178 2.307 . S
O221 C236 1.261 . S
O222 Gd179 2.388 . S
O222 C236 1.252 . S
C223 O211 1.265 . S
C223 O212 1.242 . S
C224 O215 1.261 . S
C224 O216 1.252 . S
C225 C228 1.394 . S
C225 C230 1.370 . S
C225 C231 1.500 . S
C226 C229 1.383 . S
C226 C230 1.395 . S
C227 C228 1.396 . S
C227 C229 1.365 . S
C227 H244 0.929 . S
C228 C225 1.394 . S
C228 C227 1.396 . S
C228 H245 0.930 . S
C229 C226 1.383 . S
C229 C227 1.365 . S
C229 H246 0.931 . S
C230 C225 1.370 . S
C230 C226 1.395 . S
C230 H247 0.930 . S
C231 Gd178 2.805 . S
C231 O213 1.263 . S
C231 O214 1.252 . S
C231 C225 1.500 . S
C232 H194 0.930 . S
C232 C208 1.417 . S
C232 C233 1.329 . S
C233 C203 1.437 . S
C233 H204 0.929 . S
C233 C232 1.329 . S
H234 C207 0.931 . S
C235 O217 1.265 . S
C235 O218 1.242 . S
C236 O221 1.261 . S
C236 O222 1.252 . S
C237 C240 1.394 . S
C237 C242 1.370 . S
C237 C243 1.504 . S
C238 C241 1.383 . S
C238 C242 1.395 . S
C239 C240 1.396 . S
C239 C241 1.365 . S
C239 H248 0.929 . S
C240 C237 1.394 . S
C240 C239 1.396 . S
C240 H249 0.930 . S
C241 C238 1.383 . S
C241 C239 1.365 . S
C241 H250 0.931 . S
C242 C237 1.370 . S
C242 C238 1.395 . S
C242 H251 0.930 . S
C243 Gd179 2.802 1_655 S
C243 O219 1.261 1_655 S
C243 O220 1.252 1_655 S
C243 C237 1.504 . S
H244 C227 0.929 . S
H245 C228 0.930 . S
H246 C229 0.931 . S
H247 C230 0.930 . S
H248 C239 0.929 . S
H249 C240 0.930 . S
H250 C241 0.931 . S
H251 C242 0.930 . S
C252 C254 1.422 . S
C252 C256 1.415 . S
C252 N258 1.369 . S
C253 C254 1.421 . S
C253 C255 1.417 . S
C253 C265 1.422 . S
C254 C252 1.422 . S
C254 C253 1.421 . S
C254 N264 1.359 . S
C255 C253 1.417 . S
C255 C257 1.329 . S
C255 H274 0.930 . S
C256 C252 1.415 . S
C256 C257 1.437 . S
C256 C260 1.413 . S
C257 C255 1.329 . S
C257 C256 1.437 . S
C257 H279 0.929 . S
N258 C252 1.369 . S
N258 C259 1.338 . S
N258 Gd263 2.622 1_455 S
C259 N258 1.338 . S
C259 C261 1.378 . S
C259 H271 0.929 1_455 S
C260 C256 1.413 . S
C260 C261 1.348 . S
C260 H276 0.931 . S
C261 C259 1.378 . S
C261 C260 1.348 . S
C261 H277 0.930 . S
Gd262 N282 2.622 . S
Gd262 N289 2.570 . S
Gd262 O296 2.353 1_655 S
Gd262 O297 2.468 . S
Gd262 O298 2.427 . S
Gd262 O300 2.388 . S
Gd262 O301 2.386 . S
Gd262 O305 2.307 . S
Gd262 C315 2.802 1_655 S
Gd263 N258 2.622 1_655 S
Gd263 N264 2.570 1_655 S
Gd263 O295 2.386 1_655 S
Gd263 O299 2.307 . S
Gd263 O302 2.353 . S
Gd263 O303 2.468 . S
Gd263 O304 2.427 . S
Gd263 O306 2.388 . S
Gd263 C327 2.805 . S
N264 C254 1.359 . S
N264 Gd263 2.570 1_455 S
N264 C266 1.343 . S
C265 C253 1.422 . S
C265 C267 1.321 . S
C265 H273 0.931 . S
C266 N264 1.343 . S
C266 C267 1.390 . S
C266 H268 0.931 . S
C267 C265 1.321 . S
C267 C266 1.390 . S
C267 H269 0.930 . S
H268 C266 0.931 . S
H269 C267 0.930 . S
H270 C293 0.931 . S
H271 C259 0.929 1_655 S
H272 C294 0.930 . S
H273 C265 0.931 . S
H274 C255 0.930 . S
H275 C284 0.929 . S
H276 C260 0.931 . S
H277 C261 0.930 . S
H278 C316 0.930 . S
H279 C257 0.929 . S
H280 C285 0.931 . S
H281 C286 0.930 . S
N282 Gd262 2.622 . S
N282 C283 1.369 . S
N282 C284 1.338 . S
C283 N282 1.369 . S
C283 C287 1.415 . S
C283 C290 1.422 . S
C284 H275 0.929 . S
C284 N282 1.338 . S
C284 C286 1.378 . S
C285 H280 0.931 . S
C285 C286 1.348 . S
C285 C287 1.413 . S
C286 H281 0.930 . S
C286 C284 1.378 . S
C286 C285 1.348 . S
C287 C283 1.415 . S
C287 C285 1.413 . S
C287 C317 1.437 . S
H288 C317 0.929 . S
N289 Gd262 2.570 . S
N289 C290 1.359 . S
N289 C293 1.343 . S
C290 C283 1.422 . S
C290 N289 1.359 . S
C290 C292 1.421 . S
C291 C292 1.422 . S
C291 C294 1.321 . S
C291 H318 0.931 . S
C292 C290 1.421 . S
C292 C291 1.422 . S
C292 C316 1.417 . S
C293 H270 0.931 . S
C293 N289 1.343 . S
C293 C294 1.390 . S
C294 H272 0.930 . S
C294 C291 1.321 . S
C294 C293 1.390 . S
O295 Gd263 2.386 1_455 S
O295 C307 1.265 . S
O296 Gd262 2.353 1_455 S
O296 C307 1.242 . S
O297 Gd262 2.468 . S
O297 C315 1.261 1_655 S
O298 Gd262 2.427 . S
O298 C315 1.252 1_655 S
O299 Gd263 2.307 . S
O299 C308 1.261 . S
O300 Gd262 2.388 . S
O300 C308 1.252 . S
O301 Gd262 2.386 . S
O301 C319 1.265 . S
O302 Gd263 2.353 . S
O302 C319 1.242 . S
O303 Gd263 2.468 . S
O303 C327 1.263 . S
O304 Gd263 2.427 . S
O304 C327 1.252 . S
O305 Gd262 2.307 . S
O305 C320 1.261 . S
O306 Gd263 2.388 . S
O306 C320 1.252 . S
C307 O295 1.265 . S
C307 O296 1.242 . S
C308 O299 1.261 . S
C308 O300 1.252 . S
C309 C312 1.394 . S
C309 C314 1.370 . S
C309 C315 1.504 . S
C310 C313 1.383 . S
C310 C314 1.395 . S
C311 C312 1.396 . S
C311 C313 1.365 . S
C311 H328 0.929 . S
C312 C309 1.394 . S
C312 C311 1.396 . S
C312 H329 0.930 . S
C313 C310 1.383 . S
C313 C311 1.365 . S
C313 H330 0.931 . S
C314 C309 1.370 . S
C314 C310 1.395 . S
C314 H331 0.930 . S
C315 Gd262 2.802 1_455 S
C315 O297 1.261 1_455 S
C315 O298 1.252 1_455 S
C315 C309 1.504 . S
C316 H278 0.930 . S
C316 C292 1.417 . S
C316 C317 1.329 . S
C317 C287 1.437 . S
C317 H288 0.929 . S
C317 C316 1.329 . S
H318 C291 0.931 . S
C319 O301 1.265 . S
C319 O302 1.242 . S
C320 O305 1.261 . S
C320 O306 1.252 . S
C321 C324 1.394 . S
C321 C326 1.370 . S
C321 C327 1.500 . S
C322 C325 1.383 . S
C322 C326 1.395 . S
C323 C324 1.396 . S
C323 C325 1.365 . S
C323 H332 0.929 . S
C324 C321 1.394 . S
C324 C323 1.396 . S
C324 H333 0.930 . S
C325 C322 1.383 . S
C325 C323 1.365 . S
C325 H334 0.931 . S
C326 C321 1.370 . S
C326 C322 1.395 . S
C326 H335 0.930 . S
C327 Gd263 2.805 . S
C327 O303 1.263 . S
C327 O304 1.252 . S
C327 C321 1.500 . S
H328 C311 0.929 . S
H329 C312 0.930 . S
H330 C313 0.931 . S
H331 C314 0.930 . S
H332 C323 0.929 . S
H333 C324 0.930 . S
H334 C325 0.931 . S
H335 C326 0.930 . S
C336 C338 1.422 . S
C336 C340 1.415 . S
C336 N342 1.369 . S
C337 C338 1.421 . S
C337 C339 1.417 . S
C337 C349 1.422 . S
C338 C336 1.422 . S
C338 C337 1.421 . S
C338 N348 1.359 . S
C339 C337 1.417 . S
C339 C341 1.329 . S
C339 H358 0.930 . S
C340 C336 1.415 . S
C340 C341 1.437 . S
C340 C344 1.413 . S
C341 C339 1.329 . S
C341 C340 1.437 . S
C341 H363 0.929 . S
N342 C336 1.369 . S
N342 C343 1.338 . S
N342 Gd347 2.622 . S
C343 N342 1.338 . S
C343 C345 1.378 . S
C343 H355 0.929 . S
C344 C340 1.413 . S
C344 C345 1.348 . S
C344 H360 0.931 . S
C345 C343 1.378 . S
C345 C344 1.348 . S
C345 H361 0.930 . S
Gd346 N366 2.622 . S
Gd346 N373 2.570 . S
Gd346 O380 2.353 . S
Gd346 O381 2.468 1_556 S
Gd346 O382 2.427 . S
Gd346 O384 2.388 . S
Gd346 O385 2.386 . S
Gd346 O389 2.307 1_556 S
Gd346 C399 2.805 . S
Gd347 N342 2.622 . S
Gd347 N348 2.570 . S
Gd347 O379 2.386 . S
Gd347 O383 2.307 1_554 S
Gd347 O386 2.353 . S
Gd347 O387 2.468 . S
Gd347 O388 2.427 . S
Gd347 O390 2.388 . S
Gd347 C411 2.805 . S
N348 C338 1.359 . S
N348 Gd347 2.570 . S
N348 C350 1.343 1_554 S
C349 C337 1.422 . S
C349 C351 1.321 1_554 S
C349 H357 0.931 1_554 S
C350 N348 1.343 1_556 S
C350 C351 1.390 . S
C350 H352 0.931 . S
C351 C349 1.321 1_556 S
C351 C350 1.390 . S
C351 H353 0.930 . S
H352 C350 0.931 . S
H353 C351 0.930 . S
H354 C377 0.931 . S
H355 C343 0.929 . S
H356 C378 0.930 . S
H357 C349 0.931 1_556 S
H358 C339 0.930 . S
H359 C368 0.929 . S
H360 C344 0.931 . S
H361 C345 0.930 . S
H362 C400 0.930 . S
H363 C341 0.929 . S
H364 C369 0.931 . S
H365 C370 0.930 . S
N366 Gd346 2.622 . S
N366 C367 1.369 . S
N366 C368 1.338 . S
C367 N366 1.369 . S
C367 C371 1.415 . S
C367 C374 1.422 . S
C368 H359 0.929 . S
C368 N366 1.338 . S
C368 C370 1.378 . S
C369 H364 0.931 . S
C369 C370 1.348 . S
C369 C371 1.413 . S
C370 H365 0.930 . S
C370 C368 1.378 . S
C370 C369 1.348 . S
C371 C367 1.415 . S
C371 C369 1.413 . S
C371 C401 1.437 . S
H372 C401 0.929 . S
N373 Gd346 2.570 . S
N373 C374 1.359 . S
N373 C377 1.343 1_556 S
C374 C367 1.422 . S
C374 N373 1.359 . S
C374 C376 1.421 . S
C375 C376 1.422 1_554 S
C375 C378 1.321 . S
C375 H402 0.931 . S
C376 C374 1.421 . S
C376 C375 1.422 1_556 S
C376 C400 1.417 . S
C377 H354 0.931 . S
C377 N373 1.343 1_554 S
C377 C378 1.390 . S
C378 H356 0.930 . S
C378 C375 1.321 . S
C378 C377 1.390 . S
O379 Gd347 2.386 . S
O379 C391 1.265 . S
O380 Gd346 2.353 . S
O380 C391 1.242 1_556 S
O381 Gd346 2.468 1_554 S
O381 C399 1.263 1_554 S
O382 Gd346 2.427 . S
O382 C399 1.252 . S
O383 Gd347 2.307 1_556 S
O383 C392 1.261 . S
O384 Gd346 2.388 . S
O384 C392 1.252 . S
O385 Gd346 2.386 . S
O385 C403 1.265 1_556 S
O386 Gd347 2.353 . S
O386 C403 1.242 . S
O387 Gd347 2.468 . S
O387 C411 1.263 . S
O388 Gd347 2.427 . S
O388 C411 1.252 . S
O389 Gd346 2.307 1_554 S
O389 C404 1.261 . S
O390 Gd347 2.388 . S
O390 C404 1.252 . S
C391 O379 1.265 . S
C391 O380 1.242 1_554 S
C392 O383 1.261 . S
C392 O384 1.252 . S
C393 C396 1.394 . S
C393 C398 1.371 . S
C393 C399 1.500 . S
C394 C397 1.383 . S
C394 C398 1.395 . S
C395 C396 1.396 . S
C395 C397 1.365 . S
C395 H412 0.929 . S
C396 C393 1.394 . S
C396 C395 1.396 . S
C396 H413 0.930 . S
C397 C394 1.383 . S
C397 C395 1.365 . S
C397 H414 0.931 . S
C398 C393 1.371 . S
C398 C394 1.395 . S
C398 H415 0.930 1_556 S
C399 Gd346 2.805 . S
C399 O381 1.263 1_556 S
C399 O382 1.252 . S
C399 C393 1.500 . S
C400 H362 0.930 . S
C400 C376 1.417 . S
C400 C401 1.329 . S
C401 C371 1.437 . S
C401 H372 0.929 . S
C401 C400 1.329 . S
H402 C375 0.931 . S
C403 O385 1.265 1_554 S
C403 O386 1.242 . S
C404 O389 1.261 . S
C404 O390 1.252 . S
C405 C408 1.394 . S
C405 C410 1.370 . S
C405 C411 1.500 . S
C406 C409 1.383 . S
C406 C410 1.395 . S
C407 C408 1.396 . S
C407 C409 1.365 . S
C407 H416 0.929 . S
C408 C405 1.394 . S
C408 C407 1.396 . S
C408 H417 0.930 . S
C409 C406 1.383 . S
C409 C407 1.365 . S
C409 H418 0.931 . S
C410 C405 1.370 . S
C410 C406 1.395 . S
C410 H419 0.930 1_554 S
C411 Gd347 2.805 . S
C411 O387 1.263 . S
C411 O388 1.252 . S
C411 C405 1.500 . S
H412 C395 0.929 . S
H413 C396 0.930 . S
H414 C397 0.931 . S
H415 C398 0.930 1_554 S
H416 C407 0.929 . S
H417 C408 0.930 . S
H418 C409 0.931 . S
H419 C410 0.930 1_556 S
C420 C422 1.422 . S
C420 C424 1.415 . S
C420 N426 1.369 . S
C421 C422 1.421 . S
C421 C423 1.417 . S
C421 C433 1.422 . S
C422 C420 1.422 . S
C422 C421 1.421 . S
C422 N432 1.359 . S
C423 C421 1.417 . S
C423 C425 1.329 . S
C423 H442 0.930 . S
C424 C420 1.415 . S
C424 C425 1.437 . S
C424 C428 1.413 . S
C425 C423 1.329 . S
C425 C424 1.437 . S
C425 H447 0.929 . S
N426 C420 1.369 . S
N426 C427 1.338 . S
N426 Gd431 2.622 . S
C427 N426 1.338 . S
C427 C429 1.378 . S
C427 H439 0.929 . S
C428 C424 1.413 . S
C428 C429 1.348 . S
C428 H444 0.931 . S
C429 C427 1.378 . S
C429 C428 1.348 . S
C429 H445 0.930 . S
Gd430 N450 2.622 . S
Gd430 N457 2.570 . S
Gd430 O464 2.353 . S
Gd430 O465 2.468 1_556 S
Gd430 O466 2.427 . S
Gd430 O468 2.388 . S
Gd430 O469 2.386 . S
Gd430 O473 2.307 1_556 S
Gd430 C483 2.805 . S
Gd431 N426 2.622 . S
Gd431 N432 2.570 . S
Gd431 O463 2.386 . S
Gd431 O467 2.307 1_554 S
Gd431 O470 2.353 . S
Gd431 O471 2.468 . S
Gd431 O472 2.427 . S
Gd431 O474 2.388 . S
Gd431 C495 2.805 . S
N432 C422 1.359 . S
N432 Gd431 2.570 . S
N432 C434 1.343 1_554 S
C433 C421 1.422 . S
C433 C435 1.321 1_554 S
C433 H441 0.931 . S
C434 N432 1.343 1_556 S
C434 C435 1.390 . S
C434 H436 0.931 . S
C435 C433 1.321 1_556 S
C435 C434 1.390 . S
C435 H437 0.930 . S
H436 C434 0.931 . S
H437 C435 0.930 . S
H438 C461 0.931 . S
H439 C427 0.929 . S
H440 C462 0.930 . S
H441 C433 0.931 . S
H442 C423 0.930 . S
H443 C452 0.929 . S
H444 C428 0.931 . S
H445 C429 0.930 . S
H446 C484 0.930 . S
H447 C425 0.929 . S
H448 C453 0.931 . S
H449 C454 0.930 . S
N450 Gd430 2.622 . S
N450 C451 1.369 . S
N450 C452 1.338 . S
C451 N450 1.369 . S
C451 C455 1.415 . S
C451 C458 1.422 . S
C452 H443 0.929 . S
C452 N450 1.338 . S
C452 C454 1.378 . S
C453 H448 0.931 . S
C453 C454 1.348 . S
C453 C455 1.413 . S
C454 H449 0.930 . S
C454 C452 1.378 . S
C454 C453 1.348 . S
C455 C451 1.415 . S
C455 C453 1.413 . S
C455 C485 1.437 . S
H456 C485 0.929 . S
N457 Gd430 2.570 . S
N457 C458 1.359 . S
N457 C461 1.343 1_556 S
C458 C451 1.422 . S
C458 N457 1.359 . S
C458 C460 1.421 . S
C459 C460 1.422 1_554 S
C459 C462 1.321 . S
C459 H486 0.931 . S
C460 C458 1.421 . S
C460 C459 1.422 1_556 S
C460 C484 1.417 . S
C461 H438 0.931 . S
C461 N457 1.343 1_554 S
C461 C462 1.390 . S
C462 H440 0.930 . S
C462 C459 1.321 . S
C462 C461 1.390 . S
O463 Gd431 2.386 . S
O463 C475 1.265 . S
O464 Gd430 2.353 . S
O464 C475 1.242 1_556 S
O465 Gd430 2.468 1_554 S
O465 C483 1.263 1_554 S
O466 Gd430 2.427 . S
O466 C483 1.252 . S
O467 Gd431 2.307 1_556 S
O467 C476 1.261 . S
O468 Gd430 2.388 . S
O468 C476 1.252 . S
O469 Gd430 2.386 . S
O469 C487 1.265 1_556 S
O470 Gd431 2.353 . S
O470 C487 1.242 . S
O471 Gd431 2.468 . S
O471 C495 1.263 . S
O472 Gd431 2.427 . S
O472 C495 1.252 . S
O473 Gd430 2.307 1_554 S
O473 C488 1.261 . S
O474 Gd431 2.388 . S
O474 C488 1.252 . S
C475 O463 1.265 . S
C475 O464 1.242 1_554 S
C476 O467 1.261 . S
C476 O468 1.252 . S
C477 C480 1.394 . S
C477 C482 1.370 1_556 S
C477 C483 1.500 . S
C478 C481 1.398 . S
C478 C482 1.401 1_556 S
C479 C480 1.396 . S
C479 C481 1.365 . S
C479 H496 0.929 . S
C480 C477 1.394 . S
C480 C479 1.396 . S
C480 H497 0.930 . S
C481 C478 1.398 . S
C481 C479 1.365 . S
C481 H498 0.931 . S
C482 C477 1.370 1_554 S
C482 C478 1.401 1_554 S
C482 H499 0.930 . S
C483 Gd430 2.805 . S
C483 O465 1.263 1_556 S
C483 O466 1.252 . S
C483 C477 1.500 . S
C484 H446 0.930 . S
C484 C460 1.417 . S
C484 C485 1.329 . S
C485 C455 1.437 . S
C485 H456 0.929 . S
C485 C484 1.329 . S
H486 C459 0.931 . S
C487 O469 1.265 1_554 S
C487 O470 1.242 . S
C488 O473 1.261 . S
C488 O474 1.252 . S
C489 C492 1.394 . S
C489 C494 1.370 . S
C489 C495 1.500 . S
C490 C493 1.383 . S
C490 C494 1.395 . S
C491 C492 1.396 . S
C491 C493 1.365 . S
C491 H500 0.929 . S
C492 C489 1.394 . S
C492 C491 1.396 . S
C492 H501 0.930 . S
C493 C490 1.383 . S
C493 C491 1.365 . S
C493 H502 0.931 . S
C494 C489 1.370 . S
C494 C490 1.395 . S
C494 H503 0.930 1_554 S
C495 Gd431 2.805 . S
C495 O471 1.263 . S
C495 O472 1.252 . S
C495 C489 1.500 . S
H496 C479 0.929 . S
H497 C480 0.930 . S
H498 C481 0.931 . S
H499 C482 0.930 . S
H500 C491 0.929 . S
H501 C492 0.930 . S
H502 C493 0.931 . S
H503 C494 0.930 1_556 S
C504 C506 1.422 . S
C504 C508 1.415 . S
C504 N510 1.369 . S
C505 C506 1.421 . S
C505 C507 1.417 . S
C505 C517 1.422 . S
C506 C504 1.422 . S
C506 C505 1.421 . S
C506 N516 1.359 . S
C507 C505 1.417 . S
C507 C509 1.329 . S
C507 H526 0.930 . S
C508 C504 1.415 . S
C508 C509 1.437 . S
C508 C512 1.413 . S
C509 C507 1.329 . S
C509 C508 1.437 . S
C509 H531 0.929 . S
N510 C504 1.369 . S
N510 C511 1.338 . S
N510 Gd515 2.622 . S
C511 N510 1.338 . S
C511 C513 1.378 . S
C511 H523 0.929 . S
C512 C508 1.413 . S
C512 C513 1.348 . S
C512 H528 0.931 . S
C513 C511 1.378 . S
C513 C512 1.348 . S
C513 H529 0.930 . S
Gd514 N534 2.622 . S
Gd514 N541 2.570 . S
Gd514 O548 2.353 . S
Gd514 O549 2.468 . S
Gd514 O550 2.427 . S
Gd514 O552 2.388 . S
Gd514 O553 2.386 . S
Gd514 O557 2.307 . S
Gd514 C567 2.805 . S
Gd515 N510 2.622 . S
Gd515 N516 2.570 . S
Gd515 O547 2.386 . S
Gd515 O551 2.307 . S
Gd515 O554 2.353 . S
Gd515 O555 2.468 . S
Gd515 O556 2.427 . S
Gd515 O558 2.388 . S
Gd515 C579 2.805 . S
N516 C506 1.359 . S
N516 Gd515 2.570 . S
N516 C518 1.343 . S
C517 C505 1.422 . S
C517 C519 1.321 . S
C517 H525 0.931 . S
C518 N516 1.343 . S
C518 C519 1.390 . S
C518 H520 0.931 . S
C519 C517 1.321 . S
C519 C518 1.390 . S
C519 H521 0.930 . S
H520 C518 0.931 . S
H521 C519 0.930 . S
H522 C545 0.931 . S
H523 C511 0.929 . S
H524 C546 0.930 . S
H525 C517 0.931 . S
H526 C507 0.930 . S
H527 C536 0.929 . S
H528 C512 0.931 . S
H529 C513 0.930 . S
H530 C568 0.930 . S
H531 C509 0.929 . S
H532 C537 0.931 . S
H533 C538 0.930 . S
N534 Gd514 2.622 . S
N534 C535 1.369 . S
N534 C536 1.338 . S
C535 N534 1.369 . S
C535 C539 1.415 . S
C535 C542 1.422 . S
C536 H527 0.929 . S
C536 N534 1.338 . S
C536 C538 1.378 . S
C537 H532 0.931 . S
C537 C538 1.348 . S
C537 C539 1.413 . S
C538 H533 0.930 . S
C538 C536 1.378 . S
C538 C537 1.348 . S
C539 C535 1.415 . S
C539 C537 1.413 . S
C539 C569 1.437 . S
H540 C569 0.929 . S
N541 Gd514 2.570 . S
N541 C542 1.359 . S
N541 C545 1.343 . S
C542 C535 1.422 . S
C542 N541 1.359 . S
C542 C544 1.421 . S
C543 C544 1.422 . S
C543 C546 1.321 . S
C543 H570 0.931 . S
C544 C542 1.421 . S
C544 C543 1.422 . S
C544 C568 1.417 . S
C545 H522 0.931 . S
C545 N541 1.343 . S
C545 C546 1.390 . S
C546 H524 0.930 . S
C546 C543 1.321 . S
C546 C545 1.390 . S
O547 Gd515 2.386 . S
O547 C559 1.265 . S
O548 Gd514 2.353 . S
O548 C559 1.242 . S
O549 Gd514 2.468 . S
O549 C567 1.263 . S
O550 Gd514 2.427 . S
O550 C567 1.252 . S
O551 Gd515 2.307 . S
O551 C560 1.261 . S
O552 Gd514 2.388 . S
O552 C560 1.252 . S
O553 Gd514 2.386 . S
O553 C571 1.265 . S
O554 Gd515 2.353 . S
O554 C571 1.242 . S
O555 Gd515 2.468 . S
O555 C579 1.263 . S
O556 Gd515 2.427 . S
O556 C579 1.252 . S
O557 Gd514 2.307 . S
O557 C572 1.261 . S
O558 Gd515 2.388 . S
O558 C572 1.252 . S
C559 O547 1.265 . S
C559 O548 1.242 . S
C560 O551 1.261 . S
C560 O552 1.252 . S
C561 C564 1.394 . S
C561 C566 1.370 . S
C561 C567 1.500 . S
C562 C565 1.383 . S
C562 C566 1.395 . S
C563 C564 1.396 . S
C563 C565 1.365 . S
C563 H580 0.929 . S
C564 C561 1.394 . S
C564 C563 1.396 . S
C564 H581 0.930 . S
C565 C562 1.383 . S
C565 C563 1.365 . S
C565 H582 0.931 . S
C566 C561 1.370 . S
C566 C562 1.395 . S
C566 H583 0.930 . S
C567 Gd514 2.805 . S
C567 O549 1.263 . S
C567 O550 1.252 . S
C567 C561 1.500 . S
C568 H530 0.930 . S
C568 C544 1.417 . S
C568 C569 1.329 . S
C569 C539 1.437 . S
C569 H540 0.929 . S
C569 C568 1.329 . S
H570 C543 0.931 . S
C571 O553 1.265 . S
C571 O554 1.242 . S
C572 O557 1.261 . S
C572 O558 1.252 . S
C573 C576 1.394 . S
C573 C578 1.370 . S
C573 C579 1.500 . S
C574 C577 1.383 . S
C574 C578 1.395 . S
C575 C576 1.396 . S
C575 C577 1.365 . S
C575 H584 0.929 . S
C576 C573 1.394 . S
C576 C575 1.396 . S
C576 H585 0.930 . S
C577 C574 1.383 . S
C577 C575 1.365 . S
C577 H586 0.931 . S
C578 C573 1.370 . S
C578 C574 1.395 . S
C578 H587 0.930 . S
C579 Gd515 2.805 . S
C579 O555 1.263 . S
C579 O556 1.252 . S
C579 C573 1.500 . S
H580 C563 0.929 . S
H581 C564 0.930 . S
H582 C565 0.931 . S
H583 C566 0.930 . S
H584 C575 0.929 . S
H585 C576 0.930 . S
H586 C577 0.931 . S
H587 C578 0.930 . S
C588 C590 1.422 . S
C588 C592 1.415 . S
C588 N594 1.369 . S
C589 C590 1.421 . S
C589 C591 1.417 . S
C589 C601 1.422 . S
C590 C588 1.422 . S
C590 C589 1.421 . S
C590 N600 1.359 . S
C591 C589 1.417 . S
C591 C593 1.329 . S
C591 H610 0.930 . S
C592 C588 1.415 . S
C592 C593 1.437 . S
C592 C596 1.413 . S
C593 C591 1.329 . S
C593 C592 1.437 . S
C593 H615 0.929 . S
N594 C588 1.369 . S
N594 C595 1.338 . S
N594 Gd599 2.622 . S
C595 N594 1.338 . S
C595 C597 1.378 . S
C595 H607 0.929 . S
C596 C592 1.413 . S
C596 C597 1.348 . S
C596 H612 0.931 . S
C597 C595 1.378 . S
C597 C596 1.348 . S
C597 H613 0.930 . S
Gd598 N618 2.622 . S
Gd598 N625 2.570 . S
Gd598 O632 2.353 . S
Gd598 O633 2.468 . S
Gd598 O634 2.427 . S
Gd598 O636 2.388 . S
Gd598 O637 2.386 . S
Gd598 O641 2.307 . S
Gd598 C651 2.805 . S
Gd599 N594 2.622 . S
Gd599 N600 2.570 . S
Gd599 O631 2.386 . S
Gd599 O635 2.307 . S
Gd599 O638 2.353 . S
Gd599 O639 2.468 . S
Gd599 O640 2.427 . S
Gd599 O642 2.388 . S
Gd599 C663 2.805 . S
N600 C590 1.359 . S
N600 Gd599 2.570 . S
N600 C602 1.343 . S
C601 C589 1.422 . S
C601 C603 1.321 . S
C601 H609 0.931 . S
C602 N600 1.343 . S
C602 C603 1.390 . S
C602 H604 0.931 . S
C603 C601 1.321 . S
C603 C602 1.390 . S
C603 H605 0.930 . S
H604 C602 0.931 . S
H605 C603 0.930 . S
H606 C629 0.931 . S
H607 C595 0.929 . S
H608 C630 0.930 . S
H609 C601 0.931 . S
H610 C591 0.930 . S
H611 C620 0.929 . S
H612 C596 0.931 . S
H613 C597 0.930 . S
H614 C652 0.930 . S
H615 C593 0.929 . S
H616 C621 0.931 . S
H617 C622 0.930 . S
N618 Gd598 2.622 . S
N618 C619 1.369 . S
N618 C620 1.338 . S
C619 N618 1.369 . S
C619 C623 1.415 . S
C619 C626 1.422 . S
C620 H611 0.929 . S
C620 N618 1.338 . S
C620 C622 1.378 . S
C621 H616 0.931 . S
C621 C622 1.348 . S
C621 C623 1.413 . S
C622 H617 0.930 . S
C622 C620 1.378 . S
C622 C621 1.348 . S
C623 C619 1.415 . S
C623 C621 1.413 . S
C623 C653 1.437 . S
H624 C653 0.929 . S
N625 Gd598 2.570 . S
N625 C626 1.359 . S
N625 C629 1.343 . S
C626 C619 1.422 . S
C626 N625 1.359 . S
C626 C628 1.421 . S
C627 C628 1.422 . S
C627 C630 1.321 . S
C627 H654 0.931 . S
C628 C626 1.421 . S
C628 C627 1.422 . S
C628 C652 1.417 . S
C629 H606 0.931 . S
C629 N625 1.343 . S
C629 C630 1.390 . S
C630 H608 0.930 . S
C630 C627 1.321 . S
C630 C629 1.390 . S
O631 Gd599 2.386 . S
O631 C643 1.265 . S
O632 Gd598 2.353 . S
O632 C643 1.242 . S
O633 Gd598 2.468 . S
O633 C651 1.263 . S
O634 Gd598 2.427 . S
O634 C651 1.252 . S
O635 Gd599 2.307 . S
O635 C644 1.261 . S
O636 Gd598 2.388 . S
O636 C644 1.252 . S
O637 Gd598 2.386 . S
O637 C655 1.265 . S
O638 Gd599 2.353 . S
O638 C655 1.242 . S
O639 Gd599 2.468 . S
O639 C663 1.263 . S
O640 Gd599 2.427 . S
O640 C663 1.252 . S
O641 Gd598 2.307 . S
O641 C656 1.261 . S
O642 Gd599 2.388 . S
O642 C656 1.252 . S
C643 O631 1.265 . S
C643 O632 1.242 . S
C644 O635 1.261 . S
C644 O636 1.252 . S
C645 C648 1.394 . S
C645 C650 1.370 . S
C645 C651 1.500 . S
C646 C649 1.383 . S
C646 C650 1.395 . S
C647 C648 1.396 . S
C647 C649 1.365 . S
C647 H664 0.929 . S
C648 C645 1.394 . S
C648 C647 1.396 . S
C648 H665 0.930 . S
C649 C646 1.383 . S
C649 C647 1.365 . S
C649 H666 0.931 . S
C650 C645 1.370 . S
C650 C646 1.395 . S
C650 H667 0.930 . S
C651 Gd598 2.805 . S
C651 O633 1.263 . S
C651 O634 1.252 . S
C651 C645 1.500 . S
C652 H614 0.930 . S
C652 C628 1.417 . S
C652 C653 1.329 . S
C653 C623 1.437 . S
C653 H624 0.929 . S
C653 C652 1.329 . S
H654 C627 0.931 . S
C655 O637 1.265 . S
C655 O638 1.242 . S
C656 O641 1.261 . S
C656 O642 1.252 . S
C657 C660 1.394 . S
C657 C662 1.370 . S
C657 C663 1.500 . S
C658 C661 1.383 . S
C658 C662 1.395 . S
C659 C660 1.396 . S
C659 C661 1.365 . S
C659 H668 0.929 . S
C660 C657 1.394 . S
C660 C659 1.396 . S
C660 H669 0.930 . S
C661 C658 1.383 . S
C661 C659 1.365 . S
C661 H670 0.931 . S
C662 C657 1.370 . S
C662 C658 1.395 . S
C662 H671 0.930 . S
C663 Gd599 2.805 . S
C663 O639 1.263 . S
C663 O640 1.252 . S
C663 C657 1.500 . S
H664 C647 0.929 . S
H665 C648 0.930 . S
H666 C649 0.931 . S
H667 C650 0.930 . S
H668 C659 0.929 . S
H669 C660 0.930 . S
H670 C661 0.931 . S
H671 C662 0.930 . S
C672 C673 1.391 1_556 S
C672 C674 1.394 . S
C672 H688 0.931 . S
C673 C672 1.391 1_554 S
C673 C677 1.376 . S
C674 C672 1.394 . S
C674 C675 1.369 1_556 S
C674 C678 1.531 . S
C675 C674 1.369 1_554 S
C675 C676 1.410 . S
C675 C683 1.503 . S
C676 C675 1.410 . S
C676 C677 1.392 . S
C676 C679 1.511 . S
C677 C673 1.376 . S
C677 C676 1.392 . S
C677 H689 0.929 . S
C678 C674 1.531 . S
C678 H690 0.960 . S
C678 H691 0.962 . S
C678 H692 0.960 . S
C679 C676 1.511 . S
C679 H693 0.961 . S
C679 H694 0.961 . S
C679 H695 0.961 . S
C680 C681 1.370 1_556 S
C680 C682 1.363 . S
C680 H696 0.931 . S
C681 C680 1.370 1_554 S
C681 C685 1.408 . S
C682 C680 1.363 . S
C682 C683 1.370 1_556 S
C682 C686 1.524 . S
C683 C675 1.503 . S
C683 C682 1.370 1_554 S
C683 C684 1.403 . S
C684 C683 1.403 . S
C684 C685 1.404 . S
C684 C687 1.539 . S
C685 C681 1.408 . S
C685 C684 1.404 . S
C685 H697 0.930 . S
C686 C682 1.524 . S
C686 H698 0.956 . S
C686 H699 0.961 . S
C686 H700 0.961 . S
C687 C684 1.539 . S
C687 H701 0.958 . S
C687 H702 0.961 . S
C687 H703 0.960 . S
H688 C672 0.931 . S
H689 C677 0.929 . S
H690 C678 0.960 . S
H691 C678 0.962 . S
H692 C678 0.960 . S
H693 C679 0.961 . S
H694 C679 0.961 . S
H695 C679 0.961 . S
H696 C680 0.931 . S
H697 C685 0.930 . S
H698 C686 0.956 . S
H699 C686 0.961 . S
H700 C686 0.961 . S
H701 C687 0.958 . S
H702 C687 0.961 . S
H703 C687 0.960 . S
C704 C705 1.391 . S
C704 C706 1.394 . S
C704 H720 0.931 . S
C705 C704 1.391 . S
C705 C709 1.376 1_554 S
C706 C704 1.394 . S
C706 C707 1.369 . S
C706 C710 1.531 . S
C707 C706 1.369 . S
C707 C708 1.410 1_554 S
C707 C715 1.503 . S
C708 C707 1.410 1_556 S
C708 C709 1.392 . S
C708 C711 1.511 . S
C709 C705 1.376 1_556 S
C709 C708 1.392 . S
C709 H721 0.929 . S
C710 C706 1.531 . S
C710 H722 0.960 . S
C710 H723 0.962 . S
C710 H724 0.960 . S
C711 C708 1.511 . S
C711 H725 0.961 . S
C711 H726 0.961 . S
C711 H727 0.961 . S
C712 C713 1.370 . S
C712 C714 1.363 . S
C712 H728 0.931 1_554 S
C713 C712 1.370 . S
C713 C717 1.408 . S
C714 C712 1.363 . S
C714 C715 1.370 . S
C714 C718 1.524 1_554 S
C715 C707 1.503 . S
C715 C714 1.370 . S
C715 C716 1.403 . S
C716 C715 1.403 . S
C716 C717 1.404 . S
C716 C719 1.539 . S
C717 C713 1.408 . S
C717 C716 1.404 . S
C717 H729 0.930 . S
C718 C714 1.524 1_556 S
C718 H730 0.956 1_556 S
C718 H731 0.961 . S
C718 H732 0.961 . S
C719 C716 1.539 . S
C719 H733 0.958 . S
C719 H734 0.961 . S
C719 H735 0.960 . S
H720 C704 0.931 . S
H721 C709 0.929 . S
H722 C710 0.960 . S
H723 C710 0.962 . S
H724 C710 0.960 . S
H725 C711 0.961 . S
H726 C711 0.961 . S
H727 C711 0.961 . S
H728 C712 0.931 1_556 S
H729 C717 0.930 . S
H730 C718 0.956 1_554 S
H731 C718 0.961 . S
H732 C718 0.961 . S
H733 C719 0.958 . S
H734 C719 0.961 . S
H735 C719 0.960 . S
C736 C737 1.391 . S
C736 C738 1.394 . S
C736 H752 0.931 . S
C737 C736 1.391 . S
C737 C741 1.376 . S
C738 C736 1.394 . S
C738 C739 1.369 . S
C738 C742 1.531 . S
C739 C738 1.369 . S
C739 C740 1.410 . S
C739 C747 1.503 . S
C740 C739 1.410 . S
C740 C741 1.392 . S
C740 C743 1.511 . S
C741 C737 1.376 . S
C741 C740 1.392 . S
C741 H753 0.929 . S
C742 C738 1.531 . S
C742 H754 0.960 . S
C742 H755 0.962 . S
C742 H756 0.960 . S
C743 C740 1.511 . S
C743 H757 0.961 . S
C743 H758 0.961 . S
C743 H759 0.961 . S
C744 C745 1.370 . S
C744 C746 1.363 . S
C744 H760 0.931 . S
C745 C744 1.370 . S
C745 C749 1.408 . S
C746 C744 1.363 . S
C746 C747 1.370 . S
C746 C750 1.524 . S
C747 C739 1.503 . S
C747 C746 1.370 . S
C747 C748 1.403 . S
C748 C747 1.403 . S
C748 C749 1.404 . S
C748 C751 1.539 . S
C749 C745 1.408 . S
C749 C748 1.404 . S
C749 H761 0.930 . S
C750 C746 1.524 . S
C750 H762 0.956 . S
C750 H763 0.961 . S
C750 H764 0.961 . S
C751 C748 1.539 . S
C751 H765 0.958 . S
C751 H766 0.961 . S
C751 H767 0.960 . S
H752 C736 0.931 . S
H753 C741 0.929 . S
H754 C742 0.960 . S
H755 C742 0.962 . S
H756 C742 0.960 . S
H757 C743 0.961 . S
H758 C743 0.961 . S
H759 C743 0.961 . S
H760 C744 0.931 . S
H761 C749 0.930 . S
H762 C750 0.956 . S
H763 C750 0.961 . S
H764 C750 0.961 . S
H765 C751 0.958 . S
H766 C751 0.961 . S
H767 C751 0.960 . S
C768 C769 1.391 . S
C768 C770 1.394 . S
C768 H784 0.931 . S
C769 C768 1.391 . S
C769 C773 1.376 . S
C770 C768 1.394 . S
C770 C771 1.369 . S
C770 C774 1.531 . S
C771 C770 1.369 . S
C771 C772 1.410 . S
C771 C779 1.503 . S
C772 C771 1.410 . S
C772 C773 1.392 . S
C772 C775 1.511 . S
C773 C769 1.376 . S
C773 C772 1.392 . S
C773 H785 0.929 . S
C774 C770 1.531 . S
C774 H786 0.960 . S
C774 H787 0.962 . S
C774 H788 0.960 . S
C775 C772 1.511 . S
C775 H789 0.961 . S
C775 H790 0.961 . S
C775 H791 0.961 . S
C776 C777 1.370 . S
C776 C778 1.363 . S
C776 H792 0.931 . S
C777 C776 1.370 . S
C777 C781 1.408 . S
C778 C776 1.363 . S
C778 C779 1.370 . S
C778 C782 1.524 . S
C779 C771 1.503 . S
C779 C778 1.370 . S
C779 C780 1.403 . S
C780 C779 1.403 . S
C780 C781 1.404 . S
C780 C783 1.539 . S
C781 C777 1.408 . S
C781 C780 1.404 . S
C781 H793 0.930 . S
C782 C778 1.524 . S
C782 H794 0.956 . S
C782 H795 0.961 . S
C782 H796 0.961 . S
C783 C780 1.539 . S
C783 H797 0.958 . S
C783 H798 0.961 . S
C783 H799 0.960 . S
H784 C768 0.931 . S
H785 C773 0.929 . S
H786 C774 0.960 . S
H787 C774 0.962 . S
H788 C774 0.960 . S
H789 C775 0.961 . S
H790 C775 0.961 . S
H791 C775 0.961 . S
H792 C776 0.931 . S
H793 C781 0.930 . S
H794 C782 0.956 . S
H795 C782 0.961 . S
H796 C782 0.961 . S
H797 C783 0.958 . S
H798 C783 0.961 . S
H799 C783 0.960 . S
C800 C801 1.391 . S
C800 C802 1.394 . S
C800 H816 0.931 . S
C801 C800 1.391 . S
C801 C805 1.376 1_554 S
C802 C800 1.394 . S
C802 C803 1.369 1_655 S
C802 C806 1.531 1_655 S
C803 C802 1.369 1_455 S
C803 C804 1.409 1_454 S
C803 C811 1.503 . S
C804 C803 1.409 1_656 S
C804 C805 1.393 . S
C804 C807 1.512 1_655 S
C805 C801 1.376 1_556 S
C805 C804 1.393 . S
C805 H817 0.929 . S
C806 C802 1.531 1_455 S
C806 H818 0.960 . S
C806 H819 0.962 . S
C806 H820 0.960 1_455 S
C807 C804 1.512 1_455 S
C807 H821 0.961 . S
C807 H822 0.961 . S
C807 H823 0.961 1_556 S
C808 C809 1.370 1_556 S
C808 C810 1.363 . S
C808 H824 0.931 . S
C809 C808 1.370 1_554 S
C809 C813 1.408 . S
C810 C808 1.363 . S
C810 C811 1.370 1_556 S
C810 C814 1.524 . S
C811 C803 1.503 . S
C811 C810 1.370 1_554 S
C811 C812 1.403 . S
C812 C811 1.403 . S
C812 C813 1.404 . S
C812 C815 1.539 . S
C813 C809 1.408 . S
C813 C812 1.404 . S
C813 H825 0.930 . S
C814 C810 1.524 . S
C814 H826 0.956 . S
C814 H827 0.961 . S
C814 H828 0.961 . S
C815 C812 1.539 . S
C815 H829 0.958 . S
C815 H830 0.961 . S
C815 H831 0.960 . S
H816 C800 0.931 . S
H817 C805 0.929 . S
H818 C806 0.960 . S
H819 C806 0.962 . S
H820 C806 0.960 1_655 S
H821 C807 0.961 . S
H822 C807 0.961 . S
H823 C807 0.961 1_554 S
H824 C808 0.931 . S
H825 C813 0.930 . S
H826 C814 0.956 . S
H827 C814 0.961 . S
H828 C814 0.961 . S
H829 C815 0.958 . S
H830 C815 0.961 . S
H831 C815 0.960 . S
C832 C833 1.391 . S
C832 C834 1.394 . S
C832 H848 0.931 . S
C833 C832 1.391 . S
C833 C837 1.376 . S
C834 C832 1.394 . S
C834 C835 1.369 1_455 S
C834 C838 1.525 1_455 S
C835 C834 1.369 1_655 S
C835 C836 1.410 1_655 S
C835 C843 1.503 . S
C836 C835 1.410 1_455 S
C836 C837 1.392 . S
C836 C839 1.511 1_455 S
C837 C833 1.376 . S
C837 C836 1.392 . S
C837 H849 0.929 . S
C838 C834 1.525 1_655 S
C838 H850 0.972 . S
C838 H851 0.965 1_554 S
C838 H852 0.951 1_655 S
C839 C836 1.511 1_655 S
C839 H853 0.961 . S
C839 H854 0.961 . S
C839 H855 0.961 . S
C840 C841 1.370 1_556 S
C840 C842 1.363 . S
C840 H856 0.931 . S
C841 C840 1.370 1_554 S
C841 C845 1.408 . S
C842 C840 1.363 . S
C842 C843 1.370 1_556 S
C842 C846 1.524 . S
C843 C835 1.503 . S
C843 C842 1.370 1_554 S
C843 C844 1.403 . S
C844 C843 1.403 . S
C844 C845 1.404 . S
C844 C847 1.539 . S
C845 C841 1.408 . S
C845 C844 1.404 . S
C845 H857 0.930 . S
C846 C842 1.524 . S
C846 H858 0.956 . S
C846 H859 0.961 . S
C846 H860 0.961 . S
C847 C844 1.539 . S
C847 H861 0.958 . S
C847 H862 0.961 . S
C847 H863 0.960 . S
H848 C832 0.931 . S
H849 C837 0.929 . S
H850 C838 0.972 . S
H851 C838 0.965 1_556 S
H852 C838 0.951 1_455 S
H853 C839 0.961 . S
H854 C839 0.961 . S
H855 C839 0.961 . S
H856 C840 0.931 . S
H857 C845 0.930 . S
H858 C846 0.956 . S
H859 C846 0.961 . S
H860 C846 0.961 . S
H861 C847 0.958 . S
H862 C847 0.961 . S
H863 C847 0.960 . S
C864 C865 1.391 . S
C864 C866 1.394 . S
C864 H880 0.931 . S
C865 C864 1.391 . S
C865 C869 1.376 . S
C866 C864 1.394 . S
C866 C867 1.369 . S
C866 C870 1.531 . S
C867 C866 1.369 . S
C867 C868 1.410 . S
C867 C875 1.503 . S
C868 C867 1.410 . S
C868 C869 1.392 . S
C868 C871 1.511 . S
C869 C865 1.376 . S
C869 C868 1.392 . S
C869 H881 0.929 . S
C870 C866 1.531 . S
C870 H882 0.960 . S
C870 H883 0.962 . S
C870 H884 0.960 . S
C871 C868 1.511 . S
C871 H885 0.961 . S
C871 H886 0.961 . S
C871 H887 0.961 . S
C872 C873 1.370 . S
C872 C874 1.363 . S
C872 H888 0.931 . S
C873 C872 1.370 . S
C873 C877 1.408 . S
C874 C872 1.363 . S
C874 C875 1.370 1_655 S
C874 C878 1.524 1_655 S
C875 C867 1.503 . S
C875 C874 1.370 1_455 S
C875 C876 1.403 1_455 S
C876 C875 1.403 1_655 S
C876 C877 1.404 . S
C876 C879 1.539 1_655 S
C877 C873 1.408 . S
C877 C876 1.404 . S
C877 H889 0.930 . S
C878 C874 1.524 1_455 S
C878 H890 0.956 . S
C878 H891 0.961 . S
C878 H892 0.961 1_455 S
C879 C876 1.539 1_455 S
C879 H893 0.958 . S
C879 H894 0.961 1_455 S
C879 H895 0.960 . S
H880 C864 0.931 . S
H881 C869 0.929 . S
H882 C870 0.960 . S
H883 C870 0.962 . S
H884 C870 0.960 . S
H885 C871 0.961 . S
H886 C871 0.961 . S
H887 C871 0.961 . S
H888 C872 0.931 . S
H889 C877 0.930 . S
H890 C878 0.956 . S
H891 C878 0.961 . S
H892 C878 0.961 1_655 S
H893 C879 0.958 . S
H894 C879 0.961 1_655 S
H895 C879 0.960 . S
C896 C897 1.391 . S
C896 C898 1.394 . S
C896 H912 0.931 . S
C897 C896 1.391 . S
C897 C901 1.376 . S
C898 C896 1.394 . S
C898 C899 1.369 . S
C898 C902 1.531 . S
C899 C898 1.369 . S
C899 C900 1.410 . S
C899 C907 1.503 . S
C900 C899 1.410 . S
C900 C901 1.392 . S
C900 C903 1.511 . S
C901 C897 1.376 . S
C901 C900 1.392 . S
C901 H913 0.929 . S
C902 C898 1.531 . S
C902 H914 0.960 . S
C902 H915 0.962 . S
C902 H916 0.960 . S
C903 C900 1.511 . S
C903 H917 0.961 . S
C903 H918 0.961 . S
C903 H919 0.961 . S
C904 C905 1.370 . S
C904 C906 1.363 . S
C904 H920 0.931 . S
C905 C904 1.370 . S
C905 C909 1.408 . S
C906 C904 1.363 . S
C906 C907 1.370 1_455 S
C906 C910 1.524 1_455 S
C907 C899 1.503 . S
C907 C906 1.370 1_655 S
C907 C908 1.403 1_655 S
C908 C907 1.403 1_455 S
C908 C909 1.404 . S
C908 C911 1.539 1_455 S
C909 C905 1.408 . S
C909 C908 1.404 . S
C909 H921 0.930 . S
C910 C906 1.524 1_655 S
C910 H922 0.956 . S
C910 H923 0.961 . S
C910 H924 0.961 1_655 S
C911 C908 1.539 1_655 S
C911 H925 0.958 . S
C911 H926 0.961 1_655 S
C911 H927 0.960 . S
H912 C896 0.931 . S
H913 C901 0.929 . S
H914 C902 0.960 . S
H915 C902 0.962 . S
H916 C902 0.960 . S
H917 C903 0.961 . S
H918 C903 0.961 . S
H919 C903 0.961 . S
H920 C904 0.931 . S
H921 C909 0.930 . S
H922 C910 0.956 . S
H923 C910 0.961 . S
H924 C910 0.961 1_455 S
H925 C911 0.958 . S
H926 C911 0.961 1_455 S
H927 C911 0.960 . S
C928 C929 1.391 1_655 S
C928 C930 1.394 1_554 S
C928 H944 0.931 1_554 S
C929 C928 1.391 1_455 S
C929 C933 1.376 . S
C930 C928 1.394 1_556 S
C930 C931 1.369 1_656 S
C930 C934 1.531 . S
C931 C930 1.369 1_454 S
C931 C932 1.410 . S
C931 C939 1.503 1_455 S
C932 C931 1.410 . S
C932 C933 1.392 . S
C932 C935 1.511 . S
C933 C929 1.376 . S
C933 C932 1.392 . S
C933 H945 0.929 . S
C934 C930 1.531 . S
C934 H946 0.960 . S
C934 H947 0.962 1_556 S
C934 H948 0.960 . S
C935 C932 1.511 . S
C935 H949 0.961 . S
C935 H950 0.961 . S
C935 H951 0.961 1_554 S
C936 C937 1.370 . S
C936 C938 1.363 . S
C936 H952 0.931 . S
C937 C936 1.370 . S
C937 C941 1.408 1_554 S
C938 C936 1.363 . S
C938 C939 1.370 . S
C938 C942 1.524 . S
C939 C931 1.503 1_655 S
C939 C938 1.370 . S
C939 C940 1.403 1_554 S
C940 C939 1.403 1_556 S
C940 C941 1.404 . S
C940 C943 1.539 1_655 S
C941 C937 1.408 1_556 S
C941 C940 1.404 . S
C941 H953 0.930 . S
C942 C938 1.524 . S
C942 H954 0.956 . S
C942 H955 0.961 1_655 S
C942 H956 0.961 . S
C943 C940 1.539 1_455 S
C943 H957 0.958 1_455 S
C943 H958 0.961 . S
C943 H959 0.960 . S
H944 C928 0.931 1_556 S
H945 C933 0.929 . S
H946 C934 0.960 . S
H947 C934 0.962 1_554 S
H948 C934 0.960 . S
H949 C935 0.961 . S
H950 C935 0.961 . S
H951 C935 0.961 1_556 S
H952 C936 0.931 . S
H953 C941 0.930 . S
H954 C942 0.956 . S
H955 C942 0.961 1_455 S
H956 C942 0.961 . S
H957 C943 0.958 1_655 S
H958 C943 0.961 . S
H959 C943 0.960 . S
C960 C961 1.391 . S
C960 C962 1.394 . S
C960 H976 0.931 . S
C961 C960 1.391 . S
C961 C965 1.376 1_455 S
C962 C960 1.394 . S
C962 C963 1.369 . S
C962 C966 1.531 . S
C963 C962 1.369 . S
C963 C964 1.410 1_455 S
C963 C971 1.503 1_455 S
C964 C963 1.410 1_655 S
C964 C965 1.392 . S
C964 C967 1.511 . S
C965 C961 1.376 1_655 S
C965 C964 1.392 . S
C965 H977 0.929 . S
C966 C962 1.531 . S
C966 H978 0.960 . S
C966 H979 0.962 . S
C966 H980 0.960 . S
C967 C964 1.511 . S
C967 H981 0.961 . S
C967 H982 0.961 . S
C967 H983 0.961 . S
C968 C969 1.370 . S
C968 C970 1.363 . S
C968 H984 0.931 . S
C969 C968 1.370 . S
C969 C973 1.408 . S
C970 C968 1.363 . S
C970 C971 1.370 . S
C970 C974 1.524 1_655 S
C971 C963 1.503 1_655 S
C971 C970 1.370 . S
C971 C972 1.403 . S
C972 C971 1.403 . S
C972 C973 1.404 . S
C972 C975 1.539 . S
C973 C969 1.408 . S
C973 C972 1.404 . S
C973 H985 0.930 . S
C974 C970 1.524 1_455 S
C974 H986 0.956 . S
C974 H987 0.961 . S
C974 H988 0.961 . S
C975 C972 1.539 . S
C975 H989 0.958 . S
C975 H990 0.961 . S
C975 H991 0.960 . S
H976 C960 0.931 . S
H977 C965 0.929 . S
H978 C966 0.960 . S
H979 C966 0.962 . S
H980 C966 0.960 . S
H981 C967 0.961 . S
H982 C967 0.961 . S
H983 C967 0.961 . S
H984 C968 0.931 . S
H985 C973 0.930 . S
H986 C974 0.956 . S
H987 C974 0.961 . S
H988 C974 0.961 . S
H989 C975 0.958 . S
H990 C975 0.961 . S
H991 C975 0.960 . S
C992 C993 1.391 1_556 S
C992 C994 1.394 . S
C992 H1008 0.931 . S
C993 C992 1.391 1_554 S
C993 C997 1.376 . S
C994 C992 1.394 . S
C994 C995 1.369 1_556 S
C994 C998 1.531 . S
C995 C994 1.369 1_554 S
C995 C996 1.410 . S
C995 C1003 1.503 1_565 S
C996 C995 1.410 . S
C996 C997 1.392 . S
C996 C999 1.511 1_565 S
C997 C993 1.376 . S
C997 C996 1.392 . S
C997 H1009 0.929 . S
C998 C994 1.531 . S
C998 H1010 0.960 . S
C998 H1011 0.962 . S
C998 H1012 0.960 . S
C999 C996 1.511 1_545 S
C999 H1013 0.961 . S
C999 H1014 0.961 . S
C999 H1015 0.961 . S
C1000 C1001 1.370 . S
C1000 C1002 1.363 . S
C1000 H1016 0.931 . S
C1001 C1000 1.370 . S
C1001 C1005 1.408 1_554 S
C1002 C1000 1.363 . S
C1002 C1003 1.370 . S
C1002 C1006 1.524 . S
C1003 C995 1.503 1_545 S
C1003 C1002 1.370 . S
C1003 C1004 1.403 1_554 S
C1004 C1003 1.403 1_556 S
C1004 C1005 1.404 . S
C1004 C1007 1.539 . S
C1005 C1001 1.408 1_556 S
C1005 C1004 1.404 . S
C1005 H1017 0.930 . S
C1006 C1002 1.524 . S
C1006 H1018 0.961 1_545 S
C1006 H1019 0.961 . S
C1006 H1020 0.961 . S
C1007 C1004 1.539 . S
C1007 H1021 0.958 1_545 S
C1007 H1022 0.961 . S
C1007 H1023 0.960 1_545 S
H1008 C992 0.931 . S
H1009 C997 0.929 . S
H1010 C998 0.960 . S
H1011 C998 0.962 . S
H1012 C998 0.960 . S
H1013 C999 0.961 . S
H1014 C999 0.961 . S
H1015 C999 0.961 . S
H1016 C1000 0.931 . S
H1017 C1005 0.930 . S
H1018 C1006 0.961 1_565 S
H1019 C1006 0.961 . S
H1020 C1006 0.961 . S
H1021 C1007 0.958 1_565 S
H1022 C1007 0.961 . S
H1023 C1007 0.960 1_565 S
C1024 C1025 1.391 . S
C1024 C1026 1.394 . S
C1024 H1040 0.931 . S
C1025 C1024 1.391 . S
C1025 C1029 1.376 . S
C1026 C1024 1.394 . S
C1026 C1027 1.369 . S
C1026 C1030 1.531 1_545 S
C1027 C1026 1.369 . S
C1027 C1028 1.410 . S
C1027 C1035 1.503 1_545 S
C1028 C1027 1.410 . S
C1028 C1029 1.392 . S
C1028 C1031 1.511 . S
C1029 C1025 1.376 . S
C1029 C1028 1.392 . S
C1029 H1041 0.929 . S
C1030 C1026 1.531 1_565 S
C1030 H1042 0.960 . S
C1030 H1043 0.962 . S
C1030 H1044 0.960 . S
C1031 C1028 1.511 . S
C1031 H1045 0.961 . S
C1031 H1046 0.961 . S
C1031 H1047 0.961 . S
C1032 C1033 1.370 . S
C1032 C1034 1.363 . S
C1032 H1048 0.931 . S
C1033 C1032 1.370 . S
C1033 C1037 1.408 . S
C1034 C1032 1.363 . S
C1034 C1035 1.370 . S
C1034 C1038 1.524 . S
C1035 C1027 1.503 1_565 S
C1035 C1034 1.370 . S
C1035 C1036 1.403 . S
C1036 C1035 1.403 . S
C1036 C1037 1.404 . S
C1036 C1039 1.539 . S
C1037 C1033 1.408 . S
C1037 C1036 1.404 . S
C1037 H1049 0.930 . S
C1038 C1034 1.524 . S
C1038 H1050 0.956 . S
C1038 H1051 0.961 1_565 S
C1038 H1052 0.961 . S
C1039 C1036 1.539 . S
C1039 H1053 0.958 . S
C1039 H1054 0.961 . S
C1039 H1055 0.960 . S
H1040 C1024 0.931 . S
H1041 C1029 0.929 . S
H1042 C1030 0.960 . S
H1043 C1030 0.962 . S
H1044 C1030 0.960 . S
H1045 C1031 0.961 . S
H1046 C1031 0.961 . S
H1047 C1031 0.961 . S
H1048 C1032 0.931 . S
H1049 C1037 0.930 . S
H1050 C1038 0.956 . S
H1051 C1038 0.961 1_545 S
H1052 C1038 0.961 . S
H1053 C1039 0.958 . S
H1054 C1039 0.961 . S
H1055 C1039 0.960 . S
C1056 C1057 1.391 . S
C1056 C1058 1.394 . S
C1056 H1072 0.931 . S
C1057 C1056 1.391 . S
C1057 C1061 1.376 . S
C1058 C1056 1.394 . S
C1058 C1059 1.369 . S
C1058 C1062 1.531 . S
C1059 C1058 1.369 . S
C1059 C1060 1.410 . S
C1059 C1067 1.503 . S
C1060 C1059 1.410 . S
C1060 C1061 1.392 . S
C1060 C1063 1.511 . S
C1061 C1057 1.376 . S
C1061 C1060 1.392 . S
C1061 H1073 0.929 . S
C1062 C1058 1.531 . S
C1062 H1074 0.960 . S
C1062 H1075 0.962 . S
C1062 H1076 0.960 . S
C1063 C1060 1.511 . S
C1063 H1077 0.961 . S
C1063 H1078 0.961 . S
C1063 H1079 0.961 . S
C1064 C1065 1.370 1_556 S
C1064 C1066 1.363 . S
C1064 H1080 0.931 . S
C1065 C1064 1.370 1_554 S
C1065 C1069 1.408 . S
C1066 C1064 1.363 . S
C1066 C1067 1.370 1_556 S
C1066 C1070 1.524 . S
C1067 C1059 1.503 . S
C1067 C1066 1.370 1_554 S
C1067 C1068 1.403 . S
C1068 C1067 1.403 . S
C1068 C1069 1.404 . S
C1068 C1071 1.539 . S
C1069 C1065 1.408 . S
C1069 C1068 1.404 . S
C1069 H1081 0.930 . S
C1070 C1066 1.524 . S
C1070 H1082 0.956 . S
C1070 H1083 0.961 . S
C1070 H1084 0.961 . S
C1071 C1068 1.539 . S
C1071 H1085 0.958 . S
C1071 H1086 0.961 . S
C1071 H1087 0.960 . S
H1072 C1056 0.931 . S
H1073 C1061 0.929 . S
H1074 C1062 0.960 . S
H1075 C1062 0.962 . S
H1076 C1062 0.960 . S
H1077 C1063 0.961 . S
H1078 C1063 0.961 . S
H1079 C1063 0.961 . S
H1080 C1064 0.931 . S
H1081 C1069 0.930 . S
H1082 C1070 0.956 . S
H1083 C1070 0.961 . S
H1084 C1070 0.961 . S
H1085 C1071 0.958 . S
H1086 C1071 0.961 . S
H1087 C1071 0.960 . S
C1088 C1089 1.391 1_556 S
C1088 C1090 1.394 . S
C1088 H1104 0.931 . S
C1089 C1088 1.391 1_554 S
C1089 C1093 1.376 . S
C1090 C1088 1.394 . S
C1090 C1091 1.369 1_556 S
C1090 C1094 1.531 . S
C1091 C1090 1.369 1_554 S
C1091 C1092 1.410 . S
C1091 C1099 1.503 . S
C1092 C1091 1.410 . S
C1092 C1093 1.392 . S
C1092 C1095 1.511 . S
C1093 C1089 1.376 . S
C1093 C1092 1.392 . S
C1093 H1105 0.929 . S
C1094 C1090 1.531 . S
C1094 H1106 0.960 . S
C1094 H1107 0.962 . S
C1094 H1108 0.960 . S
C1095 C1092 1.511 . S
C1095 H1109 0.961 . S
C1095 H1110 0.961 . S
C1095 H1111 0.961 . S
C1096 C1097 1.370 . S
C1096 C1098 1.363 . S
C1096 H1112 0.931 . S
C1097 C1096 1.370 . S
C1097 C1101 1.408 1_554 S
C1098 C1096 1.363 . S
C1098 C1099 1.370 . S
C1098 C1102 1.524 . S
C1099 C1091 1.503 . S
C1099 C1098 1.370 . S
C1099 C1100 1.403 1_554 S
C1100 C1099 1.403 1_556 S
C1100 C1101 1.404 . S
C1100 C1103 1.539 . S
C1101 C1097 1.408 1_556 S
C1101 C1100 1.404 . S
C1101 H1113 0.930 . S
C1102 C1098 1.524 . S
C1102 H1114 0.956 . S
C1102 H1115 0.961 . S
C1102 H1116 0.961 . S
C1103 C1100 1.539 . S
C1103 H1117 0.958 . S
C1103 H1118 0.961 . S
C1103 H1119 0.960 . S
H1104 C1088 0.931 . S
H1105 C1093 0.929 . S
H1106 C1094 0.960 . S
H1107 C1094 0.962 . S
H1108 C1094 0.960 . S
H1109 C1095 0.961 . S
H1110 C1095 0.961 . S
H1111 C1095 0.961 . S
H1112 C1096 0.931 . S
H1113 C1101 0.930 . S
H1114 C1102 0.956 . S
H1115 C1102 0.961 . S
H1116 C1102 0.961 . S
H1117 C1103 0.958 . S
H1118 C1103 0.961 . S
H1119 C1103 0.960 . S
C1120 C1121 1.391 . S
C1120 C1122 1.394 . S
C1120 H1136 0.931 . S
C1121 C1120 1.391 . S
C1121 C1125 1.376 . S
C1122 C1120 1.394 . S
C1122 C1123 1.369 . S
C1122 C1126 1.531 . S
C1123 C1122 1.369 . S
C1123 C1124 1.410 . S
C1123 C1131 1.503 . S
C1124 C1123 1.410 . S
C1124 C1125 1.392 . S
C1124 C1127 1.511 . S
C1125 C1121 1.376 . S
C1125 C1124 1.392 . S
C1125 H1137 0.929 . S
C1126 C1122 1.531 . S
C1126 H1138 0.960 . S
C1126 H1139 0.962 . S
C1126 H1140 0.960 . S
C1127 C1124 1.511 . S
C1127 H1141 0.961 . S
C1127 H1142 0.961 . S
C1127 H1143 0.961 . S
C1128 C1129 1.370 . S
C1128 C1130 1.363 . S
C1128 H1144 0.931 . S
C1129 C1128 1.370 . S
C1129 C1133 1.408 . S
C1130 C1128 1.363 . S
C1130 C1131 1.370 . S
C1130 C1134 1.524 . S
C1131 C1123 1.503 . S
C1131 C1130 1.370 . S
C1131 C1132 1.403 . S
C1132 C1131 1.403 . S
C1132 C1133 1.404 . S
C1132 C1135 1.539 . S
C1133 C1129 1.408 . S
C1133 C1132 1.404 . S
C1133 H1145 0.930 . S
C1134 C1130 1.524 . S
C1134 H1146 0.956 . S
C1134 H1147 0.961 . S
C1134 H1148 0.961 . S
C1135 C1132 1.539 . S
C1135 H1149 0.958 . S
C1135 H1150 0.961 . S
C1135 H1151 0.960 . S
H1136 C1120 0.931 . S
H1137 C1125 0.929 . S
H1138 C1126 0.960 . S
H1139 C1126 0.962 . S
H1140 C1126 0.960 . S
H1141 C1127 0.961 . S
H1142 C1127 0.961 . S
H1143 C1127 0.961 . S
H1144 C1128 0.931 . S
H1145 C1133 0.930 . S
H1146 C1134 0.956 . S
H1147 C1134 0.961 . S
H1148 C1134 0.961 . S
H1149 C1135 0.958 . S
H1150 C1135 0.961 . S
H1151 C1135 0.960 . S
C1152 C1153 1.391 . S
C1152 C1154 1.394 . S
C1152 H1168 0.931 . S
C1153 C1152 1.391 . S
C1153 C1157 1.376 . S
C1154 C1152 1.394 . S
C1154 C1155 1.369 . S
C1154 C1158 1.531 . S
C1155 C1154 1.369 . S
C1155 C1156 1.410 . S
C1155 C1163 1.503 . S
C1156 C1155 1.410 . S
C1156 C1157 1.392 . S
C1156 C1159 1.511 . S
C1157 C1153 1.376 . S
C1157 C1156 1.392 . S
C1157 H1169 0.929 . S
C1158 C1154 1.531 . S
C1158 H1170 0.960 . S
C1158 H1171 0.962 . S
C1158 H1172 0.960 . S
C1159 C1156 1.511 . S
C1159 H1173 0.961 . S
C1159 H1174 0.961 . S
C1159 H1175 0.961 . S
C1160 C1161 1.370 . S
C1160 C1162 1.363 . S
C1160 H1176 0.931 . S
C1161 C1160 1.370 . S
C1161 C1165 1.408 . S
C1162 C1160 1.363 . S
C1162 C1163 1.370 . S
C1162 C1166 1.524 . S
C1163 C1155 1.503 . S
C1163 C1162 1.370 . S
C1163 C1164 1.403 . S
C1164 C1163 1.403 . S
C1164 C1165 1.404 . S
C1164 C1167 1.539 . S
C1165 C1161 1.408 . S
C1165 C1164 1.404 . S
C1165 H1177 0.930 . S
C1166 C1162 1.524 . S
C1166 H1178 0.956 . S
C1166 H1179 0.961 . S
C1166 H1180 0.961 . S
C1167 C1164 1.539 . S
C1167 H1181 0.958 . S
C1167 H1182 0.961 . S
C1167 H1183 0.960 . S
H1168 C1152 0.931 . S
H1169 C1157 0.929 . S
H1170 C1158 0.960 . S
H1171 C1158 0.962 . S
H1172 C1158 0.960 . S
H1173 C1159 0.961 . S
H1174 C1159 0.961 . S
H1175 C1159 0.961 . S
H1176 C1160 0.931 . S
H1177 C1165 0.930 . S
H1178 C1166 0.956 . S
H1179 C1166 0.961 . S
H1180 C1166 0.961 . S
H1181 C1167 0.958 . S
H1182 C1167 0.961 . S
H1183 C1167 0.960 . S
C1184 C1185 1.391 . S
C1184 C1186 1.394 . S
C1184 H1200 0.931 . S
C1185 C1184 1.391 . S
C1185 C1189 1.376 1_455 S
C1186 C1184 1.394 . S
C1186 C1187 1.375 . S
C1186 C1190 1.531 . S
C1187 C1186 1.375 . S
C1187 C1188 1.405 1_455 S
C1187 C1195 1.502 1_455 S
C1188 C1187 1.405 1_655 S
C1188 C1189 1.392 . S
C1188 C1191 1.511 . S
C1189 C1185 1.376 1_655 S
C1189 C1188 1.392 . S
C1189 H1201 0.929 . S
C1190 C1186 1.531 . S
C1190 H1202 0.960 . S
C1190 H1203 0.962 . S
C1190 H1204 0.960 . S
C1191 C1188 1.511 . S
C1191 H1205 0.961 . S
C1191 H1206 0.961 . S
C1191 H1207 0.961 . S
C1192 C1193 1.370 . S
C1192 C1194 1.363 . S
C1192 H1208 0.931 . S
C1193 C1192 1.370 . S
C1193 C1197 1.408 . S
C1194 C1192 1.363 . S
C1194 C1195 1.370 . S
C1194 C1198 1.524 1_655 S
C1195 C1187 1.502 1_655 S
C1195 C1194 1.370 . S
C1195 C1196 1.403 . S
C1196 C1195 1.403 . S
C1196 C1197 1.404 . S
C1196 C1199 1.539 . S
C1197 C1193 1.408 . S
C1197 C1196 1.404 . S
C1197 H1209 0.930 . S
C1198 C1194 1.524 1_455 S
C1198 H1210 0.956 . S
C1198 H1211 0.961 . S
C1198 H1212 0.961 . S
C1199 C1196 1.539 . S
C1199 H1213 0.958 . S
C1199 H1214 0.961 . S
C1199 H1215 0.960 . S
H1200 C1184 0.931 . S
H1201 C1189 0.929 . S
H1202 C1190 0.960 . S
H1203 C1190 0.962 . S
H1204 C1190 0.960 . S
H1205 C1191 0.961 . S
H1206 C1191 0.961 . S
H1207 C1191 0.961 . S
H1208 C1192 0.931 . S
H1209 C1197 0.930 . S
H1210 C1198 0.956 . S
H1211 C1198 0.961 . S
H1212 C1198 0.961 . S
H1213 C1199 0.958 . S
H1214 C1199 0.961 . S
H1215 C1199 0.960 . S
C1216 C1217 1.391 1_455 S
C1216 C1218 1.394 . S
C1216 H1232 0.931 . S
C1217 C1216 1.391 1_655 S
C1217 C1221 1.376 . S
C1218 C1216 1.394 . S
C1218 C1219 1.369 1_455 S
C1218 C1222 1.531 . S
C1219 C1218 1.369 1_655 S
C1219 C1220 1.410 . S
C1219 C1227 1.506 . S
C1220 C1219 1.410 . S
C1220 C1221 1.392 . S
C1220 C1223 1.511 . S
C1221 C1217 1.376 . S
C1221 C1220 1.392 . S
C1221 H1233 0.929 . S
C1222 C1218 1.531 . S
C1222 H1234 0.960 . S
C1222 H1235 0.962 . S
C1222 H1236 0.960 . S
C1223 C1220 1.511 . S
C1223 H1237 0.961 . S
C1223 H1238 0.961 . S
C1223 H1239 0.961 . S
C1224 C1225 1.370 . S
C1224 C1226 1.363 . S
C1224 H1240 0.931 . S
C1225 C1224 1.370 . S
C1225 C1229 1.408 1_455 S
C1226 C1224 1.363 . S
C1226 C1227 1.364 1_455 S
C1226 C1230 1.524 . S
C1227 C1219 1.506 . S
C1227 C1226 1.364 1_655 S
C1227 C1228 1.406 . S
C1228 C1227 1.406 . S
C1228 C1229 1.404 . S
C1228 C1231 1.539 . S
C1229 C1225 1.408 1_655 S
C1229 C1228 1.404 . S
C1229 H1241 0.930 . S
C1230 C1226 1.524 . S
C1230 H1242 0.956 . S
C1230 H1243 0.961 . S
C1230 H1244 0.961 . S
C1231 C1228 1.539 . S
C1231 H1245 0.958 . S
C1231 H1246 0.961 . S
C1231 H1247 0.960 . S
H1232 C1216 0.931 . S
H1233 C1221 0.929 . S
H1234 C1222 0.960 . S
H1235 C1222 0.962 . S
H1236 C1222 0.960 . S
H1237 C1223 0.961 . S
H1238 C1223 0.961 . S
H1239 C1223 0.961 . S
H1240 C1224 0.931 . S
H1241 C1229 0.930 . S
H1242 C1230 0.956 . S
H1243 C1230 0.961 . S
H1244 C1230 0.961 . S
H1245 C1231 0.958 . S
H1246 C1231 0.961 . S
H1247 C1231 0.960 . S
C1248 C1249 1.391 . S
C1248 C1250 1.394 . S
C1248 H1264 0.931 . S
C1249 C1248 1.391 . S
C1249 C1253 1.376 1_655 S
C1250 C1248 1.394 . S
C1250 C1251 1.369 1_655 S
C1250 C1254 1.531 . S
C1251 C1250 1.369 1_455 S
C1251 C1252 1.410 . S
C1251 C1259 1.503 . S
C1252 C1251 1.410 . S
C1252 C1253 1.392 . S
C1252 C1255 1.511 . S
C1253 C1249 1.376 1_455 S
C1253 C1252 1.392 . S
C1253 H1265 0.929 . S
C1254 C1250 1.531 . S
C1254 H1266 0.960 . S
C1254 H1267 0.962 . S
C1254 H1268 0.960 . S
C1255 C1252 1.511 . S
C1255 H1269 0.961 . S
C1255 H1270 0.961 . S
C1255 H1271 0.961 . S
C1256 C1257 1.370 . S
C1256 C1258 1.363 1_455 S
C1256 H1272 0.931 1_455 S
C1257 C1256 1.370 . S
C1257 C1261 1.408 . S
C1258 C1256 1.363 1_655 S
C1258 C1259 1.370 1_655 S
C1258 C1262 1.524 . S
C1259 C1251 1.503 . S
C1259 C1258 1.370 1_455 S
C1259 C1260 1.403 . S
C1260 C1259 1.403 . S
C1260 C1261 1.404 . S
C1260 C1263 1.539 . S
C1261 C1257 1.408 . S
C1261 C1260 1.404 . S
C1261 H1273 0.930 . S
C1262 C1258 1.524 . S
C1262 H1274 0.956 . S
C1262 H1275 0.961 . S
C1262 H1276 0.961 . S
C1263 C1260 1.539 . S
C1263 H1277 0.958 . S
C1263 H1278 0.961 . S
C1263 H1279 0.960 . S
H1264 C1248 0.931 . S
H1265 C1253 0.929 . S
H1266 C1254 0.960 . S
H1267 C1254 0.962 . S
H1268 C1254 0.960 . S
H1269 C1255 0.961 . S
H1270 C1255 0.961 . S
H1271 C1255 0.961 . S
H1272 C1256 0.931 1_655 S
H1273 C1261 0.930 . S
H1274 C1262 0.956 . S
H1275 C1262 0.961 . S
H1276 C1262 0.961 . S
H1277 C1263 0.958 . S
H1278 C1263 0.961 . S
H1279 C1263 0.960 . S
C1280 C1281 1.391 . S
C1280 C1282 1.394 . S
C1280 H1296 0.931 . S
C1281 C1280 1.391 . S
C1281 C1285 1.376 1_655 S
C1282 C1280 1.394 . S
C1282 C1283 1.369 1_655 S
C1282 C1286 1.531 . S
C1283 C1282 1.369 1_455 S
C1283 C1284 1.410 . S
C1283 C1291 1.503 . S
C1284 C1283 1.410 . S
C1284 C1285 1.392 . S
C1284 C1287 1.511 . S
C1285 C1281 1.376 1_455 S
C1285 C1284 1.392 . S
C1285 H1297 0.929 . S
C1286 C1282 1.531 . S
C1286 H1298 0.960 . S
C1286 H1299 0.962 . S
C1286 H1300 0.960 . S
C1287 C1284 1.511 . S
C1287 H1301 0.961 . S
C1287 H1302 0.961 . S
C1287 H1303 0.961 . S
C1288 C1289 1.370 . S
C1288 C1290 1.363 1_455 S
C1288 H1304 0.931 1_455 S
C1289 C1288 1.370 . S
C1289 C1293 1.408 . S
C1290 C1288 1.363 1_655 S
C1290 C1291 1.370 1_655 S
C1290 C1294 1.524 . S
C1291 C1283 1.503 . S
C1291 C1290 1.370 1_455 S
C1291 C1292 1.403 . S
C1292 C1291 1.403 . S
C1292 C1293 1.404 . S
C1292 C1295 1.539 . S
C1293 C1289 1.408 . S
C1293 C1292 1.404 . S
C1293 H1305 0.930 . S
C1294 C1290 1.524 . S
C1294 H1306 0.956 . S
C1294 H1307 0.961 . S
C1294 H1308 0.961 . S
C1295 C1292 1.539 . S
C1295 H1309 0.958 . S
C1295 H1310 0.961 . S
C1295 H1311 0.960 . S
H1296 C1280 0.931 . S
H1297 C1285 0.929 . S
H1298 C1286 0.960 . S
H1299 C1286 0.962 . S
H1300 C1286 0.960 . S
H1301 C1287 0.961 . S
H1302 C1287 0.961 . S
H1303 C1287 0.961 . S
H1304 C1288 0.931 1_655 S
H1305 C1293 0.930 . S
H1306 C1294 0.956 . S
H1307 C1294 0.961 . S
H1308 C1294 0.961 . S
H1309 C1295 0.958 . S
H1310 C1295 0.961 . S
H1311 C1295 0.960 . S
C1312 C1313 1.391 . S
C1312 C1314 1.394 . S
C1312 H1328 0.931 . S
C1313 C1312 1.391 . S
C1313 C1317 1.376 . S
C1314 C1312 1.394 . S
C1314 C1315 1.369 . S
C1314 C1318 1.531 . S
C1315 C1314 1.369 . S
C1315 C1316 1.410 . S
C1315 C1323 1.503 . S
C1316 C1315 1.410 . S
C1316 C1317 1.392 . S
C1316 C1319 1.511 . S
C1317 C1313 1.376 . S
C1317 C1316 1.392 . S
C1317 H1329 0.929 . S
C1318 C1314 1.531 . S
C1318 H1330 0.960 . S
C1318 H1331 0.962 . S
C1318 H1332 0.960 . S
C1319 C1316 1.511 . S
C1319 H1333 0.961 . S
C1319 H1334 0.961 . S
C1319 H1335 0.961 . S
C1320 C1321 1.370 . S
C1320 C1322 1.363 . S
C1320 H1336 0.931 . S
C1321 C1320 1.370 . S
C1321 C1325 1.408 . S
C1322 C1320 1.363 . S
C1322 C1323 1.370 . S
C1322 C1326 1.524 . S
C1323 C1315 1.503 . S
C1323 C1322 1.370 . S
C1323 C1324 1.403 . S
C1324 C1323 1.403 . S
C1324 C1325 1.404 . S
C1324 C1327 1.539 . S
C1325 C1321 1.408 . S
C1325 C1324 1.404 . S
C1325 H1337 0.930 . S
C1326 C1322 1.524 . S
C1326 H1338 0.956 . S
C1326 H1339 0.961 . S
C1326 H1340 0.961 . S
C1327 C1324 1.539 . S
C1327 H1341 0.958 . S
C1327 H1342 0.961 . S
C1327 H1343 0.960 . S
H1328 C1312 0.931 . S
H1329 C1317 0.929 . S
H1330 C1318 0.960 . S
H1331 C1318 0.962 . S
H1332 C1318 0.960 . S
H1333 C1319 0.961 . S
H1334 C1319 0.961 . S
H1335 C1319 0.961 . S
H1336 C1320 0.931 . S
H1337 C1325 0.930 . S
H1338 C1326 0.956 . S
H1339 C1326 0.961 . S
H1340 C1326 0.961 . S
H1341 C1327 0.958 . S
H1342 C1327 0.961 . S
H1343 C1327 0.960 . S
C1344 C1345 1.391 . S
C1344 C1346 1.394 . S
C1344 H1360 0.931 . S
C1345 C1344 1.391 . S
C1345 C1349 1.376 . S
C1346 C1344 1.394 . S
C1346 C1347 1.369 . S
C1346 C1350 1.531 . S
C1347 C1346 1.369 . S
C1347 C1348 1.410 . S
C1347 C1355 1.503 . S
C1348 C1347 1.410 . S
C1348 C1349 1.392 . S
C1348 C1351 1.511 . S
C1349 C1345 1.376 . S
C1349 C1348 1.392 . S
C1349 H1361 0.929 . S
C1350 C1346 1.531 . S
C1350 H1362 0.960 . S
C1350 H1363 0.962 . S
C1350 H1364 0.960 . S
C1351 C1348 1.511 . S
C1351 H1365 0.961 . S
C1351 H1366 0.961 . S
C1351 H1367 0.961 . S
C1352 C1353 1.370 . S
C1352 C1354 1.363 . S
C1352 H1368 0.931 . S
C1353 C1352 1.370 . S
C1353 C1357 1.408 . S
C1354 C1352 1.363 . S
C1354 C1355 1.370 . S
C1354 C1358 1.524 . S
C1355 C1347 1.503 . S
C1355 C1354 1.370 . S
C1355 C1356 1.403 . S
C1356 C1355 1.403 . S
C1356 C1357 1.404 . S
C1356 C1359 1.539 . S
C1357 C1353 1.408 . S
C1357 C1356 1.404 . S
C1357 H1369 0.930 . S
C1358 C1354 1.524 . S
C1358 H1370 0.956 . S
C1358 H1371 0.961 . S
C1358 H1372 0.961 . S
C1359 C1356 1.539 . S
C1359 H1373 0.958 . S
C1359 H1374 0.961 . S
C1359 H1375 0.960 . S
H1360 C1344 0.931 . S
H1361 C1349 0.929 . S
H1362 C1350 0.960 . S
H1363 C1350 0.962 . S
H1364 C1350 0.960 . S
H1365 C1351 0.961 . S
H1366 C1351 0.961 . S
H1367 C1351 0.961 . S
H1368 C1352 0.931 . S
H1369 C1357 0.930 . S
H1370 C1358 0.956 . S
H1371 C1358 0.961 . S
H1372 C1358 0.961 . S
H1373 C1359 0.958 . S
H1374 C1359 0.961 . S
H1375 C1359 0.960 . S
C1376 C1377 1.391 . S
C1376 C1378 1.394 . S
C1376 H1392 0.931 . S
C1377 C1376 1.391 . S
C1377 C1381 1.376 . S
C1378 C1376 1.394 . S
C1378 C1379 1.369 . S
C1378 C1382 1.531 . S
C1379 C1378 1.369 . S
C1379 C1380 1.410 . S
C1379 C1387 1.503 . S
C1380 C1379 1.410 . S
C1380 C1381 1.392 . S
C1380 C1383 1.511 . S
C1381 C1377 1.376 . S
C1381 C1380 1.392 . S
C1381 H1393 0.929 . S
C1382 C1378 1.531 . S
C1382 H1394 0.960 . S
C1382 H1395 0.962 . S
C1382 H1396 0.960 . S
C1383 C1380 1.511 . S
C1383 H1397 0.961 . S
C1383 H1398 0.961 . S
C1383 H1399 0.961 . S
C1384 C1385 1.370 . S
C1384 C1386 1.363 . S
C1384 H1400 0.931 . S
C1385 C1384 1.370 . S
C1385 C1389 1.408 . S
C1386 C1384 1.363 . S
C1386 C1387 1.370 . S
C1386 C1390 1.524 . S
C1387 C1379 1.503 . S
C1387 C1386 1.370 . S
C1387 C1388 1.403 . S
C1388 C1387 1.403 . S
C1388 C1389 1.404 . S
C1388 C1391 1.539 . S
C1389 C1385 1.408 . S
C1389 C1388 1.404 . S
C1389 H1401 0.930 . S
C1390 C1386 1.524 . S
C1390 H1402 0.956 . S
C1390 H1403 0.961 . S
C1390 H1404 0.961 . S
C1391 C1388 1.539 . S
C1391 H1405 0.958 . S
C1391 H1406 0.961 . S
C1391 H1407 0.960 . S
H1392 C1376 0.931 . S
H1393 C1381 0.929 . S
H1394 C1382 0.960 . S
H1395 C1382 0.962 . S
H1396 C1382 0.960 . S
H1397 C1383 0.961 . S
H1398 C1383 0.961 . S
H1399 C1383 0.961 . S
H1400 C1384 0.931 . S
H1401 C1389 0.930 . S
H1402 C1390 0.956 . S
H1403 C1390 0.961 . S
H1404 C1390 0.961 . S
H1405 C1391 0.958 . S
H1406 C1391 0.961 . S
H1407 C1391 0.960 . S
C1408 C1409 1.391 . S
C1408 C1410 1.394 . S
C1408 H1424 0.931 . S
C1409 C1408 1.391 . S
C1409 C1413 1.376 . S
C1410 C1408 1.394 . S
C1410 C1411 1.369 . S
C1410 C1414 1.531 . S
C1411 C1410 1.369 . S
C1411 C1412 1.410 . S
C1411 C1419 1.503 . S
C1412 C1411 1.410 . S
C1412 C1413 1.392 . S
C1412 C1415 1.511 . S
C1413 C1409 1.376 . S
C1413 C1412 1.392 . S
C1413 H1425 0.929 . S
C1414 C1410 1.531 . S
C1414 H1426 0.960 . S
C1414 H1427 0.962 . S
C1414 H1428 0.960 . S
C1415 C1412 1.511 . S
C1415 H1429 0.961 . S
C1415 H1430 0.961 . S
C1415 H1431 0.961 . S
C1416 C1417 1.370 . S
C1416 C1418 1.363 . S
C1416 H1432 0.931 . S
C1417 C1416 1.370 . S
C1417 C1421 1.408 . S
C1418 C1416 1.363 . S
C1418 C1419 1.370 . S
C1418 C1422 1.524 . S
C1419 C1411 1.503 . S
C1419 C1418 1.370 . S
C1419 C1420 1.403 . S
C1420 C1419 1.403 . S
C1420 C1421 1.404 . S
C1420 C1423 1.539 . S
C1421 C1417 1.408 . S
C1421 C1420 1.404 . S
C1421 H1433 0.930 . S
C1422 C1418 1.524 . S
C1422 H1434 0.956 . S
C1422 H1435 0.961 . S
C1422 H1436 0.961 . S
C1423 C1420 1.539 . S
C1423 H1437 0.958 . S
C1423 H1438 0.961 . S
C1423 H1439 0.960 . S
H1424 C1408 0.931 . S
H1425 C1413 0.929 . S
H1426 C1414 0.960 . S
H1427 C1414 0.962 . S
H1428 C1414 0.960 . S
H1429 C1415 0.961 . S
H1430 C1415 0.961 . S
H1431 C1415 0.961 . S
H1432 C1416 0.931 . S
H1433 C1421 0.930 . S
H1434 C1422 0.956 . S
H1435 C1422 0.961 . S
H1436 C1422 0.961 . S
H1437 C1423 0.958 . S
H1438 C1423 0.961 . S
H1439 C1423 0.960 . S
C673 C55 1.943 . S
C681 C67 1.964 . S
C705 C139 1.958 . S
C713 C151 1.957 . S
C737 C235 1.944 . S
C745 C223 1.963 . S
C769 C319 1.965 . S
C777 C307 1.955 . S
C801 C391 1.951 . S
C809 C403 1.959 . S
C833 C487 1.960 . S
C841 C475 1.956 . S
C865 C571 1.945 . S
C873 C559 1.963 . S
C897 C643 1.945 . S
C905 C655 1.962 . S
C929 C142 1.886 1_554 S
C937 C70 1.945 . S
C961 C310 1.954 . S
C969 C238 1.925 . S
C993 C406 1.969 . S
C1001 C478 1.904 1_554 S
C1025 C574 1.889 . S
C1033 C646 1.949 . S
C1057 C58 1.481 1_554 S
C1065 C490 1.418 . S
C1089 C394 1.398 1_554 S
C1097 C154 1.450 . S
C1121 C226 1.478 . S
C1129 C658 1.421 . S
C1153 C322 1.461 . S
C1161 C562 1.430 . S
C1185 C68 1.518 . S
C1193 C320 1.583 . S
C1217 C152 1.561 . S
C1225 C236 1.542 . S
C1249 C140 1.543 . S
C1257 C224 1.572 . S
C1281 C308 1.541 . S
C1289 C56 1.572 . S
C1313 C404 1.513 . S
C1321 C656 1.580 . S
C1345 C488 1.585 . S
C1353 C572 1.544 . S
C1377 C476 1.517 . S
C1385 C560 1.583 . S
C1409 C644 1.539 . S
C1417 C392 1.573 . S
