# Generated by pormake.
# Topology whz, (6)-cn, num edge types: 1
# Building blocks:
#     Node 0, Type 0, BuildingBlock: IZENUY_clean_sbu_0, # of connection points: 6
#     Node 1, Type 0, BuildingBlock: IZENUY_clean_sbu_0, # of connection points: 6
#     Node 2, Type 0, BuildingBlock: IZENUY_clean_sbu_0, # of connection points: 6
#     Node 3, Type 0, BuildingBlock: IZENUY_clean_sbu_0, # of connection points: 6
#     Node 4, Type 0, BuildingBlock: IZENUY_clean_sbu_0, # of connection points: 6
#     Node 5, Type 0, BuildingBlock: IZENUY_clean_sbu_0, # of connection points: 6
#     Node 6, Type 0, BuildingBlock: IZENUY_clean_sbu_0, # of connection points: 6
#     Node 7, Type 0, BuildingBlock: IZENUY_clean_sbu_0, # of connection points: 6
#     Node 8, Type 0, BuildingBlock: IZENUY_clean_sbu_0, # of connection points: 6
#     Node 9, Type 0, BuildingBlock: IZENUY_clean_sbu_0, # of connection points: 6
#     Node 10, Type 0, BuildingBlock: IZENUY_clean_sbu_0, # of connection points: 6
#     Node 11, Type 0, BuildingBlock: IZENUY_clean_sbu_0, # of connection points: 6
#     Node 12, Type 0, BuildingBlock: IZENUY_clean_sbu_0, # of connection points: 6
#     Node 13, Type 0, BuildingBlock: IZENUY_clean_sbu_0, # of connection points: 6
#     Node 14, Type 0, BuildingBlock: IZENUY_clean_sbu_0, # of connection points: 6
#     Node 15, Type 0, BuildingBlock: IZENUY_clean_sbu_0, # of connection points: 6
#     Edge 16, Type (0, 0), BuildingBlock: CIFDUS_clean_linker_0, # of connection points: 2
#     Edge 17, Type (0, 0), BuildingBlock: CIFDUS_clean_linker_0, # of connection points: 2
#     Edge 18, Type (0, 0), BuildingBlock: CIFDUS_clean_linker_0, # of connection points: 2
#     Edge 19, Type (0, 0), BuildingBlock: CIFDUS_clean_linker_0, # of connection points: 2
#     Edge 20, Type (0, 0), BuildingBlock: CIFDUS_clean_linker_0, # of connection points: 2
#     Edge 21, Type (0, 0), BuildingBlock: CIFDUS_clean_linker_0, # of connection points: 2
#     Edge 22, Type (0, 0), BuildingBlock: CIFDUS_clean_linker_0, # of connection points: 2
#     Edge 23, Type (0, 0), BuildingBlock: CIFDUS_clean_linker_0, # of connection points: 2
#     Edge 24, Type (0, 0), BuildingBlock: CIFDUS_clean_linker_0, # of connection points: 2
#     Edge 25, Type (0, 0), BuildingBlock: CIFDUS_clean_linker_0, # of connection points: 2
#     Edge 26, Type (0, 0), BuildingBlock: CIFDUS_clean_linker_0, # of connection points: 2
#     Edge 27, Type (0, 0), BuildingBlock: CIFDUS_clean_linker_0, # of connection points: 2
#     Edge 28, Type (0, 0), BuildingBlock: CIFDUS_clean_linker_0, # of connection points: 2
#     Edge 29, Type (0, 0), BuildingBlock: CIFDUS_clean_linker_0, # of connection points: 2
#     Edge 30, Type (0, 0), BuildingBlock: CIFDUS_clean_linker_0, # of connection points: 2
#     Edge 31, Type (0, 0), BuildingBlock: CIFDUS_clean_linker_0, # of connection points: 2
#     Edge 32, Type (0, 0), BuildingBlock: CIFDUS_clean_linker_0, # of connection points: 2
#     Edge 33, Type (0, 0), BuildingBlock: CIFDUS_clean_linker_0, # of connection points: 2
#     Edge 34, Type (0, 0), BuildingBlock: CIFDUS_clean_linker_0, # of connection points: 2
#     Edge 35, Type (0, 0), BuildingBlock: CIFDUS_clean_linker_0, # of connection points: 2
#     Edge 36, Type (0, 0), BuildingBlock: CIFDUS_clean_linker_0, # of connection points: 2
#     Edge 37, Type (0, 0), BuildingBlock: CIFDUS_clean_linker_0, # of connection points: 2
#     Edge 38, Type (0, 0), BuildingBlock: CIFDUS_clean_linker_0, # of connection points: 2
#     Edge 39, Type (0, 0), BuildingBlock: CIFDUS_clean_linker_0, # of connection points: 2
#     Edge 40, Type (0, 0), BuildingBlock: CIFDUS_clean_linker_0, # of connection points: 2
#     Edge 41, Type (0, 0), BuildingBlock: CIFDUS_clean_linker_0, # of connection points: 2
#     Edge 42, Type (0, 0), BuildingBlock: CIFDUS_clean_linker_0, # of connection points: 2
#     Edge 43, Type (0, 0), BuildingBlock: CIFDUS_clean_linker_0, # of connection points: 2
#     Edge 44, Type (0, 0), BuildingBlock: CIFDUS_clean_linker_0, # of connection points: 2
#     Edge 45, Type (0, 0), BuildingBlock: CIFDUS_clean_linker_0, # of connection points: 2
#     Edge 46, Type (0, 0), BuildingBlock: CIFDUS_clean_linker_0, # of connection points: 2
#     Edge 47, Type (0, 0), BuildingBlock: CIFDUS_clean_linker_0, # of connection points: 2
#     Edge 48, Type (0, 0), BuildingBlock: CIFDUS_clean_linker_0, # of connection points: 2
#     Edge 49, Type (0, 0), BuildingBlock: CIFDUS_clean_linker_0, # of connection points: 2
#     Edge 50, Type (0, 0), BuildingBlock: CIFDUS_clean_linker_0, # of connection points: 2
#     Edge 51, Type (0, 0), BuildingBlock: CIFDUS_clean_linker_0, # of connection points: 2
#     Edge 52, Type (0, 0), BuildingBlock: CIFDUS_clean_linker_0, # of connection points: 2
#     Edge 53, Type (0, 0), BuildingBlock: CIFDUS_clean_linker_0, # of connection points: 2
#     Edge 54, Type (0, 0), BuildingBlock: CIFDUS_clean_linker_0, # of connection points: 2
#     Edge 55, Type (0, 0), BuildingBlock: CIFDUS_clean_linker_0, # of connection points: 2
#     Edge 56, Type (0, 0), BuildingBlock: CIFDUS_clean_linker_0, # of connection points: 2
#     Edge 57, Type (0, 0), BuildingBlock: CIFDUS_clean_linker_0, # of connection points: 2
#     Edge 58, Type (0, 0), BuildingBlock: CIFDUS_clean_linker_0, # of connection points: 2
#     Edge 59, Type (0, 0), BuildingBlock: CIFDUS_clean_linker_0, # of connection points: 2
#     Edge 60, Type (0, 0), BuildingBlock: CIFDUS_clean_linker_0, # of connection points: 2
#     Edge 61, Type (0, 0), BuildingBlock: CIFDUS_clean_linker_0, # of connection points: 2
#     Edge 62, Type (0, 0), BuildingBlock: CIFDUS_clean_linker_0, # of connection points: 2
#     Edge 63, Type (0, 0), BuildingBlock: CIFDUS_clean_linker_0, # of connection points: 2
# Relax obj value: 0.407
# Max RMSD: 0.253
# Mean RMSD: 0.253
data_MOF--net-whz--node1-IZENUY_clean_sbu_0--edge1-CIFDUS_clean_linker_0
_symmetry_space_group_name_H-M    P1
_symmetry_Int_Tables_number       1
_symmetry_cell_setting            triclinic
loop_
_symmetry_equiv_pos_as_xyz
'x, y, z'
_cell_length_a     30.122881
_cell_length_b     30.077449
_cell_length_c     44.962975
_cell_angle_alpha  90.095379
_cell_angle_beta   90.077927
_cell_angle_gamma 90.00529
loop_
_atom_site_label
_atom_site_type_symbol
_atom_site_fract_x
_atom_site_fract_y
_atom_site_fract_z
_atom_type_partial_charge
Fe0 Fe 0.35071 0.2161 0.15169 0.0
Fe1 Fe 0.25924 0.1963 0.12407 0.0
O2 O 0.31624 0.18245 0.12856 0.0
Fe3 Fe 0.33939 0.13495 0.11064 0.0
O4 O 0.37806 0.12113 0.14194 0.0
O5 O 0.36142 0.17013 0.17654 0.0
O6 O 0.30727 0.23287 0.17685 0.0
C7 C 0.27214 0.21312 0.18377 0.0
C8 C 0.40501 0.19811 0.10344 0.0
O9 O 0.2495 0.19302 0.16429 0.0
C10 C 0.27764 0.16856 0.06676 0.0
O11 O 0.34124 0.26498 0.1291 0.0
O12 O 0.2687 0.25671 0.12579 0.0
O13 O 0.37988 0.17009 0.09092 0.0
O14 O 0.40128 0.20567 0.13083 0.0
C15 C 0.25852 0.10258 0.1292 0.0
O16 O 0.26335 0.19948 0.08342 0.0
O17 O 0.30392 0.1392 0.07706 0.0
C18 C 0.30314 0.28095 0.12431 0.0
O19 O 0.24043 0.13889 0.12203 0.0
O20 O 0.3001 0.09728 0.1284 0.0
C21 C 0.37626 0.13256 0.16928 0.0
Fe22 Fe 0.5564 0.58863 0.39756 0.0
Fe23 Fe 0.57471 0.49643 0.37064 0.0
O24 O 0.58963 0.5534 0.3747 0.0
Fe25 Fe 0.63799 0.57548 0.35718 0.0
O26 O 0.65282 0.61291 0.38867 0.0
O27 O 0.60256 0.59765 0.42259 0.0
O28 O 0.53784 0.54572 0.42263 0.0
C29 C 0.55682 0.51053 0.43033 0.0
C30 C 0.57863 0.64474 0.35049 0.0
O31 O 0.5772 0.48727 0.41125 0.0
C32 C 0.60265 0.51514 0.3131 0.0
O33 O 0.50755 0.58047 0.37447 0.0
O34 O 0.51473 0.50757 0.37176 0.0
O35 O 0.60551 0.6185 0.33797 0.0
O36 O 0.56798 0.63929 0.37723 0.0
C37 C 0.66863 0.49286 0.37487 0.0
O38 O 0.57224 0.49998 0.32982 0.0
O39 O 0.63215 0.54124 0.32338 0.0
C40 C 0.49102 0.54239 0.36989 0.0
O41 O 0.63145 0.47567 0.36899 0.0
O42 O 0.67461 0.53441 0.37432 0.0
C43 C 0.64091 0.61102 0.4158 0.0
Fe44 Fe 0.25741 0.81424 0.62668 0.0
Fe45 Fe 0.18976 0.88825 0.61224 0.0
O46 O 0.20316 0.83614 0.62856 0.0
Fe47 Fe 0.1619 0.80575 0.64762 0.0
O48 O 0.19157 0.81033 0.6823 0.0
O49 O 0.25491 0.78747 0.66349 0.0
O50 O 0.27913 0.86169 0.64582 0.0
C51 C 0.2731 0.90207 0.63993 0.0
C52 C 0.21332 0.7367 0.62098 0.0
O53 O 0.24415 0.91412 0.62097 0.0
C54 C 0.11675 0.83092 0.59829 0.0
O55 O 0.27025 0.83805 0.58987 0.0
O56 O 0.20845 0.87051 0.57535 0.0
O57 O 0.18609 0.75074 0.64024 0.0
O58 O 0.2385 0.764 0.60793 0.0
C59 C 0.14321 0.89343 0.66501 0.0
O60 O 0.13258 0.87016 0.60119 0.0
O61 O 0.13132 0.7994 0.61381 0.0
C62 C 0.24653 0.85495 0.56944 0.0
O63 O 0.17151 0.91082 0.64803 0.0
O64 O 0.12931 0.8546 0.65939 0.0
C65 C 0.22999 0.79461 0.68575 0.0
Fe66 Fe 0.96258 0.42998 0.89733 0.0
Fe67 Fe 0.95499 0.52285 0.87142 0.0
O68 O 0.93339 0.46842 0.87501 0.0
Fe69 Fe 0.88292 0.45297 0.85751 0.0
O70 O 0.85777 0.43645 0.89268 0.0
O71 O 0.91339 0.39827 0.91023 0.0
O72 O 0.95483 0.46422 0.92941 0.0
C73 C 0.97158 0.50224 0.93168 0.0
C74 C 0.94239 0.37944 0.84889 0.0
O75 O 0.98138 0.52418 0.90856 0.0
C76 C 0.9166 0.50793 0.81397 0.0
O77 O 0.01806 0.45394 0.88942 0.0
O78 O 1.00498 0.50198 0.8539 0.0
O79 O 0.90295 0.39538 0.84859 0.0
O80 O 0.97149 0.39464 0.86615 0.0
C81 C 0.86718 0.53802 0.88288 0.0
O82 O 0.93192 0.53328 0.83403 0.0
O83 O 0.90255 0.46959 0.82067 0.0
C84 C 0.03197 0.4779 0.86812 0.0
O85 O 0.90716 0.54543 0.88915 0.0
O86 O 0.85611 0.50779 0.86435 0.0
C87 C 0.87338 0.41096 0.91225 0.0
Fe88 Fe 0.66893 0.81981 0.88458 0.0
Fe89 Fe 0.76103 0.83526 0.91031 0.0
O90 O 0.70444 0.85037 0.90846 0.0
Fe91 Fe 0.68272 0.89596 0.9289 0.0
O92 O 0.66264 0.92292 0.89432 0.0
O93 O 0.62894 0.86446 0.87775 0.0
O94 O 0.69937 0.83798 0.85233 0.0
C95 C 0.73968 0.82798 0.84868 0.0
C96 C 0.61992 0.82424 0.93497 0.0
O97 O 0.76404 0.81822 0.87087 0.0
C98 C 0.74264 0.86262 0.97062 0.0
O99 O 0.70029 0.76818 0.88634 0.0
O100 O 0.74758 0.77888 0.92246 0.0
O101 O 0.62875 0.86602 0.93684 0.0
O102 O 0.63859 0.80028 0.9158 0.0
C103 C 0.76646 0.92669 0.90758 0.0
O104 O 0.76859 0.85091 0.94979 0.0
O105 O 0.70312 0.87472 0.9648 0.0
C106 C 0.72549 0.75266 0.90614 0.0
O107 O 0.7781 0.88924 0.89783 0.0
O108 O 0.73293 0.93113 0.92452 0.0
C109 C 0.63764 0.90512 0.87515 0.0
Fe110 Fe 0.38722 0.44747 0.67212 0.0
Fe111 Fe 0.47427 0.42677 0.63976 0.0
O112 O 0.43816 0.46561 0.65659 0.0
Fe113 Fe 0.45358 0.52205 0.65761 0.0
O114 O 0.40553 0.53738 0.63655 0.0
O115 O 0.35631 0.49905 0.66204 0.0
O116 O 0.36892 0.42558 0.6363 0.0
C117 C 0.39019 0.39854 0.62032 0.0
C118 C 0.41198 0.50891 0.71463 0.0
O119 O 0.42979 0.38863 0.62729 0.0
C120 C 0.53389 0.48572 0.6686 0.0
O121 O 0.41053 0.39268 0.68472 0.0
O122 O 0.48157 0.39934 0.67456 0.0
O123 O 0.42604 0.53426 0.69396 0.0
O124 O 0.40137 0.46913 0.7088 0.0
C125 C 0.48143 0.49244 0.59962 0.0
O126 O 0.52566 0.45741 0.64846 0.0
O127 O 0.50312 0.50961 0.67872 0.0
C128 C 0.45108 0.38236 0.68971 0.0
O129 O 0.4692 0.45314 0.60422 0.0
O130 O 0.48354 0.52023 0.62112 0.0
C131 C 0.36584 0.52868 0.64283 0.0
Fe132 Fe 0.8308 0.12612 0.42869 0.0
Fe133 Fe 0.84707 0.20063 0.38327 0.0
O134 O 0.81072 0.17036 0.40643 0.0
Fe135 Fe 0.75376 0.18365 0.40625 0.0
O136 O 0.74023 0.12949 0.39179 0.0
O137 O 0.7796 0.09185 0.42451 0.0
O138 O 0.85073 0.09665 0.39608 0.0
C139 C 0.87445 0.1118 0.37542 0.0
C140 C 0.76953 0.16049 0.46718 0.0
O141 O 0.88421 0.15292 0.37509 0.0
C142 C 0.78811 0.2667 0.40652 0.0
O143 O 0.88592 0.15334 0.43589 0.0
O144 O 0.87916 0.21884 0.41462 0.0
O145 O 0.74384 0.16589 0.44503 0.0
O146 O 0.81022 0.15172 0.46299 0.0
C147 C 0.77767 0.19421 0.34575 0.0
O148 O 0.81588 0.25392 0.38691 0.0
O149 O 0.76518 0.23857 0.4205 0.0
C150 C 0.89845 0.19375 0.43281 0.0
O151 O 0.81727 0.18392 0.35052 0.0
O152 O 0.75236 0.20404 0.36729 0.0
C153 C 0.75004 0.09325 0.4042 0.0
Fe154 Fe 0.07748 0.49701 0.15509 0.0
Fe155 Fe 0.13711 0.57328 0.17665 0.0
O156 O 0.0898 0.554 0.15693 0.0
Fe157 Fe 0.05488 0.59149 0.13793 0.0
O158 O 0.06691 0.56605 0.10263 0.0
O159 O 0.05149 0.4991 0.11825 0.0
O160 O 0.1287 0.48642 0.13623 0.0
C161 C 0.16679 0.49611 0.14573 0.0
C162 C 0.99462 0.52941 0.1627 0.0
O163 O 0.17182 0.52365 0.16714 0.0
C164 C 0.06769 0.63679 0.18938 0.0
O165 O 0.10162 0.48356 0.19121 0.0
O166 O 0.11831 0.5476 0.21189 0.0
O167 O 1.00392 0.55834 0.14315 0.0
O168 O 0.02494 0.50561 0.17374 0.0
C169 C 0.13977 0.6231 0.12468 0.0
O170 O 0.10913 0.62672 0.18877 0.0
O171 O 0.0409 0.61818 0.17202 0.0
C172 C 0.10892 0.5065 0.21428 0.0
O173 O 0.16009 0.59795 0.14257 0.0
O174 O 0.09919 0.63161 0.1293 0.0
C175 C 0.05757 0.52621 0.09718 0.0
Fe176 Fe 0.84249 0.73152 0.64703 0.0
Fe177 Fe 0.74961 0.70377 0.62812 0.0
O178 O 0.8072 0.69408 0.62806 0.0
Fe179 Fe 0.82934 0.64647 0.6099 0.0
O180 O 0.85211 0.62592 0.64493 0.0
O181 O 0.88272 0.68856 0.65882 0.0
O182 O 0.81504 0.72202 0.682 0.0
C183 C 0.77472 0.73052 0.6862 0.0
C184 C 0.8919 0.71562 0.5976 0.0
O185 O 0.74798 0.73165 0.66451 0.0
C186 C 0.76454 0.66803 0.56995 0.0
O187 O 0.80833 0.78118 0.63904 0.0
O188 O 0.7565 0.75626 0.60891 0.0
O189 O 0.88215 0.67444 0.59925 0.0
O190 O 0.87175 0.74363 0.61331 0.0
C191 C 0.75139 0.61444 0.63782 0.0
O192 O 0.73995 0.67751 0.59191 0.0
O193 O 0.80597 0.66268 0.57364 0.0
C194 C 0.7783 0.78832 0.61976 0.0
O195 O 0.74005 0.65214 0.64752 0.0
O196 O 0.78089 0.61082 0.61781 0.0
C197 C 0.8757 0.64744 0.66314 0.0
Fe198 Fe 0.06933 0.01487 0.87298 0.0
Fe199 Fe 0.13375 0.09183 0.85955 0.0
O200 O 0.08482 0.07115 0.87655 0.0
Fe201 Fe 0.05133 0.10687 0.89822 0.0
O202 O 0.06186 0.0747 0.93104 0.0
O203 O 0.04428 0.01103 0.91029 0.0
O204 O 0.12011 0.99711 0.8901 0.0
C205 C 0.15879 1.00704 0.88198 0.0
C206 C 0.98744 0.05114 0.86997 0.0
O207 O 0.16586 0.03978 0.86475 0.0
C208 C 0.06752 0.15902 0.85034 0.0
O209 O 0.09218 1.00788 0.83528 0.0
O210 O 0.11594 0.07428 0.82232 0.0
O211 O 0.99886 0.07715 0.89081 0.0
O212 O 0.0167 0.02964 0.85594 0.0
C213 C 0.13725 0.13375 0.91452 0.0
O214 O 0.10845 0.14754 0.85146 0.0
O215 O 0.03917 0.13988 0.86629 0.0
C216 C 0.10477 0.03493 0.81539 0.0
O217 O 0.15646 0.10923 0.89572 0.0
O218 O 0.0969 0.14383 0.91041 0.0
C219 C 0.05024 0.03471 0.93332 0.0
Fe220 Fe 0.67063 0.29996 0.14715 0.0
Fe221 Fe 0.76592 0.32195 0.13133 0.0
O222 O 0.70906 0.33378 0.128 0.0
Fe223 Fe 0.69011 0.37975 0.10679 0.0
O224 O 0.66468 0.4044 0.14018 0.0
O225 O 0.62941 0.34435 0.15291 0.0
O226 O 0.69346 0.31552 0.18264 0.0
C227 C 0.7329 0.30736 0.18975 0.0
C228 C 0.62934 0.30901 0.094 0.0
O229 O 0.76193 0.30003 0.16983 0.0
C230 C 0.75783 0.35051 0.07036 0.0
O231 O 0.70437 0.24875 0.14528 0.0
O232 O 0.75834 0.26726 0.11513 0.0
O233 O 0.63776 0.35073 0.09482 0.0
O234 O 0.64666 0.28308 0.11257 0.0
C235 C 0.76762 0.41235 0.13575 0.0
O236 O 0.78023 0.34195 0.09368 0.0
O237 O 0.71664 0.3595 0.07236 0.0
C238 C 0.73444 0.23781 0.127 0.0
O239 O 0.77635 0.37556 0.14774 0.0
O240 O 0.73888 0.4151 0.11511 0.0
C241 C 0.63801 0.38495 0.15748 0.0
Fe242 Fe 0.47609 0.91927 0.39861 0.0
Fe243 Fe 0.44894 0.01085 0.3751 0.0
O244 O 0.43729 0.95324 0.3789 0.0
Fe245 Fe 0.38738 0.92966 0.3644 0.0
O246 O 0.37826 0.89308 0.39731 0.0
O247 O 0.43521 0.90732 0.42697 0.0
O248 O 0.49734 0.96297 0.42243 0.0
C249 C 0.47711 0.99611 0.43248 0.0
C250 C 0.44748 0.86166 0.35373 0.0
O251 O 0.45113 0.01767 0.41576 0.0
C252 C 0.41529 0.99184 0.3189 0.0
O253 O 0.5198 0.93008 0.3717 0.0
O254 O 0.50913 1.0026 0.37215 0.0
O255 O 0.41785 0.88697 0.34339 0.0
O256 O 0.46336 0.8682 0.37914 0.0
C257 C 0.35586 0.01108 0.38421 0.0
O258 O 0.44628 1.00852 0.3345 0.0
O259 O 0.38822 0.96378 0.33003 0.0
C260 C 0.5332 0.9691 0.36629 0.0
O261 O 0.39167 0.02969 0.37703 0.0
O262 O 0.35146 0.96946 0.38331 0.0
C263 C 0.39591 0.89366 0.42317 0.0
Fe264 Fe 0.17747 0.29867 0.38686 0.0
Fe265 Fe 0.27101 0.31208 0.41081 0.0
O266 O 0.21535 0.3301 0.40827 0.0
Fe267 Fe 0.19818 0.3795 0.42647 0.0
O268 O 0.18089 0.40441 0.39193 0.0
O269 O 0.14462 0.34743 0.3737 0.0
O270 O 0.20966 0.30618 0.35387 0.0
C271 C 0.24783 0.29041 0.351 0.0
C272 C 0.12531 0.31841 0.43437 0.0
O273 O 0.2722 0.28447 0.37373 0.0
C274 C 0.25522 0.34816 0.46884 0.0
O275 O 0.20411 0.24418 0.39554 0.0
O276 O 0.25426 0.26148 0.42915 0.0
O277 O 0.14086 0.35803 0.43485 0.0
O278 O 0.14309 0.28904 0.41857 0.0
C279 C 0.28128 0.40067 0.40015 0.0
O280 O 0.28141 0.33643 0.44814 0.0
O281 O 0.21567 0.35885 0.46271 0.0
C282 C 0.23058 0.23264 0.41631 0.0
O283 O 0.28945 0.36132 0.39233 0.0
O284 O 0.25206 0.40897 0.41997 0.0
C285 C 0.1561 0.38814 0.37226 0.0
Fe286 Fe 0.94508 0.01576 0.15677 0.0
Fe287 Fe 0.89381 0.93309 0.17718 0.0
O288 O 0.93705 0.95793 0.15613 0.0
Fe289 Fe 0.97167 0.92525 0.13323 0.0
O290 O 0.95394 0.95396 0.10026 0.0
O291 O 0.96623 0.02002 0.11861 0.0
O292 O 0.89064 0.02453 0.1416 0.0
C293 C 0.85512 0.01224 0.1538 0.0
C294 C 0.03082 0.98868 0.15839 0.0
O295 O 0.85525 0.98121 0.1731 0.0
C296 C 0.96837 0.87344 0.18272 0.0
O297 O 0.92545 0.02307 0.1949 0.0
O298 O 0.91555 0.95571 0.21267 0.0
O299 O 0.02123 0.961 0.13799 0.0
O300 O 1.00036 1.00929 0.17184 0.0
C301 C 0.88728 0.89016 0.12232 0.0
O302 O 0.92644 0.88049 0.18474 0.0
O303 O 0.9914 0.89528 0.1647 0.0
C304 C 0.92278 0.99697 0.21686 0.0
O305 O 0.86786 0.91128 0.14289 0.0
O306 O 0.92872 0.88359 0.12442 0.0
C307 C 0.96043 0.99473 0.09647 0.0
Fe308 Fe 0.33193 0.63919 0.92641 0.0
Fe309 Fe 0.33444 0.72066 0.8858 0.0
O310 O 0.30416 0.68376 0.90852 0.0
Fe311 Fe 0.24634 0.69134 0.91185 0.0
O312 O 0.23581 0.63738 0.89622 0.0
O313 O 0.28492 0.59946 0.92231 0.0
O314 O 0.35168 0.61739 0.89029 0.0
C315 C 0.37231 0.63951 0.87085 0.0
C316 C 0.27186 0.66248 0.97035 0.0
O317 O 0.37767 0.68062 0.87516 0.0
C318 C 0.27205 0.77762 0.91319 0.0
O319 O 0.38362 0.67326 0.93379 0.0
O320 O 0.36506 0.73965 0.91721 0.0
O321 O 0.24308 0.67015 0.95031 0.0
O322 O 0.31226 0.65613 0.96341 0.0
C323 C 0.26309 0.70846 0.85079 0.0
O324 O 0.29771 0.76851 0.89179 0.0
O325 O 0.25358 0.74664 0.92746 0.0
C326 C 0.38848 0.71572 0.93384 0.0
O327 O 0.30425 0.70302 0.8535 0.0
O328 O 0.23886 0.71333 0.87368 0.0
C329 C 0.25118 0.60092 0.90524 0.0
Fe330 Fe 0.53678 0.09578 0.63472 0.0
Fe331 Fe 0.56478 1.00761 0.66277 0.0
O332 O 0.5749 0.0649 0.65673 0.0
Fe333 Fe 0.62231 0.09226 0.67169 0.0
O334 O 0.63072 0.12775 0.63791 0.0
O335 O 0.57881 0.10468 0.60673 0.0
O336 O 0.51631 0.04956 0.61316 0.0
C337 C 0.53683 0.01581 0.60464 0.0
C338 C 0.55664 0.15575 0.67857 0.0
O339 O 0.56328 0.99663 0.62229 0.0
C340 C 0.59716 0.03165 0.7186 0.0
O341 O 0.49289 0.08701 0.66148 0.0
O342 O 0.50422 0.01479 0.66507 0.0
O343 O 0.58644 0.13312 0.69137 0.0
O344 O 0.54909 0.14895 0.65158 0.0
C345 C 0.6576 0.01143 0.65341 0.0
O346 O 0.56678 0.01313 0.70341 0.0
O347 O 0.62301 0.06 0.70672 0.0
C348 C 0.47926 0.0486 0.66823 0.0
O349 O 0.62279 0.99153 0.6615 0.0
O350 O 0.66088 0.05335 0.65406 0.0
C351 C 0.61638 0.12214 0.61133 0.0
H352 H 0.32526 0.21532 0.23122 0.0
H353 H 0.18738 0.22252 0.20567 0.0
H354 H 0.16782 0.24607 0.25636 0.0
H355 H 0.19142 0.27132 0.3058 0.0
H356 H 0.32977 0.26488 0.33093 0.0
H357 H 0.34803 0.2345 0.28186 0.0
C358 C 0.29078 0.22152 0.23688 0.0
C359 C 0.25772 0.21784 0.21484 0.0
C360 C 0.28023 0.23585 0.26558 0.0
C361 C 0.21321 0.2251 0.22237 0.0
C362 C 0.20223 0.23899 0.25118 0.0
C363 C 0.22567 0.26338 0.30062 0.0
C364 C 0.25948 0.27117 0.3218 0.0
C365 C 0.23571 0.24574 0.2726 0.0
C366 C 0.30337 0.25967 0.31491 0.0
C367 C 0.31372 0.24223 0.28695 0.0
H368 H 0.50177 0.43403 0.55525 0.0
H369 H 0.50288 0.57413 0.5767 0.0
H370 H 0.53097 0.59074 0.52687 0.0
H371 H 0.55034 0.566 0.47672 0.0
H372 H 0.54962 0.42639 0.45467 0.0
H373 H 0.52695 0.40877 0.50588 0.0
C374 C 0.5081 0.46831 0.54913 0.0
C375 C 0.49952 0.50299 0.56969 0.0
C376 C 0.52451 0.47751 0.52054 0.0
C377 C 0.50876 0.54695 0.56137 0.0
C378 C 0.52489 0.5564 0.5329 0.0
C379 C 0.54576 0.53156 0.48317 0.0
C380 C 0.55124 0.49746 0.46187 0.0
C381 C 0.53225 0.52201 0.51227 0.0
C382 C 0.54576 0.4531 0.47064 0.0
C383 C 0.5324 0.44319 0.49981 0.0
H384 H 0.17988 0.79315 0.73603 0.0
H385 H 0.30738 0.75355 0.70075 0.0
H386 H 0.32619 0.71871 0.74795 0.0
H387 H 0.30756 0.70131 0.79906 0.0
H388 H 0.18175 0.74303 0.83572 0.0
H389 H 0.16043 0.77392 0.78744 0.0
C390 C 0.21187 0.77706 0.73867 0.0
C391 C 0.24228 0.77615 0.71493 0.0
C392 C 0.22245 0.75692 0.76582 0.0
C393 C 0.28347 0.75496 0.7187 0.0
C394 C 0.29417 0.73479 0.7456 0.0
C395 C 0.27527 0.71687 0.79655 0.0
C396 C 0.24644 0.7203 0.82102 0.0
C397 C 0.26396 0.7357 0.76925 0.0
C398 C 0.20454 0.73999 0.81722 0.0
C399 C 0.19254 0.75801 0.78973 0.0
H400 H 0.97222 0.45205 0.98097 0.0
H401 H 0.01058 0.58124 0.94781 0.0
H402 H 0.04342 0.59933 0.99627 0.0
H403 H 0.06047 0.57787 0.04776 0.0
H404 H 0.02302 0.44725 0.0791 0.0
H405 H 0.99137 0.42981 0.03073 0.0
C406 C 0.98755 0.48437 0.98418 0.0
C407 C 0.98881 0.51542 0.96093 0.0
C408 C 1.00697 0.49394 1.01149 0.0
C409 C 1.00907 0.55691 0.96552 0.0
C410 C 0.02799 0.56711 0.99308 0.0
C411 C 0.04566 0.54548 0.04393 0.0
C412 C 0.04366 0.51404 0.06701 0.0
C413 C 0.0272 0.53573 1.01615 0.0
C414 C 0.02481 0.47208 0.06171 0.0
C415 C 1.00649 0.46214 0.03416 0.0
H416 H 0.68823 0.81582 0.79986 0.0
H417 H 0.82417 0.81009 0.83037 0.0
H418 H 0.8468 0.77798 0.7828 0.0
H419 H 0.82733 0.74866 0.73374 0.0
H420 H 0.69102 0.7531 0.7038 0.0
H421 H 0.66902 0.78788 0.75056 0.0
C422 C 0.72296 0.80817 0.79603 0.0
C423 C 0.7545 0.81526 0.81863 0.0
C424 C 0.73548 0.78871 0.76906 0.0
C425 C 0.79926 0.80489 0.81331 0.0
C426 C 0.81216 0.78628 0.78623 0.0
C427 C 0.79274 0.75696 0.73745 0.0
C428 C 0.76083 0.74814 0.71535 0.0
C429 C 0.78039 0.77731 0.7642 0.0
C430 C 0.71622 0.75938 0.7205 0.0
C431 C 0.70364 0.77949 0.74714 0.0
H432 H 0.77694 0.23499 0.20913 0.0
H433 H 0.70293 0.34909 0.23923 0.0
H434 H 0.70605 0.32184 0.29051 0.0
H435 H 0.73015 0.26528 0.32672 0.0
H436 H 0.80303 0.15066 0.29607 0.0
H437 H 0.79876 0.17747 0.24489 0.0
C438 C 0.76235 0.25422 0.22708 0.0
C439 C 0.74073 0.29438 0.22077 0.0
C440 C 0.7629 0.23757 0.25618 0.0
C441 C 0.72047 0.31841 0.24388 0.0
C442 C 0.72181 0.30262 0.27306 0.0
C443 C 0.74401 0.24573 0.30868 0.0
C444 C 0.76635 0.20588 0.31494 0.0
C445 C 0.74254 0.26199 0.27943 0.0
C446 C 0.78527 0.18127 0.29158 0.0
C447 C 0.78331 0.1968 0.26242 0.0
H448 H 0.96777 0.94498 0.04642 0.0
H449 H 0.98086 0.0793 0.07967 0.0
H450 H 0.01145 0.10288 0.03208 0.0
H451 H 0.03738 0.08472 0.98243 0.0
H452 H 0.02465 0.95065 0.94876 0.0
H453 H 0.99172 0.92725 0.99588 0.0
C454 C 0.97688 0.97954 0.04322 0.0
C455 C 0.97244 1.0103 0.0666 0.0
C456 C 0.9952 0.99265 1.0161 0.0
C457 C 0.98415 0.05496 0.06203 0.0
C458 C 1.00189 0.0684 0.03493 0.0
C459 C 0.02772 0.05025 0.98536 0.0
C460 C 0.03369 0.01934 0.96224 0.0
C461 C 1.0083 0.03732 1.0121 0.0
C462 C 0.02057 0.97498 0.96634 0.0
C463 C 1.00154 0.96167 0.99315 0.0
H464 H 0.54008 0.96222 0.46912 0.0
H465 H 0.42868 0.05277 0.46765 0.0
H466 H 0.43561 0.06292 0.52151 0.0
H467 H 0.47231 0.04554 0.56823 0.0
H468 H 0.58521 0.95696 0.5702 0.0
H469 H 0.57731 0.94494 0.51637 0.0
C470 C 0.51734 0.98445 0.48047 0.0
C471 C 0.48388 1.00695 0.46429 0.0
C472 C 0.52121 0.9896 0.51136 0.0
C473 C 0.45493 0.03556 0.47944 0.0
C474 C 0.45864 0.04095 0.51023 0.0
C475 C 0.49531 0.02334 0.55709 0.0
C476 C 0.52951 1.00214 0.57332 0.0
C477 C 0.49142 0.0179 0.52632 0.0
C478 C 0.55848 0.97331 0.55837 0.0
C479 C 0.55421 0.96691 0.52758 0.0
H480 H 0.21861 0.10717 0.93665 0.0
H481 H 0.10915 0.19508 0.95573 0.0
H482 H 0.14357 0.2159 1.00297 0.0
H483 H 0.20301 0.20627 0.04081 0.0
H484 H 0.31104 0.11631 0.02222 0.0
H485 H 0.27935 0.09982 0.97347 0.0
C486 C 0.20249 0.13138 0.95089 0.0
C487 C 0.16113 0.14954 0.94215 0.0
C488 C 0.22228 0.14285 0.97856 0.0
C489 C 0.14087 0.18046 0.96145 0.0
C490 C 0.16059 0.19239 0.98869 0.0
C491 C 0.22003 0.18353 0.02597 0.0
C492 C 0.25972 0.16275 0.03559 0.0
C493 C 0.20107 0.17343 0.99777 0.0
C494 C 0.28061 0.13295 1.01582 0.0
C495 C 0.26238 0.12335 0.98776 0.0
H496 H 0.56487 0.44178 0.28514 0.0
H497 H 0.65271 0.55254 0.26922 0.0
H498 H 0.66871 0.52447 0.21955 0.0
H499 H 0.6623 0.4659 0.18129 0.0
H500 H 0.57609 0.35396 0.19713 0.0
H501 H 0.55508 0.38502 0.24534 0.0
C502 C 0.58699 0.46018 0.27068 0.0
C503 C 0.60749 0.49943 0.28138 0.0
C504 C 0.59673 0.44342 0.24182 0.0
C505 C 0.63641 0.52226 0.26204 0.0
C506 C 0.64572 0.50616 0.23343 0.0
C507 C 0.63828 0.44859 0.19498 0.0
C508 C 0.62079 0.40751 0.18512 0.0
C509 C 0.62671 0.46639 0.22316 0.0
C510 C 0.59014 0.38562 0.20374 0.0
C511 C 0.57816 0.40335 0.23155 0.0
H512 H 0.33083 0.83527 0.55104 0.0
H513 H 0.20653 0.8875 0.51862 0.0
H514 H 0.24004 0.90036 0.46976 0.0
H515 H 0.30659 0.90085 0.43664 0.0
H516 H 0.4309 0.85153 0.471 0.0
H517 H 0.3955 0.83325 0.51811 0.0
C518 C 0.31075 0.84914 0.5333 0.0
C519 C 0.26599 0.86038 0.53886 0.0
C520 C 0.33043 0.85704 0.5053 0.0
C521 C 0.24098 0.87851 0.5153 0.0
C522 C 0.26021 0.88591 0.48722 0.0
C523 C 0.32564 0.88529 0.45425 0.0
C524 C 0.37146 0.87731 0.45 0.0
C525 C 0.30513 0.87578 0.48196 0.0
C526 C 0.3957 0.85798 0.47344 0.0
C527 C 0.37547 0.84761 0.50054 0.0
H528 H 0.86187 0.56143 0.68189 0.0
H529 H 0.92642 0.68365 0.70781 0.0
H530 H 0.94632 0.65093 0.75568 0.0
H531 H 0.94181 0.5892 0.79168 0.0
H532 H 0.87676 0.46713 0.76605 0.0
H533 H 0.86109 0.4981 0.71692 0.0
C534 C 0.88088 0.58081 0.69777 0.0
C535 C 0.89263 0.62519 0.69086 0.0
C536 C 0.89194 0.56185 0.72564 0.0
C537 C 0.91698 0.64952 0.71213 0.0
C538 C 0.92825 0.63083 0.73971 0.0
C539 C 0.92451 0.56909 0.77533 0.0
C540 C 0.91041 0.52569 0.78297 0.0
C541 C 0.91535 0.58725 0.74695 0.0
C542 C 0.8881 0.50049 0.76115 0.0
C543 C 0.879 0.51828 0.73292 0.0
H544 H 0.80029 0.90788 0.10468 0.0
H545 H 0.91986 0.84192 0.07556 0.0
H546 H 0.8858 0.82641 0.02749 0.0
H547 H 0.82377 0.83463 0.99205 0.0
H548 H 0.70356 0.89994 0.02037 0.0
H549 H 0.73581 0.91202 0.06976 0.0
C550 C 0.81872 0.88944 0.08805 0.0
C551 C 0.86295 0.87605 0.09433 0.0
C552 C 0.79879 0.88063 0.05986 0.0
C553 C 0.88596 0.85264 0.07193 0.0
C554 C 0.86646 0.84382 0.04415 0.0
C555 C 0.80426 0.85119 1.00902 0.0
C556 C 0.76093 0.86632 1.00197 0.0
C557 C 0.82314 0.85815 0.03762 0.0
C558 C 0.73672 0.88766 0.02471 0.0
C559 C 0.75533 0.89476 0.05313 0.0
H560 H 0.35818 0.55427 0.84898 0.0
H561 H 0.41886 0.6795 0.826 0.0
H562 H 0.43659 0.65115 0.77662 0.0
H563 H 0.43297 0.59154 0.73849 0.0
H564 H 0.37291 0.46603 0.7616 0.0
H565 H 0.35736 0.49356 0.81152 0.0
C566 C 0.37587 0.57522 0.83338 0.0
C567 C 0.38724 0.61915 0.84177 0.0
C568 C 0.38597 0.55868 0.80451 0.0
C569 C 0.40972 0.64558 0.8207 0.0
C570 C 0.41981 0.6294 0.79216 0.0
C571 C 0.4166 0.57007 0.75441 0.0
C572 C 0.40414 0.52655 0.74573 0.0
C573 C 0.40774 0.58613 0.78359 0.0
C574 C 0.38306 0.49958 0.76715 0.0
C575 C 0.37404 0.51536 0.79595 0.0
H576 H 0.68339 0.17498 0.48313 0.0
H577 H 0.81032 0.13895 0.52047 0.0
H578 H 0.77549 0.12786 0.56917 0.0
H579 H 0.7071 0.12311 0.60068 0.0
H580 H 0.5809 0.15694 0.56127 0.0
H581 H 0.61723 0.17434 0.51442 0.0
C582 C 0.70375 0.16507 0.5019 0.0
C583 C 0.74962 0.15768 0.49778 0.0
C584 C 0.68341 0.15821 0.52977 0.0
C585 C 0.77503 0.14493 0.52269 0.0
C586 C 0.75502 0.13845 0.55066 0.0
C587 C 0.68778 0.1352 0.582 0.0
C588 C 0.64115 0.13883 0.58473 0.0
C589 C 0.709 0.14434 0.55445 0.0
C590 C 0.61668 0.15376 0.55999 0.0
C591 C 0.63746 0.16364 0.53303 0.0
H592 H 0.11351 0.366 0.31979 0.0
H593 H 0.17099 0.47741 0.36658 0.0
H594 H 0.16034 0.52457 0.32325 0.0
H595 H 0.13914 0.53383 0.27016 0.0
H596 H 0.08067 0.42205 0.22416 0.0
H597 H 0.0871 0.37675 0.26843 0.0
C598 C 0.12302 0.40075 0.32074 0.0
C599 C 0.14312 0.41761 0.34672 0.0
C600 C 0.11706 0.42815 0.29543 0.0
C601 C 0.15544 0.46296 0.34709 0.0
C602 C 0.14951 0.49024 0.32214 0.0
C603 C 0.1274 0.49977 0.2699 0.0
C604 C 0.11001 0.48175 0.24334 0.0
C605 C 0.13106 0.47313 0.29588 0.0
C606 C 0.09486 0.43725 0.24385 0.0
C607 C 0.09839 0.41095 0.26934 0.0
H608 H 0.78443 0.68159 0.5099 0.0
H609 H 0.69178 0.61702 0.56898 0.0
H610 H 0.64646 0.59421 0.52707 0.0
H611 H 0.63064 0.59438 0.47438 0.0
H612 H 0.72063 0.65741 0.41305 0.0
H613 H 0.76908 0.67889 0.45478 0.0
C614 C 0.75461 0.66214 0.51343 0.0
C615 C 0.74143 0.6515 0.54272 0.0
C616 C 0.7278 0.64918 0.48883 0.0
C617 C 0.70252 0.62631 0.54684 0.0
C618 C 0.67644 0.61313 0.52284 0.0
C619 C 0.66069 0.61306 0.46992 0.0
C620 C 0.67142 0.62474 0.44048 0.0
C621 C 0.68828 0.62494 0.49385 0.0
C622 C 0.71118 0.64818 0.43544 0.0
C623 C 0.73898 0.66042 0.45936 0.0
H624 H 0.07389 0.95732 0.7913 0.0
H625 H 0.1515 0.07319 0.7693 0.0
H626 H 0.16854 0.04109 0.72052 0.0
H627 H 0.1651 0.97771 0.68497 0.0
H628 H 0.08643 0.86266 0.70761 0.0
H629 H 0.06627 0.89687 0.75484 0.0
C630 C 0.09428 0.97587 0.77581 0.0
C631 C 0.1115 0.01773 0.78432 0.0
C632 C 0.10401 0.95716 0.74771 0.0
C633 C 0.13761 0.04107 0.7636 0.0
C634 C 0.14756 0.02257 0.73563 0.0
C635 C 0.14307 0.96031 0.70003 0.0
C636 C 0.12743 0.91737 0.69239 0.0
C637 C 0.13147 0.9803 0.72754 0.0
C638 C 0.09902 0.89559 0.71252 0.0
C639 C 0.08752 0.91513 0.73974 0.0
H640 H 0.73026 0.38606 1.01603 0.0
H641 H 0.8428 0.32428 0.05873 0.0
H642 H 0.88726 0.33509 1.01421 0.0
H643 H 0.89653 0.36533 0.96347 0.0
H644 H 0.78468 0.42774 0.92051 0.0
H645 H 0.73864 0.41326 0.96405 0.0
C646 C 0.76432 0.37448 1.01554 0.0
C647 C 0.78269 0.3544 0.04123 0.0
C648 C 0.79043 0.38108 0.98951 0.0
C649 C 0.82726 0.34001 0.03973 0.0
C650 C 0.85303 0.3462 1.01409 0.0
C651 C 0.86194 0.37527 0.96338 0.0
C652 C 0.84454 0.39757 0.93826 0.0
C653 C 0.8353 0.36717 0.98888 0.0
C654 C 0.79947 0.41044 0.93916 0.0
C655 C 0.77289 0.40225 0.96426 0.0
H656 H 0.34654 0.05251 0.19074 0.0
H657 H 0.44662 0.15271 0.20432 0.0
H658 H 0.46982 0.11666 0.25057 0.0
H659 H 0.45759 0.06037 0.28961 0.0
H660 H 0.35477 0.96206 0.27756 0.0
H661 H 0.3371 0.99319 0.2288 0.0
C662 C 0.3743 0.06558 0.20341 0.0
C663 C 0.39558 0.10473 0.19359 0.0
C664 C 0.38656 0.04532 0.23073 0.0
C665 C 0.43034 0.12217 0.21095 0.0
C666 C 0.44335 0.10174 0.23761 0.0
C667 C 0.43165 0.04527 0.27625 0.0
C668 C 0.40762 1.00867 0.2877 0.0
C669 C 0.4211 0.06383 0.24814 0.0
C670 C 0.37397 0.99013 0.26972 0.0
C671 C 0.36373 1.00802 0.24166 0.0
H672 H 0.30426 0.40764 0.60066 0.0
H673 H 0.43013 0.34981 0.57617 0.0
H674 H 0.39951 0.32773 0.52801 0.0
H675 H 0.33805 0.32834 0.49137 0.0
H676 H 0.21206 0.3856 0.51634 0.0
H677 H 0.24158 0.40392 0.56538 0.0
C678 C 0.32495 0.3897 0.58499 0.0
C679 C 0.36963 0.38047 0.59236 0.0
C680 C 0.30711 0.37713 0.55709 0.0
C681 C 0.39565 0.35725 0.57147 0.0
C682 C 0.37817 0.34476 0.54372 0.0
C683 C 0.31685 0.34451 0.50758 0.0
C684 C 0.27274 0.35568 0.49975 0.0
C685 C 0.3341 0.35504 0.53606 0.0
C686 C 0.24603 0.3765 0.52138 0.0
C687 C 0.26297 0.38716 0.54958 0.0
H688 H 0.88538 0.96925 0.27058 0.0
H689 H 0.96344 0.0741 0.23128 0.0
H690 H 0.95808 0.11762 0.27664 0.0
H691 H 0.92618 0.12978 0.32632 0.0
H692 H 0.84912 0.02524 0.36673 0.0
H693 H 0.85949 0.97861 0.32289 0.0
C694 C 0.90192 1.00118 0.27216 0.0
C695 C 0.92434 0.01825 0.2471 0.0
C696 C 0.89861 0.02678 0.2987 0.0
C697 C 0.94538 0.06002 0.24984 0.0
C698 C 0.94237 0.08521 0.2759 0.0
C699 C 0.91225 0.09654 0.32582 0.0
C700 C 0.88684 0.08151 0.3501 0.0
C701 C 0.91822 0.06954 0.3003 0.0
C702 C 0.86902 0.03811 0.34864 0.0
C703 C 0.87475 0.01123 0.32337 0.0
H704 H 0.22531 0.60774 0.10405 0.0
H705 H 0.10304 0.67419 0.08088 0.0
H706 H 0.13322 0.6931 0.03233 0.0
H707 H 0.19242 0.68763 0.99484 0.0
H708 H 0.31564 0.62287 0.01736 0.0
H709 H 0.28725 0.60705 0.0673 0.0
C710 C 0.20547 0.62701 0.08861 0.0
C711 C 0.16167 0.63947 0.0966 0.0
C712 C 0.22315 0.63794 0.06024 0.0
C713 C 0.13673 0.66415 0.07584 0.0
C714 C 0.15396 0.67489 0.0478 0.0
C715 C 0.21336 0.67031 1.01067 0.0
C716 C 0.25626 0.65635 1.00193 0.0
C717 C 0.19683 0.66144 0.03953 0.0
C718 C 0.28264 0.63422 0.02316 0.0
C719 C 0.26628 0.62498 0.05183 0.0
H720 H 0.55546 0.96581 0.75122 0.0
H721 H 0.65959 0.06384 0.75777 0.0
H722 H 0.67904 0.03663 0.80722 0.0
H723 H 0.67009 0.98139 0.84801 0.0
H724 H 0.56676 0.88272 0.84054 0.0
H725 H 0.54366 0.91383 0.79296 0.0
C726 C 0.58212 0.98166 0.76351 0.0
C727 C 0.60589 0.01703 0.75025 0.0
C728 C 0.5936 0.96552 0.79218 0.0
C729 C 0.64046 0.03665 0.76695 0.0
C730 C 0.65178 0.02099 0.79544 0.0
C731 C 0.64194 0.96726 0.83629 0.0
C732 C 0.62024 0.92962 0.84831 0.0
C733 C 0.62904 0.985 0.80824 0.0
C734 C 0.58427 0.91157 0.83219 0.0
C735 C 0.57102 0.92931 0.80474 0.0
H736 H 0.48232 0.1717 0.07659 0.0
H737 H 0.40173 0.28671 0.09496 0.0
H738 H 0.46467 0.33553 0.08667 0.0
H739 H 0.54615 0.34353 0.08642 0.0
H740 H 0.62695 0.2291 0.06679 0.0
H741 H 0.5609 0.18281 0.06203 0.0
C742 C 0.47818 0.2075 0.0774 0.0
C743 C 0.43764 0.22542 0.08702 0.0
C744 C 0.51498 0.23576 0.07271 0.0
C745 C 0.43279 0.27193 0.08819 0.0
C746 C 0.46893 0.30006 0.08347 0.0
C747 C 0.54913 0.3091 0.0795 0.0
C748 C 0.59136 0.28965 0.07752 0.0
C749 C 0.51084 0.2822 0.0775 0.0
C750 C 0.59466 0.24477 0.06869 0.0
C751 C 0.55688 0.21804 0.06635 0.0
H752 H 0.49359 0.6632 0.3377 0.0
H753 H 0.62544 0.71812 0.33389 0.0
H754 H 0.59434 0.79298 0.32816 0.0
H755 H 0.53009 0.84283 0.33539 0.0
H756 H 0.39836 0.78796 0.3409 0.0
H757 H 0.42851 0.7129 0.33407 0.0
C758 C 0.51539 0.69144 0.33424 0.0
C759 C 0.56171 0.68533 0.33596 0.0
C760 C 0.49713 0.73435 0.33172 0.0
C761 C 0.58978 0.72203 0.33208 0.0
C762 C 0.57191 0.76485 0.32923 0.0
C763 C 0.50789 0.81452 0.3337 0.0
C764 C 0.46206 0.82075 0.33841 0.0
C765 C 0.52572 0.77152 0.33055 0.0
C766 C 0.43357 0.78397 0.33678 0.0
C767 C 0.45096 0.74103 0.33332 0.0
H768 H 0.91572 0.80097 0.58638 0.0
H769 H 0.96196 0.66579 0.57692 0.0
H770 H 0.03712 0.69305 0.56753 0.0
H771 H 0.09108 0.75331 0.57395 0.0
H772 H 0.04583 0.88714 0.5903 0.0
H773 H 0.96878 0.86275 0.58407 0.0
C774 C 0.94202 0.77738 0.58161 0.0
C775 C 0.93343 0.73123 0.58322 0.0
C776 C 0.98544 0.79323 0.57772 0.0
C777 C 0.96764 0.70133 0.57621 0.0
C778 C 0.01072 0.71696 0.57105 0.0
C779 C 0.06435 0.77744 0.57518 0.0
C780 C 0.07399 0.82181 0.5832 0.0
C781 C 0.0203 0.76258 0.57352 0.0
C782 C 0.03932 0.85288 0.58424 0.0
C783 C 0.99523 0.83872 0.58113 0.0
H784 H 0.02339 0.35786 0.8285 0.0
H785 H 0.89067 0.30583 0.83741 0.0
H786 H 0.91938 0.23011 0.83107 0.0
H787 H 0.98319 0.17973 0.83507 0.0
H788 H 0.11649 0.23241 0.83384 0.0
H789 H 0.08674 0.30695 0.82456 0.0
C790 C 1.00052 0.32997 0.82813 0.0
C791 C 0.95498 0.33732 0.83396 0.0
C792 C 0.0177 0.28668 0.82652 0.0
C793 C 0.92569 0.30113 0.83298 0.0
C794 C 0.94231 0.25781 0.82981 0.0
C795 C 1.00592 0.20736 0.83213 0.0
C796 C 0.0521 0.20068 0.8359 0.0
C797 C 0.98843 0.25026 0.82846 0.0
C798 C 0.08097 0.23658 0.83129 0.0
C799 C 0.06386 0.27926 0.82626 0.0
H800 H 0.53682 0.857 0.94917 0.0
H801 H 0.61837 0.73952 0.95411 0.0
H802 H 0.5528 0.69288 0.95879 0.0
H803 H 0.47194 0.68445 0.94983 0.0
H804 H 0.39037 0.80234 0.94981 0.0
H805 H 0.45554 0.84902 0.95556 0.0
C806 C 0.54032 0.82151 0.95271 0.0
C807 C 0.58243 0.80184 0.95042 0.0
C808 C 0.50215 0.7944 0.95548 0.0
C809 C 0.58619 0.75558 0.95521 0.0
C810 C 0.54861 0.72862 0.95764 0.0
C811 C 0.46825 0.72013 0.95227 0.0
C812 C 0.42634 0.73968 0.94817 0.0
C813 C 0.50622 0.74739 0.95598 0.0
C814 C 0.4224 0.78621 0.9519 0.0
C815 C 0.45976 0.81323 0.95514 0.0
H816 H 0.41282 0.30048 0.68983 0.0
H817 H 0.52307 0.37459 0.7253 0.0
H818 H 0.56617 0.30643 0.7309 0.0
H819 H 0.57874 0.22907 0.71287 0.0
H820 H 0.46711 0.1575 0.67644 0.0
H821 H 0.41903 0.21982 0.68477 0.0
C822 C 0.44525 0.30138 0.70036 0.0
C823 C 0.46494 0.3425 0.7066 0.0
C824 C 0.47057 0.26213 0.70256 0.0
C825 C 0.50727 0.34315 0.72008 0.0
C826 C 0.53231 0.30419 0.72286 0.0
C827 C 0.54356 0.22656 0.708 0.0
C828 C 0.52714 0.18835 0.6937 0.0
C829 C 0.51543 0.26382 0.71219 0.0
C830 C 0.48132 0.18603 0.68732 0.0
C831 C 0.45336 0.22216 0.69191 0.0
H832 H 0.09931 0.23765 0.45417 0.0
H833 H 0.05074 0.37073 0.4397 0.0
H834 H 0.97417 0.34353 0.44317 0.0
H835 H 0.92224 0.28018 0.44082 0.0
H836 H 0.97141 0.14647 0.45192 0.0
H837 H 0.04649 0.17567 0.45969 0.0
C838 C 0.07195 0.261 0.45267 0.0
C839 C 0.08086 0.30626 0.44642 0.0
C840 C 0.02812 0.24475 0.45353 0.0
C841 C 0.04504 0.33598 0.44471 0.0
C842 C 1.0012 0.32021 0.44627 0.0
C843 C 0.9492 0.25736 0.4456 0.0
C844 C 0.94113 0.21094 0.44531 0.0
C845 C 0.99246 0.27439 0.44921 0.0
C846 C 0.97643 0.18212 0.45196 0.0
C847 C 0.01949 0.19889 0.45615 0.0
H848 H 0.10504 0.71974 0.1979 0.0
H849 H 0.98583 0.64407 0.2132 0.0
H850 H 0.94236 0.71213 0.21643 0.0
H851 H 0.93591 0.7924 0.20372 0.0
H852 H 0.05649 0.86833 0.19353 0.0
H853 H 0.10088 0.80186 0.20007 0.0
C854 C 0.07005 0.71817 0.20345 0.0
C855 C 0.04879 0.67664 0.2046 0.0
C856 C 0.04478 0.75782 0.20531 0.0
C857 C 1.00314 0.67559 0.2118 0.0
C858 C 0.97795 0.71462 0.21332 0.0
C859 C 0.97183 0.79471 0.20402 0.0
C860 C 0.9924 0.83533 0.19693 0.0
C861 C 0.99793 0.75593 0.20834 0.0
C862 C 0.03931 0.83738 0.19794 0.0
C863 C 0.06508 0.79921 0.20168 0.0
H864 H 0.26101 0.33645 0.08633 0.0
H865 H 0.32813 0.33216 0.17083 0.0
H866 H 0.2973 0.40477 0.18419 0.0
H867 H 0.23941 0.46213 0.17526 0.0
H868 H 0.17508 0.46669 0.08955 0.0
H869 H 0.21759 0.40261 0.0729 0.0
C870 C 0.27019 0.35235 0.10713 0.0
C871 C 0.29659 0.32924 0.12756 0.0
C872 C 0.25239 0.39408 0.11462 0.0
C873 C 0.30815 0.34976 0.15461 0.0
C874 C 0.29014 0.39108 0.16239 0.0
C875 C 0.23609 0.45014 0.15261 0.0
C876 C 0.20341 0.46843 0.13393 0.0
C877 C 0.26054 0.41266 0.1431 0.0
C878 C 0.1995 0.45258 0.10455 0.0
C879 C 0.22361 0.41575 0.095 0.0
H880 H 0.31317 0.47889 0.42491 0.0
H881 H 0.31386 0.39993 0.34467 0.0
H882 H 0.37514 0.44323 0.32506 0.0
H883 H 0.43757 0.49322 0.33479 0.0
H884 H 0.43791 0.5741 0.41381 0.0
H885 H 0.36723 0.54142 0.42945 0.0
C886 C 0.32589 0.47219 0.40281 0.0
C887 C 0.3098 0.43542 0.38668 0.0
C888 C 0.3618 0.49731 0.39149 0.0
C889 C 0.32642 0.42736 0.35791 0.0
C890 C 0.36154 0.4521 0.34658 0.0
C891 C 0.42111 0.505 0.35476 0.0
C892 C 0.44271 0.53593 0.37306 0.0
C893 C 0.38089 0.48566 0.36376 0.0
C894 C 0.42147 0.55071 0.39912 0.0
C895 C 0.38135 0.53152 0.4083 0.0
H896 H 0.27227 0.6925 0.58554 0.0
H897 H 0.18411 0.67346 0.66004 0.0
H898 H 0.21966 0.60285 0.67142 0.0
H899 H 0.28449 0.55297 0.6655 0.0
H900 H 0.37177 0.57251 0.59062 0.0
H901 H 0.32764 0.63543 0.57408 0.0
C902 C 0.26003 0.6724 0.60379 0.0
C903 C 0.22625 0.689 0.62222 0.0
C904 C 0.281 0.63187 0.61055 0.0
C905 C 0.21044 0.66199 0.64555 0.0
C906 C 0.23097 0.62154 0.65228 0.0
C907 C 0.29302 0.57023 0.64514 0.0
C908 C 0.33199 0.55872 0.62981 0.0
C909 C 0.26764 0.60709 0.63576 0.0
C910 C 0.34245 0.5813 0.60328 0.0
C911 C 0.31726 0.61741 0.59374 0.0
H912 H 0.09599 0.46495 0.9104 0.0
H913 H 0.07539 0.51755 0.82215 0.0
H914 H 0.14788 0.55358 0.82399 0.0
H915 H 0.2096 0.58155 0.85408 0.0
H916 H 0.22879 0.53346 0.94337 0.0
H917 H 0.16502 0.48338 0.93754 0.0
C918 C 0.1079 0.48315 0.8912 0.0
C919 C 0.07989 0.48912 0.86631 0.0
C920 C 0.1492 0.50502 0.89278 0.0
C921 C 0.09597 0.51287 0.84168 0.0
C922 C 0.13738 0.53364 0.84277 0.0
C923 C 0.20061 0.55902 0.87193 0.0
C924 C 0.22348 0.56135 0.89919 0.0
C925 C 0.1632 0.53168 0.86871 0.0
C926 C 0.21183 0.53201 0.92213 0.0
C927 C 0.17501 0.50383 0.91889 0.0
H928 H 0.78245 0.70516 0.94117 0.0
H929 H 0.69534 0.69278 0.86525 0.0
H930 H 0.72697 0.6207 0.85335 0.0
H931 H 0.78828 0.5671 0.85947 0.0
H932 H 0.87423 0.5792 0.93589 0.0
H933 H 0.83365 0.64434 0.95277 0.0
C934 C 0.76974 0.68628 0.92243 0.0
C935 C 0.73763 0.70509 0.90372 0.0
C936 C 0.78819 0.64468 0.91548 0.0
C937 C 0.72081 0.67965 0.87982 0.0
C938 C 0.73891 0.63828 0.87285 0.0
C939 C 0.7972 0.58329 0.88021 0.0
C940 C 0.83487 0.56927 0.89588 0.0
C941 C 0.774 0.62132 0.88974 0.0
C942 C 0.8459 0.59022 0.92296 0.0
C943 C 0.8228 0.62754 0.93268 0.0
H944 H 0.69961 0.60514 0.68637 0.0
H945 H 0.73842 0.53844 0.60544 0.0
H946 H 0.67784 0.48524 0.61157 0.0
H947 H 0.60616 0.46755 0.63455 0.0
H948 H 0.56504 0.5379 0.71365 0.0
H949 H 0.63477 0.57911 0.71399 0.0
C950 C 0.69534 0.57836 0.67041 0.0
C951 C 0.7227 0.57628 0.64516 0.0
C952 C 0.65978 0.5488 0.67362 0.0
C953 C 0.71753 0.54095 0.62497 0.0
C954 C 0.68271 0.5107 0.62836 0.0
C955 C 0.61296 0.49094 0.65237 0.0
C956 C 0.58005 0.50045 0.67364 0.0
C957 C 0.65241 0.5157 0.65181 0.0
C958 C 0.58955 0.53058 0.69672 0.0
C959 C 0.62932 0.5543 0.69686 0.0
H960 H 0.80131 0.33391 0.36614 0.0
H961 H 0.7428 0.30576 0.45168 0.0
H962 H 0.70556 0.37755 0.45137 0.0
H963 H 0.68022 0.44282 0.42346 0.0
H964 H 0.73683 0.47174 0.33786 0.0
H965 H 0.78458 0.40577 0.34158 0.0
C966 C 0.78141 0.34402 0.38506 0.0
C967 C 0.77436 0.31406 0.40868 0.0
C968 C 0.75937 0.38543 0.38459 0.0
C969 C 0.74834 0.32778 0.433 0.0
C970 C 0.7269 0.36888 0.43286 0.0
C971 C 0.70424 0.43542 0.40617 0.0
C972 C 0.70563 0.46209 0.38064 0.0
C973 C 0.7308 0.39717 0.4083 0.0
C974 C 0.73601 0.45198 0.35798 0.0
C975 C 0.76287 0.41401 0.35999 0.0
H976 H 0.82039 0.42235 0.18382 0.0
H977 H 0.78559 0.48469 0.10062 0.0
H978 H 0.85065 0.53306 0.10454 0.0
H979 H 0.92392 0.54731 0.1269 0.0
H980 H 0.96084 0.47988 0.20796 0.0
H981 H 0.88825 0.44402 0.20969 0.0
C982 C 0.82652 0.44715 0.16681 0.0
C983 C 0.79879 0.44929 0.14165 0.0
C984 C 0.86477 0.47344 0.16862 0.0
C985 C 0.80659 0.48217 0.12013 0.0
C986 C 0.84403 0.50955 0.12223 0.0
C987 C 0.91571 0.5256 0.14533 0.0
C988 C 0.948 0.5156 0.167 0.0
C989 C 0.87442 0.50394 0.14565 0.0
C990 C 0.93679 0.48754 0.19078 0.0
C991 C 0.89532 0.467 0.19176 0.0
H992 H 0.8019 0.86382 0.65004 0.0
H993 H 0.71499 0.81608 0.58045 0.0
H994 H 0.67451 0.88616 0.5813 0.0
H995 H 0.65577 0.95494 0.60769 0.0
H996 H 0.73993 1.00243 0.67835 0.0
H997 H 0.79011 0.93897 0.67091 0.0
C998 C 0.7748 0.86909 0.63455 0.0
C999 C 0.76098 0.83419 0.61564 0.0
C1000 C 0.75098 0.90935 0.63553 0.0
C1001 C 0.72599 0.84193 0.59556 0.0
C1002 C 0.7027 0.88203 0.59606 0.0
C1003 C 0.68601 0.95209 0.62071 0.0
C1004 C 0.69448 0.98308 0.64342 0.0
C1005 C 0.71371 0.91509 0.6168 0.0
C1006 C 0.73328 0.97917 0.66046 0.0
C1007 C 0.76156 0.94261 0.65643 0.0
H1008 H 0.81422 0.93829 0.85781 0.0
H1009 H 0.78774 0.99806 0.94317 0.0
H1010 H 0.85137 0.04809 0.93658 0.0
H1011 H 0.92101 0.06553 0.91014 0.0
H1012 H 0.94878 1.00164 0.82609 0.0
H1013 H 0.87774 0.96287 0.8284 0.0
C1014 C 0.82184 0.96293 0.87473 0.0
C1015 C 0.79679 0.96414 0.90114 0.0
C1016 C 0.85899 0.99043 0.87113 0.0
C1017 C 0.80652 0.99655 0.92267 0.0
C1018 C 0.84315 0.02482 0.91899 0.0
C1019 C 0.91109 0.04399 0.89194 0.0
C1020 C 0.94061 0.03602 0.86814 0.0
C1021 C 0.87064 0.02075 0.89384 0.0
C1022 C 0.92704 1.00802 0.84479 0.0
C1023 C 0.88645 0.98571 0.84615 0.0
H1024 H 0.83542 0.05946 0.105 0.0
H1025 H 0.79023 0.03396 0.19428 0.0
H1026 H 0.74239 0.09988 0.19203 0.0
H1027 H 0.72435 0.17154 0.16779 0.0
H1028 H 0.77616 0.19904 0.08027 0.0
H1029 H 0.81049 0.12559 0.07865 0.0
C1030 C 0.8142 0.0677 0.12371 0.0
C1031 C 0.81669 0.04226 0.14988 0.0
C1032 C 0.78866 0.10655 0.12272 0.0
C1033 C 0.78877 0.05293 0.17384 0.0
C1034 C 0.76189 0.09097 0.17268 0.0
C1035 C 0.74225 0.16096 0.14809 0.0
C1036 C 0.74813 0.1908 0.12426 0.0
C1037 C 0.76318 0.11912 0.14773 0.0
C1038 C 0.77164 0.17683 0.09898 0.0
C1039 C 0.79124 0.13487 0.09805 0.0
H1040 H 0.59797 0.95145 0.40594 0.0
H1041 H 0.57308 0.01099 0.32048 0.0
H1042 H 0.64453 0.04947 0.32278 0.0
H1043 H 0.70578 0.07715 0.35325 0.0
H1044 H 0.72782 0.02366 0.44095 0.0
H1045 H 0.66636 0.97125 0.43362 0.0
C1046 C 0.60932 0.97125 0.38728 0.0
C1047 C 0.5809 0.97794 0.3628 0.0
C1048 C 0.64935 0.99521 0.3896 0.0
C1049 C 0.59494 1.00483 0.33919 0.0
C1050 C 0.63546 0.02726 0.34073 0.0
C1051 C 0.69771 0.05338 0.37056 0.0
C1052 C 0.72072 0.05481 0.39783 0.0
C1053 C 0.6617 0.02446 0.36648 0.0
C1054 C 0.71048 0.02336 0.41983 0.0
C1055 C 0.67514 0.99361 0.41569 0.0
H1056 H 0.21532 0.1628 0.37828 0.0
H1057 H 0.27801 0.19642 0.46175 0.0
H1058 H 0.31813 0.12616 0.46132 0.0
H1059 H 0.3454 0.06179 0.43294 0.0
H1060 H 0.28383 0.02747 0.3496 0.0
H1061 H 0.23301 0.09086 0.35432 0.0
C1062 C 0.23665 0.15417 0.39684 0.0
C1063 C 0.24421 0.18539 0.41973 0.0
C1064 C 0.26037 0.11374 0.39625 0.0
C1065 C 0.272 0.17343 0.44361 0.0
C1066 C 0.29518 0.13325 0.44335 0.0
C1067 C 0.31971 0.06741 0.41641 0.0
C1068 C 0.3179 0.04012 0.3911 0.0
C1069 C 0.29116 0.10414 0.41915 0.0
C1070 C 0.28517 0.04782 0.36949 0.0
C1071 C 0.25648 0.08431 0.37206 0.0
H1072 H 0.10382 0.96628 0.12535 0.0
H1073 H 0.06227 0.04633 0.20019 0.0
H1074 H 0.13408 0.08331 0.20094 0.0
H1075 H 0.20321 0.10167 0.17527 0.0
H1076 H 0.245 0.02435 0.09972 0.0
H1077 H 0.17909 0.97681 0.10461 0.0
C1078 C 0.11079 0.99115 0.14221 0.0
C1079 C 0.0772 1.00423 0.16221 0.0
C1080 C 0.15217 0.01288 0.1423 0.0
C1081 C 0.08708 0.03616 0.18414 0.0
C1082 C 0.12821 0.05738 0.18463 0.0
C1083 C 0.19854 0.07334 0.16059 0.0
C1084 C 0.2286 0.0661 0.13731 0.0
C1085 C 0.16021 0.04727 0.1631 0.0
C1086 C 0.2224 0.02989 0.11807 0.0
C1087 C 0.18446 1.00319 0.12066 0.0
H1088 H 0.16062 0.95151 0.92878 0.0
H1089 H 0.23516 0.98893 0.85087 0.0
H1090 H 0.28206 0.92291 0.85667 0.0
H1091 H 0.29323 0.84922 0.87907 0.0
H1092 H 0.21454 0.81015 0.95495 0.0
H1093 H 0.178 0.88254 0.95485 0.0
C1094 C 0.18767 0.94564 0.91334 0.0
C1095 C 0.19396 0.97452 0.8891 0.0
C1096 C 0.21324 0.90705 0.91622 0.0
C1097 C 0.2296 0.9671 0.86964 0.0
C1098 C 0.25609 0.92914 0.87281 0.0
C1099 C 0.26862 0.85671 0.89593 0.0
C1100 C 0.25596 0.82387 0.91662 0.0
C1101 C 0.2469 0.89799 0.89526 0.0
C1102 C 0.22444 0.83448 0.93851 0.0
C1103 C 0.20348 0.87586 0.93844 0.0
H1104 H 0.29622 0.98663 0.62207 0.0
H1105 H 0.31808 0.88933 0.6911 0.0
H1106 H 0.37962 0.93243 0.71057 0.0
H1107 H 0.43594 0.98925 0.70204 0.0
H1108 H 0.41594 0.08722 0.63359 0.0
H1109 H 0.34467 0.05345 0.62052 0.0
C1110 C 0.31384 0.97551 0.64174 0.0
C1111 C 0.30365 0.93403 0.65437 0.0
C1112 C 0.34979 1.0005 0.65294 0.0
C1113 C 0.32623 0.92043 0.68026 0.0
C1114 C 0.36139 0.94512 0.69158 0.0
C1115 C 0.41504 1.00419 0.6851 0.0
C1116 C 0.43115 0.04018 0.66864 0.0
C1117 C 0.37481 0.98399 0.67723 0.0
C1118 C 0.40399 0.05952 0.64671 0.0
C1119 C 0.36352 0.0398 0.63891 0.0
loop_
_geom_bond_atom_site_label_1
_geom_bond_atom_site_label_2
_geom_bond_distance
_geom_bond_site_symmetry_2
_ccdc_geom_bond_type
Fe0 O2 1.918 . S
Fe0 O5 1.997 . S
Fe0 O6 2.002 . S
Fe0 O11 1.976 . S
Fe0 O14 1.996 . S
Fe1 O2 1.918 . S
Fe1 O9 1.997 . S
Fe1 O12 1.996 . S
Fe1 O16 1.976 . S
Fe1 O19 2.002 . S
O2 Fe0 1.918 . S
O2 Fe1 1.918 . S
O2 Fe3 1.918 . S
Fe3 O2 1.918 . S
Fe3 O4 2.002 . S
Fe3 O13 1.976 . S
Fe3 O17 1.996 . S
Fe3 O20 1.997 . S
O4 Fe3 2.002 . S
O4 C21 1.295 . S
O5 Fe0 1.997 . S
O5 C21 1.235 . S
O6 Fe0 2.002 . S
O6 C7 1.295 . S
C7 O6 1.295 . S
C7 O9 1.235 . S
C8 O13 1.287 . S
C8 O14 1.255 . S
O9 Fe1 1.997 . S
O9 C7 1.235 . S
C10 O16 1.287 . S
C10 O17 1.255 . S
O11 Fe0 1.976 . S
O11 C18 1.287 . S
O12 Fe1 1.996 . S
O12 C18 1.255 . S
O13 Fe3 1.976 . S
O13 C8 1.287 . S
O14 Fe0 1.996 . S
O14 C8 1.255 . S
C15 O19 1.295 . S
C15 O20 1.235 . S
O16 Fe1 1.976 . S
O16 C10 1.287 . S
O17 Fe3 1.996 . S
O17 C10 1.255 . S
C18 O11 1.287 . S
C18 O12 1.255 . S
O19 Fe1 2.002 . S
O19 C15 1.295 . S
O20 Fe3 1.997 . S
O20 C15 1.235 . S
C21 O4 1.295 . S
C21 O5 1.235 . S
Fe22 O24 1.918 . S
Fe22 O27 1.997 . S
Fe22 O28 2.002 . S
Fe22 O33 1.976 . S
Fe22 O36 1.996 . S
Fe23 O24 1.918 . S
Fe23 O31 1.997 . S
Fe23 O34 1.996 . S
Fe23 O38 1.976 . S
Fe23 O41 2.002 . S
O24 Fe22 1.918 . S
O24 Fe23 1.918 . S
O24 Fe25 1.918 . S
Fe25 O24 1.918 . S
Fe25 O26 2.002 . S
Fe25 O35 1.976 . S
Fe25 O39 1.996 . S
Fe25 O42 1.997 . S
O26 Fe25 2.002 . S
O26 C43 1.295 . S
O27 Fe22 1.997 . S
O27 C43 1.235 . S
O28 Fe22 2.002 . S
O28 C29 1.295 . S
C29 O28 1.295 . S
C29 O31 1.235 . S
C30 O35 1.287 . S
C30 O36 1.255 . S
O31 Fe23 1.997 . S
O31 C29 1.235 . S
C32 O38 1.287 . S
C32 O39 1.255 . S
O33 Fe22 1.976 . S
O33 C40 1.287 . S
O34 Fe23 1.996 . S
O34 C40 1.255 . S
O35 Fe25 1.976 . S
O35 C30 1.287 . S
O36 Fe22 1.996 . S
O36 C30 1.255 . S
C37 O41 1.295 . S
C37 O42 1.235 . S
O38 Fe23 1.976 . S
O38 C32 1.287 . S
O39 Fe25 1.996 . S
O39 C32 1.255 . S
C40 O33 1.287 . S
C40 O34 1.255 . S
O41 Fe23 2.002 . S
O41 C37 1.295 . S
O42 Fe25 1.997 . S
O42 C37 1.235 . S
C43 O26 1.295 . S
C43 O27 1.235 . S
Fe44 O46 1.918 . S
Fe44 O49 1.997 . S
Fe44 O50 2.002 . S
Fe44 O55 1.976 . S
Fe44 O58 1.996 . S
Fe45 O46 1.918 . S
Fe45 O53 1.997 . S
Fe45 O56 1.996 . S
Fe45 O60 1.976 . S
Fe45 O63 2.002 . S
O46 Fe44 1.918 . S
O46 Fe45 1.918 . S
O46 Fe47 1.918 . S
Fe47 O46 1.918 . S
Fe47 O48 2.002 . S
Fe47 O57 1.976 . S
Fe47 O61 1.996 . S
Fe47 O64 1.997 . S
O48 Fe47 2.002 . S
O48 C65 1.295 . S
O49 Fe44 1.997 . S
O49 C65 1.235 . S
O50 Fe44 2.002 . S
O50 C51 1.295 . S
C51 O50 1.295 . S
C51 O53 1.235 . S
C52 O57 1.287 . S
C52 O58 1.255 . S
O53 Fe45 1.997 . S
O53 C51 1.235 . S
C54 O60 1.287 . S
C54 O61 1.255 . S
O55 Fe44 1.976 . S
O55 C62 1.287 . S
O56 Fe45 1.996 . S
O56 C62 1.255 . S
O57 Fe47 1.976 . S
O57 C52 1.287 . S
O58 Fe44 1.996 . S
O58 C52 1.255 . S
C59 O63 1.295 . S
C59 O64 1.235 . S
O60 Fe45 1.976 . S
O60 C54 1.287 . S
O61 Fe47 1.996 . S
O61 C54 1.255 . S
C62 O55 1.287 . S
C62 O56 1.255 . S
O63 Fe45 2.002 . S
O63 C59 1.295 . S
O64 Fe47 1.997 . S
O64 C59 1.235 . S
C65 O48 1.295 . S
C65 O49 1.235 . S
Fe66 O68 1.918 . S
Fe66 O71 1.997 . S
Fe66 O72 2.002 . S
Fe66 O77 1.976 1_655 S
Fe66 O80 1.996 . S
Fe67 O68 1.918 . S
Fe67 O75 1.997 . S
Fe67 O78 1.996 1_655 S
Fe67 O82 1.976 . S
Fe67 O85 2.002 . S
O68 Fe66 1.918 . S
O68 Fe67 1.918 . S
O68 Fe69 1.918 . S
Fe69 O68 1.918 . S
Fe69 O70 2.002 . S
Fe69 O79 1.976 . S
Fe69 O83 1.996 . S
Fe69 O86 1.997 . S
O70 Fe69 2.002 . S
O70 C87 1.295 . S
O71 Fe66 1.997 . S
O71 C87 1.235 . S
O72 Fe66 2.002 . S
O72 C73 1.295 . S
C73 O72 1.295 . S
C73 O75 1.235 . S
C74 O79 1.287 . S
C74 O80 1.255 . S
O75 Fe67 1.997 . S
O75 C73 1.235 . S
C76 O82 1.287 . S
C76 O83 1.255 . S
O77 Fe66 1.976 1_455 S
O77 C84 1.287 . S
O78 Fe67 1.996 1_455 S
O78 C84 1.255 . S
O79 Fe69 1.976 . S
O79 C74 1.287 . S
O80 Fe66 1.996 . S
O80 C74 1.255 . S
C81 O85 1.295 . S
C81 O86 1.235 . S
O82 Fe67 1.976 . S
O82 C76 1.287 . S
O83 Fe69 1.996 . S
O83 C76 1.255 . S
C84 O77 1.287 . S
C84 O78 1.255 . S
O85 Fe67 2.002 . S
O85 C81 1.295 . S
O86 Fe69 1.997 . S
O86 C81 1.235 . S
C87 O70 1.295 . S
C87 O71 1.235 . S
Fe88 O90 1.918 . S
Fe88 O93 1.997 . S
Fe88 O94 2.002 . S
Fe88 O99 1.976 . S
Fe88 O102 1.996 . S
Fe89 O90 1.918 . S
Fe89 O97 1.997 . S
Fe89 O100 1.996 . S
Fe89 O104 1.976 . S
Fe89 O107 2.002 . S
O90 Fe88 1.918 . S
O90 Fe89 1.918 . S
O90 Fe91 1.918 . S
Fe91 O90 1.918 . S
Fe91 O92 2.002 . S
Fe91 O101 1.976 . S
Fe91 O105 1.996 . S
Fe91 O108 1.997 . S
O92 Fe91 2.002 . S
O92 C109 1.295 . S
O93 Fe88 1.997 . S
O93 C109 1.235 . S
O94 Fe88 2.002 . S
O94 C95 1.295 . S
C95 O94 1.295 . S
C95 O97 1.235 . S
C96 O101 1.287 . S
C96 O102 1.255 . S
O97 Fe89 1.997 . S
O97 C95 1.235 . S
C98 O104 1.287 . S
C98 O105 1.255 . S
O99 Fe88 1.976 . S
O99 C106 1.287 . S
O100 Fe89 1.996 . S
O100 C106 1.255 . S
O101 Fe91 1.976 . S
O101 C96 1.287 . S
O102 Fe88 1.996 . S
O102 C96 1.255 . S
C103 O107 1.295 . S
C103 O108 1.235 . S
O104 Fe89 1.976 . S
O104 C98 1.287 . S
O105 Fe91 1.996 . S
O105 C98 1.255 . S
C106 O99 1.287 . S
C106 O100 1.255 . S
O107 Fe89 2.002 . S
O107 C103 1.295 . S
O108 Fe91 1.997 . S
O108 C103 1.235 . S
C109 O92 1.295 . S
C109 O93 1.235 . S
Fe110 O112 1.918 . S
Fe110 O115 1.997 . S
Fe110 O116 2.002 . S
Fe110 O121 1.976 . S
Fe110 O124 1.996 . S
Fe111 O112 1.918 . S
Fe111 O119 1.997 . S
Fe111 O122 1.996 . S
Fe111 O126 1.976 . S
Fe111 O129 2.002 . S
O112 Fe110 1.918 . S
O112 Fe111 1.918 . S
O112 Fe113 1.918 . S
Fe113 O112 1.918 . S
Fe113 O114 2.002 . S
Fe113 O123 1.976 . S
Fe113 O127 1.996 . S
Fe113 O130 1.997 . S
O114 Fe113 2.002 . S
O114 C131 1.295 . S
O115 Fe110 1.997 . S
O115 C131 1.235 . S
O116 Fe110 2.002 . S
O116 C117 1.295 . S
C117 O116 1.295 . S
C117 O119 1.235 . S
C118 O123 1.287 . S
C118 O124 1.255 . S
O119 Fe111 1.997 . S
O119 C117 1.235 . S
C120 O126 1.287 . S
C120 O127 1.255 . S
O121 Fe110 1.976 . S
O121 C128 1.287 . S
O122 Fe111 1.996 . S
O122 C128 1.255 . S
O123 Fe113 1.976 . S
O123 C118 1.287 . S
O124 Fe110 1.996 . S
O124 C118 1.255 . S
C125 O129 1.295 . S
C125 O130 1.235 . S
O126 Fe111 1.976 . S
O126 C120 1.287 . S
O127 Fe113 1.996 . S
O127 C120 1.255 . S
C128 O121 1.287 . S
C128 O122 1.255 . S
O129 Fe111 2.002 . S
O129 C125 1.295 . S
O130 Fe113 1.997 . S
O130 C125 1.235 . S
C131 O114 1.295 . S
C131 O115 1.235 . S
Fe132 O134 1.918 . S
Fe132 O137 1.997 . S
Fe132 O138 2.002 . S
Fe132 O143 1.976 . S
Fe132 O146 1.996 . S
Fe133 O134 1.918 . S
Fe133 O141 1.997 . S
Fe133 O144 1.996 . S
Fe133 O148 1.976 . S
Fe133 O151 2.002 . S
O134 Fe132 1.918 . S
O134 Fe133 1.918 . S
O134 Fe135 1.918 . S
Fe135 O134 1.918 . S
Fe135 O136 2.002 . S
Fe135 O145 1.976 . S
Fe135 O149 1.996 . S
Fe135 O152 1.997 . S
O136 Fe135 2.002 . S
O136 C153 1.295 . S
O137 Fe132 1.997 . S
O137 C153 1.235 . S
O138 Fe132 2.002 . S
O138 C139 1.295 . S
C139 O138 1.295 . S
C139 O141 1.235 . S
C140 O145 1.287 . S
C140 O146 1.255 . S
O141 Fe133 1.997 . S
O141 C139 1.235 . S
C142 O148 1.287 . S
C142 O149 1.255 . S
O143 Fe132 1.976 . S
O143 C150 1.287 . S
O144 Fe133 1.996 . S
O144 C150 1.255 . S
O145 Fe135 1.976 . S
O145 C140 1.287 . S
O146 Fe132 1.996 . S
O146 C140 1.255 . S
C147 O151 1.295 . S
C147 O152 1.235 . S
O148 Fe133 1.976 . S
O148 C142 1.287 . S
O149 Fe135 1.996 . S
O149 C142 1.255 . S
C150 O143 1.287 . S
C150 O144 1.255 . S
O151 Fe133 2.002 . S
O151 C147 1.295 . S
O152 Fe135 1.997 . S
O152 C147 1.235 . S
C153 O136 1.295 . S
C153 O137 1.235 . S
Fe154 O156 1.918 . S
Fe154 O159 1.997 . S
Fe154 O160 2.002 . S
Fe154 O165 1.976 . S
Fe154 O168 1.996 1_455 S
Fe155 O156 1.918 . S
Fe155 O163 1.997 . S
Fe155 O166 1.996 . S
Fe155 O170 1.976 . S
Fe155 O173 2.002 . S
O156 Fe154 1.918 . S
O156 Fe155 1.918 . S
O156 Fe157 1.918 . S
Fe157 O156 1.918 . S
Fe157 O158 2.002 . S
Fe157 O167 1.976 1_455 S
Fe157 O171 1.996 . S
Fe157 O174 1.997 . S
O158 Fe157 2.002 . S
O158 C175 1.295 . S
O159 Fe154 1.997 . S
O159 C175 1.235 . S
O160 Fe154 2.002 . S
O160 C161 1.295 . S
C161 O160 1.295 . S
C161 O163 1.235 . S
C162 O167 1.287 . S
C162 O168 1.255 . S
O163 Fe155 1.997 . S
O163 C161 1.235 . S
C164 O170 1.287 . S
C164 O171 1.255 . S
O165 Fe154 1.976 . S
O165 C172 1.287 . S
O166 Fe155 1.996 . S
O166 C172 1.255 . S
O167 Fe157 1.976 1_655 S
O167 C162 1.287 . S
O168 Fe154 1.996 1_655 S
O168 C162 1.255 . S
C169 O173 1.295 . S
C169 O174 1.235 . S
O170 Fe155 1.976 . S
O170 C164 1.287 . S
O171 Fe157 1.996 . S
O171 C164 1.255 . S
C172 O165 1.287 . S
C172 O166 1.255 . S
O173 Fe155 2.002 . S
O173 C169 1.295 . S
O174 Fe157 1.997 . S
O174 C169 1.235 . S
C175 O158 1.295 . S
C175 O159 1.235 . S
Fe176 O178 1.918 . S
Fe176 O181 1.997 . S
Fe176 O182 2.002 . S
Fe176 O187 1.976 . S
Fe176 O190 1.996 . S
Fe177 O178 1.918 . S
Fe177 O185 1.997 . S
Fe177 O188 1.996 . S
Fe177 O192 1.976 . S
Fe177 O195 2.002 . S
O178 Fe176 1.918 . S
O178 Fe177 1.918 . S
O178 Fe179 1.918 . S
Fe179 O178 1.918 . S
Fe179 O180 2.002 . S
Fe179 O189 1.976 . S
Fe179 O193 1.996 . S
Fe179 O196 1.997 . S
O180 Fe179 2.002 . S
O180 C197 1.295 . S
O181 Fe176 1.997 . S
O181 C197 1.235 . S
O182 Fe176 2.002 . S
O182 C183 1.295 . S
C183 O182 1.295 . S
C183 O185 1.235 . S
C184 O189 1.287 . S
C184 O190 1.255 . S
O185 Fe177 1.997 . S
O185 C183 1.235 . S
C186 O192 1.287 . S
C186 O193 1.255 . S
O187 Fe176 1.976 . S
O187 C194 1.287 . S
O188 Fe177 1.996 . S
O188 C194 1.255 . S
O189 Fe179 1.976 . S
O189 C184 1.287 . S
O190 Fe176 1.996 . S
O190 C184 1.255 . S
C191 O195 1.295 . S
C191 O196 1.235 . S
O192 Fe177 1.976 . S
O192 C186 1.287 . S
O193 Fe179 1.996 . S
O193 C186 1.255 . S
C194 O187 1.287 . S
C194 O188 1.255 . S
O195 Fe177 2.002 . S
O195 C191 1.295 . S
O196 Fe179 1.997 . S
O196 C191 1.235 . S
C197 O180 1.295 . S
C197 O181 1.235 . S
Fe198 O200 1.918 . S
Fe198 O203 1.997 1_545 S
Fe198 O204 2.002 1_545 S
Fe198 O209 1.976 . S
Fe198 O212 1.996 1_455 S
Fe199 O200 1.918 . S
Fe199 O207 1.997 . S
Fe199 O210 1.996 . S
Fe199 O214 1.976 . S
Fe199 O217 2.002 . S
O200 Fe198 1.918 . S
O200 Fe199 1.918 . S
O200 Fe201 1.918 . S
Fe201 O200 1.918 . S
Fe201 O202 2.002 . S
Fe201 O211 1.976 1_455 S
Fe201 O215 1.996 . S
Fe201 O218 1.997 . S
O202 Fe201 2.002 . S
O202 C219 1.295 . S
O203 Fe198 1.997 1_565 S
O203 C219 1.235 1_565 S
O204 Fe198 2.002 1_565 S
O204 C205 1.295 . S
C205 O204 1.295 . S
C205 O207 1.235 1_565 S
C206 O211 1.287 . S
C206 O212 1.255 . S
O207 Fe199 1.997 . S
O207 C205 1.235 1_545 S
C208 O214 1.287 . S
C208 O215 1.255 . S
O209 Fe198 1.976 . S
O209 C216 1.287 . S
O210 Fe199 1.996 . S
O210 C216 1.255 . S
O211 Fe201 1.976 1_655 S
O211 C206 1.287 . S
O212 Fe198 1.996 1_655 S
O212 C206 1.255 . S
C213 O217 1.295 . S
C213 O218 1.235 . S
O214 Fe199 1.976 . S
O214 C208 1.287 . S
O215 Fe201 1.996 . S
O215 C208 1.255 . S
C216 O209 1.287 . S
C216 O210 1.255 . S
O217 Fe199 2.002 . S
O217 C213 1.295 . S
O218 Fe201 1.997 . S
O218 C213 1.235 . S
C219 O202 1.295 . S
C219 O203 1.235 1_545 S
Fe220 O222 1.918 . S
Fe220 O225 1.997 . S
Fe220 O226 2.002 . S
Fe220 O231 1.976 . S
Fe220 O234 1.996 . S
Fe221 O222 1.918 . S
Fe221 O229 1.997 . S
Fe221 O232 1.996 . S
Fe221 O236 1.976 . S
Fe221 O239 2.002 . S
O222 Fe220 1.918 . S
O222 Fe221 1.918 . S
O222 Fe223 1.918 . S
Fe223 O222 1.918 . S
Fe223 O224 2.002 . S
Fe223 O233 1.976 . S
Fe223 O237 1.996 . S
Fe223 O240 1.997 . S
O224 Fe223 2.002 . S
O224 C241 1.295 . S
O225 Fe220 1.997 . S
O225 C241 1.235 . S
O226 Fe220 2.002 . S
O226 C227 1.295 . S
C227 O226 1.295 . S
C227 O229 1.235 . S
C228 O233 1.287 . S
C228 O234 1.255 . S
O229 Fe221 1.997 . S
O229 C227 1.235 . S
C230 O236 1.287 . S
C230 O237 1.255 . S
O231 Fe220 1.976 . S
O231 C238 1.287 . S
O232 Fe221 1.996 . S
O232 C238 1.255 . S
O233 Fe223 1.976 . S
O233 C228 1.287 . S
O234 Fe220 1.996 . S
O234 C228 1.255 . S
C235 O239 1.295 . S
C235 O240 1.235 . S
O236 Fe221 1.976 . S
O236 C230 1.287 . S
O237 Fe223 1.996 . S
O237 C230 1.255 . S
C238 O231 1.287 . S
C238 O232 1.255 . S
O239 Fe221 2.002 . S
O239 C235 1.295 . S
O240 Fe223 1.997 . S
O240 C235 1.235 . S
C241 O224 1.295 . S
C241 O225 1.235 . S
Fe242 O244 1.918 . S
Fe242 O247 1.997 . S
Fe242 O248 2.002 . S
Fe242 O253 1.976 . S
Fe242 O256 1.996 . S
Fe243 O244 1.918 . S
Fe243 O251 1.997 1_565 S
Fe243 O254 1.996 . S
Fe243 O258 1.976 . S
Fe243 O261 2.002 1_565 S
O244 Fe242 1.918 . S
O244 Fe243 1.918 . S
O244 Fe245 1.918 . S
Fe245 O244 1.918 . S
Fe245 O246 2.002 . S
Fe245 O255 1.976 . S
Fe245 O259 1.996 . S
Fe245 O262 1.997 . S
O246 Fe245 2.002 . S
O246 C263 1.295 . S
O247 Fe242 1.997 . S
O247 C263 1.235 . S
O248 Fe242 2.002 . S
O248 C249 1.295 . S
C249 O248 1.295 . S
C249 O251 1.235 1_565 S
C250 O255 1.287 . S
C250 O256 1.255 . S
O251 Fe243 1.997 1_545 S
O251 C249 1.235 1_545 S
C252 O258 1.287 . S
C252 O259 1.255 . S
O253 Fe242 1.976 . S
O253 C260 1.287 . S
O254 Fe243 1.996 . S
O254 C260 1.255 . S
O255 Fe245 1.976 . S
O255 C250 1.287 . S
O256 Fe242 1.996 . S
O256 C250 1.255 . S
C257 O261 1.295 . S
C257 O262 1.235 1_545 S
O258 Fe243 1.976 . S
O258 C252 1.287 . S
O259 Fe245 1.996 . S
O259 C252 1.255 . S
C260 O253 1.287 . S
C260 O254 1.255 . S
O261 Fe243 2.002 1_545 S
O261 C257 1.295 . S
O262 Fe245 1.997 . S
O262 C257 1.235 1_565 S
C263 O246 1.295 . S
C263 O247 1.235 . S
Fe264 O266 1.918 . S
Fe264 O269 1.997 . S
Fe264 O270 2.002 . S
Fe264 O275 1.976 . S
Fe264 O278 1.996 . S
Fe265 O266 1.918 . S
Fe265 O273 1.997 . S
Fe265 O276 1.996 . S
Fe265 O280 1.976 . S
Fe265 O283 2.002 . S
O266 Fe264 1.918 . S
O266 Fe265 1.918 . S
O266 Fe267 1.918 . S
Fe267 O266 1.918 . S
Fe267 O268 2.002 . S
Fe267 O277 1.976 . S
Fe267 O281 1.996 . S
Fe267 O284 1.997 . S
O268 Fe267 2.002 . S
O268 C285 1.295 . S
O269 Fe264 1.997 . S
O269 C285 1.235 . S
O270 Fe264 2.002 . S
O270 C271 1.295 . S
C271 O270 1.295 . S
C271 O273 1.235 . S
C272 O277 1.287 . S
C272 O278 1.255 . S
O273 Fe265 1.997 . S
O273 C271 1.235 . S
C274 O280 1.287 . S
C274 O281 1.255 . S
O275 Fe264 1.976 . S
O275 C282 1.287 . S
O276 Fe265 1.996 . S
O276 C282 1.255 . S
O277 Fe267 1.976 . S
O277 C272 1.287 . S
O278 Fe264 1.996 . S
O278 C272 1.255 . S
C279 O283 1.295 . S
C279 O284 1.235 . S
O280 Fe265 1.976 . S
O280 C274 1.287 . S
O281 Fe267 1.996 . S
O281 C274 1.255 . S
C282 O275 1.287 . S
C282 O276 1.255 . S
O283 Fe265 2.002 . S
O283 C279 1.295 . S
O284 Fe267 1.997 . S
O284 C279 1.235 . S
C285 O268 1.295 . S
C285 O269 1.235 . S
Fe286 O288 1.918 . S
Fe286 O291 1.997 1_565 S
Fe286 O292 2.002 1_565 S
Fe286 O297 1.976 . S
Fe286 O300 1.996 1_655 S
Fe287 O288 1.918 . S
Fe287 O295 1.997 . S
Fe287 O298 1.996 . S
Fe287 O302 1.976 . S
Fe287 O305 2.002 . S
O288 Fe286 1.918 . S
O288 Fe287 1.918 . S
O288 Fe289 1.918 . S
Fe289 O288 1.918 . S
Fe289 O290 2.002 . S
Fe289 O299 1.976 1_655 S
Fe289 O303 1.996 . S
Fe289 O306 1.997 . S
O290 Fe289 2.002 . S
O290 C307 1.295 . S
O291 Fe286 1.997 1_545 S
O291 C307 1.235 1_545 S
O292 Fe286 2.002 1_545 S
O292 C293 1.295 . S
C293 O292 1.295 . S
C293 O295 1.235 1_545 S
C294 O299 1.287 . S
C294 O300 1.255 . S
O295 Fe287 1.997 . S
O295 C293 1.235 1_565 S
C296 O302 1.287 . S
C296 O303 1.255 . S
O297 Fe286 1.976 . S
O297 C304 1.287 . S
O298 Fe287 1.996 . S
O298 C304 1.255 . S
O299 Fe289 1.976 1_455 S
O299 C294 1.287 . S
O300 Fe286 1.996 1_455 S
O300 C294 1.255 . S
C301 O305 1.295 . S
C301 O306 1.235 . S
O302 Fe287 1.976 . S
O302 C296 1.287 . S
O303 Fe289 1.996 . S
O303 C296 1.255 . S
C304 O297 1.287 . S
C304 O298 1.255 . S
O305 Fe287 2.002 . S
O305 C301 1.295 . S
O306 Fe289 1.997 . S
O306 C301 1.235 . S
C307 O290 1.295 . S
C307 O291 1.235 1_565 S
Fe308 O310 1.918 . S
Fe308 O313 1.997 . S
Fe308 O314 2.002 . S
Fe308 O319 1.976 . S
Fe308 O322 1.996 . S
Fe309 O310 1.918 . S
Fe309 O317 1.997 . S
Fe309 O320 1.996 . S
Fe309 O324 1.976 . S
Fe309 O327 2.002 . S
O310 Fe308 1.918 . S
O310 Fe309 1.918 . S
O310 Fe311 1.918 . S
Fe311 O310 1.918 . S
Fe311 O312 2.002 . S
Fe311 O321 1.976 . S
Fe311 O325 1.996 . S
Fe311 O328 1.997 . S
O312 Fe311 2.002 . S
O312 C329 1.295 . S
O313 Fe308 1.997 . S
O313 C329 1.235 . S
O314 Fe308 2.002 . S
O314 C315 1.295 . S
C315 O314 1.295 . S
C315 O317 1.235 . S
C316 O321 1.287 . S
C316 O322 1.255 . S
O317 Fe309 1.997 . S
O317 C315 1.235 . S
C318 O324 1.287 . S
C318 O325 1.255 . S
O319 Fe308 1.976 . S
O319 C326 1.287 . S
O320 Fe309 1.996 . S
O320 C326 1.255 . S
O321 Fe311 1.976 . S
O321 C316 1.287 . S
O322 Fe308 1.996 . S
O322 C316 1.255 . S
C323 O327 1.295 . S
C323 O328 1.235 . S
O324 Fe309 1.976 . S
O324 C318 1.287 . S
O325 Fe311 1.996 . S
O325 C318 1.255 . S
C326 O319 1.287 . S
C326 O320 1.255 . S
O327 Fe309 2.002 . S
O327 C323 1.295 . S
O328 Fe311 1.997 . S
O328 C323 1.235 . S
C329 O312 1.295 . S
C329 O313 1.235 . S
Fe330 O332 1.918 . S
Fe330 O335 1.997 . S
Fe330 O336 2.002 . S
Fe330 O341 1.976 . S
Fe330 O344 1.996 . S
Fe331 O332 1.918 . S
Fe331 O339 1.997 1_545 S
Fe331 O342 1.996 . S
Fe331 O346 1.976 . S
Fe331 O349 2.002 1_545 S
O332 Fe330 1.918 . S
O332 Fe331 1.918 . S
O332 Fe333 1.918 . S
Fe333 O332 1.918 . S
Fe333 O334 2.002 . S
Fe333 O343 1.976 . S
Fe333 O347 1.996 . S
Fe333 O350 1.997 . S
O334 Fe333 2.002 . S
O334 C351 1.295 . S
O335 Fe330 1.997 . S
O335 C351 1.235 . S
O336 Fe330 2.002 . S
O336 C337 1.295 . S
C337 O336 1.295 . S
C337 O339 1.235 1_545 S
C338 O343 1.287 . S
C338 O344 1.255 . S
O339 Fe331 1.997 1_565 S
O339 C337 1.235 1_565 S
C340 O346 1.287 . S
C340 O347 1.255 . S
O341 Fe330 1.976 . S
O341 C348 1.287 . S
O342 Fe331 1.996 . S
O342 C348 1.255 . S
O343 Fe333 1.976 . S
O343 C338 1.287 . S
O344 Fe330 1.996 . S
O344 C338 1.255 . S
C345 O349 1.295 . S
C345 O350 1.235 1_565 S
O346 Fe331 1.976 . S
O346 C340 1.287 . S
O347 Fe333 1.996 . S
O347 C340 1.255 . S
C348 O341 1.287 . S
C348 O342 1.255 . S
O349 Fe331 2.002 1_565 S
O349 C345 1.295 . S
O350 Fe333 1.997 . S
O350 C345 1.235 1_545 S
C351 O334 1.295 . S
C351 O335 1.235 . S
H352 C358 0.930 . S
H353 C361 0.930 . S
H354 C362 0.930 . S
H355 C363 0.930 . S
H356 C366 0.930 . S
H357 C367 0.930 . S
C358 H352 0.930 . S
C358 C359 1.355 . S
C358 C360 1.415 . S
C359 C358 1.355 . S
C359 C361 1.419 . S
C360 C358 1.415 . S
C360 C365 1.425 . S
C360 C367 1.409 . S
C361 H353 0.930 . S
C361 C359 1.419 . S
C361 C362 1.362 . S
C362 H354 0.930 . S
C362 C361 1.362 . S
C362 C365 1.409 . S
C363 H355 0.930 . S
C363 C364 1.355 . S
C363 C365 1.415 . S
C364 C363 1.355 . S
C364 C366 1.419 . S
C365 C360 1.425 . S
C365 C362 1.409 . S
C365 C363 1.415 . S
C366 H356 0.930 . S
C366 C364 1.419 . S
C366 C367 1.362 . S
C367 H357 0.930 . S
C367 C360 1.409 . S
C367 C366 1.362 . S
H368 C374 0.930 . S
H369 C377 0.930 . S
H370 C378 0.930 . S
H371 C379 0.930 . S
H372 C382 0.930 . S
H373 C383 0.930 . S
C374 H368 0.930 . S
C374 C375 1.355 . S
C374 C376 1.415 . S
C375 C374 1.355 . S
C375 C377 1.419 . S
C376 C374 1.415 . S
C376 C381 1.425 . S
C376 C383 1.409 . S
C377 H369 0.930 . S
C377 C375 1.419 . S
C377 C378 1.362 . S
C378 H370 0.930 . S
C378 C377 1.362 . S
C378 C381 1.409 . S
C379 H371 0.930 . S
C379 C380 1.355 . S
C379 C381 1.415 . S
C380 C379 1.355 . S
C380 C382 1.419 . S
C381 C376 1.425 . S
C381 C378 1.409 . S
C381 C379 1.415 . S
C382 H372 0.930 . S
C382 C380 1.419 . S
C382 C383 1.362 . S
C383 H373 0.930 . S
C383 C376 1.409 . S
C383 C382 1.362 . S
H384 C390 0.930 . S
H385 C393 0.930 . S
H386 C394 0.930 . S
H387 C395 0.930 . S
H388 C398 0.930 . S
H389 C399 0.930 . S
C390 H384 0.930 . S
C390 C391 1.355 . S
C390 C392 1.415 . S
C391 C390 1.355 . S
C391 C393 1.419 . S
C392 C390 1.415 . S
C392 C397 1.425 . S
C392 C399 1.409 . S
C393 H385 0.930 . S
C393 C391 1.419 . S
C393 C394 1.362 . S
C394 H386 0.930 . S
C394 C393 1.362 . S
C394 C397 1.409 . S
C395 H387 0.930 . S
C395 C396 1.355 . S
C395 C397 1.415 . S
C396 C395 1.355 . S
C396 C398 1.419 . S
C397 C392 1.425 . S
C397 C394 1.409 . S
C397 C395 1.415 . S
C398 H388 0.930 . S
C398 C396 1.419 . S
C398 C399 1.362 . S
C399 H389 0.930 . S
C399 C392 1.409 . S
C399 C398 1.362 . S
H400 C406 0.930 . S
H401 C409 0.930 . S
H402 C410 0.930 . S
H403 C411 0.930 . S
H404 C414 0.930 . S
H405 C415 0.930 . S
C406 H400 0.930 . S
C406 C407 1.355 . S
C406 C408 1.432 . S
C407 C406 1.355 . S
C407 C409 1.419 1_655 S
C408 C406 1.432 . S
C408 C413 1.424 1_656 S
C408 C415 1.393 1_556 S
C409 H401 0.930 . S
C409 C407 1.419 1_455 S
C409 C410 1.362 . S
C410 H402 0.930 . S
C410 C409 1.362 . S
C410 C413 1.393 1_556 S
C411 H403 0.930 . S
C411 C412 1.355 . S
C411 C413 1.432 . S
C412 C411 1.355 . S
C412 C414 1.419 1_455 S
C413 C408 1.424 1_454 S
C413 C410 1.393 1_554 S
C413 C411 1.432 . S
C414 H404 0.930 . S
C414 C412 1.419 1_655 S
C414 C415 1.362 . S
C415 H405 0.930 . S
C415 C408 1.393 1_554 S
C415 C414 1.362 . S
H416 C422 0.930 . S
H417 C425 0.930 . S
H418 C426 0.930 . S
H419 C427 0.930 . S
H420 C430 0.930 . S
H421 C431 0.930 . S
C422 H416 0.930 . S
C422 C423 1.355 . S
C422 C424 1.415 . S
C423 C422 1.355 . S
C423 C425 1.419 . S
C424 C422 1.415 . S
C424 C429 1.425 . S
C424 C431 1.409 . S
C425 H417 0.930 . S
C425 C423 1.419 . S
C425 C426 1.362 . S
C426 H418 0.930 . S
C426 C425 1.362 . S
C426 C429 1.409 . S
C427 H419 0.930 . S
C427 C428 1.355 . S
C427 C429 1.415 . S
C428 C427 1.355 . S
C428 C430 1.419 . S
C429 C424 1.425 . S
C429 C426 1.409 . S
C429 C427 1.415 . S
C430 H420 0.930 . S
C430 C428 1.419 . S
C430 C431 1.362 . S
C431 H421 0.930 . S
C431 C424 1.409 . S
C431 C430 1.362 . S
H432 C438 0.930 . S
H433 C441 0.930 . S
H434 C442 0.930 . S
H435 C443 0.930 . S
H436 C446 0.930 . S
H437 C447 0.930 . S
C438 H432 0.930 . S
C438 C439 1.355 . S
C438 C440 1.415 . S
C439 C438 1.355 . S
C439 C441 1.419 . S
C440 C438 1.415 . S
C440 C445 1.425 . S
C440 C447 1.409 . S
C441 H433 0.930 . S
C441 C439 1.419 . S
C441 C442 1.362 . S
C442 H434 0.930 . S
C442 C441 1.362 . S
C442 C445 1.409 . S
C443 H435 0.930 . S
C443 C444 1.355 . S
C443 C445 1.415 . S
C444 C443 1.355 . S
C444 C446 1.419 . S
C445 C440 1.425 . S
C445 C442 1.409 . S
C445 C443 1.415 . S
C446 H436 0.930 . S
C446 C444 1.419 . S
C446 C447 1.362 . S
C447 H437 0.930 . S
C447 C440 1.409 . S
C447 C446 1.362 . S
H448 C454 0.930 . S
H449 C457 0.930 . S
H450 C458 0.930 . S
H451 C459 0.930 . S
H452 C462 0.930 . S
H453 C463 0.930 . S
C454 H448 0.930 . S
C454 C455 1.355 1_545 S
C454 C456 1.415 1_554 S
C455 C454 1.355 1_565 S
C455 C457 1.419 1_655 S
C456 C454 1.415 1_556 S
C456 C461 1.425 1_646 S
C456 C463 1.409 . S
C457 H449 0.930 . S
C457 C455 1.419 1_455 S
C457 C458 1.362 . S
C458 H450 0.930 . S
C458 C457 1.362 . S
C458 C461 1.409 . S
C459 H451 0.930 . S
C459 C460 1.355 1_565 S
C459 C461 1.415 1_556 S
C460 C459 1.355 1_545 S
C460 C462 1.419 1_455 S
C461 C456 1.425 1_464 S
C461 C458 1.409 . S
C461 C459 1.415 1_554 S
C462 H452 0.930 . S
C462 C460 1.419 1_655 S
C462 C463 1.362 . S
C463 H453 0.930 . S
C463 C456 1.409 . S
C463 C462 1.362 . S
H464 C470 0.930 . S
H465 C473 0.930 . S
H466 C474 0.930 . S
H467 C475 0.930 . S
H468 C478 0.930 . S
H469 C479 0.930 . S
C470 H464 0.930 . S
C470 C471 1.355 1_545 S
C470 C472 1.415 . S
C471 C470 1.355 1_565 S
C471 C473 1.419 . S
C472 C470 1.415 . S
C472 C477 1.425 1_545 S
C472 C479 1.409 . S
C473 H465 0.930 . S
C473 C471 1.419 . S
C473 C474 1.362 . S
C474 H466 0.930 . S
C474 C473 1.362 . S
C474 C477 1.409 . S
C475 H467 0.930 . S
C475 C476 1.355 1_565 S
C475 C477 1.415 . S
C476 C475 1.355 1_545 S
C476 C478 1.419 . S
C477 C472 1.425 1_565 S
C477 C474 1.409 . S
C477 C475 1.415 . S
C478 H468 0.930 . S
C478 C476 1.419 . S
C478 C479 1.362 . S
C479 H469 0.930 . S
C479 C472 1.409 . S
C479 C478 1.362 . S
H480 C486 0.930 . S
H481 C489 0.930 . S
H482 C490 0.930 . S
H483 C491 0.930 . S
H484 C494 0.930 . S
H485 C495 0.930 . S
C486 H480 0.930 . S
C486 C487 1.355 . S
C486 C488 1.415 . S
C487 C486 1.355 . S
C487 C489 1.419 . S
C488 C486 1.415 . S
C488 C493 1.425 . S
C488 C495 1.409 1_556 S
C489 H481 0.930 . S
C489 C487 1.419 . S
C489 C490 1.362 . S
C490 H482 0.930 . S
C490 C489 1.362 . S
C490 C493 1.409 . S
C491 H483 0.930 . S
C491 C492 1.355 . S
C491 C493 1.415 1_554 S
C492 C491 1.355 . S
C492 C494 1.419 . S
C493 C488 1.425 . S
C493 C490 1.409 . S
C493 C491 1.415 1_556 S
C494 H484 0.930 . S
C494 C492 1.419 . S
C494 C495 1.362 . S
C495 H485 0.930 . S
C495 C488 1.409 1_554 S
C495 C494 1.362 . S
H496 C502 0.930 . S
H497 C505 0.930 . S
H498 C506 0.930 . S
H499 C507 0.930 . S
H500 C510 0.930 . S
H501 C511 0.930 . S
C502 H496 0.930 . S
C502 C503 1.355 . S
C502 C504 1.415 . S
C503 C502 1.355 . S
C503 C505 1.419 . S
C504 C502 1.415 . S
C504 C509 1.425 . S
C504 C511 1.409 . S
C505 H497 0.930 . S
C505 C503 1.419 . S
C505 C506 1.362 . S
C506 H498 0.930 . S
C506 C505 1.362 . S
C506 C509 1.409 . S
C507 H499 0.930 . S
C507 C508 1.355 . S
C507 C509 1.415 . S
C508 C507 1.355 . S
C508 C510 1.419 . S
C509 C504 1.425 . S
C509 C506 1.409 . S
C509 C507 1.415 . S
C510 H500 0.930 . S
C510 C508 1.419 . S
C510 C511 1.362 . S
C511 H501 0.930 . S
C511 C504 1.409 . S
C511 C510 1.362 . S
H512 C518 0.930 . S
H513 C521 0.930 . S
H514 C522 0.930 . S
H515 C523 0.930 . S
H516 C526 0.930 . S
H517 C527 0.930 . S
C518 H512 0.930 . S
C518 C519 1.355 . S
C518 C520 1.415 . S
C519 C518 1.355 . S
C519 C521 1.419 . S
C520 C518 1.415 . S
C520 C525 1.425 . S
C520 C527 1.409 . S
C521 H513 0.930 . S
C521 C519 1.419 . S
C521 C522 1.362 . S
C522 H514 0.930 . S
C522 C521 1.362 . S
C522 C525 1.409 . S
C523 H515 0.930 . S
C523 C524 1.355 . S
C523 C525 1.415 . S
C524 C523 1.355 . S
C524 C526 1.419 . S
C525 C520 1.425 . S
C525 C522 1.409 . S
C525 C523 1.415 . S
C526 H516 0.930 . S
C526 C524 1.419 . S
C526 C527 1.362 . S
C527 H517 0.930 . S
C527 C520 1.409 . S
C527 C526 1.362 . S
H528 C534 0.930 . S
H529 C537 0.930 . S
H530 C538 0.930 . S
H531 C539 0.930 . S
H532 C542 0.930 . S
H533 C543 0.930 . S
C534 H528 0.930 . S
C534 C535 1.355 . S
C534 C536 1.415 . S
C535 C534 1.355 . S
C535 C537 1.419 . S
C536 C534 1.415 . S
C536 C541 1.425 . S
C536 C543 1.409 . S
C537 H529 0.930 . S
C537 C535 1.419 . S
C537 C538 1.362 . S
C538 H530 0.930 . S
C538 C537 1.362 . S
C538 C541 1.409 . S
C539 H531 0.930 . S
C539 C540 1.355 . S
C539 C541 1.415 . S
C540 C539 1.355 . S
C540 C542 1.419 . S
C541 C536 1.425 . S
C541 C538 1.409 . S
C541 C539 1.415 . S
C542 H532 0.930 . S
C542 C540 1.419 . S
C542 C543 1.362 . S
C543 H533 0.930 . S
C543 C536 1.409 . S
C543 C542 1.362 . S
H544 C550 0.930 . S
H545 C553 0.930 . S
H546 C554 0.930 1_556 S
H547 C555 0.930 . S
H548 C558 0.930 . S
H549 C559 0.930 . S
C550 H544 0.930 . S
C550 C551 1.355 . S
C550 C552 1.415 . S
C551 C550 1.355 . S
C551 C553 1.419 . S
C552 C550 1.415 . S
C552 C557 1.425 . S
C552 C559 1.409 . S
C553 H545 0.930 . S
C553 C551 1.419 . S
C553 C554 1.362 . S
C554 H546 0.930 1_554 S
C554 C553 1.362 . S
C554 C557 1.409 . S
C555 H547 0.930 . S
C555 C556 1.355 . S
C555 C557 1.415 1_556 S
C556 C555 1.355 . S
C556 C558 1.423 . S
C557 C552 1.425 . S
C557 C554 1.409 . S
C557 C555 1.415 1_554 S
C558 H548 0.930 . S
C558 C556 1.423 . S
C558 C559 1.359 1_556 S
C559 H549 0.930 . S
C559 C552 1.409 . S
C559 C558 1.359 1_554 S
H560 C566 0.930 . S
H561 C569 0.930 . S
H562 C570 0.930 . S
H563 C571 0.930 . S
H564 C574 0.930 . S
H565 C575 0.930 . S
C566 H560 0.930 . S
C566 C567 1.355 . S
C566 C568 1.415 . S
C567 C566 1.355 . S
C567 C569 1.419 . S
C568 C566 1.415 . S
C568 C573 1.425 . S
C568 C575 1.409 . S
C569 H561 0.930 . S
C569 C567 1.419 . S
C569 C570 1.362 . S
C570 H562 0.930 . S
C570 C569 1.362 . S
C570 C573 1.409 . S
C571 H563 0.930 . S
C571 C572 1.355 . S
C571 C573 1.415 . S
C572 C571 1.355 . S
C572 C574 1.419 . S
C573 C568 1.425 . S
C573 C570 1.409 . S
C573 C571 1.415 . S
C574 H564 0.930 . S
C574 C572 1.419 . S
C574 C575 1.362 . S
C575 H565 0.930 . S
C575 C568 1.409 . S
C575 C574 1.362 . S
H576 C582 0.930 . S
H577 C585 0.930 . S
H578 C586 0.930 . S
H579 C587 0.930 . S
H580 C590 0.930 . S
H581 C591 0.930 . S
C582 H576 0.930 . S
C582 C583 1.355 . S
C582 C584 1.415 . S
C583 C582 1.355 . S
C583 C585 1.419 . S
C584 C582 1.415 . S
C584 C589 1.425 . S
C584 C591 1.409 . S
C585 H577 0.930 . S
C585 C583 1.419 . S
C585 C586 1.362 . S
C586 H578 0.930 . S
C586 C585 1.362 . S
C586 C589 1.409 . S
C587 H579 0.930 . S
C587 C588 1.355 . S
C587 C589 1.415 . S
C588 C587 1.355 . S
C588 C590 1.419 . S
C589 C584 1.425 . S
C589 C586 1.409 . S
C589 C587 1.415 . S
C590 H580 0.930 . S
C590 C588 1.419 . S
C590 C591 1.362 . S
C591 H581 0.930 . S
C591 C584 1.409 . S
C591 C590 1.362 . S
H592 C598 0.930 . S
H593 C601 0.930 . S
H594 C602 0.930 . S
H595 C603 0.930 . S
H596 C606 0.930 . S
H597 C607 0.930 . S
C598 H592 0.930 . S
C598 C599 1.355 . S
C598 C600 1.415 . S
C599 C598 1.355 . S
C599 C601 1.419 . S
C600 C598 1.415 . S
C600 C605 1.425 . S
C600 C607 1.409 . S
C601 H593 0.930 . S
C601 C599 1.419 . S
C601 C602 1.362 . S
C602 H594 0.930 . S
C602 C601 1.362 . S
C602 C605 1.409 . S
C603 H595 0.930 . S
C603 C604 1.355 . S
C603 C605 1.415 . S
C604 C603 1.355 . S
C604 C606 1.419 . S
C605 C600 1.425 . S
C605 C602 1.409 . S
C605 C603 1.415 . S
C606 H596 0.930 . S
C606 C604 1.419 . S
C606 C607 1.362 . S
C607 H597 0.930 . S
C607 C600 1.409 . S
C607 C606 1.362 . S
H608 C614 0.930 . S
H609 C617 0.930 . S
H610 C618 0.930 . S
H611 C619 0.930 . S
H612 C622 0.930 . S
H613 C623 0.930 . S
C614 H608 0.930 . S
C614 C615 1.355 . S
C614 C616 1.415 . S
C615 C614 1.355 . S
C615 C617 1.419 . S
C616 C614 1.415 . S
C616 C621 1.425 . S
C616 C623 1.409 . S
C617 H609 0.930 . S
C617 C615 1.419 . S
C617 C618 1.362 . S
C618 H610 0.930 . S
C618 C617 1.362 . S
C618 C621 1.409 . S
C619 H611 0.930 . S
C619 C620 1.355 . S
C619 C621 1.415 . S
C620 C619 1.355 . S
C620 C622 1.419 . S
C621 C616 1.425 . S
C621 C618 1.409 . S
C621 C619 1.415 . S
C622 H612 0.930 . S
C622 C620 1.419 . S
C622 C623 1.362 . S
C623 H613 0.930 . S
C623 C616 1.409 . S
C623 C622 1.362 . S
H624 C630 0.929 1_545 S
H625 C633 0.930 . S
H626 C634 0.930 . S
H627 C635 0.930 . S
H628 C638 0.930 . S
H629 C639 0.930 . S
C630 H624 0.929 1_565 S
C630 C631 1.355 1_565 S
C630 C632 1.415 . S
C631 C630 1.355 1_545 S
C631 C633 1.419 1_545 S
C632 C630 1.415 . S
C632 C637 1.425 . S
C632 C639 1.409 . S
C633 H625 0.930 . S
C633 C631 1.419 1_565 S
C633 C634 1.362 . S
C634 H626 0.930 . S
C634 C633 1.362 . S
C634 C637 1.409 . S
C635 H627 0.930 . S
C635 C636 1.355 . S
C635 C637 1.415 . S
C636 C635 1.355 . S
C636 C638 1.419 . S
C637 C632 1.425 . S
C637 C634 1.409 . S
C637 C635 1.415 . S
C638 H628 0.930 . S
C638 C636 1.419 . S
C638 C639 1.362 . S
C639 H629 0.930 . S
C639 C632 1.409 . S
C639 C638 1.362 . S
H640 C646 0.930 . S
H641 C649 0.930 . S
H642 C650 0.930 . S
H643 C651 0.930 . S
H644 C654 0.930 . S
H645 C655 0.930 . S
C646 H640 0.930 . S
C646 C647 1.355 . S
C646 C648 1.415 1_554 S
C647 C646 1.355 . S
C647 C649 1.419 . S
C648 C646 1.415 1_556 S
C648 C653 1.425 . S
C648 C655 1.409 . S
C649 H641 0.930 . S
C649 C647 1.419 . S
C649 C650 1.362 . S
C650 H642 0.930 . S
C650 C649 1.362 . S
C650 C653 1.409 1_554 S
C651 H643 0.930 . S
C651 C652 1.355 . S
C651 C653 1.415 . S
C652 C651 1.355 . S
C652 C654 1.419 . S
C653 C648 1.425 . S
C653 C650 1.409 1_556 S
C653 C651 1.415 . S
C654 H644 0.930 . S
C654 C652 1.419 . S
C654 C655 1.362 . S
C655 H645 0.930 . S
C655 C648 1.409 . S
C655 C654 1.362 . S
H656 C662 0.930 . S
H657 C665 0.930 . S
H658 C666 0.930 . S
H659 C667 0.930 . S
H660 C670 0.930 . S
H661 C671 0.930 . S
C662 H656 0.930 . S
C662 C663 1.355 . S
C662 C664 1.415 . S
C663 C662 1.355 . S
C663 C665 1.419 . S
C664 C662 1.415 . S
C664 C669 1.425 . S
C664 C671 1.409 . S
C665 H657 0.930 . S
C665 C663 1.419 . S
C665 C666 1.362 . S
C666 H658 0.930 . S
C666 C665 1.362 . S
C666 C669 1.409 . S
C667 H659 0.930 . S
C667 C668 1.355 1_545 S
C667 C669 1.415 . S
C668 C667 1.355 1_565 S
C668 C670 1.419 . S
C669 C664 1.425 . S
C669 C666 1.409 . S
C669 C667 1.415 . S
C670 H660 0.930 . S
C670 C668 1.419 . S
C670 C671 1.362 1_565 S
C671 H661 0.930 . S
C671 C664 1.409 . S
C671 C670 1.362 1_545 S
H672 C678 0.930 . S
H673 C681 0.930 . S
H674 C682 0.930 . S
H675 C683 0.930 . S
H676 C686 0.930 . S
H677 C687 0.930 . S
C678 H672 0.930 . S
C678 C679 1.355 . S
C678 C680 1.415 . S
C679 C678 1.355 . S
C679 C681 1.419 . S
C680 C678 1.415 . S
C680 C685 1.425 . S
C680 C687 1.409 . S
C681 H673 0.930 . S
C681 C679 1.419 . S
C681 C682 1.362 . S
C682 H674 0.930 . S
C682 C681 1.362 . S
C682 C685 1.409 . S
C683 H675 0.930 . S
C683 C684 1.355 . S
C683 C685 1.415 . S
C684 C683 1.355 . S
C684 C686 1.419 . S
C685 C680 1.425 . S
C685 C682 1.409 . S
C685 C683 1.415 . S
C686 H676 0.930 . S
C686 C684 1.419 . S
C686 C687 1.362 . S
C687 H677 0.930 . S
C687 C680 1.409 . S
C687 C686 1.362 . S
H688 C694 0.930 . S
H689 C697 0.930 . S
H690 C698 0.930 . S
H691 C699 0.930 . S
H692 C702 0.930 . S
H693 C703 0.930 1_565 S
C694 H688 0.930 . S
C694 C695 1.355 . S
C694 C696 1.415 1_565 S
C695 C694 1.355 . S
C695 C697 1.419 1_565 S
C696 C694 1.415 1_545 S
C696 C701 1.425 . S
C696 C703 1.409 . S
C697 H689 0.930 . S
C697 C695 1.419 1_545 S
C697 C698 1.362 . S
C698 H690 0.930 . S
C698 C697 1.362 . S
C698 C701 1.409 . S
C699 H691 0.930 . S
C699 C700 1.355 . S
C699 C701 1.415 . S
C700 C699 1.355 . S
C700 C702 1.419 . S
C701 C696 1.425 . S
C701 C698 1.409 . S
C701 C699 1.415 . S
C702 H692 0.930 . S
C702 C700 1.419 . S
C702 C703 1.362 . S
C703 H693 0.930 1_545 S
C703 C696 1.409 . S
C703 C702 1.362 . S
H704 C710 0.930 . S
H705 C713 0.930 . S
H706 C714 0.941 . S
H707 C715 0.930 . S
H708 C718 0.930 . S
H709 C719 0.930 . S
C710 H704 0.930 . S
C710 C711 1.355 . S
C710 C712 1.415 . S
C711 C710 1.355 . S
C711 C713 1.419 . S
C712 C710 1.415 . S
C712 C717 1.425 . S
C712 C719 1.409 . S
C713 H705 0.930 . S
C713 C711 1.419 . S
C713 C714 1.362 . S
C714 H706 0.941 . S
C714 C713 1.362 . S
C714 C717 1.409 . S
C715 H707 0.930 . S
C715 C716 1.355 . S
C715 C717 1.415 1_556 S
C716 C715 1.355 . S
C716 C718 1.419 . S
C717 C712 1.425 . S
C717 C714 1.409 . S
C717 C715 1.415 1_554 S
C718 H708 0.930 . S
C718 C716 1.419 . S
C718 C719 1.362 1_556 S
C719 H709 0.930 . S
C719 C712 1.409 . S
C719 C718 1.362 1_554 S
H720 C726 0.930 . S
H721 C729 0.930 . S
H722 C730 0.930 . S
H723 C731 0.930 . S
H724 C734 0.930 . S
H725 C735 0.930 . S
C726 H720 0.930 . S
C726 C727 1.355 1_565 S
C726 C728 1.415 . S
C727 C726 1.355 1_545 S
C727 C729 1.419 . S
C728 C726 1.415 . S
C728 C733 1.425 . S
C728 C735 1.409 . S
C729 H721 0.930 . S
C729 C727 1.419 . S
C729 C730 1.362 . S
C730 H722 0.930 . S
C730 C729 1.362 . S
C730 C733 1.409 1_545 S
C731 H723 0.930 . S
C731 C732 1.355 . S
C731 C733 1.415 . S
C732 C731 1.355 . S
C732 C734 1.419 . S
C733 C728 1.425 . S
C733 C730 1.409 1_565 S
C733 C731 1.415 . S
C734 H724 0.930 . S
C734 C732 1.419 . S
C734 C735 1.362 . S
C735 H725 0.930 . S
C735 C728 1.409 . S
C735 C734 1.362 . S
H736 C742 0.930 . S
H737 C745 0.930 . S
H738 C746 0.930 . S
H739 C747 0.930 . S
H740 C750 0.930 . S
H741 C751 0.930 . S
C742 H736 0.930 . S
C742 C743 1.355 . S
C742 C744 1.415 . S
C743 C742 1.355 . S
C743 C745 1.419 . S
C744 C742 1.415 . S
C744 C749 1.425 . S
C744 C751 1.409 . S
C745 H737 0.930 . S
C745 C743 1.419 . S
C745 C746 1.362 . S
C746 H738 0.930 . S
C746 C745 1.362 . S
C746 C749 1.409 . S
C747 H739 0.930 . S
C747 C748 1.355 . S
C747 C749 1.415 . S
C748 C747 1.355 . S
C748 C750 1.419 . S
C749 C744 1.425 . S
C749 C746 1.409 . S
C749 C747 1.415 . S
C750 H740 0.930 . S
C750 C748 1.419 . S
C750 C751 1.362 . S
C751 H741 0.930 . S
C751 C744 1.409 . S
C751 C750 1.362 . S
H752 C758 0.930 . S
H753 C761 0.930 . S
H754 C762 0.930 . S
H755 C763 0.930 . S
H756 C766 0.930 . S
H757 C767 0.930 . S
C758 H752 0.930 . S
C758 C759 1.355 . S
C758 C760 1.415 . S
C759 C758 1.355 . S
C759 C761 1.419 . S
C760 C758 1.415 . S
C760 C765 1.425 . S
C760 C767 1.409 . S
C761 H753 0.930 . S
C761 C759 1.419 . S
C761 C762 1.362 . S
C762 H754 0.930 . S
C762 C761 1.362 . S
C762 C765 1.409 . S
C763 H755 0.930 . S
C763 C764 1.355 . S
C763 C765 1.415 . S
C764 C763 1.355 . S
C764 C766 1.419 . S
C765 C760 1.425 . S
C765 C762 1.409 . S
C765 C763 1.415 . S
C766 H756 0.930 . S
C766 C764 1.419 . S
C766 C767 1.362 . S
C767 H757 0.930 . S
C767 C760 1.409 . S
C767 C766 1.362 . S
H768 C774 0.930 . S
H769 C777 0.930 . S
H770 C778 0.930 1_455 S
H771 C779 0.930 . S
H772 C782 0.930 . S
H773 C783 0.930 1_655 S
C774 H768 0.930 . S
C774 C775 1.355 . S
C774 C776 1.415 . S
C775 C774 1.355 . S
C775 C777 1.419 . S
C776 C774 1.415 . S
C776 C781 1.425 1_655 S
C776 C783 1.409 1_655 S
C777 H769 0.930 . S
C777 C775 1.419 . S
C777 C778 1.362 . S
C778 H770 0.930 1_655 S
C778 C777 1.362 . S
C778 C781 1.409 1_655 S
C779 H771 0.930 . S
C779 C780 1.355 . S
C779 C781 1.415 . S
C780 C779 1.355 . S
C780 C782 1.419 . S
C781 C776 1.425 1_455 S
C781 C778 1.409 1_455 S
C781 C779 1.415 . S
C782 H772 0.930 . S
C782 C780 1.419 . S
C782 C783 1.362 . S
C783 H773 0.930 1_455 S
C783 C776 1.409 1_455 S
C783 C782 1.362 . S
H784 C790 0.930 . S
H785 C793 0.930 . S
H786 C794 0.930 . S
H787 C795 0.930 . S
H788 C798 0.930 . S
H789 C799 0.930 . S
C790 H784 0.930 . S
C790 C791 1.355 . S
C790 C792 1.415 . S
C791 C790 1.355 . S
C791 C793 1.419 . S
C792 C790 1.415 . S
C792 C797 1.425 1_655 S
C792 C799 1.409 . S
C793 H785 0.930 . S
C793 C791 1.419 . S
C793 C794 1.362 1_655 S
C794 H786 0.930 . S
C794 C793 1.362 1_455 S
C794 C797 1.409 . S
C795 H787 0.930 . S
C795 C796 1.355 . S
C795 C797 1.415 . S
C796 C795 1.355 . S
C796 C798 1.419 . S
C797 C792 1.425 1_455 S
C797 C794 1.409 . S
C797 C795 1.415 . S
C798 H788 0.930 . S
C798 C796 1.419 . S
C798 C799 1.362 1_455 S
C799 H789 0.930 . S
C799 C792 1.409 . S
C799 C798 1.362 1_655 S
H800 C806 0.930 . S
H801 C809 0.930 . S
H802 C810 0.930 . S
H803 C811 0.930 . S
H804 C814 0.930 . S
H805 C815 0.930 . S
C806 H800 0.930 . S
C806 C807 1.355 . S
C806 C808 1.415 . S
C807 C806 1.355 . S
C807 C809 1.419 . S
C808 C806 1.415 . S
C808 C813 1.425 . S
C808 C815 1.409 . S
C809 H801 0.930 . S
C809 C807 1.419 . S
C809 C810 1.362 . S
C810 H802 0.930 . S
C810 C809 1.362 . S
C810 C813 1.409 . S
C811 H803 0.930 . S
C811 C812 1.355 . S
C811 C813 1.415 . S
C812 C811 1.355 . S
C812 C814 1.419 . S
C813 C808 1.425 . S
C813 C810 1.409 . S
C813 C811 1.415 . S
C814 H804 0.930 . S
C814 C812 1.419 . S
C814 C815 1.362 . S
C815 H805 0.930 . S
C815 C808 1.409 . S
C815 C814 1.362 . S
H816 C822 0.930 . S
H817 C825 0.930 . S
H818 C826 0.930 . S
H819 C827 0.930 . S
H820 C830 0.930 . S
H821 C831 0.930 . S
C822 H816 0.930 . S
C822 C823 1.355 . S
C822 C824 1.415 . S
C823 C822 1.355 . S
C823 C825 1.419 . S
C824 C822 1.415 . S
C824 C829 1.425 . S
C824 C831 1.409 . S
C825 H817 0.930 . S
C825 C823 1.419 . S
C825 C826 1.362 . S
C826 H818 0.930 . S
C826 C825 1.362 . S
C826 C829 1.409 . S
C827 H819 0.930 . S
C827 C828 1.355 . S
C827 C829 1.415 . S
C828 C827 1.355 . S
C828 C830 1.419 . S
C829 C824 1.425 . S
C829 C826 1.409 . S
C829 C827 1.415 . S
C830 H820 0.930 . S
C830 C828 1.419 . S
C830 C831 1.362 . S
C831 H821 0.930 . S
C831 C824 1.409 . S
C831 C830 1.362 . S
H832 C838 0.930 . S
H833 C841 0.930 . S
H834 C842 0.930 . S
H835 C843 0.930 . S
H836 C846 0.930 . S
H837 C847 0.930 . S
C838 H832 0.930 . S
C838 C839 1.355 . S
C838 C840 1.415 . S
C839 C838 1.355 . S
C839 C841 1.419 . S
C840 C838 1.415 . S
C840 C845 1.425 1_455 S
C840 C847 1.409 1_455 S
C841 H833 0.930 . S
C841 C839 1.419 . S
C841 C842 1.362 . S
C842 H834 0.930 . S
C842 C841 1.362 . S
C842 C845 1.409 1_455 S
C843 H835 0.930 . S
C843 C844 1.355 . S
C843 C845 1.415 . S
C844 C843 1.355 . S
C844 C846 1.419 . S
C845 C840 1.425 1_655 S
C845 C842 1.409 1_655 S
C845 C843 1.415 . S
C846 H836 0.930 . S
C846 C844 1.419 . S
C846 C847 1.362 . S
C847 H837 0.930 . S
C847 C840 1.409 1_655 S
C847 C846 1.362 . S
H848 C854 0.930 . S
H849 C857 0.930 . S
H850 C858 0.930 . S
H851 C859 0.930 . S
H852 C862 0.930 . S
H853 C863 0.930 . S
C854 H848 0.930 . S
C854 C855 1.355 . S
C854 C856 1.415 . S
C855 C854 1.355 . S
C855 C857 1.419 . S
C856 C854 1.415 . S
C856 C861 1.425 1_455 S
C856 C863 1.409 . S
C857 H849 0.930 . S
C857 C855 1.419 . S
C857 C858 1.362 1_455 S
C858 H850 0.930 . S
C858 C857 1.362 1_655 S
C858 C861 1.409 . S
C859 H851 0.930 . S
C859 C860 1.355 . S
C859 C861 1.415 . S
C860 C859 1.355 . S
C860 C862 1.419 . S
C861 C856 1.425 1_655 S
C861 C858 1.409 . S
C861 C859 1.415 . S
C862 H852 0.930 . S
C862 C860 1.419 . S
C862 C863 1.362 1_655 S
C863 H853 0.930 . S
C863 C856 1.409 . S
C863 C862 1.362 1_455 S
H864 C870 0.930 . S
H865 C873 0.930 . S
H866 C874 0.930 . S
H867 C875 0.930 . S
H868 C878 0.930 . S
H869 C879 0.930 . S
C870 H864 0.930 . S
C870 C871 1.355 . S
C870 C872 1.415 . S
C871 C870 1.355 . S
C871 C873 1.419 . S
C872 C870 1.415 . S
C872 C877 1.425 . S
C872 C879 1.409 . S
C873 H865 0.930 . S
C873 C871 1.419 . S
C873 C874 1.362 . S
C874 H866 0.930 . S
C874 C873 1.362 . S
C874 C877 1.409 . S
C875 H867 0.930 . S
C875 C876 1.355 . S
C875 C877 1.415 . S
C876 C875 1.355 . S
C876 C878 1.419 . S
C877 C872 1.425 . S
C877 C874 1.409 . S
C877 C875 1.415 . S
C878 H868 0.930 . S
C878 C876 1.419 . S
C878 C879 1.362 . S
C879 H869 0.930 . S
C879 C872 1.409 . S
C879 C878 1.362 . S
H880 C886 0.930 . S
H881 C889 0.930 . S
H882 C890 0.930 . S
H883 C891 0.930 . S
H884 C894 0.930 . S
H885 C895 0.930 . S
C886 H880 0.930 . S
C886 C887 1.355 . S
C886 C888 1.415 . S
C887 C886 1.355 . S
C887 C889 1.419 . S
C888 C886 1.415 . S
C888 C893 1.425 . S
C888 C895 1.409 . S
C889 H881 0.930 . S
C889 C887 1.419 . S
C889 C890 1.362 . S
C890 H882 0.930 . S
C890 C889 1.362 . S
C890 C893 1.409 . S
C891 H883 0.930 . S
C891 C892 1.355 . S
C891 C893 1.415 . S
C892 C891 1.355 . S
C892 C894 1.419 . S
C893 C888 1.425 . S
C893 C890 1.409 . S
C893 C891 1.415 . S
C894 H884 0.930 . S
C894 C892 1.419 . S
C894 C895 1.362 . S
C895 H885 0.930 . S
C895 C888 1.409 . S
C895 C894 1.362 . S
H896 C902 0.930 . S
H897 C905 0.930 . S
H898 C906 0.930 . S
H899 C907 0.930 . S
H900 C910 0.930 . S
H901 C911 0.930 . S
C902 H896 0.930 . S
C902 C903 1.355 . S
C902 C904 1.415 . S
C903 C902 1.355 . S
C903 C905 1.419 . S
C904 C902 1.415 . S
C904 C909 1.425 . S
C904 C911 1.409 . S
C905 H897 0.930 . S
C905 C903 1.419 . S
C905 C906 1.362 . S
C906 H898 0.930 . S
C906 C905 1.362 . S
C906 C909 1.409 . S
C907 H899 0.930 . S
C907 C908 1.355 . S
C907 C909 1.415 . S
C908 C907 1.355 . S
C908 C910 1.419 . S
C909 C904 1.425 . S
C909 C906 1.409 . S
C909 C907 1.415 . S
C910 H900 0.930 . S
C910 C908 1.419 . S
C910 C911 1.362 . S
C911 H901 0.930 . S
C911 C904 1.409 . S
C911 C910 1.362 . S
H912 C918 0.930 . S
H913 C921 0.930 . S
H914 C922 0.930 . S
H915 C923 0.930 . S
H916 C926 0.930 . S
H917 C927 0.930 . S
C918 H912 0.930 . S
C918 C919 1.355 . S
C918 C920 1.415 . S
C919 C918 1.355 . S
C919 C921 1.419 . S
C920 C918 1.415 . S
C920 C925 1.425 . S
C920 C927 1.409 . S
C921 H913 0.930 . S
C921 C919 1.419 . S
C921 C922 1.362 . S
C922 H914 0.930 . S
C922 C921 1.362 . S
C922 C925 1.409 . S
C923 H915 0.930 . S
C923 C924 1.355 . S
C923 C925 1.415 . S
C924 C923 1.355 . S
C924 C926 1.419 . S
C925 C920 1.425 . S
C925 C922 1.409 . S
C925 C923 1.415 . S
C926 H916 0.930 . S
C926 C924 1.419 . S
C926 C927 1.362 . S
C927 H917 0.930 . S
C927 C920 1.409 . S
C927 C926 1.362 . S
H928 C934 0.930 . S
H929 C937 0.930 . S
H930 C938 0.930 . S
H931 C939 0.930 . S
H932 C942 0.930 . S
H933 C943 0.930 . S
C934 H928 0.930 . S
C934 C935 1.355 . S
C934 C936 1.415 . S
C935 C934 1.355 . S
C935 C937 1.419 . S
C936 C934 1.415 . S
C936 C941 1.425 . S
C936 C943 1.409 . S
C937 H929 0.930 . S
C937 C935 1.419 . S
C937 C938 1.362 . S
C938 H930 0.930 . S
C938 C937 1.362 . S
C938 C941 1.409 . S
C939 H931 0.930 . S
C939 C940 1.355 . S
C939 C941 1.415 . S
C940 C939 1.355 . S
C940 C942 1.419 . S
C941 C936 1.425 . S
C941 C938 1.409 . S
C941 C939 1.415 . S
C942 H932 0.930 . S
C942 C940 1.419 . S
C942 C943 1.362 . S
C943 H933 0.930 . S
C943 C936 1.409 . S
C943 C942 1.362 . S
H944 C950 0.930 . S
H945 C953 0.930 . S
H946 C954 0.930 . S
H947 C955 0.930 . S
H948 C958 0.930 . S
H949 C959 0.930 . S
C950 H944 0.930 . S
C950 C951 1.355 . S
C950 C952 1.415 . S
C951 C950 1.355 . S
C951 C953 1.419 . S
C952 C950 1.415 . S
C952 C957 1.425 . S
C952 C959 1.409 . S
C953 H945 0.930 . S
C953 C951 1.419 . S
C953 C954 1.362 . S
C954 H946 0.930 . S
C954 C953 1.362 . S
C954 C957 1.409 . S
C955 H947 0.930 . S
C955 C956 1.355 . S
C955 C957 1.415 . S
C956 C955 1.355 . S
C956 C958 1.419 . S
C957 C952 1.425 . S
C957 C954 1.409 . S
C957 C955 1.415 . S
C958 H948 0.930 . S
C958 C956 1.419 . S
C958 C959 1.362 . S
C959 H949 0.930 . S
C959 C952 1.409 . S
C959 C958 1.362 . S
H960 C966 0.930 . S
H961 C969 0.930 . S
H962 C970 0.930 . S
H963 C971 0.930 . S
H964 C974 0.930 . S
H965 C975 0.930 . S
C966 H960 0.930 . S
C966 C967 1.355 . S
C966 C968 1.415 . S
C967 C966 1.355 . S
C967 C969 1.419 . S
C968 C966 1.415 . S
C968 C973 1.425 . S
C968 C975 1.409 . S
C969 H961 0.930 . S
C969 C967 1.419 . S
C969 C970 1.362 . S
C970 H962 0.930 . S
C970 C969 1.362 . S
C970 C973 1.409 . S
C971 H963 0.930 . S
C971 C972 1.355 . S
C971 C973 1.415 . S
C972 C971 1.355 . S
C972 C974 1.419 . S
C973 C968 1.425 . S
C973 C970 1.409 . S
C973 C971 1.415 . S
C974 H964 0.930 . S
C974 C972 1.419 . S
C974 C975 1.362 . S
C975 H965 0.930 . S
C975 C968 1.409 . S
C975 C974 1.362 . S
H976 C982 0.930 . S
H977 C985 0.930 . S
H978 C986 0.930 . S
H979 C987 0.930 . S
H980 C990 0.930 . S
H981 C991 0.930 . S
C982 H976 0.930 . S
C982 C983 1.355 . S
C982 C984 1.415 . S
C983 C982 1.355 . S
C983 C985 1.419 . S
C984 C982 1.415 . S
C984 C989 1.425 . S
C984 C991 1.409 . S
C985 H977 0.930 . S
C985 C983 1.419 . S
C985 C986 1.362 . S
C986 H978 0.930 . S
C986 C985 1.362 . S
C986 C989 1.409 . S
C987 H979 0.930 . S
C987 C988 1.355 . S
C987 C989 1.415 . S
C988 C987 1.355 . S
C988 C990 1.419 . S
C989 C984 1.425 . S
C989 C986 1.409 . S
C989 C987 1.415 . S
C990 H980 0.930 . S
C990 C988 1.419 . S
C990 C991 1.362 . S
C991 H981 0.930 . S
C991 C984 1.409 . S
C991 C990 1.362 . S
H992 C998 0.930 . S
H993 C1001 0.930 . S
H994 C1002 0.930 . S
H995 C1003 0.930 . S
H996 C1006 0.930 . S
H997 C1007 0.930 . S
C998 H992 0.930 . S
C998 C999 1.355 . S
C998 C1000 1.415 . S
C999 C998 1.355 . S
C999 C1001 1.419 . S
C1000 C998 1.415 . S
C1000 C1005 1.425 . S
C1000 C1007 1.409 . S
C1001 H993 0.930 . S
C1001 C999 1.419 . S
C1001 C1002 1.362 . S
C1002 H994 0.930 . S
C1002 C1001 1.362 . S
C1002 C1005 1.409 . S
C1003 H995 0.930 . S
C1003 C1004 1.355 . S
C1003 C1005 1.415 . S
C1004 C1003 1.355 . S
C1004 C1006 1.419 . S
C1005 C1000 1.425 . S
C1005 C1002 1.409 . S
C1005 C1003 1.415 . S
C1006 H996 0.930 . S
C1006 C1004 1.419 . S
C1006 C1007 1.362 . S
C1007 H997 0.930 . S
C1007 C1000 1.409 . S
C1007 C1006 1.362 . S
H1008 C1014 0.930 . S
H1009 C1017 0.930 . S
H1010 C1018 0.930 . S
H1011 C1019 0.930 . S
H1012 C1022 0.930 . S
H1013 C1023 0.930 . S
C1014 H1008 0.930 . S
C1014 C1015 1.355 . S
C1014 C1016 1.415 . S
C1015 C1014 1.355 . S
C1015 C1017 1.419 . S
C1016 C1014 1.415 . S
C1016 C1021 1.425 1_565 S
C1016 C1023 1.409 . S
C1017 H1009 0.930 . S
C1017 C1015 1.419 . S
C1017 C1018 1.362 1_565 S
C1018 H1010 0.930 . S
C1018 C1017 1.362 1_545 S
C1018 C1021 1.409 . S
C1019 H1011 0.930 . S
C1019 C1020 1.355 . S
C1019 C1021 1.415 . S
C1020 C1019 1.355 . S
C1020 C1022 1.419 1_545 S
C1021 C1016 1.425 1_545 S
C1021 C1018 1.409 . S
C1021 C1019 1.415 . S
C1022 H1012 0.930 . S
C1022 C1020 1.419 1_565 S
C1022 C1023 1.362 . S
C1023 H1013 0.930 . S
C1023 C1016 1.409 . S
C1023 C1022 1.362 . S
H1024 C1030 0.930 . S
H1025 C1033 0.927 . S
H1026 C1034 0.930 . S
H1027 C1035 0.930 . S
H1028 C1038 0.930 . S
H1029 C1039 0.930 . S
C1030 H1024 0.930 . S
C1030 C1031 1.355 . S
C1030 C1032 1.415 . S
C1031 C1030 1.355 . S
C1031 C1033 1.419 . S
C1032 C1030 1.415 . S
C1032 C1037 1.425 . S
C1032 C1039 1.409 . S
C1033 H1025 0.927 . S
C1033 C1031 1.419 . S
C1033 C1034 1.362 . S
C1034 H1026 0.930 . S
C1034 C1033 1.362 . S
C1034 C1037 1.409 . S
C1035 H1027 0.930 . S
C1035 C1036 1.355 . S
C1035 C1037 1.415 . S
C1036 C1035 1.355 . S
C1036 C1038 1.419 . S
C1037 C1032 1.425 . S
C1037 C1034 1.409 . S
C1037 C1035 1.415 . S
C1038 H1028 0.930 . S
C1038 C1036 1.419 . S
C1038 C1039 1.362 . S
C1039 H1029 0.930 . S
C1039 C1032 1.409 . S
C1039 C1038 1.362 . S
H1040 C1046 0.930 . S
H1041 C1049 0.930 . S
H1042 C1050 0.930 . S
H1043 C1051 0.930 . S
H1044 C1054 0.930 . S
H1045 C1055 0.930 . S
C1046 H1040 0.930 . S
C1046 C1047 1.355 1_545 S
C1046 C1048 1.415 . S
C1047 C1046 1.355 1_565 S
C1047 C1049 1.419 . S
C1048 C1046 1.415 . S
C1048 C1053 1.439 . S
C1048 C1055 1.409 . S
C1049 H1041 0.930 . S
C1049 C1047 1.419 . S
C1049 C1050 1.362 . S
C1050 H1042 0.930 . S
C1050 C1049 1.362 . S
C1050 C1053 1.387 1_565 S
C1051 H1043 0.930 . S
C1051 C1052 1.355 . S
C1051 C1053 1.424 . S
C1052 C1051 1.355 . S
C1052 C1054 1.419 . S
C1053 C1048 1.439 . S
C1053 C1050 1.387 1_545 S
C1053 C1051 1.424 . S
C1054 H1044 0.930 . S
C1054 C1052 1.419 . S
C1054 C1055 1.362 . S
C1055 H1045 0.930 . S
C1055 C1048 1.409 . S
C1055 C1054 1.362 . S
H1056 C1062 0.930 . S
H1057 C1065 0.930 . S
H1058 C1066 0.930 . S
H1059 C1067 0.930 . S
H1060 C1070 0.949 . S
H1061 C1071 0.930 . S
C1062 H1056 0.930 . S
C1062 C1063 1.355 . S
C1062 C1064 1.415 . S
C1063 C1062 1.355 . S
C1063 C1065 1.419 . S
C1064 C1062 1.415 . S
C1064 C1069 1.425 . S
C1064 C1071 1.409 . S
C1065 H1057 0.930 . S
C1065 C1063 1.419 . S
C1065 C1066 1.362 . S
C1066 H1058 0.930 . S
C1066 C1065 1.362 . S
C1066 C1069 1.409 . S
C1067 H1059 0.930 . S
C1067 C1068 1.355 . S
C1067 C1069 1.415 . S
C1068 C1067 1.355 . S
C1068 C1070 1.419 . S
C1069 C1064 1.425 . S
C1069 C1066 1.409 . S
C1069 C1067 1.415 . S
C1070 H1060 0.949 . S
C1070 C1068 1.419 . S
C1070 C1071 1.362 . S
C1071 H1061 0.930 . S
C1071 C1064 1.409 . S
C1071 C1070 1.362 . S
H1072 C1078 0.930 . S
H1073 C1081 0.930 . S
H1074 C1082 0.930 . S
H1075 C1083 0.930 . S
H1076 C1086 0.930 . S
H1077 C1087 0.930 . S
C1078 H1072 0.930 . S
C1078 C1079 1.355 . S
C1078 C1080 1.415 . S
C1079 C1078 1.355 . S
C1079 C1081 1.419 1_565 S
C1080 C1078 1.415 . S
C1080 C1085 1.425 1_565 S
C1080 C1087 1.409 . S
C1081 H1073 0.930 . S
C1081 C1079 1.419 1_545 S
C1081 C1082 1.362 . S
C1082 H1074 0.930 . S
C1082 C1081 1.362 . S
C1082 C1085 1.409 . S
C1083 H1075 0.930 . S
C1083 C1084 1.355 . S
C1083 C1085 1.415 . S
C1084 C1083 1.355 . S
C1084 C1086 1.419 . S
C1085 C1080 1.425 1_545 S
C1085 C1082 1.409 . S
C1085 C1083 1.415 . S
C1086 H1076 0.930 . S
C1086 C1084 1.419 . S
C1086 C1087 1.362 1_545 S
C1087 H1077 0.930 . S
C1087 C1080 1.409 . S
C1087 C1086 1.362 1_565 S
H1088 C1094 0.930 . S
H1089 C1097 0.930 1_545 S
H1090 C1098 0.930 . S
H1091 C1099 0.930 . S
H1092 C1102 0.930 . S
H1093 C1103 0.930 . S
C1094 H1088 0.930 . S
C1094 C1095 1.355 . S
C1094 C1096 1.415 . S
C1095 C1094 1.355 . S
C1095 C1097 1.419 . S
C1096 C1094 1.415 . S
C1096 C1101 1.425 . S
C1096 C1103 1.409 . S
C1097 H1089 0.930 1_565 S
C1097 C1095 1.419 . S
C1097 C1098 1.362 . S
C1098 H1090 0.930 . S
C1098 C1097 1.362 . S
C1098 C1101 1.409 . S
C1099 H1091 0.930 . S
C1099 C1100 1.355 . S
C1099 C1101 1.415 . S
C1100 C1099 1.355 . S
C1100 C1102 1.419 . S
C1101 C1096 1.425 . S
C1101 C1098 1.409 . S
C1101 C1099 1.415 . S
C1102 H1092 0.930 . S
C1102 C1100 1.419 . S
C1102 C1103 1.362 . S
C1103 H1093 0.930 . S
C1103 C1096 1.409 . S
C1103 C1102 1.362 . S
H1104 C1110 0.930 . S
H1105 C1113 0.930 . S
H1106 C1114 0.930 . S
H1107 C1115 0.930 . S
H1108 C1118 0.930 . S
H1109 C1119 0.930 . S
C1110 H1104 0.930 . S
C1110 C1111 1.355 . S
C1110 C1112 1.415 . S
C1111 C1110 1.355 . S
C1111 C1113 1.419 . S
C1112 C1110 1.415 . S
C1112 C1117 1.425 . S
C1112 C1119 1.409 1_565 S
C1113 H1105 0.930 . S
C1113 C1111 1.419 . S
C1113 C1114 1.362 . S
C1114 H1106 0.930 . S
C1114 C1113 1.362 . S
C1114 C1117 1.409 . S
C1115 H1107 0.930 . S
C1115 C1116 1.355 1_565 S
C1115 C1117 1.415 . S
C1116 C1115 1.355 1_545 S
C1116 C1118 1.419 . S
C1117 C1112 1.425 . S
C1117 C1114 1.409 . S
C1117 C1115 1.415 . S
C1118 H1108 0.930 . S
C1118 C1116 1.419 . S
C1118 C1119 1.362 . S
C1119 H1109 0.930 . S
C1119 C1112 1.409 1_545 S
C1119 C1118 1.362 . S
C359 C7 1.076 . S
C364 C271 1.076 . S
C375 C125 1.110 . S
C380 C29 1.110 . S
C391 C65 1.132 . S
C396 C323 1.132 . S
C407 C73 1.066 . S
C412 C175 1.066 . S
C423 C95 1.074 . S
C428 C183 1.074 . S
C439 C227 1.105 . S
C444 C147 1.105 . S
C455 C307 1.063 . S
C460 C219 1.063 . S
C471 C249 1.095 . S
C476 C337 1.095 . S
C487 C213 1.607 . S
C492 C10 1.560 . S
C503 C32 1.589 . S
C508 C241 1.601 . S
C519 C62 1.573 . S
C524 C263 1.607 . S
C535 C197 1.592 . S
C540 C76 1.596 . S
C551 C301 1.594 . S
C556 C98 1.595 . S
C567 C315 1.593 . S
C572 C118 1.596 . S
C583 C140 1.588 . S
C588 C351 1.602 . S
C599 C285 1.574 . S
C604 C172 1.568 . S
C615 C186 1.550 . S
C620 C43 1.582 . S
C631 C216 1.551 . S
C636 C59 1.603 . S
C647 C230 1.561 . S
C652 C87 1.576 . S
C663 C21 1.606 . S
C668 C252 1.578 . S
C679 C117 1.596 . S
C684 C274 1.594 . S
C695 C304 1.545 . S
C700 C139 1.592 . S
C711 C169 1.605 . S
C716 C316 1.580 . S
C727 C340 1.595 . S
C732 C109 1.582 . S
C743 C8 0.873 . S
C748 C228 0.940 . S
C759 C30 1.002 . S
C764 C250 0.998 . S
C775 C184 0.941 . S
C780 C54 1.014 . S
C791 C74 0.882 . S
C796 C208 0.970 . S
C807 C96 0.924 . S
C812 C326 0.874 . S
C823 C128 0.944 . S
C828 C338 0.874 . S
C839 C272 1.000 . S
C844 C150 0.910 . S
C855 C164 0.919 . S
C860 C296 0.875 . S
C871 C18 1.552 . S
C876 C161 1.552 . S
C887 C279 1.567 . S
C892 C40 1.530 . S
C903 C52 1.531 . S
C908 C131 1.566 . S
C919 C84 1.566 . S
C924 C329 1.544 . S
C935 C106 1.527 . S
C940 C81 1.568 . S
C951 C191 1.595 . S
C956 C120 1.490 . S
C967 C142 1.513 . S
C972 C37 1.582 . S
C983 C235 1.594 . S
C988 C162 1.493 . S
C999 C194 1.501 . S
C1004 C345 1.589 . S
C1015 C103 1.574 . S
C1020 C206 1.524 . S
C1031 C293 1.583 . S
C1036 C238 1.511 . S
C1047 C260 1.566 . S
C1052 C153 1.544 . S
C1063 C282 1.492 . S
C1068 C257 1.594 . S
C1079 C294 1.499 . S
C1084 C15 1.590 . S
C1095 C205 1.595 . S
C1100 C318 1.490 . S
C1111 C51 1.548 . S
C1116 C348 1.558 . S
