# Generated by pormake.
# Topology zfd, (5)-cn, num edge types: 1
# Building blocks:
#     Node 0, Type 0, BuildingBlock: BEQFEK_clean_sbu_0, # of connection points: 5
#     Node 1, Type 0, BuildingBlock: BEQFEK_clean_sbu_0, # of connection points: 5
#     Node 2, Type 0, BuildingBlock: BEQFEK_clean_sbu_0, # of connection points: 5
#     Node 3, Type 0, BuildingBlock: BEQFEK_clean_sbu_0, # of connection points: 5
#     Node 4, Type 0, BuildingBlock: BEQFEK_clean_sbu_0, # of connection points: 5
#     Node 5, Type 0, BuildingBlock: BEQFEK_clean_sbu_0, # of connection points: 5
#     Node 6, Type 0, BuildingBlock: BEQFEK_clean_sbu_0, # of connection points: 5
#     Node 7, Type 0, BuildingBlock: BEQFEK_clean_sbu_0, # of connection points: 5
#     Node 8, Type 0, BuildingBlock: BEQFEK_clean_sbu_0, # of connection points: 5
#     Node 9, Type 0, BuildingBlock: BEQFEK_clean_sbu_0, # of connection points: 5
#     Node 10, Type 0, BuildingBlock: BEQFEK_clean_sbu_0, # of connection points: 5
#     Node 11, Type 0, BuildingBlock: BEQFEK_clean_sbu_0, # of connection points: 5
#     Node 12, Type 0, BuildingBlock: BEQFEK_clean_sbu_0, # of connection points: 5
#     Node 13, Type 0, BuildingBlock: BEQFEK_clean_sbu_0, # of connection points: 5
#     Node 14, Type 0, BuildingBlock: BEQFEK_clean_sbu_0, # of connection points: 5
#     Node 15, Type 0, BuildingBlock: BEQFEK_clean_sbu_0, # of connection points: 5
#     Edge 16, Type (0, 0), BuildingBlock: CIFDUS_clean_linker_0, # of connection points: 2
#     Edge 17, Type (0, 0), BuildingBlock: CIFDUS_clean_linker_0, # of connection points: 2
#     Edge 18, Type (0, 0), BuildingBlock: CIFDUS_clean_linker_0, # of connection points: 2
#     Edge 19, Type (0, 0), BuildingBlock: CIFDUS_clean_linker_0, # of connection points: 2
#     Edge 20, Type (0, 0), BuildingBlock: CIFDUS_clean_linker_0, # of connection points: 2
#     Edge 21, Type (0, 0), BuildingBlock: CIFDUS_clean_linker_0, # of connection points: 2
#     Edge 22, Type (0, 0), BuildingBlock: CIFDUS_clean_linker_0, # of connection points: 2
#     Edge 23, Type (0, 0), BuildingBlock: CIFDUS_clean_linker_0, # of connection points: 2
#     Edge 24, Type (0, 0), BuildingBlock: CIFDUS_clean_linker_0, # of connection points: 2
#     Edge 25, Type (0, 0), BuildingBlock: CIFDUS_clean_linker_0, # of connection points: 2
#     Edge 26, Type (0, 0), BuildingBlock: CIFDUS_clean_linker_0, # of connection points: 2
#     Edge 27, Type (0, 0), BuildingBlock: CIFDUS_clean_linker_0, # of connection points: 2
#     Edge 28, Type (0, 0), BuildingBlock: CIFDUS_clean_linker_0, # of connection points: 2
#     Edge 29, Type (0, 0), BuildingBlock: CIFDUS_clean_linker_0, # of connection points: 2
#     Edge 30, Type (0, 0), BuildingBlock: CIFDUS_clean_linker_0, # of connection points: 2
#     Edge 31, Type (0, 0), BuildingBlock: CIFDUS_clean_linker_0, # of connection points: 2
#     Edge 32, Type (0, 0), BuildingBlock: CIFDUS_clean_linker_0, # of connection points: 2
#     Edge 33, Type (0, 0), BuildingBlock: CIFDUS_clean_linker_0, # of connection points: 2
#     Edge 34, Type (0, 0), BuildingBlock: CIFDUS_clean_linker_0, # of connection points: 2
#     Edge 35, Type (0, 0), BuildingBlock: CIFDUS_clean_linker_0, # of connection points: 2
#     Edge 36, Type (0, 0), BuildingBlock: CIFDUS_clean_linker_0, # of connection points: 2
#     Edge 37, Type (0, 0), BuildingBlock: CIFDUS_clean_linker_0, # of connection points: 2
#     Edge 38, Type (0, 0), BuildingBlock: CIFDUS_clean_linker_0, # of connection points: 2
#     Edge 39, Type (0, 0), BuildingBlock: CIFDUS_clean_linker_0, # of connection points: 2
#     Edge 40, Type (0, 0), BuildingBlock: CIFDUS_clean_linker_0, # of connection points: 2
#     Edge 41, Type (0, 0), BuildingBlock: CIFDUS_clean_linker_0, # of connection points: 2
#     Edge 42, Type (0, 0), BuildingBlock: CIFDUS_clean_linker_0, # of connection points: 2
#     Edge 43, Type (0, 0), BuildingBlock: CIFDUS_clean_linker_0, # of connection points: 2
#     Edge 44, Type (0, 0), BuildingBlock: CIFDUS_clean_linker_0, # of connection points: 2
#     Edge 45, Type (0, 0), BuildingBlock: CIFDUS_clean_linker_0, # of connection points: 2
#     Edge 46, Type (0, 0), BuildingBlock: CIFDUS_clean_linker_0, # of connection points: 2
#     Edge 47, Type (0, 0), BuildingBlock: CIFDUS_clean_linker_0, # of connection points: 2
#     Edge 48, Type (0, 0), BuildingBlock: CIFDUS_clean_linker_0, # of connection points: 2
#     Edge 49, Type (0, 0), BuildingBlock: CIFDUS_clean_linker_0, # of connection points: 2
#     Edge 50, Type (0, 0), BuildingBlock: CIFDUS_clean_linker_0, # of connection points: 2
#     Edge 51, Type (0, 0), BuildingBlock: CIFDUS_clean_linker_0, # of connection points: 2
#     Edge 52, Type (0, 0), BuildingBlock: CIFDUS_clean_linker_0, # of connection points: 2
#     Edge 53, Type (0, 0), BuildingBlock: CIFDUS_clean_linker_0, # of connection points: 2
#     Edge 54, Type (0, 0), BuildingBlock: CIFDUS_clean_linker_0, # of connection points: 2
#     Edge 55, Type (0, 0), BuildingBlock: CIFDUS_clean_linker_0, # of connection points: 2
# Relax obj value: 0.215
# Max RMSD: 0.095
# Mean RMSD: 0.095
data_MOF--net-zfd--node1-BEQFEK_clean_sbu_0--edge1-CIFDUS_clean_linker_0
_symmetry_space_group_name_H-M    P1
_symmetry_Int_Tables_number       1
_symmetry_cell_setting            triclinic
loop_
_symmetry_equiv_pos_as_xyz
'x, y, z'
_cell_length_a     56.31183
_cell_length_b     55.954564
_cell_length_c     20.619174
_cell_angle_alpha  90.009075
_cell_angle_beta   90.045454
_cell_angle_gamma 89.586261
loop_
_atom_site_label
_atom_site_type_symbol
_atom_site_fract_x
_atom_site_fract_y
_atom_site_fract_z
_atom_type_partial_charge
Co0 Co 0.15253 0.23678 0.98454 0.0
Co1 Co 0.13014 0.27159 0.07462 0.0
C2 C 0.15304 0.22558 0.12962 0.0
O3 O 0.15879 0.2199 0.07176 0.0
O4 O 0.14031 0.24442 0.13854 0.0
C5 C 0.15801 0.19155 0.92267 0.0
O6 O 0.1501 0.18205 0.97667 0.0
C7 C 0.0935 0.29286 0.15384 0.0
C8 C 0.10306 0.3312 0.15266 0.0
C9 C 0.08596 0.31533 0.1733 0.0
N10 N 0.11387 0.29536 0.12153 0.0
N11 N 0.11973 0.31821 0.12157 0.0
C12 C 0.08194 0.26928 0.16628 0.0
H13 H 0.06944 0.26515 0.12636 0.0
H14 H 0.07187 0.26971 0.21253 0.0
H15 H 0.09549 0.25481 0.16787 0.0
C16 C 0.10436 0.24258 0.90948 0.0
N17 N 0.1195 0.24653 0.9605 0.0
N18 N 0.11026 0.26322 0.9975 0.0
C19 C 0.08946 0.27094 0.96944 0.0
C20 C 0.08456 0.25806 0.91181 0.0
C21 C 0.10785 0.22348 0.86 0.0
H22 H 0.11945 0.23039 0.82105 0.0
H23 H 0.11595 0.20759 0.88291 0.0
H24 H 0.09072 0.21805 0.83809 0.0
O25 O 0.1761 0.26447 0.97738 0.0
O26 O 0.16016 0.28819 0.05116 0.0
H27 H 0.08737 0.305 1.01741 0.0
H28 H 0.06626 0.30111 0.95239 0.0
C29 C 0.07553 0.29205 0.99317 0.0
H30 H 0.06196 0.28601 1.02829 0.0
H31 H 0.13471 0.32509 0.09855 0.0
O32 O 0.16173 0.21387 0.91954 0.0
C33 C 0.17681 0.28351 1.01157 0.0
Co34 Co 0.81901 0.14652 1.0065 0.0
Co35 Co 0.78585 0.12497 0.09964 0.0
C36 C 0.83029 0.14757 0.15399 0.0
O37 O 0.83429 0.15143 0.09437 0.0
O38 O 0.81165 0.13577 0.1686 0.0
C39 C 0.86277 0.16532 0.97147 0.0
O40 O 0.86048 0.17876 1.02326 0.0
C41 C 0.76218 0.09731 0.19809 0.0
C42 C 0.72461 0.09932 0.16673 0.0
C43 C 0.73945 0.09043 0.21465 0.0
N44 N 0.76085 0.11019 0.1437 0.0
N45 N 0.73838 0.11158 0.12529 0.0
C46 C 0.78508 0.0898 0.22916 0.0
H47 H 0.79987 0.09089 0.19376 0.0
H48 H 0.78391 0.07127 0.24804 0.0
H49 H 0.78892 0.10192 0.27041 0.0
C50 C 0.81222 0.10027 0.92951 0.0
N51 N 0.80919 0.11445 0.98281 0.0
N52 N 0.7951 0.10392 1.02414 0.0
C53 C 0.78877 0.08234 0.99795 0.0
C54 C 0.79948 0.07881 0.93598 0.0
C55 C 0.82526 0.10821 0.87018 0.0
H56 H 0.82438 0.12793 0.86547 0.0
H57 H 0.84416 0.10271 0.87444 0.0
H58 H 0.81771 0.09998 0.82584 0.0
O59 O 0.79294 0.17143 0.9961 0.0
O60 O 0.76962 0.15545 0.06997 0.0
H61 H 0.75382 0.07019 1.01926 0.0
H62 H 0.77597 0.04672 1.01584 0.0
C63 C 0.77245 0.06539 0.03143 0.0
H64 H 0.77464 0.06681 0.08475 0.0
H65 H 0.73251 0.12059 0.08388 0.0
O66 O 0.8455 0.15287 0.95176 0.0
C67 C 0.77391 0.17217 1.0298 0.0
Co68 Co 0.90448 0.8232 1.00745 0.0
Co69 Co 0.93279 0.78874 0.08379 0.0
C70 C 0.90797 0.82993 0.1548 0.0
O71 O 0.90044 0.83565 0.09891 0.0
O72 O 0.92259 0.8123 0.15921 0.0
C73 C 0.90311 0.87107 0.97821 0.0
O74 O 0.92215 0.87142 1.01499 0.0
C75 C 0.97294 0.7663 0.14673 0.0
C76 C 0.9651 0.72779 0.13502 0.0
C77 C 0.98204 0.74362 0.15677 0.0
N78 N 0.95171 0.76411 0.11854 0.0
N79 N 0.94697 0.7411 0.11196 0.0
C80 C 0.98379 0.78969 0.1651 0.0
H81 H 1.00145 0.79163 0.14213 0.0
H82 H 0.98651 0.79019 0.2184 0.0
H83 H 0.97215 0.80481 0.15013 0.0
C84 C 0.94831 0.82103 0.91499 0.0
N85 N 0.93666 0.81619 0.97169 0.0
N86 N 0.94974 0.80143 1.00611 0.0
C87 C 0.97016 0.7965 0.97199 0.0
C88 C 0.97052 0.80907 0.91245 0.0
C89 C 0.93768 0.83551 0.86118 0.0
H90 H 0.92374 0.8476 0.87928 0.0
H91 H 0.95154 0.84602 0.83599 0.0
H92 H 0.92921 0.82334 0.82571 0.0
O93 O 0.88146 0.79534 0.99815 0.0
O94 O 0.90358 0.77071 0.05673 0.0
H95 H 0.998 0.77111 0.9484 0.0
H96 H 1.00001 0.78462 1.02737 0.0
C97 C 0.98757 0.7774 0.99076 0.0
H98 H 0.97814 0.76195 1.01181 0.0
H99 H 0.93164 0.73444 0.09025 0.0
O100 O 0.89306 0.85136 0.96476 0.0
C101 C 0.8847 0.77492 1.02458 0.0
Co102 Co 0.2367 0.90723 0.99177 0.0
Co103 Co 0.26817 0.93276 0.08429 0.0
C104 C 0.22474 0.90608 0.13805 0.0
O105 O 0.21995 0.90015 0.07957 0.0
O106 O 0.24244 0.91996 0.14832 0.0
C107 C 0.19276 0.90506 0.92711 0.0
O108 O 0.18458 0.91637 0.97835 0.0
C109 C 0.29761 0.95143 0.18994 0.0
C110 C 0.32529 0.96997 0.13357 0.0
C111 C 0.31809 0.96516 0.19652 0.0
N112 N 0.29264 0.94943 0.12661 0.0
N113 N 0.30976 0.95966 0.0932 0.0
C114 C 0.28496 0.9373 0.24081 0.0
H115 H 0.2794 0.91985 0.22054 0.0
H116 H 0.26872 0.94712 0.25624 0.0
H117 H 0.2966 0.93386 0.28331 0.0
C118 C 0.241 0.95551 0.91581 0.0
N119 N 0.24435 0.94108 0.9688 0.0
N120 N 0.25663 0.95295 1.01194 0.0
C121 C 0.26052 0.97552 0.98864 0.0
C122 C 0.25089 0.97826 0.92573 0.0
C123 C 0.23141 0.9468 0.85288 0.0
H124 H 0.23799 0.92836 0.84455 0.0
H125 H 0.21176 0.94698 0.85528 0.0
H126 H 0.23704 0.95823 0.81182 0.0
O127 O 0.26527 0.88467 0.98473 0.0
O128 O 0.28757 0.9049 0.0529 0.0
H129 H 0.29135 0.99591 1.01209 0.0
H130 H 0.264 1.01238 1.01602 0.0
C131 C 0.27244 0.99481 1.02659 0.0
H132 H 0.27138 0.99107 0.07934 0.0
H133 H 0.31083 0.95956 0.04268 0.0
O134 O 0.21421 0.89791 0.92589 0.0
C135 C 0.28476 0.88711 1.0155 0.0
Co136 Co 0.14919 0.82778 0.56222 0.0
Co137 Co 0.12503 0.79033 0.48589 0.0
C138 C 0.14834 0.83219 0.41372 0.0
O139 O 0.15392 0.83963 0.46991 0.0
O140 O 0.13546 0.81337 0.40953 0.0
C141 C 0.1505 0.87633 0.59319 0.0
O142 O 0.13296 0.87844 0.55159 0.0
C143 C 0.09382 0.76257 0.40361 0.0
C144 C 0.09781 0.72632 0.4457 0.0
C145 C 0.08652 0.7391 0.39717 0.0
N146 N 0.10908 0.76358 0.45307 0.0
N147 N 0.11157 0.7419 0.47788 0.0
C148 C 0.08504 0.78415 0.36771 0.0
H149 H 0.08787 0.80052 0.39706 0.0
H150 H 0.0659 0.7824 0.3558 0.0
H151 H 0.09511 0.78591 0.32175 0.0
C152 C 0.10389 0.8242 0.64783 0.0
N153 N 0.11703 0.81938 0.59361 0.0
N154 N 0.10587 0.80333 0.55903 0.0
C155 C 0.08517 0.79759 0.59016 0.0
C156 C 0.08277 0.81069 0.64872 0.0
C157 C 0.11189 0.84078 0.70025 0.0
H158 H 0.12147 0.85596 0.67915 0.0
H159 H 0.09663 0.84774 0.72874 0.0
H160 H 0.12426 0.8311 0.7331 0.0
O161 O 0.17361 0.80114 0.57612 0.0
O162 O 0.15476 0.77431 0.5176 0.0
H163 H 0.07958 0.76072 0.56927 0.0
H164 H 0.05351 0.77595 0.5992 0.0
C165 C 0.06943 0.77777 0.5681 0.0
H166 H 0.06394 0.78101 0.51715 0.0
H167 H 0.12236 0.73781 0.5176 0.0
O168 O 0.15899 0.8559 0.60779 0.0
C169 C 0.17258 0.78018 0.55173 0.0
Co170 Co 0.23057 0.15279 0.55648 0.0
Co171 Co 0.2678 0.12678 0.48246 0.0
C172 C 0.22558 0.14974 0.40955 0.0
O173 O 0.21826 0.1562 0.46503 0.0
O174 O 0.24437 0.13665 0.40651 0.0
C175 C 0.183 0.15262 0.58773 0.0
O176 O 0.18299 0.13339 0.55123 0.0
C177 C 0.28843 0.08604 0.41958 0.0
C178 C 0.32649 0.08887 0.44515 0.0
C179 C 0.30983 0.0737 0.41843 0.0
N180 N 0.29202 0.1071 0.44835 0.0
N181 N 0.31485 0.10902 0.46239 0.0
C182 C 0.26468 0.07804 0.39534 0.0
H183 H 0.25491 0.09337 0.37388 0.0
H184 H 0.25395 0.07128 0.43641 0.0
H185 H 0.26655 0.06377 0.35827 0.0
C186 C 0.23268 0.10795 0.64551 0.0
N187 N 0.23865 0.1209 0.5917 0.0
N188 N 0.25547 0.10942 0.56039 0.0
C189 C 0.26095 0.08904 0.59467 0.0
C190 C 0.24638 0.08688 0.64996 0.0
C191 C 0.21537 0.11616 0.69574 0.0
H192 H 0.21305 0.13582 0.69439 0.0
H193 H 0.19813 0.1074 0.68647 0.0
H194 H 0.22141 0.11065 0.74482 0.0
O195 O 0.25759 0.17695 0.56495 0.0
O196 O 0.28448 0.15709 0.50776 0.0
H197 H 0.2964 0.08182 0.56263 0.0
H198 H 0.28455 0.05936 0.61622 0.0
C199 C 0.28023 0.0719 0.5763 0.0
H200 H 0.2742 0.06131 0.53436 0.0
H201 H 0.32221 0.12339 0.48734 0.0
O202 O 0.20235 0.16334 0.60021 0.0
C203 C 0.2783 0.17571 0.53939 0.0
Co204 Co 0.90841 0.23955 0.57954 0.0
Co205 Co 0.9284 0.26756 0.47265 0.0
C206 C 0.90128 0.22293 0.43739 0.0
O207 O 0.89751 0.2218 0.49827 0.0
O208 O 0.91546 0.239 0.41644 0.0
C209 C 0.90532 0.19523 0.64261 0.0
O210 O 0.91191 0.1858 0.58711 0.0
C211 C 0.95662 0.28629 0.36704 0.0
C212 C 0.95166 0.3253 0.37981 0.0
C213 C 0.96274 0.30826 0.34157 0.0
N214 N 0.94222 0.29012 0.41747 0.0
N215 N 0.93905 0.31341 0.42459 0.0
C216 C 0.96608 0.26219 0.34847 0.0
H217 H 0.96311 0.24912 0.38811 0.0
H218 H 0.98533 0.2632 0.33731 0.0
H219 H 0.95673 0.25593 0.3043 0.0
C220 C 0.9582 0.24497 0.64045 0.0
N221 N 0.94208 0.24758 0.5913 0.0
N222 N 0.95141 0.26066 0.54539 0.0
C223 C 0.97384 0.26698 0.56501 0.0
C224 C 0.97917 0.25744 0.62742 0.0
C225 C 0.95424 0.22975 0.69854 0.0
H226 H 0.94198 0.23931 0.73177 0.0
H227 H 0.94656 0.21263 0.68288 0.0
H228 H 0.97096 0.22552 0.72458 0.0
O229 O 0.88693 0.26842 0.59082 0.0
O230 O 0.89931 0.28623 0.5019 0.0
H231 H 1.00398 0.29052 0.5566 0.0
H232 H 0.99722 0.27291 0.48542 0.0
C233 C 0.98945 0.28314 0.52644 0.0
H234 H 0.97875 0.298 0.50579 0.0
H235 H 0.92878 0.32123 0.46108 0.0
O236 O 0.90162 0.21757 0.64757 0.0
C237 C 0.88497 0.28526 0.54947 0.0
Co238 Co 0.82204 0.90335 0.57668 0.0
Co239 Co 0.78686 0.9277 0.49083 0.0
C240 C 0.83211 0.90413 0.43172 0.0
O241 O 0.83838 0.89839 0.48913 0.0
O242 O 0.81315 0.91681 0.42403 0.0
C243 C 0.86716 0.8971 0.63915 0.0
O244 O 0.87696 0.9063 0.58713 0.0
C245 C 0.76259 0.9638 0.41258 0.0
C246 C 0.72519 0.95202 0.41962 0.0
C247 C 0.73959 0.96956 0.39452 0.0
N248 N 0.76188 0.94375 0.44771 0.0
N249 N 0.73953 0.93671 0.45151 0.0
C250 C 0.78497 0.97646 0.3947 0.0
H251 H 0.80074 0.96671 0.4137 0.0
H252 H 0.78476 0.99487 0.41451 0.0
H253 H 0.78614 0.97794 0.34112 0.0
C254 C 0.81744 0.95076 0.65551 0.0
N255 N 0.81258 0.93642 0.60346 0.0
N256 N 0.79665 0.94722 0.56722 0.0
C257 C 0.79067 0.96854 0.59636 0.0
C258 C 0.8038 0.9719 0.65413 0.0
C259 C 0.8333 0.94357 0.70996 0.0
H260 H 0.82602 0.92709 0.7315 0.0
H261 H 0.85138 0.94011 0.69099 0.0
H262 H 0.83423 0.95735 0.74849 0.0
O263 O 0.79521 0.87896 0.58119 0.0
O264 O 0.77017 0.89773 0.5168 0.0
H265 H 0.75739 0.97568 0.54929 0.0
H266 H 0.76616 0.99806 0.60808 0.0
C267 C 0.77258 0.98562 0.56994 0.0
H268 H 0.7808 0.99629 0.53077 0.0
H269 H 0.73389 0.92166 0.47693 0.0
O270 O 0.84498 0.89325 0.64039 0.0
C271 C 0.77533 0.87967 0.55144 0.0
Co272 Co 0.65059 0.73387 0.50126 0.0
Co273 Co 0.62229 0.76879 0.57719 0.0
C274 C 0.64667 0.72743 0.64848 0.0
O275 O 0.65417 0.7215 0.59273 0.0
O276 O 0.63226 0.74525 0.65273 0.0
C277 C 0.65098 0.68629 0.46971 0.0
O278 O 0.63169 0.68626 0.50543 0.0
C279 C 0.58262 0.79143 0.64175 0.0
C280 C 0.58552 0.82876 0.60704 0.0
C281 C 0.57086 0.81324 0.64 0.0
N282 N 0.60294 0.79368 0.60905 0.0
N283 N 0.60492 0.81611 0.58963 0.0
C284 C 0.57483 0.76862 0.67304 0.0
H285 H 0.58997 0.76055 0.69984 0.0
H286 H 0.56946 0.7556 0.63536 0.0
H287 H 0.55986 0.77168 0.70709 0.0
C288 C 0.60645 0.73504 0.41026 0.0
N289 N 0.61861 0.74084 0.46548 0.0
N290 N 0.6057 0.75593 0.49926 0.0
C291 C 0.58499 0.76022 0.46592 0.0
C292 C 0.5843 0.74689 0.40786 0.0
C293 C 0.61649 0.7201 0.35669 0.0
H294 H 0.63603 0.71831 0.3611 0.0
H295 H 0.60827 0.70221 0.35835 0.0
H296 H 0.61197 0.72814 0.30899 0.0
O297 O 0.67373 0.76168 0.49308 0.0
O298 O 0.65172 0.78652 0.55142 0.0
H299 H 0.57361 0.79466 0.49888 0.0
H300 H 0.55137 0.77878 0.45299 0.0
C301 C 0.56594 0.77687 0.48878 0.0
H302 H 0.55838 0.7697 0.53408 0.0
H303 H 0.61877 0.82245 0.56097 0.0
O304 O 0.6617 0.70577 0.45786 0.0
C305 C 0.67066 0.78209 0.51982 0.0
Co306 Co 0.31677 0.65736 0.49499 0.0
Co307 Co 0.29057 0.62534 0.5806 0.0
C308 C 0.33406 0.65361 0.63261 0.0
O309 O 0.33716 0.66172 0.57555 0.0
O310 O 0.31724 0.63862 0.64222 0.0
C311 C 0.33143 0.69852 0.43786 0.0
O312 O 0.32521 0.70829 0.49325 0.0
C313 C 0.26742 0.60264 0.68956 0.0
C314 C 0.24182 0.57929 0.63946 0.0
C315 C 0.24941 0.58625 0.70061 0.0
N316 N 0.27086 0.6042 0.62538 0.0
N317 N 0.25487 0.59101 0.59567 0.0
C318 C 0.27804 0.61988 0.73678 0.0
H319 H 0.2808 0.6374 0.71298 0.0
H320 H 0.29554 0.61297 0.75331 0.0
H321 H 0.2662 0.62272 0.77912 0.0
C322 C 0.31746 0.61293 0.40323 0.0
N323 N 0.31237 0.62453 0.45996 0.0
N324 N 0.3016 0.60963 0.49902 0.0
C325 C 0.30022 0.58784 0.4687 0.0
C326 C 0.30979 0.58891 0.40555 0.0
C327 C 0.32869 0.62498 0.34636 0.0
H328 H 0.32207 0.64364 0.34233 0.0
H329 H 0.34819 0.62554 0.35387 0.0
H330 H 0.3249 0.61528 0.3006 0.0
O331 O 0.28663 0.67662 0.50646 0.0
O332 O 0.26631 0.65149 0.56534 0.0
H333 H 0.27361 0.56157 0.48626 0.0
H334 H 0.30331 0.55003 0.48521 0.0
C335 C 0.29215 0.56539 0.50101 0.0
H336 H 0.29318 0.56712 0.5545 0.0
H337 H 0.25237 0.59059 0.54557 0.0
O338 O 0.33152 0.67601 0.4306 0.0
C339 C 0.26776 0.67148 0.5366 0.0
Co340 Co 0.40485 0.32111 0.50154 0.0
Co341 Co 0.43121 0.2856 0.58043 0.0
C342 C 0.40758 0.32802 0.64927 0.0
O343 O 0.40069 0.33404 0.59288 0.0
O344 O 0.42135 0.30972 0.65466 0.0
C345 C 0.40686 0.36832 0.46591 0.0
O346 O 0.42621 0.36782 0.50146 0.0
C347 C 0.46783 0.26002 0.65193 0.0
C348 C 0.45857 0.22227 0.63236 0.0
C349 C 0.4749 0.23667 0.66299 0.0
N350 N 0.44823 0.25958 0.61549 0.0
N351 N 0.44268 0.23701 0.60407 0.0
C352 C 0.47884 0.28237 0.6777 0.0
H353 H 0.46901 0.2984 0.6604 0.0
H354 H 0.49763 0.28354 0.66215 0.0
H355 H 0.4787 0.28187 0.73151 0.0
C356 C 0.44995 0.31821 0.41481 0.0
N357 N 0.43706 0.31288 0.46901 0.0
N358 N 0.44925 0.29763 0.50425 0.0
C359 C 0.47029 0.29283 0.47308 0.0
C360 C 0.47187 0.30592 0.41457 0.0
C361 C 0.44092 0.33345 0.3605 0.0
H362 H 0.42129 0.33478 0.36145 0.0
H363 H 0.44863 0.3515 0.36523 0.0
H364 H 0.44676 0.32603 0.31314 0.0
O365 O 0.38082 0.29409 0.49079 0.0
O366 O 0.4015 0.26905 0.55171 0.0
H367 H 0.48037 0.25861 0.51086 0.0
H368 H 0.50324 0.27296 0.46324 0.0
C369 C 0.48871 0.27593 0.49867 0.0
H370 H 0.49636 0.28344 0.54372 0.0
H371 H 0.42822 0.2316 0.5761 0.0
O372 O 0.39517 0.3493 0.45575 0.0
C373 C 0.38308 0.27372 0.51818 0.0
Co374 Co 0.73316 0.40697 0.50555 0.0
Co375 Co 0.7678 0.43372 0.5843 0.0
C376 C 0.72632 0.40921 0.65316 0.0
O377 O 0.72067 0.402 0.5969 0.0
O378 O 0.74384 0.42364 0.6582 0.0
C379 C 0.68556 0.40244 0.47595 0.0
O380 O 0.68308 0.42014 0.51728 0.0
C381 C 0.78676 0.47544 0.64457 0.0
C382 C 0.82551 0.47097 0.63067 0.0
C383 C 0.80824 0.4872 0.65002 0.0
N384 N 0.79102 0.45368 0.62046 0.0
N385 N 0.8142 0.45084 0.61312 0.0
C386 C 0.76238 0.48445 0.66111 0.0
H387 H 0.75083 0.46937 0.67531 0.0
H388 H 0.75428 0.49307 0.61796 0.0
H389 H 0.76307 0.49764 0.70125 0.0
C390 C 0.73427 0.45171 0.4173 0.0
N391 N 0.73963 0.43937 0.4727 0.0
N392 N 0.75579 0.45113 0.50518 0.0
C393 C 0.76154 0.47116 0.47004 0.0
C394 C 0.74785 0.47277 0.41259 0.0
C395 C 0.71689 0.44305 0.3679 0.0
H396 H 0.70204 0.43407 0.3921 0.0
H397 H 0.70961 0.458 0.33855 0.0
H398 H 0.72579 0.42992 0.33552 0.0
O399 O 0.76174 0.38477 0.4937 0.0
O400 O 0.7859 0.40368 0.56076 0.0
H401 H 0.79683 0.47603 0.50678 0.0
H402 H 0.78904 0.49565 0.44085 0.0
C403 C 0.78227 0.48676 0.48516 0.0
H404 H 0.77669 0.50078 0.51994 0.0
H405 H 0.82219 0.43572 0.59291 0.0
O406 O 0.70611 0.39496 0.45975 0.0
C407 C 0.78157 0.38596 0.52386 0.0
Co408 Co 0.64917 0.32161 0.07234 0.0
Co409 Co 0.62599 0.28862 0.9797 0.0
C410 C 0.65144 0.33326 0.92695 0.0
O411 O 0.65649 0.33874 0.98552 0.0
O412 O 0.63853 0.31482 0.91664 0.0
C413 C 0.65026 0.36534 0.14103 0.0
O414 O 0.63811 0.3742 0.09213 0.0
C415 C 0.59854 0.2665 0.8768 0.0
C416 C 0.5987 0.22866 0.90835 0.0
C417 C 0.59113 0.24383 0.85944 0.0
N418 N 0.61039 0.26472 0.9328 0.0
N419 N 0.61062 0.2421 0.9513 0.0
C420 C 0.59274 0.28979 0.84454 0.0
H421 H 0.59402 0.3047 0.87983 0.0
H422 H 0.5746 0.28945 0.82347 0.0
H423 H 0.60562 0.29293 0.80481 0.0
C424 C 0.60105 0.31601 0.14619 0.0
N425 N 0.61576 0.31297 0.09388 0.0
N426 N 0.60531 0.29876 0.0524 0.0
C427 C 0.58359 0.29262 0.07683 0.0
C428 C 0.57964 0.30349 0.13799 0.0
C429 C 0.60873 0.32745 0.20789 0.0
H430 H 0.62688 0.32109 0.21938 0.0
H431 H 0.60872 0.34711 0.20154 0.0
H432 H 0.59692 0.3229 0.24899 0.0
O433 O 0.67207 0.2933 0.08091 0.0
O434 O 0.65432 0.26988 1.01019 0.0
H435 H 0.57295 0.25726 0.05216 0.0
H436 H 0.5486 0.27823 0.06075 0.0
C437 C 0.56708 0.27593 0.04301 0.0
H438 H 0.56765 0.27911 0.98994 0.0
H439 H 0.6187 0.23588 0.99369 0.0
O440 O 0.65793 0.34398 0.13877 0.0
C441 C 0.67125 0.2737 0.04938 0.0
Co442 Co 0.73243 0.6543 0.07025 0.0
Co443 Co 0.76739 0.62947 0.98504 0.0
C444 C 0.72235 0.65352 0.92575 0.0
O445 O 0.7161 0.65938 0.98301 0.0
O446 O 0.74122 0.64072 0.91827 0.0
C447 C 0.68738 0.66264 0.13132 0.0
O448 O 0.67725 0.65465 0.07826 0.0
C449 C 0.7968 0.61003 0.88005 0.0
C450 C 0.82573 0.59291 0.93595 0.0
C451 C 0.81748 0.59632 0.87317 0.0
N452 N 0.79263 0.61312 0.94352 0.0
N453 N 0.81056 0.60387 0.97646 0.0
C454 C 0.78341 0.62351 0.82884 0.0
H455 H 0.7776 0.6411 0.84806 0.0
H456 H 0.76737 0.61334 0.81472 0.0
H457 H 0.79471 0.62679 0.78571 0.0
C458 C 0.73628 0.60694 0.14945 0.0
N459 N 0.74122 0.62106 0.09707 0.0
N460 N 0.75631 0.60958 0.05971 0.0
C461 C 0.76102 0.58765 0.08737 0.0
C462 C 0.74886 0.58514 0.14701 0.0
C463 C 0.71902 0.61362 0.20118 0.0
H464 H 0.70268 0.62066 0.17841 0.0
H465 H 0.71404 0.59808 0.2315 0.0
H466 H 0.72717 0.6274 0.23246 0.0
O467 O 0.75958 0.67815 0.07489 0.0
O468 O 0.7849 0.65899 1.01225 0.0
H469 H 0.79532 0.57139 0.08011 0.0
H470 H 0.77126 0.55107 0.06962 0.0
C471 C 0.77739 0.56938 0.05861 0.0
H472 H 0.77837 0.57158 1.00527 0.0
H473 H 0.81232 0.60491 1.02675 0.0
O474 O 0.70975 0.6651 0.13353 0.0
C475 C 0.77968 0.67715 0.04649 0.0
Co476 Co 0.41006 0.7361 0.04739 0.0
Co477 Co 0.43378 0.77242 0.96727 0.0
C478 C 0.41138 0.72779 0.90282 0.0
O479 O 0.40667 0.72027 0.95955 0.0
O480 O 0.42284 0.74746 0.89682 0.0
C481 C 0.37458 0.71094 0.09447 0.0
O482 O 0.36588 0.71619 0.03707 0.0
C483 C 0.45069 0.80437 0.86647 0.0
C484 C 0.46937 0.83172 0.92388 0.0
C485 C 0.46389 0.82527 0.86065 0.0
N486 N 0.44982 0.79831 0.92924 0.0
N487 N 0.45995 0.81534 0.96359 0.0
C488 C 0.43536 0.79278 0.81625 0.0
H489 H 0.41824 0.78743 0.8383 0.0
H490 H 0.44432 0.7764 0.79786 0.0
H491 H 0.43149 0.80518 0.77551 0.0
C492 C 0.45567 0.73937 0.13159 0.0
N493 N 0.44201 0.7445 0.07843 0.0
N494 N 0.45322 0.75989 0.04174 0.0
C495 C 0.47481 0.76432 0.06978 0.0
C496 C 0.47735 0.75184 0.12907 0.0
C497 C 0.44735 0.72407 0.18636 0.0
H498 H 0.42815 0.72724 0.19511 0.0
H499 H 0.44979 0.70501 0.1729 0.0
H500 H 0.45747 0.72769 0.23145 0.0
O501 O 0.38595 0.7634 0.05217 0.0
O502 O 0.40444 0.79032 0.99445 0.0
H503 H 0.49346 0.79725 0.05851 0.0
H504 H 0.5116 0.77106 0.0497 0.0
C505 C 0.49386 0.77885 0.03863 0.0
H506 H 0.49132 0.77951 0.98532 0.0
H507 H 0.4602 0.8159 1.01405 0.0
O508 O 0.39653 0.71378 0.10555 0.0
C509 C 0.38638 0.78413 1.02691 0.0
Co510 Co 0.3247 0.40798 0.07012 0.0
Co511 Co 0.28958 0.43019 0.9804 0.0
C512 C 0.33405 0.40616 0.92309 0.0
O513 O 0.33993 0.40075 0.98118 0.0
O514 O 0.31561 0.41945 0.91392 0.0
C515 C 0.37022 0.40401 0.1321 0.0
O516 O 0.37964 0.41338 0.07979 0.0
C517 C 0.26327 0.46455 0.90211 0.0
C518 C 0.22619 0.45613 0.92938 0.0
C519 C 0.23992 0.47221 0.89561 0.0
N520 N 0.26344 0.44517 0.93983 0.0
N521 N 0.24124 0.43988 0.95491 0.0
C522 C 0.28516 0.47542 0.87366 0.0
H523 H 0.29817 0.46116 0.86123 0.0
H524 H 0.29364 0.48729 0.90973 0.0
H525 H 0.28079 0.48603 0.8297 0.0
C526 C 0.3203 0.45693 0.14199 0.0
N527 N 0.31581 0.44151 0.09182 0.0
N528 N 0.29935 0.45099 0.05468 0.0
C529 C 0.29248 0.47238 0.08167 0.0
C530 C 0.30585 0.47746 0.13806 0.0
C531 C 0.33589 0.451 0.19817 0.0
H532 H 0.35389 0.44647 0.18043 0.0
H533 H 0.33721 0.46602 0.23303 0.0
H534 H 0.32819 0.43548 0.22359 0.0
O535 O 0.2973 0.38444 0.08269 0.0
O536 O 0.27419 0.39985 1.00727 0.0
H537 H 0.2574 0.47629 0.0425 0.0
H538 H 0.26703 0.50143 0.09087 0.0
C539 C 0.27275 0.48759 0.05561 0.0
H540 H 0.27905 0.49678 1.0115 0.0
H541 H 0.23637 0.42594 0.98563 0.0
O542 O 0.34822 0.39931 0.13376 0.0
C543 C 0.2785 0.3835 0.04818 0.0
H544 H 0.20025 0.30524 0.11122 0.0
H545 H 0.1994 0.29998 0.90274 0.0
H546 H 0.23061 0.33028 0.89587 0.0
H547 H 0.25715 0.35959 0.94921 0.0
H548 H 0.26108 0.36184 0.1578 0.0
H549 H 0.22994 0.3314 0.1648 0.0
C550 C 0.20702 0.31062 0.06426 0.0
C551 C 0.19726 0.30045 1.0074 0.0
C552 C 0.22556 0.32757 0.06087 0.0
C553 C 0.20652 0.30742 0.94712 0.0
C554 C 0.22434 0.32484 0.94326 0.0
C555 C 0.25132 0.35326 0.99625 0.0
C556 C 0.26138 0.36319 0.05304 0.0
C557 C 0.23385 0.33523 0.99976 0.0
C558 C 0.25378 0.35454 0.11346 0.0
C559 C 0.23586 0.33719 0.11738 0.0
H560 H 0.71343 0.26807 0.98474 0.0
H561 H 0.66945 0.2355 0.13023 0.0
H562 H 0.6968 0.20126 0.13635 0.0
H563 H 0.73277 0.17998 0.09864 0.0
H564 H 0.77691 0.21221 0.95225 0.0
H565 H 0.75015 0.24686 0.94811 0.0
C566 C 0.71012 0.25364 1.01856 0.0
C567 C 0.68965 0.2546 0.05813 0.0
C568 C 0.72588 0.23373 1.0211 0.0
C569 C 0.68528 0.23545 0.10037 0.0
C570 C 0.70085 0.21577 0.10346 0.0
C571 C 0.73661 0.19451 0.06559 0.0
C572 C 0.757 0.19315 1.02551 0.0
C573 C 0.72113 0.21458 0.06372 0.0
C574 C 0.76145 0.21245 0.98344 0.0
C575 C 0.74612 0.23241 0.9812 0.0
H576 H 0.82646 0.67825 1.00903 0.0
H577 H 0.77096 0.72341 0.08648 0.0
H578 H 0.79743 0.75792 0.08137 0.0
H579 H 0.83693 0.77563 0.05537 0.0
H580 H 0.89284 0.72942 0.98558 0.0
H581 H 0.86579 0.69541 0.98631 0.0
C582 C 0.8201 0.69559 1.02515 0.0
C583 C 0.79655 0.69797 0.04829 0.0
C584 C 0.83556 0.71544 1.02262 0.0
C585 C 0.78891 0.72077 0.06895 0.0
C586 C 0.80407 0.74065 0.06562 0.0
C587 C 0.84302 0.75818 0.03931 0.0
C588 C 0.86685 0.75527 1.01895 0.0
C589 C 0.82745 0.7383 0.04226 0.0
C590 C 0.87458 0.73231 1.00041 0.0
C591 C 0.85912 0.71277 1.00124 0.0
H592 H 0.38311 0.83146 0.99182 0.0
H593 H 0.34116 0.77384 0.06865 0.0
H594 H 0.30579 0.79954 0.06695 0.0
H595 H 0.28636 0.83894 0.04412 0.0
H596 H 0.32925 0.89696 0.97462 0.0
H597 H 0.36421 0.87073 0.97216 0.0
C598 C 0.36628 0.82447 1.00852 0.0
C599 C 0.36507 0.80055 1.03042 0.0
C600 C 0.3459 0.83949 1.00794 0.0
C601 C 0.3429 0.79209 0.0519 0.0
C602 C 0.32253 0.8068 0.05058 0.0
C603 C 0.30329 0.84566 1.02742 0.0
C604 C 0.305 0.86982 1.00801 0.0
C605 C 0.32371 0.83056 1.02842 0.0
C606 C 0.3273 0.87841 0.98865 0.0
C607 C 0.34738 0.86342 0.98767 0.0
H608 H 0.17128 0.73136 0.54379 0.0
H609 H 0.21997 0.78967 0.5702 0.0
H610 H 0.25359 0.76164 0.56512 0.0
H611 H 0.26945 0.72035 0.5493 0.0
H612 H 0.22036 0.66193 0.53261 0.0
H613 H 0.18685 0.69002 0.5372 0.0
C614 C 0.18923 0.73796 0.54911 0.0
C615 C 0.19294 0.76277 0.55727 0.0
C616 C 0.20854 0.72163 0.54709 0.0
C617 C 0.21643 0.77079 0.56442 0.0
C618 C 0.23573 0.75472 0.56098 0.0
C619 C 0.2514 0.7138 0.54649 0.0
C620 C 0.2475 0.68898 0.53959 0.0
C621 C 0.23206 0.7301 0.55153 0.0
C622 C 0.22395 0.68084 0.53749 0.0
C623 C 0.20474 0.69694 0.54021 0.0
H624 H 0.33547 0.27434 0.55175 0.0
H625 H 0.39055 0.22895 0.47361 0.0
H626 H 0.36354 0.19494 0.47387 0.0
H627 H 0.32468 0.17747 0.49897 0.0
H628 H 0.26969 0.22171 0.58281 0.0
H629 H 0.29608 0.25633 0.57853 0.0
C630 C 0.34135 0.2571 0.53361 0.0
C631 C 0.36495 0.25441 0.5111 0.0
C632 C 0.32579 0.23718 0.53604 0.0
C633 C 0.37245 0.23168 0.48997 0.0
C634 C 0.35702 0.21214 0.49061 0.0
C635 C 0.31837 0.19463 0.51664 0.0
C636 C 0.29501 0.19669 0.54142 0.0
C637 C 0.33372 0.21455 0.51416 0.0
C638 C 0.28748 0.21929 0.56393 0.0
C639 C 0.3026 0.23924 0.5611 0.0
H640 H 0.80916 0.36641 0.61961 0.0
H641 H 0.79491 0.36121 0.41479 0.0
H642 H 0.82597 0.33046 0.40412 0.0
H643 H 0.85779 0.30517 0.45303 0.0
H644 H 0.86871 0.30714 0.65982 0.0
H645 H 0.83854 0.33876 0.66985 0.0
C646 C 0.81284 0.35852 0.57262 0.0
C647 C 0.7998 0.36638 0.51786 0.0
C648 C 0.83023 0.34018 0.5673 0.0
C649 C 0.80459 0.3556 0.45765 0.0
C650 C 0.82244 0.33802 0.45156 0.0
C651 C 0.85354 0.31252 0.50032 0.0
C652 C 0.86578 0.30388 0.55561 0.0
C653 C 0.83548 0.33019 0.50598 0.0
C654 C 0.85968 0.31337 0.61654 0.0
C655 C 0.84242 0.33153 0.62223 0.0
H656 H 0.72938 0.87823 0.50789 0.0
H657 H 0.7834 0.8336 0.59492 0.0
H658 H 0.75694 0.79906 0.58776 0.0
H659 H 0.71781 0.78129 0.55716 0.0
H660 H 0.66355 0.82716 0.47667 0.0
H661 H 0.69067 0.86107 0.47984 0.0
C662 C 0.73546 0.86101 0.52563 0.0
C663 C 0.75856 0.85879 0.55211 0.0
C664 C 0.72005 0.84119 0.52163 0.0
C665 C 0.76579 0.83612 0.5748 0.0
C666 C 0.75065 0.81624 0.57028 0.0
C667 C 0.71214 0.79862 0.53924 0.0
C668 C 0.68876 0.80149 0.51515 0.0
C669 C 0.72772 0.81847 0.54349 0.0
C670 C 0.68148 0.82431 0.49427 0.0
C671 C 0.69697 0.84379 0.49655 0.0
H672 H 1.0001 0.33722 0.35525 0.0
H673 H 0.96641 0.28885 0.22157 0.0
H674 H 1.00136 0.28977 0.15124 0.0
H675 H 0.04304 0.29992 0.13667 0.0
H676 H 0.0782 0.34536 0.27483 0.0
H677 H 0.0408 0.3508 0.33417 0.0
C678 C 1.00029 0.32742 0.30982 0.0
C679 C 0.98116 0.31273 0.29343 0.0
C680 C 1.02068 0.32737 0.27127 0.0
C681 C 0.98131 0.29996 0.23499 0.0
C682 C 1.0012 0.30047 0.19507 0.0
C683 C 0.04246 0.31094 0.17991 0.0
C684 C 0.06323 0.3215 0.20331 0.0
C685 C 1.02129 0.31329 0.21429 0.0
C686 C 0.06229 0.33676 0.25713 0.0
C687 C 0.04102 0.33977 0.29095 0.0
H688 H 0.74712 1.01465 0.4314 0.0
H689 H 0.71359 0.97202 0.284 0.0
H690 H 0.70569 1.00798 0.21915 0.0
H691 H 0.71495 0.05006 0.19716 0.0
H692 H 0.75102 0.09184 0.34206 0.0
H693 H 0.75106 0.05779 0.41637 0.0
C694 C 0.73799 1.0134 0.38516 0.0
C695 C 0.73162 0.99104 0.36073 0.0
C696 C 0.73403 0.0339 0.3482 0.0
C697 C 0.71894 0.98929 0.3025 0.0
C698 C 0.71449 1.00974 0.26567 0.0
C699 C 0.72206 0.05183 0.24585 0.0
C700 C 0.73331 0.07299 0.2644 0.0
C701 C 0.72284 0.03197 0.28692 0.0
C702 C 0.74256 0.0754 0.32716 0.0
C703 C 0.74271 0.05597 0.36925 0.0
H704 H 0.08382 0.74718 0.26929 0.0
H705 H 0.04896 0.71098 0.42667 0.0
H706 H 1.01378 0.70487 0.35889 0.0
H707 H 0.99061 0.71728 0.26303 0.0
H708 H 1.02481 0.75656 0.11006 0.0
H709 H 0.06273 0.75419 0.16757 0.0
C710 C 0.06859 0.73767 0.28815 0.0
C711 C 0.06838 0.73019 0.35283 0.0
C712 C 0.04831 0.73518 0.25004 0.0
C713 C 0.04915 0.71711 0.37683 0.0
C714 C 0.02905 0.71381 0.33838 0.0
C715 C 1.00659 0.72471 0.24193 0.0
C716 C 1.0052 0.73759 0.1839 0.0
C717 C 0.02802 0.72388 0.27616 0.0
C718 C 1.02571 0.74712 0.15589 0.0
C719 C 0.04728 0.74571 0.18852 0.0
H720 H 0.34632 0.05473 0.34952 0.0
H721 H 0.2822 0.03598 0.45119 0.0
H722 H 0.28276 0.99663 0.40252 0.0
H723 H 0.2954 0.97285 0.31254 0.0
H724 H 0.35951 0.98995 0.20798 0.0
H725 H 0.36528 1.02463 0.27769 0.0
C726 C 0.33287 0.04174 0.36201 0.0
C727 C 0.31355 0.04854 0.40087 0.0
C728 C 0.3331 1.01908 0.33292 0.0
C729 C 0.29661 0.0315 0.41879 0.0
C730 C 0.29699 1.0089 0.39131 0.0
C731 C 0.31134 0.98306 0.3061 0.0
C732 C 0.3265 0.979 0.25325 0.0
C733 C 0.31428 1.00314 0.3452 0.0
C734 C 0.34708 0.99302 0.24724 0.0
C735 C 0.35036 1.01298 0.28683 0.0
H736 H 0.03229 0.80965 0.64525 0.0
H737 H 0.09049 0.80714 0.78091 0.0
H738 H 0.06253 0.807 0.87128 0.0
H739 H 1.02088 0.80822 0.91507 0.0
H740 H 0.96279 0.80678 0.77899 0.0
H741 H 0.99066 0.80782 0.68898 0.0
C742 C 0.03904 0.80876 0.6944 0.0
C743 C 0.06418 0.80881 0.70434 0.0
C744 C 1.02246 0.80818 0.74778 0.0
C745 C 0.07172 0.80781 0.7698 0.0
C746 C 0.0555 0.80752 0.82237 0.0
C747 C 1.01412 0.80795 0.86587 0.0
C748 C 0.98896 0.80814 0.85605 0.0
C749 C 0.03071 0.80787 0.8125 0.0
C750 C 0.98146 0.8077 0.79049 0.0
C751 C 0.99768 0.80795 0.73792 0.0
H752 H 0.21715 0.99988 0.84214 0.0
H753 H 0.2908 1.00473 0.89666 0.0
H754 H 0.29628 0.03735 0.81927 0.0
H755 H 0.28054 0.06533 0.73347 0.0
H756 H 0.2066 0.06135 0.68149 0.0
H757 H 0.20116 1.02851 0.7585 0.0
C758 C 0.23447 1.00799 0.83736 0.0
C759 C 0.25348 0.9993 0.87711 0.0
C760 C 0.23758 1.02733 0.79196 0.0
C761 C 0.27558 1.01072 0.86889 0.0
C762 C 0.27882 1.02952 0.82364 0.0
C763 C 0.26322 0.05722 0.73835 0.0
C764 C 0.24406 0.0662 0.69963 0.0
C765 C 0.26002 0.03811 0.78447 0.0
C766 C 0.2218 0.0553 0.70937 0.0
C767 C 0.21865 0.03626 0.75386 0.0
H768 H 0.98303 0.26507 0.7623 0.0
H769 H 1.02699 0.25366 0.59414 0.0
H770 H 0.06245 0.25333 0.66351 0.0
H771 H 0.08177 0.255 0.77397 0.0
H772 H 0.03713 0.26483 0.94177 0.0
H773 H 1.00215 0.26689 0.87177 0.0
C774 C 1.00029 0.26237 0.74026 0.0
C775 C 1.00162 0.25925 0.67138 0.0
C776 C 1.021 0.26182 0.78135 0.0
C777 C 1.02473 0.25634 0.64577 0.0
C778 C 0.04526 0.25594 0.68606 0.0
C779 C 0.06444 0.25744 0.7958 0.0
C780 C 0.06284 0.25978 0.86499 0.0
C781 C 0.04377 0.25842 0.75429 0.0
C782 C 0.03971 0.26332 0.88993 0.0
C783 C 1.01938 0.26434 0.84937 0.0
H784 H 0.83275 0.0576 0.85041 0.0
H785 H 0.75895 0.0531 0.90356 0.0
H786 H 0.75325 1.02139 0.82343 0.0
H787 H 0.76898 0.99382 0.73574 0.0
H788 H 0.84279 0.99875 0.68332 0.0
H789 H 0.84824 0.03081 0.76261 0.0
C790 C 0.81528 0.04993 0.84461 0.0
C791 C 0.79641 0.05834 0.88533 0.0
C792 C 0.81194 0.03139 0.7969 0.0
C793 C 0.77416 0.04729 0.87555 0.0
C794 C 0.77077 1.02904 0.82852 0.0
C795 C 0.78624 1.00205 0.74088 0.0
C796 C 0.80542 0.99343 0.70158 0.0
C797 C 0.78947 1.02077 0.78846 0.0
C798 C 0.82757 1.00459 0.7114 0.0
C799 C 0.83075 1.02309 0.75747 0.0
H800 H 0.55356 0.85068 0.70886 0.0
H801 H 0.53273 0.7867 0.60785 0.0
H802 H 0.49328 0.78925 0.65448 0.0
H803 H 0.46973 0.80337 0.74252 0.0
H804 H 0.48971 0.86633 0.85023 0.0
H805 H 0.52436 0.87096 0.78056 0.0
C806 C 0.5401 0.8377 0.6962 0.0
C807 C 0.54613 0.81791 0.65777 0.0
C808 C 0.51753 0.83898 0.72462 0.0
C809 C 0.52864 0.8015 0.63967 0.0
C810 C 0.50604 0.80304 0.66598 0.0
C811 C 0.48066 0.81881 0.74995 0.0
C812 C 0.47739 0.83386 0.80368 0.0
C813 C 0.50088 0.82081 0.71161 0.0
C814 C 0.49216 0.85394 0.81037 0.0
C815 C 0.51213 0.85652 0.77089 0.0
H816 H 0.2579 0.51482 0.9248 0.0
H817 H 0.20322 0.48094 0.8123 0.0
H818 H 0.19605 0.51843 0.75328 0.0
H819 H 0.21223 0.55678 0.71801 0.0
H820 H 0.27307 0.58562 0.81906 0.0
H821 H 0.27002 0.55517 0.90011 0.0
C822 C 0.24428 0.51577 0.88774 0.0
C823 C 0.23185 0.49523 0.87024 0.0
C824 C 0.24128 0.53671 0.85232 0.0
C825 C 0.21339 0.49665 0.82482 0.0
C826 C 0.20938 0.51798 0.79123 0.0
C827 C 0.22452 0.55677 0.75854 0.0
C828 C 0.24306 0.57351 0.76093 0.0
C829 C 0.22429 0.53761 0.80196 0.0
C830 C 0.2584 0.57351 0.81487 0.0
C831 C 0.257 0.55561 0.86131 0.0
H832 H 0.55263 0.2161 0.86863 0.0
H833 H 0.59342 0.2578 0.73334 0.0
H834 H 0.56135 0.2554 0.6537 0.0
H835 H 0.51946 0.2475 0.63142 0.0
H836 H 0.47759 0.20836 0.76944 0.0
H837 H 0.51258 0.20289 0.83902 0.0
C838 C 0.55468 0.22406 0.82099 0.0
C839 C 0.57481 0.23768 0.80694 0.0
C840 C 0.53595 0.2232 0.7766 0.0
C841 C 0.57761 0.24782 0.74529 0.0
C842 C 0.55936 0.24643 0.69994 0.0
C843 C 0.51824 0.2375 0.6764 0.0
C844 C 0.49627 0.22887 0.69695 0.0
C845 C 0.53806 0.2352 0.71648 0.0
C846 C 0.49456 0.21531 0.75377 0.0
C847 C 0.51444 0.21234 0.79344 0.0
H848 H 0.79451 0.58836 0.7569 0.0
H849 H 0.85797 0.56938 0.86377 0.0
H850 H 0.86317 0.53429 0.79517 0.0
H851 H 0.84416 0.50491 0.72241 0.0
H852 H 0.78179 0.52601 0.61461 0.0
H853 H 0.78217 0.56511 0.66555 0.0
C854 C 0.81017 0.57761 0.76436 0.0
C855 C 0.82531 0.5814 0.81749 0.0
C856 C 0.81295 0.55743 0.72537 0.0
C857 C 0.84553 0.56662 0.82442 0.0
C858 C 0.84852 0.54643 0.78539 0.0
C859 C 0.83103 0.51832 0.70913 0.0
C860 C 0.81204 0.51222 0.66844 0.0
C861 C 0.8314 0.54089 0.73856 0.0
C862 C 0.79565 0.52986 0.64928 0.0
C863 C 0.79602 0.55232 0.67776 0.0
H864 H 0.55477 0.33738 0.21365 0.0
H865 H 0.55763 0.26166 0.17703 0.0
H866 H 0.52621 0.25529 0.25729 0.0
H867 H 0.49708 0.27099 0.34059 0.0
H868 H 0.49357 0.34693 0.37374 0.0
H869 H 0.52526 0.35309 0.2945 0.0
C870 C 0.54861 0.3194 0.22296 0.0
C871 C 0.55912 0.30007 0.18752 0.0
C872 C 0.53003 0.31578 0.26993 0.0
C873 C 0.5502 0.2771 0.20154 0.0
C874 C 0.5321 0.27338 0.2484 0.0
C875 C 0.5033 0.28892 0.33106 0.0
C876 C 0.49248 0.30846 0.36507 0.0
C877 C 0.52175 0.29252 0.28341 0.0
C878 C 0.50104 0.33143 0.34957 0.0
C879 C 0.51941 0.33501 0.30373 0.0
H880 H 0.74573 0.5341 0.14419 0.0
H881 H 0.75652 0.59249 0.27705 0.0
H882 H 0.75689 0.56459 0.3681 0.0
H883 H 0.75327 0.52312 0.41339 0.0
H884 H 0.74634 0.4644 0.27966 0.0
H885 H 0.74551 0.49226 0.18879 0.0
C886 C 0.74868 0.54089 0.19265 0.0
C887 C 0.75096 0.56611 0.20185 0.0
C888 C 0.7493 0.52432 0.24637 0.0
C889 C 0.75429 0.57367 0.26673 0.0
C890 C 0.7546 0.5575 0.31962 0.0
C891 C 0.75177 0.51621 0.36449 0.0
C892 C 0.74913 0.49102 0.3556 0.0
C893 C 0.75196 0.53269 0.31062 0.0
C894 C 0.74739 0.48327 0.29039 0.0
C895 C 0.74721 0.49942 0.23738 0.0
H896 H 0.55894 0.782 0.33612 0.0
H897 H 0.56391 0.70575 0.36132 0.0
H898 H 0.53226 0.70011 0.28131 0.0
H899 H 0.50216 0.71659 0.20218 0.0
H900 H 0.49807 0.79285 0.17546 0.0
H901 H 0.52941 0.7984 0.25596 0.0
C902 C 0.55306 0.76409 0.32473 0.0
C903 C 0.56427 0.74434 0.35664 0.0
C904 C 0.53458 0.76085 0.27713 0.0
C905 C 0.55618 0.72143 0.33864 0.0
C906 C 0.53778 0.71815 0.29249 0.0
C907 C 0.508 0.73448 0.21387 0.0
C908 C 0.49724 0.75425 0.18084 0.0
C909 C 0.52667 0.73768 0.26106 0.0
C910 C 0.50576 0.77711 0.19787 0.0
C911 C 0.52383 0.78036 0.24487 0.0
H912 H 0.27671 0.55476 0.36065 0.0
H913 H 0.34907 0.57681 0.33192 0.0
H914 H 0.35441 0.54562 0.2498 0.0
H915 H 0.33891 0.51116 0.18402 0.0
H916 H 0.26617 0.49001 0.20956 0.0
H917 H 0.26088 0.52096 0.2927 0.0
C918 C 0.29374 0.55281 0.33676 0.0
C919 C 0.31244 0.56881 0.35394 0.0
C920 C 0.2967 0.53462 0.28767 0.0
C921 C 0.33413 0.56547 0.32061 0.0
C922 C 0.33727 0.54733 0.2732 0.0
C923 C 0.3218 0.51331 0.20743 0.0
C924 C 0.30291 0.49782 0.1887 0.0
C925 C 0.31873 0.5317 0.25583 0.0
C926 C 0.28106 0.50141 0.22102 0.0
C927 C 0.27804 0.51924 0.26939 0.0
H928 H 0.18762 0.18153 0.40255 0.0
H929 H 0.23512 0.14163 0.27871 0.0
H930 H 0.2167 0.1602 0.18298 0.0
H931 H 0.1878 0.18933 0.13305 0.0
H932 H 0.1413 0.2297 0.25886 0.0
H933 H 0.15841 0.20956 0.35329 0.0
C934 C 0.19395 0.17659 0.35473 0.0
C935 C 0.213 0.15977 0.34922 0.0
C936 C 0.18334 0.18769 0.29925 0.0
C937 C 0.22064 0.15418 0.2858 0.0
C938 C 0.21004 0.16497 0.23057 0.0
C939 C 0.18115 0.19363 0.18099 0.0
C940 C 0.16287 0.21131 0.18742 0.0
C941 C 0.19146 0.18197 0.23639 0.0
C942 C 0.15507 0.2164 0.25098 0.0
C943 C 0.16498 0.20481 0.30559 0.0
H944 H 0.82439 0.15734 0.28838 0.0
H945 H 0.87513 0.16438 0.13327 0.0
H946 H 0.90059 0.18839 0.20209 0.0
H947 H 0.90882 0.20936 0.30672 0.0
H948 H 0.86007 0.19945 0.46535 0.0
H949 H 0.83455 0.1752 0.39659 0.0
C950 C 0.84114 0.16378 0.26966 0.0
C951 C 0.84709 0.15908 0.20377 0.0
C952 C 0.85649 0.17755 0.31089 0.0
C953 C 0.86922 0.16791 0.18221 0.0
C954 C 0.88412 0.18174 0.22213 0.0
C955 C 0.8927 0.20185 0.3266 0.0
C956 C 0.88676 0.20675 0.39227 0.0
C957 C 0.87792 0.18711 0.2865 0.0
C958 C 0.8656 0.19633 0.41576 0.0
C959 C 0.85074 0.1823 0.37603 0.0
H960 H 0.86981 0.87117 0.42892 0.0
H961 H 0.82555 0.91323 0.30107 0.0
H962 H 0.8452 0.89515 0.2071 0.0
H963 H 0.87406 0.86626 0.15924 0.0
H964 H 0.91794 0.82342 0.28599 0.0
H965 H 0.89962 0.8428 0.38055 0.0
C966 C 0.86452 0.87666 0.3806 0.0
C967 C 0.84592 0.894 0.3735 0.0
C968 C 0.87592 0.86582 0.32565 0.0
C969 C 0.8396 0.90028 0.30948 0.0
C970 C 0.8509 0.88978 0.25517 0.0
C971 C 0.87989 0.86115 0.20742 0.0
C972 C 0.89778 0.8431 0.2141 0.0
C973 C 0.86897 0.87236 0.26234 0.0
C974 C 0.90454 0.83707 0.27797 0.0
C975 C 0.8939 0.84823 0.33255 0.0
H976 H 0.18944 0.87055 0.13939 0.0
H977 H 0.22806 0.91708 0.26801 0.0
H978 H 0.20783 0.89956 0.36112 0.0
H979 H 0.17993 0.87017 0.40873 0.0
H980 H 0.14165 0.82272 0.28215 0.0
H981 H 0.16062 0.84128 0.18769 0.0
C982 C 0.19338 0.87709 0.18765 0.0
C983 C 0.21058 0.89558 0.19511 0.0
C984 C 0.1816 0.86657 0.24244 0.0
C985 C 0.21515 0.9032 0.25917 0.0
C986 C 0.20349 0.89305 0.3131 0.0
C987 C 0.17544 0.86386 0.36059 0.0
C988 C 0.15891 0.84479 0.35404 0.0
C989 C 0.18676 0.8746 0.30573 0.0
C990 C 0.15395 0.83721 0.29015 0.0
C991 C 0.16497 0.8479 0.23559 0.0
H992 H 0.93063 0.8924 0.8889 0.0
H993 H 0.86104 0.89355 0.97547 0.0
H994 H 0.84311 0.90183 0.87051 0.0
H995 H 0.84697 0.89519 0.75609 0.0
H996 H 0.91544 0.89893 0.66288 0.0
H997 H 0.93467 0.89918 0.77023 0.0
C998 C 0.91171 0.89598 0.88502 0.0
C999 C 0.89683 0.89138 0.9381 0.0
C1000 C 0.90151 0.89932 0.82377 0.0
C1001 C 0.87255 0.89661 0.93421 0.0
C1002 C 0.8623 0.90059 0.87408 0.0
C1003 C 0.86603 0.89736 0.75827 0.0
C1004 C 0.87973 0.89717 0.70157 0.0
C1005 C 0.87653 0.89976 0.81853 0.0
C1006 C 0.90454 0.89878 0.70614 0.0
C1007 C 0.91546 0.89935 0.76721 0.0
H1008 H 0.12524 0.8988 0.68622 0.0
H1009 H 0.19321 0.89665 0.59065 0.0
H1010 H 0.21308 0.9063 0.69201 0.0
H1011 H 0.21131 0.90269 0.8081 0.0
H1012 H 0.14441 0.90825 0.9089 0.0
H1013 H 0.12339 0.90743 0.80424 0.0
C1014 C 0.14425 0.90179 0.68729 0.0
C1015 C 0.15806 0.89629 0.63261 0.0
C1016 C 0.15558 0.90597 0.7466 0.0
C1017 C 0.18249 0.90064 0.633 0.0
C1018 C 0.19385 0.90546 0.69114 0.0
C1019 C 0.19221 0.90478 0.8078 0.0
C1020 C 0.17942 0.9054 0.866 0.0
C1021 C 0.18064 0.90608 0.74856 0.0
C1022 C 0.15457 0.90743 0.86435 0.0
C1023 C 0.14263 0.90729 0.80476 0.0
H1024 H 0.16171 0.12541 0.6781 0.0
H1025 H 0.15956 0.19451 0.58666 0.0
H1026 H 0.14932 0.21325 0.68947 0.0
H1027 H 0.1547 0.211 0.80487 0.0
H1028 H 0.15755 0.14284 0.90269 0.0
H1029 H 0.15656 0.1224 0.79708 0.0
C1030 C 0.15803 0.14441 0.68073 0.0
C1031 C 0.16255 0.15895 0.62686 0.0
C1032 C 0.15433 0.15518 0.7411 0.0
C1033 C 0.15656 0.18325 0.62859 0.0
C1034 C 0.15142 0.19399 0.68756 0.0
C1035 C 0.15431 0.19165 0.80384 0.0
C1036 C 0.15658 0.17841 0.86126 0.0
C1037 C 0.15257 0.18033 0.74435 0.0
C1038 C 0.15627 0.15336 0.85871 0.0
C1039 C 0.15537 0.14173 0.79864 0.0
H1040 H 0.87649 0.13488 0.87747 0.0
H1041 H 0.89532 0.20096 0.97212 0.0
H1042 H 0.91657 0.21364 0.87566 0.0
H1043 H 0.91537 0.21193 0.75974 0.0
H1044 H 0.89567 0.14755 0.65892 0.0
H1045 H 0.88756 0.12823 0.76356 0.0
C1046 C 0.88592 0.15172 0.87738 0.0
C1047 C 0.88321 0.16781 0.9292 0.0
C1048 C 0.89674 0.15944 0.82064 0.0
C1049 C 0.89649 0.18883 0.93126 0.0
C1050 C 0.90841 0.19615 0.87606 0.0
C1051 C 0.91073 0.19326 0.76012 0.0
C1052 C 0.90572 0.18125 0.70221 0.0
C1053 C 0.90648 0.18258 0.81922 0.0
C1054 C 0.89916 0.15716 0.70348 0.0
C1055 C 0.89465 0.14618 0.76302 0.0
H1056 H 0.68475 0.68648 0.92277 0.0
H1057 H 0.72897 0.64428 0.79528 0.0
H1058 H 0.70928 0.66225 0.70116 0.0
H1059 H 0.68043 0.69106 0.65318 0.0
H1060 H 0.63665 0.73413 0.77952 0.0
H1061 H 0.65498 0.71483 0.87426 0.0
C1062 C 0.69003 0.68094 0.8745 0.0
C1063 C 0.7086 0.6636 0.86747 0.0
C1064 C 0.67862 0.69172 0.81951 0.0
C1065 C 0.71492 0.65724 0.80355 0.0
C1066 C 0.7036 0.66767 0.74918 0.0
C1067 C 0.67462 0.69623 0.70131 0.0
C1068 C 0.65677 0.71432 0.70788 0.0
C1069 C 0.68554 0.68509 0.75627 0.0
C1070 C 0.65003 0.72044 0.77165 0.0
C1071 C 0.66067 0.70934 0.8263 0.0
H1072 H 0.36811 0.68969 0.63258 0.0
H1073 H 0.33334 0.64047 0.76179 0.0
H1074 H 0.35451 0.65783 0.85391 0.0
H1075 H 0.38184 0.68817 0.90016 0.0
H1076 H 0.41618 0.73798 0.77182 0.0
H1077 H 0.3966 0.71929 0.6787 0.0
C1078 C 0.36526 0.68249 0.68071 0.0
C1079 C 0.34887 0.66339 0.68892 0.0
C1080 C 0.37754 0.69285 0.73454 0.0
C1081 C 0.34564 0.65486 0.75265 0.0
C1082 C 0.35782 0.66492 0.80589 0.0
C1083 C 0.38538 0.69489 0.85185 0.0
C1084 C 0.40093 0.71469 0.84424 0.0
C1085 C 0.37369 0.68408 0.79779 0.0
C1086 C 0.40468 0.72289 0.78039 0.0
C1087 C 0.3933 0.71215 0.72667 0.0
H1088 H 0.37011 0.37125 0.92203 0.0
H1089 H 0.32859 0.41532 0.79233 0.0
H1090 H 0.34775 0.39621 0.6992 0.0
H1091 H 0.37538 0.36594 0.65241 0.0
H1092 H 0.41655 0.32109 0.78081 0.0
H1093 H 0.39873 0.34137 0.87468 0.0
C1094 C 0.36532 0.37694 0.87349 0.0
C1095 C 0.34764 0.39516 0.86562 0.0
C1096 C 0.37644 0.3655 0.81894 0.0
C1097 C 0.34193 0.40168 0.80133 0.0
C1098 C 0.35296 0.3906 0.74747 0.0
C1099 C 0.38073 0.36058 0.70081 0.0
C1100 C 0.3977 0.34169 0.70814 0.0
C1101 C 0.37012 0.37233 0.75535 0.0
C1102 C 0.40385 0.33537 0.77228 0.0
C1103 C 0.3935 0.34705 0.82648 0.0
H1104 H 0.68965 0.37623 0.65667 0.0
H1105 H 0.73331 0.41809 0.7848 0.0
H1106 H 0.71402 0.39958 0.87883 0.0
H1107 H 0.68532 0.37009 0.92643 0.0
H1108 H 0.64237 0.32813 0.79645 0.0
H1109 H 0.66055 0.3479 0.7035 0.0
C1110 C 0.69496 0.38158 0.70504 0.0
C1111 C 0.71322 0.39895 0.71222 0.0
C1112 C 0.68378 0.37058 0.75965 0.0
C1113 C 0.71949 0.40509 0.77636 0.0
C1114 C 0.70839 0.39434 0.83067 0.0
C1115 C 0.67969 0.36534 0.87788 0.0
C1116 C 0.66206 0.34732 0.86994 0.0
C1117 C 0.69057 0.37687 0.82327 0.0
C1118 C 0.65559 0.3417 0.80558 0.0
C1119 C 0.66612 0.35308 0.75178 0.0
H1120 H 0.35057 0.40434 0.24954 0.0
H1121 H 0.41863 0.40317 0.15366 0.0
H1122 H 0.4384 0.39965 0.25984 0.0
H1123 H 0.43451 0.38992 0.37687 0.0
H1124 H 0.36536 0.39183 0.46595 0.0
H1125 H 0.34774 0.406 0.36522 0.0
C1126 C 0.36977 0.40443 0.25122 0.0
C1127 C 0.38313 0.40379 0.19394 0.0
C1128 C 0.38071 0.40364 0.31126 0.0
C1129 C 0.40801 0.40329 0.19742 0.0
C1130 C 0.41925 0.40156 0.25791 0.0
C1131 C 0.41579 0.39443 0.37445 0.0
C1132 C 0.40087 0.38899 0.42676 0.0
C1133 C 0.4056 0.40083 0.31497 0.0
C1134 C 0.37689 0.39566 0.42522 0.0
C1135 C 0.36679 0.40316 0.36741 0.0
H1136 H 0.66 0.42831 0.39032 0.0
H1137 H 0.66844 0.35809 0.47334 0.0
H1138 H 0.65608 0.33988 0.37177 0.0
H1139 H 0.65554 0.34424 0.25619 0.0
H1140 H 0.64536 0.4134 0.16744 0.0
H1141 H 0.64805 0.43231 0.27497 0.0
C1142 C 0.65792 0.40909 0.38668 0.0
C1143 C 0.66572 0.3943 0.43743 0.0
C1144 C 0.65233 0.39881 0.32682 0.0
C1145 C 0.66264 0.36956 0.43393 0.0
C1146 C 0.65617 0.3592 0.3756 0.0
C1147 C 0.65287 0.36337 0.25988 0.0
C1148 C 0.65047 0.37745 0.20406 0.0
C1149 C 0.65305 0.37367 0.32088 0.0
C1150 C 0.64761 0.40228 0.21004 0.0
C1151 C 0.64885 0.413 0.27131 0.0
H1152 H 0.70753 0.66227 0.24852 0.0
H1153 H 0.63906 0.66167 0.15418 0.0
H1154 H 0.61965 0.6602 0.26106 0.0
H1155 H 0.62347 0.66469 0.38047 0.0
H1156 H 0.6929 0.66327 0.46779 0.0
H1157 H 0.71098 0.6553 0.36286 0.0
C1158 C 0.68837 0.6609 0.25038 0.0
C1159 C 0.67474 0.66221 0.19355 0.0
C1160 C 0.67771 0.6582 0.31029 0.0
C1161 C 0.64989 0.66105 0.19758 0.0
C1162 C 0.63887 0.65978 0.25835 0.0
C1163 C 0.64242 0.66156 0.37638 0.0
C1164 C 0.6572 0.66591 0.42979 0.0
C1165 C 0.65272 0.65891 0.31508 0.0
C1166 C 0.68146 0.66051 0.42619 0.0
C1167 C 0.6918 0.65674 0.36609 0.0
H1168 H 0.30867 0.69194 0.32745 0.0
H1169 H 0.36094 0.73623 0.4204 0.0
H1170 H 0.37646 0.74804 0.31416 0.0
H1171 H 0.3812 0.73709 0.20056 0.0
H1172 H 0.33228 0.68844 0.10961 0.0
H1173 H 0.30901 0.68668 0.21009 0.0
C1174 C 0.32296 0.70482 0.32388 0.0
C1175 C 0.33432 0.71283 0.38016 0.0
C1176 C 0.33267 0.70993 0.26373 0.0
C1177 C 0.3523 0.72985 0.37679 0.0
C1178 C 0.3613 0.73624 0.3164 0.0
C1179 C 0.36537 0.72617 0.20286 0.0
C1180 C 0.35886 0.71186 0.15 0.0
C1181 C 0.35272 0.72491 0.26041 0.0
C1182 C 0.33778 0.69885 0.15125 0.0
C1183 C 0.32454 0.69799 0.20819 0.0
loop_
_geom_bond_atom_site_label_1
_geom_bond_atom_site_label_2
_geom_bond_distance
_geom_bond_site_symmetry_2
_ccdc_geom_bond_type
Co0 O3 1.970 1_556 S
Co0 N17 1.989 . S
Co0 O25 1.967 . S
Co0 O32 1.920 . S
Co1 O4 1.966 . S
Co1 N10 2.022 . S
Co1 N18 1.993 1_554 S
Co1 O26 1.941 . S
C2 O3 1.258 . S
C2 O4 1.263 . S
O3 Co0 1.970 1_554 S
O3 C2 1.258 . S
O4 Co1 1.966 . S
O4 C2 1.263 . S
C5 O6 1.235 . S
C5 O32 1.289 . S
O6 C5 1.235 . S
C7 C9 1.400 . S
C7 N10 1.351 . S
C7 C12 1.501 . S
C8 C9 1.387 . S
C8 N11 1.341 . S
C9 C7 1.400 . S
C9 C8 1.387 . S
N10 Co1 2.022 . S
N10 C7 1.351 . S
N10 N11 1.365 . S
N11 C8 1.341 . S
N11 N10 1.365 . S
N11 H31 0.862 . S
C12 C7 1.501 . S
C12 H13 0.961 . S
C12 H14 0.961 . S
C12 H15 0.960 . S
H13 C12 0.961 . S
H14 C12 0.961 . S
H15 C12 0.960 . S
C16 N17 1.342 . S
C16 C20 1.401 . S
C16 C21 1.499 . S
N17 Co0 1.989 . S
N17 C16 1.342 . S
N17 N18 1.388 . S
N18 Co1 1.993 1_556 S
N18 N17 1.388 . S
N18 C19 1.346 . S
C19 N18 1.346 . S
C19 C20 1.396 . S
C19 C29 1.510 . S
C20 C16 1.401 . S
C20 C19 1.396 . S
C21 C16 1.499 . S
C21 H22 0.959 . S
C21 H23 0.960 . S
C21 H24 0.961 . S
H22 C21 0.959 . S
H23 C21 0.960 . S
H24 C21 0.961 . S
O25 Co0 1.967 . S
O25 C33 1.258 1_556 S
O26 Co1 1.941 . S
O26 C33 1.266 . S
H27 C29 0.959 . S
H28 C29 0.961 . S
C29 C19 1.510 . S
C29 H27 0.959 . S
C29 H28 0.961 . S
C29 H30 0.960 1_556 S
H30 C29 0.960 1_554 S
H31 N11 0.862 . S
O32 Co0 1.920 . S
O32 C5 1.289 . S
C33 O25 1.258 1_554 S
C33 O26 1.266 . S
Co34 O37 1.970 1_556 S
Co34 N51 1.989 . S
Co34 O59 1.967 . S
Co34 O66 1.920 . S
Co35 O38 1.966 . S
Co35 N44 2.022 . S
Co35 N52 1.993 1_554 S
Co35 O60 1.941 . S
C36 O37 1.258 . S
C36 O38 1.263 . S
O37 Co34 1.970 1_554 S
O37 C36 1.258 . S
O38 Co35 1.966 . S
O38 C36 1.263 . S
C39 O40 1.235 . S
C39 O66 1.289 . S
O40 C39 1.235 . S
C41 C43 1.400 . S
C41 N44 1.351 . S
C41 C46 1.501 . S
C42 C43 1.387 . S
C42 N45 1.341 . S
C43 C41 1.400 . S
C43 C42 1.387 . S
N44 Co35 2.022 . S
N44 C41 1.351 . S
N44 N45 1.365 . S
N45 C42 1.341 . S
N45 N44 1.365 . S
N45 H65 0.862 . S
C46 C41 1.501 . S
C46 H47 0.961 . S
C46 H48 0.961 . S
C46 H49 0.960 . S
H47 C46 0.961 . S
H48 C46 0.961 . S
H49 C46 0.960 . S
C50 N51 1.342 . S
C50 C54 1.401 . S
C50 C55 1.499 . S
N51 Co34 1.989 . S
N51 C50 1.342 . S
N51 N52 1.388 . S
N52 Co35 1.993 1_556 S
N52 N51 1.388 . S
N52 C53 1.346 . S
C53 N52 1.346 . S
C53 C54 1.396 . S
C53 C63 1.510 . S
C54 C50 1.401 . S
C54 C53 1.396 . S
C55 C50 1.499 . S
C55 H56 0.959 . S
C55 H57 0.960 . S
C55 H58 0.961 . S
H56 C55 0.959 . S
H57 C55 0.960 . S
H58 C55 0.961 . S
O59 Co34 1.967 . S
O59 C67 1.258 1_556 S
O60 Co35 1.941 . S
O60 C67 1.266 . S
H61 C63 0.959 . S
H62 C63 0.961 . S
C63 C53 1.510 . S
C63 H61 0.959 . S
C63 H62 0.961 . S
C63 H64 0.960 1_556 S
H64 C63 0.960 1_554 S
H65 N45 0.862 . S
O66 Co34 1.920 . S
O66 C39 1.289 . S
C67 O59 1.258 1_554 S
C67 O60 1.266 . S
Co68 O71 1.970 1_556 S
Co68 N85 1.989 . S
Co68 O93 1.967 . S
Co68 O100 1.920 . S
Co69 O72 1.966 . S
Co69 N78 2.022 . S
Co69 N86 1.993 1_554 S
Co69 O94 1.941 . S
C70 O71 1.258 . S
C70 O72 1.263 . S
O71 Co68 1.970 1_554 S
O71 C70 1.258 . S
O72 Co69 1.966 . S
O72 C70 1.263 . S
C73 O74 1.235 . S
C73 O100 1.289 . S
O74 C73 1.235 . S
C75 C77 1.400 . S
C75 N78 1.351 . S
C75 C80 1.501 . S
C76 C77 1.387 . S
C76 N79 1.341 . S
C77 C75 1.400 . S
C77 C76 1.387 . S
N78 Co69 2.022 . S
N78 C75 1.351 . S
N78 N79 1.365 . S
N79 C76 1.341 . S
N79 N78 1.365 . S
N79 H99 0.862 . S
C80 C75 1.501 . S
C80 H81 0.961 . S
C80 H82 0.961 . S
C80 H83 0.960 . S
H81 C80 0.961 . S
H82 C80 0.961 . S
H83 C80 0.960 . S
C84 N85 1.342 . S
C84 C88 1.401 . S
C84 C89 1.499 . S
N85 Co68 1.989 . S
N85 C84 1.342 . S
N85 N86 1.388 . S
N86 Co69 1.993 1_556 S
N86 N85 1.388 . S
N86 C87 1.346 . S
C87 N86 1.346 . S
C87 C88 1.396 . S
C87 C97 1.510 . S
C88 C84 1.401 . S
C88 C87 1.396 . S
C89 C84 1.499 . S
C89 H90 0.959 . S
C89 H91 0.960 . S
C89 H92 0.961 . S
H90 C89 0.959 . S
H91 C89 0.960 . S
H92 C89 0.961 . S
O93 Co68 1.967 . S
O93 C101 1.258 1_556 S
O94 Co69 1.941 . S
O94 C101 1.266 . S
H95 C97 0.959 . S
H96 C97 0.961 . S
C97 C87 1.510 . S
C97 H95 0.959 . S
C97 H96 0.961 . S
C97 H98 0.960 1_556 S
H98 C97 0.960 1_554 S
H99 N79 0.862 . S
O100 Co68 1.920 . S
O100 C73 1.289 . S
C101 O93 1.258 1_554 S
C101 O94 1.266 . S
Co102 O105 1.970 1_556 S
Co102 N119 1.989 . S
Co102 O127 1.967 . S
Co102 O134 1.920 . S
Co103 O106 1.966 . S
Co103 N112 2.022 . S
Co103 N120 1.993 1_554 S
Co103 O128 1.941 . S
C104 O105 1.258 . S
C104 O106 1.263 . S
O105 Co102 1.970 1_554 S
O105 C104 1.258 . S
O106 Co103 1.966 . S
O106 C104 1.263 . S
C107 O108 1.235 . S
C107 O134 1.289 . S
O108 C107 1.235 . S
C109 C111 1.400 . S
C109 N112 1.351 . S
C109 C114 1.501 . S
C110 C111 1.387 . S
C110 N113 1.341 . S
C111 C109 1.400 . S
C111 C110 1.387 . S
N112 Co103 2.022 . S
N112 C109 1.351 . S
N112 N113 1.365 . S
N113 C110 1.341 . S
N113 N112 1.365 . S
N113 H133 0.862 . S
C114 C109 1.501 . S
C114 H115 0.961 . S
C114 H116 0.961 . S
C114 H117 0.960 . S
H115 C114 0.961 . S
H116 C114 0.961 . S
H117 C114 0.960 . S
C118 N119 1.342 . S
C118 C122 1.401 . S
C118 C123 1.499 . S
N119 Co102 1.989 . S
N119 C118 1.342 . S
N119 N120 1.388 . S
N120 Co103 1.993 1_556 S
N120 N119 1.388 . S
N120 C121 1.346 . S
C121 N120 1.346 . S
C121 C122 1.396 . S
C121 C131 1.510 . S
C122 C118 1.401 . S
C122 C121 1.396 . S
C123 C118 1.499 . S
C123 H124 0.959 . S
C123 H125 0.960 . S
C123 H126 0.961 . S
H124 C123 0.959 . S
H125 C123 0.960 . S
H126 C123 0.961 . S
O127 Co102 1.967 . S
O127 C135 1.258 1_556 S
O128 Co103 1.941 . S
O128 C135 1.266 . S
H129 C131 0.959 . S
H130 C131 0.961 . S
C131 C121 1.510 . S
C131 H129 0.959 . S
C131 H130 0.961 . S
C131 H132 0.960 1_556 S
H132 C131 0.960 1_554 S
H133 N113 0.862 . S
O134 Co102 1.920 . S
O134 C107 1.289 . S
C135 O127 1.258 1_554 S
C135 O128 1.266 . S
Co136 O139 1.970 . S
Co136 N153 1.989 . S
Co136 O161 1.967 . S
Co136 O168 1.920 . S
Co137 O140 1.966 . S
Co137 N146 2.022 . S
Co137 N154 1.993 . S
Co137 O162 1.941 . S
C138 O139 1.258 . S
C138 O140 1.263 . S
O139 Co136 1.970 . S
O139 C138 1.258 . S
O140 Co137 1.966 . S
O140 C138 1.263 . S
C141 O142 1.235 . S
C141 O168 1.289 . S
O142 C141 1.235 . S
C143 C145 1.400 . S
C143 N146 1.351 . S
C143 C148 1.501 . S
C144 C145 1.387 . S
C144 N147 1.341 . S
C145 C143 1.400 . S
C145 C144 1.387 . S
N146 Co137 2.022 . S
N146 C143 1.351 . S
N146 N147 1.365 . S
N147 C144 1.341 . S
N147 N146 1.365 . S
N147 H167 0.862 . S
C148 C143 1.501 . S
C148 H149 0.961 . S
C148 H150 0.961 . S
C148 H151 0.960 . S
H149 C148 0.961 . S
H150 C148 0.961 . S
H151 C148 0.960 . S
C152 N153 1.342 . S
C152 C156 1.401 . S
C152 C157 1.499 . S
N153 Co136 1.989 . S
N153 C152 1.342 . S
N153 N154 1.388 . S
N154 Co137 1.993 . S
N154 N153 1.388 . S
N154 C155 1.346 . S
C155 N154 1.346 . S
C155 C156 1.396 . S
C155 C165 1.510 . S
C156 C152 1.401 . S
C156 C155 1.396 . S
C157 C152 1.499 . S
C157 H158 0.959 . S
C157 H159 0.960 . S
C157 H160 0.961 . S
H158 C157 0.959 . S
H159 C157 0.960 . S
H160 C157 0.961 . S
O161 Co136 1.967 . S
O161 C169 1.258 . S
O162 Co137 1.941 . S
O162 C169 1.266 . S
H163 C165 0.959 . S
H164 C165 0.961 . S
C165 C155 1.510 . S
C165 H163 0.959 . S
C165 H164 0.961 . S
C165 H166 0.960 . S
H166 C165 0.960 . S
H167 N147 0.862 . S
O168 Co136 1.920 . S
O168 C141 1.289 . S
C169 O161 1.258 . S
C169 O162 1.266 . S
Co170 O173 1.970 . S
Co170 N187 1.989 . S
Co170 O195 1.967 . S
Co170 O202 1.920 . S
Co171 O174 1.966 . S
Co171 N180 2.022 . S
Co171 N188 1.993 . S
Co171 O196 1.941 . S
C172 O173 1.258 . S
C172 O174 1.263 . S
O173 Co170 1.970 . S
O173 C172 1.258 . S
O174 Co171 1.966 . S
O174 C172 1.263 . S
C175 O176 1.235 . S
C175 O202 1.289 . S
O176 C175 1.235 . S
C177 C179 1.400 . S
C177 N180 1.351 . S
C177 C182 1.501 . S
C178 C179 1.387 . S
C178 N181 1.341 . S
C179 C177 1.400 . S
C179 C178 1.387 . S
N180 Co171 2.022 . S
N180 C177 1.351 . S
N180 N181 1.365 . S
N181 C178 1.341 . S
N181 N180 1.365 . S
N181 H201 0.862 . S
C182 C177 1.501 . S
C182 H183 0.961 . S
C182 H184 0.961 . S
C182 H185 0.960 . S
H183 C182 0.961 . S
H184 C182 0.961 . S
H185 C182 0.960 . S
C186 N187 1.342 . S
C186 C190 1.401 . S
C186 C191 1.499 . S
N187 Co170 1.989 . S
N187 C186 1.342 . S
N187 N188 1.388 . S
N188 Co171 1.993 . S
N188 N187 1.388 . S
N188 C189 1.346 . S
C189 N188 1.346 . S
C189 C190 1.396 . S
C189 C199 1.510 . S
C190 C186 1.401 . S
C190 C189 1.396 . S
C191 C186 1.499 . S
C191 H192 0.959 . S
C191 H193 0.960 . S
C191 H194 0.961 . S
H192 C191 0.959 . S
H193 C191 0.960 . S
H194 C191 0.961 . S
O195 Co170 1.967 . S
O195 C203 1.258 . S
O196 Co171 1.941 . S
O196 C203 1.266 . S
H197 C199 0.959 . S
H198 C199 0.961 . S
C199 C189 1.510 . S
C199 H197 0.959 . S
C199 H198 0.961 . S
C199 H200 0.960 . S
H200 C199 0.960 . S
H201 N181 0.862 . S
O202 Co170 1.920 . S
O202 C175 1.289 . S
C203 O195 1.258 . S
C203 O196 1.266 . S
Co204 O207 1.970 . S
Co204 N221 1.989 . S
Co204 O229 1.967 . S
Co204 O236 1.920 . S
Co205 O208 1.966 . S
Co205 N214 2.022 . S
Co205 N222 1.993 . S
Co205 O230 1.941 . S
C206 O207 1.258 . S
C206 O208 1.263 . S
O207 Co204 1.970 . S
O207 C206 1.258 . S
O208 Co205 1.966 . S
O208 C206 1.263 . S
C209 O210 1.235 . S
C209 O236 1.289 . S
O210 C209 1.235 . S
C211 C213 1.400 . S
C211 N214 1.351 . S
C211 C216 1.501 . S
C212 C213 1.387 . S
C212 N215 1.341 . S
C213 C211 1.400 . S
C213 C212 1.387 . S
N214 Co205 2.022 . S
N214 C211 1.351 . S
N214 N215 1.365 . S
N215 C212 1.341 . S
N215 N214 1.365 . S
N215 H235 0.862 . S
C216 C211 1.501 . S
C216 H217 0.961 . S
C216 H218 0.961 . S
C216 H219 0.960 . S
H217 C216 0.961 . S
H218 C216 0.961 . S
H219 C216 0.960 . S
C220 N221 1.342 . S
C220 C224 1.401 . S
C220 C225 1.499 . S
N221 Co204 1.989 . S
N221 C220 1.342 . S
N221 N222 1.388 . S
N222 Co205 1.993 . S
N222 N221 1.388 . S
N222 C223 1.346 . S
C223 N222 1.346 . S
C223 C224 1.396 . S
C223 C233 1.510 . S
C224 C220 1.401 . S
C224 C223 1.396 . S
C225 C220 1.499 . S
C225 H226 0.959 . S
C225 H227 0.960 . S
C225 H228 0.961 . S
H226 C225 0.959 . S
H227 C225 0.960 . S
H228 C225 0.961 . S
O229 Co204 1.967 . S
O229 C237 1.258 . S
O230 Co205 1.941 . S
O230 C237 1.266 . S
H231 C233 0.959 . S
H232 C233 0.961 . S
C233 C223 1.510 . S
C233 H231 0.959 . S
C233 H232 0.961 . S
C233 H234 0.960 . S
H234 C233 0.960 . S
H235 N215 0.862 . S
O236 Co204 1.920 . S
O236 C209 1.289 . S
C237 O229 1.258 . S
C237 O230 1.266 . S
Co238 O241 1.970 . S
Co238 N255 1.989 . S
Co238 O263 1.967 . S
Co238 O270 1.920 . S
Co239 O242 1.966 . S
Co239 N248 2.022 . S
Co239 N256 1.993 . S
Co239 O264 1.941 . S
C240 O241 1.258 . S
C240 O242 1.263 . S
O241 Co238 1.970 . S
O241 C240 1.258 . S
O242 Co239 1.966 . S
O242 C240 1.263 . S
C243 O244 1.235 . S
C243 O270 1.289 . S
O244 C243 1.235 . S
C245 C247 1.400 . S
C245 N248 1.351 . S
C245 C250 1.501 . S
C246 C247 1.387 . S
C246 N249 1.341 . S
C247 C245 1.400 . S
C247 C246 1.387 . S
N248 Co239 2.022 . S
N248 C245 1.351 . S
N248 N249 1.365 . S
N249 C246 1.341 . S
N249 N248 1.365 . S
N249 H269 0.862 . S
C250 C245 1.501 . S
C250 H251 0.961 . S
C250 H252 0.961 . S
C250 H253 0.960 . S
H251 C250 0.961 . S
H252 C250 0.961 . S
H253 C250 0.960 . S
C254 N255 1.342 . S
C254 C258 1.401 . S
C254 C259 1.499 . S
N255 Co238 1.989 . S
N255 C254 1.342 . S
N255 N256 1.388 . S
N256 Co239 1.993 . S
N256 N255 1.388 . S
N256 C257 1.346 . S
C257 N256 1.346 . S
C257 C258 1.396 . S
C257 C267 1.510 . S
C258 C254 1.401 . S
C258 C257 1.396 . S
C259 C254 1.499 . S
C259 H260 0.959 . S
C259 H261 0.960 . S
C259 H262 0.961 . S
H260 C259 0.959 . S
H261 C259 0.960 . S
H262 C259 0.961 . S
O263 Co238 1.967 . S
O263 C271 1.258 . S
O264 Co239 1.941 . S
O264 C271 1.266 . S
H265 C267 0.959 . S
H266 C267 0.961 . S
C267 C257 1.510 . S
C267 H265 0.959 . S
C267 H266 0.961 . S
C267 H268 0.960 . S
H268 C267 0.960 . S
H269 N249 0.862 . S
O270 Co238 1.920 . S
O270 C243 1.289 . S
C271 O263 1.258 . S
C271 O264 1.266 . S
Co272 O275 1.970 . S
Co272 N289 1.989 . S
Co272 O297 1.967 . S
Co272 O304 1.920 . S
Co273 O276 1.966 . S
Co273 N282 2.022 . S
Co273 N290 1.993 . S
Co273 O298 1.941 . S
C274 O275 1.258 . S
C274 O276 1.263 . S
O275 Co272 1.970 . S
O275 C274 1.258 . S
O276 Co273 1.966 . S
O276 C274 1.263 . S
C277 O278 1.235 . S
C277 O304 1.289 . S
O278 C277 1.235 . S
C279 C281 1.400 . S
C279 N282 1.351 . S
C279 C284 1.501 . S
C280 C281 1.387 . S
C280 N283 1.341 . S
C281 C279 1.400 . S
C281 C280 1.387 . S
N282 Co273 2.022 . S
N282 C279 1.351 . S
N282 N283 1.365 . S
N283 C280 1.341 . S
N283 N282 1.365 . S
N283 H303 0.862 . S
C284 C279 1.501 . S
C284 H285 0.961 . S
C284 H286 0.961 . S
C284 H287 0.960 . S
H285 C284 0.961 . S
H286 C284 0.961 . S
H287 C284 0.960 . S
C288 N289 1.342 . S
C288 C292 1.401 . S
C288 C293 1.499 . S
N289 Co272 1.989 . S
N289 C288 1.342 . S
N289 N290 1.388 . S
N290 Co273 1.993 . S
N290 N289 1.388 . S
N290 C291 1.346 . S
C291 N290 1.346 . S
C291 C292 1.396 . S
C291 C301 1.510 . S
C292 C288 1.401 . S
C292 C291 1.396 . S
C293 C288 1.499 . S
C293 H294 0.959 . S
C293 H295 0.960 . S
C293 H296 0.961 . S
H294 C293 0.959 . S
H295 C293 0.960 . S
H296 C293 0.961 . S
O297 Co272 1.967 . S
O297 C305 1.258 . S
O298 Co273 1.941 . S
O298 C305 1.266 . S
H299 C301 0.959 . S
H300 C301 0.961 . S
C301 C291 1.510 . S
C301 H299 0.959 . S
C301 H300 0.961 . S
C301 H302 0.960 . S
H302 C301 0.960 . S
H303 N283 0.862 . S
O304 Co272 1.920 . S
O304 C277 1.289 . S
C305 O297 1.258 . S
C305 O298 1.266 . S
Co306 O309 1.970 . S
Co306 N323 1.989 . S
Co306 O331 1.967 . S
Co306 O338 1.920 . S
Co307 O310 1.966 . S
Co307 N316 2.022 . S
Co307 N324 1.993 . S
Co307 O332 1.941 . S
C308 O309 1.258 . S
C308 O310 1.263 . S
O309 Co306 1.970 . S
O309 C308 1.258 . S
O310 Co307 1.966 . S
O310 C308 1.263 . S
C311 O312 1.235 . S
C311 O338 1.289 . S
O312 C311 1.235 . S
C313 C315 1.400 . S
C313 N316 1.351 . S
C313 C318 1.501 . S
C314 C315 1.387 . S
C314 N317 1.341 . S
C315 C313 1.400 . S
C315 C314 1.387 . S
N316 Co307 2.022 . S
N316 C313 1.351 . S
N316 N317 1.365 . S
N317 C314 1.341 . S
N317 N316 1.365 . S
N317 H337 0.862 . S
C318 C313 1.501 . S
C318 H319 0.961 . S
C318 H320 0.961 . S
C318 H321 0.960 . S
H319 C318 0.961 . S
H320 C318 0.961 . S
H321 C318 0.960 . S
C322 N323 1.342 . S
C322 C326 1.401 . S
C322 C327 1.499 . S
N323 Co306 1.989 . S
N323 C322 1.342 . S
N323 N324 1.388 . S
N324 Co307 1.993 . S
N324 N323 1.388 . S
N324 C325 1.346 . S
C325 N324 1.346 . S
C325 C326 1.396 . S
C325 C335 1.510 . S
C326 C322 1.401 . S
C326 C325 1.396 . S
C327 C322 1.499 . S
C327 H328 0.959 . S
C327 H329 0.960 . S
C327 H330 0.961 . S
H328 C327 0.959 . S
H329 C327 0.960 . S
H330 C327 0.961 . S
O331 Co306 1.967 . S
O331 C339 1.258 . S
O332 Co307 1.941 . S
O332 C339 1.266 . S
H333 C335 0.959 . S
H334 C335 0.961 . S
C335 C325 1.510 . S
C335 H333 0.959 . S
C335 H334 0.961 . S
C335 H336 0.960 . S
H336 C335 0.960 . S
H337 N317 0.862 . S
O338 Co306 1.920 . S
O338 C311 1.289 . S
C339 O331 1.258 . S
C339 O332 1.266 . S
Co340 O343 1.970 . S
Co340 N357 1.989 . S
Co340 O365 1.967 . S
Co340 O372 1.920 . S
Co341 O344 1.966 . S
Co341 N350 2.022 . S
Co341 N358 1.993 . S
Co341 O366 1.941 . S
C342 O343 1.258 . S
C342 O344 1.263 . S
O343 Co340 1.970 . S
O343 C342 1.258 . S
O344 Co341 1.966 . S
O344 C342 1.263 . S
C345 O346 1.235 . S
C345 O372 1.289 . S
O346 C345 1.235 . S
C347 C349 1.400 . S
C347 N350 1.351 . S
C347 C352 1.501 . S
C348 C349 1.387 . S
C348 N351 1.341 . S
C349 C347 1.400 . S
C349 C348 1.387 . S
N350 Co341 2.022 . S
N350 C347 1.351 . S
N350 N351 1.365 . S
N351 C348 1.341 . S
N351 N350 1.365 . S
N351 H371 0.862 . S
C352 C347 1.501 . S
C352 H353 0.961 . S
C352 H354 0.961 . S
C352 H355 0.960 . S
H353 C352 0.961 . S
H354 C352 0.961 . S
H355 C352 0.960 . S
C356 N357 1.342 . S
C356 C360 1.401 . S
C356 C361 1.499 . S
N357 Co340 1.989 . S
N357 C356 1.342 . S
N357 N358 1.388 . S
N358 Co341 1.993 . S
N358 N357 1.388 . S
N358 C359 1.346 . S
C359 N358 1.346 . S
C359 C360 1.396 . S
C359 C369 1.510 . S
C360 C356 1.401 . S
C360 C359 1.396 . S
C361 C356 1.499 . S
C361 H362 0.959 . S
C361 H363 0.960 . S
C361 H364 0.961 . S
H362 C361 0.959 . S
H363 C361 0.960 . S
H364 C361 0.961 . S
O365 Co340 1.967 . S
O365 C373 1.258 . S
O366 Co341 1.941 . S
O366 C373 1.266 . S
H367 C369 0.959 . S
H368 C369 0.961 . S
C369 C359 1.510 . S
C369 H367 0.959 . S
C369 H368 0.961 . S
C369 H370 0.960 . S
H370 C369 0.960 . S
H371 N351 0.862 . S
O372 Co340 1.920 . S
O372 C345 1.289 . S
C373 O365 1.258 . S
C373 O366 1.266 . S
Co374 O377 1.970 . S
Co374 N391 1.989 . S
Co374 O399 1.967 . S
Co374 O406 1.920 . S
Co375 O378 1.966 . S
Co375 N384 2.022 . S
Co375 N392 1.993 . S
Co375 O400 1.941 . S
C376 O377 1.258 . S
C376 O378 1.263 . S
O377 Co374 1.970 . S
O377 C376 1.258 . S
O378 Co375 1.966 . S
O378 C376 1.263 . S
C379 O380 1.235 . S
C379 O406 1.289 . S
O380 C379 1.235 . S
C381 C383 1.400 . S
C381 N384 1.351 . S
C381 C386 1.501 . S
C382 C383 1.387 . S
C382 N385 1.341 . S
C383 C381 1.400 . S
C383 C382 1.387 . S
N384 Co375 2.022 . S
N384 C381 1.351 . S
N384 N385 1.365 . S
N385 C382 1.341 . S
N385 N384 1.365 . S
N385 H405 0.862 . S
C386 C381 1.501 . S
C386 H387 0.961 . S
C386 H388 0.961 . S
C386 H389 0.960 . S
H387 C386 0.961 . S
H388 C386 0.961 . S
H389 C386 0.960 . S
C390 N391 1.342 . S
C390 C394 1.401 . S
C390 C395 1.499 . S
N391 Co374 1.989 . S
N391 C390 1.342 . S
N391 N392 1.388 . S
N392 Co375 1.993 . S
N392 N391 1.388 . S
N392 C393 1.346 . S
C393 N392 1.346 . S
C393 C394 1.396 . S
C393 C403 1.510 . S
C394 C390 1.401 . S
C394 C393 1.396 . S
C395 C390 1.499 . S
C395 H396 0.959 . S
C395 H397 0.960 . S
C395 H398 0.961 . S
H396 C395 0.959 . S
H397 C395 0.960 . S
H398 C395 0.961 . S
O399 Co374 1.967 . S
O399 C407 1.258 . S
O400 Co375 1.941 . S
O400 C407 1.266 . S
H401 C403 0.959 . S
H402 C403 0.961 . S
C403 C393 1.510 . S
C403 H401 0.959 . S
C403 H402 0.961 . S
C403 H404 0.960 . S
H404 C403 0.960 . S
H405 N385 0.862 . S
O406 Co374 1.920 . S
O406 C379 1.289 . S
C407 O399 1.258 . S
C407 O400 1.266 . S
Co408 O411 1.970 1_554 S
Co408 N425 1.989 . S
Co408 O433 1.967 . S
Co408 O440 1.920 . S
Co409 O412 1.966 . S
Co409 N418 2.022 . S
Co409 N426 1.993 1_556 S
Co409 O434 1.941 . S
C410 O411 1.258 . S
C410 O412 1.263 . S
O411 Co408 1.970 1_556 S
O411 C410 1.258 . S
O412 Co409 1.966 . S
O412 C410 1.263 . S
C413 O414 1.235 . S
C413 O440 1.289 . S
O414 C413 1.235 . S
C415 C417 1.400 . S
C415 N418 1.351 . S
C415 C420 1.501 . S
C416 C417 1.387 . S
C416 N419 1.341 . S
C417 C415 1.400 . S
C417 C416 1.387 . S
N418 Co409 2.022 . S
N418 C415 1.351 . S
N418 N419 1.365 . S
N419 C416 1.341 . S
N419 N418 1.365 . S
N419 H439 0.862 . S
C420 C415 1.501 . S
C420 H421 0.961 . S
C420 H422 0.961 . S
C420 H423 0.960 . S
H421 C420 0.961 . S
H422 C420 0.961 . S
H423 C420 0.960 . S
C424 N425 1.342 . S
C424 C428 1.401 . S
C424 C429 1.499 . S
N425 Co408 1.989 . S
N425 C424 1.342 . S
N425 N426 1.388 . S
N426 Co409 1.993 1_554 S
N426 N425 1.388 . S
N426 C427 1.346 . S
C427 N426 1.346 . S
C427 C428 1.396 . S
C427 C437 1.510 . S
C428 C424 1.401 . S
C428 C427 1.396 . S
C429 C424 1.499 . S
C429 H430 0.959 . S
C429 H431 0.960 . S
C429 H432 0.961 . S
H430 C429 0.959 . S
H431 C429 0.960 . S
H432 C429 0.961 . S
O433 Co408 1.967 . S
O433 C441 1.258 1_554 S
O434 Co409 1.941 . S
O434 C441 1.266 . S
H435 C437 0.959 . S
H436 C437 0.961 . S
C437 C427 1.510 . S
C437 H435 0.959 . S
C437 H436 0.961 . S
C437 H438 0.960 1_554 S
H438 C437 0.960 1_556 S
H439 N419 0.862 . S
O440 Co408 1.920 . S
O440 C413 1.289 . S
C441 O433 1.258 1_556 S
C441 O434 1.266 . S
Co442 O445 1.970 1_554 S
Co442 N459 1.989 . S
Co442 O467 1.967 . S
Co442 O474 1.920 . S
Co443 O446 1.966 . S
Co443 N452 2.022 . S
Co443 N460 1.993 1_556 S
Co443 O468 1.941 . S
C444 O445 1.258 . S
C444 O446 1.263 . S
O445 Co442 1.970 1_556 S
O445 C444 1.258 . S
O446 Co443 1.966 . S
O446 C444 1.263 . S
C447 O448 1.235 . S
C447 O474 1.289 . S
O448 C447 1.235 . S
C449 C451 1.400 . S
C449 N452 1.351 . S
C449 C454 1.501 . S
C450 C451 1.387 . S
C450 N453 1.341 . S
C451 C449 1.400 . S
C451 C450 1.387 . S
N452 Co443 2.022 . S
N452 C449 1.351 . S
N452 N453 1.365 . S
N453 C450 1.341 . S
N453 N452 1.365 . S
N453 H473 0.862 . S
C454 C449 1.501 . S
C454 H455 0.961 . S
C454 H456 0.961 . S
C454 H457 0.960 . S
H455 C454 0.961 . S
H456 C454 0.961 . S
H457 C454 0.960 . S
C458 N459 1.342 . S
C458 C462 1.401 . S
C458 C463 1.499 . S
N459 Co442 1.989 . S
N459 C458 1.342 . S
N459 N460 1.388 . S
N460 Co443 1.993 1_554 S
N460 N459 1.388 . S
N460 C461 1.346 . S
C461 N460 1.346 . S
C461 C462 1.396 . S
C461 C471 1.510 . S
C462 C458 1.401 . S
C462 C461 1.396 . S
C463 C458 1.499 . S
C463 H464 0.959 . S
C463 H465 0.960 . S
C463 H466 0.961 . S
H464 C463 0.959 . S
H465 C463 0.960 . S
H466 C463 0.961 . S
O467 Co442 1.967 . S
O467 C475 1.258 1_554 S
O468 Co443 1.941 . S
O468 C475 1.266 . S
H469 C471 0.959 . S
H470 C471 0.961 . S
C471 C461 1.510 . S
C471 H469 0.959 . S
C471 H470 0.961 . S
C471 H472 0.960 1_554 S
H472 C471 0.960 1_556 S
H473 N453 0.862 . S
O474 Co442 1.920 . S
O474 C447 1.289 . S
C475 O467 1.258 1_556 S
C475 O468 1.266 . S
Co476 O479 1.970 1_554 S
Co476 N493 1.989 . S
Co476 O501 1.967 . S
Co476 O508 1.920 . S
Co477 O480 1.966 . S
Co477 N486 2.022 . S
Co477 N494 1.993 1_556 S
Co477 O502 1.941 . S
C478 O479 1.258 . S
C478 O480 1.263 . S
O479 Co476 1.970 1_556 S
O479 C478 1.258 . S
O480 Co477 1.966 . S
O480 C478 1.263 . S
C481 O482 1.235 . S
C481 O508 1.289 . S
O482 C481 1.235 . S
C483 C485 1.400 . S
C483 N486 1.351 . S
C483 C488 1.501 . S
C484 C485 1.387 . S
C484 N487 1.341 . S
C485 C483 1.400 . S
C485 C484 1.387 . S
N486 Co477 2.022 . S
N486 C483 1.351 . S
N486 N487 1.365 . S
N487 C484 1.341 . S
N487 N486 1.365 . S
N487 H507 0.862 . S
C488 C483 1.501 . S
C488 H489 0.961 . S
C488 H490 0.961 . S
C488 H491 0.960 . S
H489 C488 0.961 . S
H490 C488 0.961 . S
H491 C488 0.960 . S
C492 N493 1.342 . S
C492 C496 1.401 . S
C492 C497 1.499 . S
N493 Co476 1.989 . S
N493 C492 1.342 . S
N493 N494 1.388 . S
N494 Co477 1.993 1_554 S
N494 N493 1.388 . S
N494 C495 1.346 . S
C495 N494 1.346 . S
C495 C496 1.396 . S
C495 C505 1.510 . S
C496 C492 1.401 . S
C496 C495 1.396 . S
C497 C492 1.499 . S
C497 H498 0.959 . S
C497 H499 0.960 . S
C497 H500 0.961 . S
H498 C497 0.959 . S
H499 C497 0.960 . S
H500 C497 0.961 . S
O501 Co476 1.967 . S
O501 C509 1.258 1_554 S
O502 Co477 1.941 . S
O502 C509 1.266 . S
H503 C505 0.959 . S
H504 C505 0.961 . S
C505 C495 1.510 . S
C505 H503 0.959 . S
C505 H504 0.961 . S
C505 H506 0.960 1_554 S
H506 C505 0.960 1_556 S
H507 N487 0.862 . S
O508 Co476 1.920 . S
O508 C481 1.289 . S
C509 O501 1.258 1_556 S
C509 O502 1.266 . S
Co510 O513 1.970 1_554 S
Co510 N527 1.989 . S
Co510 O535 1.967 . S
Co510 O542 1.920 . S
Co511 O514 1.966 . S
Co511 N520 2.022 . S
Co511 N528 1.993 1_556 S
Co511 O536 1.941 . S
C512 O513 1.258 . S
C512 O514 1.263 . S
O513 Co510 1.970 1_556 S
O513 C512 1.258 . S
O514 Co511 1.966 . S
O514 C512 1.263 . S
C515 O516 1.235 . S
C515 O542 1.289 . S
O516 C515 1.235 . S
C517 C519 1.400 . S
C517 N520 1.351 . S
C517 C522 1.501 . S
C518 C519 1.387 . S
C518 N521 1.341 . S
C519 C517 1.400 . S
C519 C518 1.387 . S
N520 Co511 2.022 . S
N520 C517 1.351 . S
N520 N521 1.365 . S
N521 C518 1.341 . S
N521 N520 1.365 . S
N521 H541 0.862 . S
C522 C517 1.501 . S
C522 H523 0.961 . S
C522 H524 0.961 . S
C522 H525 0.960 . S
H523 C522 0.961 . S
H524 C522 0.961 . S
H525 C522 0.960 . S
C526 N527 1.342 . S
C526 C530 1.401 . S
C526 C531 1.499 . S
N527 Co510 1.989 . S
N527 C526 1.342 . S
N527 N528 1.388 . S
N528 Co511 1.993 1_554 S
N528 N527 1.388 . S
N528 C529 1.346 . S
C529 N528 1.346 . S
C529 C530 1.396 . S
C529 C539 1.510 . S
C530 C526 1.401 . S
C530 C529 1.396 . S
C531 C526 1.499 . S
C531 H532 0.959 . S
C531 H533 0.960 . S
C531 H534 0.961 . S
H532 C531 0.959 . S
H533 C531 0.960 . S
H534 C531 0.961 . S
O535 Co510 1.967 . S
O535 C543 1.258 1_554 S
O536 Co511 1.941 . S
O536 C543 1.266 . S
H537 C539 0.959 . S
H538 C539 0.961 . S
C539 C529 1.510 . S
C539 H537 0.959 . S
C539 H538 0.961 . S
C539 H540 0.960 1_554 S
H540 C539 0.960 1_556 S
H541 N521 0.862 . S
O542 Co510 1.920 . S
O542 C515 1.289 . S
C543 O535 1.258 1_556 S
C543 O536 1.266 . S
H544 C550 0.930 . S
H545 C553 0.930 . S
H546 C554 0.930 . S
H547 C555 0.930 . S
H548 C558 0.930 . S
H549 C559 0.930 . S
C550 H544 0.930 . S
C550 C551 1.354 1_554 S
C550 C552 1.415 . S
C551 C550 1.354 1_556 S
C551 C553 1.420 . S
C552 C550 1.415 . S
C552 C557 1.425 1_554 S
C552 C559 1.409 . S
C553 H545 0.930 . S
C553 C551 1.420 . S
C553 C554 1.362 . S
C554 H546 0.930 . S
C554 C553 1.362 . S
C554 C557 1.409 . S
C555 H547 0.930 . S
C555 C556 1.355 1_556 S
C555 C557 1.415 . S
C556 C555 1.355 1_554 S
C556 C558 1.419 . S
C557 C552 1.425 1_556 S
C557 C554 1.409 . S
C557 C555 1.415 . S
C558 H548 0.930 . S
C558 C556 1.419 . S
C558 C559 1.362 . S
C559 H549 0.930 . S
C559 C552 1.409 . S
C559 C558 1.362 . S
H560 C566 0.930 . S
H561 C569 0.930 . S
H562 C570 0.930 . S
H563 C571 0.930 . S
H564 C574 0.930 . S
H565 C575 0.930 . S
C566 H560 0.930 . S
C566 C567 1.355 1_554 S
C566 C568 1.415 . S
C567 C566 1.355 1_556 S
C567 C569 1.419 . S
C568 C566 1.415 . S
C568 C573 1.425 1_554 S
C568 C575 1.409 . S
C569 H561 0.930 . S
C569 C567 1.419 . S
C569 C570 1.362 . S
C570 H562 0.930 . S
C570 C569 1.362 . S
C570 C573 1.409 . S
C571 H563 0.930 . S
C571 C572 1.355 1_556 S
C571 C573 1.415 . S
C572 C571 1.355 1_554 S
C572 C574 1.419 . S
C573 C568 1.425 1_556 S
C573 C570 1.409 . S
C573 C571 1.415 . S
C574 H564 0.930 . S
C574 C572 1.419 . S
C574 C575 1.362 . S
C575 H565 0.930 . S
C575 C568 1.409 . S
C575 C574 1.362 . S
H576 C582 0.930 . S
H577 C585 0.930 . S
H578 C586 0.930 . S
H579 C587 0.930 . S
H580 C590 0.930 . S
H581 C591 0.930 . S
C582 H576 0.930 . S
C582 C583 1.355 1_554 S
C582 C584 1.415 . S
C583 C582 1.355 1_556 S
C583 C585 1.419 . S
C584 C582 1.415 . S
C584 C589 1.425 1_554 S
C584 C591 1.409 . S
C585 H577 0.930 . S
C585 C583 1.419 . S
C585 C586 1.362 . S
C586 H578 0.930 . S
C586 C585 1.362 . S
C586 C589 1.409 . S
C587 H579 0.930 . S
C587 C588 1.355 1_556 S
C587 C589 1.415 . S
C588 C587 1.355 1_554 S
C588 C590 1.419 . S
C589 C584 1.425 1_556 S
C589 C586 1.409 . S
C589 C587 1.415 . S
C590 H580 0.930 . S
C590 C588 1.419 . S
C590 C591 1.362 . S
C591 H581 0.930 . S
C591 C584 1.409 . S
C591 C590 1.362 . S
H592 C598 0.930 . S
H593 C601 0.930 . S
H594 C602 0.930 . S
H595 C603 0.930 . S
H596 C606 0.930 . S
H597 C607 0.930 . S
C598 H592 0.930 . S
C598 C599 1.355 1_554 S
C598 C600 1.415 . S
C599 C598 1.355 1_556 S
C599 C601 1.419 . S
C600 C598 1.415 . S
C600 C605 1.425 1_554 S
C600 C607 1.409 . S
C601 H593 0.930 . S
C601 C599 1.419 . S
C601 C602 1.362 . S
C602 H594 0.930 . S
C602 C601 1.362 . S
C602 C605 1.409 . S
C603 H595 0.930 . S
C603 C604 1.355 1_556 S
C603 C605 1.415 . S
C604 C603 1.355 1_554 S
C604 C606 1.419 . S
C605 C600 1.425 1_556 S
C605 C602 1.409 . S
C605 C603 1.415 . S
C606 H596 0.930 . S
C606 C604 1.419 . S
C606 C607 1.362 . S
C607 H597 0.930 . S
C607 C600 1.409 . S
C607 C606 1.362 . S
H608 C614 0.930 . S
H609 C617 0.930 . S
H610 C618 0.930 . S
H611 C619 0.930 . S
H612 C622 0.930 . S
H613 C623 0.930 . S
C614 H608 0.930 . S
C614 C615 1.355 . S
C614 C616 1.415 . S
C615 C614 1.355 . S
C615 C617 1.419 . S
C616 C614 1.415 . S
C616 C621 1.425 . S
C616 C623 1.409 . S
C617 H609 0.930 . S
C617 C615 1.419 . S
C617 C618 1.362 . S
C618 H610 0.930 . S
C618 C617 1.362 . S
C618 C621 1.409 . S
C619 H611 0.930 . S
C619 C620 1.355 . S
C619 C621 1.415 . S
C620 C619 1.355 . S
C620 C622 1.419 . S
C621 C616 1.425 . S
C621 C618 1.409 . S
C621 C619 1.415 . S
C622 H612 0.930 . S
C622 C620 1.419 . S
C622 C623 1.362 . S
C623 H613 0.930 . S
C623 C616 1.409 . S
C623 C622 1.362 . S
H624 C630 0.930 . S
H625 C633 0.930 . S
H626 C634 0.930 . S
H627 C635 0.930 . S
H628 C638 0.930 . S
H629 C639 0.930 . S
C630 H624 0.930 . S
C630 C631 1.355 . S
C630 C632 1.415 . S
C631 C630 1.355 . S
C631 C633 1.419 . S
C632 C630 1.415 . S
C632 C637 1.425 . S
C632 C639 1.409 . S
C633 H625 0.930 . S
C633 C631 1.419 . S
C633 C634 1.362 . S
C634 H626 0.930 . S
C634 C633 1.362 . S
C634 C637 1.409 . S
C635 H627 0.930 . S
C635 C636 1.355 . S
C635 C637 1.415 . S
C636 C635 1.355 . S
C636 C638 1.419 . S
C637 C632 1.425 . S
C637 C634 1.409 . S
C637 C635 1.415 . S
C638 H628 0.930 . S
C638 C636 1.419 . S
C638 C639 1.362 . S
C639 H629 0.930 . S
C639 C632 1.409 . S
C639 C638 1.362 . S
H640 C646 0.930 . S
H641 C649 0.930 . S
H642 C650 0.930 . S
H643 C651 0.930 . S
H644 C654 0.930 . S
H645 C655 0.930 . S
C646 H640 0.930 . S
C646 C647 1.355 . S
C646 C648 1.415 . S
C647 C646 1.355 . S
C647 C649 1.419 . S
C648 C646 1.415 . S
C648 C653 1.425 . S
C648 C655 1.409 . S
C649 H641 0.930 . S
C649 C647 1.419 . S
C649 C650 1.362 . S
C650 H642 0.930 . S
C650 C649 1.362 . S
C650 C653 1.409 . S
C651 H643 0.930 . S
C651 C652 1.355 . S
C651 C653 1.415 . S
C652 C651 1.355 . S
C652 C654 1.419 . S
C653 C648 1.425 . S
C653 C650 1.409 . S
C653 C651 1.415 . S
C654 H644 0.930 . S
C654 C652 1.419 . S
C654 C655 1.362 . S
C655 H645 0.930 . S
C655 C648 1.409 . S
C655 C654 1.362 . S
H656 C662 0.930 . S
H657 C665 0.930 . S
H658 C666 0.930 . S
H659 C667 0.930 . S
H660 C670 0.930 . S
H661 C671 0.930 . S
C662 H656 0.930 . S
C662 C663 1.355 . S
C662 C664 1.415 . S
C663 C662 1.355 . S
C663 C665 1.419 . S
C664 C662 1.415 . S
C664 C669 1.425 . S
C664 C671 1.409 . S
C665 H657 0.930 . S
C665 C663 1.419 . S
C665 C666 1.362 . S
C666 H658 0.930 . S
C666 C665 1.362 . S
C666 C669 1.409 . S
C667 H659 0.930 . S
C667 C668 1.355 . S
C667 C669 1.415 . S
C668 C667 1.355 . S
C668 C670 1.419 . S
C669 C664 1.425 . S
C669 C666 1.409 . S
C669 C667 1.415 . S
C670 H660 0.930 . S
C670 C668 1.419 . S
C670 C671 1.362 . S
C671 H661 0.930 . S
C671 C664 1.409 . S
C671 C670 1.362 . S
H672 C678 0.930 . S
H673 C681 0.930 . S
H674 C682 0.930 . S
H675 C683 0.930 . S
H676 C686 0.930 . S
H677 C687 0.930 . S
C678 H672 0.930 . S
C678 C679 1.355 . S
C678 C680 1.415 1_655 S
C679 C678 1.355 . S
C679 C681 1.419 . S
C680 C678 1.415 1_455 S
C680 C685 1.425 1_455 S
C680 C687 1.409 . S
C681 H673 0.930 . S
C681 C679 1.419 . S
C681 C682 1.362 . S
C682 H674 0.930 . S
C682 C681 1.362 . S
C682 C685 1.409 . S
C683 H675 0.930 . S
C683 C684 1.355 . S
C683 C685 1.415 1_455 S
C684 C683 1.355 . S
C684 C686 1.419 . S
C685 C680 1.425 1_655 S
C685 C682 1.409 . S
C685 C683 1.415 1_655 S
C686 H676 0.930 . S
C686 C684 1.419 . S
C686 C687 1.362 . S
C687 H677 0.930 . S
C687 C680 1.409 . S
C687 C686 1.362 . S
H688 C694 0.930 . S
H689 C697 0.930 . S
H690 C698 0.930 . S
H691 C699 0.930 . S
H692 C702 0.930 . S
H693 C703 0.930 . S
C694 H688 0.930 . S
C694 C695 1.355 . S
C694 C696 1.415 1_565 S
C695 C694 1.355 . S
C695 C697 1.419 . S
C696 C694 1.415 1_545 S
C696 C701 1.425 1_545 S
C696 C703 1.409 . S
C697 H689 0.930 . S
C697 C695 1.419 . S
C697 C698 1.362 . S
C698 H690 0.930 . S
C698 C697 1.362 . S
C698 C701 1.409 . S
C699 H691 0.930 . S
C699 C700 1.355 . S
C699 C701 1.415 1_545 S
C700 C699 1.355 . S
C700 C702 1.419 . S
C701 C696 1.425 1_565 S
C701 C698 1.409 . S
C701 C699 1.415 1_565 S
C702 H692 0.930 . S
C702 C700 1.419 . S
C702 C703 1.362 . S
C703 H693 0.930 . S
C703 C696 1.409 . S
C703 C702 1.362 . S
H704 C710 0.930 . S
H705 C713 0.930 . S
H706 C714 0.930 . S
H707 C715 0.930 . S
H708 C718 0.930 . S
H709 C719 0.930 . S
C710 H704 0.930 . S
C710 C711 1.355 . S
C710 C712 1.415 . S
C711 C710 1.355 . S
C711 C713 1.419 . S
C712 C710 1.415 . S
C712 C717 1.425 1_455 S
C712 C719 1.409 . S
C713 H705 0.930 . S
C713 C711 1.419 . S
C713 C714 1.362 1_455 S
C714 H706 0.930 . S
C714 C713 1.362 1_655 S
C714 C717 1.409 . S
C715 H707 0.930 . S
C715 C716 1.355 . S
C715 C717 1.415 . S
C716 C715 1.355 . S
C716 C718 1.419 . S
C717 C712 1.425 1_655 S
C717 C714 1.409 . S
C717 C715 1.415 . S
C718 H708 0.930 . S
C718 C716 1.419 . S
C718 C719 1.362 1_655 S
C719 H709 0.930 . S
C719 C712 1.409 . S
C719 C718 1.362 1_455 S
H720 C726 0.930 . S
H721 C729 0.930 . S
H722 C730 0.930 . S
H723 C731 0.930 . S
H724 C734 0.930 . S
H725 C735 0.930 . S
C726 H720 0.930 . S
C726 C727 1.355 . S
C726 C728 1.415 . S
C727 C726 1.355 . S
C727 C729 1.419 . S
C728 C726 1.415 . S
C728 C733 1.425 1_545 S
C728 C735 1.409 1_545 S
C729 H721 0.930 . S
C729 C727 1.419 . S
C729 C730 1.362 . S
C730 H722 0.930 . S
C730 C729 1.362 . S
C730 C733 1.409 1_545 S
C731 H723 0.930 . S
C731 C732 1.355 . S
C731 C733 1.415 . S
C732 C731 1.355 . S
C732 C734 1.419 . S
C733 C728 1.425 1_565 S
C733 C730 1.409 1_565 S
C733 C731 1.415 . S
C734 H724 0.930 . S
C734 C732 1.419 . S
C734 C735 1.362 . S
C735 H725 0.930 . S
C735 C728 1.409 1_565 S
C735 C734 1.362 . S
H736 C742 0.930 . S
H737 C745 0.930 . S
H738 C746 0.930 . S
H739 C747 0.930 . S
H740 C750 0.930 . S
H741 C751 0.930 . S
C742 H736 0.930 . S
C742 C743 1.355 . S
C742 C744 1.415 1_455 S
C743 C742 1.355 . S
C743 C745 1.419 . S
C744 C742 1.415 1_655 S
C744 C749 1.425 1_655 S
C744 C751 1.409 . S
C745 H737 0.930 . S
C745 C743 1.419 . S
C745 C746 1.362 . S
C746 H738 0.930 . S
C746 C745 1.362 . S
C746 C749 1.409 . S
C747 H739 0.930 . S
C747 C748 1.355 . S
C747 C749 1.415 1_655 S
C748 C747 1.355 . S
C748 C750 1.419 . S
C749 C744 1.425 1_455 S
C749 C746 1.409 . S
C749 C747 1.415 1_455 S
C750 H740 0.930 . S
C750 C748 1.419 . S
C750 C751 1.362 . S
C751 H741 0.930 . S
C751 C744 1.409 . S
C751 C750 1.362 . S
H752 C758 0.930 . S
H753 C761 0.930 . S
H754 C762 0.930 . S
H755 C763 0.930 . S
H756 C766 0.930 . S
H757 C767 0.930 . S
C758 H752 0.930 . S
C758 C759 1.355 . S
C758 C760 1.415 1_565 S
C759 C758 1.355 . S
C759 C761 1.419 . S
C760 C758 1.415 1_545 S
C760 C765 1.425 1_545 S
C760 C767 1.409 . S
C761 H753 0.930 . S
C761 C759 1.419 . S
C761 C762 1.362 . S
C762 H754 0.930 . S
C762 C761 1.362 . S
C762 C765 1.409 . S
C763 H755 0.930 . S
C763 C764 1.355 . S
C763 C765 1.415 1_545 S
C764 C763 1.355 . S
C764 C766 1.419 . S
C765 C760 1.425 1_565 S
C765 C762 1.409 . S
C765 C763 1.415 1_565 S
C766 H756 0.930 . S
C766 C764 1.419 . S
C766 C767 1.362 . S
C767 H757 0.930 . S
C767 C760 1.409 . S
C767 C766 1.362 . S
H768 C774 0.930 . S
H769 C777 0.930 . S
H770 C778 0.930 . S
H771 C779 0.930 . S
H772 C782 0.930 . S
H773 C783 0.930 . S
C774 H768 0.930 . S
C774 C775 1.355 . S
C774 C776 1.415 . S
C775 C774 1.355 . S
C775 C777 1.419 . S
C776 C774 1.415 . S
C776 C781 1.425 1_655 S
C776 C783 1.409 . S
C777 H769 0.930 . S
C777 C775 1.419 . S
C777 C778 1.362 1_655 S
C778 H770 0.930 . S
C778 C777 1.362 1_455 S
C778 C781 1.409 . S
C779 H771 0.930 . S
C779 C780 1.355 . S
C779 C781 1.415 . S
C780 C779 1.355 . S
C780 C782 1.419 . S
C781 C776 1.425 1_455 S
C781 C778 1.409 . S
C781 C779 1.415 . S
C782 H772 0.930 . S
C782 C780 1.419 . S
C782 C783 1.362 1_455 S
C783 H773 0.930 . S
C783 C776 1.409 . S
C783 C782 1.362 1_655 S
H784 C790 0.930 . S
H785 C793 0.930 . S
H786 C794 0.930 . S
H787 C795 0.930 . S
H788 C798 0.930 . S
H789 C799 0.930 . S
C790 H784 0.930 . S
C790 C791 1.355 . S
C790 C792 1.415 . S
C791 C790 1.355 . S
C791 C793 1.419 . S
C792 C790 1.415 . S
C792 C797 1.425 1_545 S
C792 C799 1.409 1_545 S
C793 H785 0.930 . S
C793 C791 1.419 . S
C793 C794 1.362 . S
C794 H786 0.930 . S
C794 C793 1.362 . S
C794 C797 1.409 1_545 S
C795 H787 0.930 . S
C795 C796 1.355 . S
C795 C797 1.415 . S
C796 C795 1.355 . S
C796 C798 1.419 . S
C797 C792 1.425 1_565 S
C797 C794 1.409 1_565 S
C797 C795 1.415 . S
C798 H788 0.930 . S
C798 C796 1.419 . S
C798 C799 1.362 . S
C799 H789 0.930 . S
C799 C792 1.409 1_565 S
C799 C798 1.362 . S
H800 C806 0.930 . S
H801 C809 0.930 . S
H802 C810 0.930 . S
H803 C811 0.930 . S
H804 C814 0.930 . S
H805 C815 0.930 . S
C806 H800 0.930 . S
C806 C807 1.355 . S
C806 C808 1.415 . S
C807 C806 1.355 . S
C807 C809 1.419 . S
C808 C806 1.415 . S
C808 C813 1.425 . S
C808 C815 1.409 . S
C809 H801 0.930 . S
C809 C807 1.419 . S
C809 C810 1.362 . S
C810 H802 0.930 . S
C810 C809 1.362 . S
C810 C813 1.409 . S
C811 H803 0.930 . S
C811 C812 1.355 . S
C811 C813 1.415 . S
C812 C811 1.355 . S
C812 C814 1.419 . S
C813 C808 1.425 . S
C813 C810 1.409 . S
C813 C811 1.415 . S
C814 H804 0.930 . S
C814 C812 1.419 . S
C814 C815 1.362 . S
C815 H805 0.930 . S
C815 C808 1.409 . S
C815 C814 1.362 . S
H816 C822 0.930 . S
H817 C825 0.930 . S
H818 C826 0.930 . S
H819 C827 0.930 . S
H820 C830 0.930 . S
H821 C831 0.930 . S
C822 H816 0.930 . S
C822 C823 1.355 . S
C822 C824 1.415 . S
C823 C822 1.355 . S
C823 C825 1.419 . S
C824 C822 1.415 . S
C824 C829 1.425 . S
C824 C831 1.409 . S
C825 H817 0.930 . S
C825 C823 1.419 . S
C825 C826 1.362 . S
C826 H818 0.930 . S
C826 C825 1.362 . S
C826 C829 1.409 . S
C827 H819 0.930 . S
C827 C828 1.355 . S
C827 C829 1.415 . S
C828 C827 1.355 . S
C828 C830 1.419 . S
C829 C824 1.425 . S
C829 C826 1.409 . S
C829 C827 1.415 . S
C830 H820 0.930 . S
C830 C828 1.419 . S
C830 C831 1.362 . S
C831 H821 0.930 . S
C831 C824 1.409 . S
C831 C830 1.362 . S
H832 C838 0.930 . S
H833 C841 0.930 . S
H834 C842 0.930 . S
H835 C843 0.930 . S
H836 C846 0.930 . S
H837 C847 0.930 . S
C838 H832 0.930 . S
C838 C839 1.355 . S
C838 C840 1.415 . S
C839 C838 1.355 . S
C839 C841 1.419 . S
C840 C838 1.415 . S
C840 C845 1.425 . S
C840 C847 1.409 . S
C841 H833 0.930 . S
C841 C839 1.419 . S
C841 C842 1.362 . S
C842 H834 0.930 . S
C842 C841 1.362 . S
C842 C845 1.409 . S
C843 H835 0.930 . S
C843 C844 1.355 . S
C843 C845 1.415 . S
C844 C843 1.355 . S
C844 C846 1.419 . S
C845 C840 1.425 . S
C845 C842 1.409 . S
C845 C843 1.415 . S
C846 H836 0.930 . S
C846 C844 1.419 . S
C846 C847 1.362 . S
C847 H837 0.930 . S
C847 C840 1.409 . S
C847 C846 1.362 . S
H848 C854 0.930 . S
H849 C857 0.930 . S
H850 C858 0.930 . S
H851 C859 0.930 . S
H852 C862 0.930 . S
H853 C863 0.930 . S
C854 H848 0.930 . S
C854 C855 1.355 . S
C854 C856 1.415 . S
C855 C854 1.355 . S
C855 C857 1.419 . S
C856 C854 1.415 . S
C856 C861 1.425 . S
C856 C863 1.409 . S
C857 H849 0.930 . S
C857 C855 1.419 . S
C857 C858 1.362 . S
C858 H850 0.930 . S
C858 C857 1.362 . S
C858 C861 1.409 . S
C859 H851 0.930 . S
C859 C860 1.355 . S
C859 C861 1.415 . S
C860 C859 1.355 . S
C860 C862 1.419 . S
C861 C856 1.425 . S
C861 C858 1.409 . S
C861 C859 1.415 . S
C862 H852 0.930 . S
C862 C860 1.419 . S
C862 C863 1.362 . S
C863 H853 0.930 . S
C863 C856 1.409 . S
C863 C862 1.362 . S
H864 C870 0.930 . S
H865 C873 0.930 . S
H866 C874 0.930 . S
H867 C875 0.930 . S
H868 C878 0.930 . S
H869 C879 0.930 . S
C870 H864 0.930 . S
C870 C871 1.355 . S
C870 C872 1.415 . S
C871 C870 1.355 . S
C871 C873 1.419 . S
C872 C870 1.415 . S
C872 C877 1.425 . S
C872 C879 1.409 . S
C873 H865 0.930 . S
C873 C871 1.419 . S
C873 C874 1.362 . S
C874 H866 0.930 . S
C874 C873 1.362 . S
C874 C877 1.409 . S
C875 H867 0.930 . S
C875 C876 1.355 . S
C875 C877 1.415 . S
C876 C875 1.355 . S
C876 C878 1.419 . S
C877 C872 1.425 . S
C877 C874 1.409 . S
C877 C875 1.415 . S
C878 H868 0.930 . S
C878 C876 1.419 . S
C878 C879 1.362 . S
C879 H869 0.930 . S
C879 C872 1.409 . S
C879 C878 1.362 . S
H880 C886 0.930 . S
H881 C889 0.930 . S
H882 C890 0.930 . S
H883 C891 0.930 . S
H884 C894 0.930 . S
H885 C895 0.930 . S
C886 H880 0.930 . S
C886 C887 1.355 . S
C886 C888 1.415 . S
C887 C886 1.355 . S
C887 C889 1.419 . S
C888 C886 1.415 . S
C888 C893 1.425 . S
C888 C895 1.409 . S
C889 H881 0.930 . S
C889 C887 1.419 . S
C889 C890 1.362 . S
C890 H882 0.930 . S
C890 C889 1.362 . S
C890 C893 1.409 . S
C891 H883 0.930 . S
C891 C892 1.355 . S
C891 C893 1.415 . S
C892 C891 1.355 . S
C892 C894 1.419 . S
C893 C888 1.425 . S
C893 C890 1.409 . S
C893 C891 1.415 . S
C894 H884 0.930 . S
C894 C892 1.419 . S
C894 C895 1.362 . S
C895 H885 0.930 . S
C895 C888 1.409 . S
C895 C894 1.362 . S
H896 C902 0.930 . S
H897 C905 0.930 . S
H898 C906 0.930 . S
H899 C907 0.930 . S
H900 C910 0.930 . S
H901 C911 0.930 . S
C902 H896 0.930 . S
C902 C903 1.355 . S
C902 C904 1.415 . S
C903 C902 1.355 . S
C903 C905 1.419 . S
C904 C902 1.415 . S
C904 C909 1.425 . S
C904 C911 1.409 . S
C905 H897 0.930 . S
C905 C903 1.419 . S
C905 C906 1.362 . S
C906 H898 0.930 . S
C906 C905 1.362 . S
C906 C909 1.409 . S
C907 H899 0.930 . S
C907 C908 1.355 . S
C907 C909 1.415 . S
C908 C907 1.355 . S
C908 C910 1.419 . S
C909 C904 1.425 . S
C909 C906 1.409 . S
C909 C907 1.415 . S
C910 H900 0.930 . S
C910 C908 1.419 . S
C910 C911 1.362 . S
C911 H901 0.930 . S
C911 C904 1.409 . S
C911 C910 1.362 . S
H912 C918 0.930 . S
H913 C921 0.930 . S
H914 C922 0.930 . S
H915 C923 0.930 . S
H916 C926 0.930 . S
H917 C927 0.930 . S
C918 H912 0.930 . S
C918 C919 1.355 . S
C918 C920 1.415 . S
C919 C918 1.355 . S
C919 C921 1.419 . S
C920 C918 1.415 . S
C920 C925 1.425 . S
C920 C927 1.409 . S
C921 H913 0.930 . S
C921 C919 1.419 . S
C921 C922 1.362 . S
C922 H914 0.930 . S
C922 C921 1.362 . S
C922 C925 1.409 . S
C923 H915 0.930 . S
C923 C924 1.355 . S
C923 C925 1.415 . S
C924 C923 1.355 . S
C924 C926 1.419 . S
C925 C920 1.425 . S
C925 C922 1.409 . S
C925 C923 1.415 . S
C926 H916 0.930 . S
C926 C924 1.419 . S
C926 C927 1.362 . S
C927 H917 0.930 . S
C927 C920 1.409 . S
C927 C926 1.362 . S
H928 C934 0.930 . S
H929 C937 0.930 . S
H930 C938 0.930 . S
H931 C939 0.930 . S
H932 C942 0.930 . S
H933 C943 0.930 . S
C934 H928 0.930 . S
C934 C935 1.355 . S
C934 C936 1.415 . S
C935 C934 1.355 . S
C935 C937 1.419 . S
C936 C934 1.415 . S
C936 C941 1.425 . S
C936 C943 1.409 . S
C937 H929 0.930 . S
C937 C935 1.419 . S
C937 C938 1.362 . S
C938 H930 0.930 . S
C938 C937 1.362 . S
C938 C941 1.409 . S
C939 H931 0.930 . S
C939 C940 1.355 . S
C939 C941 1.415 . S
C940 C939 1.355 . S
C940 C942 1.419 . S
C941 C936 1.425 . S
C941 C938 1.409 . S
C941 C939 1.415 . S
C942 H932 0.930 . S
C942 C940 1.419 . S
C942 C943 1.362 . S
C943 H933 0.930 . S
C943 C936 1.409 . S
C943 C942 1.362 . S
H944 C950 0.930 . S
H945 C953 0.930 . S
H946 C954 0.930 . S
H947 C955 0.930 . S
H948 C958 0.930 . S
H949 C959 0.930 . S
C950 H944 0.930 . S
C950 C951 1.355 . S
C950 C952 1.415 . S
C951 C950 1.355 . S
C951 C953 1.419 . S
C952 C950 1.415 . S
C952 C957 1.425 . S
C952 C959 1.409 . S
C953 H945 0.930 . S
C953 C951 1.419 . S
C953 C954 1.362 . S
C954 H946 0.930 . S
C954 C953 1.362 . S
C954 C957 1.409 . S
C955 H947 0.930 . S
C955 C956 1.355 . S
C955 C957 1.415 . S
C956 C955 1.355 . S
C956 C958 1.419 . S
C957 C952 1.425 . S
C957 C954 1.409 . S
C957 C955 1.415 . S
C958 H948 0.930 . S
C958 C956 1.419 . S
C958 C959 1.362 . S
C959 H949 0.930 . S
C959 C952 1.409 . S
C959 C958 1.362 . S
H960 C966 0.930 . S
H961 C969 0.930 . S
H962 C970 0.930 . S
H963 C971 0.930 . S
H964 C974 0.930 . S
H965 C975 0.930 . S
C966 H960 0.930 . S
C966 C967 1.355 . S
C966 C968 1.415 . S
C967 C966 1.355 . S
C967 C969 1.419 . S
C968 C966 1.415 . S
C968 C973 1.425 . S
C968 C975 1.409 . S
C969 H961 0.930 . S
C969 C967 1.419 . S
C969 C970 1.362 . S
C970 H962 0.930 . S
C970 C969 1.362 . S
C970 C973 1.409 . S
C971 H963 0.930 . S
C971 C972 1.355 . S
C971 C973 1.415 . S
C972 C971 1.355 . S
C972 C974 1.419 . S
C973 C968 1.425 . S
C973 C970 1.409 . S
C973 C971 1.415 . S
C974 H964 0.930 . S
C974 C972 1.419 . S
C974 C975 1.362 . S
C975 H965 0.930 . S
C975 C968 1.409 . S
C975 C974 1.362 . S
H976 C982 0.930 . S
H977 C985 0.930 . S
H978 C986 0.930 . S
H979 C987 0.930 . S
H980 C990 0.930 . S
H981 C991 0.930 . S
C982 H976 0.930 . S
C982 C983 1.355 . S
C982 C984 1.415 . S
C983 C982 1.355 . S
C983 C985 1.419 . S
C984 C982 1.415 . S
C984 C989 1.425 . S
C984 C991 1.409 . S
C985 H977 0.930 . S
C985 C983 1.419 . S
C985 C986 1.362 . S
C986 H978 0.930 . S
C986 C985 1.362 . S
C986 C989 1.409 . S
C987 H979 0.930 . S
C987 C988 1.355 . S
C987 C989 1.415 . S
C988 C987 1.355 . S
C988 C990 1.419 . S
C989 C984 1.425 . S
C989 C986 1.409 . S
C989 C987 1.415 . S
C990 H980 0.930 . S
C990 C988 1.419 . S
C990 C991 1.362 . S
C991 H981 0.930 . S
C991 C984 1.409 . S
C991 C990 1.362 . S
H992 C998 0.930 . S
H993 C1001 0.930 . S
H994 C1002 0.930 . S
H995 C1003 0.930 . S
H996 C1006 0.930 . S
H997 C1007 0.930 . S
C998 H992 0.930 . S
C998 C999 1.355 . S
C998 C1000 1.415 . S
C999 C998 1.355 . S
C999 C1001 1.419 . S
C1000 C998 1.415 . S
C1000 C1005 1.425 . S
C1000 C1007 1.409 . S
C1001 H993 0.930 . S
C1001 C999 1.419 . S
C1001 C1002 1.362 . S
C1002 H994 0.930 . S
C1002 C1001 1.362 . S
C1002 C1005 1.409 . S
C1003 H995 0.930 . S
C1003 C1004 1.355 . S
C1003 C1005 1.415 . S
C1004 C1003 1.355 . S
C1004 C1006 1.419 . S
C1005 C1000 1.425 . S
C1005 C1002 1.409 . S
C1005 C1003 1.415 . S
C1006 H996 0.930 . S
C1006 C1004 1.419 . S
C1006 C1007 1.362 . S
C1007 H997 0.930 . S
C1007 C1000 1.409 . S
C1007 C1006 1.362 . S
H1008 C1014 0.930 . S
H1009 C1017 0.930 . S
H1010 C1018 0.930 . S
H1011 C1019 0.930 . S
H1012 C1022 0.930 . S
H1013 C1023 0.930 . S
C1014 H1008 0.930 . S
C1014 C1015 1.355 . S
C1014 C1016 1.415 . S
C1015 C1014 1.355 . S
C1015 C1017 1.419 . S
C1016 C1014 1.415 . S
C1016 C1021 1.425 . S
C1016 C1023 1.409 . S
C1017 H1009 0.930 . S
C1017 C1015 1.419 . S
C1017 C1018 1.362 . S
C1018 H1010 0.930 . S
C1018 C1017 1.362 . S
C1018 C1021 1.409 . S
C1019 H1011 0.930 . S
C1019 C1020 1.355 . S
C1019 C1021 1.415 . S
C1020 C1019 1.355 . S
C1020 C1022 1.419 . S
C1021 C1016 1.425 . S
C1021 C1018 1.409 . S
C1021 C1019 1.415 . S
C1022 H1012 0.930 . S
C1022 C1020 1.419 . S
C1022 C1023 1.362 . S
C1023 H1013 0.930 . S
C1023 C1016 1.409 . S
C1023 C1022 1.362 . S
H1024 C1030 0.930 . S
H1025 C1033 0.930 . S
H1026 C1034 0.930 . S
H1027 C1035 0.930 . S
H1028 C1038 0.930 . S
H1029 C1039 0.930 . S
C1030 H1024 0.930 . S
C1030 C1031 1.355 . S
C1030 C1032 1.415 . S
C1031 C1030 1.355 . S
C1031 C1033 1.419 . S
C1032 C1030 1.415 . S
C1032 C1037 1.425 . S
C1032 C1039 1.409 . S
C1033 H1025 0.930 . S
C1033 C1031 1.419 . S
C1033 C1034 1.362 . S
C1034 H1026 0.930 . S
C1034 C1033 1.362 . S
C1034 C1037 1.409 . S
C1035 H1027 0.930 . S
C1035 C1036 1.355 . S
C1035 C1037 1.415 . S
C1036 C1035 1.355 . S
C1036 C1038 1.419 . S
C1037 C1032 1.425 . S
C1037 C1034 1.409 . S
C1037 C1035 1.415 . S
C1038 H1028 0.930 . S
C1038 C1036 1.419 . S
C1038 C1039 1.362 . S
C1039 H1029 0.930 . S
C1039 C1032 1.409 . S
C1039 C1038 1.362 . S
H1040 C1046 0.930 . S
H1041 C1049 0.930 . S
H1042 C1050 0.930 . S
H1043 C1051 0.930 . S
H1044 C1054 0.930 . S
H1045 C1055 0.930 . S
C1046 H1040 0.930 . S
C1046 C1047 1.355 . S
C1046 C1048 1.415 . S
C1047 C1046 1.355 . S
C1047 C1049 1.419 . S
C1048 C1046 1.415 . S
C1048 C1053 1.425 . S
C1048 C1055 1.409 . S
C1049 H1041 0.930 . S
C1049 C1047 1.419 . S
C1049 C1050 1.362 . S
C1050 H1042 0.930 . S
C1050 C1049 1.362 . S
C1050 C1053 1.409 . S
C1051 H1043 0.930 . S
C1051 C1052 1.355 . S
C1051 C1053 1.415 . S
C1052 C1051 1.355 . S
C1052 C1054 1.419 . S
C1053 C1048 1.425 . S
C1053 C1050 1.409 . S
C1053 C1051 1.415 . S
C1054 H1044 0.930 . S
C1054 C1052 1.419 . S
C1054 C1055 1.362 . S
C1055 H1045 0.930 . S
C1055 C1048 1.409 . S
C1055 C1054 1.362 . S
H1056 C1062 0.930 . S
H1057 C1065 0.930 . S
H1058 C1066 0.930 . S
H1059 C1067 0.930 . S
H1060 C1070 0.930 . S
H1061 C1071 0.930 . S
C1062 H1056 0.930 . S
C1062 C1063 1.355 . S
C1062 C1064 1.415 . S
C1063 C1062 1.355 . S
C1063 C1065 1.419 . S
C1064 C1062 1.415 . S
C1064 C1069 1.425 . S
C1064 C1071 1.409 . S
C1065 H1057 0.930 . S
C1065 C1063 1.419 . S
C1065 C1066 1.362 . S
C1066 H1058 0.930 . S
C1066 C1065 1.362 . S
C1066 C1069 1.409 . S
C1067 H1059 0.930 . S
C1067 C1068 1.355 . S
C1067 C1069 1.415 . S
C1068 C1067 1.355 . S
C1068 C1070 1.419 . S
C1069 C1064 1.425 . S
C1069 C1066 1.409 . S
C1069 C1067 1.415 . S
C1070 H1060 0.930 . S
C1070 C1068 1.419 . S
C1070 C1071 1.362 . S
C1071 H1061 0.930 . S
C1071 C1064 1.409 . S
C1071 C1070 1.362 . S
H1072 C1078 0.930 . S
H1073 C1081 0.930 . S
H1074 C1082 0.930 . S
H1075 C1083 0.930 . S
H1076 C1086 0.930 . S
H1077 C1087 0.930 . S
C1078 H1072 0.930 . S
C1078 C1079 1.355 . S
C1078 C1080 1.415 . S
C1079 C1078 1.355 . S
C1079 C1081 1.419 . S
C1080 C1078 1.415 . S
C1080 C1085 1.425 . S
C1080 C1087 1.409 . S
C1081 H1073 0.930 . S
C1081 C1079 1.419 . S
C1081 C1082 1.362 . S
C1082 H1074 0.930 . S
C1082 C1081 1.362 . S
C1082 C1085 1.409 . S
C1083 H1075 0.930 . S
C1083 C1084 1.355 . S
C1083 C1085 1.415 . S
C1084 C1083 1.355 . S
C1084 C1086 1.419 . S
C1085 C1080 1.425 . S
C1085 C1082 1.409 . S
C1085 C1083 1.415 . S
C1086 H1076 0.930 . S
C1086 C1084 1.419 . S
C1086 C1087 1.362 . S
C1087 H1077 0.930 . S
C1087 C1080 1.409 . S
C1087 C1086 1.362 . S
H1088 C1094 0.930 . S
H1089 C1097 0.930 . S
H1090 C1098 0.930 . S
H1091 C1099 0.930 . S
H1092 C1102 0.930 . S
H1093 C1103 0.930 . S
C1094 H1088 0.930 . S
C1094 C1095 1.355 . S
C1094 C1096 1.415 . S
C1095 C1094 1.355 . S
C1095 C1097 1.419 . S
C1096 C1094 1.415 . S
C1096 C1101 1.425 . S
C1096 C1103 1.409 . S
C1097 H1089 0.930 . S
C1097 C1095 1.419 . S
C1097 C1098 1.362 . S
C1098 H1090 0.930 . S
C1098 C1097 1.362 . S
C1098 C1101 1.409 . S
C1099 H1091 0.930 . S
C1099 C1100 1.355 . S
C1099 C1101 1.415 . S
C1100 C1099 1.355 . S
C1100 C1102 1.419 . S
C1101 C1096 1.425 . S
C1101 C1098 1.409 . S
C1101 C1099 1.415 . S
C1102 H1092 0.930 . S
C1102 C1100 1.419 . S
C1102 C1103 1.362 . S
C1103 H1093 0.930 . S
C1103 C1096 1.409 . S
C1103 C1102 1.362 . S
H1104 C1110 0.930 . S
H1105 C1113 0.930 . S
H1106 C1114 0.930 . S
H1107 C1115 0.930 . S
H1108 C1118 0.930 . S
H1109 C1119 0.930 . S
C1110 H1104 0.930 . S
C1110 C1111 1.355 . S
C1110 C1112 1.415 . S
C1111 C1110 1.355 . S
C1111 C1113 1.419 . S
C1112 C1110 1.415 . S
C1112 C1117 1.425 . S
C1112 C1119 1.409 . S
C1113 H1105 0.930 . S
C1113 C1111 1.419 . S
C1113 C1114 1.362 . S
C1114 H1106 0.930 . S
C1114 C1113 1.362 . S
C1114 C1117 1.409 . S
C1115 H1107 0.930 . S
C1115 C1116 1.355 . S
C1115 C1117 1.415 . S
C1116 C1115 1.355 . S
C1116 C1118 1.419 . S
C1117 C1112 1.425 . S
C1117 C1114 1.409 . S
C1117 C1115 1.415 . S
C1118 H1108 0.930 . S
C1118 C1116 1.419 . S
C1118 C1119 1.362 . S
C1119 H1109 0.930 . S
C1119 C1112 1.409 . S
C1119 C1118 1.362 . S
H1120 C1126 0.930 . S
H1121 C1129 0.930 . S
H1122 C1130 0.930 . S
H1123 C1131 0.930 . S
H1124 C1134 0.930 . S
H1125 C1135 0.930 . S
C1126 H1120 0.930 . S
C1126 C1127 1.355 . S
C1126 C1128 1.415 . S
C1127 C1126 1.355 . S
C1127 C1129 1.419 . S
C1128 C1126 1.415 . S
C1128 C1133 1.425 . S
C1128 C1135 1.409 . S
C1129 H1121 0.930 . S
C1129 C1127 1.419 . S
C1129 C1130 1.362 . S
C1130 H1122 0.930 . S
C1130 C1129 1.362 . S
C1130 C1133 1.409 . S
C1131 H1123 0.930 . S
C1131 C1132 1.355 . S
C1131 C1133 1.415 . S
C1132 C1131 1.355 . S
C1132 C1134 1.419 . S
C1133 C1128 1.425 . S
C1133 C1130 1.409 . S
C1133 C1131 1.415 . S
C1134 H1124 0.930 . S
C1134 C1132 1.419 . S
C1134 C1135 1.362 . S
C1135 H1125 0.930 . S
C1135 C1128 1.409 . S
C1135 C1134 1.362 . S
H1136 C1142 0.930 . S
H1137 C1145 0.930 . S
H1138 C1146 0.930 . S
H1139 C1147 0.930 . S
H1140 C1150 0.930 . S
H1141 C1151 0.930 . S
C1142 H1136 0.930 . S
C1142 C1143 1.355 . S
C1142 C1144 1.415 . S
C1143 C1142 1.355 . S
C1143 C1145 1.419 . S
C1144 C1142 1.415 . S
C1144 C1149 1.425 . S
C1144 C1151 1.409 . S
C1145 H1137 0.930 . S
C1145 C1143 1.419 . S
C1145 C1146 1.362 . S
C1146 H1138 0.930 . S
C1146 C1145 1.362 . S
C1146 C1149 1.409 . S
C1147 H1139 0.930 . S
C1147 C1148 1.355 . S
C1147 C1149 1.415 . S
C1148 C1147 1.355 . S
C1148 C1150 1.419 . S
C1149 C1144 1.425 . S
C1149 C1146 1.409 . S
C1149 C1147 1.415 . S
C1150 H1140 0.930 . S
C1150 C1148 1.419 . S
C1150 C1151 1.362 . S
C1151 H1141 0.930 . S
C1151 C1144 1.409 . S
C1151 C1150 1.362 . S
H1152 C1158 0.930 . S
H1153 C1161 0.930 . S
H1154 C1162 0.930 . S
H1155 C1163 0.930 . S
H1156 C1166 0.930 . S
H1157 C1167 0.930 . S
C1158 H1152 0.930 . S
C1158 C1159 1.355 . S
C1158 C1160 1.415 . S
C1159 C1158 1.355 . S
C1159 C1161 1.419 . S
C1160 C1158 1.415 . S
C1160 C1165 1.425 . S
C1160 C1167 1.409 . S
C1161 H1153 0.930 . S
C1161 C1159 1.419 . S
C1161 C1162 1.362 . S
C1162 H1154 0.930 . S
C1162 C1161 1.362 . S
C1162 C1165 1.409 . S
C1163 H1155 0.930 . S
C1163 C1164 1.355 . S
C1163 C1165 1.415 . S
C1164 C1163 1.355 . S
C1164 C1166 1.419 . S
C1165 C1160 1.425 . S
C1165 C1162 1.409 . S
C1165 C1163 1.415 . S
C1166 H1156 0.930 . S
C1166 C1164 1.419 . S
C1166 C1167 1.362 . S
C1167 H1157 0.930 . S
C1167 C1160 1.409 . S
C1167 C1166 1.362 . S
H1168 C1174 0.930 . S
H1169 C1177 0.930 . S
H1170 C1178 0.930 . S
H1171 C1179 0.930 . S
H1172 C1182 0.930 . S
H1173 C1183 0.930 . S
C1174 H1168 0.930 . S
C1174 C1175 1.355 . S
C1174 C1176 1.415 . S
C1175 C1174 1.355 . S
C1175 C1177 1.419 . S
C1176 C1174 1.415 . S
C1176 C1181 1.425 . S
C1176 C1183 1.409 . S
C1177 H1169 0.930 . S
C1177 C1175 1.419 . S
C1177 C1178 1.362 . S
C1178 H1170 0.930 . S
C1178 C1177 1.362 . S
C1178 C1181 1.409 . S
C1179 H1171 0.930 . S
C1179 C1180 1.355 . S
C1179 C1181 1.415 . S
C1180 C1179 1.355 . S
C1180 C1182 1.419 . S
C1181 C1176 1.425 . S
C1181 C1178 1.409 . S
C1181 C1179 1.415 . S
C1182 H1172 0.930 . S
C1182 C1180 1.419 . S
C1182 C1183 1.362 . S
C1183 H1173 0.930 . S
C1183 C1176 1.409 . S
C1183 C1182 1.362 . S
C551 C33 1.147 1_556 S
C556 C543 1.150 1_554 S
C567 C441 1.158 . S
C572 C67 1.144 . S
C583 C475 1.143 . S
C588 C101 1.159 . S
C599 C509 1.144 . S
C604 C135 1.158 . S
C615 C169 1.138 . S
C620 C339 1.161 . S
C631 C373 1.161 . S
C636 C203 1.138 . S
C647 C407 1.142 . S
C652 C237 1.155 . S
C663 C271 1.138 . S
C668 C305 1.161 . S
C679 C213 0.677 . S
C684 C9 0.646 . S
C695 C247 0.642 . S
C700 C43 0.680 . S
C711 C145 0.573 . S
C716 C77 0.615 . S
C727 C179 0.688 . S
C732 C111 0.576 . S
C743 C156 2.250 . S
C748 C88 2.249 . S
C759 C122 2.251 . S
C764 C190 2.248 . S
C775 C224 2.253 . S
C780 C20 2.246 . S
C791 C54 2.253 . S
C796 C258 2.246 . S
C807 C281 0.685 . S
C812 C485 0.570 . S
C823 C519 0.569 . S
C828 C315 0.683 . S
C839 C417 0.647 . S
C844 C349 0.677 . S
C855 C451 0.566 . S
C860 C383 0.681 . S
C871 C428 2.252 . S
C876 C360 2.246 . S
C887 C462 2.248 . S
C892 C394 2.252 . S
C903 C292 2.246 . S
C908 C496 2.253 . S
C919 C326 2.246 . S
C924 C530 2.253 . S
C935 C172 2.821 . S
C940 C2 2.818 . S
C951 C36 2.821 . S
C956 C206 2.818 . S
C967 C240 2.819 . S
C972 C70 2.820 . S
C983 C104 2.820 . S
C988 C138 2.819 . S
C999 C73 0.960 . S
C1004 C243 0.886 . S
C1015 C141 0.967 . S
C1020 C107 0.897 . S
C1031 C175 0.931 . S
C1036 C5 0.899 . S
C1047 C39 0.960 . S
C1052 C209 0.917 . S
C1063 C444 2.819 . S
C1068 C274 2.820 . S
C1079 C308 2.820 . S
C1084 C478 2.819 . S
C1095 C512 2.817 . S
C1100 C342 2.822 . S
C1111 C376 2.819 . S
C1116 C410 2.820 . S
C1127 C515 0.893 . S
C1132 C345 0.940 . S
C1143 C379 0.964 . S
C1148 C413 0.888 . S
C1159 C447 0.886 . S
C1164 C277 0.959 . S
C1175 C311 0.900 . S
C1180 C481 0.929 . S
