# Generated by pormake.
# Topology ukg, (4)-cn, num edge types: 1
# Building blocks:
#     Node 0, Type 0, BuildingBlock: KOZSID_clean_sbu_0, # of connection points: 4
#     Node 1, Type 0, BuildingBlock: KOZSID_clean_sbu_0, # of connection points: 4
#     Node 2, Type 0, BuildingBlock: KOZSID_clean_sbu_0, # of connection points: 4
#     Node 3, Type 0, BuildingBlock: KOZSID_clean_sbu_0, # of connection points: 4
#     Node 4, Type 0, BuildingBlock: KOZSID_clean_sbu_0, # of connection points: 4
#     Node 5, Type 0, BuildingBlock: KOZSID_clean_sbu_0, # of connection points: 4
#     Node 6, Type 0, BuildingBlock: KOZSID_clean_sbu_0, # of connection points: 4
#     Node 7, Type 0, BuildingBlock: KOZSID_clean_sbu_0, # of connection points: 4
#     Edge 8, Type (0, 0), BuildingBlock: XIVTED_clean_linker_0, # of connection points: 2
#     Edge 9, Type (0, 0), BuildingBlock: XIVTED_clean_linker_0, # of connection points: 2
#     Edge 10, Type (0, 0), BuildingBlock: XIVTED_clean_linker_0, # of connection points: 2
#     Edge 11, Type (0, 0), BuildingBlock: XIVTED_clean_linker_0, # of connection points: 2
#     Edge 12, Type (0, 0), BuildingBlock: XIVTED_clean_linker_0, # of connection points: 2
#     Edge 13, Type (0, 0), BuildingBlock: XIVTED_clean_linker_0, # of connection points: 2
#     Edge 14, Type (0, 0), BuildingBlock: XIVTED_clean_linker_0, # of connection points: 2
#     Edge 15, Type (0, 0), BuildingBlock: XIVTED_clean_linker_0, # of connection points: 2
#     Edge 16, Type (0, 0), BuildingBlock: XIVTED_clean_linker_0, # of connection points: 2
#     Edge 17, Type (0, 0), BuildingBlock: XIVTED_clean_linker_0, # of connection points: 2
#     Edge 18, Type (0, 0), BuildingBlock: XIVTED_clean_linker_0, # of connection points: 2
#     Edge 19, Type (0, 0), BuildingBlock: XIVTED_clean_linker_0, # of connection points: 2
#     Edge 20, Type (0, 0), BuildingBlock: XIVTED_clean_linker_0, # of connection points: 2
#     Edge 21, Type (0, 0), BuildingBlock: XIVTED_clean_linker_0, # of connection points: 2
#     Edge 22, Type (0, 0), BuildingBlock: XIVTED_clean_linker_0, # of connection points: 2
#     Edge 23, Type (0, 0), BuildingBlock: XIVTED_clean_linker_0, # of connection points: 2
# Relax obj value: 0.107
# Max RMSD: 0.261
# Mean RMSD: 0.246
data_MOF--net-ukg--node1-KOZSID_clean_sbu_0--edge1-XIVTED_clean_linker_0
_symmetry_space_group_name_H-M    P1
_symmetry_Int_Tables_number       1
_symmetry_cell_setting            triclinic
loop_
_symmetry_equiv_pos_as_xyz
'x, y, z'
_cell_length_a     36.172772
_cell_length_b     36.20842
_cell_length_c     49.322124
_cell_angle_alpha  90.502456
_cell_angle_beta   89.356994
_cell_angle_gamma 89.96671
loop_
_atom_site_label
_atom_site_type_symbol
_atom_site_fract_x
_atom_site_fract_y
_atom_site_fract_z
_atom_type_partial_charge
C0 C 0.95371 0.63445 0.16626 0.0
C1 C 0.9218 0.65303 0.15899 0.0
C2 C 0.93262 0.6869 0.14975 0.0
C3 C 0.97038 0.6872 0.15192 0.0
N4 N 0.98433 0.65544 0.16153 0.0
Co5 Co 0.03764 0.64617 0.16962 0.0
N6 N 0.05428 0.69165 0.15002 0.0
C7 C 0.03209 0.7192 0.14184 0.0
C8 C 0.05086 0.74777 0.12988 0.0
C9 C 0.08738 0.73804 0.13089 0.0
C10 C 0.08884 0.70391 0.14342 0.0
N11 N 0.09084 0.63691 0.17795 0.0
C12 C 0.12213 0.65341 0.16854 0.0
C13 C 0.15353 0.63701 0.17909 0.0
C14 C 0.14165 0.61016 0.1963 0.0
C15 C 0.10386 0.6113 0.19509 0.0
N16 N 0.02144 0.60059 0.1891 0.0
C17 C 0.04273 0.57903 0.2047 0.0
C18 C 0.02497 0.54828 0.21421 0.0
C19 C 0.98994 0.55069 0.20445 0.0
C20 C 0.98819 0.58321 0.18976 0.0
N21 N 0.04241 0.61728 0.13559 0.0
C22 C 0.04137 0.57437 0.08735 0.0
C23 C 0.05647 0.56048 0.11138 0.0
C24 C 0.05702 0.58239 0.13507 0.0
C25 C 0.02837 0.6109 0.088 0.0
C26 C 0.02882 0.63151 0.11211 0.0
N27 N 0.0317 0.67572 0.20329 0.0
C28 C 0.99049 0.69734 0.23892 0.0
C29 C 0.01133 0.72957 0.24211 0.0
C30 C 0.04453 0.73256 0.22735 0.0
C31 C 0.05461 0.70496 0.20854 0.0
C32 C 1.00108 0.67091 0.21947 0.0
H33 H 0.0799 0.70856 0.1972 0.0
H34 H 0.98296 0.64783 0.21653 0.0
H35 H 0.0685 0.57061 0.15306 0.0
H36 H 0.01736 0.65885 0.11166 0.0
C37 C 0.99371 0.71586 0.1438 0.0
C38 C 0.95319 0.59894 0.1805 0.0
C39 C 0.12367 0.6866 0.15168 0.0
C40 C 0.08028 0.58594 0.20723 0.0
H41 H 0.89354 0.64356 0.16092 0.0
H42 H 0.91501 0.70876 0.14244 0.0
H43 H 0.03938 0.77266 0.12136 0.0
H44 H 0.11039 0.75467 0.12393 0.0
H45 H 0.18212 0.64407 0.17506 0.0
H46 H 0.15857 0.59141 0.20781 0.0
H47 H 0.03633 0.52635 0.22636 0.0
H48 H 0.96781 0.5313 0.20841 0.0
H49 H 0.06685 0.5325 0.11228 0.0
H50 H 0.0175 0.62376 0.07004 0.0
H51 H 0.96476 0.69367 0.25003 0.0
H52 H 0.06199 0.75665 0.22967 0.0
C53 C 0.41034 0.50969 0.61459 0.0
C54 C 0.441 0.53247 0.61715 0.0
C55 C 0.43501 0.55409 0.63977 0.0
C56 C 0.40133 0.54319 0.64999 0.0
N57 N 0.38599 0.51577 0.63533 0.0
Co58 Co 0.33797 0.49138 0.64366 0.0
N59 N 0.33772 0.50962 0.68172 0.0
C60 C 0.35821 0.53766 0.69141 0.0
C61 C 0.3519 0.54438 0.71852 0.0
C62 C 0.32561 0.51911 0.72628 0.0
C63 C 0.31736 0.49828 0.70339 0.0
N64 N 0.28977 0.46739 0.65161 0.0
C65 C 0.27369 0.45911 0.67573 0.0
C66 C 0.23996 0.44155 0.6719 0.0
C67 C 0.2346 0.43952 0.64448 0.0
C68 C 0.26529 0.45563 0.63308 0.0
N69 N 0.33813 0.47297 0.60566 0.0
C70 C 0.30837 0.461 0.592 0.0
C71 C 0.31635 0.45124 0.56565 0.0
C72 C 0.35344 0.45765 0.56244 0.0
C73 C 0.36613 0.47088 0.58718 0.0
N74 N 0.36412 0.44684 0.65552 0.0
C75 C 0.39507 0.38576 0.68213 0.0
C76 C 0.3645 0.38149 0.66495 0.0
C77 C 0.34989 0.41224 0.65149 0.0
C78 C 0.41131 0.42089 0.68365 0.0
C79 C 0.39514 0.45085 0.67081 0.0
N80 N 0.3119 0.53659 0.63271 0.0
C81 C 0.30976 0.5922 0.60608 0.0
C82 C 0.28155 0.60679 0.62277 0.0
C83 C 0.26771 0.58459 0.64368 0.0
C84 C 0.28324 0.54986 0.64834 0.0
C85 C 0.3242 0.55697 0.61116 0.0
H86 H 0.2729 0.53441 0.66538 0.0
H87 H 0.34622 0.54679 0.5982 0.0
H88 H 0.32604 0.40827 0.63885 0.0
H89 H 0.40707 0.4776 0.67441 0.0
C90 C 0.38666 0.55292 0.67553 0.0
C91 C 0.40397 0.48435 0.59151 0.0
C92 C 0.28796 0.47025 0.70237 0.0
C93 C 0.27495 0.45437 0.60558 0.0
H94 H 0.46525 0.53345 0.60416 0.0
H95 H 0.45378 0.57416 0.64839 0.0
H96 H 0.36556 0.56444 0.73135 0.0
H97 H 0.31362 0.51652 0.74638 0.0
H98 H 0.22104 0.43144 0.68727 0.0
H99 H 0.21175 0.42651 0.63412 0.0
H100 H 0.29768 0.43991 0.55073 0.0
H101 H 0.36915 0.45362 0.54385 0.0
H102 H 0.35087 0.35508 0.66269 0.0
H103 H 0.43591 0.42585 0.6954 0.0
H104 H 0.32094 0.60807 0.58939 0.0
H105 H 0.24609 0.59463 0.65721 0.0
C106 C 0.54595 0.85707 0.16454 0.0
C107 C 0.57734 0.83968 0.15418 0.0
C108 C 0.5666 0.80538 0.14546 0.0
C109 C 0.52934 0.80376 0.15078 0.0
N110 N 0.51568 0.83509 0.16193 0.0
Co111 Co 0.46315 0.84341 0.17323 0.0
N112 N 0.44562 0.79865 0.15306 0.0
C113 C 0.46738 0.77122 0.14341 0.0
C114 C 0.44799 0.74316 0.13128 0.0
C115 C 0.4116 0.7532 0.13367 0.0
C116 C 0.41079 0.78702 0.14713 0.0
N117 N 0.41063 0.85174 0.18461 0.0
C118 C 0.37881 0.83632 0.17547 0.0
C119 C 0.34812 0.8518 0.18844 0.0
C120 C 0.36111 0.87668 0.20695 0.0
C121 C 0.3988 0.87549 0.20403 0.0
N122 N 0.48033 0.88814 0.19354 0.0
C123 C 0.46052 0.90711 0.21233 0.0
C124 C 0.47916 0.93635 0.22342 0.0
C125 C 0.51318 0.93571 0.21119 0.0
C126 C 0.51339 0.90595 0.19315 0.0
N127 N 0.45599 0.8736 0.14067 0.0
C128 C 0.45542 0.91907 0.0946 0.0
C129 C 0.44197 0.93198 0.11977 0.0
C130 C 0.44207 0.90871 0.14243 0.0
C131 C 0.46781 0.88248 0.09289 0.0
C132 C 0.46804 0.86045 0.11602 0.0
N133 N 0.47164 0.81275 0.20545 0.0
C134 C 0.51513 0.79126 0.23849 0.0
C135 C 0.49386 0.75968 0.24336 0.0
C136 C 0.45941 0.75699 0.23061 0.0
C137 C 0.44871 0.78396 0.21189 0.0
C138 C 0.50361 0.81726 0.21967 0.0
H139 H 0.42276 0.7804 0.20168 0.0
H140 H 0.52189 0.83995 0.21573 0.0
H141 H 0.43179 0.91952 0.16148 0.0
H142 H 0.47922 0.83306 0.11395 0.0
C143 C 0.50583 0.77484 0.14341 0.0
C144 C 0.54702 0.89267 0.17919 0.0
C145 C 0.37638 0.80497 0.15643 0.0
C146 C 0.42327 0.89952 0.21665 0.0
H147 H 0.60527 0.85036 0.15359 0.0
H148 H 0.58385 0.7843 0.1361 0.0
H149 H 0.459 0.71858 0.12149 0.0
H150 H 0.38827 0.73707 0.12681 0.0
H151 H 0.31928 0.84552 0.18512 0.0
H152 H 0.34494 0.89432 0.22037 0.0
H153 H 0.46907 0.95612 0.23834 0.0
H154 H 0.53553 0.95449 0.21575 0.0
H155 H 0.43163 0.95993 0.122 0.0
H156 H 0.47873 0.87128 0.07401 0.0
H157 H 0.54134 0.79537 0.24848 0.0
H158 H 0.4417 0.73332 0.23393 0.0
C159 C 0.06628 0.97633 0.61639 0.0
C160 C 0.03333 0.95692 0.61896 0.0
C161 C 0.03589 0.93633 0.6421 0.0
C162 C 0.06994 0.94448 0.65259 0.0
N163 N 0.08875 0.96922 0.6376 0.0
Co164 Co 0.13847 0.98918 0.64604 0.0
N165 N 0.1349 0.97348 0.68438 0.0
C166 C 0.1113 0.94822 0.69439 0.0
C167 C 0.11445 0.94412 0.72193 0.0
C168 C 0.14183 0.96819 0.72959 0.0
C169 C 0.15414 0.98552 0.70618 0.0
N170 N 0.18816 0.00894 0.65422 0.0
C171 C 0.20317 0.01781 0.67842 0.0
C172 C 0.2393 0.0301 0.67503 0.0
C173 C 0.24686 0.0289 0.64771 0.0
C174 C 0.21514 0.01586 0.63598 0.0
N175 N 0.14233 1.00485 0.60772 0.0
C176 C 0.17401 0.01239 0.59429 0.0
C177 C 0.16852 0.02108 0.56761 0.0
C178 C 0.13108 0.01858 0.56399 0.0
C179 C 0.11571 0.00858 0.58881 0.0
N180 N 0.11638 0.03683 0.65645 0.0
C181 C 0.0912 0.10348 0.67985 0.0
C182 C 0.12142 0.10295 0.66169 0.0
C183 C 0.1333 0.06942 0.64999 0.0
C184 C 0.07289 0.07009 0.68483 0.0
C185 C 0.08583 0.03731 0.67303 0.0
N186 N 0.16068 0.94103 0.63642 0.0
C187 C 0.16153 0.88489 0.60958 0.0
C188 C 0.18856 0.86949 0.62629 0.0
C189 C 0.20191 0.89116 0.64771 0.0
C190 C 0.18756 0.92652 0.6525 0.0
C191 C 0.14828 0.92076 0.6148 0.0
H192 H 0.19772 0.94178 0.66973 0.0
H193 H 0.12746 0.93178 0.60163 0.0
H194 H 0.15705 0.06964 0.63655 0.0
H195 H 0.07203 0.01207 0.67844 0.0
C196 C 0.08227 0.93485 0.67846 0.0
C197 C 0.07647 0.99926 0.59287 0.0
C198 C 0.18509 0.01191 0.70484 0.0
C199 C 0.20735 0.01602 0.60824 0.0
H200 H 0.00983 0.95747 0.60561 0.0
H201 H 0.01475 0.91878 0.65082 0.0
H202 H 0.09757 0.92715 0.73511 0.0
H203 H 0.1513 0.9726 0.75009 0.0
H204 H 0.25831 0.03871 0.69064 0.0
H205 H 0.27197 0.03781 0.63759 0.0
H206 H 0.18912 0.02913 0.55272 0.0
H207 H 0.11688 0.02292 0.54509 0.0
H208 H 0.13613 0.12814 0.65687 0.0
H209 H 0.04969 0.06883 0.69886 0.0
H210 H 0.15067 0.86936 0.59258 0.0
H211 H 0.22249 0.88041 0.66135 0.0
C212 C 1.00194 0.36154 0.9339 0.0
C213 C 1.00546 0.34471 0.95899 0.0
C214 C 0.01062 0.3077 0.95412 0.0
C215 C 0.00852 0.30363 0.92653 0.0
N216 N 1.00239 0.33572 0.91379 0.0
Co217 Co 0.98695 0.33967 0.87558 0.0
N218 N 0.01028 0.29186 0.86597 0.0
C219 C 0.01803 0.26479 0.88354 0.0
C220 C 0.03286 0.23406 0.8711 0.0
C221 C 0.03415 0.24229 0.844 0.0
C222 C 0.01999 0.27779 0.84139 0.0
N223 N 0.97145 0.3434 0.83738 0.0
C224 C 0.98456 0.32548 0.81498 0.0
C225 C 0.96561 0.33669 0.79214 0.0
C226 C 0.93924 0.36162 0.80085 0.0
C227 C 0.94371 0.36458 0.82841 0.0
N228 N 0.96276 0.38707 0.88566 0.0
C229 C 0.93345 0.401 0.8727 0.0
C230 C 0.9161 0.42853 0.88722 0.0
C231 C 0.93601 0.43213 0.91066 0.0
C232 C 0.96581 0.40788 0.9086 0.0
N233 N 0.03271 0.36577 0.86593 0.0
C234 C 0.09496 0.39545 0.83918 0.0
C235 C 0.06074 0.41377 0.83927 0.0
C236 C 0.03011 0.39826 0.85219 0.0
C237 C 0.09797 0.36369 0.85528 0.0
C238 C 0.06666 0.34972 0.86889 0.0
N239 N 0.94042 0.31367 0.88431 0.0
C240 C 0.89205 0.27188 0.87049 0.0
C241 C 0.86959 0.2831 0.89241 0.0
C242 C 0.8841 0.30886 0.91082 0.0
C243 C 0.91955 0.32348 0.90657 0.0
C244 C 0.92715 0.28742 0.86681 0.0
H245 H 0.92953 0.34356 0.92097 0.0
H246 H 0.94305 0.27895 0.84922 0.0
H247 H 1.0038 0.41162 0.84957 0.0
H248 H 0.06946 0.32469 0.88043 0.0
C249 C 0.01509 0.27114 0.91157 0.0
C250 C 0.99367 0.40112 0.9299 0.0
C251 C 0.01219 0.29543 0.81529 0.0
C252 C 0.92553 0.38949 0.84608 0.0
H253 H 1.00336 0.35751 0.97884 0.0
H254 H 0.01511 0.28635 0.96896 0.0
H255 H 0.04222 0.20894 0.88058 0.0
H256 H 0.04354 0.22383 0.82797 0.0
H257 H 0.96985 0.32735 0.77144 0.0
H258 H 0.9197 0.37633 0.78847 0.0
H259 H 0.89156 0.44371 0.88172 0.0
H260 H 0.92769 0.44903 0.92782 0.0
H261 H 0.05693 0.43932 0.82843 0.0
H262 H 0.12369 0.34853 0.85634 0.0
H263 H 0.88211 0.25219 0.85561 0.0
H264 H 0.86811 0.31788 0.92836 0.0
C265 C 0.58867 0.50833 0.3285 0.0
C266 C 0.55868 0.50754 0.31108 0.0
C267 C 0.55742 0.47291 0.30004 0.0
C268 C 0.58654 0.4545 0.31117 0.0
N269 N 0.60604 0.47504 0.32887 0.0
Co270 Co 0.65057 0.45833 0.34909 0.0
N271 N 0.64176 0.40546 0.33918 0.0
C272 C 0.61783 0.39302 0.32045 0.0
C273 C 0.6166 0.35531 0.31827 0.0
C274 C 0.64169 0.3429 0.33651 0.0
C275 C 0.65724 0.37394 0.34861 0.0
N276 N 0.69489 0.44121 0.3695 0.0
C277 C 0.70636 0.40654 0.37596 0.0
C278 C 0.73987 0.40758 0.38938 0.0
C279 C 0.74998 0.44394 0.39112 0.0
C280 C 0.72224 0.46306 0.37869 0.0
N281 N 0.6596 0.51126 0.35864 0.0
C282 C 0.69103 0.525 0.36911 0.0
C283 C 0.68996 0.5625 0.3732 0.0
C284 C 0.65594 0.5733 0.36436 0.0
C285 C 0.63816 0.54169 0.35518 0.0
N286 N 0.61995 0.45317 0.38216 0.0
C287 C 0.57372 0.45514 0.42854 0.0
C288 C 0.60934 0.47016 0.42904 0.0
C289 C 0.63195 0.4686 0.40591 0.0
C290 C 0.56234 0.43747 0.40459 0.0
C291 C 0.58577 0.43696 0.38161 0.0
N292 N 0.68173 0.46484 0.31631 0.0
C293 C 0.73898 0.45197 0.29238 0.0
C294 C 0.73591 0.48491 0.27781 0.0
C295 C 0.70374 0.5059 0.28132 0.0
C296 C 0.67723 0.49555 0.30065 0.0
C297 C 0.71124 0.44205 0.31106 0.0
H298 H 0.65424 0.51388 0.30386 0.0
H299 H 0.71476 0.41688 0.3222 0.0
H300 H 0.65887 0.48093 0.4072 0.0
H301 H 0.57577 0.42433 0.36325 0.0
C302 C 0.5938 0.41707 0.30771 0.0
C303 C 0.60264 0.54252 0.34094 0.0
C304 C 0.68893 0.37195 0.3669 0.0
C305 C 0.7193 0.50146 0.37735 0.0
H306 H 0.54018 0.52988 0.30613 0.0
H307 H 0.53739 0.4623 0.28581 0.0
H308 H 0.5989 0.33876 0.30544 0.0
H309 H 0.6482 0.31421 0.34017 0.0
H310 H 0.75583 0.38438 0.3965 0.0
H311 H 0.77453 0.45509 0.40048 0.0
H312 H 0.71117 0.57986 0.38191 0.0
H313 H 0.64566 0.60138 0.36414 0.0
H314 H 0.61967 0.48343 0.44721 0.0
H315 H 0.53503 0.42538 0.40327 0.0
H316 H 0.76314 0.43452 0.28989 0.0
H317 H 0.70014 0.53153 0.27048 0.0
C318 C 0.47073 0.11768 0.93198 0.0
C319 C 0.45459 0.13151 0.95569 0.0
C320 C 0.44454 0.16701 0.95062 0.0
C321 C 0.45456 0.17275 0.92416 0.0
N322 N 0.4707 0.14323 0.91194 0.0
Co323 Co 0.48562 0.13903 0.87268 0.0
N324 N 0.46915 0.19086 0.86519 0.0
C325 C 0.45642 0.21576 0.88363 0.0
C326 C 0.44632 0.24882 0.87271 0.0
C327 C 0.45283 0.24488 0.8456 0.0
C328 C 0.46686 0.20947 0.8415 0.0
N329 N 0.49851 0.13408 0.83308 0.0
C330 C 0.49203 0.15735 0.81215 0.0
C331 C 0.50315 0.14197 0.78752 0.0
C332 C 0.5166 0.1076 0.79298 0.0
C333 C 0.51293 0.10391 0.82052 0.0
N334 N 0.50365 0.08775 0.88059 0.0
C335 C 0.5211 0.06462 0.86295 0.0
C336 C 0.53125 0.0317 0.87419 0.0
C337 C 0.51956 0.03384 0.90058 0.0
C338 C 0.50252 0.06796 0.90391 0.0
N339 N 0.43554 0.11986 0.86395 0.0
C340 C 0.36737 0.09721 0.84188 0.0
C341 C 0.39854 0.07449 0.84035 0.0
C342 C 0.43186 0.08614 0.85143 0.0
C343 C 0.37035 0.13062 0.85624 0.0
C344 C 0.40437 0.14109 0.86743 0.0
N345 N 0.5362 0.15829 0.88076 0.0
C346 C 0.60207 0.15801 0.87116 0.0
C347 C 0.60846 0.1856 0.89048 0.0
C348 C 0.57777 0.19948 0.90489 0.0
C349 C 0.54219 0.18543 0.89984 0.0
C350 C 0.56636 0.14495 0.86672 0.0
H351 H 0.51997 0.19698 0.91157 0.0
H352 H 0.56408 0.12417 0.85157 0.0
H353 H 0.45461 0.06781 0.84859 0.0
H354 H 0.40513 0.16689 0.87816 0.0
C355 C 0.44939 0.20559 0.9103 0.0
C356 C 0.48527 0.08004 0.92951 0.0
C357 C 0.47577 0.19425 0.81463 0.0
C358 C 0.52358 0.07295 0.83533 0.0
H359 H 0.45009 0.11744 0.97468 0.0
H360 H 0.43113 0.18624 0.96449 0.0
H361 H 0.43396 0.27234 0.88305 0.0
H362 H 0.44664 0.26546 0.83055 0.0
H363 H 0.50163 0.15431 0.76766 0.0
H364 H 0.52765 0.08763 0.77857 0.0
H365 H 0.54458 0.00845 0.86419 0.0
H366 H 0.52271 0.01246 0.91557 0.0
H367 H 0.3979 0.04842 0.82943 0.0
H368 H 0.34673 0.14882 0.85853 0.0
H369 H 0.62454 0.14675 0.85895 0.0
H370 H 0.58116 0.22075 0.92023 0.0
C371 C 0.91102 0.98392 0.32778 0.0
C372 C 0.94417 0.98591 0.31335 0.0
C373 C 0.94638 0.02074 0.30313 0.0
C374 C 0.91488 0.03816 0.31214 0.0
N375 N 0.89304 0.01685 0.32784 0.0
Co376 Co 0.84647 0.03271 0.34687 0.0
N377 N 0.85528 0.08582 0.33805 0.0
C378 C 0.88095 0.09882 0.32054 0.0
C379 C 0.88178 0.13656 0.31908 0.0
C380 C 0.85467 0.1484 0.3365 0.0
C381 C 0.8384 0.11702 0.34743 0.0
N382 N 0.80025 0.04904 0.36626 0.0
C383 C 0.78774 0.08349 0.37299 0.0
C384 C 0.75325 0.08186 0.38551 0.0
C385 C 0.74359 0.04534 0.38642 0.0
C386 C 0.77258 0.02672 0.37442 0.0
N387 N 0.83746 0.97943 0.35522 0.0
C388 C 0.8053 0.96526 0.36445 0.0
C389 C 0.80589 0.92756 0.36682 0.0
C390 C 0.84038 0.91703 0.35811 0.0
C391 C 0.85904 0.94904 0.35093 0.0
N392 N 0.87419 0.03809 0.38088 0.0
C393 C 0.91691 0.03612 0.42831 0.0
C394 C 0.88154 0.02049 0.42762 0.0
C395 C 0.86069 0.02201 0.40396 0.0
C396 C 0.92969 0.05447 0.40507 0.0
C397 C 0.908 0.05506 0.3816 0.0
N398 N 0.81817 0.02599 0.31314 0.0
C399 C 0.76189 0.03678 0.28841 0.0
C400 C 0.76621 1.0031 0.27437 0.0
C401 C 0.79912 0.9835 0.27806 0.0
C402 C 0.82457 0.99538 0.29731 0.0
C403 C 0.78839 0.04791 0.30747 0.0
H404 H 0.84822 0.97816 0.30039 0.0
H405 H 0.78351 0.07312 0.31869 0.0
H406 H 0.83395 0.00913 0.40428 0.0
H407 H 0.91913 0.06835 0.36388 0.0
C408 C 0.90723 0.07543 0.30888 0.0
C409 C 0.89531 0.94883 0.33716 0.0
C410 C 0.80539 0.11839 0.36502 0.0
C411 C 0.77616 0.98839 0.37243 0.0
H412 H 0.96408 0.96402 0.3098 0.0
H413 H 0.9686 0.03216 0.29095 0.0
H414 H 0.9007 0.15351 0.30744 0.0
H415 H 0.8476 0.17697 0.34058 0.0
H416 H 0.73637 0.10475 0.39258 0.0
H417 H 0.7185 0.03375 0.39495 0.0
H418 H 0.78386 0.90982 0.37401 0.0
H419 H 0.85024 0.88888 0.35647 0.0
H420 H 0.87005 1.00675 0.44522 0.0
H421 H 0.95683 0.06708 0.40464 0.0
H422 H 0.73725 0.05335 0.28594 0.0
H423 H 0.80458 0.95809 0.26697 0.0
H424 H 0.05195 0.39728 0.96694 0.0
H425 H 0.98758 0.57709 0.04807 0.0
H426 H 0.97849 0.47836 0.9339 0.0
H427 H 0.08673 0.51734 0.06853 0.0
H428 H 0.98205 0.53928 1.00736 0.0
H429 H 0.06499 0.43934 1.00421 0.0
C430 C 0.03645 0.42275 0.9681 0.0
C431 C 1.00836 0.43075 0.94931 0.0
C432 C 1.0052 0.53462 0.02063 0.0
C433 C 0.02636 0.48124 0.99123 0.0
C434 C 0.00861 0.55646 0.04399 0.0
C435 C 0.03796 0.551 0.06208 0.0
C436 C 0.03087 0.50637 0.01519 0.0
C437 C 0.06334 0.52259 0.05564 0.0
C438 C 0.04489 0.44733 0.98925 0.0
C439 C 0.9951 0.46746 0.94986 0.0
N440 N 0.05908 0.50128 0.03291 0.0
N441 N 1.00324 0.49072 0.97083 0.0
H442 H 0.43482 0.42023 0.57208 0.0
H443 H 0.56037 0.51757 0.45867 0.0
H444 H 0.43418 0.53756 0.55855 0.0
H445 H 0.52981 0.40268 0.45338 0.0
H446 H 0.52055 0.5245 0.49883 0.0
H447 H 0.47587 0.41224 0.5323 0.0
C448 C 0.4439 0.44434 0.561 0.0
C449 C 0.43191 0.47969 0.56906 0.0
C450 C 0.52248 0.49776 0.4889 0.0
C451 C 0.47849 0.47082 0.52341 0.0
C452 C 0.54535 0.49372 0.46603 0.0
C453 C 0.54856 0.45944 0.45262 0.0
C454 C 0.50288 0.4672 0.49888 0.0
C455 C 0.52803 0.42965 0.46295 0.0
C456 C 0.46705 0.43976 0.53821 0.0
C457 C 0.44371 0.50995 0.55359 0.0
N458 N 0.50631 0.43413 0.48557 0.0
N459 N 0.46646 0.50486 0.53168 0.0
H460 H 0.48057 0.99056 0.09235 0.0
H461 H 0.44561 0.0158 0.93336 0.0
H462 H 0.43727 0.90344 0.04171 0.0
H463 H 0.51811 0.08626 0.97921 0.0
H464 H 0.4377 0.97638 0.97337 0.0
H465 H 0.48878 0.02896 0.05202 0.0
C466 C 0.4724 0.97964 0.0728 0.0
C467 C 0.45818 0.94367 0.07048 0.0
C468 C 0.45546 1.00038 0.97467 0.0
C469 C 0.46775 0.98749 0.02409 0.0
C470 C 0.46004 0.02275 0.95184 0.0
C471 C 0.4824 0.05434 0.95308 0.0
C472 C 0.47305 0.0099 0.99906 0.0
C473 C 0.50045 0.06224 0.97752 0.0
C474 C 0.47743 1.00146 0.04973 0.0
C475 C 0.44859 0.93087 0.04448 0.0
N476 N 0.49514 0.04041 0.99958 0.0
N477 N 0.45341 0.95274 0.02238 0.0
H478 H 0.96057 0.08818 0.45376 0.0
H479 H 0.04442 0.94632 0.56067 0.0
H480 H 0.92725 0.97408 0.4587 0.0
H481 H 0.05182 0.06422 0.57144 0.0
H482 H 1.00519 0.95567 0.52112 0.0
H483 H 0.99841 0.07983 0.49437 0.0
C484 C 0.96129 0.06137 0.4633 0.0
C485 C 0.94049 0.03186 0.45282 0.0
C486 C 0.015 0.97956 0.53227 0.0
C487 C 0.98387 0.02205 0.49926 0.0
C488 C 0.03714 0.97419 0.55498 0.0
C489 C 0.05042 1.00454 0.56983 0.0
C490 C 1.00672 0.0156 0.52383 0.0
C491 C 0.04148 0.04011 0.56084 0.0
C492 C 0.98271 0.05668 0.48658 0.0
C493 C 0.94238 0.99777 0.4662 0.0
N494 N 0.02029 0.0447 0.5384 0.0
N495 N 0.96372 0.9938 0.48855 0.0
H496 H 0.15884 0.72034 0.19361 0.0
H497 H 0.33414 0.79575 0.11054 0.0
H498 H 0.16952 0.70059 0.10767 0.0
H499 H 0.33591 0.77008 0.19559 0.0
H500 H 0.27173 0.76827 0.10773 0.0
H501 H 0.22054 0.74814 0.19362 0.0
C502 C 0.17414 0.72229 0.17467 0.0
C503 C 0.15923 0.70793 0.15065 0.0
C504 C 0.28589 0.76858 0.12695 0.0
C505 C 0.23009 0.73984 0.15042 0.0
C506 C 0.32145 0.78413 0.12853 0.0
C507 C 0.33996 0.78553 0.1534 0.0
C508 C 0.26862 0.75484 0.15051 0.0
C509 C 0.3224 0.76995 0.17611 0.0
C510 C 0.20945 0.73791 0.17469 0.0
C511 C 0.18013 0.71131 0.12661 0.0
N512 N 0.2877 0.75573 0.17419 0.0
N513 N 0.21455 0.7269 0.12707 0.0
H514 H 0.32218 0.66962 0.61367 0.0
H515 H 0.14784 0.80703 0.6156 0.0
H516 H 0.20986 0.63244 0.62497 0.0
H517 H 0.25992 0.84343 0.62799 0.0
H518 H 0.17011 0.74312 0.6121 0.0
H519 H 0.2998 0.73345 0.61191 0.0
C520 C 0.29276 0.6748 0.61543 0.0
C521 C 0.26791 0.64549 0.61953 0.0
C522 C 0.18984 0.76512 0.61546 0.0
C523 C 0.24204 0.71876 0.61765 0.0
C524 C 0.17718 0.80166 0.61727 0.0
C525 C 0.202 0.83074 0.62219 0.0
C526 C 0.22772 0.75748 0.61824 0.0
C527 C 0.23971 0.82194 0.62448 0.0
C528 C 0.28002 0.71131 0.61464 0.0
C529 C 0.23009 0.6541 0.62204 0.0
N530 N 0.25138 0.78622 0.62246 0.0
N531 N 0.21834 0.68984 0.62104 0.0
H532 H 0.67311 0.14585 0.89093 0.0
H533 H 0.80654 0.32143 0.90694 0.0
H534 H 0.63197 0.25721 0.90011 0.0
H535 H 0.84433 0.21222 0.88455 0.0
H536 H 0.74303 0.29795 0.90949 0.0
H537 H 0.73614 0.16924 0.89351 0.0
C538 C 0.67725 0.17529 0.89347 0.0
C539 C 0.64692 0.19958 0.89489 0.0
C540 C 0.76525 0.27911 0.90412 0.0
C541 C 0.71967 0.22668 0.89821 0.0
C542 C 0.80159 0.29244 0.90284 0.0
C543 C 0.83098 0.26882 0.89544 0.0
C544 C 0.7581 0.24178 0.89818 0.0
C545 C 0.82264 0.2316 0.89 0.0
C546 C 0.71339 0.18863 0.89505 0.0
C547 C 0.65433 0.23736 0.89897 0.0
N548 N 0.78712 0.21931 0.89148 0.0
N549 N 0.6899 0.24975 0.90031 0.0
H550 H 0.7259 0.33568 0.32634 0.0
H551 H 0.79235 0.16086 0.41098 0.0
H552 H 0.69796 0.32636 0.41108 0.0
H553 H 0.77247 0.15783 0.32509 0.0
H554 H 0.76488 0.22339 0.41321 0.0
H555 H 0.75254 0.2735 0.3271 0.0
C556 C 0.72578 0.32056 0.3452 0.0
C557 C 0.70943 0.33599 0.36861 0.0
C558 C 0.76636 0.20888 0.39394 0.0
C559 C 0.74003 0.26461 0.36973 0.0
C560 C 0.78185 0.17323 0.3927 0.0
C561 C 0.78488 0.15434 0.36778 0.0
C562 C 0.75442 0.22586 0.37001 0.0
C563 C 0.77089 0.17157 0.34466 0.0
C564 C 0.74074 0.28498 0.34561 0.0
C565 C 0.71021 0.31534 0.39259 0.0
N566 N 0.75678 0.20638 0.34627 0.0
N567 N 0.72522 0.28065 0.39257 0.0
H568 H 0.735 0.51118 0.22553 0.0
H569 H 0.93521 0.6005 0.23422 0.0
H570 H 0.80787 0.49297 0.29267 0.0
H571 H 0.89215 0.5665 0.15685 0.0
H572 H 0.88213 0.57164 0.25679 0.0
H573 H 0.78652 0.54022 0.20047 0.0
C574 C 0.76189 0.51303 0.23488 0.0
C575 C 0.76727 0.49936 0.26115 0.0
C576 C 0.88415 0.57061 0.23487 0.0
C577 C 0.82576 0.53341 0.23299 0.0
C578 C 0.91428 0.58725 0.22198 0.0
C579 C 0.91821 0.58553 0.19365 0.0
C580 C 0.85712 0.55271 0.21937 0.0
C581 C 0.89012 0.56829 0.17873 0.0
C582 C 0.79119 0.52956 0.2206 0.0
C583 C 0.80261 0.50266 0.27237 0.0
N584 N 0.86065 0.55253 0.19177 0.0
N585 N 0.83032 0.5197 0.25839 0.0
H586 H 0.42794 0.39105 0.73215 0.0
H587 H 0.42381 0.18381 0.77516 0.0
H588 H 0.39306 0.30948 0.67319 0.0
H589 H 0.51132 0.2572 0.79934 0.0
H590 H 0.40612 0.22815 0.73981 0.0
H591 H 0.45179 0.34204 0.76004 0.0
C592 C 0.42574 0.36301 0.72461 0.0
C593 C 0.40902 0.35498 0.69958 0.0
C594 C 0.42956 0.23415 0.75257 0.0
C595 C 0.43518 0.29799 0.73275 0.0
C596 C 0.43969 0.20892 0.7726 0.0
C597 C 0.46886 0.21716 0.79019 0.0
C598 C 0.44831 0.26802 0.75065 0.0
C599 C 0.48854 0.25004 0.78624 0.0
C600 C 0.43922 0.3349 0.74086 0.0
C601 C 0.40552 0.31741 0.69219 0.0
N602 N 0.47748 0.27458 0.76727 0.0
N603 N 0.41824 0.2903 0.70879 0.0
H604 H 0.57865 0.95996 0.16776 0.0
H605 H 0.74443 0.93085 0.27232 0.0
H606 H 0.59633 0.86046 0.21301 0.0
H607 H 0.71788 0.03742 0.2392 0.0
H608 H 0.6945 0.90348 0.24637 0.0
H609 H 0.63361 0.98739 0.1891 0.0
C610 C 0.59462 0.9437 0.18177 0.0
C611 C 0.58328 0.90782 0.18847 0.0
C612 C 0.69959 0.93283 0.2446 0.0
C613 C 0.64567 0.93897 0.21317 0.0
C614 C 0.72841 0.94854 0.25931 0.0
C615 C 0.73581 0.9866 0.25785 0.0
C616 C 0.6776 0.95513 0.22812 0.0
C617 C 0.7132 1.00804 0.24109 0.0
C618 C 0.62572 0.95941 0.1941 0.0
C619 C 0.60445 0.88803 0.20704 0.0
N620 N 0.68518 0.99202 0.22686 0.0
N621 N 0.63448 0.90385 0.21875 0.0
H622 H 0.9673 0.2552 0.78205 0.0
H623 H 0.13555 0.15676 0.70282 0.0
H624 H 0.08107 0.28639 0.79276 0.0
H625 H 0.02091 0.12816 0.69174 0.0
H626 H 0.11624 0.20859 0.73197 0.0
H627 H 0.98619 0.21308 0.74533 0.0
C628 C 0.99618 0.25388 0.77608 0.0
C629 C 0.02261 0.27483 0.78999 0.0
C630 C 0.09529 0.19119 0.72295 0.0
C631 C 0.04479 0.22561 0.74863 0.0
C632 C 0.1063 0.1617 0.70612 0.0
C633 C 0.07986 0.13775 0.6949 0.0
C634 C 0.05753 0.1969 0.72868 0.0
C635 C 0.04235 0.1454 0.70027 0.0
C636 C 1.00707 0.22955 0.75531 0.0
C637 C 0.05985 0.27112 0.78216 0.0
N638 N 0.03239 0.17403 0.71685 0.0
N639 N 0.06988 0.24681 0.76213 0.0
H640 H 0.08956 0.43005 0.78992 0.0
H641 H 0.2978 0.4188 0.74232 0.0
H642 H 0.17137 0.38907 0.84541 0.0
H643 H 0.22421 0.50504 0.71696 0.0
H644 H 0.25288 0.40202 0.77829 0.0
H645 H 0.13871 0.45152 0.76039 0.0
C646 C 0.11776 0.42603 0.79635 0.0
C647 C 0.12583 0.40829 0.82089 0.0
C648 C 0.24692 0.42496 0.7651 0.0
C649 C 0.18293 0.43181 0.78584 0.0
C650 C 0.27248 0.43455 0.74471 0.0
C651 C 0.26444 0.46323 0.72678 0.0
C652 C 0.21296 0.4438 0.76702 0.0
C653 C 0.23126 0.48273 0.73044 0.0
C654 C 0.14595 0.43814 0.77916 0.0
C655 C 0.16344 0.40246 0.82684 0.0
N656 N 0.20653 0.47231 0.74984 0.0
N657 N 0.19058 0.41399 0.80938 0.0
H658 H 0.63631 0.58827 0.30486 0.0
H659 H 0.45795 0.7151 0.28073 0.0
H660 H 0.53601 0.57675 0.35187 0.0
H661 H 0.56481 0.73359 0.24353 0.0
H662 H 0.48483 0.66442 0.30694 0.0
H663 H 0.61012 0.6424 0.28283 0.0
C664 C 0.60896 0.59769 0.31088 0.0
C665 C 0.58841 0.57837 0.33039 0.0
C666 C 0.50238 0.6798 0.29316 0.0
C667 C 0.55759 0.63979 0.30468 0.0
C668 C 0.487 0.70859 0.27807 0.0
C669 C 0.50913 0.72899 0.25999 0.0
C670 C 0.54009 0.67103 0.28995 0.0
C671 C 0.54669 0.71928 0.25754 0.0
C672 C 0.59384 0.62842 0.29817 0.0
C673 C 0.55279 0.59121 0.33708 0.0
N674 N 0.56083 0.6911 0.2722 0.0
N675 N 0.53835 0.62096 0.32409 0.0
H676 H 0.32196 0.14147 0.81171 0.0
H677 H 0.22162 0.96972 0.74165 0.0
H678 H 0.33535 0.02869 0.83741 0.0
H679 H 0.19514 0.08258 0.72302 0.0
H680 H 0.26025 0.99132 0.77897 0.0
H681 H 0.27208 0.12154 0.78175 0.0
C682 C 0.31397 0.11264 0.81148 0.0
C683 C 0.33326 0.08668 0.82693 0.0
C684 C 0.24553 0.01146 0.76709 0.0
C685 C 0.27657 0.06354 0.79223 0.0
C686 C 0.22324 0.99906 0.74594 0.0
C687 C 0.20455 0.02442 0.72973 0.0
C688 C 0.24987 0.04959 0.77175 0.0
C689 C 0.20871 0.06222 0.73541 0.0
C690 C 0.28564 0.10123 0.79419 0.0
C691 C 0.32185 0.04961 0.82549 0.0
N692 N 0.23112 0.07371 0.75584 0.0
N693 N 0.29461 0.03915 0.80828 0.0
H694 H 0.98291 0.72954 0.29427 0.0
H695 H 0.89667 0.93076 0.28348 0.0
H696 H 1.00454 0.80133 0.22667 0.0
H697 H 0.92656 0.88788 0.36143 0.0
H698 H 0.92597 0.87723 0.26151 0.0
H699 H 0.95362 0.78172 0.31878 0.0
C700 C 0.98174 0.75632 0.2847 0.0
C701 C 0.99647 0.76119 0.25847 0.0
C702 C 0.92605 0.8794 0.28343 0.0
C703 C 0.96219 0.82045 0.28601 0.0
C704 C 0.90919 0.90982 0.29597 0.0
C705 C 0.9096 0.91391 0.32429 0.0
C706 C 0.94283 0.85224 0.29927 0.0
C707 C 0.92583 0.88575 0.33954 0.0
C708 C 0.96508 0.78599 0.29868 0.0
C709 C 0.99404 0.79643 0.24696 0.0
N710 N 0.94181 0.85599 0.32684 0.0
N711 N 0.97689 0.82451 0.26064 0.0
loop_
_geom_bond_atom_site_label_1
_geom_bond_atom_site_label_2
_geom_bond_distance
_geom_bond_site_symmetry_2
_ccdc_geom_bond_type
C0 C1 1.443 . S
C0 N4 1.376 . S
C0 C38 1.389 . S
C1 C0 1.443 . S
C1 C2 1.340 . S
C1 H41 0.951 . S
C2 C1 1.340 . S
C2 C3 1.439 . S
C2 H42 0.950 . S
C3 C2 1.439 . S
C3 N4 1.374 . S
C3 C37 1.395 . S
N4 C0 1.376 . S
N4 C3 1.374 . S
N4 Co5 2.008 1_655 S
Co5 N4 2.008 1_455 S
Co5 N6 1.995 . S
Co5 N11 2.008 . S
Co5 N16 1.995 1_455 S
Co5 N21 2.282 . S
Co5 N27 2.282 1_455 S
N6 Co5 1.995 . S
N6 C7 1.376 1_455 S
N6 C10 1.383 . S
C7 N6 1.376 1_655 S
C7 C8 1.446 1_655 S
C7 C37 1.391 . S
C8 C7 1.446 1_455 S
C8 C9 1.339 . S
C8 H43 0.949 . S
C9 C8 1.339 . S
C9 C10 1.439 . S
C9 H44 0.950 . S
C10 N6 1.383 . S
C10 C9 1.439 . S
C10 C39 1.392 . S
N11 Co5 2.008 . S
N11 C12 1.376 . S
N11 C15 1.374 . S
C12 N11 1.376 . S
C12 C13 1.443 . S
C12 C39 1.389 . S
C13 C12 1.443 . S
C13 C14 1.340 . S
C13 H45 0.951 . S
C14 C13 1.340 . S
C14 C15 1.439 . S
C14 H46 0.950 . S
C15 N11 1.374 . S
C15 C14 1.439 . S
C15 C40 1.395 . S
N16 Co5 1.995 1_655 S
N16 C17 1.376 1_655 S
N16 C20 1.383 . S
C17 N16 1.376 1_455 S
C17 C18 1.446 1_455 S
C17 C40 1.391 . S
C18 C17 1.446 1_655 S
C18 C19 1.339 . S
C18 H47 0.949 . S
C19 C18 1.339 . S
C19 C20 1.439 . S
C19 H48 0.950 . S
C20 N16 1.383 . S
C20 C19 1.439 . S
C20 C38 1.392 . S
N21 Co5 2.282 . S
N21 C24 1.332 . S
N21 C26 1.332 . S
C22 C23 1.386 . S
C22 C25 1.388 . S
C23 C22 1.386 . S
C23 C24 1.382 . S
C23 H49 0.950 . S
C24 N21 1.332 . S
C24 C23 1.382 . S
C24 H35 0.952 . S
C25 C22 1.388 . S
C25 C26 1.382 . S
C25 H50 0.950 . S
C26 N21 1.332 . S
C26 C25 1.382 . S
C26 H36 0.948 1_455 S
N27 Co5 2.282 1_655 S
N27 C31 1.332 . S
N27 C32 1.332 . S
C28 C29 1.388 . S
C28 C32 1.382 . S
C28 H51 0.950 . S
C29 C28 1.388 . S
C29 C30 1.386 . S
C30 C29 1.386 . S
C30 C31 1.382 . S
C30 H52 0.950 . S
C31 N27 1.332 . S
C31 C30 1.382 . S
C31 H33 0.952 . S
C32 N27 1.332 . S
C32 C28 1.382 . S
C32 H34 0.948 1_655 S
H33 C31 0.952 . S
H34 C32 0.948 1_455 S
H35 C24 0.952 . S
H36 C26 0.948 1_655 S
C37 C3 1.395 . S
C37 C7 1.391 . S
C38 C0 1.389 . S
C38 C20 1.392 . S
C39 C10 1.392 . S
C39 C12 1.389 . S
C40 C15 1.395 . S
C40 C17 1.391 . S
H41 C1 0.951 . S
H42 C2 0.950 . S
H43 C8 0.949 . S
H44 C9 0.950 . S
H45 C13 0.951 . S
H46 C14 0.950 . S
H47 C18 0.949 . S
H48 C19 0.950 . S
H49 C23 0.950 . S
H50 C25 0.950 . S
H51 C28 0.950 . S
H52 C30 0.950 . S
C53 C54 1.443 . S
C53 N57 1.376 . S
C53 C91 1.389 . S
C54 C53 1.443 . S
C54 C55 1.340 . S
C54 H94 0.951 . S
C55 C54 1.340 . S
C55 C56 1.439 . S
C55 H95 0.950 . S
C56 C55 1.439 . S
C56 N57 1.374 . S
C56 C90 1.395 . S
N57 C53 1.376 . S
N57 C56 1.374 . S
N57 Co58 2.008 . S
Co58 N57 2.008 . S
Co58 N59 1.995 . S
Co58 N64 2.008 . S
Co58 N69 1.995 . S
Co58 N74 2.282 . S
Co58 N80 2.282 . S
N59 Co58 1.995 . S
N59 C60 1.376 . S
N59 C63 1.383 . S
C60 N59 1.376 . S
C60 C61 1.446 . S
C60 C90 1.391 . S
C61 C60 1.446 . S
C61 C62 1.339 . S
C61 H96 0.949 . S
C62 C61 1.339 . S
C62 C63 1.439 . S
C62 H97 0.950 . S
C63 N59 1.383 . S
C63 C62 1.439 . S
C63 C92 1.392 . S
N64 Co58 2.008 . S
N64 C65 1.376 . S
N64 C68 1.374 . S
C65 N64 1.376 . S
C65 C66 1.443 . S
C65 C92 1.389 . S
C66 C65 1.443 . S
C66 C67 1.340 . S
C66 H98 0.951 . S
C67 C66 1.340 . S
C67 C68 1.439 . S
C67 H99 0.950 . S
C68 N64 1.374 . S
C68 C67 1.439 . S
C68 C93 1.395 . S
N69 Co58 1.995 . S
N69 C70 1.376 . S
N69 C73 1.383 . S
C70 N69 1.376 . S
C70 C71 1.446 . S
C70 C93 1.391 . S
C71 C70 1.446 . S
C71 C72 1.339 . S
C71 H100 0.949 . S
C72 C71 1.339 . S
C72 C73 1.439 . S
C72 H101 0.950 . S
C73 N69 1.383 . S
C73 C72 1.439 . S
C73 C91 1.392 . S
N74 Co58 2.282 . S
N74 C77 1.332 . S
N74 C79 1.332 . S
C75 C76 1.386 . S
C75 C78 1.388 . S
C76 C75 1.386 . S
C76 C77 1.382 . S
C76 H102 0.950 . S
C77 N74 1.332 . S
C77 C76 1.382 . S
C77 H88 0.952 . S
C78 C75 1.388 . S
C78 C79 1.382 . S
C78 H103 0.950 . S
C79 N74 1.332 . S
C79 C78 1.382 . S
C79 H89 0.948 . S
N80 Co58 2.282 . S
N80 C84 1.332 . S
N80 C85 1.332 . S
C81 C82 1.388 . S
C81 C85 1.382 . S
C81 H104 0.950 . S
C82 C81 1.388 . S
C82 C83 1.386 . S
C83 C82 1.386 . S
C83 C84 1.382 . S
C83 H105 0.950 . S
C84 N80 1.332 . S
C84 C83 1.382 . S
C84 H86 0.952 . S
C85 N80 1.332 . S
C85 C81 1.382 . S
C85 H87 0.948 . S
H86 C84 0.952 . S
H87 C85 0.948 . S
H88 C77 0.952 . S
H89 C79 0.948 . S
C90 C56 1.395 . S
C90 C60 1.391 . S
C91 C53 1.389 . S
C91 C73 1.392 . S
C92 C63 1.392 . S
C92 C65 1.389 . S
C93 C68 1.395 . S
C93 C70 1.391 . S
H94 C54 0.951 . S
H95 C55 0.950 . S
H96 C61 0.949 . S
H97 C62 0.950 . S
H98 C66 0.951 . S
H99 C67 0.950 . S
H100 C71 0.949 . S
H101 C72 0.950 . S
H102 C76 0.950 . S
H103 C78 0.950 . S
H104 C81 0.950 . S
H105 C83 0.950 . S
C106 C107 1.443 . S
C106 N110 1.376 . S
C106 C144 1.389 . S
C107 C106 1.443 . S
C107 C108 1.340 . S
C107 H147 0.951 . S
C108 C107 1.340 . S
C108 C109 1.439 . S
C108 H148 0.950 . S
C109 C108 1.439 . S
C109 N110 1.374 . S
C109 C143 1.395 . S
N110 C106 1.376 . S
N110 C109 1.374 . S
N110 Co111 2.008 . S
Co111 N110 2.008 . S
Co111 N112 1.995 . S
Co111 N117 2.008 . S
Co111 N122 1.995 . S
Co111 N127 2.282 . S
Co111 N133 2.282 . S
N112 Co111 1.995 . S
N112 C113 1.376 . S
N112 C116 1.383 . S
C113 N112 1.376 . S
C113 C114 1.446 . S
C113 C143 1.391 . S
C114 C113 1.446 . S
C114 C115 1.339 . S
C114 H149 0.949 . S
C115 C114 1.339 . S
C115 C116 1.439 . S
C115 H150 0.950 . S
C116 N112 1.383 . S
C116 C115 1.439 . S
C116 C145 1.392 . S
N117 Co111 2.008 . S
N117 C118 1.376 . S
N117 C121 1.374 . S
C118 N117 1.376 . S
C118 C119 1.443 . S
C118 C145 1.389 . S
C119 C118 1.443 . S
C119 C120 1.340 . S
C119 H151 0.951 . S
C120 C119 1.340 . S
C120 C121 1.439 . S
C120 H152 0.950 . S
C121 N117 1.374 . S
C121 C120 1.439 . S
C121 C146 1.395 . S
N122 Co111 1.995 . S
N122 C123 1.376 . S
N122 C126 1.383 . S
C123 N122 1.376 . S
C123 C124 1.446 . S
C123 C146 1.391 . S
C124 C123 1.446 . S
C124 C125 1.339 . S
C124 H153 0.949 . S
C125 C124 1.339 . S
C125 C126 1.439 . S
C125 H154 0.950 . S
C126 N122 1.383 . S
C126 C125 1.439 . S
C126 C144 1.392 . S
N127 Co111 2.282 . S
N127 C130 1.332 . S
N127 C132 1.332 . S
C128 C129 1.386 . S
C128 C131 1.388 . S
C129 C128 1.386 . S
C129 C130 1.382 . S
C129 H155 0.950 . S
C130 N127 1.332 . S
C130 C129 1.382 . S
C130 H141 0.952 . S
C131 C128 1.388 . S
C131 C132 1.382 . S
C131 H156 0.950 . S
C132 N127 1.332 . S
C132 C131 1.382 . S
C132 H142 0.948 . S
N133 Co111 2.282 . S
N133 C137 1.332 . S
N133 C138 1.332 . S
C134 C135 1.388 . S
C134 C138 1.382 . S
C134 H157 0.950 . S
C135 C134 1.388 . S
C135 C136 1.386 . S
C136 C135 1.386 . S
C136 C137 1.382 . S
C136 H158 0.950 . S
C137 N133 1.332 . S
C137 C136 1.382 . S
C137 H139 0.952 . S
C138 N133 1.332 . S
C138 C134 1.382 . S
C138 H140 0.948 . S
H139 C137 0.952 . S
H140 C138 0.948 . S
H141 C130 0.952 . S
H142 C132 0.948 . S
C143 C109 1.395 . S
C143 C113 1.391 . S
C144 C106 1.389 . S
C144 C126 1.392 . S
C145 C116 1.392 . S
C145 C118 1.389 . S
C146 C121 1.395 . S
C146 C123 1.391 . S
H147 C107 0.951 . S
H148 C108 0.950 . S
H149 C114 0.949 . S
H150 C115 0.950 . S
H151 C119 0.951 . S
H152 C120 0.950 . S
H153 C124 0.949 . S
H154 C125 0.950 . S
H155 C129 0.950 . S
H156 C131 0.950 . S
H157 C134 0.950 . S
H158 C136 0.950 . S
C159 C160 1.443 . S
C159 N163 1.376 . S
C159 C197 1.389 . S
C160 C159 1.443 . S
C160 C161 1.340 . S
C160 H200 0.951 . S
C161 C160 1.340 . S
C161 C162 1.439 . S
C161 H201 0.950 . S
C162 C161 1.439 . S
C162 N163 1.374 . S
C162 C196 1.395 . S
N163 C159 1.376 . S
N163 C162 1.374 . S
N163 Co164 2.008 . S
Co164 N163 2.008 . S
Co164 N165 1.995 . S
Co164 N170 2.008 1_565 S
Co164 N175 1.995 1_565 S
Co164 N180 2.282 1_565 S
Co164 N186 2.282 . S
N165 Co164 1.995 . S
N165 C166 1.376 . S
N165 C169 1.383 . S
C166 N165 1.376 . S
C166 C167 1.446 . S
C166 C196 1.391 . S
C167 C166 1.446 . S
C167 C168 1.339 . S
C167 H202 0.949 . S
C168 C167 1.339 . S
C168 C169 1.439 . S
C168 H203 0.950 . S
C169 N165 1.383 . S
C169 C168 1.439 . S
C169 C198 1.392 1_565 S
N170 Co164 2.008 1_545 S
N170 C171 1.376 . S
N170 C174 1.374 . S
C171 N170 1.376 . S
C171 C172 1.443 . S
C171 C198 1.389 . S
C172 C171 1.443 . S
C172 C173 1.340 . S
C172 H204 0.951 . S
C173 C172 1.340 . S
C173 C174 1.439 . S
C173 H205 0.950 . S
C174 N170 1.374 . S
C174 C173 1.439 . S
C174 C199 1.395 . S
N175 Co164 1.995 1_545 S
N175 C176 1.376 . S
N175 C179 1.383 . S
C176 N175 1.376 . S
C176 C177 1.446 . S
C176 C199 1.391 . S
C177 C176 1.446 . S
C177 C178 1.339 . S
C177 H206 0.949 . S
C178 C177 1.339 . S
C178 C179 1.439 . S
C178 H207 0.950 . S
C179 N175 1.383 . S
C179 C178 1.439 . S
C179 C197 1.392 1_545 S
N180 Co164 2.282 1_545 S
N180 C183 1.332 . S
N180 C185 1.332 . S
C181 C182 1.386 . S
C181 C184 1.388 . S
C182 C181 1.386 . S
C182 C183 1.382 . S
C182 H208 0.950 . S
C183 N180 1.332 . S
C183 C182 1.382 . S
C183 H194 0.952 . S
C184 C181 1.388 . S
C184 C185 1.382 . S
C184 H209 0.950 . S
C185 N180 1.332 . S
C185 C184 1.382 . S
C185 H195 0.948 . S
N186 Co164 2.282 . S
N186 C190 1.332 . S
N186 C191 1.332 . S
C187 C188 1.388 . S
C187 C191 1.382 . S
C187 H210 0.950 . S
C188 C187 1.388 . S
C188 C189 1.386 . S
C189 C188 1.386 . S
C189 C190 1.382 . S
C189 H211 0.950 . S
C190 N186 1.332 . S
C190 C189 1.382 . S
C190 H192 0.952 . S
C191 N186 1.332 . S
C191 C187 1.382 . S
C191 H193 0.948 . S
H192 C190 0.952 . S
H193 C191 0.948 . S
H194 C183 0.952 . S
H195 C185 0.948 . S
C196 C162 1.395 . S
C196 C166 1.391 . S
C197 C159 1.389 . S
C197 C179 1.392 1_565 S
C198 C169 1.392 1_545 S
C198 C171 1.389 . S
C199 C174 1.395 . S
C199 C176 1.391 . S
H200 C160 0.951 . S
H201 C161 0.950 . S
H202 C167 0.949 . S
H203 C168 0.950 . S
H204 C172 0.951 . S
H205 C173 0.950 . S
H206 C177 0.949 . S
H207 C178 0.950 . S
H208 C182 0.950 . S
H209 C184 0.950 . S
H210 C187 0.950 . S
H211 C189 0.950 . S
C212 C213 1.439 1_655 S
C212 N216 1.369 1_655 S
C212 C250 1.401 . S
C213 C212 1.439 1_455 S
C213 C214 1.340 . S
C213 H253 0.951 . S
C214 C213 1.340 . S
C214 C215 1.439 . S
C214 H254 0.950 . S
C215 C214 1.439 . S
C215 N216 1.374 . S
C215 C249 1.395 . S
N216 C212 1.369 1_455 S
N216 C215 1.374 . S
N216 Co217 2.008 1_455 S
Co217 N216 2.008 1_655 S
Co217 N218 1.995 1_655 S
Co217 N223 2.008 . S
Co217 N228 1.995 . S
Co217 N233 2.282 1_655 S
Co217 N239 2.282 . S
N218 Co217 1.995 1_455 S
N218 C219 1.376 . S
N218 C222 1.383 . S
C219 N218 1.376 . S
C219 C220 1.446 . S
C219 C249 1.391 . S
C220 C219 1.446 . S
C220 C221 1.339 . S
C220 H255 0.949 . S
C221 C220 1.339 . S
C221 C222 1.439 . S
C221 H256 0.950 . S
C222 N218 1.383 . S
C222 C221 1.439 . S
C222 C251 1.392 . S
N223 Co217 2.008 . S
N223 C224 1.371 1_655 S
N223 C227 1.374 . S
C224 N223 1.371 1_455 S
C224 C225 1.440 1_455 S
C224 C251 1.397 . S
C225 C224 1.440 1_655 S
C225 C226 1.340 . S
C225 H257 0.951 . S
C226 C225 1.340 . S
C226 C227 1.439 . S
C226 H258 0.950 . S
C227 N223 1.374 . S
C227 C226 1.439 . S
C227 C252 1.395 . S
N228 Co217 1.995 . S
N228 C229 1.376 . S
N228 C232 1.383 . S
C229 N228 1.376 . S
C229 C230 1.446 . S
C229 C252 1.391 . S
C230 C229 1.446 . S
C230 C231 1.339 . S
C230 H259 0.949 . S
C231 C230 1.339 . S
C231 C232 1.439 . S
C231 H260 0.950 . S
C232 N228 1.383 . S
C232 C231 1.439 . S
C232 C250 1.392 . S
N233 Co217 2.282 1_455 S
N233 C236 1.332 . S
N233 C238 1.332 . S
C234 C235 1.386 . S
C234 C237 1.388 . S
C235 C234 1.386 . S
C235 C236 1.382 . S
C235 H261 0.950 . S
C236 N233 1.332 . S
C236 C235 1.382 . S
C236 H247 0.952 . S
C237 C234 1.388 . S
C237 C238 1.382 . S
C237 H262 0.950 . S
C238 N233 1.332 . S
C238 C237 1.382 . S
C238 H248 0.948 . S
N239 Co217 2.282 . S
N239 C243 1.332 . S
N239 C244 1.332 . S
C240 C241 1.388 . S
C240 C244 1.382 . S
C240 H263 0.950 . S
C241 C240 1.388 . S
C241 C242 1.386 . S
C242 C241 1.386 . S
C242 C243 1.382 . S
C242 H264 0.950 . S
C243 N239 1.332 . S
C243 C242 1.382 . S
C243 H245 0.952 . S
C244 N239 1.332 . S
C244 C240 1.382 . S
C244 H246 0.948 . S
H245 C243 0.952 . S
H246 C244 0.948 . S
H247 C236 0.952 . S
H248 C238 0.948 . S
C249 C215 1.395 . S
C249 C219 1.391 . S
C250 C212 1.401 . S
C250 C232 1.392 . S
C251 C222 1.392 . S
C251 C224 1.397 . S
C252 C227 1.395 . S
C252 C229 1.391 . S
H253 C213 0.951 . S
H254 C214 0.950 . S
H255 C220 0.949 . S
H256 C221 0.950 . S
H257 C225 0.951 . S
H258 C226 0.950 . S
H259 C230 0.949 . S
H260 C231 0.950 . S
H261 C235 0.950 . S
H262 C237 0.950 . S
H263 C240 0.950 . S
H264 C242 0.950 . S
C265 C266 1.443 . S
C265 N269 1.376 . S
C265 C303 1.389 . S
C266 C265 1.443 . S
C266 C267 1.340 . S
C266 H306 0.951 . S
C267 C266 1.340 . S
C267 C268 1.439 . S
C267 H307 0.950 . S
C268 C267 1.439 . S
C268 N269 1.374 . S
C268 C302 1.395 . S
N269 C265 1.376 . S
N269 C268 1.374 . S
N269 Co270 2.008 . S
Co270 N269 2.008 . S
Co270 N271 1.995 . S
Co270 N276 2.008 . S
Co270 N281 1.995 . S
Co270 N286 2.282 . S
Co270 N292 2.282 . S
N271 Co270 1.995 . S
N271 C272 1.376 . S
N271 C275 1.383 . S
C272 N271 1.376 . S
C272 C273 1.446 . S
C272 C302 1.391 . S
C273 C272 1.446 . S
C273 C274 1.339 . S
C273 H308 0.949 . S
C274 C273 1.339 . S
C274 C275 1.439 . S
C274 H309 0.950 . S
C275 N271 1.383 . S
C275 C274 1.439 . S
C275 C304 1.392 . S
N276 Co270 2.008 . S
N276 C277 1.376 . S
N276 C280 1.374 . S
C277 N276 1.376 . S
C277 C278 1.443 . S
C277 C304 1.389 . S
C278 C277 1.443 . S
C278 C279 1.340 . S
C278 H310 0.951 . S
C279 C278 1.340 . S
C279 C280 1.439 . S
C279 H311 0.950 . S
C280 N276 1.374 . S
C280 C279 1.439 . S
C280 C305 1.395 . S
N281 Co270 1.995 . S
N281 C282 1.376 . S
N281 C285 1.383 . S
C282 N281 1.376 . S
C282 C283 1.446 . S
C282 C305 1.391 . S
C283 C282 1.446 . S
C283 C284 1.339 . S
C283 H312 0.949 . S
C284 C283 1.339 . S
C284 C285 1.439 . S
C284 H313 0.950 . S
C285 N281 1.383 . S
C285 C284 1.439 . S
C285 C303 1.392 . S
N286 Co270 2.282 . S
N286 C289 1.332 . S
N286 C291 1.332 . S
C287 C288 1.386 . S
C287 C290 1.388 . S
C288 C287 1.386 . S
C288 C289 1.382 . S
C288 H314 0.950 . S
C289 N286 1.332 . S
C289 C288 1.382 . S
C289 H300 0.952 . S
C290 C287 1.388 . S
C290 C291 1.382 . S
C290 H315 0.950 . S
C291 N286 1.332 . S
C291 C290 1.382 . S
C291 H301 0.948 . S
N292 Co270 2.282 . S
N292 C296 1.332 . S
N292 C297 1.332 . S
C293 C294 1.388 . S
C293 C297 1.382 . S
C293 H316 0.950 . S
C294 C293 1.388 . S
C294 C295 1.386 . S
C295 C294 1.386 . S
C295 C296 1.382 . S
C295 H317 0.950 . S
C296 N292 1.332 . S
C296 C295 1.382 . S
C296 H298 0.952 . S
C297 N292 1.332 . S
C297 C293 1.382 . S
C297 H299 0.948 . S
H298 C296 0.952 . S
H299 C297 0.948 . S
H300 C289 0.952 . S
H301 C291 0.948 . S
C302 C268 1.395 . S
C302 C272 1.391 . S
C303 C265 1.389 . S
C303 C285 1.392 . S
C304 C275 1.392 . S
C304 C277 1.389 . S
C305 C280 1.395 . S
C305 C282 1.391 . S
H306 C266 0.951 . S
H307 C267 0.950 . S
H308 C273 0.949 . S
H309 C274 0.950 . S
H310 C278 0.951 . S
H311 C279 0.950 . S
H312 C283 0.949 . S
H313 C284 0.950 . S
H314 C288 0.950 . S
H315 C290 0.950 . S
H316 C293 0.950 . S
H317 C295 0.950 . S
C318 C319 1.443 . S
C318 N322 1.376 . S
C318 C356 1.389 . S
C319 C318 1.443 . S
C319 C320 1.340 . S
C319 H359 0.951 . S
C320 C319 1.340 . S
C320 C321 1.439 . S
C320 H360 0.950 . S
C321 C320 1.439 . S
C321 N322 1.374 . S
C321 C355 1.395 . S
N322 C318 1.376 . S
N322 C321 1.374 . S
N322 Co323 2.008 . S
Co323 N322 2.008 . S
Co323 N324 1.995 . S
Co323 N329 2.008 . S
Co323 N334 1.995 . S
Co323 N339 2.282 . S
Co323 N345 2.282 . S
N324 Co323 1.995 . S
N324 C325 1.376 . S
N324 C328 1.383 . S
C325 N324 1.376 . S
C325 C326 1.446 . S
C325 C355 1.391 . S
C326 C325 1.446 . S
C326 C327 1.339 . S
C326 H361 0.949 . S
C327 C326 1.339 . S
C327 C328 1.439 . S
C327 H362 0.950 . S
C328 N324 1.383 . S
C328 C327 1.439 . S
C328 C357 1.392 . S
N329 Co323 2.008 . S
N329 C330 1.376 . S
N329 C333 1.374 . S
C330 N329 1.376 . S
C330 C331 1.443 . S
C330 C357 1.389 . S
C331 C330 1.443 . S
C331 C332 1.340 . S
C331 H363 0.951 . S
C332 C331 1.340 . S
C332 C333 1.439 . S
C332 H364 0.950 . S
C333 N329 1.374 . S
C333 C332 1.439 . S
C333 C358 1.395 . S
N334 Co323 1.995 . S
N334 C335 1.376 . S
N334 C338 1.383 . S
C335 N334 1.376 . S
C335 C336 1.446 . S
C335 C358 1.391 . S
C336 C335 1.446 . S
C336 C337 1.339 . S
C336 H365 0.949 . S
C337 C336 1.339 . S
C337 C338 1.439 . S
C337 H366 0.950 . S
C338 N334 1.383 . S
C338 C337 1.439 . S
C338 C356 1.392 . S
N339 Co323 2.282 . S
N339 C342 1.332 . S
N339 C344 1.332 . S
C340 C341 1.386 . S
C340 C343 1.388 . S
C341 C340 1.386 . S
C341 C342 1.382 . S
C341 H367 0.950 . S
C342 N339 1.332 . S
C342 C341 1.382 . S
C342 H353 0.952 . S
C343 C340 1.388 . S
C343 C344 1.382 . S
C343 H368 0.950 . S
C344 N339 1.332 . S
C344 C343 1.382 . S
C344 H354 0.948 . S
N345 Co323 2.282 . S
N345 C349 1.332 . S
N345 C350 1.332 . S
C346 C347 1.388 . S
C346 C350 1.382 . S
C346 H369 0.950 . S
C347 C346 1.388 . S
C347 C348 1.386 . S
C348 C347 1.386 . S
C348 C349 1.382 . S
C348 H370 0.950 . S
C349 N345 1.332 . S
C349 C348 1.382 . S
C349 H351 0.952 . S
C350 N345 1.332 . S
C350 C346 1.382 . S
C350 H352 0.948 . S
H351 C349 0.952 . S
H352 C350 0.948 . S
H353 C342 0.952 . S
H354 C344 0.948 . S
C355 C321 1.395 . S
C355 C325 1.391 . S
C356 C318 1.389 . S
C356 C338 1.392 . S
C357 C328 1.392 . S
C357 C330 1.389 . S
C358 C333 1.395 . S
C358 C335 1.391 . S
H359 C319 0.951 . S
H360 C320 0.950 . S
H361 C326 0.949 . S
H362 C327 0.950 . S
H363 C331 0.951 . S
H364 C332 0.950 . S
H365 C336 0.949 . S
H366 C337 0.950 . S
H367 C341 0.950 . S
H368 C343 0.950 . S
H369 C346 0.950 . S
H370 C348 0.950 . S
C371 C372 1.443 . S
C371 N375 1.376 . S
C371 C409 1.389 . S
C372 C371 1.443 . S
C372 C373 1.340 . S
C372 H412 0.951 . S
C373 C372 1.340 . S
C373 C374 1.439 1_565 S
C373 H413 0.950 . S
C374 C373 1.439 1_545 S
C374 N375 1.374 1_545 S
C374 C408 1.395 . S
N375 C371 1.376 . S
N375 C374 1.374 1_565 S
N375 Co376 2.008 1_565 S
Co376 N375 2.008 1_545 S
Co376 N377 1.995 . S
Co376 N382 2.008 . S
Co376 N387 1.995 1_545 S
Co376 N392 2.282 . S
Co376 N398 2.282 1_545 S
N377 Co376 1.995 . S
N377 C378 1.376 . S
N377 C381 1.383 . S
C378 N377 1.376 . S
C378 C379 1.446 . S
C378 C408 1.391 . S
C379 C378 1.446 . S
C379 C380 1.339 . S
C379 H414 0.949 . S
C380 C379 1.339 . S
C380 C381 1.439 . S
C380 H415 0.950 . S
C381 N377 1.383 . S
C381 C380 1.439 . S
C381 C410 1.392 . S
N382 Co376 2.008 . S
N382 C383 1.376 . S
N382 C386 1.374 1_545 S
C383 N382 1.376 . S
C383 C384 1.443 . S
C383 C410 1.389 . S
C384 C383 1.443 . S
C384 C385 1.340 . S
C384 H416 0.951 . S
C385 C384 1.340 . S
C385 C386 1.439 1_545 S
C385 H417 0.950 . S
C386 N382 1.374 1_565 S
C386 C385 1.439 1_565 S
C386 C411 1.395 . S
N387 Co376 1.995 1_565 S
N387 C388 1.376 . S
N387 C391 1.383 . S
C388 N387 1.376 . S
C388 C389 1.446 . S
C388 C411 1.391 . S
C389 C388 1.446 . S
C389 C390 1.339 . S
C389 H418 0.949 . S
C390 C389 1.339 . S
C390 C391 1.439 . S
C390 H419 0.950 . S
C391 N387 1.383 . S
C391 C390 1.439 . S
C391 C409 1.392 . S
N392 Co376 2.282 . S
N392 C395 1.332 1_545 S
N392 C397 1.332 . S
C393 C394 1.386 . S
C393 C396 1.388 . S
C394 C393 1.386 . S
C394 C395 1.382 1_545 S
C394 H420 0.950 1_545 S
C395 N392 1.332 1_565 S
C395 C394 1.382 1_565 S
C395 H406 0.952 . S
C396 C393 1.388 . S
C396 C397 1.382 . S
C396 H421 0.950 . S
C397 N392 1.332 . S
C397 C396 1.382 . S
C397 H407 0.948 . S
N398 Co376 2.282 1_565 S
N398 C402 1.332 1_565 S
N398 C403 1.332 . S
C399 C400 1.388 . S
C399 C403 1.382 . S
C399 H422 0.950 . S
C400 C399 1.388 . S
C400 C401 1.386 . S
C401 C400 1.386 . S
C401 C402 1.382 1_565 S
C401 H423 0.950 1_565 S
C402 N398 1.332 1_545 S
C402 C401 1.382 1_545 S
C402 H404 0.952 . S
C403 N398 1.332 . S
C403 C399 1.382 . S
C403 H405 0.948 . S
H404 C402 0.952 . S
H405 C403 0.948 . S
H406 C395 0.952 . S
H407 C397 0.948 . S
C408 C374 1.395 . S
C408 C378 1.391 . S
C409 C371 1.389 . S
C409 C391 1.392 . S
C410 C381 1.392 . S
C410 C383 1.389 . S
C411 C386 1.395 . S
C411 C388 1.391 . S
H412 C372 0.951 . S
H413 C373 0.950 . S
H414 C379 0.949 . S
H415 C380 0.950 . S
H416 C384 0.951 . S
H417 C385 0.950 . S
H418 C389 0.949 . S
H419 C390 0.950 . S
H420 C394 0.950 1_565 S
H421 C396 0.950 . S
H422 C399 0.950 . S
H423 C401 0.950 1_545 S
H424 C430 0.933 . S
H425 C434 0.930 . S
H426 C439 0.929 . S
H427 C437 0.929 . S
H428 C432 0.929 1_655 S
H429 C438 0.929 1_554 S
C430 H424 0.933 . S
C430 C431 1.361 1_455 S
C430 C438 1.381 . S
C431 C430 1.361 1_655 S
C431 C439 1.433 . S
C432 H428 0.929 1_455 S
C432 C434 1.378 1_556 S
C432 C436 1.350 1_556 S
C433 C436 1.463 1_556 S
C433 C438 1.350 . S
C433 N441 1.427 1_455 S
C434 H425 0.930 . S
C434 C432 1.378 1_554 S
C434 C435 1.367 . S
C435 C434 1.367 . S
C435 C437 1.433 . S
C436 C432 1.350 1_554 S
C436 C433 1.463 1_554 S
C436 N440 1.427 . S
C437 H427 0.929 . S
C437 C435 1.433 . S
C437 N440 1.384 . S
C438 H429 0.929 1_556 S
C438 C430 1.381 . S
C438 C433 1.350 . S
C439 H426 0.929 . S
C439 C431 1.433 . S
C439 N441 1.384 . S
N440 C436 1.427 . S
N440 C437 1.384 . S
N441 C433 1.427 1_655 S
N441 C439 1.384 . S
H442 C448 0.930 . S
H443 C452 0.930 . S
H444 C457 0.929 . S
H445 C455 0.929 . S
H446 C450 0.929 . S
H447 C456 0.929 . S
C448 H442 0.930 . S
C448 C449 1.367 . S
C448 C456 1.378 . S
C449 C448 1.367 . S
C449 C457 1.433 . S
C450 H446 0.929 . S
C450 C452 1.378 . S
C450 C454 1.350 . S
C451 C454 1.463 . S
C451 C456 1.350 . S
C451 N459 1.427 . S
C452 H443 0.930 . S
C452 C450 1.378 . S
C452 C453 1.367 . S
C453 C452 1.367 . S
C453 C455 1.433 . S
C454 C450 1.350 . S
C454 C451 1.463 . S
C454 N458 1.427 . S
C455 H445 0.929 . S
C455 C453 1.433 . S
C455 N458 1.384 . S
C456 H447 0.929 . S
C456 C448 1.378 . S
C456 C451 1.350 . S
C457 H444 0.929 . S
C457 C449 1.433 . S
C457 N459 1.384 . S
N458 C454 1.427 . S
N458 C455 1.384 . S
N459 C451 1.427 . S
N459 C457 1.384 . S
H460 C466 0.930 . S
H461 C470 0.930 . S
H462 C475 0.938 . S
H463 C473 0.929 . S
H464 C468 0.929 1_565 S
H465 C474 0.929 1_545 S
C466 H460 0.930 . S
C466 C467 1.367 . S
C466 C474 1.378 . S
C467 C466 1.367 . S
C467 C475 1.433 . S
C468 H464 0.929 1_545 S
C468 C470 1.378 . S
C468 C472 1.350 . S
C469 C472 1.463 1_564 S
C469 C474 1.350 . S
C469 N477 1.427 1_554 S
C470 H461 0.930 . S
C470 C468 1.378 . S
C470 C471 1.367 . S
C471 C470 1.367 . S
C471 C473 1.433 . S
C472 C468 1.350 . S
C472 C469 1.463 1_546 S
C472 N476 1.427 . S
C473 H463 0.929 . S
C473 C471 1.433 . S
C473 N476 1.384 . S
C474 H465 0.929 1_565 S
C474 C466 1.378 . S
C474 C469 1.350 . S
C475 H462 0.938 . S
C475 C467 1.433 . S
C475 N477 1.384 1_554 S
N476 C472 1.427 . S
N476 C473 1.384 . S
N477 C469 1.427 1_556 S
N477 C475 1.384 1_556 S
H478 C484 0.930 . S
H479 C488 0.930 . S
H480 C493 0.932 . S
H481 C491 0.929 . S
H482 C486 0.929 1_655 S
H483 C492 0.929 1_455 S
C484 H478 0.930 . S
C484 C485 1.367 . S
C484 C492 1.378 . S
C485 C484 1.367 . S
C485 C493 1.429 1_545 S
C486 H482 0.929 1_455 S
C486 C488 1.378 . S
C486 C490 1.350 1_565 S
C487 C490 1.463 1_655 S
C487 C492 1.350 . S
C487 N495 1.427 1_545 S
C488 H479 0.930 . S
C488 C486 1.378 . S
C488 C489 1.367 . S
C489 C488 1.367 . S
C489 C491 1.433 1_565 S
C490 C486 1.350 1_545 S
C490 C487 1.463 1_455 S
C490 N494 1.427 . S
C491 H481 0.929 . S
C491 C489 1.433 1_545 S
C491 N494 1.384 . S
C492 H483 0.929 1_655 S
C492 C484 1.378 . S
C492 C487 1.350 . S
C493 H480 0.932 . S
C493 C485 1.429 1_565 S
C493 N495 1.385 . S
N494 C490 1.427 . S
N494 C491 1.384 . S
N495 C487 1.427 1_565 S
N495 C493 1.385 . S
H496 C502 0.930 . S
H497 C506 0.930 . S
H498 C511 0.929 . S
H499 C509 0.929 . S
H500 C504 0.929 . S
H501 C510 0.929 . S
C502 H496 0.930 . S
C502 C503 1.367 . S
C502 C510 1.378 . S
C503 C502 1.367 . S
C503 C511 1.433 . S
C504 H500 0.929 . S
C504 C506 1.378 . S
C504 C508 1.350 . S
C505 C508 1.463 . S
C505 C510 1.350 . S
C505 N513 1.427 . S
C506 H497 0.930 . S
C506 C504 1.378 . S
C506 C507 1.367 . S
C507 C506 1.367 . S
C507 C509 1.433 . S
C508 C504 1.350 . S
C508 C505 1.463 . S
C508 N512 1.427 . S
C509 H499 0.929 . S
C509 C507 1.433 . S
C509 N512 1.384 . S
C510 H501 0.929 . S
C510 C502 1.378 . S
C510 C505 1.350 . S
C511 H498 0.929 . S
C511 C503 1.433 . S
C511 N513 1.384 . S
N512 C508 1.427 . S
N512 C509 1.384 . S
N513 C505 1.427 . S
N513 C511 1.384 . S
H514 C520 0.930 . S
H515 C524 0.930 . S
H516 C529 0.929 . S
H517 C527 0.929 . S
H518 C522 0.929 . S
H519 C528 0.929 . S
C520 H514 0.930 . S
C520 C521 1.367 . S
C520 C528 1.378 . S
C521 C520 1.367 . S
C521 C529 1.433 . S
C522 H518 0.929 . S
C522 C524 1.378 . S
C522 C526 1.350 . S
C523 C526 1.463 . S
C523 C528 1.350 . S
C523 N531 1.427 . S
C524 H515 0.930 . S
C524 C522 1.378 . S
C524 C525 1.367 . S
C525 C524 1.367 . S
C525 C527 1.433 . S
C526 C522 1.350 . S
C526 C523 1.463 . S
C526 N530 1.427 . S
C527 H517 0.929 . S
C527 C525 1.433 . S
C527 N530 1.384 . S
C528 H519 0.929 . S
C528 C520 1.378 . S
C528 C523 1.350 . S
C529 H516 0.929 . S
C529 C521 1.433 . S
C529 N531 1.384 . S
N530 C526 1.427 . S
N530 C527 1.384 . S
N531 C523 1.427 . S
N531 C529 1.384 . S
H532 C538 0.930 . S
H533 C542 0.930 . S
H534 C547 0.929 . S
H535 C545 0.929 . S
H536 C540 0.929 . S
H537 C546 0.929 . S
C538 H532 0.930 . S
C538 C539 1.367 . S
C538 C546 1.378 . S
C539 C538 1.367 . S
C539 C547 1.433 . S
C540 H536 0.929 . S
C540 C542 1.378 . S
C540 C544 1.350 . S
C541 C544 1.463 . S
C541 C546 1.350 . S
C541 N549 1.427 . S
C542 H533 0.930 . S
C542 C540 1.378 . S
C542 C543 1.367 . S
C543 C542 1.367 . S
C543 C545 1.433 . S
C544 C540 1.350 . S
C544 C541 1.463 . S
C544 N548 1.427 . S
C545 H535 0.929 . S
C545 C543 1.433 . S
C545 N548 1.384 . S
C546 H537 0.929 . S
C546 C538 1.378 . S
C546 C541 1.350 . S
C547 H534 0.929 . S
C547 C539 1.433 . S
C547 N549 1.384 . S
N548 C544 1.427 . S
N548 C545 1.384 . S
N549 C541 1.427 . S
N549 C547 1.384 . S
H550 C556 0.930 . S
H551 C560 0.930 . S
H552 C565 0.929 . S
H553 C563 0.929 . S
H554 C558 0.929 . S
H555 C564 0.929 . S
C556 H550 0.930 . S
C556 C557 1.367 . S
C556 C564 1.378 . S
C557 C556 1.367 . S
C557 C565 1.433 . S
C558 H554 0.929 . S
C558 C560 1.378 . S
C558 C562 1.350 . S
C559 C562 1.463 . S
C559 C564 1.350 . S
C559 N567 1.427 . S
C560 H551 0.930 . S
C560 C558 1.378 . S
C560 C561 1.367 . S
C561 C560 1.367 . S
C561 C563 1.433 . S
C562 C558 1.350 . S
C562 C559 1.463 . S
C562 N566 1.427 . S
C563 H553 0.929 . S
C563 C561 1.433 . S
C563 N566 1.384 . S
C564 H555 0.929 . S
C564 C556 1.378 . S
C564 C559 1.350 . S
C565 H552 0.929 . S
C565 C557 1.433 . S
C565 N567 1.384 . S
N566 C562 1.427 . S
N566 C563 1.384 . S
N567 C559 1.427 . S
N567 C565 1.384 . S
H568 C574 0.930 . S
H569 C578 0.930 . S
H570 C583 0.929 . S
H571 C581 0.929 . S
H572 C576 0.929 . S
H573 C582 0.929 . S
C574 H568 0.930 . S
C574 C575 1.367 . S
C574 C582 1.378 . S
C575 C574 1.367 . S
C575 C583 1.433 . S
C576 H572 0.929 . S
C576 C578 1.378 . S
C576 C580 1.350 . S
C577 C580 1.463 . S
C577 C582 1.350 . S
C577 N585 1.427 . S
C578 H569 0.930 . S
C578 C576 1.378 . S
C578 C579 1.367 . S
C579 C578 1.367 . S
C579 C581 1.433 . S
C580 C576 1.350 . S
C580 C577 1.463 . S
C580 N584 1.427 . S
C581 H571 0.929 . S
C581 C579 1.433 . S
C581 N584 1.384 . S
C582 H573 0.929 . S
C582 C574 1.378 . S
C582 C577 1.350 . S
C583 H570 0.929 . S
C583 C575 1.433 . S
C583 N585 1.384 . S
N584 C580 1.427 . S
N584 C581 1.384 . S
N585 C577 1.427 . S
N585 C583 1.384 . S
H586 C592 0.930 . S
H587 C596 0.930 . S
H588 C601 0.929 . S
H589 C599 0.929 . S
H590 C594 0.929 . S
H591 C600 0.929 . S
C592 H586 0.930 . S
C592 C593 1.367 . S
C592 C600 1.378 . S
C593 C592 1.367 . S
C593 C601 1.433 . S
C594 H590 0.929 . S
C594 C596 1.378 . S
C594 C598 1.350 . S
C595 C598 1.463 . S
C595 C600 1.350 . S
C595 N603 1.427 . S
C596 H587 0.930 . S
C596 C594 1.378 . S
C596 C597 1.367 . S
C597 C596 1.367 . S
C597 C599 1.433 . S
C598 C594 1.350 . S
C598 C595 1.463 . S
C598 N602 1.427 . S
C599 H589 0.929 . S
C599 C597 1.433 . S
C599 N602 1.384 . S
C600 H591 0.929 . S
C600 C592 1.378 . S
C600 C595 1.350 . S
C601 H588 0.929 . S
C601 C593 1.433 . S
C601 N603 1.384 . S
N602 C598 1.427 . S
N602 C599 1.384 . S
N603 C595 1.427 . S
N603 C601 1.384 . S
H604 C610 0.930 . S
H605 C614 0.930 . S
H606 C619 0.929 . S
H607 C617 0.929 . S
H608 C612 0.929 . S
H609 C618 0.929 . S
C610 H604 0.930 . S
C610 C611 1.367 . S
C610 C618 1.378 . S
C611 C610 1.367 . S
C611 C619 1.433 . S
C612 H608 0.929 . S
C612 C614 1.378 . S
C612 C616 1.350 . S
C613 C616 1.463 . S
C613 C618 1.350 . S
C613 N621 1.427 . S
C614 H605 0.930 . S
C614 C612 1.378 . S
C614 C615 1.367 . S
C615 C614 1.367 . S
C615 C617 1.433 . S
C616 C612 1.350 . S
C616 C613 1.463 . S
C616 N620 1.427 . S
C617 H607 0.929 . S
C617 C615 1.433 . S
C617 N620 1.384 . S
C618 H609 0.929 . S
C618 C610 1.378 . S
C618 C613 1.350 . S
C619 H606 0.929 . S
C619 C611 1.433 . S
C619 N621 1.384 . S
N620 C616 1.427 . S
N620 C617 1.384 . S
N621 C613 1.427 . S
N621 C619 1.384 . S
H622 C628 0.930 1_655 S
H623 C632 0.930 . S
H624 C637 0.929 . S
H625 C635 0.929 . S
H626 C630 0.929 . S
H627 C636 0.929 . S
C628 H622 0.930 1_455 S
C628 C629 1.367 . S
C628 C636 1.378 . S
C629 C628 1.367 . S
C629 C637 1.433 . S
C630 H626 0.929 . S
C630 C632 1.378 . S
C630 C634 1.350 . S
C631 C634 1.463 . S
C631 C636 1.350 . S
C631 N639 1.427 . S
C632 H623 0.930 . S
C632 C630 1.378 . S
C632 C633 1.367 . S
C633 C632 1.367 . S
C633 C635 1.433 . S
C634 C630 1.350 . S
C634 C631 1.463 . S
C634 N638 1.427 . S
C635 H625 0.929 . S
C635 C633 1.433 . S
C635 N638 1.384 . S
C636 H627 0.929 . S
C636 C628 1.378 . S
C636 C631 1.350 . S
C637 H624 0.929 . S
C637 C629 1.433 . S
C637 N639 1.384 . S
N638 C634 1.427 . S
N638 C635 1.384 . S
N639 C631 1.427 . S
N639 C637 1.384 . S
H640 C646 0.930 . S
H641 C650 0.930 . S
H642 C655 0.929 . S
H643 C653 0.929 . S
H644 C648 0.929 . S
H645 C654 0.929 . S
C646 H640 0.930 . S
C646 C647 1.367 . S
C646 C654 1.378 . S
C647 C646 1.367 . S
C647 C655 1.433 . S
C648 H644 0.929 . S
C648 C650 1.378 . S
C648 C652 1.350 . S
C649 C652 1.463 . S
C649 C654 1.350 . S
C649 N657 1.427 . S
C650 H641 0.930 . S
C650 C648 1.378 . S
C650 C651 1.367 . S
C651 C650 1.367 . S
C651 C653 1.433 . S
C652 C648 1.350 . S
C652 C649 1.463 . S
C652 N656 1.427 . S
C653 H643 0.929 . S
C653 C651 1.433 . S
C653 N656 1.384 . S
C654 H645 0.929 . S
C654 C646 1.378 . S
C654 C649 1.350 . S
C655 H642 0.929 . S
C655 C647 1.433 . S
C655 N657 1.384 . S
N656 C652 1.427 . S
N656 C653 1.384 . S
N657 C649 1.427 . S
N657 C655 1.384 . S
H658 C664 0.930 . S
H659 C668 0.930 . S
H660 C673 0.929 . S
H661 C671 0.929 . S
H662 C666 0.929 . S
H663 C672 0.929 . S
C664 H658 0.930 . S
C664 C665 1.367 . S
C664 C672 1.378 . S
C665 C664 1.367 . S
C665 C673 1.433 . S
C666 H662 0.929 . S
C666 C668 1.378 . S
C666 C670 1.350 . S
C667 C670 1.463 . S
C667 C672 1.350 . S
C667 N675 1.427 . S
C668 H659 0.930 . S
C668 C666 1.378 . S
C668 C669 1.367 . S
C669 C668 1.367 . S
C669 C671 1.433 . S
C670 C666 1.350 . S
C670 C667 1.463 . S
C670 N674 1.427 . S
C671 H661 0.929 . S
C671 C669 1.433 . S
C671 N674 1.384 . S
C672 H663 0.929 . S
C672 C664 1.378 . S
C672 C667 1.350 . S
C673 H660 0.929 . S
C673 C665 1.433 . S
C673 N675 1.384 . S
N674 C670 1.427 . S
N674 C671 1.384 . S
N675 C667 1.427 . S
N675 C673 1.384 . S
H676 C682 0.930 . S
H677 C686 0.930 1_565 S
H678 C691 0.929 . S
H679 C689 0.929 . S
H680 C684 0.929 . S
H681 C690 0.929 . S
C682 H676 0.930 . S
C682 C683 1.367 . S
C682 C690 1.378 . S
C683 C682 1.367 . S
C683 C691 1.433 . S
C684 H680 0.929 . S
C684 C686 1.378 . S
C684 C688 1.350 . S
C685 C688 1.463 . S
C685 C690 1.350 . S
C685 N693 1.427 . S
C686 H677 0.930 1_545 S
C686 C684 1.378 . S
C686 C687 1.367 . S
C687 C686 1.367 . S
C687 C689 1.433 . S
C688 C684 1.350 . S
C688 C685 1.463 . S
C688 N692 1.427 . S
C689 H679 0.929 . S
C689 C687 1.433 . S
C689 N692 1.384 . S
C690 H681 0.929 . S
C690 C682 1.378 . S
C690 C685 1.350 . S
C691 H678 0.929 . S
C691 C683 1.433 . S
C691 N693 1.384 . S
N692 C688 1.427 . S
N692 C689 1.384 . S
N693 C685 1.427 . S
N693 C691 1.384 . S
H694 C700 0.930 . S
H695 C704 0.930 . S
H696 C709 0.929 . S
H697 C707 0.929 . S
H698 C702 0.929 . S
H699 C708 0.929 . S
C700 H694 0.930 . S
C700 C701 1.367 . S
C700 C708 1.378 . S
C701 C700 1.367 . S
C701 C709 1.433 . S
C702 H698 0.929 . S
C702 C704 1.378 . S
C702 C706 1.350 . S
C703 C706 1.463 . S
C703 C708 1.350 . S
C703 N711 1.427 . S
C704 H695 0.930 . S
C704 C702 1.378 . S
C704 C705 1.367 . S
C705 C704 1.367 . S
C705 C707 1.433 . S
C706 C702 1.350 . S
C706 C703 1.463 . S
C706 N710 1.427 . S
C707 H697 0.929 . S
C707 C705 1.433 . S
C707 N710 1.384 . S
C708 H699 0.929 . S
C708 C700 1.378 . S
C708 C703 1.350 . S
C709 H696 0.929 . S
C709 C701 1.433 . S
C709 N711 1.384 . S
N710 C706 1.427 . S
N710 C707 1.384 . S
N711 C703 1.427 . S
N711 C709 1.384 . S
C431 C250 2.069 . S
C435 C22 2.063 . S
C449 C91 1.982 . S
C453 C287 1.979 . S
C467 C128 1.869 . S
C471 C356 1.872 . S
C485 C393 1.976 . S
C489 C197 1.982 . S
C503 C39 2.803 . S
C507 C145 2.808 . S
C521 C82 2.438 . S
C525 C188 2.450 . S
C539 C347 2.435 . S
C543 C241 2.428 . S
C557 C304 2.813 . S
C561 C410 2.831 . S
C575 C294 1.615 . S
C579 C38 1.574 . S
C593 C75 1.610 . S
C597 C357 1.710 . S
C611 C144 1.623 . S
C615 C400 1.673 . S
C629 C251 1.532 . S
C633 C181 1.468 . S
C647 C234 1.522 . S
C651 C92 1.599 . S
C665 C303 1.633 . S
C669 C135 1.695 . S
C683 C340 1.576 . S
C687 C198 1.656 . S
C701 C29 1.596 . S
C705 C409 1.552 . S
