# Generated by pormake.
# Topology wjf, (4)-cn, num edge types: 1
# Building blocks:
#     Node 0, Type 0, BuildingBlock: GALJAG_clean_sbu_0, # of connection points: 4
#     Node 1, Type 0, BuildingBlock: GALJAG_clean_sbu_0, # of connection points: 4
#     Node 2, Type 0, BuildingBlock: GALJAG_clean_sbu_0, # of connection points: 4
#     Node 3, Type 0, BuildingBlock: GALJAG_clean_sbu_0, # of connection points: 4
#     Node 4, Type 0, BuildingBlock: GALJAG_clean_sbu_0, # of connection points: 4
#     Node 5, Type 0, BuildingBlock: GALJAG_clean_sbu_0, # of connection points: 4
#     Node 6, Type 0, BuildingBlock: GALJAG_clean_sbu_0, # of connection points: 4
#     Node 7, Type 0, BuildingBlock: GALJAG_clean_sbu_0, # of connection points: 4
#     Node 8, Type 0, BuildingBlock: GALJAG_clean_sbu_0, # of connection points: 4
#     Node 9, Type 0, BuildingBlock: GALJAG_clean_sbu_0, # of connection points: 4
#     Node 10, Type 0, BuildingBlock: GALJAG_clean_sbu_0, # of connection points: 4
#     Node 11, Type 0, BuildingBlock: GALJAG_clean_sbu_0, # of connection points: 4
#     Edge 12, Type (0, 0), BuildingBlock: OJICUG_clean_linker_0, # of connection points: 2
#     Edge 13, Type (0, 0), BuildingBlock: OJICUG_clean_linker_0, # of connection points: 2
#     Edge 14, Type (0, 0), BuildingBlock: OJICUG_clean_linker_0, # of connection points: 2
#     Edge 15, Type (0, 0), BuildingBlock: OJICUG_clean_linker_0, # of connection points: 2
#     Edge 16, Type (0, 0), BuildingBlock: OJICUG_clean_linker_0, # of connection points: 2
#     Edge 17, Type (0, 0), BuildingBlock: OJICUG_clean_linker_0, # of connection points: 2
#     Edge 18, Type (0, 0), BuildingBlock: OJICUG_clean_linker_0, # of connection points: 2
#     Edge 19, Type (0, 0), BuildingBlock: OJICUG_clean_linker_0, # of connection points: 2
#     Edge 20, Type (0, 0), BuildingBlock: OJICUG_clean_linker_0, # of connection points: 2
#     Edge 21, Type (0, 0), BuildingBlock: OJICUG_clean_linker_0, # of connection points: 2
#     Edge 22, Type (0, 0), BuildingBlock: OJICUG_clean_linker_0, # of connection points: 2
#     Edge 23, Type (0, 0), BuildingBlock: OJICUG_clean_linker_0, # of connection points: 2
#     Edge 24, Type (0, 0), BuildingBlock: OJICUG_clean_linker_0, # of connection points: 2
#     Edge 25, Type (0, 0), BuildingBlock: OJICUG_clean_linker_0, # of connection points: 2
#     Edge 26, Type (0, 0), BuildingBlock: OJICUG_clean_linker_0, # of connection points: 2
#     Edge 27, Type (0, 0), BuildingBlock: OJICUG_clean_linker_0, # of connection points: 2
#     Edge 28, Type (0, 0), BuildingBlock: OJICUG_clean_linker_0, # of connection points: 2
#     Edge 29, Type (0, 0), BuildingBlock: OJICUG_clean_linker_0, # of connection points: 2
#     Edge 30, Type (0, 0), BuildingBlock: OJICUG_clean_linker_0, # of connection points: 2
#     Edge 31, Type (0, 0), BuildingBlock: OJICUG_clean_linker_0, # of connection points: 2
#     Edge 32, Type (0, 0), BuildingBlock: OJICUG_clean_linker_0, # of connection points: 2
#     Edge 33, Type (0, 0), BuildingBlock: OJICUG_clean_linker_0, # of connection points: 2
#     Edge 34, Type (0, 0), BuildingBlock: OJICUG_clean_linker_0, # of connection points: 2
#     Edge 35, Type (0, 0), BuildingBlock: OJICUG_clean_linker_0, # of connection points: 2
# Relax obj value: 0.086
# Max RMSD: 0.104
# Mean RMSD: 0.104
data_MOF--net-wjf--node1-GALJAG_clean_sbu_0--edge1-OJICUG_clean_linker_0
_symmetry_space_group_name_H-M    P1
_symmetry_Int_Tables_number       1
_symmetry_cell_setting            triclinic
loop_
_symmetry_equiv_pos_as_xyz
'x, y, z'
_cell_length_a     36.798381
_cell_length_b     36.821248
_cell_length_c     20.786957
_cell_angle_alpha  89.896654
_cell_angle_beta   90.034075
_cell_angle_gamma 119.93963
loop_
_atom_site_label
_atom_site_type_symbol
_atom_site_fract_x
_atom_site_fract_y
_atom_site_fract_z
_atom_type_partial_charge
In0 In 0.32202 0.37278 0.08537 0.0
O1 O 0.28607 0.40741 0.06906 0.0
O2 O 0.25308 0.34048 0.06268 0.0
C3 C 0.40213 0.43228 0.10616 0.0
C4 C 0.3277 0.35181 0.96407 0.0
C5 C 0.305 0.33445 0.20064 0.0
O6 O 0.37258 0.4405 0.10661 0.0
O7 O 0.39101 0.39449 0.09527 0.0
O8 O 0.3137 0.31966 0.15188 0.0
O9 O 0.30332 0.36737 0.19027 0.0
C10 C 0.25211 0.37414 0.05614 0.0
O11 O 0.32353 0.32775 0.01067 0.0
O12 O 0.33028 0.38612 0.97928 0.0
In13 In 0.9351 0.32032 0.41674 0.0
O14 O 0.97996 0.31389 0.34716 0.0
O15 O 0.92826 0.31807 0.30919 0.0
C16 C 0.95786 0.31077 0.53593 0.0
C17 C 0.86104 0.25117 0.39923 0.0
C18 C 0.95901 0.40232 0.41768 0.0
O19 O 0.97999 0.31485 0.48698 0.0
O20 O 0.92402 0.31046 0.52437 0.0
O21 O 0.92102 0.37419 0.42426 0.0
O22 O 0.98429 0.3889 0.41142 0.0
C23 C 0.95967 0.31402 0.29798 0.0
O24 O 0.8644 0.28709 0.40229 0.0
O25 O 0.8945 0.25034 0.4095 0.0
In26 In 0.60383 0.94158 0.75963 0.0
O27 O 0.56709 0.87098 0.74045 0.0
O28 O 0.63386 0.90401 0.7316 0.0
C29 C 0.54691 0.9642 0.78804 0.0
C30 C 0.62047 0.96981 0.6384 0.0
C31 C 0.644 0.96209 0.87312 0.0
O32 O 0.53721 0.926 0.78462 0.0
O33 O 0.58517 0.99034 0.77836 0.0
O34 O 0.65728 0.98656 0.82508 0.0
O35 O 0.61156 0.92711 0.86279 0.0
C36 C 0.59988 0.86985 0.72527 0.0
O37 O 0.64981 0.97932 0.67854 0.0
O38 O 0.5839 0.94809 0.66051 0.0
In39 In 0.656 0.61646 0.08276 0.0
O40 O 0.66612 0.664 0.00303 0.0
O41 O 0.62585 0.59867 0.98569 0.0
C42 C 0.67574 0.65659 0.19648 0.0
C43 C 0.72127 0.60928 0.04325 0.0
C44 C 0.57697 0.55792 0.11072 0.0
O45 O 0.66351 0.66921 0.14894 0.0
O46 O 0.67976 0.62508 0.1854 0.0
O47 O 0.60606 0.54913 0.10556 0.0
O48 O 0.58826 0.59618 0.10328 0.0
C49 C 0.64304 0.63544 0.96372 0.0
O50 O 0.68801 0.57787 0.06384 0.0
O51 O 0.72211 0.64388 0.04704 0.0
In52 In 0.04159 0.66149 0.41254 0.0
O53 O 0.11206 0.69385 0.39582 0.0
O54 O 0.08394 0.73154 0.41314 0.0
C55 C 0.01609 0.57938 0.40959 0.0
C56 C 0.0149 0.66821 0.29539 0.0
C57 C 0.02126 0.66497 0.5356 0.0
O58 O 0.05448 0.6071 0.41298 0.0
O59 O -0.00905 0.59329 0.40663 0.0
O60 O 0.00615 0.67627 0.49008 0.0
O61 O 0.04724 0.65393 0.51873 0.0
C62 C 0.11663 0.73024 0.39857 0.0
O63 O -0.00612 0.66531 0.34542 0.0
O64 O 0.04814 0.66718 0.30517 0.0
In65 In 0.36805 0.04083 0.75494 0.0
O66 O 0.32263 0.00365 0.67307 0.0
O67 O 0.38868 0.03444 0.65638 0.0
C68 C 0.32737 0.01993 0.8681 0.0
C69 C 0.37309 0.11309 0.72016 0.0
C70 C 0.42473 0.01806 0.78482 0.0
O71 O 0.31442 -0.0045 0.82013 0.0
O72 O 0.35954 0.05512 0.85771 0.0
O73 O 0.43448 0.05627 0.7811 0.0
O74 O 0.38655 -0.00803 0.77444 0.0
C75 C 0.35228 0.01308 0.63353 0.0
O76 O 0.40539 0.11151 0.73701 0.0
O77 O 0.33884 0.07901 0.72504 0.0
In78 In 0.60743 0.66328 0.57129 0.0
O79 O 0.56964 0.69636 0.58791 0.0
O80 O 0.63633 0.73098 0.5979 0.0
C81 C 0.55135 0.58303 0.54671 0.0
C82 C 0.62409 0.65343 0.69324 0.0
C83 C 0.64716 0.68175 0.45745 0.0
O84 O 0.54108 0.61118 0.54832 0.0
O85 O 0.58982 0.59584 0.55582 0.0
O86 O 0.66095 0.67152 0.50597 0.0
O87 O 0.61444 0.68394 0.46744 0.0
C88 C 0.60195 0.73059 0.60308 0.0
O89 O 0.65352 0.67256 0.65291 0.0
O90 O 0.58757 0.63864 0.671 0.0
In91 In 0.93474 0.6079 0.91673 0.0
O92 O 0.86409 0.5701 0.93217 0.0
O93 O 0.8924 0.63571 0.9136 0.0
C94 C 0.95892 0.5502 0.92051 0.0
C95 C 0.96089 0.64098 0.03416 0.0
C96 C 0.95764 0.63339 0.7948 0.0
O97 O 0.92079 0.54029 0.91523 0.0
O98 O 0.98444 0.58902 0.92502 0.0
O99 O 0.97096 0.65924 0.84097 0.0
O100 O 0.93226 0.59595 0.81029 0.0
C101 C 0.85959 0.60194 0.92825 0.0
O102 O 0.98244 0.65872 0.98437 0.0
O103 O 0.92734 0.60718 0.02407 0.0
In104 In 0.32142 0.94671 0.24294 0.0
O105 O 0.28893 0.87618 0.2624 0.0
O106 O 0.25521 0.90864 0.27828 0.0
C107 C 0.40019 0.96715 0.21285 0.0
C108 C 0.33482 0.97782 0.36247 0.0
C109 C 0.30082 0.96693 0.12956 0.0
O110 O 0.37116 0.9293 0.2181 0.0
O111 O 0.38898 -0.00591 0.22156 0.0
O112 O 0.31337 -0.00813 0.17687 0.0
O113 O 0.297 0.93148 0.14074 0.0
C114 C 0.25572 0.87471 0.28251 0.0
O115 O 0.31236 0.98437 0.32316 0.0
O116 O 0.35138 0.95771 0.34022 0.0
In117 In 0.3733 0.32581 0.57613 0.0
O118 O 0.40923 0.29104 0.59242 0.0
O119 O 0.34214 0.25656 0.59446 0.0
C120 C 0.43087 0.40663 0.55564 0.0
C121 C 0.35155 0.32951 0.69786 0.0
C122 C 0.33487 0.30847 0.46111 0.0
O123 O 0.44045 0.37804 0.55508 0.0
O124 O 0.39277 0.39422 0.56665 0.0
O125 O 0.31941 0.316 0.51024 0.0
O126 O 0.3687 0.30837 0.47088 0.0
C127 C 0.37609 0.25627 0.60214 0.0
O128 O 0.3276 0.32561 0.6513 0.0
O129 O 0.38612 0.33268 0.68248 0.0
In130 In 0.03644 0.3692 0.91703 0.0
O131 O -0.00929 0.31824 0.98639 0.0
O132 O 0.04199 0.37421 0.02456 0.0
C133 C 0.01442 0.33728 0.79763 0.0
C134 C 0.10993 0.37327 0.93828 0.0
C135 C 0.01357 0.42813 0.91436 0.0
O136 O -0.00821 0.31941 0.84626 0.0
O137 O 0.04853 0.37028 0.8097 0.0
O138 O 0.05149 0.43741 0.90907 0.0
O139 O -0.01218 0.38956 0.92021 0.0
C140 C 0.01051 0.33884 0.03568 0.0
O141 O 0.10702 0.40597 0.93202 0.0
O142 O 0.07634 0.33904 0.92887 0.0
In143 In 0.65334 0.03606 0.24727 0.0
O144 O 0.68676 0.1066 0.26633 0.0
O145 O 0.72011 0.07352 0.28017 0.0
C146 C 0.57482 0.01591 0.21613 0.0
C147 C 0.63966 0.00572 0.36742 0.0
C148 C 0.67313 0.01515 0.13415 0.0
O149 O 0.6039 0.05374 0.22122 0.0
O150 O 0.58581 0.98888 0.22583 0.0
O151 O 0.66068 0.99037 0.18181 0.0
O152 O 0.67733 0.05079 0.14493 0.0
C153 C 0.72013 0.1077 0.2848 0.0
O154 O 0.66147 -0.00183 0.32832 0.0
O155 O 0.6239 0.02651 0.34474 0.0
C156 C 0.28776 0.33207 0.3173 0.0
C157 C 0.30378 0.31898 0.26662 0.0
H158 H 0.28414 0.33791 0.41932 0.0
C159 C 0.32425 0.2964 0.2809 0.0
H160 H 0.27171 0.34942 0.30757 0.0
C161 C 0.332 0.29047 0.34481 0.0
C162 C 0.31865 0.30627 0.39543 0.0
H163 H 0.33698 0.286 0.2428 0.0
H164 H 0.35031 0.27542 0.3545 0.0
C165 C 0.29477 0.32538 0.38124 0.0
C166 C 0.01528 0.33095 0.61629 0.0
C167 C 0.97224 0.31108 0.60233 0.0
H168 H 0.06247 0.3552 0.68972 0.0
C169 C 0.94322 0.29557 0.65316 0.0
H170 H 0.0383 0.34335 0.57798 0.0
C171 C 0.95702 0.3015 0.71699 0.0
C172 C 7e-05 0.324 0.73102 0.0
H173 H 0.90984 0.28004 0.64362 0.0
H174 H 0.93398 0.29067 0.75529 0.0
C175 C 0.02909 0.33782 0.68015 0.0
C176 C 0.68473 0.0181 0.95384 0.0
C177 C 0.66059 0.97534 0.93882 0.0
H178 H 0.70791 0.06437 0.02835 0.0
C179 C 0.64718 0.9457 0.98886 0.0
H180 H 0.69554 0.04164 0.91626 0.0
C181 C 0.6547 0.95867 0.05303 0.0
C182 C 0.67522 0.00153 0.06816 0.0
H183 H 0.62877 0.91248 0.9786 0.0
H184 H 0.64167 0.93517 0.09063 0.0
C185 C 0.69174 0.0311 0.01803 0.0
C186 C 0.69392 0.65877 0.31279 0.0
C187 C 0.67784 0.67223 0.26254 0.0
H188 H 0.69758 0.65216 0.41465 0.0
C189 C 0.65789 0.69519 0.27749 0.0
H190 H 0.70963 0.64117 0.30261 0.0
C191 C 0.65053 0.70099 0.34158 0.0
C192 C 0.66358 0.6845 0.39176 0.0
H193 H 0.64521 0.70599 0.23979 0.0
H194 H 0.63256 0.71633 0.35171 0.0
C195 C 0.68712 0.66514 0.37694 0.0
C196 C 0.97831 0.67821 0.69489 0.0
C197 C 0.97502 0.64382 0.72934 0.0
H198 H -0.00539 0.71147 0.60449 0.0
C199 C -0.01229 0.61766 0.70029 0.0
H200 H 0.9685 0.69866 0.71659 0.0
C201 C 0.00367 0.62564 0.63801 0.0
C202 C 0.00604 0.65919 0.6025 0.0
H203 H 0.98558 0.59105 0.7261 0.0
H204 H 0.01318 0.60476 0.61699 0.0
C205 C -0.00697 0.6854 0.6311 0.0
C206 C 0.28186 0.95057 0.01359 0.0
C207 C 0.29801 0.98022 0.06351 0.0
H208 H 0.27769 0.94003 0.91185 0.0
C209 C 0.31733 0.02301 0.04811 0.0
H210 H 0.2666 0.91734 0.02411 0.0
C211 C 0.32408 0.03599 0.98385 0.0
C212 C 0.3111 0.00638 0.93395 0.0
H213 H 0.33002 0.04657 0.08553 0.0
H214 H 0.34165 0.06924 0.97335 0.0
C215 C 0.2881 0.96355 0.9493 0.0
C216 C 0.18264 0.41223 0.98362 0.0
C217 C 0.14766 0.37426 0.96449 0.0
H218 H 0.24311 0.44201 0.02875 0.0
C219 C 0.14714 0.3365 0.97674 0.0
H220 H 0.18368 0.44179 0.97538 0.0
C221 C 0.18069 0.33658 0.00801 0.0
C222 C 0.21557 0.37444 0.02758 0.0
H223 H 0.12047 0.30669 0.96308 0.0
H224 H 0.17934 0.30689 0.01648 0.0
C225 C 0.21638 0.41233 0.01485 0.0
C226 C 0.78871 0.21691 0.35198 0.0
C227 C 0.82295 0.2139 0.37549 0.0
H228 H 0.72917 0.18557 0.30384 0.0
C229 C 0.82266 0.17581 0.36959 0.0
H230 H 0.78831 0.24606 0.35542 0.0
C231 C 0.78937 0.14168 0.33948 0.0
C232 C 0.75549 0.14477 0.31474 0.0
H233 H 0.84866 0.17255 0.38695 0.0
H234 H 0.79034 0.11285 0.33547 0.0
C235 C 0.75514 0.18252 0.32188 0.0
C236 C 0.56138 0.79692 0.67974 0.0
C237 C 0.59921 0.83308 0.696 0.0
H238 H 0.53241 0.73589 0.63632 0.0
C239 C 0.63735 0.83549 0.67965 0.0
H240 H 0.53153 0.79447 0.69124 0.0
C241 C 0.63786 0.80258 0.64781 0.0
C242 C 0.60023 0.76633 0.63159 0.0
H243 H 0.66706 0.86304 0.69106 0.0
H244 H 0.66793 0.80549 0.63646 0.0
C245 C 0.56189 0.7637 0.64772 0.0
C246 C 0.78807 0.64155 0.98175 0.0
C247 C 0.75552 0.60608 0.01201 0.0
H248 H 0.84574 0.66763 0.92991 0.0
C249 C 0.75548 0.56795 0.00957 0.0
H250 H 0.78865 0.67126 0.9819 0.0
C251 C 0.78834 0.56581 0.97926 0.0
C252 C 0.8215 0.60174 0.9507 0.0
H253 H 0.73048 0.54002 0.03186 0.0
H254 H 0.78843 0.53644 0.97994 0.0
C255 C 0.82059 0.63938 0.95129 0.0
C256 C 0.15576 0.80638 0.3736 0.0
C257 C 0.15474 0.76779 0.37542 0.0
H258 H 0.18804 0.86997 0.34193 0.0
C259 C 0.18794 0.76465 0.34774 0.0
H260 H 0.1306 0.80976 0.39426 0.0
C261 C 0.22101 0.79935 0.31724 0.0
C262 C 0.22116 0.83752 0.31373 0.0
H263 H 0.18776 0.73515 0.34802 0.0
H264 H 0.24607 0.79615 0.29573 0.0
C265 C 0.18851 0.84079 0.34296 0.0
C266 C 0.41318 0.18707 0.679 0.0
C267 C 0.37479 0.15045 0.69105 0.0
H268 H 0.44387 0.24946 0.6402 0.0
C269 C 0.33739 0.14851 0.67112 0.0
H270 H 0.44251 0.18922 0.69329 0.0
C271 C 0.33819 0.18247 0.64027 0.0
C272 C 0.3764 0.21926 0.62866 0.0
H273 H 0.3073 0.1206 0.67917 0.0
H274 H 0.30868 0.18002 0.62631 0.0
C275 C 0.41398 0.22128 0.64803 0.0
C276 C 0.35647 0.31511 0.8135 0.0
C277 C 0.34098 0.33085 0.76562 0.0
H278 H 0.36323 0.30834 0.91472 0.0
C279 C 0.31821 0.35038 0.78348 0.0
H280 H 0.374 0.29973 0.80059 0.0
C281 C 0.31311 0.35626 0.8485 0.0
C282 C 0.32957 0.34152 0.89638 0.0
H283 H 0.30613 0.36283 0.74734 0.0
H284 H 0.29685 0.37294 0.86142 0.0
C285 C 0.35022 0.31983 0.87854 0.0
C286 C 0.01522 0.33202 0.21567 0.0
C287 C 0.97262 0.3128 0.2316 0.0
H288 H 0.06063 0.3557 0.13976 0.0
C289 C 0.94236 0.29695 0.18242 0.0
H290 H 0.03904 0.34457 0.25281 0.0
C291 C 0.9546 0.3024 0.11793 0.0
C292 C -0.00275 0.32479 0.10201 0.0
H293 H 0.90924 0.2818 0.19385 0.0
H294 H 0.93083 0.29172 0.08075 0.0
C295 C 0.02748 0.33849 0.15119 0.0
C296 C 0.59538 0.98233 0.5348 0.0
C297 C 0.62714 0.98059 0.56963 0.0
H298 H 0.5746 -0.00856 0.44339 0.0
C299 C 0.66281 0.98559 0.53708 0.0
H300 H 0.56744 0.97831 0.55872 0.0
C301 C 0.66636 -0.00806 0.47031 0.0
C302 C 0.63468 -0.00578 0.43591 0.0
H303 H 0.6874 0.98374 0.56295 0.0
H304 H 0.69421 -0.00388 0.44593 0.0
C305 C 0.59932 0.98952 0.4688 0.0
C306 C 0.66707 0.67888 0.79425 0.0
C307 C 0.63055 0.64946 0.76213 0.0
H308 H 0.69924 0.69837 0.88501 0.0
C309 C 0.59792 0.61708 0.79735 0.0
H310 H 0.69239 0.70444 0.76807 0.0
C311 C 0.60184 0.61359 0.86323 0.0
C312 C 0.63814 0.64286 0.89565 0.0
H313 H 0.56933 0.5941 0.77382 0.0
H314 H 0.57643 0.58774 0.88887 0.0
C315 C 0.67068 0.67583 0.86096 0.0
C316 C 0.95806 0.64897 0.21455 0.0
C317 C 0.00087 0.669 0.22937 0.0
H318 H 0.91181 0.62421 0.13998 0.0
C319 C 0.0305 0.68513 0.17924 0.0
H320 H 0.93468 0.63623 0.25233 0.0
C321 C 0.01752 0.67891 0.11507 0.0
C322 C 0.97474 0.6557 0.10024 0.0
H323 H 0.06378 0.70096 0.18965 0.0
H324 H 0.04094 0.68978 0.07733 0.0
C325 C 0.94508 0.64198 0.15036 0.0
C326 C 0.3749 -0.00531 0.46417 0.0
C327 C 0.33943 0.98938 0.43087 0.0
H328 H 0.40643 0.00612 0.55441 0.0
C329 C 0.30724 0.99094 0.46487 0.0
H330 H 0.40001 -0.00667 0.43909 0.0
C331 C 0.3104 -0.00286 0.53165 0.0
C332 C 0.34615 0.00266 0.56464 0.0
H333 H 0.27929 0.98626 0.4402 0.0
H334 H 0.2854 -0.00163 0.5572 0.0
C335 C 0.37842 0.00169 0.53019 0.0
C336 C 0.4589 0.50698 0.11885 0.0
C337 C 0.44665 0.46437 0.11437 0.0
H338 H 0.50998 0.57011 0.12177 0.0
C339 C 0.47761 0.45261 0.11449 0.0
H340 H 0.43572 0.51692 0.11914 0.0
C341 C 0.52009 0.48297 0.11624 0.0
C342 C 0.53239 0.52567 0.11772 0.0
H343 H 0.46909 0.41993 0.11153 0.0
H344 H 0.54324 0.47303 0.1142 0.0
C345 C 0.50141 0.53738 0.12043 0.0
C346 C 0.0303 0.51978 0.41067 0.0
C347 C 0.0014 0.53408 0.41098 0.0
H348 H 0.03943 0.46683 0.41252 0.0
C349 C 0.95827 0.50472 0.41386 0.0
H350 H 0.0637 0.54168 0.40855 0.0
C351 C 0.94432 0.4618 0.41659 0.0
C352 C 0.97327 0.44753 0.41611 0.0
H353 H 0.93527 0.51489 0.41436 0.0
H354 H 0.91094 0.43984 0.41875 0.0
C355 C 0.01636 0.47692 0.41302 0.0
C356 C 0.47259 0.94827 0.79729 0.0
C357 C 0.5156 0.97775 0.79624 0.0
H358 H 0.41004 0.93804 0.79492 0.0
C359 C 0.52846 0.0207 0.79767 0.0
H360 H 0.46177 0.91499 0.79636 0.0
C361 C 0.49888 0.03395 0.79687 0.0
C362 C 0.45591 0.00447 0.7945 0.0
H363 H 0.56145 0.04419 0.79718 0.0
H364 H 0.50973 0.06723 0.79568 0.0
C365 C 0.44302 0.96152 0.79637 0.0
C366 C 0.53388 0.50824 0.54056 0.0
C367 C 0.52044 0.53794 0.54132 0.0
H368 H 0.51601 0.44324 0.5442 0.0
C369 C 0.47733 0.52396 0.54225 0.0
H370 H 0.56697 0.51813 0.53972 0.0
C371 C 0.44825 0.48114 0.54515 0.0
C372 C 0.46172 0.4515 0.54691 0.0
H373 H 0.46607 0.54609 0.54288 0.0
H374 H 0.4152 0.47133 0.54752 0.0
C375 C 0.50476 0.46538 0.54318 0.0
C376 C 0.01598 0.53208 0.91832 0.0
C377 C 0.97296 0.51903 0.91944 0.0
H378 H 0.06266 0.51349 0.91528 0.0
C379 C 0.94357 0.47603 0.9183 0.0
H380 H 0.03936 0.56508 0.91891 0.0
C381 C 0.95692 0.44661 0.91639 0.0
C382 C -8e-05 0.45961 0.91517 0.0
H383 H 0.91024 0.46508 0.919 0.0
H384 H 0.93349 0.41362 0.91581 0.0
C385 C 0.02935 0.50261 0.91601 0.0
C386 C 0.49951 0.96104 0.20393 0.0
C387 C 0.53045 0.00368 0.20599 0.0
H388 H 0.43387 0.91596 0.20395 0.0
C389 C 0.51816 0.03411 0.2036 0.0
H390 H 0.50807 0.93684 0.20537 0.0
C391 C 0.47565 0.02211 0.20272 0.0
C392 C 0.44469 0.97946 0.2042 0.0
H393 H 0.5413 0.06718 0.20489 0.0
H394 H 0.46708 0.04629 0.2033 0.0
C395 C 0.45701 0.94904 0.20303 0.0
loop_
_geom_bond_atom_site_label_1
_geom_bond_atom_site_label_2
_geom_bond_distance
_geom_bond_site_symmetry_2
_ccdc_geom_bond_type
In0 O1 2.294 . S
In0 O2 2.326 . S
In0 O6 2.266 . S
In0 O7 2.326 . S
In0 O8 2.266 . S
In0 O9 2.326 . S
In0 O11 2.294 . S
In0 O12 2.326 1_554 S
O1 In0 2.294 . S
O1 C10 1.240 . S
O2 In0 2.326 . S
O2 C10 1.252 . S
C3 O6 1.252 . S
C3 O7 1.260 . S
C4 O11 1.240 1_556 S
C4 O12 1.252 . S
C5 O8 1.252 . S
C5 O9 1.260 . S
O6 In0 2.266 . S
O6 C3 1.252 . S
O7 In0 2.326 . S
O7 C3 1.260 . S
O8 In0 2.266 . S
O8 C5 1.252 . S
O9 In0 2.326 . S
O9 C5 1.260 . S
C10 O1 1.240 . S
C10 O2 1.252 . S
O11 In0 2.294 . S
O11 C4 1.240 1_554 S
O12 In0 2.326 1_556 S
O12 C4 1.252 . S
In13 O14 2.294 1_655 S
In13 O15 2.326 . S
In13 O19 2.266 1_655 S
In13 O20 2.326 . S
In13 O21 2.266 . S
In13 O22 2.326 1_655 S
In13 O24 2.294 . S
In13 O25 2.326 . S
O14 In13 2.294 1_455 S
O14 C23 1.240 1_455 S
O15 In13 2.326 . S
O15 C23 1.252 . S
C16 O19 1.252 1_655 S
C16 O20 1.260 . S
C17 O24 1.240 . S
C17 O25 1.252 . S
C18 O21 1.252 . S
C18 O22 1.260 1_655 S
O19 In13 2.266 1_455 S
O19 C16 1.252 1_455 S
O20 In13 2.326 . S
O20 C16 1.260 . S
O21 In13 2.266 . S
O21 C18 1.252 . S
O22 In13 2.326 1_455 S
O22 C18 1.260 1_455 S
C23 O14 1.240 1_655 S
C23 O15 1.252 . S
O24 In13 2.294 . S
O24 C17 1.240 . S
O25 In13 2.326 . S
O25 C17 1.252 . S
In26 O27 2.294 . S
In26 O28 2.326 . S
In26 O32 2.266 . S
In26 O33 2.326 1_565 S
In26 O34 2.266 1_565 S
In26 O35 2.326 . S
In26 O37 2.294 1_565 S
In26 O38 2.326 . S
O27 In26 2.294 . S
O27 C36 1.240 . S
O28 In26 2.326 . S
O28 C36 1.252 . S
C29 O32 1.252 . S
C29 O33 1.260 1_565 S
C30 O37 1.240 1_565 S
C30 O38 1.252 . S
C31 O34 1.252 1_565 S
C31 O35 1.260 . S
O32 In26 2.266 . S
O32 C29 1.252 . S
O33 In26 2.326 1_545 S
O33 C29 1.260 1_545 S
O34 In26 2.266 1_545 S
O34 C31 1.252 1_545 S
O35 In26 2.326 . S
O35 C31 1.260 . S
C36 O27 1.240 . S
C36 O28 1.252 . S
O37 In26 2.294 1_545 S
O37 C30 1.240 1_545 S
O38 In26 2.326 . S
O38 C30 1.252 . S
In39 O40 2.294 . S
In39 O41 2.326 1_554 S
In39 O45 2.266 . S
In39 O46 2.326 . S
In39 O47 2.266 . S
In39 O48 2.326 . S
In39 O50 2.294 . S
In39 O51 2.326 . S
O40 In39 2.294 . S
O40 C49 1.240 1_554 S
O41 In39 2.326 1_556 S
O41 C49 1.252 . S
C42 O45 1.252 . S
C42 O46 1.260 . S
C43 O50 1.240 . S
C43 O51 1.252 . S
C44 O47 1.252 . S
C44 O48 1.260 . S
O45 In39 2.266 . S
O45 C42 1.252 . S
O46 In39 2.326 . S
O46 C42 1.260 . S
O47 In39 2.266 . S
O47 C44 1.252 . S
O48 In39 2.326 . S
O48 C44 1.260 . S
C49 O40 1.240 1_556 S
C49 O41 1.252 . S
O50 In39 2.294 . S
O50 C43 1.240 . S
O51 In39 2.326 . S
O51 C43 1.252 . S
In52 O53 2.294 . S
In52 O54 2.326 . S
In52 O58 2.266 . S
In52 O59 2.326 1_455 S
In52 O60 2.266 1_455 S
In52 O61 2.326 . S
In52 O63 2.294 1_455 S
In52 O64 2.326 . S
O53 In52 2.294 . S
O53 C62 1.240 . S
O54 In52 2.326 . S
O54 C62 1.252 . S
C55 O58 1.252 . S
C55 O59 1.260 1_455 S
C56 O63 1.240 1_455 S
C56 O64 1.252 . S
C57 O60 1.252 1_455 S
C57 O61 1.260 . S
O58 In52 2.266 . S
O58 C55 1.252 . S
O59 In52 2.326 1_655 S
O59 C55 1.260 1_655 S
O60 In52 2.266 1_655 S
O60 C57 1.252 1_655 S
O61 In52 2.326 . S
O61 C57 1.260 . S
C62 O53 1.240 . S
C62 O54 1.252 . S
O63 In52 2.294 1_655 S
O63 C56 1.240 1_655 S
O64 In52 2.326 . S
O64 C56 1.252 . S
In65 O66 2.294 1_545 S
In65 O67 2.326 . S
In65 O71 2.266 1_545 S
In65 O72 2.326 . S
In65 O73 2.266 . S
In65 O74 2.326 1_545 S
In65 O76 2.294 . S
In65 O77 2.326 . S
O66 In65 2.294 1_565 S
O66 C75 1.240 1_565 S
O67 In65 2.326 . S
O67 C75 1.252 . S
C68 O71 1.252 1_545 S
C68 O72 1.260 . S
C69 O76 1.240 . S
C69 O77 1.252 . S
C70 O73 1.252 . S
C70 O74 1.260 1_545 S
O71 In65 2.266 1_565 S
O71 C68 1.252 1_565 S
O72 In65 2.326 . S
O72 C68 1.260 . S
O73 In65 2.266 . S
O73 C70 1.252 . S
O74 In65 2.326 1_565 S
O74 C70 1.260 1_565 S
C75 O66 1.240 1_545 S
C75 O67 1.252 . S
O76 In65 2.294 . S
O76 C69 1.240 . S
O77 In65 2.326 . S
O77 C69 1.252 . S
In78 O79 2.294 . S
In78 O80 2.326 . S
In78 O84 2.266 . S
In78 O85 2.326 . S
In78 O86 2.266 . S
In78 O87 2.326 . S
In78 O89 2.294 . S
In78 O90 2.326 . S
O79 In78 2.294 . S
O79 C88 1.240 . S
O80 In78 2.326 . S
O80 C88 1.252 . S
C81 O84 1.252 . S
C81 O85 1.260 . S
C82 O89 1.240 . S
C82 O90 1.252 . S
C83 O86 1.252 . S
C83 O87 1.260 . S
O84 In78 2.266 . S
O84 C81 1.252 . S
O85 In78 2.326 . S
O85 C81 1.260 . S
O86 In78 2.266 . S
O86 C83 1.252 . S
O87 In78 2.326 . S
O87 C83 1.260 . S
C88 O79 1.240 . S
C88 O80 1.252 . S
O89 In78 2.294 . S
O89 C82 1.240 . S
O90 In78 2.326 . S
O90 C82 1.252 . S
In91 O92 2.294 . S
In91 O93 2.326 . S
In91 O97 2.266 . S
In91 O98 2.326 1_655 S
In91 O99 2.266 1_655 S
In91 O100 2.326 . S
In91 O102 2.294 1_655 S
In91 O103 2.326 1_556 S
O92 In91 2.294 . S
O92 C101 1.240 . S
O93 In91 2.326 . S
O93 C101 1.252 . S
C94 O97 1.252 . S
C94 O98 1.260 1_655 S
C95 O102 1.240 1_654 S
C95 O103 1.252 . S
C96 O99 1.252 1_655 S
C96 O100 1.260 . S
O97 In91 2.266 . S
O97 C94 1.252 . S
O98 In91 2.326 1_455 S
O98 C94 1.260 1_455 S
O99 In91 2.266 1_455 S
O99 C96 1.252 1_455 S
O100 In91 2.326 . S
O100 C96 1.260 . S
C101 O92 1.240 . S
C101 O93 1.252 . S
O102 In91 2.294 1_455 S
O102 C95 1.240 1_456 S
O103 In91 2.326 1_554 S
O103 C95 1.252 . S
In104 O105 2.294 . S
In104 O106 2.326 . S
In104 O110 2.266 . S
In104 O111 2.326 1_565 S
In104 O112 2.266 1_565 S
In104 O113 2.326 . S
In104 O115 2.294 1_565 S
In104 O116 2.326 . S
O105 In104 2.294 . S
O105 C114 1.240 . S
O106 In104 2.326 . S
O106 C114 1.252 . S
C107 O110 1.252 . S
C107 O111 1.260 1_565 S
C108 O115 1.240 1_565 S
C108 O116 1.252 . S
C109 O112 1.252 1_565 S
C109 O113 1.260 . S
O110 In104 2.266 . S
O110 C107 1.252 . S
O111 In104 2.326 1_545 S
O111 C107 1.260 1_545 S
O112 In104 2.266 1_545 S
O112 C109 1.252 1_545 S
O113 In104 2.326 . S
O113 C109 1.260 . S
C114 O105 1.240 . S
C114 O106 1.252 . S
O115 In104 2.294 1_545 S
O115 C108 1.240 1_545 S
O116 In104 2.326 . S
O116 C108 1.252 . S
In117 O118 2.294 . S
In117 O119 2.326 . S
In117 O123 2.266 . S
In117 O124 2.326 . S
In117 O125 2.266 . S
In117 O126 2.326 . S
In117 O128 2.294 . S
In117 O129 2.326 . S
O118 In117 2.294 . S
O118 C127 1.240 . S
O119 In117 2.326 . S
O119 C127 1.252 . S
C120 O123 1.252 . S
C120 O124 1.260 . S
C121 O128 1.240 . S
C121 O129 1.252 . S
C122 O125 1.252 . S
C122 O126 1.260 . S
O123 In117 2.266 . S
O123 C120 1.252 . S
O124 In117 2.326 . S
O124 C120 1.260 . S
O125 In117 2.266 . S
O125 C122 1.252 . S
O126 In117 2.326 . S
O126 C122 1.260 . S
C127 O118 1.240 . S
C127 O119 1.252 . S
O128 In117 2.294 . S
O128 C121 1.240 . S
O129 In117 2.326 . S
O129 C121 1.252 . S
In130 O131 2.294 1_455 S
In130 O132 2.326 1_556 S
In130 O136 2.266 1_455 S
In130 O137 2.326 . S
In130 O138 2.266 . S
In130 O139 2.326 1_455 S
In130 O141 2.294 . S
In130 O142 2.326 . S
O131 In130 2.294 1_655 S
O131 C140 1.240 1_656 S
O132 In130 2.326 1_554 S
O132 C140 1.252 . S
C133 O136 1.252 1_455 S
C133 O137 1.260 . S
C134 O141 1.240 . S
C134 O142 1.252 . S
C135 O138 1.252 . S
C135 O139 1.260 1_455 S
O136 In130 2.266 1_655 S
O136 C133 1.252 1_655 S
O137 In130 2.326 . S
O137 C133 1.260 . S
O138 In130 2.266 . S
O138 C135 1.252 . S
O139 In130 2.326 1_655 S
O139 C135 1.260 1_655 S
C140 O131 1.240 1_454 S
C140 O132 1.252 . S
O141 In130 2.294 . S
O141 C134 1.240 . S
O142 In130 2.326 . S
O142 C134 1.252 . S
In143 O144 2.294 . S
In143 O145 2.326 . S
In143 O149 2.266 . S
In143 O150 2.326 1_545 S
In143 O151 2.266 1_545 S
In143 O152 2.326 . S
In143 O154 2.294 1_545 S
In143 O155 2.326 . S
O144 In143 2.294 . S
O144 C153 1.240 . S
O145 In143 2.326 . S
O145 C153 1.252 . S
C146 O149 1.252 . S
C146 O150 1.260 1_545 S
C147 O154 1.240 1_545 S
C147 O155 1.252 . S
C148 O151 1.252 1_545 S
C148 O152 1.260 . S
O149 In143 2.266 . S
O149 C146 1.252 . S
O150 In143 2.326 1_565 S
O150 C146 1.260 1_565 S
O151 In143 2.266 1_565 S
O151 C148 1.252 1_565 S
O152 In143 2.326 . S
O152 C148 1.260 . S
C153 O144 1.240 . S
C153 O145 1.252 . S
O154 In143 2.294 1_565 S
O154 C147 1.240 1_565 S
O155 In143 2.326 . S
O155 C147 1.252 . S
C156 C157 1.387 . S
C156 H160 0.950 . S
C156 C165 1.390 . S
C157 C156 1.387 . S
C157 C159 1.387 . S
H158 C165 0.950 . S
C159 C157 1.387 . S
C159 C161 1.390 . S
C159 H163 0.950 . S
H160 C156 0.950 . S
C161 C159 1.390 . S
C161 C162 1.387 . S
C161 H164 0.950 . S
C162 C161 1.387 . S
C162 C165 1.387 . S
H163 C159 0.950 . S
H164 C161 0.950 . S
C165 C156 1.390 . S
C165 H158 0.950 . S
C165 C162 1.387 . S
C166 C167 1.387 1_455 S
C166 H170 0.950 . S
C166 C175 1.390 . S
C167 C166 1.387 1_655 S
C167 C169 1.387 . S
H168 C175 0.950 . S
C169 C167 1.387 . S
C169 C171 1.390 . S
C169 H173 0.950 . S
H170 C166 0.950 . S
C171 C169 1.390 . S
C171 C172 1.387 1_655 S
C171 H174 0.950 . S
C172 C171 1.387 1_455 S
C172 C175 1.387 . S
H173 C169 0.950 . S
H174 C171 0.950 . S
C175 C166 1.390 . S
C175 H168 0.950 . S
C175 C172 1.387 . S
C176 C177 1.383 . S
C176 H180 0.943 . S
C176 C185 1.390 1_566 S
C177 C176 1.383 . S
C177 C179 1.387 . S
H178 C185 0.950 . S
C179 C177 1.387 . S
C179 C181 1.390 1_566 S
C179 H183 0.950 . S
H180 C176 0.943 . S
C181 C179 1.390 1_544 S
C181 C182 1.383 . S
C181 H184 0.943 . S
C182 C181 1.383 . S
C182 C185 1.387 . S
H183 C179 0.950 . S
H184 C181 0.943 . S
C185 C176 1.390 1_544 S
C185 H178 0.950 . S
C185 C182 1.387 . S
C186 C187 1.387 . S
C186 H190 0.950 . S
C186 C195 1.390 . S
C187 C186 1.387 . S
C187 C189 1.387 . S
H188 C195 0.950 . S
C189 C187 1.387 . S
C189 C191 1.390 . S
C189 H193 0.950 . S
H190 C186 0.950 . S
C191 C189 1.390 . S
C191 C192 1.387 . S
C191 H194 0.950 . S
C192 C191 1.387 . S
C192 C195 1.387 . S
H193 C189 0.950 . S
H194 C191 0.950 . S
C195 C186 1.390 . S
C195 H188 0.950 . S
C195 C192 1.387 . S
C196 C197 1.387 1_455 S
C196 H200 0.950 . S
C196 C205 1.390 . S
C197 C196 1.387 1_655 S
C197 C199 1.387 . S
H198 C205 0.950 . S
C199 C197 1.387 . S
C199 C201 1.390 . S
C199 H203 0.950 . S
H200 C196 0.950 . S
C201 C199 1.390 . S
C201 C202 1.387 1_655 S
C201 H204 0.950 . S
C202 C201 1.387 1_455 S
C202 C205 1.387 . S
H203 C199 0.950 . S
H204 C201 0.950 . S
C205 C196 1.390 . S
C205 H198 0.950 . S
C205 C202 1.387 . S
C206 C207 1.379 . S
C206 H210 0.944 . S
C206 C215 1.390 1_564 S
C207 C206 1.379 . S
C207 C209 1.396 . S
H208 C215 0.955 . S
C209 C207 1.396 . S
C209 C211 1.390 1_564 S
C209 H213 0.955 . S
H210 C206 0.944 . S
C211 C209 1.390 1_546 S
C211 C212 1.379 . S
C211 H214 0.944 . S
C212 C211 1.379 . S
C212 C215 1.397 . S
H213 C209 0.955 . S
H214 C211 0.944 . S
C215 C206 1.390 1_546 S
C215 H208 0.955 . S
C215 C212 1.397 . S
C216 C217 1.387 . S
C216 H220 0.950 . S
C216 C225 1.390 1_556 S
C217 C216 1.387 . S
C217 C219 1.387 . S
H218 C225 0.950 . S
C219 C217 1.387 . S
C219 C221 1.390 1_556 S
C219 H223 0.950 . S
H220 C216 0.950 . S
C221 C219 1.390 1_554 S
C221 C222 1.387 . S
C221 H224 0.950 . S
C222 C221 1.387 . S
C222 C225 1.387 . S
H223 C219 0.950 . S
H224 C221 0.950 . S
C225 C216 1.390 1_554 S
C225 H218 0.950 . S
C225 C222 1.387 . S
C226 C227 1.387 . S
C226 H230 0.950 . S
C226 C235 1.390 . S
C227 C226 1.387 . S
C227 C229 1.387 . S
H228 C235 0.950 . S
C229 C227 1.387 . S
C229 C231 1.390 . S
C229 H233 0.950 . S
H230 C226 0.950 . S
C231 C229 1.390 . S
C231 C232 1.387 . S
C231 H234 0.950 . S
C232 C231 1.387 . S
C232 C235 1.387 . S
H233 C229 0.950 . S
H234 C231 0.950 . S
C235 C226 1.390 . S
C235 H228 0.950 . S
C235 C232 1.387 . S
C236 C237 1.387 . S
C236 H240 0.950 . S
C236 C245 1.390 . S
C237 C236 1.387 . S
C237 C239 1.387 . S
H238 C245 0.950 . S
C239 C237 1.387 . S
C239 C241 1.390 . S
C239 H243 0.950 . S
H240 C236 0.950 . S
C241 C239 1.390 . S
C241 C242 1.387 . S
C241 H244 0.950 . S
C242 C241 1.387 . S
C242 C245 1.387 . S
H243 C239 0.950 . S
H244 C241 0.950 . S
C245 C236 1.390 . S
C245 H238 0.950 . S
C245 C242 1.387 . S
C246 C247 1.387 . S
C246 H250 0.950 . S
C246 C255 1.390 1_554 S
C247 C246 1.387 . S
C247 C249 1.387 . S
H248 C255 0.950 . S
C249 C247 1.387 . S
C249 C251 1.390 1_554 S
C249 H253 0.950 . S
H250 C246 0.950 . S
C251 C249 1.390 1_556 S
C251 C252 1.387 . S
C251 H254 0.950 . S
C252 C251 1.387 . S
C252 C255 1.387 . S
H253 C249 0.950 . S
H254 C251 0.950 . S
C255 C246 1.390 1_556 S
C255 H248 0.950 . S
C255 C252 1.387 . S
C256 C257 1.387 . S
C256 H260 0.950 . S
C256 C265 1.390 . S
C257 C256 1.387 . S
C257 C259 1.387 . S
H258 C265 0.950 . S
C259 C257 1.387 . S
C259 C261 1.390 . S
C259 H263 0.950 . S
H260 C256 0.950 . S
C261 C259 1.390 . S
C261 C262 1.387 . S
C261 H264 0.950 . S
C262 C261 1.387 . S
C262 C265 1.387 . S
H263 C259 0.950 . S
H264 C261 0.950 . S
C265 C256 1.390 . S
C265 H258 0.950 . S
C265 C262 1.387 . S
C266 C267 1.387 . S
C266 H270 0.950 . S
C266 C275 1.390 . S
C267 C266 1.387 . S
C267 C269 1.387 . S
H268 C275 0.950 . S
C269 C267 1.387 . S
C269 C271 1.390 . S
C269 H273 0.950 . S
H270 C266 0.950 . S
C271 C269 1.390 . S
C271 C272 1.387 . S
C271 H274 0.950 . S
C272 C271 1.387 . S
C272 C275 1.387 . S
H273 C269 0.950 . S
H274 C271 0.950 . S
C275 C266 1.390 . S
C275 H268 0.950 . S
C275 C272 1.387 . S
C276 C277 1.387 . S
C276 H280 0.950 . S
C276 C285 1.390 . S
C277 C276 1.387 . S
C277 C279 1.387 . S
H278 C285 0.950 . S
C279 C277 1.387 . S
C279 C281 1.390 . S
C279 H283 0.950 . S
H280 C276 0.950 . S
C281 C279 1.390 . S
C281 C282 1.387 . S
C281 H284 0.950 . S
C282 C281 1.387 . S
C282 C285 1.387 . S
H283 C279 0.950 . S
H284 C281 0.950 . S
C285 C276 1.390 . S
C285 H278 0.950 . S
C285 C282 1.387 . S
C286 C287 1.387 . S
C286 H290 0.950 . S
C286 C295 1.390 . S
C287 C286 1.387 . S
C287 C289 1.387 1_455 S
H288 C295 0.950 . S
C289 C287 1.387 1_655 S
C289 C291 1.390 . S
C289 H293 0.950 . S
H290 C286 0.950 . S
C291 C289 1.390 . S
C291 C292 1.387 . S
C291 H294 0.950 . S
C292 C291 1.387 . S
C292 C295 1.387 1_655 S
H293 C289 0.950 . S
H294 C291 0.950 . S
C295 C286 1.390 . S
C295 H288 0.950 . S
C295 C292 1.387 1_455 S
C296 C297 1.375 . S
C296 H300 0.964 . S
C296 C305 1.389 1_545 S
C297 C296 1.375 . S
C297 C299 1.402 . S
H298 C305 0.937 . S
C299 C297 1.402 . S
C299 C301 1.389 1_545 S
C299 H303 0.937 . S
H300 C296 0.964 . S
C301 C299 1.389 1_565 S
C301 C302 1.375 . S
C301 H304 0.964 . S
C302 C301 1.375 . S
C302 C305 1.402 . S
H303 C299 0.937 . S
H304 C301 0.964 . S
C305 C296 1.389 1_565 S
C305 H298 0.937 . S
C305 C302 1.402 . S
C306 C307 1.387 . S
C306 H310 0.950 . S
C306 C315 1.390 . S
C307 C306 1.387 . S
C307 C309 1.387 . S
H308 C315 0.950 . S
C309 C307 1.387 . S
C309 C311 1.390 . S
C309 H313 0.950 . S
H310 C306 0.950 . S
C311 C309 1.390 . S
C311 C312 1.387 . S
C311 H314 0.950 . S
C312 C311 1.387 . S
C312 C315 1.387 . S
H313 C309 0.950 . S
H314 C311 0.950 . S
C315 C306 1.390 . S
C315 H308 0.950 . S
C315 C312 1.387 . S
C316 C317 1.387 . S
C316 H320 0.950 . S
C316 C325 1.390 . S
C317 C316 1.387 . S
C317 C319 1.387 1_655 S
H318 C325 0.950 . S
C319 C317 1.387 1_455 S
C319 C321 1.390 . S
C319 H323 0.950 . S
H320 C316 0.950 . S
C321 C319 1.390 . S
C321 C322 1.387 . S
C321 H324 0.950 . S
C322 C321 1.387 . S
C322 C325 1.387 1_455 S
H323 C319 0.950 . S
H324 C321 0.950 . S
C325 C316 1.390 . S
C325 H318 0.950 . S
C325 C322 1.387 1_655 S
C326 C327 1.402 . S
C326 H330 0.937 . S
C326 C335 1.389 1_545 S
C327 C326 1.402 . S
C327 C329 1.375 . S
H328 C335 0.964 . S
C329 C327 1.375 . S
C329 C331 1.389 1_545 S
C329 H333 0.964 . S
H330 C326 0.937 . S
C331 C329 1.389 1_565 S
C331 C332 1.402 . S
C331 H334 0.937 . S
C332 C331 1.402 . S
C332 C335 1.375 . S
H333 C329 0.964 . S
H334 C331 0.937 . S
C335 C326 1.389 1_565 S
C335 H328 0.964 . S
C335 C332 1.375 . S
C336 C337 1.387 . S
C336 H340 0.950 . S
C336 C345 1.390 . S
C337 C336 1.387 . S
C337 C339 1.387 . S
H338 C345 0.950 . S
C339 C337 1.387 . S
C339 C341 1.390 . S
C339 H343 0.950 . S
H340 C336 0.950 . S
C341 C339 1.390 . S
C341 C342 1.387 . S
C341 H344 0.950 . S
C342 C341 1.387 . S
C342 C345 1.387 . S
H343 C339 0.950 . S
H344 C341 0.950 . S
C345 C336 1.390 . S
C345 H338 0.950 . S
C345 C342 1.387 . S
C346 C347 1.387 . S
C346 H350 0.950 . S
C346 C355 1.390 1_455 S
C347 C346 1.387 . S
C347 C349 1.387 . S
H348 C355 0.950 . S
C349 C347 1.387 . S
C349 C351 1.390 1_455 S
C349 H353 0.950 . S
H350 C346 0.950 . S
C351 C349 1.390 1_655 S
C351 C352 1.387 . S
C351 H354 0.950 . S
C352 C351 1.387 . S
C352 C355 1.387 . S
H353 C349 0.950 . S
H354 C351 0.950 . S
C355 C346 1.390 1_655 S
C355 H348 0.950 . S
C355 C352 1.387 . S
C356 C357 1.387 . S
C356 H360 0.950 . S
C356 C365 1.390 1_565 S
C357 C356 1.387 . S
C357 C359 1.387 . S
H358 C365 0.950 . S
C359 C357 1.387 . S
C359 C361 1.390 1_565 S
C359 H363 0.950 . S
H360 C356 0.950 . S
C361 C359 1.390 1_545 S
C361 C362 1.387 . S
C361 H364 0.950 . S
C362 C361 1.387 . S
C362 C365 1.387 . S
H363 C359 0.950 . S
H364 C361 0.950 . S
C365 C356 1.390 1_545 S
C365 H358 0.950 . S
C365 C362 1.387 . S
C366 C367 1.387 . S
C366 H370 0.950 . S
C366 C375 1.390 . S
C367 C366 1.387 . S
C367 C369 1.387 . S
H368 C375 0.950 . S
C369 C367 1.387 . S
C369 C371 1.390 . S
C369 H373 0.950 . S
H370 C366 0.950 . S
C371 C369 1.390 . S
C371 C372 1.387 . S
C371 H374 0.950 . S
C372 C371 1.387 . S
C372 C375 1.387 . S
H373 C369 0.950 . S
H374 C371 0.950 . S
C375 C366 1.390 . S
C375 H368 0.950 . S
C375 C372 1.387 . S
C376 C377 1.387 . S
C376 H380 0.950 . S
C376 C385 1.390 1_655 S
C377 C376 1.387 . S
C377 C379 1.387 . S
H378 C385 0.950 . S
C379 C377 1.387 . S
C379 C381 1.390 1_655 S
C379 H383 0.950 . S
H380 C376 0.950 . S
C381 C379 1.390 1_455 S
C381 C382 1.387 . S
C381 H384 0.950 . S
C382 C381 1.387 . S
C382 C385 1.387 . S
H383 C379 0.950 . S
H384 C381 0.950 . S
C385 C376 1.390 1_455 S
C385 H378 0.950 . S
C385 C382 1.387 . S
C386 C387 1.387 . S
C386 H390 0.950 . S
C386 C395 1.390 1_545 S
C387 C386 1.387 . S
C387 C389 1.387 . S
H388 C395 0.950 . S
C389 C387 1.387 . S
C389 C391 1.390 1_545 S
C389 H393 0.950 . S
H390 C386 0.950 . S
C391 C389 1.390 1_565 S
C391 C392 1.387 . S
C391 H394 0.950 . S
C392 C391 1.387 . S
C392 C395 1.387 . S
H393 C389 0.950 . S
H394 C391 0.950 . S
C395 C386 1.390 1_565 S
C395 H388 0.950 . S
C395 C392 1.387 . S
C157 C5 1.456 . S
C162 C122 1.456 . S
C167 C16 1.456 . S
C172 C133 1.456 . S
C177 C31 1.454 . S
C182 C148 1.454 . S
C187 C42 1.455 . S
C192 C83 1.456 . S
C197 C96 1.454 . S
C202 C57 1.454 . S
C207 C109 1.456 . S
C212 C68 1.456 . S
C217 C134 1.598 . S
C222 C10 1.598 . S
C227 C17 1.598 . S
C232 C153 1.598 . S
C237 C36 1.598 . S
C242 C88 1.599 . S
C247 C43 1.597 . S
C252 C101 1.597 . S
C257 C62 1.597 . S
C262 C114 1.597 . S
C267 C69 1.598 . S
C272 C127 1.598 . S
C277 C121 1.264 . S
C282 C4 1.263 . S
C287 C23 1.261 1_455 S
C292 C140 1.261 1_655 S
C297 C30 1.261 1_545 S
C302 C147 1.261 1_565 S
C307 C82 1.264 . S
C312 C49 1.264 . S
C317 C56 1.261 1_655 S
C322 C95 1.261 1_455 S
C327 C108 1.261 1_545 S
C332 C75 1.261 1_565 S
C337 C3 1.590 . S
C342 C44 1.590 . S
C347 C55 1.590 . S
C352 C18 1.590 . S
C357 C29 1.590 . S
C362 C70 1.590 . S
C367 C81 1.590 . S
C372 C120 1.590 . S
C377 C94 1.590 . S
C382 C135 1.590 . S
C387 C146 1.590 . S
C392 C107 1.590 . S
