# Generated by pormake.
# Topology wme, (6)-cn, num edge types: 1
# Building blocks:
#     Node 0, Type 0, BuildingBlock: MIDCAF_clean_sbu_0, # of connection points: 6
#     Node 1, Type 0, BuildingBlock: MIDCAF_clean_sbu_0, # of connection points: 6
#     Node 2, Type 0, BuildingBlock: MIDCAF_clean_sbu_0, # of connection points: 6
#     Node 3, Type 0, BuildingBlock: MIDCAF_clean_sbu_0, # of connection points: 6
#     Node 4, Type 0, BuildingBlock: MIDCAF_clean_sbu_0, # of connection points: 6
#     Node 5, Type 0, BuildingBlock: MIDCAF_clean_sbu_0, # of connection points: 6
#     Node 6, Type 0, BuildingBlock: MIDCAF_clean_sbu_0, # of connection points: 6
#     Node 7, Type 0, BuildingBlock: MIDCAF_clean_sbu_0, # of connection points: 6
#     Node 8, Type 0, BuildingBlock: MIDCAF_clean_sbu_0, # of connection points: 6
#     Node 9, Type 0, BuildingBlock: MIDCAF_clean_sbu_0, # of connection points: 6
#     Node 10, Type 0, BuildingBlock: MIDCAF_clean_sbu_0, # of connection points: 6
#     Node 11, Type 0, BuildingBlock: MIDCAF_clean_sbu_0, # of connection points: 6
#     Edge 12, Type (0, 0), None
#     Edge 13, Type (0, 0), None
#     Edge 14, Type (0, 0), None
#     Edge 15, Type (0, 0), None
#     Edge 16, Type (0, 0), None
#     Edge 17, Type (0, 0), None
#     Edge 18, Type (0, 0), None
#     Edge 19, Type (0, 0), None
#     Edge 20, Type (0, 0), None
#     Edge 21, Type (0, 0), None
#     Edge 22, Type (0, 0), None
#     Edge 23, Type (0, 0), None
#     Edge 24, Type (0, 0), None
#     Edge 25, Type (0, 0), None
#     Edge 26, Type (0, 0), None
#     Edge 27, Type (0, 0), None
#     Edge 28, Type (0, 0), None
#     Edge 29, Type (0, 0), None
#     Edge 30, Type (0, 0), None
#     Edge 31, Type (0, 0), None
#     Edge 32, Type (0, 0), None
#     Edge 33, Type (0, 0), None
#     Edge 34, Type (0, 0), None
#     Edge 35, Type (0, 0), None
#     Edge 36, Type (0, 0), None
#     Edge 37, Type (0, 0), None
#     Edge 38, Type (0, 0), None
#     Edge 39, Type (0, 0), None
#     Edge 40, Type (0, 0), None
#     Edge 41, Type (0, 0), None
#     Edge 42, Type (0, 0), None
#     Edge 43, Type (0, 0), None
#     Edge 44, Type (0, 0), None
#     Edge 45, Type (0, 0), None
#     Edge 46, Type (0, 0), None
#     Edge 47, Type (0, 0), None
# Relax obj value: 0.386
# Max RMSD: 0.269
# Mean RMSD: 0.269
data_MOF--net-wme--node1-MIDCAF_clean_sbu_0--edge1-none
_symmetry_space_group_name_H-M    P1
_symmetry_Int_Tables_number       1
_symmetry_cell_setting            triclinic
loop_
_symmetry_equiv_pos_as_xyz
'x, y, z'
_cell_length_a     13.080452
_cell_length_b     13.080224
_cell_length_c     26.92744
_cell_angle_alpha  89.995092
_cell_angle_beta   90.002459
_cell_angle_gamma 119.99992
loop_
_atom_site_label
_atom_site_type_symbol
_atom_site_fract_x
_atom_site_fract_y
_atom_site_fract_z
_atom_type_partial_charge
Zn0 Zn 0.10241 0.16858 0.20818 0.0
Zn1 Zn 0.16422 0.39582 0.0504 0.0
Zn2 Zn 0.17027 0.303 0.12017 0.0
C3 C 0.05764 0.46719 0.10746 0.0
C4 C 0.39474 0.49669 0.10574 0.0
O5 O 0.28857 0.23787 0.14313 0.0
O6 O 0.11685 0.08575 0.14533 0.0
C7 C 0.92708 0.19926 0.17837 0.0
O8 O 0.11552 0.43656 0.13699 0.0
O9 O 0.02601 0.41558 0.06606 0.0
O10 O 0.32956 0.51659 0.07694 0.0
O11 O 0.35471 0.39535 0.12552 0.0
O12 O 0.94 0.16283 0.21972 0.0
O13 O 0.02389 0.28911 0.16361 0.0
O14 O 0.14144 0.37637 0.19224 0.0
O15 O 0.25905 0.32483 0.22578 0.0
C16 C 0.20646 0.38244 0.23004 0.0
O17 O 0.09628 0.16952 0.06263 0.0
O18 O 0.15493 0.28521 0.99803 0.0
C19 C 0.22607 0.12508 0.14514 0.0
C20 C 0.12379 0.18548 0.0167 0.0
Zn21 Zn 0.76294 0.16703 0.5504 0.0
Zn22 Zn 0.92832 0.10519 0.70818 0.0
Zn23 Zn 0.86178 0.17307 0.62016 0.0
C24 C 0.8185 0.20923 0.73004 0.0
C25 C 0.72231 0.92986 0.67836 0.0
O26 O 0.9213 0.0991 0.56263 0.0
O27 O 0.86427 0.15775 0.49802 0.0
C28 C 0.89257 0.39755 0.60573 0.0
O29 O 0.75957 0.14423 0.69224 0.0
O30 O 0.92871 0.26183 0.72578 0.0
O31 O 0.77164 0.94277 0.71971 0.0
O32 O 0.72927 0.02668 0.66361 0.0
O33 O 0.80751 0.33238 0.57692 0.0
O34 O 0.95386 0.35752 0.62552 0.0
O35 O 0.67348 0.11833 0.63699 0.0
O36 O 0.60495 0.02884 0.56605 0.0
C37 C 0.58496 0.06045 0.60745 0.0
O38 O 0.04521 0.29136 0.64314 0.0
O39 O 0.0256 0.11964 0.64533 0.0
C40 C 0.93285 0.12659 0.5167 0.0
C41 C 0.09549 0.22886 0.64515 0.0
Zn42 Zn 0.81763 0.93097 0.20822 0.0
Zn43 Zn 0.59037 0.76556 0.05038 0.0
Zn44 Zn 0.6831 0.86445 0.12016 0.0
C45 C 0.51899 0.58763 0.10745 0.0
C46 C 0.48943 0.8952 0.10569 0.0
O47 O 0.74826 0.04789 0.1431 0.0
O48 O 0.90048 0.02829 0.14538 0.0
C49 C 0.78679 0.72492 0.17835 0.0
O50 O 0.54956 0.67614 0.13699 0.0
O51 O 0.57047 0.60751 0.06603 0.0
O52 O 0.4696 0.81017 0.07688 0.0
O53 O 0.59073 0.9565 0.1255 0.0
O54 O 0.82323 0.77417 0.21972 0.0
O55 O 0.69698 0.73197 0.16362 0.0
O56 O 0.60979 0.76232 0.19226 0.0
O57 O 0.66143 0.93149 0.22578 0.0
C58 C 0.60376 0.82129 0.23005 0.0
O59 O 0.81666 0.92405 0.06265 0.0
O60 O 0.70105 0.86691 0.99802 0.0
C61 C 0.86103 0.09807 0.14512 0.0
C62 C 0.80075 0.93556 0.01671 0.0
Zn63 Zn 0.88114 0.82041 0.70822 0.0
Zn64 Zn 0.81933 0.59318 0.55038 0.0
Zn65 Zn 0.81317 0.68591 0.62015 0.0
C66 C 0.92587 0.5218 0.60745 0.0
C67 C 0.58874 0.49224 0.6057 0.0
O68 O 0.69487 0.75105 0.64309 0.0
O69 O 0.8667 0.90328 0.64538 0.0
C70 C 0.05637 0.78958 0.67835 0.0
O71 O 0.86794 0.55236 0.63698 0.0
O72 O 0.95748 0.57329 0.56602 0.0
O73 O 0.65395 0.47241 0.57689 0.0
O74 O 0.62874 0.59355 0.6255 0.0
O75 O 0.04354 0.82601 0.71971 0.0
O76 O 0.9595 0.69977 0.66362 0.0
O77 O 0.84196 0.61257 0.69226 0.0
O78 O 0.72441 0.6642 0.72577 0.0
C79 C 0.77696 0.60653 0.73004 0.0
O80 O 0.88713 0.81947 0.56264 0.0
O81 O 0.82865 0.70387 0.49802 0.0
C82 C 0.75746 0.86382 0.64511 0.0
C83 C 0.85969 0.80356 0.5167 0.0
Zn84 Zn 0.05498 0.88363 0.20817 0.0
Zn85 Zn 0.22046 0.82199 0.05038 0.0
Zn86 Zn 0.12166 0.81586 0.12018 0.0
C87 C 0.39847 0.92847 0.1074 0.0
C88 C 0.09086 0.59141 0.10572 0.0
O89 O 0.93822 0.69751 0.14313 0.0
O90 O 0.95773 0.8693 0.14534 0.0
C91 C 0.26106 0.05897 0.17844 0.0
O92 O 0.30999 0.87059 0.13695 0.0
O93 O 0.37858 0.96005 0.06596 0.0
O94 O 0.17583 0.65659 0.07688 0.0
O95 O 0.0296 0.63142 0.12556 0.0
O96 O 0.21151 0.04603 0.21973 0.0
O97 O 0.25429 0.96233 0.16357 0.0
O98 O 0.22384 0.84467 0.19225 0.0
O99 O 0.05469 0.72706 0.22579 0.0
C100 C 0.16491 0.77968 0.23005 0.0
O101 O 0.06204 0.88977 0.06264 0.0
O102 O 0.11918 0.83135 0.998 0.0
C103 C 0.88798 0.76005 0.1451 0.0
C104 C 0.05053 0.86238 0.0167 0.0
Zn105 Zn 0.16583 0.05775 0.70818 0.0
Zn106 Zn 0.39301 0.2233 0.55039 0.0
Zn107 Zn 0.30032 0.12446 0.62018 0.0
C108 C 0.46451 0.40128 0.60741 0.0
C109 C 0.49396 0.09367 0.60572 0.0
O110 O 0.23521 0.94102 0.64313 0.0
O111 O 0.08294 0.96053 0.64534 0.0
C112 C 0.19658 0.26384 0.67844 0.0
O113 O 0.43392 0.31279 0.63696 0.0
O114 O 0.41304 0.3814 0.56598 0.0
O115 O 0.51377 0.17866 0.57688 0.0
O116 O 0.3927 0.03241 0.62556 0.0
O117 O 0.15996 0.21429 0.71974 0.0
O118 O 0.28646 0.25709 0.66357 0.0
O119 O 0.37367 0.22663 0.69226 0.0
O120 O 0.32211 0.05747 0.72579 0.0
C121 C 0.37971 0.16768 0.73005 0.0
O122 O 0.1668 0.06486 0.56265 0.0
O123 O 0.28238 0.12203 0.49801 0.0
C124 C 0.12243 0.89078 0.6451 0.0
C125 C 0.1827 0.05337 0.5167 0.0
Zn126 Zn 0.59049 0.82217 0.46114 0.0
Zn127 Zn 0.81758 0.88381 0.30335 0.0
Zn128 Zn 0.68322 0.81602 0.39136 0.0
C129 C 0.60377 0.77977 0.28152 0.0
C130 C 0.78692 0.0592 0.33317 0.0
O131 O 0.81672 0.88995 0.4489 0.0
O132 O 0.70109 0.83163 0.51356 0.0
C133 C 0.4896 0.59157 0.40582 0.0
O134 O 0.60982 0.84485 0.31929 0.0
O135 O 0.66135 0.72714 0.28575 0.0
O136 O 0.82334 0.04625 0.29182 0.0
O137 O 0.69706 0.96241 0.34793 0.0
O138 O 0.46977 0.65675 0.43464 0.0
O139 O 0.59089 0.6316 0.386 0.0
O140 O 0.54959 0.8707 0.37455 0.0
O141 O 0.57055 0.96026 0.44547 0.0
C142 C 0.51893 0.92858 0.40407 0.0
O143 O 0.74828 0.69767 0.36839 0.0
O144 O 0.90043 0.86938 0.3662 0.0
C145 C 0.80076 0.86265 0.49486 0.0
C146 C 0.86107 0.76015 0.36638 0.0
Zn147 Zn 0.92823 0.82034 0.80334 0.0
Zn148 Zn 0.76273 0.5932 0.96113 0.0
Zn149 Zn 0.86163 0.68594 0.89136 0.0
C150 C 0.58477 0.52166 0.90406 0.0
C151 C 0.89246 0.49233 0.90582 0.0
O152 O 0.04505 0.75102 0.86839 0.0
O153 O 0.0255 0.90317 0.8662 0.0
C154 C 0.72218 0.78967 0.83316 0.0
O155 O 0.67332 0.55232 0.87454 0.0
O156 O 0.60471 0.57328 0.94545 0.0
O157 O 0.80743 0.47249 0.93464 0.0
O158 O 0.95373 0.59363 0.886 0.0
O159 O 0.77156 0.8261 0.79182 0.0
O160 O 0.7291 0.6998 0.84792 0.0
O161 O 0.75943 0.61257 0.81928 0.0
O162 O 0.92867 0.6641 0.78574 0.0
C163 C 0.81846 0.60652 0.78152 0.0
O164 O 0.92119 0.81943 0.9489 0.0
O165 O 0.86386 0.70379 0.01355 0.0
C166 C 0.09536 0.8638 0.86638 0.0
C167 C 0.93251 0.80346 0.99485 0.0
Zn168 Zn 0.10265 0.93123 0.30339 0.0
Zn169 Zn 0.16411 0.76565 0.46113 0.0
Zn170 Zn 0.17024 0.86447 0.39133 0.0
C171 C 0.05775 0.58761 0.40411 0.0
C172 C 0.3947 0.89534 0.4058 0.0
O173 O 0.28863 0.04789 0.36835 0.0
O174 O 0.11697 0.02843 0.36624 0.0
C175 C 0.92715 0.72515 0.33308 0.0
O176 O 0.1156 0.67615 0.37457 0.0
O177 O 0.02609 0.60756 0.44551 0.0
O178 O 0.32954 0.81037 0.43465 0.0
O179 O 0.35467 0.95656 0.38594 0.0
O180 O 0.9402 0.77482 0.2918 0.0
O181 O 0.02372 0.73178 0.34797 0.0
O182 O 0.1414 0.76221 0.31928 0.0
O183 O 0.25916 0.93144 0.28573 0.0
C184 C 0.20645 0.82121 0.28151 0.0
O185 O 0.09636 0.92405 0.4489 0.0
O186 O 0.15462 0.8667 0.51357 0.0
C187 C 0.2262 0.09826 0.36638 0.0
C188 C 0.12362 0.93536 0.49486 0.0
Zn189 Zn 0.16588 0.1054 0.80339 0.0
Zn190 Zn 0.39289 0.16683 0.96113 0.0
Zn191 Zn 0.30021 0.17297 0.89134 0.0
C192 C 0.46457 0.06048 0.90412 0.0
C193 C 0.49379 0.39743 0.90579 0.0
O194 O 0.23519 0.29137 0.86836 0.0
O195 O 0.08299 0.11971 0.86624 0.0
C196 C 0.19645 0.92989 0.83308 0.0
O197 O 0.43389 0.11833 0.87458 0.0
O198 O 0.41296 0.02882 0.94551 0.0
O199 O 0.51359 0.33227 0.93464 0.0
O200 O 0.39253 0.3574 0.88594 0.0
O201 O 0.15985 0.94296 0.7918 0.0
O202 O 0.28638 0.02645 0.84798 0.0
O203 O 0.37364 0.14415 0.81929 0.0
O204 O 0.32219 0.26192 0.78573 0.0
C205 C 0.37971 0.20921 0.78152 0.0
O206 O 0.16673 0.09908 0.9489 0.0
O207 O 0.28234 0.15734 0.01357 0.0
C208 C 0.12239 0.22895 0.86639 0.0
C209 C 0.18268 0.12635 0.99486 0.0
Zn210 Zn 0.05506 0.16862 0.30335 0.0
Zn211 Zn 0.22067 0.39566 0.46115 0.0
Zn212 Zn 0.12182 0.30306 0.39135 0.0
C213 C 0.39866 0.46733 0.40412 0.0
C214 C 0.09096 0.49661 0.40583 0.0
O215 O 0.93838 0.23802 0.3684 0.0
O216 O 0.95783 0.08571 0.36619 0.0
C217 C 0.26119 0.19934 0.33308 0.0
O218 O 0.31015 0.43672 0.37458 0.0
O219 O 0.37882 0.41584 0.44554 0.0
O220 O 0.17591 0.51637 0.43468 0.0
O221 O 0.02973 0.39538 0.38596 0.0
O222 O 0.21159 0.16273 0.2918 0.0
O223 O 0.25446 0.28924 0.34796 0.0
O224 O 0.22399 0.37644 0.31927 0.0
O225 O 0.05473 0.32489 0.28573 0.0
C226 C 0.16495 0.38246 0.28151 0.0
O227 O 0.06215 0.16952 0.44888 0.0
O228 O 0.11959 0.28505 0.51357 0.0
C229 C 0.88811 0.12524 0.36642 0.0
C230 C 0.05086 0.18543 0.49485 0.0
Zn231 Zn 0.88091 0.05782 0.80335 0.0
Zn232 Zn 0.81943 0.22338 0.96115 0.0
Zn233 Zn 0.8132 0.12454 0.89135 0.0
C234 C 0.92576 0.40138 0.90412 0.0
C235 C 0.58878 0.09369 0.90583 0.0
O236 O 0.6948 0.94111 0.8684 0.0
O237 O 0.86657 0.96057 0.86619 0.0
C238 C 0.0563 0.26394 0.83309 0.0
O239 O 0.86786 0.31288 0.87458 0.0
O240 O 0.95739 0.38154 0.94555 0.0
O241 O 0.65397 0.17862 0.93469 0.0
O242 O 0.62879 0.03247 0.88596 0.0
O243 O 0.04333 0.21436 0.7918 0.0
O244 O 0.95967 0.25721 0.84796 0.0
O245 O 0.842 0.22674 0.81927 0.0
O246 O 0.72431 0.05749 0.78573 0.0
C247 C 0.77696 0.16771 0.78151 0.0
O248 O 0.88706 0.06486 0.94888 0.0
O249 O 0.82896 0.12229 0.01358 0.0
C250 C 0.75732 0.89085 0.86641 0.0
C251 C 0.85987 0.05357 0.99485 0.0
loop_
_geom_bond_atom_site_label_1
_geom_bond_atom_site_label_2
_geom_bond_distance
_geom_bond_site_symmetry_2
_ccdc_geom_bond_type
Zn0 O6 1.920 . S
Zn0 O12 1.898 1_455 S
Zn0 O15 1.905 . S
Zn1 O9 1.905 . S
Zn1 O10 1.898 . S
Zn1 O18 1.920 . S
Zn2 O5 2.080 . S
Zn2 O8 2.114 . S
Zn2 O11 2.120 . S
Zn2 O13 2.120 . S
Zn2 O14 2.114 . S
Zn2 O17 2.080 . S
C3 O8 1.166 . S
C3 O9 1.182 . S
C4 O10 1.167 . S
C4 O11 1.299 . S
O5 Zn2 2.080 . S
O5 C19 1.305 . S
O6 Zn0 1.920 . S
O6 C19 1.234 . S
C7 O12 1.167 . S
C7 O13 1.299 1_655 S
O8 Zn2 2.114 . S
O8 C3 1.166 . S
O9 Zn1 1.905 . S
O9 C3 1.182 . S
O10 Zn1 1.898 . S
O10 C4 1.167 . S
O11 Zn2 2.120 . S
O11 C4 1.299 . S
O12 Zn0 1.898 1_655 S
O12 C7 1.167 . S
O13 Zn2 2.120 . S
O13 C7 1.299 1_455 S
O14 Zn2 2.114 . S
O14 C16 1.166 . S
O15 Zn0 1.905 . S
O15 C16 1.182 . S
C16 O14 1.166 . S
C16 O15 1.182 . S
O17 Zn2 2.080 . S
O17 C20 1.305 . S
O18 Zn1 1.920 . S
O18 C20 1.234 . S
C19 O5 1.305 . S
C19 O6 1.234 . S
C20 O17 1.305 . S
C20 O18 1.234 . S
Zn21 O27 1.920 . S
Zn21 O33 1.898 . S
Zn21 O36 1.905 . S
Zn22 O30 1.905 . S
Zn22 O31 1.898 1_545 S
Zn22 O39 1.920 1_655 S
Zn23 O26 2.080 . S
Zn23 O29 2.114 . S
Zn23 O32 2.120 . S
Zn23 O34 2.120 . S
Zn23 O35 2.114 . S
Zn23 O38 2.080 1_655 S
C24 O29 1.166 . S
C24 O30 1.182 . S
C25 O31 1.167 . S
C25 O32 1.299 1_565 S
O26 Zn23 2.080 . S
O26 C40 1.305 . S
O27 Zn21 1.920 . S
O27 C40 1.234 . S
C28 O33 1.167 . S
C28 O34 1.299 . S
O29 Zn23 2.114 . S
O29 C24 1.166 . S
O30 Zn22 1.905 . S
O30 C24 1.182 . S
O31 Zn22 1.898 1_565 S
O31 C25 1.167 . S
O32 Zn23 2.120 . S
O32 C25 1.299 1_545 S
O33 Zn21 1.898 . S
O33 C28 1.167 . S
O34 Zn23 2.120 . S
O34 C28 1.299 . S
O35 Zn23 2.114 . S
O35 C37 1.166 . S
O36 Zn21 1.905 . S
O36 C37 1.182 . S
C37 O35 1.166 . S
C37 O36 1.182 . S
O38 Zn23 2.080 1_455 S
O38 C41 1.305 . S
O39 Zn22 1.920 1_455 S
O39 C41 1.234 . S
C40 O26 1.305 . S
C40 O27 1.234 . S
C41 O38 1.305 . S
C41 O39 1.234 . S
Zn42 O48 1.920 1_565 S
Zn42 O54 1.898 . S
Zn42 O57 1.905 . S
Zn43 O51 1.905 . S
Zn43 O52 1.898 . S
Zn43 O60 1.920 . S
Zn44 O47 2.080 1_565 S
Zn44 O50 2.114 . S
Zn44 O53 2.120 . S
Zn44 O55 2.120 . S
Zn44 O56 2.114 . S
Zn44 O59 2.080 . S
C45 O50 1.166 . S
C45 O51 1.182 . S
C46 O52 1.167 . S
C46 O53 1.299 . S
O47 Zn44 2.080 1_545 S
O47 C61 1.305 . S
O48 Zn42 1.920 1_545 S
O48 C61 1.234 . S
C49 O54 1.167 . S
C49 O55 1.299 . S
O50 Zn44 2.114 . S
O50 C45 1.166 . S
O51 Zn43 1.905 . S
O51 C45 1.182 . S
O52 Zn43 1.898 . S
O52 C46 1.167 . S
O53 Zn44 2.120 . S
O53 C46 1.299 . S
O54 Zn42 1.898 . S
O54 C49 1.167 . S
O55 Zn44 2.120 . S
O55 C49 1.299 . S
O56 Zn44 2.114 . S
O56 C58 1.166 . S
O57 Zn42 1.905 . S
O57 C58 1.182 . S
C58 O56 1.166 . S
C58 O57 1.182 . S
O59 Zn44 2.080 . S
O59 C62 1.305 . S
O60 Zn43 1.920 . S
O60 C62 1.234 . S
C61 O47 1.305 . S
C61 O48 1.234 . S
C62 O59 1.305 . S
C62 O60 1.234 . S
Zn63 O69 1.920 . S
Zn63 O75 1.898 1_655 S
Zn63 O78 1.905 . S
Zn64 O72 1.905 . S
Zn64 O73 1.898 . S
Zn64 O81 1.920 . S
Zn65 O68 2.080 . S
Zn65 O71 2.114 . S
Zn65 O74 2.120 . S
Zn65 O76 2.120 . S
Zn65 O77 2.114 . S
Zn65 O80 2.080 . S
C66 O71 1.166 . S
C66 O72 1.182 . S
C67 O73 1.167 . S
C67 O74 1.299 . S
O68 Zn65 2.080 . S
O68 C82 1.305 . S
O69 Zn63 1.920 . S
O69 C82 1.234 . S
C70 O75 1.167 . S
C70 O76 1.299 1_455 S
O71 Zn65 2.114 . S
O71 C66 1.166 . S
O72 Zn64 1.905 . S
O72 C66 1.182 . S
O73 Zn64 1.898 . S
O73 C67 1.167 . S
O74 Zn65 2.120 . S
O74 C67 1.299 . S
O75 Zn63 1.898 1_455 S
O75 C70 1.167 . S
O76 Zn65 2.120 . S
O76 C70 1.299 1_655 S
O77 Zn65 2.114 . S
O77 C79 1.166 . S
O78 Zn63 1.905 . S
O78 C79 1.182 . S
C79 O77 1.166 . S
C79 O78 1.182 . S
O80 Zn65 2.080 . S
O80 C83 1.305 . S
O81 Zn64 1.920 . S
O81 C83 1.234 . S
C82 O68 1.305 . S
C82 O69 1.234 . S
C83 O80 1.305 . S
C83 O81 1.234 . S
Zn84 O90 1.920 1_455 S
Zn84 O96 1.898 1_565 S
Zn84 O99 1.905 . S
Zn85 O93 1.905 . S
Zn85 O94 1.898 . S
Zn85 O102 1.920 . S
Zn86 O89 2.080 1_455 S
Zn86 O92 2.114 . S
Zn86 O95 2.120 . S
Zn86 O97 2.120 . S
Zn86 O98 2.114 . S
Zn86 O101 2.080 . S
C87 O92 1.166 . S
C87 O93 1.182 . S
C88 O94 1.167 . S
C88 O95 1.299 . S
O89 Zn86 2.080 1_655 S
O89 C103 1.305 . S
O90 Zn84 1.920 1_655 S
O90 C103 1.234 . S
C91 O96 1.167 . S
C91 O97 1.299 1_545 S
O92 Zn86 2.114 . S
O92 C87 1.166 . S
O93 Zn85 1.905 . S
O93 C87 1.182 . S
O94 Zn85 1.898 . S
O94 C88 1.167 . S
O95 Zn86 2.120 . S
O95 C88 1.299 . S
O96 Zn84 1.898 1_545 S
O96 C91 1.167 . S
O97 Zn86 2.120 . S
O97 C91 1.299 1_565 S
O98 Zn86 2.114 . S
O98 C100 1.166 . S
O99 Zn84 1.905 . S
O99 C100 1.182 . S
C100 O98 1.166 . S
C100 O99 1.182 . S
O101 Zn86 2.080 . S
O101 C104 1.305 . S
O102 Zn85 1.920 . S
O102 C104 1.234 . S
C103 O89 1.305 . S
C103 O90 1.234 . S
C104 O101 1.305 . S
C104 O102 1.234 . S
Zn105 O111 1.920 1_545 S
Zn105 O117 1.898 . S
Zn105 O120 1.905 . S
Zn106 O114 1.905 . S
Zn106 O115 1.898 . S
Zn106 O123 1.920 . S
Zn107 O110 2.080 1_545 S
Zn107 O113 2.114 . S
Zn107 O116 2.120 . S
Zn107 O118 2.120 . S
Zn107 O119 2.114 . S
Zn107 O122 2.080 . S
C108 O113 1.166 . S
C108 O114 1.182 . S
C109 O115 1.167 . S
C109 O116 1.299 . S
O110 Zn107 2.080 1_565 S
O110 C124 1.305 . S
O111 Zn105 1.920 1_565 S
O111 C124 1.234 . S
C112 O117 1.167 . S
C112 O118 1.299 . S
O113 Zn107 2.114 . S
O113 C108 1.166 . S
O114 Zn106 1.905 . S
O114 C108 1.182 . S
O115 Zn106 1.898 . S
O115 C109 1.167 . S
O116 Zn107 2.120 . S
O116 C109 1.299 . S
O117 Zn105 1.898 . S
O117 C112 1.167 . S
O118 Zn107 2.120 . S
O118 C112 1.299 . S
O119 Zn107 2.114 . S
O119 C121 1.166 . S
O120 Zn105 1.905 . S
O120 C121 1.182 . S
C121 O119 1.166 . S
C121 O120 1.182 . S
O122 Zn107 2.080 . S
O122 C125 1.305 . S
O123 Zn106 1.920 . S
O123 C125 1.234 . S
C124 O110 1.305 . S
C124 O111 1.234 . S
C125 O122 1.305 . S
C125 O123 1.234 . S
Zn126 O132 1.920 . S
Zn126 O138 1.898 . S
Zn126 O141 1.905 . S
Zn127 O135 1.905 . S
Zn127 O136 1.898 1_565 S
Zn127 O144 1.920 . S
Zn128 O131 2.080 . S
Zn128 O134 2.114 . S
Zn128 O137 2.120 . S
Zn128 O139 2.120 . S
Zn128 O140 2.114 . S
Zn128 O143 2.080 . S
C129 O134 1.166 . S
C129 O135 1.182 . S
C130 O136 1.167 . S
C130 O137 1.299 1_545 S
O131 Zn128 2.080 . S
O131 C145 1.305 . S
O132 Zn126 1.920 . S
O132 C145 1.234 . S
C133 O138 1.167 . S
C133 O139 1.299 . S
O134 Zn128 2.114 . S
O134 C129 1.166 . S
O135 Zn127 1.905 . S
O135 C129 1.182 . S
O136 Zn127 1.898 1_545 S
O136 C130 1.167 . S
O137 Zn128 2.120 . S
O137 C130 1.299 1_565 S
O138 Zn126 1.898 . S
O138 C133 1.167 . S
O139 Zn128 2.120 . S
O139 C133 1.299 . S
O140 Zn128 2.114 . S
O140 C142 1.166 . S
O141 Zn126 1.905 . S
O141 C142 1.182 . S
C142 O140 1.166 . S
C142 O141 1.182 . S
O143 Zn128 2.080 . S
O143 C146 1.305 . S
O144 Zn127 1.920 . S
O144 C146 1.234 . S
C145 O131 1.305 . S
C145 O132 1.234 . S
C146 O143 1.305 . S
C146 O144 1.234 . S
Zn147 O153 1.920 1_655 S
Zn147 O159 1.898 . S
Zn147 O162 1.905 . S
Zn148 O156 1.905 . S
Zn148 O157 1.898 . S
Zn148 O165 1.920 . S
Zn149 O152 2.080 1_655 S
Zn149 O155 2.114 . S
Zn149 O158 2.120 . S
Zn149 O160 2.120 . S
Zn149 O161 2.114 . S
Zn149 O164 2.080 . S
C150 O155 1.166 . S
C150 O156 1.182 . S
C151 O157 1.167 . S
C151 O158 1.299 . S
O152 Zn149 2.080 1_455 S
O152 C166 1.305 . S
O153 Zn147 1.920 1_455 S
O153 C166 1.234 . S
C154 O159 1.167 . S
C154 O160 1.299 . S
O155 Zn149 2.114 . S
O155 C150 1.166 . S
O156 Zn148 1.905 . S
O156 C150 1.182 . S
O157 Zn148 1.898 . S
O157 C151 1.167 . S
O158 Zn149 2.120 . S
O158 C151 1.299 . S
O159 Zn147 1.898 . S
O159 C154 1.167 . S
O160 Zn149 2.120 . S
O160 C154 1.299 . S
O161 Zn149 2.114 . S
O161 C163 1.166 . S
O162 Zn147 1.905 . S
O162 C163 1.182 . S
C163 O161 1.166 . S
C163 O162 1.182 . S
O164 Zn149 2.080 . S
O164 C167 1.305 . S
O165 Zn148 1.920 . S
O165 C167 1.234 . S
C166 O152 1.305 . S
C166 O153 1.234 . S
C167 O164 1.305 . S
C167 O165 1.234 . S
Zn168 O174 1.920 1_565 S
Zn168 O180 1.898 1_455 S
Zn168 O183 1.905 . S
Zn169 O177 1.905 . S
Zn169 O178 1.898 . S
Zn169 O186 1.920 . S
Zn170 O173 2.080 1_565 S
Zn170 O176 2.114 . S
Zn170 O179 2.120 . S
Zn170 O181 2.120 . S
Zn170 O182 2.114 . S
Zn170 O185 2.080 . S
C171 O176 1.166 . S
C171 O177 1.182 . S
C172 O178 1.167 . S
C172 O179 1.299 . S
O173 Zn170 2.080 1_545 S
O173 C187 1.305 . S
O174 Zn168 1.920 1_545 S
O174 C187 1.234 . S
C175 O180 1.167 . S
C175 O181 1.299 1_655 S
O176 Zn170 2.114 . S
O176 C171 1.166 . S
O177 Zn169 1.905 . S
O177 C171 1.182 . S
O178 Zn169 1.898 . S
O178 C172 1.167 . S
O179 Zn170 2.120 . S
O179 C172 1.299 . S
O180 Zn168 1.898 1_655 S
O180 C175 1.167 . S
O181 Zn170 2.120 . S
O181 C175 1.299 1_455 S
O182 Zn170 2.114 . S
O182 C184 1.166 . S
O183 Zn168 1.905 . S
O183 C184 1.182 . S
C184 O182 1.166 . S
C184 O183 1.182 . S
O185 Zn170 2.080 . S
O185 C188 1.305 . S
O186 Zn169 1.920 . S
O186 C188 1.234 . S
C187 O173 1.305 . S
C187 O174 1.234 . S
C188 O185 1.305 . S
C188 O186 1.234 . S
Zn189 O195 1.920 . S
Zn189 O201 1.898 1_545 S
Zn189 O204 1.905 . S
Zn190 O198 1.905 . S
Zn190 O199 1.898 . S
Zn190 O207 1.920 . S
Zn191 O194 2.080 . S
Zn191 O197 2.114 . S
Zn191 O200 2.120 . S
Zn191 O202 2.120 . S
Zn191 O203 2.114 . S
Zn191 O206 2.080 . S
C192 O197 1.166 . S
C192 O198 1.182 . S
C193 O199 1.167 . S
C193 O200 1.299 . S
O194 Zn191 2.080 . S
O194 C208 1.305 . S
O195 Zn189 1.920 . S
O195 C208 1.234 . S
C196 O201 1.167 . S
C196 O202 1.299 1_565 S
O197 Zn191 2.114 . S
O197 C192 1.166 . S
O198 Zn190 1.905 . S
O198 C192 1.182 . S
O199 Zn190 1.898 . S
O199 C193 1.167 . S
O200 Zn191 2.120 . S
O200 C193 1.299 . S
O201 Zn189 1.898 1_565 S
O201 C196 1.167 . S
O202 Zn191 2.120 . S
O202 C196 1.299 1_545 S
O203 Zn191 2.114 . S
O203 C205 1.166 . S
O204 Zn189 1.905 . S
O204 C205 1.182 . S
C205 O203 1.166 . S
C205 O204 1.182 . S
O206 Zn191 2.080 . S
O206 C209 1.305 . S
O207 Zn190 1.920 . S
O207 C209 1.234 . S
C208 O194 1.305 . S
C208 O195 1.234 . S
C209 O206 1.305 . S
C209 O207 1.234 . S
Zn210 O216 1.920 1_455 S
Zn210 O222 1.898 . S
Zn210 O225 1.905 . S
Zn211 O219 1.905 . S
Zn211 O220 1.898 . S
Zn211 O228 1.920 . S
Zn212 O215 2.080 1_455 S
Zn212 O218 2.114 . S
Zn212 O221 2.120 . S
Zn212 O223 2.120 . S
Zn212 O224 2.114 . S
Zn212 O227 2.080 . S
C213 O218 1.166 . S
C213 O219 1.182 . S
C214 O220 1.167 . S
C214 O221 1.299 . S
O215 Zn212 2.080 1_655 S
O215 C229 1.305 . S
O216 Zn210 1.920 1_655 S
O216 C229 1.234 . S
C217 O222 1.167 . S
C217 O223 1.299 . S
O218 Zn212 2.114 . S
O218 C213 1.166 . S
O219 Zn211 1.905 . S
O219 C213 1.182 . S
O220 Zn211 1.898 . S
O220 C214 1.167 . S
O221 Zn212 2.120 . S
O221 C214 1.299 . S
O222 Zn210 1.898 . S
O222 C217 1.167 . S
O223 Zn212 2.120 . S
O223 C217 1.299 . S
O224 Zn212 2.114 . S
O224 C226 1.166 . S
O225 Zn210 1.905 . S
O225 C226 1.182 . S
C226 O224 1.166 . S
C226 O225 1.182 . S
O227 Zn212 2.080 . S
O227 C230 1.305 . S
O228 Zn211 1.920 . S
O228 C230 1.234 . S
C229 O215 1.305 . S
C229 O216 1.234 . S
C230 O227 1.305 . S
C230 O228 1.234 . S
Zn231 O237 1.920 1_545 S
Zn231 O243 1.898 1_655 S
Zn231 O246 1.905 . S
Zn232 O240 1.905 . S
Zn232 O241 1.898 . S
Zn232 O249 1.920 . S
Zn233 O236 2.080 1_545 S
Zn233 O239 2.114 . S
Zn233 O242 2.120 . S
Zn233 O244 2.120 . S
Zn233 O245 2.114 . S
Zn233 O248 2.080 . S
C234 O239 1.166 . S
C234 O240 1.182 . S
C235 O241 1.167 . S
C235 O242 1.299 . S
O236 Zn233 2.080 1_565 S
O236 C250 1.305 . S
O237 Zn231 1.920 1_565 S
O237 C250 1.234 . S
C238 O243 1.167 . S
C238 O244 1.299 1_455 S
O239 Zn233 2.114 . S
O239 C234 1.166 . S
O240 Zn232 1.905 . S
O240 C234 1.182 . S
O241 Zn232 1.898 . S
O241 C235 1.167 . S
O242 Zn233 2.120 . S
O242 C235 1.299 . S
O243 Zn231 1.898 1_455 S
O243 C238 1.167 . S
O244 Zn233 2.120 . S
O244 C238 1.299 1_655 S
O245 Zn233 2.114 . S
O245 C247 1.166 . S
O246 Zn231 1.905 . S
O246 C247 1.182 . S
C247 O245 1.166 . S
C247 O246 1.182 . S
O248 Zn233 2.080 . S
O248 C251 1.305 . S
O249 Zn232 1.920 . S
O249 C251 1.234 . S
C250 O236 1.305 . S
C250 O237 1.234 . S
C251 O248 1.305 . S
C251 O249 1.234 . S
C91 C19 0.449 . S
C112 C41 0.449 . S
C61 C7 0.449 . S
C82 C25 0.449 . S
C103 C49 0.449 . S
C70 C124 0.449 . S
C175 C146 0.449 . S
C166 C196 0.449 . S
C217 C187 0.449 . S
C208 C238 0.449 . S
C229 C130 0.449 . S
C154 C250 0.449 . S
C88 C3 1.407 . S
C37 C109 1.407 . S
C45 C4 1.407 . S
C66 C28 1.407 . S
C46 C87 1.407 . S
C67 C108 1.407 . S
C172 C142 1.407 . S
C150 C193 1.407 . S
C171 C214 1.407 . S
C235 C192 1.407 . S
C213 C133 1.407 . S
C151 C234 1.407 . S
C226 C16 1.467 . S
C24 C247 1.467 . S
C58 C129 1.467 . S
C79 C163 1.467 . S
C100 C184 1.467 . S
C205 C121 1.467 . S
C209 C20 1.483 1_556 S
C230 C40 1.483 1_455 S
C62 C251 1.483 1_564 S
C83 C145 1.483 . S
C167 C104 1.483 1_656 S
C188 C125 1.483 1_565 S
