# Generated by pormake.
# Topology snp, (6)-cn, num edge types: 1
# Building blocks:
#     Node 0, Type 0, BuildingBlock: CUKXOW_clean_sbu_0, # of connection points: 6
#     Node 1, Type 0, BuildingBlock: CUKXOW_clean_sbu_0, # of connection points: 6
#     Node 2, Type 0, BuildingBlock: CUKXOW_clean_sbu_0, # of connection points: 6
#     Node 3, Type 0, BuildingBlock: CUKXOW_clean_sbu_0, # of connection points: 6
#     Edge 4, Type (0, 0), BuildingBlock: ZUJKAS_clean_linker_0, # of connection points: 2
#     Edge 5, Type (0, 0), BuildingBlock: ZUJKAS_clean_linker_0, # of connection points: 2
#     Edge 6, Type (0, 0), BuildingBlock: ZUJKAS_clean_linker_0, # of connection points: 2
#     Edge 7, Type (0, 0), BuildingBlock: ZUJKAS_clean_linker_0, # of connection points: 2
#     Edge 8, Type (0, 0), BuildingBlock: ZUJKAS_clean_linker_0, # of connection points: 2
#     Edge 9, Type (0, 0), BuildingBlock: ZUJKAS_clean_linker_0, # of connection points: 2
#     Edge 10, Type (0, 0), BuildingBlock: ZUJKAS_clean_linker_0, # of connection points: 2
#     Edge 11, Type (0, 0), BuildingBlock: ZUJKAS_clean_linker_0, # of connection points: 2
#     Edge 12, Type (0, 0), BuildingBlock: ZUJKAS_clean_linker_0, # of connection points: 2
#     Edge 13, Type (0, 0), BuildingBlock: ZUJKAS_clean_linker_0, # of connection points: 2
#     Edge 14, Type (0, 0), BuildingBlock: ZUJKAS_clean_linker_0, # of connection points: 2
#     Edge 15, Type (0, 0), BuildingBlock: ZUJKAS_clean_linker_0, # of connection points: 2
# Relax obj value: 0.228
# Max RMSD: 0.183
# Mean RMSD: 0.179
data_MOF--net-snp--node1-CUKXOW_clean_sbu_0--edge1-ZUJKAS_clean_linker_0
_symmetry_space_group_name_H-M    P1
_symmetry_Int_Tables_number       1
_symmetry_cell_setting            triclinic
loop_
_symmetry_equiv_pos_as_xyz
'x, y, z'
_cell_length_a     31.609493
_cell_length_b     31.705436
_cell_length_c     35.382402
_cell_angle_alpha  100.52179
_cell_angle_beta   98.418868
_cell_angle_gamma 101.89116
loop_
_atom_site_label
_atom_site_type_symbol
_atom_site_fract_x
_atom_site_fract_y
_atom_site_fract_z
_atom_type_partial_charge
Tb0 Tb 0.28642 0.07808 0.10541 0.0
C1 C 0.36745 0.10622 0.06754 0.0
Tb2 Tb 0.29357 0.16037 0.07275 0.0
O3 O 0.27548 0.036 0.04692 0.0
O4 O 0.25426 0.0943 0.05416 0.0
O5 O 0.35256 0.08477 0.09354 0.0
C6 C 0.28978 0.21267 0.02237 0.0
O7 O 0.3465 0.13319 0.05222 0.0
C8 C 0.32074 0.17931 0.14959 0.0
C9 C 0.22173 0.14099 0.1226 0.0
O10 O 0.32508 0.21301 0.04649 0.0
O11 O 0.25696 0.18308 0.02674 0.0
O12 O 0.31115 0.20755 0.12927 0.0
O13 O 0.32189 0.14491 0.12509 0.0
O14 O 0.23365 0.16256 0.09565 0.0
O15 O 0.239 0.10852 0.1313 0.0
C16 C 0.27944 0.01882 0.15009 0.0
O17 O 0.24776 0.02317 0.12443 0.0
O18 O 0.31524 0.04752 0.1502 0.0
C19 C 0.2588 0.06258 0.02878 0.0
Tb20 Tb 0.12161 0.26441 0.57586 0.0
C21 C 0.11238 0.35926 0.56076 0.0
Tb22 Tb 0.04798 0.27172 0.51137 0.0
O23 O 0.17169 0.2523 0.54072 0.0
O24 O 0.11249 0.26114 0.51495 0.0
O25 O 0.13039 0.3368 0.58444 0.0
C26 C 0.9987 0.27741 0.4454 0.0
O27 O 0.08017 0.34072 0.5303 0.0
C28 C 0.02339 0.25988 0.57876 0.0
C29 C 0.05357 0.18258 0.52141 0.0
O30 O 0.03897 0.29971 0.45941 0.0
O31 O 0.98618 0.25229 0.46874 0.0
O32 O 0.99731 0.24886 0.54479 0.0
O33 O 0.06003 0.28149 0.57417 0.0
O34 O 0.0591 0.20699 0.49549 0.0
O35 O 0.07506 0.19901 0.55811 0.0
C36 C 0.16693 0.2629 0.6448 0.0
O37 O 0.13313 0.2322 0.62484 0.0
O38 O 0.1751 0.29406 0.62591 0.0
C39 C 0.14887 0.25434 0.50779 0.0
Tb40 Tb 0.86404 1.00131 0.04779 0.0
C41 C 0.95443 0.01435 1.01833 0.0
Tb42 Tb 0.87743 0.05013 0.97602 0.0
O43 O 0.86359 0.93732 1.01138 0.0
O44 O 0.84756 0.98752 0.9858 0.0
O45 O 0.93218 0.00727 0.04635 0.0
C46 C 0.898 0.07947 0.91155 0.0
O47 O 0.93817 0.02683 0.98644 0.0
C48 C 0.88289 0.10038 0.04494 0.0
C49 C 0.78656 0.03757 1.00623 0.0
O50 O 0.91785 0.09578 0.94771 0.0
O51 O 0.86575 0.04613 0.91151 0.0
O52 O 0.87472 0.11328 1.01241 0.0
O53 O 0.89303 0.06376 0.03778 0.0
O54 O 0.80672 0.04319 0.97601 0.0
O55 O 0.80434 0.02533 0.03794 0.0
C56 C 0.87343 0.98448 0.1209 0.0
O57 O 0.84165 0.96341 0.09131 0.0
O58 O 0.89829 0.01575 0.10939 0.0
C59 C 0.85567 0.95004 0.97869 0.0
Tb60 Tb 0.08052 0.88704 0.53225 0.0
C61 C 0.0645 0.78571 0.54001 0.0
Tb62 Tb 1.00036 0.8447 0.56506 0.0
O63 O 0.12602 0.92197 0.58778 0.0
O64 O 0.06475 0.88461 0.58775 0.0
O65 O 0.08783 0.8186 0.5274 0.0
C66 C 0.94795 0.81379 0.61122 0.0
O67 O 0.02914 0.78867 0.55527 0.0
C68 C 0.98253 0.84859 0.49006 0.0
C69 C 0.0114 0.93853 0.55818 0.0
O70 O 0.98737 0.80824 0.61054 0.0
O71 O 0.93797 0.83641 0.58563 0.0
O72 O 0.95383 0.84573 0.51283 0.0
O73 O 0.01782 0.84297 0.50852 0.0
O74 O 0.00928 0.91459 0.58485 0.0
O75 O 0.03682 0.9324 0.5319 0.0
C76 C 0.12984 0.91118 0.48145 0.0
O77 O 0.13721 0.88449 0.50398 0.0
O78 O 0.09498 0.92477 0.48784 0.0
C79 C 0.09952 0.90851 0.61027 0.0
H80 H 1.00046 0.96681 0.06 0.0
H81 H 0.02511 0.01398 0.1245 0.0
H82 H 0.05809 0.12606 0.07166 0.0
H83 H 0.0233 0.07879 1.00755 0.0
H84 H 0.05228 0.06102 0.18028 0.0
H85 H 0.026 0.18087 0.09573 0.0
H86 H 0.98726 0.18648 0.12678 0.0
H87 H 0.98113 0.13386 0.09384 0.0
C88 C 0.01402 1.00167 0.06219 0.0
C89 C 1.00235 0.02093 0.03058 0.0
C90 C 0.02705 0.02919 0.09967 0.0
C91 C 0.03711 0.07544 0.10378 0.0
C92 C 0.0435 0.09162 0.06985 0.0
H93 H 0.17542 0.20506 0.11664 0.0
H94 H 0.1224 0.2239 0.15598 0.0
C95 C 0.02621 0.06399 0.03281 0.0
C96 C 0.0409 0.1065 0.14215 0.0
H97 H 0.0544 0.21662 0.18044 0.0
C98 C 0.0537 0.09482 0.17813 0.0
C99 C 0.03405 0.15008 0.14477 0.0
C100 C 1.00525 0.16301 0.11327 0.0
C101 C 0.07097 0.12877 0.21181 0.0
C102 C 0.08642 0.17139 0.2053 0.0
C103 C 0.0548 0.18229 0.17912 0.0
C104 C 0.13157 0.17859 0.19457 0.0
C105 C 0.08025 0.11858 0.25161 0.0
C106 C 0.15999 0.15229 0.20571 0.0
C107 C 0.18821 0.13968 0.18171 0.0
C108 C 0.19261 0.15664 0.14814 0.0
C109 C 0.17101 0.18965 0.14115 0.0
C110 C 0.14104 0.20091 0.16436 0.0
H111 H 0.0485 0.10717 0.26079 0.0
H112 H 0.09724 0.09113 0.25043 0.0
H113 H 0.10036 0.14812 0.27373 0.0
H114 H 0.15732 0.13723 0.23053 0.0
H115 H 0.2054 0.11522 0.18902 0.0
H116 H 0.99835 0.98537 0.5022 0.0
H117 H 0.93147 1.00493 0.47817 0.0
H118 H 0.868 0.94827 0.56388 0.0
H119 H 0.9363 0.92997 0.58908 0.0
H120 H 0.8446 0.01857 0.56549 0.0
H121 H 0.81404 0.96999 0.41104 0.0
H122 H 0.83474 0.93442 0.44007 0.0
H123 H 0.87167 0.9722 0.41992 0.0
C124 C 0.97034 0.97737 0.51617 0.0
C125 C 0.97301 0.95664 0.54777 0.0
C126 C 0.93118 0.98733 0.50163 0.0
C127 C 0.89323 0.97645 0.51804 0.0
C128 C 0.8961 0.95608 0.54999 0.0
H129 H 0.01981 0.1317 0.56981 0.0
H130 H 0.944 0.0917 0.56268 0.0
C131 C 0.93559 0.94648 0.56484 0.0
C132 C 0.85461 0.99476 0.50692 0.0
H133 H 0.86739 0.05539 0.43916 0.0
C134 C 0.84765 0.02637 0.53729 0.0
C135 C 0.84805 1.00369 0.46914 0.0
C136 C 0.84175 0.9677 0.43319 0.0
C137 C 0.85818 0.07085 0.53484 0.0
C138 C 0.87499 0.08069 0.50175 0.0
C139 C 0.86054 0.04808 0.46671 0.0
C140 C 0.9204 0.10886 0.50768 0.0
C141 C 0.86014 0.10643 0.57002 0.0
C142 C 0.93416 0.12893 0.47799 0.0
C143 C 0.9784 0.14923 0.48096 0.0
C144 C 0.00991 0.15154 0.51444 0.0
C145 C 0.99652 0.13062 0.54373 0.0
C146 C 0.95249 0.10899 0.54013 0.0
H147 H 0.82694 0.10292 0.57765 0.0
H148 H 0.88253 0.10232 0.59561 0.0
H149 H 0.87134 0.13999 0.56459 0.0
H150 H 0.91079 0.12859 0.45223 0.0
H151 H 0.98741 0.1647 0.45748 0.0
H152 H 0.72763 0.04571 0.94382 0.0
H153 H 0.65445 0.06079 0.94505 0.0
H154 H 0.67301 0.06528 0.06898 0.0
H155 H 0.74533 0.0503 0.06821 0.0
H156 H 0.58105 0.00794 0.97549 0.0
H157 H 0.63883 0.18384 0.05402 0.0
H158 H 0.6727 0.15495 0.02723 0.0
H159 H 0.66601 0.14668 0.07511 0.0
C160 C 0.71611 0.05002 0.9713 0.0
C161 C 0.74232 0.04661 1.00585 0.0
C162 C 0.67435 0.05856 0.97193 0.0
C163 C 0.65867 0.06455 1.0072 0.0
C164 C 0.68476 0.06122 0.04157 0.0
H165 H 0.41467 0.04647 0.0846 0.0
H166 H 0.48338 0.03668 0.06445 0.0
C167 C 0.72605 0.05233 0.04094 0.0
C168 C 0.61463 0.07324 1.00867 0.0
H169 H 0.56409 0.14853 0.05304 0.0
C170 C 0.57717 0.03889 0.99186 0.0
C171 C 0.60976 0.11374 0.02986 0.0
C172 C 0.6489 0.15213 0.04735 0.0
C173 C 0.53503 0.0433 0.99739 0.0
C174 C 0.53049 0.0829 1.02054 0.0
C175 C 0.56771 0.11805 0.0356 0.0
C176 C 0.48785 0.08778 0.03119 0.0
C177 C 0.49579 1.00532 0.97899 0.0
C178 C 0.46796 0.12028 1.0197 0.0
C179 C 0.42864 0.12603 0.0312 0.0
C180 C 0.40879 0.09973 0.05486 0.0
C181 C 0.42898 0.06729 0.0664 0.0
C182 C 0.46811 0.0614 0.05467 0.0
H183 H 0.50286 0.98256 0.95416 0.0
H184 H 0.48722 0.98619 1.00126 0.0
H185 H 0.46672 0.01748 0.96829 0.0
H186 H 0.48291 0.14122 1.00186 0.0
H187 H 0.41411 0.15141 0.02186 0.0
H188 H 0.15174 0.40134 0.51145 0.0
H189 H 0.16078 0.47937 0.50982 0.0
H190 H 0.11448 0.5028 0.6188 0.0
H191 H 0.10652 0.42446 0.62085 0.0
H192 H 0.08922 0.51238 0.50294 0.0
H193 H 0.21131 0.61479 0.63261 0.0
H194 H 0.20766 0.55668 0.61511 0.0
H195 H 0.16988 0.57401 0.64448 0.0
C196 C 0.14533 0.42363 0.53589 0.0
C197 C 0.12904 0.40729 0.56655 0.0
C198 C 0.15026 0.46812 0.53483 0.0
C199 C 0.1385 0.49712 0.56421 0.0
C200 C 0.12469 0.48135 0.59621 0.0
H201 H 0.01497 0.70695 0.54571 0.0
H202 H 0.03801 0.63902 0.54927 0.0
C203 C 0.12015 0.43665 0.59745 0.0
C204 C 0.13411 0.54129 0.55798 0.0
H205 H 0.16272 0.65175 0.59992 0.0
C206 C 0.10589 0.54287 0.52393 0.0
C207 C 0.156 0.58117 0.58513 0.0
C208 C 0.18826 0.58178 0.62122 0.0
C209 C 0.09765 0.58285 0.51703 0.0
C210 C 0.11767 0.62242 0.54514 0.0
C211 C 0.14731 0.6213 0.57845 0.0
C212 C 0.10462 0.66419 0.54208 0.0
C213 C 0.06683 0.58234 0.48001 0.0
C214 C 0.13456 0.70115 0.53691 0.0
C215 C 0.12138 0.74047 0.53466 0.0
C216 C 0.07824 0.74345 0.53812 0.0
C217 C 0.04846 0.70604 0.54293 0.0
C218 C 0.06152 0.667 0.54492 0.0
H219 H 0.06403 0.55243 0.45694 0.0
H220 H 0.03351 0.58218 0.48653 0.0
H221 H 0.07807 0.61212 0.46838 0.0
H222 H 0.16805 0.69959 0.53472 0.0
H223 H 0.14521 0.76877 0.5313 0.0
H224 H 0.10085 0.23397 0.43142 0.0
H225 H 0.12912 0.21639 0.37038 0.0
H226 H 0.26059 0.24328 0.43794 0.0
H227 H 0.23251 0.25877 0.49813 0.0
H228 H 0.18557 0.25998 0.33463 0.0
H229 H 0.25591 0.12548 0.37416 0.0
H230 H 0.22063 0.14995 0.40234 0.0
H231 H 0.2788 0.17525 0.41077 0.0
C232 C 0.13572 0.23603 0.43308 0.0
C233 C 0.16432 0.24727 0.46972 0.0
C234 C 0.15194 0.22589 0.39818 0.0
C235 C 0.19704 0.22697 0.39928 0.0
C236 C 0.22554 0.24026 0.43593 0.0
H237 H 0.32764 0.25555 0.20126 0.0
H238 H 0.30126 0.26603 0.26272 0.0
C239 C 0.20939 0.24966 0.4705 0.0
C240 C 0.21507 0.21551 0.36259 0.0
H241 H 0.2843 0.1572 0.32337 0.0
C242 C 0.20674 0.23709 0.33201 0.0
C243 C 0.24208 0.18493 0.3583 0.0
C244 C 0.24945 0.15726 0.38799 0.0
C245 C 0.22587 0.23058 0.29839 0.0
C246 C 0.25571 0.20246 0.29538 0.0
C247 C 0.26244 0.17943 0.32534 0.0
C248 C 0.27978 0.19629 0.26157 0.0
C249 C 0.21307 0.25416 0.26667 0.0
C250 C 0.28273 0.15399 0.24259 0.0
C251 C 0.30013 0.14806 0.20796 0.0
C252 C 0.31422 0.18417 0.19116 0.0
C253 C 0.31572 0.22669 0.21254 0.0
C254 C 0.29973 0.23271 0.24755 0.0
H255 H 0.17857 0.25745 0.26525 0.0
H256 H 0.23459 0.28806 0.27368 0.0
H257 H 0.21608 0.23695 0.23737 0.0
H258 H 0.26907 0.12505 0.25304 0.0
H259 H 0.29935 0.11498 0.19298 0.0
H260 H 0.07349 0.27724 0.65402 0.0
H261 H 0.05431 0.2459 0.70995 0.0
H262 H 0.92909 0.17208 0.63931 0.0
H263 H 0.94817 0.20265 0.58371 0.0
H264 H 0.98253 0.24995 0.74949 0.0
H265 H 0.97431 0.07553 0.68317 0.0
H266 H 0.99958 0.12079 0.66319 0.0
H267 H 0.94069 0.10089 0.65339 0.0
C268 C 0.04203 0.25407 0.65033 0.0
C269 C 0.01268 0.24227 0.61398 0.0
C270 C 0.03094 0.23615 0.68246 0.0
C271 C 0.99037 0.20562 0.67906 0.0
C272 C 0.96098 0.19445 0.64286 0.0
H273 H 0.85614 0.05473 0.83333 0.0
H274 H 0.87815 0.08544 0.77805 0.0
C275 C 0.9719 0.21241 0.61098 0.0
C276 C 0.97793 0.18631 0.71325 0.0
H277 H 0.94599 0.08845 0.74184 0.0
C278 C 0.97493 0.21464 0.74784 0.0
C279 C 0.96728 0.1401 0.71147 0.0
C280 C 0.97096 0.10751 0.67598 0.0
C281 C 0.96083 0.19836 0.77984 0.0
C282 C 0.95052 0.1521 0.77831 0.0
C283 C 0.95365 0.12379 0.74364 0.0
C284 C 0.93696 0.13265 0.81226 0.0
C285 C 0.95555 0.23122 0.81442 0.0
C286 C 0.96261 0.14772 0.85035 0.0
C287 C 0.94974 0.13045 0.88204 0.0
C288 C 0.91111 0.09682 0.87687 0.0
C289 C 0.88593 0.08071 0.83865 0.0
C290 C 0.89867 0.09833 0.80687 0.0
H291 H 0.95007 0.26202 0.80596 0.0
H292 H 0.92753 0.21728 0.82761 0.0
H293 H 0.98614 0.24038 0.837 0.0
H294 H 0.99304 0.17284 0.85574 0.0
H295 H 0.9704 0.14345 0.9108 0.0
H296 H 0.9119 0.87657 0.45979 0.0
H297 H 0.89671 0.9001 0.39835 0.0
H298 H 0.02092 0.87963 0.37234 0.0
H299 H 0.03586 0.85476 0.43401 0.0
H300 H 0.93739 0.96812 0.37083 0.0
H301 H 0.93825 0.81174 0.27092 0.0
H302 H 0.9377 0.81563 0.32236 0.0
H303 H 0.98812 0.83569 0.30654 0.0
C304 C 0.93604 0.87669 0.44098 0.0
C305 C 0.97508 0.86334 0.45202 0.0
C306 C 0.92732 0.89052 0.40571 0.0
C307 C 0.95713 0.89129 0.37984 0.0
C308 C 0.99665 0.87858 0.391 0.0
H309 H 0.93988 0.02806 0.18304 0.0
H310 H 0.96039 1.00678 0.24511 0.0
C311 C 0.00546 0.86467 0.42657 0.0
C312 C 0.94632 0.90567 0.34171 0.0
H313 H 0.92916 0.87143 0.24159 0.0
C314 C 0.93585 0.94692 0.34263 0.0
C315 C 0.9434 0.87812 0.30446 0.0
C316 C 0.95204 0.83265 0.30075 0.0
C317 C 0.92304 0.9613 0.30801 0.0
C318 C 0.92078 0.93405 0.27078 0.0
C319 C 0.93096 0.89268 0.26981 0.0
C320 C 0.90761 0.94766 0.2327 0.0
C321 C 0.91088 1.00525 0.31171 0.0
C322 C 0.87131 0.92155 0.20403 0.0
C323 C 0.85934 0.93386 0.16827 0.0
C324 C 0.88362 0.97242 0.15989 0.0
C325 C 0.91997 0.99843 0.18851 0.0
C326 C 0.93175 0.98628 0.22427 0.0
H327 H 0.90273 0.0164 0.34083 0.0
H328 H 0.93923 0.03052 0.30827 0.0
H329 H 0.8823 1.00359 0.28866 0.0
H330 H 0.85204 0.89152 0.20936 0.0
H331 H 0.83146 0.91277 0.14691 0.0
H332 H 0.04425 0.89586 0.66394 0.0
H333 H 0.06285 0.92481 0.73558 0.0
H334 H 0.19596 0.98229 0.72635 0.0
H335 H 0.17742 0.95476 0.65569 0.0
H336 H 0.1203 0.91179 0.79362 0.0
H337 H 0.16902 0.08786 0.78944 0.0
H338 H 0.14081 0.04592 0.74642 0.0
H339 H 0.19974 0.05677 0.76155 0.0
C340 C 0.07738 0.9148 0.67731 0.0
C341 C 0.10921 0.9233 0.65393 0.0
C342 C 0.08805 0.93145 0.71831 0.0
C343 C 0.13067 0.95705 0.7367 0.0
C344 C 0.1625 0.96419 0.71322 0.0
H345 H 0.26978 0.99582 0.97398 0.0
H346 H 0.23528 0.97177 0.90483 0.0
C347 C 0.15187 0.94793 0.6726 0.0
C348 C 0.14298 0.97523 0.78032 0.0
H349 H 0.19678 0.06889 0.84975 0.0
C350 C 0.13652 0.94627 0.80581 0.0
C351 C 0.16338 0.02051 0.79692 0.0
C352 C 0.16818 0.0546 0.77215 0.0
C353 C 0.1518 0.96065 0.84669 0.0
C354 C 0.17532 1.00515 0.86291 0.0
C355 C 0.17965 0.03462 0.83767 0.0
C356 C 0.19707 0.02114 0.90547 0.0
C357 C 0.14227 0.92779 0.87209 0.0
C358 C 0.18911 0.05849 0.9292 0.0
C359 C 0.2095 0.07282 0.9691 0.0
C360 C 0.2385 0.05024 0.98613 0.0
C361 C 0.24726 0.01374 0.96207 0.0
C362 C 0.22713 0.99962 0.92239 0.0
H363 H 0.11219 0.90132 0.85814 0.0
H364 H 0.17023 0.91184 0.8762 0.0
H365 H 0.13782 0.94404 0.90132 0.0
H366 H 0.16653 0.07618 0.91701 0.0
H367 H 0.20195 0.10101 0.98671 0.0
H368 H 0.82253 0.96368 0.90774 0.0
H369 H 0.82761 0.92309 0.84318 0.0
H370 H 0.89421 0.83775 0.89819 0.0
H371 H 0.8896 0.87849 0.96275 0.0
H372 H 0.93814 0.88356 0.84512 0.0
H373 H 0.76488 0.79381 0.77998 0.0
H374 H 0.77335 0.85119 0.80294 0.0
H375 H 0.78461 0.81271 0.83224 0.0
C376 C 0.83816 0.93623 0.90592 0.0
C377 C 0.85624 0.92444 0.93994 0.0
C378 C 0.84046 0.91274 0.86917 0.0
C379 C 0.86075 0.87718 0.86614 0.0
C380 C 0.87803 0.86484 0.90011 0.0
H381 H 0.96455 0.7661 0.66584 0.0
H382 H 0.93706 0.76992 0.72732 0.0
C383 C 0.8755 0.88815 0.93681 0.0
C384 C 0.86829 0.85617 0.82787 0.0
H385 H 0.81594 0.79702 0.73661 0.0
C386 C 0.91162 0.864 0.82149 0.0
C387 C 0.83336 0.83112 0.79734 0.0
C388 C 0.78639 0.82131 0.80336 0.0
C389 C 0.92094 0.84909 0.78464 0.0
C390 C 0.88595 0.82438 0.75377 0.0
C391 C 0.84265 0.8155 0.76049 0.0
C392 C 0.89358 0.81183 0.71354 0.0
C393 C 0.96784 0.86219 0.77864 0.0
C394 C 0.87539 0.83106 0.68438 0.0
C395 C 0.89035 0.82818 0.64906 0.0
C396 C 0.92392 0.80637 0.64276 0.0
C397 C 0.93894 0.78349 0.67033 0.0
C398 C 0.92347 0.78583 0.70544 0.0
H399 H 0.98864 0.88912 0.80292 0.0
H400 H 0.98264 0.83325 0.77732 0.0
H401 H 0.96892 0.87334 0.75073 0.0
H402 H 0.85205 0.85102 0.69005 0.0
H403 H 0.87815 0.84594 0.6281 0.0
H404 H 0.20262 0.96986 0.16044 0.0
H405 H 0.18958 0.94269 0.21905 0.0
H406 H 0.32886 0.98385 0.26722 0.0
H407 H 0.34202 0.01217 0.2089 0.0
H408 H 0.2213 0.88454 0.262 0.0
H409 H 0.27433 0.0604 0.34351 0.0
H410 H 0.26204 0.04529 0.29072 0.0
H411 H 0.31261 0.03922 0.31724 0.0
C412 C 0.23057 0.97215 0.18311 0.0
C413 C 0.27321 0.9936 0.18057 0.0
C414 C 0.2231 0.95659 0.21652 0.0
C415 C 0.25818 0.96218 0.24768 0.0
C416 C 0.30132 0.98007 0.2437 0.0
H417 H 0.20025 0.88054 0.46311 0.0
H418 H 0.23752 0.89211 0.40839 0.0
C419 C 0.30879 0.99596 0.21037 0.0
C420 C 0.24849 0.95404 0.28563 0.0
H421 H 0.24427 0.00822 0.37717 0.0
C422 C 0.22696 0.91134 0.28747 0.0
C423 C 0.25551 0.98939 0.31849 0.0
C424 C 0.27709 0.03626 0.31757 0.0
C425 C 0.21099 0.90323 0.32106 0.0
C426 C 0.21716 0.93876 0.35353 0.0
C427 C 0.23993 0.98115 0.35216 0.0
C428 C 0.19673 0.93343 0.38778 0.0
C429 C 0.18571 0.85728 0.32093 0.0
C430 C 0.16236 0.95383 0.39468 0.0
C431 C 0.14119 0.94742 0.42582 0.0
C432 C 0.15434 0.92071 0.45059 0.0
C433 C 0.18955 0.90126 0.44431 0.0
C434 C 0.21067 0.90763 0.41307 0.0
H435 H 0.17816 0.83507 0.29139 0.0
H436 H 0.20551 0.84281 0.34135 0.0
H437 H 0.15431 0.85843 0.3312 0.0
H438 H 0.15129 0.97393 0.37541 0.0
H439 H 0.11404 0.96264 0.43004 0.0
H440 H 0.23483 0.32803 0.68929 0.0
H441 H 0.27195 0.33241 0.7562 0.0
H442 H 0.18941 0.20543 0.75527 0.0
H443 H 0.15211 0.20085 0.68833 0.0
H444 H 0.22779 0.3294 0.82097 0.0
H445 H 0.31666 0.1962 0.7961 0.0
H446 H 0.29654 0.22137 0.75741 0.0
H447 H 0.25956 0.17957 0.77285 0.0
C448 C 0.225 0.30085 0.70326 0.0
C449 C 0.19079 0.26403 0.68386 0.0
C450 C 0.24619 0.30342 0.74133 0.0
C451 C 0.23373 0.26901 0.76025 0.0
C452 C 0.19996 0.23191 0.74071 0.0
H453 H 0.21673 0.22304 0.97872 0.0
H454 H 0.21208 0.24988 0.91821 0.0
C455 C 0.1786 0.2294 0.70269 0.0
C456 C 0.2536 0.27308 0.80144 0.0
H457 H 0.30524 0.21916 0.86166 0.0
C458 C 0.24557 0.30593 0.82996 0.0
C459 C 0.27727 0.24282 0.81284 0.0
C460 C 0.28844 0.20823 0.78318 0.0
C461 C 0.25784 0.3072 0.8699 0.0
C462 C 0.27843 0.27476 0.88121 0.0
C463 C 0.28936 0.24398 0.85275 0.0
C464 C 0.28261 0.26756 0.92136 0.0
C465 C 0.24706 0.34195 0.89963 0.0
C466 C 0.32391 0.26939 0.94334 0.0
C467 C 0.32663 0.25432 0.97814 0.0
C468 C 0.28801 0.23649 0.99064 0.0
C469 C 0.24693 0.23674 0.96959 0.0
C470 C 0.24425 0.25229 0.93522 0.0
H471 H 0.24385 0.37148 0.88772 0.0
H472 H 0.21516 0.32811 0.9075 0.0
H473 H 0.27272 0.35235 0.92675 0.0
H474 H 0.35376 0.28065 0.93271 0.0
H475 H 0.35865 0.25413 0.9939 0.0
H476 H 0.90727 0.18928 0.07268 0.0
H477 H 0.91566 0.22894 0.14089 0.0
H478 H 0.85988 0.10659 0.17155 0.0
H479 H 0.85135 0.0675 0.10379 0.0
H480 H 0.86316 0.23926 0.19798 0.0
H481 H 0.98504 0.14287 0.23516 0.0
H482 H 0.96045 0.14027 0.18525 0.0
H483 H 0.93112 0.10831 0.21448 0.0
C484 C 0.89628 0.17115 0.09401 0.0
C485 C 0.8811 0.125 0.08381 0.0
C486 C 0.90093 0.19376 0.1328 0.0
C487 C 0.88987 0.17033 0.16141 0.0
C488 C 0.87019 0.12496 0.15015 0.0
H489 H 0.91838 0.22422 0.41058 0.0
H490 H 0.88649 0.20554 0.34053 0.0
C491 C 0.86601 0.10248 0.11162 0.0
C492 C 0.90274 0.19207 0.20338 0.0
H493 H 0.9651 0.18659 0.28877 0.0
C494 C 0.88556 0.22795 0.21787 0.0
C495 C 0.9324 0.17742 0.22908 0.0
C496 C 0.95366 0.1404 0.21514 0.0
C497 C 0.89649 0.24879 0.25781 0.0
C498 C 0.92517 0.23329 0.28335 0.0
C499 C 0.94283 0.19802 0.26882 0.0
C500 C 0.93771 0.25266 0.32561 0.0
C501 C 0.87727 0.28683 0.27282 0.0
C502 C 0.97633 0.28613 0.34014 0.0
C503 C 0.99471 0.29674 0.38005 0.0
C504 C 0.97473 0.27369 0.40565 0.0
C505 C 0.93435 0.24248 0.39139 0.0
C506 C 0.91603 0.23189 0.35151 0.0
H507 H 0.85526 0.29498 0.24916 0.0
H508 H 0.85829 0.2786 0.29563 0.0
H509 H 0.90428 0.31648 0.2868 0.0
H510 H 0.99368 0.30197 0.3203 0.0
H511 H 0.0259 0.3209 0.3904 0.0
loop_
_geom_bond_atom_site_label_1
_geom_bond_atom_site_label_2
_geom_bond_distance
_geom_bond_site_symmetry_2
_ccdc_geom_bond_type
Tb0 O3 2.451 . S
Tb0 O4 2.596 . S
Tb0 O5 2.374 . S
Tb0 O13 2.343 . S
Tb0 O15 2.353 . S
Tb0 O17 2.427 . S
Tb0 O18 2.513 . S
C1 O5 1.251 . S
C1 O7 1.263 . S
Tb2 O4 2.343 . S
Tb2 O7 2.353 . S
Tb2 O10 2.427 1_554 S
Tb2 O11 2.513 1_554 S
Tb2 O12 2.453 . S
Tb2 O13 2.596 . S
Tb2 O14 2.374 . S
O3 Tb0 2.451 . S
O3 C19 1.246 1_554 S
O4 Tb0 2.596 . S
O4 Tb2 2.343 . S
O4 C19 1.259 1_554 S
O5 Tb0 2.374 . S
O5 C1 1.251 . S
C6 O10 1.275 . S
C6 O11 1.246 . S
O7 C1 1.263 . S
O7 Tb2 2.353 . S
C8 O12 1.245 . S
C8 O13 1.259 . S
C9 O14 1.250 . S
C9 O15 1.263 . S
O10 Tb2 2.427 1_556 S
O10 C6 1.275 . S
O11 Tb2 2.513 1_556 S
O11 C6 1.246 . S
O12 Tb2 2.453 . S
O12 C8 1.245 . S
O13 Tb0 2.343 . S
O13 Tb2 2.596 . S
O13 C8 1.259 . S
O14 Tb2 2.374 . S
O14 C9 1.250 . S
O15 Tb0 2.353 . S
O15 C9 1.263 . S
C16 O17 1.275 . S
C16 O18 1.246 . S
O17 Tb0 2.427 . S
O17 C16 1.275 . S
O18 Tb0 2.513 . S
O18 C16 1.246 . S
C19 O3 1.246 1_556 S
C19 O4 1.259 1_556 S
Tb20 O23 2.453 . S
Tb20 O24 2.596 . S
Tb20 O25 2.374 . S
Tb20 O33 2.343 . S
Tb20 O35 2.353 . S
Tb20 O37 2.427 . S
Tb20 O38 2.513 . S
C21 O25 1.251 . S
C21 O27 1.263 . S
Tb22 O24 2.343 1_655 S
Tb22 O27 2.353 1_655 S
Tb22 O30 2.427 . S
Tb22 O31 2.513 . S
Tb22 O32 2.453 . S
Tb22 O33 2.596 1_655 S
Tb22 O34 2.374 1_655 S
O23 Tb20 2.453 . S
O23 C39 1.245 . S
O24 Tb20 2.596 . S
O24 Tb22 2.343 1_455 S
O24 C39 1.259 . S
O25 Tb20 2.374 . S
O25 C21 1.251 . S
C26 O30 1.275 . S
C26 O31 1.246 . S
O27 C21 1.263 . S
O27 Tb22 2.353 1_455 S
C28 O32 1.245 1_455 S
C28 O33 1.259 . S
C29 O34 1.250 . S
C29 O35 1.263 . S
O30 Tb22 2.427 . S
O30 C26 1.275 . S
O31 Tb22 2.513 . S
O31 C26 1.246 . S
O32 Tb22 2.453 . S
O32 C28 1.245 1_655 S
O33 Tb20 2.343 . S
O33 Tb22 2.596 1_455 S
O33 C28 1.259 . S
O34 Tb22 2.374 1_455 S
O34 C29 1.250 . S
O35 Tb20 2.353 . S
O35 C29 1.263 . S
C36 O37 1.275 . S
C36 O38 1.246 . S
O37 Tb20 2.427 . S
O37 C36 1.275 . S
O38 Tb20 2.513 . S
O38 C36 1.246 . S
C39 O23 1.245 . S
C39 O24 1.259 . S
Tb40 O43 2.453 1_554 S
Tb40 O44 2.596 1_554 S
Tb40 O45 2.374 . S
Tb40 O53 2.343 1_565 S
Tb40 O55 2.351 1_554 S
Tb40 O57 2.427 . S
Tb40 O58 2.513 . S
C41 O45 1.251 1_545 S
C41 O47 1.263 . S
Tb42 O44 2.343 1_545 S
Tb42 O47 2.353 1_556 S
Tb42 O50 2.427 . S
Tb42 O51 2.513 . S
Tb42 O52 2.453 1_556 S
Tb42 O53 2.596 1_556 S
Tb42 O54 2.374 . S
O43 Tb40 2.453 1_556 S
O43 C59 1.245 . S
O44 Tb40 2.596 1_556 S
O44 Tb42 2.343 1_565 S
O44 C59 1.259 . S
O45 Tb40 2.374 . S
O45 C41 1.251 1_565 S
C46 O50 1.275 . S
C46 O51 1.246 . S
O47 C41 1.263 . S
O47 Tb42 2.353 1_554 S
C48 O52 1.245 . S
C48 O53 1.259 . S
C49 O54 1.258 . S
C49 O55 1.263 1_545 S
O50 Tb42 2.427 . S
O50 C46 1.275 . S
O51 Tb42 2.513 . S
O51 C46 1.246 . S
O52 Tb42 2.453 1_554 S
O52 C48 1.245 . S
O53 Tb40 2.343 1_545 S
O53 Tb42 2.596 1_554 S
O53 C48 1.259 . S
O54 Tb42 2.374 . S
O54 C49 1.258 . S
O55 Tb40 2.351 1_556 S
O55 C49 1.263 1_565 S
C56 O57 1.275 . S
C56 O58 1.246 . S
O57 Tb40 2.427 . S
O57 C56 1.275 . S
O58 Tb40 2.513 . S
O58 C56 1.246 . S
C59 O43 1.245 . S
C59 O44 1.259 . S
Tb60 O63 2.453 . S
Tb60 O64 2.596 . S
Tb60 O65 2.374 . S
Tb60 O73 2.343 . S
Tb60 O75 2.353 . S
Tb60 O77 2.427 . S
Tb60 O78 2.513 . S
C61 O65 1.251 . S
C61 O67 1.263 . S
Tb62 O64 2.343 . S
Tb62 O67 2.353 . S
Tb62 O70 2.427 1_455 S
Tb62 O71 2.513 . S
Tb62 O72 2.453 1_455 S
Tb62 O73 2.596 . S
Tb62 O74 2.374 . S
O63 Tb60 2.453 . S
O63 C79 1.245 . S
O64 Tb60 2.596 . S
O64 Tb62 2.343 . S
O64 C79 1.259 . S
O65 Tb60 2.374 . S
O65 C61 1.251 . S
C66 O70 1.275 . S
C66 O71 1.246 1_655 S
O67 C61 1.263 . S
O67 Tb62 2.353 . S
C68 O72 1.245 1_455 S
C68 O73 1.259 . S
C69 O74 1.250 . S
C69 O75 1.263 . S
O70 Tb62 2.427 1_655 S
O70 C66 1.275 . S
O71 Tb62 2.513 . S
O71 C66 1.246 1_455 S
O72 Tb62 2.453 1_655 S
O72 C68 1.245 1_655 S
O73 Tb60 2.343 . S
O73 Tb62 2.596 . S
O73 C68 1.259 . S
O74 Tb62 2.374 . S
O74 C69 1.250 . S
O75 Tb60 2.353 . S
O75 C69 1.263 . S
C76 O77 1.275 . S
C76 O78 1.246 . S
O77 Tb60 2.427 . S
O77 C76 1.275 . S
O78 Tb60 2.513 . S
O78 C76 1.246 . S
C79 O63 1.245 . S
C79 O64 1.259 . S
H80 C88 0.929 . S
H81 C90 0.930 . S
H82 C92 0.934 . S
H83 C95 0.929 . S
H84 C98 0.930 . S
H85 C100 0.960 . S
H86 C100 0.960 1_655 S
H87 C100 0.965 . S
C88 H80 0.929 . S
C88 C89 1.377 1_544 S
C88 C90 1.384 . S
C89 C88 1.377 1_566 S
C89 C95 1.390 . S
C90 H81 0.930 . S
C90 C88 1.384 . S
C90 C91 1.372 . S
C91 C90 1.372 . S
C91 C92 1.392 1_544 S
C91 C96 1.490 1_655 S
C92 H82 0.934 . S
C92 C91 1.392 1_566 S
C92 C95 1.390 . S
H93 C109 0.930 . S
H94 C110 0.931 . S
C95 H83 0.929 . S
C95 C89 1.390 . S
C95 C92 1.390 . S
C96 C91 1.490 1_455 S
C96 C98 1.395 . S
C96 C99 1.403 . S
H97 C103 0.930 . S
C98 H84 0.930 . S
C98 C96 1.395 . S
C98 C101 1.403 . S
C99 C96 1.403 . S
C99 C100 1.524 1_554 S
C99 C103 1.400 . S
C100 H85 0.960 . S
C100 H86 0.960 1_455 S
C100 H87 0.965 . S
C100 C99 1.524 1_556 S
C101 C98 1.403 . S
C101 C102 1.392 . S
C101 C105 1.495 . S
C102 C101 1.392 . S
C102 C103 1.385 . S
C102 C104 1.478 . S
C103 H97 0.930 . S
C103 C99 1.400 . S
C103 C102 1.385 . S
C104 C102 1.478 . S
C104 C106 1.381 . S
C104 C110 1.383 . S
C105 C101 1.495 . S
C105 H111 0.959 . S
C105 H112 0.961 . S
C105 H113 0.960 . S
C106 C104 1.381 . S
C106 C107 1.394 . S
C106 H114 0.930 . S
C107 C106 1.394 . S
C107 C108 1.383 . S
C107 H115 0.929 . S
C108 C107 1.383 . S
C108 C109 1.377 . S
C109 H93 0.930 . S
C109 C108 1.377 . S
C109 C110 1.379 . S
C110 H94 0.931 . S
C110 C104 1.383 . S
C110 C109 1.379 . S
H111 C105 0.959 . S
H112 C105 0.961 . S
H113 C105 0.960 . S
H114 C106 0.930 . S
H115 C107 0.929 . S
H116 C124 0.929 . S
H117 C126 0.930 . S
H118 C128 0.930 . S
H119 C131 0.929 . S
H120 C134 0.930 1_655 S
H121 C136 0.960 . S
H122 C136 0.960 . S
H123 C136 0.960 . S
C124 H116 0.929 . S
C124 C125 1.377 . S
C124 C126 1.384 . S
C125 C124 1.377 . S
C125 C131 1.390 . S
C126 H117 0.930 . S
C126 C124 1.384 . S
C126 C127 1.372 . S
C127 C126 1.372 . S
C127 C128 1.400 . S
C127 C132 1.490 1_565 S
C128 H118 0.930 . S
C128 C127 1.400 . S
C128 C131 1.386 . S
H129 C145 0.930 . S
H130 C146 0.931 . S
C131 H119 0.929 . S
C131 C125 1.390 . S
C131 C128 1.386 . S
C132 C127 1.490 1_545 S
C132 C134 1.395 . S
C132 C135 1.403 . S
H133 C139 0.930 . S
C134 H120 0.930 1_455 S
C134 C132 1.395 . S
C134 C137 1.403 . S
C135 C132 1.403 . S
C135 C136 1.524 . S
C135 C139 1.400 . S
C136 H121 0.960 . S
C136 H122 0.960 . S
C136 H123 0.960 . S
C136 C135 1.524 . S
C137 C134 1.403 . S
C137 C138 1.392 . S
C137 C141 1.495 1_455 S
C138 C137 1.392 . S
C138 C139 1.385 . S
C138 C140 1.478 . S
C139 H133 0.930 . S
C139 C135 1.400 . S
C139 C138 1.385 . S
C140 C138 1.478 . S
C140 C142 1.381 . S
C140 C146 1.383 . S
C141 C137 1.495 1_655 S
C141 H147 0.959 . S
C141 H148 0.961 . S
C141 H149 0.960 . S
C142 C140 1.381 . S
C142 C143 1.394 . S
C142 H150 0.930 . S
C143 C142 1.394 . S
C143 C144 1.383 . S
C143 H151 0.929 . S
C144 C143 1.383 . S
C144 C145 1.377 . S
C145 H129 0.930 . S
C145 C144 1.377 . S
C145 C146 1.379 . S
C146 H130 0.931 . S
C146 C140 1.383 . S
C146 C145 1.379 . S
H147 C141 0.959 . S
H148 C141 0.961 . S
H149 C141 0.960 . S
H150 C142 0.930 . S
H151 C143 0.929 . S
H152 C160 0.929 1_565 S
H153 C162 0.930 . S
H154 C164 0.930 . S
H155 C167 0.929 . S
H156 C170 0.926 1_566 S
H157 C172 0.960 . S
H158 C172 0.960 . S
H159 C172 0.960 . S
C160 H152 0.929 1_545 S
C160 C161 1.377 1_556 S
C160 C162 1.384 . S
C161 C160 1.377 1_554 S
C161 C167 1.390 . S
C162 H153 0.930 . S
C162 C160 1.384 . S
C162 C163 1.372 1_556 S
C163 C162 1.372 1_554 S
C163 C164 1.400 . S
C163 C168 1.490 . S
C164 H154 0.930 . S
C164 C163 1.400 . S
C164 C167 1.386 . S
H165 C181 0.930 . S
H166 C182 0.931 . S
C167 H155 0.929 . S
C167 C161 1.390 . S
C167 C164 1.386 . S
C168 C163 1.490 . S
C168 C170 1.395 . S
C168 C171 1.403 . S
H169 C175 0.930 . S
C170 H156 0.926 1_544 S
C170 C168 1.395 . S
C170 C173 1.403 . S
C171 C168 1.403 . S
C171 C172 1.524 . S
C171 C175 1.400 . S
C172 H157 0.960 . S
C172 H158 0.960 . S
C172 H159 0.960 . S
C172 C171 1.524 . S
C173 C170 1.403 . S
C173 C174 1.392 . S
C173 C177 1.495 1_545 S
C174 C173 1.392 . S
C174 C175 1.385 . S
C174 C176 1.478 . S
C175 H169 0.930 . S
C175 C171 1.400 . S
C175 C174 1.385 . S
C176 C174 1.478 . S
C176 C178 1.381 . S
C176 C182 1.383 . S
C177 C173 1.495 1_565 S
C177 H183 0.959 1_554 S
C177 H184 0.961 . S
C177 H185 0.960 1_554 S
C178 C176 1.381 . S
C178 C179 1.394 . S
C178 H186 0.930 1_554 S
C179 C178 1.394 . S
C179 C180 1.383 . S
C179 H187 0.929 1_554 S
C180 C179 1.383 . S
C180 C181 1.377 . S
C181 H165 0.930 . S
C181 C180 1.377 . S
C181 C182 1.379 . S
C182 H166 0.931 . S
C182 C176 1.383 . S
C182 C181 1.379 . S
H183 C177 0.959 1_556 S
H184 C177 0.961 . S
H185 C177 0.960 1_556 S
H186 C178 0.930 1_556 S
H187 C179 0.929 1_556 S
H188 C196 0.929 . S
H189 C198 0.930 . S
H190 C200 0.930 . S
H191 C203 0.929 . S
H192 C206 0.930 1_655 S
H193 C208 0.960 . S
H194 C208 0.960 . S
H195 C208 0.960 . S
C196 H188 0.929 . S
C196 C197 1.377 . S
C196 C198 1.384 . S
C197 C196 1.377 . S
C197 C203 1.390 . S
C198 H189 0.930 . S
C198 C196 1.384 . S
C198 C199 1.372 . S
C199 C198 1.372 . S
C199 C200 1.400 . S
C199 C204 1.490 . S
C200 H190 0.930 . S
C200 C199 1.400 . S
C200 C203 1.386 . S
H201 C217 0.930 . S
H202 C218 0.931 . S
C203 H191 0.929 . S
C203 C197 1.390 . S
C203 C200 1.386 . S
C204 C199 1.490 . S
C204 C206 1.395 . S
C204 C207 1.403 . S
H205 C211 0.930 . S
C206 H192 0.930 1_455 S
C206 C204 1.395 . S
C206 C209 1.403 . S
C207 C204 1.403 . S
C207 C208 1.524 . S
C207 C211 1.400 . S
C208 H193 0.960 . S
C208 H194 0.960 . S
C208 H195 0.960 . S
C208 C207 1.524 . S
C209 C206 1.403 . S
C209 C210 1.392 . S
C209 C213 1.495 1_455 S
C210 C209 1.392 . S
C210 C211 1.385 . S
C210 C212 1.478 . S
C211 H205 0.930 . S
C211 C207 1.400 . S
C211 C210 1.385 . S
C212 C210 1.478 . S
C212 C214 1.381 . S
C212 C218 1.383 . S
C213 C209 1.495 1_655 S
C213 H219 0.959 . S
C213 H220 0.961 . S
C213 H221 0.960 . S
C214 C212 1.381 . S
C214 C215 1.394 . S
C214 H222 0.930 . S
C215 C214 1.394 . S
C215 C216 1.383 . S
C215 H223 0.929 . S
C216 C215 1.383 . S
C216 C217 1.377 . S
C217 H201 0.930 . S
C217 C216 1.377 . S
C217 C218 1.379 . S
C218 H202 0.931 . S
C218 C212 1.383 . S
C218 C217 1.379 . S
H219 C213 0.959 . S
H220 C213 0.961 . S
H221 C213 0.960 . S
H222 C214 0.930 . S
H223 C215 0.929 . S
H224 C232 0.929 . S
H225 C234 0.930 . S
H226 C236 0.930 . S
H227 C239 0.929 . S
H228 C242 0.930 . S
H229 C244 0.960 . S
H230 C244 0.960 . S
H231 C244 0.960 . S
C232 H224 0.929 . S
C232 C233 1.377 . S
C232 C234 1.384 . S
C233 C232 1.377 . S
C233 C239 1.390 . S
C234 H225 0.930 . S
C234 C232 1.384 . S
C234 C235 1.372 . S
C235 C234 1.372 . S
C235 C236 1.400 . S
C235 C240 1.490 . S
C236 H226 0.930 . S
C236 C235 1.400 . S
C236 C239 1.386 . S
H237 C253 0.930 . S
H238 C254 0.931 . S
C239 H227 0.929 . S
C239 C233 1.390 . S
C239 C236 1.386 . S
C240 C235 1.490 . S
C240 C242 1.395 . S
C240 C243 1.403 . S
H241 C247 0.930 . S
C242 H228 0.930 . S
C242 C240 1.395 . S
C242 C245 1.403 . S
C243 C240 1.403 . S
C243 C244 1.524 . S
C243 C247 1.400 . S
C244 H229 0.960 . S
C244 H230 0.960 . S
C244 H231 0.960 . S
C244 C243 1.524 . S
C245 C242 1.403 . S
C245 C246 1.392 . S
C245 C249 1.495 . S
C246 C245 1.392 . S
C246 C247 1.385 . S
C246 C248 1.478 . S
C247 H241 0.930 . S
C247 C243 1.400 . S
C247 C246 1.385 . S
C248 C246 1.478 . S
C248 C250 1.381 . S
C248 C254 1.383 . S
C249 C245 1.495 . S
C249 H255 0.959 . S
C249 H256 0.961 . S
C249 H257 0.960 . S
C250 C248 1.381 . S
C250 C251 1.394 . S
C250 H258 0.930 . S
C251 C250 1.394 . S
C251 C252 1.383 . S
C251 H259 0.929 . S
C252 C251 1.383 . S
C252 C253 1.377 . S
C253 H237 0.930 . S
C253 C252 1.377 . S
C253 C254 1.379 . S
C254 H238 0.931 . S
C254 C248 1.383 . S
C254 C253 1.379 . S
H255 C249 0.959 . S
H256 C249 0.961 . S
H257 C249 0.960 . S
H258 C250 0.930 . S
H259 C251 0.929 . S
H260 C268 0.929 1_455 S
H261 C270 0.930 . S
H262 C272 0.930 . S
H263 C275 0.929 . S
H264 C278 0.930 1_455 S
H265 C280 0.960 . S
H266 C280 0.960 . S
H267 C280 0.960 . S
C268 H260 0.929 1_655 S
C268 C269 1.377 . S
C268 C270 1.384 . S
C269 C268 1.377 . S
C269 C275 1.390 . S
C270 H261 0.930 . S
C270 C268 1.384 . S
C270 C271 1.372 . S
C271 C270 1.372 . S
C271 C272 1.400 . S
C271 C276 1.490 . S
C272 H262 0.930 . S
C272 C271 1.400 . S
C272 C275 1.386 . S
H273 C289 0.930 . S
H274 C290 0.931 . S
C275 H263 0.929 . S
C275 C269 1.390 . S
C275 C272 1.386 . S
C276 C271 1.490 . S
C276 C278 1.395 . S
C276 C279 1.403 . S
H277 C283 0.930 . S
C278 H264 0.930 1_655 S
C278 C276 1.395 . S
C278 C281 1.403 . S
C279 C276 1.403 . S
C279 C280 1.524 . S
C279 C283 1.400 . S
C280 H265 0.960 . S
C280 H266 0.960 . S
C280 H267 0.960 . S
C280 C279 1.524 . S
C281 C278 1.403 . S
C281 C282 1.392 . S
C281 C285 1.495 . S
C282 C281 1.392 . S
C282 C283 1.385 . S
C282 C284 1.478 . S
C283 H277 0.930 . S
C283 C279 1.400 . S
C283 C282 1.385 . S
C284 C282 1.478 . S
C284 C286 1.381 . S
C284 C290 1.383 . S
C285 C281 1.495 . S
C285 H291 0.959 1_655 S
C285 H292 0.961 . S
C285 H293 0.960 . S
C286 C284 1.381 . S
C286 C287 1.394 . S
C286 H294 0.930 . S
C287 C286 1.394 . S
C287 C288 1.383 . S
C287 H295 0.929 . S
C288 C287 1.383 . S
C288 C289 1.377 . S
C289 H273 0.930 . S
C289 C288 1.377 . S
C289 C290 1.379 . S
C290 H274 0.931 . S
C290 C284 1.383 . S
C290 C289 1.379 . S
H291 C285 0.959 1_455 S
H292 C285 0.961 . S
H293 C285 0.960 . S
H294 C286 0.930 . S
H295 C287 0.929 . S
H296 C304 0.929 . S
H297 C306 0.930 . S
H298 C308 0.930 . S
H299 C311 0.929 . S
H300 C314 0.930 . S
H301 C316 0.960 1_455 S
H302 C316 0.960 . S
H303 C316 0.960 1_455 S
C304 H296 0.929 . S
C304 C305 1.378 1_655 S
C304 C306 1.384 . S
C305 C304 1.378 1_455 S
C305 C311 1.389 . S
C306 H297 0.930 . S
C306 C304 1.384 . S
C306 C307 1.372 . S
C307 C306 1.372 . S
C307 C308 1.400 1_655 S
C307 C312 1.490 . S
C308 H298 0.930 . S
C308 C307 1.400 1_455 S
C308 C311 1.386 . S
H309 C325 0.930 . S
H310 C326 0.931 . S
C311 H299 0.929 . S
C311 C305 1.389 . S
C311 C308 1.386 . S
C312 C307 1.490 . S
C312 C314 1.395 . S
C312 C315 1.403 . S
H313 C319 0.930 . S
C314 H300 0.930 . S
C314 C312 1.395 . S
C314 C317 1.403 . S
C315 C312 1.403 . S
C315 C316 1.524 . S
C315 C319 1.400 . S
C316 H301 0.960 1_655 S
C316 H302 0.960 . S
C316 H303 0.960 1_655 S
C316 C315 1.524 . S
C317 C314 1.403 . S
C317 C318 1.392 . S
C317 C321 1.495 . S
C318 C317 1.392 . S
C318 C319 1.385 . S
C318 C320 1.478 . S
C319 H313 0.930 . S
C319 C315 1.400 . S
C319 C318 1.385 . S
C320 C318 1.478 . S
C320 C322 1.381 . S
C320 C326 1.383 . S
C321 C317 1.495 . S
C321 H327 0.959 . S
C321 H328 0.961 . S
C321 H329 0.960 . S
C322 C320 1.381 . S
C322 C323 1.394 . S
C322 H330 0.930 . S
C323 C322 1.394 . S
C323 C324 1.383 . S
C323 H331 0.929 . S
C324 C323 1.383 . S
C324 C325 1.377 . S
C325 H309 0.930 . S
C325 C324 1.377 . S
C325 C326 1.379 . S
C326 H310 0.931 . S
C326 C320 1.383 . S
C326 C325 1.379 . S
H327 C321 0.959 . S
H328 C321 0.961 . S
H329 C321 0.960 . S
H330 C322 0.930 . S
H331 C323 0.929 . S
H332 C340 0.929 . S
H333 C342 0.930 . S
H334 C344 0.930 . S
H335 C347 0.929 . S
H336 C350 0.930 . S
H337 C352 0.960 . S
H338 C352 0.960 . S
H339 C352 0.960 . S
C340 H332 0.929 . S
C340 C341 1.377 . S
C340 C342 1.384 . S
C341 C340 1.377 . S
C341 C347 1.390 . S
C342 H333 0.930 . S
C342 C340 1.384 . S
C342 C343 1.372 . S
C343 C342 1.372 . S
C343 C344 1.400 . S
C343 C348 1.490 . S
C344 H334 0.930 . S
C344 C343 1.400 . S
C344 C347 1.386 . S
H345 C361 0.911 1_565 S
H346 C362 0.931 . S
C347 H335 0.929 . S
C347 C341 1.390 . S
C347 C344 1.386 . S
C348 C343 1.490 . S
C348 C350 1.395 . S
C348 C351 1.403 . S
H349 C355 0.930 . S
C350 H336 0.930 . S
C350 C348 1.395 . S
C350 C353 1.403 . S
C351 C348 1.403 . S
C351 C352 1.524 . S
C351 C355 1.400 . S
C352 H337 0.960 . S
C352 H338 0.960 . S
C352 H339 0.960 . S
C352 C351 1.524 . S
C353 C350 1.403 . S
C353 C354 1.392 . S
C353 C357 1.495 . S
C354 C353 1.392 . S
C354 C355 1.385 . S
C354 C356 1.478 1_565 S
C355 H349 0.930 . S
C355 C351 1.400 . S
C355 C354 1.385 . S
C356 C354 1.478 1_545 S
C356 C358 1.381 . S
C356 C362 1.383 1_545 S
C357 C353 1.495 . S
C357 H363 0.959 . S
C357 H364 0.961 . S
C357 H365 0.960 1_565 S
C358 C356 1.381 . S
C358 C359 1.394 . S
C358 H366 0.930 . S
C359 C358 1.394 . S
C359 C360 1.383 . S
C359 H367 0.929 . S
C360 C359 1.383 . S
C360 C361 1.377 . S
C361 H345 0.911 1_545 S
C361 C360 1.377 . S
C361 C362 1.379 1_545 S
C362 H346 0.931 . S
C362 C356 1.383 1_565 S
C362 C361 1.379 1_565 S
H363 C357 0.959 . S
H364 C357 0.961 . S
H365 C357 0.960 1_545 S
H366 C358 0.930 . S
H367 C359 0.929 . S
H368 C376 0.929 1_545 S
H369 C378 0.930 1_545 S
H370 C380 0.930 . S
H371 C383 0.929 . S
H372 C386 0.930 . S
H373 C388 0.960 . S
H374 C388 0.960 . S
H375 C388 0.960 . S
C376 H368 0.929 1_565 S
C376 C377 1.377 . S
C376 C378 1.384 . S
C377 C376 1.377 . S
C377 C383 1.390 . S
C378 H369 0.930 1_565 S
C378 C376 1.384 . S
C378 C379 1.372 . S
C379 C378 1.372 . S
C379 C380 1.400 . S
C379 C384 1.490 . S
C380 H370 0.930 . S
C380 C379 1.400 . S
C380 C383 1.386 . S
H381 C397 0.930 . S
H382 C398 0.931 . S
C383 H371 0.929 . S
C383 C377 1.390 . S
C383 C380 1.386 . S
C384 C379 1.490 . S
C384 C386 1.395 . S
C384 C387 1.403 . S
H385 C391 0.930 . S
C386 H372 0.930 . S
C386 C384 1.395 . S
C386 C389 1.403 . S
C387 C384 1.403 . S
C387 C388 1.524 . S
C387 C391 1.400 . S
C388 H373 0.960 . S
C388 H374 0.960 . S
C388 H375 0.960 . S
C388 C387 1.524 . S
C389 C386 1.403 . S
C389 C390 1.392 . S
C389 C393 1.495 1_655 S
C390 C389 1.392 . S
C390 C391 1.385 . S
C390 C392 1.478 . S
C391 H385 0.930 . S
C391 C387 1.400 . S
C391 C390 1.385 . S
C392 C390 1.478 . S
C392 C394 1.381 . S
C392 C398 1.383 . S
C393 C389 1.495 1_455 S
C393 H399 0.959 . S
C393 H400 0.961 . S
C393 H401 0.960 . S
C394 C392 1.381 . S
C394 C395 1.394 . S
C394 H402 0.930 . S
C395 C394 1.394 . S
C395 C396 1.383 . S
C395 H403 0.929 1_655 S
C396 C395 1.383 . S
C396 C397 1.377 . S
C397 H381 0.930 . S
C397 C396 1.377 . S
C397 C398 1.379 . S
C398 H382 0.931 . S
C398 C392 1.383 . S
C398 C397 1.379 . S
H399 C393 0.959 . S
H400 C393 0.961 . S
H401 C393 0.960 . S
H402 C394 0.930 . S
H403 C395 0.929 1_455 S
H404 C412 0.929 . S
H405 C414 0.930 . S
H406 C416 0.930 1_565 S
H407 C419 0.929 . S
H408 C422 0.930 . S
H409 C424 0.960 . S
H410 C424 0.960 . S
H411 C424 0.960 . S
C412 H404 0.929 . S
C412 C413 1.377 . S
C412 C414 1.384 . S
C413 C412 1.377 . S
C413 C419 1.390 . S
C414 H405 0.930 . S
C414 C412 1.384 . S
C414 C415 1.381 . S
C415 C414 1.381 . S
C415 C416 1.398 . S
C415 C420 1.482 1_545 S
C416 H406 0.930 1_545 S
C416 C415 1.398 . S
C416 C419 1.386 . S
H417 C433 0.930 . S
H418 C434 0.931 . S
C419 H407 0.929 . S
C419 C413 1.390 . S
C419 C416 1.386 . S
C420 C415 1.482 1_565 S
C420 C422 1.395 . S
C420 C423 1.403 . S
H421 C427 0.930 . S
C422 H408 0.930 . S
C422 C420 1.395 . S
C422 C425 1.403 . S
C423 C420 1.403 . S
C423 C424 1.524 1_565 S
C423 C427 1.400 . S
C424 H409 0.960 . S
C424 H410 0.960 . S
C424 H411 0.960 . S
C424 C423 1.524 1_545 S
C425 C422 1.403 . S
C425 C426 1.392 . S
C425 C429 1.495 . S
C426 C425 1.392 . S
C426 C427 1.385 . S
C426 C428 1.478 . S
C427 H421 0.930 . S
C427 C423 1.400 . S
C427 C426 1.385 . S
C428 C426 1.478 . S
C428 C430 1.381 . S
C428 C434 1.383 . S
C429 C425 1.495 . S
C429 H435 0.959 . S
C429 H436 0.961 . S
C429 H437 0.960 . S
C430 C428 1.381 . S
C430 C431 1.394 . S
C430 H438 0.930 . S
C431 C430 1.394 . S
C431 C432 1.383 . S
C431 H439 0.929 . S
C432 C431 1.383 . S
C432 C433 1.377 . S
C433 H417 0.930 . S
C433 C432 1.377 . S
C433 C434 1.379 . S
C434 H418 0.931 . S
C434 C428 1.383 . S
C434 C433 1.379 . S
H435 C429 0.959 . S
H436 C429 0.961 . S
H437 C429 0.960 . S
H438 C430 0.930 . S
H439 C431 0.929 . S
H440 C448 0.929 . S
H441 C450 0.930 . S
H442 C452 0.930 . S
H443 C455 0.929 . S
H444 C458 0.930 . S
H445 C460 0.960 . S
H446 C460 0.960 . S
H447 C460 0.960 . S
C448 H440 0.929 . S
C448 C449 1.377 . S
C448 C450 1.384 . S
C449 C448 1.377 . S
C449 C455 1.390 . S
C450 H441 0.930 . S
C450 C448 1.384 . S
C450 C451 1.372 . S
C451 C450 1.372 . S
C451 C452 1.400 . S
C451 C456 1.490 . S
C452 H442 0.930 . S
C452 C451 1.400 . S
C452 C455 1.386 . S
H453 C469 0.930 . S
H454 C470 0.931 . S
C455 H443 0.929 . S
C455 C449 1.390 . S
C455 C452 1.386 . S
C456 C451 1.490 . S
C456 C458 1.395 . S
C456 C459 1.403 . S
H457 C463 0.930 . S
C458 H444 0.930 . S
C458 C456 1.395 . S
C458 C461 1.403 . S
C459 C456 1.403 . S
C459 C460 1.524 . S
C459 C463 1.400 . S
C460 H445 0.960 . S
C460 H446 0.960 . S
C460 H447 0.960 . S
C460 C459 1.524 . S
C461 C458 1.403 . S
C461 C462 1.392 . S
C461 C465 1.495 . S
C462 C461 1.392 . S
C462 C463 1.385 . S
C462 C464 1.478 . S
C463 H457 0.930 . S
C463 C459 1.400 . S
C463 C462 1.385 . S
C464 C462 1.478 . S
C464 C466 1.381 . S
C464 C470 1.383 . S
C465 C461 1.495 . S
C465 H471 0.959 . S
C465 H472 0.961 . S
C465 H473 0.960 . S
C466 C464 1.381 . S
C466 C467 1.394 . S
C466 H474 0.930 . S
C467 C466 1.394 . S
C467 C468 1.383 . S
C467 H475 0.929 . S
C468 C467 1.383 . S
C468 C469 1.377 . S
C469 H453 0.930 . S
C469 C468 1.377 . S
C469 C470 1.379 . S
C470 H454 0.931 . S
C470 C464 1.383 . S
C470 C469 1.379 . S
H471 C465 0.959 . S
H472 C465 0.961 . S
H473 C465 0.960 . S
H474 C466 0.930 . S
H475 C467 0.929 . S
H476 C484 0.929 . S
H477 C486 0.930 . S
H478 C488 0.930 . S
H479 C491 0.929 . S
H480 C494 0.930 . S
H481 C496 0.960 . S
H482 C496 0.960 . S
H483 C496 0.960 . S
C484 H476 0.929 . S
C484 C485 1.377 . S
C484 C486 1.384 . S
C485 C484 1.377 . S
C485 C491 1.390 . S
C486 H477 0.930 . S
C486 C484 1.384 . S
C486 C487 1.372 . S
C487 C486 1.372 . S
C487 C488 1.400 . S
C487 C492 1.490 . S
C488 H478 0.930 . S
C488 C487 1.400 . S
C488 C491 1.386 . S
H489 C505 0.930 . S
H490 C506 0.931 . S
C491 H479 0.929 . S
C491 C485 1.390 . S
C491 C488 1.386 . S
C492 C487 1.490 . S
C492 C494 1.395 . S
C492 C495 1.403 . S
H493 C499 0.930 . S
C494 H480 0.930 . S
C494 C492 1.395 . S
C494 C497 1.403 . S
C495 C492 1.403 . S
C495 C496 1.524 . S
C495 C499 1.400 . S
C496 H481 0.960 . S
C496 H482 0.960 . S
C496 H483 0.960 . S
C496 C495 1.524 . S
C497 C494 1.403 . S
C497 C498 1.392 . S
C497 C501 1.495 . S
C498 C497 1.392 . S
C498 C499 1.385 . S
C498 C500 1.478 . S
C499 H493 0.930 . S
C499 C495 1.400 . S
C499 C498 1.385 . S
C500 C498 1.478 . S
C500 C502 1.381 . S
C500 C506 1.383 . S
C501 C497 1.495 . S
C501 H507 0.959 . S
C501 H508 0.961 . S
C501 H509 0.960 . S
C502 C500 1.381 . S
C502 C503 1.394 . S
C502 H510 0.930 . S
C503 C502 1.394 . S
C503 C504 1.383 . S
C503 H511 0.929 1_655 S
C504 C503 1.383 . S
C504 C505 1.377 . S
C505 H489 0.930 . S
C505 C504 1.377 . S
C505 C506 1.379 . S
C506 H490 0.931 . S
C506 C500 1.383 . S
C506 C505 1.379 . S
H507 C501 0.959 . S
H508 C501 0.961 . S
H509 C501 0.960 . S
H510 C502 0.930 . S
H511 C503 0.929 1_455 S
C89 C41 1.712 1_566 S
C108 C9 1.731 . S
C125 C69 1.883 . S
C144 C29 1.915 . S
C161 C49 1.239 1_554 S
C180 C1 1.232 . S
C197 C21 1.067 . S
C216 C61 1.056 . S
C233 C39 2.128 . S
C252 C8 2.219 . S
C269 C28 2.263 1_655 S
C288 C46 2.258 . S
C305 C68 1.990 . S
C324 C56 2.000 . S
C341 C79 1.635 . S
C360 C19 1.615 . S
C377 C59 1.363 . S
C396 C66 1.362 . S
C413 C16 1.573 . S
C432 C76 1.582 . S
C449 C36 1.306 . S
C468 C6 1.274 . S
C485 C48 0.840 . S
C504 C26 0.891 . S
