# Generated by pormake.
# Topology uox, (4)-cn, num edge types: 1
# Building blocks:
#     Node 0, Type 0, BuildingBlock: TATPOV_clean_sbu_0, # of connection points: 4
#     Node 1, Type 0, BuildingBlock: TATPOV_clean_sbu_0, # of connection points: 4
#     Node 2, Type 0, BuildingBlock: TATPOV_clean_sbu_0, # of connection points: 4
#     Node 3, Type 0, BuildingBlock: TATPOV_clean_sbu_0, # of connection points: 4
#     Node 4, Type 0, BuildingBlock: TATPOV_clean_sbu_0, # of connection points: 4
#     Node 5, Type 0, BuildingBlock: TATPOV_clean_sbu_0, # of connection points: 4
#     Node 6, Type 0, BuildingBlock: TATPOV_clean_sbu_0, # of connection points: 4
#     Node 7, Type 0, BuildingBlock: TATPOV_clean_sbu_0, # of connection points: 4
#     Node 8, Type 0, BuildingBlock: TATPOV_clean_sbu_0, # of connection points: 4
#     Node 9, Type 0, BuildingBlock: TATPOV_clean_sbu_0, # of connection points: 4
#     Node 10, Type 0, BuildingBlock: TATPOV_clean_sbu_0, # of connection points: 4
#     Node 11, Type 0, BuildingBlock: TATPOV_clean_sbu_0, # of connection points: 4
#     Node 12, Type 0, BuildingBlock: TATPOV_clean_sbu_0, # of connection points: 4
#     Node 13, Type 0, BuildingBlock: TATPOV_clean_sbu_0, # of connection points: 4
#     Node 14, Type 0, BuildingBlock: TATPOV_clean_sbu_0, # of connection points: 4
#     Node 15, Type 0, BuildingBlock: TATPOV_clean_sbu_0, # of connection points: 4
#     Node 16, Type 0, BuildingBlock: TATPOV_clean_sbu_0, # of connection points: 4
#     Node 17, Type 0, BuildingBlock: TATPOV_clean_sbu_0, # of connection points: 4
#     Node 18, Type 0, BuildingBlock: TATPOV_clean_sbu_0, # of connection points: 4
#     Node 19, Type 0, BuildingBlock: TATPOV_clean_sbu_0, # of connection points: 4
#     Node 20, Type 0, BuildingBlock: TATPOV_clean_sbu_0, # of connection points: 4
#     Node 21, Type 0, BuildingBlock: TATPOV_clean_sbu_0, # of connection points: 4
#     Node 22, Type 0, BuildingBlock: TATPOV_clean_sbu_0, # of connection points: 4
#     Node 23, Type 0, BuildingBlock: TATPOV_clean_sbu_0, # of connection points: 4
#     Node 24, Type 0, BuildingBlock: TATPOV_clean_sbu_0, # of connection points: 4
#     Node 25, Type 0, BuildingBlock: TATPOV_clean_sbu_0, # of connection points: 4
#     Node 26, Type 0, BuildingBlock: TATPOV_clean_sbu_0, # of connection points: 4
#     Node 27, Type 0, BuildingBlock: TATPOV_clean_sbu_0, # of connection points: 4
#     Node 28, Type 0, BuildingBlock: TATPOV_clean_sbu_0, # of connection points: 4
#     Node 29, Type 0, BuildingBlock: TATPOV_clean_sbu_0, # of connection points: 4
#     Node 30, Type 0, BuildingBlock: TATPOV_clean_sbu_0, # of connection points: 4
#     Node 31, Type 0, BuildingBlock: TATPOV_clean_sbu_0, # of connection points: 4
#     Edge 32, Type (0, 0), BuildingBlock: EZIPEK_clean_linker_0, # of connection points: 2
#     Edge 33, Type (0, 0), BuildingBlock: EZIPEK_clean_linker_0, # of connection points: 2
#     Edge 34, Type (0, 0), BuildingBlock: EZIPEK_clean_linker_0, # of connection points: 2
#     Edge 35, Type (0, 0), BuildingBlock: EZIPEK_clean_linker_0, # of connection points: 2
#     Edge 36, Type (0, 0), BuildingBlock: EZIPEK_clean_linker_0, # of connection points: 2
#     Edge 37, Type (0, 0), BuildingBlock: EZIPEK_clean_linker_0, # of connection points: 2
#     Edge 38, Type (0, 0), BuildingBlock: EZIPEK_clean_linker_0, # of connection points: 2
#     Edge 39, Type (0, 0), BuildingBlock: EZIPEK_clean_linker_0, # of connection points: 2
#     Edge 40, Type (0, 0), BuildingBlock: EZIPEK_clean_linker_0, # of connection points: 2
#     Edge 41, Type (0, 0), BuildingBlock: EZIPEK_clean_linker_0, # of connection points: 2
#     Edge 42, Type (0, 0), BuildingBlock: EZIPEK_clean_linker_0, # of connection points: 2
#     Edge 43, Type (0, 0), BuildingBlock: EZIPEK_clean_linker_0, # of connection points: 2
#     Edge 44, Type (0, 0), BuildingBlock: EZIPEK_clean_linker_0, # of connection points: 2
#     Edge 45, Type (0, 0), BuildingBlock: EZIPEK_clean_linker_0, # of connection points: 2
#     Edge 46, Type (0, 0), BuildingBlock: EZIPEK_clean_linker_0, # of connection points: 2
#     Edge 47, Type (0, 0), BuildingBlock: EZIPEK_clean_linker_0, # of connection points: 2
#     Edge 48, Type (0, 0), BuildingBlock: EZIPEK_clean_linker_0, # of connection points: 2
#     Edge 49, Type (0, 0), BuildingBlock: EZIPEK_clean_linker_0, # of connection points: 2
#     Edge 50, Type (0, 0), BuildingBlock: EZIPEK_clean_linker_0, # of connection points: 2
#     Edge 51, Type (0, 0), BuildingBlock: EZIPEK_clean_linker_0, # of connection points: 2
#     Edge 52, Type (0, 0), BuildingBlock: EZIPEK_clean_linker_0, # of connection points: 2
#     Edge 53, Type (0, 0), BuildingBlock: EZIPEK_clean_linker_0, # of connection points: 2
#     Edge 54, Type (0, 0), BuildingBlock: EZIPEK_clean_linker_0, # of connection points: 2
#     Edge 55, Type (0, 0), BuildingBlock: EZIPEK_clean_linker_0, # of connection points: 2
#     Edge 56, Type (0, 0), BuildingBlock: EZIPEK_clean_linker_0, # of connection points: 2
#     Edge 57, Type (0, 0), BuildingBlock: EZIPEK_clean_linker_0, # of connection points: 2
#     Edge 58, Type (0, 0), BuildingBlock: EZIPEK_clean_linker_0, # of connection points: 2
#     Edge 59, Type (0, 0), BuildingBlock: EZIPEK_clean_linker_0, # of connection points: 2
#     Edge 60, Type (0, 0), BuildingBlock: EZIPEK_clean_linker_0, # of connection points: 2
#     Edge 61, Type (0, 0), BuildingBlock: EZIPEK_clean_linker_0, # of connection points: 2
#     Edge 62, Type (0, 0), BuildingBlock: EZIPEK_clean_linker_0, # of connection points: 2
#     Edge 63, Type (0, 0), BuildingBlock: EZIPEK_clean_linker_0, # of connection points: 2
#     Edge 64, Type (0, 0), BuildingBlock: EZIPEK_clean_linker_0, # of connection points: 2
#     Edge 65, Type (0, 0), BuildingBlock: EZIPEK_clean_linker_0, # of connection points: 2
#     Edge 66, Type (0, 0), BuildingBlock: EZIPEK_clean_linker_0, # of connection points: 2
#     Edge 67, Type (0, 0), BuildingBlock: EZIPEK_clean_linker_0, # of connection points: 2
#     Edge 68, Type (0, 0), BuildingBlock: EZIPEK_clean_linker_0, # of connection points: 2
#     Edge 69, Type (0, 0), BuildingBlock: EZIPEK_clean_linker_0, # of connection points: 2
#     Edge 70, Type (0, 0), BuildingBlock: EZIPEK_clean_linker_0, # of connection points: 2
#     Edge 71, Type (0, 0), BuildingBlock: EZIPEK_clean_linker_0, # of connection points: 2
#     Edge 72, Type (0, 0), BuildingBlock: EZIPEK_clean_linker_0, # of connection points: 2
#     Edge 73, Type (0, 0), BuildingBlock: EZIPEK_clean_linker_0, # of connection points: 2
#     Edge 74, Type (0, 0), BuildingBlock: EZIPEK_clean_linker_0, # of connection points: 2
#     Edge 75, Type (0, 0), BuildingBlock: EZIPEK_clean_linker_0, # of connection points: 2
#     Edge 76, Type (0, 0), BuildingBlock: EZIPEK_clean_linker_0, # of connection points: 2
#     Edge 77, Type (0, 0), BuildingBlock: EZIPEK_clean_linker_0, # of connection points: 2
#     Edge 78, Type (0, 0), BuildingBlock: EZIPEK_clean_linker_0, # of connection points: 2
#     Edge 79, Type (0, 0), BuildingBlock: EZIPEK_clean_linker_0, # of connection points: 2
#     Edge 80, Type (0, 0), BuildingBlock: EZIPEK_clean_linker_0, # of connection points: 2
#     Edge 81, Type (0, 0), BuildingBlock: EZIPEK_clean_linker_0, # of connection points: 2
#     Edge 82, Type (0, 0), BuildingBlock: EZIPEK_clean_linker_0, # of connection points: 2
#     Edge 83, Type (0, 0), BuildingBlock: EZIPEK_clean_linker_0, # of connection points: 2
#     Edge 84, Type (0, 0), BuildingBlock: EZIPEK_clean_linker_0, # of connection points: 2
#     Edge 85, Type (0, 0), BuildingBlock: EZIPEK_clean_linker_0, # of connection points: 2
#     Edge 86, Type (0, 0), BuildingBlock: EZIPEK_clean_linker_0, # of connection points: 2
#     Edge 87, Type (0, 0), BuildingBlock: EZIPEK_clean_linker_0, # of connection points: 2
#     Edge 88, Type (0, 0), BuildingBlock: EZIPEK_clean_linker_0, # of connection points: 2
#     Edge 89, Type (0, 0), BuildingBlock: EZIPEK_clean_linker_0, # of connection points: 2
#     Edge 90, Type (0, 0), BuildingBlock: EZIPEK_clean_linker_0, # of connection points: 2
#     Edge 91, Type (0, 0), BuildingBlock: EZIPEK_clean_linker_0, # of connection points: 2
#     Edge 92, Type (0, 0), BuildingBlock: EZIPEK_clean_linker_0, # of connection points: 2
#     Edge 93, Type (0, 0), BuildingBlock: EZIPEK_clean_linker_0, # of connection points: 2
#     Edge 94, Type (0, 0), BuildingBlock: EZIPEK_clean_linker_0, # of connection points: 2
#     Edge 95, Type (0, 0), BuildingBlock: EZIPEK_clean_linker_0, # of connection points: 2
# Relax obj value: 0.081
# Max RMSD: 0.124
# Mean RMSD: 0.124
data_MOF--net-uox--node1-TATPOV_clean_sbu_0--edge1-EZIPEK_clean_linker_0
_symmetry_space_group_name_H-M    P1
_symmetry_Int_Tables_number       1
_symmetry_cell_setting            triclinic
loop_
_symmetry_equiv_pos_as_xyz
'x, y, z'
_cell_length_a     32.522325
_cell_length_b     32.350647
_cell_length_c     60.156917
_cell_angle_alpha  90.000704
_cell_angle_beta   89.929427
_cell_angle_gamma 89.905219
loop_
_atom_site_label
_atom_site_type_symbol
_atom_site_fract_x
_atom_site_fract_y
_atom_site_fract_z
_atom_type_partial_charge
Zn0 Zn 0.44214 0.01587 0.11604 0.0
Zn1 Zn 0.43852 0.00908 0.16005 0.0
O2 O 0.49809 0.02928 0.15349 0.0
O3 O 0.49873 0.03892 0.11716 0.0
O4 O 0.43592 -0.00314 0.19335 0.0
O5 O 0.43092 0.95593 0.11056 0.0
O6 O 0.41716 0.95465 0.1464 0.0
C7 C 0.51616 0.04176 0.13585 0.0
C8 C 0.38255 0.07017 0.13671 0.0
O9 O 0.39729 0.05625 0.15486 0.0
O10 O 0.39517 0.05669 0.11814 0.0
C11 C 0.45545 0.01675 0.20822 0.0
O12 O 0.47889 0.04796 0.20239 0.0
C13 C 0.41683 0.93729 0.12738 0.0
Zn14 Zn 0.20001 0.17309 0.35338 0.0
Zn15 Zn 0.21625 0.19317 0.41702 0.0
O16 O 0.19116 0.24796 0.40751 0.0
O17 O 0.18844 0.22137 0.37424 0.0
O18 O 0.24335 0.19809 0.44763 0.0
O19 O 0.25981 0.15666 0.35742 0.0
O20 O 0.25894 0.17231 0.39357 0.0
C21 C 0.18123 0.25133 0.38714 0.0
C22 C 0.15865 0.14302 0.39901 0.0
O23 O 0.16961 0.15087 0.41874 0.0
O24 O 0.17914 0.16143 0.38425 0.0
C25 C 0.22304 0.19086 0.46534 0.0
O26 O 0.18391 0.18132 0.46395 0.0
C27 C 0.27812 0.15995 0.37616 0.0
Zn28 Zn 0.03494 0.97292 0.62494 0.0
Zn29 Zn 0.03041 0.9752 0.66434 0.0
O30 O 0.97048 0.96165 0.65412 0.0
O31 O 0.9881 0.9353 0.62198 0.0
O32 O 0.03027 0.98569 0.69797 0.0
O33 O 0.02738 0.03365 0.61919 0.0
O34 O 0.05606 0.02866 0.65198 0.0
C35 C 0.9612 0.94086 0.63677 0.0
C36 C 0.09412 0.92219 0.64196 0.0
O37 O 0.06969 0.92584 0.65849 0.0
O38 O 0.09059 0.94612 0.62545 0.0
C39 C 0.024 0.95899 0.71314 0.0
O40 O 0.0153 0.92072 0.70759 0.0
C41 C 0.04938 0.04913 0.63427 0.0
Zn42 Zn 0.2559 0.782 0.86346 0.0
Zn43 Zn 0.25427 0.78405 0.90854 0.0
O44 O 0.27313 0.7246 0.90071 0.0
O45 O 0.27569 0.7234 0.86401 0.0
O46 O 0.24236 0.78452 0.94204 0.0
O47 O 0.19668 0.79872 0.85991 0.0
O48 O 0.20017 0.80703 0.89618 0.0
C49 C 0.28179 0.70602 0.88255 0.0
C50 C 0.3145 0.83898 0.88394 0.0
O51 O 0.30134 0.82516 0.90252 0.0
O52 O 0.29946 0.82642 0.86573 0.0
C53 C 0.26884 0.78591 0.95758 0.0
O54 O 0.30817 0.78649 0.95257 0.0
C55 C 0.1807 0.81086 0.87793 0.0
Zn56 Zn 0.43662 0.98068 0.39355 0.0
Zn57 Zn 0.42822 0.97774 0.34948 0.0
O58 O 0.48669 0.95505 0.35583 0.0
O59 O 0.49265 0.95565 0.39237 0.0
O60 O 0.42385 0.98226 0.31554 0.0
O61 O 0.42791 0.04155 0.39472 0.0
O62 O 0.41376 0.03735 0.35926 0.0
C63 C 0.50701 0.94686 0.37343 0.0
C64 C 0.37288 0.92502 0.37909 0.0
O65 O 0.38503 0.93481 0.35959 0.0
O66 O 0.38859 0.94176 0.3961 0.0
C67 C 0.45351 0.9753 0.30217 0.0
O68 O 0.48872 0.96165 0.30991 0.0
C69 C 0.4161 0.0588 0.377 0.0
Zn70 Zn 0.25625 0.1858 0.6501 0.0
Zn71 Zn 0.26196 0.18915 0.60454 0.0
O72 O 0.27926 0.24724 0.61464 0.0
O73 O 0.27357 0.2454 0.65125 0.0
O74 O 0.25648 0.19209 0.57078 0.0
O75 O 0.19743 0.16788 0.64918 0.0
O76 O 0.20453 0.16909 0.61276 0.0
C77 C 0.28278 0.26454 0.63359 0.0
C78 C 0.31778 0.1309 0.63075 0.0
O79 O 0.30689 0.1463 0.6121 0.0
O80 O 0.30078 0.14219 0.64871 0.0
C81 C 0.28426 0.1902 0.5559 0.0
O82 O 0.32302 0.18666 0.56171 0.0
C83 C 0.18308 0.16152 0.62998 0.0
Zn84 Zn 0.02173 0.00316 0.89712 0.0
Zn85 Zn 0.02197 0.0123 0.8532 0.0
O86 O 0.9645 0.03097 0.86442 0.0
O87 O 0.96425 0.02323 0.90086 0.0
O88 O 0.01553 0.00762 0.81944 0.0
O89 O 0.0371 0.94312 0.89653 0.0
O90 O 0.04774 0.95609 0.86112 0.0
C91 C 0.94671 0.03501 0.88324 0.0
C92 C 0.0782 0.06644 0.87982 0.0
O93 O 0.06362 0.05778 0.86067 0.0
O94 O 0.06648 0.04699 0.897 0.0
C95 C 0.04609 0.00322 0.80639 0.0
O96 O 0.08351 0.00497 0.81456 0.0
C97 C 0.05094 0.9321 0.87781 0.0
Zn98 Zn 0.22252 0.77905 0.14153 0.0
Zn99 Zn 0.22073 0.7767 0.09801 0.0
O100 O 0.19687 0.72123 0.10987 0.0
O101 O 0.21474 0.71814 0.14518 0.0
O102 O 0.2243 0.7706 0.06404 0.0
O103 O 0.27716 0.8081 0.14048 0.0
O104 O 0.28032 0.79247 0.10493 0.0
C105 C 0.19835 0.70171 0.12832 0.0
C106 C 0.16327 0.83455 0.12322 0.0
O107 O 0.18219 0.82593 0.10517 0.0
O108 O 0.17161 0.81465 0.14077 0.0
C109 C 0.21942 0.80058 0.05054 0.0
O110 O 0.20758 0.8367 0.05824 0.0
C111 C 0.29613 0.80885 0.12213 0.0
Zn112 Zn 0.52789 0.97884 0.8941 0.0
Zn113 Zn 0.53202 0.97852 0.85102 0.0
O114 O 0.47298 0.9573 0.85847 0.0
O115 O 0.47325 0.95161 0.89502 0.0
O116 O 0.53273 0.98847 0.81747 0.0
O117 O 0.53375 0.0402 0.89789 0.0
O118 O 0.55453 0.03387 0.8633 0.0
C119 C 0.45569 0.94593 0.87657 0.0
C120 C 0.58957 0.9229 0.87608 0.0
O121 O 0.57344 0.9322 0.85742 0.0
O122 O 0.57789 0.9408 0.89376 0.0
C123 C 0.52326 0.96172 0.80284 0.0
O124 O 0.5126 0.92434 0.80909 0.0
C125 C 0.55192 0.05501 0.88113 0.0
Zn126 Zn 0.7733 0.775 0.65181 0.0
Zn127 Zn 0.75981 0.78948 0.59206 0.0
O128 O 0.78541 0.73056 0.5902 0.0
O129 O 0.78169 0.74938 0.62385 0.0
O130 O 0.73655 0.80267 0.5612 0.0
O131 O 0.71502 0.79636 0.65219 0.0
O132 O 0.71517 0.80341 0.61526 0.0
C133 C 0.79432 0.72349 0.61018 0.0
C134 C 0.82175 0.83757 0.62034 0.0
O135 O 0.80421 0.8306 0.60161 0.0
O136 O 0.81234 0.81768 0.63798 0.0
C137 C 0.75927 0.80067 0.54399 0.0
O138 O 0.79861 0.79258 0.54629 0.0
C139 C 0.69742 0.80706 0.63418 0.0
Zn140 Zn 0.944 0.00799 0.38891 0.0
Zn141 Zn 0.94969 0.00793 0.34838 0.0
O142 O 0.01001 0.0215 0.35912 0.0
O143 O -0.00448 0.03856 0.3933 0.0
O144 O 0.95222 -0.00152 0.31464 0.0
O145 O 0.94069 0.94684 0.39408 0.0
O146 O 0.92074 0.9547 0.35953 0.0
C147 C 0.02146 0.03671 0.37772 0.0
C148 C 0.88753 0.06342 0.37056 0.0
O149 O 0.91008 0.05721 0.35348 0.0
O150 O 0.89274 0.04228 0.38799 0.0
C151 C 0.96281 0.02534 0.30026 0.0
O152 O 0.97365 0.06244 0.30688 0.0
C153 C 0.92143 0.93347 0.37737 0.0
Zn154 Zn 0.72495 0.19421 0.14934 0.0
Zn155 Zn 0.71974 0.20064 0.10507 0.0
O156 O 0.70433 0.25945 0.11654 0.0
O157 O 0.71318 0.25436 0.15254 0.0
O158 O 0.72621 0.20406 0.07117 0.0
O159 O 0.78176 0.17151 0.14962 0.0
O160 O 0.77612 0.1758 0.11321 0.0
C161 C 0.70361 0.27599 0.13587 0.0
C162 C 0.66059 0.14421 0.12998 0.0
O163 O 0.67285 0.15928 0.11151 0.0
O164 O 0.67756 0.15439 0.1481 0.0
C165 C 0.69848 0.19913 0.05649 0.0
O166 O 0.66018 0.19341 0.06273 0.0
C167 C 0.79632 0.16523 0.13046 0.0
Zn168 Zn 0.53726 -0.00088 0.61888 0.0
Zn169 Zn 0.54509 0.01047 0.66249 0.0
O170 O 0.48491 0.02633 0.65487 0.0
O171 O 0.47973 0.02047 0.61843 0.0
O172 O 0.54839 0.00898 0.69645 0.0
O173 O 0.55055 0.93862 0.61998 0.0
O174 O 0.56947 0.95409 0.65405 0.0
C175 C 0.46434 0.03062 0.63694 0.0
C176 C 0.59686 0.0625 0.63183 0.0
O177 O 0.58417 0.05599 0.65161 0.0
O178 O 0.58344 0.0411 0.61574 0.0
C179 C 0.51815 -0.00321 0.70821 0.0
O180 O 0.48333 0.98709 0.69851 0.0
C181 C 0.56868 0.92894 0.6378 0.0
Zn182 Zn 0.71329 0.78756 0.35961 0.0
Zn183 Zn 0.70953 0.78977 0.40563 0.0
O184 O 0.69652 0.73047 0.39633 0.0
O185 O 0.70098 0.72615 0.3601 0.0
O186 O 0.71312 0.78726 0.43944 0.0
O187 O 0.77109 0.8107 0.36084 0.0
O188 O 0.76572 0.81254 0.39739 0.0
C189 C 0.69442 0.7089 0.37867 0.0
C190 C 0.64978 0.84161 0.37855 0.0
O191 O 0.66316 0.82999 0.39747 0.0
O192 O 0.66533 0.82789 0.36068 0.0
C193 C 0.70797 0.81848 0.45203 0.0
O194 O 0.69692 0.85402 0.44329 0.0
C195 C 0.7859 0.81973 0.37968 0.0
Zn196 Zn 0.94691 0.96799 0.11926 0.0
Zn197 Zn 0.94665 0.96379 0.16038 0.0
O198 O 0.00785 0.95089 0.15111 0.0
O199 O 0.00096 0.94204 0.11539 0.0
O200 O 0.94612 0.96741 0.19451 0.0
O201 O 0.94255 0.02915 0.11635 0.0
O202 O 0.92044 0.01944 0.15046 0.0
C203 C 0.02382 0.94171 0.1323 0.0
C204 C 0.88778 0.91054 0.13402 0.0
O205 O 0.90688 0.91607 0.15232 0.0
O206 O 0.89656 0.93217 0.11716 0.0
C207 C 0.96498 -0.0038 0.20474 0.0
O208 O 0.98589 0.02357 0.19325 0.0
C209 C 0.9231 0.042 0.13313 0.0
Zn210 Zn 0.75374 0.20248 0.87145 0.0
Zn211 Zn 0.75271 0.20787 0.91593 0.0
O212 O 0.77594 0.26425 0.90533 0.0
O213 O 0.77878 0.25898 0.86879 0.0
O214 O 0.74257 0.21469 0.94941 0.0
O215 O 0.69362 0.18918 0.86867 0.0
O216 O 0.69649 0.18669 0.90519 0.0
C217 C 0.78648 0.27881 0.88642 0.0
C218 C 0.80817 0.14445 0.89373 0.0
O219 O 0.79691 0.1626 0.91159 0.0
O220 O 0.79351 0.15503 0.87509 0.0
C221 C 0.74682 0.18528 0.96331 0.0
O222 O 0.76052 0.14933 0.95632 0.0
C223 C 0.67708 0.18043 0.8871 0.0
Zn224 Zn 0.94164 0.51604 0.6181 0.0
Zn225 Zn 0.94178 0.52318 0.6623 0.0
O226 O 0.00071 0.53898 0.65181 0.0
O227 O 0.00113 0.53 0.61544 0.0
O228 O 0.94416 0.52067 0.69614 0.0
O229 O 0.9213 0.45766 0.61832 0.0
O230 O 0.91528 0.46687 0.65442 0.0
C231 C 0.01931 0.54045 0.63311 0.0
C232 C 0.88972 0.58242 0.63581 0.0
O233 O 0.90239 0.57071 0.65485 0.0
O234 O 0.90099 0.56381 0.61829 0.0
C235 C 0.96486 0.49218 0.70552 0.0
O236 O 0.98564 0.46589 0.69322 0.0
C237 C 0.90993 0.44468 0.63716 0.0
Zn238 Zn 0.71563 0.69859 0.86566 0.0
Zn239 Zn 0.71738 0.69895 0.91048 0.0
O240 O 0.69867 0.75775 0.90149 0.0
O241 O 0.69585 0.75753 0.86486 0.0
O242 O 0.72684 0.70318 0.94384 0.0
O243 O 0.77503 0.68118 0.86325 0.0
O244 O 0.7726 0.67568 0.89971 0.0
C245 C 0.68987 0.77569 0.8832 0.0
C246 C 0.65769 0.64195 0.88697 0.0
O247 O 0.67092 0.65674 0.90529 0.0
O248 O 0.67212 0.65417 0.86854 0.0
C249 C 0.72552 0.67223 0.95688 0.0
O250 O 0.71542 0.6358 0.94895 0.0
C251 C 0.79167 0.67073 0.88139 0.0
Zn252 Zn 0.52675 0.45911 0.11494 0.0
Zn253 Zn 0.52844 0.47018 0.16041 0.0
O254 O 0.46901 0.45208 0.15374 0.0
O255 O 0.467 0.44269 0.11754 0.0
O256 O 0.53061 0.48215 0.19357 0.0
O257 O 0.54692 0.51843 0.11133 0.0
O258 O 0.54696 0.52474 0.14781 0.0
C259 C 0.4494 0.44144 0.13633 0.0
C260 C 0.5862 0.40752 0.13763 0.0
O261 O 0.5734 0.42653 0.15491 0.0
O262 O 0.57012 0.41462 0.11883 0.0
C263 C 0.52301 0.4564 0.209 0.0
O264 O 0.51218 0.41847 0.20389 0.0
C265 C 0.5541 0.53953 0.12863 0.0
Zn266 Zn 0.755 0.28125 0.36324 0.0
Zn267 Zn 0.75166 0.28117 0.4069 0.0
O268 O 0.7709 0.22215 0.39801 0.0
O269 O 0.7784 0.2247 0.36158 0.0
O270 O 0.74223 0.27748 0.44053 0.0
O271 O 0.69525 0.29266 0.3591 0.0
O272 O 0.69692 0.30554 0.395 0.0
C273 C 0.78239 0.20558 0.37975 0.0
C274 C 0.81134 0.33856 0.38365 0.0
O275 O 0.7992 0.32202 0.40175 0.0
O276 O 0.79566 0.32823 0.36522 0.0
C277 C 0.75005 0.3066 0.45414 0.0
O278 O 0.76595 0.34125 0.4467 0.0
C279 C 0.67819 0.30676 0.37639 0.0
Zn280 Zn 0.95652 0.47589 0.89301 0.0
Zn281 Zn 0.95136 0.47581 0.84821 0.0
O282 O 0.01178 0.46136 0.85583 0.0
O283 O 0.01693 0.4618 0.89212 0.0
O284 O 0.95094 0.48445 0.81462 0.0
O285 O 0.93503 0.53424 0.89544 0.0
O286 O 0.92594 0.53015 0.85925 0.0
C287 C 0.03357 0.45678 0.87328 0.0
C288 C 0.90015 0.41431 0.87398 0.0
O289 O 0.91193 0.42774 0.85506 0.0
O290 O 0.91448 0.42948 0.8918 0.0
C291 C 0.96319 0.4582 0.80032 0.0
O292 O 0.97651 0.42188 0.80692 0.0
C293 C 0.92166 0.54959 0.87751 0.0
Zn294 Zn 0.74643 0.69762 0.14124 0.0
Zn295 Zn 0.75198 0.69245 0.09803 0.0
O296 O 0.7696 0.75274 0.10506 0.0
O297 O 0.7731 0.75303 0.14164 0.0
O298 O 0.74443 0.6897 0.06451 0.0
O299 O 0.68505 0.68933 0.1427 0.0
O300 O 0.69697 0.66855 0.10857 0.0
C301 C 0.78001 0.77038 0.1232 0.0
C302 C 0.80575 0.63707 0.12557 0.0
O303 O 0.79843 0.65255 0.10647 0.0
O304 O 0.78532 0.64848 0.14246 0.0
C305 C 0.77249 0.68861 0.04978 0.0
O306 O 0.81128 0.68992 0.05581 0.0
C307 C 0.67342 0.67049 0.12542 0.0
Zn308 Zn 0.53344 0.50729 0.39137 0.0
Zn309 Zn 0.52484 0.51581 0.3476 0.0
O310 O 0.46987 0.53595 0.36082 0.0
O311 O 0.47567 0.52698 0.39705 0.0
O312 O 0.51517 0.51136 0.31423 0.0
O313 O 0.5512 0.44836 0.39042 0.0
O314 O 0.54684 0.45726 0.35427 0.0
C315 C 0.4552 0.53912 0.38042 0.0
C316 C 0.58731 0.56897 0.3711 0.0
O317 O 0.56908 0.56039 0.35289 0.0
O318 O 0.57827 0.5498 0.38881 0.0
C319 C 0.54539 0.5068 0.30098 0.0
O320 O 0.58302 0.5091 0.30876 0.0
C321 C 0.55706 0.43517 0.37091 0.0
Zn322 Zn 0.70946 0.28542 0.64065 0.0
Zn323 Zn 0.72087 0.28887 0.59611 0.0
O324 O 0.70649 0.22762 0.60247 0.0
O325 O 0.69332 0.22573 0.63836 0.0
O326 O 0.7349 0.29069 0.56298 0.0
O327 O 0.76742 0.30405 0.64704 0.0
O328 O 0.77176 0.31469 0.61094 0.0
C329 C 0.69444 0.2079 0.61965 0.0
C330 C 0.65327 0.34058 0.61745 0.0
O331 O 0.67075 0.32716 0.59989 0.0
O332 O 0.66474 0.32854 0.6365 0.0
C333 C 0.70759 0.2916 0.54784 0.0
O334 O 0.66854 0.29096 0.55342 0.0
C335 C 0.7869 0.31779 0.63041 0.0
Zn336 Zn 0.03716 0.45737 0.39263 0.0
Zn337 Zn 0.03392 0.46117 0.34746 0.0
O338 O 0.97609 0.44152 0.35718 0.0
O339 O 0.97683 0.44466 0.39388 0.0
O340 O 0.03257 0.47128 0.31402 0.0
O341 O 0.06001 0.51451 0.39525 0.0
O342 O 0.05661 0.51661 0.35867 0.0
C343 C 0.95814 0.43702 0.37592 0.0
C344 C 0.08865 0.39743 0.36939 0.0
O345 O 0.07559 0.41447 0.35166 0.0
O346 O 0.07693 0.4099 0.38833 0.0
C347 C 0.0304 0.44343 0.29914 0.0
O348 O 0.02636 0.40456 0.30507 0.0
C349 C 0.06627 0.53324 0.37714 0.0
Zn350 Zn 0.23999 0.28793 0.14321 0.0
Zn351 Zn 0.25196 0.28604 0.09866 0.0
O352 O 0.27283 0.22937 0.1094 0.0
O353 O 0.26394 0.23058 0.14581 0.0
O354 O 0.24921 0.28173 0.0648 0.0
O355 O 0.17917 0.29894 0.14089 0.0
O356 O 0.19238 0.30288 0.10534 0.0
C357 C 0.27675 0.21253 0.12847 0.0
C358 C 0.30116 0.34651 0.12631 0.0
O359 O 0.29442 0.33029 0.10732 0.0
O360 O 0.28056 0.33552 0.14322 0.0
C361 C 0.25685 0.31123 0.05141 0.0
O362 O 0.27161 0.34613 0.05919 0.0
C363 C 0.16683 0.30582 0.1213 0.0
Zn364 Zn 0.44196 0.50182 0.89467 0.0
Zn365 Zn 0.44366 0.50567 0.8496 0.0
O366 O 0.5013 0.52626 0.85873 0.0
O367 O 0.49994 0.52365 0.89543 0.0
O368 O 0.44381 0.49854 0.81591 0.0
O369 O 0.42594 0.44172 0.89536 0.0
O370 O 0.42373 0.4484 0.85899 0.0
C371 C 0.51811 0.53321 0.87754 0.0
C372 C 0.38494 0.56123 0.87535 0.0
O373 O 0.40045 0.55039 0.85673 0.0
O374 O 0.39668 0.54462 0.89333 0.0
C375 C 0.45236 0.52551 0.80125 0.0
O376 O 0.46317 0.5629 0.80742 0.0
C377 C 0.41743 0.42708 0.87644 0.0
Zn378 Zn 0.21753 0.69729 0.64951 0.0
Zn379 Zn 0.22634 0.70086 0.60525 0.0
O380 O 0.20539 0.75895 0.61438 0.0
O381 O 0.19446 0.75444 0.65049 0.0
O382 O 0.23577 0.70605 0.57173 0.0
O383 O 0.27761 0.68582 0.65314 0.0
O384 O 0.2833 0.68274 0.61695 0.0
C385 C 0.19224 0.77459 0.63254 0.0
C386 C 0.16526 0.64026 0.62684 0.0
O387 O 0.18094 0.65666 0.60948 0.0
O388 O 0.17713 0.65086 0.64603 0.0
C389 C 0.22866 0.67725 0.55783 0.0
O390 O 0.21368 0.64193 0.5649 0.0
C391 C 0.29963 0.67953 0.63614 0.0
Zn392 Zn 0.02725 0.51436 0.11619 0.0
Zn393 Zn 0.02843 0.50369 0.15969 0.0
O394 O 0.96927 0.5235 0.15182 0.0
O395 O 0.97127 0.53912 0.1162 0.0
O396 O 0.02344 0.4904 0.19279 0.0
O397 O 0.0363 0.45406 0.11032 0.0
O398 O 0.05101 0.44973 0.14593 0.0
C399 C 0.95221 0.53853 0.13449 0.0
C400 C 0.08735 0.56488 0.13875 0.0
O401 O 0.07118 0.55029 0.15643 0.0
O402 O 0.07561 0.55282 0.11978 0.0
C403 C 0.05334 0.48978 0.20641 0.0
O404 O 0.09052 0.49869 0.19935 0.0
C405 C 0.05116 0.43406 0.12648 0.0
Zn406 Zn 0.22046 0.2772 0.8679 0.0
Zn407 Zn 0.21945 0.28583 0.91026 0.0
O408 O 0.19828 0.22582 0.90515 0.0
O409 O 0.18881 0.22461 0.8689 0.0
O410 O 0.23159 0.29015 0.9435 0.0
O411 O 0.28191 0.27764 0.86386 0.0
O412 O 0.27464 0.30525 0.89696 0.0
C413 C 0.18458 0.20791 0.88775 0.0
C414 C 0.16853 0.3445 0.88328 0.0
O415 O 0.17438 0.32839 0.90241 0.0
O416 O 0.18818 0.33106 0.86655 0.0
C417 C 0.20551 0.29512 0.95906 0.0
O418 O 0.16621 0.29778 0.95423 0.0
C419 C 0.29635 0.29878 0.87967 0.0
Zn420 Zn 0.42763 0.46938 0.61682 0.0
Zn421 Zn 0.44428 0.46968 0.6613 0.0
O422 O 0.49732 0.44734 0.64666 0.0
O423 O 0.48653 0.45268 0.61052 0.0
O424 O 0.45752 0.47684 0.69433 0.0
O425 O 0.40731 0.52794 0.61766 0.0
O426 O 0.42476 0.52824 0.65298 0.0
C427 C 0.50957 0.4429 0.62664 0.0
C428 C 0.37973 0.41101 0.64272 0.0
O429 O 0.39867 0.42565 0.65952 0.0
O430 O 0.38711 0.42409 0.62329 0.0
C431 C 0.42848 0.48195 0.70831 0.0
O432 O 0.39023 0.48006 0.7014 0.0
C433 C 0.4096 0.54654 0.6361 0.0
Zn434 Zn 0.256 0.70088 0.37155 0.0
Zn435 Zn 0.25114 0.69781 0.41595 0.0
O436 O 0.26712 0.75851 0.40843 0.0
O437 O 0.27254 0.76013 0.37186 0.0
O438 O 0.24041 0.6968 0.44941 0.0
O439 O 0.19797 0.68211 0.36709 0.0
O440 O 0.19859 0.67133 0.40322 0.0
C441 C 0.27602 0.77776 0.3905 0.0
C442 C 0.31483 0.64532 0.39241 0.0
O443 O 0.29985 0.65853 0.41068 0.0
O444 O 0.30116 0.65798 0.37392 0.0
C445 C 0.26871 0.69496 0.46398 0.0
O446 O 0.30736 0.69465 0.45762 0.0
C447 C 0.18114 0.66771 0.38438 0.0
C448 C 0.4568 0.95361 0.26207 0.0
C449 C 0.44976 0.9851 0.27806 0.0
C450 C 0.43902 0.03521 0.24791 0.0
C451 C 0.45164 0.00508 0.23212 0.0
N452 N 0.47828 0.93674 0.22457 0.0
N453 N 0.44023 0.05759 0.28631 0.0
C454 C 0.46179 0.96444 0.23927 0.0
C455 C 0.44224 0.02636 0.27103 0.0
N456 N 0.45771 0.91316 0.26862 0.0
N457 N 0.42267 0.07186 0.24082 0.0
H458 H 0.44297 0.05277 0.30338 0.0
H459 H 0.43953 0.08875 0.28198 0.0
H460 H 0.4189 0.07912 0.22405 0.0
H461 H 0.40903 0.09321 0.2515 0.0
H462 H 0.45839 0.8885 0.25749 0.0
H463 H 0.45369 0.90409 0.28512 0.0
H464 H 0.49042 0.90829 0.22935 0.0
H465 H 0.48337 0.94354 0.20786 0.0
C466 C 0.24962 0.22677 0.52409 0.0
C467 C 0.27237 0.19224 0.53198 0.0
C468 C 0.26992 0.16129 0.49461 0.0
C469 C 0.24286 0.19321 0.4876 0.0
N470 N 0.20448 0.25518 0.49585 0.0
N471 N 0.29999 0.12396 0.52558 0.0
C472 C 0.23201 0.22563 0.50242 0.0
C473 C 0.28189 0.15897 0.51739 0.0
N474 N 0.24627 0.26139 0.53702 0.0
N475 N 0.28389 0.13289 0.47954 0.0
H476 H 0.30853 0.12057 0.54217 0.0
H477 H 0.30343 0.09685 0.51644 0.0
H478 H 0.27435 0.13234 0.46301 0.0
H479 H 0.30729 0.11182 0.48296 0.0
H480 H 0.23373 0.28914 0.53145 0.0
H481 H 0.25961 0.26377 0.55273 0.0
H482 H 0.19122 0.27647 0.50669 0.0
H483 H 0.19302 0.25704 0.47969 0.0
C484 C 0.05893 0.95598 0.77376 0.0
C485 C 0.03966 -0.00808 0.78255 0.0
C486 C 0.00608 0.00345 0.74642 0.0
C487 C 0.02922 0.97045 0.73704 0.0
N488 N 0.08463 0.92119 0.74095 0.0
N489 N 0.00029 0.05403 0.77604 0.0
C490 C 0.05759 0.94832 0.75049 0.0
C491 C 0.01462 0.01681 0.76856 0.0
N492 N 0.07696 0.92795 0.78772 0.0
N493 N 0.97486 0.02108 0.73454 0.0
H494 H 0.00648 0.0653 0.79192 0.0
H495 H 0.98558 0.07543 0.76583 0.0
H496 H 0.96715 0.01172 0.71849 0.0
H497 H 0.95415 0.04218 0.74134 0.0
H498 H 0.08775 0.89927 0.78238 0.0
H499 H 0.07708 0.93119 0.80496 0.0
H500 H 0.10881 0.90761 0.74966 0.0
H501 H 0.08571 0.91555 0.7239 0.0
C502 C 0.26852 0.82383 0.99414 0.0
C503 C 0.25536 0.7896 0.98125 0.0
C504 C 0.21479 0.76467 0.01314 0.0
C505 C 0.23177 0.79633 0.02668 0.0
N506 N 0.28253 0.85026 0.03094 0.0
N507 N 0.22128 0.72348 0.9796 0.0
C508 C 0.26073 0.82438 0.01742 0.0
C509 C 0.22986 0.75891 0.99105 0.0
N510 N 0.28712 0.85676 0.98407 0.0
N511 N 0.18317 0.74106 0.02104 0.0
H512 H 0.2321 0.71785 0.96355 0.0
H513 H 0.20663 0.69812 0.98673 0.0
H514 H 0.17086 0.74477 0.03694 0.0
H515 H 0.16666 0.72051 0.01117 0.0
H516 H 0.29331 0.8844 0.9923 0.0
H517 H 0.29244 0.85821 0.96699 0.0
H518 H 0.3069 0.86832 0.0253 0.0
H519 H 0.27948 0.85039 0.04819 0.0
C520 C 0.49912 0.00532 0.77052 0.0
C521 C 0.52414 0.97263 0.77875 0.0
C522 C 0.54575 0.95603 0.74057 0.0
C523 C 0.52269 0.9902 0.73255 0.0
N524 N 0.48381 0.05204 0.74002 0.0
N525 N 0.57784 0.92255 0.77219 0.0
C526 C 0.50134 0.01629 0.7476 0.0
C527 C 0.54934 0.94958 0.76392 0.0
N528 N 0.47159 0.02445 0.78432 0.0
N529 N 0.5629 0.92872 0.72587 0.0
H530 H 0.58196 0.91754 0.78917 0.0
H531 H 0.60001 0.90806 0.7624 0.0
H532 H 0.5615 0.93259 0.70867 0.0
H533 H 0.57577 0.90059 0.73063 0.0
H534 H 0.44942 0.04528 0.77877 0.0
H535 H 0.46831 0.01689 0.80107 0.0
H536 H 0.47166 0.07466 0.75046 0.0
H537 H 0.48472 0.06085 0.72334 0.0
C538 C 0.74913 0.84209 0.48515 0.0
C539 C 0.71849 0.81571 0.4761 0.0
C540 C 0.71343 0.7795 0.51197 0.0
C541 C 0.74213 0.80768 0.52132 0.0
N542 N 0.7795 0.87163 0.5183 0.0
N543 N 0.66553 0.76481 0.48206 0.0
C544 C 0.75752 0.84079 0.50834 0.0
C545 C 0.69885 0.78601 0.48988 0.0
N546 N 0.7721 0.86668 0.47145 0.0
N547 N 0.70152 0.74546 0.52378 0.0
H548 H 0.65374 0.76911 0.46611 0.0
H549 H 0.6473 0.74588 0.492 0.0
H550 H 0.71128 0.73967 0.53999 0.0
H551 H 0.68454 0.72135 0.51694 0.0
H552 H 0.79774 0.88309 0.47685 0.0
H553 H 0.76832 0.86758 0.45425 0.0
H554 H 0.78779 0.89881 0.51017 0.0
H555 H 0.78581 0.87194 0.5353 0.0
C556 C 0.98464 0.98251 0.26699 0.0
C557 C 0.96102 0.0156 0.27597 0.0
C558 C 0.93899 0.03506 0.23825 0.0
C559 C 0.9613 0.00104 0.22935 0.0
N560 N -0.00054 0.93812 0.23538 0.0
N561 N 0.90834 0.0672 0.27075 0.0
C562 C 0.98202 0.97326 0.24381 0.0
C563 C 0.93618 0.04022 0.26174 0.0
N564 N 0.01146 0.96145 0.28035 0.0
N565 N 0.92054 0.06267 0.22421 0.0
H566 H 0.90446 0.07097 0.28785 0.0
H567 H 0.88631 0.08291 0.26147 0.0
H568 H 0.91915 0.05846 0.20703 0.0
H569 H 0.90854 0.09092 0.22942 0.0
H570 H 0.03286 0.94017 0.27441 0.0
H571 H 0.01491 0.96766 0.29724 0.0
H572 H 0.0108 0.91427 0.24525 0.0
H573 H -0.00013 0.93126 0.21844 0.0
C574 C 0.74837 0.22331 1.00021 0.0
C575 C 0.73336 0.19024 0.98695 0.0
C576 C 0.69863 0.16133 0.01975 0.0
C577 C 0.71002 0.19652 0.03245 0.0
N578 N 0.73894 0.26514 0.0333 0.0
N579 N 0.68538 0.13375 0.98309 0.0
C580 C 0.73299 0.22873 0.02226 0.0
C581 C 0.70593 0.16096 0.99643 0.0
N582 N 0.77864 0.2485 0.9922 0.0
N583 N 0.68265 0.12725 0.03002 0.0
H584 H 0.68823 0.13358 0.96582 0.0
H585 H 0.66205 0.11453 0.98892 0.0
H586 H 0.67829 0.12532 0.04716 0.0
H587 H 0.6779 0.09928 0.02182 0.0
H588 H 0.79377 0.27027 1.00196 0.0
H589 H 0.79147 0.24505 0.97642 0.0
H590 H 0.7517 0.29122 0.02585 0.0
H591 H 0.72747 0.27067 0.04922 0.0
C592 C 0.9395 0.4513 0.73828 0.0
C593 C 0.96211 0.48552 0.72995 0.0
C594 C 0.98617 0.50148 0.7677 0.0
C595 C 0.96204 0.46841 0.77618 0.0
N596 N 0.90953 0.41708 0.77033 0.0
N597 N 0.0015 0.54724 0.73676 0.0
C598 C 0.93705 0.44468 0.76167 0.0
C599 C 0.98357 0.51201 0.74472 0.0
N600 N 0.92049 0.42493 0.72381 0.0
N601 N 0.01327 0.52137 0.78138 0.0
H602 H 0.00163 0.55506 0.71994 0.0
H603 H 0.01359 0.57022 0.74694 0.0
H604 H 0.01653 0.51424 0.79819 0.0
H605 H 0.03498 0.54256 0.77577 0.0
H606 H 0.90812 0.39659 0.72852 0.0
H607 H 0.91897 0.43022 0.70673 0.0
H608 H 0.88727 0.40204 0.76093 0.0
H609 H 0.90638 0.41183 0.78736 0.0
C610 C 0.73413 0.71429 0.0161 0.0
C611 C 0.76115 0.68494 0.02588 0.0
C612 C 0.76856 0.65053 0.98972 0.0
C613 C 0.73776 0.67676 0.98064 0.0
N614 N 0.68555 0.72877 0.98661 0.0
N615 N 0.79732 0.61991 0.02297 0.0
C616 C 0.71899 0.7074 0.99421 0.0
C617 C 0.77654 0.65159 0.01296 0.0
N618 N 0.72407 0.74958 0.02737 0.0
N619 N 0.79163 0.62588 0.97608 0.0
H620 H 0.80298 0.61884 0.04002 0.0
H621 H 0.80529 0.59273 0.01471 0.0
H622 H 0.78815 0.62534 0.95886 0.0
H623 H 0.81719 0.60934 0.98158 0.0
H624 H 0.70801 0.77402 0.02016 0.0
H625 H 0.73527 0.75631 0.0432 0.0
H626 H 0.66807 0.74833 0.99664 0.0
H627 H 0.67271 0.72389 0.97096 0.0
C628 C 0.55626 0.45615 0.26982 0.0
C629 C 0.53844 0.49363 0.27756 0.0
C630 C 0.50595 0.50364 0.2411 0.0
C631 C 0.52784 0.46892 0.23268 0.0
N632 N 0.58039 0.41705 0.23808 0.0
N633 N 0.50142 0.55655 0.26957 0.0
C634 C 0.55477 0.44646 0.24678 0.0
C635 C 0.51457 0.51834 0.26294 0.0
N636 N 0.57313 0.42883 0.28458 0.0
N637 N 0.47577 0.52163 0.22859 0.0
H638 H 0.5074 0.56855 0.28532 0.0
H639 H 0.4878 0.57779 0.25883 0.0
H640 H 0.46787 0.51124 0.21275 0.0
H641 H 0.45592 0.54422 0.23471 0.0
H642 H 0.58271 0.39923 0.28011 0.0
H643 H 0.57356 0.43387 0.3017 0.0
H644 H 0.60372 0.40294 0.24721 0.0
H645 H 0.58123 0.40968 0.22121 0.0
C646 C 0.70628 0.33056 0.51168 0.0
C647 C 0.71952 0.29559 0.52401 0.0
C648 C 0.75626 0.2697 0.49105 0.0
C649 C 0.73937 0.30241 0.47817 0.0
N650 N 0.69161 0.3594 0.4754 0.0
N651 N 0.75168 0.22837 0.52462 0.0
C652 C 0.71259 0.33166 0.48827 0.0
C653 C 0.74311 0.26419 0.51349 0.0
N654 N 0.68899 0.36353 0.52243 0.0
N655 N 0.78611 0.24487 0.48217 0.0
H656 H 0.74246 0.22307 0.54099 0.0
H657 H 0.76474 0.20253 0.51706 0.0
H658 H 0.797 0.24824 0.46596 0.0
H659 H 0.80272 0.22344 0.49146 0.0
H660 H 0.68289 0.39166 0.51467 0.0
H661 H 0.68447 0.36432 0.5396 0.0
H662 H 0.66843 0.37848 0.48158 0.0
H663 H 0.6943 0.36055 0.45814 0.0
C664 C 0.06693 0.43578 0.26235 0.0
C665 C 0.03544 0.45468 0.27524 0.0
C666 C 0.01801 0.49932 0.24352 0.0
C667 C 0.04659 0.47743 0.23002 0.0
N668 N 0.09166 0.41865 0.22551 0.0
N669 N 0.9758 0.49906 0.27677 0.0
C670 C 0.06919 0.44389 0.23913 0.0
C671 C 0.00949 0.48499 0.26545 0.0
N672 N 0.09604 0.41166 0.27239 0.0
N673 N 0.00024 0.53482 0.23577 0.0
H674 H 0.968 0.48873 0.29264 0.0
H675 H 0.95343 0.51789 0.26961 0.0
H676 H 0.00618 0.54682 0.22001 0.0
H677 H 0.98267 0.55445 0.24571 0.0
H678 H 0.12211 0.40078 0.26416 0.0
H679 H 0.09658 0.406 0.28945 0.0
H680 H 0.10519 0.39124 0.23093 0.0
H681 H 0.09327 0.42272 0.20833 0.0
C682 C 0.25925 0.27389 0.01452 0.0
C683 C 0.24494 0.30765 0.02752 0.0
C684 C 0.20945 0.33567 0.99472 0.0
C685 C 0.21965 0.29953 0.98252 0.0
N686 N 0.24869 0.23083 0.98203 0.0
N687 N 0.19912 0.3663 0.03096 0.0
C688 C 0.24314 0.2677 0.99273 0.0
C689 C 0.21812 0.33744 0.01788 0.0
N690 N 0.28935 0.24854 0.02265 0.0
N691 N 0.19285 0.36907 0.98406 0.0
H692 H 0.2033 0.36812 0.0481 0.0
H693 H 0.17591 0.38573 0.02518 0.0
H694 H 0.18685 0.36948 0.96704 0.0
H695 H 0.18896 0.39776 0.99166 0.0
H696 H 0.30404 0.22608 0.01308 0.0
H697 H 0.30253 0.25255 0.03829 0.0
H698 H 0.26168 0.20497 0.9896 0.0
H699 H 0.23687 0.22477 0.96626 0.0
C700 C 0.47033 0.48162 0.76788 0.0
C701 C 0.4479 0.51516 0.77723 0.0
C702 C 0.41917 0.53067 0.74048 0.0
C703 C 0.43721 0.49406 0.73177 0.0
N704 N 0.47541 0.43117 0.73816 0.0
N705 N 0.39443 0.56649 0.77317 0.0
C706 C 0.46175 0.46861 0.74571 0.0
C707 C 0.42055 0.53835 0.76373 0.0
N708 N 0.50081 0.46304 0.77992 0.0
N709 N 0.40222 0.55914 0.72642 0.0
H710 H 0.39357 0.57241 0.7902 0.0
H711 H 0.3708 0.58089 0.76439 0.0
H712 H 0.4028 0.55578 0.7092 0.0
H713 H 0.392 0.58811 0.73164 0.0
H714 H 0.52106 0.4414 0.77321 0.0
H715 H 0.50841 0.47207 0.79605 0.0
H716 H 0.48955 0.40936 0.74835 0.0
H717 H 0.46944 0.42031 0.72217 0.0
C718 C 0.2217 0.71533 0.52131 0.0
C719 C 0.23925 0.68254 0.53387 0.0
C720 C 0.27219 0.65569 0.50004 0.0
C721 C 0.25816 0.6907 0.48798 0.0
N722 N 0.22543 0.75768 0.48809 0.0
N723 N 0.28832 0.62661 0.53607 0.0
C724 C 0.23447 0.72161 0.49888 0.0
C725 C 0.26647 0.6541 0.52347 0.0
N726 N 0.19158 0.73945 0.53047 0.0
N727 N 0.28949 0.62304 0.48902 0.0
H728 H 0.2861 0.62522 0.55335 0.0
H729 H 0.31176 0.60814 0.52964 0.0
H730 H 0.29338 0.62242 0.47181 0.0
H731 H 0.29617 0.59491 0.49664 0.0
H732 H 0.17454 0.76086 0.52139 0.0
H733 H 0.18092 0.73552 0.54669 0.0
H734 H 0.21217 0.78313 0.49593 0.0
H735 H 0.23456 0.76364 0.47178 0.0
C736 C 0.35172 0.9089 0.11228 0.0
C737 C 0.38917 0.90182 0.12377 0.0
C738 C 0.36791 0.83076 0.13203 0.0
C739 C 0.33121 0.83754 0.11979 0.0
N740 N 0.29199 0.88044 0.09433 0.0
N741 N 0.43623 0.85538 0.14186 0.0
C742 C 0.32468 0.8755 0.1084 0.0
C743 C 0.39834 0.86243 0.13282 0.0
N744 N 0.34015 0.94831 0.10668 0.0
N745 N 0.37314 0.79434 0.14319 0.0
H746 H 0.45877 0.87824 0.14274 0.0
H747 H 0.44644 0.82645 0.14705 0.0
H748 H 0.35254 0.76978 0.14178 0.0
H749 H 0.39681 0.78893 0.15445 0.0
H750 H 0.31088 0.95594 0.10098 0.0
H751 H 0.35797 0.97442 0.10979 0.0
H752 H 0.28954 0.90514 0.08329 0.0
H753 H 0.26869 0.85886 0.09221 0.0
C754 C 0.34802 0.14718 0.35943 0.0
C755 C 0.32103 0.14444 0.37808 0.0
C756 C 0.37638 0.11094 0.39848 0.0
C757 C 0.39533 0.09994 0.37823 0.0
N758 N 0.40516 0.11587 0.33952 0.0
N759 N 0.31 0.11573 0.41531 0.0
C760 C 0.38322 0.121 0.35866 0.0
C761 C 0.3354 0.12496 0.39788 0.0
N762 N 0.34074 0.17535 0.34298 0.0
N763 N 0.3968 0.10708 0.41813 0.0
H764 H 0.27819 0.11866 0.41496 0.0
H765 H 0.32026 0.09922 0.42914 0.0
H766 H 0.42811 0.10002 0.41869 0.0
H767 H 0.38405 0.11666 0.43321 0.0
H768 H 0.36081 0.18029 0.32975 0.0
H769 H 0.31716 0.19718 0.34401 0.0
H770 H 0.39496 0.12607 0.32405 0.0
H771 H 0.43352 0.1007 0.33937 0.0
C772 C 0.07557 0.12088 0.64037 0.0
C773 C 0.07769 0.08293 0.6287 0.0
C774 C 0.14779 0.09779 0.6169 0.0
C775 C 0.14539 0.13671 0.62775 0.0
N776 N 0.10472 0.1892 0.64583 0.0
N777 N 0.11127 0.04067 0.60068 0.0
C778 C 0.10842 0.14958 0.63822 0.0
C779 C 0.11198 0.07355 0.61499 0.0
N780 N 0.04272 0.12888 0.65388 0.0
N781 N 0.18492 0.08184 0.61032 0.0
H782 H 0.08671 0.02037 0.59913 0.0
H783 H 0.13386 0.03586 0.58864 0.0
H784 H 0.21297 0.09666 0.61268 0.0
H785 H 0.18863 0.05152 0.60483 0.0
H786 H 0.04148 0.15379 0.66483 0.0
H787 H 0.01733 0.10925 0.65483 0.0
H788 H 0.07735 0.20152 0.65193 0.0
H789 H 0.12826 0.21089 0.6442 0.0
C790 C 0.12345 0.91168 0.88381 0.0
C791 C 0.08314 0.90007 0.8773 0.0
C792 C 0.10615 0.82871 0.87128 0.0
C793 C 0.14665 0.84094 0.87699 0.0
N794 N 0.19595 0.89578 0.88269 0.0
N795 N 0.03668 0.85026 0.86158 0.0
C796 C 0.15589 0.8829 0.88161 0.0
C797 C 0.0746 0.85932 0.86999 0.0
N798 N 0.13081 0.95025 0.89229 0.0
N799 N 0.09782 0.78787 0.86771 0.0
H800 H 0.01296 0.872 0.86092 0.0
H801 H 0.02949 0.82232 0.85396 0.0
H802 H 0.12052 0.76507 0.86828 0.0
H803 H 0.06829 0.77621 0.86554 0.0
H804 H 0.15819 0.95833 0.90012 0.0
H805 H 0.10875 0.9736 0.89299 0.0
H806 H 0.20456 0.92674 0.88349 0.0
H807 H 0.22101 0.87608 0.88044 0.0
C808 C 0.65014 0.11022 0.89557 0.0
C809 C 0.64262 0.1506 0.88719 0.0
C810 C 0.57446 0.12854 0.87428 0.0
C811 C 0.58097 0.08949 0.88446 0.0
N812 N 0.62241 0.04537 0.90814 0.0
N813 N 0.59646 0.20015 0.87082 0.0
C814 C 0.6177 0.08132 0.89641 0.0
C815 C 0.60435 0.16038 0.87716 0.0
N816 N 0.68924 0.09794 0.90086 0.0
N817 N 0.54017 0.13481 0.86162 0.0
H818 H 0.61785 0.22388 0.8728 0.0
H819 H 0.56791 0.21029 0.8652 0.0
H820 H 0.51717 0.11257 0.85997 0.0
H821 H 0.53558 0.16091 0.85181 0.0
H822 H 0.69709 0.06744 0.90446 0.0
H823 H 0.715 0.11672 0.89915 0.0
H824 H 0.6459 0.04095 0.91968 0.0
H825 H 0.60172 0.02088 0.90772 0.0
C826 C 0.63813 0.90607 0.62632 0.0
C827 C 0.60033 0.89646 0.63691 0.0
C828 C 0.62541 0.82681 0.64551 0.0
C829 C 0.66367 0.83731 0.63574 0.0
N830 N 0.71055 0.89112 0.62388 0.0
N831 N 0.55992 0.85131 0.66001 0.0
C832 C 0.67122 0.87808 0.62804 0.0
C833 C 0.59452 0.85788 0.64762 0.0
N834 N 0.64276 0.94217 0.6147 0.0
N835 N 0.61839 0.7871 0.65222 0.0
H836 H 0.53642 0.87319 0.6613 0.0
H837 H 0.55574 0.82558 0.67014 0.0
H838 H 0.64061 0.7639 0.65099 0.0
H839 H 0.58989 0.77645 0.65761 0.0
H840 H 0.6677 0.94782 0.60424 0.0
H841 H 0.6206 0.96541 0.61413 0.0
H842 H 0.71812 0.92179 0.62057 0.0
H843 H 0.73642 0.87262 0.6263 0.0
C844 C 0.81862 0.88625 0.39058 0.0
C845 C 0.82262 0.84645 0.38087 0.0
C846 C 0.89328 0.86261 0.36955 0.0
C847 C 0.88993 0.90123 0.38055 0.0
N848 N 0.8522 0.94634 0.40558 0.0
N849 N 0.86525 0.79367 0.36446 0.0
C850 C 0.85372 0.91167 0.39257 0.0
C851 C 0.86046 0.83366 0.37131 0.0
N852 N 0.78067 0.90142 0.39625 0.0
N853 N 0.92751 0.85398 0.35718 0.0
H854 H 0.84184 0.77177 0.36576 0.0
H855 H 0.89321 0.7813 0.35924 0.0
H856 H 0.95279 0.87377 0.35649 0.0
H857 H 0.92998 0.82844 0.34673 0.0
H858 H 0.77551 0.93205 0.40082 0.0
H859 H 0.75337 0.88514 0.39409 0.0
H860 H 0.82861 0.95195 0.41693 0.0
H861 H 0.87567 0.96804 0.40657 0.0
C862 C 0.86925 0.14596 0.13912 0.0
C863 C 0.83164 0.13686 0.12826 0.0
C864 C 0.85853 0.06954 0.11679 0.0
C865 C 0.89386 0.07635 0.13016 0.0
N866 N 0.93239 0.1193 0.15529 0.0
N867 N 0.7873 0.08628 0.11069 0.0
C868 C 0.89919 0.11417 0.14167 0.0
C869 C 0.82556 0.09796 0.11782 0.0
N870 N 0.87646 0.18517 0.14659 0.0
N871 N 0.85562 0.03532 0.1035 0.0
H872 H 0.76115 0.1047 0.11199 0.0
H873 H 0.78027 0.05634 0.1056 0.0
H874 H 0.87662 0.01104 0.10356 0.0
H875 H 0.83344 0.03234 0.09111 0.0
H876 H 0.90462 0.19488 0.1529 0.0
H877 H 0.85517 0.20908 0.14463 0.0
H878 H 0.93576 0.14428 0.16604 0.0
H879 H 0.9556 0.09716 0.15677 0.0
C880 C 0.86079 0.33782 0.63742 0.0
C881 C 0.81904 0.34909 0.63425 0.0
C882 C 0.83727 0.42228 0.63406 0.0
C883 C 0.87899 0.41138 0.63775 0.0
N884 N 0.93023 0.36034 0.64655 0.0
N885 N 0.76602 0.40142 0.63524 0.0
C886 C 0.89073 0.36951 0.6406 0.0
C887 C 0.80685 0.39116 0.63433 0.0
N888 N 0.87171 0.29704 0.63682 0.0
N889 N 0.82687 0.46235 0.62946 0.0
H890 H 0.74251 0.37956 0.63544 0.0
H891 H 0.7554 0.43141 0.6379 0.0
H892 H 0.84807 0.48643 0.62965 0.0
H893 H 0.79797 0.47132 0.62377 0.0
H894 H 0.90201 0.28667 0.63693 0.0
H895 H 0.85015 0.27342 0.63504 0.0
H896 H 0.94022 0.33081 0.65079 0.0
H897 H 0.95255 0.38313 0.64875 0.0
C898 C 0.89957 0.62426 0.87889 0.0
C899 C 0.88944 0.58165 0.87887 0.0
C900 C 0.81608 0.5981 0.88184 0.0
C901 C 0.82593 0.64081 0.88069 0.0
N902 N 0.87535 0.69544 0.87638 0.0
N903 N 0.83875 0.52709 0.87851 0.0
C904 C 0.86728 0.65422 0.87872 0.0
C905 C 0.84788 0.56836 0.8799 0.0
N906 N 0.93997 0.63579 0.87939 0.0
N907 N 0.77618 0.58597 0.88514 0.0
H908 H 0.86094 0.50382 0.87877 0.0
H909 H 0.80931 0.51558 0.87589 0.0
H910 H 0.75127 0.60626 0.88491 0.0
H911 H 0.76755 0.55601 0.88935 0.0
H912 H 0.94989 0.66612 0.88135 0.0
H913 H 0.96399 0.61437 0.87904 0.0
H914 H 0.90431 0.70743 0.87292 0.0
H915 H 0.85228 0.71789 0.8768 0.0
C916 C 0.65022 0.60168 0.13827 0.0
C917 C 0.64059 0.63935 0.12734 0.0
C918 C 0.57232 0.61261 0.11766 0.0
C919 C 0.58335 0.57419 0.12728 0.0
N920 N 0.63652 0.52866 0.14118 0.0
N921 N 0.59536 0.67962 0.1042 0.0
C922 C 0.62327 0.56778 0.13612 0.0
C923 C 0.60242 0.64455 0.11626 0.0
N924 N 0.68536 0.59791 0.15062 0.0
N925 N 0.53301 0.61871 0.11037 0.0
H926 H 0.61627 0.70404 0.10362 0.0
H927 H 0.57005 0.6836 0.09384 0.0
H928 H 0.51074 0.59554 0.11094 0.0
H929 H 0.52175 0.64721 0.10511 0.0
H930 H 0.69079 0.57317 0.16132 0.0
H931 H 0.70789 0.62063 0.15165 0.0
H932 H 0.66688 0.52161 0.14519 0.0
H933 H 0.61857 0.5023 0.13904 0.0
C934 C 0.60412 0.32881 0.3803 0.0
C935 C 0.64485 0.33713 0.37331 0.0
C936 C 0.62359 0.40413 0.35834 0.0
C937 C 0.58395 0.39852 0.36794 0.0
N938 N 0.53563 0.35584 0.38778 0.0
N939 N 0.69537 0.38565 0.35965 0.0
C940 C 0.57391 0.36074 0.37876 0.0
C941 C 0.65502 0.37534 0.36319 0.0
N942 N 0.59448 0.2904 0.38816 0.0
N943 N 0.63207 0.43722 0.34493 0.0
H944 H 0.71998 0.36619 0.36337 0.0
H945 H 0.70493 0.41522 0.35516 0.0
H946 H 0.61221 0.46169 0.34197 0.0
H947 H 0.65838 0.43882 0.33507 0.0
H948 H 0.56468 0.28084 0.39179 0.0
H949 H 0.61637 0.26697 0.38979 0.0
H950 H 0.52747 0.33135 0.39808 0.0
H951 H 0.51206 0.37732 0.38539 0.0
C952 C 0.13504 0.56393 0.37002 0.0
C953 C 0.09379 0.56945 0.37726 0.0
C954 C 0.10851 0.64147 0.38738 0.0
C955 C 0.15021 0.63488 0.38155 0.0
N956 N 0.20517 0.58834 0.37105 0.0
N957 N 0.04124 0.61129 0.39436 0.0
C958 C 0.16396 0.59582 0.37369 0.0
C959 C 0.08046 0.60767 0.38639 0.0
N960 N 0.14693 0.52792 0.35988 0.0
N961 N 0.09582 0.68016 0.39346 0.0
H962 H 0.01952 0.58775 0.39285 0.0
H963 H 0.03062 0.63663 0.40334 0.0
H964 H 0.116 0.70512 0.39459 0.0
H965 H 0.06522 0.68829 0.39603 0.0
H966 H 0.17456 0.52464 0.35129 0.0
H967 H 0.12851 0.50171 0.35877 0.0
H968 H 0.21757 0.55909 0.36834 0.0
H969 H 0.22783 0.61063 0.37345 0.0
C970 C 0.09602 0.32637 0.13495 0.0
C971 C 0.12595 0.32604 0.11775 0.0
C972 C 0.10188 0.39231 0.10422 0.0
C973 C 0.07353 0.39485 0.12221 0.0
N974 N 0.03479 0.35891 0.15044 0.0
N975 N 0.13686 0.34543 0.07947 0.0
C976 C 0.06768 0.36003 0.13629 0.0
C977 C 0.12194 0.35445 0.1001 0.0
N978 N 0.09486 0.29449 0.14979 0.0
N979 N 0.11275 0.42643 0.09217 0.0
H980 H 0.14801 0.31612 0.07541 0.0
H981 H 0.13214 0.36483 0.06585 0.0
H982 H 0.10278 0.45626 0.09583 0.0
H983 H 0.13596 0.42563 0.08019 0.0
H984 H 0.07748 0.29479 0.16433 0.0
H985 H 0.11182 0.26744 0.14731 0.0
H986 H 0.02713 0.33334 0.16008 0.0
H987 H 0.0129 0.38248 0.15109 0.0
C988 C 0.34995 0.39729 0.86536 0.0
C989 C 0.38936 0.39127 0.87503 0.0
C990 C 0.36928 0.32136 0.88647 0.0
C991 C 0.3312 0.32677 0.87538 0.0
N992 N 0.2895 0.36613 0.84957 0.0
N993 N 0.43932 0.34579 0.89163 0.0
C994 C 0.32325 0.36323 0.86303 0.0
C995 C 0.39996 0.35264 0.88463 0.0
N996 N 0.33616 0.43619 0.86028 0.0
N997 N 0.37564 0.28684 0.89909 0.0
H998 H 0.46228 0.36816 0.89034 0.0
H999 H 0.44998 0.31712 0.89701 0.0
H1000 H 0.35439 0.26274 0.89986 0.0
H1001 H 0.40082 0.28304 0.90957 0.0
H1002 H 0.30597 0.44248 0.85558 0.0
H1003 H 0.35287 0.46304 0.8633 0.0
H1004 H 0.28532 0.39027 0.83831 0.0
H1005 H 0.2675 0.343 0.84798 0.0
C1006 C 0.36633 0.59818 0.65732 0.0
C1007 C 0.39062 0.58817 0.63839 0.0
C1008 C 0.36666 0.65181 0.6202 0.0
C1009 C 0.34089 0.65951 0.63881 0.0
N1010 N 0.33936 0.65484 0.67885 0.0
N1011 N 0.42501 0.61343 0.60547 0.0
C1012 C 0.34882 0.63791 0.65873 0.0
C1013 C 0.39444 0.61763 0.62091 0.0
N1014 N 0.35611 0.56927 0.6729 0.0
N1015 N 0.36464 0.6771 0.6021 0.0
H1016 H 0.44702 0.59 0.60637 0.0
H1017 H 0.43112 0.63532 0.59323 0.0
H1018 H 0.34884 0.7052 0.60251 0.0
H1019 H 0.37838 0.6702 0.58689 0.0
H1020 H 0.33577 0.57569 0.68588 0.0
H1021 H 0.36323 0.53803 0.67147 0.0
H1022 H 0.34654 0.6402 0.69382 0.0
H1023 H 0.33009 0.68561 0.68039 0.0
C1024 C 0.31292 0.10281 0.14151 0.0
C1025 C 0.35545 0.10683 0.13673 0.0
C1026 C 0.3463 0.17985 0.12707 0.0
C1027 C 0.30336 0.17568 0.13104 0.0
N1028 N 0.24487 0.13462 0.14163 0.0
N1029 N 0.41453 0.14952 0.12942 0.0
C1030 C 0.28643 0.1376 0.13842 0.0
C1031 C 0.37265 0.14546 0.13066 0.0
N1032 N 0.29828 0.06577 0.14909 0.0
N1033 N 0.36182 0.21675 0.11972 0.0
H1034 H 0.43485 0.12509 0.13223 0.0
H1035 H 0.42977 0.17748 0.12732 0.0
H1036 H 0.34457 0.24386 0.11873 0.0
H1037 H 0.39151 0.2206 0.11363 0.0
H1038 H 0.26817 0.06051 0.15411 0.0
H1039 H 0.31705 0.03988 0.15121 0.0
H1040 H 0.22954 0.10765 0.14597 0.0
H1041 H 0.22483 0.1594 0.13916 0.0
C1042 C 0.09832 0.09725 0.40955 0.0
C1043 C 0.12753 0.11046 0.39351 0.0
C1044 C 0.09077 0.06948 0.36533 0.0
C1045 C 0.06346 0.05444 0.38207 0.0
N1046 N 0.06018 0.03763 0.42131 0.0
N1047 N 0.16068 0.09134 0.35879 0.0
C1048 C 0.07365 0.06272 0.40459 0.0
C1049 C 0.12665 0.09143 0.3721 0.0
N1050 N 0.09163 0.11833 0.42889 0.0
N1051 N 0.08348 0.06367 0.34322 0.0
H1052 H 0.18946 0.10079 0.36439 0.0
H1053 H 0.16181 0.07561 0.34367 0.0
H1054 H 0.06013 0.04547 0.3368 0.0
H1055 H 0.10045 0.07894 0.33101 0.0
H1056 H 0.0687 0.10961 0.44009 0.0
H1057 H 0.10404 0.14727 0.43227 0.0
H1058 H 0.06883 0.04213 0.43784 0.0
H1059 H 0.0454 0.00962 0.41814 0.0
C1060 C 0.15691 0.88079 0.65173 0.0
C1061 C 0.12009 0.885 0.6394 0.0
C1062 C 0.13315 0.81914 0.6203 0.0
C1063 C 0.16997 0.81461 0.63282 0.0
N1064 N 0.22105 0.84352 0.65721 0.0
N1065 N 0.06941 0.8566 0.61447 0.0
C1066 C 0.18291 0.84609 0.64773 0.0
C1067 C 0.1075 0.85404 0.6241 0.0
N1068 N 0.16633 0.90949 0.66762 0.0
N1069 N 0.12239 0.78997 0.60488 0.0
H1070 H 0.04923 0.88115 0.61711 0.0
H1071 H 0.05591 0.83316 0.60519 0.0
H1072 H 0.13711 0.76161 0.6031 0.0
H1073 H 0.09985 0.79437 0.59286 0.0
H1074 H 0.19023 0.9063 0.67896 0.0
H1075 H 0.14847 0.93581 0.67043 0.0
H1076 H 0.23423 0.86676 0.66677 0.0
H1077 H 0.24134 0.81923 0.65397 0.0
C1078 C 0.38187 0.9352 0.88732 0.0
C1079 C 0.41783 0.92054 0.87639 0.0
C1080 C 0.38756 0.85132 0.87353 0.0
C1081 C 0.35059 0.8667 0.88296 0.0
N1082 N 0.31025 0.92346 0.89702 0.0
N1083 N 0.45387 0.86588 0.85698 0.0
C1084 C 0.34713 0.90869 0.88947 0.0
C1085 C 0.42021 0.87905 0.8687 0.0
N1086 N 0.38124 0.97438 0.89585 0.0
N1087 N 0.39222 0.80967 0.8703 0.0
H1088 H 0.47993 0.88388 0.85435 0.0
H1089 H 0.45504 0.83785 0.8485 0.0
H1090 H 0.36931 0.78823 0.87406 0.0
H1091 H 0.41991 0.79572 0.86589 0.0
H1092 H 0.35831 0.98541 0.90638 0.0
H1093 H 0.40487 -0.00441 0.89316 0.0
H1094 H 0.3041 0.95464 0.8997 0.0
H1095 H 0.28467 0.9046 0.89945 0.0
C1096 C 0.28007 0.85287 0.38014 0.0
C1097 C 0.29755 0.81807 0.39107 0.0
C1098 C 0.36441 0.85275 0.39237 0.0
C1099 C 0.34654 0.88834 0.38252 0.0
N1100 N 0.28682 0.9252 0.36965 0.0
N1101 N 0.35447 0.78757 0.41119 0.0
C1102 C 0.30414 0.88928 0.37712 0.0
C1103 C 0.33898 0.81906 0.39851 0.0
N1104 N 0.24065 0.85072 0.37237 0.0
N1105 N 0.40625 0.85007 0.3946 0.0
H1106 H 0.33818 0.76094 0.4152 0.0
H1107 H 0.38262 0.78925 0.41937 0.0
H1108 H 0.42632 0.87362 0.38992 0.0
H1109 H 0.42159 0.82304 0.39906 0.0
H1110 H 0.22752 0.87278 0.36197 0.0
H1111 H 0.22141 0.82566 0.37568 0.0
H1112 H 0.25534 0.92936 0.36749 0.0
H1113 H 0.30388 0.95203 0.36695 0.0
C1114 C 0.35245 0.06166 0.62757 0.0
C1115 C 0.35484 0.10455 0.63226 0.0
C1116 C 0.42764 0.09772 0.64236 0.0
C1117 C 0.42577 0.05497 0.63689 0.0
N1118 N 0.38831 -0.00392 0.62319 0.0
N1119 N 0.39392 0.16465 0.64277 0.0
C1120 C 0.38865 0.03688 0.62916 0.0
C1121 C 0.39217 0.12281 0.63949 0.0
N1122 N 0.31524 0.04463 0.62228 0.0
N1123 N 0.46354 0.11449 0.65009 0.0
H1124 H 0.36815 0.18372 0.64208 0.0
H1125 H 0.4209 0.18126 0.64514 0.0
H1126 H 0.49166 0.09904 0.65003 0.0
H1127 H 0.46573 0.14355 0.65738 0.0
H1128 H 0.31003 0.01307 0.62068 0.0
H1129 H 0.2885 0.06221 0.62058 0.0
H1130 H 0.36391 0.98167 0.61518 0.0
H1131 H 0.41346 0.97651 0.62557 0.0
C1132 C 0.09364 0.13642 0.89524 0.0
C1133 C 0.10678 0.10157 0.88275 0.0
C1134 C 0.17368 0.13428 0.8762 0.0
C1135 C 0.16079 0.16888 0.88905 0.0
N1136 N 0.11141 0.19996 0.91414 0.0
N1137 N 0.16088 0.06348 0.86458 0.0
C1138 C 0.12185 0.16883 0.89979 0.0
C1139 C 0.14728 0.0994 0.8741 0.0
N1140 N 0.05335 0.13971 0.90164 0.0
N1141 N 0.21112 0.13507 0.86584 0.0
H1142 H 0.14227 0.03748 0.86269 0.0
H1143 H 0.19128 0.05816 0.85997 0.0
H1144 H 0.23277 0.15824 0.86867 0.0
H1145 H 0.2203 0.11371 0.85388 0.0
H1146 H 0.04044 0.16649 0.90825 0.0
H1147 H 0.03153 0.11682 0.89867 0.0
H1148 H 0.08598 0.19871 0.92465 0.0
H1149 H 0.1295 0.22591 0.91696 0.0
C1150 C 0.10656 0.87859 0.10632 0.0
C1151 C 0.13265 0.86889 0.12447 0.0
C1152 C 0.09381 0.91784 0.1479 0.0
C1153 C 0.06719 0.92602 0.12968 0.0
N1154 N 0.06816 0.93407 0.08965 0.0
N1155 N 0.16151 0.89432 0.15894 0.0
C1156 C 0.07999 0.91293 0.10821 0.0
C1157 C 0.12941 0.8929 0.14431 0.0
N1158 N 0.10488 0.85436 0.08776 0.0
N1159 N 0.08645 0.93453 0.16835 0.0
H1160 H 0.1898 0.88031 0.15573 0.0
H1161 H 0.16208 0.9138 0.17273 0.0
H1162 H 0.06699 0.95966 0.17088 0.0
H1163 H 0.10079 0.92382 0.18273 0.0
H1164 H 0.08372 0.85978 0.07505 0.0
H1165 H 0.12047 0.82642 0.08613 0.0
H1166 H 0.07887 0.92647 0.07381 0.0
H1167 H 0.05307 0.96252 0.0906 0.0
C1168 C 0.6262 0.81583 0.89265 0.0
C1169 C 0.6663 0.81506 0.88316 0.0
C1170 C 0.6567 0.88595 0.86906 0.0
C1171 C 0.61636 0.88602 0.87809 0.0
N1172 N 0.55959 0.84927 0.8947 0.0
N1173 N 0.72179 0.84939 0.8642 0.0
C1174 C 0.60047 0.8507 0.88913 0.0
C1175 C 0.68206 0.85014 0.87173 0.0
N1176 N 0.61229 0.78301 0.9049 0.0
N1177 N 0.67033 0.92006 0.85781 0.0
H1178 H 0.74137 0.82426 0.86674 0.0
H1179 H 0.73645 0.87384 0.85632 0.0
H1180 H 0.65285 0.94697 0.85625 0.0
H1181 H 0.6983 0.92202 0.84953 0.0
H1182 H 0.58664 0.78444 0.91523 0.0
H1183 H 0.6272 0.75459 0.90583 0.0
H1184 H 0.54465 0.82281 0.90026 0.0
H1185 H 0.53911 0.87355 0.89189 0.0
C1186 C 0.89507 0.90705 0.65024 0.0
C1187 C 0.91983 0.923 0.63286 0.0
C1188 C 0.87878 0.88492 0.60572 0.0
C1189 C 0.85223 0.87145 0.62303 0.0
N1190 N 0.82535 0.88954 0.65947 0.0
N1191 N 0.92114 0.94192 0.59388 0.0
C1192 C 0.85706 0.88903 0.64457 0.0
C1193 C 0.90694 0.91698 0.61049 0.0
N1194 N 0.9079 0.90632 0.67183 0.0
N1195 N 0.87969 0.86627 0.58536 0.0
H1196 H 0.93923 0.96788 0.59706 0.0
H1197 H 0.9104 0.93981 0.57758 0.0
H1198 H 0.86277 0.84014 0.58129 0.0
H1199 H 0.90133 0.87418 0.57327 0.0
H1200 H 0.89111 0.89133 0.68423 0.0
H1201 H 0.93669 0.9162 0.67707 0.0
H1202 H 0.82776 0.9038 0.67497 0.0
H1203 H 0.79545 0.88116 0.65512 0.0
C1204 C 0.84757 0.168 0.38832 0.0
C1205 C 0.80693 0.16706 0.37962 0.0
C1206 C 0.81898 0.09731 0.36475 0.0
C1207 C 0.86033 0.09978 0.37201 0.0
N1208 N 0.91621 0.13858 0.38791 0.0
N1209 N 0.75414 0.13282 0.35844 0.0
C1210 C 0.87517 0.13537 0.38312 0.0
C1211 C 0.79268 0.1322 0.3675 0.0
N1212 N 0.86003 0.2002 0.40144 0.0
N1213 N 0.80475 0.06125 0.35576 0.0
H1214 H 0.73309 0.15653 0.36151 0.0
H1215 H 0.74345 0.11085 0.34722 0.0
H1216 H 0.8237 0.03574 0.35286 0.0
H1217 H 0.77394 0.05562 0.35226 0.0
H1218 H 0.88711 0.19993 0.41064 0.0
H1219 H 0.84234 0.22642 0.40451 0.0
H1220 H 0.9301 0.16551 0.39361 0.0
H1221 H 0.93746 0.11526 0.38441 0.0
C1222 C 0.58827 0.13259 0.14199 0.0
C1223 C 0.62387 0.1174 0.13105 0.0
C1224 C 0.59004 0.05066 0.12489 0.0
C1225 C 0.55523 0.06514 0.13692 0.0
N1226 N 0.52291 0.11795 0.15951 0.0
N1227 N 0.66149 0.06112 0.11444 0.0
C1228 C 0.55505 0.10537 0.14644 0.0
C1229 C 0.62554 0.07619 0.12307 0.0
N1230 N 0.58533 0.17379 0.147 0.0
N1231 N 0.58884 0.01261 0.11501 0.0
H1232 H 0.68772 0.07925 0.11246 0.0
H1233 H 0.66634 0.03017 0.11051 0.0
H1234 H 0.56475 -0.00816 0.11748 0.0
H1235 H 0.61072 0.00217 0.10368 0.0
H1236 H 0.5585 0.18794 0.15262 0.0
H1237 H 0.60864 0.19497 0.14358 0.0
H1238 H 0.52362 0.14454 0.16924 0.0
H1239 H 0.49635 0.10066 0.16201 0.0
C1240 C 0.68909 0.13523 0.63396 0.0
C1241 C 0.67699 0.16547 0.61808 0.0
C1242 C 0.61313 0.12773 0.61127 0.0
C1243 C 0.62515 0.09728 0.62697 0.0
N1244 N 0.67846 0.06662 0.64939 0.0
N1245 N 0.63453 0.18173 0.58615 0.0
C1246 C 0.66439 0.09936 0.63719 0.0
C1247 C 0.64154 0.15872 0.60482 0.0
N1248 N 0.72408 0.1412 0.64609 0.0
N1249 N 0.57356 0.12893 0.60357 0.0
H1250 H 0.65455 0.20419 0.58026 0.0
H1251 H 0.61117 0.17495 0.57489 0.0
H1252 H 0.55086 0.10823 0.60863 0.0
H1253 H 0.56198 0.15321 0.59406 0.0
H1254 H 0.73198 0.12351 0.6599 0.0
H1255 H 0.74474 0.16502 0.64261 0.0
H1256 H 0.70827 0.06453 0.65557 0.0
H1257 H 0.66134 0.03975 0.65181 0.0
C1258 C 0.54115 0.87866 0.36724 0.0
C1259 C 0.54474 0.92141 0.37235 0.0
C1260 C 0.61811 0.91228 0.38058 0.0
C1261 C 0.61364 0.86916 0.3771 0.0
N1262 N 0.57064 0.80996 0.37024 0.0
N1263 N 0.58491 0.97904 0.38536 0.0
C1264 C 0.57514 0.852 0.37113 0.0
C1265 C 0.5828 0.93827 0.37945 0.0
N1266 N 0.50516 0.8634 0.35883 0.0
N1267 N 0.65633 0.92841 0.38433 0.0
H1268 H 0.56037 -0.0005 0.38332 0.0
H1269 H 0.61017 -0.0077 0.39319 0.0
H1270 H 0.68262 0.91008 0.3857 0.0
H1271 H 0.66262 0.95992 0.3847 0.0
H1272 H 0.50221 0.83383 0.35222 0.0
H1273 H 0.47853 0.88099 0.35697 0.0
H1274 H 0.54243 0.79514 0.36861 0.0
H1275 H 0.59484 0.78937 0.37298 0.0
C1276 C 0.79222 0.84248 0.13685 0.0
C1277 C 0.80496 0.80881 0.12328 0.0
C1278 C 0.87183 0.84217 0.11702 0.0
C1279 C 0.85942 0.87524 0.13104 0.0
N1280 N 0.81029 0.90622 0.15596 0.0
N1281 N 0.85491 0.7783 0.09823 0.0
C1282 C 0.82024 0.87526 0.14142 0.0
C1283 C 0.84401 0.80934 0.11255 0.0
N1284 N 0.75256 0.84379 0.14444 0.0
N1285 N 0.91157 0.84061 0.10944 0.0
H1286 H 0.83862 0.75091 0.09634 0.0
H1287 H 0.87945 0.78023 0.08717 0.0
H1288 H 0.93337 0.86336 0.11282 0.0
H1289 H 0.92449 0.81538 0.10131 0.0
H1290 H 0.73976 0.86863 0.15298 0.0
H1291 H 0.73095 0.8211 0.14058 0.0
H1292 H 0.78428 0.90615 0.16603 0.0
H1293 H 0.82945 0.93143 0.15896 0.0
C1294 C 0.91546 0.10544 0.88243 0.0
C1295 C 0.91027 0.06211 0.88539 0.0
C1296 C 0.83813 0.07288 0.89605 0.0
C1297 C 0.84381 0.1161 0.89363 0.0
N1298 N 0.88859 0.1745 0.88847 0.0
N1299 N 0.86904 0.00439 0.89727 0.0
C1300 C 0.88273 0.13261 0.88796 0.0
C1301 C 0.87226 0.04576 0.89293 0.0
N1302 N 0.95164 0.12072 0.87418 0.0
N1303 N 0.79988 0.0579 0.90081 0.0
H1304 H 0.89274 0.98349 0.89397 0.0
H1305 H 0.84381 0.99088 0.90501 0.0
H1306 H 0.77519 0.07722 0.90457 0.0
H1307 H 0.7921 0.02673 0.9003 0.0
H1308 H 0.95547 0.15109 0.86889 0.0
H1309 H 0.97763 0.1027 0.87123 0.0
H1310 H 0.9172 0.18865 0.88717 0.0
H1311 H 0.86508 0.19539 0.89206 0.0
C1312 C 0.79854 0.64873 0.61937 0.0
C1313 C 0.81821 0.68751 0.61767 0.0
C1314 C 0.88048 0.65905 0.63488 0.0
C1315 C 0.86288 0.61907 0.63344 0.0
N1316 N 0.80532 0.57507 0.62515 0.0
N1317 N 0.87781 0.73075 0.62306 0.0
C1318 C 0.82183 0.61378 0.62602 0.0
C1319 C 0.85905 0.69318 0.62548 0.0
N1320 N 0.7572 0.6457 0.61547 0.0
N1321 N 0.91758 0.66424 0.64519 0.0
H1322 H 0.86313 0.75627 0.61603 0.0
H1323 H 0.90874 0.73607 0.62639 0.0
H1324 H 0.93425 0.63978 0.65198 0.0
H1325 H 0.93036 0.69295 0.64875 0.0
H1326 H 0.73999 0.61936 0.61888 0.0
H1327 H 0.73919 0.67064 0.61032 0.0
H1328 H 0.77796 0.56802 0.61703 0.0
H1329 H 0.81992 0.54965 0.63222 0.0
C1330 C 0.626 0.57153 0.89172 0.0
C1331 C 0.62169 0.61407 0.88651 0.0
C1332 C 0.55153 0.60235 0.87312 0.0
C1333 C 0.55507 0.55987 0.87903 0.0
N1334 N 0.59333 0.50446 0.89608 0.0
N1335 N 0.5786 0.67184 0.87677 0.0
C1336 C 0.59165 0.54462 0.88904 0.0
C1337 C 0.58397 0.62995 0.87842 0.0
N1338 N 0.66331 0.55677 0.89857 0.0
N1339 N 0.5171 0.61656 0.86249 0.0
H1340 H 0.60156 0.69307 0.88075 0.0
H1341 H 0.55045 0.68592 0.8735 0.0
H1342 H 0.49099 0.59876 0.85969 0.0
H1343 H 0.51514 0.64559 0.85511 0.0
H1344 H 0.67021 0.52551 0.90024 0.0
H1345 H 0.68835 0.57601 0.90166 0.0
H1346 H 0.61697 0.49246 0.90578 0.0
H1347 H 0.56987 0.48325 0.89301 0.0
C1348 C 0.62443 0.34961 0.15681 0.0
C1349 C 0.62156 0.37836 0.13909 0.0
C1350 C 0.6826 0.34691 0.12173 0.0
C1351 C 0.68432 0.31768 0.1393 0.0
N1352 N 0.67186 0.31001 0.17888 0.0
N1353 N 0.65756 0.41378 0.10948 0.0
C1354 C 0.66014 0.32488 0.15862 0.0
C1355 C 0.65356 0.3799 0.12289 0.0
N1356 N 0.59263 0.34408 0.17136 0.0
N1357 N 0.70924 0.34374 0.10427 0.0
H1358 H 0.63886 0.43984 0.11097 0.0
H1359 H 0.68221 0.41812 0.09867 0.0
H1360 H 0.73458 0.32392 0.10453 0.0
H1361 H 0.70588 0.3604 0.08956 0.0
H1362 H 0.59272 0.32073 0.18332 0.0
H1363 H 0.56449 0.35929 0.16996 0.0
H1364 H 0.65568 0.31665 0.19343 0.0
H1365 H 0.70096 0.29767 0.18177 0.0
C1366 C 0.84648 0.40739 0.38638 0.0
C1367 C 0.84891 0.36401 0.3832 0.0
C1368 C 0.92287 0.36886 0.37602 0.0
C1369 C 0.9199 0.41261 0.37733 0.0
N1370 N 0.87963 0.47438 0.38216 0.0
N1371 N 0.8877 0.30317 0.37304 0.0
C1372 C 0.88188 0.43218 0.38215 0.0
C1373 C 0.88665 0.34468 0.37748 0.0
N1374 N 0.81047 0.42457 0.39366 0.0
N1375 N 0.96064 0.35031 0.37434 0.0
H1376 H 0.86245 0.28373 0.3752 0.0
H1377 H 0.91284 0.28821 0.36593 0.0
H1378 H 0.98806 0.36676 0.37296 0.0
H1379 H 0.96539 0.31864 0.37602 0.0
H1380 H 0.80729 0.45541 0.39825 0.0
H1381 H 0.78404 0.40711 0.39655 0.0
H1382 H 0.85232 0.49095 0.38358 0.0
H1383 H 0.90519 0.49309 0.37925 0.0
C1384 C 0.88402 0.34299 0.88689 0.0
C1385 C 0.87096 0.37928 0.87575 0.0
C1386 C 0.80151 0.35025 0.87195 0.0
C1387 C 0.81377 0.31552 0.88483 0.0
N1388 N 0.86562 0.28148 0.9073 0.0
N1389 N 0.81663 0.42004 0.85952 0.0
C1390 C 0.8546 0.31284 0.89325 0.0
C1391 C 0.82955 0.38356 0.86864 0.0
N1392 N 0.92511 0.33633 0.89032 0.0
N1393 N 0.76304 0.35127 0.86282 0.0
H1394 H 0.83644 0.44457 0.85621 0.0
H1395 H 0.78593 0.42711 0.85643 0.0
H1396 H 0.74062 0.32921 0.86636 0.0
H1397 H 0.75386 0.37284 0.85097 0.0
H1398 H 0.93719 0.30843 0.89598 0.0
H1399 H 0.94775 0.35717 0.88532 0.0
H1400 H 0.89316 0.28112 0.91611 0.0
H1401 H 0.84637 0.25718 0.91168 0.0
C1402 C 0.90675 0.59576 0.14814 0.0
C1403 C 0.91136 0.55888 0.13556 0.0
C1404 C 0.84354 0.57039 0.11851 0.0
C1405 C 0.84166 0.60964 0.12894 0.0
N1406 N 0.87445 0.66298 0.15069 0.0
N1407 N 0.88487 0.51054 0.10867 0.0
C1408 C 0.87379 0.62302 0.14318 0.0
C1409 C 0.87981 0.54599 0.12075 0.0
N1410 N 0.93414 0.60542 0.16457 0.0
N1411 N 0.81019 0.55604 0.10705 0.0
H1412 H 0.90918 0.49005 0.11136 0.0
H1413 H 0.86597 0.50207 0.09549 0.0
H1414 H 0.78324 0.5732 0.10513 0.0
H1415 H 0.80786 0.52611 0.10084 0.0
H1416 H 0.92906 0.62894 0.17608 0.0
H1417 H 0.96033 0.58817 0.1681 0.0
H1418 H 0.89943 0.67599 0.15892 0.0
H1419 H 0.85192 0.68475 0.14678 0.0
C1420 C 0.6522 0.60548 0.35828 0.0
C1421 C 0.61752 0.60322 0.37266 0.0
C1422 C 0.64797 0.65631 0.3962 0.0
C1423 C 0.6766 0.66616 0.37928 0.0
N1424 N 0.71134 0.64497 0.3457 0.0
N1425 N 0.57869 0.63393 0.40286 0.0
C1426 C 0.6803 0.63914 0.36066 0.0
C1427 C 0.61433 0.6308 0.39091 0.0
N1428 N 0.65941 0.57465 0.34323 0.0
N1429 N 0.6536 0.66932 0.41756 0.0
H1430 H 0.55194 0.618 0.39867 0.0
H1431 H 0.5745 0.65615 0.41523 0.0
H1432 H 0.68114 0.68224 0.42299 0.0
H1433 H 0.63399 0.66073 0.43048 0.0
H1434 H 0.68605 0.57255 0.33369 0.0
H1435 H 0.64031 0.54901 0.34152 0.0
H1436 H 0.7125 0.63055 0.33023 0.0
H1437 H 0.7361 0.66452 0.34893 0.0
C1438 C 0.57733 0.34924 0.61575 0.0
C1439 C 0.61677 0.36771 0.61598 0.0
C1440 C 0.58563 0.43662 0.61977 0.0
C1441 C 0.54661 0.41766 0.62205 0.0
N1442 N 0.50411 0.35658 0.62236 0.0
N1443 N 0.65987 0.42799 0.61736 0.0
C1444 C 0.54209 0.37413 0.61988 0.0
C1445 C 0.62131 0.41125 0.61756 0.0
N1446 N 0.57373 0.30793 0.61124 0.0
N1447 N 0.58826 0.4788 0.6194 0.0
H1448 H 0.68611 0.41038 0.61418 0.0
H1449 H 0.66623 0.45881 0.62083 0.0
H1450 H 0.56263 0.49792 0.62134 0.0
H1451 H 0.61507 0.49503 0.61592 0.0
H1452 H 0.54587 0.29292 0.60869 0.0
H1453 H 0.59904 0.28882 0.60829 0.0
H1454 H 0.49909 0.32495 0.62384 0.0
H1455 H 0.47722 0.37389 0.62399 0.0
C1456 C 0.15618 0.36502 0.378 0.0
C1457 C 0.11661 0.36152 0.3684 0.0
C1458 C 0.12473 0.28649 0.36536 0.0
C1459 C 0.16116 0.28927 0.3785 0.0
N1460 N 0.21584 0.33073 0.39386 0.0
N1461 N 0.06274 0.32015 0.35233 0.0
C1462 C 0.17828 0.32853 0.38369 0.0
C1463 C 0.1013 0.32276 0.36131 0.0
N1464 N 0.1726 0.40349 0.38118 0.0
N1465 N 0.11176 0.2494 0.35697 0.0
H1466 H 0.04514 0.34592 0.34817 0.0
H1467 H 0.04701 0.29247 0.35005 0.0
H1468 H 0.12293 0.22072 0.36183 0.0
H1469 H 0.0904 0.24705 0.34415 0.0
H1470 H 0.20222 0.4091 0.38689 0.0
H1471 H 0.1572 0.43047 0.37654 0.0
H1472 H 0.22821 0.35756 0.40058 0.0
H1473 H 0.23518 0.30521 0.39566 0.0
C1474 C 0.36749 0.3614 0.14547 0.0
C1475 C 0.33727 0.37367 0.12979 0.0
C1476 C 0.37728 0.43604 0.12142 0.0
C1477 C 0.40699 0.42396 0.13758 0.0
N1478 N 0.42123 0.38265 0.17043 0.0
N1479 N 0.30917 0.42583 0.10562 0.0
C1480 C 0.39911 0.38929 0.15145 0.0
C1481 C 0.34091 0.41199 0.11852 0.0
N1482 N 0.36766 0.32197 0.15372 0.0
N1483 N 0.38399 0.47064 0.1089 0.0
H1484 H 0.28226 0.40891 0.10322 0.0
H1485 H 0.30802 0.45518 0.09857 0.0
H1486 H 0.40764 0.49143 0.11236 0.0
H1487 H 0.36686 0.47833 0.0949 0.0
H1488 H 0.39176 0.31004 0.16317 0.0
H1489 H 0.3463 0.29954 0.14915 0.0
H1490 H 0.41339 0.36002 0.18201 0.0
H1491 H 0.4438 0.40241 0.17633 0.0
C1492 C 0.34739 0.66848 0.89056 0.0
C1493 C 0.30615 0.66726 0.8827 0.0
C1494 C 0.31612 0.59555 0.87014 0.0
C1495 C 0.35785 0.59786 0.87682 0.0
N1496 N 0.4154 0.63777 0.89001 0.0
N1497 N 0.25161 0.63159 0.8636 0.0
C1498 C 0.37398 0.63456 0.88627 0.0
C1499 C 0.29063 0.63129 0.87205 0.0
N1500 N 0.36153 0.70228 0.9019 0.0
N1501 N 0.30071 0.55884 0.8626 0.0
H1502 H 0.23117 0.65603 0.86614 0.0
H1503 H 0.2399 0.60858 0.85333 0.0
H1504 H 0.31889 0.53255 0.8605 0.0
H1505 H 0.26967 0.55351 0.85961 0.0
H1506 H 0.38895 0.70249 0.9108 0.0
H1507 H 0.34514 0.72973 0.90366 0.0
H1508 H 0.43012 0.66524 0.89416 0.0
H1509 H 0.43606 0.61367 0.88714 0.0
C1510 C 0.05412 0.60695 0.62461 0.0
C1511 C 0.05749 0.56477 0.63093 0.0
C1512 C 0.13258 0.57073 0.63228 0.0
C1513 C 0.12922 0.61256 0.62527 0.0
N1514 N 0.08782 0.66892 0.61132 0.0
N1515 N 0.09875 0.50446 0.63796 0.0
C1516 C 0.09029 0.63007 0.62022 0.0
C1517 C 0.09645 0.54599 0.63394 0.0
N1518 N 0.01622 0.62541 0.62371 0.0
N1519 N 0.17033 0.55502 0.63766 0.0
H1520 H 0.0727 0.48598 0.63982 0.0
H1521 H 0.12612 0.48778 0.63817 0.0
H1522 H 0.19754 0.57151 0.63526 0.0
H1523 H 0.17477 0.52647 0.64525 0.0
H1524 H 0.01179 0.65712 0.62201 0.0
H1525 H -0.01122 0.60953 0.6264 0.0
H1526 H 0.06094 0.68144 0.60477 0.0
H1527 H 0.11325 0.68788 0.60884 0.0
C1528 C 0.10344 0.63962 0.14331 0.0
C1529 C 0.11772 0.59877 0.1397 0.0
C1530 C 0.18672 0.62501 0.13085 0.0
C1531 C 0.17108 0.66584 0.13197 0.0
N1532 N 0.11425 0.71293 0.13758 0.0
N1533 N 0.17186 0.5514 0.12967 0.0
C1534 C 0.1294 0.67341 0.13788 0.0
C1535 C 0.1592 0.59111 0.13348 0.0
N1536 N 0.06502 0.64609 0.15196 0.0
N1537 N 0.22787 0.61883 0.12756 0.0
H1538 H 0.15313 0.52586 0.13274 0.0
H1539 H 0.20013 0.54369 0.12268 0.0
H1540 H 0.24841 0.64311 0.12493 0.0
H1541 H 0.24218 0.59012 0.12873 0.0
H1542 H 0.05444 0.67476 0.15735 0.0
H1543 H 0.04455 0.62221 0.15548 0.0
H1544 H 0.08317 0.72014 0.13899 0.0
H1545 H 0.13235 0.7388 0.13433 0.0
C1546 C 0.1097 0.37406 0.86146 0.0
C1547 C 0.13702 0.37735 0.8798 0.0
C1548 C 0.1034 0.44258 0.89045 0.0
C1549 C 0.07592 0.43826 0.87218 0.0
N1550 N 0.07053 0.41259 0.83454 0.0
N1551 N 0.16704 0.42065 0.90814 0.0
C1552 C 0.08465 0.40819 0.85576 0.0
C1553 C 0.13604 0.41342 0.89332 0.0
N1554 N 0.10573 0.33771 0.85009 0.0
N1555 N 0.09859 0.47498 0.90476 0.0
H1556 H 0.19205 0.40079 0.9101 0.0
H1557 H 0.17003 0.44796 0.91713 0.0
H1558 H 0.07911 0.4998 0.90123 0.0
H1559 H 0.11346 0.47712 0.92003 0.0
H1560 H 0.08354 0.33339 0.83781 0.0
H1561 H 0.12078 0.31055 0.85468 0.0
H1562 H 0.07836 0.39211 0.82183 0.0
H1563 H 0.05717 0.4399 0.82885 0.0
C1564 C 0.28626 0.34092 0.64122 0.0
C1565 C 0.30628 0.30328 0.63572 0.0
C1566 C 0.37316 0.33511 0.64243 0.0
C1567 C 0.35375 0.37394 0.64478 0.0
N1568 N 0.29231 0.41542 0.64553 0.0
N1569 N 0.36904 0.26644 0.62703 0.0
C1570 C 0.31031 0.37734 0.64402 0.0
C1571 C 0.34983 0.30091 0.63514 0.0
N1572 N 0.24452 0.34171 0.64377 0.0
N1573 N 0.4139 0.33082 0.64747 0.0
H1574 H 0.35318 0.24093 0.62092 0.0
H1575 H 0.40061 0.26482 0.6242 0.0
H1576 H 0.43154 0.3552 0.65357 0.0
H1577 H 0.42888 0.30235 0.64802 0.0
H1578 H 0.22846 0.36711 0.64994 0.0
H1579 H 0.22608 0.31592 0.64081 0.0
H1580 H 0.26117 0.42073 0.6427 0.0
H1581 H 0.3092 0.44218 0.64872 0.0
C1582 C 0.38059 0.54799 0.39035 0.0
C1583 C 0.41889 0.56566 0.38433 0.0
C1584 C 0.39022 0.6354 0.38863 0.0
C1585 C 0.35099 0.61774 0.39229 0.0
N1586 N 0.30722 0.55821 0.39602 0.0
N1587 N 0.46071 0.62575 0.37664 0.0
C1588 C 0.34574 0.57424 0.39317 0.0
C1589 C 0.42387 0.60928 0.3832 0.0
N1590 N 0.37777 0.50624 0.39353 0.0
N1591 N 0.39533 0.67717 0.39094 0.0
H1592 H 0.48699 0.60805 0.37373 0.0
H1593 H 0.46489 0.65681 0.37278 0.0
H1594 H 0.3712 0.69718 0.39487 0.0
H1595 H 0.4238 0.69181 0.39084 0.0
H1596 H 0.352 0.49165 0.4001 0.0
H1597 H 0.40238 0.48615 0.39075 0.0
H1598 H 0.30021 0.52701 0.39428 0.0
H1599 H 0.28153 0.57665 0.3992 0.0
loop_
_geom_bond_atom_site_label_1
_geom_bond_atom_site_label_2
_geom_bond_distance
_geom_bond_site_symmetry_2
_ccdc_geom_bond_type
Zn0 O3 2.031 . S
Zn0 O5 2.049 1_545 S
Zn0 O10 2.067 . S
Zn1 O2 1.962 . S
Zn1 O4 1.997 . S
Zn1 O6 1.996 1_545 S
Zn1 O9 1.943 . S
O2 Zn1 1.962 . S
O2 C7 1.254 . S
O3 Zn0 2.031 . S
O3 C7 1.269 . S
O4 Zn1 1.997 . S
O4 C11 1.276 . S
O5 Zn0 2.049 1_565 S
O5 C13 1.260 . S
O6 Zn1 1.996 1_565 S
O6 C13 1.257 . S
C7 O2 1.254 . S
C7 O3 1.269 . S
C8 O9 1.249 . S
C8 O10 1.270 . S
O9 Zn1 1.943 . S
O9 C8 1.249 . S
O10 Zn0 2.067 . S
O10 C8 1.270 . S
C11 O4 1.276 . S
C11 O12 1.232 . S
O12 C11 1.232 . S
C13 O5 1.260 . S
C13 O6 1.257 . S
Zn14 O17 2.031 . S
Zn14 O19 2.049 . S
Zn14 O24 2.067 . S
Zn15 O16 1.962 . S
Zn15 O18 1.986 . S
Zn15 O20 1.996 . S
Zn15 O23 1.943 . S
O16 Zn15 1.962 . S
O16 C21 1.254 . S
O17 Zn14 2.031 . S
O17 C21 1.269 . S
O18 Zn15 1.986 . S
O18 C25 1.262 . S
O19 Zn14 2.049 . S
O19 C27 1.260 . S
O20 Zn15 1.996 . S
O20 C27 1.257 . S
C21 O16 1.254 . S
C21 O17 1.269 . S
C22 O23 1.249 . S
C22 O24 1.270 . S
O23 Zn15 1.943 . S
O23 C22 1.249 . S
O24 Zn14 2.067 . S
O24 C22 1.270 . S
C25 O18 1.262 . S
C25 O26 1.232 . S
O26 C25 1.232 . S
C27 O19 1.260 . S
C27 O20 1.257 . S
Zn28 O31 2.031 . S
Zn28 O33 2.049 1_565 S
Zn28 O38 2.067 . S
Zn29 O30 1.962 . S
Zn29 O32 1.997 . S
Zn29 O34 1.996 1_565 S
Zn29 O37 1.943 . S
O30 Zn29 1.962 . S
O30 C35 1.254 . S
O31 Zn28 2.031 . S
O31 C35 1.269 . S
O32 Zn29 1.997 . S
O32 C39 1.276 . S
O33 Zn28 2.049 1_545 S
O33 C41 1.260 . S
O34 Zn29 1.996 1_545 S
O34 C41 1.257 . S
C35 O30 1.254 . S
C35 O31 1.269 . S
C36 O37 1.249 . S
C36 O38 1.270 . S
O37 Zn29 1.943 . S
O37 C36 1.249 . S
O38 Zn28 2.067 . S
O38 C36 1.270 . S
C39 O32 1.276 . S
C39 O40 1.232 . S
O40 C39 1.232 . S
C41 O33 1.260 . S
C41 O34 1.257 . S
Zn42 O45 2.031 . S
Zn42 O47 2.049 . S
Zn42 O52 2.067 . S
Zn43 O44 1.962 . S
Zn43 O46 1.986 . S
Zn43 O48 1.996 . S
Zn43 O51 1.943 . S
O44 Zn43 1.962 . S
O44 C49 1.254 . S
O45 Zn42 2.031 . S
O45 C49 1.269 . S
O46 Zn43 1.986 . S
O46 C53 1.262 . S
O47 Zn42 2.049 . S
O47 C55 1.260 . S
O48 Zn43 1.996 . S
O48 C55 1.257 . S
C49 O44 1.254 . S
C49 O45 1.269 . S
C50 O51 1.249 . S
C50 O52 1.270 . S
O51 Zn43 1.943 . S
O51 C50 1.249 . S
O52 Zn42 2.067 . S
O52 C50 1.270 . S
C53 O46 1.262 . S
C53 O54 1.232 . S
O54 C53 1.232 . S
C55 O47 1.260 . S
C55 O48 1.257 . S
Zn56 O59 2.031 . S
Zn56 O61 2.049 1_565 S
Zn56 O66 2.067 . S
Zn57 O58 1.962 . S
Zn57 O60 1.997 . S
Zn57 O62 1.996 1_565 S
Zn57 O65 1.943 . S
O58 Zn57 1.962 . S
O58 C63 1.254 . S
O59 Zn56 2.031 . S
O59 C63 1.269 . S
O60 Zn57 1.997 . S
O60 C67 1.276 . S
O61 Zn56 2.049 1_545 S
O61 C69 1.260 . S
O62 Zn57 1.996 1_545 S
O62 C69 1.257 . S
C63 O58 1.254 . S
C63 O59 1.269 . S
C64 O65 1.249 . S
C64 O66 1.270 . S
O65 Zn57 1.943 . S
O65 C64 1.249 . S
O66 Zn56 2.067 . S
O66 C64 1.270 . S
C67 O60 1.276 . S
C67 O68 1.232 . S
O68 C67 1.232 . S
C69 O61 1.260 . S
C69 O62 1.257 . S
Zn70 O73 2.031 . S
Zn70 O75 2.049 . S
Zn70 O80 2.067 . S
Zn71 O72 1.962 . S
Zn71 O74 1.986 . S
Zn71 O76 1.996 . S
Zn71 O79 1.943 . S
O72 Zn71 1.962 . S
O72 C77 1.254 . S
O73 Zn70 2.031 . S
O73 C77 1.269 . S
O74 Zn71 1.986 . S
O74 C81 1.262 . S
O75 Zn70 2.049 . S
O75 C83 1.260 . S
O76 Zn71 1.996 . S
O76 C83 1.257 . S
C77 O72 1.254 . S
C77 O73 1.269 . S
C78 O79 1.249 . S
C78 O80 1.270 . S
O79 Zn71 1.943 . S
O79 C78 1.249 . S
O80 Zn70 2.067 . S
O80 C78 1.270 . S
C81 O74 1.262 . S
C81 O82 1.232 . S
O82 C81 1.232 . S
C83 O75 1.260 . S
C83 O76 1.257 . S
Zn84 O87 2.031 . S
Zn84 O89 2.049 1_545 S
Zn84 O94 2.067 . S
Zn85 O86 1.962 . S
Zn85 O88 1.997 . S
Zn85 O90 1.996 1_545 S
Zn85 O93 1.943 . S
O86 Zn85 1.962 . S
O86 C91 1.254 . S
O87 Zn84 2.031 . S
O87 C91 1.269 . S
O88 Zn85 1.997 . S
O88 C95 1.276 . S
O89 Zn84 2.049 1_565 S
O89 C97 1.260 . S
O90 Zn85 1.996 1_565 S
O90 C97 1.257 . S
C91 O86 1.254 . S
C91 O87 1.269 . S
C92 O93 1.249 . S
C92 O94 1.270 . S
O93 Zn85 1.943 . S
O93 C92 1.249 . S
O94 Zn84 2.067 . S
O94 C92 1.270 . S
C95 O88 1.276 . S
C95 O96 1.232 . S
O96 C95 1.232 . S
C97 O89 1.260 . S
C97 O90 1.257 . S
Zn98 O101 2.031 . S
Zn98 O103 2.049 . S
Zn98 O108 2.067 . S
Zn99 O100 1.962 . S
Zn99 O102 1.986 . S
Zn99 O104 1.996 . S
Zn99 O107 1.943 . S
O100 Zn99 1.962 . S
O100 C105 1.254 . S
O101 Zn98 2.031 . S
O101 C105 1.269 . S
O102 Zn99 1.986 . S
O102 C109 1.262 . S
O103 Zn98 2.049 . S
O103 C111 1.260 . S
O104 Zn99 1.996 . S
O104 C111 1.257 . S
C105 O100 1.254 . S
C105 O101 1.269 . S
C106 O107 1.249 . S
C106 O108 1.270 . S
O107 Zn99 1.943 . S
O107 C106 1.249 . S
O108 Zn98 2.067 . S
O108 C106 1.270 . S
C109 O102 1.262 . S
C109 O110 1.232 . S
O110 C109 1.232 . S
C111 O103 1.260 . S
C111 O104 1.257 . S
Zn112 O115 2.031 . S
Zn112 O117 2.049 1_565 S
Zn112 O122 2.067 . S
Zn113 O114 1.962 . S
Zn113 O116 1.997 . S
Zn113 O118 1.996 1_565 S
Zn113 O121 1.943 . S
O114 Zn113 1.962 . S
O114 C119 1.254 . S
O115 Zn112 2.031 . S
O115 C119 1.269 . S
O116 Zn113 1.997 . S
O116 C123 1.276 . S
O117 Zn112 2.049 1_545 S
O117 C125 1.260 . S
O118 Zn113 1.996 1_545 S
O118 C125 1.257 . S
C119 O114 1.254 . S
C119 O115 1.269 . S
C120 O121 1.249 . S
C120 O122 1.270 . S
O121 Zn113 1.943 . S
O121 C120 1.249 . S
O122 Zn112 2.067 . S
O122 C120 1.270 . S
C123 O116 1.276 . S
C123 O124 1.232 . S
O124 C123 1.232 . S
C125 O117 1.260 . S
C125 O118 1.257 . S
Zn126 O129 2.031 . S
Zn126 O131 2.049 . S
Zn126 O136 2.067 . S
Zn127 O128 1.962 . S
Zn127 O130 1.986 . S
Zn127 O132 1.996 . S
Zn127 O135 1.943 . S
O128 Zn127 1.962 . S
O128 C133 1.254 . S
O129 Zn126 2.031 . S
O129 C133 1.269 . S
O130 Zn127 1.986 . S
O130 C137 1.262 . S
O131 Zn126 2.049 . S
O131 C139 1.260 . S
O132 Zn127 1.996 . S
O132 C139 1.257 . S
C133 O128 1.254 . S
C133 O129 1.269 . S
C134 O135 1.249 . S
C134 O136 1.270 . S
O135 Zn127 1.943 . S
O135 C134 1.249 . S
O136 Zn126 2.067 . S
O136 C134 1.270 . S
C137 O130 1.262 . S
C137 O138 1.232 . S
O138 C137 1.232 . S
C139 O131 1.260 . S
C139 O132 1.257 . S
Zn140 O143 2.031 . S
Zn140 O145 2.049 1_545 S
Zn140 O150 2.067 . S
Zn141 O142 1.962 . S
Zn141 O144 1.997 . S
Zn141 O146 1.996 1_545 S
Zn141 O149 1.943 . S
O142 Zn141 1.962 . S
O142 C147 1.254 . S
O143 Zn140 2.031 . S
O143 C147 1.269 . S
O144 Zn141 1.997 . S
O144 C151 1.276 . S
O145 Zn140 2.049 1_565 S
O145 C153 1.260 . S
O146 Zn141 1.996 1_565 S
O146 C153 1.257 . S
C147 O142 1.254 . S
C147 O143 1.269 . S
C148 O149 1.249 . S
C148 O150 1.270 . S
O149 Zn141 1.943 . S
O149 C148 1.249 . S
O150 Zn140 2.067 . S
O150 C148 1.270 . S
C151 O144 1.276 . S
C151 O152 1.232 . S
O152 C151 1.232 . S
C153 O145 1.260 . S
C153 O146 1.257 . S
Zn154 O157 2.031 . S
Zn154 O159 2.049 . S
Zn154 O164 2.067 . S
Zn155 O156 1.962 . S
Zn155 O158 1.986 . S
Zn155 O160 1.996 . S
Zn155 O163 1.943 . S
O156 Zn155 1.962 . S
O156 C161 1.254 . S
O157 Zn154 2.031 . S
O157 C161 1.269 . S
O158 Zn155 1.986 . S
O158 C165 1.262 . S
O159 Zn154 2.049 . S
O159 C167 1.260 . S
O160 Zn155 1.996 . S
O160 C167 1.257 . S
C161 O156 1.254 . S
C161 O157 1.269 . S
C162 O163 1.249 . S
C162 O164 1.270 . S
O163 Zn155 1.943 . S
O163 C162 1.249 . S
O164 Zn154 2.067 . S
O164 C162 1.270 . S
C165 O158 1.262 . S
C165 O166 1.232 . S
O166 C165 1.232 . S
C167 O159 1.260 . S
C167 O160 1.257 . S
Zn168 O171 2.031 . S
Zn168 O173 2.049 1_545 S
Zn168 O178 2.067 . S
Zn169 O170 1.962 . S
Zn169 O172 1.997 . S
Zn169 O174 1.996 1_545 S
Zn169 O177 1.943 . S
O170 Zn169 1.962 . S
O170 C175 1.254 . S
O171 Zn168 2.031 . S
O171 C175 1.269 . S
O172 Zn169 1.997 . S
O172 C179 1.276 . S
O173 Zn168 2.049 1_565 S
O173 C181 1.260 . S
O174 Zn169 1.996 1_565 S
O174 C181 1.257 . S
C175 O170 1.254 . S
C175 O171 1.269 . S
C176 O177 1.249 . S
C176 O178 1.270 . S
O177 Zn169 1.943 . S
O177 C176 1.249 . S
O178 Zn168 2.067 . S
O178 C176 1.270 . S
C179 O172 1.276 . S
C179 O180 1.232 . S
O180 C179 1.232 . S
C181 O173 1.260 . S
C181 O174 1.257 . S
Zn182 O185 2.031 . S
Zn182 O187 2.049 . S
Zn182 O192 2.067 . S
Zn183 O184 1.962 . S
Zn183 O186 1.986 . S
Zn183 O188 1.996 . S
Zn183 O191 1.943 . S
O184 Zn183 1.962 . S
O184 C189 1.254 . S
O185 Zn182 2.031 . S
O185 C189 1.269 . S
O186 Zn183 1.986 . S
O186 C193 1.262 . S
O187 Zn182 2.049 . S
O187 C195 1.260 . S
O188 Zn183 1.996 . S
O188 C195 1.257 . S
C189 O184 1.254 . S
C189 O185 1.269 . S
C190 O191 1.249 . S
C190 O192 1.270 . S
O191 Zn183 1.943 . S
O191 C190 1.249 . S
O192 Zn182 2.067 . S
O192 C190 1.270 . S
C193 O186 1.262 . S
C193 O194 1.232 . S
O194 C193 1.232 . S
C195 O187 1.260 . S
C195 O188 1.257 . S
Zn196 O199 2.031 . S
Zn196 O201 2.049 1_565 S
Zn196 O206 2.067 . S
Zn197 O198 1.962 . S
Zn197 O200 1.997 . S
Zn197 O202 1.996 1_565 S
Zn197 O205 1.943 . S
O198 Zn197 1.962 . S
O198 C203 1.254 . S
O199 Zn196 2.031 . S
O199 C203 1.269 . S
O200 Zn197 1.997 . S
O200 C207 1.276 . S
O201 Zn196 2.049 1_545 S
O201 C209 1.260 . S
O202 Zn197 1.996 1_545 S
O202 C209 1.257 . S
C203 O198 1.254 . S
C203 O199 1.269 . S
C204 O205 1.249 . S
C204 O206 1.270 . S
O205 Zn197 1.943 . S
O205 C204 1.249 . S
O206 Zn196 2.067 . S
O206 C204 1.270 . S
C207 O200 1.276 . S
C207 O208 1.232 . S
O208 C207 1.232 . S
C209 O201 1.260 . S
C209 O202 1.257 . S
Zn210 O213 2.031 . S
Zn210 O215 2.049 . S
Zn210 O220 2.067 . S
Zn211 O212 1.962 . S
Zn211 O214 1.986 . S
Zn211 O216 1.996 . S
Zn211 O219 1.943 . S
O212 Zn211 1.962 . S
O212 C217 1.254 . S
O213 Zn210 2.031 . S
O213 C217 1.269 . S
O214 Zn211 1.986 . S
O214 C221 1.262 . S
O215 Zn210 2.049 . S
O215 C223 1.260 . S
O216 Zn211 1.996 . S
O216 C223 1.257 . S
C217 O212 1.254 . S
C217 O213 1.269 . S
C218 O219 1.249 . S
C218 O220 1.270 . S
O219 Zn211 1.943 . S
O219 C218 1.249 . S
O220 Zn210 2.067 . S
O220 C218 1.270 . S
C221 O214 1.262 . S
C221 O222 1.232 . S
O222 C221 1.232 . S
C223 O215 1.260 . S
C223 O216 1.257 . S
Zn224 O227 2.031 . S
Zn224 O229 2.049 . S
Zn224 O234 2.067 . S
Zn225 O226 1.962 . S
Zn225 O228 1.986 . S
Zn225 O230 1.996 . S
Zn225 O233 1.943 . S
O226 Zn225 1.962 . S
O226 C231 1.254 . S
O227 Zn224 2.031 . S
O227 C231 1.269 . S
O228 Zn225 1.986 . S
O228 C235 1.262 . S
O229 Zn224 2.049 . S
O229 C237 1.260 . S
O230 Zn225 1.996 . S
O230 C237 1.257 . S
C231 O226 1.254 . S
C231 O227 1.269 . S
C232 O233 1.249 . S
C232 O234 1.270 . S
O233 Zn225 1.943 . S
O233 C232 1.249 . S
O234 Zn224 2.067 . S
O234 C232 1.270 . S
C235 O228 1.262 . S
C235 O236 1.232 . S
O236 C235 1.232 . S
C237 O229 1.260 . S
C237 O230 1.257 . S
Zn238 O241 2.031 . S
Zn238 O243 2.049 . S
Zn238 O248 2.067 . S
Zn239 O240 1.962 . S
Zn239 O242 1.986 . S
Zn239 O244 1.996 . S
Zn239 O247 1.943 . S
O240 Zn239 1.962 . S
O240 C245 1.254 . S
O241 Zn238 2.031 . S
O241 C245 1.269 . S
O242 Zn239 1.986 . S
O242 C249 1.262 . S
O243 Zn238 2.049 . S
O243 C251 1.260 . S
O244 Zn239 1.996 . S
O244 C251 1.257 . S
C245 O240 1.254 . S
C245 O241 1.269 . S
C246 O247 1.249 . S
C246 O248 1.270 . S
O247 Zn239 1.943 . S
O247 C246 1.249 . S
O248 Zn238 2.067 . S
O248 C246 1.270 . S
C249 O242 1.262 . S
C249 O250 1.232 . S
O250 C249 1.232 . S
C251 O243 1.260 . S
C251 O244 1.257 . S
Zn252 O255 2.031 . S
Zn252 O257 2.049 . S
Zn252 O262 2.067 . S
Zn253 O254 1.962 . S
Zn253 O256 1.986 . S
Zn253 O258 1.996 . S
Zn253 O261 1.943 . S
O254 Zn253 1.962 . S
O254 C259 1.254 . S
O255 Zn252 2.031 . S
O255 C259 1.269 . S
O256 Zn253 1.986 . S
O256 C263 1.262 . S
O257 Zn252 2.049 . S
O257 C265 1.260 . S
O258 Zn253 1.996 . S
O258 C265 1.257 . S
C259 O254 1.254 . S
C259 O255 1.269 . S
C260 O261 1.249 . S
C260 O262 1.270 . S
O261 Zn253 1.943 . S
O261 C260 1.249 . S
O262 Zn252 2.067 . S
O262 C260 1.270 . S
C263 O256 1.262 . S
C263 O264 1.232 . S
O264 C263 1.232 . S
C265 O257 1.260 . S
C265 O258 1.257 . S
Zn266 O269 2.031 . S
Zn266 O271 2.049 . S
Zn266 O276 2.067 . S
Zn267 O268 1.962 . S
Zn267 O270 1.986 . S
Zn267 O272 1.996 . S
Zn267 O275 1.943 . S
O268 Zn267 1.962 . S
O268 C273 1.254 . S
O269 Zn266 2.031 . S
O269 C273 1.269 . S
O270 Zn267 1.986 . S
O270 C277 1.262 . S
O271 Zn266 2.049 . S
O271 C279 1.260 . S
O272 Zn267 1.996 . S
O272 C279 1.257 . S
C273 O268 1.254 . S
C273 O269 1.269 . S
C274 O275 1.249 . S
C274 O276 1.270 . S
O275 Zn267 1.943 . S
O275 C274 1.249 . S
O276 Zn266 2.067 . S
O276 C274 1.270 . S
C277 O270 1.262 . S
C277 O278 1.232 . S
O278 C277 1.232 . S
C279 O271 1.260 . S
C279 O272 1.257 . S
Zn280 O283 2.031 . S
Zn280 O285 2.049 . S
Zn280 O290 2.067 . S
Zn281 O282 1.962 . S
Zn281 O284 1.986 . S
Zn281 O286 1.996 . S
Zn281 O289 1.943 . S
O282 Zn281 1.962 . S
O282 C287 1.254 . S
O283 Zn280 2.031 . S
O283 C287 1.269 . S
O284 Zn281 1.986 . S
O284 C291 1.262 . S
O285 Zn280 2.049 . S
O285 C293 1.260 . S
O286 Zn281 1.996 . S
O286 C293 1.257 . S
C287 O282 1.254 . S
C287 O283 1.269 . S
C288 O289 1.249 . S
C288 O290 1.270 . S
O289 Zn281 1.943 . S
O289 C288 1.249 . S
O290 Zn280 2.067 . S
O290 C288 1.270 . S
C291 O284 1.262 . S
C291 O292 1.232 . S
O292 C291 1.232 . S
C293 O285 1.260 . S
C293 O286 1.257 . S
Zn294 O297 2.031 . S
Zn294 O299 2.049 . S
Zn294 O304 2.067 . S
Zn295 O296 1.962 . S
Zn295 O298 1.986 . S
Zn295 O300 1.996 . S
Zn295 O303 1.943 . S
O296 Zn295 1.962 . S
O296 C301 1.254 . S
O297 Zn294 2.031 . S
O297 C301 1.269 . S
O298 Zn295 1.986 . S
O298 C305 1.262 . S
O299 Zn294 2.049 . S
O299 C307 1.260 . S
O300 Zn295 1.996 . S
O300 C307 1.257 . S
C301 O296 1.254 . S
C301 O297 1.269 . S
C302 O303 1.249 . S
C302 O304 1.270 . S
O303 Zn295 1.943 . S
O303 C302 1.249 . S
O304 Zn294 2.067 . S
O304 C302 1.270 . S
C305 O298 1.262 . S
C305 O306 1.232 . S
O306 C305 1.232 . S
C307 O299 1.260 . S
C307 O300 1.257 . S
Zn308 O311 2.031 . S
Zn308 O313 2.049 . S
Zn308 O318 2.067 . S
Zn309 O310 1.962 . S
Zn309 O312 1.986 . S
Zn309 O314 1.996 . S
Zn309 O317 1.943 . S
O310 Zn309 1.962 . S
O310 C315 1.254 . S
O311 Zn308 2.031 . S
O311 C315 1.269 . S
O312 Zn309 1.986 . S
O312 C319 1.262 . S
O313 Zn308 2.049 . S
O313 C321 1.260 . S
O314 Zn309 1.996 . S
O314 C321 1.257 . S
C315 O310 1.254 . S
C315 O311 1.269 . S
C316 O317 1.249 . S
C316 O318 1.270 . S
O317 Zn309 1.943 . S
O317 C316 1.249 . S
O318 Zn308 2.067 . S
O318 C316 1.270 . S
C319 O312 1.262 . S
C319 O320 1.232 . S
O320 C319 1.232 . S
C321 O313 1.260 . S
C321 O314 1.257 . S
Zn322 O325 2.031 . S
Zn322 O327 2.049 . S
Zn322 O332 2.067 . S
Zn323 O324 1.962 . S
Zn323 O326 1.986 . S
Zn323 O328 1.996 . S
Zn323 O331 1.943 . S
O324 Zn323 1.962 . S
O324 C329 1.254 . S
O325 Zn322 2.031 . S
O325 C329 1.269 . S
O326 Zn323 1.986 . S
O326 C333 1.262 . S
O327 Zn322 2.049 . S
O327 C335 1.260 . S
O328 Zn323 1.996 . S
O328 C335 1.257 . S
C329 O324 1.254 . S
C329 O325 1.269 . S
C330 O331 1.249 . S
C330 O332 1.270 . S
O331 Zn323 1.943 . S
O331 C330 1.249 . S
O332 Zn322 2.067 . S
O332 C330 1.270 . S
C333 O326 1.262 . S
C333 O334 1.232 . S
O334 C333 1.232 . S
C335 O327 1.260 . S
C335 O328 1.257 . S
Zn336 O339 2.031 . S
Zn336 O341 2.049 . S
Zn336 O346 2.067 . S
Zn337 O338 1.962 . S
Zn337 O340 1.986 . S
Zn337 O342 1.996 . S
Zn337 O345 1.943 . S
O338 Zn337 1.962 . S
O338 C343 1.254 . S
O339 Zn336 2.031 . S
O339 C343 1.269 . S
O340 Zn337 1.986 . S
O340 C347 1.262 . S
O341 Zn336 2.049 . S
O341 C349 1.260 . S
O342 Zn337 1.996 . S
O342 C349 1.257 . S
C343 O338 1.254 . S
C343 O339 1.269 . S
C344 O345 1.249 . S
C344 O346 1.270 . S
O345 Zn337 1.943 . S
O345 C344 1.249 . S
O346 Zn336 2.067 . S
O346 C344 1.270 . S
C347 O340 1.262 . S
C347 O348 1.232 . S
O348 C347 1.232 . S
C349 O341 1.260 . S
C349 O342 1.257 . S
Zn350 O353 2.031 . S
Zn350 O355 2.049 . S
Zn350 O360 2.067 . S
Zn351 O352 1.962 . S
Zn351 O354 1.986 . S
Zn351 O356 1.996 . S
Zn351 O359 1.943 . S
O352 Zn351 1.962 . S
O352 C357 1.254 . S
O353 Zn350 2.031 . S
O353 C357 1.269 . S
O354 Zn351 1.986 . S
O354 C361 1.262 . S
O355 Zn350 2.049 . S
O355 C363 1.260 . S
O356 Zn351 1.996 . S
O356 C363 1.257 . S
C357 O352 1.254 . S
C357 O353 1.269 . S
C358 O359 1.249 . S
C358 O360 1.270 . S
O359 Zn351 1.943 . S
O359 C358 1.249 . S
O360 Zn350 2.067 . S
O360 C358 1.270 . S
C361 O354 1.262 . S
C361 O362 1.232 . S
O362 C361 1.232 . S
C363 O355 1.260 . S
C363 O356 1.257 . S
Zn364 O367 2.031 . S
Zn364 O369 2.049 . S
Zn364 O374 2.067 . S
Zn365 O366 1.962 . S
Zn365 O368 1.986 . S
Zn365 O370 1.996 . S
Zn365 O373 1.943 . S
O366 Zn365 1.962 . S
O366 C371 1.254 . S
O367 Zn364 2.031 . S
O367 C371 1.269 . S
O368 Zn365 1.986 . S
O368 C375 1.262 . S
O369 Zn364 2.049 . S
O369 C377 1.260 . S
O370 Zn365 1.996 . S
O370 C377 1.257 . S
C371 O366 1.254 . S
C371 O367 1.269 . S
C372 O373 1.249 . S
C372 O374 1.270 . S
O373 Zn365 1.943 . S
O373 C372 1.249 . S
O374 Zn364 2.067 . S
O374 C372 1.270 . S
C375 O368 1.262 . S
C375 O376 1.232 . S
O376 C375 1.232 . S
C377 O369 1.260 . S
C377 O370 1.257 . S
Zn378 O381 2.031 . S
Zn378 O383 2.049 . S
Zn378 O388 2.067 . S
Zn379 O380 1.962 . S
Zn379 O382 1.986 . S
Zn379 O384 1.996 . S
Zn379 O387 1.943 . S
O380 Zn379 1.962 . S
O380 C385 1.254 . S
O381 Zn378 2.031 . S
O381 C385 1.269 . S
O382 Zn379 1.986 . S
O382 C389 1.262 . S
O383 Zn378 2.049 . S
O383 C391 1.260 . S
O384 Zn379 1.996 . S
O384 C391 1.257 . S
C385 O380 1.254 . S
C385 O381 1.269 . S
C386 O387 1.249 . S
C386 O388 1.270 . S
O387 Zn379 1.943 . S
O387 C386 1.249 . S
O388 Zn378 2.067 . S
O388 C386 1.270 . S
C389 O382 1.262 . S
C389 O390 1.232 . S
O390 C389 1.232 . S
C391 O383 1.260 . S
C391 O384 1.257 . S
Zn392 O395 2.031 . S
Zn392 O397 2.049 . S
Zn392 O402 2.067 . S
Zn393 O394 1.962 . S
Zn393 O396 1.986 . S
Zn393 O398 1.996 . S
Zn393 O401 1.943 . S
O394 Zn393 1.962 . S
O394 C399 1.254 . S
O395 Zn392 2.031 . S
O395 C399 1.269 . S
O396 Zn393 1.986 . S
O396 C403 1.262 . S
O397 Zn392 2.049 . S
O397 C405 1.260 . S
O398 Zn393 1.996 . S
O398 C405 1.257 . S
C399 O394 1.254 . S
C399 O395 1.269 . S
C400 O401 1.249 . S
C400 O402 1.270 . S
O401 Zn393 1.943 . S
O401 C400 1.249 . S
O402 Zn392 2.067 . S
O402 C400 1.270 . S
C403 O396 1.262 . S
C403 O404 1.232 . S
O404 C403 1.232 . S
C405 O397 1.260 . S
C405 O398 1.257 . S
Zn406 O409 2.031 . S
Zn406 O411 2.049 . S
Zn406 O416 2.067 . S
Zn407 O408 1.962 . S
Zn407 O410 1.986 . S
Zn407 O412 1.996 . S
Zn407 O415 1.943 . S
O408 Zn407 1.962 . S
O408 C413 1.254 . S
O409 Zn406 2.031 . S
O409 C413 1.269 . S
O410 Zn407 1.986 . S
O410 C417 1.262 . S
O411 Zn406 2.049 . S
O411 C419 1.260 . S
O412 Zn407 1.996 . S
O412 C419 1.257 . S
C413 O408 1.254 . S
C413 O409 1.269 . S
C414 O415 1.249 . S
C414 O416 1.270 . S
O415 Zn407 1.943 . S
O415 C414 1.249 . S
O416 Zn406 2.067 . S
O416 C414 1.270 . S
C417 O410 1.262 . S
C417 O418 1.232 . S
O418 C417 1.232 . S
C419 O411 1.260 . S
C419 O412 1.257 . S
Zn420 O423 2.031 . S
Zn420 O425 2.049 . S
Zn420 O430 2.067 . S
Zn421 O422 1.962 . S
Zn421 O424 1.986 . S
Zn421 O426 1.996 . S
Zn421 O429 1.943 . S
O422 Zn421 1.962 . S
O422 C427 1.254 . S
O423 Zn420 2.031 . S
O423 C427 1.269 . S
O424 Zn421 1.986 . S
O424 C431 1.262 . S
O425 Zn420 2.049 . S
O425 C433 1.260 . S
O426 Zn421 1.996 . S
O426 C433 1.257 . S
C427 O422 1.254 . S
C427 O423 1.269 . S
C428 O429 1.249 . S
C428 O430 1.270 . S
O429 Zn421 1.943 . S
O429 C428 1.249 . S
O430 Zn420 2.067 . S
O430 C428 1.270 . S
C431 O424 1.262 . S
C431 O432 1.232 . S
O432 C431 1.232 . S
C433 O425 1.260 . S
C433 O426 1.257 . S
Zn434 O437 2.031 . S
Zn434 O439 2.049 . S
Zn434 O444 2.067 . S
Zn435 O436 1.962 . S
Zn435 O438 1.986 . S
Zn435 O440 1.996 . S
Zn435 O443 1.943 . S
O436 Zn435 1.962 . S
O436 C441 1.254 . S
O437 Zn434 2.031 . S
O437 C441 1.269 . S
O438 Zn435 1.986 . S
O438 C445 1.262 . S
O439 Zn434 2.049 . S
O439 C447 1.260 . S
O440 Zn435 1.996 . S
O440 C447 1.257 . S
C441 O436 1.254 . S
C441 O437 1.269 . S
C442 O443 1.249 . S
C442 O444 1.270 . S
O443 Zn435 1.943 . S
O443 C442 1.249 . S
O444 Zn434 2.067 . S
O444 C442 1.270 . S
C445 O438 1.262 . S
C445 O446 1.232 . S
O446 C445 1.232 . S
C447 O439 1.260 . S
C447 O440 1.257 . S
C448 C449 1.363 . S
C448 C454 1.379 . S
C448 N456 1.356 . S
C449 C448 1.363 . S
C449 C455 1.363 1_565 S
C450 C451 1.363 . S
C450 C455 1.379 . S
C450 N457 1.356 . S
C451 C450 1.363 . S
C451 C454 1.363 1_545 S
N452 C454 1.356 . S
N452 H464 0.984 . S
N452 H465 0.985 . S
N453 C455 1.356 . S
N453 H458 0.984 . S
N453 H459 0.985 . S
C454 C448 1.379 . S
C454 C451 1.363 1_565 S
C454 N452 1.356 . S
C455 C449 1.363 1_545 S
C455 C450 1.379 . S
C455 N453 1.356 . S
N456 C448 1.356 . S
N456 H462 0.984 . S
N456 H463 0.984 . S
N457 C450 1.356 . S
N457 H460 0.984 . S
N457 H461 0.985 . S
H458 N453 0.984 . S
H459 N453 0.985 . S
H460 N457 0.984 . S
H461 N457 0.985 . S
H462 N456 0.984 . S
H463 N456 0.984 . S
H464 N452 0.984 . S
H465 N452 0.985 . S
C466 C467 1.363 . S
C466 C472 1.379 . S
C466 N474 1.356 . S
C467 C466 1.363 . S
C467 C473 1.363 . S
C468 C469 1.363 . S
C468 C473 1.379 . S
C468 N475 1.356 . S
C469 C468 1.363 . S
C469 C472 1.363 . S
N470 C472 1.356 . S
N470 H482 0.984 . S
N470 H483 0.985 . S
N471 C473 1.356 . S
N471 H476 0.984 . S
N471 H477 0.985 . S
C472 C466 1.379 . S
C472 C469 1.363 . S
C472 N470 1.356 . S
C473 C467 1.363 . S
C473 C468 1.379 . S
C473 N471 1.356 . S
N474 C466 1.356 . S
N474 H480 0.984 . S
N474 H481 0.984 . S
N475 C468 1.356 . S
N475 H478 0.984 . S
N475 H479 0.985 . S
H476 N471 0.984 . S
H477 N471 0.985 . S
H478 N475 0.984 . S
H479 N475 0.985 . S
H480 N474 0.984 . S
H481 N474 0.984 . S
H482 N470 0.984 . S
H483 N470 0.985 . S
C484 C485 1.363 1_565 S
C484 C490 1.379 . S
C484 N492 1.356 . S
C485 C484 1.363 1_545 S
C485 C491 1.363 . S
C486 C487 1.363 1_545 S
C486 C491 1.379 . S
C486 N493 1.356 . S
C487 C486 1.363 1_565 S
C487 C490 1.363 . S
N488 C490 1.356 . S
N488 H500 0.984 . S
N488 H501 0.985 . S
N489 C491 1.356 . S
N489 H494 0.984 . S
N489 H495 0.985 . S
C490 C484 1.379 . S
C490 C487 1.363 . S
C490 N488 1.356 . S
C491 C485 1.363 . S
C491 C486 1.379 . S
C491 N489 1.356 . S
N492 C484 1.356 . S
N492 H498 0.984 . S
N492 H499 0.984 . S
N493 C486 1.356 . S
N493 H496 0.984 . S
N493 H497 0.985 . S
H494 N489 0.984 . S
H495 N489 0.985 . S
H496 N493 0.984 . S
H497 N493 0.985 . S
H498 N492 0.984 . S
H499 N492 0.984 . S
H500 N488 0.984 . S
H501 N488 0.985 . S
C502 C503 1.363 . S
C502 C508 1.379 1_556 S
C502 N510 1.356 . S
C503 C502 1.363 . S
C503 C509 1.363 . S
C504 C505 1.363 . S
C504 C509 1.379 1_554 S
C504 N511 1.356 . S
C505 C504 1.363 . S
C505 C508 1.363 . S
N506 C508 1.356 . S
N506 H518 0.984 . S
N506 H519 0.985 . S
N507 C509 1.356 . S
N507 H512 0.984 . S
N507 H513 0.985 . S
C508 C502 1.379 1_554 S
C508 C505 1.363 . S
C508 N506 1.356 . S
C509 C503 1.363 . S
C509 C504 1.379 1_556 S
C509 N507 1.356 . S
N510 C502 1.356 . S
N510 H516 0.984 . S
N510 H517 0.984 . S
N511 C504 1.356 . S
N511 H514 0.984 . S
N511 H515 0.985 . S
H512 N507 0.984 . S
H513 N507 0.985 . S
H514 N511 0.984 . S
H515 N511 0.985 . S
H516 N510 0.984 . S
H517 N510 0.984 . S
H518 N506 0.984 . S
H519 N506 0.985 . S
C520 C521 1.363 1_545 S
C520 C526 1.379 . S
C520 N528 1.356 . S
C521 C520 1.363 1_565 S
C521 C527 1.363 . S
C522 C523 1.363 1_565 S
C522 C527 1.379 . S
C522 N529 1.356 . S
C523 C522 1.363 1_545 S
C523 C526 1.363 . S
N524 C526 1.356 . S
N524 H536 0.984 . S
N524 H537 0.985 . S
N525 C527 1.356 . S
N525 H530 0.984 . S
N525 H531 0.985 . S
C526 C520 1.379 . S
C526 C523 1.363 . S
C526 N524 1.356 . S
C527 C521 1.363 . S
C527 C522 1.379 . S
C527 N525 1.356 . S
N528 C520 1.356 . S
N528 H534 0.984 . S
N528 H535 0.984 . S
N529 C522 1.356 . S
N529 H532 0.984 . S
N529 H533 0.985 . S
H530 N525 0.984 . S
H531 N525 0.985 . S
H532 N529 0.984 . S
H533 N529 0.985 . S
H534 N528 0.984 . S
H535 N528 0.984 . S
H536 N524 0.984 . S
H537 N524 0.985 . S
C538 C539 1.363 . S
C538 C544 1.379 . S
C538 N546 1.356 . S
C539 C538 1.363 . S
C539 C545 1.363 . S
C540 C541 1.363 . S
C540 C545 1.379 . S
C540 N547 1.356 . S
C541 C540 1.363 . S
C541 C544 1.363 . S
N542 C544 1.356 . S
N542 H554 0.984 . S
N542 H555 0.985 . S
N543 C545 1.356 . S
N543 H548 0.984 . S
N543 H549 0.985 . S
C544 C538 1.379 . S
C544 C541 1.363 . S
C544 N542 1.356 . S
C545 C539 1.363 . S
C545 C540 1.379 . S
C545 N543 1.356 . S
N546 C538 1.356 . S
N546 H552 0.984 . S
N546 H553 0.984 . S
N547 C540 1.356 . S
N547 H550 0.984 . S
N547 H551 0.985 . S
H548 N543 0.984 . S
H549 N543 0.985 . S
H550 N547 0.984 . S
H551 N547 0.985 . S
H552 N546 0.984 . S
H553 N546 0.984 . S
H554 N542 0.984 . S
H555 N542 0.985 . S
C556 C557 1.363 1_565 S
C556 C562 1.379 . S
C556 N564 1.356 . S
C557 C556 1.363 1_545 S
C557 C563 1.363 . S
C558 C559 1.363 1_545 S
C558 C563 1.379 . S
C558 N565 1.356 . S
C559 C558 1.363 1_565 S
C559 C562 1.363 . S
N560 C562 1.356 . S
N560 H572 0.984 . S
N560 H573 0.985 . S
N561 C563 1.356 . S
N561 H566 0.984 . S
N561 H567 0.985 . S
C562 C556 1.379 . S
C562 C559 1.363 . S
C562 N560 1.356 . S
C563 C557 1.363 . S
C563 C558 1.379 . S
C563 N561 1.356 . S
N564 C556 1.356 . S
N564 H570 0.984 . S
N564 H571 0.984 . S
N565 C558 1.356 . S
N565 H568 0.984 . S
N565 H569 0.985 . S
H566 N561 0.984 . S
H567 N561 0.985 . S
H568 N565 0.984 . S
H569 N565 0.985 . S
H570 N564 0.984 . S
H571 N564 0.984 . S
H572 N560 0.984 . S
H573 N560 0.985 . S
C574 C575 1.363 . S
C574 C580 1.379 1_556 S
C574 N582 1.356 . S
C575 C574 1.363 . S
C575 C581 1.363 . S
C576 C577 1.363 . S
C576 C581 1.379 1_554 S
C576 N583 1.356 . S
C577 C576 1.363 . S
C577 C580 1.363 . S
N578 C580 1.356 . S
N578 H590 0.984 . S
N578 H591 0.985 . S
N579 C581 1.356 . S
N579 H584 0.984 . S
N579 H585 0.985 . S
C580 C574 1.379 1_554 S
C580 C577 1.363 . S
C580 N578 1.356 . S
C581 C575 1.363 . S
C581 C576 1.379 1_556 S
C581 N579 1.356 . S
N582 C574 1.356 . S
N582 H588 0.984 . S
N582 H589 0.984 . S
N583 C576 1.356 . S
N583 H586 0.984 . S
N583 H587 0.985 . S
H584 N579 0.984 . S
H585 N579 0.985 . S
H586 N583 0.984 . S
H587 N583 0.985 . S
H588 N582 0.984 . S
H589 N582 0.984 . S
H590 N578 0.984 . S
H591 N578 0.985 . S
C592 C593 1.363 . S
C592 C598 1.379 . S
C592 N600 1.356 . S
C593 C592 1.363 . S
C593 C599 1.363 . S
C594 C595 1.363 . S
C594 C599 1.379 . S
C594 N601 1.356 . S
C595 C594 1.363 . S
C595 C598 1.363 . S
N596 C598 1.356 . S
N596 H608 0.984 . S
N596 H609 0.985 . S
N597 C599 1.356 . S
N597 H602 0.984 . S
N597 H603 0.985 . S
C598 C592 1.379 . S
C598 C595 1.363 . S
C598 N596 1.356 . S
C599 C593 1.363 . S
C599 C594 1.379 . S
C599 N597 1.356 . S
N600 C592 1.356 . S
N600 H606 0.984 . S
N600 H607 0.984 . S
N601 C594 1.356 . S
N601 H604 0.984 . S
N601 H605 0.985 . S
H602 N597 0.984 . S
H603 N597 0.985 . S
H604 N601 0.984 . S
H605 N601 0.985 . S
H606 N600 0.984 . S
H607 N600 0.984 . S
H608 N596 0.984 . S
H609 N596 0.985 . S
C610 C611 1.363 . S
C610 C616 1.379 1_554 S
C610 N618 1.356 . S
C611 C610 1.363 . S
C611 C617 1.363 . S
C612 C613 1.363 . S
C612 C617 1.379 1_556 S
C612 N619 1.356 . S
C613 C612 1.363 . S
C613 C616 1.363 . S
N614 C616 1.356 . S
N614 H626 0.984 . S
N614 H627 0.985 . S
N615 C617 1.356 . S
N615 H620 0.984 . S
N615 H621 0.985 . S
C616 C610 1.379 1_556 S
C616 C613 1.363 . S
C616 N614 1.356 . S
C617 C611 1.363 . S
C617 C612 1.379 1_554 S
C617 N615 1.356 . S
N618 C610 1.356 . S
N618 H624 0.984 . S
N618 H625 0.984 . S
N619 C612 1.356 . S
N619 H622 0.984 . S
N619 H623 0.985 . S
H620 N615 0.984 . S
H621 N615 0.985 . S
H622 N619 0.984 . S
H623 N619 0.985 . S
H624 N618 0.984 . S
H625 N618 0.984 . S
H626 N614 0.984 . S
H627 N614 0.985 . S
C628 C629 1.363 . S
C628 C634 1.379 . S
C628 N636 1.356 . S
C629 C628 1.363 . S
C629 C635 1.363 . S
C630 C631 1.363 . S
C630 C635 1.379 . S
C630 N637 1.356 . S
C631 C630 1.363 . S
C631 C634 1.363 . S
N632 C634 1.356 . S
N632 H644 0.984 . S
N632 H645 0.985 . S
N633 C635 1.356 . S
N633 H638 0.984 . S
N633 H639 0.985 . S
C634 C628 1.379 . S
C634 C631 1.363 . S
C634 N632 1.356 . S
C635 C629 1.363 . S
C635 C630 1.379 . S
C635 N633 1.356 . S
N636 C628 1.356 . S
N636 H642 0.984 . S
N636 H643 0.984 . S
N637 C630 1.356 . S
N637 H640 0.984 . S
N637 H641 0.985 . S
H638 N633 0.984 . S
H639 N633 0.985 . S
H640 N637 0.984 . S
H641 N637 0.985 . S
H642 N636 0.984 . S
H643 N636 0.984 . S
H644 N632 0.984 . S
H645 N632 0.985 . S
C646 C647 1.363 . S
C646 C652 1.379 . S
C646 N654 1.356 . S
C647 C646 1.363 . S
C647 C653 1.363 . S
C648 C649 1.363 . S
C648 C653 1.379 . S
C648 N655 1.356 . S
C649 C648 1.363 . S
C649 C652 1.363 . S
N650 C652 1.356 . S
N650 H662 0.984 . S
N650 H663 0.985 . S
N651 C653 1.356 . S
N651 H656 0.984 . S
N651 H657 0.985 . S
C652 C646 1.379 . S
C652 C649 1.363 . S
C652 N650 1.356 . S
C653 C647 1.363 . S
C653 C648 1.379 . S
C653 N651 1.356 . S
N654 C646 1.356 . S
N654 H660 0.984 . S
N654 H661 0.984 . S
N655 C648 1.356 . S
N655 H658 0.984 . S
N655 H659 0.985 . S
H656 N651 0.984 . S
H657 N651 0.985 . S
H658 N655 0.984 . S
H659 N655 0.985 . S
H660 N654 0.984 . S
H661 N654 0.984 . S
H662 N650 0.984 . S
H663 N650 0.985 . S
C664 C665 1.363 . S
C664 C670 1.379 . S
C664 N672 1.356 . S
C665 C664 1.363 . S
C665 C671 1.363 . S
C666 C667 1.363 . S
C666 C671 1.379 . S
C666 N673 1.356 . S
C667 C666 1.363 . S
C667 C670 1.363 . S
N668 C670 1.356 . S
N668 H680 0.984 . S
N668 H681 0.985 . S
N669 C671 1.356 . S
N669 H674 0.984 . S
N669 H675 0.985 . S
C670 C664 1.379 . S
C670 C667 1.363 . S
C670 N668 1.356 . S
C671 C665 1.363 . S
C671 C666 1.379 . S
C671 N669 1.356 . S
N672 C664 1.356 . S
N672 H678 0.984 . S
N672 H679 0.984 . S
N673 C666 1.356 . S
N673 H676 0.984 . S
N673 H677 0.985 . S
H674 N669 0.984 . S
H675 N669 0.985 . S
H676 N673 0.984 . S
H677 N673 0.985 . S
H678 N672 0.984 . S
H679 N672 0.984 . S
H680 N668 0.984 . S
H681 N668 0.985 . S
C682 C683 1.363 . S
C682 C688 1.379 1_554 S
C682 N690 1.356 . S
C683 C682 1.363 . S
C683 C689 1.363 . S
C684 C685 1.363 . S
C684 C689 1.379 1_556 S
C684 N691 1.356 . S
C685 C684 1.363 . S
C685 C688 1.363 . S
N686 C688 1.356 . S
N686 H698 0.984 . S
N686 H699 0.985 . S
N687 C689 1.356 . S
N687 H692 0.984 . S
N687 H693 0.985 . S
C688 C682 1.379 1_556 S
C688 C685 1.363 . S
C688 N686 1.356 . S
C689 C683 1.363 . S
C689 C684 1.379 1_554 S
C689 N687 1.356 . S
N690 C682 1.356 . S
N690 H696 0.984 . S
N690 H697 0.984 . S
N691 C684 1.356 . S
N691 H694 0.984 . S
N691 H695 0.985 . S
H692 N687 0.984 . S
H693 N687 0.985 . S
H694 N691 0.984 . S
H695 N691 0.985 . S
H696 N690 0.984 . S
H697 N690 0.984 . S
H698 N686 0.984 . S
H699 N686 0.985 . S
C700 C701 1.363 . S
C700 C706 1.379 . S
C700 N708 1.356 . S
C701 C700 1.363 . S
C701 C707 1.363 . S
C702 C703 1.363 . S
C702 C707 1.379 . S
C702 N709 1.356 . S
C703 C702 1.363 . S
C703 C706 1.363 . S
N704 C706 1.356 . S
N704 H716 0.984 . S
N704 H717 0.985 . S
N705 C707 1.356 . S
N705 H710 0.984 . S
N705 H711 0.985 . S
C706 C700 1.379 . S
C706 C703 1.363 . S
C706 N704 1.356 . S
C707 C701 1.363 . S
C707 C702 1.379 . S
C707 N705 1.356 . S
N708 C700 1.356 . S
N708 H714 0.984 . S
N708 H715 0.984 . S
N709 C702 1.356 . S
N709 H712 0.984 . S
N709 H713 0.985 . S
H710 N705 0.984 . S
H711 N705 0.985 . S
H712 N709 0.984 . S
H713 N709 0.985 . S
H714 N708 0.984 . S
H715 N708 0.984 . S
H716 N704 0.984 . S
H717 N704 0.985 . S
C718 C719 1.363 . S
C718 C724 1.379 . S
C718 N726 1.356 . S
C719 C718 1.363 . S
C719 C725 1.363 . S
C720 C721 1.363 . S
C720 C725 1.379 . S
C720 N727 1.356 . S
C721 C720 1.363 . S
C721 C724 1.363 . S
N722 C724 1.356 . S
N722 H734 0.984 . S
N722 H735 0.985 . S
N723 C725 1.356 . S
N723 H728 0.984 . S
N723 H729 0.985 . S
C724 C718 1.379 . S
C724 C721 1.363 . S
C724 N722 1.356 . S
C725 C719 1.363 . S
C725 C720 1.379 . S
C725 N723 1.356 . S
N726 C718 1.356 . S
N726 H732 0.984 . S
N726 H733 0.984 . S
N727 C720 1.356 . S
N727 H730 0.984 . S
N727 H731 0.985 . S
H728 N723 0.984 . S
H729 N723 0.985 . S
H730 N727 0.984 . S
H731 N727 0.985 . S
H732 N726 0.984 . S
H733 N726 0.984 . S
H734 N722 0.984 . S
H735 N722 0.985 . S
C736 C737 1.363 . S
C736 C742 1.379 . S
C736 N744 1.356 . S
C737 C736 1.363 . S
C737 C743 1.363 . S
C738 C739 1.363 . S
C738 C743 1.379 . S
C738 N745 1.356 . S
C739 C738 1.363 . S
C739 C742 1.363 . S
N740 C742 1.356 . S
N740 H752 0.984 . S
N740 H753 0.985 . S
N741 C743 1.356 . S
N741 H746 0.984 . S
N741 H747 0.985 . S
C742 C736 1.379 . S
C742 C739 1.363 . S
C742 N740 1.356 . S
C743 C737 1.363 . S
C743 C738 1.379 . S
C743 N741 1.356 . S
N744 C736 1.356 . S
N744 H750 0.984 1_565 S
N744 H751 0.984 1_565 S
N745 C738 1.356 . S
N745 H748 0.984 . S
N745 H749 0.985 . S
H746 N741 0.984 . S
H747 N741 0.985 . S
H748 N745 0.984 . S
H749 N745 0.985 . S
H750 N744 0.984 1_545 S
H751 N744 0.984 1_545 S
H752 N740 0.984 . S
H753 N740 0.985 . S
C754 C755 1.363 . S
C754 C760 1.379 . S
C754 N762 1.356 . S
C755 C754 1.363 . S
C755 C761 1.363 . S
C756 C757 1.363 . S
C756 C761 1.379 . S
C756 N763 1.356 . S
C757 C756 1.363 . S
C757 C760 1.363 . S
N758 C760 1.356 . S
N758 H770 0.984 . S
N758 H771 0.985 . S
N759 C761 1.356 . S
N759 H764 0.984 . S
N759 H765 0.985 . S
C760 C754 1.379 . S
C760 C757 1.363 . S
C760 N758 1.356 . S
C761 C755 1.363 . S
C761 C756 1.379 . S
C761 N759 1.356 . S
N762 C754 1.356 . S
N762 H768 0.984 . S
N762 H769 0.984 . S
N763 C756 1.356 . S
N763 H766 0.984 . S
N763 H767 0.985 . S
H764 N759 0.984 . S
H765 N759 0.985 . S
H766 N763 0.984 . S
H767 N763 0.985 . S
H768 N762 0.984 . S
H769 N762 0.984 . S
H770 N758 0.984 . S
H771 N758 0.985 . S
C772 C773 1.363 . S
C772 C778 1.379 . S
C772 N780 1.356 . S
C773 C772 1.363 . S
C773 C779 1.363 . S
C774 C775 1.363 . S
C774 C779 1.379 . S
C774 N781 1.356 . S
C775 C774 1.363 . S
C775 C778 1.363 . S
N776 C778 1.356 . S
N776 H788 0.984 . S
N776 H789 0.985 . S
N777 C779 1.356 . S
N777 H782 0.984 1_545 S
N777 H783 0.985 1_545 S
C778 C772 1.379 . S
C778 C775 1.363 . S
C778 N776 1.356 . S
C779 C773 1.363 . S
C779 C774 1.379 . S
C779 N777 1.356 . S
N780 C772 1.356 . S
N780 H786 0.984 . S
N780 H787 0.984 . S
N781 C774 1.356 . S
N781 H784 0.984 . S
N781 H785 0.985 . S
H782 N777 0.984 1_565 S
H783 N777 0.985 1_565 S
H784 N781 0.984 . S
H785 N781 0.985 . S
H786 N780 0.984 . S
H787 N780 0.984 . S
H788 N776 0.984 . S
H789 N776 0.985 . S
C790 C791 1.363 . S
C790 C796 1.379 . S
C790 N798 1.356 . S
C791 C790 1.363 . S
C791 C797 1.363 . S
C792 C793 1.363 . S
C792 C797 1.379 . S
C792 N799 1.356 . S
C793 C792 1.363 . S
C793 C796 1.363 . S
N794 C796 1.356 . S
N794 H806 0.984 . S
N794 H807 0.985 . S
N795 C797 1.356 . S
N795 H800 0.984 . S
N795 H801 0.985 . S
C796 C790 1.379 . S
C796 C793 1.363 . S
C796 N794 1.356 . S
C797 C791 1.363 . S
C797 C792 1.379 . S
C797 N795 1.356 . S
N798 C790 1.356 . S
N798 H804 0.984 1_565 S
N798 H805 0.984 1_565 S
N799 C792 1.356 . S
N799 H802 0.984 . S
N799 H803 0.985 . S
H800 N795 0.984 . S
H801 N795 0.985 . S
H802 N799 0.984 . S
H803 N799 0.985 . S
H804 N798 0.984 1_545 S
H805 N798 0.984 1_545 S
H806 N794 0.984 . S
H807 N794 0.985 . S
C808 C809 1.363 . S
C808 C814 1.379 . S
C808 N816 1.356 . S
C809 C808 1.363 . S
C809 C815 1.363 . S
C810 C811 1.363 . S
C810 C815 1.379 . S
C810 N817 1.356 . S
C811 C810 1.363 . S
C811 C814 1.363 . S
N812 C814 1.356 . S
N812 H824 0.984 1_545 S
N812 H825 0.985 1_545 S
N813 C815 1.356 . S
N813 H818 0.984 . S
N813 H819 0.985 . S
C814 C808 1.379 . S
C814 C811 1.363 . S
C814 N812 1.356 . S
C815 C809 1.363 . S
C815 C810 1.379 . S
C815 N813 1.356 . S
N816 C808 1.356 . S
N816 H822 0.984 . S
N816 H823 0.984 . S
N817 C810 1.356 . S
N817 H820 0.984 . S
N817 H821 0.985 . S
H818 N813 0.984 . S
H819 N813 0.985 . S
H820 N817 0.984 . S
H821 N817 0.985 . S
H822 N816 0.984 . S
H823 N816 0.984 . S
H824 N812 0.984 1_565 S
H825 N812 0.985 1_565 S
C826 C827 1.363 . S
C826 C832 1.379 . S
C826 N834 1.356 . S
C827 C826 1.363 . S
C827 C833 1.363 . S
C828 C829 1.363 . S
C828 C833 1.379 . S
C828 N835 1.356 . S
C829 C828 1.363 . S
C829 C832 1.363 . S
N830 C832 1.356 . S
N830 H842 0.984 . S
N830 H843 0.985 . S
N831 C833 1.356 . S
N831 H836 0.984 . S
N831 H837 0.985 . S
C832 C826 1.379 . S
C832 C829 1.363 . S
C832 N830 1.356 . S
C833 C827 1.363 . S
C833 C828 1.379 . S
C833 N831 1.356 . S
N834 C826 1.356 . S
N834 H840 0.984 1_565 S
N834 H841 0.984 1_565 S
N835 C828 1.356 . S
N835 H838 0.984 . S
N835 H839 0.985 . S
H836 N831 0.984 . S
H837 N831 0.985 . S
H838 N835 0.984 . S
H839 N835 0.985 . S
H840 N834 0.984 1_545 S
H841 N834 0.984 1_545 S
H842 N830 0.984 . S
H843 N830 0.985 . S
C844 C845 1.363 . S
C844 C850 1.379 . S
C844 N852 1.356 . S
C845 C844 1.363 . S
C845 C851 1.363 . S
C846 C847 1.363 . S
C846 C851 1.379 . S
C846 N853 1.356 . S
C847 C846 1.363 . S
C847 C850 1.363 . S
N848 C850 1.356 . S
N848 H860 0.984 1_565 S
N848 H861 0.985 1_565 S
N849 C851 1.356 . S
N849 H854 0.984 . S
N849 H855 0.985 . S
C850 C844 1.379 . S
C850 C847 1.363 . S
C850 N848 1.356 . S
C851 C845 1.363 . S
C851 C846 1.379 . S
C851 N849 1.356 . S
N852 C844 1.356 . S
N852 H858 0.984 . S
N852 H859 0.984 . S
N853 C846 1.356 . S
N853 H856 0.984 . S
N853 H857 0.985 . S
H854 N849 0.984 . S
H855 N849 0.985 . S
H856 N853 0.984 . S
H857 N853 0.985 . S
H858 N852 0.984 . S
H859 N852 0.984 . S
H860 N848 0.984 1_545 S
H861 N848 0.985 1_545 S
C862 C863 1.363 . S
C862 C868 1.379 . S
C862 N870 1.356 . S
C863 C862 1.363 . S
C863 C869 1.363 . S
C864 C865 1.363 . S
C864 C869 1.379 . S
C864 N871 1.356 . S
C865 C864 1.363 . S
C865 C868 1.363 . S
N866 C868 1.356 . S
N866 H878 0.984 . S
N866 H879 0.985 . S
N867 C869 1.356 . S
N867 H872 0.984 . S
N867 H873 0.985 . S
C868 C862 1.379 . S
C868 C865 1.363 . S
C868 N866 1.356 . S
C869 C863 1.363 . S
C869 C864 1.379 . S
C869 N867 1.356 . S
N870 C862 1.356 . S
N870 H876 0.984 . S
N870 H877 0.984 . S
N871 C864 1.356 . S
N871 H874 0.984 1_545 S
N871 H875 0.985 1_545 S
H872 N867 0.984 . S
H873 N867 0.985 . S
H874 N871 0.984 1_565 S
H875 N871 0.985 1_565 S
H876 N870 0.984 . S
H877 N870 0.984 . S
H878 N866 0.984 . S
H879 N866 0.985 . S
C880 C881 1.363 . S
C880 C886 1.379 . S
C880 N888 1.356 . S
C881 C880 1.363 . S
C881 C887 1.363 . S
C882 C883 1.363 . S
C882 C887 1.379 . S
C882 N889 1.356 . S
C883 C882 1.363 . S
C883 C886 1.363 . S
N884 C886 1.356 . S
N884 H896 0.984 . S
N884 H897 0.985 . S
N885 C887 1.356 . S
N885 H890 0.984 . S
N885 H891 0.985 . S
C886 C880 1.379 . S
C886 C883 1.363 . S
C886 N884 1.356 . S
C887 C881 1.363 . S
C887 C882 1.379 . S
C887 N885 1.356 . S
N888 C880 1.356 . S
N888 H894 0.984 . S
N888 H895 0.984 . S
N889 C882 1.356 . S
N889 H892 0.984 . S
N889 H893 0.985 . S
H890 N885 0.984 . S
H891 N885 0.985 . S
H892 N889 0.984 . S
H893 N889 0.985 . S
H894 N888 0.984 . S
H895 N888 0.984 . S
H896 N884 0.984 . S
H897 N884 0.985 . S
C898 C899 1.363 . S
C898 C904 1.379 . S
C898 N906 1.356 . S
C899 C898 1.363 . S
C899 C905 1.363 . S
C900 C901 1.363 . S
C900 C905 1.379 . S
C900 N907 1.356 . S
C901 C900 1.363 . S
C901 C904 1.363 . S
N902 C904 1.356 . S
N902 H914 0.984 . S
N902 H915 0.985 . S
N903 C905 1.356 . S
N903 H908 0.984 . S
N903 H909 0.985 . S
C904 C898 1.379 . S
C904 C901 1.363 . S
C904 N902 1.356 . S
C905 C899 1.363 . S
C905 C900 1.379 . S
C905 N903 1.356 . S
N906 C898 1.356 . S
N906 H912 0.984 . S
N906 H913 0.984 . S
N907 C900 1.356 . S
N907 H910 0.984 . S
N907 H911 0.985 . S
H908 N903 0.984 . S
H909 N903 0.985 . S
H910 N907 0.984 . S
H911 N907 0.985 . S
H912 N906 0.984 . S
H913 N906 0.984 . S
H914 N902 0.984 . S
H915 N902 0.985 . S
C916 C917 1.363 . S
C916 C922 1.379 . S
C916 N924 1.356 . S
C917 C916 1.363 . S
C917 C923 1.363 . S
C918 C919 1.363 . S
C918 C923 1.379 . S
C918 N925 1.356 . S
C919 C918 1.363 . S
C919 C922 1.363 . S
N920 C922 1.356 . S
N920 H932 0.984 . S
N920 H933 0.985 . S
N921 C923 1.356 . S
N921 H926 0.984 . S
N921 H927 0.985 . S
C922 C916 1.379 . S
C922 C919 1.363 . S
C922 N920 1.356 . S
C923 C917 1.363 . S
C923 C918 1.379 . S
C923 N921 1.356 . S
N924 C916 1.356 . S
N924 H930 0.984 . S
N924 H931 0.984 . S
N925 C918 1.356 . S
N925 H928 0.984 . S
N925 H929 0.985 . S
H926 N921 0.984 . S
H927 N921 0.985 . S
H928 N925 0.984 . S
H929 N925 0.985 . S
H930 N924 0.984 . S
H931 N924 0.984 . S
H932 N920 0.984 . S
H933 N920 0.985 . S
C934 C935 1.363 . S
C934 C940 1.379 . S
C934 N942 1.356 . S
C935 C934 1.363 . S
C935 C941 1.363 . S
C936 C937 1.363 . S
C936 C941 1.379 . S
C936 N943 1.356 . S
C937 C936 1.363 . S
C937 C940 1.363 . S
N938 C940 1.356 . S
N938 H950 0.984 . S
N938 H951 0.985 . S
N939 C941 1.356 . S
N939 H944 0.984 . S
N939 H945 0.985 . S
C940 C934 1.379 . S
C940 C937 1.363 . S
C940 N938 1.356 . S
C941 C935 1.363 . S
C941 C936 1.379 . S
C941 N939 1.356 . S
N942 C934 1.356 . S
N942 H948 0.984 . S
N942 H949 0.984 . S
N943 C936 1.356 . S
N943 H946 0.984 . S
N943 H947 0.985 . S
H944 N939 0.984 . S
H945 N939 0.985 . S
H946 N943 0.984 . S
H947 N943 0.985 . S
H948 N942 0.984 . S
H949 N942 0.984 . S
H950 N938 0.984 . S
H951 N938 0.985 . S
C952 C953 1.363 . S
C952 C958 1.379 . S
C952 N960 1.356 . S
C953 C952 1.363 . S
C953 C959 1.363 . S
C954 C955 1.363 . S
C954 C959 1.379 . S
C954 N961 1.356 . S
C955 C954 1.363 . S
C955 C958 1.363 . S
N956 C958 1.356 . S
N956 H968 0.984 . S
N956 H969 0.985 . S
N957 C959 1.356 . S
N957 H962 0.984 . S
N957 H963 0.985 . S
C958 C952 1.379 . S
C958 C955 1.363 . S
C958 N956 1.356 . S
C959 C953 1.363 . S
C959 C954 1.379 . S
C959 N957 1.356 . S
N960 C952 1.356 . S
N960 H966 0.984 . S
N960 H967 0.984 . S
N961 C954 1.356 . S
N961 H964 0.984 . S
N961 H965 0.985 . S
H962 N957 0.984 . S
H963 N957 0.985 . S
H964 N961 0.984 . S
H965 N961 0.985 . S
H966 N960 0.984 . S
H967 N960 0.984 . S
H968 N956 0.984 . S
H969 N956 0.985 . S
C970 C971 1.363 . S
C970 C976 1.379 . S
C970 N978 1.356 . S
C971 C970 1.363 . S
C971 C977 1.363 . S
C972 C973 1.363 . S
C972 C977 1.379 . S
C972 N979 1.356 . S
C973 C972 1.363 . S
C973 C976 1.363 . S
N974 C976 1.356 . S
N974 H986 0.984 . S
N974 H987 0.985 . S
N975 C977 1.356 . S
N975 H980 0.984 . S
N975 H981 0.985 . S
C976 C970 1.379 . S
C976 C973 1.363 . S
C976 N974 1.356 . S
C977 C971 1.363 . S
C977 C972 1.379 . S
C977 N975 1.356 . S
N978 C970 1.356 . S
N978 H984 0.984 . S
N978 H985 0.984 . S
N979 C972 1.356 . S
N979 H982 0.984 . S
N979 H983 0.985 . S
H980 N975 0.984 . S
H981 N975 0.985 . S
H982 N979 0.984 . S
H983 N979 0.985 . S
H984 N978 0.984 . S
H985 N978 0.984 . S
H986 N974 0.984 . S
H987 N974 0.985 . S
C988 C989 1.363 . S
C988 C994 1.379 . S
C988 N996 1.356 . S
C989 C988 1.363 . S
C989 C995 1.363 . S
C990 C991 1.363 . S
C990 C995 1.379 . S
C990 N997 1.356 . S
C991 C990 1.363 . S
C991 C994 1.363 . S
N992 C994 1.356 . S
N992 H1004 0.984 . S
N992 H1005 0.985 . S
N993 C995 1.356 . S
N993 H998 0.984 . S
N993 H999 0.985 . S
C994 C988 1.379 . S
C994 C991 1.363 . S
C994 N992 1.356 . S
C995 C989 1.363 . S
C995 C990 1.379 . S
C995 N993 1.356 . S
N996 C988 1.356 . S
N996 H1002 0.984 . S
N996 H1003 0.984 . S
N997 C990 1.356 . S
N997 H1000 0.984 . S
N997 H1001 0.985 . S
H998 N993 0.984 . S
H999 N993 0.985 . S
H1000 N997 0.984 . S
H1001 N997 0.985 . S
H1002 N996 0.984 . S
H1003 N996 0.984 . S
H1004 N992 0.984 . S
H1005 N992 0.985 . S
C1006 C1007 1.363 . S
C1006 C1012 1.379 . S
C1006 N1014 1.356 . S
C1007 C1006 1.363 . S
C1007 C1013 1.363 . S
C1008 C1009 1.363 . S
C1008 C1013 1.379 . S
C1008 N1015 1.356 . S
C1009 C1008 1.363 . S
C1009 C1012 1.363 . S
N1010 C1012 1.356 . S
N1010 H1022 0.984 . S
N1010 H1023 0.985 . S
N1011 C1013 1.356 . S
N1011 H1016 0.984 . S
N1011 H1017 0.985 . S
C1012 C1006 1.379 . S
C1012 C1009 1.363 . S
C1012 N1010 1.356 . S
C1013 C1007 1.363 . S
C1013 C1008 1.379 . S
C1013 N1011 1.356 . S
N1014 C1006 1.356 . S
N1014 H1020 0.984 . S
N1014 H1021 0.984 . S
N1015 C1008 1.356 . S
N1015 H1018 0.984 . S
N1015 H1019 0.985 . S
H1016 N1011 0.984 . S
H1017 N1011 0.985 . S
H1018 N1015 0.984 . S
H1019 N1015 0.985 . S
H1020 N1014 0.984 . S
H1021 N1014 0.984 . S
H1022 N1010 0.984 . S
H1023 N1010 0.985 . S
C1024 C1025 1.363 . S
C1024 C1030 1.379 . S
C1024 N1032 1.356 . S
C1025 C1024 1.363 . S
C1025 C1031 1.363 . S
C1026 C1027 1.363 . S
C1026 C1031 1.379 . S
C1026 N1033 1.356 . S
C1027 C1026 1.363 . S
C1027 C1030 1.363 . S
N1028 C1030 1.356 . S
N1028 H1040 0.984 . S
N1028 H1041 0.985 . S
N1029 C1031 1.356 . S
N1029 H1034 0.984 . S
N1029 H1035 0.985 . S
C1030 C1024 1.379 . S
C1030 C1027 1.363 . S
C1030 N1028 1.356 . S
C1031 C1025 1.363 . S
C1031 C1026 1.379 . S
C1031 N1029 1.356 . S
N1032 C1024 1.356 . S
N1032 H1038 0.984 . S
N1032 H1039 0.984 . S
N1033 C1026 1.356 . S
N1033 H1036 0.984 . S
N1033 H1037 0.985 . S
H1034 N1029 0.984 . S
H1035 N1029 0.985 . S
H1036 N1033 0.984 . S
H1037 N1033 0.985 . S
H1038 N1032 0.984 . S
H1039 N1032 0.984 . S
H1040 N1028 0.984 . S
H1041 N1028 0.985 . S
C1042 C1043 1.363 . S
C1042 C1048 1.379 . S
C1042 N1050 1.356 . S
C1043 C1042 1.363 . S
C1043 C1049 1.363 . S
C1044 C1045 1.363 . S
C1044 C1049 1.379 . S
C1044 N1051 1.356 . S
C1045 C1044 1.363 . S
C1045 C1048 1.363 . S
N1046 C1048 1.358 1_655 S
N1046 H1058 0.984 . S
N1046 H1059 0.983 . S
N1047 C1049 1.356 . S
N1047 H1052 0.984 . S
N1047 H1053 0.985 . S
C1048 C1042 1.379 . S
C1048 C1045 1.363 . S
C1048 N1046 1.358 1_455 S
C1049 C1043 1.363 . S
C1049 C1044 1.379 . S
C1049 N1047 1.356 . S
N1050 C1042 1.356 . S
N1050 H1056 0.984 . S
N1050 H1057 0.984 . S
N1051 C1044 1.356 . S
N1051 H1054 0.984 . S
N1051 H1055 0.985 . S
H1052 N1047 0.984 . S
H1053 N1047 0.985 . S
H1054 N1051 0.984 . S
H1055 N1051 0.985 . S
H1056 N1050 0.984 . S
H1057 N1050 0.984 . S
H1058 N1046 0.984 . S
H1059 N1046 0.983 . S
C1060 C1061 1.363 . S
C1060 C1066 1.379 . S
C1060 N1068 1.356 . S
C1061 C1060 1.363 . S
C1061 C1067 1.363 . S
C1062 C1063 1.363 . S
C1062 C1067 1.379 . S
C1062 N1069 1.356 . S
C1063 C1062 1.363 . S
C1063 C1066 1.363 . S
N1064 C1066 1.356 . S
N1064 H1076 0.984 . S
N1064 H1077 0.985 . S
N1065 C1067 1.356 . S
N1065 H1070 0.984 . S
N1065 H1071 0.985 . S
C1066 C1060 1.379 . S
C1066 C1063 1.363 . S
C1066 N1064 1.356 . S
C1067 C1061 1.363 . S
C1067 C1062 1.379 . S
C1067 N1065 1.356 . S
N1068 C1060 1.356 . S
N1068 H1074 0.984 . S
N1068 H1075 0.984 . S
N1069 C1062 1.356 . S
N1069 H1072 0.984 . S
N1069 H1073 0.985 . S
H1070 N1065 0.984 . S
H1071 N1065 0.985 . S
H1072 N1069 0.984 . S
H1073 N1069 0.985 . S
H1074 N1068 0.984 . S
H1075 N1068 0.984 . S
H1076 N1064 0.984 . S
H1077 N1064 0.985 . S
C1078 C1079 1.363 . S
C1078 C1084 1.379 . S
C1078 N1086 1.356 . S
C1079 C1078 1.363 . S
C1079 C1085 1.363 . S
C1080 C1081 1.363 . S
C1080 C1085 1.379 . S
C1080 N1087 1.356 . S
C1081 C1080 1.363 . S
C1081 C1084 1.363 . S
N1082 C1084 1.356 . S
N1082 H1094 0.984 . S
N1082 H1095 0.985 . S
N1083 C1085 1.356 . S
N1083 H1088 0.984 . S
N1083 H1089 0.985 . S
C1084 C1078 1.379 . S
C1084 C1081 1.363 . S
C1084 N1082 1.356 . S
C1085 C1079 1.363 . S
C1085 C1080 1.379 . S
C1085 N1083 1.356 . S
N1086 C1078 1.356 . S
N1086 H1092 0.984 . S
N1086 H1093 0.984 . S
N1087 C1080 1.356 . S
N1087 H1090 0.984 . S
N1087 H1091 0.985 . S
H1088 N1083 0.984 . S
H1089 N1083 0.985 . S
H1090 N1087 0.984 . S
H1091 N1087 0.985 . S
H1092 N1086 0.984 . S
H1093 N1086 0.984 . S
H1094 N1082 0.984 . S
H1095 N1082 0.985 . S
C1096 C1097 1.363 . S
C1096 C1102 1.379 . S
C1096 N1104 1.356 . S
C1097 C1096 1.363 . S
C1097 C1103 1.363 . S
C1098 C1099 1.363 . S
C1098 C1103 1.379 . S
C1098 N1105 1.356 . S
C1099 C1098 1.363 . S
C1099 C1102 1.363 . S
N1100 C1102 1.356 . S
N1100 H1112 0.984 . S
N1100 H1113 0.985 . S
N1101 C1103 1.356 . S
N1101 H1106 0.984 . S
N1101 H1107 0.985 . S
C1102 C1096 1.379 . S
C1102 C1099 1.363 . S
C1102 N1100 1.356 . S
C1103 C1097 1.363 . S
C1103 C1098 1.379 . S
C1103 N1101 1.356 . S
N1104 C1096 1.356 . S
N1104 H1110 0.984 . S
N1104 H1111 0.984 . S
N1105 C1098 1.356 . S
N1105 H1108 0.984 . S
N1105 H1109 0.985 . S
H1106 N1101 0.984 . S
H1107 N1101 0.985 . S
H1108 N1105 0.984 . S
H1109 N1105 0.985 . S
H1110 N1104 0.984 . S
H1111 N1104 0.984 . S
H1112 N1100 0.984 . S
H1113 N1100 0.985 . S
C1114 C1115 1.363 . S
C1114 C1120 1.379 . S
C1114 N1122 1.356 . S
C1115 C1114 1.363 . S
C1115 C1121 1.363 . S
C1116 C1117 1.363 . S
C1116 C1121 1.379 . S
C1116 N1123 1.356 . S
C1117 C1116 1.363 . S
C1117 C1120 1.363 . S
N1118 C1120 1.356 . S
N1118 H1130 0.984 1_545 S
N1118 H1131 0.985 . S
N1119 C1121 1.356 . S
N1119 H1124 0.984 . S
N1119 H1125 0.985 . S
C1120 C1114 1.379 . S
C1120 C1117 1.363 . S
C1120 N1118 1.356 . S
C1121 C1115 1.363 . S
C1121 C1116 1.379 . S
C1121 N1119 1.356 . S
N1122 C1114 1.356 . S
N1122 H1128 0.984 . S
N1122 H1129 0.984 . S
N1123 C1116 1.356 . S
N1123 H1126 0.984 . S
N1123 H1127 0.985 . S
H1124 N1119 0.984 . S
H1125 N1119 0.985 . S
H1126 N1123 0.984 . S
H1127 N1123 0.985 . S
H1128 N1122 0.984 . S
H1129 N1122 0.984 . S
H1130 N1118 0.984 1_565 S
H1131 N1118 0.985 . S
C1132 C1133 1.363 . S
C1132 C1138 1.379 . S
C1132 N1140 1.356 . S
C1133 C1132 1.363 . S
C1133 C1139 1.363 . S
C1134 C1135 1.363 . S
C1134 C1139 1.379 . S
C1134 N1141 1.356 . S
C1135 C1134 1.363 . S
C1135 C1138 1.363 . S
N1136 C1138 1.356 . S
N1136 H1148 0.984 . S
N1136 H1149 0.985 . S
N1137 C1139 1.356 . S
N1137 H1142 0.984 . S
N1137 H1143 0.985 . S
C1138 C1132 1.379 . S
C1138 C1135 1.363 . S
C1138 N1136 1.356 . S
C1139 C1133 1.363 . S
C1139 C1134 1.379 . S
C1139 N1137 1.356 . S
N1140 C1132 1.356 . S
N1140 H1146 0.984 . S
N1140 H1147 0.984 . S
N1141 C1134 1.356 . S
N1141 H1144 0.984 . S
N1141 H1145 0.985 . S
H1142 N1137 0.984 . S
H1143 N1137 0.985 . S
H1144 N1141 0.984 . S
H1145 N1141 0.985 . S
H1146 N1140 0.984 . S
H1147 N1140 0.984 . S
H1148 N1136 0.984 . S
H1149 N1136 0.985 . S
C1150 C1151 1.363 . S
C1150 C1156 1.379 . S
C1150 N1158 1.356 . S
C1151 C1150 1.363 . S
C1151 C1157 1.363 . S
C1152 C1153 1.363 . S
C1152 C1157 1.379 . S
C1152 N1159 1.356 . S
C1153 C1152 1.363 . S
C1153 C1156 1.363 . S
N1154 C1156 1.336 1_655 S
N1154 H1166 0.992 . S
N1154 H1167 0.997 . S
N1155 C1157 1.356 . S
N1155 H1160 0.984 . S
N1155 H1161 0.985 . S
C1156 C1150 1.379 . S
C1156 C1153 1.363 . S
C1156 N1154 1.336 1_455 S
C1157 C1151 1.363 . S
C1157 C1152 1.379 . S
C1157 N1155 1.356 . S
N1158 C1150 1.356 . S
N1158 H1164 0.984 . S
N1158 H1165 0.984 . S
N1159 C1152 1.356 . S
N1159 H1162 0.984 . S
N1159 H1163 0.985 . S
H1160 N1155 0.984 . S
H1161 N1155 0.985 . S
H1162 N1159 0.984 . S
H1163 N1159 0.985 . S
H1164 N1158 0.984 . S
H1165 N1158 0.984 . S
H1166 N1154 0.992 . S
H1167 N1154 0.997 . S
C1168 C1169 1.363 . S
C1168 C1174 1.379 . S
C1168 N1176 1.356 . S
C1169 C1168 1.363 . S
C1169 C1175 1.363 . S
C1170 C1171 1.363 . S
C1170 C1175 1.379 . S
C1170 N1177 1.356 . S
C1171 C1170 1.363 . S
C1171 C1174 1.363 . S
N1172 C1174 1.356 . S
N1172 H1184 0.984 . S
N1172 H1185 0.985 . S
N1173 C1175 1.356 . S
N1173 H1178 0.984 . S
N1173 H1179 0.985 . S
C1174 C1168 1.379 . S
C1174 C1171 1.363 . S
C1174 N1172 1.356 . S
C1175 C1169 1.363 . S
C1175 C1170 1.379 . S
C1175 N1173 1.356 . S
N1176 C1168 1.356 . S
N1176 H1182 0.984 . S
N1176 H1183 0.984 . S
N1177 C1170 1.356 . S
N1177 H1180 0.984 . S
N1177 H1181 0.985 . S
H1178 N1173 0.984 . S
H1179 N1173 0.985 . S
H1180 N1177 0.984 . S
H1181 N1177 0.985 . S
H1182 N1176 0.984 . S
H1183 N1176 0.984 . S
H1184 N1172 0.984 . S
H1185 N1172 0.985 . S
C1186 C1187 1.363 . S
C1186 C1192 1.379 . S
C1186 N1194 1.356 . S
C1187 C1186 1.363 . S
C1187 C1193 1.363 . S
C1188 C1189 1.363 . S
C1188 C1193 1.379 . S
C1188 N1195 1.356 . S
C1189 C1188 1.363 . S
C1189 C1192 1.363 . S
N1190 C1192 1.356 . S
N1190 H1202 0.984 . S
N1190 H1203 0.985 . S
N1191 C1193 1.340 1_455 S
N1191 H1196 0.995 . S
N1191 H1197 0.991 . S
C1192 C1186 1.379 . S
C1192 C1189 1.363 . S
C1192 N1190 1.356 . S
C1193 C1187 1.363 . S
C1193 C1188 1.379 . S
C1193 N1191 1.340 1_655 S
N1194 C1186 1.356 . S
N1194 H1200 0.984 . S
N1194 H1201 0.984 . S
N1195 C1188 1.356 . S
N1195 H1198 0.984 . S
N1195 H1199 0.985 . S
H1196 N1191 0.995 . S
H1197 N1191 0.991 . S
H1198 N1195 0.984 . S
H1199 N1195 0.985 . S
H1200 N1194 0.984 . S
H1201 N1194 0.984 . S
H1202 N1190 0.984 . S
H1203 N1190 0.985 . S
C1204 C1205 1.363 . S
C1204 C1210 1.379 . S
C1204 N1212 1.356 . S
C1205 C1204 1.363 . S
C1205 C1211 1.363 . S
C1206 C1207 1.363 . S
C1206 C1211 1.379 . S
C1206 N1213 1.356 . S
C1207 C1206 1.363 . S
C1207 C1210 1.363 . S
N1208 C1210 1.356 . S
N1208 H1220 0.984 . S
N1208 H1221 0.985 . S
N1209 C1211 1.356 . S
N1209 H1214 0.984 . S
N1209 H1215 0.985 . S
C1210 C1204 1.379 . S
C1210 C1207 1.363 . S
C1210 N1208 1.356 . S
C1211 C1205 1.363 . S
C1211 C1206 1.379 . S
C1211 N1209 1.356 . S
N1212 C1204 1.356 . S
N1212 H1218 0.984 . S
N1212 H1219 0.984 . S
N1213 C1206 1.356 . S
N1213 H1216 0.984 . S
N1213 H1217 0.985 . S
H1214 N1209 0.984 . S
H1215 N1209 0.985 . S
H1216 N1213 0.984 . S
H1217 N1213 0.985 . S
H1218 N1212 0.984 . S
H1219 N1212 0.984 . S
H1220 N1208 0.984 . S
H1221 N1208 0.985 . S
C1222 C1223 1.363 . S
C1222 C1228 1.379 . S
C1222 N1230 1.356 . S
C1223 C1222 1.363 . S
C1223 C1229 1.363 . S
C1224 C1225 1.363 . S
C1224 C1229 1.379 . S
C1224 N1231 1.356 . S
C1225 C1224 1.363 . S
C1225 C1228 1.363 . S
N1226 C1228 1.356 . S
N1226 H1238 0.984 . S
N1226 H1239 0.985 . S
N1227 C1229 1.356 . S
N1227 H1232 0.984 . S
N1227 H1233 0.985 . S
C1228 C1222 1.379 . S
C1228 C1225 1.363 . S
C1228 N1226 1.356 . S
C1229 C1223 1.363 . S
C1229 C1224 1.379 . S
C1229 N1227 1.356 . S
N1230 C1222 1.356 . S
N1230 H1236 0.984 . S
N1230 H1237 0.984 . S
N1231 C1224 1.356 . S
N1231 H1234 0.984 . S
N1231 H1235 0.985 . S
H1232 N1227 0.984 . S
H1233 N1227 0.985 . S
H1234 N1231 0.984 . S
H1235 N1231 0.985 . S
H1236 N1230 0.984 . S
H1237 N1230 0.984 . S
H1238 N1226 0.984 . S
H1239 N1226 0.985 . S
C1240 C1241 1.363 . S
C1240 C1246 1.379 . S
C1240 N1248 1.356 . S
C1241 C1240 1.363 . S
C1241 C1247 1.363 . S
C1242 C1243 1.363 . S
C1242 C1247 1.379 . S
C1242 N1249 1.356 . S
C1243 C1242 1.363 . S
C1243 C1246 1.363 . S
N1244 C1246 1.356 . S
N1244 H1256 0.984 . S
N1244 H1257 0.985 . S
N1245 C1247 1.356 . S
N1245 H1250 0.984 . S
N1245 H1251 0.985 . S
C1246 C1240 1.379 . S
C1246 C1243 1.363 . S
C1246 N1244 1.356 . S
C1247 C1241 1.363 . S
C1247 C1242 1.379 . S
C1247 N1245 1.356 . S
N1248 C1240 1.356 . S
N1248 H1254 0.984 . S
N1248 H1255 0.984 . S
N1249 C1242 1.356 . S
N1249 H1252 0.984 . S
N1249 H1253 0.985 . S
H1250 N1245 0.984 . S
H1251 N1245 0.985 . S
H1252 N1249 0.984 . S
H1253 N1249 0.985 . S
H1254 N1248 0.984 . S
H1255 N1248 0.984 . S
H1256 N1244 0.984 . S
H1257 N1244 0.985 . S
C1258 C1259 1.363 . S
C1258 C1264 1.379 . S
C1258 N1266 1.356 . S
C1259 C1258 1.363 . S
C1259 C1265 1.363 . S
C1260 C1261 1.363 . S
C1260 C1265 1.379 . S
C1260 N1267 1.356 . S
C1261 C1260 1.363 . S
C1261 C1264 1.363 . S
N1262 C1264 1.356 . S
N1262 H1274 0.984 . S
N1262 H1275 0.985 . S
N1263 C1265 1.356 . S
N1263 H1268 0.984 . S
N1263 H1269 0.985 1_565 S
C1264 C1258 1.379 . S
C1264 C1261 1.363 . S
C1264 N1262 1.356 . S
C1265 C1259 1.363 . S
C1265 C1260 1.379 . S
C1265 N1263 1.356 . S
N1266 C1258 1.356 . S
N1266 H1272 0.984 . S
N1266 H1273 0.984 . S
N1267 C1260 1.356 . S
N1267 H1270 0.984 . S
N1267 H1271 0.985 . S
H1268 N1263 0.984 . S
H1269 N1263 0.985 1_545 S
H1270 N1267 0.984 . S
H1271 N1267 0.985 . S
H1272 N1266 0.984 . S
H1273 N1266 0.984 . S
H1274 N1262 0.984 . S
H1275 N1262 0.985 . S
C1276 C1277 1.363 . S
C1276 C1282 1.379 . S
C1276 N1284 1.356 . S
C1277 C1276 1.363 . S
C1277 C1283 1.363 . S
C1278 C1279 1.363 . S
C1278 C1283 1.379 . S
C1278 N1285 1.356 . S
C1279 C1278 1.363 . S
C1279 C1282 1.363 . S
N1280 C1282 1.356 . S
N1280 H1292 0.984 . S
N1280 H1293 0.985 . S
N1281 C1283 1.356 . S
N1281 H1286 0.984 . S
N1281 H1287 0.985 . S
C1282 C1276 1.379 . S
C1282 C1279 1.363 . S
C1282 N1280 1.356 . S
C1283 C1277 1.363 . S
C1283 C1278 1.379 . S
C1283 N1281 1.356 . S
N1284 C1276 1.356 . S
N1284 H1290 0.984 . S
N1284 H1291 0.984 . S
N1285 C1278 1.356 . S
N1285 H1288 0.984 . S
N1285 H1289 0.985 . S
H1286 N1281 0.984 . S
H1287 N1281 0.985 . S
H1288 N1285 0.984 . S
H1289 N1285 0.985 . S
H1290 N1284 0.984 . S
H1291 N1284 0.984 . S
H1292 N1280 0.984 . S
H1293 N1280 0.985 . S
C1294 C1295 1.363 . S
C1294 C1300 1.379 . S
C1294 N1302 1.356 . S
C1295 C1294 1.363 . S
C1295 C1301 1.363 . S
C1296 C1297 1.363 . S
C1296 C1301 1.379 . S
C1296 N1303 1.356 . S
C1297 C1296 1.363 . S
C1297 C1300 1.363 . S
N1298 C1300 1.356 . S
N1298 H1310 0.984 . S
N1298 H1311 0.985 . S
N1299 C1301 1.356 . S
N1299 H1304 0.984 . S
N1299 H1305 0.985 1_545 S
C1300 C1294 1.379 . S
C1300 C1297 1.363 . S
C1300 N1298 1.356 . S
C1301 C1295 1.363 . S
C1301 C1296 1.379 . S
C1301 N1299 1.356 . S
N1302 C1294 1.356 . S
N1302 H1308 0.985 1_655 S
N1302 H1309 0.984 1_655 S
N1303 C1296 1.356 . S
N1303 H1306 0.984 . S
N1303 H1307 0.985 . S
H1304 N1299 0.984 . S
H1305 N1299 0.985 1_565 S
H1306 N1303 0.984 . S
H1307 N1303 0.985 . S
H1308 N1302 0.985 1_455 S
H1309 N1302 0.984 1_455 S
H1310 N1298 0.984 . S
H1311 N1298 0.985 . S
C1312 C1313 1.363 . S
C1312 C1318 1.379 . S
C1312 N1320 1.356 . S
C1313 C1312 1.363 . S
C1313 C1319 1.363 . S
C1314 C1315 1.363 . S
C1314 C1319 1.379 . S
C1314 N1321 1.356 . S
C1315 C1314 1.363 . S
C1315 C1318 1.363 . S
N1316 C1318 1.356 . S
N1316 H1328 0.984 . S
N1316 H1329 0.985 . S
N1317 C1319 1.356 . S
N1317 H1322 0.984 . S
N1317 H1323 0.985 . S
C1318 C1312 1.379 . S
C1318 C1315 1.363 . S
C1318 N1316 1.356 . S
C1319 C1313 1.363 . S
C1319 C1314 1.379 . S
C1319 N1317 1.356 . S
N1320 C1312 1.356 . S
N1320 H1326 0.984 . S
N1320 H1327 0.984 . S
N1321 C1314 1.356 . S
N1321 H1324 0.984 . S
N1321 H1325 0.985 . S
H1322 N1317 0.984 . S
H1323 N1317 0.985 . S
H1324 N1321 0.984 . S
H1325 N1321 0.985 . S
H1326 N1320 0.984 . S
H1327 N1320 0.984 . S
H1328 N1316 0.984 . S
H1329 N1316 0.985 . S
C1330 C1331 1.363 . S
C1330 C1336 1.379 . S
C1330 N1338 1.356 . S
C1331 C1330 1.363 . S
C1331 C1337 1.363 . S
C1332 C1333 1.363 . S
C1332 C1337 1.379 . S
C1332 N1339 1.356 . S
C1333 C1332 1.363 . S
C1333 C1336 1.363 . S
N1334 C1336 1.356 . S
N1334 H1346 0.984 . S
N1334 H1347 0.985 . S
N1335 C1337 1.356 . S
N1335 H1340 0.984 . S
N1335 H1341 0.985 . S
C1336 C1330 1.379 . S
C1336 C1333 1.363 . S
C1336 N1334 1.356 . S
C1337 C1331 1.363 . S
C1337 C1332 1.379 . S
C1337 N1335 1.356 . S
N1338 C1330 1.356 . S
N1338 H1344 0.984 . S
N1338 H1345 0.984 . S
N1339 C1332 1.356 . S
N1339 H1342 0.984 . S
N1339 H1343 0.985 . S
H1340 N1335 0.984 . S
H1341 N1335 0.985 . S
H1342 N1339 0.984 . S
H1343 N1339 0.985 . S
H1344 N1338 0.984 . S
H1345 N1338 0.984 . S
H1346 N1334 0.984 . S
H1347 N1334 0.985 . S
C1348 C1349 1.363 . S
C1348 C1354 1.379 . S
C1348 N1356 1.356 . S
C1349 C1348 1.363 . S
C1349 C1355 1.363 . S
C1350 C1351 1.363 . S
C1350 C1355 1.379 . S
C1350 N1357 1.356 . S
C1351 C1350 1.363 . S
C1351 C1354 1.363 . S
N1352 C1354 1.356 . S
N1352 H1364 0.984 . S
N1352 H1365 0.985 . S
N1353 C1355 1.356 . S
N1353 H1358 0.984 . S
N1353 H1359 0.985 . S
C1354 C1348 1.379 . S
C1354 C1351 1.363 . S
C1354 N1352 1.356 . S
C1355 C1349 1.363 . S
C1355 C1350 1.379 . S
C1355 N1353 1.356 . S
N1356 C1348 1.356 . S
N1356 H1362 0.984 . S
N1356 H1363 0.984 . S
N1357 C1350 1.356 . S
N1357 H1360 0.984 . S
N1357 H1361 0.985 . S
H1358 N1353 0.984 . S
H1359 N1353 0.985 . S
H1360 N1357 0.984 . S
H1361 N1357 0.985 . S
H1362 N1356 0.984 . S
H1363 N1356 0.984 . S
H1364 N1352 0.984 . S
H1365 N1352 0.985 . S
C1366 C1367 1.363 . S
C1366 C1372 1.379 . S
C1366 N1374 1.356 . S
C1367 C1366 1.363 . S
C1367 C1373 1.363 . S
C1368 C1369 1.363 . S
C1368 C1373 1.379 . S
C1368 N1375 1.356 . S
C1369 C1368 1.363 . S
C1369 C1372 1.363 . S
N1370 C1372 1.356 . S
N1370 H1382 0.984 . S
N1370 H1383 0.985 . S
N1371 C1373 1.356 . S
N1371 H1376 0.984 . S
N1371 H1377 0.985 . S
C1372 C1366 1.379 . S
C1372 C1369 1.363 . S
C1372 N1370 1.356 . S
C1373 C1367 1.363 . S
C1373 C1368 1.379 . S
C1373 N1371 1.356 . S
N1374 C1366 1.356 . S
N1374 H1380 0.984 . S
N1374 H1381 0.984 . S
N1375 C1368 1.356 . S
N1375 H1378 0.984 1_655 S
N1375 H1379 0.985 1_655 S
H1376 N1371 0.984 . S
H1377 N1371 0.985 . S
H1378 N1375 0.984 1_455 S
H1379 N1375 0.985 1_455 S
H1380 N1374 0.984 . S
H1381 N1374 0.984 . S
H1382 N1370 0.984 . S
H1383 N1370 0.985 . S
C1384 C1385 1.363 . S
C1384 C1390 1.379 . S
C1384 N1392 1.356 . S
C1385 C1384 1.363 . S
C1385 C1391 1.363 . S
C1386 C1387 1.363 . S
C1386 C1391 1.379 . S
C1386 N1393 1.356 . S
C1387 C1386 1.363 . S
C1387 C1390 1.363 . S
N1388 C1390 1.356 . S
N1388 H1400 0.984 . S
N1388 H1401 0.985 . S
N1389 C1391 1.356 . S
N1389 H1394 0.984 . S
N1389 H1395 0.985 . S
C1390 C1384 1.379 . S
C1390 C1387 1.363 . S
C1390 N1388 1.356 . S
C1391 C1385 1.363 . S
C1391 C1386 1.379 . S
C1391 N1389 1.356 . S
N1392 C1384 1.356 . S
N1392 H1398 0.984 . S
N1392 H1399 0.984 . S
N1393 C1386 1.356 . S
N1393 H1396 0.984 . S
N1393 H1397 0.985 . S
H1394 N1389 0.984 . S
H1395 N1389 0.985 . S
H1396 N1393 0.984 . S
H1397 N1393 0.985 . S
H1398 N1392 0.984 . S
H1399 N1392 0.984 . S
H1400 N1388 0.984 . S
H1401 N1388 0.985 . S
C1402 C1403 1.363 . S
C1402 C1408 1.379 . S
C1402 N1410 1.356 . S
C1403 C1402 1.363 . S
C1403 C1409 1.363 . S
C1404 C1405 1.363 . S
C1404 C1409 1.379 . S
C1404 N1411 1.356 . S
C1405 C1404 1.363 . S
C1405 C1408 1.363 . S
N1406 C1408 1.356 . S
N1406 H1418 0.984 . S
N1406 H1419 0.985 . S
N1407 C1409 1.356 . S
N1407 H1412 0.984 1_655 S
N1407 H1413 0.985 . S
C1408 C1402 1.379 . S
C1408 C1405 1.363 . S
C1408 N1406 1.356 . S
C1409 C1403 1.363 . S
C1409 C1404 1.379 . S
C1409 N1407 1.356 . S
N1410 C1402 1.356 . S
N1410 H1416 0.984 . S
N1410 H1417 0.984 . S
N1411 C1404 1.356 . S
N1411 H1414 0.984 . S
N1411 H1415 0.985 . S
H1412 N1407 0.984 1_455 S
H1413 N1407 0.985 . S
H1414 N1411 0.984 . S
H1415 N1411 0.985 . S
H1416 N1410 0.984 . S
H1417 N1410 0.984 . S
H1418 N1406 0.984 . S
H1419 N1406 0.985 . S
C1420 C1421 1.363 . S
C1420 C1426 1.379 . S
C1420 N1428 1.356 . S
C1421 C1420 1.363 . S
C1421 C1427 1.363 . S
C1422 C1423 1.363 . S
C1422 C1427 1.379 . S
C1422 N1429 1.356 . S
C1423 C1422 1.363 . S
C1423 C1426 1.363 . S
N1424 C1426 1.356 . S
N1424 H1436 0.984 . S
N1424 H1437 0.985 . S
N1425 C1427 1.356 . S
N1425 H1430 0.984 . S
N1425 H1431 0.985 . S
C1426 C1420 1.379 . S
C1426 C1423 1.363 . S
C1426 N1424 1.356 . S
C1427 C1421 1.363 . S
C1427 C1422 1.379 . S
C1427 N1425 1.356 . S
N1428 C1420 1.356 . S
N1428 H1434 0.984 . S
N1428 H1435 0.984 . S
N1429 C1422 1.356 . S
N1429 H1432 0.984 . S
N1429 H1433 0.985 . S
H1430 N1425 0.984 . S
H1431 N1425 0.985 . S
H1432 N1429 0.984 . S
H1433 N1429 0.985 . S
H1434 N1428 0.984 . S
H1435 N1428 0.984 . S
H1436 N1424 0.984 . S
H1437 N1424 0.985 . S
C1438 C1439 1.363 . S
C1438 C1444 1.379 . S
C1438 N1446 1.356 . S
C1439 C1438 1.363 . S
C1439 C1445 1.363 . S
C1440 C1441 1.363 . S
C1440 C1445 1.379 . S
C1440 N1447 1.356 . S
C1441 C1440 1.363 . S
C1441 C1444 1.363 . S
N1442 C1444 1.356 . S
N1442 H1454 0.984 . S
N1442 H1455 0.985 . S
N1443 C1445 1.356 . S
N1443 H1448 0.984 . S
N1443 H1449 0.985 . S
C1444 C1438 1.379 . S
C1444 C1441 1.363 . S
C1444 N1442 1.356 . S
C1445 C1439 1.363 . S
C1445 C1440 1.379 . S
C1445 N1443 1.356 . S
N1446 C1438 1.356 . S
N1446 H1452 0.984 . S
N1446 H1453 0.984 . S
N1447 C1440 1.356 . S
N1447 H1450 0.984 . S
N1447 H1451 0.985 . S
H1448 N1443 0.984 . S
H1449 N1443 0.985 . S
H1450 N1447 0.984 . S
H1451 N1447 0.985 . S
H1452 N1446 0.984 . S
H1453 N1446 0.984 . S
H1454 N1442 0.984 . S
H1455 N1442 0.985 . S
C1456 C1457 1.363 . S
C1456 C1462 1.379 . S
C1456 N1464 1.356 . S
C1457 C1456 1.363 . S
C1457 C1463 1.363 . S
C1458 C1459 1.363 . S
C1458 C1463 1.379 . S
C1458 N1465 1.356 . S
C1459 C1458 1.363 . S
C1459 C1462 1.363 . S
N1460 C1462 1.356 . S
N1460 H1472 0.984 . S
N1460 H1473 0.985 . S
N1461 C1463 1.356 . S
N1461 H1466 0.984 . S
N1461 H1467 0.985 . S
C1462 C1456 1.379 . S
C1462 C1459 1.363 . S
C1462 N1460 1.356 . S
C1463 C1457 1.363 . S
C1463 C1458 1.379 . S
C1463 N1461 1.356 . S
N1464 C1456 1.356 . S
N1464 H1470 0.984 . S
N1464 H1471 0.984 . S
N1465 C1458 1.356 . S
N1465 H1468 0.984 . S
N1465 H1469 0.985 . S
H1466 N1461 0.984 . S
H1467 N1461 0.985 . S
H1468 N1465 0.984 . S
H1469 N1465 0.985 . S
H1470 N1464 0.984 . S
H1471 N1464 0.984 . S
H1472 N1460 0.984 . S
H1473 N1460 0.985 . S
C1474 C1475 1.363 . S
C1474 C1480 1.379 . S
C1474 N1482 1.356 . S
C1475 C1474 1.363 . S
C1475 C1481 1.363 . S
C1476 C1477 1.363 . S
C1476 C1481 1.379 . S
C1476 N1483 1.356 . S
C1477 C1476 1.363 . S
C1477 C1480 1.363 . S
N1478 C1480 1.356 . S
N1478 H1490 0.984 . S
N1478 H1491 0.985 . S
N1479 C1481 1.356 . S
N1479 H1484 0.984 . S
N1479 H1485 0.985 . S
C1480 C1474 1.379 . S
C1480 C1477 1.363 . S
C1480 N1478 1.356 . S
C1481 C1475 1.363 . S
C1481 C1476 1.379 . S
C1481 N1479 1.356 . S
N1482 C1474 1.356 . S
N1482 H1488 0.984 . S
N1482 H1489 0.984 . S
N1483 C1476 1.356 . S
N1483 H1486 0.984 . S
N1483 H1487 0.985 . S
H1484 N1479 0.984 . S
H1485 N1479 0.985 . S
H1486 N1483 0.984 . S
H1487 N1483 0.985 . S
H1488 N1482 0.984 . S
H1489 N1482 0.984 . S
H1490 N1478 0.984 . S
H1491 N1478 0.985 . S
C1492 C1493 1.363 . S
C1492 C1498 1.379 . S
C1492 N1500 1.356 . S
C1493 C1492 1.363 . S
C1493 C1499 1.363 . S
C1494 C1495 1.363 . S
C1494 C1499 1.379 . S
C1494 N1501 1.356 . S
C1495 C1494 1.363 . S
C1495 C1498 1.363 . S
N1496 C1498 1.356 . S
N1496 H1508 0.984 . S
N1496 H1509 0.985 . S
N1497 C1499 1.356 . S
N1497 H1502 0.984 . S
N1497 H1503 0.985 . S
C1498 C1492 1.379 . S
C1498 C1495 1.363 . S
C1498 N1496 1.356 . S
C1499 C1493 1.363 . S
C1499 C1494 1.379 . S
C1499 N1497 1.356 . S
N1500 C1492 1.356 . S
N1500 H1506 0.984 . S
N1500 H1507 0.984 . S
N1501 C1494 1.356 . S
N1501 H1504 0.984 . S
N1501 H1505 0.985 . S
H1502 N1497 0.984 . S
H1503 N1497 0.985 . S
H1504 N1501 0.984 . S
H1505 N1501 0.985 . S
H1506 N1500 0.984 . S
H1507 N1500 0.984 . S
H1508 N1496 0.984 . S
H1509 N1496 0.985 . S
C1510 C1511 1.363 . S
C1510 C1516 1.379 . S
C1510 N1518 1.356 1_455 S
C1511 C1510 1.363 . S
C1511 C1517 1.363 . S
C1512 C1513 1.363 . S
C1512 C1517 1.379 . S
C1512 N1519 1.356 . S
C1513 C1512 1.363 . S
C1513 C1516 1.363 . S
N1514 C1516 1.356 . S
N1514 H1526 0.984 . S
N1514 H1527 0.985 . S
N1515 C1517 1.356 . S
N1515 H1520 0.984 . S
N1515 H1521 0.985 . S
C1516 C1510 1.379 . S
C1516 C1513 1.363 . S
C1516 N1514 1.356 . S
C1517 C1511 1.363 . S
C1517 C1512 1.379 . S
C1517 N1515 1.356 . S
N1518 C1510 1.356 1_655 S
N1518 H1524 0.984 . S
N1518 H1525 0.984 . S
N1519 C1512 1.356 . S
N1519 H1522 0.984 . S
N1519 H1523 0.985 . S
H1520 N1515 0.984 . S
H1521 N1515 0.985 . S
H1522 N1519 0.984 . S
H1523 N1519 0.985 . S
H1524 N1518 0.984 . S
H1525 N1518 0.984 . S
H1526 N1514 0.984 . S
H1527 N1514 0.985 . S
C1528 C1529 1.363 . S
C1528 C1534 1.379 . S
C1528 N1536 1.356 . S
C1529 C1528 1.363 . S
C1529 C1535 1.363 . S
C1530 C1531 1.363 . S
C1530 C1535 1.379 . S
C1530 N1537 1.356 . S
C1531 C1530 1.363 . S
C1531 C1534 1.363 . S
N1532 C1534 1.356 . S
N1532 H1544 0.984 . S
N1532 H1545 0.985 . S
N1533 C1535 1.356 . S
N1533 H1538 0.984 . S
N1533 H1539 0.985 . S
C1534 C1528 1.379 . S
C1534 C1531 1.363 . S
C1534 N1532 1.356 . S
C1535 C1529 1.363 . S
C1535 C1530 1.379 . S
C1535 N1533 1.356 . S
N1536 C1528 1.356 . S
N1536 H1542 0.984 . S
N1536 H1543 0.984 . S
N1537 C1530 1.356 . S
N1537 H1540 0.984 . S
N1537 H1541 0.985 . S
H1538 N1533 0.984 . S
H1539 N1533 0.985 . S
H1540 N1537 0.984 . S
H1541 N1537 0.985 . S
H1542 N1536 0.984 . S
H1543 N1536 0.984 . S
H1544 N1532 0.984 . S
H1545 N1532 0.985 . S
C1546 C1547 1.363 . S
C1546 C1552 1.379 . S
C1546 N1554 1.356 . S
C1547 C1546 1.363 . S
C1547 C1553 1.363 . S
C1548 C1549 1.363 . S
C1548 C1553 1.379 . S
C1548 N1555 1.356 . S
C1549 C1548 1.363 . S
C1549 C1552 1.363 . S
N1550 C1552 1.356 . S
N1550 H1562 0.984 . S
N1550 H1563 0.985 . S
N1551 C1553 1.356 . S
N1551 H1556 0.984 . S
N1551 H1557 0.985 . S
C1552 C1546 1.379 . S
C1552 C1549 1.363 . S
C1552 N1550 1.356 . S
C1553 C1547 1.363 . S
C1553 C1548 1.379 . S
C1553 N1551 1.356 . S
N1554 C1546 1.356 . S
N1554 H1560 0.984 . S
N1554 H1561 0.984 . S
N1555 C1548 1.356 . S
N1555 H1558 0.984 1_455 S
N1555 H1559 0.985 1_455 S
H1556 N1551 0.984 . S
H1557 N1551 0.985 . S
H1558 N1555 0.984 1_655 S
H1559 N1555 0.985 1_655 S
H1560 N1554 0.984 . S
H1561 N1554 0.984 . S
H1562 N1550 0.984 . S
H1563 N1550 0.985 . S
C1564 C1565 1.363 . S
C1564 C1570 1.379 . S
C1564 N1572 1.356 . S
C1565 C1564 1.363 . S
C1565 C1571 1.363 . S
C1566 C1567 1.363 . S
C1566 C1571 1.379 . S
C1566 N1573 1.356 . S
C1567 C1566 1.363 . S
C1567 C1570 1.363 . S
N1568 C1570 1.356 . S
N1568 H1580 0.984 . S
N1568 H1581 0.985 . S
N1569 C1571 1.356 . S
N1569 H1574 0.984 . S
N1569 H1575 0.985 . S
C1570 C1564 1.379 . S
C1570 C1567 1.363 . S
C1570 N1568 1.356 . S
C1571 C1565 1.363 . S
C1571 C1566 1.379 . S
C1571 N1569 1.356 . S
N1572 C1564 1.356 . S
N1572 H1578 0.984 . S
N1572 H1579 0.984 . S
N1573 C1566 1.356 . S
N1573 H1576 0.984 . S
N1573 H1577 0.985 . S
H1574 N1569 0.984 . S
H1575 N1569 0.985 . S
H1576 N1573 0.984 . S
H1577 N1573 0.985 . S
H1578 N1572 0.984 . S
H1579 N1572 0.984 . S
H1580 N1568 0.984 . S
H1581 N1568 0.985 . S
C1582 C1583 1.363 . S
C1582 C1588 1.379 . S
C1582 N1590 1.356 . S
C1583 C1582 1.363 . S
C1583 C1589 1.363 . S
C1584 C1585 1.363 . S
C1584 C1589 1.379 . S
C1584 N1591 1.356 . S
C1585 C1584 1.363 . S
C1585 C1588 1.363 . S
N1586 C1588 1.356 . S
N1586 H1598 0.984 . S
N1586 H1599 0.985 . S
N1587 C1589 1.356 . S
N1587 H1592 0.984 . S
N1587 H1593 0.985 . S
C1588 C1582 1.379 . S
C1588 C1585 1.363 . S
C1588 N1586 1.356 . S
C1589 C1583 1.363 . S
C1589 C1584 1.379 . S
C1589 N1587 1.356 . S
N1590 C1582 1.356 . S
N1590 H1596 0.984 . S
N1590 H1597 0.984 . S
N1591 C1584 1.356 . S
N1591 H1594 0.984 . S
N1591 H1595 0.985 . S
H1592 N1587 0.984 . S
H1593 N1587 0.985 . S
H1594 N1591 0.984 . S
H1595 N1591 0.985 . S
H1596 N1590 0.984 . S
H1597 N1590 0.984 . S
H1598 N1586 0.984 . S
H1599 N1586 0.985 . S
C449 C67 1.501 . S
C451 C11 1.501 . S
C467 C81 1.501 . S
C469 C25 1.501 . S
C485 C95 1.501 . S
C487 C39 1.501 . S
C503 C53 1.501 . S
C505 C109 1.501 . S
C521 C123 1.501 . S
C523 C179 1.501 . S
C539 C193 1.501 . S
C541 C137 1.501 . S
C557 C151 1.501 . S
C559 C207 1.501 . S
C575 C221 1.501 . S
C577 C165 1.501 . S
C593 C235 1.501 . S
C595 C291 1.501 . S
C611 C305 1.501 . S
C613 C249 1.501 . S
C629 C319 1.501 . S
C631 C263 1.501 . S
C647 C333 1.501 . S
C649 C277 1.501 . S
C665 C347 1.501 . S
C667 C403 1.501 . S
C683 C361 1.501 . S
C685 C417 1.501 . S
C701 C375 1.501 . S
C703 C431 1.501 . S
C719 C389 1.501 . S
C721 C445 1.501 . S
C737 C13 1.117 . S
C739 C111 1.117 . S
C755 C27 1.117 . S
C757 C69 1.117 . S
C773 C41 1.117 . S
C775 C83 1.117 . S
C791 C97 1.117 . S
C793 C55 1.117 . S
C809 C223 1.117 . S
C811 C125 1.117 . S
C827 C181 1.117 . S
C829 C139 1.117 . S
C845 C195 1.117 . S
C847 C153 1.117 . S
C863 C167 1.117 . S
C865 C209 1.117 . S
C881 C335 1.117 . S
C883 C237 1.117 . S
C899 C293 1.117 . S
C901 C251 1.117 . S
C917 C307 1.117 . S
C919 C265 1.117 . S
C935 C279 1.117 . S
C937 C321 1.117 . S
C953 C349 1.117 . S
C955 C447 1.117 . S
C971 C363 1.117 . S
C973 C405 1.117 . S
C989 C377 1.117 . S
C991 C419 1.117 . S
C1007 C433 1.117 . S
C1009 C391 1.117 . S
C1025 C8 1.446 . S
C1027 C357 1.483 . S
C1043 C22 1.446 . S
C1045 C147 1.483 1_455 S
C1061 C36 1.446 . S
C1063 C385 1.483 . S
C1079 C119 1.483 . S
C1081 C50 1.446 . S
C1097 C441 1.483 . S
C1099 C64 1.446 . S
C1115 C78 1.446 . S
C1117 C175 1.483 . S
C1133 C92 1.446 . S
C1135 C413 1.483 . S
C1151 C106 1.446 . S
C1153 C203 1.483 1_455 S
C1169 C245 1.483 . S
C1171 C120 1.446 . S
C1187 C35 1.483 1_655 S
C1189 C134 1.446 . S
C1205 C273 1.483 . S
C1207 C148 1.446 . S
C1223 C162 1.446 . S
C1225 C7 1.483 . S
C1241 C329 1.483 . S
C1243 C176 1.446 . S
C1259 C63 1.483 . S
C1261 C190 1.446 . S
C1277 C301 1.483 . S
C1279 C204 1.446 . S
C1295 C91 1.483 1_655 S
C1297 C218 1.446 . S
C1313 C133 1.483 . S
C1315 C232 1.446 . S
C1331 C246 1.446 . S
C1333 C371 1.483 . S
C1349 C260 1.446 . S
C1351 C161 1.483 . S
C1367 C274 1.446 . S
C1369 C343 1.483 1_655 S
C1385 C288 1.446 . S
C1387 C217 1.483 . S
C1403 C399 1.483 1_655 S
C1405 C302 1.446 . S
C1421 C316 1.446 . S
C1423 C189 1.483 . S
C1439 C330 1.446 . S
C1441 C427 1.483 . S
C1457 C344 1.446 . S
C1459 C21 1.483 . S
C1475 C358 1.446 . S
C1477 C259 1.483 . S
C1493 C49 1.483 . S
C1495 C372 1.446 . S
C1511 C231 1.483 1_455 S
C1513 C386 1.446 . S
C1529 C400 1.446 . S
C1531 C105 1.483 . S
C1547 C414 1.446 . S
C1549 C287 1.483 1_455 S
C1565 C77 1.483 . S
C1567 C428 1.446 . S
C1583 C315 1.483 . S
C1585 C442 1.446 . S
