# Generated by pormake.
# Topology vbm, (6)-cn, num edge types: 1
# Building blocks:
#     Node 0, Type 0, BuildingBlock: KUMBUR_clean_sbu_1, # of connection points: 6
#     Node 1, Type 0, BuildingBlock: KUMBUR_clean_sbu_1, # of connection points: 6
#     Node 2, Type 0, BuildingBlock: KUMBUR_clean_sbu_1, # of connection points: 6
#     Node 3, Type 0, BuildingBlock: KUMBUR_clean_sbu_1, # of connection points: 6
#     Node 4, Type 0, BuildingBlock: KUMBUR_clean_sbu_1, # of connection points: 6
#     Node 5, Type 0, BuildingBlock: KUMBUR_clean_sbu_1, # of connection points: 6
#     Node 6, Type 0, BuildingBlock: KUMBUR_clean_sbu_1, # of connection points: 6
#     Node 7, Type 0, BuildingBlock: KUMBUR_clean_sbu_1, # of connection points: 6
#     Node 8, Type 0, BuildingBlock: KUMBUR_clean_sbu_1, # of connection points: 6
#     Node 9, Type 0, BuildingBlock: KUMBUR_clean_sbu_1, # of connection points: 6
#     Node 10, Type 0, BuildingBlock: KUMBUR_clean_sbu_1, # of connection points: 6
#     Node 11, Type 0, BuildingBlock: KUMBUR_clean_sbu_1, # of connection points: 6
#     Node 12, Type 0, BuildingBlock: KUMBUR_clean_sbu_1, # of connection points: 6
#     Node 13, Type 0, BuildingBlock: KUMBUR_clean_sbu_1, # of connection points: 6
#     Node 14, Type 0, BuildingBlock: KUMBUR_clean_sbu_1, # of connection points: 6
#     Node 15, Type 0, BuildingBlock: KUMBUR_clean_sbu_1, # of connection points: 6
#     Edge 16, Type (0, 0), BuildingBlock: XIVTED_clean_linker_0, # of connection points: 2
#     Edge 17, Type (0, 0), BuildingBlock: XIVTED_clean_linker_0, # of connection points: 2
#     Edge 18, Type (0, 0), BuildingBlock: XIVTED_clean_linker_0, # of connection points: 2
#     Edge 19, Type (0, 0), BuildingBlock: XIVTED_clean_linker_0, # of connection points: 2
#     Edge 20, Type (0, 0), BuildingBlock: XIVTED_clean_linker_0, # of connection points: 2
#     Edge 21, Type (0, 0), BuildingBlock: XIVTED_clean_linker_0, # of connection points: 2
#     Edge 22, Type (0, 0), BuildingBlock: XIVTED_clean_linker_0, # of connection points: 2
#     Edge 23, Type (0, 0), BuildingBlock: XIVTED_clean_linker_0, # of connection points: 2
#     Edge 24, Type (0, 0), BuildingBlock: XIVTED_clean_linker_0, # of connection points: 2
#     Edge 25, Type (0, 0), BuildingBlock: XIVTED_clean_linker_0, # of connection points: 2
#     Edge 26, Type (0, 0), BuildingBlock: XIVTED_clean_linker_0, # of connection points: 2
#     Edge 27, Type (0, 0), BuildingBlock: XIVTED_clean_linker_0, # of connection points: 2
#     Edge 28, Type (0, 0), BuildingBlock: XIVTED_clean_linker_0, # of connection points: 2
#     Edge 29, Type (0, 0), BuildingBlock: XIVTED_clean_linker_0, # of connection points: 2
#     Edge 30, Type (0, 0), BuildingBlock: XIVTED_clean_linker_0, # of connection points: 2
#     Edge 31, Type (0, 0), BuildingBlock: XIVTED_clean_linker_0, # of connection points: 2
#     Edge 32, Type (0, 0), BuildingBlock: XIVTED_clean_linker_0, # of connection points: 2
#     Edge 33, Type (0, 0), BuildingBlock: XIVTED_clean_linker_0, # of connection points: 2
#     Edge 34, Type (0, 0), BuildingBlock: XIVTED_clean_linker_0, # of connection points: 2
#     Edge 35, Type (0, 0), BuildingBlock: XIVTED_clean_linker_0, # of connection points: 2
#     Edge 36, Type (0, 0), BuildingBlock: XIVTED_clean_linker_0, # of connection points: 2
#     Edge 37, Type (0, 0), BuildingBlock: XIVTED_clean_linker_0, # of connection points: 2
#     Edge 38, Type (0, 0), BuildingBlock: XIVTED_clean_linker_0, # of connection points: 2
#     Edge 39, Type (0, 0), BuildingBlock: XIVTED_clean_linker_0, # of connection points: 2
#     Edge 40, Type (0, 0), BuildingBlock: XIVTED_clean_linker_0, # of connection points: 2
#     Edge 41, Type (0, 0), BuildingBlock: XIVTED_clean_linker_0, # of connection points: 2
#     Edge 42, Type (0, 0), BuildingBlock: XIVTED_clean_linker_0, # of connection points: 2
#     Edge 43, Type (0, 0), BuildingBlock: XIVTED_clean_linker_0, # of connection points: 2
#     Edge 44, Type (0, 0), BuildingBlock: XIVTED_clean_linker_0, # of connection points: 2
#     Edge 45, Type (0, 0), BuildingBlock: XIVTED_clean_linker_0, # of connection points: 2
#     Edge 46, Type (0, 0), BuildingBlock: XIVTED_clean_linker_0, # of connection points: 2
#     Edge 47, Type (0, 0), BuildingBlock: XIVTED_clean_linker_0, # of connection points: 2
#     Edge 48, Type (0, 0), BuildingBlock: XIVTED_clean_linker_0, # of connection points: 2
#     Edge 49, Type (0, 0), BuildingBlock: XIVTED_clean_linker_0, # of connection points: 2
#     Edge 50, Type (0, 0), BuildingBlock: XIVTED_clean_linker_0, # of connection points: 2
#     Edge 51, Type (0, 0), BuildingBlock: XIVTED_clean_linker_0, # of connection points: 2
#     Edge 52, Type (0, 0), BuildingBlock: XIVTED_clean_linker_0, # of connection points: 2
#     Edge 53, Type (0, 0), BuildingBlock: XIVTED_clean_linker_0, # of connection points: 2
#     Edge 54, Type (0, 0), BuildingBlock: XIVTED_clean_linker_0, # of connection points: 2
#     Edge 55, Type (0, 0), BuildingBlock: XIVTED_clean_linker_0, # of connection points: 2
#     Edge 56, Type (0, 0), BuildingBlock: XIVTED_clean_linker_0, # of connection points: 2
#     Edge 57, Type (0, 0), BuildingBlock: XIVTED_clean_linker_0, # of connection points: 2
#     Edge 58, Type (0, 0), BuildingBlock: XIVTED_clean_linker_0, # of connection points: 2
#     Edge 59, Type (0, 0), BuildingBlock: XIVTED_clean_linker_0, # of connection points: 2
#     Edge 60, Type (0, 0), BuildingBlock: XIVTED_clean_linker_0, # of connection points: 2
#     Edge 61, Type (0, 0), BuildingBlock: XIVTED_clean_linker_0, # of connection points: 2
#     Edge 62, Type (0, 0), BuildingBlock: XIVTED_clean_linker_0, # of connection points: 2
#     Edge 63, Type (0, 0), BuildingBlock: XIVTED_clean_linker_0, # of connection points: 2
# Relax obj value: 0.077
# Max RMSD: 0.141
# Mean RMSD: 0.141
data_MOF--net-vbm--node1-KUMBUR_clean_sbu_1--edge1-XIVTED_clean_linker_0
_symmetry_space_group_name_H-M    P1
_symmetry_Int_Tables_number       1
_symmetry_cell_setting            triclinic
loop_
_symmetry_equiv_pos_as_xyz
'x, y, z'
_cell_length_a     54.249372
_cell_length_b     24.937653
_cell_length_c     57.975327
_cell_angle_alpha  90.019728
_cell_angle_beta   90.109686
_cell_angle_gamma 89.989634
loop_
_atom_site_label
_atom_site_type_symbol
_atom_site_fract_x
_atom_site_fract_y
_atom_site_fract_z
_atom_type_partial_charge
Tb0 Tb 0.12536 0.18306 0.13918 0.0
C1 C 0.21345 0.0529 0.11762 0.0
N2 N 0.19259 0.05596 0.10469 0.0
C3 C 0.21661 0.07394 0.07092 0.0
C4 C 0.23675 0.06295 0.1079 0.0
C5 C 0.19384 0.06432 0.08144 0.0
C6 C 0.23814 0.07388 0.08424 0.0
C7 C 0.23223 0.03752 0.15492 0.0
C8 C 0.2111 0.04081 0.1408 0.0
C9 C 0.2555 0.04918 0.14557 0.0
C10 C 0.25778 0.06176 0.12208 0.0
Tb11 Tb 0.15633 0.04124 0.1235 0.0
N12 N 0.18822 0.03027 0.14924 0.0
C13 C 0.22938 0.02118 0.17784 0.0
C14 C 0.18579 1.00924 0.17087 0.0
C15 C 0.20612 1.00584 0.18569 0.0
H16 H 0.17723 0.06439 0.07113 0.0
H17 H 0.2039 0.99035 0.203 0.0
H18 H 0.12601 0.19854 0.19641 0.0
H19 H 0.05098 0.22236 0.07974 0.0
H20 H 0.16845 0.9933 0.17662 0.0
H21 H 0.24514 0.01808 0.18928 0.0
H22 H 0.09463 0.21432 0.09194 0.0
H23 H 0.21754 0.08155 0.05256 0.0
H24 H 0.27187 0.0476 0.15627 0.0
H25 H 0.27587 0.06996 0.11502 0.0
H26 H 0.09612 0.1921 0.22836 0.0
H27 H 0.25571 0.08175 0.07607 0.0
H28 H 0.01756 0.20732 0.10808 0.0
N29 N 0.09923 0.1845 0.17025 0.0
C30 C 0.07479 0.1831 0.16527 0.0
C31 C 0.08988 0.18854 0.21069 0.0
C32 C 0.05688 0.18164 0.18283 0.0
C33 C 0.10684 0.19101 0.19256 0.0
C34 C 0.06479 0.1826 0.20582 0.0
N35 N 0.08574 0.19304 0.12646 0.0
C36 C 0.0801 0.20767 0.10433 0.0
C37 C 0.04268 0.1927 0.13648 0.0
C38 C 0.06775 0.18856 0.14254 0.0
C39 C 0.03662 0.20373 0.11347 0.0
C40 C 0.05544 0.21231 0.09742 0.0
H41 H 0.05165 0.18153 0.21986 0.0
H42 H 0.01767 0.18023 0.19009 0.0
H43 H 1.00522 0.1899 0.1494 0.0
O44 O 0.14085 0.24868 0.12163 0.0
O45 O 0.10259 0.12072 0.1227 0.0
O46 O 0.11739 0.03896 0.13494 0.0
O47 O 0.11984 0.26102 0.15237 0.0
O48 O 0.13709 0.17129 0.10278 0.0
O49 O 0.13653 0.07932 0.09515 0.0
O50 O 0.16457 0.95911 0.12775 0.0
O51 O 0.17477 0.11988 0.11916 0.0
O52 O 0.16288 0.16606 0.1508 0.0
O53 O 0.14875 0.98805 0.09627 0.0
O54 O 0.13785 0.04638 0.15693 0.0
O55 O 0.14154 0.13522 0.16795 0.0
C56 C 0.09897 0.07084 0.12908 0.0
C57 C 0.15068 0.32485 0.14385 0.0
C58 C 0.16322 0.41905 0.14484 0.0
C59 C 0.18523 0.40383 0.15593 0.0
C60 C 0.17233 0.31075 0.15553 0.0
C61 C 0.18965 0.35002 0.16131 0.0
C62 C 0.14609 0.37898 0.13869 0.0
C63 C 0.1356 0.12986 0.08847 0.0
C64 C 0.13289 0.28376 0.13641 0.0
C65 C 0.03174 0.18204 0.17687 0.0
C66 C 0.02464 0.18766 0.1537 0.0
C67 C 0.18004 0.15318 0.136 0.0
C68 C 0.13562 0.90304 0.10944 0.0
C69 C 0.12481 0.80864 0.11549 0.0
C70 C 0.0998 0.8222 0.11247 0.0
C71 C 0.1105 0.91541 0.10686 0.0
C72 C 0.14268 0.84965 0.11382 0.0
C73 C 0.09276 0.87514 0.10831 0.0
C74 C 0.13799 0.08394 0.1729 0.0
C75 C 0.15443 0.94581 0.10829 0.0
H76 H 0.19872 0.43366 0.16096 0.0
H77 H 0.17575 0.2695 0.16015 0.0
H78 H 0.20646 0.33877 0.17016 0.0
H79 H 0.12927 0.38981 0.12969 0.0
H80 H 0.08556 0.79181 0.1131 0.0
H81 H 0.10452 0.95619 0.1037 0.0
H82 H 0.16202 0.84044 0.11635 0.0
H83 H 0.07346 0.885 0.10616 0.0
Tb84 Tb 0.89224 0.83474 0.13751 0.0
C85 C 0.81665 0.96724 0.09204 0.0
N86 N 0.84131 0.9697 0.08804 0.0
C87 C 0.83375 0.96336 0.04727 0.0
C88 C 0.79966 0.95954 0.0739 0.0
C89 C 0.84975 0.97207 0.06585 0.0
C90 C 0.80863 0.95581 0.05135 0.0
C91 C 0.78287 0.97835 0.119 0.0
C92 C 0.80829 0.97677 0.11418 0.0
C93 C 0.7659 0.96774 0.10126 0.0
C94 C 0.77428 0.95828 0.07874 0.0
Tb95 Tb 0.86565 0.98055 0.1202 0.0
N96 N 0.82527 0.9857 0.13098 0.0
C97 C 0.77536 0.99169 0.14138 0.0
C98 C 0.81811 1.00202 0.15246 0.0
C99 C 0.79306 1.00442 0.15809 0.0
H100 H 0.86875 0.98171 0.06228 0.0
H101 H 0.78742 0.01593 0.17529 0.0
H102 H 0.91498 0.84502 0.18979 0.0
H103 H 0.93183 0.74333 0.06114 0.0
H104 H 0.8318 1.01169 0.16534 0.0
H105 H 0.75597 0.99342 0.1458 0.0
H106 H 0.89799 0.7698 0.087 0.0
H107 H 0.84073 0.96361 0.02979 0.0
H108 H 0.74626 0.96812 0.10464 0.0
H109 H 0.76096 0.95181 0.06508 0.0
H110 H 0.956 0.84221 0.20862 0.0
H111 H 0.79622 0.9499 0.03691 0.0
H112 H 0.97518 0.75394 0.07374 0.0
N113 N 0.92916 0.83094 0.15626 0.0
C114 C 0.94914 0.81806 0.14344 0.0
C115 C 0.95436 0.83583 0.19021 0.0
C116 C 0.97289 0.81605 0.15326 0.0
C117 C 0.9312 0.83761 0.17955 0.0
C118 C 0.97538 0.82591 0.17693 0.0
N119 N 0.9218 0.8018 0.1129 0.0
C120 C 0.91678 0.77727 0.0923 0.0
C121 C 0.96532 0.78711 0.10699 0.0
C122 C 0.94536 0.80387 0.12075 0.0
C123 C 0.96038 0.76719 0.0849 0.0
C124 C 0.93594 0.76116 0.07773 0.0
H125 H 0.9933 0.82463 0.1852 0.0
H126 H 0.0116 0.8017 0.14638 0.0
H127 H 1.00498 0.77629 0.10576 0.0
O128 O 0.89488 0.74985 0.13936 0.0
O129 O 0.91567 0.90551 0.14396 0.0
O130 O 0.9058 0.96775 0.1158 0.0
O131 O 0.87002 0.79447 0.1617 0.0
O132 O 0.88038 0.85114 0.10162 0.0
O133 O 0.8889 0.94004 0.09456 0.0
O134 O 0.87199 0.05321 0.13783 0.0
O135 O 0.84281 0.91622 0.13619 0.0
O136 O 0.85786 0.84263 0.11844 0.0
O137 O 0.86143 0.05365 0.10237 0.0
O138 O 0.87908 0.97415 0.15528 0.0
O139 O 0.87805 0.88431 0.16674 0.0
C140 C 0.92193 0.94436 0.12973 0.0
C141 C 0.86976 0.69713 0.16623 0.0
C142 C 0.86544 0.5992 0.1661 0.0
C143 C 0.85017 0.60307 0.18559 0.0
C144 C 0.85451 0.69955 0.18576 0.0
C145 C 0.84491 0.65282 0.19539 0.0
C146 C 0.87549 0.64655 0.1566 0.0
C147 C 0.88798 0.88967 0.0878 0.0
C148 C 0.87823 0.74769 0.1554 0.0
C149 C 0.99312 0.80269 0.13929 0.0
C150 C 0.98934 0.78834 0.11614 0.0
C151 C 0.83921 0.86832 0.12733 0.0
C152 C 0.88689 0.12439 0.11515 0.0
C153 C 0.8999 0.21856 0.11702 0.0
C154 C 0.92216 0.20396 0.10622 0.0
C155 C 0.90925 0.11102 0.10453 0.0
C156 C 0.88232 0.17802 0.12146 0.0
C157 C 0.92677 0.15065 0.10014 0.0
C158 C 0.87736 0.93671 0.17117 0.0
C159 C 0.86825 0.0828 0.11978 0.0
H160 H 0.84242 0.5674 0.1934 0.0
H161 H 0.84979 0.73771 0.19352 0.0
H162 H 0.83316 0.6552 0.21042 0.0
H163 H 0.887 0.6441 0.14138 0.0
H164 H 0.93595 0.2338 0.10209 0.0
H165 H 0.91306 0.07003 0.09954 0.0
H166 H 0.86517 0.18783 0.13004 0.0
H167 H 0.94395 0.14008 0.09184 0.0
Tb168 Tb 0.12733 0.83434 0.36817 0.0
C169 C 0.21406 0.96581 0.39046 0.0
N170 N 0.19304 0.96318 0.40311 0.0
C171 C 0.21657 0.94554 0.43729 0.0
C172 C 0.23717 0.95534 0.40054 0.0
C173 C 0.19396 0.95525 0.4264 0.0
C174 C 0.23824 0.94489 0.42426 0.0
C175 C 0.23329 0.97921 0.35329 0.0
C176 C 0.21203 0.97712 0.36716 0.0
C177 C 0.25636 0.96699 0.363 0.0
C178 C 0.25831 0.95515 0.3866 0.0
Tb179 Tb 0.15712 0.97737 0.38362 0.0
N180 N 0.18928 0.98742 0.35828 0.0
C181 C 0.23078 0.99456 0.3302 0.0
C182 C 0.18714 1.00738 0.33642 0.0
C183 C 0.20767 1.00991 0.32189 0.0
H184 H 0.17722 0.95555 0.43646 0.0
H185 H 0.2057 0.02456 0.30441 0.0
H186 H 0.1295 0.81579 0.31117 0.0
H187 H 0.0525 0.79095 0.42623 0.0
H188 H 0.16989 0.02306 0.33025 0.0
H189 H 0.24667 0.99677 0.31895 0.0
H190 H 0.0962 0.80261 0.41495 0.0
H191 H 0.21725 0.93825 0.45568 0.0
H192 H 0.27278 0.96731 0.35242 0.0
H193 H 0.27619 0.94616 0.39396 0.0
H194 H 0.10023 0.81825 0.27849 0.0
H195 H 0.25569 0.93673 0.43269 0.0
H196 H 0.01944 0.80201 0.39707 0.0
N197 N 0.10193 0.8293 0.33656 0.0
C198 C 0.07738 0.82913 0.34099 0.0
C199 C 0.09354 0.82232 0.29598 0.0
C200 C 0.05985 0.82819 0.32303 0.0
C201 C 0.11013 0.8221 0.3145 0.0
C202 C 0.06828 0.82661 0.30024 0.0
N203 N 0.08766 0.82193 0.38011 0.0
C204 C 0.08183 0.8076 0.4022 0.0
C205 C 0.04486 0.81804 0.36915 0.0
C206 C 0.06996 0.82423 0.36361 0.0
C207 C 0.03853 0.8072 0.39209 0.0
C208 C 0.05715 0.80086 0.4086 0.0
H209 H 0.05543 0.82588 0.28591 0.0
H210 H 0.02082 0.8259 0.3149 0.0
H211 H 1.00768 0.81694 0.35538 0.0
O212 O 0.14412 0.77085 0.38619 0.0
O213 O 0.10347 0.89603 0.38366 0.0
O214 O 0.1182 0.97848 0.37199 0.0
O215 O 0.1226 0.75529 0.35593 0.0
O216 O 0.13788 0.84813 0.40487 0.0
O217 O 0.13681 0.94039 0.41176 0.0
O218 O 0.16525 0.05934 0.37874 0.0
O219 O 0.17562 0.89883 0.3884 0.0
O220 O 0.16463 0.85257 0.35656 0.0
O221 O 0.14957 0.0317 0.41043 0.0
O222 O 0.13889 0.97157 0.35008 0.0
O223 O 0.14289 0.88263 0.33925 0.0
C224 C 0.09982 0.94602 0.37735 0.0
C225 C 0.15435 0.6937 0.3647 0.0
C226 C 0.16732 0.59975 0.3637 0.0
C227 C 0.18937 0.61551 0.35292 0.0
C228 C 0.17605 0.70831 0.35328 0.0
C229 C 0.1936 0.66946 0.34767 0.0
C230 C 0.14996 0.63942 0.36971 0.0
C231 C 0.13586 0.89017 0.41881 0.0
C232 C 0.13629 0.73437 0.37194 0.0
C233 C 0.03461 0.82595 0.32844 0.0
C234 C 0.02713 0.82075 0.35149 0.0
C235 C 0.18153 0.86621 0.37153 0.0
C236 C 0.13649 0.1163 0.39667 0.0
C237 C 0.12579 0.21071 0.39037 0.0
C238 C 0.10074 0.19721 0.39304 0.0
C239 C 0.11133 0.104 0.39889 0.0
C240 C 0.14363 0.16967 0.39235 0.0
C241 C 0.09363 0.14431 0.39716 0.0
C242 C 0.13902 0.93378 0.33421 0.0
C243 C 0.15524 0.07346 0.39812 0.0
H244 H 0.20304 0.58601 0.348 0.0
H245 H 0.17929 0.74963 0.34872 0.0
H246 H 0.21045 0.68113 0.33904 0.0
H247 H 0.13309 0.62815 0.37847 0.0
H248 H 0.08652 0.22763 0.39217 0.0
H249 H 0.1053 0.06323 0.40197 0.0
H250 H 0.163 0.17884 0.3901 0.0
H251 H 0.0743 0.13451 0.39903 0.0
Tb252 Tb 0.89354 0.18759 0.36466 0.0
C253 C 0.80989 0.05119 0.39245 0.0
N254 N 0.83139 0.05856 0.40409 0.0
C255 C 0.80908 0.07849 0.43868 0.0
C256 C 0.78701 0.05988 0.40324 0.0
C257 C 0.83137 0.06996 0.42713 0.0
C258 C 0.78681 0.07406 0.42662 0.0
C259 C 0.7892 0.02811 0.35676 0.0
C260 C 0.81108 0.03583 0.3695 0.0
C261 C 0.76628 0.0382 0.3672 0.0
C262 C 0.76519 0.054 0.39039 0.0
Tb263 Tb 0.86662 0.0435 0.38378 0.0
N264 N 0.83362 0.02659 0.35999 0.0
C265 C 0.79099 1.00911 0.33413 0.0
C266 C 0.83522 1.00353 0.33865 0.0
C267 C 0.81408 0.99581 0.3252 0.0
H268 H 0.84856 0.07313 0.43645 0.0
H269 H 0.81558 0.97861 0.30812 0.0
H270 H 0.8854 0.20381 0.30814 0.0
H271 H 0.97212 0.23124 0.41876 0.0
H272 H 0.85258 0.98934 0.33209 0.0
H273 H 0.77463 1.00262 0.32374 0.0
H274 H 0.92807 0.21399 0.41051 0.0
H275 H 0.80908 0.08854 0.45684 0.0
H276 H 0.74929 0.03291 0.35761 0.0
H277 H 0.74739 0.06098 0.39829 0.0
H278 H 0.91173 0.2122 0.27363 0.0
H279 H 0.76959 0.08101 0.43557 0.0
H280 H 1.00225 0.23412 0.38677 0.0
N281 N 0.91561 0.19933 0.33152 0.0
C282 C 0.94027 0.20604 0.33432 0.0
C283 C 0.92004 0.20972 0.29058 0.0
C284 C 0.95599 0.21282 0.31522 0.0
C285 C 0.90519 0.20391 0.31013 0.0
C286 C 0.94561 0.21332 0.29311 0.0
N287 N 0.9336 0.20422 0.37441 0.0
C288 C 0.94116 0.21463 0.3965 0.0
C289 C 0.97476 0.21967 0.36036 0.0
C290 C 0.94954 0.20947 0.35653 0.0
C291 C 0.983 0.22626 0.38308 0.0
C292 C 0.96605 0.2246 0.4012 0.0
H293 H 0.95705 0.21841 0.27796 0.0
H294 H 0.9938 0.22539 0.30442 0.0
H295 H 0.01023 0.23134 0.34397 0.0
O296 O 0.87526 0.24918 0.38288 0.0
O297 O 0.92073 0.12793 0.37662 0.0
O298 O 0.90513 0.04156 0.37144 0.0
O299 O 0.89637 0.26695 0.35266 0.0
O300 O 0.88516 0.1756 0.40168 0.0
O301 O 0.88962 0.08453 0.40891 0.0
O302 O 0.86048 0.95913 0.38147 0.0
O303 O 0.84714 0.12134 0.38737 0.0
O304 O 0.85649 0.16434 0.35428 0.0
O305 O 0.8759 0.99586 0.41231 0.0
O306 O 0.88268 0.04686 0.34927 0.0
O307 O 0.8777 0.13516 0.33735 0.0
C308 C 0.92361 0.07607 0.37312 0.0
C309 C 0.86394 0.32619 0.3613 0.0
C310 C 0.84994 0.41975 0.36029 0.0
C311 C 0.83029 0.40386 0.3459 0.0
C312 C 0.84454 0.31168 0.34663 0.0
C313 C 0.82762 0.35025 0.33924 0.0
C314 C 0.86653 0.38004 0.36815 0.0
C315 C 0.88899 0.13472 0.41576 0.0
C316 C 0.88242 0.28651 0.36872 0.0
C317 C 0.98137 0.2206 0.31888 0.0
C318 C 0.99073 0.22407 0.3414 0.0
C319 C 0.84029 0.15171 0.36999 0.0
C320 C 0.8706 0.89914 0.41392 0.0
C321 C 0.87069 0.80087 0.41327 0.0
C322 C 0.87711 0.80074 0.43676 0.0
C323 C 0.87685 0.89757 0.43746 0.0
C324 C 0.86712 0.85037 0.4019 0.0
C325 C 0.87997 0.84873 0.44876 0.0
C326 C 0.88191 0.08377 0.33302 0.0
C327 C 0.86897 0.95187 0.40221 0.0
H328 H 0.81733 0.43299 0.33921 0.0
H329 H 0.84279 0.2708 0.34065 0.0
H330 H 0.81262 0.33874 0.32793 0.0
H331 H 0.8816 0.39084 0.37953 0.0
H332 H 0.87978 0.76326 0.44589 0.0
H333 H 0.87953 0.93422 0.44719 0.0
H334 H 0.86244 0.85082 0.38372 0.0
H335 H 0.88484 0.84808 0.46687 0.0
Tb336 Tb 0.86185 0.98994 0.88741 0.0
C337 C 0.94858 0.85429 0.85568 0.0
N338 N 0.927 0.859 0.84394 0.0
C339 C 0.9492 0.87431 0.8088 0.0
C340 C 0.97143 0.86069 0.8445 0.0
C341 C 0.92699 0.86782 0.82069 0.0
C342 C 0.97153 0.87118 0.82079 0.0
C343 C 0.9695 0.83488 0.89159 0.0
C344 C 0.94753 0.84254 0.87895 0.0
C345 C 0.99237 0.84338 0.88083 0.0
C346 C 0.99333 0.8563 0.85732 0.0
Tb347 Tb 0.89164 0.85125 0.8651 0.0
N348 N 0.92503 0.83464 0.88871 0.0
C349 C 0.96784 0.81638 0.91429 0.0
C350 C 0.92369 0.80968 0.9097 0.0
C351 C 0.94485 0.80225 0.92314 0.0
H352 H 0.90982 0.87002 0.81139 0.0
H353 H 0.94346 0.7845 0.94012 0.0
H354 H 0.86703 0.99228 0.94457 0.0
H355 H 0.78279 0.99449 0.83053 0.0
H356 H 0.90639 0.79466 0.91621 0.0
H357 H 0.98425 0.80992 0.9246 0.0
H358 H 0.82694 0.9943 0.83989 0.0
H359 H 0.94908 0.8818 0.79041 0.0
H360 H 0.00942 0.83848 0.89036 0.0
H361 H 0.01109 0.86177 0.84914 0.0
H362 H 0.83905 0.98986 0.97806 0.0
H363 H 0.9887 0.87641 0.81155 0.0
H364 H 0.75191 0.99261 0.86171 0.0
N365 N 0.83805 0.98978 0.91982 0.0
C366 C 0.81329 0.99016 0.91618 0.0
C367 C 0.83157 0.98967 0.96074 0.0
C368 C 0.79662 0.98989 0.93478 0.0
C369 C 0.84739 0.99027 0.94171 0.0
C370 C 0.80607 0.98936 0.95727 0.0
N371 N 0.82144 0.98932 0.87616 0.0
C372 C 0.81385 0.99209 0.85374 0.0
C373 C 0.77916 0.99093 0.88905 0.0
C374 C 0.80465 0.99034 0.89361 0.0
C375 C 0.7713 0.99188 0.86604 0.0
C376 C 0.78872 0.99281 0.84835 0.0
H377 H 0.79387 0.98906 0.97205 0.0
H378 H 0.75803 0.98996 0.9444 0.0
H379 H 0.74277 0.99118 0.90445 0.0
O380 O 0.86417 0.06347 0.86967 0.0
O381 O 0.8396 0.91517 0.88926 0.0
O382 O 0.85257 0.86502 0.85849 0.0
O383 O 0.86303 0.06164 0.90664 0.0
O384 O 0.87076 0.9852 0.85058 0.0
O385 O 0.87268 0.89652 0.83748 0.0
O386 O 0.8817 0.77269 0.87481 0.0
O387 O 0.91165 0.92708 0.8599 0.0
O388 O 0.90218 0.98043 0.89098 0.0
O389 O 0.894 0.78916 0.84055 0.0
O390 O 0.87886 0.86022 0.90141 0.0
O391 O 0.88688 0.94837 0.91046 0.0
C392 C 0.83608 0.87636 0.87419 0.0
C393 C 0.84666 0.13865 0.88831 0.0
C394 C 0.84066 0.2355 0.88409 0.0
C395 C 0.81525 0.22814 0.88779 0.0
C396 C 0.82131 0.13254 0.89207 0.0
C397 C 0.80572 0.177 0.89174 0.0
C398 C 0.85627 0.19022 0.88436 0.0
C399 C 0.87091 0.94903 0.83393 0.0
C400 C 0.8634 0.09202 0.88845 0.0
C401 C 0.77115 0.99013 0.93033 0.0
C402 C 0.76245 0.99077 0.90754 0.0
C403 C 0.91796 0.96252 0.87551 0.0
C404 C 0.90418 0.70441 0.85628 0.0
C405 C 0.90906 0.60772 0.86212 0.0
C406 C 0.93466 0.6137 0.85919 0.0
C407 C 0.92976 0.70916 0.85338 0.0
C408 C 0.8939 0.6536 0.86062 0.0
C409 C 0.94487 0.66406 0.85488 0.0
C410 C 0.88458 0.89798 0.91649 0.0
C411 C 0.88805 0.75201 0.85516 0.0
H412 H 0.80277 0.26203 0.88803 0.0
H413 H 0.81353 0.09366 0.89537 0.0
H414 H 0.78617 0.17184 0.89472 0.0
H415 H 0.87586 0.19493 0.88129 0.0
H416 H 0.94682 0.57929 0.85986 0.0
H417 H 0.9381 0.74756 0.84984 0.0
H418 H 0.87417 0.65002 0.8631 0.0
H419 H 0.96457 0.6681 0.85255 0.0
Tb420 Tb 0.15336 0.04715 0.88649 0.0
C421 C 0.07665 0.20064 0.83576 0.0
N422 N 0.10141 0.19821 0.83246 0.0
C423 C 0.09558 0.20822 0.79165 0.0
C424 C 0.06027 0.20589 0.81699 0.0
C425 C 0.11107 0.20295 0.81082 0.0
C426 C 0.07005 0.2093 0.79472 0.0
C427 C 0.04217 0.19989 0.86231 0.0
C428 C 0.06773 0.19772 0.8581 0.0
C429 C 0.02573 0.20457 0.84367 0.0
C430 C 0.03476 0.20758 0.82107 0.0
Tb431 Tb 0.12486 0.18634 0.86486 0.0
N432 N 0.08421 0.19116 0.87564 0.0
C433 C 0.03393 0.19727 0.88512 0.0
C434 C 0.07628 0.19188 0.89798 0.0
C435 C 0.05109 0.19397 0.90304 0.0
H436 H 0.13076 0.20446 0.80849 0.0
H437 H 0.04494 0.1935 0.92078 0.0
H438 H 0.15718 0.05754 0.9434 0.0
H439 H 0.22313 0.03094 0.8199 0.0
H440 H 0.08909 0.19166 0.91208 0.0
H441 H 0.01444 0.19873 0.88911 0.0
H442 H 0.18104 0.0288 0.83504 0.0
H443 H 0.10335 0.21187 0.77454 0.0
H444 H 1.00601 0.20605 0.84656 0.0
H445 H 0.02186 0.21139 0.80686 0.0
H446 H 0.19008 0.06642 0.97261 0.0
H447 H 0.05809 0.21341 0.77983 0.0
H448 H 0.25841 0.04282 0.84647 0.0
N449 N 0.18198 0.05464 0.9151 0.0
C450 C 0.20592 0.05284 0.90819 0.0
C451 C 0.19478 0.06304 0.95453 0.0
C452 C 0.22531 0.05749 0.92427 0.0
C453 C 0.17616 0.05873 0.93792 0.0
C454 C 0.21946 0.06266 0.94768 0.0
N455 N 0.19157 0.04591 0.86966 0.0
C456 C 0.19585 0.03731 0.84675 0.0
C457 C 0.23545 0.04833 0.87688 0.0
C458 C 0.21087 0.04864 0.88473 0.0
C459 C 0.2398 0.04323 0.85321 0.0
C460 C 0.21992 0.03696 0.83814 0.0
H461 H 0.23384 0.06623 0.96059 0.0
H462 H 0.26497 0.06101 0.92856 0.0
H463 H 0.27386 0.05284 0.8871 0.0
O464 O 0.15566 0.96946 0.87247 0.0
O465 O 0.17322 0.12416 0.89109 0.0
O466 O 0.16372 0.16996 0.8583 0.0
O467 O 0.15239 0.98104 0.90899 0.0
O468 O 0.13996 0.05146 0.8509 0.0
O469 O 0.14537 0.13924 0.83895 0.0
O470 O 0.13213 0.25465 0.88512 0.0
O471 O 0.10032 0.11674 0.86228 0.0
O472 O 0.11275 0.05243 0.88883 0.0
O473 O 0.12558 0.2619 0.84876 0.0
O474 O 0.13274 0.17561 0.90232 0.0
O475 O 0.12836 0.08513 0.9105 0.0
C476 C 0.17929 0.15825 0.87482 0.0
C477 C 0.13364 0.90423 0.89312 0.0
C478 C 0.12238 0.8098 0.88943 0.0
C479 C 0.09761 0.82361 0.89352 0.0
C480 C 0.10887 0.91704 0.89736 0.0
C481 C 0.09096 0.87691 0.89745 0.0
C482 C 0.14031 0.85067 0.88916 0.0
C483 C 0.14187 0.08772 0.83449 0.0
C484 C 0.15264 0.94624 0.89234 0.0
C485 C 0.24981 0.05742 0.91647 0.0
C486 C 0.25486 0.05288 0.89284 0.0
C487 C 0.09609 0.07439 0.87512 0.0
C488 C 0.1511 0.32694 0.8658 0.0
C489 C 0.16434 0.42038 0.86774 0.0
C490 C 0.18843 0.40423 0.86206 0.0
C491 C 0.17501 0.31183 0.85953 0.0
C492 C 0.14582 0.38112 0.86987 0.0
C493 C 0.19367 0.3502 0.85797 0.0
C494 C 0.12875 0.13563 0.91685 0.0
C495 C 0.13122 0.28718 0.86757 0.0
H496 H 0.08341 0.79312 0.8941 0.0
H497 H 0.10337 0.95788 0.90071 0.0
H498 H 0.07189 0.88712 0.90072 0.0
H499 H 0.15941 0.841 0.88562 0.0
H500 H 0.20303 0.43346 0.86012 0.0
H501 H 0.17904 0.27061 0.85555 0.0
H502 H 0.12724 0.39267 0.87461 0.0
H503 H 0.21215 0.33819 0.8532 0.0
Tb504 Tb 0.86124 0.04972 0.62293 0.0
C505 C 0.94046 0.19576 0.66602 0.0
N506 N 0.91583 0.19615 0.67008 0.0
C507 C 0.92361 0.20113 0.71084 0.0
C508 C 0.9577 0.19546 0.68423 0.0
C509 C 0.90731 0.2025 0.6921 0.0
C510 C 0.94891 0.19643 0.70691 0.0
C511 C 0.97357 0.20584 0.63838 0.0
C512 C 0.94833 0.20085 0.64353 0.0
C513 C 0.99097 0.20215 0.6563 0.0
C514 C 0.98304 0.19686 0.67921 0.0
Tb515 Tb 0.89097 0.19322 0.63801 0.0
N516 N 0.93095 0.20395 0.62675 0.0
C517 C 0.98042 0.21631 0.61554 0.0
C518 C 0.93732 0.21785 0.60474 0.0
C519 C 0.96217 0.22338 0.59873 0.0
H520 H 0.88794 0.20898 0.69531 0.0
H521 H 0.96724 0.23294 0.58116 0.0
H522 H 0.8419 0.07063 0.56978 0.0
H523 H 0.81156 0.99962 0.70116 0.0
H524 H 0.92322 0.22334 0.59176 0.0
H525 H 0.99964 0.22057 0.61085 0.0
H526 H 0.84786 1.0034 0.67595 0.0
H527 H 0.91666 0.2046 0.72826 0.0
H528 H 0.01052 0.20511 0.65271 0.0
H529 H 0.9966 0.19599 0.69295 0.0
H530 H 0.8021 0.08604 0.54985 0.0
H531 H 0.96152 0.19621 0.72142 0.0
H532 H 0.77054 0.02498 0.68592 0.0
N533 N 0.82553 0.06284 0.60289 0.0
C534 C 0.8043 0.05942 0.61518 0.0
C535 C 0.80249 0.07899 0.56827 0.0
C536 C 0.78125 0.0683 0.60465 0.0
C537 C 0.82497 0.07037 0.57956 0.0
C538 C 0.78056 0.07859 0.58091 0.0
N539 N 0.82864 0.03856 0.64771 0.0
C540 C 0.83055 0.01832 0.66954 0.0
C541 C 0.78441 0.0441 0.65191 0.0
C542 C 0.80597 0.048 0.63848 0.0
C543 C 0.78664 0.02849 0.67499 0.0
C544 C 0.80977 0.01446 0.68369 0.0
H545 H 0.7632 0.08559 0.57214 0.0
H546 H 0.74186 0.0736 0.61043 0.0
H547 H 0.7446 0.05208 0.65182 0.0
O548 O 0.85347 0.96751 0.62758 0.0
O549 O 0.84259 0.12764 0.61709 0.0
O550 O 0.85318 0.17608 0.64855 0.0
O551 O 0.87002 0.99568 0.59636 0.0
O552 O 0.87851 0.05759 0.65689 0.0
O553 O 0.87336 0.14693 0.66635 0.0
O554 O 0.876 0.25768 0.61926 0.0
O555 O 0.91486 0.13061 0.62323 0.0
O556 O 0.89968 0.04935 0.63578 0.0
O557 O 0.89555 0.27183 0.65079 0.0
O558 O 0.88069 0.17884 0.60136 0.0
O559 O 0.88202 0.08639 0.59504 0.0
C560 C 0.83657 0.16149 0.63346 0.0
C561 C 0.88319 0.91153 0.61047 0.0
C562 C 0.8942 0.81739 0.61685 0.0
C563 C 0.91926 0.83156 0.61505 0.0
C564 C 0.90834 0.92454 0.60904 0.0
C565 C 0.92621 0.88471 0.61128 0.0
C566 C 0.87621 0.85796 0.61444 0.0
C567 C 0.87722 0.09637 0.67225 0.0
C568 C 0.86421 0.95375 0.60851 0.0
C569 C 0.75978 0.06645 0.61813 0.0
C570 C 0.76135 0.05439 0.64172 0.0
C571 C 0.91823 0.08082 0.62992 0.0
C572 C 0.86465 0.3342 0.64059 0.0
C573 C 0.85178 0.42817 0.64127 0.0
C574 C 0.82905 0.41236 0.65074 0.0
C575 C 0.8422 0.31947 0.65063 0.0
C576 C 0.86945 0.38854 0.63609 0.0
C577 C 0.82439 0.35833 0.65547 0.0
C578 C 0.88299 0.13639 0.58772 0.0
C579 C 0.88305 0.29354 0.63414 0.0
H580 H 0.9336 0.80149 0.61633 0.0
H581 H 0.91422 0.96548 0.60617 0.0
H582 H 0.94554 0.89506 0.61004 0.0
H583 H 0.85682 0.84826 0.61606 0.0
H584 H 0.81512 0.44186 0.65499 0.0
H585 H 0.83852 0.27805 0.6547 0.0
H586 H 0.88686 0.39986 0.62833 0.0
H587 H 0.80699 0.34658 0.66305 0.0
Tb588 Tb 0.15242 0.97711 0.62143 0.0
C589 C 0.07291 0.82557 0.66909 0.0
N590 N 0.0974 0.82875 0.67379 0.0
C591 C 0.08896 0.82243 0.71432 0.0
C592 C 0.05537 0.82134 0.68689 0.0
C593 C 0.10564 0.82638 0.69603 0.0
C594 C 0.06369 0.82021 0.70975 0.0
C595 C 0.0403 0.82191 0.64049 0.0
C596 C 0.06548 0.82611 0.64623 0.0
C597 C 0.02268 0.81841 0.65815 0.0
C598 C 0.0302 0.81816 0.6813 0.0
Tb599 Tb 0.123 0.83773 0.64275 0.0
N600 N 0.08312 0.83056 0.62965 0.0
C601 C 0.03365 0.8208 0.61718 0.0
C602 C 0.07676 0.82609 0.60693 0.0
C603 C 0.052 0.82216 0.60035 0.0
H604 H 0.12513 0.82601 0.69961 0.0
H605 H 0.0471 0.81945 0.58228 0.0
H606 H 0.1601 0.96163 0.5652 0.0
H607 H 0.2176 1.00581 0.69147 0.0
H608 H 0.09052 0.82417 0.59369 0.0
H609 H 0.0145 0.81761 0.61202 0.0
H610 H 0.17667 1.00474 0.67366 0.0
H611 H 0.09563 0.82066 0.73191 0.0
H612 H 1.00322 0.81546 0.65408 0.0
H613 H 0.01642 0.81508 0.69474 0.0
H614 H 0.19493 0.95174 0.53815 0.0
H615 H 0.05082 0.81699 0.72394 0.0
H616 H 0.25463 0.99028 0.6676 0.0
N617 N 0.183 0.96719 0.59486 0.0
C618 C 0.20644 0.96974 0.60321 0.0
C619 C 0.19841 0.95647 0.55643 0.0
C620 C 0.22687 0.96491 0.5884 0.0
C621 C 0.1787 0.96142 0.5718 0.0
C622 C 0.22259 0.95806 0.56475 0.0
N623 N 0.18946 0.98057 0.64057 0.0
C624 C 0.1922 0.99373 0.66329 0.0
C625 C 0.23376 0.97883 0.63612 0.0
C626 C 0.20975 0.97615 0.62683 0.0
C627 C 0.2365 0.98785 0.65978 0.0
C628 C 0.21563 0.9962 0.67335 0.0
H629 H 0.23781 0.95417 0.55279 0.0
H630 H 0.26675 0.96277 0.58659 0.0
H631 H 0.2728 0.97528 0.62832 0.0
O632 O 0.1524 0.05626 0.63412 0.0
O633 O 0.17257 0.90008 0.6171 0.0
O634 O 0.16155 0.85578 0.64959 0.0
O635 O 0.15182 0.04111 0.59771 0.0
O636 O 0.13802 0.97343 0.65667 0.0
O637 O 0.14302 0.88569 0.66876 0.0
O638 O 0.13042 0.76694 0.62408 0.0
O639 O 0.09834 0.90756 0.64451 0.0
O640 O 0.11174 0.97235 0.61851 0.0
O641 O 0.1271 0.7653 0.66092 0.0
O642 O 0.13223 0.84779 0.60555 0.0
O643 O 0.12799 0.93816 0.59705 0.0
C644 C 0.17719 0.86352 0.63285 0.0
C645 C 0.17017 0.12232 0.61022 0.0
C646 C 0.17764 0.21899 0.61009 0.0
C647 C 0.20236 0.20931 0.60412 0.0
C648 C 0.19481 0.11363 0.60401 0.0
C649 C 0.21082 0.1569 0.60109 0.0
C650 C 0.16169 0.17503 0.61322 0.0
C651 C 0.13955 0.93722 0.67314 0.0
C652 C 0.15286 0.07755 0.61367 0.0
C653 C 0.25079 0.96661 0.59767 0.0
C654 C 0.25423 0.97354 0.62146 0.0
C655 C 0.09456 0.95022 0.63164 0.0
C656 C 0.11462 0.68775 0.64084 0.0
C657 C 0.11165 0.5912 0.63404 0.0
C658 C 0.08621 0.5939 0.63867 0.0
C659 C 0.08928 0.68919 0.64549 0.0
C660 C 0.12576 0.63864 0.63513 0.0
C661 C 0.07517 0.64261 0.64431 0.0
C662 C 0.12854 0.88757 0.59082 0.0
C663 C 0.12971 0.73674 0.64238 0.0
H664 H 0.21502 0.24224 0.60136 0.0
H665 H 0.20171 0.07373 0.60128 0.0
H666 H 0.22981 0.1498 0.59627 0.0
H667 H 0.14267 0.18172 0.61817 0.0
H668 H 0.0749 0.55813 0.63841 0.0
H669 H 0.08039 0.72602 0.6503 0.0
H670 H 0.14534 0.63749 0.63148 0.0
H671 H 0.05563 0.64417 0.64804 0.0
Tb672 Tb 0.62602 0.68666 0.14522 0.0
C673 C 0.70867 0.5536 0.10639 0.0
N674 N 0.6855 0.55758 0.09749 0.0
C675 C 0.70203 0.57015 0.05959 0.0
C676 C 0.72954 0.55869 0.09214 0.0
C677 C 0.68186 0.56502 0.07442 0.0
C678 C 0.72597 0.5671 0.06848 0.0
C679 C 0.73501 0.542 0.13984 0.0
C680 C 0.71127 0.54577 0.13002 0.0
C681 C 0.7559 0.54748 0.12574 0.0
C682 C 0.75318 0.55577 0.10196 0.0
Tb683 Tb 0.65421 0.5461 0.1231 0.0
N684 N 0.69058 0.54118 0.14324 0.0
C685 C 0.73706 0.53178 0.16348 0.0
C686 C 0.69264 0.52693 0.16591 0.0
C687 C 0.71578 0.52339 0.17647 0.0
H688 H 0.66343 0.56623 0.06742 0.0
H689 H 0.71721 0.51291 0.19454 0.0
H690 H 0.63125 0.70048 0.20184 0.0
H691 H 0.54758 0.70953 0.08817 0.0
H692 H 0.67677 0.51586 0.17583 0.0
H693 H 0.75495 0.5285 0.17169 0.0
H694 H 0.59149 0.70111 0.09777 0.0
H695 H 0.69911 0.57621 0.0413 0.0
H696 H 0.77427 0.54488 0.13303 0.0
H697 H 0.76947 0.55979 0.09131 0.0
H698 H 0.6035 0.70745 0.23547 0.0
H699 H 0.74154 0.57121 0.05694 0.0
H700 H 0.5165 0.71411 0.11928 0.0
N701 N 0.60215 0.69755 0.17738 0.0
C702 C 0.57748 0.70198 0.1738 0.0
C703 C 0.59591 0.70543 0.21821 0.0
C704 C 0.56094 0.70744 0.19235 0.0
C705 C 0.61157 0.70046 0.19919 0.0
C706 C 0.57045 0.70851 0.2148 0.0
N707 N 0.58565 0.69661 0.13402 0.0
C708 C 0.57829 0.70111 0.11155 0.0
C709 C 0.54357 0.70809 0.14665 0.0
C710 C 0.56891 0.70222 0.15131 0.0
C711 C 0.53583 0.70965 0.12363 0.0
C712 C 0.55331 0.70681 0.10603 0.0
H713 H 0.55836 0.71263 0.22955 0.0
H714 H 0.52252 0.7162 0.2019 0.0
H715 H 0.50731 0.71679 0.16184 0.0
O716 O 0.63407 0.75622 0.12589 0.0
O717 O 0.59956 0.62002 0.14457 0.0
O718 O 0.61342 0.54887 0.12176 0.0
O719 O 0.63151 0.75951 0.16274 0.0
O720 O 0.63409 0.67615 0.10781 0.0
O721 O 0.62977 0.58573 0.09898 0.0
O722 O 0.65532 0.46582 0.13432 0.0
O723 O 0.67414 0.62326 0.11855 0.0
O724 O 0.66437 0.66592 0.15171 0.0
O725 O 0.65292 0.48439 0.09827 0.0
O726 O 0.63903 0.54886 0.158 0.0
O727 O 0.64497 0.63564 0.17084 0.0
C728 C 0.59605 0.57468 0.13339 0.0
C729 C 0.61923 0.83677 0.14242 0.0
C730 C 0.6165 0.93304 0.13477 0.0
C731 C 0.59132 0.9314 0.14055 0.0
C732 C 0.59417 0.83653 0.14827 0.0
C733 C 0.58029 0.88343 0.14721 0.0
C734 C 0.63039 0.88522 0.1357 0.0
C735 C 0.62968 0.63656 0.09311 0.0
C736 C 0.63401 0.78723 0.14396 0.0
C737 C 0.53556 0.71221 0.18787 0.0
C738 C 0.52689 0.71258 0.16506 0.0
C739 C 0.67955 0.65872 0.13456 0.0
C740 C 0.67212 0.40229 0.10858 0.0
C741 C 0.68011 0.30581 0.10774 0.0
C742 C 0.70412 0.31616 0.09982 0.0
C743 C 0.69599 0.41166 0.10028 0.0
C744 C 0.66428 0.34934 0.11225 0.0
C745 C 0.71193 0.36881 0.09609 0.0
C746 C 0.64016 0.58445 0.17473 0.0
C747 C 0.65489 0.4465 0.11352 0.0
H748 H 0.58022 0.96749 0.14046 0.0
H749 H 0.58534 0.80044 0.15401 0.0
H750 H 0.56098 0.88273 0.15188 0.0
H751 H 0.64978 0.88559 0.13123 0.0
H752 H 0.71665 0.28355 0.096 0.0
H753 H 0.70231 0.45175 0.09685 0.0
H754 H 0.64583 0.34211 0.11871 0.0
H755 H 0.73034 0.3764 0.08969 0.0
Tb756 Tb 0.39096 0.33957 0.13819 0.0
C757 C 0.30477 0.4755 0.11459 0.0
N758 N 0.32566 0.46916 0.10201 0.0
C759 C 0.30161 0.45057 0.06821 0.0
C760 C 0.28137 0.46699 0.10471 0.0
C761 C 0.32445 0.45895 0.07888 0.0
C762 C 0.27999 0.45394 0.08124 0.0
C763 C 0.28594 0.49727 0.15122 0.0
C764 C 0.30713 0.49004 0.13751 0.0
C765 C 0.26252 0.48719 0.14172 0.0
C766 C 0.26024 0.47213 0.1185 0.0
Tb767 Tb 0.36197 0.48292 0.12094 0.0
N768 N 0.33013 0.49943 0.14603 0.0
C769 C 0.28891 0.51592 0.1738 0.0
C770 C 0.33282 0.52223 0.16732 0.0
C771 C 0.31242 0.52946 0.18172 0.0
H772 H 0.34114 0.45649 0.0688 0.0
H773 H 0.3148 0.54647 0.19876 0.0
H774 H 0.38939 0.32526 0.19542 0.0
H775 H 0.46536 0.29363 0.07989 0.0
H776 H 0.35048 0.53657 0.1731 0.0
H777 H 0.27312 0.52205 0.18491 0.0
H778 H 0.42171 0.30511 0.09142 0.0
H779 H 0.3007 0.44143 0.04998 0.0
H780 H 0.24603 0.49203 0.15205 0.0
H781 H 0.24205 0.46529 0.11132 0.0
H782 H 0.41903 0.3303 0.22777 0.0
H783 H 0.26234 0.44714 0.07296 0.0
H784 H 0.49864 0.30698 0.10864 0.0
N785 N 0.41665 0.33714 0.16961 0.0
C786 C 0.44115 0.3368 0.16493 0.0
C787 C 0.4255 0.33316 0.21016 0.0
C788 C 0.45888 0.33737 0.18272 0.0
C789 C 0.40871 0.33147 0.19183 0.0
C790 C 0.45071 0.33736 0.2056 0.0
N791 N 0.43051 0.32674 0.12595 0.0
C792 C 0.43619 0.31113 0.10398 0.0
C793 C 0.47342 0.32421 0.1366 0.0
C794 C 0.44836 0.33034 0.14228 0.0
C795 C 0.47958 0.31212 0.11373 0.0
C796 C 0.46083 0.3045 0.09745 0.0
H797 H 0.46371 0.33781 0.21981 0.0
H798 H 0.498 0.33618 0.1905 0.0
H799 H 0.51075 0.32466 0.15003 0.0
O800 O 0.37321 0.27446 0.12193 0.0
O801 O 0.41461 0.40013 0.12163 0.0
O802 O 0.40071 0.48323 0.13318 0.0
O803 O 0.3965 0.26164 0.15121 0.0
O804 O 0.37979 0.35015 0.10152 0.0
O805 O 0.38163 0.44178 0.09345 0.0
O806 O 0.35523 0.56709 0.12332 0.0
O807 O 0.3424 0.40518 0.11744 0.0
O808 O 0.35389 0.36029 0.14959 0.0
O809 O 0.37203 0.5314 0.09295 0.0
O810 O 0.37977 0.47835 0.15475 0.0
O811 O 0.37558 0.38992 0.16655 0.0
C812 C 0.41881 0.44982 0.12805 0.0
C813 C 0.36429 0.19964 0.14548 0.0
C814 C 0.34983 0.10654 0.14752 0.0
C815 C 0.33133 0.12316 0.16297 0.0
C816 C 0.34599 0.2149 0.16115 0.0
C817 C 0.32946 0.17689 0.16967 0.0
C818 C 0.36616 0.14559 0.13869 0.0
C819 C 0.38199 0.39106 0.08706 0.0
C820 C 0.38187 0.23926 0.13634 0.0
C821 C 0.48406 0.33508 0.1771 0.0
C822 C 0.49133 0.3284 0.15406 0.0
C823 C 0.33688 0.37268 0.1345 0.0
C824 C 0.36621 0.62797 0.09146 0.0
C825 C 0.36737 0.72617 0.09259 0.0
C826 C 0.37317 0.72663 0.06899 0.0
C827 C 0.37185 0.62987 0.06782 0.0
C828 C 0.36355 0.67657 0.10379 0.0
C829 C 0.37518 0.67885 0.0567 0.0
C830 C 0.37931 0.44146 0.17101 0.0
C831 C 0.3645 0.57501 0.10296 0.0
H832 H 0.3186 0.09451 0.17036 0.0
H833 H 0.34469 0.25606 0.16691 0.0
H834 H 0.3153 0.189 0.18173 0.0
H835 H 0.38029 0.13418 0.12645 0.0
H836 H 0.37604 0.76422 0.06001 0.0
H837 H 0.3739 0.59335 0.05787 0.0
H838 H 0.35939 0.67585 0.12207 0.0
H839 H 0.37959 0.67975 0.0385 0.0
Tb840 Tb 0.62833 0.33285 0.36814 0.0
C841 C 0.71447 0.45745 0.39541 0.0
N842 N 0.69275 0.45488 0.40704 0.0
C843 C 0.71418 0.43351 0.44202 0.0
C844 C 0.73694 0.44564 0.40652 0.0
C845 C 0.69228 0.44461 0.43017 0.0
C846 C 0.73659 0.4336 0.43012 0.0
C847 C 0.73591 0.46998 0.35917 0.0
C848 C 0.71385 0.46923 0.37199 0.0
C849 C 0.75832 0.45719 0.37004 0.0
C850 C 0.75886 0.44529 0.39367 0.0
Tb851 Tb 0.6584 0.47461 0.38609 0.0
N852 N 0.6917 0.4799 0.36183 0.0
C853 C 0.73483 0.48416 0.33585 0.0
C854 C 0.69096 0.49826 0.33964 0.0
C855 C 0.71232 0.49936 0.32618 0.0
H856 H 0.67499 0.44461 0.43939 0.0
H857 H 0.71147 0.51292 0.30846 0.0
H858 H 0.63999 0.30372 0.31357 0.0
H859 H 0.54578 0.30599 0.41891 0.0
H860 H 0.67424 0.51405 0.33235 0.0
H861 H 0.75136 0.48524 0.3254 0.0
H862 H 0.59049 0.31855 0.41281 0.0
H863 H 0.71377 0.42471 0.46029 0.0
H864 H 0.77533 0.45669 0.36033 0.0
H865 H 0.77631 0.43574 0.40181 0.0
H866 H 0.61588 0.2883 0.27783 0.0
H867 H 0.75347 0.42436 0.43929 0.0
H868 H 0.51776 0.29738 0.38535 0.0
N869 N 0.60829 0.31383 0.33455 0.0
C870 C 0.58341 0.30943 0.33602 0.0
C871 C 0.6065 0.2948 0.29405 0.0
C872 C 0.56891 0.29921 0.31633 0.0
C873 C 0.62008 0.30431 0.31418 0.0
C874 C 0.58076 0.29304 0.29506 0.0
N875 N 0.58754 0.31984 0.37619 0.0
C876 C 0.57839 0.31526 0.39808 0.0
C877 C 0.54713 0.30389 0.36026 0.0
C878 C 0.57268 0.31161 0.35764 0.0
C879 C 0.53733 0.30313 0.38258 0.0
C880 C 0.55309 0.308 0.40158 0.0
H881 H 0.57029 0.28516 0.27949 0.0
H882 H 0.53172 0.28639 0.30371 0.0
H883 H 0.51264 0.29059 0.3422 0.0
O884 O 0.64631 0.27463 0.38851 0.0
O885 O 0.60099 0.39535 0.37522 0.0
O886 O 0.61813 0.48098 0.38022 0.0
O887 O 0.62506 0.2516 0.35885 0.0
O888 O 0.63446 0.34905 0.40542 0.0
O889 O 0.63444 0.4413 0.41226 0.0
O890 O 0.66558 0.55617 0.3789 0.0
O891 O 0.67485 0.39379 0.39016 0.0
O892 O 0.66551 0.35192 0.35695 0.0
O893 O 0.65802 0.53013 0.41333 0.0
O894 O 0.64053 0.472 0.35233 0.0
O895 O 0.64387 0.38361 0.34031 0.0
C896 C 0.59921 0.44774 0.37757 0.0
C897 C 0.65779 0.19466 0.36915 0.0
C898 C 0.671 0.10084 0.36856 0.0
C899 C 0.69256 0.11636 0.35687 0.0
C900 C 0.67882 0.20883 0.35662 0.0
C901 C 0.69636 0.17004 0.35091 0.0
C902 C 0.65388 0.14067 0.37498 0.0
C903 C 0.63164 0.39134 0.419 0.0
C904 C 0.63917 0.23499 0.37545 0.0
C905 C 0.54324 0.29377 0.31866 0.0
C906 C 0.53237 0.29608 0.34059 0.0
C907 C 0.68182 0.36417 0.37263 0.0
C908 C 0.64363 0.61606 0.40274 0.0
C909 C 0.6337 0.71152 0.39904 0.0
C910 C 0.61003 0.70079 0.40783 0.0
C911 C 0.61996 0.60671 0.4116 0.0
C912 C 0.65046 0.66859 0.39653 0.0
C913 C 0.60326 0.6488 0.41401 0.0
C914 C 0.63947 0.43497 0.33616 0.0
C915 C 0.66119 0.57127 0.39992 0.0
H916 H 0.70605 0.08681 0.35159 0.0
H917 H 0.68139 0.24961 0.35098 0.0
H918 H 0.7127 0.18143 0.34141 0.0
H919 H 0.63736 0.12969 0.38435 0.0
H920 H 0.59681 0.73279 0.41037 0.0
H921 H 0.61446 0.56685 0.41682 0.0
H922 H 0.66869 0.67579 0.38956 0.0
H923 H 0.58506 0.64115 0.42087 0.0
Tb924 Tb 0.39431 0.68568 0.36735 0.0
C925 C 0.30879 0.54705 0.39315 0.0
N926 N 0.33069 0.55256 0.40435 0.0
C927 C 0.30948 0.56752 0.44003 0.0
C928 C 0.28627 0.55351 0.40488 0.0
C929 C 0.33138 0.56132 0.4276 0.0
C930 C 0.28683 0.56398 0.4286 0.0
C931 C 0.28688 0.532 0.35729 0.0
C932 C 0.30919 0.53688 0.36965 0.0
C933 C 0.26433 0.53894 0.36881 0.0
C934 C 0.26402 0.54964 0.39255 0.0
Tb935 Tb 0.36521 0.54065 0.38254 0.0
N936 N 0.33141 0.53095 0.35903 0.0
C937 C 0.28791 0.51936 0.33381 0.0
C938 C 0.33232 0.51469 0.33655 0.0
C939 C 0.31072 0.50986 0.3235 0.0
H940 H 0.34875 0.56273 0.43664 0.0
H941 H 0.31166 0.49775 0.30559 0.0
H942 H 0.39422 0.70213 0.31009 0.0
H943 H 0.46663 0.73067 0.42819 0.0
H944 H 0.34946 0.5033 0.32872 0.0
H945 H 0.2712 0.51521 0.3237 0.0
H946 H 0.42345 0.71768 0.41535 0.0
H947 H 0.31009 0.57479 0.45843 0.0
H948 H 0.24701 0.5356 0.35957 0.0
H949 H 0.24649 0.55468 0.40122 0.0
H950 H 0.42478 0.69982 0.27863 0.0
H951 H 0.26991 0.56906 0.43827 0.0
H952 H 0.50079 0.72112 0.40019 0.0
N953 N 0.42081 0.69021 0.33663 0.0
C954 C 0.44517 0.69165 0.34202 0.0
C955 C 0.43078 0.69645 0.29638 0.0
C956 C 0.4634 0.69283 0.32474 0.0
C957 C 0.41345 0.69646 0.31423 0.0
C958 C 0.45588 0.6934 0.30164 0.0
N959 N 0.43338 0.69891 0.38082 0.0
C960 C 0.43831 0.7132 0.40313 0.0
C961 C 0.47652 0.70436 0.37136 0.0
C962 C 0.45169 0.69732 0.36493 0.0
C963 C 0.48193 0.71529 0.39453 0.0
C964 C 0.46269 0.72074 0.41039 0.0
H965 H 0.46929 0.69429 0.28781 0.0
H966 H 0.50269 0.69647 0.31807 0.0
H967 H 0.51419 0.70659 0.35898 0.0
O968 O 0.37662 0.74993 0.38429 0.0
O969 O 0.41833 0.6245 0.38298 0.0
O970 O 0.40412 0.54197 0.37091 0.0
O971 O 0.39977 0.76433 0.35518 0.0
O972 O 0.38246 0.67062 0.40345 0.0
O973 O 0.38573 0.57865 0.41043 0.0
O974 O 0.35959 0.45898 0.37486 0.0
O975 O 0.34516 0.61776 0.38657 0.0
O976 O 0.35729 0.66562 0.35538 0.0
O977 O 0.37341 0.48271 0.40796 0.0
O978 O 0.38262 0.54837 0.34879 0.0
O979 O 0.37931 0.63775 0.33803 0.0
C980 C 0.42232 0.57499 0.37625 0.0
C981 C 0.36723 0.82509 0.36112 0.0
C982 C 0.35043 0.91634 0.3604 0.0
C983 C 0.33297 0.89926 0.34395 0.0
C984 C 0.34989 0.80945 0.3445 0.0
C985 C 0.33277 0.84632 0.33608 0.0
C986 C 0.36763 0.87867 0.36892 0.0
C987 C 0.38547 0.62901 0.41743 0.0
C988 C 0.38511 0.78592 0.37018 0.0
C989 C 0.48838 0.6962 0.33109 0.0
C990 C 0.49493 0.70208 0.35438 0.0
C991 C 0.34006 0.65205 0.37001 0.0
C992 C 0.35108 0.40031 0.40575 0.0
C993 C 0.33918 0.30544 0.408 0.0
C994 C 0.3221 0.31895 0.42531 0.0
C995 C 0.33388 0.41243 0.42299 0.0
C996 C 0.35374 0.34666 0.39836 0.0
C997 C 0.31952 0.37194 0.43269 0.0
C998 C 0.38261 0.58635 0.33302 0.0
C999 C 0.36638 0.44265 0.39513 0.0
H1000 H 0.31963 0.92709 0.33686 0.0
H1001 H 0.34975 0.76881 0.33797 0.0
H1002 H 0.31936 0.8339 0.3233 0.0
H1003 H 0.38105 0.89074 0.38178 0.0
H1004 H 0.31088 0.28838 0.43339 0.0
H1005 H 0.33156 0.453 0.42908 0.0
H1006 H 0.36686 0.33725 0.38487 0.0
H1007 H 0.30634 0.38165 0.44606 0.0
Tb1008 Tb 0.36256 0.4823 0.88666 0.0
C1009 C 0.43815 0.32781 0.83337 0.0
N1010 N 0.41342 0.33298 0.8305 0.0
C1011 C 0.41834 0.32746 0.78944 0.0
C1012 C 0.45408 0.32293 0.81432 0.0
C1013 C 0.4033 0.33185 0.80893 0.0
C1014 C 0.44387 0.3233 0.79213 0.0
C1015 C 0.47291 0.32026 0.85951 0.0
C1016 C 0.44745 0.32665 0.8556 0.0
C1017 C 0.48896 0.31608 0.84061 0.0
C1018 C 0.47957 0.31746 0.81806 0.0
Tb1019 Tb 0.39069 0.34224 0.86343 0.0
N1020 N 0.43133 0.33203 0.87341 0.0
C1021 C 0.4814 0.318 0.8823 0.0
C1022 C 0.43938 0.32713 0.89564 0.0
C1023 C 0.46451 0.32085 0.90042 0.0
H1024 H 0.38355 0.33304 0.80677 0.0
H1025 H 0.47083 0.3178 0.91809 0.0
H1026 H 0.35346 0.45977 0.94218 0.0
H1027 H 0.2993 0.51802 0.81566 0.0
H1028 H 0.42662 0.32749 0.90979 0.0
H1029 H 0.50084 0.31313 0.88607 0.0
H1030 H 0.33974 0.51601 0.83447 0.0
H1031 H 0.41022 0.32681 0.77238 0.0
H1032 H 0.50862 0.31143 0.84324 0.0
H1033 H 0.49213 0.31384 0.80364 0.0
H1034 H 0.31786 0.44643 0.96814 0.0
H1035 H 0.45547 0.31968 0.77702 0.0
H1036 H 0.26168 0.49873 0.8382 0.0
N1037 N 0.3313 0.46911 0.91219 0.0
C1038 C 0.3081 0.47232 0.90331 0.0
C1039 C 0.31488 0.45342 0.94992 0.0
C1040 C 0.28728 0.46508 0.91745 0.0
C1041 C 0.335 0.46057 0.93518 0.0
C1042 C 0.29093 0.4555 0.94102 0.0
N1043 N 0.32611 0.48756 0.86664 0.0
C1044 C 0.32395 0.50336 0.84417 0.0
C1045 C 0.2817 0.48433 0.86993 0.0
C1046 C 0.30545 0.48124 0.87976 0.0
C1047 C 0.27959 0.49593 0.84641 0.0
C1048 C 0.3008 0.50639 0.83359 0.0
H1049 H 0.2754 0.44975 0.95247 0.0
H1050 H 0.24737 0.46155 0.91815 0.0
H1051 H 0.24247 0.47886 0.87662 0.0
O1052 O 0.36191 0.56279 0.8758 0.0
O1053 O 0.34305 0.40457 0.89098 0.0
O1054 O 0.35251 0.36416 0.85729 0.0
O1055 O 0.36332 0.54346 0.91181 0.0
O1056 O 0.37745 0.48071 0.85158 0.0
O1057 O 0.37071 0.39421 0.83901 0.0
O1058 O 0.38228 0.2726 0.88258 0.0
O1059 O 0.41715 0.40869 0.8646 0.0
O1060 O 0.4033 0.4795 0.88767 0.0
O1061 O 0.38537 0.26951 0.84575 0.0
O1062 O 0.38335 0.35151 0.90095 0.0
O1063 O 0.38718 0.44187 0.91047 0.0
C1064 C 0.33747 0.37037 0.87458 0.0
C1065 C 0.34448 0.62593 0.90124 0.0
C1066 C 0.33635 0.72246 0.90159 0.0
C1067 C 0.31204 0.71195 0.90864 0.0
C1068 C 0.32026 0.61644 0.90856 0.0
C1069 C 0.30413 0.65926 0.91213 0.0
C1070 C 0.35243 0.67894 0.89782 0.0
C1071 C 0.37594 0.44504 0.83493 0.0
C1072 C 0.36182 0.5817 0.89667 0.0
C1073 C 0.26363 0.46717 0.9076 0.0
C1074 C 0.26085 0.4768 0.88392 0.0
C1075 C 0.42059 0.45402 0.87582 0.0
C1076 C 0.3972 0.19195 0.86617 0.0
C1077 C 0.39976 0.09564 0.874 0.0
C1078 C 0.425 0.09718 0.86841 0.0
C1079 C 0.42232 0.19203 0.86055 0.0
C1080 C 0.38592 0.14354 0.87284 0.0
C1081 C 0.43613 0.14506 0.86178 0.0
C1082 C 0.38765 0.39068 0.91587 0.0
C1083 C 0.38254 0.24168 0.86447 0.0
H1084 H 0.29928 0.74448 0.9119 0.0
H1085 H 0.3138 0.57623 0.9116 0.0
H1086 H 0.28545 0.6516 0.91777 0.0
H1087 H 0.37111 0.68621 0.89199 0.0
H1088 H 0.43608 0.06106 0.86867 0.0
H1089 H 0.43126 0.22809 0.85486 0.0
H1090 H 0.36649 0.14327 0.87715 0.0
H1091 H 0.45549 0.14564 0.85729 0.0
Tb1092 Tb 0.65376 0.54716 0.88499 0.0
C1093 C 0.57449 0.7001 0.84544 0.0
N1094 N 0.59888 0.69865 0.84025 0.0
C1095 C 0.5891 0.70534 0.79993 0.0
C1096 C 0.55635 0.70151 0.82802 0.0
C1097 C 0.60635 0.70504 0.8179 0.0
C1098 C 0.56398 0.70236 0.80498 0.0
C1099 C 0.54299 0.71219 0.87457 0.0
C1100 C 0.56786 0.70538 0.8683 0.0
C1101 C 0.52466 0.71017 0.85743 0.0
C1102 C 0.53134 0.70475 0.83418 0.0
Tb1103 Tb 0.62521 0.6934 0.8712 0.0
N1104 N 0.58608 0.70677 0.88434 0.0
C1105 C 0.53745 0.72257 0.89774 0.0
C1106 C 0.58103 0.7205 0.90667 0.0
C1107 C 0.5566 0.72774 0.91377 0.0
H1108 H 0.62561 0.7104 0.81386 0.0
H1109 H 0.55257 0.73721 0.93159 0.0
H1110 H 0.67194 0.56809 0.93875 0.0
H1111 H 0.70484 0.50231 0.80701 0.0
H1112 H 0.59583 0.72464 0.91904 0.0
H1113 H 0.51856 0.72816 0.90327 0.0
H1114 H 0.66784 0.50776 0.83117 0.0
H1115 H 0.59519 0.70881 0.78222 0.0
H1116 H 0.50538 0.71453 0.8619 0.0
H1117 H 0.51709 0.7052 0.82105 0.0
H1118 H 0.71129 0.58 0.95962 0.0
H1119 H 0.55064 0.70345 0.79105 0.0
H1120 H 0.74585 0.52073 0.82397 0.0
N1121 N 0.68899 0.55841 0.90601 0.0
C1122 C 0.71053 0.55316 0.89427 0.0
C1123 C 0.71131 0.57296 0.9412 0.0
C1124 C 0.7334 0.55961 0.90545 0.0
C1125 C 0.68904 0.56673 0.9293 0.0
C1126 C 0.73359 0.5698 0.9292 0.0
N1127 N 0.68684 0.53692 0.86076 0.0
C1128 C 0.68521 0.51983 0.83842 0.0
C1129 C 0.73127 0.53806 0.8579 0.0
C1130 C 0.70938 0.54307 0.87079 0.0
C1131 C 0.72949 0.525 0.83449 0.0
C1132 C 0.70636 0.51495 0.82482 0.0
H1133 H 0.7508 0.57488 0.93846 0.0
H1134 H 0.77303 0.5609 0.90082 0.0
H1135 H 0.77118 0.54172 0.85919 0.0
O1136 O 0.65901 0.46547 0.87711 0.0
O1137 O 0.67384 0.62391 0.88995 0.0
O1138 O 0.66196 0.67281 0.85903 0.0
O1139 O 0.64552 0.48895 0.91028 0.0
O1140 O 0.63601 0.55687 0.85129 0.0
O1141 O 0.64054 0.6466 0.84179 0.0
O1142 O 0.64348 0.75656 0.88837 0.0
O1143 O 0.60126 0.63204 0.88658 0.0
O1144 O 0.61488 0.55008 0.87337 0.0
O1145 O 0.61992 0.77258 0.85961 0.0
O1146 O 0.63667 0.67687 0.90743 0.0
O1147 O 0.6339 0.58432 0.9135 0.0
C1148 C 0.67912 0.6584 0.87358 0.0
C1149 C 0.66787 0.40657 0.90783 0.0
C1150 C 0.6801 0.3118 0.90971 0.0
C1151 C 0.69726 0.32522 0.92702 0.0
C1152 C 0.68512 0.41856 0.92511 0.0
C1153 C 0.6997 0.3781 0.9346 0.0
C1154 C 0.66536 0.35303 0.90024 0.0
C1155 C 0.63674 0.59586 0.83599 0.0
C1156 C 0.6524 0.44896 0.89736 0.0
C1157 C 0.75524 0.55586 0.89258 0.0
C1158 C 0.75418 0.54513 0.86886 0.0
C1159 C 0.59694 0.5831 0.87931 0.0
C1160 C 0.65339 0.83106 0.86509 0.0
C1161 C 0.67112 0.92136 0.86369 0.0
C1162 C 0.68832 0.90281 0.84735 0.0
C1163 C 0.67051 0.81389 0.8486 0.0
C1164 C 0.65358 0.88492 0.87248 0.0
C1165 C 0.68796 0.84956 0.8399 0.0
C1166 C 0.6341 0.63435 0.92102 0.0
C1167 C 0.63515 0.79316 0.87443 0.0
H1168 H 0.70862 0.29467 0.935 0.0
H1169 H 0.6873 0.45901 0.93138 0.0
H1170 H 0.71292 0.38774 0.94799 0.0
H1171 H 0.65219 0.34372 0.88674 0.0
H1172 H 0.7019 0.92971 0.84005 0.0
H1173 H 0.67027 0.77297 0.84239 0.0
H1174 H 0.64034 0.89815 0.88526 0.0
H1175 H 0.70118 0.83596 0.82722 0.0
Tb1176 Tb 0.36236 0.54204 0.62105 0.0
C1177 C 0.44764 0.69591 0.64482 0.0
N1178 N 0.4273 0.68557 0.65758 0.0
C1179 C 0.45234 0.67553 0.69144 0.0
C1180 C 0.4714 0.69386 0.65459 0.0
C1181 C 0.42915 0.67789 0.68084 0.0
C1182 C 0.4736 0.6826 0.67817 0.0
C1183 C 0.4647 0.72577 0.60858 0.0
C1184 C 0.44429 0.71144 0.62225 0.0
C1185 C 0.48863 0.72056 0.61766 0.0
C1186 C 0.49198 0.70467 0.64067 0.0
Tb1187 Tb 0.3904 0.68657 0.63863 0.0
N1188 N 0.42084 0.71706 0.61444 0.0
C1189 C 0.46034 0.74722 0.58665 0.0
C1190 C 0.41653 0.74293 0.59402 0.0
C1191 C 0.43612 0.75694 0.57956 0.0
H1192 H 0.41275 0.67244 0.69106 0.0
H1193 H 0.43254 0.77584 0.56309 0.0
H1194 H 0.36659 0.54059 0.56319 0.0
H1195 H 0.28287 0.51042 0.67489 0.0
H1196 H 0.39796 0.7528 0.58876 0.0
H1197 H 0.47549 0.75872 0.57556 0.0
H1198 H 0.32745 0.51275 0.66566 0.0
H1199 H 0.4538 0.66812 0.70978 0.0
H1200 H 0.50459 0.73064 0.60733 0.0
H1201 H 0.51047 0.70252 0.64772 0.0
H1202 H 0.33936 0.55968 0.53025 0.0
H1203 H 0.49154 0.68068 0.68639 0.0
H1204 H 0.25216 0.53367 0.64485 0.0
N1205 N 0.33873 0.55341 0.58848 0.0
C1206 C 0.31402 0.55687 0.59206 0.0
C1207 C 0.33203 0.56014 0.5476 0.0
C1208 C 0.29745 0.56517 0.57364 0.0
C1209 C 0.3476 0.55085 0.56645 0.0
C1210 C 0.30689 0.56854 0.55125 0.0
N1211 N 0.32176 0.53839 0.63112 0.0
C1212 C 0.31408 0.52279 0.65254 0.0
C1213 C 0.27966 0.54735 0.61846 0.0
C1214 C 0.30518 0.54786 0.61406 0.0
C1215 C 0.27163 0.5346 0.64075 0.0
C1216 C 0.28892 0.52145 0.65776 0.0
H1217 H 0.29481 0.57492 0.5366 0.0
H1218 H 0.25899 0.57437 0.56416 0.0
H1219 H 0.24341 0.5589 0.60348 0.0
O1220 O 0.3687 0.46964 0.63884 0.0
O1221 O 0.33996 0.60778 0.63635 0.0
O1222 O 0.3563 0.68068 0.61897 0.0
O1223 O 0.3575 0.46874 0.60352 0.0
O1224 O 0.3742 0.54863 0.6567 0.0
O1225 O 0.37461 0.63897 0.66763 0.0
O1226 O 0.39465 0.77119 0.64096 0.0
O1227 O 0.41175 0.61334 0.64587 0.0
O1228 O 0.40256 0.55319 0.6169 0.0
O1229 O 0.36833 0.72833 0.66242 0.0
O1230 O 0.37919 0.67117 0.60245 0.0
O1231 O 0.38641 0.58141 0.59578 0.0
C1232 C 0.33715 0.65567 0.62728 0.0
C1233 C 0.38336 0.39848 0.61601 0.0
C1234 C 0.39644 0.30435 0.61749 0.0
C1235 C 0.41864 0.31919 0.60664 0.0
C1236 C 0.40567 0.41213 0.60537 0.0
C1237 C 0.4232 0.37262 0.60076 0.0
C1238 C 0.37886 0.34477 0.62215 0.0
C1239 C 0.3729 0.58685 0.67234 0.0
C1240 C 0.36468 0.43986 0.62088 0.0
C1241 C 0.27199 0.56744 0.57805 0.0
C1242 C 0.26311 0.55846 0.60043 0.0
C1243 C 0.41843 0.5759 0.6312 0.0
C1244 C 0.36982 0.82525 0.66762 0.0
C1245 C 0.36612 0.92325 0.66756 0.0
C1246 C 0.35152 0.91996 0.68751 0.0
C1247 C 0.35522 0.82337 0.6876 0.0
C1248 C 0.37555 0.87557 0.6578 0.0
C1249 C 0.34627 0.87043 0.69749 0.0
C1250 C 0.38642 0.63174 0.5889 0.0
C1251 C 0.37763 0.77443 0.65662 0.0
H1252 H 0.43243 0.28945 0.60234 0.0
H1253 H 0.40948 0.45323 0.60054 0.0
H1254 H 0.44034 0.38339 0.59244 0.0
H1255 H 0.36177 0.33479 0.63078 0.0
H1256 H 0.34428 0.9559 0.69553 0.0
H1257 H 0.35054 0.78539 0.69553 0.0
H1258 H 0.38655 0.87756 0.64224 0.0
H1259 H 0.33504 0.86847 0.71288 0.0
Tb1260 Tb 0.65358 0.48994 0.6209 0.0
C1261 C 0.56678 0.35301 0.65422 0.0
N1262 N 0.58887 0.35723 0.66512 0.0
C1263 C 0.56831 0.36993 0.70131 0.0
C1264 C 0.54446 0.35826 0.6664 0.0
C1265 C 0.58995 0.36464 0.68843 0.0
C1266 C 0.54545 0.36714 0.69023 0.0
C1267 C 0.54426 0.33663 0.61888 0.0
C1268 C 0.56677 0.34332 0.63074 0.0
C1269 C 0.52189 0.34363 0.63071 0.0
C1270 C 0.522 0.35446 0.65444 0.0
Tb1271 Tb 0.62323 0.35158 0.64247 0.0
N1272 N 0.58882 0.33695 0.61991 0.0
C1273 C 0.5449 0.32077 0.59576 0.0
C1274 C 0.58927 0.31482 0.59831 0.0
C1275 C 0.5675 0.30839 0.58564 0.0
H1276 H 0.60751 0.36616 0.69708 0.0
H1277 H 0.56814 0.29265 0.56825 0.0
H1278 H 0.65305 0.48811 0.56366 0.0
H1279 H 0.72828 0.49755 0.68304 0.0
H1280 H 0.60622 0.30071 0.59079 0.0
H1281 H 0.52803 0.31509 0.58602 0.0
H1282 H 0.68505 0.49922 0.67073 0.0
H1283 H 0.56928 0.37613 0.71976 0.0
H1284 H 0.50442 0.33933 0.62181 0.0
H1285 H 0.50463 0.35892 0.66343 0.0
H1286 H 0.68358 0.48264 0.53224 0.0
H1287 H 0.52872 0.37139 0.70024 0.0
H1288 H 0.76153 0.49095 0.65404 0.0
N1289 N 0.67998 0.48699 0.59034 0.0
C1290 C 0.70441 0.48722 0.59568 0.0
C1291 C 0.68968 0.4836 0.55002 0.0
C1292 C 0.7225 0.48494 0.57831 0.0
C1293 C 0.6724 0.48595 0.56787 0.0
C1294 C 0.71484 0.48292 0.55525 0.0
N1295 N 0.6931 0.48966 0.63504 0.0
C1296 C 0.69904 0.49441 0.65784 0.0
C1297 C 0.73632 0.48867 0.62506 0.0
C1298 C 0.71122 0.48884 0.61878 0.0
C1299 C 0.74244 0.49097 0.64849 0.0
C1300 C 0.72372 0.4944 0.66491 0.0
H1301 H 0.72816 0.48111 0.54137 0.0
H1302 H 0.76174 0.48267 0.5714 0.0
H1303 H 0.77384 0.48605 0.61231 0.0
O1304 O 0.65182 0.56523 0.63732 0.0
O1305 O 0.67515 0.4143 0.61853 0.0
O1306 O 0.66208 0.36634 0.6497 0.0
O1307 O 0.6527 0.5597 0.60041 0.0
O1308 O 0.64251 0.48588 0.65723 0.0
O1309 O 0.64214 0.39718 0.6701 0.0
O1310 O 0.63298 0.27388 0.63134 0.0
O1311 O 0.60242 0.42647 0.64714 0.0
O1312 O 0.61316 0.48145 0.61687 0.0
O1313 O 0.62178 0.28767 0.66618 0.0
O1314 O 0.63583 0.3607 0.60607 0.0
O1315 O 0.62897 0.44947 0.59703 0.0
C1316 C 0.67863 0.37625 0.63392 0.0
C1317 C 0.66938 0.63825 0.61725 0.0
C1318 C 0.67562 0.73523 0.62051 0.0
C1319 C 0.70086 0.72753 0.61601 0.0
C1320 C 0.69456 0.63175 0.61269 0.0
C1321 C 0.71019 0.67614 0.61213 0.0
C1322 C 0.65998 0.69005 0.62112 0.0
C1323 C 0.64262 0.44974 0.67387 0.0
C1324 C 0.65257 0.59184 0.61804 0.0
C1325 C 0.74755 0.48448 0.5845 0.0
C1326 C 0.75445 0.48636 0.60781 0.0
C1327 C 0.59683 0.46304 0.63176 0.0
C1328 C 0.61149 0.20377 0.64969 0.0
C1329 C 0.60701 0.10705 0.64358 0.0
C1330 C 0.58143 0.11239 0.64696 0.0
C1331 C 0.58595 0.20785 0.65303 0.0
C1332 C 0.62195 0.15328 0.64498 0.0
C1333 C 0.57106 0.16243 0.65162 0.0
C1334 C 0.6307 0.39892 0.59098 0.0
C1335 C 0.6274 0.2517 0.6509 0.0
H1336 H 0.71335 0.76133 0.61508 0.0
H1337 H 0.70217 0.59261 0.60945 0.0
H1338 H 0.72961 0.67073 0.60854 0.0
H1339 H 0.64053 0.69501 0.62481 0.0
H1340 H 0.56943 0.07772 0.64641 0.0
H1341 H 0.57749 0.24597 0.65686 0.0
H1342 H 0.64165 0.15021 0.64218 0.0
H1343 H 0.55138 0.16596 0.6543 0.0
H1344 H 0.2062 0.19032 0.17311 0.0
H1345 H 0.30758 0.34612 0.09741 0.0
H1346 H 0.20788 0.18492 0.09886 0.0
H1347 H 0.31249 0.32854 0.17121 0.0
H1348 H 0.26978 0.29202 0.09759 0.0
H1349 H 0.2441 0.24402 0.17282 0.0
C1350 C 0.21459 0.20042 0.15673 0.0
C1351 C 0.20372 0.1835 0.13598 0.0
C1352 C 0.27913 0.29988 0.11376 0.0
C1353 C 0.24722 0.24525 0.13545 0.0
C1354 C 0.30064 0.33113 0.11368 0.0
C1355 C 0.31336 0.34166 0.13432 0.0
C1356 C 0.27004 0.27918 0.13467 0.0
C1357 C 0.3035 0.32088 0.15485 0.0
C1358 C 0.23626 0.23104 0.15656 0.0
C1359 C 0.21558 0.19721 0.11527 0.0
N1360 N 0.28252 0.29076 0.15451 0.0
N1361 N 0.23653 0.22753 0.11552 0.0
H1362 H 0.8007 0.88502 0.15768 0.0
H1363 H 0.71203 0.66664 0.09828 0.0
H1364 H 0.82206 0.7885 0.09938 0.0
H1365 H 0.69914 0.72834 0.16668 0.0
H1366 H 0.75033 0.71811 0.09651 0.0
H1367 H 0.76126 0.83637 0.1592 0.0
C1368 C 0.79702 0.85402 0.14507 0.0
C1369 C 0.81473 0.84106 0.12833 0.0
C1370 C 0.73919 0.72033 0.11196 0.0
C1371 C 0.76966 0.7848 0.13003 0.0
C1372 C 0.71734 0.69046 0.11306 0.0
C1373 C 0.7025 0.69181 0.13288 0.0
C1374 C 0.74619 0.75305 0.13063 0.0
C1375 C 0.71002 0.72547 0.1511 0.0
C1376 C 0.77457 0.82595 0.14604 0.0
C1377 C 0.80904 0.79981 0.11265 0.0
N1378 N 0.73125 0.75467 0.14953 0.0
N1379 N 0.78709 0.77341 0.11384 0.0
H1380 H 0.31671 0.69951 0.33344 0.0
H1381 H 0.20892 0.83399 0.40896 0.0
H1382 H 0.30926 0.67401 0.4066 0.0
H1383 H 0.20883 0.83195 0.33467 0.0
H1384 H 0.24735 0.78179 0.40883 0.0
H1385 H 0.27884 0.7531 0.33384 0.0
C1386 C 0.30712 0.70527 0.34962 0.0
C1387 C 0.31636 0.68252 0.37004 0.0
C1388 C 0.23894 0.79268 0.39254 0.0
C1389 C 0.2727 0.74397 0.37066 0.0
C1390 C 0.21706 0.82276 0.39261 0.0
C1391 C 0.2055 0.8369 0.37179 0.0
C1392 C 0.24958 0.77699 0.37147 0.0
C1393 C 0.21696 0.82139 0.35112 0.0
C1394 C 0.28541 0.73575 0.34983 0.0
C1395 C 0.30286 0.69068 0.39043 0.0
N1396 N 0.23827 0.79233 0.35148 0.0
N1397 N 0.28186 0.72091 0.39024 0.0
H1398 H 0.81381 0.18943 0.33339 0.0
H1399 H 0.70784 0.32723 0.4101 0.0
H1400 H 0.8124 0.18123 0.4076 0.0
H1401 H 0.71039 0.33537 0.33592 0.0
H1402 H 0.74628 0.27519 0.40985 0.0
H1403 H 0.77587 0.24256 0.33414 0.0
C1404 C 0.80545 0.19875 0.34987 0.0
C1405 C 0.81642 0.18115 0.37046 0.0
C1406 C 0.73847 0.28835 0.39361 0.0
C1407 C 0.77273 0.24205 0.37152 0.0
C1408 C 0.71659 0.3183 0.39376 0.0
C1409 C 0.7058 0.33523 0.37298 0.0
C1410 C 0.74974 0.27524 0.37251 0.0
C1411 C 0.71795 0.32259 0.35232 0.0
C1412 C 0.78376 0.22912 0.3503 0.0
C1413 C 0.80459 0.19385 0.3913 0.0
N1414 N 0.73915 0.29326 0.3526 0.0
N1415 N 0.78348 0.22365 0.39131 0.0
H1416 H 0.70407 0.69854 0.83667 0.0
H1417 H 0.80246 0.86642 0.90953 0.0
H1418 H 0.70804 0.68685 0.91073 0.0
H1419 H 0.81594 0.81531 0.83959 0.0
H1420 H 0.76457 0.81232 0.90981 0.0
H1421 H 0.74199 0.75206 0.8369 0.0
C1422 C 0.71296 0.70723 0.85299 0.0
C1423 C 0.70283 0.68838 0.87371 0.0
C1424 C 0.77587 0.81297 0.89444 0.0
C1425 C 0.74618 0.75023 0.87415 0.0
C1426 C 0.79744 0.84409 0.8942 0.0
C1427 C 0.81255 0.84536 0.87453 0.0
C1428 C 0.76906 0.78362 0.87472 0.0
C1429 C 0.80503 0.81539 0.8552 0.0
C1430 C 0.73464 0.73766 0.85311 0.0
C1431 C 0.71525 0.70052 0.89436 0.0
N1432 N 0.78382 0.78612 0.85574 0.0
N1433 N 0.73612 0.73112 0.89409 0.0
H1434 H 0.30693 0.35173 0.91176 0.0
H1435 H 0.20772 0.18582 0.83797 0.0
H1436 H 0.31566 0.31412 0.83961 0.0
H1437 H 0.20683 0.1898 0.91226 0.0
H1438 H 0.24652 0.23588 0.83829 0.0
H1439 H 0.26915 0.29741 0.91239 0.0
C1440 C 0.30087 0.33232 0.89603 0.0
C1441 C 0.31448 0.33781 0.87557 0.0
C1442 C 0.23797 0.22568 0.85457 0.0
C1443 C 0.27135 0.27507 0.87622 0.0
C1444 C 0.2158 0.1971 0.85437 0.0
C1445 C 0.2039 0.18429 0.8751 0.0
C1446 C 0.24835 0.24207 0.87567 0.0
C1447 C 0.21535 0.19924 0.89588 0.0
C1448 C 0.27939 0.30097 0.89645 0.0
C1449 C 0.30586 0.31104 0.85581 0.0
N1450 N 0.23679 0.22788 0.89565 0.0
N1451 N 0.28489 0.28116 0.85661 0.0
H1452 H 0.69789 0.31519 0.66887 0.0
H1453 H 0.81003 0.19436 0.59563 0.0
H1454 H 0.71274 0.36477 0.59899 0.0
H1455 H 0.80846 0.19382 0.66991 0.0
H1456 H 0.77161 0.2469 0.59538 0.0
H1457 H 0.73573 0.26179 0.66852 0.0
C1458 C 0.70908 0.31488 0.65341 0.0
C1459 C 0.70202 0.3447 0.63392 0.0
C1460 C 0.77968 0.23528 0.61173 0.0
C1461 C 0.74546 0.28275 0.63335 0.0
C1462 C 0.80149 0.20501 0.61187 0.0
C1463 C 0.81254 0.19016 0.63284 0.0
C1464 C 0.76856 0.24997 0.6327 0.0
C1465 C 0.80067 0.20491 0.65338 0.0
C1466 C 0.73075 0.2844 0.65327 0.0
C1467 C 0.71744 0.3427 0.61445 0.0
N1468 N 0.77936 0.23384 0.6528 0.0
N1469 N 0.7383 0.31203 0.6146 0.0
H1470 H 0.19536 0.79369 0.66537 0.0
H1471 H 0.32156 0.73519 0.59845 0.0
H1472 H 0.21134 0.85672 0.59778 0.0
H1473 H 0.29763 0.6411 0.65659 0.0
H1474 H 0.28245 0.78398 0.59933 0.0
H1475 H 0.23345 0.74108 0.66375 0.0
C1476 C 0.20688 0.79675 0.6502 0.0
C1477 C 0.20022 0.83072 0.63185 0.0
C1478 C 0.28563 0.75247 0.61183 0.0
C1479 C 0.24413 0.77039 0.62995 0.0
C1480 C 0.30803 0.72465 0.6114 0.0
C1481 C 0.31289 0.68372 0.62742 0.0
C1482 C 0.2679 0.74 0.62863 0.0
C1483 C 0.29458 0.67184 0.64374 0.0
C1484 C 0.22866 0.76655 0.64929 0.0
C1485 C 0.21595 0.83246 0.61262 0.0
N1486 N 0.27299 0.70001 0.64402 0.0
N1487 N 0.23716 0.80313 0.61224 0.0
H1488 H 0.15284 0.88274 0.29354 0.0
H1489 H 0.15215 0.1349 0.21347 0.0
H1490 H 0.12082 0.02956 0.31921 0.0
H1491 H 0.12002 0.98799 0.18792 0.0
H1492 H 0.1506 0.09761 0.25278 0.0
H1493 H 0.15073 0.91984 0.25422 0.0
C1494 C 0.14498 0.92215 0.29098 0.0
C1495 C 0.13668 0.95254 0.30982 0.0
C1496 C 0.14382 0.07393 0.23844 0.0
C1497 C 0.13568 0.99626 0.26515 0.0
C1498 C 0.14441 0.09539 0.21607 0.0
C1499 C 0.13592 0.065 0.19726 0.0
C1500 C 0.13553 0.02113 0.24191 0.0
C1501 C 0.12686 1.01303 0.20179 0.0
C1502 C 0.14409 0.94352 0.26859 0.0
C1503 C 0.12752 1.00447 0.30533 0.0
N1504 N 0.12726 0.99249 0.22351 0.0
N1505 N 0.12762 0.02493 0.28359 0.0
H1506 H 0.90229 0.99062 0.31745 0.0
H1507 H 0.87029 0.03984 0.1855 0.0
H1508 H 0.86226 0.1296 0.29369 0.0
H1509 H 0.88258 0.88056 0.2125 0.0
H1510 H 0.87144 0.07531 0.22434 0.0
H1511 H 0.89995 0.9526 0.27863 0.0
C1512 C 0.8932 1.01347 0.30402 0.0
C1513 C 0.88258 0.06372 0.30888 0.0
C1514 C 0.87384 0.03258 0.22183 0.0
C1515 C 0.87996 0.02018 0.26429 0.0
C1516 C 0.87323 1.01194 0.19954 0.0
C1517 C 0.87663 0.95674 0.19542 0.0
C1518 C 0.87825 0.99826 0.24046 0.0
C1519 C 0.8802 0.92331 0.21465 0.0
C1520 C 0.89177 0.99148 0.2819 0.0
C1521 C 0.87113 0.09138 0.29073 0.0
N1522 N 0.88117 0.94468 0.23633 0.0
N1523 N 0.87018 0.0693 0.26924 0.0
H1524 H 0.85701 0.14716 0.71029 0.0
H1525 H 0.8731 0.89315 0.79265 0.0
H1526 H 0.89761 1.00587 0.69023 0.0
H1527 H 0.8662 0.05369 0.8199 0.0
H1528 H 0.87553 0.93104 0.75372 0.0
H1529 H 0.85472 0.11174 0.74984 0.0
C1530 C 0.86578 0.10925 0.71424 0.0
C1531 C 0.87762 0.07964 0.69689 0.0
C1532 C 0.87352 0.95783 0.7683 0.0
C1533 C 0.87418 0.03798 0.74177 0.0
C1534 C 0.87219 0.93623 0.79057 0.0
C1535 C 0.87009 0.9701 0.80982 0.0
C1536 C 0.87211 0.01367 0.76513 0.0
C1537 C 0.86818 0.02572 0.80575 0.0
C1538 C 0.86425 0.0888 0.73674 0.0
C1539 C 0.88817 0.03005 0.70298 0.0
N1540 N 0.8692 0.04567 0.78393 0.0
N1541 N 0.88597 1.01058 0.72476 0.0
H1542 H 0.15529 0.13973 0.79405 0.0
H1543 H 0.15366 0.88507 0.71328 0.0
H1544 H 0.1294 0.9873 0.81967 0.0
H1545 H 0.12699 0.03746 0.68819 0.0
H1546 H 0.1537 0.92172 0.75257 0.0
H1547 H 0.15386 0.10333 0.75471 0.0
C1548 C 0.14884 0.09918 0.79148 0.0
C1549 C 0.14166 0.06736 0.81028 0.0
C1550 C 0.14772 0.9468 0.73838 0.0
C1551 C 0.14161 0.02446 0.76549 0.0
C1552 C 0.14736 0.92571 0.71598 0.0
C1553 C 0.13962 0.95752 0.69734 0.0
C1554 C 0.14115 1.00062 0.74206 0.0
C1555 C 0.13292 1.01108 0.70195 0.0
C1556 C 0.14838 0.07821 0.76905 0.0
C1557 C 0.13489 0.01378 0.80581 0.0
N1558 N 0.13404 0.03103 0.72376 0.0
N1559 N 0.13521 0.99397 0.78397 0.0
H1560 H 0.62397 0.53391 0.32207 0.0
H1561 H 0.62419 0.48544 0.18823 0.0
H1562 H 0.65097 0.38374 0.29499 0.0
H1563 H 0.65407 0.63235 0.21604 0.0
H1564 H 0.62362 0.44756 0.2271 0.0
H1565 H 0.62421 0.57098 0.28306 0.0
C1566 C 0.62965 0.5083 0.30795 0.0
C1567 C 0.63731 0.45513 0.312 0.0
C1568 C 0.63004 0.48828 0.22463 0.0
C1569 C 0.63704 0.49758 0.26715 0.0
C1570 C 0.63035 0.5102 0.20247 0.0
C1571 C 0.63871 0.56298 0.19872 0.0
C1572 C 0.63754 0.51958 0.24339 0.0
C1573 C 0.64654 0.59255 0.21802 0.0
C1574 C 0.62985 0.52976 0.28572 0.0
C1575 C 0.64433 0.42423 0.29282 0.0
N1576 N 0.64552 0.57068 0.23956 0.0
N1577 N 0.64386 0.44578 0.2712 0.0
H1578 H 0.39963 0.48966 0.31805 0.0
H1579 H 0.39821 0.53734 0.18513 0.0
H1580 H 0.36921 0.63815 0.29234 0.0
H1581 H 0.36537 0.3927 0.21208 0.0
H1582 H 0.39907 0.5747 0.22409 0.0
H1583 H 0.39872 0.45325 0.27899 0.0
C1584 C 0.39303 0.51507 0.30421 0.0
C1585 C 0.38454 0.56748 0.30867 0.0
C1586 C 0.39186 0.53467 0.22141 0.0
C1587 C 0.38412 0.52576 0.26371 0.0
C1588 C 0.39139 0.51302 0.19922 0.0
C1589 C 0.38176 0.46138 0.19517 0.0
C1590 C 0.38342 0.50398 0.23994 0.0
C1591 C 0.37344 0.432 0.21429 0.0
C1592 C 0.39246 0.49393 0.28195 0.0
C1593 C 0.37642 0.59818 0.28981 0.0
N1594 N 0.37467 0.45353 0.23591 0.0
N1595 N 0.37659 0.57699 0.26809 0.0
H1596 H 0.39509 0.53976 0.81949 0.0
H1597 H 0.36494 0.48473 0.68752 0.0
H1598 H 0.35563 0.39987 0.79588 0.0
H1599 H 0.37777 0.64512 0.71309 0.0
H1600 H 0.3652 0.45149 0.72672 0.0
H1601 H 0.3929 0.57699 0.78047 0.0
C1602 C 0.38615 0.51657 0.80607 0.0
C1603 C 0.37594 0.46598 0.81093 0.0
C1604 C 0.36789 0.49399 0.72383 0.0
C1605 C 0.3734 0.50861 0.76621 0.0
C1606 C 0.36778 0.51331 0.70132 0.0
C1607 C 0.3716 0.56813 0.69672 0.0
C1608 C 0.37219 0.52927 0.74217 0.0
C1609 C 0.37506 0.60258 0.71564 0.0
C1610 C 0.38483 0.53807 0.78383 0.0
C1611 C 0.36446 0.43808 0.79286 0.0
N1612 N 0.37552 0.58249 0.73755 0.0
N1613 N 0.36363 0.45963 0.77131 0.0
H1614 H 0.65475 0.64851 0.79742 0.0
H1615 H 0.64377 0.39371 0.71521 0.0
H1616 H 0.61755 0.50356 0.81835 0.0
H1617 H 0.64254 0.55483 0.6879 0.0
H1618 H 0.64109 0.43117 0.75427 0.0
H1619 H 0.65641 0.61356 0.75776 0.0
C1620 C 0.64655 0.6099 0.79367 0.0
C1621 C 0.63586 0.57919 0.8113 0.0
C1622 C 0.64134 0.45814 0.73963 0.0
C1623 C 0.6387 0.53804 0.76625 0.0
C1624 C 0.64277 0.43677 0.7173 0.0
C1625 C 0.64274 0.47083 0.69801 0.0
C1626 C 0.6406 0.51405 0.7428 0.0
C1627 C 0.64231 0.52663 0.70207 0.0
C1628 C 0.64775 0.58973 0.77109 0.0
C1629 C 0.6261 0.52866 0.8054 0.0
N1630 N 0.64134 0.54639 0.72393 0.0
N1631 N 0.62802 0.50948 0.78353 0.0
H1632 H 0.09957 0.07986 0.94596 0.0
H1633 H 0.14856 0.21814 0.06224 0.0
H1634 H 0.14968 0.21399 0.94441 0.0
H1635 H 0.1136 0.06309 0.05774 0.0
H1636 H 0.14392 0.22794 0.02007 0.0
H1637 H 0.09844 0.08534 0.98781 0.0
C1638 C 0.11013 0.11102 0.95449 0.0
C1639 C 0.12493 0.14619 0.94173 0.0
C1640 C 0.13716 0.19203 0.02844 0.0
C1641 C 0.12405 0.15227 0.98996 0.0
C1642 C 0.13972 0.18651 0.05245 0.0
C1643 C 0.13166 0.13952 0.06349 0.0
C1644 C 0.12611 0.15064 0.01558 0.0
C1645 C 0.12039 0.09972 0.05 0.0
C1646 C 0.10957 0.114 0.97844 0.0
C1647 C 0.13801 0.18617 0.95366 0.0
N1648 N 0.11799 0.10621 0.02689 0.0
N1649 N 0.13753 0.18776 0.97722 0.0
H1650 H 0.9181 0.9435 0.94483 0.0
H1651 H 0.86327 0.81682 0.06067 0.0
H1652 H 0.86049 0.82455 0.94411 0.0
H1653 H 0.91918 0.93947 0.05819 0.0
H1654 H 0.86499 0.80975 0.01838 0.0
H1655 H 0.92195 0.93295 0.98638 0.0
C1656 C 0.90638 0.91468 0.95349 0.0
C1657 C 0.88881 0.88519 0.94109 0.0
C1658 C 0.87711 0.83766 0.02713 0.0
C1659 C 0.89284 0.87324 0.98897 0.0
C1660 C 0.87625 0.84144 0.05124 0.0
C1661 C 0.89106 0.87896 0.06286 0.0
C1662 C 0.89298 0.87146 0.01466 0.0
C1663 C 0.90734 0.91031 0.04987 0.0
C1664 C 0.90856 0.90867 0.97726 0.0
C1665 C 0.87428 0.848 0.9531 0.0
N1666 N 0.90774 0.90609 0.02652 0.0
N1667 N 0.87639 0.84353 0.97649 0.0
H1668 H 0.11162 0.95685 0.44783 0.0
H1669 H 0.1488 0.80615 0.56447 0.0
H1670 H 0.14983 0.80518 0.44675 0.0
H1671 H 0.10188 0.94537 0.56014 0.0
H1672 H 0.14816 0.79984 0.52197 0.0
H1673 H 0.10686 0.94898 0.48925 0.0
C1674 C 0.11898 0.92162 0.45635 0.0
C1675 C 0.13134 0.88183 0.44378 0.0
C1676 C 0.13776 0.83125 0.53041 0.0
C1677 C 0.12606 0.87253 0.49176 0.0
C1678 C 0.138 0.83465 0.55463 0.0
C1679 C 0.12557 0.87665 0.56581 0.0
C1680 C 0.12492 0.87006 0.51746 0.0
C1681 C 0.11201 0.91276 0.55226 0.0
C1682 C 0.11618 0.91702 0.48011 0.0
C1683 C 0.14017 0.83677 0.4558 0.0
N1684 N 0.11222 0.90884 0.52893 0.0
N1685 N 0.13763 0.83359 0.47922 0.0
H1686 H 0.90707 0.06812 0.55929 0.0
H1687 H 0.87341 0.22094 0.44201 0.0
H1688 H 0.86986 0.22104 0.55931 0.0
H1689 H 0.91139 0.06927 0.44677 0.0
H1690 H 0.87477 0.22803 0.48441 0.0
H1691 H 0.91174 0.0741 0.51784 0.0
C1692 C 0.89991 0.10322 0.55053 0.0
C1693 C 0.88778 0.14386 0.56279 0.0
C1694 C 0.88301 0.19357 0.47608 0.0
C1695 C 0.89295 0.15093 0.5148 0.0
C1696 C 0.88234 0.18963 0.45191 0.0
C1697 C 0.89209 0.1442 0.44084 0.0
C1698 C 0.89363 0.15192 0.48911 0.0
C1699 C 0.90334 0.10471 0.4545 0.0
C1700 C 0.90264 0.1067 0.52675 0.0
C1701 C 0.87929 0.18877 0.55048 0.0
N1702 N 0.90366 0.1094 0.47778 0.0
N1703 N 0.88176 0.19087 0.52705 0.0
H1704 H 0.64936 0.7182 0.06654 0.0
H1705 H 0.61044 0.56728 0.9504 0.0
H1706 H 0.60234 0.57907 0.06288 0.0
H1707 H 0.64873 0.71882 0.94891 0.0
H1708 H 0.6063 0.57517 0.99189 0.0
H1709 H 0.64805 0.72441 0.02405 0.0
C1710 C 0.63838 0.68973 0.05685 0.0
C1711 C 0.62612 0.64777 0.06821 0.0
C1712 C 0.61551 0.60707 0.98263 0.0
C1713 C 0.62475 0.65418 0.01988 0.0
C1714 C 0.61796 0.60245 0.95883 0.0
C1715 C 0.63014 0.64223 0.94613 0.0
C1716 C 0.62556 0.65157 0.99417 0.0
C1717 C 0.6392 0.68722 0.95807 0.0
C1718 C 0.63776 0.69305 0.03264 0.0
C1719 C 0.61234 0.61166 0.05485 0.0
N1720 N 0.63699 0.69043 0.98151 0.0
N1721 N 0.6122 0.61548 0.03152 0.0
H1722 H 0.36751 0.30878 0.94178 0.0
H1723 H 0.41041 0.45079 0.0588 0.0
H1724 H 0.41579 0.4457 0.94631 0.0
H1725 H 0.3649 0.30905 0.05907 0.0
H1726 H 0.41542 0.4421 0.01742 0.0
H1727 H 0.3691 0.3004 0.98416 0.0
C1728 C 0.37885 0.33626 0.95164 0.0
C1729 C 0.39139 0.37827 0.94059 0.0
C1730 C 0.40443 0.41246 0.02637 0.0
C1731 C 0.39314 0.36929 0.98879 0.0
C1732 C 0.40152 0.41752 0.05009 0.0
C1733 C 0.38698 0.38093 0.06236 0.0
C1734 C 0.39243 0.37085 0.01449 0.0
C1735 C 0.37625 0.33814 0.05019 0.0
C1736 C 0.37962 0.33171 0.97579 0.0
C1737 C 0.4056 0.41311 0.95414 0.0
N1738 N 0.37889 0.33463 0.0268 0.0
N1739 N 0.40594 0.40805 0.97741 0.0
H1740 H 0.60637 0.45712 0.44771 0.0
H1741 H 0.65238 0.31936 0.56454 0.0
H1742 H 0.64722 0.3088 0.44728 0.0
H1743 H 0.60124 0.45142 0.56081 0.0
H1744 H 0.64973 0.31001 0.52221 0.0
H1745 H 0.60324 0.45162 0.48947 0.0
C1746 C 0.6145 0.42299 0.45644 0.0
C1747 C 0.62712 0.38344 0.44398 0.0
C1748 C 0.63888 0.34055 0.53075 0.0
C1749 C 0.62397 0.37713 0.49222 0.0
C1750 C 0.64033 0.34573 0.55487 0.0
C1751 C 0.62724 0.38664 0.56613 0.0
C1752 C 0.62423 0.37654 0.51797 0.0
C1753 C 0.61195 0.41984 0.55282 0.0
C1754 C 0.61271 0.4198 0.48037 0.0
C1755 C 0.63719 0.33999 0.45624 0.0
N1756 N 0.61105 0.41434 0.52955 0.0
N1757 N 0.63569 0.33831 0.47976 0.0
H1758 H 0.41748 0.57724 0.56086 0.0
H1759 H 0.36996 0.71455 0.44389 0.0
H1760 H 0.36533 0.70772 0.5606 0.0
H1761 H 0.40916 0.56428 0.44793 0.0
H1762 H 0.3734 0.72325 0.4861 0.0
H1763 H 0.42048 0.58353 0.519 0.0
C1764 C 0.4069 0.60775 0.55195 0.0
C1765 C 0.39099 0.64169 0.56413 0.0
C1766 C 0.38139 0.68868 0.47765 0.0
C1767 C 0.39408 0.64886 0.51607 0.0
C1768 C 0.37953 0.68381 0.4536 0.0
C1769 C 0.38908 0.63838 0.44243 0.0
C1770 C 0.39319 0.64817 0.49044 0.0
C1771 C 0.40123 0.59965 0.45582 0.0
C1772 C 0.40853 0.61123 0.52803 0.0
C1773 C 0.37784 0.68084 0.55179 0.0
N1774 N 0.40287 0.60539 0.47903 0.0
N1775 N 0.37946 0.68301 0.52834 0.0
H1776 H 0.95662 0.93351 0.16391 0.0
H1777 H 0.06259 0.09631 0.09837 0.0
H1778 H 0.94687 0.99994 0.09592 0.0
H1779 H 0.07717 0.99578 0.15723 0.0
H1780 H 0.01962 0.06641 0.09848 0.0
H1781 H 0.99998 0.96018 0.16306 0.0
C1782 C 0.96364 0.95314 0.14867 0.0
C1783 C 0.94805 0.96334 0.12979 0.0
C1784 C 0.03217 0.05065 0.11135 0.0
C1785 C 0.99779 0.99607 0.129 0.0
C1786 C 0.0567 0.06804 0.1114 0.0
C1787 C 0.07343 0.04919 0.12803 0.0
C1788 C 0.02411 0.01406 0.12813 0.0
C1789 C 0.0649 1.01142 0.1441 0.0
C1790 C 0.98842 0.9688 0.14827 0.0
C1791 C 0.95808 0.99113 0.11091 0.0
N1792 N 0.04082 0.99546 0.14388 0.0
N1793 N 0.98223 1.00653 0.11101 0.0
H1794 H 0.96152 0.10715 0.34526 0.0
H1795 H 0.0616 0.91455 0.40482 0.0
H1796 H 0.94383 0.99569 0.39934 0.0
H1797 H 0.07954 0.02653 0.35088 0.0
H1798 H 0.01861 0.94353 0.40305 0.0
H1799 H 1.00462 0.07862 0.34699 0.0
C1800 C 0.96683 0.0773 0.35779 0.0
C1801 C 0.94923 0.05506 0.37266 0.0
C1802 C 0.03186 0.96183 0.39155 0.0
C1803 C 0.99855 0.02035 0.37427 0.0
C1804 C 0.05643 0.9449 0.39241 0.0
C1805 C 0.07413 0.96708 0.37759 0.0
C1806 C 0.02479 1.0019 0.37585 0.0
C1807 C 0.06652 1.00804 0.36255 0.0
C1808 C 0.99142 0.0604 0.35857 0.0
C1809 C 0.95686 0.01411 0.38765 0.0
N1810 N 0.04243 0.02393 0.36199 0.0
N1811 N 0.98094 0.99828 0.38816 0.0
H1812 H 0.06338 0.0766 0.83953 0.0
H1813 H 0.94701 0.98157 0.91337 0.0
H1814 H 0.07013 0.0268 0.91049 0.0
H1815 H 0.94803 0.9836 0.83907 0.0
H1816 H 0.99099 1.00571 0.91365 0.0
H1817 H 0.02011 0.04991 0.83991 0.0
C1818 C 0.05579 0.05955 0.85517 0.0
C1819 C 0.07047 0.05354 0.87497 0.0
C1820 C 0.98156 1.00098 0.8973 0.0
C1821 C 0.02065 0.02331 0.87559 0.0
C1822 C 0.95644 0.98776 0.89714 0.0
C1823 C 0.94391 0.98085 0.87616 0.0
C1824 C 0.99406 1.00832 0.87631 0.0
C1825 C 0.95704 0.98857 0.85561 0.0
C1826 C 0.03105 0.04427 0.85536 0.0
C1827 C 0.05958 0.03138 0.89475 0.0
N1828 N 0.98132 1.00207 0.8562 0.0
N1829 N 0.03526 0.01741 0.89463 0.0
H1830 H 0.93835 1.00244 0.65745 0.0
H1831 H 0.07266 0.01555 0.59902 0.0
H1832 H 0.95608 0.10816 0.60113 0.0
H1833 H 0.05785 0.93556 0.66347 0.0
H1834 H 0.0296 0.046 0.59799 0.0
H1835 H 0.9813 0.97113 0.65781 0.0
C1836 C 0.95127 0.01901 0.64514 0.0
C1837 C 0.94372 0.0588 0.62954 0.0
C1838 C 0.0358 0.02165 0.61233 0.0
C1839 C 0.99296 0.02323 0.62981 0.0
C1840 C 0.06044 1.00446 0.61298 0.0
C1841 C 0.06895 0.97221 0.63119 0.0
C1842 C 0.01944 1.00639 0.62998 0.0
C1843 C 0.05211 0.95916 0.64877 0.0
C1844 C 0.97583 1.00139 0.64542 0.0
C1845 C 0.96125 0.07861 0.61389 0.0
N1846 N 0.02826 0.97594 0.64766 0.0
N1847 N 0.98498 0.06077 0.61443 0.0
H1848 H 0.45621 0.42045 0.09912 0.0
H1849 H 0.55935 0.59356 0.16474 0.0
H1850 H 0.44042 0.52443 0.15654 0.0
H1851 H 0.57381 0.50663 0.10189 0.0
H1852 H 0.51635 0.56554 0.16288 0.0
H1853 H 0.49951 0.44799 0.10072 0.0
C1854 C 0.46191 0.4489 0.11217 0.0
C1855 C 0.44471 0.46954 0.12793 0.0
C1856 C 0.52885 0.55252 0.14945 0.0
C1857 C 0.49437 0.50216 0.12968 0.0
C1858 C 0.55349 0.56883 0.15041 0.0
C1859 C 0.5703 0.55342 0.13319 0.0
C1860 C 0.52074 0.51969 0.13128 0.0
C1861 C 0.56161 0.51966 0.11554 0.0
C1862 C 0.48663 0.46493 0.11297 0.0
C1863 C 0.45302 0.50751 0.14404 0.0
N1864 N 0.53747 0.50407 0.11502 0.0
N1865 N 0.47723 0.52234 0.14458 0.0
H1866 H 0.44312 0.49706 0.34894 0.0
H1867 H 0.57864 0.5271 0.40448 0.0
H1868 H 0.46029 0.60569 0.40446 0.0
H1869 H 0.56156 0.41888 0.34888 0.0
H1870 H 0.53576 0.55844 0.4041 0.0
H1871 H 0.48635 0.46762 0.34866 0.0
C1872 C 0.45597 0.51466 0.3611 0.0
C1873 C 0.44813 0.55456 0.37651 0.0
C1874 C 0.54137 0.52782 0.39195 0.0
C1875 C 0.49776 0.52131 0.37625 0.0
C1876 C 0.56598 0.51038 0.39203 0.0
C1877 C 0.57375 0.47011 0.3768 0.0
C1878 C 0.52432 0.50484 0.37647 0.0
C1879 C 0.55627 0.44904 0.36132 0.0
C1880 C 0.4807 0.49809 0.36086 0.0
C1881 C 0.46564 0.57596 0.39186 0.0
N1882 N 0.53248 0.46648 0.36157 0.0
N1883 N 0.48954 0.55924 0.39133 0.0
H1884 H 0.45695 0.43581 0.84412 0.0
H1885 H 0.55971 0.61198 0.90852 0.0
H1886 H 0.44275 0.52264 0.90705 0.0
H1887 H 0.57534 0.50863 0.85082 0.0
H1888 H 0.51657 0.58346 0.90732 0.0
H1889 H 0.49974 0.46524 0.84543 0.0
C1890 C 0.46284 0.46077 0.85836 0.0
C1891 C 0.44619 0.47576 0.87577 0.0
C1892 C 0.52938 0.56691 0.89492 0.0
C1893 C 0.49545 0.51113 0.87703 0.0
C1894 C 0.554 0.58353 0.89547 0.0
C1895 C 0.5711 0.56331 0.87953 0.0
C1896 C 0.52166 0.52949 0.87829 0.0
C1897 C 0.56281 0.52525 0.86346 0.0
C1898 C 0.48735 0.47791 0.859 0.0
C1899 C 0.45486 0.5099 0.89328 0.0
N1900 N 0.53869 0.50979 0.86318 0.0
N1901 N 0.47887 0.52629 0.89349 0.0
H1902 H 0.44977 0.56979 0.66798 0.0
H1903 H 0.56924 0.4918 0.59395 0.0
H1904 H 0.44634 0.53997 0.59484 0.0
H1905 H 0.56555 0.478 0.66795 0.0
H1906 H 0.52549 0.51807 0.59338 0.0
H1907 H 0.49333 0.54447 0.66785 0.0
C1908 C 0.45824 0.55807 0.65186 0.0
C1909 C 0.44447 0.55751 0.63137 0.0
C1910 C 0.5343 0.50941 0.60973 0.0
C1911 C 0.49446 0.52801 0.63105 0.0
C1912 C 0.55929 0.49492 0.61007 0.0
C1913 C 0.57103 0.48282 0.63103 0.0
C1914 C 0.52107 0.51268 0.63054 0.0
C1915 C 0.5572 0.48682 0.65141 0.0
C1916 C 0.4831 0.54329 0.65181 0.0
C1917 C 0.45629 0.5409 0.61104 0.0
N1918 N 0.53305 0.5015 0.65066 0.0
N1919 N 0.48065 0.52719 0.61135 0.0
H1920 H 0.16557 0.7525 0.10021 0.0
H1921 H 0.11991 0.47254 0.15196 0.0
H1922 H 0.10039 0.73479 0.14217 0.0
H1923 H 0.1942 0.49681 0.12766 0.0
H1924 H 0.11125 0.56735 0.14516 0.0
H1925 H 0.17565 0.65824 0.10754 0.0
C1926 C 0.15346 0.72911 0.11109 0.0
C1927 C 0.13195 0.75189 0.12042 0.0
C1928 C 0.12947 0.55203 0.14132 0.0
C1929 C 0.1432 0.64353 0.12849 0.0
C1930 C 0.13436 0.49777 0.14503 0.0
C1931 C 0.15779 0.47662 0.14032 0.0
C1932 C 0.14804 0.5856 0.13261 0.0
C1933 C 0.17592 0.5115 0.13168 0.0
C1934 C 0.15918 0.67516 0.11515 0.0
C1935 C 0.11685 0.71902 0.13414 0.0
N1936 N 0.17064 0.56422 0.128 0.0
N1937 N 0.12269 0.66666 0.13762 0.0
H1938 H 0.93295 0.29435 0.13282 0.0
H1939 H 0.83199 0.52143 0.15503 0.0
H1940 H 0.85593 0.27436 0.11594 0.0
H1941 H 0.91 0.55422 0.15441 0.0
H1942 H 0.84033 0.42987 0.14206 0.0
H1943 H 0.92494 0.38812 0.14232 0.0
C1944 C 0.91437 0.30954 0.13092 0.0
C1945 C 0.89512 0.27585 0.12344 0.0
C1946 C 0.85565 0.45709 0.14459 0.0
C1947 C 0.88577 0.3837 0.13479 0.0
C1948 C 0.8509 0.50935 0.15204 0.0
C1949 C 0.87035 0.54543 0.15591 0.0
C1950 C 0.88009 0.44025 0.14126 0.0
C1951 C 0.89447 0.52778 0.15154 0.0
C1952 C 0.90982 0.36324 0.13645 0.0
C1953 C 0.87134 0.29813 0.12192 0.0
N1954 N 0.89869 0.47628 0.14469 0.0
N1955 N 0.86736 0.35042 0.1276 0.0
H1956 H 0.10178 0.28394 0.36301 0.0
H1957 H 0.19843 0.52249 0.3812 0.0
H1958 H 0.16629 0.26728 0.40618 0.0
H1959 H 0.12439 0.54532 0.35574 0.0
H1960 H 0.18931 0.42708 0.38721 0.0
H1961 H 0.11218 0.3778 0.3568 0.0
C1962 C 0.11808 0.29996 0.37133 0.0
C1963 C 0.13297 0.26741 0.38543 0.0
C1964 C 0.17507 0.45306 0.38037 0.0
C1965 C 0.14528 0.3754 0.37792 0.0
C1966 C 0.18028 0.50743 0.37685 0.0
C1967 C 0.1621 0.54201 0.36802 0.0
C1968 C 0.15162 0.43296 0.37473 0.0
C1969 C 0.13886 0.52036 0.36285 0.0
C1970 C 0.12407 0.35367 0.36766 0.0
C1971 C 0.1543 0.29049 0.39508 0.0
N1972 N 0.13434 0.46731 0.36616 0.0
N1973 N 0.15979 0.34304 0.39118 0.0
H1974 H 0.89351 0.47528 0.36571 0.0
H1975 H 0.8305 0.76052 0.39023 0.0
H1976 H 0.81463 0.49723 0.36876 0.0
H1977 H 0.90513 0.722 0.40963 0.0
H1978 H 0.82539 0.66848 0.37551 0.0
H1979 H 0.89896 0.56948 0.37593 0.0
C1980 C 0.87728 0.49957 0.36866 0.0
C1981 C 0.85352 0.47759 0.36648 0.0
C1982 C 0.84295 0.68042 0.38279 0.0
C1983 C 0.85975 0.58657 0.37761 0.0
C1984 C 0.84591 0.73295 0.39096 0.0
C1985 C 0.86825 0.74866 0.40115 0.0
C1986 C 0.86258 0.64373 0.38456 0.0
C1987 C 0.8876 0.71131 0.40196 0.0
C1988 C 0.88045 0.55364 0.37431 0.0
C1989 C 0.8333 0.5121 0.36992 0.0
N1990 N 0.88432 0.66067 0.39382 0.0
N1991 N 0.83687 0.56471 0.37529 0.0
H1992 H 0.8209 0.31705 0.85812 0.0
H1993 H 0.9273 0.52764 0.88979 0.0
H1994 H 0.88324 0.27945 0.90156 0.0
H1995 H 0.86653 0.56398 0.84425 0.0
H1996 H 0.9109 0.43731 0.89495 0.0
H1997 H 0.83679 0.40807 0.85345 0.0
C1998 C 0.83791 0.32794 0.86674 0.0
C1999 C 0.85071 0.29041 0.88032 0.0
C2000 C 0.90111 0.46501 0.88384 0.0
C2001 C 0.86913 0.39478 0.87489 0.0
C2002 C 0.91053 0.51662 0.88081 0.0
C2003 C 0.89839 0.55355 0.86642 0.0
C2004 C 0.87934 0.44988 0.87244 0.0
C2005 C 0.87643 0.53715 0.85564 0.0
C2006 C 0.84703 0.37992 0.86398 0.0
C2007 C 0.87287 0.30672 0.89073 0.0
N2008 N 0.86767 0.48654 0.8588 0.0
N2009 N 0.88132 0.35764 0.88785 0.0
H2010 H 0.12378 0.47407 0.85179 0.0
H2011 H 0.16295 0.75665 0.90619 0.0
H2012 H 0.19118 0.49823 0.89009 0.0
H2013 H 0.09799 0.73311 0.86427 0.0
H2014 H 0.17376 0.66242 0.90053 0.0
H2015 H 0.1139 0.56878 0.85669 0.0
C2016 C 0.13643 0.49924 0.86139 0.0
C2017 C 0.15827 0.47805 0.87068 0.0
C2018 C 0.15717 0.6779 0.89253 0.0
C2019 C 0.1472 0.58696 0.87611 0.0
C2020 C 0.15105 0.7318 0.89564 0.0
C2021 C 0.12949 0.75289 0.88572 0.0
C2022 C 0.14161 0.64472 0.87942 0.0
C2023 C 0.11459 0.71848 0.87253 0.0
C2024 C 0.13085 0.55345 0.86404 0.0
C2025 C 0.17422 0.5129 0.88252 0.0
N2026 N 0.12091 0.66616 0.8698 0.0
N2027 N 0.16833 0.56561 0.88496 0.0
H2028 H 0.91745 0.74396 0.64472 0.0
H2029 H 0.82179 0.50541 0.62224 0.0
H2030 H 0.85463 0.76056 0.5994 0.0
H2031 H 0.8942 0.48252 0.65153 0.0
H2032 H 0.83126 0.60075 0.61671 0.0
H2033 H 0.90695 0.64993 0.6504 0.0
C2034 C 0.90151 0.72789 0.63582 0.0
C2035 C 0.88709 0.76047 0.62132 0.0
C2036 C 0.84508 0.57479 0.62429 0.0
C2037 C 0.87467 0.65238 0.62818 0.0
C2038 C 0.83965 0.52046 0.62755 0.0
C2039 C 0.85727 0.4859 0.63731 0.0
C2040 C 0.86817 0.59486 0.63112 0.0
C2041 C 0.88018 0.50751 0.64369 0.0
C2042 C 0.89546 0.6741 0.63919 0.0
C2043 C 0.86622 0.73734 0.61086 0.0
N2044 N 0.88491 0.56053 0.64058 0.0
N2045 N 0.86066 0.68474 0.61447 0.0
H2046 H 0.13399 0.26081 0.59463 0.0
H2047 H 0.1562 0.55182 0.64916 0.0
H2048 H 0.20034 0.30434 0.63129 0.0
H2049 H 0.09346 0.51047 0.60684 0.0
H2050 H 0.17327 0.46239 0.64231 0.0
H2051 H 0.11895 0.35242 0.59915 0.0
C2052 C 0.14535 0.2896 0.60374 0.0
C2053 C 0.16842 0.27477 0.61268 0.0
C2054 C 0.15582 0.473 0.63445 0.0
C2055 C 0.15141 0.38015 0.61772 0.0
C2056 C 0.14614 0.52421 0.63822 0.0
C2057 C 0.12325 0.53862 0.6287 0.0
C2058 C 0.1425 0.43589 0.62111 0.0
C2059 C 0.11092 0.50085 0.6149 0.0
C2060 C 0.13683 0.34206 0.60617 0.0
C2061 C 0.18253 0.3141 0.62397 0.0
N2062 N 0.12063 0.45125 0.61163 0.0
N2063 N 0.17376 0.36493 0.62625 0.0
H2064 H 0.6618 0.97252 0.14784 0.0
H2065 H 0.63558 0.2635 0.09511 0.0
H2066 H 0.5974 1.01261 0.10755 0.0
H2067 H 0.70474 0.22042 0.12699 0.0
H2068 H 0.6213 0.17151 0.10013 0.0
H2069 H 0.67841 0.06209 0.14016 0.0
C2070 C 0.65129 0.99985 0.13714 0.0
C2071 C 0.62804 0.98513 0.12851 0.0
C2072 C 0.63964 0.18203 0.10598 0.0
C2073 C 0.64674 0.08795 0.12 0.0
C2074 C 0.64773 0.23472 0.10329 0.0
C2075 C 0.67135 0.24979 0.11074 0.0
C2076 C 0.65521 0.14393 0.11633 0.0
C2077 C 0.68645 0.21045 0.12084 0.0
C2078 C 0.66071 0.05112 0.1329 0.0
C2079 C 0.61515 0.0225 0.11496 0.0
N2080 N 0.67809 0.15938 0.12345 0.0
N2081 N 0.62458 0.07216 0.11127 0.0
H2082 H 0.40353 0.80083 0.09716 0.0
H2083 H 0.31308 0.03196 0.14019 0.0
H2084 H 0.32781 0.77042 0.11516 0.0
H2085 H 0.39228 0.04832 0.14002 0.0
H2086 H 0.31764 0.93725 0.13023 0.0
H2087 H 0.39962 0.89205 0.11232 0.0
C2088 C 0.38616 0.8133 0.10465 0.0
C2089 C 0.36598 0.77815 0.105 0.0
C2090 C 0.33401 0.96152 0.13248 0.0
C2091 C 0.36112 0.88299 0.12188 0.0
C2092 C 0.33144 0.01573 0.13826 0.0
C2093 C 0.3523 0.04867 0.141 0.0
C2094 C 0.35763 0.93985 0.12916 0.0
C2095 C 0.3756 0.02513 0.13773 0.0
C2096 C 0.3839 0.86538 0.11324 0.0
C2097 C 0.34385 0.79625 0.11476 0.0
N2098 N 0.3776 0.97242 0.13191 0.0
N2099 N 0.34189 0.84768 0.12257 0.0
H2100 H 0.62721 0.04779 0.36334 0.0
H2101 H 0.67792 0.76321 0.40655 0.0
H2102 H 0.70293 0.022 0.38344 0.0
H2103 H 0.60541 0.78808 0.37767 0.0
H2104 H 0.68772 0.85733 0.39862 0.0
H2105 H 0.61887 0.95291 0.36977 0.0
C2106 C 0.64206 0.02226 0.36932 0.0
C2107 C 0.66578 0.04311 0.37299 0.0
C2108 C 0.6697 0.84207 0.39396 0.0
C2109 C 0.6564 0.93373 0.38012 0.0
C2110 C 0.66414 0.78821 0.39834 0.0
C2111 C 0.64071 0.76759 0.39295 0.0
C2112 C 0.65171 0.87568 0.38416 0.0
C2113 C 0.62353 0.80226 0.38257 0.0
C2114 C 0.63733 0.96788 0.3728 0.0
C2115 C 0.6844 1.00766 0.38027 0.0
N2116 N 0.62934 0.85446 0.37864 0.0
N2117 N 0.67929 0.95477 0.38367 0.0
H2118 H 0.38975 0.9851 0.3678 0.0
H2119 H 0.30199 0.23352 0.40006 0.0
H2120 H 0.31061 0.97732 0.37177 0.0
H2121 H 0.38123 0.24724 0.39787 0.0
H2122 H 0.30544 0.13943 0.38937 0.0
H2123 H 0.38784 0.08018 0.37907 0.0
C2124 C 0.37198 1.00321 0.37119 0.0
C2125 C 0.3502 0.97319 0.3686 0.0
C2126 C 0.32214 0.16281 0.39121 0.0
C2127 C 0.34787 0.08201 0.38131 0.0
C2128 C 0.32018 0.21671 0.39742 0.0
C2129 C 0.34136 0.24852 0.40011 0.0
C2130 C 0.34549 0.13989 0.38759 0.0
C2131 C 0.36438 0.22445 0.3959 0.0
C2132 C 0.37089 0.05757 0.37748 0.0
C2133 C 0.32774 0.999 0.37309 0.0
N2134 N 0.36585 0.17156 0.38995 0.0
N2135 N 0.32714 0.05161 0.37914 0.0
H2136 H 0.38042 0.76585 0.91511 0.0
H2137 H 0.35458 0.05566 0.86071 0.0
H2138 H 0.31208 0.80713 0.88129 0.0
H2139 H 0.41865 0.01654 0.90161 0.0
H2140 H 0.33802 0.96604 0.86849 0.0
H2141 H 0.3946 0.8579 0.90994 0.0
C2142 C 0.36843 0.79423 0.90648 0.0
C2143 C 0.34506 0.7786 0.89855 0.0
C2144 C 0.35565 0.97723 0.87585 0.0
C2145 C 0.3611 0.8846 0.89275 0.0
C2146 C 0.36503 0.02855 0.87155 0.0
C2147 C 0.38818 0.04357 0.88033 0.0
C2148 C 0.36953 0.94065 0.88898 0.0
C2149 C 0.40098 1.00644 0.89408 0.0
C2150 C 0.37646 0.84697 0.90368 0.0
C2151 C 0.33016 0.81749 0.88785 0.0
N2152 N 0.39158 0.95676 0.89784 0.0
N2153 N 0.33847 0.86861 0.88517 0.0
H2154 H 0.63796 0.25426 0.89941 0.0
H2155 H 0.71157 0.98092 0.87455 0.0
H2156 H 0.71715 0.23908 0.902 0.0
H2157 H 0.63248 0.99194 0.87062 0.0
H2158 H 0.71357 0.07571 0.88487 0.0
H2159 H 0.63508 0.15933 0.88849 0.0
C2160 C 0.65475 0.2312 0.89752 0.0
C2161 C 0.67784 0.25488 0.90181 0.0
C2162 C 0.69571 0.05765 0.88177 0.0
C2163 C 0.67464 0.14585 0.88955 0.0
C2164 C 0.69463 1.00349 0.87577 0.0
C2165 C 0.67193 0.97847 0.87146 0.0
C2166 C 0.67386 0.08761 0.88354 0.0
C2167 C 0.65041 1.00943 0.87387 0.0
C2168 C 0.65308 0.17685 0.89144 0.0
C2169 C 0.69892 0.2226 0.89929 0.0
N2170 N 0.6519 0.0624 0.87964 0.0
N2171 N 0.6968 0.17002 0.8934 0.0
H2172 H 0.41046 0.96638 0.65413 0.0
H2173 H 0.35242 0.24896 0.61644 0.0
H2174 H 0.3328 1.0021 0.65763 0.0
H2175 H 0.42957 0.22794 0.63263 0.0
H2176 H 0.34517 0.15535 0.62675 0.0
H2177 H 0.4181 0.05837 0.64065 0.0
C2178 C 0.39502 0.99338 0.65178 0.0
C2179 C 0.37099 0.97675 0.65715 0.0
C2180 C 0.36369 0.17128 0.62801 0.0
C2181 C 0.37954 0.08184 0.64183 0.0
C2182 C 0.36785 0.22499 0.62229 0.0
C2183 C 0.39167 0.24698 0.6237 0.0
C2184 C 0.38348 0.13879 0.63504 0.0
C2185 C 0.41095 0.21298 0.63089 0.0
C2186 C 0.39939 0.04593 0.64427 0.0
C2187 C 0.35164 1.01348 0.65394 0.0
N2188 N 0.40644 0.16074 0.63625 0.0
N2189 N 0.35633 0.06418 0.64653 0.0
H2190 H 0.69638 0.81777 0.64521 0.0
H2191 H 0.58848 0.0268 0.61613 0.0
H2192 H 0.6324 0.77862 0.60419 0.0
H2193 H 0.6502 0.06405 0.66042 0.0
H2194 H 0.60507 0.93676 0.61058 0.0
H2195 H 0.68054 0.90884 0.65001 0.0
C2196 C 0.67903 0.82833 0.63714 0.0
C2197 C 0.66574 0.79033 0.62423 0.0
C2198 C 0.61503 0.9646 0.62149 0.0
C2199 C 0.64738 0.89476 0.6298 0.0
C2200 C 0.60551 0.01606 0.62475 0.0
C2201 C 0.61784 0.05315 0.63893 0.0
C2202 C 0.63711 0.94979 0.63243 0.0
C2203 C 0.64013 0.03709 0.64921 0.0
C2204 C 0.66994 0.88034 0.63998 0.0
C2205 C 0.64316 0.80625 0.6145 0.0
N2206 N 0.64899 0.98661 0.64583 0.0
N2207 N 0.63475 0.85719 0.61744 0.0
loop_
_geom_bond_atom_site_label_1
_geom_bond_atom_site_label_2
_geom_bond_distance
_geom_bond_site_symmetry_2
_ccdc_geom_bond_type
Tb0 N29 2.617 . S
Tb0 N35 2.572 . S
Tb0 O44 2.465 . S
Tb0 O45 2.387 . S
Tb0 O47 2.428 . S
Tb0 O48 2.308 . S
Tb0 O52 2.349 . S
Tb0 O55 2.393 . S
Tb0 C64 2.802 . S
C1 N2 1.379 . S
C1 C4 1.416 . S
C1 C8 1.424 . S
N2 C1 1.379 . S
N2 C5 1.334 . S
N2 Tb11 2.617 . S
C3 C5 1.390 . S
C3 C6 1.339 . S
C3 H23 0.930 . S
C4 C1 1.416 . S
C4 C6 1.416 . S
C4 C10 1.448 . S
C5 N2 1.334 . S
C5 C3 1.390 . S
C5 H16 0.930 . S
C6 C3 1.339 . S
C6 C4 1.416 . S
C6 H27 0.930 . S
C7 C8 1.413 . S
C7 C9 1.427 . S
C7 C13 1.416 . S
C8 C1 1.424 . S
C8 C7 1.413 . S
C8 N12 1.361 . S
C9 C7 1.427 . S
C9 C10 1.328 . S
C9 H24 0.929 . S
C10 C4 1.448 . S
C10 C9 1.328 . S
C10 H25 0.930 . S
Tb11 N2 2.617 . S
Tb11 N12 2.572 . S
Tb11 O46 2.349 . S
Tb11 O49 2.393 . S
Tb11 O50 2.465 1_545 S
Tb11 O51 2.387 . S
Tb11 O53 2.428 1_545 S
Tb11 O54 2.308 . S
Tb11 C75 2.802 1_545 S
N12 C8 1.361 . S
N12 Tb11 2.572 . S
N12 C14 1.340 . S
C13 C7 1.416 . S
C13 C15 1.332 . S
C13 H21 0.931 1_545 S
C14 N12 1.340 . S
C14 C15 1.407 . S
C14 H20 0.930 . S
C15 C13 1.332 . S
C15 C14 1.407 . S
C15 H17 0.929 . S
H16 C5 0.930 . S
H17 C15 0.929 . S
H18 C33 0.930 . S
H19 C40 0.929 . S
H20 C14 0.930 . S
H21 C13 0.931 1_565 S
H22 C36 0.930 . S
H23 C3 0.930 . S
H24 C9 0.929 . S
H25 C10 0.930 . S
H26 C31 0.930 . S
H27 C6 0.930 . S
H28 C39 0.931 . S
N29 Tb0 2.617 . S
N29 C30 1.379 . S
N29 C33 1.334 . S
C30 N29 1.379 . S
C30 C32 1.416 . S
C30 C38 1.424 . S
C31 H26 0.930 . S
C31 C33 1.390 . S
C31 C34 1.339 . S
C32 C30 1.416 . S
C32 C34 1.416 . S
C32 C65 1.448 . S
C33 H18 0.930 . S
C33 N29 1.334 . S
C33 C31 1.390 . S
C34 C31 1.339 . S
C34 C32 1.416 . S
C34 H41 0.930 . S
N35 Tb0 2.572 . S
N35 C36 1.340 . S
N35 C38 1.361 . S
C36 H22 0.930 . S
C36 N35 1.340 . S
C36 C40 1.407 . S
C37 C38 1.413 . S
C37 C39 1.416 . S
C37 C66 1.427 . S
C38 C30 1.424 . S
C38 N35 1.361 . S
C38 C37 1.413 . S
C39 H28 0.931 . S
C39 C37 1.416 . S
C39 C40 1.332 . S
C40 H19 0.929 . S
C40 C36 1.407 . S
C40 C39 1.332 . S
H41 C34 0.930 . S
H42 C65 0.930 1_655 S
H43 C66 0.929 1_655 S
O44 Tb0 2.465 . S
O44 C64 1.264 . S
O45 Tb0 2.387 . S
O45 C56 1.264 . S
O46 Tb11 2.349 . S
O46 C56 1.243 . S
O47 Tb0 2.428 . S
O47 C64 1.256 . S
O48 Tb0 2.308 . S
O48 C63 1.266 . S
O49 Tb11 2.393 . S
O49 C63 1.248 . S
O50 Tb11 2.465 1_565 S
O50 C75 1.264 . S
O51 Tb11 2.387 . S
O51 C67 1.264 . S
O52 Tb0 2.349 . S
O52 C67 1.243 . S
O53 Tb11 2.428 1_565 S
O53 C75 1.256 . S
O54 Tb11 2.308 . S
O54 C74 1.266 . S
O55 Tb0 2.393 . S
O55 C74 1.248 . S
C56 O45 1.264 . S
C56 O46 1.243 . S
C57 C60 1.399 . S
C57 C62 1.383 . S
C57 C64 1.496 . S
C58 C59 1.399 . S
C58 C62 1.389 . S
C59 C58 1.399 . S
C59 C61 1.380 . S
C59 H76 0.929 . S
C60 C57 1.399 . S
C60 C61 1.392 . S
C60 H77 0.929 . S
C61 C59 1.380 . S
C61 C60 1.392 . S
C61 H78 0.929 . S
C62 C57 1.383 . S
C62 C58 1.389 . S
C62 H79 0.931 . S
C63 O48 1.266 . S
C63 O49 1.248 . S
C64 Tb0 2.802 . S
C64 O44 1.264 . S
C64 O47 1.256 . S
C64 C57 1.496 . S
C65 C32 1.448 . S
C65 H42 0.930 1_455 S
C65 C66 1.328 . S
C66 C37 1.427 . S
C66 H43 0.929 1_455 S
C66 C65 1.328 . S
C67 O51 1.264 . S
C67 O52 1.243 . S
C68 C71 1.399 . S
C68 C72 1.383 . S
C68 C75 1.496 . S
C69 C70 1.399 . S
C69 C72 1.389 . S
C70 C69 1.399 . S
C70 C73 1.380 . S
C70 H80 0.929 . S
C71 C68 1.399 . S
C71 C73 1.392 . S
C71 H81 0.929 . S
C72 C68 1.383 . S
C72 C69 1.389 . S
C72 H82 0.931 . S
C73 C70 1.380 . S
C73 C71 1.392 . S
C73 H83 0.929 . S
C74 O54 1.266 . S
C74 O55 1.248 . S
C75 Tb11 2.802 1_565 S
C75 O50 1.264 . S
C75 O53 1.256 . S
C75 C68 1.496 . S
H76 C59 0.929 . S
H77 C60 0.929 . S
H78 C61 0.929 . S
H79 C62 0.931 . S
H80 C70 0.929 . S
H81 C71 0.929 . S
H82 C72 0.931 . S
H83 C73 0.929 . S
Tb84 N113 2.617 . S
Tb84 N119 2.572 . S
Tb84 O128 2.465 . S
Tb84 O129 2.387 . S
Tb84 O131 2.428 . S
Tb84 O132 2.308 . S
Tb84 O136 2.349 . S
Tb84 O139 2.393 . S
Tb84 C148 2.802 . S
C85 N86 1.379 . S
C85 C88 1.416 . S
C85 C92 1.424 . S
N86 C85 1.379 . S
N86 C89 1.334 . S
N86 Tb95 2.617 . S
C87 C89 1.390 . S
C87 C90 1.339 . S
C87 H107 0.930 . S
C88 C85 1.416 . S
C88 C90 1.416 . S
C88 C94 1.448 . S
C89 N86 1.334 . S
C89 C87 1.390 . S
C89 H100 0.930 . S
C90 C87 1.339 . S
C90 C88 1.416 . S
C90 H111 0.930 . S
C91 C92 1.413 . S
C91 C93 1.427 . S
C91 C97 1.416 . S
C92 C85 1.424 . S
C92 C91 1.413 . S
C92 N96 1.361 . S
C93 C91 1.427 . S
C93 C94 1.328 . S
C93 H108 0.929 . S
C94 C88 1.448 . S
C94 C93 1.328 . S
C94 H109 0.930 . S
Tb95 N86 2.617 . S
Tb95 N96 2.572 . S
Tb95 O130 2.349 . S
Tb95 O133 2.393 . S
Tb95 O134 2.465 1_565 S
Tb95 O135 2.387 . S
Tb95 O137 2.428 1_565 S
Tb95 O138 2.308 . S
Tb95 C159 2.802 1_565 S
N96 C92 1.361 . S
N96 Tb95 2.572 . S
N96 C98 1.340 . S
C97 C91 1.416 . S
C97 C99 1.332 . S
C97 H105 0.931 1_565 S
C98 N96 1.340 . S
C98 C99 1.407 . S
C98 H104 0.930 . S
C99 C97 1.332 . S
C99 C98 1.407 . S
C99 H101 0.929 . S
H100 C89 0.930 . S
H101 C99 0.929 . S
H102 C117 0.930 . S
H103 C124 0.929 . S
H104 C98 0.930 . S
H105 C97 0.931 1_545 S
H106 C120 0.930 . S
H107 C87 0.930 . S
H108 C93 0.929 . S
H109 C94 0.930 . S
H110 C115 0.930 . S
H111 C90 0.930 . S
H112 C123 0.931 . S
N113 Tb84 2.617 . S
N113 C114 1.379 . S
N113 C117 1.334 . S
C114 N113 1.379 . S
C114 C116 1.416 . S
C114 C122 1.424 . S
C115 H110 0.930 . S
C115 C117 1.390 . S
C115 C118 1.339 . S
C116 C114 1.416 . S
C116 C118 1.416 . S
C116 C149 1.448 . S
C117 H102 0.930 . S
C117 N113 1.334 . S
C117 C115 1.390 . S
C118 C115 1.339 . S
C118 C116 1.416 . S
C118 H125 0.930 . S
N119 Tb84 2.572 . S
N119 C120 1.340 . S
N119 C122 1.361 . S
C120 H106 0.930 . S
C120 N119 1.340 . S
C120 C124 1.407 . S
C121 C122 1.413 . S
C121 C123 1.416 . S
C121 C150 1.427 . S
C122 C114 1.424 . S
C122 N119 1.361 . S
C122 C121 1.413 . S
C123 H112 0.931 . S
C123 C121 1.416 . S
C123 C124 1.332 . S
C124 H103 0.929 . S
C124 C120 1.407 . S
C124 C123 1.332 . S
H125 C118 0.930 . S
H126 C149 0.930 1_455 S
H127 C150 0.929 1_455 S
O128 Tb84 2.465 . S
O128 C148 1.264 . S
O129 Tb84 2.387 . S
O129 C140 1.264 . S
O130 Tb95 2.349 . S
O130 C140 1.243 . S
O131 Tb84 2.428 . S
O131 C148 1.256 . S
O132 Tb84 2.308 . S
O132 C147 1.266 . S
O133 Tb95 2.393 . S
O133 C147 1.248 . S
O134 Tb95 2.465 1_545 S
O134 C159 1.264 . S
O135 Tb95 2.387 . S
O135 C151 1.264 . S
O136 Tb84 2.349 . S
O136 C151 1.243 . S
O137 Tb95 2.428 1_545 S
O137 C159 1.256 . S
O138 Tb95 2.308 . S
O138 C158 1.266 . S
O139 Tb84 2.393 . S
O139 C158 1.248 . S
C140 O129 1.264 . S
C140 O130 1.243 . S
C141 C144 1.399 . S
C141 C146 1.383 . S
C141 C148 1.496 . S
C142 C143 1.399 . S
C142 C146 1.389 . S
C143 C142 1.399 . S
C143 C145 1.380 . S
C143 H160 0.929 . S
C144 C141 1.399 . S
C144 C145 1.392 . S
C144 H161 0.929 . S
C145 C143 1.380 . S
C145 C144 1.392 . S
C145 H162 0.929 . S
C146 C141 1.383 . S
C146 C142 1.389 . S
C146 H163 0.931 . S
C147 O132 1.266 . S
C147 O133 1.248 . S
C148 Tb84 2.802 . S
C148 O128 1.264 . S
C148 O131 1.256 . S
C148 C141 1.496 . S
C149 C116 1.448 . S
C149 H126 0.930 1_655 S
C149 C150 1.328 . S
C150 C121 1.427 . S
C150 H127 0.929 1_655 S
C150 C149 1.328 . S
C151 O135 1.264 . S
C151 O136 1.243 . S
C152 C155 1.399 . S
C152 C156 1.383 . S
C152 C159 1.496 . S
C153 C154 1.399 . S
C153 C156 1.389 . S
C154 C153 1.399 . S
C154 C157 1.380 . S
C154 H164 0.929 . S
C155 C152 1.399 . S
C155 C157 1.392 . S
C155 H165 0.929 . S
C156 C152 1.383 . S
C156 C153 1.389 . S
C156 H166 0.931 . S
C157 C154 1.380 . S
C157 C155 1.392 . S
C157 H167 0.929 . S
C158 O138 1.266 . S
C158 O139 1.248 . S
C159 Tb95 2.802 1_545 S
C159 O134 1.264 . S
C159 O137 1.256 . S
C159 C152 1.496 . S
H160 C143 0.929 . S
H161 C144 0.929 . S
H162 C145 0.929 . S
H163 C146 0.931 . S
H164 C154 0.929 . S
H165 C155 0.929 . S
H166 C156 0.931 . S
H167 C157 0.929 . S
Tb168 N197 2.617 . S
Tb168 N203 2.572 . S
Tb168 O212 2.465 . S
Tb168 O213 2.387 . S
Tb168 O215 2.428 . S
Tb168 O216 2.308 . S
Tb168 O220 2.349 . S
Tb168 O223 2.393 . S
Tb168 C232 2.802 . S
C169 N170 1.379 . S
C169 C172 1.416 . S
C169 C176 1.424 . S
N170 C169 1.379 . S
N170 C173 1.334 . S
N170 Tb179 2.617 . S
C171 C173 1.390 . S
C171 C174 1.339 . S
C171 H191 0.930 . S
C172 C169 1.416 . S
C172 C174 1.416 . S
C172 C178 1.448 . S
C173 N170 1.334 . S
C173 C171 1.390 . S
C173 H184 0.930 . S
C174 C171 1.339 . S
C174 C172 1.416 . S
C174 H195 0.930 . S
C175 C176 1.413 . S
C175 C177 1.427 . S
C175 C181 1.416 . S
C176 C169 1.424 . S
C176 C175 1.413 . S
C176 N180 1.361 . S
C177 C175 1.427 . S
C177 C178 1.328 . S
C177 H192 0.929 . S
C178 C172 1.448 . S
C178 C177 1.328 . S
C178 H193 0.930 . S
Tb179 N170 2.617 . S
Tb179 N180 2.572 . S
Tb179 O214 2.349 . S
Tb179 O217 2.393 . S
Tb179 O218 2.465 1_565 S
Tb179 O219 2.387 . S
Tb179 O221 2.428 1_565 S
Tb179 O222 2.308 . S
Tb179 C243 2.802 1_565 S
N180 C176 1.361 . S
N180 Tb179 2.572 . S
N180 C182 1.340 . S
C181 C175 1.416 . S
C181 C183 1.332 . S
C181 H189 0.931 1_565 S
C182 N180 1.340 . S
C182 C183 1.407 . S
C182 H188 0.930 . S
C183 C181 1.332 . S
C183 C182 1.407 . S
C183 H185 0.929 . S
H184 C173 0.930 . S
H185 C183 0.929 . S
H186 C201 0.930 . S
H187 C208 0.929 . S
H188 C182 0.930 . S
H189 C181 0.931 1_545 S
H190 C204 0.930 . S
H191 C171 0.930 . S
H192 C177 0.929 . S
H193 C178 0.930 . S
H194 C199 0.930 . S
H195 C174 0.930 . S
H196 C207 0.931 . S
N197 Tb168 2.617 . S
N197 C198 1.379 . S
N197 C201 1.334 . S
C198 N197 1.379 . S
C198 C200 1.416 . S
C198 C206 1.424 . S
C199 H194 0.930 . S
C199 C201 1.390 . S
C199 C202 1.339 . S
C200 C198 1.416 . S
C200 C202 1.416 . S
C200 C233 1.448 . S
C201 H186 0.930 . S
C201 N197 1.334 . S
C201 C199 1.390 . S
C202 C199 1.339 . S
C202 C200 1.416 . S
C202 H209 0.930 . S
N203 Tb168 2.572 . S
N203 C204 1.340 . S
N203 C206 1.361 . S
C204 H190 0.930 . S
C204 N203 1.340 . S
C204 C208 1.407 . S
C205 C206 1.413 . S
C205 C207 1.416 . S
C205 C234 1.427 . S
C206 C198 1.424 . S
C206 N203 1.361 . S
C206 C205 1.413 . S
C207 H196 0.931 . S
C207 C205 1.416 . S
C207 C208 1.332 . S
C208 H187 0.929 . S
C208 C204 1.407 . S
C208 C207 1.332 . S
H209 C202 0.930 . S
H210 C233 0.930 1_655 S
H211 C234 0.929 1_655 S
O212 Tb168 2.465 . S
O212 C232 1.264 . S
O213 Tb168 2.387 . S
O213 C224 1.264 . S
O214 Tb179 2.349 . S
O214 C224 1.243 . S
O215 Tb168 2.428 . S
O215 C232 1.256 . S
O216 Tb168 2.308 . S
O216 C231 1.266 . S
O217 Tb179 2.393 . S
O217 C231 1.248 . S
O218 Tb179 2.465 1_545 S
O218 C243 1.264 . S
O219 Tb179 2.387 . S
O219 C235 1.264 . S
O220 Tb168 2.349 . S
O220 C235 1.243 . S
O221 Tb179 2.428 1_545 S
O221 C243 1.256 . S
O222 Tb179 2.308 . S
O222 C242 1.266 . S
O223 Tb168 2.393 . S
O223 C242 1.248 . S
C224 O213 1.264 . S
C224 O214 1.243 . S
C225 C228 1.399 . S
C225 C230 1.383 . S
C225 C232 1.496 . S
C226 C227 1.399 . S
C226 C230 1.389 . S
C227 C226 1.399 . S
C227 C229 1.380 . S
C227 H244 0.929 . S
C228 C225 1.399 . S
C228 C229 1.392 . S
C228 H245 0.929 . S
C229 C227 1.380 . S
C229 C228 1.392 . S
C229 H246 0.929 . S
C230 C225 1.383 . S
C230 C226 1.389 . S
C230 H247 0.931 . S
C231 O216 1.266 . S
C231 O217 1.248 . S
C232 Tb168 2.802 . S
C232 O212 1.264 . S
C232 O215 1.256 . S
C232 C225 1.496 . S
C233 C200 1.448 . S
C233 H210 0.930 1_455 S
C233 C234 1.328 . S
C234 C205 1.427 . S
C234 H211 0.929 1_455 S
C234 C233 1.328 . S
C235 O219 1.264 . S
C235 O220 1.243 . S
C236 C239 1.399 . S
C236 C240 1.383 . S
C236 C243 1.496 . S
C237 C238 1.399 . S
C237 C240 1.389 . S
C238 C237 1.399 . S
C238 C241 1.380 . S
C238 H248 0.929 . S
C239 C236 1.399 . S
C239 C241 1.392 . S
C239 H249 0.929 . S
C240 C236 1.383 . S
C240 C237 1.389 . S
C240 H250 0.931 . S
C241 C238 1.380 . S
C241 C239 1.392 . S
C241 H251 0.929 . S
C242 O222 1.266 . S
C242 O223 1.248 . S
C243 Tb179 2.802 1_545 S
C243 O218 1.264 . S
C243 O221 1.256 . S
C243 C236 1.496 . S
H244 C227 0.929 . S
H245 C228 0.929 . S
H246 C229 0.929 . S
H247 C230 0.931 . S
H248 C238 0.929 . S
H249 C239 0.929 . S
H250 C240 0.931 . S
H251 C241 0.929 . S
Tb252 N281 2.617 . S
Tb252 N287 2.572 . S
Tb252 O296 2.465 . S
Tb252 O297 2.387 . S
Tb252 O299 2.428 . S
Tb252 O300 2.308 . S
Tb252 O304 2.349 . S
Tb252 O307 2.393 . S
Tb252 C316 2.802 . S
C253 N254 1.379 . S
C253 C256 1.416 . S
C253 C260 1.424 . S
N254 C253 1.379 . S
N254 C257 1.334 . S
N254 Tb263 2.617 . S
C255 C257 1.390 . S
C255 C258 1.339 . S
C255 H275 0.930 . S
C256 C253 1.416 . S
C256 C258 1.416 . S
C256 C262 1.448 . S
C257 N254 1.334 . S
C257 C255 1.390 . S
C257 H268 0.930 . S
C258 C255 1.339 . S
C258 C256 1.416 . S
C258 H279 0.930 . S
C259 C260 1.413 . S
C259 C261 1.427 . S
C259 C265 1.416 . S
C260 C253 1.424 . S
C260 C259 1.413 . S
C260 N264 1.361 . S
C261 C259 1.427 . S
C261 C262 1.328 . S
C261 H276 0.929 . S
C262 C256 1.448 . S
C262 C261 1.328 . S
C262 H277 0.930 . S
Tb263 N254 2.617 . S
Tb263 N264 2.572 . S
Tb263 O298 2.349 . S
Tb263 O301 2.393 . S
Tb263 O302 2.465 1_545 S
Tb263 O303 2.387 . S
Tb263 O305 2.428 1_545 S
Tb263 O306 2.308 . S
Tb263 C327 2.802 1_545 S
N264 C260 1.361 . S
N264 Tb263 2.572 . S
N264 C266 1.340 . S
C265 C259 1.416 . S
C265 C267 1.332 . S
C265 H273 0.931 1_545 S
C266 N264 1.340 . S
C266 C267 1.407 . S
C266 H272 0.930 . S
C267 C265 1.332 . S
C267 C266 1.407 . S
C267 H269 0.929 . S
H268 C257 0.930 . S
H269 C267 0.929 . S
H270 C285 0.930 . S
H271 C292 0.929 . S
H272 C266 0.930 . S
H273 C265 0.931 1_565 S
H274 C288 0.930 . S
H275 C255 0.930 . S
H276 C261 0.929 . S
H277 C262 0.930 . S
H278 C283 0.930 . S
H279 C258 0.930 . S
H280 C291 0.931 . S
N281 Tb252 2.617 . S
N281 C282 1.379 . S
N281 C285 1.334 . S
C282 N281 1.379 . S
C282 C284 1.416 . S
C282 C290 1.424 . S
C283 H278 0.930 . S
C283 C285 1.390 . S
C283 C286 1.339 . S
C284 C282 1.416 . S
C284 C286 1.416 . S
C284 C317 1.448 . S
C285 H270 0.930 . S
C285 N281 1.334 . S
C285 C283 1.390 . S
C286 C283 1.339 . S
C286 C284 1.416 . S
C286 H293 0.930 . S
N287 Tb252 2.572 . S
N287 C288 1.340 . S
N287 C290 1.361 . S
C288 H274 0.930 . S
C288 N287 1.340 . S
C288 C292 1.407 . S
C289 C290 1.413 . S
C289 C291 1.416 . S
C289 C318 1.427 . S
C290 C282 1.424 . S
C290 N287 1.361 . S
C290 C289 1.413 . S
C291 H280 0.931 . S
C291 C289 1.416 . S
C291 C292 1.332 . S
C292 H271 0.929 . S
C292 C288 1.407 . S
C292 C291 1.332 . S
H293 C286 0.930 . S
H294 C317 0.930 1_455 S
H295 C318 0.929 1_455 S
O296 Tb252 2.465 . S
O296 C316 1.264 . S
O297 Tb252 2.387 . S
O297 C308 1.264 . S
O298 Tb263 2.349 . S
O298 C308 1.243 . S
O299 Tb252 2.428 . S
O299 C316 1.256 . S
O300 Tb252 2.308 . S
O300 C315 1.266 . S
O301 Tb263 2.393 . S
O301 C315 1.248 . S
O302 Tb263 2.465 1_565 S
O302 C327 1.264 . S
O303 Tb263 2.387 . S
O303 C319 1.264 . S
O304 Tb252 2.349 . S
O304 C319 1.243 . S
O305 Tb263 2.428 1_565 S
O305 C327 1.256 . S
O306 Tb263 2.308 . S
O306 C326 1.266 . S
O307 Tb252 2.393 . S
O307 C326 1.248 . S
C308 O297 1.264 . S
C308 O298 1.243 . S
C309 C312 1.399 . S
C309 C314 1.383 . S
C309 C316 1.496 . S
C310 C311 1.399 . S
C310 C314 1.389 . S
C311 C310 1.399 . S
C311 C313 1.380 . S
C311 H328 0.929 . S
C312 C309 1.399 . S
C312 C313 1.392 . S
C312 H329 0.929 . S
C313 C311 1.380 . S
C313 C312 1.392 . S
C313 H330 0.929 . S
C314 C309 1.383 . S
C314 C310 1.389 . S
C314 H331 0.931 . S
C315 O300 1.266 . S
C315 O301 1.248 . S
C316 Tb252 2.802 . S
C316 O296 1.264 . S
C316 O299 1.256 . S
C316 C309 1.496 . S
C317 C284 1.448 . S
C317 H294 0.930 1_655 S
C317 C318 1.328 . S
C318 C289 1.427 . S
C318 H295 0.929 1_655 S
C318 C317 1.328 . S
C319 O303 1.264 . S
C319 O304 1.243 . S
C320 C323 1.399 . S
C320 C324 1.383 . S
C320 C327 1.496 . S
C321 C322 1.399 . S
C321 C324 1.389 . S
C322 C321 1.399 . S
C322 C325 1.380 . S
C322 H332 0.929 . S
C323 C320 1.399 . S
C323 C325 1.392 . S
C323 H333 0.929 . S
C324 C320 1.383 . S
C324 C321 1.389 . S
C324 H334 0.931 . S
C325 C322 1.380 . S
C325 C323 1.392 . S
C325 H335 0.929 . S
C326 O306 1.266 . S
C326 O307 1.248 . S
C327 Tb263 2.802 1_565 S
C327 O302 1.264 . S
C327 O305 1.256 . S
C327 C320 1.496 . S
H328 C311 0.929 . S
H329 C312 0.929 . S
H330 C313 0.929 . S
H331 C314 0.931 . S
H332 C322 0.929 . S
H333 C323 0.929 . S
H334 C324 0.931 . S
H335 C325 0.929 . S
Tb336 N365 2.617 . S
Tb336 N371 2.572 . S
Tb336 O380 2.465 1_565 S
Tb336 O381 2.387 . S
Tb336 O383 2.428 1_565 S
Tb336 O384 2.308 . S
Tb336 O388 2.349 . S
Tb336 O391 2.393 . S
Tb336 C400 2.802 1_565 S
C337 N338 1.379 . S
C337 C340 1.416 . S
C337 C344 1.424 . S
N338 C337 1.379 . S
N338 C341 1.334 . S
N338 Tb347 2.617 . S
C339 C341 1.390 . S
C339 C342 1.339 . S
C339 H359 0.930 . S
C340 C337 1.416 . S
C340 C342 1.416 . S
C340 C346 1.448 . S
C341 N338 1.334 . S
C341 C339 1.390 . S
C341 H352 0.930 . S
C342 C339 1.339 . S
C342 C340 1.416 . S
C342 H363 0.930 . S
C343 C344 1.413 . S
C343 C345 1.427 . S
C343 C349 1.416 . S
C344 C337 1.424 . S
C344 C343 1.413 . S
C344 N348 1.361 . S
C345 C343 1.427 . S
C345 C346 1.328 . S
C345 H360 0.929 1_655 S
C346 C340 1.448 . S
C346 C345 1.328 . S
C346 H361 0.930 1_655 S
Tb347 N338 2.617 . S
Tb347 N348 2.572 . S
Tb347 O382 2.349 . S
Tb347 O385 2.393 . S
Tb347 O386 2.465 . S
Tb347 O387 2.387 . S
Tb347 O389 2.428 . S
Tb347 O390 2.308 . S
Tb347 C411 2.802 . S
N348 C344 1.361 . S
N348 Tb347 2.572 . S
N348 C350 1.340 . S
C349 C343 1.416 . S
C349 C351 1.332 . S
C349 H357 0.931 . S
C350 N348 1.340 . S
C350 C351 1.407 . S
C350 H356 0.930 . S
C351 C349 1.332 . S
C351 C350 1.407 . S
C351 H353 0.929 . S
H352 C341 0.930 . S
H353 C351 0.929 . S
H354 C369 0.930 . S
H355 C376 0.929 . S
H356 C350 0.930 . S
H357 C349 0.931 . S
H358 C372 0.930 . S
H359 C339 0.930 . S
H360 C345 0.929 1_455 S
H361 C346 0.930 1_455 S
H362 C367 0.930 . S
H363 C342 0.930 . S
H364 C375 0.931 1_545 S
N365 Tb336 2.617 . S
N365 C366 1.379 . S
N365 C369 1.334 . S
C366 N365 1.379 . S
C366 C368 1.416 . S
C366 C374 1.424 . S
C367 H362 0.930 . S
C367 C369 1.390 . S
C367 C370 1.339 . S
C368 C366 1.416 . S
C368 C370 1.416 . S
C368 C401 1.448 . S
C369 H354 0.930 . S
C369 N365 1.334 . S
C369 C367 1.390 . S
C370 C367 1.339 . S
C370 C368 1.416 . S
C370 H377 0.930 . S
N371 Tb336 2.572 . S
N371 C372 1.340 . S
N371 C374 1.361 . S
C372 H358 0.930 . S
C372 N371 1.340 . S
C372 C376 1.407 . S
C373 C374 1.413 . S
C373 C375 1.416 . S
C373 C402 1.427 . S
C374 C366 1.424 . S
C374 N371 1.361 . S
C374 C373 1.413 . S
C375 H364 0.931 1_565 S
C375 C373 1.416 . S
C375 C376 1.332 . S
C376 H355 0.929 . S
C376 C372 1.407 . S
C376 C375 1.332 . S
H377 C370 0.930 . S
H378 C401 0.930 . S
H379 C402 0.929 . S
O380 Tb336 2.465 1_545 S
O380 C400 1.264 . S
O381 Tb336 2.387 . S
O381 C392 1.264 . S
O382 Tb347 2.349 . S
O382 C392 1.243 . S
O383 Tb336 2.428 1_545 S
O383 C400 1.256 . S
O384 Tb336 2.308 . S
O384 C399 1.266 . S
O385 Tb347 2.393 . S
O385 C399 1.248 . S
O386 Tb347 2.465 . S
O386 C411 1.264 . S
O387 Tb347 2.387 . S
O387 C403 1.264 . S
O388 Tb336 2.349 . S
O388 C403 1.243 . S
O389 Tb347 2.428 . S
O389 C411 1.256 . S
O390 Tb347 2.308 . S
O390 C410 1.266 . S
O391 Tb336 2.393 . S
O391 C410 1.248 . S
C392 O381 1.264 . S
C392 O382 1.243 . S
C393 C396 1.399 . S
C393 C398 1.383 . S
C393 C400 1.496 . S
C394 C395 1.399 . S
C394 C398 1.389 . S
C395 C394 1.399 . S
C395 C397 1.380 . S
C395 H412 0.929 . S
C396 C393 1.399 . S
C396 C397 1.392 . S
C396 H413 0.929 . S
C397 C395 1.380 . S
C397 C396 1.392 . S
C397 H414 0.929 . S
C398 C393 1.383 . S
C398 C394 1.389 . S
C398 H415 0.931 . S
C399 O384 1.266 . S
C399 O385 1.248 . S
C400 Tb336 2.802 1_545 S
C400 O380 1.264 . S
C400 O383 1.256 . S
C400 C393 1.496 . S
C401 C368 1.448 . S
C401 H378 0.930 . S
C401 C402 1.328 . S
C402 C373 1.427 . S
C402 H379 0.929 . S
C402 C401 1.328 . S
C403 O387 1.264 . S
C403 O388 1.243 . S
C404 C407 1.399 . S
C404 C408 1.383 . S
C404 C411 1.496 . S
C405 C406 1.399 . S
C405 C408 1.389 . S
C406 C405 1.399 . S
C406 C409 1.380 . S
C406 H416 0.929 . S
C407 C404 1.399 . S
C407 C409 1.392 . S
C407 H417 0.929 . S
C408 C404 1.383 . S
C408 C405 1.389 . S
C408 H418 0.931 . S
C409 C406 1.380 . S
C409 C407 1.392 . S
C409 H419 0.929 . S
C410 O390 1.266 . S
C410 O391 1.248 . S
C411 Tb347 2.802 . S
C411 O386 1.264 . S
C411 O389 1.256 . S
C411 C404 1.496 . S
H412 C395 0.929 . S
H413 C396 0.929 . S
H414 C397 0.929 . S
H415 C398 0.931 . S
H416 C406 0.929 . S
H417 C407 0.929 . S
H418 C408 0.931 . S
H419 C409 0.929 . S
Tb420 N449 2.617 . S
Tb420 N455 2.572 . S
Tb420 O464 2.465 1_545 S
Tb420 O465 2.387 . S
Tb420 O467 2.428 1_545 S
Tb420 O468 2.308 . S
Tb420 O472 2.349 . S
Tb420 O475 2.393 . S
Tb420 C484 2.802 1_545 S
C421 N422 1.379 . S
C421 C424 1.416 . S
C421 C428 1.424 . S
N422 C421 1.379 . S
N422 C425 1.334 . S
N422 Tb431 2.617 . S
C423 C425 1.390 . S
C423 C426 1.339 . S
C423 H443 0.930 . S
C424 C421 1.416 . S
C424 C426 1.416 . S
C424 C430 1.448 . S
C425 N422 1.334 . S
C425 C423 1.390 . S
C425 H436 0.930 . S
C426 C423 1.339 . S
C426 C424 1.416 . S
C426 H447 0.930 . S
C427 C428 1.413 . S
C427 C429 1.427 . S
C427 C433 1.416 . S
C428 C421 1.424 . S
C428 C427 1.413 . S
C428 N432 1.361 . S
C429 C427 1.427 . S
C429 C430 1.328 . S
C429 H444 0.929 1_455 S
C430 C424 1.448 . S
C430 C429 1.328 . S
C430 H445 0.930 1_455 S
Tb431 N422 2.617 . S
Tb431 N432 2.572 . S
Tb431 O466 2.349 . S
Tb431 O469 2.393 . S
Tb431 O470 2.465 . S
Tb431 O471 2.387 . S
Tb431 O473 2.428 . S
Tb431 O474 2.308 . S
Tb431 C495 2.802 . S
N432 C428 1.361 . S
N432 Tb431 2.572 . S
N432 C434 1.340 . S
C433 C427 1.416 . S
C433 C435 1.332 . S
C433 H441 0.931 . S
C434 N432 1.340 . S
C434 C435 1.407 . S
C434 H440 0.930 . S
C435 C433 1.332 . S
C435 C434 1.407 . S
C435 H437 0.929 . S
H436 C425 0.930 . S
H437 C435 0.929 . S
H438 C453 0.930 . S
H439 C460 0.929 . S
H440 C434 0.930 . S
H441 C433 0.931 . S
H442 C456 0.930 . S
H443 C423 0.930 . S
H444 C429 0.929 1_655 S
H445 C430 0.930 1_655 S
H446 C451 0.930 . S
H447 C426 0.930 . S
H448 C459 0.931 1_565 S
N449 Tb420 2.617 . S
N449 C450 1.379 . S
N449 C453 1.334 . S
C450 N449 1.379 . S
C450 C452 1.416 . S
C450 C458 1.424 . S
C451 H446 0.930 . S
C451 C453 1.390 . S
C451 C454 1.339 . S
C452 C450 1.416 . S
C452 C454 1.416 . S
C452 C485 1.448 . S
C453 H438 0.930 . S
C453 N449 1.334 . S
C453 C451 1.390 . S
C454 C451 1.339 . S
C454 C452 1.416 . S
C454 H461 0.930 . S
N455 Tb420 2.572 . S
N455 C456 1.340 . S
N455 C458 1.361 . S
C456 H442 0.930 . S
C456 N455 1.340 . S
C456 C460 1.407 . S
C457 C458 1.413 . S
C457 C459 1.416 . S
C457 C486 1.427 . S
C458 C450 1.424 . S
C458 N455 1.361 . S
C458 C457 1.413 . S
C459 H448 0.931 1_545 S
C459 C457 1.416 . S
C459 C460 1.332 . S
C460 H439 0.929 . S
C460 C456 1.407 . S
C460 C459 1.332 . S
H461 C454 0.930 . S
H462 C485 0.930 . S
H463 C486 0.929 . S
O464 Tb420 2.465 1_565 S
O464 C484 1.264 . S
O465 Tb420 2.387 . S
O465 C476 1.264 . S
O466 Tb431 2.349 . S
O466 C476 1.243 . S
O467 Tb420 2.428 1_565 S
O467 C484 1.256 . S
O468 Tb420 2.308 . S
O468 C483 1.266 . S
O469 Tb431 2.393 . S
O469 C483 1.248 . S
O470 Tb431 2.465 . S
O470 C495 1.264 . S
O471 Tb431 2.387 . S
O471 C487 1.264 . S
O472 Tb420 2.349 . S
O472 C487 1.243 . S
O473 Tb431 2.428 . S
O473 C495 1.256 . S
O474 Tb431 2.308 . S
O474 C494 1.266 . S
O475 Tb420 2.393 . S
O475 C494 1.248 . S
C476 O465 1.264 . S
C476 O466 1.243 . S
C477 C480 1.399 . S
C477 C482 1.383 . S
C477 C484 1.496 . S
C478 C479 1.399 . S
C478 C482 1.389 . S
C479 C478 1.399 . S
C479 C481 1.380 . S
C479 H496 0.929 . S
C480 C477 1.399 . S
C480 C481 1.392 . S
C480 H497 0.929 . S
C481 C479 1.380 . S
C481 C480 1.392 . S
C481 H498 0.929 . S
C482 C477 1.383 . S
C482 C478 1.389 . S
C482 H499 0.931 . S
C483 O468 1.266 . S
C483 O469 1.248 . S
C484 Tb420 2.802 1_565 S
C484 O464 1.264 . S
C484 O467 1.256 . S
C484 C477 1.496 . S
C485 C452 1.448 . S
C485 H462 0.930 . S
C485 C486 1.328 . S
C486 C457 1.427 . S
C486 H463 0.929 . S
C486 C485 1.328 . S
C487 O471 1.264 . S
C487 O472 1.243 . S
C488 C491 1.399 . S
C488 C492 1.383 . S
C488 C495 1.496 . S
C489 C490 1.399 . S
C489 C492 1.389 . S
C490 C489 1.399 . S
C490 C493 1.380 . S
C490 H500 0.929 . S
C491 C488 1.399 . S
C491 C493 1.392 . S
C491 H501 0.929 . S
C492 C488 1.383 . S
C492 C489 1.389 . S
C492 H502 0.931 . S
C493 C490 1.380 . S
C493 C491 1.392 . S
C493 H503 0.929 . S
C494 O474 1.266 . S
C494 O475 1.248 . S
C495 Tb431 2.802 . S
C495 O470 1.264 . S
C495 O473 1.256 . S
C495 C488 1.496 . S
H496 C479 0.929 . S
H497 C480 0.929 . S
H498 C481 0.929 . S
H499 C482 0.931 . S
H500 C490 0.929 . S
H501 C491 0.929 . S
H502 C492 0.931 . S
H503 C493 0.929 . S
Tb504 N533 2.617 . S
Tb504 N539 2.572 . S
Tb504 O548 2.465 1_545 S
Tb504 O549 2.387 . S
Tb504 O551 2.428 1_545 S
Tb504 O552 2.308 . S
Tb504 O556 2.349 . S
Tb504 O559 2.393 . S
Tb504 C568 2.802 1_545 S
C505 N506 1.379 . S
C505 C508 1.416 . S
C505 C512 1.424 . S
N506 C505 1.379 . S
N506 C509 1.334 . S
N506 Tb515 2.617 . S
C507 C509 1.390 . S
C507 C510 1.339 . S
C507 H527 0.930 . S
C508 C505 1.416 . S
C508 C510 1.416 . S
C508 C514 1.448 . S
C509 N506 1.334 . S
C509 C507 1.390 . S
C509 H520 0.930 . S
C510 C507 1.339 . S
C510 C508 1.416 . S
C510 H531 0.930 . S
C511 C512 1.413 . S
C511 C513 1.427 . S
C511 C517 1.416 . S
C512 C505 1.424 . S
C512 C511 1.413 . S
C512 N516 1.361 . S
C513 C511 1.427 . S
C513 C514 1.328 . S
C513 H528 0.929 1_655 S
C514 C508 1.448 . S
C514 C513 1.328 . S
C514 H529 0.930 1_655 S
Tb515 N506 2.617 . S
Tb515 N516 2.572 . S
Tb515 O550 2.349 . S
Tb515 O553 2.393 . S
Tb515 O554 2.465 . S
Tb515 O555 2.387 . S
Tb515 O557 2.428 . S
Tb515 O558 2.308 . S
Tb515 C579 2.802 . S
N516 C512 1.361 . S
N516 Tb515 2.572 . S
N516 C518 1.340 . S
C517 C511 1.416 . S
C517 C519 1.332 . S
C517 H525 0.931 . S
C518 N516 1.340 . S
C518 C519 1.407 . S
C518 H524 0.930 . S
C519 C517 1.332 . S
C519 C518 1.407 . S
C519 H521 0.929 . S
H520 C509 0.930 . S
H521 C519 0.929 . S
H522 C537 0.930 . S
H523 C544 0.929 . S
H524 C518 0.930 . S
H525 C517 0.931 . S
H526 C540 0.930 . S
H527 C507 0.930 . S
H528 C513 0.929 1_455 S
H529 C514 0.930 1_455 S
H530 C535 0.930 . S
H531 C510 0.930 . S
H532 C543 0.931 1_565 S
N533 Tb504 2.617 . S
N533 C534 1.379 . S
N533 C537 1.334 . S
C534 N533 1.379 . S
C534 C536 1.416 . S
C534 C542 1.424 . S
C535 H530 0.930 . S
C535 C537 1.390 . S
C535 C538 1.339 . S
C536 C534 1.416 . S
C536 C538 1.416 . S
C536 C569 1.448 . S
C537 H522 0.930 . S
C537 N533 1.334 . S
C537 C535 1.390 . S
C538 C535 1.339 . S
C538 C536 1.416 . S
C538 H545 0.930 . S
N539 Tb504 2.572 . S
N539 C540 1.340 . S
N539 C542 1.361 . S
C540 H526 0.930 . S
C540 N539 1.340 . S
C540 C544 1.407 . S
C541 C542 1.413 . S
C541 C543 1.416 . S
C541 C570 1.427 . S
C542 C534 1.424 . S
C542 N539 1.361 . S
C542 C541 1.413 . S
C543 H532 0.931 1_545 S
C543 C541 1.416 . S
C543 C544 1.332 . S
C544 H523 0.929 . S
C544 C540 1.407 . S
C544 C543 1.332 . S
H545 C538 0.930 . S
H546 C569 0.930 . S
H547 C570 0.929 . S
O548 Tb504 2.465 1_565 S
O548 C568 1.264 . S
O549 Tb504 2.387 . S
O549 C560 1.264 . S
O550 Tb515 2.349 . S
O550 C560 1.243 . S
O551 Tb504 2.428 1_565 S
O551 C568 1.256 . S
O552 Tb504 2.308 . S
O552 C567 1.266 . S
O553 Tb515 2.393 . S
O553 C567 1.248 . S
O554 Tb515 2.465 . S
O554 C579 1.264 . S
O555 Tb515 2.387 . S
O555 C571 1.264 . S
O556 Tb504 2.349 . S
O556 C571 1.243 . S
O557 Tb515 2.428 . S
O557 C579 1.256 . S
O558 Tb515 2.308 . S
O558 C578 1.266 . S
O559 Tb504 2.393 . S
O559 C578 1.248 . S
C560 O549 1.264 . S
C560 O550 1.243 . S
C561 C564 1.399 . S
C561 C566 1.383 . S
C561 C568 1.496 . S
C562 C563 1.399 . S
C562 C566 1.389 . S
C563 C562 1.399 . S
C563 C565 1.380 . S
C563 H580 0.929 . S
C564 C561 1.399 . S
C564 C565 1.392 . S
C564 H581 0.929 . S
C565 C563 1.380 . S
C565 C564 1.392 . S
C565 H582 0.929 . S
C566 C561 1.383 . S
C566 C562 1.389 . S
C566 H583 0.931 . S
C567 O552 1.266 . S
C567 O553 1.248 . S
C568 Tb504 2.802 1_565 S
C568 O548 1.264 . S
C568 O551 1.256 . S
C568 C561 1.496 . S
C569 C536 1.448 . S
C569 H546 0.930 . S
C569 C570 1.328 . S
C570 C541 1.427 . S
C570 H547 0.929 . S
C570 C569 1.328 . S
C571 O555 1.264 . S
C571 O556 1.243 . S
C572 C575 1.399 . S
C572 C576 1.383 . S
C572 C579 1.496 . S
C573 C574 1.399 . S
C573 C576 1.389 . S
C574 C573 1.399 . S
C574 C577 1.380 . S
C574 H584 0.929 . S
C575 C572 1.399 . S
C575 C577 1.392 . S
C575 H585 0.929 . S
C576 C572 1.383 . S
C576 C573 1.389 . S
C576 H586 0.931 . S
C577 C574 1.380 . S
C577 C575 1.392 . S
C577 H587 0.929 . S
C578 O558 1.266 . S
C578 O559 1.248 . S
C579 Tb515 2.802 . S
C579 O554 1.264 . S
C579 O557 1.256 . S
C579 C572 1.496 . S
H580 C563 0.929 . S
H581 C564 0.929 . S
H582 C565 0.929 . S
H583 C566 0.931 . S
H584 C574 0.929 . S
H585 C575 0.929 . S
H586 C576 0.931 . S
H587 C577 0.929 . S
Tb588 N617 2.617 . S
Tb588 N623 2.572 . S
Tb588 O632 2.465 1_565 S
Tb588 O633 2.387 . S
Tb588 O635 2.428 1_565 S
Tb588 O636 2.308 . S
Tb588 O640 2.349 . S
Tb588 O643 2.393 . S
Tb588 C652 2.802 1_565 S
C589 N590 1.379 . S
C589 C592 1.416 . S
C589 C596 1.424 . S
N590 C589 1.379 . S
N590 C593 1.334 . S
N590 Tb599 2.617 . S
C591 C593 1.390 . S
C591 C594 1.339 . S
C591 H611 0.930 . S
C592 C589 1.416 . S
C592 C594 1.416 . S
C592 C598 1.448 . S
C593 N590 1.334 . S
C593 C591 1.390 . S
C593 H604 0.930 . S
C594 C591 1.339 . S
C594 C592 1.416 . S
C594 H615 0.930 . S
C595 C596 1.413 . S
C595 C597 1.427 . S
C595 C601 1.416 . S
C596 C589 1.424 . S
C596 C595 1.413 . S
C596 N600 1.361 . S
C597 C595 1.427 . S
C597 C598 1.328 . S
C597 H612 0.929 1_455 S
C598 C592 1.448 . S
C598 C597 1.328 . S
C598 H613 0.930 1_455 S
Tb599 N590 2.617 . S
Tb599 N600 2.572 . S
Tb599 O634 2.349 . S
Tb599 O637 2.393 . S
Tb599 O638 2.465 . S
Tb599 O639 2.387 . S
Tb599 O641 2.428 . S
Tb599 O642 2.308 . S
Tb599 C663 2.802 . S
N600 C596 1.361 . S
N600 Tb599 2.572 . S
N600 C602 1.340 . S
C601 C595 1.416 . S
C601 C603 1.332 . S
C601 H609 0.931 . S
C602 N600 1.340 . S
C602 C603 1.407 . S
C602 H608 0.930 . S
C603 C601 1.332 . S
C603 C602 1.407 . S
C603 H605 0.929 . S
H604 C593 0.930 . S
H605 C603 0.929 . S
H606 C621 0.930 . S
H607 C628 0.929 . S
H608 C602 0.930 . S
H609 C601 0.931 . S
H610 C624 0.930 . S
H611 C591 0.930 . S
H612 C597 0.929 1_655 S
H613 C598 0.930 1_655 S
H614 C619 0.930 . S
H615 C594 0.930 . S
H616 C627 0.931 1_545 S
N617 Tb588 2.617 . S
N617 C618 1.379 . S
N617 C621 1.334 . S
C618 N617 1.379 . S
C618 C620 1.416 . S
C618 C626 1.424 . S
C619 H614 0.930 . S
C619 C621 1.390 . S
C619 C622 1.339 . S
C620 C618 1.416 . S
C620 C622 1.416 . S
C620 C653 1.448 . S
C621 H606 0.930 . S
C621 N617 1.334 . S
C621 C619 1.390 . S
C622 C619 1.339 . S
C622 C620 1.416 . S
C622 H629 0.930 . S
N623 Tb588 2.572 . S
N623 C624 1.340 . S
N623 C626 1.361 . S
C624 H610 0.930 . S
C624 N623 1.340 . S
C624 C628 1.407 . S
C625 C626 1.413 . S
C625 C627 1.416 . S
C625 C654 1.427 . S
C626 C618 1.424 . S
C626 N623 1.361 . S
C626 C625 1.413 . S
C627 H616 0.931 1_565 S
C627 C625 1.416 . S
C627 C628 1.332 . S
C628 H607 0.929 . S
C628 C624 1.407 . S
C628 C627 1.332 . S
H629 C622 0.930 . S
H630 C653 0.930 . S
H631 C654 0.929 . S
O632 Tb588 2.465 1_545 S
O632 C652 1.264 . S
O633 Tb588 2.387 . S
O633 C644 1.264 . S
O634 Tb599 2.349 . S
O634 C644 1.243 . S
O635 Tb588 2.428 1_545 S
O635 C652 1.256 . S
O636 Tb588 2.308 . S
O636 C651 1.266 . S
O637 Tb599 2.393 . S
O637 C651 1.248 . S
O638 Tb599 2.465 . S
O638 C663 1.264 . S
O639 Tb599 2.387 . S
O639 C655 1.264 . S
O640 Tb588 2.349 . S
O640 C655 1.243 . S
O641 Tb599 2.428 . S
O641 C663 1.256 . S
O642 Tb599 2.308 . S
O642 C662 1.266 . S
O643 Tb588 2.393 . S
O643 C662 1.248 . S
C644 O633 1.264 . S
C644 O634 1.243 . S
C645 C648 1.399 . S
C645 C650 1.383 . S
C645 C652 1.496 . S
C646 C647 1.399 . S
C646 C650 1.389 . S
C647 C646 1.399 . S
C647 C649 1.380 . S
C647 H664 0.929 . S
C648 C645 1.399 . S
C648 C649 1.392 . S
C648 H665 0.929 . S
C649 C647 1.380 . S
C649 C648 1.392 . S
C649 H666 0.929 . S
C650 C645 1.383 . S
C650 C646 1.389 . S
C650 H667 0.931 . S
C651 O636 1.266 . S
C651 O637 1.248 . S
C652 Tb588 2.802 1_545 S
C652 O632 1.264 . S
C652 O635 1.256 . S
C652 C645 1.496 . S
C653 C620 1.448 . S
C653 H630 0.930 . S
C653 C654 1.328 . S
C654 C625 1.427 . S
C654 H631 0.929 . S
C654 C653 1.328 . S
C655 O639 1.264 . S
C655 O640 1.243 . S
C656 C659 1.399 . S
C656 C660 1.383 . S
C656 C663 1.496 . S
C657 C658 1.399 . S
C657 C660 1.389 . S
C658 C657 1.399 . S
C658 C661 1.380 . S
C658 H668 0.929 . S
C659 C656 1.399 . S
C659 C661 1.392 . S
C659 H669 0.929 . S
C660 C656 1.383 . S
C660 C657 1.389 . S
C660 H670 0.931 . S
C661 C658 1.380 . S
C661 C659 1.392 . S
C661 H671 0.929 . S
C662 O642 1.266 . S
C662 O643 1.248 . S
C663 Tb599 2.802 . S
C663 O638 1.264 . S
C663 O641 1.256 . S
C663 C656 1.496 . S
H664 C647 0.929 . S
H665 C648 0.929 . S
H666 C649 0.929 . S
H667 C650 0.931 . S
H668 C658 0.929 . S
H669 C659 0.929 . S
H670 C660 0.931 . S
H671 C661 0.929 . S
Tb672 N701 2.617 . S
Tb672 N707 2.572 . S
Tb672 O716 2.465 . S
Tb672 O717 2.387 . S
Tb672 O719 2.428 . S
Tb672 O720 2.308 . S
Tb672 O724 2.349 . S
Tb672 O727 2.393 . S
Tb672 C736 2.802 . S
C673 N674 1.379 . S
C673 C676 1.416 . S
C673 C680 1.424 . S
N674 C673 1.379 . S
N674 C677 1.334 . S
N674 Tb683 2.617 . S
C675 C677 1.390 . S
C675 C678 1.339 . S
C675 H695 0.930 . S
C676 C673 1.416 . S
C676 C678 1.416 . S
C676 C682 1.448 . S
C677 N674 1.334 . S
C677 C675 1.390 . S
C677 H688 0.930 . S
C678 C675 1.339 . S
C678 C676 1.416 . S
C678 H699 0.930 . S
C679 C680 1.413 . S
C679 C681 1.427 . S
C679 C685 1.416 . S
C680 C673 1.424 . S
C680 C679 1.413 . S
C680 N684 1.361 . S
C681 C679 1.427 . S
C681 C682 1.328 . S
C681 H696 0.929 . S
C682 C676 1.448 . S
C682 C681 1.328 . S
C682 H697 0.930 . S
Tb683 N674 2.617 . S
Tb683 N684 2.572 . S
Tb683 O718 2.349 . S
Tb683 O721 2.393 . S
Tb683 O722 2.465 . S
Tb683 O723 2.387 . S
Tb683 O725 2.428 . S
Tb683 O726 2.308 . S
Tb683 C747 2.802 . S
N684 C680 1.361 . S
N684 Tb683 2.572 . S
N684 C686 1.340 . S
C685 C679 1.416 . S
C685 C687 1.332 . S
C685 H693 0.931 . S
C686 N684 1.340 . S
C686 C687 1.407 . S
C686 H692 0.930 . S
C687 C685 1.332 . S
C687 C686 1.407 . S
C687 H689 0.929 . S
H688 C677 0.930 . S
H689 C687 0.929 . S
H690 C705 0.930 . S
H691 C712 0.929 . S
H692 C686 0.930 . S
H693 C685 0.931 . S
H694 C708 0.930 . S
H695 C675 0.930 . S
H696 C681 0.929 . S
H697 C682 0.930 . S
H698 C703 0.930 . S
H699 C678 0.930 . S
H700 C711 0.931 . S
N701 Tb672 2.617 . S
N701 C702 1.379 . S
N701 C705 1.334 . S
C702 N701 1.379 . S
C702 C704 1.416 . S
C702 C710 1.424 . S
C703 H698 0.930 . S
C703 C705 1.390 . S
C703 C706 1.339 . S
C704 C702 1.416 . S
C704 C706 1.416 . S
C704 C737 1.448 . S
C705 H690 0.930 . S
C705 N701 1.334 . S
C705 C703 1.390 . S
C706 C703 1.339 . S
C706 C704 1.416 . S
C706 H713 0.930 . S
N707 Tb672 2.572 . S
N707 C708 1.340 . S
N707 C710 1.361 . S
C708 H694 0.930 . S
C708 N707 1.340 . S
C708 C712 1.407 . S
C709 C710 1.413 . S
C709 C711 1.416 . S
C709 C738 1.427 . S
C710 C702 1.424 . S
C710 N707 1.361 . S
C710 C709 1.413 . S
C711 H700 0.931 . S
C711 C709 1.416 . S
C711 C712 1.332 . S
C712 H691 0.929 . S
C712 C708 1.407 . S
C712 C711 1.332 . S
H713 C706 0.930 . S
H714 C737 0.930 . S
H715 C738 0.929 . S
O716 Tb672 2.465 . S
O716 C736 1.264 . S
O717 Tb672 2.387 . S
O717 C728 1.264 . S
O718 Tb683 2.349 . S
O718 C728 1.243 . S
O719 Tb672 2.428 . S
O719 C736 1.256 . S
O720 Tb672 2.308 . S
O720 C735 1.266 . S
O721 Tb683 2.393 . S
O721 C735 1.248 . S
O722 Tb683 2.465 . S
O722 C747 1.264 . S
O723 Tb683 2.387 . S
O723 C739 1.264 . S
O724 Tb672 2.349 . S
O724 C739 1.243 . S
O725 Tb683 2.428 . S
O725 C747 1.256 . S
O726 Tb683 2.308 . S
O726 C746 1.266 . S
O727 Tb672 2.393 . S
O727 C746 1.248 . S
C728 O717 1.264 . S
C728 O718 1.243 . S
C729 C732 1.399 . S
C729 C734 1.383 . S
C729 C736 1.496 . S
C730 C731 1.399 . S
C730 C734 1.389 . S
C731 C730 1.399 . S
C731 C733 1.380 . S
C731 H748 0.929 1_565 S
C732 C729 1.399 . S
C732 C733 1.392 . S
C732 H749 0.929 . S
C733 C731 1.380 . S
C733 C732 1.392 . S
C733 H750 0.929 . S
C734 C729 1.383 . S
C734 C730 1.389 . S
C734 H751 0.931 . S
C735 O720 1.266 . S
C735 O721 1.248 . S
C736 Tb672 2.802 . S
C736 O716 1.264 . S
C736 O719 1.256 . S
C736 C729 1.496 . S
C737 C704 1.448 . S
C737 H714 0.930 . S
C737 C738 1.328 . S
C738 C709 1.427 . S
C738 H715 0.929 . S
C738 C737 1.328 . S
C739 O723 1.264 . S
C739 O724 1.243 . S
C740 C743 1.399 . S
C740 C744 1.383 . S
C740 C747 1.496 . S
C741 C742 1.399 . S
C741 C744 1.389 . S
C742 C741 1.399 . S
C742 C745 1.380 . S
C742 H752 0.929 . S
C743 C740 1.399 . S
C743 C745 1.392 . S
C743 H753 0.929 . S
C744 C740 1.383 . S
C744 C741 1.389 . S
C744 H754 0.931 . S
C745 C742 1.380 . S
C745 C743 1.392 . S
C745 H755 0.929 . S
C746 O726 1.266 . S
C746 O727 1.248 . S
C747 Tb683 2.802 . S
C747 O722 1.264 . S
C747 O725 1.256 . S
C747 C740 1.496 . S
H748 C731 0.929 1_545 S
H749 C732 0.929 . S
H750 C733 0.929 . S
H751 C734 0.931 . S
H752 C742 0.929 . S
H753 C743 0.929 . S
H754 C744 0.931 . S
H755 C745 0.929 . S
Tb756 N785 2.617 . S
Tb756 N791 2.572 . S
Tb756 O800 2.465 . S
Tb756 O801 2.387 . S
Tb756 O803 2.428 . S
Tb756 O804 2.308 . S
Tb756 O808 2.349 . S
Tb756 O811 2.393 . S
Tb756 C820 2.802 . S
C757 N758 1.379 . S
C757 C760 1.416 . S
C757 C764 1.424 . S
N758 C757 1.379 . S
N758 C761 1.334 . S
N758 Tb767 2.617 . S
C759 C761 1.390 . S
C759 C762 1.339 . S
C759 H779 0.930 . S
C760 C757 1.416 . S
C760 C762 1.416 . S
C760 C766 1.448 . S
C761 N758 1.334 . S
C761 C759 1.390 . S
C761 H772 0.930 . S
C762 C759 1.339 . S
C762 C760 1.416 . S
C762 H783 0.930 . S
C763 C764 1.413 . S
C763 C765 1.427 . S
C763 C769 1.416 . S
C764 C757 1.424 . S
C764 C763 1.413 . S
C764 N768 1.361 . S
C765 C763 1.427 . S
C765 C766 1.328 . S
C765 H780 0.929 . S
C766 C760 1.448 . S
C766 C765 1.328 . S
C766 H781 0.930 . S
Tb767 N758 2.617 . S
Tb767 N768 2.572 . S
Tb767 O802 2.349 . S
Tb767 O805 2.393 . S
Tb767 O806 2.465 . S
Tb767 O807 2.387 . S
Tb767 O809 2.428 . S
Tb767 O810 2.308 . S
Tb767 C831 2.802 . S
N768 C764 1.361 . S
N768 Tb767 2.572 . S
N768 C770 1.340 . S
C769 C763 1.416 . S
C769 C771 1.332 . S
C769 H777 0.931 . S
C770 N768 1.340 . S
C770 C771 1.407 . S
C770 H776 0.930 . S
C771 C769 1.332 . S
C771 C770 1.407 . S
C771 H773 0.929 . S
H772 C761 0.930 . S
H773 C771 0.929 . S
H774 C789 0.930 . S
H775 C796 0.929 . S
H776 C770 0.930 . S
H777 C769 0.931 . S
H778 C792 0.930 . S
H779 C759 0.930 . S
H780 C765 0.929 . S
H781 C766 0.930 . S
H782 C787 0.930 . S
H783 C762 0.930 . S
H784 C795 0.931 . S
N785 Tb756 2.617 . S
N785 C786 1.379 . S
N785 C789 1.334 . S
C786 N785 1.379 . S
C786 C788 1.416 . S
C786 C794 1.424 . S
C787 H782 0.930 . S
C787 C789 1.390 . S
C787 C790 1.339 . S
C788 C786 1.416 . S
C788 C790 1.416 . S
C788 C821 1.448 . S
C789 H774 0.930 . S
C789 N785 1.334 . S
C789 C787 1.390 . S
C790 C787 1.339 . S
C790 C788 1.416 . S
C790 H797 0.930 . S
N791 Tb756 2.572 . S
N791 C792 1.340 . S
N791 C794 1.361 . S
C792 H778 0.930 . S
C792 N791 1.340 . S
C792 C796 1.407 . S
C793 C794 1.413 . S
C793 C795 1.416 . S
C793 C822 1.427 . S
C794 C786 1.424 . S
C794 N791 1.361 . S
C794 C793 1.413 . S
C795 H784 0.931 . S
C795 C793 1.416 . S
C795 C796 1.332 . S
C796 H775 0.929 . S
C796 C792 1.407 . S
C796 C795 1.332 . S
H797 C790 0.930 . S
H798 C821 0.930 . S
H799 C822 0.929 . S
O800 Tb756 2.465 . S
O800 C820 1.264 . S
O801 Tb756 2.387 . S
O801 C812 1.264 . S
O802 Tb767 2.349 . S
O802 C812 1.243 . S
O803 Tb756 2.428 . S
O803 C820 1.256 . S
O804 Tb756 2.308 . S
O804 C819 1.266 . S
O805 Tb767 2.393 . S
O805 C819 1.248 . S
O806 Tb767 2.465 . S
O806 C831 1.264 . S
O807 Tb767 2.387 . S
O807 C823 1.264 . S
O808 Tb756 2.349 . S
O808 C823 1.243 . S
O809 Tb767 2.428 . S
O809 C831 1.256 . S
O810 Tb767 2.308 . S
O810 C830 1.266 . S
O811 Tb756 2.393 . S
O811 C830 1.248 . S
C812 O801 1.264 . S
C812 O802 1.243 . S
C813 C816 1.399 . S
C813 C818 1.383 . S
C813 C820 1.496 . S
C814 C815 1.399 . S
C814 C818 1.389 . S
C815 C814 1.399 . S
C815 C817 1.380 . S
C815 H832 0.929 1_545 S
C816 C813 1.399 . S
C816 C817 1.392 . S
C816 H833 0.929 . S
C817 C815 1.380 . S
C817 C816 1.392 . S
C817 H834 0.929 . S
C818 C813 1.383 . S
C818 C814 1.389 . S
C818 H835 0.931 . S
C819 O804 1.266 . S
C819 O805 1.248 . S
C820 Tb756 2.802 . S
C820 O800 1.264 . S
C820 O803 1.256 . S
C820 C813 1.496 . S
C821 C788 1.448 . S
C821 H798 0.930 . S
C821 C822 1.328 . S
C822 C793 1.427 . S
C822 H799 0.929 . S
C822 C821 1.328 . S
C823 O807 1.264 . S
C823 O808 1.243 . S
C824 C827 1.399 . S
C824 C828 1.383 . S
C824 C831 1.496 . S
C825 C826 1.399 . S
C825 C828 1.389 . S
C826 C825 1.399 . S
C826 C829 1.380 . S
C826 H836 0.929 . S
C827 C824 1.399 . S
C827 C829 1.392 . S
C827 H837 0.929 . S
C828 C824 1.383 . S
C828 C825 1.389 . S
C828 H838 0.931 . S
C829 C826 1.380 . S
C829 C827 1.392 . S
C829 H839 0.929 . S
C830 O810 1.266 . S
C830 O811 1.248 . S
C831 Tb767 2.802 . S
C831 O806 1.264 . S
C831 O809 1.256 . S
C831 C824 1.496 . S
H832 C815 0.929 1_565 S
H833 C816 0.929 . S
H834 C817 0.929 . S
H835 C818 0.931 . S
H836 C826 0.929 . S
H837 C827 0.929 . S
H838 C828 0.931 . S
H839 C829 0.929 . S
Tb840 N869 2.617 . S
Tb840 N875 2.572 . S
Tb840 O884 2.465 . S
Tb840 O885 2.387 . S
Tb840 O887 2.428 . S
Tb840 O888 2.308 . S
Tb840 O892 2.349 . S
Tb840 O895 2.393 . S
Tb840 C904 2.802 . S
C841 N842 1.379 . S
C841 C844 1.416 . S
C841 C848 1.424 . S
N842 C841 1.379 . S
N842 C845 1.334 . S
N842 Tb851 2.617 . S
C843 C845 1.390 . S
C843 C846 1.339 . S
C843 H863 0.930 . S
C844 C841 1.416 . S
C844 C846 1.416 . S
C844 C850 1.448 . S
C845 N842 1.334 . S
C845 C843 1.390 . S
C845 H856 0.930 . S
C846 C843 1.339 . S
C846 C844 1.416 . S
C846 H867 0.930 . S
C847 C848 1.413 . S
C847 C849 1.427 . S
C847 C853 1.416 . S
C848 C841 1.424 . S
C848 C847 1.413 . S
C848 N852 1.361 . S
C849 C847 1.427 . S
C849 C850 1.328 . S
C849 H864 0.929 . S
C850 C844 1.448 . S
C850 C849 1.328 . S
C850 H865 0.930 . S
Tb851 N842 2.617 . S
Tb851 N852 2.572 . S
Tb851 O886 2.349 . S
Tb851 O889 2.393 . S
Tb851 O890 2.465 . S
Tb851 O891 2.387 . S
Tb851 O893 2.428 . S
Tb851 O894 2.308 . S
Tb851 C915 2.802 . S
N852 C848 1.361 . S
N852 Tb851 2.572 . S
N852 C854 1.340 . S
C853 C847 1.416 . S
C853 C855 1.332 . S
C853 H861 0.931 . S
C854 N852 1.340 . S
C854 C855 1.407 . S
C854 H860 0.930 . S
C855 C853 1.332 . S
C855 C854 1.407 . S
C855 H857 0.929 . S
H856 C845 0.930 . S
H857 C855 0.929 . S
H858 C873 0.930 . S
H859 C880 0.929 . S
H860 C854 0.930 . S
H861 C853 0.931 . S
H862 C876 0.930 . S
H863 C843 0.930 . S
H864 C849 0.929 . S
H865 C850 0.930 . S
H866 C871 0.930 . S
H867 C846 0.930 . S
H868 C879 0.931 . S
N869 Tb840 2.617 . S
N869 C870 1.379 . S
N869 C873 1.334 . S
C870 N869 1.379 . S
C870 C872 1.416 . S
C870 C878 1.424 . S
C871 H866 0.930 . S
C871 C873 1.390 . S
C871 C874 1.339 . S
C872 C870 1.416 . S
C872 C874 1.416 . S
C872 C905 1.448 . S
C873 H858 0.930 . S
C873 N869 1.334 . S
C873 C871 1.390 . S
C874 C871 1.339 . S
C874 C872 1.416 . S
C874 H881 0.930 . S
N875 Tb840 2.572 . S
N875 C876 1.340 . S
N875 C878 1.361 . S
C876 H862 0.930 . S
C876 N875 1.340 . S
C876 C880 1.407 . S
C877 C878 1.413 . S
C877 C879 1.416 . S
C877 C906 1.427 . S
C878 C870 1.424 . S
C878 N875 1.361 . S
C878 C877 1.413 . S
C879 H868 0.931 . S
C879 C877 1.416 . S
C879 C880 1.332 . S
C880 H859 0.929 . S
C880 C876 1.407 . S
C880 C879 1.332 . S
H881 C874 0.930 . S
H882 C905 0.930 . S
H883 C906 0.929 . S
O884 Tb840 2.465 . S
O884 C904 1.264 . S
O885 Tb840 2.387 . S
O885 C896 1.264 . S
O886 Tb851 2.349 . S
O886 C896 1.243 . S
O887 Tb840 2.428 . S
O887 C904 1.256 . S
O888 Tb840 2.308 . S
O888 C903 1.266 . S
O889 Tb851 2.393 . S
O889 C903 1.248 . S
O890 Tb851 2.465 . S
O890 C915 1.264 . S
O891 Tb851 2.387 . S
O891 C907 1.264 . S
O892 Tb840 2.349 . S
O892 C907 1.243 . S
O893 Tb851 2.428 . S
O893 C915 1.256 . S
O894 Tb851 2.308 . S
O894 C914 1.266 . S
O895 Tb840 2.393 . S
O895 C914 1.248 . S
C896 O885 1.264 . S
C896 O886 1.243 . S
C897 C900 1.399 . S
C897 C902 1.383 . S
C897 C904 1.496 . S
C898 C899 1.399 . S
C898 C902 1.389 . S
C899 C898 1.399 . S
C899 C901 1.380 . S
C899 H916 0.929 1_545 S
C900 C897 1.399 . S
C900 C901 1.392 . S
C900 H917 0.929 . S
C901 C899 1.380 . S
C901 C900 1.392 . S
C901 H918 0.929 . S
C902 C897 1.383 . S
C902 C898 1.389 . S
C902 H919 0.931 . S
C903 O888 1.266 . S
C903 O889 1.248 . S
C904 Tb840 2.802 . S
C904 O884 1.264 . S
C904 O887 1.256 . S
C904 C897 1.496 . S
C905 C872 1.448 . S
C905 H882 0.930 . S
C905 C906 1.328 . S
C906 C877 1.427 . S
C906 H883 0.929 . S
C906 C905 1.328 . S
C907 O891 1.264 . S
C907 O892 1.243 . S
C908 C911 1.399 . S
C908 C912 1.383 . S
C908 C915 1.496 . S
C909 C910 1.399 . S
C909 C912 1.389 . S
C910 C909 1.399 . S
C910 C913 1.380 . S
C910 H920 0.929 . S
C911 C908 1.399 . S
C911 C913 1.392 . S
C911 H921 0.929 . S
C912 C908 1.383 . S
C912 C909 1.389 . S
C912 H922 0.931 . S
C913 C910 1.380 . S
C913 C911 1.392 . S
C913 H923 0.929 . S
C914 O894 1.266 . S
C914 O895 1.248 . S
C915 Tb851 2.802 . S
C915 O890 1.264 . S
C915 O893 1.256 . S
C915 C908 1.496 . S
H916 C899 0.929 1_565 S
H917 C900 0.929 . S
H918 C901 0.929 . S
H919 C902 0.931 . S
H920 C910 0.929 . S
H921 C911 0.929 . S
H922 C912 0.931 . S
H923 C913 0.929 . S
Tb924 N953 2.617 . S
Tb924 N959 2.572 . S
Tb924 O968 2.465 . S
Tb924 O969 2.387 . S
Tb924 O971 2.428 . S
Tb924 O972 2.308 . S
Tb924 O976 2.349 . S
Tb924 O979 2.393 . S
Tb924 C988 2.802 . S
C925 N926 1.379 . S
C925 C928 1.416 . S
C925 C932 1.424 . S
N926 C925 1.379 . S
N926 C929 1.334 . S
N926 Tb935 2.617 . S
C927 C929 1.390 . S
C927 C930 1.339 . S
C927 H947 0.930 . S
C928 C925 1.416 . S
C928 C930 1.416 . S
C928 C934 1.448 . S
C929 N926 1.334 . S
C929 C927 1.390 . S
C929 H940 0.930 . S
C930 C927 1.339 . S
C930 C928 1.416 . S
C930 H951 0.930 . S
C931 C932 1.413 . S
C931 C933 1.427 . S
C931 C937 1.416 . S
C932 C925 1.424 . S
C932 C931 1.413 . S
C932 N936 1.361 . S
C933 C931 1.427 . S
C933 C934 1.328 . S
C933 H948 0.929 . S
C934 C928 1.448 . S
C934 C933 1.328 . S
C934 H949 0.930 . S
Tb935 N926 2.617 . S
Tb935 N936 2.572 . S
Tb935 O970 2.349 . S
Tb935 O973 2.393 . S
Tb935 O974 2.465 . S
Tb935 O975 2.387 . S
Tb935 O977 2.428 . S
Tb935 O978 2.308 . S
Tb935 C999 2.802 . S
N936 C932 1.361 . S
N936 Tb935 2.572 . S
N936 C938 1.340 . S
C937 C931 1.416 . S
C937 C939 1.332 . S
C937 H945 0.931 . S
C938 N936 1.340 . S
C938 C939 1.407 . S
C938 H944 0.930 . S
C939 C937 1.332 . S
C939 C938 1.407 . S
C939 H941 0.929 . S
H940 C929 0.930 . S
H941 C939 0.929 . S
H942 C957 0.930 . S
H943 C964 0.929 . S
H944 C938 0.930 . S
H945 C937 0.931 . S
H946 C960 0.930 . S
H947 C927 0.930 . S
H948 C933 0.929 . S
H949 C934 0.930 . S
H950 C955 0.930 . S
H951 C930 0.930 . S
H952 C963 0.931 . S
N953 Tb924 2.617 . S
N953 C954 1.379 . S
N953 C957 1.334 . S
C954 N953 1.379 . S
C954 C956 1.416 . S
C954 C962 1.424 . S
C955 H950 0.930 . S
C955 C957 1.390 . S
C955 C958 1.339 . S
C956 C954 1.416 . S
C956 C958 1.416 . S
C956 C989 1.448 . S
C957 H942 0.930 . S
C957 N953 1.334 . S
C957 C955 1.390 . S
C958 C955 1.339 . S
C958 C956 1.416 . S
C958 H965 0.930 . S
N959 Tb924 2.572 . S
N959 C960 1.340 . S
N959 C962 1.361 . S
C960 H946 0.930 . S
C960 N959 1.340 . S
C960 C964 1.407 . S
C961 C962 1.413 . S
C961 C963 1.416 . S
C961 C990 1.427 . S
C962 C954 1.424 . S
C962 N959 1.361 . S
C962 C961 1.413 . S
C963 H952 0.931 . S
C963 C961 1.416 . S
C963 C964 1.332 . S
C964 H943 0.929 . S
C964 C960 1.407 . S
C964 C963 1.332 . S
H965 C958 0.930 . S
H966 C989 0.930 . S
H967 C990 0.929 . S
O968 Tb924 2.465 . S
O968 C988 1.264 . S
O969 Tb924 2.387 . S
O969 C980 1.264 . S
O970 Tb935 2.349 . S
O970 C980 1.243 . S
O971 Tb924 2.428 . S
O971 C988 1.256 . S
O972 Tb924 2.308 . S
O972 C987 1.266 . S
O973 Tb935 2.393 . S
O973 C987 1.248 . S
O974 Tb935 2.465 . S
O974 C999 1.264 . S
O975 Tb935 2.387 . S
O975 C991 1.264 . S
O976 Tb924 2.349 . S
O976 C991 1.243 . S
O977 Tb935 2.428 . S
O977 C999 1.256 . S
O978 Tb935 2.308 . S
O978 C998 1.266 . S
O979 Tb924 2.393 . S
O979 C998 1.248 . S
C980 O969 1.264 . S
C980 O970 1.243 . S
C981 C984 1.399 . S
C981 C986 1.383 . S
C981 C988 1.496 . S
C982 C983 1.399 . S
C982 C986 1.389 . S
C983 C982 1.399 . S
C983 C985 1.380 . S
C983 H1000 0.929 1_565 S
C984 C981 1.399 . S
C984 C985 1.392 . S
C984 H1001 0.929 . S
C985 C983 1.380 . S
C985 C984 1.392 . S
C985 H1002 0.929 . S
C986 C981 1.383 . S
C986 C982 1.389 . S
C986 H1003 0.931 . S
C987 O972 1.266 . S
C987 O973 1.248 . S
C988 Tb924 2.802 . S
C988 O968 1.264 . S
C988 O971 1.256 . S
C988 C981 1.496 . S
C989 C956 1.448 . S
C989 H966 0.930 . S
C989 C990 1.328 . S
C990 C961 1.427 . S
C990 H967 0.929 . S
C990 C989 1.328 . S
C991 O975 1.264 . S
C991 O976 1.243 . S
C992 C995 1.399 . S
C992 C996 1.383 . S
C992 C999 1.496 . S
C993 C994 1.399 . S
C993 C996 1.389 . S
C994 C993 1.399 . S
C994 C997 1.380 . S
C994 H1004 0.929 . S
C995 C992 1.399 . S
C995 C997 1.392 . S
C995 H1005 0.929 . S
C996 C992 1.383 . S
C996 C993 1.389 . S
C996 H1006 0.931 . S
C997 C994 1.380 . S
C997 C995 1.392 . S
C997 H1007 0.929 . S
C998 O978 1.266 . S
C998 O979 1.248 . S
C999 Tb935 2.802 . S
C999 O974 1.264 . S
C999 O977 1.256 . S
C999 C992 1.496 . S
H1000 C983 0.929 1_545 S
H1001 C984 0.929 . S
H1002 C985 0.929 . S
H1003 C986 0.931 . S
H1004 C994 0.929 . S
H1005 C995 0.929 . S
H1006 C996 0.931 . S
H1007 C997 0.929 . S
Tb1008 N1037 2.617 . S
Tb1008 N1043 2.572 . S
Tb1008 O1052 2.465 . S
Tb1008 O1053 2.387 . S
Tb1008 O1055 2.428 . S
Tb1008 O1056 2.308 . S
Tb1008 O1060 2.349 . S
Tb1008 O1063 2.393 . S
Tb1008 C1072 2.802 . S
C1009 N1010 1.379 . S
C1009 C1012 1.416 . S
C1009 C1016 1.424 . S
N1010 C1009 1.379 . S
N1010 C1013 1.334 . S
N1010 Tb1019 2.617 . S
C1011 C1013 1.390 . S
C1011 C1014 1.339 . S
C1011 H1031 0.930 . S
C1012 C1009 1.416 . S
C1012 C1014 1.416 . S
C1012 C1018 1.448 . S
C1013 N1010 1.334 . S
C1013 C1011 1.390 . S
C1013 H1024 0.930 . S
C1014 C1011 1.339 . S
C1014 C1012 1.416 . S
C1014 H1035 0.930 . S
C1015 C1016 1.413 . S
C1015 C1017 1.427 . S
C1015 C1021 1.416 . S
C1016 C1009 1.424 . S
C1016 C1015 1.413 . S
C1016 N1020 1.361 . S
C1017 C1015 1.427 . S
C1017 C1018 1.328 . S
C1017 H1032 0.929 . S
C1018 C1012 1.448 . S
C1018 C1017 1.328 . S
C1018 H1033 0.930 . S
Tb1019 N1010 2.617 . S
Tb1019 N1020 2.572 . S
Tb1019 O1054 2.349 . S
Tb1019 O1057 2.393 . S
Tb1019 O1058 2.465 . S
Tb1019 O1059 2.387 . S
Tb1019 O1061 2.428 . S
Tb1019 O1062 2.308 . S
Tb1019 C1083 2.802 . S
N1020 C1016 1.361 . S
N1020 Tb1019 2.572 . S
N1020 C1022 1.340 . S
C1021 C1015 1.416 . S
C1021 C1023 1.332 . S
C1021 H1029 0.931 . S
C1022 N1020 1.340 . S
C1022 C1023 1.407 . S
C1022 H1028 0.930 . S
C1023 C1021 1.332 . S
C1023 C1022 1.407 . S
C1023 H1025 0.929 . S
H1024 C1013 0.930 . S
H1025 C1023 0.929 . S
H1026 C1041 0.930 . S
H1027 C1048 0.929 . S
H1028 C1022 0.930 . S
H1029 C1021 0.931 . S
H1030 C1044 0.930 . S
H1031 C1011 0.930 . S
H1032 C1017 0.929 . S
H1033 C1018 0.930 . S
H1034 C1039 0.930 . S
H1035 C1014 0.930 . S
H1036 C1047 0.931 . S
N1037 Tb1008 2.617 . S
N1037 C1038 1.379 . S
N1037 C1041 1.334 . S
C1038 N1037 1.379 . S
C1038 C1040 1.416 . S
C1038 C1046 1.424 . S
C1039 H1034 0.930 . S
C1039 C1041 1.390 . S
C1039 C1042 1.339 . S
C1040 C1038 1.416 . S
C1040 C1042 1.416 . S
C1040 C1073 1.448 . S
C1041 H1026 0.930 . S
C1041 N1037 1.334 . S
C1041 C1039 1.390 . S
C1042 C1039 1.339 . S
C1042 C1040 1.416 . S
C1042 H1049 0.930 . S
N1043 Tb1008 2.572 . S
N1043 C1044 1.340 . S
N1043 C1046 1.361 . S
C1044 H1030 0.930 . S
C1044 N1043 1.340 . S
C1044 C1048 1.407 . S
C1045 C1046 1.413 . S
C1045 C1047 1.416 . S
C1045 C1074 1.427 . S
C1046 C1038 1.424 . S
C1046 N1043 1.361 . S
C1046 C1045 1.413 . S
C1047 H1036 0.931 . S
C1047 C1045 1.416 . S
C1047 C1048 1.332 . S
C1048 H1027 0.929 . S
C1048 C1044 1.407 . S
C1048 C1047 1.332 . S
H1049 C1042 0.930 . S
H1050 C1073 0.930 . S
H1051 C1074 0.929 . S
O1052 Tb1008 2.465 . S
O1052 C1072 1.264 . S
O1053 Tb1008 2.387 . S
O1053 C1064 1.264 . S
O1054 Tb1019 2.349 . S
O1054 C1064 1.243 . S
O1055 Tb1008 2.428 . S
O1055 C1072 1.256 . S
O1056 Tb1008 2.308 . S
O1056 C1071 1.266 . S
O1057 Tb1019 2.393 . S
O1057 C1071 1.248 . S
O1058 Tb1019 2.465 . S
O1058 C1083 1.264 . S
O1059 Tb1019 2.387 . S
O1059 C1075 1.264 . S
O1060 Tb1008 2.349 . S
O1060 C1075 1.243 . S
O1061 Tb1019 2.428 . S
O1061 C1083 1.256 . S
O1062 Tb1019 2.308 . S
O1062 C1082 1.266 . S
O1063 Tb1008 2.393 . S
O1063 C1082 1.248 . S
C1064 O1053 1.264 . S
C1064 O1054 1.243 . S
C1065 C1068 1.399 . S
C1065 C1070 1.383 . S
C1065 C1072 1.496 . S
C1066 C1067 1.399 . S
C1066 C1070 1.389 . S
C1067 C1066 1.399 . S
C1067 C1069 1.380 . S
C1067 H1084 0.929 . S
C1068 C1065 1.399 . S
C1068 C1069 1.392 . S
C1068 H1085 0.929 . S
C1069 C1067 1.380 . S
C1069 C1068 1.392 . S
C1069 H1086 0.929 . S
C1070 C1065 1.383 . S
C1070 C1066 1.389 . S
C1070 H1087 0.931 . S
C1071 O1056 1.266 . S
C1071 O1057 1.248 . S
C1072 Tb1008 2.802 . S
C1072 O1052 1.264 . S
C1072 O1055 1.256 . S
C1072 C1065 1.496 . S
C1073 C1040 1.448 . S
C1073 H1050 0.930 . S
C1073 C1074 1.328 . S
C1074 C1045 1.427 . S
C1074 H1051 0.929 . S
C1074 C1073 1.328 . S
C1075 O1059 1.264 . S
C1075 O1060 1.243 . S
C1076 C1079 1.399 . S
C1076 C1080 1.383 . S
C1076 C1083 1.496 . S
C1077 C1078 1.399 . S
C1077 C1080 1.389 . S
C1078 C1077 1.399 . S
C1078 C1081 1.380 . S
C1078 H1088 0.929 1_545 S
C1079 C1076 1.399 . S
C1079 C1081 1.392 . S
C1079 H1089 0.929 . S
C1080 C1076 1.383 . S
C1080 C1077 1.389 . S
C1080 H1090 0.931 . S
C1081 C1078 1.380 . S
C1081 C1079 1.392 . S
C1081 H1091 0.929 . S
C1082 O1062 1.266 . S
C1082 O1063 1.248 . S
C1083 Tb1019 2.802 . S
C1083 O1058 1.264 . S
C1083 O1061 1.256 . S
C1083 C1076 1.496 . S
H1084 C1067 0.929 . S
H1085 C1068 0.929 . S
H1086 C1069 0.929 . S
H1087 C1070 0.931 . S
H1088 C1078 0.929 1_565 S
H1089 C1079 0.929 . S
H1090 C1080 0.931 . S
H1091 C1081 0.929 . S
Tb1092 N1121 2.617 . S
Tb1092 N1127 2.572 . S
Tb1092 O1136 2.465 . S
Tb1092 O1137 2.387 . S
Tb1092 O1139 2.428 . S
Tb1092 O1140 2.308 . S
Tb1092 O1144 2.349 . S
Tb1092 O1147 2.393 . S
Tb1092 C1156 2.802 . S
C1093 N1094 1.379 . S
C1093 C1096 1.416 . S
C1093 C1100 1.424 . S
N1094 C1093 1.379 . S
N1094 C1097 1.334 . S
N1094 Tb1103 2.617 . S
C1095 C1097 1.390 . S
C1095 C1098 1.339 . S
C1095 H1115 0.930 . S
C1096 C1093 1.416 . S
C1096 C1098 1.416 . S
C1096 C1102 1.448 . S
C1097 N1094 1.334 . S
C1097 C1095 1.390 . S
C1097 H1108 0.930 . S
C1098 C1095 1.339 . S
C1098 C1096 1.416 . S
C1098 H1119 0.930 . S
C1099 C1100 1.413 . S
C1099 C1101 1.427 . S
C1099 C1105 1.416 . S
C1100 C1093 1.424 . S
C1100 C1099 1.413 . S
C1100 N1104 1.361 . S
C1101 C1099 1.427 . S
C1101 C1102 1.328 . S
C1101 H1116 0.929 . S
C1102 C1096 1.448 . S
C1102 C1101 1.328 . S
C1102 H1117 0.930 . S
Tb1103 N1094 2.617 . S
Tb1103 N1104 2.572 . S
Tb1103 O1138 2.349 . S
Tb1103 O1141 2.393 . S
Tb1103 O1142 2.465 . S
Tb1103 O1143 2.387 . S
Tb1103 O1145 2.428 . S
Tb1103 O1146 2.308 . S
Tb1103 C1167 2.802 . S
N1104 C1100 1.361 . S
N1104 Tb1103 2.572 . S
N1104 C1106 1.340 . S
C1105 C1099 1.416 . S
C1105 C1107 1.332 . S
C1105 H1113 0.931 . S
C1106 N1104 1.340 . S
C1106 C1107 1.407 . S
C1106 H1112 0.930 . S
C1107 C1105 1.332 . S
C1107 C1106 1.407 . S
C1107 H1109 0.929 . S
H1108 C1097 0.930 . S
H1109 C1107 0.929 . S
H1110 C1125 0.930 . S
H1111 C1132 0.929 . S
H1112 C1106 0.930 . S
H1113 C1105 0.931 . S
H1114 C1128 0.930 . S
H1115 C1095 0.930 . S
H1116 C1101 0.929 . S
H1117 C1102 0.930 . S
H1118 C1123 0.930 . S
H1119 C1098 0.930 . S
H1120 C1131 0.931 . S
N1121 Tb1092 2.617 . S
N1121 C1122 1.379 . S
N1121 C1125 1.334 . S
C1122 N1121 1.379 . S
C1122 C1124 1.416 . S
C1122 C1130 1.424 . S
C1123 H1118 0.930 . S
C1123 C1125 1.390 . S
C1123 C1126 1.339 . S
C1124 C1122 1.416 . S
C1124 C1126 1.416 . S
C1124 C1157 1.448 . S
C1125 H1110 0.930 . S
C1125 N1121 1.334 . S
C1125 C1123 1.390 . S
C1126 C1123 1.339 . S
C1126 C1124 1.416 . S
C1126 H1133 0.930 . S
N1127 Tb1092 2.572 . S
N1127 C1128 1.340 . S
N1127 C1130 1.361 . S
C1128 H1114 0.930 . S
C1128 N1127 1.340 . S
C1128 C1132 1.407 . S
C1129 C1130 1.413 . S
C1129 C1131 1.416 . S
C1129 C1158 1.427 . S
C1130 C1122 1.424 . S
C1130 N1127 1.361 . S
C1130 C1129 1.413 . S
C1131 H1120 0.931 . S
C1131 C1129 1.416 . S
C1131 C1132 1.332 . S
C1132 H1111 0.929 . S
C1132 C1128 1.407 . S
C1132 C1131 1.332 . S
H1133 C1126 0.930 . S
H1134 C1157 0.930 . S
H1135 C1158 0.929 . S
O1136 Tb1092 2.465 . S
O1136 C1156 1.264 . S
O1137 Tb1092 2.387 . S
O1137 C1148 1.264 . S
O1138 Tb1103 2.349 . S
O1138 C1148 1.243 . S
O1139 Tb1092 2.428 . S
O1139 C1156 1.256 . S
O1140 Tb1092 2.308 . S
O1140 C1155 1.266 . S
O1141 Tb1103 2.393 . S
O1141 C1155 1.248 . S
O1142 Tb1103 2.465 . S
O1142 C1167 1.264 . S
O1143 Tb1103 2.387 . S
O1143 C1159 1.264 . S
O1144 Tb1092 2.349 . S
O1144 C1159 1.243 . S
O1145 Tb1103 2.428 . S
O1145 C1167 1.256 . S
O1146 Tb1103 2.308 . S
O1146 C1166 1.266 . S
O1147 Tb1092 2.393 . S
O1147 C1166 1.248 . S
C1148 O1137 1.264 . S
C1148 O1138 1.243 . S
C1149 C1152 1.399 . S
C1149 C1154 1.383 . S
C1149 C1156 1.496 . S
C1150 C1151 1.399 . S
C1150 C1154 1.389 . S
C1151 C1150 1.399 . S
C1151 C1153 1.380 . S
C1151 H1168 0.929 . S
C1152 C1149 1.399 . S
C1152 C1153 1.392 . S
C1152 H1169 0.929 . S
C1153 C1151 1.380 . S
C1153 C1152 1.392 . S
C1153 H1170 0.929 . S
C1154 C1149 1.383 . S
C1154 C1150 1.389 . S
C1154 H1171 0.931 . S
C1155 O1140 1.266 . S
C1155 O1141 1.248 . S
C1156 Tb1092 2.802 . S
C1156 O1136 1.264 . S
C1156 O1139 1.256 . S
C1156 C1149 1.496 . S
C1157 C1124 1.448 . S
C1157 H1134 0.930 . S
C1157 C1158 1.328 . S
C1158 C1129 1.427 . S
C1158 H1135 0.929 . S
C1158 C1157 1.328 . S
C1159 O1143 1.264 . S
C1159 O1144 1.243 . S
C1160 C1163 1.399 . S
C1160 C1164 1.383 . S
C1160 C1167 1.496 . S
C1161 C1162 1.399 . S
C1161 C1164 1.389 . S
C1162 C1161 1.399 . S
C1162 C1165 1.380 . S
C1162 H1172 0.929 1_565 S
C1163 C1160 1.399 . S
C1163 C1165 1.392 . S
C1163 H1173 0.929 . S
C1164 C1160 1.383 . S
C1164 C1161 1.389 . S
C1164 H1174 0.931 . S
C1165 C1162 1.380 . S
C1165 C1163 1.392 . S
C1165 H1175 0.929 . S
C1166 O1146 1.266 . S
C1166 O1147 1.248 . S
C1167 Tb1103 2.802 . S
C1167 O1142 1.264 . S
C1167 O1145 1.256 . S
C1167 C1160 1.496 . S
H1168 C1151 0.929 . S
H1169 C1152 0.929 . S
H1170 C1153 0.929 . S
H1171 C1154 0.931 . S
H1172 C1162 0.929 1_545 S
H1173 C1163 0.929 . S
H1174 C1164 0.931 . S
H1175 C1165 0.929 . S
Tb1176 N1205 2.617 . S
Tb1176 N1211 2.572 . S
Tb1176 O1220 2.465 . S
Tb1176 O1221 2.387 . S
Tb1176 O1223 2.428 . S
Tb1176 O1224 2.308 . S
Tb1176 O1228 2.349 . S
Tb1176 O1231 2.393 . S
Tb1176 C1240 2.802 . S
C1177 N1178 1.379 . S
C1177 C1180 1.416 . S
C1177 C1184 1.424 . S
N1178 C1177 1.379 . S
N1178 C1181 1.334 . S
N1178 Tb1187 2.617 . S
C1179 C1181 1.390 . S
C1179 C1182 1.339 . S
C1179 H1199 0.930 . S
C1180 C1177 1.416 . S
C1180 C1182 1.416 . S
C1180 C1186 1.448 . S
C1181 N1178 1.334 . S
C1181 C1179 1.390 . S
C1181 H1192 0.930 . S
C1182 C1179 1.339 . S
C1182 C1180 1.416 . S
C1182 H1203 0.930 . S
C1183 C1184 1.413 . S
C1183 C1185 1.427 . S
C1183 C1189 1.416 . S
C1184 C1177 1.424 . S
C1184 C1183 1.413 . S
C1184 N1188 1.361 . S
C1185 C1183 1.427 . S
C1185 C1186 1.328 . S
C1185 H1200 0.929 . S
C1186 C1180 1.448 . S
C1186 C1185 1.328 . S
C1186 H1201 0.930 . S
Tb1187 N1178 2.617 . S
Tb1187 N1188 2.572 . S
Tb1187 O1222 2.349 . S
Tb1187 O1225 2.393 . S
Tb1187 O1226 2.465 . S
Tb1187 O1227 2.387 . S
Tb1187 O1229 2.428 . S
Tb1187 O1230 2.308 . S
Tb1187 C1251 2.802 . S
N1188 C1184 1.361 . S
N1188 Tb1187 2.572 . S
N1188 C1190 1.340 . S
C1189 C1183 1.416 . S
C1189 C1191 1.332 . S
C1189 H1197 0.931 . S
C1190 N1188 1.340 . S
C1190 C1191 1.407 . S
C1190 H1196 0.930 . S
C1191 C1189 1.332 . S
C1191 C1190 1.407 . S
C1191 H1193 0.929 . S
H1192 C1181 0.930 . S
H1193 C1191 0.929 . S
H1194 C1209 0.930 . S
H1195 C1216 0.929 . S
H1196 C1190 0.930 . S
H1197 C1189 0.931 . S
H1198 C1212 0.930 . S
H1199 C1179 0.930 . S
H1200 C1185 0.929 . S
H1201 C1186 0.930 . S
H1202 C1207 0.930 . S
H1203 C1182 0.930 . S
H1204 C1215 0.931 . S
N1205 Tb1176 2.617 . S
N1205 C1206 1.379 . S
N1205 C1209 1.334 . S
C1206 N1205 1.379 . S
C1206 C1208 1.416 . S
C1206 C1214 1.424 . S
C1207 H1202 0.930 . S
C1207 C1209 1.390 . S
C1207 C1210 1.339 . S
C1208 C1206 1.416 . S
C1208 C1210 1.416 . S
C1208 C1241 1.448 . S
C1209 H1194 0.930 . S
C1209 N1205 1.334 . S
C1209 C1207 1.390 . S
C1210 C1207 1.339 . S
C1210 C1208 1.416 . S
C1210 H1217 0.930 . S
N1211 Tb1176 2.572 . S
N1211 C1212 1.340 . S
N1211 C1214 1.361 . S
C1212 H1198 0.930 . S
C1212 N1211 1.340 . S
C1212 C1216 1.407 . S
C1213 C1214 1.413 . S
C1213 C1215 1.416 . S
C1213 C1242 1.427 . S
C1214 C1206 1.424 . S
C1214 N1211 1.361 . S
C1214 C1213 1.413 . S
C1215 H1204 0.931 . S
C1215 C1213 1.416 . S
C1215 C1216 1.332 . S
C1216 H1195 0.929 . S
C1216 C1212 1.407 . S
C1216 C1215 1.332 . S
H1217 C1210 0.930 . S
H1218 C1241 0.930 . S
H1219 C1242 0.929 . S
O1220 Tb1176 2.465 . S
O1220 C1240 1.264 . S
O1221 Tb1176 2.387 . S
O1221 C1232 1.264 . S
O1222 Tb1187 2.349 . S
O1222 C1232 1.243 . S
O1223 Tb1176 2.428 . S
O1223 C1240 1.256 . S
O1224 Tb1176 2.308 . S
O1224 C1239 1.266 . S
O1225 Tb1187 2.393 . S
O1225 C1239 1.248 . S
O1226 Tb1187 2.465 . S
O1226 C1251 1.264 . S
O1227 Tb1187 2.387 . S
O1227 C1243 1.264 . S
O1228 Tb1176 2.349 . S
O1228 C1243 1.243 . S
O1229 Tb1187 2.428 . S
O1229 C1251 1.256 . S
O1230 Tb1187 2.308 . S
O1230 C1250 1.266 . S
O1231 Tb1176 2.393 . S
O1231 C1250 1.248 . S
C1232 O1221 1.264 . S
C1232 O1222 1.243 . S
C1233 C1236 1.399 . S
C1233 C1238 1.383 . S
C1233 C1240 1.496 . S
C1234 C1235 1.399 . S
C1234 C1238 1.389 . S
C1235 C1234 1.399 . S
C1235 C1237 1.380 . S
C1235 H1252 0.929 . S
C1236 C1233 1.399 . S
C1236 C1237 1.392 . S
C1236 H1253 0.929 . S
C1237 C1235 1.380 . S
C1237 C1236 1.392 . S
C1237 H1254 0.929 . S
C1238 C1233 1.383 . S
C1238 C1234 1.389 . S
C1238 H1255 0.931 . S
C1239 O1224 1.266 . S
C1239 O1225 1.248 . S
C1240 Tb1176 2.802 . S
C1240 O1220 1.264 . S
C1240 O1223 1.256 . S
C1240 C1233 1.496 . S
C1241 C1208 1.448 . S
C1241 H1218 0.930 . S
C1241 C1242 1.328 . S
C1242 C1213 1.427 . S
C1242 H1219 0.929 . S
C1242 C1241 1.328 . S
C1243 O1227 1.264 . S
C1243 O1228 1.243 . S
C1244 C1247 1.399 . S
C1244 C1248 1.383 . S
C1244 C1251 1.496 . S
C1245 C1246 1.399 . S
C1245 C1248 1.389 . S
C1246 C1245 1.399 . S
C1246 C1249 1.380 . S
C1246 H1256 0.929 1_565 S
C1247 C1244 1.399 . S
C1247 C1249 1.392 . S
C1247 H1257 0.929 . S
C1248 C1244 1.383 . S
C1248 C1245 1.389 . S
C1248 H1258 0.931 . S
C1249 C1246 1.380 . S
C1249 C1247 1.392 . S
C1249 H1259 0.929 . S
C1250 O1230 1.266 . S
C1250 O1231 1.248 . S
C1251 Tb1187 2.802 . S
C1251 O1226 1.264 . S
C1251 O1229 1.256 . S
C1251 C1244 1.496 . S
H1252 C1235 0.929 . S
H1253 C1236 0.929 . S
H1254 C1237 0.929 . S
H1255 C1238 0.931 . S
H1256 C1246 0.929 1_545 S
H1257 C1247 0.929 . S
H1258 C1248 0.931 . S
H1259 C1249 0.929 . S
Tb1260 N1289 2.617 . S
Tb1260 N1295 2.572 . S
Tb1260 O1304 2.465 . S
Tb1260 O1305 2.387 . S
Tb1260 O1307 2.428 . S
Tb1260 O1308 2.308 . S
Tb1260 O1312 2.349 . S
Tb1260 O1315 2.393 . S
Tb1260 C1324 2.802 . S
C1261 N1262 1.379 . S
C1261 C1264 1.416 . S
C1261 C1268 1.424 . S
N1262 C1261 1.379 . S
N1262 C1265 1.334 . S
N1262 Tb1271 2.617 . S
C1263 C1265 1.390 . S
C1263 C1266 1.339 . S
C1263 H1283 0.930 . S
C1264 C1261 1.416 . S
C1264 C1266 1.416 . S
C1264 C1270 1.448 . S
C1265 N1262 1.334 . S
C1265 C1263 1.390 . S
C1265 H1276 0.930 . S
C1266 C1263 1.339 . S
C1266 C1264 1.416 . S
C1266 H1287 0.930 . S
C1267 C1268 1.413 . S
C1267 C1269 1.427 . S
C1267 C1273 1.416 . S
C1268 C1261 1.424 . S
C1268 C1267 1.413 . S
C1268 N1272 1.361 . S
C1269 C1267 1.427 . S
C1269 C1270 1.328 . S
C1269 H1284 0.929 . S
C1270 C1264 1.448 . S
C1270 C1269 1.328 . S
C1270 H1285 0.930 . S
Tb1271 N1262 2.617 . S
Tb1271 N1272 2.572 . S
Tb1271 O1306 2.349 . S
Tb1271 O1309 2.393 . S
Tb1271 O1310 2.465 . S
Tb1271 O1311 2.387 . S
Tb1271 O1313 2.428 . S
Tb1271 O1314 2.308 . S
Tb1271 C1335 2.802 . S
N1272 C1268 1.361 . S
N1272 Tb1271 2.572 . S
N1272 C1274 1.340 . S
C1273 C1267 1.416 . S
C1273 C1275 1.332 . S
C1273 H1281 0.931 . S
C1274 N1272 1.340 . S
C1274 C1275 1.407 . S
C1274 H1280 0.930 . S
C1275 C1273 1.332 . S
C1275 C1274 1.407 . S
C1275 H1277 0.929 . S
H1276 C1265 0.930 . S
H1277 C1275 0.929 . S
H1278 C1293 0.930 . S
H1279 C1300 0.929 . S
H1280 C1274 0.930 . S
H1281 C1273 0.931 . S
H1282 C1296 0.930 . S
H1283 C1263 0.930 . S
H1284 C1269 0.929 . S
H1285 C1270 0.930 . S
H1286 C1291 0.930 . S
H1287 C1266 0.930 . S
H1288 C1299 0.931 . S
N1289 Tb1260 2.617 . S
N1289 C1290 1.379 . S
N1289 C1293 1.334 . S
C1290 N1289 1.379 . S
C1290 C1292 1.416 . S
C1290 C1298 1.424 . S
C1291 H1286 0.930 . S
C1291 C1293 1.390 . S
C1291 C1294 1.339 . S
C1292 C1290 1.416 . S
C1292 C1294 1.416 . S
C1292 C1325 1.448 . S
C1293 H1278 0.930 . S
C1293 N1289 1.334 . S
C1293 C1291 1.390 . S
C1294 C1291 1.339 . S
C1294 C1292 1.416 . S
C1294 H1301 0.930 . S
N1295 Tb1260 2.572 . S
N1295 C1296 1.340 . S
N1295 C1298 1.361 . S
C1296 H1282 0.930 . S
C1296 N1295 1.340 . S
C1296 C1300 1.407 . S
C1297 C1298 1.413 . S
C1297 C1299 1.416 . S
C1297 C1326 1.427 . S
C1298 C1290 1.424 . S
C1298 N1295 1.361 . S
C1298 C1297 1.413 . S
C1299 H1288 0.931 . S
C1299 C1297 1.416 . S
C1299 C1300 1.332 . S
C1300 H1279 0.929 . S
C1300 C1296 1.407 . S
C1300 C1299 1.332 . S
H1301 C1294 0.930 . S
H1302 C1325 0.930 . S
H1303 C1326 0.929 . S
O1304 Tb1260 2.465 . S
O1304 C1324 1.264 . S
O1305 Tb1260 2.387 . S
O1305 C1316 1.264 . S
O1306 Tb1271 2.349 . S
O1306 C1316 1.243 . S
O1307 Tb1260 2.428 . S
O1307 C1324 1.256 . S
O1308 Tb1260 2.308 . S
O1308 C1323 1.266 . S
O1309 Tb1271 2.393 . S
O1309 C1323 1.248 . S
O1310 Tb1271 2.465 . S
O1310 C1335 1.264 . S
O1311 Tb1271 2.387 . S
O1311 C1327 1.264 . S
O1312 Tb1260 2.349 . S
O1312 C1327 1.243 . S
O1313 Tb1271 2.428 . S
O1313 C1335 1.256 . S
O1314 Tb1271 2.308 . S
O1314 C1334 1.266 . S
O1315 Tb1260 2.393 . S
O1315 C1334 1.248 . S
C1316 O1305 1.264 . S
C1316 O1306 1.243 . S
C1317 C1320 1.399 . S
C1317 C1322 1.383 . S
C1317 C1324 1.496 . S
C1318 C1319 1.399 . S
C1318 C1322 1.389 . S
C1319 C1318 1.399 . S
C1319 C1321 1.380 . S
C1319 H1336 0.929 . S
C1320 C1317 1.399 . S
C1320 C1321 1.392 . S
C1320 H1337 0.929 . S
C1321 C1319 1.380 . S
C1321 C1320 1.392 . S
C1321 H1338 0.929 . S
C1322 C1317 1.383 . S
C1322 C1318 1.389 . S
C1322 H1339 0.931 . S
C1323 O1308 1.266 . S
C1323 O1309 1.248 . S
C1324 Tb1260 2.802 . S
C1324 O1304 1.264 . S
C1324 O1307 1.256 . S
C1324 C1317 1.496 . S
C1325 C1292 1.448 . S
C1325 H1302 0.930 . S
C1325 C1326 1.328 . S
C1326 C1297 1.427 . S
C1326 H1303 0.929 . S
C1326 C1325 1.328 . S
C1327 O1311 1.264 . S
C1327 O1312 1.243 . S
C1328 C1331 1.399 . S
C1328 C1332 1.383 . S
C1328 C1335 1.496 . S
C1329 C1330 1.399 . S
C1329 C1332 1.389 . S
C1330 C1329 1.399 . S
C1330 C1333 1.380 . S
C1330 H1340 0.929 1_545 S
C1331 C1328 1.399 . S
C1331 C1333 1.392 . S
C1331 H1341 0.929 . S
C1332 C1328 1.383 . S
C1332 C1329 1.389 . S
C1332 H1342 0.931 . S
C1333 C1330 1.380 . S
C1333 C1331 1.392 . S
C1333 H1343 0.929 . S
C1334 O1314 1.266 . S
C1334 O1315 1.248 . S
C1335 Tb1271 2.802 . S
C1335 O1310 1.264 . S
C1335 O1313 1.256 . S
C1335 C1328 1.496 . S
H1336 C1319 0.929 . S
H1337 C1320 0.929 . S
H1338 C1321 0.929 . S
H1339 C1322 0.931 . S
H1340 C1330 0.929 1_565 S
H1341 C1331 0.929 . S
H1342 C1332 0.931 . S
H1343 C1333 0.929 . S
H1344 C1350 0.930 . S
H1345 C1354 0.930 . S
H1346 C1359 0.929 . S
H1347 C1357 0.929 . S
H1348 C1352 0.929 . S
H1349 C1358 0.929 . S
C1350 H1344 0.930 . S
C1350 C1351 1.367 . S
C1350 C1358 1.378 . S
C1351 C1350 1.367 . S
C1351 C1359 1.433 . S
C1352 H1348 0.929 . S
C1352 C1354 1.378 . S
C1352 C1356 1.350 . S
C1353 C1356 1.463 . S
C1353 C1358 1.350 . S
C1353 N1361 1.427 . S
C1354 H1345 0.930 . S
C1354 C1352 1.378 . S
C1354 C1355 1.367 . S
C1355 C1354 1.367 . S
C1355 C1357 1.433 . S
C1356 C1352 1.350 . S
C1356 C1353 1.463 . S
C1356 N1360 1.427 . S
C1357 H1347 0.929 . S
C1357 C1355 1.433 . S
C1357 N1360 1.384 . S
C1358 H1349 0.929 . S
C1358 C1350 1.378 . S
C1358 C1353 1.350 . S
C1359 H1346 0.929 . S
C1359 C1351 1.433 . S
C1359 N1361 1.384 . S
N1360 C1356 1.427 . S
N1360 C1357 1.384 . S
N1361 C1353 1.427 . S
N1361 C1359 1.384 . S
H1362 C1368 0.930 . S
H1363 C1372 0.930 . S
H1364 C1377 0.929 . S
H1365 C1375 0.929 . S
H1366 C1370 0.929 . S
H1367 C1376 0.929 . S
C1368 H1362 0.930 . S
C1368 C1369 1.367 . S
C1368 C1376 1.378 . S
C1369 C1368 1.367 . S
C1369 C1377 1.433 . S
C1370 H1366 0.929 . S
C1370 C1372 1.378 . S
C1370 C1374 1.350 . S
C1371 C1374 1.463 . S
C1371 C1376 1.350 . S
C1371 N1379 1.427 . S
C1372 H1363 0.930 . S
C1372 C1370 1.378 . S
C1372 C1373 1.367 . S
C1373 C1372 1.367 . S
C1373 C1375 1.433 . S
C1374 C1370 1.350 . S
C1374 C1371 1.463 . S
C1374 N1378 1.427 . S
C1375 H1365 0.929 . S
C1375 C1373 1.433 . S
C1375 N1378 1.384 . S
C1376 H1367 0.929 . S
C1376 C1368 1.378 . S
C1376 C1371 1.350 . S
C1377 H1364 0.929 . S
C1377 C1369 1.433 . S
C1377 N1379 1.384 . S
N1378 C1374 1.427 . S
N1378 C1375 1.384 . S
N1379 C1371 1.427 . S
N1379 C1377 1.384 . S
H1380 C1386 0.930 . S
H1381 C1390 0.930 . S
H1382 C1395 0.929 . S
H1383 C1393 0.929 . S
H1384 C1388 0.929 . S
H1385 C1394 0.929 . S
C1386 H1380 0.930 . S
C1386 C1387 1.367 . S
C1386 C1394 1.378 . S
C1387 C1386 1.367 . S
C1387 C1395 1.433 . S
C1388 H1384 0.929 . S
C1388 C1390 1.378 . S
C1388 C1392 1.350 . S
C1389 C1392 1.463 . S
C1389 C1394 1.350 . S
C1389 N1397 1.427 . S
C1390 H1381 0.930 . S
C1390 C1388 1.378 . S
C1390 C1391 1.367 . S
C1391 C1390 1.367 . S
C1391 C1393 1.433 . S
C1392 C1388 1.350 . S
C1392 C1389 1.463 . S
C1392 N1396 1.427 . S
C1393 H1383 0.929 . S
C1393 C1391 1.433 . S
C1393 N1396 1.384 . S
C1394 H1385 0.929 . S
C1394 C1386 1.378 . S
C1394 C1389 1.350 . S
C1395 H1382 0.929 . S
C1395 C1387 1.433 . S
C1395 N1397 1.384 . S
N1396 C1392 1.427 . S
N1396 C1393 1.384 . S
N1397 C1389 1.427 . S
N1397 C1395 1.384 . S
H1398 C1404 0.930 . S
H1399 C1408 0.930 . S
H1400 C1413 0.929 . S
H1401 C1411 0.929 . S
H1402 C1406 0.929 . S
H1403 C1412 0.929 . S
C1404 H1398 0.930 . S
C1404 C1405 1.367 . S
C1404 C1412 1.378 . S
C1405 C1404 1.367 . S
C1405 C1413 1.433 . S
C1406 H1402 0.929 . S
C1406 C1408 1.378 . S
C1406 C1410 1.350 . S
C1407 C1410 1.463 . S
C1407 C1412 1.350 . S
C1407 N1415 1.427 . S
C1408 H1399 0.930 . S
C1408 C1406 1.378 . S
C1408 C1409 1.367 . S
C1409 C1408 1.367 . S
C1409 C1411 1.433 . S
C1410 C1406 1.350 . S
C1410 C1407 1.463 . S
C1410 N1414 1.427 . S
C1411 H1401 0.929 . S
C1411 C1409 1.433 . S
C1411 N1414 1.384 . S
C1412 H1403 0.929 . S
C1412 C1404 1.378 . S
C1412 C1407 1.350 . S
C1413 H1400 0.929 . S
C1413 C1405 1.433 . S
C1413 N1415 1.384 . S
N1414 C1410 1.427 . S
N1414 C1411 1.384 . S
N1415 C1407 1.427 . S
N1415 C1413 1.384 . S
H1416 C1422 0.930 . S
H1417 C1426 0.930 . S
H1418 C1431 0.929 . S
H1419 C1429 0.929 . S
H1420 C1424 0.929 . S
H1421 C1430 0.929 . S
C1422 H1416 0.930 . S
C1422 C1423 1.367 . S
C1422 C1430 1.378 . S
C1423 C1422 1.367 . S
C1423 C1431 1.433 . S
C1424 H1420 0.929 . S
C1424 C1426 1.378 . S
C1424 C1428 1.350 . S
C1425 C1428 1.463 . S
C1425 C1430 1.350 . S
C1425 N1433 1.427 . S
C1426 H1417 0.930 . S
C1426 C1424 1.378 . S
C1426 C1427 1.367 . S
C1427 C1426 1.367 . S
C1427 C1429 1.433 . S
C1428 C1424 1.350 . S
C1428 C1425 1.463 . S
C1428 N1432 1.427 . S
C1429 H1419 0.929 . S
C1429 C1427 1.433 . S
C1429 N1432 1.384 . S
C1430 H1421 0.929 . S
C1430 C1422 1.378 . S
C1430 C1425 1.350 . S
C1431 H1418 0.929 . S
C1431 C1423 1.433 . S
C1431 N1433 1.384 . S
N1432 C1428 1.427 . S
N1432 C1429 1.384 . S
N1433 C1425 1.427 . S
N1433 C1431 1.384 . S
H1434 C1440 0.930 . S
H1435 C1444 0.930 . S
H1436 C1449 0.929 . S
H1437 C1447 0.929 . S
H1438 C1442 0.929 . S
H1439 C1448 0.929 . S
C1440 H1434 0.930 . S
C1440 C1441 1.367 . S
C1440 C1448 1.378 . S
C1441 C1440 1.367 . S
C1441 C1449 1.433 . S
C1442 H1438 0.929 . S
C1442 C1444 1.378 . S
C1442 C1446 1.350 . S
C1443 C1446 1.463 . S
C1443 C1448 1.350 . S
C1443 N1451 1.427 . S
C1444 H1435 0.930 . S
C1444 C1442 1.378 . S
C1444 C1445 1.367 . S
C1445 C1444 1.367 . S
C1445 C1447 1.433 . S
C1446 C1442 1.350 . S
C1446 C1443 1.463 . S
C1446 N1450 1.427 . S
C1447 H1437 0.929 . S
C1447 C1445 1.433 . S
C1447 N1450 1.384 . S
C1448 H1439 0.929 . S
C1448 C1440 1.378 . S
C1448 C1443 1.350 . S
C1449 H1436 0.929 . S
C1449 C1441 1.433 . S
C1449 N1451 1.384 . S
N1450 C1446 1.427 . S
N1450 C1447 1.384 . S
N1451 C1443 1.427 . S
N1451 C1449 1.384 . S
H1452 C1458 0.930 . S
H1453 C1462 0.930 . S
H1454 C1467 0.929 . S
H1455 C1465 0.929 . S
H1456 C1460 0.929 . S
H1457 C1466 0.929 . S
C1458 H1452 0.930 . S
C1458 C1459 1.367 . S
C1458 C1466 1.378 . S
C1459 C1458 1.367 . S
C1459 C1467 1.433 . S
C1460 H1456 0.929 . S
C1460 C1462 1.378 . S
C1460 C1464 1.350 . S
C1461 C1464 1.463 . S
C1461 C1466 1.350 . S
C1461 N1469 1.427 . S
C1462 H1453 0.930 . S
C1462 C1460 1.378 . S
C1462 C1463 1.367 . S
C1463 C1462 1.367 . S
C1463 C1465 1.433 . S
C1464 C1460 1.350 . S
C1464 C1461 1.463 . S
C1464 N1468 1.427 . S
C1465 H1455 0.929 . S
C1465 C1463 1.433 . S
C1465 N1468 1.384 . S
C1466 H1457 0.929 . S
C1466 C1458 1.378 . S
C1466 C1461 1.350 . S
C1467 H1454 0.929 . S
C1467 C1459 1.433 . S
C1467 N1469 1.384 . S
N1468 C1464 1.427 . S
N1468 C1465 1.384 . S
N1469 C1461 1.427 . S
N1469 C1467 1.384 . S
H1470 C1476 0.930 . S
H1471 C1480 0.930 . S
H1472 C1485 0.929 . S
H1473 C1483 0.929 . S
H1474 C1478 0.929 . S
H1475 C1484 0.929 . S
C1476 H1470 0.930 . S
C1476 C1477 1.367 . S
C1476 C1484 1.378 . S
C1477 C1476 1.367 . S
C1477 C1485 1.433 . S
C1478 H1474 0.929 . S
C1478 C1480 1.378 . S
C1478 C1482 1.350 . S
C1479 C1482 1.463 . S
C1479 C1484 1.350 . S
C1479 N1487 1.427 . S
C1480 H1471 0.930 . S
C1480 C1478 1.378 . S
C1480 C1481 1.367 . S
C1481 C1480 1.367 . S
C1481 C1483 1.433 . S
C1482 C1478 1.350 . S
C1482 C1479 1.463 . S
C1482 N1486 1.427 . S
C1483 H1473 0.929 . S
C1483 C1481 1.433 . S
C1483 N1486 1.384 . S
C1484 H1475 0.929 . S
C1484 C1476 1.378 . S
C1484 C1479 1.350 . S
C1485 H1472 0.929 . S
C1485 C1477 1.433 . S
C1485 N1487 1.384 . S
N1486 C1482 1.427 . S
N1486 C1483 1.384 . S
N1487 C1479 1.427 . S
N1487 C1485 1.384 . S
H1488 C1494 0.930 . S
H1489 C1498 0.930 . S
H1490 C1503 0.929 . S
H1491 C1501 0.929 . S
H1492 C1496 0.929 . S
H1493 C1502 0.929 . S
C1494 H1488 0.930 . S
C1494 C1495 1.367 . S
C1494 C1502 1.378 . S
C1495 C1494 1.367 . S
C1495 C1503 1.433 . S
C1496 H1492 0.929 . S
C1496 C1498 1.378 . S
C1496 C1500 1.350 . S
C1497 C1500 1.463 1_565 S
C1497 C1502 1.350 . S
C1497 N1505 1.427 1_565 S
C1498 H1489 0.930 . S
C1498 C1496 1.378 . S
C1498 C1499 1.367 . S
C1499 C1498 1.367 . S
C1499 C1501 1.433 . S
C1500 C1496 1.350 . S
C1500 C1497 1.463 1_545 S
C1500 N1504 1.427 1_545 S
C1501 H1491 0.929 . S
C1501 C1499 1.433 . S
C1501 N1504 1.384 1_545 S
C1502 H1493 0.929 . S
C1502 C1494 1.378 . S
C1502 C1497 1.350 . S
C1503 H1490 0.929 . S
C1503 C1495 1.433 . S
C1503 N1505 1.384 1_565 S
N1504 C1500 1.427 1_565 S
N1504 C1501 1.384 1_565 S
N1505 C1497 1.427 1_545 S
N1505 C1503 1.384 1_545 S
H1506 C1512 0.930 . S
H1507 C1516 0.930 . S
H1508 C1521 0.929 . S
H1509 C1519 0.929 . S
H1510 C1514 0.929 . S
H1511 C1520 0.929 . S
C1512 H1506 0.930 . S
C1512 C1513 1.367 . S
C1512 C1520 1.378 1_545 S
C1513 C1512 1.367 . S
C1513 C1521 1.433 . S
C1514 H1510 0.929 . S
C1514 C1516 1.378 1_545 S
C1514 C1518 1.350 1_545 S
C1515 C1518 1.463 1_545 S
C1515 C1520 1.350 1_545 S
C1515 N1523 1.427 . S
C1516 H1507 0.930 . S
C1516 C1514 1.378 1_565 S
C1516 C1517 1.367 . S
C1517 C1516 1.367 . S
C1517 C1519 1.433 . S
C1518 C1514 1.350 1_565 S
C1518 C1515 1.463 1_565 S
C1518 N1522 1.427 . S
C1519 H1509 0.929 . S
C1519 C1517 1.433 . S
C1519 N1522 1.384 . S
C1520 H1511 0.929 . S
C1520 C1512 1.378 1_565 S
C1520 C1515 1.350 1_565 S
C1521 H1508 0.929 . S
C1521 C1513 1.433 . S
C1521 N1523 1.384 . S
N1522 C1518 1.427 . S
N1522 C1519 1.384 . S
N1523 C1515 1.427 . S
N1523 C1521 1.384 . S
H1524 C1530 0.930 . S
H1525 C1534 0.930 . S
H1526 C1539 0.929 1_565 S
H1527 C1537 0.929 1_545 S
H1528 C1532 0.929 . S
H1529 C1538 0.929 . S
C1530 H1524 0.930 . S
C1530 C1531 1.367 . S
C1530 C1538 1.378 . S
C1531 C1530 1.367 . S
C1531 C1539 1.433 . S
C1532 H1528 0.929 . S
C1532 C1534 1.378 . S
C1532 C1536 1.350 . S
C1533 C1536 1.463 1_545 S
C1533 C1538 1.350 . S
C1533 N1541 1.427 1_545 S
C1534 H1525 0.930 . S
C1534 C1532 1.378 . S
C1534 C1535 1.367 . S
C1535 C1534 1.367 . S
C1535 C1537 1.433 . S
C1536 C1532 1.350 . S
C1536 C1533 1.463 1_565 S
C1536 N1540 1.427 1_565 S
C1537 H1527 0.929 1_565 S
C1537 C1535 1.433 . S
C1537 N1540 1.384 1_565 S
C1538 H1529 0.929 . S
C1538 C1530 1.378 . S
C1538 C1533 1.350 . S
C1539 H1526 0.929 1_545 S
C1539 C1531 1.433 . S
C1539 N1541 1.384 1_545 S
N1540 C1536 1.427 1_545 S
N1540 C1537 1.384 1_545 S
N1541 C1533 1.427 1_565 S
N1541 C1539 1.384 1_565 S
H1542 C1548 0.930 . S
H1543 C1552 0.930 . S
H1544 C1557 0.929 . S
H1545 C1555 0.929 . S
H1546 C1550 0.929 . S
H1547 C1556 0.929 . S
C1548 H1542 0.930 . S
C1548 C1549 1.367 . S
C1548 C1556 1.378 . S
C1549 C1548 1.367 . S
C1549 C1557 1.433 . S
C1550 H1546 0.929 . S
C1550 C1552 1.378 . S
C1550 C1554 1.350 . S
C1551 C1554 1.463 1_545 S
C1551 C1556 1.350 . S
C1551 N1559 1.427 1_545 S
C1552 H1543 0.930 . S
C1552 C1550 1.378 . S
C1552 C1553 1.367 . S
C1553 C1552 1.367 . S
C1553 C1555 1.433 . S
C1554 C1550 1.350 . S
C1554 C1551 1.463 1_565 S
C1554 N1558 1.427 1_565 S
C1555 H1545 0.929 . S
C1555 C1553 1.433 . S
C1555 N1558 1.384 1_565 S
C1556 H1547 0.929 . S
C1556 C1548 1.378 . S
C1556 C1551 1.350 . S
C1557 H1544 0.929 . S
C1557 C1549 1.433 . S
C1557 N1559 1.384 1_545 S
N1558 C1554 1.427 1_545 S
N1558 C1555 1.384 1_545 S
N1559 C1551 1.427 1_565 S
N1559 C1557 1.384 1_565 S
H1560 C1566 0.930 . S
H1561 C1570 0.930 . S
H1562 C1575 0.929 . S
H1563 C1573 0.929 . S
H1564 C1568 0.929 . S
H1565 C1574 0.929 . S
C1566 H1560 0.930 . S
C1566 C1567 1.367 . S
C1566 C1574 1.378 . S
C1567 C1566 1.367 . S
C1567 C1575 1.433 . S
C1568 H1564 0.929 . S
C1568 C1570 1.378 . S
C1568 C1572 1.350 . S
C1569 C1572 1.463 . S
C1569 C1574 1.350 . S
C1569 N1577 1.427 . S
C1570 H1561 0.930 . S
C1570 C1568 1.378 . S
C1570 C1571 1.367 . S
C1571 C1570 1.367 . S
C1571 C1573 1.433 . S
C1572 C1568 1.350 . S
C1572 C1569 1.463 . S
C1572 N1576 1.427 . S
C1573 H1563 0.929 . S
C1573 C1571 1.433 . S
C1573 N1576 1.384 . S
C1574 H1565 0.929 . S
C1574 C1566 1.378 . S
C1574 C1569 1.350 . S
C1575 H1562 0.929 . S
C1575 C1567 1.433 . S
C1575 N1577 1.384 . S
N1576 C1572 1.427 . S
N1576 C1573 1.384 . S
N1577 C1569 1.427 . S
N1577 C1575 1.384 . S
H1578 C1584 0.930 . S
H1579 C1588 0.930 . S
H1580 C1593 0.929 . S
H1581 C1591 0.929 . S
H1582 C1586 0.929 . S
H1583 C1592 0.929 . S
C1584 H1578 0.930 . S
C1584 C1585 1.367 . S
C1584 C1592 1.378 . S
C1585 C1584 1.367 . S
C1585 C1593 1.433 . S
C1586 H1582 0.929 . S
C1586 C1588 1.378 . S
C1586 C1590 1.350 . S
C1587 C1590 1.463 . S
C1587 C1592 1.350 . S
C1587 N1595 1.427 . S
C1588 H1579 0.930 . S
C1588 C1586 1.378 . S
C1588 C1589 1.367 . S
C1589 C1588 1.367 . S
C1589 C1591 1.433 . S
C1590 C1586 1.350 . S
C1590 C1587 1.463 . S
C1590 N1594 1.427 . S
C1591 H1581 0.929 . S
C1591 C1589 1.433 . S
C1591 N1594 1.384 . S
C1592 H1583 0.929 . S
C1592 C1584 1.378 . S
C1592 C1587 1.350 . S
C1593 H1580 0.929 . S
C1593 C1585 1.433 . S
C1593 N1595 1.384 . S
N1594 C1590 1.427 . S
N1594 C1591 1.384 . S
N1595 C1587 1.427 . S
N1595 C1593 1.384 . S
H1596 C1602 0.930 . S
H1597 C1606 0.930 . S
H1598 C1611 0.929 . S
H1599 C1609 0.929 . S
H1600 C1604 0.929 . S
H1601 C1610 0.929 . S
C1602 H1596 0.930 . S
C1602 C1603 1.367 . S
C1602 C1610 1.378 . S
C1603 C1602 1.367 . S
C1603 C1611 1.433 . S
C1604 H1600 0.929 . S
C1604 C1606 1.378 . S
C1604 C1608 1.350 . S
C1605 C1608 1.463 . S
C1605 C1610 1.350 . S
C1605 N1613 1.427 . S
C1606 H1597 0.930 . S
C1606 C1604 1.378 . S
C1606 C1607 1.367 . S
C1607 C1606 1.367 . S
C1607 C1609 1.433 . S
C1608 C1604 1.350 . S
C1608 C1605 1.463 . S
C1608 N1612 1.427 . S
C1609 H1599 0.929 . S
C1609 C1607 1.433 . S
C1609 N1612 1.384 . S
C1610 H1601 0.929 . S
C1610 C1602 1.378 . S
C1610 C1605 1.350 . S
C1611 H1598 0.929 . S
C1611 C1603 1.433 . S
C1611 N1613 1.384 . S
N1612 C1608 1.427 . S
N1612 C1609 1.384 . S
N1613 C1605 1.427 . S
N1613 C1611 1.384 . S
H1614 C1620 0.930 . S
H1615 C1624 0.930 . S
H1616 C1629 0.929 . S
H1617 C1627 0.929 . S
H1618 C1622 0.929 . S
H1619 C1628 0.929 . S
C1620 H1614 0.930 . S
C1620 C1621 1.367 . S
C1620 C1628 1.378 . S
C1621 C1620 1.367 . S
C1621 C1629 1.433 . S
C1622 H1618 0.929 . S
C1622 C1624 1.378 . S
C1622 C1626 1.350 . S
C1623 C1626 1.463 . S
C1623 C1628 1.350 . S
C1623 N1631 1.427 . S
C1624 H1615 0.930 . S
C1624 C1622 1.378 . S
C1624 C1625 1.367 . S
C1625 C1624 1.367 . S
C1625 C1627 1.433 . S
C1626 C1622 1.350 . S
C1626 C1623 1.463 . S
C1626 N1630 1.427 . S
C1627 H1617 0.929 . S
C1627 C1625 1.433 . S
C1627 N1630 1.384 . S
C1628 H1619 0.929 . S
C1628 C1620 1.378 . S
C1628 C1623 1.350 . S
C1629 H1616 0.929 . S
C1629 C1621 1.433 . S
C1629 N1631 1.384 . S
N1630 C1626 1.427 . S
N1630 C1627 1.384 . S
N1631 C1623 1.427 . S
N1631 C1629 1.384 . S
H1632 C1638 0.930 . S
H1633 C1642 0.930 . S
H1634 C1647 0.929 . S
H1635 C1645 0.929 . S
H1636 C1640 0.929 . S
H1637 C1646 0.929 . S
C1638 H1632 0.930 . S
C1638 C1639 1.367 . S
C1638 C1646 1.378 . S
C1639 C1638 1.367 . S
C1639 C1647 1.433 . S
C1640 H1636 0.929 . S
C1640 C1642 1.378 . S
C1640 C1644 1.350 . S
C1641 C1644 1.463 1_556 S
C1641 C1646 1.350 . S
C1641 N1649 1.427 . S
C1642 H1633 0.930 . S
C1642 C1640 1.378 . S
C1642 C1643 1.367 . S
C1643 C1642 1.367 . S
C1643 C1645 1.433 . S
C1644 C1640 1.350 . S
C1644 C1641 1.463 1_554 S
C1644 N1648 1.427 . S
C1645 H1635 0.929 . S
C1645 C1643 1.433 . S
C1645 N1648 1.384 . S
C1646 H1637 0.929 . S
C1646 C1638 1.378 . S
C1646 C1641 1.350 . S
C1647 H1634 0.929 . S
C1647 C1639 1.433 . S
C1647 N1649 1.384 . S
N1648 C1644 1.427 . S
N1648 C1645 1.384 . S
N1649 C1641 1.427 . S
N1649 C1647 1.384 . S
H1650 C1656 0.930 . S
H1651 C1660 0.930 . S
H1652 C1665 0.929 . S
H1653 C1663 0.929 . S
H1654 C1658 0.929 . S
H1655 C1664 0.929 . S
C1656 H1650 0.930 . S
C1656 C1657 1.367 . S
C1656 C1664 1.378 . S
C1657 C1656 1.367 . S
C1657 C1665 1.433 . S
C1658 H1654 0.929 . S
C1658 C1660 1.378 . S
C1658 C1662 1.350 . S
C1659 C1662 1.463 1_556 S
C1659 C1664 1.350 . S
C1659 N1667 1.427 . S
C1660 H1651 0.930 . S
C1660 C1658 1.378 . S
C1660 C1661 1.367 . S
C1661 C1660 1.367 . S
C1661 C1663 1.433 . S
C1662 C1658 1.350 . S
C1662 C1659 1.463 1_554 S
C1662 N1666 1.427 . S
C1663 H1653 0.929 . S
C1663 C1661 1.433 . S
C1663 N1666 1.384 . S
C1664 H1655 0.929 . S
C1664 C1656 1.378 . S
C1664 C1659 1.350 . S
C1665 H1652 0.929 . S
C1665 C1657 1.433 . S
C1665 N1667 1.384 . S
N1666 C1662 1.427 . S
N1666 C1663 1.384 . S
N1667 C1659 1.427 . S
N1667 C1665 1.384 . S
H1668 C1674 0.930 . S
H1669 C1678 0.930 . S
H1670 C1683 0.929 . S
H1671 C1681 0.929 . S
H1672 C1676 0.929 . S
H1673 C1682 0.929 . S
C1674 H1668 0.930 . S
C1674 C1675 1.367 . S
C1674 C1682 1.378 . S
C1675 C1674 1.367 . S
C1675 C1683 1.433 . S
C1676 H1672 0.929 . S
C1676 C1678 1.378 . S
C1676 C1680 1.350 . S
C1677 C1680 1.463 . S
C1677 C1682 1.350 . S
C1677 N1685 1.427 . S
C1678 H1669 0.930 . S
C1678 C1676 1.378 . S
C1678 C1679 1.367 . S
C1679 C1678 1.367 . S
C1679 C1681 1.433 . S
C1680 C1676 1.350 . S
C1680 C1677 1.463 . S
C1680 N1684 1.427 . S
C1681 H1671 0.929 . S
C1681 C1679 1.433 . S
C1681 N1684 1.384 . S
C1682 H1673 0.929 . S
C1682 C1674 1.378 . S
C1682 C1677 1.350 . S
C1683 H1670 0.929 . S
C1683 C1675 1.433 . S
C1683 N1685 1.384 . S
N1684 C1680 1.427 . S
N1684 C1681 1.384 . S
N1685 C1677 1.427 . S
N1685 C1683 1.384 . S
H1686 C1692 0.930 . S
H1687 C1696 0.930 . S
H1688 C1701 0.929 . S
H1689 C1699 0.929 . S
H1690 C1694 0.929 . S
H1691 C1700 0.929 . S
C1692 H1686 0.930 . S
C1692 C1693 1.367 . S
C1692 C1700 1.378 . S
C1693 C1692 1.367 . S
C1693 C1701 1.433 . S
C1694 H1690 0.929 . S
C1694 C1696 1.378 . S
C1694 C1698 1.350 . S
C1695 C1698 1.463 . S
C1695 C1700 1.350 . S
C1695 N1703 1.427 . S
C1696 H1687 0.930 . S
C1696 C1694 1.378 . S
C1696 C1697 1.367 . S
C1697 C1696 1.367 . S
C1697 C1699 1.433 . S
C1698 C1694 1.350 . S
C1698 C1695 1.463 . S
C1698 N1702 1.427 . S
C1699 H1689 0.929 . S
C1699 C1697 1.433 . S
C1699 N1702 1.384 . S
C1700 H1691 0.929 . S
C1700 C1692 1.378 . S
C1700 C1695 1.350 . S
C1701 H1688 0.929 . S
C1701 C1693 1.433 . S
C1701 N1703 1.384 . S
N1702 C1698 1.427 . S
N1702 C1699 1.384 . S
N1703 C1695 1.427 . S
N1703 C1701 1.384 . S
H1704 C1710 0.930 . S
H1705 C1714 0.930 . S
H1706 C1719 0.929 . S
H1707 C1717 0.929 . S
H1708 C1712 0.929 . S
H1709 C1718 0.929 . S
C1710 H1704 0.930 . S
C1710 C1711 1.367 . S
C1710 C1718 1.378 . S
C1711 C1710 1.367 . S
C1711 C1719 1.433 . S
C1712 H1708 0.929 . S
C1712 C1714 1.378 . S
C1712 C1716 1.350 . S
C1713 C1716 1.463 1_554 S
C1713 C1718 1.350 . S
C1713 N1721 1.427 . S
C1714 H1705 0.930 . S
C1714 C1712 1.378 . S
C1714 C1715 1.367 . S
C1715 C1714 1.367 . S
C1715 C1717 1.433 . S
C1716 C1712 1.350 . S
C1716 C1713 1.463 1_556 S
C1716 N1720 1.427 . S
C1717 H1707 0.929 . S
C1717 C1715 1.433 . S
C1717 N1720 1.384 . S
C1718 H1709 0.929 . S
C1718 C1710 1.378 . S
C1718 C1713 1.350 . S
C1719 H1706 0.929 . S
C1719 C1711 1.433 . S
C1719 N1721 1.384 . S
N1720 C1716 1.427 . S
N1720 C1717 1.384 . S
N1721 C1713 1.427 . S
N1721 C1719 1.384 . S
H1722 C1728 0.930 . S
H1723 C1732 0.930 . S
H1724 C1737 0.929 . S
H1725 C1735 0.929 . S
H1726 C1730 0.929 . S
H1727 C1736 0.929 . S
C1728 H1722 0.930 . S
C1728 C1729 1.367 . S
C1728 C1736 1.378 . S
C1729 C1728 1.367 . S
C1729 C1737 1.433 . S
C1730 H1726 0.929 . S
C1730 C1732 1.378 . S
C1730 C1734 1.350 . S
C1731 C1734 1.463 1_556 S
C1731 C1736 1.350 . S
C1731 N1739 1.427 . S
C1732 H1723 0.930 . S
C1732 C1730 1.378 . S
C1732 C1733 1.367 . S
C1733 C1732 1.367 . S
C1733 C1735 1.433 . S
C1734 C1730 1.350 . S
C1734 C1731 1.463 1_554 S
C1734 N1738 1.427 . S
C1735 H1725 0.929 . S
C1735 C1733 1.433 . S
C1735 N1738 1.384 . S
C1736 H1727 0.929 . S
C1736 C1728 1.378 . S
C1736 C1731 1.350 . S
C1737 H1724 0.929 . S
C1737 C1729 1.433 . S
C1737 N1739 1.384 . S
N1738 C1734 1.427 . S
N1738 C1735 1.384 . S
N1739 C1731 1.427 . S
N1739 C1737 1.384 . S
H1740 C1746 0.930 . S
H1741 C1750 0.930 . S
H1742 C1755 0.929 . S
H1743 C1753 0.929 . S
H1744 C1748 0.929 . S
H1745 C1754 0.929 . S
C1746 H1740 0.930 . S
C1746 C1747 1.367 . S
C1746 C1754 1.378 . S
C1747 C1746 1.367 . S
C1747 C1755 1.433 . S
C1748 H1744 0.929 . S
C1748 C1750 1.378 . S
C1748 C1752 1.350 . S
C1749 C1752 1.463 . S
C1749 C1754 1.350 . S
C1749 N1757 1.427 . S
C1750 H1741 0.930 . S
C1750 C1748 1.378 . S
C1750 C1751 1.367 . S
C1751 C1750 1.367 . S
C1751 C1753 1.433 . S
C1752 C1748 1.350 . S
C1752 C1749 1.463 . S
C1752 N1756 1.427 . S
C1753 H1743 0.929 . S
C1753 C1751 1.433 . S
C1753 N1756 1.384 . S
C1754 H1745 0.929 . S
C1754 C1746 1.378 . S
C1754 C1749 1.350 . S
C1755 H1742 0.929 . S
C1755 C1747 1.433 . S
C1755 N1757 1.384 . S
N1756 C1752 1.427 . S
N1756 C1753 1.384 . S
N1757 C1749 1.427 . S
N1757 C1755 1.384 . S
H1758 C1764 0.930 . S
H1759 C1768 0.930 . S
H1760 C1773 0.929 . S
H1761 C1771 0.929 . S
H1762 C1766 0.929 . S
H1763 C1772 0.929 . S
C1764 H1758 0.930 . S
C1764 C1765 1.367 . S
C1764 C1772 1.378 . S
C1765 C1764 1.367 . S
C1765 C1773 1.433 . S
C1766 H1762 0.929 . S
C1766 C1768 1.378 . S
C1766 C1770 1.350 . S
C1767 C1770 1.463 . S
C1767 C1772 1.350 . S
C1767 N1775 1.427 . S
C1768 H1759 0.930 . S
C1768 C1766 1.378 . S
C1768 C1769 1.367 . S
C1769 C1768 1.367 . S
C1769 C1771 1.433 . S
C1770 C1766 1.350 . S
C1770 C1767 1.463 . S
C1770 N1774 1.427 . S
C1771 H1761 0.929 . S
C1771 C1769 1.433 . S
C1771 N1774 1.384 . S
C1772 H1763 0.929 . S
C1772 C1764 1.378 . S
C1772 C1767 1.350 . S
C1773 H1760 0.929 . S
C1773 C1765 1.433 . S
C1773 N1775 1.384 . S
N1774 C1770 1.427 . S
N1774 C1771 1.384 . S
N1775 C1767 1.427 . S
N1775 C1773 1.384 . S
H1776 C1782 0.930 . S
H1777 C1786 0.930 . S
H1778 C1791 0.929 . S
H1779 C1789 0.929 . S
H1780 C1784 0.929 . S
H1781 C1790 0.929 . S
C1782 H1776 0.930 . S
C1782 C1783 1.367 . S
C1782 C1790 1.378 . S
C1783 C1782 1.367 . S
C1783 C1791 1.433 1_565 S
C1784 H1780 0.929 . S
C1784 C1786 1.378 . S
C1784 C1788 1.350 . S
C1785 C1788 1.463 1_665 S
C1785 C1790 1.350 . S
C1785 N1793 1.427 1_565 S
C1786 H1777 0.930 . S
C1786 C1784 1.378 . S
C1786 C1787 1.367 . S
C1787 C1786 1.367 . S
C1787 C1789 1.433 1_545 S
C1788 C1784 1.350 . S
C1788 C1785 1.463 1_445 S
C1788 N1792 1.427 1_545 S
C1789 H1779 0.929 . S
C1789 C1787 1.433 1_565 S
C1789 N1792 1.384 . S
C1790 H1781 0.929 . S
C1790 C1782 1.378 . S
C1790 C1785 1.350 . S
C1791 H1778 0.929 . S
C1791 C1783 1.433 1_545 S
C1791 N1793 1.384 . S
N1792 C1788 1.427 1_565 S
N1792 C1789 1.384 . S
N1793 C1785 1.427 1_545 S
N1793 C1791 1.384 . S
H1794 C1800 0.930 . S
H1795 C1804 0.930 . S
H1796 C1809 0.938 . S
H1797 C1807 0.938 . S
H1798 C1802 0.929 . S
H1799 C1808 0.929 . S
C1800 H1794 0.930 . S
C1800 C1801 1.367 . S
C1800 C1808 1.378 . S
C1801 C1800 1.367 . S
C1801 C1809 1.418 1_545 S
C1802 H1798 0.929 . S
C1802 C1804 1.378 . S
C1802 C1806 1.350 . S
C1803 C1806 1.463 1_645 S
C1803 C1808 1.350 . S
C1803 N1811 1.427 1_545 S
C1804 H1795 0.930 . S
C1804 C1802 1.378 . S
C1804 C1805 1.367 . S
C1805 C1804 1.367 . S
C1805 C1807 1.418 1_565 S
C1806 C1802 1.350 . S
C1806 C1803 1.463 1_465 S
C1806 N1810 1.427 1_565 S
C1807 H1797 0.938 . S
C1807 C1805 1.418 1_545 S
C1807 N1810 1.390 . S
C1808 H1799 0.929 . S
C1808 C1800 1.378 . S
C1808 C1803 1.350 . S
C1809 H1796 0.938 . S
C1809 C1801 1.418 1_565 S
C1809 N1811 1.390 . S
N1810 C1806 1.427 1_545 S
N1810 C1807 1.390 . S
N1811 C1803 1.427 1_565 S
N1811 C1809 1.390 . S
H1812 C1818 0.930 . S
H1813 C1822 0.930 . S
H1814 C1827 0.929 . S
H1815 C1825 0.929 . S
H1816 C1820 0.929 1_545 S
H1817 C1826 0.929 1_565 S
C1818 H1812 0.930 . S
C1818 C1819 1.367 . S
C1818 C1826 1.378 . S
C1819 C1818 1.367 . S
C1819 C1827 1.433 . S
C1820 H1816 0.929 1_565 S
C1820 C1822 1.378 . S
C1820 C1824 1.350 . S
C1821 C1824 1.463 1_445 S
C1821 C1826 1.350 . S
C1821 N1829 1.427 . S
C1822 H1813 0.930 . S
C1822 C1820 1.378 . S
C1822 C1823 1.367 . S
C1823 C1822 1.367 . S
C1823 C1825 1.433 . S
C1824 C1820 1.350 . S
C1824 C1821 1.463 1_665 S
C1824 N1828 1.427 . S
C1825 H1815 0.929 . S
C1825 C1823 1.433 . S
C1825 N1828 1.384 . S
C1826 H1817 0.929 1_545 S
C1826 C1818 1.378 . S
C1826 C1821 1.350 . S
C1827 H1814 0.929 . S
C1827 C1819 1.433 . S
C1827 N1829 1.384 . S
N1828 C1824 1.427 . S
N1828 C1825 1.384 . S
N1829 C1821 1.427 . S
N1829 C1827 1.384 . S
H1830 C1836 0.930 1_565 S
H1831 C1840 0.930 1_545 S
H1832 C1845 0.929 . S
H1833 C1843 0.929 . S
H1834 C1838 0.929 . S
H1835 C1844 0.929 . S
C1836 H1830 0.930 1_545 S
C1836 C1837 1.367 . S
C1836 C1844 1.378 1_545 S
C1837 C1836 1.367 . S
C1837 C1845 1.433 . S
C1838 H1834 0.929 . S
C1838 C1840 1.378 1_545 S
C1838 C1842 1.350 1_545 S
C1839 C1842 1.463 1_645 S
C1839 C1844 1.350 1_545 S
C1839 N1847 1.427 . S
C1840 H1831 0.930 1_565 S
C1840 C1838 1.378 1_565 S
C1840 C1841 1.367 . S
C1841 C1840 1.367 . S
C1841 C1843 1.433 . S
C1842 C1838 1.350 1_565 S
C1842 C1839 1.463 1_465 S
C1842 N1846 1.427 . S
C1843 H1833 0.929 . S
C1843 C1841 1.433 . S
C1843 N1846 1.384 . S
C1844 H1835 0.929 . S
C1844 C1836 1.378 1_565 S
C1844 C1839 1.350 1_565 S
C1845 H1832 0.929 . S
C1845 C1837 1.433 . S
C1845 N1847 1.384 . S
N1846 C1842 1.427 . S
N1846 C1843 1.384 . S
N1847 C1839 1.427 . S
N1847 C1845 1.384 . S
H1848 C1854 0.930 . S
H1849 C1858 0.930 . S
H1850 C1863 0.929 . S
H1851 C1861 0.929 . S
H1852 C1856 0.929 . S
H1853 C1862 0.929 . S
C1854 H1848 0.930 . S
C1854 C1855 1.367 . S
C1854 C1862 1.378 . S
C1855 C1854 1.367 . S
C1855 C1863 1.433 . S
C1856 H1852 0.929 . S
C1856 C1858 1.378 . S
C1856 C1860 1.350 . S
C1857 C1860 1.463 . S
C1857 C1862 1.350 . S
C1857 N1865 1.427 . S
C1858 H1849 0.930 . S
C1858 C1856 1.378 . S
C1858 C1859 1.367 . S
C1859 C1858 1.367 . S
C1859 C1861 1.433 . S
C1860 C1856 1.350 . S
C1860 C1857 1.463 . S
C1860 N1864 1.427 . S
C1861 H1851 0.929 . S
C1861 C1859 1.433 . S
C1861 N1864 1.384 . S
C1862 H1853 0.929 . S
C1862 C1854 1.378 . S
C1862 C1857 1.350 . S
C1863 H1850 0.929 . S
C1863 C1855 1.433 . S
C1863 N1865 1.384 . S
N1864 C1860 1.427 . S
N1864 C1861 1.384 . S
N1865 C1857 1.427 . S
N1865 C1863 1.384 . S
H1866 C1872 0.930 . S
H1867 C1876 0.930 . S
H1868 C1881 0.929 . S
H1869 C1879 0.929 . S
H1870 C1874 0.929 . S
H1871 C1880 0.929 . S
C1872 H1866 0.930 . S
C1872 C1873 1.367 . S
C1872 C1880 1.378 . S
C1873 C1872 1.367 . S
C1873 C1881 1.433 . S
C1874 H1870 0.929 . S
C1874 C1876 1.378 . S
C1874 C1878 1.350 . S
C1875 C1878 1.463 . S
C1875 C1880 1.350 . S
C1875 N1883 1.427 . S
C1876 H1867 0.930 . S
C1876 C1874 1.378 . S
C1876 C1877 1.367 . S
C1877 C1876 1.367 . S
C1877 C1879 1.433 . S
C1878 C1874 1.350 . S
C1878 C1875 1.463 . S
C1878 N1882 1.427 . S
C1879 H1869 0.929 . S
C1879 C1877 1.433 . S
C1879 N1882 1.384 . S
C1880 H1871 0.929 . S
C1880 C1872 1.378 . S
C1880 C1875 1.350 . S
C1881 H1868 0.929 . S
C1881 C1873 1.433 . S
C1881 N1883 1.384 . S
N1882 C1878 1.427 . S
N1882 C1879 1.384 . S
N1883 C1875 1.427 . S
N1883 C1881 1.384 . S
H1884 C1890 0.930 . S
H1885 C1894 0.930 . S
H1886 C1899 0.929 . S
H1887 C1897 0.929 . S
H1888 C1892 0.929 . S
H1889 C1898 0.929 . S
C1890 H1884 0.930 . S
C1890 C1891 1.367 . S
C1890 C1898 1.378 . S
C1891 C1890 1.367 . S
C1891 C1899 1.433 . S
C1892 H1888 0.929 . S
C1892 C1894 1.378 . S
C1892 C1896 1.350 . S
C1893 C1896 1.463 . S
C1893 C1898 1.350 . S
C1893 N1901 1.427 . S
C1894 H1885 0.930 . S
C1894 C1892 1.378 . S
C1894 C1895 1.367 . S
C1895 C1894 1.367 . S
C1895 C1897 1.433 . S
C1896 C1892 1.350 . S
C1896 C1893 1.463 . S
C1896 N1900 1.427 . S
C1897 H1887 0.929 . S
C1897 C1895 1.433 . S
C1897 N1900 1.384 . S
C1898 H1889 0.929 . S
C1898 C1890 1.378 . S
C1898 C1893 1.350 . S
C1899 H1886 0.929 . S
C1899 C1891 1.433 . S
C1899 N1901 1.384 . S
N1900 C1896 1.427 . S
N1900 C1897 1.384 . S
N1901 C1893 1.427 . S
N1901 C1899 1.384 . S
H1902 C1908 0.930 . S
H1903 C1912 0.930 . S
H1904 C1917 0.929 . S
H1905 C1915 0.929 . S
H1906 C1910 0.929 . S
H1907 C1916 0.929 . S
C1908 H1902 0.930 . S
C1908 C1909 1.367 . S
C1908 C1916 1.378 . S
C1909 C1908 1.367 . S
C1909 C1917 1.433 . S
C1910 H1906 0.929 . S
C1910 C1912 1.378 . S
C1910 C1914 1.350 . S
C1911 C1914 1.463 . S
C1911 C1916 1.350 . S
C1911 N1919 1.427 . S
C1912 H1903 0.930 . S
C1912 C1910 1.378 . S
C1912 C1913 1.367 . S
C1913 C1912 1.367 . S
C1913 C1915 1.433 . S
C1914 C1910 1.350 . S
C1914 C1911 1.463 . S
C1914 N1918 1.427 . S
C1915 H1905 0.929 . S
C1915 C1913 1.433 . S
C1915 N1918 1.384 . S
C1916 H1907 0.929 . S
C1916 C1908 1.378 . S
C1916 C1911 1.350 . S
C1917 H1904 0.929 . S
C1917 C1909 1.433 . S
C1917 N1919 1.384 . S
N1918 C1914 1.427 . S
N1918 C1915 1.384 . S
N1919 C1911 1.427 . S
N1919 C1917 1.384 . S
H1920 C1926 0.930 . S
H1921 C1930 0.930 . S
H1922 C1935 0.929 . S
H1923 C1933 0.929 . S
H1924 C1928 0.929 . S
H1925 C1934 0.929 . S
C1926 H1920 0.930 . S
C1926 C1927 1.367 . S
C1926 C1934 1.378 . S
C1927 C1926 1.367 . S
C1927 C1935 1.433 . S
C1928 H1924 0.929 . S
C1928 C1930 1.378 . S
C1928 C1932 1.350 . S
C1929 C1932 1.463 . S
C1929 C1934 1.350 . S
C1929 N1937 1.427 . S
C1930 H1921 0.930 . S
C1930 C1928 1.378 . S
C1930 C1931 1.367 . S
C1931 C1930 1.367 . S
C1931 C1933 1.433 . S
C1932 C1928 1.350 . S
C1932 C1929 1.463 . S
C1932 N1936 1.427 . S
C1933 H1923 0.929 . S
C1933 C1931 1.433 . S
C1933 N1936 1.384 . S
C1934 H1925 0.929 . S
C1934 C1926 1.378 . S
C1934 C1929 1.350 . S
C1935 H1922 0.929 . S
C1935 C1927 1.433 . S
C1935 N1937 1.384 . S
N1936 C1932 1.427 . S
N1936 C1933 1.384 . S
N1937 C1929 1.427 . S
N1937 C1935 1.384 . S
H1938 C1944 0.930 . S
H1939 C1948 0.930 . S
H1940 C1953 0.929 . S
H1941 C1951 0.929 . S
H1942 C1946 0.929 . S
H1943 C1952 0.929 . S
C1944 H1938 0.930 . S
C1944 C1945 1.367 . S
C1944 C1952 1.378 . S
C1945 C1944 1.367 . S
C1945 C1953 1.433 . S
C1946 H1942 0.929 . S
C1946 C1948 1.378 . S
C1946 C1950 1.350 . S
C1947 C1950 1.463 . S
C1947 C1952 1.350 . S
C1947 N1955 1.427 . S
C1948 H1939 0.930 . S
C1948 C1946 1.378 . S
C1948 C1949 1.367 . S
C1949 C1948 1.367 . S
C1949 C1951 1.433 . S
C1950 C1946 1.350 . S
C1950 C1947 1.463 . S
C1950 N1954 1.427 . S
C1951 H1941 0.929 . S
C1951 C1949 1.433 . S
C1951 N1954 1.384 . S
C1952 H1943 0.929 . S
C1952 C1944 1.378 . S
C1952 C1947 1.350 . S
C1953 H1940 0.929 . S
C1953 C1945 1.433 . S
C1953 N1955 1.384 . S
N1954 C1950 1.427 . S
N1954 C1951 1.384 . S
N1955 C1947 1.427 . S
N1955 C1953 1.384 . S
H1956 C1962 0.930 . S
H1957 C1966 0.930 . S
H1958 C1971 0.929 . S
H1959 C1969 0.929 . S
H1960 C1964 0.929 . S
H1961 C1970 0.929 . S
C1962 H1956 0.930 . S
C1962 C1963 1.367 . S
C1962 C1970 1.378 . S
C1963 C1962 1.367 . S
C1963 C1971 1.433 . S
C1964 H1960 0.929 . S
C1964 C1966 1.378 . S
C1964 C1968 1.350 . S
C1965 C1968 1.463 . S
C1965 C1970 1.350 . S
C1965 N1973 1.427 . S
C1966 H1957 0.930 . S
C1966 C1964 1.378 . S
C1966 C1967 1.367 . S
C1967 C1966 1.367 . S
C1967 C1969 1.433 . S
C1968 C1964 1.350 . S
C1968 C1965 1.463 . S
C1968 N1972 1.427 . S
C1969 H1959 0.929 . S
C1969 C1967 1.433 . S
C1969 N1972 1.384 . S
C1970 H1961 0.929 . S
C1970 C1962 1.378 . S
C1970 C1965 1.350 . S
C1971 H1958 0.929 . S
C1971 C1963 1.433 . S
C1971 N1973 1.384 . S
N1972 C1968 1.427 . S
N1972 C1969 1.384 . S
N1973 C1965 1.427 . S
N1973 C1971 1.384 . S
H1974 C1980 0.930 . S
H1975 C1984 0.930 . S
H1976 C1989 0.929 . S
H1977 C1987 0.929 . S
H1978 C1982 0.929 . S
H1979 C1988 0.929 . S
C1980 H1974 0.930 . S
C1980 C1981 1.367 . S
C1980 C1988 1.378 . S
C1981 C1980 1.367 . S
C1981 C1989 1.433 . S
C1982 H1978 0.929 . S
C1982 C1984 1.378 . S
C1982 C1986 1.350 . S
C1983 C1986 1.463 . S
C1983 C1988 1.350 . S
C1983 N1991 1.427 . S
C1984 H1975 0.930 . S
C1984 C1982 1.378 . S
C1984 C1985 1.367 . S
C1985 C1984 1.367 . S
C1985 C1987 1.433 . S
C1986 C1982 1.350 . S
C1986 C1983 1.463 . S
C1986 N1990 1.427 . S
C1987 H1977 0.929 . S
C1987 C1985 1.433 . S
C1987 N1990 1.384 . S
C1988 H1979 0.929 . S
C1988 C1980 1.378 . S
C1988 C1983 1.350 . S
C1989 H1976 0.929 . S
C1989 C1981 1.433 . S
C1989 N1991 1.384 . S
N1990 C1986 1.427 . S
N1990 C1987 1.384 . S
N1991 C1983 1.427 . S
N1991 C1989 1.384 . S
H1992 C1998 0.930 . S
H1993 C2002 0.930 . S
H1994 C2007 0.929 . S
H1995 C2005 0.929 . S
H1996 C2000 0.929 . S
H1997 C2006 0.929 . S
C1998 H1992 0.930 . S
C1998 C1999 1.367 . S
C1998 C2006 1.378 . S
C1999 C1998 1.367 . S
C1999 C2007 1.433 . S
C2000 H1996 0.929 . S
C2000 C2002 1.378 . S
C2000 C2004 1.350 . S
C2001 C2004 1.463 . S
C2001 C2006 1.350 . S
C2001 N2009 1.427 . S
C2002 H1993 0.930 . S
C2002 C2000 1.378 . S
C2002 C2003 1.367 . S
C2003 C2002 1.367 . S
C2003 C2005 1.433 . S
C2004 C2000 1.350 . S
C2004 C2001 1.463 . S
C2004 N2008 1.427 . S
C2005 H1995 0.929 . S
C2005 C2003 1.433 . S
C2005 N2008 1.384 . S
C2006 H1997 0.929 . S
C2006 C1998 1.378 . S
C2006 C2001 1.350 . S
C2007 H1994 0.929 . S
C2007 C1999 1.433 . S
C2007 N2009 1.384 . S
N2008 C2004 1.427 . S
N2008 C2005 1.384 . S
N2009 C2001 1.427 . S
N2009 C2007 1.384 . S
H2010 C2016 0.930 . S
H2011 C2020 0.930 . S
H2012 C2025 0.929 . S
H2013 C2023 0.929 . S
H2014 C2018 0.929 . S
H2015 C2024 0.929 . S
C2016 H2010 0.930 . S
C2016 C2017 1.367 . S
C2016 C2024 1.378 . S
C2017 C2016 1.367 . S
C2017 C2025 1.433 . S
C2018 H2014 0.929 . S
C2018 C2020 1.378 . S
C2018 C2022 1.350 . S
C2019 C2022 1.463 . S
C2019 C2024 1.350 . S
C2019 N2027 1.427 . S
C2020 H2011 0.930 . S
C2020 C2018 1.378 . S
C2020 C2021 1.367 . S
C2021 C2020 1.367 . S
C2021 C2023 1.433 . S
C2022 C2018 1.350 . S
C2022 C2019 1.463 . S
C2022 N2026 1.427 . S
C2023 H2013 0.929 . S
C2023 C2021 1.433 . S
C2023 N2026 1.384 . S
C2024 H2015 0.929 . S
C2024 C2016 1.378 . S
C2024 C2019 1.350 . S
C2025 H2012 0.929 . S
C2025 C2017 1.433 . S
C2025 N2027 1.384 . S
N2026 C2022 1.427 . S
N2026 C2023 1.384 . S
N2027 C2019 1.427 . S
N2027 C2025 1.384 . S
H2028 C2034 0.930 . S
H2029 C2038 0.930 . S
H2030 C2043 0.929 . S
H2031 C2041 0.929 . S
H2032 C2036 0.929 . S
H2033 C2042 0.929 . S
C2034 H2028 0.930 . S
C2034 C2035 1.367 . S
C2034 C2042 1.378 . S
C2035 C2034 1.367 . S
C2035 C2043 1.433 . S
C2036 H2032 0.929 . S
C2036 C2038 1.378 . S
C2036 C2040 1.350 . S
C2037 C2040 1.463 . S
C2037 C2042 1.350 . S
C2037 N2045 1.427 . S
C2038 H2029 0.930 . S
C2038 C2036 1.378 . S
C2038 C2039 1.367 . S
C2039 C2038 1.367 . S
C2039 C2041 1.433 . S
C2040 C2036 1.350 . S
C2040 C2037 1.463 . S
C2040 N2044 1.427 . S
C2041 H2031 0.929 . S
C2041 C2039 1.433 . S
C2041 N2044 1.384 . S
C2042 H2033 0.929 . S
C2042 C2034 1.378 . S
C2042 C2037 1.350 . S
C2043 H2030 0.929 . S
C2043 C2035 1.433 . S
C2043 N2045 1.384 . S
N2044 C2040 1.427 . S
N2044 C2041 1.384 . S
N2045 C2037 1.427 . S
N2045 C2043 1.384 . S
H2046 C2052 0.930 . S
H2047 C2056 0.930 . S
H2048 C2061 0.929 . S
H2049 C2059 0.929 . S
H2050 C2054 0.929 . S
H2051 C2060 0.929 . S
C2052 H2046 0.930 . S
C2052 C2053 1.367 . S
C2052 C2060 1.378 . S
C2053 C2052 1.367 . S
C2053 C2061 1.433 . S
C2054 H2050 0.929 . S
C2054 C2056 1.378 . S
C2054 C2058 1.350 . S
C2055 C2058 1.463 . S
C2055 C2060 1.350 . S
C2055 N2063 1.427 . S
C2056 H2047 0.930 . S
C2056 C2054 1.378 . S
C2056 C2057 1.367 . S
C2057 C2056 1.367 . S
C2057 C2059 1.433 . S
C2058 C2054 1.350 . S
C2058 C2055 1.463 . S
C2058 N2062 1.427 . S
C2059 H2049 0.929 . S
C2059 C2057 1.433 . S
C2059 N2062 1.384 . S
C2060 H2051 0.929 . S
C2060 C2052 1.378 . S
C2060 C2055 1.350 . S
C2061 H2048 0.929 . S
C2061 C2053 1.433 . S
C2061 N2063 1.384 . S
N2062 C2058 1.427 . S
N2062 C2059 1.384 . S
N2063 C2055 1.427 . S
N2063 C2061 1.384 . S
H2064 C2070 0.930 1_565 S
H2065 C2074 0.930 . S
H2066 C2079 0.929 . S
H2067 C2077 0.929 . S
H2068 C2072 0.929 . S
H2069 C2078 0.929 . S
C2070 H2064 0.930 1_545 S
C2070 C2071 1.367 1_545 S
C2070 C2078 1.378 . S
C2071 C2070 1.367 1_565 S
C2071 C2079 1.433 1_565 S
C2072 H2068 0.929 . S
C2072 C2074 1.378 . S
C2072 C2076 1.350 . S
C2073 C2076 1.463 . S
C2073 C2078 1.350 . S
C2073 N2081 1.427 . S
C2074 H2065 0.930 . S
C2074 C2072 1.378 . S
C2074 C2075 1.367 . S
C2075 C2074 1.367 . S
C2075 C2077 1.433 . S
C2076 C2072 1.350 . S
C2076 C2073 1.463 . S
C2076 N2080 1.427 . S
C2077 H2067 0.929 . S
C2077 C2075 1.433 . S
C2077 N2080 1.384 . S
C2078 H2069 0.929 . S
C2078 C2070 1.378 . S
C2078 C2073 1.350 . S
C2079 H2066 0.929 . S
C2079 C2071 1.433 1_545 S
C2079 N2081 1.384 . S
N2080 C2076 1.427 . S
N2080 C2077 1.384 . S
N2081 C2073 1.427 . S
N2081 C2079 1.384 . S
H2082 C2088 0.930 . S
H2083 C2092 0.930 . S
H2084 C2097 0.929 . S
H2085 C2095 0.929 1_545 S
H2086 C2090 0.929 . S
H2087 C2096 0.929 . S
C2088 H2082 0.930 . S
C2088 C2089 1.367 . S
C2088 C2096 1.378 . S
C2089 C2088 1.367 . S
C2089 C2097 1.433 . S
C2090 H2086 0.929 . S
C2090 C2092 1.378 . S
C2090 C2094 1.350 . S
C2091 C2094 1.463 . S
C2091 C2096 1.350 . S
C2091 N2099 1.427 . S
C2092 H2083 0.930 . S
C2092 C2090 1.378 . S
C2092 C2093 1.367 1_565 S
C2093 C2092 1.367 1_545 S
C2093 C2095 1.433 1_545 S
C2094 C2090 1.350 . S
C2094 C2091 1.463 . S
C2094 N2098 1.427 . S
C2095 H2085 0.929 1_565 S
C2095 C2093 1.433 1_565 S
C2095 N2098 1.384 . S
C2096 H2087 0.929 . S
C2096 C2088 1.378 . S
C2096 C2091 1.350 . S
C2097 H2084 0.929 . S
C2097 C2089 1.433 . S
C2097 N2099 1.384 . S
N2098 C2094 1.427 . S
N2098 C2095 1.384 . S
N2099 C2091 1.427 . S
N2099 C2097 1.384 . S
H2100 C2106 0.930 1_545 S
H2101 C2110 0.930 . S
H2102 C2115 0.929 . S
H2103 C2113 0.929 . S
H2104 C2108 0.929 . S
H2105 C2114 0.929 . S
C2106 H2100 0.930 1_565 S
C2106 C2107 1.367 1_565 S
C2106 C2114 1.378 . S
C2107 C2106 1.367 1_545 S
C2107 C2115 1.433 1_545 S
C2108 H2104 0.929 . S
C2108 C2110 1.378 . S
C2108 C2112 1.350 . S
C2109 C2112 1.463 . S
C2109 C2114 1.350 . S
C2109 N2117 1.427 . S
C2110 H2101 0.930 . S
C2110 C2108 1.378 . S
C2110 C2111 1.367 . S
C2111 C2110 1.367 . S
C2111 C2113 1.433 . S
C2112 C2108 1.350 . S
C2112 C2109 1.463 . S
C2112 N2116 1.427 . S
C2113 H2103 0.929 . S
C2113 C2111 1.433 . S
C2113 N2116 1.384 . S
C2114 H2105 0.929 . S
C2114 C2106 1.378 . S
C2114 C2109 1.350 . S
C2115 H2102 0.929 . S
C2115 C2107 1.433 1_565 S
C2115 N2117 1.384 . S
N2116 C2112 1.427 . S
N2116 C2113 1.384 . S
N2117 C2109 1.427 . S
N2117 C2115 1.384 . S
H2118 C2124 0.930 . S
H2119 C2128 0.930 . S
H2120 C2133 0.929 1_565 S
H2121 C2131 0.929 . S
H2122 C2126 0.929 . S
H2123 C2132 0.929 . S
C2124 H2118 0.930 . S
C2124 C2125 1.367 1_545 S
C2124 C2132 1.378 . S
C2125 C2124 1.367 1_565 S
C2125 C2133 1.433 1_565 S
C2126 H2122 0.929 . S
C2126 C2128 1.378 . S
C2126 C2130 1.350 . S
C2127 C2130 1.463 . S
C2127 C2132 1.350 . S
C2127 N2135 1.427 . S
C2128 H2119 0.930 . S
C2128 C2126 1.378 . S
C2128 C2129 1.367 . S
C2129 C2128 1.367 . S
C2129 C2131 1.433 . S
C2130 C2126 1.350 . S
C2130 C2127 1.463 . S
C2130 N2134 1.427 . S
C2131 H2121 0.929 . S
C2131 C2129 1.433 . S
C2131 N2134 1.384 . S
C2132 H2123 0.929 . S
C2132 C2124 1.378 . S
C2132 C2127 1.350 . S
C2133 H2120 0.929 1_545 S
C2133 C2125 1.433 1_545 S
C2133 N2135 1.384 . S
N2134 C2130 1.427 . S
N2134 C2131 1.384 . S
N2135 C2127 1.427 . S
N2135 C2133 1.384 . S
H2136 C2142 0.930 . S
H2137 C2146 0.930 1_545 S
H2138 C2151 0.929 . S
H2139 C2149 0.929 . S
H2140 C2144 0.929 . S
H2141 C2150 0.929 . S
C2142 H2136 0.930 . S
C2142 C2143 1.367 . S
C2142 C2150 1.378 . S
C2143 C2142 1.367 . S
C2143 C2151 1.433 . S
C2144 H2140 0.929 . S
C2144 C2146 1.378 . S
C2144 C2148 1.350 . S
C2145 C2148 1.463 . S
C2145 C2150 1.350 . S
C2145 N2153 1.427 . S
C2146 H2137 0.930 1_565 S
C2146 C2144 1.378 . S
C2146 C2147 1.367 1_565 S
C2147 C2146 1.367 1_545 S
C2147 C2149 1.433 1_545 S
C2148 C2144 1.350 . S
C2148 C2145 1.463 . S
C2148 N2152 1.427 . S
C2149 H2139 0.929 . S
C2149 C2147 1.433 1_565 S
C2149 N2152 1.384 . S
C2150 H2141 0.929 . S
C2150 C2142 1.378 . S
C2150 C2145 1.350 . S
C2151 H2138 0.929 . S
C2151 C2143 1.433 . S
C2151 N2153 1.384 . S
N2152 C2148 1.427 . S
N2152 C2149 1.384 . S
N2153 C2145 1.427 . S
N2153 C2151 1.384 . S
H2154 C2160 0.930 . S
H2155 C2164 0.930 1_565 S
H2156 C2169 0.929 . S
H2157 C2167 0.929 . S
H2158 C2162 0.929 . S
H2159 C2168 0.929 . S
C2160 H2154 0.930 . S
C2160 C2161 1.367 . S
C2160 C2168 1.378 . S
C2161 C2160 1.367 . S
C2161 C2169 1.433 . S
C2162 H2158 0.929 . S
C2162 C2164 1.378 . S
C2162 C2166 1.350 . S
C2163 C2166 1.463 . S
C2163 C2168 1.350 . S
C2163 N2171 1.427 . S
C2164 H2155 0.930 1_545 S
C2164 C2162 1.378 . S
C2164 C2165 1.367 1_545 S
C2165 C2164 1.367 1_565 S
C2165 C2167 1.433 1_565 S
C2166 C2162 1.350 . S
C2166 C2163 1.463 . S
C2166 N2170 1.427 . S
C2167 H2157 0.929 . S
C2167 C2165 1.433 1_545 S
C2167 N2170 1.384 . S
C2168 H2159 0.929 . S
C2168 C2160 1.378 . S
C2168 C2163 1.350 . S
C2169 H2156 0.929 . S
C2169 C2161 1.433 . S
C2169 N2171 1.384 . S
N2170 C2166 1.427 . S
N2170 C2167 1.384 . S
N2171 C2163 1.427 . S
N2171 C2169 1.384 . S
H2172 C2178 0.930 1_565 S
H2173 C2182 0.930 . S
H2174 C2187 0.929 . S
H2175 C2185 0.929 . S
H2176 C2180 0.929 . S
H2177 C2186 0.929 . S
C2178 H2172 0.930 1_545 S
C2178 C2179 1.367 1_545 S
C2178 C2186 1.378 . S
C2179 C2178 1.367 1_565 S
C2179 C2187 1.433 1_565 S
C2180 H2176 0.929 . S
C2180 C2182 1.378 . S
C2180 C2184 1.350 . S
C2181 C2184 1.463 . S
C2181 C2186 1.350 . S
C2181 N2189 1.427 . S
C2182 H2173 0.930 . S
C2182 C2180 1.378 . S
C2182 C2183 1.367 . S
C2183 C2182 1.367 . S
C2183 C2185 1.433 . S
C2184 C2180 1.350 . S
C2184 C2181 1.463 . S
C2184 N2188 1.427 . S
C2185 H2175 0.929 . S
C2185 C2183 1.433 . S
C2185 N2188 1.384 . S
C2186 H2177 0.929 . S
C2186 C2178 1.378 . S
C2186 C2181 1.350 . S
C2187 H2174 0.929 . S
C2187 C2179 1.433 1_545 S
C2187 N2189 1.384 . S
N2188 C2184 1.427 . S
N2188 C2185 1.384 . S
N2189 C2181 1.427 . S
N2189 C2187 1.384 . S
H2190 C2196 0.930 . S
H2191 C2200 0.930 1_545 S
H2192 C2205 0.929 . S
H2193 C2203 0.921 1_545 S
H2194 C2198 0.929 . S
H2195 C2204 0.929 . S
C2196 H2190 0.930 . S
C2196 C2197 1.367 . S
C2196 C2204 1.378 . S
C2197 C2196 1.367 . S
C2197 C2205 1.433 . S
C2198 H2194 0.929 . S
C2198 C2200 1.378 . S
C2198 C2202 1.350 . S
C2199 C2202 1.463 . S
C2199 C2204 1.350 . S
C2199 N2207 1.427 . S
C2200 H2191 0.930 1_565 S
C2200 C2198 1.378 . S
C2200 C2201 1.367 1_565 S
C2201 C2200 1.367 1_545 S
C2201 C2203 1.433 1_545 S
C2202 C2198 1.350 . S
C2202 C2199 1.463 . S
C2202 N2206 1.427 . S
C2203 H2193 0.921 1_565 S
C2203 C2201 1.433 1_565 S
C2203 N2206 1.384 . S
C2204 H2195 0.929 . S
C2204 C2196 1.378 . S
C2204 C2199 1.350 . S
C2205 H2192 0.929 . S
C2205 C2197 1.433 . S
C2205 N2207 1.384 . S
N2206 C2202 1.427 . S
N2206 C2203 1.384 . S
N2207 C2199 1.427 . S
N2207 C2205 1.384 . S
C1351 C67 1.501 . S
C1355 C823 1.496 . S
C1369 C151 1.500 . S
C1373 C739 1.497 . S
C1387 C991 1.500 . S
C1391 C235 1.495 . S
C1405 C319 1.501 . S
C1409 C907 1.496 . S
C1423 C1148 1.501 . S
C1427 C392 1.495 . S
C1441 C1064 1.495 . S
C1445 C476 1.501 . S
C1459 C1316 1.500 . S
C1463 C560 1.495 . S
C1477 C644 1.497 . S
C1481 C1232 1.497 . S
C1495 C242 1.658 . S
C1499 C74 1.657 . S
C1513 C326 1.659 . S
C1517 C158 1.660 . S
C1531 C567 1.657 . S
C1535 C399 1.658 . S
C1549 C483 1.657 . S
C1553 C651 1.658 . S
C1567 C914 1.660 . S
C1571 C746 1.660 . S
C1585 C998 1.660 . S
C1589 C830 1.660 . S
C1603 C1071 1.660 . S
C1607 C1239 1.660 . S
C1621 C1155 1.657 . S
C1625 C1323 1.658 . S
C1639 C494 1.689 . S
C1643 C63 1.677 . S
C1657 C410 1.677 . S
C1661 C147 1.689 . S
C1675 C231 1.677 . S
C1679 C662 1.689 . S
C1693 C578 1.687 . S
C1697 C315 1.678 . S
C1711 C735 1.688 . S
C1715 C1166 1.677 . S
C1729 C1082 1.677 . S
C1733 C819 1.688 . S
C1747 C903 1.676 . S
C1751 C1334 1.689 . S
C1765 C1250 1.685 . S
C1769 C987 1.680 . S
C1783 C140 1.501 . S
C1787 C56 1.500 . S
C1801 C308 1.500 . S
C1805 C224 1.501 . S
C1819 C487 1.498 . S
C1823 C403 1.503 . S
C1837 C571 1.499 . S
C1841 C655 1.502 . S
C1855 C812 1.501 . S
C1859 C728 1.500 . S
C1873 C980 1.499 . S
C1877 C896 1.502 . S
C1891 C1075 1.500 . S
C1895 C1159 1.501 . S
C1909 C1243 1.497 . S
C1913 C1327 1.503 . S
C1927 C69 1.390 . S
C1931 C58 1.390 . S
C1945 C153 1.413 . S
C1949 C142 1.413 . S
C1963 C237 1.417 . S
C1967 C226 1.417 . S
C1981 C310 1.402 . S
C1985 C321 1.402 . S
C1999 C394 1.409 . S
C2003 C405 1.409 . S
C2017 C489 1.390 . S
C2021 C478 1.390 . S
C2035 C562 1.418 . S
C2039 C573 1.418 . S
C2053 C646 1.395 . S
C2057 C657 1.395 . S
C2071 C730 1.392 . S
C2075 C741 1.392 . S
C2089 C825 1.416 . S
C2093 C814 1.416 . S
C2107 C898 1.393 . S
C2111 C909 1.393 . S
C2125 C982 1.415 . S
C2129 C993 1.415 . S
C2143 C1066 1.391 . S
C2147 C1077 1.391 . S
C2161 C1150 1.395 . S
C2165 C1161 1.395 . S
C2179 C1245 1.392 . S
C2183 C1234 1.392 . S
C2197 C1318 1.405 . S
C2201 C1329 1.405 . S
