# Generated by pormake.
# Topology dia, (4)-cn, num edge types: 1
# Building blocks:
#     Node 0, Type 0, BuildingBlock: UXUYUI_clean_sbu_0, # of connection points: 4
#     Node 1, Type 0, BuildingBlock: UXUYUI_clean_sbu_0, # of connection points: 4
#     Node 2, Type 0, BuildingBlock: UXUYUI_clean_sbu_0, # of connection points: 4
#     Node 3, Type 0, BuildingBlock: UXUYUI_clean_sbu_0, # of connection points: 4
#     Node 4, Type 0, BuildingBlock: UXUYUI_clean_sbu_0, # of connection points: 4
#     Node 5, Type 0, BuildingBlock: UXUYUI_clean_sbu_0, # of connection points: 4
#     Node 6, Type 0, BuildingBlock: UXUYUI_clean_sbu_0, # of connection points: 4
#     Node 7, Type 0, BuildingBlock: UXUYUI_clean_sbu_0, # of connection points: 4
#     Edge 8, Type (0, 0), BuildingBlock: XUDNAN_clean_linker_2, # of connection points: 2
#     Edge 9, Type (0, 0), BuildingBlock: XUDNAN_clean_linker_2, # of connection points: 2
#     Edge 10, Type (0, 0), BuildingBlock: XUDNAN_clean_linker_2, # of connection points: 2
#     Edge 11, Type (0, 0), BuildingBlock: XUDNAN_clean_linker_2, # of connection points: 2
#     Edge 12, Type (0, 0), BuildingBlock: XUDNAN_clean_linker_2, # of connection points: 2
#     Edge 13, Type (0, 0), BuildingBlock: XUDNAN_clean_linker_2, # of connection points: 2
#     Edge 14, Type (0, 0), BuildingBlock: XUDNAN_clean_linker_2, # of connection points: 2
#     Edge 15, Type (0, 0), BuildingBlock: XUDNAN_clean_linker_2, # of connection points: 2
#     Edge 16, Type (0, 0), BuildingBlock: XUDNAN_clean_linker_2, # of connection points: 2
#     Edge 17, Type (0, 0), BuildingBlock: XUDNAN_clean_linker_2, # of connection points: 2
#     Edge 18, Type (0, 0), BuildingBlock: XUDNAN_clean_linker_2, # of connection points: 2
#     Edge 19, Type (0, 0), BuildingBlock: XUDNAN_clean_linker_2, # of connection points: 2
#     Edge 20, Type (0, 0), BuildingBlock: XUDNAN_clean_linker_2, # of connection points: 2
#     Edge 21, Type (0, 0), BuildingBlock: XUDNAN_clean_linker_2, # of connection points: 2
#     Edge 22, Type (0, 0), BuildingBlock: XUDNAN_clean_linker_2, # of connection points: 2
#     Edge 23, Type (0, 0), BuildingBlock: XUDNAN_clean_linker_2, # of connection points: 2
# Relax obj value: 0.000
# Max RMSD: 0.003
# Mean RMSD: 0.003
data_MOF--net-dia--node1-UXUYUI_clean_sbu_0--edge1-XUDNAN_clean_linker_2
_symmetry_space_group_name_H-M    P1
_symmetry_Int_Tables_number       1
_symmetry_cell_setting            triclinic
loop_
_symmetry_equiv_pos_as_xyz
'x, y, z'
_cell_length_a     51.047174
_cell_length_b     51.410993
_cell_length_c     51.386521
_cell_angle_alpha  89.962576
_cell_angle_beta   90.017704
_cell_angle_gamma 89.956513
loop_
_atom_site_label
_atom_site_type_symbol
_atom_site_fract_x
_atom_site_fract_y
_atom_site_fract_z
_atom_type_partial_charge
Li0 Li 0.12828 0.15053 0.65456 0.0
Li1 Li 0.16237 0.11647 0.65326 0.0
Li2 Li 0.15893 0.15033 0.61736 0.0
Li3 Li 0.12745 0.11432 0.6207 0.0
C4 C 0.17433 0.17595 0.66964 0.0
N5 N 0.18854 0.21855 0.69922 0.0
C6 C 0.18737 0.17248 0.69332 0.0
C7 C 0.1689 0.2011 0.66083 0.0
C8 C 0.19428 0.19426 0.70805 0.0
C9 C 0.17614 0.22238 0.6761 0.0
C10 C 0.12086 0.09414 0.67837 0.0
C11 C 0.1232 0.04968 0.69327 0.0
N12 N 0.11568 0.05749 0.71742 0.0
C13 C 0.11282 0.10166 0.70326 0.0
C14 C 0.12577 0.06789 0.67325 0.0
C15 C 0.11043 0.08287 0.72276 0.0
C16 C 0.08428 0.1812 0.67007 0.0
N17 N 0.10783 0.17141 0.67772 0.0
C18 C 0.10194 0.1887 0.72049 0.0
C19 C 0.11681 0.17495 0.70236 0.0
C20 C 0.07735 0.19874 0.71336 0.0
C21 C 0.06869 0.19511 0.68763 0.0
H22 H 0.07733 0.17771 0.65051 0.0
H23 H 0.13522 0.1664 0.70822 0.0
C24 C 0.20201 0.07879 0.66554 0.0
N25 N 0.18442 0.09604 0.67543 0.0
C26 C 0.21556 0.06184 0.68212 0.0
C27 C 0.19312 0.08126 0.71869 0.0
C28 C 0.1804 0.09805 0.70151 0.0
C29 C 0.21061 0.06257 0.709 0.0
H30 H 0.20502 0.0777 0.64475 0.0
H31 H 0.16663 0.11221 0.70891 0.0
C32 C 0.1108 0.17075 0.60004 0.0
N33 N 0.09271 0.20847 0.56613 0.0
C34 C 0.1009 0.16372 0.57568 0.0
C35 C 0.11099 0.19693 0.60735 0.0
C36 C 0.09199 0.18307 0.55875 0.0
C37 C 0.1019 0.21572 0.58988 0.0
C38 C 0.16995 0.0934 0.59634 0.0
C39 C 0.17662 0.10037 0.5709 0.0
C40 C 0.16723 0.06712 0.60276 0.0
C41 C 0.17989 0.08096 0.55217 0.0
C42 C 0.17062 0.04828 0.58348 0.0
N43 N 0.17679 0.05553 0.55878 0.0
C44 C 0.19854 0.18634 0.60156 0.0
C45 C 0.16884 0.1738 0.56847 0.0
C46 C 0.21122 0.20338 0.58445 0.0
N47 N 0.17746 0.17233 0.59346 0.0
C48 C 0.18088 0.19054 0.55076 0.0
C49 C 0.20218 0.2059 0.55873 0.0
H50 H 0.20539 0.1845 0.62137 0.0
H51 H 0.15265 0.16186 0.56221 0.0
C52 C 0.08718 0.07722 0.61521 0.0
N53 N 0.10527 0.09105 0.60163 0.0
C54 C 0.0714 0.05896 0.60263 0.0
C55 C 0.09244 0.0701 0.56203 0.0
C56 C 0.10782 0.08818 0.57543 0.0
C57 C 0.07413 0.05494 0.57571 0.0
H58 H 0.08504 0.08026 0.6359 0.0
H59 H 0.12197 0.09973 0.56493 0.0
O60 O 0.1672 0.15481 0.6551 0.0
O61 O 0.12385 0.11238 0.65916 0.0
O62 O 0.11971 0.15203 0.61681 0.0
O63 O 0.1664 0.11219 0.61488 0.0
H64 H 0.19203 0.15319 0.7003 0.0
H65 H 0.15944 0.20417 0.6423 0.0
H66 H 0.20423 0.19184 0.72648 0.0
H67 H 0.17198 0.24195 0.66953 0.0
H68 H 0.12714 0.02934 0.68959 0.0
H69 H 0.1086 0.12179 0.70754 0.0
H70 H 0.13151 0.06164 0.65404 0.0
H71 H 0.10441 0.08846 0.74215 0.0
H72 H 0.10955 0.19121 0.74 0.0
H73 H 0.04972 0.2022 0.68138 0.0
H74 H 0.22891 0.04765 0.67395 0.0
H75 H 0.18906 0.08262 0.73934 0.0
H76 H 0.1003 0.14354 0.56981 0.0
H77 H 0.11782 0.20268 0.62638 0.0
H78 H 0.0845 0.17791 0.53975 0.0
H79 H 0.10205 0.23606 0.59526 0.0
H80 H 0.17921 0.12054 0.56563 0.0
H81 H 0.16259 0.06131 0.62241 0.0
H82 H 0.18488 0.08611 0.53237 0.0
H83 H 0.1684 0.02788 0.58817 0.0
H84 H 0.22753 0.21486 0.59147 0.0
H85 H 0.17364 0.19131 0.53096 0.0
H86 H 0.05714 0.04817 0.61388 0.0
H87 H 0.0953 0.06762 0.5413 0.0
Li88 Li 0.87707 0.40296 0.86742 0.0
Li89 Li 0.91033 0.39988 0.89989 0.0
Li90 Li 0.90825 0.36768 0.86555 0.0
Li91 Li 0.87511 0.36734 0.90192 0.0
C92 C 0.91678 0.42493 0.8445 0.0
N93 N 0.91794 0.46531 0.80896 0.0
C94 C 0.92028 0.45053 0.85298 0.0
C95 C 0.91399 0.41989 0.81792 0.0
C96 C 0.92081 0.47067 0.83471 0.0
C97 C 0.91458 0.44056 0.80027 0.0
C98 C 0.87092 0.42102 0.92794 0.0
C99 C 0.86153 0.4261 0.9737 0.0
N100 N 0.86811 0.45168 0.97207 0.0
C101 C 0.87765 0.44736 0.92677 0.0
C102 C 0.86288 0.41028 0.95164 0.0
C103 C 0.8761 0.46252 0.94927 0.0
C104 C 0.8392 0.41695 0.82841 0.0
N105 N 0.85526 0.42611 0.84745 0.0
C106 C 0.83976 0.46945 0.84039 0.0
C107 C 0.85576 0.45182 0.85352 0.0
C108 C 0.82262 0.46059 0.82095 0.0
C109 C 0.82268 0.43394 0.81477 0.0
H110 H 0.83882 0.39639 0.82411 0.0
H111 H 0.86856 0.45874 0.86864 0.0
C112 C 0.9564 0.4286 0.90702 0.0
N113 N 0.93551 0.41917 0.92042 0.0
C114 C 0.97437 0.44508 0.91907 0.0
C115 C 0.95036 0.44031 0.95925 0.0
C116 C 0.93295 0.42369 0.9464 0.0
C117 C 0.97099 0.4519 0.94534 0.0
H118 H 0.95881 0.42378 0.88669 0.0
H119 H 0.91703 0.415 0.95711 0.0
C120 C 0.86579 0.3458 0.8455 0.0
N121 N 0.86061 0.30593 0.80982 0.0
C122 C 0.85707 0.32131 0.85353 0.0
C123 C 0.87155 0.35009 0.81926 0.0
C124 C 0.85465 0.30139 0.83521 0.0
C125 C 0.86891 0.32967 0.80154 0.0
C126 C 0.93125 0.35901 0.92244 0.0
C127 C 0.95786 0.35892 0.91613 0.0
C128 C 0.92348 0.35766 0.94847 0.0
C129 C 0.97638 0.35764 0.93612 0.0
C130 C 0.94261 0.35637 0.96789 0.0
N131 N 0.96843 0.35641 0.96136 0.0
C132 C 0.9462 0.35241 0.82722 0.0
C133 C 0.92591 0.31843 0.85096 0.0
C134 C 0.96216 0.3345 0.8142 0.0
N135 N 0.92856 0.34409 0.84521 0.0
C136 C 0.94132 0.29989 0.83837 0.0
C137 C 0.96005 0.30783 0.81996 0.0
H138 H 0.94844 0.37298 0.82351 0.0
H139 H 0.9121 0.3124 0.86573 0.0
C140 C 0.82897 0.35116 0.92914 0.0
N141 N 0.85377 0.34457 0.92203 0.0
C142 C 0.81321 0.33328 0.94243 0.0
C143 C 0.84862 0.30209 0.94023 0.0
C144 C 0.86384 0.3207 0.9275 0.0
C145 C 0.82293 0.30828 0.94773 0.0
H146 H 0.82134 0.37017 0.92419 0.0
H147 H 0.88351 0.31589 0.9213 0.0
O148 O 0.9159 0.40495 0.86212 0.0
O149 O 0.87189 0.40588 0.90604 0.0
O150 O 0.8688 0.36542 0.86325 0.0
O151 O 0.91286 0.36095 0.90322 0.0
H152 H 0.92207 0.45493 0.87347 0.0
H153 H 0.91133 0.40025 0.81096 0.0
H154 H 0.92333 0.49058 0.84104 0.0
H155 H 0.91235 0.43692 0.77965 0.0
H156 H 0.85537 0.41801 0.99214 0.0
H157 H 0.88466 0.45591 0.90891 0.0
H158 H 0.85798 0.38991 0.95312 0.0
H159 H 0.88142 0.48288 0.94864 0.0
H160 H 0.84077 0.48985 0.84552 0.0
H161 H 0.8096 0.4262 0.80012 0.0
H162 H 0.99052 0.45273 0.90777 0.0
H163 H 0.94705 0.44475 0.97957 0.0
H164 H 0.85232 0.31766 0.87369 0.0
H165 H 0.87815 0.36893 0.81268 0.0
H166 H 0.84806 0.28231 0.84119 0.0
H167 H 0.87348 0.33268 0.78121 0.0
H168 H 0.96411 0.36007 0.89603 0.0
H169 H 0.90293 0.35792 0.95363 0.0
H170 H 0.99707 0.35768 0.93157 0.0
H171 H 0.93692 0.35545 0.98814 0.0
H172 H 0.9766 0.34155 0.80048 0.0
H173 H 0.93876 0.27956 0.84324 0.0
H174 H 0.79338 0.33862 0.94772 0.0
H175 H 0.85676 0.283 0.94405 0.0
Li176 Li 0.62213 0.15463 0.14879 0.0
Li177 Li 0.65691 0.12155 0.15357 0.0
Li178 Li 0.65647 0.15214 0.11456 0.0
Li179 Li 0.62539 0.11634 0.1187 0.0
C180 C 0.66892 0.18156 0.16589 0.0
N181 N 0.68601 0.22461 0.19335 0.0
C182 C 0.67728 0.17901 0.19168 0.0
C183 C 0.66981 0.20599 0.15394 0.0
C184 C 0.68569 0.201 0.20528 0.0
C185 C 0.67836 0.22752 0.16816 0.0
C186 C 0.61423 0.10273 0.17885 0.0
C187 C 0.61813 0.06264 0.20299 0.0
N188 N 0.60695 0.07433 0.22397 0.0
C189 C 0.60261 0.11429 0.2006 0.0
C190 C 0.62189 0.07664 0.17999 0.0
C191 C 0.59915 0.09962 0.22324 0.0
C192 C 0.57469 0.18183 0.15655 0.0
N193 N 0.59867 0.17732 0.16716 0.0
C194 C 0.58893 0.20577 0.20271 0.0
C195 C 0.60582 0.18854 0.19004 0.0
C196 C 0.56431 0.2114 0.19183 0.0
C197 C 0.55718 0.19893 0.16854 0.0
H198 H 0.56926 0.17229 0.13859 0.0
H199 H 0.6246 0.18411 0.19857 0.0
C200 C 0.69963 0.08983 0.17001 0.0
N201 N 0.67895 0.10423 0.17845 0.0
C202 C 0.71606 0.07731 0.18787 0.0
C203 C 0.68963 0.09467 0.22276 0.0
C204 C 0.67379 0.10686 0.20428 0.0
C205 C 0.71123 0.07975 0.2147 0.0
H206 H 0.70354 0.08828 0.14939 0.0
H207 H 0.65741 0.11857 0.2106 0.0
C208 C 0.61011 0.17517 0.0965 0.0
N209 N 0.59492 0.21917 0.06939 0.0
C210 C 0.59883 0.17292 0.0718 0.0
C211 C 0.61326 0.1998 0.10751 0.0
C212 C 0.59141 0.19539 0.05836 0.0
C213 C 0.60555 0.2218 0.0935 0.0
C214 C 0.66681 0.09335 0.09987 0.0
C215 C 0.67034 0.09733 0.0732 0.0
C216 C 0.66507 0.06801 0.10958 0.0
C217 C 0.67167 0.07585 0.0566 0.0
C218 C 0.66646 0.04704 0.09235 0.0
N219 N 0.66967 0.05137 0.06643 0.0
C220 C 0.69984 0.18313 0.09838 0.0
C221 C 0.6698 0.17199 0.06504 0.0
C222 C 0.71543 0.19668 0.08058 0.0
N223 N 0.67739 0.17133 0.0904 0.0
C224 C 0.68502 0.1849 0.04653 0.0
C225 C 0.70816 0.19745 0.05425 0.0
H226 H 0.70582 0.18177 0.11852 0.0
H227 H 0.65217 0.16202 0.05907 0.0
C228 C 0.59579 0.07004 0.1097 0.0
N229 N 0.60627 0.09156 0.09837 0.0
C230 C 0.58313 0.0513 0.09454 0.0
C231 C 0.59147 0.07762 0.05645 0.0
C232 C 0.60439 0.09559 0.07228 0.0
C233 C 0.58086 0.05504 0.06757 0.0
H234 H 0.59748 0.06726 0.13045 0.0
H235 H 0.61348 0.1125 0.06368 0.0
O236 O 0.66073 0.16011 0.15228 0.0
O237 O 0.61789 0.11687 0.15657 0.0
O238 O 0.61769 0.15333 0.10987 0.0
O239 O 0.66461 0.11415 0.11634 0.0
H240 H 0.67711 0.16032 0.20122 0.0
H241 H 0.66435 0.20836 0.13377 0.0
H242 H 0.69198 0.19928 0.22531 0.0
H243 H 0.67905 0.24652 0.15913 0.0
H244 H 0.62417 0.0425 0.20419 0.0
H245 H 0.59634 0.13435 0.20005 0.0
H246 H 0.63098 0.06737 0.16343 0.0
H247 H 0.59027 0.10835 0.24023 0.0
H248 H 0.59532 0.21494 0.22058 0.0
H249 H 0.53821 0.20225 0.1597 0.0
H250 H 0.73267 0.06631 0.18076 0.0
H251 H 0.68489 0.09684 0.24318 0.0
H252 H 0.59584 0.15408 0.06302 0.0
H253 H 0.62118 0.20193 0.12683 0.0
H254 H 0.5828 0.1939 0.03918 0.0
H255 H 0.60793 0.24097 0.10186 0.0
H256 H 0.67178 0.11677 0.06535 0.0
H257 H 0.66249 0.06456 0.13016 0.0
H258 H 0.67421 0.07866 0.03589 0.0
H259 H 0.66494 0.02734 0.09958 0.0
H260 H 0.73336 0.2058 0.08718 0.0
H261 H 0.67879 0.18506 0.02638 0.0
H262 H 0.57507 0.03415 0.10379 0.0
H263 H 0.5904 0.08098 0.03567 0.0
Li264 Li 0.90975 0.90248 0.40262 0.0
Li265 Li 0.87609 0.90798 0.36863 0.0
Li266 Li 0.87426 0.87031 0.40055 0.0
Li267 Li 0.90637 0.87117 0.36465 0.0
C268 C 0.86881 0.9242 0.42836 0.0
N269 N 0.86402 0.95605 0.47141 0.0
C270 C 0.86124 0.95016 0.42538 0.0
C271 C 0.87354 0.91434 0.45328 0.0
C272 C 0.85903 0.96598 0.44737 0.0
C273 C 0.87113 0.93077 0.47478 0.0
C274 C 0.92049 0.92762 0.34671 0.0
C275 C 0.92074 0.94237 0.30215 0.0
N276 N 0.93139 0.96533 0.30995 0.0
C277 C 0.9317 0.95123 0.35426 0.0
C278 C 0.9152 0.92303 0.32043 0.0
C279 C 0.93696 0.9701 0.33539 0.0
C280 C 0.95188 0.90612 0.43801 0.0
N281 N 0.9331 0.92026 0.4257 0.0
C282 C 0.94656 0.95879 0.44814 0.0
C283 C 0.9305 0.94624 0.43004 0.0
C284 C 0.96564 0.94449 0.46177 0.0
C285 C 0.96839 0.91786 0.4562 0.0
H286 H 0.95396 0.88562 0.43383 0.0
H287 H 0.91573 0.95718 0.41968 0.0
C288 C 0.83468 0.92547 0.33589 0.0
N289 N 0.85589 0.93319 0.34991 0.0
C290 C 0.81933 0.94378 0.3227 0.0
C291 C 0.84801 0.97762 0.33853 0.0
C292 C 0.8627 0.95869 0.35145 0.0
C293 C 0.82582 0.97033 0.32405 0.0
H294 H 0.82941 0.90512 0.33528 0.0
H295 H 0.87938 0.96442 0.36305 0.0
C296 C 0.91684 0.84262 0.41787 0.0
N297 N 0.92467 0.79976 0.44943 0.0
C298 C 0.92236 0.81837 0.40689 0.0
C299 C 0.91569 0.84514 0.44493 0.0
C300 C 0.92618 0.79692 0.42316 0.0
C301 C 0.91958 0.82323 0.46055 0.0
C302 C 0.86044 0.85368 0.34306 0.0
C303 C 0.85138 0.82882 0.34937 0.0
C304 C 0.86226 0.86111 0.31696 0.0
C305 C 0.84474 0.8116 0.32941 0.0
C306 C 0.85547 0.84332 0.29755 0.0
N307 N 0.84695 0.81913 0.30413 0.0
C308 C 0.8323 0.86309 0.43497 0.0
C309 C 0.85403 0.82366 0.42496 0.0
C310 C 0.8161 0.85034 0.45273 0.0
N311 N 0.85126 0.84983 0.42198 0.0
C312 C 0.83817 0.81006 0.44252 0.0
C313 C 0.81922 0.82354 0.45707 0.0
H314 H 0.82995 0.88374 0.43183 0.0
H315 H 0.86876 0.81332 0.414 0.0
C316 C 0.94855 0.86363 0.33072 0.0
N317 N 0.92687 0.85154 0.34018 0.0
C318 C 0.96436 0.85141 0.31226 0.0
C319 C 0.9359 0.81395 0.31414 0.0
C320 C 0.92054 0.82699 0.33254 0.0
C321 C 0.95801 0.82631 0.30354 0.0
H322 H 0.95362 0.88286 0.33752 0.0
H323 H 0.90364 0.81742 0.34073 0.0
O324 O 0.87141 0.90848 0.40702 0.0
O325 O 0.91496 0.90901 0.36494 0.0
O326 O 0.91298 0.86382 0.4022 0.0
O327 O 0.86706 0.87076 0.36236 0.0
H328 H 0.8572 0.95806 0.40631 0.0
H329 H 0.87895 0.89422 0.45598 0.0
H330 H 0.85334 0.98615 0.44532 0.0
H331 H 0.87488 0.92341 0.49416 0.0
H332 H 0.91662 0.93912 0.28176 0.0
H333 H 0.93616 0.95501 0.37447 0.0
H334 H 0.90697 0.9047 0.31423 0.0
H335 H 0.94548 0.98853 0.34097 0.0
H336 H 0.94362 0.97931 0.45185 0.0
H337 H 0.98319 0.90617 0.46578 0.0
H338 H 0.80219 0.93727 0.31214 0.0
H339 H 0.854 0.99777 0.33991 0.0
H340 H 0.92355 0.81607 0.38603 0.0
H341 H 0.91194 0.86381 0.4538 0.0
H342 H 0.93031 0.778 0.41491 0.0
H343 H 0.91862 0.82489 0.48151 0.0
H344 H 0.84963 0.82282 0.36945 0.0
H345 H 0.86874 0.88041 0.31172 0.0
H346 H 0.83786 0.79224 0.33402 0.0
H347 H 0.85691 0.84877 0.27727 0.0
H348 H 0.80134 0.86141 0.46306 0.0
H349 H 0.84125 0.78939 0.44522 0.0
H350 H 0.98153 0.86145 0.30506 0.0
H351 H 0.93027 0.79461 0.30797 0.0
Li352 Li 0.12166 0.6545 0.14876 0.0
Li353 Li 0.15271 0.61822 0.15431 0.0
Li354 Li 0.15892 0.65224 0.11882 0.0
Li355 Li 0.12472 0.61853 0.11511 0.0
C356 C 0.16234 0.67452 0.1765 0.0
N357 N 0.16683 0.71155 0.21519 0.0
C358 C 0.16453 0.66691 0.20252 0.0
C359 C 0.16291 0.70094 0.17011 0.0
C360 C 0.16666 0.68593 0.22181 0.0
C361 C 0.16505 0.71937 0.18996 0.0
C362 C 0.10396 0.59722 0.16755 0.0
C363 C 0.09803 0.55155 0.17652 0.0
N364 N 0.08484 0.55771 0.19867 0.0
C365 C 0.09009 0.60311 0.19025 0.0
C366 C 0.10775 0.57125 0.16049 0.0
C367 C 0.08068 0.58285 0.20578 0.0
C368 C 0.08304 0.69383 0.15225 0.0
N369 N 0.09858 0.67787 0.16664 0.0
C370 C 0.08249 0.69684 0.20607 0.0
C371 C 0.09819 0.6787 0.1931 0.0
C372 C 0.0669 0.71419 0.19165 0.0
C373 C 0.06706 0.71224 0.16437 0.0
H374 H 0.0831 0.69238 0.13129 0.0
H375 H 0.11026 0.66546 0.20418 0.0
C376 C 0.19367 0.58542 0.17182 0.0
N377 N 0.17035 0.59618 0.17878 0.0
C378 C 0.20664 0.56836 0.18868 0.0
C379 C 0.17168 0.57425 0.21982 0.0
C380 C 0.15954 0.59136 0.20248 0.0
C381 C 0.19543 0.5623 0.2129 0.0
H382 H 0.20207 0.58987 0.15303 0.0
H383 H 0.14148 0.60078 0.20798 0.0
C384 C 0.11937 0.67558 0.09126 0.0
N385 N 0.11645 0.71345 0.05316 0.0
C386 C 0.11118 0.66913 0.06612 0.0
C387 C 0.12571 0.70137 0.0971 0.0
C388 C 0.10992 0.68853 0.04711 0.0
C389 C 0.12422 0.72021 0.07756 0.0
C390 C 0.17166 0.59395 0.10171 0.0
C391 C 0.18343 0.59931 0.07775 0.0
C392 C 0.16883 0.56815 0.10981 0.0
C393 C 0.19162 0.57871 0.06199 0.0
C394 C 0.17729 0.54809 0.09352 0.0
N395 N 0.18838 0.55374 0.07013 0.0
C396 C 0.20462 0.68259 0.11307 0.0
C397 C 0.18218 0.67472 0.07347 0.0
C398 C 0.22391 0.69673 0.09995 0.0
N399 N 0.18427 0.67196 0.09973 0.0
C400 C 0.20078 0.68908 0.05964 0.0
C401 C 0.22207 0.70013 0.07289 0.0
H402 H 0.206 0.67987 0.13389 0.0
H403 H 0.16628 0.66549 0.06316 0.0
C404 C 0.08324 0.58551 0.09783 0.0
N405 N 0.10589 0.59751 0.09075 0.0
C406 C 0.06915 0.57077 0.07973 0.0
C407 C 0.10183 0.58119 0.04738 0.0
C408 C 0.11525 0.59567 0.06607 0.0
C409 C 0.07833 0.56863 0.05403 0.0
H410 H 0.07583 0.58774 0.11739 0.0
H411 H 0.13287 0.60595 0.06069 0.0
O412 O 0.15999 0.65617 0.15737 0.0
O413 O 0.11355 0.61682 0.15226 0.0
O414 O 0.12101 0.65676 0.11005 0.0
O415 O 0.16349 0.6139 0.11736 0.0
H416 H 0.16434 0.64656 0.2078 0.0
H417 H 0.16182 0.70715 0.15006 0.0
H418 H 0.16815 0.68032 0.24205 0.0
H419 H 0.16536 0.73989 0.1853 0.0
H420 H 0.10092 0.53136 0.17132 0.0
H421 H 0.08675 0.62309 0.19589 0.0
H422 H 0.11791 0.56636 0.14272 0.0
H423 H 0.07005 0.58713 0.22348 0.0
H424 H 0.08305 0.69767 0.22712 0.0
H425 H 0.05493 0.72479 0.15247 0.0
H426 H 0.22488 0.55951 0.18257 0.0
H427 H 0.16264 0.5705 0.23851 0.0
H428 H 0.10588 0.64937 0.06131 0.0
H429 H 0.13172 0.70676 0.11651 0.0
H430 H 0.10374 0.68378 0.02754 0.0
H431 H 0.12921 0.74021 0.08179 0.0
H432 H 0.18603 0.61915 0.07128 0.0
H433 H 0.16043 0.56364 0.12856 0.0
H434 H 0.20057 0.58258 0.04331 0.0
H435 H 0.17514 0.52804 0.09952 0.0
H436 H 0.24005 0.70499 0.11085 0.0
H437 H 0.19894 0.69093 0.03872 0.0
H438 H 0.05091 0.56177 0.0856 0.0
H439 H 0.10976 0.57996 0.02788 0.0
Li440 Li 0.37032 0.40043 0.36627 0.0
Li441 Li 0.40412 0.40216 0.40247 0.0
Li442 Li 0.40565 0.36929 0.36567 0.0
Li443 Li 0.37322 0.36613 0.39872 0.0
C444 C 0.40945 0.43048 0.34966 0.0
N445 N 0.40981 0.47602 0.32102 0.0
C446 C 0.41619 0.45402 0.3615 0.0
C447 C 0.40311 0.4301 0.32319 0.0
C448 C 0.41623 0.47683 0.3467 0.0
C449 C 0.40333 0.45333 0.30907 0.0
C450 C 0.34459 0.40336 0.42046 0.0
C451 C 0.32602 0.40373 0.46359 0.0
N452 N 0.30181 0.40001 0.45317 0.0
C453 C 0.31953 0.3997 0.41015 0.0
C454 C 0.34791 0.40549 0.44737 0.0
C455 C 0.29815 0.39799 0.42703 0.0
C456 C 0.32836 0.40779 0.33158 0.0
N457 N 0.346 0.42083 0.34649 0.0
C458 C 0.3267 0.46159 0.33456 0.0
C459 C 0.34533 0.44722 0.34846 0.0
C460 C 0.30818 0.44857 0.31911 0.0
C461 C 0.30922 0.42132 0.31768 0.0
H462 H 0.32881 0.3868 0.33087 0.0
H463 H 0.35905 0.4571 0.36105 0.0
C464 C 0.44896 0.42001 0.43012 0.0
N465 N 0.42311 0.42429 0.42539 0.0
C466 C 0.46252 0.43565 0.44786 0.0
C467 C 0.42277 0.46025 0.45482 0.0
C468 C 0.41 0.44412 0.43705 0.0
C469 C 0.44933 0.45594 0.46072 0.0
H470 H 0.4589 0.40411 0.42049 0.0
H471 H 0.38954 0.44732 0.4326 0.0
C472 C 0.36906 0.3446 0.34155 0.0
N473 N 0.37392 0.30814 0.30233 0.0
C474 C 0.36848 0.31805 0.34742 0.0
C475 C 0.37192 0.35259 0.3157 0.0
C476 C 0.37097 0.29993 0.32732 0.0
C477 C 0.37443 0.33387 0.29616 0.0
C478 C 0.41449 0.34637 0.42341 0.0
C479 C 0.40876 0.32016 0.41899 0.0
C480 C 0.42281 0.35433 0.44808 0.0
C481 C 0.41132 0.30234 0.43938 0.0
C482 C 0.42518 0.3359 0.46794 0.0
N483 N 0.41942 0.31052 0.46323 0.0
C484 C 0.43949 0.36452 0.32238 0.0
C485 C 0.43326 0.32507 0.34532 0.0
C486 C 0.45423 0.35174 0.3034 0.0
N487 N 0.4289 0.35103 0.34254 0.0
C488 C 0.44784 0.31146 0.32675 0.0
C489 C 0.45819 0.32474 0.30516 0.0
H490 H 0.43611 0.38517 0.32073 0.0
H491 H 0.4247 0.3147 0.36146 0.0
C492 C 0.33024 0.33282 0.40616 0.0
N493 N 0.35059 0.34393 0.41908 0.0
C494 C 0.31142 0.31843 0.41959 0.0
C495 C 0.33468 0.3271 0.45958 0.0
C496 C 0.35301 0.34145 0.44535 0.0
C497 C 0.31336 0.31559 0.44671 0.0
H498 H 0.32816 0.33574 0.38543 0.0
H499 H 0.36864 0.35134 0.45546 0.0
O500 O 0.40918 0.40796 0.36389 0.0
O501 O 0.36583 0.40426 0.40431 0.0
O502 O 0.36733 0.36267 0.36103 0.0
O503 O 0.41223 0.36412 0.40368 0.0
H504 H 0.42133 0.45472 0.38189 0.0
H505 H 0.39774 0.41212 0.31369 0.0
H506 H 0.42133 0.49518 0.35564 0.0
H507 H 0.39827 0.45332 0.28863 0.0
H508 H 0.3283 0.40516 0.48447 0.0
H509 H 0.31668 0.39782 0.38937 0.0
H510 H 0.36723 0.40804 0.45567 0.0
H511 H 0.27866 0.39496 0.41935 0.0
H512 H 0.32629 0.48257 0.33647 0.0
H513 H 0.29532 0.41056 0.30596 0.0
H514 H 0.4829 0.43146 0.45193 0.0
H515 H 0.41193 0.47598 0.46379 0.0
H516 H 0.36648 0.31147 0.36731 0.0
H517 H 0.37247 0.37303 0.31079 0.0
H518 H 0.37072 0.27933 0.33162 0.0
H519 H 0.37686 0.33979 0.27611 0.0
H520 H 0.4019 0.31369 0.4002 0.0
H521 H 0.42717 0.37452 0.45194 0.0
H522 H 0.40676 0.28204 0.43627 0.0
H523 H 0.43153 0.34181 0.48714 0.0
H524 H 0.46228 0.36289 0.28741 0.0
H525 H 0.45019 0.29063 0.32883 0.0
H526 H 0.29536 0.30982 0.40885 0.0
H527 H 0.33665 0.32584 0.48053 0.0
Li528 Li 0.37839 0.89822 0.86733 0.0
Li529 Li 0.41292 0.90094 0.90025 0.0
Li530 Li 0.41199 0.86438 0.86906 0.0
Li531 Li 0.3794 0.86641 0.90574 0.0
C532 C 0.42104 0.92085 0.84402 0.0
N533 N 0.42872 0.95968 0.80764 0.0
C534 C 0.42793 0.9459 0.85204 0.0
C535 C 0.41838 0.91545 0.81751 0.0
C536 C 0.43166 0.96529 0.83334 0.0
C537 C 0.42223 0.93538 0.79942 0.0
C538 C 0.36495 0.92053 0.92436 0.0
C539 C 0.35558 0.92883 0.9696 0.0
N540 N 0.34558 0.95248 0.96305 0.0
C541 C 0.3545 0.94487 0.91806 0.0
C542 C 0.36543 0.91237 0.95031 0.0
C543 C 0.34484 0.96076 0.93791 0.0
C544 C 0.33354 0.90506 0.83591 0.0
N545 N 0.3548 0.91765 0.84569 0.0
C546 C 0.3405 0.95769 0.82652 0.0
C547 C 0.35843 0.94353 0.84145 0.0
C548 C 0.31828 0.94522 0.81638 0.0
C549 C 0.31495 0.91853 0.82116 0.0
H550 H 0.33074 0.88463 0.83997 0.0
H551 H 0.37486 0.9534 0.8502 0.0
C552 C 0.46265 0.91982 0.9138 0.0
N553 N 0.43674 0.92358 0.91874 0.0
C554 C 0.48167 0.93244 0.92871 0.0
C555 C 0.44711 0.95461 0.95189 0.0
C556 C 0.42875 0.94118 0.93686 0.0
C557 C 0.47392 0.94973 0.94837 0.0
H558 H 0.46856 0.90615 0.89892 0.0
H559 H 0.40823 0.94448 0.94026 0.0
C560 C 0.36847 0.84154 0.84916 0.0
N561 N 0.36049 0.80409 0.81147 0.0
C562 C 0.36083 0.81643 0.85628 0.0
C563 C 0.37184 0.84768 0.82288 0.0
C564 C 0.35695 0.79775 0.83693 0.0
C565 C 0.36777 0.82845 0.80412 0.0
C566 C 0.43978 0.86132 0.92252 0.0
C567 C 0.46308 0.85108 0.91256 0.0
C568 C 0.43918 0.87084 0.94801 0.0
C569 C 0.48545 0.85064 0.92824 0.0
C570 C 0.46198 0.87013 0.96304 0.0
N571 N 0.48445 0.86012 0.95293 0.0
C572 C 0.45103 0.84857 0.83237 0.0
C573 C 0.42829 0.81459 0.85375 0.0
C574 C 0.46651 0.8305 0.81897 0.0
N575 N 0.43239 0.84031 0.84936 0.0
C576 C 0.44286 0.79592 0.84042 0.0
C577 C 0.4626 0.80367 0.82295 0.0
H578 H 0.45424 0.86917 0.8296 0.0
H579 H 0.41379 0.80856 0.86783 0.0
C580 C 0.33545 0.83639 0.92297 0.0
N581 N 0.35961 0.84549 0.92942 0.0
C582 C 0.32228 0.81918 0.93959 0.0
C583 C 0.35865 0.82194 0.96952 0.0
C584 C 0.37122 0.83866 0.9522 0.0
C585 C 0.33404 0.81145 0.96316 0.0
H586 H 0.32673 0.84194 0.9046 0.0
H587 H 0.39046 0.84592 0.95684 0.0
O588 O 0.41734 0.90161 0.86203 0.0
O589 O 0.37437 0.9047 0.90517 0.0
O590 O 0.37274 0.86001 0.86783 0.0
O591 O 0.4178 0.86229 0.90727 0.0
H592 H 0.43011 0.95042 0.87248 0.0
H593 H 0.41342 0.89608 0.81096 0.0
H594 H 0.43683 0.98481 0.83926 0.0
H595 H 0.42012 0.93151 0.77883 0.0
H596 H 0.35593 0.92282 0.98977 0.0
H597 H 0.35393 0.95143 0.89806 0.0
H598 H 0.37356 0.89369 0.95554 0.0
H599 H 0.33675 0.97967 0.93333 0.0
H600 H 0.3435 0.97836 0.8237 0.0
H601 H 0.29808 0.90819 0.81367 0.0
H602 H 0.50219 0.92843 0.92518 0.0
H603 H 0.44037 0.96784 0.96686 0.0
H604 H 0.35825 0.81133 0.87655 0.0
H605 H 0.37756 0.86707 0.81707 0.0
H606 H 0.35119 0.77818 0.84216 0.0
H607 H 0.3704 0.83291 0.78371 0.0
H608 H 0.46397 0.84366 0.8929 0.0
H609 H 0.42151 0.87938 0.95588 0.0
H610 H 0.50363 0.84283 0.92075 0.0
H611 H 0.46186 0.87771 0.98267 0.0
H612 H 0.48173 0.83757 0.80614 0.0
H613 H 0.43861 0.77559 0.8439 0.0
H614 H 0.3035 0.81146 0.93362 0.0
H615 H 0.36832 0.81719 0.98766 0.0
Li616 Li 0.62541 0.64969 0.64881 0.0
Li617 Li 0.65933 0.61542 0.64848 0.0
Li618 Li 0.65769 0.65112 0.61415 0.0
Li619 Li 0.62548 0.61644 0.61414 0.0
C620 C 0.66719 0.67204 0.67111 0.0
N621 N 0.67269 0.70931 0.70943 0.0
C622 C 0.67579 0.66495 0.69595 0.0
C623 C 0.66176 0.69812 0.66565 0.0
C624 C 0.67835 0.68407 0.71509 0.0
C625 C 0.66455 0.71666 0.68531 0.0
C626 C 0.61327 0.58651 0.65724 0.0
C627 C 0.61954 0.54027 0.65248 0.0
N628 N 0.59735 0.53601 0.66649 0.0
C629 C 0.59053 0.58171 0.67156 0.0
C630 C 0.62792 0.56566 0.6476 0.0
C631 C 0.58281 0.55603 0.67605 0.0
C632 C 0.5853 0.68562 0.66468 0.0
N633 N 0.6042 0.66876 0.67268 0.0
C634 C 0.59342 0.67655 0.71722 0.0
C635 C 0.60828 0.66388 0.69833 0.0
C636 C 0.57341 0.69385 0.70975 0.0
C637 C 0.56954 0.69838 0.68298 0.0
H638 H 0.58213 0.68879 0.64412 0.0
H639 H 0.62308 0.64998 0.70412 0.0
C640 C 0.7048 0.58683 0.66518 0.0
N641 N 0.68023 0.59496 0.67139 0.0
C642 C 0.71981 0.57307 0.68342 0.0
C643 C 0.6838 0.57624 0.71379 0.0
C644 C 0.66956 0.58984 0.69505 0.0
C645 C 0.70943 0.56793 0.70824 0.0
H646 H 0.71292 0.59147 0.64631 0.0
H647 H 0.65008 0.59678 0.69955 0.0
C648 C 0.61406 0.67186 0.59182 0.0
N649 N 0.60471 0.70733 0.55247 0.0
C650 C 0.60688 0.66325 0.56702 0.0
C651 C 0.61613 0.69852 0.59669 0.0
C652 C 0.60231 0.68149 0.54737 0.0
C653 C 0.61145 0.71614 0.57651 0.0
C654 C 0.6703 0.59904 0.58819 0.0
C655 C 0.66213 0.60789 0.5638 0.0
C656 C 0.68428 0.57573 0.59014 0.0
C657 C 0.66815 0.5933 0.54168 0.0
C658 C 0.68994 0.5617 0.56755 0.0
N659 N 0.68183 0.5707 0.54399 0.0
C660 C 0.69948 0.68578 0.60746 0.0
C661 C 0.67571 0.6792 0.56845 0.0
C662 C 0.71567 0.7039 0.5952 0.0
N663 N 0.67964 0.67416 0.59418 0.0
C664 C 0.69152 0.69717 0.55537 0.0
C665 C 0.71161 0.71007 0.56887 0.0
H666 H 0.70266 0.68113 0.62771 0.0
H667 H 0.66011 0.66966 0.55805 0.0
C668 C 0.57718 0.60402 0.59269 0.0
N669 N 0.60217 0.59503 0.59428 0.0
C670 C 0.55788 0.58941 0.5802 0.0
C671 C 0.59033 0.55644 0.57103 0.0
C672 C 0.609 0.57163 0.5839 0.0
C673 C 0.56431 0.5652 0.56928 0.0
H674 H 0.57218 0.62248 0.60147 0.0
H675 H 0.62872 0.56437 0.5861 0.0
O676 O 0.66418 0.65354 0.65221 0.0
O677 O 0.62093 0.61155 0.6525 0.0
O678 O 0.61858 0.6543 0.61133 0.0
O679 O 0.66438 0.61288 0.61012 0.0
H680 H 0.68027 0.64488 0.70046 0.0
H681 H 0.65543 0.70396 0.64645 0.0
H682 H 0.68481 0.67884 0.73445 0.0
H683 H 0.66027 0.7369 0.68139 0.0
H684 H 0.63067 0.52395 0.6451 0.0
H685 H 0.57897 0.59768 0.67911 0.0
H686 H 0.64551 0.56903 0.63638 0.0
H687 H 0.56524 0.552 0.68711 0.0
H688 H 0.59767 0.67271 0.7375 0.0
H689 H 0.55413 0.71114 0.67613 0.0
H690 H 0.73958 0.56725 0.67843 0.0
H691 H 0.67486 0.57243 0.73251 0.0
H692 H 0.60505 0.6427 0.5629 0.0
H693 H 0.62129 0.70554 0.61583 0.0
H694 H 0.5969 0.67509 0.52805 0.0
H695 H 0.61313 0.73682 0.57997 0.0
H696 H 0.65089 0.62558 0.56204 0.0
H697 H 0.69057 0.56849 0.60891 0.0
H698 H 0.66185 0.59988 0.52268 0.0
H699 H 0.70073 0.54362 0.56877 0.0
H700 H 0.73125 0.71298 0.60625 0.0
H701 H 0.68761 0.70142 0.53509 0.0
H702 H 0.53811 0.59699 0.57915 0.0
H703 H 0.596 0.53768 0.56325 0.0
H704 H 0.31949 0.28075 0.48705 0.0
H705 H 0.26035 0.31903 0.43988 0.0
H706 H 0.22571 0.29559 0.46372 0.0
H707 H 0.28764 0.2188 0.49066 0.0
H708 H 0.29715 0.21262 0.52388 0.0
H709 H 0.31739 0.23274 0.50343 0.0
H710 H 0.31454 0.27005 0.53718 0.0
H711 H 0.29427 0.25004 0.55775 0.0
H712 H 0.28285 0.28161 0.54751 0.0
H713 H 0.1975 0.26797 0.49231 0.0
H714 H 0.17745 0.23759 0.52363 0.0
H715 H 0.25473 0.21676 0.55225 0.0
C716 C 0.29924 0.28436 0.4819 0.0
C717 C 0.29265 0.30163 0.46148 0.0
C718 C 0.26591 0.3056 0.45515 0.0
C719 C 0.24608 0.29251 0.4687 0.0
C720 C 0.25325 0.27551 0.48858 0.0
C721 C 0.27915 0.27137 0.4952 0.0
C722 C 0.28149 0.25172 0.51711 0.0
C723 C 0.29682 0.22754 0.50823 0.0
C724 C 0.29403 0.2641 0.54132 0.0
C725 C 0.25285 0.24544 0.5217 0.0
C726 C 0.23692 0.25943 0.50506 0.0
C727 C 0.20977 0.25684 0.5054 0.0
C728 C 0.19858 0.23939 0.52316 0.0
C729 C 0.21448 0.22464 0.54034 0.0
C730 C 0.242 0.2279 0.53959 0.0
H731 H 0.74251 0.52566 0.70322 0.0
H732 H 0.71258 0.58106 0.75964 0.0
H733 H 0.73776 0.55927 0.79425 0.0
H734 H 0.74166 0.46984 0.74532 0.0
H735 H 0.77171 0.45627 0.73288 0.0
H736 H 0.75143 0.47619 0.71221 0.0
H737 H 0.79073 0.50678 0.70328 0.0
H738 H 0.81117 0.48687 0.72382 0.0
H739 H 0.80796 0.52118 0.7303 0.0
H740 H 0.76548 0.53159 0.82283 0.0
H741 H 0.795 0.5 0.84377 0.0
H742 H 0.80837 0.46282 0.76906 0.0
C743 C 0.74143 0.53331 0.72282 0.0
C744 C 0.72536 0.55496 0.72873 0.0
C745 C 0.72434 0.56424 0.75469 0.0
C746 C 0.73869 0.55208 0.77448 0.0
C747 C 0.75408 0.53067 0.76807 0.0
C748 C 0.75566 0.52136 0.7429 0.0
C749 C 0.77372 0.49795 0.74142 0.0
C750 C 0.75873 0.47362 0.73242 0.0
C751 C 0.7973 0.50354 0.72365 0.0
C752 C 0.78202 0.49563 0.76968 0.0
C753 C 0.7704 0.51472 0.78465 0.0
C754 C 0.77485 0.51664 0.81129 0.0
C755 C 0.7918 0.49868 0.82298 0.0
C756 C 0.80426 0.47904 0.80806 0.0
C757 C 0.79907 0.47748 0.78104 0.0
H758 H 0.54158 0.06248 0.03197 0.0
H759 H 0.59113 1.003 0.06608 0.0
H760 H 0.57015 0.96977 0.03816 0.0
H761 H 0.48355 0.02304 0.02858 0.0
H762 H 0.47248 0.03682 0.99824 0.0
H763 H 0.49213 0.05599 0.02012 0.0
H764 H 0.52571 0.06425 0.98322 0.0
H765 H 0.50619 0.04505 0.96124 0.0
H766 H 0.54015 0.03696 0.96651 0.0
H767 H 0.54433 0.94327 1.00601 0.0
H768 H 0.51298 0.92463 0.97442 0.0
H769 H 0.47874 1.00098 0.96271 0.0
C770 C 0.54806 0.04246 0.03339 0.0
C771 C 0.56802 0.03521 0.05102 0.0
C772 C 0.57579 1.00884 0.05272 0.0
C773 C 0.56409 0.9899 0.03688 0.0
C774 C 0.54447 0.99766 0.01966 0.0
C775 C 0.5363 0.02325 0.01802 0.0
C776 C 0.51406 0.02625 0.99869 0.0
C777 C 0.48908 0.0361 0.01222 0.0
C778 C 0.52201 0.04419 0.97607 0.0
C779 C 0.51103 0.99836 0.98969 0.0
C780 C 0.52896 0.98224 1.00181 0.0
C781 C 0.53017 0.9557 0.99643 0.0
C782 C 0.51242 0.94532 0.97838 0.0
C783 C 0.49353 0.96139 0.96615 0.0
C784 C 0.49292 0.98826 0.97189 0.0
H785 H 0.97433 0.7752 0.30183 0.0
H786 H 0.97852 0.84818 0.25951 0.0
H787 H 1.00651 0.82738 0.22638 0.0
H788 H 0.04045 0.75524 0.29021 0.0
H789 H 0.03257 0.72128 0.28642 0.0
H790 H 1.01242 0.74169 0.30668 0.0
H791 H 0.97144 0.72874 0.2799 0.0
H792 H 0.99146 0.7082 0.25962 0.0
H793 H 0.97152 0.73327 0.24511 0.0
H794 H 0.03436 0.79901 0.19813 0.0
H795 H 0.06045 0.76487 0.17659 0.0
H796 H 0.03774 0.7099 0.23667 0.0
C797 C 0.98091 0.78673 0.28545 0.0
C798 C 0.97429 0.81337 0.28333 0.0
C799 C 0.98362 0.82785 0.26176 0.0
C800 C 0.99941 0.81618 0.24276 0.0
C801 C 1.00572 0.78997 0.24554 0.0
C802 C 0.99678 0.77538 0.26631 0.0
C803 C 1.00677 0.74764 0.26481 0.0
C804 C 0.02408 0.74109 0.28844 0.0
C805 C 0.98393 0.72832 0.2622 0.0
C806 C 0.02278 0.74896 0.24 0.0
C807 C 0.02183 0.77355 0.22919 0.0
C808 C 0.03513 0.77962 0.20633 0.0
C809 C 0.04978 0.76004 0.19415 0.0
C810 C 0.05106 0.73463 0.20481 0.0
C811 C 0.03735 0.72915 0.22811 0.0
H812 H 0.32548 0.98082 0.777 0.0
H813 H 0.26535 0.94361 0.82361 0.0
H814 H 0.2314 0.96922 0.80083 0.0
H815 H 0.29641 0.04429 0.77506 0.0
H816 H 0.30567 0.0507 0.74182 0.0
H817 H 0.3253 0.02927 0.76157 0.0
H818 H 0.32026 0.99281 0.72715 0.0
H819 H 0.30063 0.01414 0.70728 0.0
H820 H 0.28794 0.98293 0.71707 0.0
H821 H 0.20423 1.00006 0.77453 0.0
H822 H 0.18519 0.03253 0.74449 0.0
H823 H 0.26253 0.04881 0.71362 0.0
C824 C 0.30516 0.97811 0.78238 0.0
C825 C 0.29801 0.96021 0.80204 0.0
C826 C 0.27121 0.95701 0.80842 0.0
C827 C 0.25182 0.97155 0.79569 0.0
C828 C 0.2595 0.98906 0.77645 0.0
C829 C 0.28549 0.99226 0.76963 0.0
C830 C 0.28838 0.01223 0.74807 0.0
C831 C 0.30492 0.0355 0.75719 0.0
C832 C 0.29999 0.99978 0.72343 0.0
C833 C 0.25999 0.01991 0.74403 0.0
C834 C 0.2437 1.0064 0.76073 0.0
C835 C 0.21676 0.01065 0.76125 0.0
C836 C 0.20615 0.02919 0.74424 0.0
C837 C 0.22241 0.0431 0.72679 0.0
C838 C 0.24966 0.03825 0.72661 0.0
H839 H 0.99047 0.45334 0.99563 0.0
H840 H 0.98967 0.49643 0.92287 0.0
H841 H 0.01737 0.53021 0.9426 0.0
H842 H 0.98616 0.50953 0.03737 0.0
H843 H 1.0075 0.49628 0.06199 0.0
H844 H 0.98818 0.47482 0.04202 0.0
H845 H 0.03024 0.45032 0.02801 0.0
H846 H 0.04969 0.47168 0.04796 0.0
H847 H 0.05699 0.46828 0.01381 0.0
H848 H 0.04449 0.5597 0.96999 0.0
H849 H 0.0694 0.58324 1.00362 0.0
H850 H 0.05248 0.52174 0.05909 0.0
C851 C 0.99602 0.46992 0.98386 0.0
C852 C 0.98805 0.47198 0.95754 0.0
C853 C 0.99595 0.49399 0.94285 0.0
C854 C 1.01154 0.51344 0.95394 0.0
C855 C 0.01904 0.51078 0.97984 0.0
C856 C 1.01155 0.48964 0.99467 0.0
C857 C 0.02212 0.49177 0.02218 0.0
C858 C 0.99965 0.49319 0.04206 0.0
C859 C 0.04088 0.46917 0.02834 0.0
C860 C 0.03667 0.51743 0.02043 0.0
C861 C 0.03463 0.528 0.9958 0.0
C862 C 0.04634 0.55158 0.98933 0.0
C863 C 0.0606 0.56472 1.00855 0.0
C864 C 0.06308 0.55429 0.03397 0.0
C865 C 0.05082 0.53033 0.03991 0.0
H866 H 0.49355 0.28444 0.31014 0.0
H867 H 0.4543 0.33251 0.25256 0.0
H868 H 0.47724 0.30896 0.21752 0.0
H869 H 0.55544 0.27992 0.2772 0.0
H870 H 0.56104 0.24651 0.28628 0.0
H871 H 0.54173 0.2673 0.30696 0.0
H872 H 0.50324 0.23453 0.30474 0.0
H873 H 0.52245 0.21362 0.28409 0.0
H874 H 0.49069 0.2247 0.27346 0.0
H875 H 0.50423 0.28015 0.18867 0.0
H876 H 0.53374 0.24825 0.16801 0.0
H877 H 0.55445 0.21793 0.24419 0.0
C878 C 0.48965 0.28992 0.29017 0.0
C879 C 0.47222 0.31048 0.28416 0.0
C880 C 0.4679 0.31717 0.25772 0.0
C881 C 0.4807 0.30378 0.23765 0.0
C882 C 0.49774 0.28368 0.24426 0.0
C883 C 0.50225 0.27674 0.26986 0.0
C884 C 0.52151 0.25436 0.27164 0.0
C885 C 0.5464 0.26252 0.28639 0.0
C886 C 0.5087 0.23038 0.28422 0.0
C887 C 0.52712 0.24982 0.24304 0.0
C888 C 0.51319 0.26693 0.22759 0.0
C889 C 0.51516 0.26656 0.20056 0.0
C890 C 0.53185 0.24824 0.189 0.0
C891 C 0.54638 0.23046 0.20442 0.0
C892 C 0.54386 0.23138 0.23183 0.0
H893 H 0.79568 0.77528 0.45435 0.0
H894 H 0.80718 0.84131 0.50572 0.0
H895 H 0.78084 0.81956 0.53953 0.0
H896 H 0.7291 0.76189 0.47296 0.0
H897 H 0.73272 0.72706 0.47124 0.0
H898 H 0.75257 0.74771 0.45092 0.0
H899 H 0.7946 0.72629 0.46942 0.0
H900 H 0.77488 0.70553 0.48974 0.0
H901 H 0.79983 0.72574 0.50411 0.0
H902 H 0.75363 0.79082 0.56788 0.0
H903 H 0.72668 0.75699 0.58887 0.0
H904 H 0.73294 0.70917 0.51954 0.0
C905 C 0.79278 0.78508 0.47277 0.0
C906 C 0.8034 0.81009 0.47731 0.0
C907 C 0.79892 0.82235 0.50161 0.0
C908 C 0.78412 0.81009 0.52101 0.0
C909 C 0.77386 0.78554 0.51587 0.0
C910 C 0.77794 0.77314 0.49237 0.0
C911 C 0.76453 0.74682 0.49187 0.0
C912 C 0.74348 0.74583 0.47048 0.0
C913 C 0.78467 0.72479 0.4886 0.0
C914 C 0.75233 0.7464 0.51877 0.0
C915 C 0.75803 0.76892 0.53228 0.0
C916 C 0.74908 0.77306 0.55753 0.0
C917 C 0.73392 0.75365 0.56935 0.0
C918 C 0.72778 0.73036 0.55593 0.0
C919 C 0.7371 0.72683 0.53024 0.0
H920 H 0.24754 0.55836 0.22623 0.0
H921 H 0.17163 0.52274 0.23931 0.0
H922 H 0.19215 0.49028 0.26831 0.0
H923 H 0.28499 0.49917 0.22498 0.0
H924 H 0.31276 0.51278 0.24181 0.0
H925 H 0.29209 0.53341 0.22226 0.0
H926 H 0.28432 0.56349 0.26196 0.0
H927 H 0.30494 0.54293 0.28165 0.0
H928 H 0.27186 0.54983 0.29181 0.0
H929 H 0.22091 0.46093 0.29469 0.0
H930 H 0.25594 0.43744 0.31813 0.0
H931 H 0.31325 0.49241 0.28879 0.0
C932 C 0.23528 0.54367 0.23515 0.0
C933 C 0.20796 0.54309 0.23056 0.0
C934 C 0.19253 0.52373 0.2428 0.0
C935 C 0.20403 0.50514 0.25919 0.0
C936 C 0.23097 0.50625 0.2633 0.0
C937 C 0.24641 0.52508 0.25177 0.0
C938 C 0.27489 0.52199 0.25962 0.0
C939 C 0.2922 0.51651 0.23574 0.0
C940 C 0.28456 0.54599 0.27465 0.0
C941 C 0.27305 0.49837 0.2772 0.0
C942 C 0.24754 0.48957 0.27895 0.0
C943 C 0.24095 0.46768 0.29354 0.0
C944 C 0.26098 0.45441 0.30667 0.0
C945 C 0.28727 0.46311 0.30526 0.0
C946 C 0.29328 0.48549 0.29042 0.0
H947 H 0.79501 0.31196 0.99326 0.0
H948 H 0.81304 0.25953 0.92966 0.0
H949 H 0.78498 0.22577 0.9496 0.0
H950 H 0.79639 0.26303 0.04343 0.0
H951 H 0.76997 0.27721 0.06188 0.0
H952 H 0.79063 0.29761 0.04213 0.0
H953 H 0.74978 0.31516 0.01783 0.0
H954 H 0.72899 0.29481 0.03752 0.0
H955 H 0.7276 0.29257 1.00255 0.0
H956 H 0.7544 0.19814 0.97588 0.0
H957 H 0.72551 0.17725 1.00835 0.0
H958 H 0.72902 0.24665 0.05618 0.0
C959 C 0.79287 0.2934 0.98353 0.0
C960 C 0.80605 0.28827 0.95991 0.0
C961 C 0.80315 0.26371 0.94783 0.0
C962 C 0.7872 0.2445 0.95895 0.0
C963 C 0.77453 0.25008 0.9823 0.0
C964 C 0.77734 0.27383 0.9946 0.0
C965 C 0.76231 0.27444 0.02003 0.0
C966 C 0.78094 0.27829 0.04324 0.0
C967 C 0.7409 0.2955 0.01943 0.0
C968 C 0.75053 0.24738 0.02004 0.0
C969 C 0.75763 0.23377 0.99796 0.0
C970 C 0.74878 0.20856 0.9933 0.0
C971 C 0.73232 0.19691 0.01176 0.0
C972 C 0.72513 0.21034 0.03472 0.0
C973 C 0.73443 0.23588 0.03888 0.0
H974 H 0.80141 0.96775 0.27614 0.0
H975 H 0.81222 0.01831 0.34298 0.0
H976 H 0.78499 0.05182 0.32189 0.0
H977 H 0.80265 0.01775 0.22718 0.0
H978 H 0.77755 1.00298 0.20745 0.0
H979 H 0.79833 0.98295 0.22751 0.0
H980 H 0.75744 0.96324 0.24992 0.0
H981 H 0.73653 0.98313 0.22986 0.0
H982 H 0.73374 0.98457 0.2648 0.0
H983 H 0.75651 0.07983 0.29387 0.0
H984 H 0.72819 0.10037 0.26087 0.0
H985 H 0.73431 0.0312 0.21276 0.0
C986 C 0.79793 0.98579 0.28644 0.0
C987 C 0.8092 0.9904 0.31119 0.0
C988 C 0.80429 0.01444 0.32382 0.0
C989 C 0.78869 0.03357 0.31208 0.0
C990 C 0.77799 0.02841 0.2877 0.0
C991 C 0.78232 1.00512 0.27502 0.0
C992 C 0.76826 1.00447 0.24902 0.0
C993 C 0.78787 1.00189 0.22646 0.0
C994 C 0.74777 0.98255 0.24838 0.0
C995 C 0.75533 0.03103 0.24912 0.0
C996 C 0.76126 0.04451 0.27161 0.0
C997 C 0.75162 0.06942 0.27623 0.0
C998 C 0.7354 0.08086 0.25741 0.0
C999 C 0.72882 0.06738 0.23424 0.0
C1000 C 0.73911 0.04214 0.23011 0.0
H1001 H 0.98809 0.99332 0.46086 0.0
H1002 H 0.98031 0.92421 0.50888 0.0
H1003 H 1.0076 0.94469 0.54273 0.0
H1004 H 0.05485 1.00794 0.47771 0.0
H1005 H 0.04992 0.04265 0.47814 0.0
H1006 H 0.03003 0.02248 0.45739 0.0
H1007 H 0.98802 0.04121 0.47861 0.0
H1008 H 1.00777 0.06149 0.49937 0.0
H1009 H 0.98416 0.03956 0.51344 0.0
H1010 H 0.03539 0.97261 0.57152 0.0
H1011 H 0.06192 1.00618 0.59339 0.0
H1012 H 0.05068 0.05779 0.52739 0.0
C1013 C 0.99197 0.98254 0.47856 0.0
C1014 C 0.98214 0.95704 0.48209 0.0
C1015 C 0.98797 0.94355 0.50547 0.0
C1016 C 1.00332 0.95509 0.52491 0.0
C1017 C 1.01271 0.98017 0.52076 0.0
C1018 C 1.00726 0.99377 0.4982 0.0
C1019 C 0.01967 0.02056 0.49873 0.0
C1020 C 0.03982 0.02357 0.47668 0.0
C1021 C 0.99865 0.04197 0.49747 0.0
C1022 C 0.0329 0.01987 0.52513 0.0
C1023 C 0.02862 0.99639 0.53749 0.0
C1024 C 0.0388 0.99113 0.56208 0.0
C1025 C 0.05371 0.0104 0.57442 0.0
C1026 C 0.05831 0.03472 0.56222 0.0
C1027 C 0.04776 0.03936 0.53717 0.0
H1028 H 0.9777 0.30576 0.76914 0.0
H1029 H 0.98363 0.26628 0.84367 0.0
H1030 H 1.0134 0.23399 0.82424 0.0
H1031 H 0.97903 0.2483 0.72902 0.0
H1032 H 0.99872 0.26292 0.70385 0.0
H1033 H 0.97741 0.28288 0.72339 0.0
H1034 H 0.01678 0.31189 0.73637 0.0
H1035 H 0.0382 0.29206 0.71682 0.0
H1036 H 0.04536 0.29713 0.75079 0.0
H1037 H 0.04262 0.20614 0.79719 0.0
H1038 H 0.06984 0.18447 0.76409 0.0
H1039 H 0.04643 0.24245 0.70714 0.0
C1040 C 0.98535 0.2904 0.78141 0.0
C1041 C 0.97807 0.28848 0.80793 0.0
C1042 C 0.98843 0.26792 0.82322 0.0
C1043 C 1.00552 0.24955 0.8124 0.0
C1044 C 1.0122 0.25197 0.78626 0.0
C1045 C 1.00251 0.27185 0.77093 0.0
C1046 C 1.01305 0.27001 0.74338 0.0
C1047 C 0.99072 0.26577 0.72376 0.0
C1048 C 0.02931 0.29421 0.73644 0.0
C1049 C 0.03021 0.24602 0.7457 0.0
C1050 C 0.02937 0.23595 0.77062 0.0
C1051 C 0.04355 0.2139 0.77763 0.0
C1052 C 0.05911 0.20183 0.75871 0.0
C1053 C 0.0605 0.21184 0.73303 0.0
C1054 C 0.04568 0.2342 0.72651 0.0
H1055 H 0.5506 0.74288 0.70869 0.0
H1056 H 0.55695 0.67322 0.75634 0.0
H1057 H 0.53063 0.6942 0.79036 0.0
H1058 H 0.55273 0.78965 0.75993 0.0
H1059 H 0.52835 0.81077 0.74581 0.0
H1060 H 0.54845 0.79073 0.72511 0.0
H1061 H 0.50688 0.77042 0.70455 0.0
H1062 H 0.48665 0.79054 0.72505 0.0
H1063 H 0.48259 0.75571 0.72533 0.0
H1064 H 0.50519 0.72299 0.82004 0.0
H1065 H 0.47909 0.75645 0.84215 0.0
H1066 H 0.4848 0.8059 0.77368 0.0
C1067 C 0.54628 0.73185 0.72611 0.0
C1068 C 0.55643 0.70644 0.72982 0.0
C1069 C 0.55027 0.69295 0.75315 0.0
C1070 C 0.53507 0.70462 0.7726 0.0
C1071 C 0.52572 0.72969 0.76839 0.0
C1072 C 0.53074 0.74305 0.74562 0.0
C1073 C 0.5176 0.76954 0.74583 0.0
C1074 C 0.53801 0.79146 0.74407 0.0
C1075 C 0.49722 0.77167 0.72389 0.0
C1076 C 0.5046 0.76897 0.77237 0.0
C1077 C 0.50975 0.74587 0.78508 0.0
C1078 C 0.50062 0.741 0.81012 0.0
C1079 C 0.48555 0.76015 0.82244 0.0
C1080 C 0.47929 0.78384 0.80963 0.0
C1081 C 0.48918 0.78819 0.78422 0.0
H1082 H 0.21593 0.73908 0.03674 0.0
H1083 H 0.27486 0.69302 0.07653 0.0
H1084 H 0.30966 0.7159 0.05218 0.0
H1085 H 0.24796 0.74196 0.9742 0.0
H1086 H 0.2386 0.77518 0.96788 0.0
H1087 H 0.21821 0.75487 0.98801 0.0
H1088 H 0.22102 0.78868 0.02528 0.0
H1089 H 0.24134 0.80913 1.00523 0.0
H1090 H 0.2527 0.79898 0.03686 0.0
H1091 H 0.33779 0.74263 0.02276 0.0
H1092 H 0.35805 0.77358 0.9924 0.0
H1093 H 0.28115 0.80468 0.97349 0.0
C1094 C 0.23618 0.73378 0.04019 0.0
C1095 C 0.24278 0.71427 0.05845 0.0
C1096 C 0.26945 0.70805 0.06275 0.0
C1097 C 0.28931 0.72082 0.04892 0.0
C1098 C 0.28217 0.73995 0.03104 0.0
C1099 C 0.25629 0.74662 0.02679 0.0
C1100 C 0.25408 0.76848 1.00706 0.0
C1101 C 0.23881 0.75958 0.98285 0.0
C1102 C 0.24155 0.79275 0.01935 0.0
C1103 C 0.28275 0.77296 1.00082 0.0
C1104 C 0.29855 0.75613 0.01474 0.0
C1105 C 0.32566 0.75615 0.01201 0.0
C1106 C 0.337 0.77404 0.99481 0.0
C1107 C 0.32135 0.79204 0.98073 0.0
C1108 C 0.29377 0.79122 0.98376 0.0
H1109 H 0.49998 0.4748 0.45971 0.0
H1110 H 0.42945 0.47368 0.50695 0.0
H1111 H 0.45127 0.50118 0.53968 0.0
H1112 H 0.54583 0.47124 0.51354 0.0
H1113 H 0.56931 0.49264 0.49845 0.0
H1114 H 0.54817 0.47284 0.47857 0.0
H1115 H 0.5318 0.51406 0.45448 0.0
H1116 H 0.55286 0.53397 0.47429 0.0
H1117 H 0.51821 0.54062 0.47298 0.0
H1118 H 0.48028 0.52925 0.56702 0.0
H1119 H 0.51498 0.55563 0.58753 0.0
H1120 H 0.56715 0.53794 0.52323 0.0
C1121 C 0.48919 0.4801 0.47704 0.0
C1122 C 0.46288 0.47217 0.4806 0.0
C1123 C 0.44942 0.47987 0.50348 0.0
C1124 C 0.46171 0.49534 0.52231 0.0
C1125 C 0.48755 0.50291 0.51811 0.0
C1126 C 0.50119 0.49551 0.49611 0.0
C1127 C 0.52878 0.50646 0.49634 0.0
C1128 C 0.54923 0.48448 0.49675 0.0
C1129 C 0.53315 0.52487 0.47314 0.0
C1130 C 0.52844 0.52122 0.52187 0.0
C1131 C 0.50444 0.51893 0.53407 0.0
C1132 C 0.49917 0.53118 0.55766 0.0
C1133 C 0.51895 0.54624 0.56908 0.0
C1134 C 0.54373 0.54891 0.55695 0.0
C1135 C 0.54849 0.53606 0.53309 0.0
loop_
_geom_bond_atom_site_label_1
_geom_bond_atom_site_label_2
_geom_bond_distance
_geom_bond_site_symmetry_2
_ccdc_geom_bond_type
Li0 N17 1.990 . S
Li0 O60 1.956 . S
Li0 O61 1.970 . S
Li0 O62 1.961 . S
Li1 N25 1.990 . S
Li1 O60 1.970 . S
Li1 O61 1.956 . S
Li1 O63 1.961 . S
Li2 N47 1.990 . S
Li2 O60 1.961 . S
Li2 O62 1.956 . S
Li2 O63 1.970 . S
Li3 N53 1.990 . S
Li3 O61 1.961 . S
Li3 O62 1.970 . S
Li3 O63 1.956 . S
C4 C6 1.348 . S
C4 C7 1.356 . S
C4 O60 1.325 . S
N5 C8 1.314 . S
N5 C9 1.279 . S
C6 C4 1.348 . S
C6 C8 1.353 . S
C6 H64 0.929 . S
C7 C4 1.356 . S
C7 C9 1.358 . S
C7 H65 0.930 . S
C8 N5 1.314 . S
C8 C6 1.353 . S
C8 H66 0.930 . S
C9 N5 1.279 . S
C9 C7 1.358 . S
C9 H67 0.930 . S
C10 C13 1.348 . S
C10 C14 1.356 . S
C10 O61 1.325 . S
C11 N12 1.279 . S
C11 C14 1.358 . S
C11 H68 0.930 . S
N12 C11 1.279 . S
N12 C15 1.314 . S
C13 C10 1.348 . S
C13 C15 1.353 . S
C13 H69 0.929 . S
C14 C10 1.356 . S
C14 C11 1.358 . S
C14 H70 0.930 . S
C15 N12 1.314 . S
C15 C13 1.353 . S
C15 H71 0.930 . S
C16 N17 1.314 . S
C16 C21 1.353 . S
C16 H22 0.930 . S
N17 Li0 1.990 . S
N17 C16 1.314 . S
N17 C19 1.279 . S
C18 C19 1.358 . S
C18 C20 1.356 . S
C18 H72 0.930 . S
C19 N17 1.279 . S
C19 C18 1.358 . S
C19 H23 0.930 . S
C20 C18 1.356 . S
C20 C21 1.348 . S
C21 C16 1.353 . S
C21 C20 1.348 . S
C21 H73 0.929 . S
H22 C16 0.930 . S
H23 C19 0.930 . S
C24 N25 1.314 . S
C24 C26 1.353 . S
C24 H30 0.930 . S
N25 Li1 1.990 . S
N25 C24 1.314 . S
N25 C28 1.279 . S
C26 C24 1.353 . S
C26 C29 1.348 . S
C26 H74 0.929 . S
C27 C28 1.358 . S
C27 C29 1.356 . S
C27 H75 0.930 . S
C28 N25 1.279 . S
C28 C27 1.358 . S
C28 H31 0.930 . S
C29 C26 1.348 . S
C29 C27 1.356 . S
H30 C24 0.930 . S
H31 C28 0.930 . S
C32 C34 1.348 . S
C32 C35 1.356 . S
C32 O62 1.325 . S
N33 C36 1.314 . S
N33 C37 1.279 . S
C34 C32 1.348 . S
C34 C36 1.353 . S
C34 H76 0.929 . S
C35 C32 1.356 . S
C35 C37 1.358 . S
C35 H77 0.930 . S
C36 N33 1.314 . S
C36 C34 1.353 . S
C36 H78 0.930 . S
C37 N33 1.279 . S
C37 C35 1.358 . S
C37 H79 0.930 . S
C38 C39 1.348 . S
C38 C40 1.356 . S
C38 O63 1.325 . S
C39 C38 1.348 . S
C39 C41 1.353 . S
C39 H80 0.929 . S
C40 C38 1.356 . S
C40 C42 1.358 . S
C40 H81 0.930 . S
C41 C39 1.353 . S
C41 N43 1.314 . S
C41 H82 0.930 . S
C42 C40 1.358 . S
C42 N43 1.279 . S
C42 H83 0.930 . S
N43 C41 1.314 . S
N43 C42 1.279 . S
C44 C46 1.353 . S
C44 N47 1.314 . S
C44 H50 0.930 . S
C45 N47 1.279 . S
C45 C48 1.358 . S
C45 H51 0.930 . S
C46 C44 1.353 . S
C46 C49 1.348 . S
C46 H84 0.929 . S
N47 Li2 1.990 . S
N47 C44 1.314 . S
N47 C45 1.279 . S
C48 C45 1.358 . S
C48 C49 1.356 . S
C48 H85 0.930 . S
C49 C46 1.348 . S
C49 C48 1.356 . S
H50 C44 0.930 . S
H51 C45 0.930 . S
C52 N53 1.314 . S
C52 C54 1.353 . S
C52 H58 0.930 . S
N53 Li3 1.990 . S
N53 C52 1.314 . S
N53 C56 1.279 . S
C54 C52 1.353 . S
C54 C57 1.348 . S
C54 H86 0.929 . S
C55 C56 1.358 . S
C55 C57 1.356 . S
C55 H87 0.930 . S
C56 N53 1.279 . S
C56 C55 1.358 . S
C56 H59 0.930 . S
C57 C54 1.348 . S
C57 C55 1.356 . S
H58 C52 0.930 . S
H59 C56 0.930 . S
O60 Li0 1.956 . S
O60 Li1 1.970 . S
O60 Li2 1.961 . S
O60 C4 1.325 . S
O61 Li0 1.970 . S
O61 Li1 1.956 . S
O61 Li3 1.961 . S
O61 C10 1.325 . S
O62 Li0 1.961 . S
O62 Li2 1.956 . S
O62 Li3 1.970 . S
O62 C32 1.325 . S
O63 Li1 1.961 . S
O63 Li2 1.970 . S
O63 Li3 1.956 . S
O63 C38 1.325 . S
H64 C6 0.929 . S
H65 C7 0.930 . S
H66 C8 0.930 . S
H67 C9 0.930 . S
H68 C11 0.930 . S
H69 C13 0.929 . S
H70 C14 0.930 . S
H71 C15 0.930 . S
H72 C18 0.930 . S
H73 C21 0.929 . S
H74 C26 0.929 . S
H75 C27 0.930 . S
H76 C34 0.929 . S
H77 C35 0.930 . S
H78 C36 0.930 . S
H79 C37 0.930 . S
H80 C39 0.929 . S
H81 C40 0.930 . S
H82 C41 0.930 . S
H83 C42 0.930 . S
H84 C46 0.929 . S
H85 C48 0.930 . S
H86 C54 0.929 . S
H87 C55 0.930 . S
Li88 N105 1.990 . S
Li88 O148 1.956 . S
Li88 O149 1.970 . S
Li88 O150 1.961 . S
Li89 N113 1.990 . S
Li89 O148 1.970 . S
Li89 O149 1.956 . S
Li89 O151 1.961 . S
Li90 N135 1.990 . S
Li90 O148 1.961 . S
Li90 O150 1.956 . S
Li90 O151 1.970 . S
Li91 N141 1.990 . S
Li91 O149 1.961 . S
Li91 O150 1.970 . S
Li91 O151 1.956 . S
C92 C94 1.348 . S
C92 C95 1.356 . S
C92 O148 1.325 . S
N93 C96 1.314 . S
N93 C97 1.279 . S
C94 C92 1.348 . S
C94 C96 1.353 . S
C94 H152 0.929 . S
C95 C92 1.356 . S
C95 C97 1.358 . S
C95 H153 0.930 . S
C96 N93 1.314 . S
C96 C94 1.353 . S
C96 H154 0.930 . S
C97 N93 1.279 . S
C97 C95 1.358 . S
C97 H155 0.930 . S
C98 C101 1.348 . S
C98 C102 1.356 . S
C98 O149 1.325 . S
C99 N100 1.279 . S
C99 C102 1.358 . S
C99 H156 0.930 . S
N100 C99 1.279 . S
N100 C103 1.314 . S
C101 C98 1.348 . S
C101 C103 1.353 . S
C101 H157 0.929 . S
C102 C98 1.356 . S
C102 C99 1.358 . S
C102 H158 0.930 . S
C103 N100 1.314 . S
C103 C101 1.353 . S
C103 H159 0.930 . S
C104 N105 1.314 . S
C104 C109 1.353 . S
C104 H110 0.930 . S
N105 Li88 1.990 . S
N105 C104 1.314 . S
N105 C107 1.279 . S
C106 C107 1.358 . S
C106 C108 1.356 . S
C106 H160 0.930 . S
C107 N105 1.279 . S
C107 C106 1.358 . S
C107 H111 0.930 . S
C108 C106 1.356 . S
C108 C109 1.348 . S
C109 C104 1.353 . S
C109 C108 1.348 . S
C109 H161 0.929 . S
H110 C104 0.930 . S
H111 C107 0.930 . S
C112 N113 1.314 . S
C112 C114 1.353 . S
C112 H118 0.930 . S
N113 Li89 1.990 . S
N113 C112 1.314 . S
N113 C116 1.279 . S
C114 C112 1.353 . S
C114 C117 1.348 . S
C114 H162 0.929 . S
C115 C116 1.358 . S
C115 C117 1.356 . S
C115 H163 0.930 . S
C116 N113 1.279 . S
C116 C115 1.358 . S
C116 H119 0.930 . S
C117 C114 1.348 . S
C117 C115 1.356 . S
H118 C112 0.930 . S
H119 C116 0.930 . S
C120 C122 1.348 . S
C120 C123 1.356 . S
C120 O150 1.325 . S
N121 C124 1.314 . S
N121 C125 1.279 . S
C122 C120 1.348 . S
C122 C124 1.353 . S
C122 H164 0.929 . S
C123 C120 1.356 . S
C123 C125 1.358 . S
C123 H165 0.930 . S
C124 N121 1.314 . S
C124 C122 1.353 . S
C124 H166 0.930 . S
C125 N121 1.279 . S
C125 C123 1.358 . S
C125 H167 0.930 . S
C126 C127 1.348 . S
C126 C128 1.356 . S
C126 O151 1.325 . S
C127 C126 1.348 . S
C127 C129 1.353 . S
C127 H168 0.929 . S
C128 C126 1.356 . S
C128 C130 1.358 . S
C128 H169 0.930 . S
C129 C127 1.353 . S
C129 N131 1.314 . S
C129 H170 0.930 . S
C130 C128 1.358 . S
C130 N131 1.279 . S
C130 H171 0.930 . S
N131 C129 1.314 . S
N131 C130 1.279 . S
C132 C134 1.353 . S
C132 N135 1.314 . S
C132 H138 0.930 . S
C133 N135 1.279 . S
C133 C136 1.358 . S
C133 H139 0.930 . S
C134 C132 1.353 . S
C134 C137 1.348 . S
C134 H172 0.929 . S
N135 Li90 1.990 . S
N135 C132 1.314 . S
N135 C133 1.279 . S
C136 C133 1.358 . S
C136 C137 1.356 . S
C136 H173 0.930 . S
C137 C134 1.348 . S
C137 C136 1.356 . S
H138 C132 0.930 . S
H139 C133 0.930 . S
C140 N141 1.314 . S
C140 C142 1.353 . S
C140 H146 0.930 . S
N141 Li91 1.990 . S
N141 C140 1.314 . S
N141 C144 1.279 . S
C142 C140 1.353 . S
C142 C145 1.348 . S
C142 H174 0.929 . S
C143 C144 1.358 . S
C143 C145 1.356 . S
C143 H175 0.930 . S
C144 N141 1.279 . S
C144 C143 1.358 . S
C144 H147 0.930 . S
C145 C142 1.348 . S
C145 C143 1.356 . S
H146 C140 0.930 . S
H147 C144 0.930 . S
O148 Li88 1.956 . S
O148 Li89 1.970 . S
O148 Li90 1.961 . S
O148 C92 1.325 . S
O149 Li88 1.970 . S
O149 Li89 1.956 . S
O149 Li91 1.961 . S
O149 C98 1.325 . S
O150 Li88 1.961 . S
O150 Li90 1.956 . S
O150 Li91 1.970 . S
O150 C120 1.325 . S
O151 Li89 1.961 . S
O151 Li90 1.970 . S
O151 Li91 1.956 . S
O151 C126 1.325 . S
H152 C94 0.929 . S
H153 C95 0.930 . S
H154 C96 0.930 . S
H155 C97 0.930 . S
H156 C99 0.930 . S
H157 C101 0.929 . S
H158 C102 0.930 . S
H159 C103 0.930 . S
H160 C106 0.930 . S
H161 C109 0.929 . S
H162 C114 0.929 . S
H163 C115 0.930 . S
H164 C122 0.929 . S
H165 C123 0.930 . S
H166 C124 0.930 . S
H167 C125 0.930 . S
H168 C127 0.929 . S
H169 C128 0.930 . S
H170 C129 0.930 . S
H171 C130 0.930 . S
H172 C134 0.929 . S
H173 C136 0.930 . S
H174 C142 0.929 . S
H175 C143 0.930 . S
Li176 N193 1.990 . S
Li176 O236 1.956 . S
Li176 O237 1.970 . S
Li176 O238 1.961 . S
Li177 N201 1.990 . S
Li177 O236 1.970 . S
Li177 O237 1.956 . S
Li177 O239 1.961 . S
Li178 N223 1.990 . S
Li178 O236 1.961 . S
Li178 O238 1.956 . S
Li178 O239 1.970 . S
Li179 N229 1.990 . S
Li179 O237 1.961 . S
Li179 O238 1.970 . S
Li179 O239 1.956 . S
C180 C182 1.348 . S
C180 C183 1.356 . S
C180 O236 1.325 . S
N181 C184 1.314 . S
N181 C185 1.279 . S
C182 C180 1.348 . S
C182 C184 1.353 . S
C182 H240 0.929 . S
C183 C180 1.356 . S
C183 C185 1.358 . S
C183 H241 0.930 . S
C184 N181 1.314 . S
C184 C182 1.353 . S
C184 H242 0.930 . S
C185 N181 1.279 . S
C185 C183 1.358 . S
C185 H243 0.930 . S
C186 C189 1.348 . S
C186 C190 1.356 . S
C186 O237 1.325 . S
C187 N188 1.279 . S
C187 C190 1.358 . S
C187 H244 0.930 . S
N188 C187 1.279 . S
N188 C191 1.314 . S
C189 C186 1.348 . S
C189 C191 1.353 . S
C189 H245 0.929 . S
C190 C186 1.356 . S
C190 C187 1.358 . S
C190 H246 0.930 . S
C191 N188 1.314 . S
C191 C189 1.353 . S
C191 H247 0.930 . S
C192 N193 1.314 . S
C192 C197 1.353 . S
C192 H198 0.930 . S
N193 Li176 1.990 . S
N193 C192 1.314 . S
N193 C195 1.279 . S
C194 C195 1.358 . S
C194 C196 1.356 . S
C194 H248 0.930 . S
C195 N193 1.279 . S
C195 C194 1.358 . S
C195 H199 0.930 . S
C196 C194 1.356 . S
C196 C197 1.348 . S
C197 C192 1.353 . S
C197 C196 1.348 . S
C197 H249 0.929 . S
H198 C192 0.930 . S
H199 C195 0.930 . S
C200 N201 1.314 . S
C200 C202 1.353 . S
C200 H206 0.930 . S
N201 Li177 1.990 . S
N201 C200 1.314 . S
N201 C204 1.279 . S
C202 C200 1.353 . S
C202 C205 1.348 . S
C202 H250 0.929 . S
C203 C204 1.358 . S
C203 C205 1.356 . S
C203 H251 0.930 . S
C204 N201 1.279 . S
C204 C203 1.358 . S
C204 H207 0.930 . S
C205 C202 1.348 . S
C205 C203 1.356 . S
H206 C200 0.930 . S
H207 C204 0.930 . S
C208 C210 1.348 . S
C208 C211 1.356 . S
C208 O238 1.325 . S
N209 C212 1.314 . S
N209 C213 1.279 . S
C210 C208 1.348 . S
C210 C212 1.353 . S
C210 H252 0.929 . S
C211 C208 1.356 . S
C211 C213 1.358 . S
C211 H253 0.930 . S
C212 N209 1.314 . S
C212 C210 1.353 . S
C212 H254 0.930 . S
C213 N209 1.279 . S
C213 C211 1.358 . S
C213 H255 0.930 . S
C214 C215 1.348 . S
C214 C216 1.356 . S
C214 O239 1.325 . S
C215 C214 1.348 . S
C215 C217 1.353 . S
C215 H256 0.929 . S
C216 C214 1.356 . S
C216 C218 1.358 . S
C216 H257 0.930 . S
C217 C215 1.353 . S
C217 N219 1.314 . S
C217 H258 0.930 . S
C218 C216 1.358 . S
C218 N219 1.279 . S
C218 H259 0.930 . S
N219 C217 1.314 . S
N219 C218 1.279 . S
C220 C222 1.353 . S
C220 N223 1.314 . S
C220 H226 0.930 . S
C221 N223 1.279 . S
C221 C224 1.358 . S
C221 H227 0.930 . S
C222 C220 1.353 . S
C222 C225 1.348 . S
C222 H260 0.929 . S
N223 Li178 1.990 . S
N223 C220 1.314 . S
N223 C221 1.279 . S
C224 C221 1.358 . S
C224 C225 1.356 . S
C224 H261 0.930 . S
C225 C222 1.348 . S
C225 C224 1.356 . S
H226 C220 0.930 . S
H227 C221 0.930 . S
C228 N229 1.314 . S
C228 C230 1.353 . S
C228 H234 0.930 . S
N229 Li179 1.990 . S
N229 C228 1.314 . S
N229 C232 1.279 . S
C230 C228 1.353 . S
C230 C233 1.348 . S
C230 H262 0.929 . S
C231 C232 1.358 . S
C231 C233 1.356 . S
C231 H263 0.930 . S
C232 N229 1.279 . S
C232 C231 1.358 . S
C232 H235 0.930 . S
C233 C230 1.348 . S
C233 C231 1.356 . S
H234 C228 0.930 . S
H235 C232 0.930 . S
O236 Li176 1.956 . S
O236 Li177 1.970 . S
O236 Li178 1.961 . S
O236 C180 1.325 . S
O237 Li176 1.970 . S
O237 Li177 1.956 . S
O237 Li179 1.961 . S
O237 C186 1.325 . S
O238 Li176 1.961 . S
O238 Li178 1.956 . S
O238 Li179 1.970 . S
O238 C208 1.325 . S
O239 Li177 1.961 . S
O239 Li178 1.970 . S
O239 Li179 1.956 . S
O239 C214 1.325 . S
H240 C182 0.929 . S
H241 C183 0.930 . S
H242 C184 0.930 . S
H243 C185 0.930 . S
H244 C187 0.930 . S
H245 C189 0.929 . S
H246 C190 0.930 . S
H247 C191 0.930 . S
H248 C194 0.930 . S
H249 C197 0.929 . S
H250 C202 0.929 . S
H251 C203 0.930 . S
H252 C210 0.929 . S
H253 C211 0.930 . S
H254 C212 0.930 . S
H255 C213 0.930 . S
H256 C215 0.929 . S
H257 C216 0.930 . S
H258 C217 0.930 . S
H259 C218 0.930 . S
H260 C222 0.929 . S
H261 C224 0.930 . S
H262 C230 0.929 . S
H263 C231 0.930 . S
Li264 N281 1.990 . S
Li264 O324 1.956 . S
Li264 O325 1.970 . S
Li264 O326 1.961 . S
Li265 N289 1.990 . S
Li265 O324 1.970 . S
Li265 O325 1.956 . S
Li265 O327 1.961 . S
Li266 N311 1.990 . S
Li266 O324 1.961 . S
Li266 O326 1.956 . S
Li266 O327 1.970 . S
Li267 N317 1.990 . S
Li267 O325 1.961 . S
Li267 O326 1.970 . S
Li267 O327 1.956 . S
C268 C270 1.348 . S
C268 C271 1.356 . S
C268 O324 1.325 . S
N269 C272 1.314 . S
N269 C273 1.279 . S
C270 C268 1.348 . S
C270 C272 1.353 . S
C270 H328 0.929 . S
C271 C268 1.356 . S
C271 C273 1.358 . S
C271 H329 0.930 . S
C272 N269 1.314 . S
C272 C270 1.353 . S
C272 H330 0.930 . S
C273 N269 1.279 . S
C273 C271 1.358 . S
C273 H331 0.930 . S
C274 C277 1.348 . S
C274 C278 1.356 . S
C274 O325 1.325 . S
C275 N276 1.279 . S
C275 C278 1.358 . S
C275 H332 0.930 . S
N276 C275 1.279 . S
N276 C279 1.314 . S
C277 C274 1.348 . S
C277 C279 1.353 . S
C277 H333 0.929 . S
C278 C274 1.356 . S
C278 C275 1.358 . S
C278 H334 0.930 . S
C279 N276 1.314 . S
C279 C277 1.353 . S
C279 H335 0.930 . S
C280 N281 1.314 . S
C280 C285 1.353 . S
C280 H286 0.930 . S
N281 Li264 1.990 . S
N281 C280 1.314 . S
N281 C283 1.279 . S
C282 C283 1.358 . S
C282 C284 1.356 . S
C282 H336 0.930 . S
C283 N281 1.279 . S
C283 C282 1.358 . S
C283 H287 0.930 . S
C284 C282 1.356 . S
C284 C285 1.348 . S
C285 C280 1.353 . S
C285 C284 1.348 . S
C285 H337 0.929 . S
H286 C280 0.930 . S
H287 C283 0.930 . S
C288 N289 1.314 . S
C288 C290 1.353 . S
C288 H294 0.930 . S
N289 Li265 1.990 . S
N289 C288 1.314 . S
N289 C292 1.279 . S
C290 C288 1.353 . S
C290 C293 1.348 . S
C290 H338 0.929 . S
C291 C292 1.358 . S
C291 C293 1.356 . S
C291 H339 0.930 . S
C292 N289 1.279 . S
C292 C291 1.358 . S
C292 H295 0.930 . S
C293 C290 1.348 . S
C293 C291 1.356 . S
H294 C288 0.930 . S
H295 C292 0.930 . S
C296 C298 1.348 . S
C296 C299 1.356 . S
C296 O326 1.325 . S
N297 C300 1.314 . S
N297 C301 1.279 . S
C298 C296 1.348 . S
C298 C300 1.353 . S
C298 H340 0.929 . S
C299 C296 1.356 . S
C299 C301 1.358 . S
C299 H341 0.930 . S
C300 N297 1.314 . S
C300 C298 1.353 . S
C300 H342 0.930 . S
C301 N297 1.279 . S
C301 C299 1.358 . S
C301 H343 0.930 . S
C302 C303 1.348 . S
C302 C304 1.356 . S
C302 O327 1.325 . S
C303 C302 1.348 . S
C303 C305 1.353 . S
C303 H344 0.929 . S
C304 C302 1.356 . S
C304 C306 1.358 . S
C304 H345 0.930 . S
C305 C303 1.353 . S
C305 N307 1.314 . S
C305 H346 0.930 . S
C306 C304 1.358 . S
C306 N307 1.279 . S
C306 H347 0.930 . S
N307 C305 1.314 . S
N307 C306 1.279 . S
C308 C310 1.353 . S
C308 N311 1.314 . S
C308 H314 0.930 . S
C309 N311 1.279 . S
C309 C312 1.358 . S
C309 H315 0.930 . S
C310 C308 1.353 . S
C310 C313 1.348 . S
C310 H348 0.929 . S
N311 Li266 1.990 . S
N311 C308 1.314 . S
N311 C309 1.279 . S
C312 C309 1.358 . S
C312 C313 1.356 . S
C312 H349 0.930 . S
C313 C310 1.348 . S
C313 C312 1.356 . S
H314 C308 0.930 . S
H315 C309 0.930 . S
C316 N317 1.314 . S
C316 C318 1.353 . S
C316 H322 0.930 . S
N317 Li267 1.990 . S
N317 C316 1.314 . S
N317 C320 1.279 . S
C318 C316 1.353 . S
C318 C321 1.348 . S
C318 H350 0.929 . S
C319 C320 1.358 . S
C319 C321 1.356 . S
C319 H351 0.930 . S
C320 N317 1.279 . S
C320 C319 1.358 . S
C320 H323 0.930 . S
C321 C318 1.348 . S
C321 C319 1.356 . S
H322 C316 0.930 . S
H323 C320 0.930 . S
O324 Li264 1.956 . S
O324 Li265 1.970 . S
O324 Li266 1.961 . S
O324 C268 1.325 . S
O325 Li264 1.970 . S
O325 Li265 1.956 . S
O325 Li267 1.961 . S
O325 C274 1.325 . S
O326 Li264 1.961 . S
O326 Li266 1.956 . S
O326 Li267 1.970 . S
O326 C296 1.325 . S
O327 Li265 1.961 . S
O327 Li266 1.970 . S
O327 Li267 1.956 . S
O327 C302 1.325 . S
H328 C270 0.929 . S
H329 C271 0.930 . S
H330 C272 0.930 . S
H331 C273 0.930 . S
H332 C275 0.930 . S
H333 C277 0.929 . S
H334 C278 0.930 . S
H335 C279 0.930 . S
H336 C282 0.930 . S
H337 C285 0.929 . S
H338 C290 0.929 . S
H339 C291 0.930 . S
H340 C298 0.929 . S
H341 C299 0.930 . S
H342 C300 0.930 . S
H343 C301 0.930 . S
H344 C303 0.929 . S
H345 C304 0.930 . S
H346 C305 0.930 . S
H347 C306 0.930 . S
H348 C310 0.929 . S
H349 C312 0.930 . S
H350 C318 0.929 . S
H351 C319 0.930 . S
Li352 N369 1.990 . S
Li352 O412 1.956 . S
Li352 O413 1.970 . S
Li352 O414 1.961 . S
Li353 N377 1.990 . S
Li353 O412 1.970 . S
Li353 O413 1.956 . S
Li353 O415 1.961 . S
Li354 N399 1.990 . S
Li354 O412 1.961 . S
Li354 O414 1.956 . S
Li354 O415 1.970 . S
Li355 N405 1.990 . S
Li355 O413 1.961 . S
Li355 O414 1.970 . S
Li355 O415 1.956 . S
C356 C358 1.348 . S
C356 C359 1.356 . S
C356 O412 1.325 . S
N357 C360 1.314 . S
N357 C361 1.279 . S
C358 C356 1.348 . S
C358 C360 1.353 . S
C358 H416 0.929 . S
C359 C356 1.356 . S
C359 C361 1.358 . S
C359 H417 0.930 . S
C360 N357 1.314 . S
C360 C358 1.353 . S
C360 H418 0.930 . S
C361 N357 1.279 . S
C361 C359 1.358 . S
C361 H419 0.930 . S
C362 C365 1.348 . S
C362 C366 1.356 . S
C362 O413 1.325 . S
C363 N364 1.279 . S
C363 C366 1.358 . S
C363 H420 0.930 . S
N364 C363 1.279 . S
N364 C367 1.314 . S
C365 C362 1.348 . S
C365 C367 1.353 . S
C365 H421 0.929 . S
C366 C362 1.356 . S
C366 C363 1.358 . S
C366 H422 0.930 . S
C367 N364 1.314 . S
C367 C365 1.353 . S
C367 H423 0.930 . S
C368 N369 1.314 . S
C368 C373 1.353 . S
C368 H374 0.930 . S
N369 Li352 1.990 . S
N369 C368 1.314 . S
N369 C371 1.279 . S
C370 C371 1.358 . S
C370 C372 1.356 . S
C370 H424 0.930 . S
C371 N369 1.279 . S
C371 C370 1.358 . S
C371 H375 0.930 . S
C372 C370 1.356 . S
C372 C373 1.348 . S
C373 C368 1.353 . S
C373 C372 1.348 . S
C373 H425 0.929 . S
H374 C368 0.930 . S
H375 C371 0.930 . S
C376 N377 1.314 . S
C376 C378 1.353 . S
C376 H382 0.930 . S
N377 Li353 1.990 . S
N377 C376 1.314 . S
N377 C380 1.279 . S
C378 C376 1.353 . S
C378 C381 1.348 . S
C378 H426 0.929 . S
C379 C380 1.358 . S
C379 C381 1.356 . S
C379 H427 0.930 . S
C380 N377 1.279 . S
C380 C379 1.358 . S
C380 H383 0.930 . S
C381 C378 1.348 . S
C381 C379 1.356 . S
H382 C376 0.930 . S
H383 C380 0.930 . S
C384 C386 1.348 . S
C384 C387 1.356 . S
C384 O414 1.325 . S
N385 C388 1.314 . S
N385 C389 1.279 . S
C386 C384 1.348 . S
C386 C388 1.353 . S
C386 H428 0.929 . S
C387 C384 1.356 . S
C387 C389 1.358 . S
C387 H429 0.930 . S
C388 N385 1.314 . S
C388 C386 1.353 . S
C388 H430 0.930 . S
C389 N385 1.279 . S
C389 C387 1.358 . S
C389 H431 0.930 . S
C390 C391 1.348 . S
C390 C392 1.356 . S
C390 O415 1.325 . S
C391 C390 1.348 . S
C391 C393 1.353 . S
C391 H432 0.929 . S
C392 C390 1.356 . S
C392 C394 1.358 . S
C392 H433 0.930 . S
C393 C391 1.353 . S
C393 N395 1.314 . S
C393 H434 0.930 . S
C394 C392 1.358 . S
C394 N395 1.279 . S
C394 H435 0.930 . S
N395 C393 1.314 . S
N395 C394 1.279 . S
C396 C398 1.353 . S
C396 N399 1.314 . S
C396 H402 0.930 . S
C397 N399 1.279 . S
C397 C400 1.358 . S
C397 H403 0.930 . S
C398 C396 1.353 . S
C398 C401 1.348 . S
C398 H436 0.929 . S
N399 Li354 1.990 . S
N399 C396 1.314 . S
N399 C397 1.279 . S
C400 C397 1.358 . S
C400 C401 1.356 . S
C400 H437 0.930 . S
C401 C398 1.348 . S
C401 C400 1.356 . S
H402 C396 0.930 . S
H403 C397 0.930 . S
C404 N405 1.314 . S
C404 C406 1.353 . S
C404 H410 0.930 . S
N405 Li355 1.990 . S
N405 C404 1.314 . S
N405 C408 1.279 . S
C406 C404 1.353 . S
C406 C409 1.348 . S
C406 H438 0.929 . S
C407 C408 1.358 . S
C407 C409 1.356 . S
C407 H439 0.930 . S
C408 N405 1.279 . S
C408 C407 1.358 . S
C408 H411 0.930 . S
C409 C406 1.348 . S
C409 C407 1.356 . S
H410 C404 0.930 . S
H411 C408 0.930 . S
O412 Li352 1.956 . S
O412 Li353 1.970 . S
O412 Li354 1.961 . S
O412 C356 1.325 . S
O413 Li352 1.970 . S
O413 Li353 1.956 . S
O413 Li355 1.961 . S
O413 C362 1.325 . S
O414 Li352 1.961 . S
O414 Li354 1.956 . S
O414 Li355 1.970 . S
O414 C384 1.325 . S
O415 Li353 1.961 . S
O415 Li354 1.970 . S
O415 Li355 1.956 . S
O415 C390 1.325 . S
H416 C358 0.929 . S
H417 C359 0.930 . S
H418 C360 0.930 . S
H419 C361 0.930 . S
H420 C363 0.930 . S
H421 C365 0.929 . S
H422 C366 0.930 . S
H423 C367 0.930 . S
H424 C370 0.930 . S
H425 C373 0.929 . S
H426 C378 0.929 . S
H427 C379 0.930 . S
H428 C386 0.929 . S
H429 C387 0.930 . S
H430 C388 0.930 . S
H431 C389 0.930 . S
H432 C391 0.929 . S
H433 C392 0.930 . S
H434 C393 0.930 . S
H435 C394 0.930 . S
H436 C398 0.929 . S
H437 C400 0.930 . S
H438 C406 0.929 . S
H439 C407 0.930 . S
Li440 N457 1.990 . S
Li440 O500 1.956 . S
Li440 O501 1.970 . S
Li440 O502 1.961 . S
Li441 N465 1.990 . S
Li441 O500 1.970 . S
Li441 O501 1.956 . S
Li441 O503 1.961 . S
Li442 N487 1.990 . S
Li442 O500 1.961 . S
Li442 O502 1.956 . S
Li442 O503 1.970 . S
Li443 N493 1.990 . S
Li443 O501 1.961 . S
Li443 O502 1.970 . S
Li443 O503 1.956 . S
C444 C446 1.348 . S
C444 C447 1.356 . S
C444 O500 1.325 . S
N445 C448 1.314 . S
N445 C449 1.279 . S
C446 C444 1.348 . S
C446 C448 1.353 . S
C446 H504 0.929 . S
C447 C444 1.356 . S
C447 C449 1.358 . S
C447 H505 0.930 . S
C448 N445 1.314 . S
C448 C446 1.353 . S
C448 H506 0.930 . S
C449 N445 1.279 . S
C449 C447 1.358 . S
C449 H507 0.930 . S
C450 C453 1.348 . S
C450 C454 1.356 . S
C450 O501 1.325 . S
C451 N452 1.279 . S
C451 C454 1.358 . S
C451 H508 0.930 . S
N452 C451 1.279 . S
N452 C455 1.314 . S
C453 C450 1.348 . S
C453 C455 1.353 . S
C453 H509 0.929 . S
C454 C450 1.356 . S
C454 C451 1.358 . S
C454 H510 0.930 . S
C455 N452 1.314 . S
C455 C453 1.353 . S
C455 H511 0.930 . S
C456 N457 1.314 . S
C456 C461 1.353 . S
C456 H462 0.930 . S
N457 Li440 1.990 . S
N457 C456 1.314 . S
N457 C459 1.279 . S
C458 C459 1.358 . S
C458 C460 1.356 . S
C458 H512 0.930 . S
C459 N457 1.279 . S
C459 C458 1.358 . S
C459 H463 0.930 . S
C460 C458 1.356 . S
C460 C461 1.348 . S
C461 C456 1.353 . S
C461 C460 1.348 . S
C461 H513 0.929 . S
H462 C456 0.930 . S
H463 C459 0.930 . S
C464 N465 1.314 . S
C464 C466 1.353 . S
C464 H470 0.930 . S
N465 Li441 1.990 . S
N465 C464 1.314 . S
N465 C468 1.279 . S
C466 C464 1.353 . S
C466 C469 1.348 . S
C466 H514 0.929 . S
C467 C468 1.358 . S
C467 C469 1.356 . S
C467 H515 0.930 . S
C468 N465 1.279 . S
C468 C467 1.358 . S
C468 H471 0.930 . S
C469 C466 1.348 . S
C469 C467 1.356 . S
H470 C464 0.930 . S
H471 C468 0.930 . S
C472 C474 1.348 . S
C472 C475 1.356 . S
C472 O502 1.325 . S
N473 C476 1.314 . S
N473 C477 1.279 . S
C474 C472 1.348 . S
C474 C476 1.353 . S
C474 H516 0.929 . S
C475 C472 1.356 . S
C475 C477 1.358 . S
C475 H517 0.930 . S
C476 N473 1.314 . S
C476 C474 1.353 . S
C476 H518 0.930 . S
C477 N473 1.279 . S
C477 C475 1.358 . S
C477 H519 0.930 . S
C478 C479 1.348 . S
C478 C480 1.356 . S
C478 O503 1.325 . S
C479 C478 1.348 . S
C479 C481 1.353 . S
C479 H520 0.929 . S
C480 C478 1.356 . S
C480 C482 1.358 . S
C480 H521 0.930 . S
C481 C479 1.353 . S
C481 N483 1.314 . S
C481 H522 0.930 . S
C482 C480 1.358 . S
C482 N483 1.279 . S
C482 H523 0.930 . S
N483 C481 1.314 . S
N483 C482 1.279 . S
C484 C486 1.353 . S
C484 N487 1.314 . S
C484 H490 0.930 . S
C485 N487 1.279 . S
C485 C488 1.358 . S
C485 H491 0.930 . S
C486 C484 1.353 . S
C486 C489 1.348 . S
C486 H524 0.929 . S
N487 Li442 1.990 . S
N487 C484 1.314 . S
N487 C485 1.279 . S
C488 C485 1.358 . S
C488 C489 1.356 . S
C488 H525 0.930 . S
C489 C486 1.348 . S
C489 C488 1.356 . S
H490 C484 0.930 . S
H491 C485 0.930 . S
C492 N493 1.314 . S
C492 C494 1.353 . S
C492 H498 0.930 . S
N493 Li443 1.990 . S
N493 C492 1.314 . S
N493 C496 1.279 . S
C494 C492 1.353 . S
C494 C497 1.348 . S
C494 H526 0.929 . S
C495 C496 1.358 . S
C495 C497 1.356 . S
C495 H527 0.930 . S
C496 N493 1.279 . S
C496 C495 1.358 . S
C496 H499 0.930 . S
C497 C494 1.348 . S
C497 C495 1.356 . S
H498 C492 0.930 . S
H499 C496 0.930 . S
O500 Li440 1.956 . S
O500 Li441 1.970 . S
O500 Li442 1.961 . S
O500 C444 1.325 . S
O501 Li440 1.970 . S
O501 Li441 1.956 . S
O501 Li443 1.961 . S
O501 C450 1.325 . S
O502 Li440 1.961 . S
O502 Li442 1.956 . S
O502 Li443 1.970 . S
O502 C472 1.325 . S
O503 Li441 1.961 . S
O503 Li442 1.970 . S
O503 Li443 1.956 . S
O503 C478 1.325 . S
H504 C446 0.929 . S
H505 C447 0.930 . S
H506 C448 0.930 . S
H507 C449 0.930 . S
H508 C451 0.930 . S
H509 C453 0.929 . S
H510 C454 0.930 . S
H511 C455 0.930 . S
H512 C458 0.930 . S
H513 C461 0.929 . S
H514 C466 0.929 . S
H515 C467 0.930 . S
H516 C474 0.929 . S
H517 C475 0.930 . S
H518 C476 0.930 . S
H519 C477 0.930 . S
H520 C479 0.929 . S
H521 C480 0.930 . S
H522 C481 0.930 . S
H523 C482 0.930 . S
H524 C486 0.929 . S
H525 C488 0.930 . S
H526 C494 0.929 . S
H527 C495 0.930 . S
Li528 N545 1.990 . S
Li528 O588 1.956 . S
Li528 O589 1.970 . S
Li528 O590 1.961 . S
Li529 N553 1.990 . S
Li529 O588 1.970 . S
Li529 O589 1.956 . S
Li529 O591 1.961 . S
Li530 N575 1.990 . S
Li530 O588 1.961 . S
Li530 O590 1.956 . S
Li530 O591 1.970 . S
Li531 N581 1.990 . S
Li531 O589 1.961 . S
Li531 O590 1.970 . S
Li531 O591 1.956 . S
C532 C534 1.348 . S
C532 C535 1.356 . S
C532 O588 1.325 . S
N533 C536 1.314 . S
N533 C537 1.279 . S
C534 C532 1.348 . S
C534 C536 1.353 . S
C534 H592 0.929 . S
C535 C532 1.356 . S
C535 C537 1.358 . S
C535 H593 0.930 . S
C536 N533 1.314 . S
C536 C534 1.353 . S
C536 H594 0.930 . S
C537 N533 1.279 . S
C537 C535 1.358 . S
C537 H595 0.930 . S
C538 C541 1.348 . S
C538 C542 1.356 . S
C538 O589 1.325 . S
C539 N540 1.279 . S
C539 C542 1.358 . S
C539 H596 0.930 . S
N540 C539 1.279 . S
N540 C543 1.314 . S
C541 C538 1.348 . S
C541 C543 1.353 . S
C541 H597 0.929 . S
C542 C538 1.356 . S
C542 C539 1.358 . S
C542 H598 0.930 . S
C543 N540 1.314 . S
C543 C541 1.353 . S
C543 H599 0.930 . S
C544 N545 1.314 . S
C544 C549 1.353 . S
C544 H550 0.930 . S
N545 Li528 1.990 . S
N545 C544 1.314 . S
N545 C547 1.279 . S
C546 C547 1.358 . S
C546 C548 1.356 . S
C546 H600 0.930 . S
C547 N545 1.279 . S
C547 C546 1.358 . S
C547 H551 0.930 . S
C548 C546 1.356 . S
C548 C549 1.348 . S
C549 C544 1.353 . S
C549 C548 1.348 . S
C549 H601 0.929 . S
H550 C544 0.930 . S
H551 C547 0.930 . S
C552 N553 1.314 . S
C552 C554 1.353 . S
C552 H558 0.930 . S
N553 Li529 1.990 . S
N553 C552 1.314 . S
N553 C556 1.279 . S
C554 C552 1.353 . S
C554 C557 1.348 . S
C554 H602 0.929 . S
C555 C556 1.358 . S
C555 C557 1.356 . S
C555 H603 0.930 . S
C556 N553 1.279 . S
C556 C555 1.358 . S
C556 H559 0.930 . S
C557 C554 1.348 . S
C557 C555 1.356 . S
H558 C552 0.930 . S
H559 C556 0.930 . S
C560 C562 1.348 . S
C560 C563 1.356 . S
C560 O590 1.325 . S
N561 C564 1.314 . S
N561 C565 1.279 . S
C562 C560 1.348 . S
C562 C564 1.353 . S
C562 H604 0.929 . S
C563 C560 1.356 . S
C563 C565 1.358 . S
C563 H605 0.930 . S
C564 N561 1.314 . S
C564 C562 1.353 . S
C564 H606 0.930 . S
C565 N561 1.279 . S
C565 C563 1.358 . S
C565 H607 0.930 . S
C566 C567 1.348 . S
C566 C568 1.356 . S
C566 O591 1.325 . S
C567 C566 1.348 . S
C567 C569 1.353 . S
C567 H608 0.929 . S
C568 C566 1.356 . S
C568 C570 1.358 . S
C568 H609 0.930 . S
C569 C567 1.353 . S
C569 N571 1.314 . S
C569 H610 0.930 . S
C570 C568 1.358 . S
C570 N571 1.279 . S
C570 H611 0.930 . S
N571 C569 1.314 . S
N571 C570 1.279 . S
C572 C574 1.353 . S
C572 N575 1.314 . S
C572 H578 0.930 . S
C573 N575 1.279 . S
C573 C576 1.358 . S
C573 H579 0.930 . S
C574 C572 1.353 . S
C574 C577 1.348 . S
C574 H612 0.929 . S
N575 Li530 1.990 . S
N575 C572 1.314 . S
N575 C573 1.279 . S
C576 C573 1.358 . S
C576 C577 1.356 . S
C576 H613 0.930 . S
C577 C574 1.348 . S
C577 C576 1.356 . S
H578 C572 0.930 . S
H579 C573 0.930 . S
C580 N581 1.314 . S
C580 C582 1.353 . S
C580 H586 0.930 . S
N581 Li531 1.990 . S
N581 C580 1.314 . S
N581 C584 1.279 . S
C582 C580 1.353 . S
C582 C585 1.348 . S
C582 H614 0.929 . S
C583 C584 1.358 . S
C583 C585 1.356 . S
C583 H615 0.930 . S
C584 N581 1.279 . S
C584 C583 1.358 . S
C584 H587 0.930 . S
C585 C582 1.348 . S
C585 C583 1.356 . S
H586 C580 0.930 . S
H587 C584 0.930 . S
O588 Li528 1.956 . S
O588 Li529 1.970 . S
O588 Li530 1.961 . S
O588 C532 1.325 . S
O589 Li528 1.970 . S
O589 Li529 1.956 . S
O589 Li531 1.961 . S
O589 C538 1.325 . S
O590 Li528 1.961 . S
O590 Li530 1.956 . S
O590 Li531 1.970 . S
O590 C560 1.325 . S
O591 Li529 1.961 . S
O591 Li530 1.970 . S
O591 Li531 1.956 . S
O591 C566 1.325 . S
H592 C534 0.929 . S
H593 C535 0.930 . S
H594 C536 0.930 . S
H595 C537 0.930 . S
H596 C539 0.930 . S
H597 C541 0.929 . S
H598 C542 0.930 . S
H599 C543 0.930 . S
H600 C546 0.930 . S
H601 C549 0.929 . S
H602 C554 0.929 . S
H603 C555 0.930 . S
H604 C562 0.929 . S
H605 C563 0.930 . S
H606 C564 0.930 . S
H607 C565 0.930 . S
H608 C567 0.929 . S
H609 C568 0.930 . S
H610 C569 0.930 . S
H611 C570 0.930 . S
H612 C574 0.929 . S
H613 C576 0.930 . S
H614 C582 0.929 . S
H615 C583 0.930 . S
Li616 N633 1.990 . S
Li616 O676 1.956 . S
Li616 O677 1.970 . S
Li616 O678 1.961 . S
Li617 N641 1.990 . S
Li617 O676 1.970 . S
Li617 O677 1.956 . S
Li617 O679 1.961 . S
Li618 N663 1.990 . S
Li618 O676 1.961 . S
Li618 O678 1.956 . S
Li618 O679 1.970 . S
Li619 N669 1.990 . S
Li619 O677 1.961 . S
Li619 O678 1.970 . S
Li619 O679 1.956 . S
C620 C622 1.348 . S
C620 C623 1.356 . S
C620 O676 1.325 . S
N621 C624 1.314 . S
N621 C625 1.279 . S
C622 C620 1.348 . S
C622 C624 1.353 . S
C622 H680 0.929 . S
C623 C620 1.356 . S
C623 C625 1.358 . S
C623 H681 0.930 . S
C624 N621 1.314 . S
C624 C622 1.353 . S
C624 H682 0.930 . S
C625 N621 1.279 . S
C625 C623 1.358 . S
C625 H683 0.930 . S
C626 C629 1.348 . S
C626 C630 1.356 . S
C626 O677 1.325 . S
C627 N628 1.279 . S
C627 C630 1.358 . S
C627 H684 0.930 . S
N628 C627 1.279 . S
N628 C631 1.314 . S
C629 C626 1.348 . S
C629 C631 1.353 . S
C629 H685 0.929 . S
C630 C626 1.356 . S
C630 C627 1.358 . S
C630 H686 0.930 . S
C631 N628 1.314 . S
C631 C629 1.353 . S
C631 H687 0.930 . S
C632 N633 1.314 . S
C632 C637 1.353 . S
C632 H638 0.930 . S
N633 Li616 1.990 . S
N633 C632 1.314 . S
N633 C635 1.279 . S
C634 C635 1.358 . S
C634 C636 1.356 . S
C634 H688 0.930 . S
C635 N633 1.279 . S
C635 C634 1.358 . S
C635 H639 0.930 . S
C636 C634 1.356 . S
C636 C637 1.348 . S
C637 C632 1.353 . S
C637 C636 1.348 . S
C637 H689 0.929 . S
H638 C632 0.930 . S
H639 C635 0.930 . S
C640 N641 1.314 . S
C640 C642 1.353 . S
C640 H646 0.930 . S
N641 Li617 1.990 . S
N641 C640 1.314 . S
N641 C644 1.279 . S
C642 C640 1.353 . S
C642 C645 1.348 . S
C642 H690 0.929 . S
C643 C644 1.358 . S
C643 C645 1.356 . S
C643 H691 0.930 . S
C644 N641 1.279 . S
C644 C643 1.358 . S
C644 H647 0.930 . S
C645 C642 1.348 . S
C645 C643 1.356 . S
H646 C640 0.930 . S
H647 C644 0.930 . S
C648 C650 1.348 . S
C648 C651 1.356 . S
C648 O678 1.325 . S
N649 C652 1.314 . S
N649 C653 1.279 . S
C650 C648 1.348 . S
C650 C652 1.353 . S
C650 H692 0.929 . S
C651 C648 1.356 . S
C651 C653 1.358 . S
C651 H693 0.930 . S
C652 N649 1.314 . S
C652 C650 1.353 . S
C652 H694 0.930 . S
C653 N649 1.279 . S
C653 C651 1.358 . S
C653 H695 0.930 . S
C654 C655 1.348 . S
C654 C656 1.356 . S
C654 O679 1.325 . S
C655 C654 1.348 . S
C655 C657 1.353 . S
C655 H696 0.929 . S
C656 C654 1.356 . S
C656 C658 1.358 . S
C656 H697 0.930 . S
C657 C655 1.353 . S
C657 N659 1.314 . S
C657 H698 0.930 . S
C658 C656 1.358 . S
C658 N659 1.279 . S
C658 H699 0.930 . S
N659 C657 1.314 . S
N659 C658 1.279 . S
C660 C662 1.353 . S
C660 N663 1.314 . S
C660 H666 0.930 . S
C661 N663 1.279 . S
C661 C664 1.358 . S
C661 H667 0.930 . S
C662 C660 1.353 . S
C662 C665 1.348 . S
C662 H700 0.929 . S
N663 Li618 1.990 . S
N663 C660 1.314 . S
N663 C661 1.279 . S
C664 C661 1.358 . S
C664 C665 1.356 . S
C664 H701 0.930 . S
C665 C662 1.348 . S
C665 C664 1.356 . S
H666 C660 0.930 . S
H667 C661 0.930 . S
C668 N669 1.314 . S
C668 C670 1.353 . S
C668 H674 0.930 . S
N669 Li619 1.990 . S
N669 C668 1.314 . S
N669 C672 1.279 . S
C670 C668 1.353 . S
C670 C673 1.348 . S
C670 H702 0.929 . S
C671 C672 1.358 . S
C671 C673 1.356 . S
C671 H703 0.930 . S
C672 N669 1.279 . S
C672 C671 1.358 . S
C672 H675 0.930 . S
C673 C670 1.348 . S
C673 C671 1.356 . S
H674 C668 0.930 . S
H675 C672 0.930 . S
O676 Li616 1.956 . S
O676 Li617 1.970 . S
O676 Li618 1.961 . S
O676 C620 1.325 . S
O677 Li616 1.970 . S
O677 Li617 1.956 . S
O677 Li619 1.961 . S
O677 C626 1.325 . S
O678 Li616 1.961 . S
O678 Li618 1.956 . S
O678 Li619 1.970 . S
O678 C648 1.325 . S
O679 Li617 1.961 . S
O679 Li618 1.970 . S
O679 Li619 1.956 . S
O679 C654 1.325 . S
H680 C622 0.929 . S
H681 C623 0.930 . S
H682 C624 0.930 . S
H683 C625 0.930 . S
H684 C627 0.930 . S
H685 C629 0.929 . S
H686 C630 0.930 . S
H687 C631 0.930 . S
H688 C634 0.930 . S
H689 C637 0.929 . S
H690 C642 0.929 . S
H691 C643 0.930 . S
H692 C650 0.929 . S
H693 C651 0.930 . S
H694 C652 0.930 . S
H695 C653 0.930 . S
H696 C655 0.929 . S
H697 C656 0.930 . S
H698 C657 0.930 . S
H699 C658 0.930 . S
H700 C662 0.929 . S
H701 C664 0.930 . S
H702 C670 0.929 . S
H703 C671 0.930 . S
H704 C716 0.930 . S
H705 C718 0.930 . S
H706 C719 0.930 . S
H707 C723 0.959 . S
H708 C723 0.959 . S
H709 C723 0.961 . S
H710 C724 0.960 . S
H711 C724 0.961 . S
H712 C724 0.959 . S
H713 C727 0.929 . S
H714 C728 0.931 . S
H715 C730 0.930 . S
C716 H704 0.930 . S
C716 C717 1.399 . S
C716 C721 1.399 . S
C717 C716 1.399 . S
C717 C718 1.376 . S
C718 H705 0.930 . S
C718 C717 1.376 . S
C718 C719 1.388 . S
C719 H706 0.930 . S
C719 C718 1.388 . S
C719 C720 1.390 . S
C720 C719 1.390 . S
C720 C721 1.394 . S
C720 C726 1.465 . S
C721 C716 1.399 . S
C721 C720 1.394 . S
C721 C722 1.516 . S
C722 C721 1.516 . S
C722 C723 1.502 . S
C722 C724 1.561 . S
C722 C725 1.526 . S
C723 H707 0.959 . S
C723 H708 0.959 . S
C723 H709 0.961 . S
C723 C722 1.502 . S
C724 H710 0.960 . S
C724 H711 0.961 . S
C724 H712 0.959 . S
C724 C722 1.561 . S
C725 C722 1.526 . S
C725 C726 1.396 . S
C725 C730 1.390 . S
C726 C720 1.465 . S
C726 C725 1.396 . S
C726 C727 1.399 . S
C727 H713 0.929 . S
C727 C726 1.399 . S
C727 C728 1.385 . S
C728 H714 0.931 . S
C728 C727 1.385 . S
C728 C729 1.389 . S
C729 C728 1.389 . S
C729 C730 1.387 . S
C730 H715 0.930 . S
C730 C725 1.390 . S
C730 C729 1.387 . S
H731 C743 0.930 . S
H732 C745 0.930 . S
H733 C746 0.930 . S
H734 C750 0.959 . S
H735 C750 0.959 . S
H736 C750 0.961 . S
H737 C751 0.960 . S
H738 C751 0.961 . S
H739 C751 0.959 . S
H740 C754 0.929 . S
H741 C755 0.931 . S
H742 C757 0.930 . S
C743 H731 0.930 . S
C743 C744 1.399 . S
C743 C748 1.399 . S
C744 C743 1.399 . S
C744 C745 1.376 . S
C745 H732 0.930 . S
C745 C744 1.376 . S
C745 C746 1.388 . S
C746 H733 0.930 . S
C746 C745 1.388 . S
C746 C747 1.390 . S
C747 C746 1.390 . S
C747 C748 1.394 . S
C747 C753 1.465 . S
C748 C743 1.399 . S
C748 C747 1.394 . S
C748 C749 1.516 . S
C749 C748 1.516 . S
C749 C750 1.502 . S
C749 C751 1.561 . S
C749 C752 1.526 . S
C750 H734 0.959 . S
C750 H735 0.959 . S
C750 H736 0.961 . S
C750 C749 1.502 . S
C751 H737 0.960 . S
C751 H738 0.961 . S
C751 H739 0.959 . S
C751 C749 1.561 . S
C752 C749 1.526 . S
C752 C753 1.396 . S
C752 C757 1.390 . S
C753 C747 1.465 . S
C753 C752 1.396 . S
C753 C754 1.399 . S
C754 H740 0.929 . S
C754 C753 1.399 . S
C754 C755 1.385 . S
C755 H741 0.931 . S
C755 C754 1.385 . S
C755 C756 1.389 . S
C756 C755 1.389 . S
C756 C757 1.387 . S
C757 H742 0.930 . S
C757 C752 1.390 . S
C757 C756 1.387 . S
H758 C770 0.930 . S
H759 C772 0.930 . S
H760 C773 0.930 . S
H761 C777 0.959 . S
H762 C777 0.959 . S
H763 C777 0.961 . S
H764 C778 0.960 . S
H765 C778 0.961 . S
H766 C778 0.959 . S
H767 C781 0.929 . S
H768 C782 0.931 . S
H769 C784 0.930 . S
C770 H758 0.930 . S
C770 C771 1.399 . S
C770 C775 1.399 . S
C771 C770 1.399 . S
C771 C772 1.376 . S
C772 H759 0.930 . S
C772 C771 1.376 . S
C772 C773 1.388 1_545 S
C773 H760 0.930 . S
C773 C772 1.388 1_565 S
C773 C774 1.390 . S
C774 C773 1.390 . S
C774 C775 1.394 1_565 S
C774 C780 1.468 1_554 S
C775 C770 1.399 . S
C775 C774 1.394 1_545 S
C775 C776 1.516 1_554 S
C776 C775 1.516 1_556 S
C776 C777 1.502 . S
C776 C778 1.561 . S
C776 C779 1.526 1_545 S
C777 H761 0.959 . S
C777 H762 0.959 . S
C777 H763 0.961 . S
C777 C776 1.502 . S
C778 H764 0.960 . S
C778 H765 0.961 . S
C778 H766 0.959 . S
C778 C776 1.561 . S
C779 C776 1.526 1_565 S
C779 C780 1.392 . S
C779 C784 1.390 . S
C780 C774 1.468 1_556 S
C780 C779 1.392 . S
C780 C781 1.399 1_556 S
C781 H767 0.929 . S
C781 C780 1.399 1_554 S
C781 C782 1.385 1_554 S
C782 H768 0.931 . S
C782 C781 1.385 1_556 S
C782 C783 1.389 . S
C783 C782 1.389 . S
C783 C784 1.387 . S
C784 H769 0.930 . S
C784 C779 1.390 . S
C784 C783 1.387 . S
H785 C797 0.930 . S
H786 C799 0.930 . S
H787 C800 0.930 . S
H788 C804 0.959 . S
H789 C804 0.959 . S
H790 C804 0.961 . S
H791 C805 0.960 . S
H792 C805 0.961 . S
H793 C805 0.959 . S
H794 C808 0.929 . S
H795 C809 0.931 . S
H796 C811 0.930 . S
C797 H785 0.930 . S
C797 C798 1.399 . S
C797 C802 1.399 . S
C798 C797 1.399 . S
C798 C799 1.376 . S
C799 H786 0.930 . S
C799 C798 1.376 . S
C799 C800 1.388 . S
C800 H787 0.930 . S
C800 C799 1.388 . S
C800 C801 1.390 . S
C801 C800 1.390 . S
C801 C802 1.394 . S
C801 C807 1.465 1_655 S
C802 C797 1.399 . S
C802 C801 1.394 . S
C802 C803 1.516 . S
C803 C802 1.516 . S
C803 C804 1.502 1_655 S
C803 C805 1.561 . S
C803 C806 1.526 1_655 S
C804 H788 0.959 . S
C804 H789 0.959 . S
C804 H790 0.961 . S
C804 C803 1.502 1_455 S
C805 H791 0.960 . S
C805 H792 0.961 . S
C805 H793 0.959 . S
C805 C803 1.561 . S
C806 C803 1.526 1_455 S
C806 C807 1.396 . S
C806 C811 1.390 . S
C807 C801 1.465 1_455 S
C807 C806 1.396 . S
C807 C808 1.399 . S
C808 H794 0.929 . S
C808 C807 1.399 . S
C808 C809 1.385 . S
C809 H795 0.931 . S
C809 C808 1.385 . S
C809 C810 1.389 . S
C810 C809 1.389 . S
C810 C811 1.387 . S
C811 H796 0.930 . S
C811 C806 1.390 . S
C811 C810 1.387 . S
H812 C824 0.930 . S
H813 C826 0.930 . S
H814 C827 0.930 . S
H815 C831 0.959 . S
H816 C831 0.959 . S
H817 C831 0.961 . S
H818 C832 0.960 . S
H819 C832 0.961 1_545 S
H820 C832 0.959 . S
H821 C835 0.929 1_565 S
H822 C836 0.931 . S
H823 C838 0.930 . S
C824 H812 0.930 . S
C824 C825 1.399 . S
C824 C829 1.399 . S
C825 C824 1.399 . S
C825 C826 1.376 . S
C826 H813 0.930 . S
C826 C825 1.376 . S
C826 C827 1.388 . S
C827 H814 0.930 . S
C827 C826 1.388 . S
C827 C828 1.390 . S
C828 C827 1.390 . S
C828 C829 1.394 . S
C828 C834 1.465 1_565 S
C829 C824 1.399 . S
C829 C828 1.394 . S
C829 C830 1.516 1_565 S
C830 C829 1.516 1_545 S
C830 C831 1.502 . S
C830 C832 1.561 1_545 S
C830 C833 1.526 . S
C831 H815 0.959 . S
C831 H816 0.959 . S
C831 H817 0.961 . S
C831 C830 1.502 . S
C832 H818 0.960 . S
C832 H819 0.961 1_565 S
C832 H820 0.959 . S
C832 C830 1.561 1_565 S
C833 C830 1.526 . S
C833 C834 1.396 . S
C833 C838 1.390 . S
C834 C828 1.465 1_545 S
C834 C833 1.396 . S
C834 C835 1.399 . S
C835 H821 0.929 1_545 S
C835 C834 1.399 . S
C835 C836 1.385 . S
C836 H822 0.931 . S
C836 C835 1.385 . S
C836 C837 1.389 . S
C837 C836 1.389 . S
C837 C838 1.387 . S
C838 H823 0.930 . S
C838 C833 1.390 . S
C838 C837 1.387 . S
H839 C851 0.930 . S
H840 C853 0.930 . S
H841 C854 0.930 . S
H842 C858 0.959 . S
H843 C858 0.959 . S
H844 C858 0.961 . S
H845 C859 0.960 . S
H846 C859 0.961 . S
H847 C859 0.935 1_455 S
H848 C862 0.929 . S
H849 C863 0.931 . S
H850 C865 0.930 . S
C851 H839 0.930 . S
C851 C852 1.399 . S
C851 C856 1.399 . S
C852 C851 1.399 . S
C852 C853 1.376 . S
C853 H840 0.930 . S
C853 C852 1.376 . S
C853 C854 1.388 1_655 S
C854 H841 0.930 . S
C854 C853 1.388 1_455 S
C854 C855 1.390 . S
C855 C854 1.390 . S
C855 C856 1.394 1_455 S
C855 C861 1.465 . S
C856 C851 1.399 . S
C856 C855 1.394 1_655 S
C856 C857 1.516 1_556 S
C857 C856 1.516 1_554 S
C857 C858 1.502 . S
C857 C859 1.561 . S
C857 C860 1.526 1_655 S
C858 H842 0.959 . S
C858 H843 0.959 . S
C858 H844 0.961 . S
C858 C857 1.502 . S
C859 H845 0.960 . S
C859 H846 0.961 . S
C859 H847 0.935 1_655 S
C859 C857 1.561 . S
C860 C857 1.526 1_455 S
C860 C861 1.396 1_554 S
C860 C865 1.390 . S
C861 C855 1.465 . S
C861 C860 1.396 1_556 S
C861 C862 1.399 . S
C862 H848 0.929 . S
C862 C861 1.399 . S
C862 C863 1.385 1_556 S
C863 H849 0.931 . S
C863 C862 1.385 1_554 S
C863 C864 1.389 . S
C864 C863 1.389 . S
C864 C865 1.387 . S
C865 H850 0.930 . S
C865 C860 1.390 . S
C865 C864 1.387 . S
H866 C878 0.930 . S
H867 C880 0.930 . S
H868 C881 0.930 . S
H869 C885 0.959 . S
H870 C885 0.959 . S
H871 C885 0.961 . S
H872 C886 0.960 . S
H873 C886 0.961 . S
H874 C886 0.959 . S
H875 C889 0.929 . S
H876 C890 0.931 . S
H877 C892 0.930 . S
C878 H866 0.930 . S
C878 C879 1.399 . S
C878 C883 1.399 . S
C879 C878 1.399 . S
C879 C880 1.376 . S
C880 H867 0.930 . S
C880 C879 1.376 . S
C880 C881 1.388 . S
C881 H868 0.930 . S
C881 C880 1.388 . S
C881 C882 1.390 . S
C882 C881 1.390 . S
C882 C883 1.394 . S
C882 C888 1.465 . S
C883 C878 1.399 . S
C883 C882 1.394 . S
C883 C884 1.516 . S
C884 C883 1.516 . S
C884 C885 1.502 . S
C884 C886 1.561 . S
C884 C887 1.526 . S
C885 H869 0.959 . S
C885 H870 0.959 . S
C885 H871 0.961 . S
C885 C884 1.502 . S
C886 H872 0.960 . S
C886 H873 0.961 . S
C886 H874 0.959 . S
C886 C884 1.561 . S
C887 C884 1.526 . S
C887 C888 1.396 . S
C887 C892 1.390 . S
C888 C882 1.465 . S
C888 C887 1.396 . S
C888 C889 1.399 . S
C889 H875 0.929 . S
C889 C888 1.399 . S
C889 C890 1.385 . S
C890 H876 0.931 . S
C890 C889 1.385 . S
C890 C891 1.389 . S
C891 C890 1.389 . S
C891 C892 1.387 . S
C892 H877 0.930 . S
C892 C887 1.390 . S
C892 C891 1.387 . S
H893 C905 0.930 . S
H894 C907 0.930 . S
H895 C908 0.930 . S
H896 C912 0.959 . S
H897 C912 0.959 . S
H898 C912 0.961 . S
H899 C913 0.960 . S
H900 C913 0.961 . S
H901 C913 0.959 . S
H902 C916 0.929 . S
H903 C917 0.931 . S
H904 C919 0.930 . S
C905 H893 0.930 . S
C905 C906 1.399 . S
C905 C910 1.399 . S
C906 C905 1.399 . S
C906 C907 1.376 . S
C907 H894 0.930 . S
C907 C906 1.376 . S
C907 C908 1.388 . S
C908 H895 0.930 . S
C908 C907 1.388 . S
C908 C909 1.390 . S
C909 C908 1.390 . S
C909 C910 1.394 . S
C909 C915 1.465 . S
C910 C905 1.399 . S
C910 C909 1.394 . S
C910 C911 1.516 . S
C911 C910 1.516 . S
C911 C912 1.502 . S
C911 C913 1.561 . S
C911 C914 1.526 . S
C912 H896 0.959 . S
C912 H897 0.959 . S
C912 H898 0.961 . S
C912 C911 1.502 . S
C913 H899 0.960 . S
C913 H900 0.961 . S
C913 H901 0.959 . S
C913 C911 1.561 . S
C914 C911 1.526 . S
C914 C915 1.396 . S
C914 C919 1.390 . S
C915 C909 1.465 . S
C915 C914 1.396 . S
C915 C916 1.399 . S
C916 H902 0.929 . S
C916 C915 1.399 . S
C916 C917 1.385 . S
C917 H903 0.931 . S
C917 C916 1.385 . S
C917 C918 1.389 . S
C918 C917 1.389 . S
C918 C919 1.387 . S
C919 H904 0.930 . S
C919 C914 1.390 . S
C919 C918 1.387 . S
H920 C932 0.930 . S
H921 C934 0.930 . S
H922 C935 0.930 . S
H923 C939 0.959 . S
H924 C939 0.959 . S
H925 C939 0.961 . S
H926 C940 0.960 . S
H927 C940 0.961 . S
H928 C940 0.959 . S
H929 C943 0.929 . S
H930 C944 0.931 . S
H931 C946 0.930 . S
C932 H920 0.930 . S
C932 C933 1.399 . S
C932 C937 1.399 . S
C933 C932 1.399 . S
C933 C934 1.376 . S
C934 H921 0.930 . S
C934 C933 1.376 . S
C934 C935 1.388 . S
C935 H922 0.930 . S
C935 C934 1.388 . S
C935 C936 1.390 . S
C936 C935 1.390 . S
C936 C937 1.394 . S
C936 C942 1.465 . S
C937 C932 1.399 . S
C937 C936 1.394 . S
C937 C938 1.516 . S
C938 C937 1.516 . S
C938 C939 1.502 . S
C938 C940 1.561 . S
C938 C941 1.526 . S
C939 H923 0.959 . S
C939 H924 0.959 . S
C939 H925 0.961 . S
C939 C938 1.502 . S
C940 H926 0.960 . S
C940 H927 0.961 . S
C940 H928 0.959 . S
C940 C938 1.561 . S
C941 C938 1.526 . S
C941 C942 1.396 . S
C941 C946 1.390 . S
C942 C936 1.465 . S
C942 C941 1.396 . S
C942 C943 1.399 . S
C943 H929 0.929 . S
C943 C942 1.399 . S
C943 C944 1.385 . S
C944 H930 0.931 . S
C944 C943 1.385 . S
C944 C945 1.389 . S
C945 C944 1.389 . S
C945 C946 1.387 . S
C946 H931 0.930 . S
C946 C941 1.390 . S
C946 C945 1.387 . S
H947 C959 0.930 . S
H948 C961 0.930 . S
H949 C962 0.930 . S
H950 C966 0.959 . S
H951 C966 0.959 . S
H952 C966 0.961 . S
H953 C967 0.960 . S
H954 C967 0.961 . S
H955 C967 0.959 . S
H956 C970 0.929 . S
H957 C971 0.931 . S
H958 C973 0.930 . S
C959 H947 0.930 . S
C959 C960 1.399 . S
C959 C964 1.399 . S
C960 C959 1.399 . S
C960 C961 1.376 . S
C961 H948 0.930 . S
C961 C960 1.376 . S
C961 C962 1.388 . S
C962 H949 0.930 . S
C962 C961 1.388 . S
C962 C963 1.390 . S
C963 C962 1.390 . S
C963 C964 1.394 . S
C963 C969 1.465 . S
C964 C959 1.399 . S
C964 C963 1.394 . S
C964 C965 1.516 1_556 S
C965 C964 1.516 1_554 S
C965 C966 1.502 . S
C965 C967 1.561 . S
C965 C968 1.526 . S
C966 H950 0.959 . S
C966 H951 0.959 . S
C966 H952 0.961 . S
C966 C965 1.502 . S
C967 H953 0.960 . S
C967 H954 0.961 . S
C967 H955 0.959 . S
C967 C965 1.561 . S
C968 C965 1.526 . S
C968 C969 1.396 1_554 S
C968 C973 1.390 . S
C969 C963 1.465 . S
C969 C968 1.396 1_556 S
C969 C970 1.399 . S
C970 H956 0.929 . S
C970 C969 1.399 . S
C970 C971 1.385 1_556 S
C971 H957 0.931 . S
C971 C970 1.385 1_554 S
C971 C972 1.389 . S
C972 C971 1.389 . S
C972 C973 1.387 . S
C973 H958 0.930 . S
C973 C968 1.390 . S
C973 C972 1.387 . S
H974 C986 0.930 . S
H975 C988 0.930 . S
H976 C989 0.943 . S
H977 C993 0.959 . S
H978 C993 0.959 . S
H979 C993 0.961 . S
H980 C994 0.960 . S
H981 C994 0.961 . S
H982 C994 0.959 . S
H983 C997 0.929 . S
H984 C998 0.931 . S
H985 C1000 0.930 . S
C986 H974 0.930 . S
C986 C987 1.399 . S
C986 C991 1.399 . S
C987 C986 1.399 . S
C987 C988 1.376 . S
C988 H975 0.930 . S
C988 C987 1.376 . S
C988 C989 1.376 1_565 S
C989 H976 0.943 . S
C989 C988 1.376 1_545 S
C989 C990 1.389 1_545 S
C990 C989 1.389 1_565 S
C990 C991 1.394 . S
C990 C996 1.465 1_565 S
C991 C986 1.399 . S
C991 C990 1.394 . S
C991 C992 1.516 . S
C992 C991 1.516 . S
C992 C993 1.502 . S
C992 C994 1.561 . S
C992 C995 1.526 1_565 S
C993 H977 0.959 . S
C993 H978 0.959 . S
C993 H979 0.961 . S
C993 C992 1.502 . S
C994 H980 0.960 . S
C994 H981 0.961 . S
C994 H982 0.959 . S
C994 C992 1.561 . S
C995 C992 1.526 1_545 S
C995 C996 1.396 . S
C995 C1000 1.390 . S
C996 C990 1.465 1_545 S
C996 C995 1.396 . S
C996 C997 1.399 . S
C997 H983 0.929 . S
C997 C996 1.399 . S
C997 C998 1.385 . S
C998 H984 0.931 . S
C998 C997 1.385 . S
C998 C999 1.389 . S
C999 C998 1.389 . S
C999 C1000 1.387 . S
C1000 H985 0.930 . S
C1000 C995 1.390 . S
C1000 C999 1.387 . S
H1001 C1013 0.930 . S
H1002 C1015 0.930 . S
H1003 C1016 0.930 . S
H1004 C1020 0.959 . S
H1005 C1020 0.959 . S
H1006 C1020 0.961 . S
H1007 C1021 0.960 . S
H1008 C1021 0.961 . S
H1009 C1021 0.959 . S
H1010 C1024 0.957 . S
H1011 C1025 0.931 . S
H1012 C1027 0.930 . S
C1013 H1001 0.930 . S
C1013 C1014 1.399 . S
C1013 C1018 1.399 . S
C1014 C1013 1.399 . S
C1014 C1015 1.376 . S
C1015 H1002 0.930 . S
C1015 C1014 1.376 . S
C1015 C1016 1.388 . S
C1016 H1003 0.930 . S
C1016 C1015 1.388 . S
C1016 C1017 1.390 . S
C1017 C1016 1.390 . S
C1017 C1018 1.394 . S
C1017 C1023 1.465 1_665 S
C1018 C1013 1.399 . S
C1018 C1017 1.394 . S
C1018 C1019 1.516 1_665 S
C1019 C1018 1.516 1_445 S
C1019 C1020 1.502 . S
C1019 C1021 1.561 1_455 S
C1019 C1022 1.526 . S
C1020 H1004 0.959 . S
C1020 H1005 0.959 . S
C1020 H1006 0.961 . S
C1020 C1019 1.502 . S
C1021 H1007 0.960 . S
C1021 H1008 0.961 . S
C1021 H1009 0.959 . S
C1021 C1019 1.561 1_655 S
C1022 C1019 1.526 . S
C1022 C1023 1.396 . S
C1022 C1027 1.390 . S
C1023 C1017 1.465 1_445 S
C1023 C1022 1.396 . S
C1023 C1024 1.396 1_545 S
C1024 H1010 0.957 . S
C1024 C1023 1.396 1_565 S
C1024 C1025 1.361 1_565 S
C1025 H1011 0.931 . S
C1025 C1024 1.361 1_545 S
C1025 C1026 1.389 . S
C1026 C1025 1.389 . S
C1026 C1027 1.387 . S
C1027 H1012 0.930 . S
C1027 C1022 1.390 . S
C1027 C1026 1.387 . S
H1028 C1040 0.930 . S
H1029 C1042 0.930 . S
H1030 C1043 0.930 . S
H1031 C1047 0.959 . S
H1032 C1047 0.959 . S
H1033 C1047 0.961 . S
H1034 C1048 0.960 . S
H1035 C1048 0.961 . S
H1036 C1048 0.959 . S
H1037 C1051 0.929 . S
H1038 C1052 0.931 . S
H1039 C1054 0.930 . S
C1040 H1028 0.930 . S
C1040 C1041 1.399 . S
C1040 C1045 1.399 . S
C1041 C1040 1.399 . S
C1041 C1042 1.376 . S
C1042 H1029 0.930 . S
C1042 C1041 1.376 . S
C1042 C1043 1.388 . S
C1043 H1030 0.930 . S
C1043 C1042 1.388 . S
C1043 C1044 1.390 . S
C1044 C1043 1.390 . S
C1044 C1045 1.394 . S
C1044 C1050 1.465 1_655 S
C1045 C1040 1.399 . S
C1045 C1044 1.394 . S
C1045 C1046 1.516 1_655 S
C1046 C1045 1.516 1_455 S
C1046 C1047 1.502 1_455 S
C1046 C1048 1.561 . S
C1046 C1049 1.526 . S
C1047 H1031 0.959 . S
C1047 H1032 0.959 . S
C1047 H1033 0.961 . S
C1047 C1046 1.502 1_655 S
C1048 H1034 0.960 . S
C1048 H1035 0.961 . S
C1048 H1036 0.959 . S
C1048 C1046 1.561 . S
C1049 C1046 1.526 . S
C1049 C1050 1.396 . S
C1049 C1054 1.390 . S
C1050 C1044 1.465 1_455 S
C1050 C1049 1.396 . S
C1050 C1051 1.399 . S
C1051 H1037 0.929 . S
C1051 C1050 1.399 . S
C1051 C1052 1.385 . S
C1052 H1038 0.931 . S
C1052 C1051 1.385 . S
C1052 C1053 1.389 . S
C1053 C1052 1.389 . S
C1053 C1054 1.387 . S
C1054 H1039 0.930 . S
C1054 C1049 1.390 . S
C1054 C1053 1.387 . S
H1055 C1067 0.930 . S
H1056 C1069 0.930 . S
H1057 C1070 0.930 . S
H1058 C1074 0.959 . S
H1059 C1074 0.959 . S
H1060 C1074 0.961 . S
H1061 C1075 0.960 . S
H1062 C1075 0.961 . S
H1063 C1075 0.959 . S
H1064 C1078 0.929 . S
H1065 C1079 0.931 . S
H1066 C1081 0.930 . S
C1067 H1055 0.930 . S
C1067 C1068 1.399 . S
C1067 C1072 1.399 . S
C1068 C1067 1.399 . S
C1068 C1069 1.376 . S
C1069 H1056 0.930 . S
C1069 C1068 1.376 . S
C1069 C1070 1.388 . S
C1070 H1057 0.930 . S
C1070 C1069 1.388 . S
C1070 C1071 1.390 . S
C1071 C1070 1.390 . S
C1071 C1072 1.394 . S
C1071 C1077 1.465 . S
C1072 C1067 1.399 . S
C1072 C1071 1.394 . S
C1072 C1073 1.516 . S
C1073 C1072 1.516 . S
C1073 C1074 1.502 . S
C1073 C1075 1.561 . S
C1073 C1076 1.526 . S
C1074 H1058 0.959 . S
C1074 H1059 0.959 . S
C1074 H1060 0.961 . S
C1074 C1073 1.502 . S
C1075 H1061 0.960 . S
C1075 H1062 0.961 . S
C1075 H1063 0.959 . S
C1075 C1073 1.561 . S
C1076 C1073 1.526 . S
C1076 C1077 1.396 . S
C1076 C1081 1.390 . S
C1077 C1071 1.465 . S
C1077 C1076 1.396 . S
C1077 C1078 1.399 . S
C1078 H1064 0.929 . S
C1078 C1077 1.399 . S
C1078 C1079 1.385 . S
C1079 H1065 0.931 . S
C1079 C1078 1.385 . S
C1079 C1080 1.389 . S
C1080 C1079 1.389 . S
C1080 C1081 1.387 . S
C1081 H1066 0.930 . S
C1081 C1076 1.390 . S
C1081 C1080 1.387 . S
H1082 C1094 0.930 . S
H1083 C1096 0.930 . S
H1084 C1097 0.930 . S
H1085 C1101 0.959 . S
H1086 C1101 0.959 . S
H1087 C1101 0.961 . S
H1088 C1102 0.960 . S
H1089 C1102 0.961 . S
H1090 C1102 0.959 . S
H1091 C1105 0.929 . S
H1092 C1106 0.931 . S
H1093 C1108 0.930 . S
C1094 H1082 0.930 . S
C1094 C1095 1.399 . S
C1094 C1099 1.399 . S
C1095 C1094 1.399 . S
C1095 C1096 1.376 . S
C1096 H1083 0.930 . S
C1096 C1095 1.376 . S
C1096 C1097 1.388 . S
C1097 H1084 0.930 . S
C1097 C1096 1.388 . S
C1097 C1098 1.390 . S
C1098 C1097 1.390 . S
C1098 C1099 1.394 . S
C1098 C1104 1.465 1_554 S
C1099 C1094 1.399 . S
C1099 C1098 1.394 . S
C1099 C1100 1.516 1_554 S
C1100 C1099 1.516 1_556 S
C1100 C1101 1.502 . S
C1100 C1102 1.561 1_556 S
C1100 C1103 1.526 . S
C1101 H1085 0.959 . S
C1101 H1086 0.959 . S
C1101 H1087 0.961 . S
C1101 C1100 1.502 . S
C1102 H1088 0.960 . S
C1102 H1089 0.961 . S
C1102 H1090 0.959 . S
C1102 C1100 1.561 1_554 S
C1103 C1100 1.526 . S
C1103 C1104 1.396 . S
C1103 C1108 1.390 . S
C1104 C1098 1.465 1_556 S
C1104 C1103 1.396 . S
C1104 C1105 1.399 . S
C1105 H1091 0.929 . S
C1105 C1104 1.399 . S
C1105 C1106 1.385 . S
C1106 H1092 0.931 . S
C1106 C1105 1.385 . S
C1106 C1107 1.389 . S
C1107 C1106 1.389 . S
C1107 C1108 1.387 . S
C1108 H1093 0.930 . S
C1108 C1103 1.390 . S
C1108 C1107 1.387 . S
H1109 C1121 0.930 . S
H1110 C1123 0.930 . S
H1111 C1124 0.930 . S
H1112 C1128 0.959 . S
H1113 C1128 0.959 . S
H1114 C1128 0.961 . S
H1115 C1129 0.960 . S
H1116 C1129 0.961 . S
H1117 C1129 0.959 . S
H1118 C1132 0.929 . S
H1119 C1133 0.931 . S
H1120 C1135 0.930 . S
C1121 H1109 0.930 . S
C1121 C1122 1.399 . S
C1121 C1126 1.399 . S
C1122 C1121 1.399 . S
C1122 C1123 1.376 . S
C1123 H1110 0.930 . S
C1123 C1122 1.376 . S
C1123 C1124 1.388 . S
C1124 H1111 0.930 . S
C1124 C1123 1.388 . S
C1124 C1125 1.390 . S
C1125 C1124 1.390 . S
C1125 C1126 1.394 . S
C1125 C1131 1.465 . S
C1126 C1121 1.399 . S
C1126 C1125 1.394 . S
C1126 C1127 1.516 . S
C1127 C1126 1.516 . S
C1127 C1128 1.502 . S
C1127 C1129 1.561 . S
C1127 C1130 1.526 . S
C1128 H1112 0.959 . S
C1128 H1113 0.959 . S
C1128 H1114 0.961 . S
C1128 C1127 1.502 . S
C1129 H1115 0.960 . S
C1129 H1116 0.961 . S
C1129 H1117 0.959 . S
C1129 C1127 1.561 . S
C1130 C1127 1.526 . S
C1130 C1131 1.396 . S
C1130 C1135 1.390 . S
C1131 C1125 1.465 . S
C1131 C1130 1.396 . S
C1131 C1132 1.399 . S
C1132 H1118 0.929 . S
C1132 C1131 1.399 . S
C1132 C1133 1.385 . S
C1133 H1119 0.931 . S
C1133 C1132 1.385 . S
C1133 C1134 1.389 . S
C1134 C1133 1.389 . S
C1134 C1135 1.387 . S
C1135 H1120 0.930 . S
C1135 C1130 1.390 . S
C1135 C1134 1.387 . S
C717 C497 1.492 . S
C729 C49 1.490 . S
C744 C645 1.495 . S
C756 C108 1.494 . S
C771 C233 1.490 . S
C783 C557 1.491 . S
C798 C321 1.490 . S
C810 C372 1.491 . S
C825 C548 1.494 . S
C837 C29 1.491 . S
C852 C117 1.495 . S
C864 C409 1.492 . S
C879 C489 1.490 . S
C891 C196 1.491 . S
C906 C313 1.490 . S
C918 C665 1.492 . S
C933 C381 1.491 . S
C945 C460 1.495 . S
C960 C145 1.495 . S
C972 C225 1.495 . S
C987 C293 1.495 . S
C999 C205 1.494 . S
C1014 C284 1.490 . S
C1026 C57 1.492 . S
C1041 C137 1.495 . S
C1053 C20 1.495 . S
C1068 C636 1.495 . S
C1080 C577 1.495 . S
C1095 C401 1.494 . S
C1107 C585 1.491 . S
C1122 C469 1.490 . S
C1134 C673 1.492 . S
