# Generated by pormake.
# Topology rkf, (6)-cn, num edge types: 1
# Building blocks:
#     Node 0, Type 0, BuildingBlock: VOLQOD_clean_sbu_1, # of connection points: 6
#     Node 1, Type 0, BuildingBlock: VOLQOD_clean_sbu_1, # of connection points: 6
#     Node 2, Type 0, BuildingBlock: VOLQOD_clean_sbu_1, # of connection points: 6
#     Node 3, Type 0, BuildingBlock: VOLQOD_clean_sbu_1, # of connection points: 6
#     Node 4, Type 0, BuildingBlock: VOLQOD_clean_sbu_1, # of connection points: 6
#     Node 5, Type 0, BuildingBlock: VOLQOD_clean_sbu_1, # of connection points: 6
#     Edge 6, Type (0, 0), BuildingBlock: XIVTED_clean_linker_0, # of connection points: 2
#     Edge 7, Type (0, 0), BuildingBlock: XIVTED_clean_linker_0, # of connection points: 2
#     Edge 8, Type (0, 0), BuildingBlock: XIVTED_clean_linker_0, # of connection points: 2
#     Edge 9, Type (0, 0), BuildingBlock: XIVTED_clean_linker_0, # of connection points: 2
#     Edge 10, Type (0, 0), BuildingBlock: XIVTED_clean_linker_0, # of connection points: 2
#     Edge 11, Type (0, 0), BuildingBlock: XIVTED_clean_linker_0, # of connection points: 2
#     Edge 12, Type (0, 0), BuildingBlock: XIVTED_clean_linker_0, # of connection points: 2
#     Edge 13, Type (0, 0), BuildingBlock: XIVTED_clean_linker_0, # of connection points: 2
#     Edge 14, Type (0, 0), BuildingBlock: XIVTED_clean_linker_0, # of connection points: 2
#     Edge 15, Type (0, 0), BuildingBlock: XIVTED_clean_linker_0, # of connection points: 2
#     Edge 16, Type (0, 0), BuildingBlock: XIVTED_clean_linker_0, # of connection points: 2
#     Edge 17, Type (0, 0), BuildingBlock: XIVTED_clean_linker_0, # of connection points: 2
#     Edge 18, Type (0, 0), BuildingBlock: XIVTED_clean_linker_0, # of connection points: 2
#     Edge 19, Type (0, 0), BuildingBlock: XIVTED_clean_linker_0, # of connection points: 2
#     Edge 20, Type (0, 0), BuildingBlock: XIVTED_clean_linker_0, # of connection points: 2
#     Edge 21, Type (0, 0), BuildingBlock: XIVTED_clean_linker_0, # of connection points: 2
#     Edge 22, Type (0, 0), BuildingBlock: XIVTED_clean_linker_0, # of connection points: 2
#     Edge 23, Type (0, 0), BuildingBlock: XIVTED_clean_linker_0, # of connection points: 2
# Relax obj value: 0.814
# Max RMSD: 0.323
# Mean RMSD: 0.323
data_MOF--net-rkf--node1-VOLQOD_clean_sbu_1--edge1-XIVTED_clean_linker_0
_symmetry_space_group_name_H-M    P1
_symmetry_Int_Tables_number       1
_symmetry_cell_setting            triclinic
loop_
_symmetry_equiv_pos_as_xyz
'x, y, z'
_cell_length_a     28.05505
_cell_length_b     27.701714
_cell_length_c     37.911866
_cell_angle_alpha  89.819891
_cell_angle_beta   89.870101
_cell_angle_gamma 119.77764
loop_
_atom_site_label
_atom_site_type_symbol
_atom_site_fract_x
_atom_site_fract_y
_atom_site_fract_z
_atom_type_partial_charge
O0 O 0.18674 0.9079 0.97239 0.0
Zn1 Zn 0.2632 0.95625 0.98931 0.0
O2 O 0.28627 0.03339 0.98181 0.0
Zn3 Zn 0.33478 0.06449 0.94229 0.0
Zn4 Zn 0.22338 0.04235 0.97899 0.0
Zn5 Zn 0.32333 0.07165 0.02332 0.0
O6 O 0.41359 0.10942 0.95986 0.0
O7 O 0.40476 0.10025 0.01826 0.0
O8 O 0.31058 0.93561 0.96084 0.0
O9 O 0.33403 0.99907 0.91785 0.0
O10 O 0.30943 0.1097 0.91069 0.0
O11 O 0.23232 0.09211 0.93845 0.0
O12 O 0.21775 0.07719 0.02453 0.0
O13 O 0.25203 0.93662 0.04131 0.0
O14 O 0.30688 0.13288 0.03125 0.0
O15 O 0.28701 0.02041 0.06497 0.0
C16 C 0.14776 0.91841 0.96932 0.0
C17 C 0.43475 0.11561 0.99052 0.0
C18 C 0.26707 0.1158 0.91361 0.0
C19 C 0.32959 0.95374 0.92998 0.0
C20 C 0.25763 0.11787 0.04013 0.0
C21 C 0.25892 0.96763 0.0678 0.0
O22 O 0.1557 0.96768 0.97253 0.0
O23 O 0.14955 0.22069 0.36755 0.0
Zn24 Zn 0.21686 0.21408 0.35909 0.0
O25 O 0.27993 0.28641 0.35668 0.0
Zn26 Zn 0.3176 0.28617 0.31503 0.0
Zn27 Zn 0.25679 0.3403 0.34969 0.0
Zn28 Zn 0.32791 0.30266 0.39598 0.0
O29 O 0.39921 0.33811 0.32011 0.0
O30 O 0.40676 0.33591 0.37845 0.0
O31 O 0.21084 0.17669 0.31221 0.0
O32 O 0.29966 0.2081 0.30707 0.0
O33 O 0.28257 0.30219 0.27349 0.0
O34 O 0.24543 0.34859 0.29769 0.0
O35 O 0.30469 0.40827 0.37812 0.0
O36 O 0.22587 0.17141 0.39838 0.0
O37 O 0.32813 0.36768 0.42057 0.0
O38 O 0.30168 0.23112 0.42701 0.0
C39 C 0.14168 0.26195 0.37125 0.0
C40 C 0.42864 0.35149 0.3479 0.0
C41 C 0.25365 0.32583 0.27094 0.0
C42 C 0.25088 0.17664 0.29626 0.0
C43 C 0.32408 0.40891 0.40871 0.0
C44 C 0.25994 0.18222 0.4234 0.0
O45 O 0.18046 0.31168 0.36748 0.0
O46 O 0.21484 0.30278 0.63597 0.0
Zn47 Zn 0.16567 0.32809 0.65658 0.0
O48 O 0.09034 0.27384 0.64888 0.0
Zn49 Zn 0.059 0.2925 0.61023 0.0
Zn50 Zn 0.08404 0.20258 0.64439 0.0
Zn51 Zn 0.05152 0.26998 0.6908 0.0
O52 O 0.01374 0.3259 0.62904 0.0
O53 O 0.02182 0.32324 0.68732 0.0
O54 O 0.18307 0.39819 0.63068 0.0
O55 O 0.12319 0.3587 0.5866 0.0
O56 O 0.01512 0.22276 0.578 0.0
O57 O 0.03321 0.16218 0.60503 0.0
O58 O 0.05313 0.16155 0.69048 0.0
O59 O 0.18467 0.33161 0.7085 0.0
O60 O 0.99348 0.19078 0.697 0.0
O61 O 0.10169 0.28335 0.73227 0.0
C62 C 0.20613 0.25394 0.63021 0.0
C63 C 1.0071 0.33971 0.66004 0.0
C64 C 0.00933 0.17386 0.58067 0.0
C65 C 0.16616 0.40005 0.59968 0.0
C66 C 0.01182 0.15889 0.70648 0.0
C67 C 0.15376 0.30694 0.73494 0.0
O68 O 0.15848 0.21144 0.63391 0.0
O69 O 0.92621 0.98134 0.04064 0.0
Zn70 Zn 0.93233 0.05528 0.02872 0.0
O71 O 0.86077 0.04617 0.02377 0.0
Zn72 Zn 0.86294 0.08357 0.98118 0.0
Zn73 Zn 0.80896 0.96919 0.01692 0.0
Zn74 Zn 0.84083 0.07735 0.06199 0.0
O75 O 0.80933 0.11238 0.98413 0.0
O76 O 0.80568 0.12063 0.04234 0.0
O77 O 0.9714 0.08457 0.98199 0.0
O78 O 0.94059 0.14309 0.97436 0.0
O79 O 0.85003 0.03178 0.94032 0.0
O80 O 0.80497 0.94843 0.96531 0.0
O81 O 0.73947 0.94983 0.04282 0.0
O82 O 0.97157 0.10936 0.06712 0.0
O83 O 0.77707 0.01158 0.08643 0.0
O84 O 0.90946 0.1247 0.09374 0.0
C85 C 0.88517 0.93247 0.04441 0.0
C86 C 0.79221 0.12684 0.01117 0.0
C87 C 0.82794 0.97905 0.93838 0.0
C88 C 0.97195 0.12448 0.96475 0.0
C89 C 0.73721 0.9669 0.07373 0.0
C90 C 0.95866 0.13304 0.09107 0.0
O91 O 0.83652 0.92201 0.03818 0.0
O92 O 0.83546 0.94401 0.29952 0.0
Zn93 Zn 0.80718 0.86854 0.32013 0.0
O94 O 0.8594 0.84404 0.31368 0.0
Zn95 Zn 0.84088 0.79367 0.27517 0.0
Zn96 Zn 0.93106 0.90697 0.30977 0.0
Zn97 Zn 0.85968 0.80773 0.35615 0.0
O98 O 0.80529 0.71457 0.29431 0.0
O99 O 0.80549 0.72536 0.35251 0.0
O100 O 0.73866 0.81853 0.29356 0.0
O101 O 0.77771 0.79531 0.25028 0.0
O102 O 0.91048 0.81651 0.24384 0.0
O103 O 0.97135 0.89405 0.27097 0.0
O104 O 0.9691 0.91468 0.35646 0.0
O105 O 0.80111 0.88409 0.37167 0.0
O106 O 0.93656 0.82469 0.36392 0.0
O107 O 0.84588 0.84617 0.39691 0.0
C108 C 0.88446 0.98301 0.2948 0.0
C109 C 0.78989 0.69422 0.32529 0.0
C110 C 0.95939 0.85801 0.24678 0.0
C111 C 0.73736 0.79951 0.26269 0.0
C112 C 0.96905 0.87466 0.37324 0.0
C113 C 0.82351 0.87643 0.39872 0.0
O114 O 0.92534 0.97539 0.29919 0.0
O115 O 0.16589 0.98142 0.69939 0.0
Zn116 Zn 0.09102 0.91464 0.69208 0.0
O117 O 0.09733 0.84954 0.6883 0.0
Zn118 Zn 0.05722 0.81295 0.64723 0.0
Zn119 Zn 0.17249 0.87081 0.67935 0.0
Zn120 Zn 0.06693 0.80048 0.72776 0.0
O121 O 0.02753 0.72996 0.65169 0.0
O122 O 0.0211 0.72093 0.71016 0.0
O123 O 0.05806 0.92243 0.64648 0.0
O124 O 0.99864 0.83301 0.64177 0.0
O125 O 0.10615 0.84938 0.60489 0.0
O126 O 0.18973 0.88333 0.62704 0.0
O127 O 0.19158 0.82054 0.70637 0.0
O128 O 0.04216 0.90586 0.73257 0.0
O129 O 0.13176 0.7998 0.75086 0.0
O130 O 0.02381 0.82722 0.76006 0.0
C131 C 0.21393 0.98753 0.7018 0.0
C132 C 0.01341 0.6995 0.67942 0.0
C133 C 0.15816 0.87734 0.60125 0.0
C134 C 0.01665 0.88284 0.63125 0.0
C135 C 0.17507 0.80231 0.73762 0.0
C136 C 0.01858 0.87064 0.75737 0.0
O137 O 0.22253 0.94713 0.69714 0.0
H138 H 0.96057 0.92314 0.08499 0.0
H139 H 0.11048 0.83268 0.0155 0.0
H140 H 0.83589 0.83755 0.00646 0.0
H141 H 0.05691 0.9023 0.93322 0.0
H142 H 0.01878 0.79013 0.04192 0.0
H143 H 1.00365 0.86903 0.06769 0.0
C144 C 0.94084 0.89098 0.06529 0.0
C145 C 0.89578 0.88575 0.04639 0.0
C146 C 0.02627 0.81186 0.01693 0.0
C147 C 0.94601 0.82606 0.02527 0.0
C148 C 0.07846 0.83607 0.00172 0.0
C149 C 0.09126 0.87242 0.97285 0.0
C150 C 0.9873 0.82387 0.00262 0.0
C151 C 0.04866 0.8756 0.95602 0.0
C152 C 0.96516 0.85974 0.05546 0.0
C153 C 0.87142 0.84342 0.02117 0.0
N154 N 0.99856 0.85259 0.97165 0.0
N155 N 0.89852 0.81709 0.00998 0.0
H156 H 0.96289 0.0711 0.2572 0.0
H157 H 0.05312 0.18767 0.40991 0.0
H158 H 0.83142 0.02528 0.33222 0.0
H159 H 0.10167 0.30825 0.32586 0.0
H160 H 0.96057 0.13897 0.38581 0.0
H161 H 1.00334 0.16745 0.27636 0.0
C162 C 0.94127 0.08187 0.27655 0.0
C163 C 0.89486 0.04038 0.29391 0.0
C164 C 0.99057 0.17776 0.37358 0.0
C165 C 0.94208 0.14919 0.3172 0.0
C166 C 0.04342 0.20547 0.38744 0.0
C167 C 0.08499 0.25085 0.3692 0.0
C168 C 0.98094 0.19383 0.34033 0.0
C169 C 0.07059 0.27254 0.34022 0.0
C170 C 0.96413 0.13689 0.28746 0.0
C171 C 0.86802 0.05627 0.3187 0.0
N172 N 0.02024 0.24214 0.32546 0.0
N173 N 0.89348 0.10921 0.33095 0.0
H174 H 0.30066 0.02532 0.65718 0.0
H175 H 0.21978 0.18174 0.58831 0.0
H176 H 0.23147 0.07865 0.73965 0.0
H177 H 0.29768 0.30338 0.67025 0.0
H178 H 0.27346 0.13856 0.60577 0.0
H179 H 0.34673 0.11971 0.63292 0.0
C180 C 0.29791 0.05767 0.67148 0.0
C181 C 0.26074 0.04423 0.69964 0.0
C182 C 0.28128 0.17655 0.61881 0.0
C183 C 0.31304 0.15118 0.67221 0.0
C184 C 0.25026 0.20093 0.60885 0.0
C185 C 0.25332 0.2449 0.6286 0.0
C186 C 0.3124 0.19429 0.64998 0.0
C187 C 0.29351 0.26861 0.65488 0.0
C188 C 0.32416 0.11144 0.6575 0.0
C189 C 0.25862 0.08736 0.71725 0.0
N190 N 0.31958 0.24122 0.6661 0.0
N191 N 0.28345 0.13898 0.70271 0.0
H192 H 0.3282 0.17678 0.85529 0.0
H193 H 0.10259 0.25894 0.79755 0.0
H194 H 0.18036 0.13457 0.91405 0.0
H195 H 0.25722 0.32026 0.74274 0.0
H196 H 0.13386 0.21745 0.84207 0.0
H197 H 0.30573 0.23198 0.8145 0.0
C198 C 0.29127 0.17913 0.85974 0.0
C199 C 0.25622 0.15062 0.88824 0.0
C200 C 0.16145 0.24073 0.82065 0.0
C201 C 0.23033 0.21383 0.84177 0.0
C202 C 0.1437 0.26496 0.79527 0.0
C203 C 0.17726 0.29354 0.76625 0.0
C204 C 0.21309 0.24439 0.81702 0.0
C205 C 0.22996 0.29909 0.76472 0.0
C206 C 0.27852 0.21078 0.83651 0.0
C207 C 0.20886 0.15545 0.89257 0.0
N208 N 0.24595 0.27419 0.78944 0.0
N209 N 0.19739 0.18604 0.86967 0.0
H210 H 0.26165 0.2833 0.20736 0.0
H211 H 0.95256 0.18789 0.15094 0.0
H212 H 0.1617 0.33646 0.26339 0.0
H213 H 0.06694 0.16273 0.0881 0.0
H214 H 0.02783 0.24451 0.19196 0.0
H215 H 0.19108 0.24253 0.1622 0.0
C216 C 0.22555 0.28778 0.20976 0.0
C217 C 0.21807 0.31379 0.23931 0.0
C218 C 0.03628 0.22684 0.16897 0.0
C219 C 0.13563 0.26536 0.18782 0.0
C220 C 0.99329 0.19444 0.14559 0.0
C221 C 1.00297 0.16999 0.116 0.0
C222 C 0.08924 0.23471 0.16274 0.0
C223 C 0.05687 0.18011 0.11054 0.0
C224 C 0.18484 0.26397 0.18401 0.0
C225 C 0.1697 0.31735 0.241 0.0
N226 N 0.0975 0.2112 0.13363 0.0
N227 N 0.13006 0.29275 0.21593 0.0
H228 H 0.99064 0.06742 0.58136 0.0
H229 H 0.81059 0.96829 0.40544 0.0
H230 H 0.94956 0.1753 0.52232 0.0
H231 H 0.86805 0.8717 0.46215 0.0
H232 H 0.85084 0.04013 0.45089 0.0
H233 H 0.93762 0.99289 0.54058 0.0
C234 C 0.97034 0.07569 0.55984 0.0
C235 C 0.97507 0.1284 0.55543 0.0
C236 C 0.85382 1.0028 0.45364 0.0
C237 C 0.91316 0.04153 0.50802 0.0
C238 C 0.83027 0.9613 0.42788 0.0
C239 C 0.8356 0.91341 0.42987 0.0
C240 C 0.8828 0.99642 0.48174 0.0
C241 C 0.86252 0.90753 0.45939 0.0
C242 C 0.93979 0.03264 0.53644 0.0
C243 C 0.94731 0.13563 0.52684 0.0
N244 N 0.8853 0.94857 0.48388 0.0
N245 N 0.91767 0.09273 0.50415 0.0
H246 H 0.81522 0.87434 0.93136 0.0
H247 H 1.00515 0.96161 0.75874 0.0
H248 H 0.87444 0.02979 0.87531 0.0
H249 H 0.95482 0.80718 0.81429 0.0
H250 H 0.95131 0.98267 0.79925 0.0
H251 H 0.85731 0.84406 0.8863 0.0
C252 C 0.83572 0.9016 0.90914 0.0
C253 C 0.84106 0.95486 0.90727 0.0
C254 C 0.95163 0.94399 0.80267 0.0
C255 C 0.89045 0.9206 0.85587 0.0
C256 C 0.98266 0.93176 0.77944 0.0
C257 C 0.98489 0.88229 0.7829 0.0
C258 C 0.92201 0.90668 0.82996 0.0
C259 C 0.95455 0.84579 0.81053 0.0
C260 C 0.86032 0.88441 0.8836 0.0
C261 C 0.86897 0.98841 0.87801 0.0
N262 N 0.92444 0.85876 0.83304 0.0
N263 N 0.89285 0.97092 0.85376 0.0
H264 H 0.95534 0.79847 0.18666 0.0
H265 H 0.26457 0.01774 0.13116 0.0
H266 H 0.06728 0.93808 0.25022 0.0
H267 H 0.16793 0.86369 0.07531 0.0
H268 H 0.19291 0.98621 0.17611 0.0
H269 H 0.03175 0.81912 0.14586 0.0
C270 C 0.99578 0.83309 0.19222 0.0
C271 C 1.00443 0.86665 0.22194 0.0
C272 C 0.18764 0.95875 0.15437 0.0
C273 C 0.09201 0.89045 0.17546 0.0
C274 C 0.22895 0.97665 0.12876 0.0
C275 C 0.22271 0.94338 0.09932 0.0
C276 C 0.13905 0.90736 0.15053 0.0
C277 C 0.17496 0.89071 0.09761 0.0
C278 C 0.03942 0.84481 0.16896 0.0
C279 C 0.058 0.91103 0.22767 0.0
N280 N 0.13469 0.87469 0.12252 0.0
N281 N 0.09928 0.92165 0.20469 0.0
H282 H 0.26147 0.96806 0.5927 0.0
H283 H 0.17141 0.07729 0.42385 0.0
H284 H 0.10587 0.87522 0.53963 0.0
H285 H 0.32261 0.18001 0.47965 0.0
H286 H 0.15167 1.0007 0.4634 0.0
H287 H 0.28983 0.04184 0.54836 0.0
C288 C 0.23379 0.96227 0.5712 0.0
C289 C 0.18108 0.91488 0.57 0.0
C290 C 0.18934 0.03978 0.46706 0.0
C291 C 0.21319 1.0002 0.51942 0.0
C292 C 0.20081 0.08397 0.44439 0.0
C293 C 0.24899 0.13577 0.44823 0.0
C294 C 0.22618 0.04664 0.4941 0.0
C295 C 0.28499 0.14108 0.47562 0.0
C296 C 0.24987 1.00491 0.54611 0.0
C297 C 0.14689 0.91061 0.54173 0.0
N298 N 0.27283 0.09711 0.49752 0.0
N299 N 0.16337 0.95275 0.51785 0.0
H300 H 0.49626 0.1369 0.05075 0.0
H301 H 0.74689 0.13876 0.94971 0.0
H302 H 0.50923 0.13624 0.93727 0.0
H303 H 0.73883 0.15133 0.06282 0.0
H304 H 0.66582 0.14944 0.94417 0.0
H305 H 0.59006 0.15355 0.05528 0.0
C306 C 0.51901 0.14103 0.02674 0.0
C307 C 0.49435 0.13455 -0.00643 0.0
C308 C 0.68224 0.15065 0.97018 0.0
C309 C 0.602 0.15303 -0.00137 0.0
C310 C 0.72875 0.14472 0.97337 0.0
C311 C 0.7496 0.14349 0.00683 0.0
C312 C 0.656 0.15503 0.00065 0.0
C313 C 0.72417 0.15156 0.03647 0.0
C314 C 0.57268 0.15048 0.02936 0.0
C315 C 0.52623 0.14062 0.96343 0.0
N316 N 0.67843 0.15624 0.0327 0.0
N317 N 0.57803 0.14879 0.9667 0.0
H318 H 0.50289 0.40014 0.40161 0.0
H319 H 0.73909 0.61717 0.27294 0.0
H320 H 0.49131 0.39498 0.28799 0.0
H321 H 0.74067 0.63577 0.38604 0.0
H322 H 0.65696 0.5259 0.27863 0.0
H323 H 0.59763 0.47608 0.39669 0.0
C324 C 0.52042 0.41428 0.37558 0.0
C325 C 0.4886 0.39133 0.34515 0.0
C326 C 0.67567 0.54962 0.30225 0.0
C327 C 0.59736 0.47885 0.33942 0.0
C328 C 0.72285 0.60178 0.29907 0.0
C329 C 0.7467 0.63481 0.32903 0.0
C330 C 0.65193 0.53007 0.33564 0.0
C331 C 0.72362 0.61219 0.36215 0.0
C332 C 0.57458 0.45789 0.37283 0.0
C333 C 0.51391 0.41156 0.3122 0.0
N334 N 0.67724 0.56159 0.36451 0.0
N335 N 0.56652 0.45442 0.31023 0.0
H336 H 0.99247 0.38453 0.72104 0.0
H337 H 0.9939 0.63767 0.61902 0.0
H338 H 0.98366 0.3935 0.60771 0.0
H339 H 0.99178 0.62351 0.73253 0.0
H340 H 0.97856 0.54302 0.61455 0.0
H341 H 0.98047 0.46582 0.72601 0.0
C342 C 0.98708 0.4029 0.69719 0.0
C343 C 0.98971 0.38223 0.66387 0.0
C344 C 0.98071 0.56032 0.64045 0.0
C345 C 0.97667 0.47617 0.6694 0.0
C346 C 0.98936 0.61446 0.64304 0.0
C347 C 0.99475 0.63912 0.67622 0.0
C348 C 0.9778 0.5305 0.67123 0.0
C349 C 0.98828 0.60661 0.70636 0.0
C350 C 0.9804 0.44955 0.70006 0.0
C351 C 0.98231 0.40798 0.63398 0.0
N352 N 0.98087 0.5544 0.70313 0.0
N353 N 0.97687 0.4539 0.63744 0.0
H354 H 0.33206 0.20359 0.08018 0.0
H355 H 0.15672 0.13016 0.2561 0.0
H356 H 0.16315 0.07084 0.08025 0.0
H357 H 0.32944 0.18145 0.25176 0.0
H358 H 0.15257 0.1202 0.19162 0.0
H359 H 0.32501 0.21476 0.14333 0.0
C360 C 0.29309 0.1776 0.09328 0.0
C361 C 0.2485 0.13546 0.07502 0.0
C362 C 0.19101 0.13295 0.20508 0.0
C363 C 0.24058 0.14762 0.14731 0.0
C364 C 0.19342 0.13816 0.24181 0.0
C365 C 0.24369 0.15715 0.2594 0.0
C366 C 0.23932 0.14774 0.18611 0.0
C367 C 0.28992 0.16719 0.23944 0.0
C368 C 0.28932 0.18364 0.12937 0.0
C369 C 0.19874 0.10353 0.09338 0.0
N370 N 0.28677 0.16318 0.20386 0.0
N371 N 0.19625 0.10974 0.1288 0.0
H372 H 0.38339 0.43933 0.46973 0.0
H373 H 0.27515 0.47691 0.60898 0.0
H374 H 0.28145 0.47879 0.40454 0.0
H375 H 0.14124 0.42882 0.5361 0.0
H376 H 0.33997 0.5258 0.56113 0.0
H377 H 0.36555 0.48302 0.51936 0.0
C378 C 0.3588 0.45907 0.46557 0.0
C379 C 0.33165 0.45302 0.43354 0.0
C380 C 0.29638 0.50556 0.55578 0.0
C381 C 0.31015 0.50262 0.49039 0.0
C382 C 0.25922 0.47792 0.58316 0.0
C383 C 0.20284 0.44598 0.57591 0.0
C384 C 0.27662 0.50006 0.52116 0.0
C385 C 0.18457 0.4506 0.54238 0.0
C386 C 0.34887 0.48467 0.49397 0.0
C387 C 0.30164 0.48078 0.42923 0.0
N388 N 0.22148 0.47571 0.51593 0.0
N389 N 0.28984 0.50248 0.45778 0.0
H390 H 0.92705 0.14575 0.74815 0.0
H391 H 0.02029 0.07435 0.92762 0.0
H392 H 0.06765 0.12133 0.74767 0.0
H393 H 0.9645 0.19368 0.9167 0.0
H394 H 0.02746 0.07262 0.86304 0.0
H395 H 0.92246 0.13614 0.81212 0.0
C396 C 0.95617 0.13704 0.76137 0.0
C397 C 0.99857 0.13567 0.74258 0.0
C398 C 0.01442 0.09959 0.87508 0.0
C399 C 0.99385 0.12542 0.81573 0.0
C400 C 0.01075 0.10108 0.91183 0.0
C401 C 0.99096 0.13366 0.92766 0.0
C402 C 0.99717 0.13001 0.85439 0.0
C403 C 0.97922 0.16737 0.90582 0.0
C404 C 0.95387 0.13219 0.79788 0.0
C405 C 0.03464 0.12333 0.76117 0.0
N406 N 0.98151 0.16384 0.87032 0.0
N407 N 0.03199 0.11941 0.79699 0.0
H408 H 0.70449 0.99092 0.13615 0.0
H409 H 0.70705 0.74342 0.20007 0.0
H410 H 0.67018 0.85451 0.06663 0.0
H411 H 0.66855 0.84251 0.26954 0.0
H412 H 0.66269 0.76413 0.15197 0.0
H413 H 0.66027 0.92485 0.18417 0.0
C414 C 0.6861 0.94687 0.13073 0.0
C415 C 0.69344 0.92832 0.09791 0.0
C416 C 0.66216 0.77993 0.17797 0.0
C417 C 0.6445 0.85265 0.15288 0.0
C418 C 0.68776 0.76818 0.20546 0.0
C419 C 0.69392 0.79362 0.2383 0.0
C420 C 0.64472 0.81902 0.18324 0.0
C421 C 0.66656 0.82374 0.24419 0.0
C422 C 0.6606 0.90894 0.15817 0.0
C423 C 0.66725 0.87078 0.09197 0.0
N424 N 0.64492 0.83743 0.21653 0.0
N425 N 0.64574 0.83496 0.11959 0.0
H426 H 0.97158 0.79868 0.41778 0.0
H427 H 0.0663 0.97841 0.59074 0.0
H428 H 0.01313 0.97109 0.41221 0.0
H429 H 0.93924 0.80567 0.58787 0.0
H430 H 0.0616 0.98239 0.5262 0.0
H431 H 0.98163 0.80665 0.48155 0.0
C432 C 0.98393 0.83858 0.42984 0.0
C433 C 0.99045 0.88396 0.40963 0.0
C434 C 0.03427 0.94408 0.53998 0.0
C435 C 1.00126 0.89295 0.48268 0.0
C436 C 0.03648 0.94177 0.57676 0.0
C437 C 1.00374 0.89125 0.59475 0.0
C438 C 0.99982 0.89538 0.52141 0.0
C439 C 0.96591 0.84523 0.5752 0.0
C440 C 0.989 0.84285 0.46627 0.0
C441 C 1.00721 0.93487 0.42681 0.0
N442 N 0.9658 0.84812 0.53955 0.0
N443 N 0.01155 0.93794 0.46258 0.0
H444 H 0.2861 0.8461 0.73056 0.0
H445 H 0.28598 0.84099 0.93562 0.0
H446 H 0.14976 0.7423 0.79903 0.0
H447 H 0.38738 0.98066 0.8679 0.0
H448 H 0.26743 0.77864 0.88581 0.0
H449 H 0.34888 0.86357 0.77952 0.0
C450 C 0.26944 0.82508 0.75547 0.0
C451 C 0.21249 0.79488 0.76137 0.0
C452 C 0.29556 0.82273 0.88225 0.0
C453 C 0.28398 0.81476 0.81711 0.0
C454 C 0.30618 0.85848 0.91066 0.0
C455 C 0.33605 0.91629 0.90531 0.0
C456 C 0.3149 0.84524 0.84858 0.0
C457 C 0.36218 0.93641 0.87269 0.0
C458 C 0.30541 0.83509 0.78339 0.0
C459 C 0.19335 0.76775 0.79388 0.0
N460 N 0.3498 0.90098 0.8452 0.0
N461 N 0.229 0.77952 0.82091 0.0
loop_
_geom_bond_atom_site_label_1
_geom_bond_atom_site_label_2
_geom_bond_distance
_geom_bond_site_symmetry_2
_ccdc_geom_bond_type
O0 Zn1 1.953 1_556 S
O0 C16 1.225 1_556 S
Zn1 O0 1.953 1_554 S
Zn1 O2 1.949 . S
Zn1 O8 1.919 1_544 S
Zn1 O13 1.924 1_545 S
O2 Zn1 1.949 . S
O2 Zn3 1.923 1_554 S
O2 Zn4 1.950 . S
O2 Zn5 1.945 . S
Zn3 O2 1.923 1_556 S
Zn3 O6 1.933 . S
Zn3 O9 1.941 . S
Zn3 O10 1.965 . S
Zn4 O2 1.950 . S
Zn4 O11 1.938 1_554 S
Zn4 O12 1.906 . S
Zn4 O22 1.953 . S
Zn5 O2 1.945 . S
Zn5 O7 1.932 . S
Zn5 O14 1.977 . S
Zn5 O15 1.910 1_545 S
O6 Zn3 1.933 . S
O6 C17 1.226 1_556 S
O7 Zn5 1.932 . S
O7 C17 1.307 . S
O8 Zn1 1.919 1_566 S
O8 C19 1.253 . S
O9 Zn3 1.941 . S
O9 C19 1.283 1_545 S
O10 Zn3 1.965 . S
O10 C18 1.303 . S
O11 Zn4 1.938 1_556 S
O11 C18 1.247 . S
O12 Zn4 1.906 . S
O12 C20 1.304 . S
O13 Zn1 1.924 1_565 S
O13 C21 1.311 . S
O14 Zn5 1.977 . S
O14 C20 1.272 . S
O15 Zn5 1.910 1_565 S
O15 C21 1.231 . S
C16 O0 1.225 1_554 S
C16 O22 1.298 . S
C17 O6 1.226 1_554 S
C17 O7 1.307 . S
C18 O10 1.303 . S
C18 O11 1.247 . S
C19 O8 1.253 . S
C19 O9 1.283 1_565 S
C20 O12 1.304 . S
C20 O14 1.272 . S
C21 O13 1.311 . S
C21 O15 1.231 . S
O22 Zn4 1.953 . S
O22 C16 1.298 . S
O23 Zn24 1.953 . S
O23 C39 1.225 . S
Zn24 O23 1.953 . S
Zn24 O25 1.949 . S
Zn24 O31 1.919 . S
Zn24 O36 1.924 . S
O25 Zn24 1.949 . S
O25 Zn26 1.923 . S
O25 Zn27 1.950 . S
O25 Zn28 1.945 . S
Zn26 O25 1.923 . S
Zn26 O29 1.933 . S
Zn26 O32 1.941 . S
Zn26 O33 1.965 . S
Zn27 O25 1.950 . S
Zn27 O34 1.938 . S
Zn27 O35 1.906 . S
Zn27 O45 1.953 . S
Zn28 O25 1.945 . S
Zn28 O30 1.932 . S
Zn28 O37 1.977 . S
Zn28 O38 1.910 . S
O29 Zn26 1.933 . S
O29 C40 1.226 . S
O30 Zn28 1.932 . S
O30 C40 1.307 . S
O31 Zn24 1.919 . S
O31 C42 1.253 . S
O32 Zn26 1.941 . S
O32 C42 1.283 . S
O33 Zn26 1.965 . S
O33 C41 1.303 . S
O34 Zn27 1.938 . S
O34 C41 1.247 . S
O35 Zn27 1.906 . S
O35 C43 1.304 . S
O36 Zn24 1.924 . S
O36 C44 1.311 . S
O37 Zn28 1.977 . S
O37 C43 1.272 . S
O38 Zn28 1.910 . S
O38 C44 1.231 . S
C39 O23 1.225 . S
C39 O45 1.298 . S
C40 O29 1.226 . S
C40 O30 1.307 . S
C41 O33 1.303 . S
C41 O34 1.247 . S
C42 O31 1.253 . S
C42 O32 1.283 . S
C43 O35 1.304 . S
C43 O37 1.272 . S
C44 O36 1.311 . S
C44 O38 1.231 . S
O45 Zn27 1.953 . S
O45 C39 1.298 . S
O46 Zn47 1.953 . S
O46 C62 1.225 . S
Zn47 O46 1.953 . S
Zn47 O48 1.949 . S
Zn47 O54 1.919 . S
Zn47 O59 1.924 . S
O48 Zn47 1.949 . S
O48 Zn49 1.923 . S
O48 Zn50 1.950 1_455 S
O48 Zn51 1.945 . S
Zn49 O48 1.923 . S
Zn49 O52 1.933 . S
Zn49 O55 1.941 . S
Zn49 O56 1.965 1_455 S
Zn50 O48 1.950 1_655 S
Zn50 O57 1.938 . S
Zn50 O58 1.906 . S
Zn50 O68 1.953 1_655 S
Zn51 O48 1.945 . S
Zn51 O53 1.932 . S
Zn51 O60 1.977 1_455 S
Zn51 O61 1.910 . S
O52 Zn49 1.933 . S
O52 C63 1.226 . S
O53 Zn51 1.932 . S
O53 C63 1.307 . S
O54 Zn47 1.919 . S
O54 C65 1.253 . S
O55 Zn49 1.941 . S
O55 C65 1.283 . S
O56 Zn49 1.965 1_655 S
O56 C64 1.303 . S
O57 Zn50 1.938 . S
O57 C64 1.247 . S
O58 Zn50 1.906 . S
O58 C66 1.304 . S
O59 Zn47 1.924 . S
O59 C67 1.311 . S
O60 Zn51 1.977 1_655 S
O60 C66 1.272 . S
O61 Zn51 1.910 . S
O61 C67 1.231 . S
C62 O46 1.225 . S
C62 O68 1.298 . S
C63 O52 1.226 . S
C63 O53 1.307 . S
C64 O56 1.303 . S
C64 O57 1.247 . S
C65 O54 1.253 . S
C65 O55 1.283 . S
C66 O58 1.304 . S
C66 O60 1.272 . S
C67 O59 1.311 . S
C67 O61 1.231 . S
O68 Zn50 1.953 1_455 S
O68 C62 1.298 . S
O69 Zn70 1.953 1_556 S
O69 C85 1.225 1_556 S
Zn70 O69 1.953 1_554 S
Zn70 O71 1.949 . S
Zn70 O77 1.919 1_554 S
Zn70 O82 1.924 . S
O71 Zn70 1.949 . S
O71 Zn72 1.923 1_554 S
O71 Zn73 1.950 1_545 S
O71 Zn74 1.945 . S
Zn72 O71 1.923 1_556 S
Zn72 O75 1.933 . S
Zn72 O78 1.941 . S
Zn72 O79 1.965 1_545 S
Zn73 O71 1.950 1_565 S
Zn73 O80 1.938 1_554 S
Zn73 O81 1.906 . S
Zn73 O91 1.953 . S
Zn74 O71 1.945 . S
Zn74 O76 1.932 . S
Zn74 O83 1.977 1_545 S
Zn74 O84 1.910 . S
O75 Zn72 1.933 . S
O75 C86 1.226 1_556 S
O76 Zn74 1.932 . S
O76 C86 1.307 . S
O77 Zn70 1.919 1_556 S
O77 C88 1.253 . S
O78 Zn72 1.941 . S
O78 C88 1.283 . S
O79 Zn72 1.965 1_565 S
O79 C87 1.303 . S
O80 Zn73 1.938 1_556 S
O80 C87 1.247 . S
O81 Zn73 1.906 . S
O81 C89 1.304 . S
O82 Zn70 1.924 . S
O82 C90 1.311 . S
O83 Zn74 1.977 1_565 S
O83 C89 1.272 . S
O84 Zn74 1.910 . S
O84 C90 1.231 . S
C85 O69 1.225 1_554 S
C85 O91 1.298 1_545 S
C86 O75 1.226 1_554 S
C86 O76 1.307 . S
C87 O79 1.303 . S
C87 O80 1.247 . S
C88 O77 1.253 . S
C88 O78 1.283 . S
C89 O81 1.304 . S
C89 O83 1.272 . S
C90 O82 1.311 . S
C90 O84 1.231 . S
O91 Zn73 1.953 . S
O91 C85 1.298 1_565 S
O92 Zn93 1.953 . S
O92 C108 1.225 . S
Zn93 O92 1.953 . S
Zn93 O94 1.949 . S
Zn93 O100 1.919 . S
Zn93 O105 1.924 . S
O94 Zn93 1.949 . S
O94 Zn95 1.923 . S
O94 Zn96 1.950 . S
O94 Zn97 1.945 . S
Zn95 O94 1.923 . S
Zn95 O98 1.933 . S
Zn95 O101 1.941 . S
Zn95 O102 1.965 . S
Zn96 O94 1.950 . S
Zn96 O103 1.938 . S
Zn96 O104 1.906 . S
Zn96 O114 1.953 . S
Zn97 O94 1.945 . S
Zn97 O99 1.932 . S
Zn97 O106 1.977 . S
Zn97 O107 1.910 . S
O98 Zn95 1.933 . S
O98 C109 1.226 . S
O99 Zn97 1.932 . S
O99 C109 1.307 . S
O100 Zn93 1.919 . S
O100 C111 1.253 . S
O101 Zn95 1.941 . S
O101 C111 1.283 . S
O102 Zn95 1.965 . S
O102 C110 1.303 . S
O103 Zn96 1.938 . S
O103 C110 1.247 . S
O104 Zn96 1.906 . S
O104 C112 1.304 . S
O105 Zn93 1.924 . S
O105 C113 1.311 . S
O106 Zn97 1.977 . S
O106 C112 1.272 . S
O107 Zn97 1.910 . S
O107 C113 1.231 . S
C108 O92 1.225 . S
C108 O114 1.298 . S
C109 O98 1.226 . S
C109 O99 1.307 . S
C110 O102 1.303 . S
C110 O103 1.247 . S
C111 O100 1.253 . S
C111 O101 1.283 . S
C112 O104 1.304 . S
C112 O106 1.272 . S
C113 O105 1.311 . S
C113 O107 1.231 . S
O114 Zn96 1.953 . S
O114 C108 1.298 . S
O115 Zn116 1.953 . S
O115 C131 1.225 . S
Zn116 O115 1.953 . S
Zn116 O117 1.949 . S
Zn116 O123 1.919 1_455 S
Zn116 O128 1.924 1_455 S
O117 Zn116 1.949 . S
O117 Zn118 1.923 . S
O117 Zn119 1.950 . S
O117 Zn120 1.945 . S
Zn118 O117 1.923 . S
Zn118 O121 1.933 . S
Zn118 O124 1.941 . S
Zn118 O125 1.965 . S
Zn119 O117 1.950 . S
Zn119 O126 1.938 . S
Zn119 O127 1.906 . S
Zn119 O137 1.953 . S
Zn120 O117 1.945 . S
Zn120 O122 1.932 . S
Zn120 O129 1.977 . S
Zn120 O130 1.910 . S
O121 Zn118 1.933 . S
O121 C132 1.226 . S
O122 Zn120 1.932 . S
O122 C132 1.307 . S
O123 Zn116 1.919 1_655 S
O123 C134 1.253 1_655 S
O124 Zn118 1.941 . S
O124 C134 1.283 . S
O125 Zn118 1.965 . S
O125 C133 1.303 . S
O126 Zn119 1.938 . S
O126 C133 1.247 . S
O127 Zn119 1.906 . S
O127 C135 1.304 . S
O128 Zn116 1.924 1_655 S
O128 C136 1.311 . S
O129 Zn120 1.977 . S
O129 C135 1.272 . S
O130 Zn120 1.910 . S
O130 C136 1.231 1_455 S
C131 O115 1.225 . S
C131 O137 1.298 . S
C132 O121 1.226 . S
C132 O122 1.307 . S
C133 O125 1.303 . S
C133 O126 1.247 . S
C134 O123 1.253 1_455 S
C134 O124 1.283 . S
C135 O127 1.304 . S
C135 O129 1.272 . S
C136 O128 1.311 . S
C136 O130 1.231 1_655 S
O137 Zn119 1.953 . S
O137 C131 1.298 . S
H138 C144 0.930 . S
H139 C148 0.930 . S
H140 C153 0.929 1_565 S
H141 C151 0.929 . S
H142 C146 0.929 . S
H143 C152 0.929 . S
C144 H138 0.930 . S
C144 C145 1.367 . S
C144 C152 1.378 1_655 S
C145 C144 1.367 . S
C145 C153 1.433 1_554 S
C146 H142 0.929 . S
C146 C148 1.378 . S
C146 C150 1.350 1_556 S
C147 C150 1.463 . S
C147 C152 1.350 . S
C147 N155 1.427 1_554 S
C148 H139 0.930 . S
C148 C146 1.378 . S
C148 C149 1.367 1_556 S
C149 C148 1.367 1_554 S
C149 C151 1.433 . S
C150 C146 1.350 1_554 S
C150 C147 1.463 . S
C150 N154 1.427 . S
C151 H141 0.929 . S
C151 C149 1.433 . S
C151 N154 1.384 . S
C152 H143 0.929 . S
C152 C144 1.378 1_455 S
C152 C147 1.350 . S
C153 H140 0.929 1_545 S
C153 C145 1.433 1_556 S
C153 N155 1.384 1_655 S
N154 C150 1.427 . S
N154 C151 1.384 . S
N155 C147 1.427 1_556 S
N155 C153 1.384 1_455 S
H156 C162 0.930 . S
H157 C166 0.930 . S
H158 C171 0.929 . S
H159 C169 0.929 . S
H160 C164 0.929 . S
H161 C170 0.929 1_545 S
C162 H156 0.930 . S
C162 C163 1.367 . S
C162 C170 1.378 1_655 S
C163 C162 1.367 . S
C163 C171 1.433 . S
C164 H160 0.929 . S
C164 C166 1.378 . S
C164 C168 1.350 . S
C165 C168 1.463 . S
C165 C170 1.350 1_545 S
C165 N173 1.427 1_545 S
C166 H157 0.930 . S
C166 C164 1.378 . S
C166 C167 1.367 . S
C167 C166 1.367 . S
C167 C169 1.433 . S
C168 C164 1.350 . S
C168 C165 1.463 . S
C168 N172 1.427 . S
C169 H159 0.929 . S
C169 C167 1.433 . S
C169 N172 1.384 . S
C170 H161 0.929 1_565 S
C170 C162 1.378 1_455 S
C170 C165 1.350 1_565 S
C171 H158 0.929 . S
C171 C163 1.433 . S
C171 N173 1.384 1_655 S
N172 C168 1.427 . S
N172 C169 1.384 . S
N173 C165 1.427 1_565 S
N173 C171 1.384 1_455 S
H174 C180 0.930 . S
H175 C184 0.930 1_655 S
H176 C189 0.929 . S
H177 C187 0.929 . S
H178 C182 0.929 1_655 S
H179 C188 0.929 . S
C180 H174 0.930 . S
C180 C181 1.367 . S
C180 C188 1.378 1_565 S
C181 C180 1.367 . S
C181 C189 1.433 . S
C182 H178 0.929 1_455 S
C182 C184 1.378 . S
C182 C186 1.350 . S
C183 C186 1.463 . S
C183 C188 1.350 . S
C183 N191 1.427 1_545 S
C184 H175 0.930 1_455 S
C184 C182 1.378 . S
C184 C185 1.367 . S
C185 C184 1.367 . S
C185 C187 1.433 . S
C186 C182 1.350 . S
C186 C183 1.463 . S
C186 N190 1.427 . S
C187 H177 0.929 . S
C187 C185 1.433 . S
C187 N190 1.384 . S
C188 H179 0.929 . S
C188 C180 1.378 1_545 S
C188 C183 1.350 . S
C189 H176 0.929 . S
C189 C181 1.433 . S
C189 N191 1.384 . S
N190 C186 1.427 . S
N190 C187 1.384 . S
N191 C183 1.427 1_565 S
N191 C189 1.384 . S
H192 C198 0.930 . S
H193 C202 0.930 . S
H194 C207 0.929 . S
H195 C205 0.929 . S
H196 C200 0.929 . S
H197 C206 0.929 . S
C198 H192 0.930 . S
C198 C199 1.367 . S
C198 C206 1.378 . S
C199 C198 1.367 . S
C199 C207 1.433 . S
C200 H196 0.929 . S
C200 C202 1.378 . S
C200 C204 1.350 . S
C201 C204 1.463 . S
C201 C206 1.350 . S
C201 N209 1.427 . S
C202 H193 0.930 . S
C202 C200 1.378 . S
C202 C203 1.367 . S
C203 C202 1.367 . S
C203 C205 1.433 . S
C204 C200 1.350 . S
C204 C201 1.463 . S
C204 N208 1.427 . S
C205 H195 0.929 . S
C205 C203 1.433 . S
C205 N208 1.384 . S
C206 H197 0.929 . S
C206 C198 1.378 . S
C206 C201 1.350 . S
C207 H194 0.929 . S
C207 C199 1.433 . S
C207 N209 1.384 . S
N208 C204 1.427 . S
N208 C205 1.384 . S
N209 C201 1.427 . S
N209 C207 1.384 . S
H210 C216 0.930 . S
H211 C220 0.930 . S
H212 C225 0.929 . S
H213 C223 0.929 . S
H214 C218 0.929 . S
H215 C224 0.929 . S
C216 H210 0.930 . S
C216 C217 1.367 . S
C216 C224 1.378 . S
C217 C216 1.367 . S
C217 C225 1.433 . S
C218 H214 0.929 . S
C218 C220 1.378 . S
C218 C222 1.350 1_655 S
C219 C222 1.463 . S
C219 C224 1.350 . S
C219 N227 1.427 . S
C220 H211 0.930 . S
C220 C218 1.378 . S
C220 C221 1.367 . S
C221 C220 1.367 . S
C221 C223 1.433 . S
C222 C218 1.350 1_455 S
C222 C219 1.463 . S
C222 N226 1.427 . S
C223 H213 0.929 . S
C223 C221 1.433 . S
C223 N226 1.384 1_655 S
C224 H215 0.929 . S
C224 C216 1.378 . S
C224 C219 1.350 . S
C225 H212 0.929 . S
C225 C217 1.433 . S
C225 N227 1.384 . S
N226 C222 1.427 . S
N226 C223 1.384 1_455 S
N227 C219 1.427 . S
N227 C225 1.384 . S
H228 C234 0.930 . S
H229 C238 0.930 . S
H230 C243 0.929 . S
H231 C241 0.929 . S
H232 C236 0.929 . S
H233 C242 0.929 . S
C234 H228 0.930 . S
C234 C235 1.367 . S
C234 C242 1.378 . S
C235 C234 1.367 . S
C235 C243 1.433 . S
C236 H232 0.929 . S
C236 C238 1.378 1_545 S
C236 C240 1.350 . S
C237 C240 1.463 . S
C237 C242 1.350 . S
C237 N245 1.427 . S
C238 H229 0.930 . S
C238 C236 1.378 1_565 S
C238 C239 1.367 . S
C239 C238 1.367 . S
C239 C241 1.433 . S
C240 C236 1.350 . S
C240 C237 1.463 . S
C240 N244 1.427 1_545 S
C241 H231 0.929 . S
C241 C239 1.433 . S
C241 N244 1.384 . S
C242 H233 0.929 . S
C242 C234 1.378 . S
C242 C237 1.350 . S
C243 H230 0.929 . S
C243 C235 1.433 . S
C243 N245 1.384 . S
N244 C240 1.427 1_565 S
N244 C241 1.384 . S
N245 C237 1.427 . S
N245 C243 1.384 . S
H246 C252 0.930 . S
H247 C256 0.930 . S
H248 C261 0.929 . S
H249 C259 0.929 1_455 S
H250 C254 0.929 . S
H251 C260 0.929 . S
C252 H246 0.930 . S
C252 C253 1.367 . S
C252 C260 1.378 . S
C253 C252 1.367 . S
C253 C261 1.433 . S
C254 H250 0.929 . S
C254 C256 1.378 . S
C254 C258 1.350 . S
C255 C258 1.463 . S
C255 C260 1.350 . S
C255 N263 1.427 . S
C256 H247 0.930 . S
C256 C254 1.378 . S
C256 C257 1.367 . S
C257 C256 1.367 . S
C257 C259 1.433 . S
C258 C254 1.350 . S
C258 C255 1.463 . S
C258 N262 1.427 . S
C259 H249 0.929 1_655 S
C259 C257 1.433 . S
C259 N262 1.384 . S
C260 H251 0.929 . S
C260 C252 1.378 . S
C260 C255 1.350 . S
C261 H248 0.929 . S
C261 C253 1.433 . S
C261 N263 1.384 . S
N262 C258 1.427 . S
N262 C259 1.384 . S
N263 C255 1.427 . S
N263 C261 1.384 . S
H264 C270 0.930 . S
H265 C274 0.930 . S
H266 C279 0.929 . S
H267 C277 0.929 . S
H268 C272 0.929 . S
H269 C278 0.929 . S
C270 H264 0.930 . S
C270 C271 1.367 . S
C270 C278 1.378 1_655 S
C271 C270 1.367 . S
C271 C279 1.433 1_655 S
C272 H268 0.929 . S
C272 C274 1.378 . S
C272 C276 1.350 . S
C273 C276 1.463 . S
C273 C278 1.350 . S
C273 N281 1.427 . S
C274 H265 0.930 . S
C274 C272 1.378 . S
C274 C275 1.367 . S
C275 C274 1.367 . S
C275 C277 1.433 . S
C276 C272 1.350 . S
C276 C273 1.463 . S
C276 N280 1.427 . S
C277 H267 0.929 . S
C277 C275 1.433 . S
C277 N280 1.384 . S
C278 H269 0.929 . S
C278 C270 1.378 1_455 S
C278 C273 1.350 . S
C279 H266 0.929 . S
C279 C271 1.433 1_455 S
C279 N281 1.384 . S
N280 C276 1.427 . S
N280 C277 1.384 . S
N281 C273 1.427 . S
N281 C279 1.384 . S
H282 C288 0.930 . S
H283 C292 0.930 . S
H284 C297 0.929 . S
H285 C295 0.929 . S
H286 C290 0.929 . S
H287 C296 0.929 . S
C288 H282 0.930 . S
C288 C289 1.367 . S
C288 C296 1.378 1_565 S
C289 C288 1.367 . S
C289 C297 1.433 . S
C290 H286 0.929 . S
C290 C292 1.378 . S
C290 C294 1.350 . S
C291 C294 1.463 . S
C291 C296 1.350 . S
C291 N299 1.427 . S
C292 H283 0.930 . S
C292 C290 1.378 . S
C292 C293 1.367 . S
C293 C292 1.367 . S
C293 C295 1.433 . S
C294 C290 1.350 . S
C294 C291 1.463 . S
C294 N298 1.427 . S
C295 H285 0.929 . S
C295 C293 1.433 . S
C295 N298 1.384 . S
C296 H287 0.929 . S
C296 C288 1.378 1_545 S
C296 C291 1.350 . S
C297 H284 0.929 . S
C297 C289 1.433 . S
C297 N299 1.384 1_565 S
N298 C294 1.427 . S
N298 C295 1.384 . S
N299 C291 1.427 . S
N299 C297 1.384 1_545 S
H300 C306 0.930 . S
H301 C310 0.930 . S
H302 C315 0.929 . S
H303 C313 0.929 . S
H304 C308 0.929 . S
H305 C314 0.929 . S
C306 H300 0.930 . S
C306 C307 1.367 . S
C306 C314 1.378 . S
C307 C306 1.367 . S
C307 C315 1.433 1_554 S
C308 H304 0.929 . S
C308 C310 1.378 . S
C308 C312 1.350 1_556 S
C309 C312 1.463 . S
C309 C314 1.350 . S
C309 N317 1.427 1_554 S
C310 H301 0.930 . S
C310 C308 1.378 . S
C310 C311 1.367 1_556 S
C311 C310 1.367 1_554 S
C311 C313 1.433 1_545 S
C312 C308 1.350 1_554 S
C312 C309 1.463 . S
C312 N316 1.427 . S
C313 H303 0.929 . S
C313 C311 1.433 1_565 S
C313 N316 1.384 1_565 S
C314 H305 0.929 . S
C314 C306 1.378 . S
C314 C309 1.350 . S
C315 H302 0.929 . S
C315 C307 1.433 1_556 S
C315 N317 1.384 . S
N316 C312 1.427 . S
N316 C313 1.384 1_545 S
N317 C309 1.427 1_556 S
N317 C315 1.384 . S
H318 C324 0.930 . S
H319 C328 0.930 . S
H320 C333 0.929 . S
H321 C331 0.929 . S
H322 C326 0.929 . S
H323 C332 0.929 . S
C324 H318 0.930 . S
C324 C325 1.367 . S
C324 C332 1.378 . S
C325 C324 1.367 . S
C325 C333 1.433 . S
C326 H322 0.929 . S
C326 C328 1.378 . S
C326 C330 1.350 . S
C327 C330 1.463 . S
C327 C332 1.350 . S
C327 N335 1.427 . S
C328 H319 0.930 . S
C328 C326 1.378 . S
C328 C329 1.367 . S
C329 C328 1.367 . S
C329 C331 1.433 . S
C330 C326 1.350 . S
C330 C327 1.463 . S
C330 N334 1.427 . S
C331 H321 0.929 . S
C331 C329 1.433 . S
C331 N334 1.384 . S
C332 H323 0.929 . S
C332 C324 1.378 . S
C332 C327 1.350 . S
C333 H320 0.929 . S
C333 C325 1.433 . S
C333 N335 1.384 . S
N334 C330 1.427 . S
N334 C331 1.384 . S
N335 C327 1.427 . S
N335 C333 1.384 . S
H336 C342 0.930 . S
H337 C346 0.930 . S
H338 C351 0.929 1_655 S
H339 C349 0.929 . S
H340 C344 0.929 . S
H341 C350 0.929 . S
C342 H336 0.930 . S
C342 C343 1.367 . S
C342 C350 1.378 . S
C343 C342 1.367 . S
C343 C351 1.433 . S
C344 H340 0.929 . S
C344 C346 1.378 . S
C344 C348 1.350 . S
C345 C348 1.463 . S
C345 C350 1.350 . S
C345 N353 1.427 . S
C346 H337 0.930 . S
C346 C344 1.378 . S
C346 C347 1.367 . S
C347 C346 1.367 . S
C347 C349 1.433 . S
C348 C344 1.350 . S
C348 C345 1.463 . S
C348 N352 1.427 . S
C349 H339 0.929 . S
C349 C347 1.433 . S
C349 N352 1.384 . S
C350 H341 0.929 . S
C350 C342 1.378 . S
C350 C345 1.350 . S
C351 H338 0.929 1_455 S
C351 C343 1.433 . S
C351 N353 1.384 . S
N352 C348 1.427 . S
N352 C349 1.384 . S
N353 C345 1.427 . S
N353 C351 1.384 . S
H354 C360 0.930 . S
H355 C364 0.930 . S
H356 C369 0.929 . S
H357 C367 0.929 . S
H358 C362 0.929 . S
H359 C368 0.929 . S
C360 H354 0.930 . S
C360 C361 1.367 . S
C360 C368 1.378 . S
C361 C360 1.367 . S
C361 C369 1.433 . S
C362 H358 0.929 . S
C362 C364 1.378 . S
C362 C366 1.350 . S
C363 C366 1.463 . S
C363 C368 1.350 . S
C363 N371 1.427 . S
C364 H355 0.930 . S
C364 C362 1.378 . S
C364 C365 1.367 . S
C365 C364 1.367 . S
C365 C367 1.433 . S
C366 C362 1.350 . S
C366 C363 1.463 . S
C366 N370 1.427 . S
C367 H357 0.929 . S
C367 C365 1.433 . S
C367 N370 1.384 . S
C368 H359 0.929 . S
C368 C360 1.378 . S
C368 C363 1.350 . S
C369 H356 0.929 . S
C369 C361 1.433 . S
C369 N371 1.384 . S
N370 C366 1.427 . S
N370 C367 1.384 . S
N371 C363 1.427 . S
N371 C369 1.384 . S
H372 C378 0.930 . S
H373 C382 0.930 . S
H374 C387 0.929 . S
H375 C385 0.929 . S
H376 C380 0.929 . S
H377 C386 0.929 . S
C378 H372 0.930 . S
C378 C379 1.367 . S
C378 C386 1.378 . S
C379 C378 1.367 . S
C379 C387 1.433 . S
C380 H376 0.929 . S
C380 C382 1.378 . S
C380 C384 1.350 . S
C381 C384 1.463 . S
C381 C386 1.350 . S
C381 N389 1.427 . S
C382 H373 0.930 . S
C382 C380 1.378 . S
C382 C383 1.367 . S
C383 C382 1.367 . S
C383 C385 1.433 . S
C384 C380 1.350 . S
C384 C381 1.463 . S
C384 N388 1.427 . S
C385 H375 0.929 . S
C385 C383 1.433 . S
C385 N388 1.384 . S
C386 H377 0.929 . S
C386 C378 1.378 . S
C386 C381 1.350 . S
C387 H374 0.929 . S
C387 C379 1.433 . S
C387 N389 1.384 . S
N388 C384 1.427 . S
N388 C385 1.384 . S
N389 C381 1.427 . S
N389 C387 1.384 . S
H390 C396 0.930 . S
H391 C400 0.930 . S
H392 C405 0.929 . S
H393 C403 0.929 . S
H394 C398 0.929 . S
H395 C404 0.929 . S
C396 H390 0.930 . S
C396 C397 1.367 . S
C396 C404 1.378 . S
C397 C396 1.367 . S
C397 C405 1.433 . S
C398 H394 0.929 . S
C398 C400 1.378 . S
C398 C402 1.350 . S
C399 C402 1.463 . S
C399 C404 1.350 . S
C399 N407 1.427 . S
C400 H391 0.930 . S
C400 C398 1.378 . S
C400 C401 1.367 . S
C401 C400 1.367 . S
C401 C403 1.433 . S
C402 C398 1.350 . S
C402 C399 1.463 . S
C402 N406 1.427 . S
C403 H393 0.929 . S
C403 C401 1.433 . S
C403 N406 1.384 . S
C404 H395 0.929 . S
C404 C396 1.378 . S
C404 C399 1.350 . S
C405 H392 0.929 . S
C405 C397 1.433 . S
C405 N407 1.384 . S
N406 C402 1.427 . S
N406 C403 1.384 . S
N407 C399 1.427 . S
N407 C405 1.384 . S
H408 C414 0.930 . S
H409 C418 0.930 . S
H410 C423 0.929 . S
H411 C421 0.929 . S
H412 C416 0.929 . S
H413 C422 0.929 . S
C414 H408 0.930 . S
C414 C415 1.367 . S
C414 C422 1.378 . S
C415 C414 1.367 . S
C415 C423 1.433 . S
C416 H412 0.929 . S
C416 C418 1.378 . S
C416 C420 1.350 . S
C417 C420 1.463 . S
C417 C422 1.350 . S
C417 N425 1.427 . S
C418 H409 0.930 . S
C418 C416 1.378 . S
C418 C419 1.367 . S
C419 C418 1.367 . S
C419 C421 1.433 . S
C420 C416 1.350 . S
C420 C417 1.463 . S
C420 N424 1.427 . S
C421 H411 0.929 . S
C421 C419 1.433 . S
C421 N424 1.384 . S
C422 H413 0.929 . S
C422 C414 1.378 . S
C422 C417 1.350 . S
C423 H410 0.929 . S
C423 C415 1.433 . S
C423 N425 1.384 . S
N424 C420 1.427 . S
N424 C421 1.384 . S
N425 C417 1.427 . S
N425 C423 1.384 . S
H426 C432 0.930 . S
H427 C436 0.930 . S
H428 C441 0.929 . S
H429 C439 0.929 . S
H430 C434 0.929 . S
H431 C440 0.929 . S
C432 H426 0.930 . S
C432 C433 1.367 . S
C432 C440 1.378 . S
C433 C432 1.367 . S
C433 C441 1.433 . S
C434 H430 0.929 . S
C434 C436 1.378 . S
C434 C438 1.350 . S
C435 C438 1.463 . S
C435 C440 1.350 . S
C435 N443 1.427 . S
C436 H427 0.930 . S
C436 C434 1.378 . S
C436 C437 1.367 . S
C437 C436 1.367 . S
C437 C439 1.433 . S
C438 C434 1.350 . S
C438 C435 1.463 . S
C438 N442 1.427 . S
C439 H429 0.929 . S
C439 C437 1.433 . S
C439 N442 1.384 . S
C440 H431 0.929 . S
C440 C432 1.378 . S
C440 C435 1.350 . S
C441 H428 0.929 . S
C441 C433 1.433 . S
C441 N443 1.384 . S
N442 C438 1.427 . S
N442 C439 1.384 . S
N443 C435 1.427 . S
N443 C441 1.384 . S
H444 C450 0.930 . S
H445 C454 0.930 . S
H446 C459 0.929 . S
H447 C457 0.929 1_545 S
H448 C452 0.929 . S
H449 C458 0.929 . S
C450 H444 0.930 . S
C450 C451 1.367 . S
C450 C458 1.378 . S
C451 C450 1.367 . S
C451 C459 1.433 . S
C452 H448 0.929 . S
C452 C454 1.378 . S
C452 C456 1.350 . S
C453 C456 1.463 . S
C453 C458 1.350 . S
C453 N461 1.427 . S
C454 H445 0.930 . S
C454 C452 1.378 . S
C454 C455 1.367 . S
C455 C454 1.367 . S
C455 C457 1.433 . S
C456 C452 1.350 . S
C456 C453 1.463 . S
C456 N460 1.427 . S
C457 H447 0.929 1_565 S
C457 C455 1.433 . S
C457 N460 1.384 . S
C458 H449 0.929 . S
C458 C450 1.378 . S
C458 C453 1.350 . S
C459 H446 0.929 . S
C459 C451 1.433 . S
C459 N461 1.384 . S
N460 C456 1.427 . S
N460 C457 1.384 . S
N461 C453 1.427 . S
N461 C459 1.384 . S
C145 C85 0.786 . S
C149 C16 0.785 . S
C163 C108 0.785 . S
C167 C39 0.786 . S
C181 C131 0.792 . S
C185 C62 0.792 . S
C199 C18 1.921 . S
C203 C67 1.936 . S
C217 C41 1.923 . S
C221 C90 1.936 . S
C235 C64 1.923 . S
C239 C113 1.931 . S
C253 C87 1.920 . S
C257 C136 1.933 . S
C271 C110 1.926 . S
C275 C21 1.933 . S
C289 C133 1.925 . S
C293 C44 1.931 . S
C307 C17 0.951 . S
C311 C86 0.951 . S
C325 C40 0.951 . S
C329 C109 0.951 . S
C343 C63 0.951 . S
C347 C132 0.950 . S
C361 C20 0.671 . S
C365 C42 0.681 . S
C379 C43 0.712 . S
C383 C65 0.666 . S
C397 C66 0.689 . S
C401 C88 0.664 . S
C415 C89 0.680 . S
C419 C111 0.672 . S
C433 C112 0.713 . S
C437 C134 0.663 1_655 S
C451 C135 0.671 . S
C455 C19 0.702 . S
