# Generated by pormake.
# Topology unj, (4)-cn, num edge types: 1
# Building blocks:
#     Node 0, Type 0, BuildingBlock: KUFVIS_clean_sbu_0, # of connection points: 4
#     Node 1, Type 0, BuildingBlock: KUFVIS_clean_sbu_0, # of connection points: 4
#     Node 2, Type 0, BuildingBlock: KUFVIS_clean_sbu_0, # of connection points: 4
#     Node 3, Type 0, BuildingBlock: KUFVIS_clean_sbu_0, # of connection points: 4
#     Node 4, Type 0, BuildingBlock: KUFVIS_clean_sbu_0, # of connection points: 4
#     Node 5, Type 0, BuildingBlock: KUFVIS_clean_sbu_0, # of connection points: 4
#     Edge 6, Type (0, 0), BuildingBlock: TEMPAE_clean_linker_10, # of connection points: 2
#     Edge 7, Type (0, 0), BuildingBlock: TEMPAE_clean_linker_10, # of connection points: 2
#     Edge 8, Type (0, 0), BuildingBlock: TEMPAE_clean_linker_10, # of connection points: 2
#     Edge 9, Type (0, 0), BuildingBlock: TEMPAE_clean_linker_10, # of connection points: 2
#     Edge 10, Type (0, 0), BuildingBlock: TEMPAE_clean_linker_10, # of connection points: 2
#     Edge 11, Type (0, 0), BuildingBlock: TEMPAE_clean_linker_10, # of connection points: 2
#     Edge 12, Type (0, 0), BuildingBlock: TEMPAE_clean_linker_10, # of connection points: 2
#     Edge 13, Type (0, 0), BuildingBlock: TEMPAE_clean_linker_10, # of connection points: 2
#     Edge 14, Type (0, 0), BuildingBlock: TEMPAE_clean_linker_10, # of connection points: 2
#     Edge 15, Type (0, 0), BuildingBlock: TEMPAE_clean_linker_10, # of connection points: 2
#     Edge 16, Type (0, 0), BuildingBlock: TEMPAE_clean_linker_10, # of connection points: 2
#     Edge 17, Type (0, 0), BuildingBlock: TEMPAE_clean_linker_10, # of connection points: 2
# Relax obj value: 0.012
# Max RMSD: 0.052
# Mean RMSD: 0.052
data_MOF--net-unj--node1-KUFVIS_clean_sbu_0--edge1-TEMPAE_clean_linker_10
_symmetry_space_group_name_H-M    P1
_symmetry_Int_Tables_number       1
_symmetry_cell_setting            triclinic
loop_
_symmetry_equiv_pos_as_xyz
'x, y, z'
_cell_length_a     33.157811
_cell_length_b     33.165152
_cell_length_c     35.995328
_cell_angle_alpha  89.990536
_cell_angle_beta   89.997142
_cell_angle_gamma 120.0081
loop_
_atom_site_label
_atom_site_type_symbol
_atom_site_fract_x
_atom_site_fract_y
_atom_site_fract_z
_atom_type_partial_charge
Mn0 Mn 0.51158 0.2546 0.60018 0.0
Mn1 Mn 0.60311 0.24328 0.57408 0.0
C2 C 0.54852 0.23174 0.64338 0.0
C3 C 0.48076 0.30085 0.62021 0.0
C4 C 0.50269 0.174 0.55368 0.0
O5 O 0.53214 0.28975 0.55063 0.0
O6 O 0.59971 0.28997 0.54176 0.0
C7 C 0.68176 0.33673 0.59287 0.0
N8 N 0.66019 0.28956 0.59589 0.0
C9 C 0.72406 0.29427 0.63113 0.0
C10 C 0.74754 0.34288 0.62753 0.0
C11 C 0.72603 0.36423 0.6087 0.0
C12 C 0.67997 0.26874 0.61486 0.0
H13 H 0.66512 0.35315 0.57875 0.0
C14 C 0.57079 0.30361 0.53367 0.0
O15 O 0.45579 0.2624 0.60206 0.0
O16 O 0.52385 0.31269 0.62659 0.0
N17 N 0.61073 0.19973 0.60384 0.0
C18 C 0.58145 0.15307 0.60804 0.0
C19 C 0.59609 0.12683 0.62875 0.0
C20 C 0.6409 0.14866 0.6444 0.0
C21 C 0.67038 0.19672 0.63971 0.0
C22 C 0.65367 0.22115 0.61921 0.0
H23 H 0.54724 0.13596 0.59565 0.0
O24 O 0.50638 0.22344 0.6493 0.0
O25 O 0.56773 0.25365 0.6128 0.0
O26 O 0.4839 0.19186 0.57355 0.0
O27 O 0.54673 0.1925 0.54994 0.0
C28 C 0.7156 0.22141 0.65477 0.0
C29 C 0.74229 0.2702 0.65076 0.0
H30 H 0.78166 0.36419 0.63976 0.0
H31 H 0.74355 0.40177 0.60637 0.0
H32 H 0.57305 0.08979 0.63237 0.0
H33 H 0.65216 0.12826 0.66021 0.0
H34 H 0.73 0.20324 0.66979 0.0
H35 H 0.77653 0.28891 0.66329 0.0
Mn36 Mn 0.27528 0.50321 0.76685 0.0
Mn37 Mn 0.37811 0.59509 0.74107 0.0
C38 C 0.33493 0.54009 0.81019 0.0
C39 C 0.19812 0.47207 0.78681 0.0
C40 C 0.34747 0.49484 0.7205 0.0
O41 O 0.26071 0.52386 0.71735 0.0
O42 O 0.32805 0.59145 0.70858 0.0
C43 C 0.36253 0.67322 0.75989 0.0
N44 N 0.38843 0.65197 0.76292 0.0
C45 C 0.44717 0.71594 0.79832 0.0
C46 C 0.42175 0.73912 0.7947 0.0
C47 C 0.37895 0.71739 0.77578 0.0
C48 C 0.42895 0.67193 0.78199 0.0
H49 H 0.3295 0.65639 0.74572 0.0
C50 C 0.28552 0.56251 0.70042 0.0
O51 O 0.21176 0.44728 0.7686 0.0
O52 O 0.22926 0.51517 0.79328 0.0
N53 N 0.42929 0.60299 0.77097 0.0
C54 C 0.44697 0.57397 0.77517 0.0
C55 C 0.48785 0.58884 0.79595 0.0
C56 C 0.51052 0.63361 0.81166 0.0
C57 C 0.49163 0.66283 0.80696 0.0
C58 C 0.45052 0.6459 0.78638 0.0
H59 H 0.43011 0.53979 0.76274 0.0
O60 O 0.30117 0.49788 0.81597 0.0
O61 O 0.33226 0.55942 0.77967 0.0
O62 O 0.31061 0.47586 0.74015 0.0
O63 O 0.37298 0.5389 0.71696 0.0
C64 C 0.51181 0.70797 0.8221 0.0
C65 C 0.48943 0.73438 0.81805 0.0
H66 H 0.43428 0.77316 0.80697 0.0
H67 H 0.35869 0.73466 0.77344 0.0
H68 H 0.50209 0.56601 0.79958 0.0
H69 H 0.54218 0.64505 0.82751 0.0
H70 H 0.54434 0.72253 0.8372 0.0
H71 H 0.50469 0.76857 0.83063 0.0
Mn72 Mn 0.79 0.26623 0.93335 0.0
Mn73 Mn 0.80113 0.36908 0.90749 0.0
C74 C 0.81274 0.32588 0.97667 0.0
C75 C 0.74387 0.1891 0.95331 0.0
C76 C 0.87066 0.33829 0.88699 0.0
O77 O 0.75486 0.2517 0.88381 0.0
O78 O 0.75464 0.31904 0.87502 0.0
C79 C 0.70747 0.35377 0.92622 0.0
N80 N 0.75464 0.37955 0.92929 0.0
C81 C 0.74954 0.4384 0.96463 0.0
C82 C 0.70093 0.4131 0.96097 0.0
C83 C 0.67978 0.3703 0.94207 0.0
C84 C 0.77526 0.42007 0.94835 0.0
H85 H 0.69119 0.32075 0.91205 0.0
C86 C 0.74104 0.27651 0.86686 0.0
O87 O 0.78234 0.2027 0.93513 0.0
O88 O 0.73194 0.22026 0.95974 0.0
N89 N 0.84447 0.42021 0.93738 0.0
C90 C 0.89116 0.43777 0.94163 0.0
C91 C 0.91723 0.47861 0.96242 0.0
C92 C 0.8952 0.50137 0.97809 0.0
C93 C 0.84712 0.48262 0.97335 0.0
C94 C 0.82287 0.44153 0.95277 0.0
H95 H 0.90841 0.42083 0.92922 0.0
O96 O 0.82114 0.2921 0.98249 0.0
O97 O 0.79081 0.32323 0.94611 0.0
O98 O 0.85275 0.30148 0.90671 0.0
O99 O 0.85213 0.36381 0.88339 0.0
C100 C 0.82223 0.5029 0.98845 0.0
C101 C 0.77343 0.48064 0.98436 0.0
H102 H 0.67948 0.42572 0.97322 0.0
H103 H 0.64224 0.35014 0.93969 0.0
H104 H 0.95429 0.49275 0.96608 0.0
H105 H 0.91547 0.53301 0.99395 0.0
H106 H 0.84025 0.53542 0.00356 0.0
H107 H 0.75457 0.49599 0.99692 0.0
Mn108 Mn 0.54161 0.78133 0.10027 0.0
Mn109 Mn 0.44983 0.79233 0.07433 0.0
C110 C 0.50469 0.80417 0.14351 0.0
C111 C 0.57264 0.73526 0.12032 0.0
C112 C 0.55015 0.86184 0.05376 0.0
O113 O 0.52099 0.74606 0.0508 0.0
O114 O 0.45342 0.7458 0.04195 0.0
C115 C 0.37153 0.69869 0.0932 0.0
N116 N 0.39287 0.74586 0.09619 0.0
C117 C 0.32888 0.74078 0.13149 0.0
C118 C 0.30563 0.69218 0.12792 0.0
C119 C 0.32731 0.67102 0.10908 0.0
C120 C 0.37294 0.76649 0.11519 0.0
H121 H 0.38831 0.68242 0.07909 0.0
C122 C 0.48235 0.73219 0.03385 0.0
O123 O 0.5975 0.77368 0.10209 0.0
O124 O 0.52955 0.72336 0.12678 0.0
N125 N 0.44198 0.8357 0.10413 0.0
C126 C 0.47107 0.8824 0.10828 0.0
C127 C 0.45624 0.90849 0.12899 0.0
C128 C 0.41145 0.88647 0.14466 0.0
C129 C 0.38216 0.83837 0.14002 0.0
C130 C 0.39905 0.8141 0.11952 0.0
H131 H 0.50527 0.89965 0.09586 0.0
O132 O 0.54688 0.8126 0.14935 0.0
O133 O 0.48541 0.78216 0.11299 0.0
O134 O 0.56907 0.84398 0.07351 0.0
O135 O 0.50608 0.84328 0.05018 0.0
C136 C 0.33697 0.81349 0.15512 0.0
C137 C 0.31048 0.76469 0.15113 0.0
H138 H 0.27155 0.67073 0.14018 0.0
H139 H 0.30997 0.63348 0.10678 0.0
H140 H 0.47914 0.94556 0.13258 0.0
H141 H 0.40004 0.90675 0.16046 0.0
H142 H 0.32243 0.83152 0.17015 0.0
H143 H 0.27626 0.74583 0.16369 0.0
Mn144 Mn 0.7781 0.53267 0.26671 0.0
Mn145 Mn 0.67519 0.44091 0.24094 0.0
C146 C 0.71841 0.49586 0.31004 0.0
C147 C 0.85523 0.56368 0.2867 0.0
C148 C 0.70601 0.5412 0.22034 0.0
O149 O 0.79266 0.51196 0.21724 0.0
O150 O 0.72522 0.44447 0.20845 0.0
C151 C 0.69063 0.36268 0.25976 0.0
N152 N 0.66478 0.38399 0.26279 0.0
C153 C 0.60597 0.32004 0.29819 0.0
C154 C 0.63134 0.29681 0.29457 0.0
C155 C 0.67415 0.31849 0.27566 0.0
C156 C 0.62425 0.36406 0.28187 0.0
H157 H 0.72367 0.37948 0.2456 0.0
C158 C 0.76778 0.47333 0.20029 0.0
O159 O 0.84168 0.58852 0.26844 0.0
O160 O 0.82403 0.5206 0.29319 0.0
N161 N 0.62403 0.43307 0.27085 0.0
C162 C 0.60642 0.46214 0.27505 0.0
C163 C 0.56553 0.44732 0.29582 0.0
C164 C 0.54281 0.40254 0.31152 0.0
C165 C 0.56163 0.37327 0.30683 0.0
C166 C 0.60274 0.39015 0.28625 0.0
H167 H 0.62333 0.49633 0.26261 0.0
O168 O 0.7522 0.53805 0.31581 0.0
O169 O 0.72106 0.47652 0.27953 0.0
O170 O 0.74289 0.56012 0.23996 0.0
O171 O 0.68042 0.49714 0.21683 0.0
C172 C 0.54138 0.32811 0.32196 0.0
C173 C 0.56371 0.30164 0.31792 0.0
H174 H 0.61875 0.26276 0.30685 0.0
H175 H 0.69436 0.30118 0.27332 0.0
H176 H 0.55134 0.47019 0.29945 0.0
H177 H 0.51114 0.39113 0.32737 0.0
H178 H 0.50884 0.31358 0.33706 0.0
H179 H 0.54839 0.26744 0.3305 0.0
Mn180 Mn 0.26311 0.76955 0.43346 0.0
Mn181 Mn 0.25231 0.66684 0.40765 0.0
C182 C 0.24046 0.70991 0.47679 0.0
C183 C 0.30906 0.84671 0.45342 0.0
C184 C 0.18257 0.69735 0.3871 0.0
O185 O 0.29833 0.78421 0.38394 0.0
O186 O 0.29871 0.71695 0.37517 0.0
C187 C 0.34608 0.6825 0.42644 0.0
N188 N 0.29892 0.65656 0.42947 0.0
C189 C 0.30422 0.59782 0.46483 0.0
C190 C 0.35283 0.62329 0.4612 0.0
C191 C 0.37387 0.6661 0.44231 0.0
C192 C 0.27839 0.61602 0.44853 0.0
H193 H 0.36226 0.71554 0.4123 0.0
C194 C 0.31225 0.75946 0.36701 0.0
O195 O 0.27058 0.83301 0.43524 0.0
O196 O 0.3211 0.81563 0.45985 0.0
N197 N 0.20906 0.61562 0.43754 0.0
C198 C 0.16234 0.5979 0.44176 0.0
C199 C 0.13636 0.55701 0.46253 0.0
C200 C 0.15851 0.53437 0.4782 0.0
C201 C 0.20662 0.55329 0.4735 0.0
C202 C 0.23077 0.59441 0.45292 0.0
H203 H 0.145 0.61475 0.42934 0.0
O204 O 0.23194 0.7436 0.48259 0.0
O205 O 0.26245 0.71263 0.44625 0.0
O206 O 0.20042 0.73418 0.40677 0.0
O207 O 0.20121 0.67192 0.38355 0.0
C208 C 0.23162 0.53313 0.4886 0.0
C209 C 0.28044 0.55555 0.48454 0.0
H210 H 0.37437 0.61077 0.47346 0.0
H211 H 0.41141 0.68639 0.43997 0.0
H212 H 0.09928 0.54274 0.46617 0.0
H213 H 0.1383 0.50269 0.49405 0.0
H214 H 0.21369 0.50059 0.5037 0.0
H215 H 0.29939 0.5403 0.4971 0.0
C216 C 0.42843 0.09714 0.5511 0.0
C217 C 0.47243 0.12789 0.53614 0.0
C218 C 0.40124 0.05175 0.53704 0.0
C219 C 0.41797 0.03696 0.50678 0.0
C220 C 0.46166 0.06837 0.49076 0.0
C221 C 0.48856 0.11322 0.50587 0.0
C222 C 0.35521 0.01916 0.55533 0.0
C223 C 0.48033 0.05437 0.45797 0.0
C224 C 0.372 0.90713 0.49366 0.0
C225 C 0.33752 0.89547 0.46655 0.0
C226 C 0.39822 0.95294 0.50711 0.0
C227 C 0.39041 0.9882 0.49263 0.0
C228 C 0.35611 0.97675 0.46485 0.0
C229 C 0.3298 0.93048 0.4524 0.0
C230 C 0.43392 0.96351 0.53717 0.0
C231 C 0.34724 1.0134 0.44822 0.0
H232 H 0.41586 0.10796 0.57472 0.0
H233 H 0.52241 0.13681 0.49403 0.0
H234 H 0.32675 1.00583 0.53452 0.0
H235 H 0.35616 0.98863 0.5669 0.0
H236 H 0.3467 0.03626 0.57811 0.0
H237 H 0.51352 0.08372 0.44731 0.0
H238 H 0.48641 0.02557 0.46607 0.0
H239 H 0.45441 0.04129 0.43511 0.0
H240 H 0.37798 0.88022 0.50486 0.0
H241 H 0.30337 0.92179 0.43131 0.0
H242 H 0.42568 0.97811 0.56186 0.0
H243 H 0.46895 0.99019 0.52728 0.0
H244 H 0.43538 0.93211 0.54584 0.0
H245 H 0.33576 0.02891 0.47018 0.0
H246 H 0.32026 0.99911 0.42611 0.0
H247 H 0.37993 0.04198 0.43624 0.0
C248 C 0.48297 0.36302 0.66121 0.0
C249 C 0.46068 0.3295 0.63335 0.0
C250 C 0.46349 0.38933 0.6747 0.0
C251 C 0.42117 0.38267 0.65945 0.0
C252 C 0.39893 0.34938 0.63087 0.0
C253 C 0.41869 0.32289 0.61845 0.0
C254 C 0.48791 0.42386 0.70563 0.0
C255 C 0.35428 0.34181 0.61338 0.0
C256 C 0.34923 0.42016 0.71716 0.0
C257 C 0.36354 0.46474 0.70296 0.0
C258 C 0.36742 0.39297 0.7031 0.0
C259 C 0.4001 0.41033 0.67362 0.0
C260 C 0.41353 0.45467 0.65836 0.0
C261 C 0.39549 0.4815 0.67344 0.0
C262 C 0.3527 0.34621 0.72055 0.0
C263 C 0.4475 0.47406 0.62641 0.0
H264 H 0.51527 0.36811 0.673 0.0
H265 H 0.40141 0.29721 0.59676 0.0
H266 H 0.49711 0.45935 0.69638 0.0
H267 H 0.46422 0.4151 0.72984 0.0
H268 H 0.52019 0.42448 0.71484 0.0
H269 H 0.34208 0.3156 0.5907 0.0
H270 H 0.32651 0.32995 0.63473 0.0
H271 H 0.35936 0.37511 0.60193 0.0
H272 H 0.32492 0.40705 0.74018 0.0
H273 H 0.4066 0.5158 0.66216 0.0
H274 H 0.38351 0.34623 0.73261 0.0
H275 H 0.33794 0.31847 0.69914 0.0
H276 H 0.32637 0.33732 0.74283 0.0
H277 H 0.48186 0.47928 0.63519 0.0
H278 H 0.45229 0.50783 0.61628 0.0
H279 H 0.4352 0.44896 0.60298 0.0
C280 C 0.94724 0.34029 0.88388 0.0
C281 C 0.91682 0.35428 0.86945 0.0
C282 C 0.99264 0.3585 0.86983 0.0
C283 C 1.00781 0.39084 0.84012 0.0
C284 C 0.97675 0.40392 0.82462 0.0
C285 C 0.93186 0.38589 0.8397 0.0
C286 C 1.02484 0.34417 0.88754 0.0
C287 C 0.99117 0.43751 0.79242 0.0
C288 C 0.1379 0.47417 0.82759 0.0
C289 C 0.14935 0.45181 0.79994 0.0
C290 C 0.09208 0.45457 0.84105 0.0
C291 C 0.05659 0.41202 0.82599 0.0
C292 C 0.06784 0.38967 0.79764 0.0
C293 C 0.11414 0.40959 0.78523 0.0
C294 C 0.08174 0.47912 0.87173 0.0
C295 C 0.03095 0.34475 0.78037 0.0
H296 H 0.93613 0.31625 0.90709 0.0
H297 H 0.90855 0.39674 0.82825 0.0
H298 H 0.038 0.32937 0.8663 0.0
H299 H 0.05552 0.37518 0.8995 0.0
H300 H 1.00748 0.31801 0.90994 0.0
H301 H 0.96207 0.44198 0.78211 0.0
H302 H 1.02017 0.47203 0.80102 0.0
H303 H 1.00412 0.42509 0.76918 0.0
H304 H 0.16498 0.50666 0.83923 0.0
H305 H 0.12268 0.39223 0.76371 0.0
H306 H 0.06688 0.45565 0.89606 0.0
H307 H 0.05531 0.48804 0.86227 0.0
H308 H 0.1133 0.51157 0.88083 0.0
H309 H 1.01514 0.3172 0.80189 0.0
H310 H 0.04511 0.33245 0.75788 0.0
H311 H 1.00262 0.34952 0.76873 0.0
C312 C 0.5636 0.92305 0.00653 0.0
C313 C 0.5803 0.90796 0.03616 0.0
C314 C 0.59045 0.9679 0.99141 0.0
C315 C 0.63472 0.99889 0.00673 0.0
C316 C 0.65203 0.98367 0.03631 0.0
C317 C 0.62484 0.9383 0.05041 0.0
C318 C 0.57111 0.98238 0.95936 0.0
C319 C 0.69872 1.0158 0.05383 0.0
C320 C 0.72213 0.10508 0.95162 0.0
C321 C 0.71533 0.14035 0.96645 0.0
C322 C 0.69573 0.05881 0.96406 0.0
C323 C 0.66233 0.04765 0.99256 0.0
C324 C 0.65547 0.0832 0.00775 0.0
C325 C 0.6817 0.129 0.99425 0.0
C326 C 0.70352 0.02184 0.94665 0.0
C327 C 0.62079 0.07296 0.03861 0.0
H328 H 0.52934 0.8998 0.99521 0.0
H329 H 0.63788 0.92717 0.07352 0.0
H330 H 0.56573 1.01143 0.96806 0.0
H331 H 0.59633 0.99527 0.936 0.0
H332 H 0.53743 0.95333 0.94916 0.0
H333 H 0.70761 0.9984 0.07613 0.0
H334 H 0.72653 0.02888 0.03246 0.0
H335 H 0.69856 0.04652 0.06586 0.0
H336 H 0.7479 0.11355 0.92998 0.0
H337 H 0.67645 0.15613 0.00598 0.0
H338 H 0.67031 0.99356 0.93513 0.0
H339 H 0.71537 1.006 0.96805 0.0
H340 H 0.72983 0.03593 0.92403 0.0
H341 H 0.58536 0.04659 0.02929 0.0
H342 H 0.62005 0.10456 0.04778 0.0
H343 H 0.62953 0.05808 0.06285 0.0
C344 C 0.70465 0.6161 0.21682 0.0
C345 C 0.69001 0.57137 0.20279 0.0
C346 C 0.68651 0.64335 0.20279 0.0
C347 C 0.65354 0.6259 0.17353 0.0
C348 C 0.63978 0.58142 0.15843 0.0
C349 C 0.65779 0.55454 0.17347 0.0
C350 C 0.70161 0.69027 0.22007 0.0
C351 C 0.60548 0.56192 0.12672 0.0
C352 C 0.57079 0.67342 0.16152 0.0
C353 C 0.59282 0.7067 0.13345 0.0
C354 C 0.59034 0.64715 0.17497 0.0
C355 C 0.63245 0.6536 0.15945 0.0
C356 C 0.65445 0.68666 0.13068 0.0
C357 C 0.63463 0.71313 0.1183 0.0
C358 C 0.5662 0.61288 0.20613 0.0
C359 C 0.69887 0.69399 0.1129 0.0
H360 H 0.72918 0.62927 0.23969 0.0
H361 H 0.64642 0.52013 0.16232 0.0
H362 H 0.71618 0.71785 0.1985 0.0
H363 H 0.671 0.69046 0.23234 0.0
H364 H 0.72819 0.69925 0.24213 0.0
H365 H 0.60047 0.52805 0.11665 0.0
H366 H 0.57125 0.55686 0.13572 0.0
H367 H 0.61759 0.58688 0.10318 0.0
H368 H 0.53863 0.66848 0.1735 0.0
H369 H 0.65172 0.73862 0.09645 0.0
H370 H 0.59016 0.62174 0.23015 0.0
H371 H 0.55676 0.57728 0.19699 0.0
H372 H 0.5341 0.61247 0.21557 0.0
H373 H 0.72684 0.70588 0.13405 0.0
H374 H 0.71091 0.72007 0.09012 0.0
H375 H 0.69355 0.66058 0.1015 0.0
C376 C 0.12113 0.64907 0.34018 0.0
C377 C 0.13641 0.68127 0.36951 0.0
C378 C 0.07626 0.63101 0.32508 0.0
C379 C 0.04544 0.64469 0.34012 0.0
C380 C 0.06085 0.67762 0.3694 0.0
C381 C 0.10623 0.69582 0.38349 0.0
C382 C 0.06158 0.59674 0.29336 0.0
C383 C 0.02892 0.69264 0.38661 0.0
C384 C 0.93937 0.62569 0.28474 0.0
C385 C 0.90397 0.58386 0.29985 0.0
C386 C 0.98564 0.64553 0.29717 0.0
C387 C 0.99668 0.62356 0.32597 0.0
C388 C 0.961 0.58142 0.34145 0.0
C389 C 0.9152 0.56184 0.32794 0.0
C390 C 1.02275 0.68997 0.27943 0.0
C391 C 0.9711 0.55729 0.37263 0.0
H392 H 0.14425 0.63778 0.32906 0.0
H393 H 0.1175 0.72033 0.40637 0.0
H394 H 0.0324 0.5625 0.30232 0.0
H395 H 0.04877 0.60885 0.26979 0.0
H396 H 0.0905 0.59178 0.28335 0.0
H397 H 0.04644 0.7192 0.40871 0.0
H398 H 1.01594 0.7072 0.36502 0.0
H399 H 0.9981 0.662 0.39884 0.0
H400 H 0.93098 0.64277 0.26287 0.0
H401 H 0.88796 0.52967 0.3399 0.0
H402 H 0.05091 0.68471 0.26809 0.0
H403 H 0.03874 0.71794 0.3006 0.0
H404 H 1.00874 0.70199 0.25661 0.0
H405 H 0.99733 0.54793 0.36355 0.0
H406 H 0.9394 0.52516 0.38202 0.0
H407 H 0.9861 0.58123 0.39667 0.0
C408 C 0.55271 0.3342 0.47607 0.0
C409 C 0.58446 0.33816 0.50344 0.0
C410 C 0.56795 0.36269 0.44424 0.0
C411 C 0.61585 0.39638 0.44029 0.0
C412 C 0.64686 0.40349 0.46984 0.0
C413 C 0.63101 0.37371 0.50059 0.0
C414 C 0.53258 0.35412 0.41456 0.0
C415 C 0.69763 0.44075 0.46805 0.0
C416 C 0.68242 0.42544 0.34979 0.0
C417 C 0.68707 0.46857 0.3407 0.0
C418 C 0.65615 0.40006 0.38056 0.0
C419 C 0.63571 0.41927 0.40393 0.0
C420 C 0.63993 0.46276 0.39472 0.0
C421 C 0.66576 0.48706 0.36314 0.0
C422 C 0.65183 0.35342 0.38893 0.0
C423 C 0.61878 0.48433 0.41905 0.0
H424 H 0.51653 0.30708 0.47838 0.0
H425 H 0.65555 0.37767 0.52204 0.0
H426 H 0.50222 0.35462 0.42708 0.0
H427 H 0.54649 0.37998 0.39175 0.0
H428 H 0.51952 0.31873 0.40297 0.0
H429 H 0.71492 0.447 0.49558 0.0
H430 H 0.71623 0.42999 0.44834 0.0
H431 H 0.70135 0.474 0.45779 0.0
H432 H 0.70052 0.41206 0.33335 0.0
H433 H 0.67004 0.52083 0.35636 0.0
H434 H 0.61462 0.32669 0.39268 0.0
H435 H 0.67016 0.35537 0.41522 0.0
H436 H 0.6669 0.34191 0.3666 0.0
H437 H 0.58104 0.45955 0.42289 0.0
H438 H 0.62328 0.51726 0.4072 0.0
H439 H 0.63524 0.49168 0.44694 0.0
C440 C 0.19677 0.65722 0.52991 0.0
C441 C 0.23655 0.67862 0.50743 0.0
C442 C 0.19535 0.63143 0.56148 0.0
C443 C 0.23471 0.62733 0.57064 0.0
C444 C 0.27433 0.64785 0.54723 0.0
C445 C 0.27512 0.67409 0.51647 0.0
C446 C 0.15265 0.6102 0.58584 0.0
C447 C 0.31675 0.64366 0.55554 0.0
C448 C 0.27567 0.6227 0.66727 0.0
C449 C 0.26469 0.57617 0.67014 0.0
C450 C 0.26172 0.63852 0.63652 0.0
C451 C 0.23782 0.60749 0.60698 0.0
C452 C 0.22367 0.55962 0.61093 0.0
C453 C 0.23693 0.54442 0.64277 0.0
C454 C 0.27517 0.68926 0.63473 0.0
C455 C 0.19691 0.52425 0.58124 0.0
H456 H 0.16721 0.6614 0.52316 0.0
H457 H 0.30658 0.69225 0.50001 0.0
H458 H 0.13977 0.57248 0.58967 0.0
H459 H 0.16177 0.62665 0.61374 0.0
H460 H 0.12415 0.61463 0.57404 0.0
H461 H 0.34331 0.6588 0.5332 0.0
H462 H 0.33312 0.66198 0.58183 0.0
H463 H 0.30636 0.60647 0.55927 0.0
H464 H 0.29625 0.64725 0.68871 0.0
H465 H 0.22789 0.50824 0.64509 0.0
H466 H 0.2456 0.69293 0.62449 0.0
H467 H 0.30452 0.70789 0.61501 0.0
H468 H 0.2862 0.70655 0.66226 0.0
H469 H 0.1849 0.53812 0.55845 0.0
H470 H 0.16609 0.49385 0.59376 0.0
H471 H 0.21932 0.51129 0.56963 0.0
C472 C 0.71061 0.228 0.80918 0.0
C473 C 0.70656 0.2557 0.83658 0.0
C474 C 0.68216 0.21477 0.77733 0.0
C475 C 0.64842 0.2289 0.77339 0.0
C476 C 0.64127 0.25277 0.80294 0.0
C477 C 0.67101 0.26668 0.8337 0.0
C478 C 0.69088 0.18816 0.74758 0.0
C479 C 0.60402 0.26628 0.80112 0.0
C480 C 0.61913 0.26621 0.6829 0.0
C481 C 0.57594 0.22773 0.67394 0.0
C482 C 0.64463 0.26537 0.71361 0.0
C483 C 0.62547 0.22578 0.73704 0.0
C484 C 0.58192 0.18649 0.72795 0.0
C485 C 0.55751 0.18797 0.69644 0.0
C486 C 0.69131 0.3077 0.72186 0.0
C487 C 0.56041 0.14382 0.75234 0.0
H488 H 0.73777 0.21899 0.81149 0.0
H489 H 0.66701 0.28722 0.85516 0.0
H490 H 0.66463 0.17562 0.72505 0.0
H491 H 0.72597 0.21093 0.73561 0.0
H492 H 0.69124 0.15773 0.76009 0.0
H493 H 0.5978 0.27739 0.82862 0.0
H494 H 0.61477 0.29558 0.78135 0.0
H495 H 0.57074 0.23672 0.79092 0.0
H496 H 0.63248 0.29766 0.66642 0.0
H497 H 0.52369 0.15848 0.68975 0.0
H498 H 0.71806 0.29722 0.7255 0.0
H499 H 0.68949 0.3241 0.74817 0.0
H500 H 0.70275 0.33427 0.69952 0.0
H501 H 0.58525 0.13096 0.75626 0.0
H502 H 0.52751 0.1153 0.74051 0.0
H503 H 0.55298 0.15296 0.78019 0.0
C504 C 0.37085 0.61049 0.84993 0.0
C505 C 0.36625 0.5674 0.84083 0.0
C506 C 0.3971 0.63587 0.8807 0.0
C507 C 0.41757 0.61669 0.90406 0.0
C508 C 0.41339 0.57322 0.89485 0.0
C509 C 0.38759 0.54893 0.86327 0.0
C510 C 0.40136 0.68248 0.88907 0.0
C511 C 0.43457 0.55167 0.91917 0.0
C512 C 0.50048 0.70169 0.97624 0.0
C513 C 0.46871 0.69768 0.00361 0.0
C514 C 0.48528 0.67325 0.94439 0.0
C515 C 0.43739 0.63955 0.94043 0.0
C516 C 0.40635 0.63238 0.96998 0.0
C517 C 0.42217 0.66213 1.00074 0.0
C518 C 0.52067 0.68188 0.9147 0.0
C519 C 0.35559 0.59511 0.96817 0.0
H520 H 0.35273 0.62386 0.83349 0.0
H521 H 0.38335 0.51518 0.85649 0.0
H522 H 0.38301 0.6805 0.91536 0.0
H523 H 0.43856 0.70924 0.89283 0.0
H524 H 0.38628 0.69399 0.86675 0.0
H525 H 0.4301 0.51875 0.90733 0.0
H526 H 0.4723 0.57647 0.92301 0.0
H527 H 0.41809 0.54428 0.94706 0.0
H528 H 0.53667 0.72883 0.97856 0.0
H529 H 0.39761 0.65814 0.02218 0.0
H530 H 0.53372 0.71728 0.90313 0.0
H531 H 0.50679 0.65605 0.89189 0.0
H532 H 0.55104 0.68138 0.92722 0.0
H533 H 0.33699 0.60587 0.94847 0.0
H534 H 0.33829 0.58881 0.9957 0.0
H535 H 0.3519 0.56188 0.95789 0.0
C536 C 0.77816 0.36181 0.0163 0.0
C537 C 0.81667 0.35717 0.00731 0.0
C538 C 0.77895 0.38804 0.04706 0.0
C539 C 0.81852 0.40844 0.07052 0.0
C540 C 0.85783 0.40422 0.06141 0.0
C541 C 0.8564 0.37844 0.02984 0.0
C542 C 0.7366 0.39236 0.05532 0.0
C543 C 0.90046 0.4253 0.08584 0.0
C544 C 0.81643 0.49138 0.14267 0.0
C545 C 0.78856 0.45962 0.17002 0.0
C546 C 0.82966 0.47615 0.11084 0.0
C547 C 0.81538 0.42825 0.10686 0.0
C548 C 0.79136 0.3972 0.13637 0.0
C549 C 0.77743 0.41305 0.16712 0.0
C550 C 0.85653 0.51153 0.08117 0.0
C551 C 0.77776 0.34643 0.13456 0.0
H552 H 0.74673 0.34374 0.9998 0.0
H553 H 0.88592 0.37417 0.02314 0.0
H554 H 0.72013 0.37403 0.08159 0.0
H555 H 0.74707 0.42957 0.05904 0.0
H556 H 0.71007 0.3773 0.03295 0.0
H557 H 0.92894 0.4208 0.07407 0.0
H558 H 0.91343 0.46303 0.08969 0.0
H559 H 0.89123 0.4088 0.11371 0.0
H560 H 0.82558 0.52758 0.14501 0.0
H561 H 0.75677 0.38849 0.18854 0.0
H562 H 0.83417 0.52451 0.06948 0.0
H563 H 0.8686 0.49766 0.05842 0.0
H564 H 0.88732 0.54192 0.09372 0.0
H565 H 0.74845 0.32791 0.1148 0.0
H566 H 0.76663 0.3291 0.16207 0.0
H567 H 0.8073 0.34267 0.12435 0.0
C568 C 0.34271 0.80804 0.30934 0.0
C569 C 0.34676 0.78035 0.33675 0.0
C570 C 0.37118 0.82129 0.2775 0.0
C571 C 0.40496 0.80721 0.27358 0.0
C572 C 0.41215 0.7834 0.30316 0.0
C573 C 0.38238 0.76945 0.33392 0.0
C574 C 0.3625 0.84794 0.24776 0.0
C575 C 0.44947 0.76999 0.3014 0.0
C576 C 0.43419 0.7697 0.18318 0.0
C577 C 0.47732 0.8082 0.1741 0.0
C578 C 0.40874 0.77058 0.2139 0.0
C579 C 0.42787 0.81025 0.23723 0.0
C580 C 0.47137 0.84956 0.22803 0.0
C581 C 0.49574 0.84803 0.19651 0.0
C582 C 0.36211 0.72822 0.22226 0.0
C583 C 0.49286 0.89231 0.25232 0.0
H584 H 0.31552 0.81701 0.31162 0.0
H585 H 0.3864 0.74893 0.35539 0.0
H586 H 0.38849 0.86011 0.22504 0.0
H587 H 0.32721 0.82539 0.23605 0.0
H588 H 0.36265 0.87864 0.26024 0.0
H589 H 0.45576 0.75901 0.32894 0.0
H590 H 0.43876 0.74063 0.28171 0.0
H591 H 0.48271 0.79955 0.29113 0.0
H592 H 0.42087 0.7382 0.16677 0.0
H593 H 0.52951 0.87755 0.18974 0.0
H594 H 0.33533 0.73864 0.22595 0.0
H595 H 0.36405 0.71189 0.24858 0.0
H596 H 0.35065 0.70161 0.19996 0.0
H597 H 0.468 0.90516 0.25615 0.0
H598 H 0.52576 0.92079 0.24045 0.0
H599 H 0.50028 0.88327 0.28022 0.0
loop_
_geom_bond_atom_site_label_1
_geom_bond_atom_site_label_2
_geom_bond_distance
_geom_bond_site_symmetry_2
_ccdc_geom_bond_type
Mn0 O5 2.095 . S
Mn0 O15 2.162 . S
Mn0 O16 2.297 . S
Mn0 O24 2.385 . S
Mn0 O25 2.209 . S
Mn0 O26 2.094 . S
Mn1 O6 2.121 . S
Mn1 N8 2.257 . S
Mn1 N17 2.282 . S
Mn1 O25 2.215 . S
Mn1 O27 2.117 . S
C2 O24 1.234 . S
C2 O25 1.283 . S
C3 O15 1.281 . S
C3 O16 1.236 . S
C4 O26 1.240 . S
C4 O27 1.264 . S
O5 Mn0 2.095 . S
O5 C14 1.250 . S
O6 Mn1 2.121 . S
O6 C14 1.258 . S
C7 N8 1.326 . S
C7 C11 1.460 . S
C7 H13 0.929 . S
N8 Mn1 2.257 . S
N8 C7 1.326 . S
N8 C12 1.362 . S
C9 C10 1.258 . S
C9 C12 1.431 . S
C9 C29 1.449 . S
C10 C9 1.258 . S
C10 C11 1.477 . S
C10 H30 0.931 . S
C11 C7 1.460 . S
C11 C10 1.477 . S
C11 H31 0.930 . S
C12 N8 1.362 . S
C12 C9 1.431 . S
C12 C22 1.476 . S
H13 C7 0.929 . S
C14 O5 1.250 . S
C14 O6 1.258 . S
O15 Mn0 2.162 . S
O15 C3 1.281 . S
O16 Mn0 2.297 . S
O16 C3 1.236 . S
N17 Mn1 2.282 . S
N17 C18 1.328 . S
N17 C22 1.318 . S
C18 N17 1.328 . S
C18 C19 1.457 . S
C18 H23 0.929 . S
C19 C18 1.457 . S
C19 C20 1.291 . S
C19 H32 0.931 . S
C20 C19 1.291 . S
C20 C21 1.373 . S
C20 H33 0.929 . S
C21 C20 1.373 . S
C21 C22 1.396 . S
C21 C28 1.403 . S
C22 C12 1.476 . S
C22 N17 1.318 . S
C22 C21 1.396 . S
H23 C18 0.929 . S
O24 Mn0 2.385 . S
O24 C2 1.234 . S
O25 Mn0 2.209 . S
O25 Mn1 2.215 . S
O25 C2 1.283 . S
O26 Mn0 2.094 . S
O26 C4 1.240 . S
O27 Mn1 2.117 . S
O27 C4 1.264 . S
C28 C21 1.403 . S
C28 C29 1.399 . S
C28 H34 0.929 . S
C29 C9 1.449 . S
C29 C28 1.399 . S
C29 H35 0.930 . S
H30 C10 0.931 . S
H31 C11 0.930 . S
H32 C19 0.931 . S
H33 C20 0.929 . S
H34 C28 0.929 . S
H35 C29 0.930 . S
Mn36 O41 2.095 . S
Mn36 O51 2.162 . S
Mn36 O52 2.297 . S
Mn36 O60 2.385 . S
Mn36 O61 2.209 . S
Mn36 O62 2.094 . S
Mn37 O42 2.121 . S
Mn37 N44 2.257 . S
Mn37 N53 2.282 . S
Mn37 O61 2.215 . S
Mn37 O63 2.117 . S
C38 O60 1.234 . S
C38 O61 1.283 . S
C39 O51 1.281 . S
C39 O52 1.236 . S
C40 O62 1.240 . S
C40 O63 1.264 . S
O41 Mn36 2.095 . S
O41 C50 1.250 . S
O42 Mn37 2.121 . S
O42 C50 1.258 . S
C43 N44 1.326 . S
C43 C47 1.460 . S
C43 H49 0.929 . S
N44 Mn37 2.257 . S
N44 C43 1.326 . S
N44 C48 1.362 . S
C45 C46 1.258 . S
C45 C48 1.431 . S
C45 C65 1.449 . S
C46 C45 1.258 . S
C46 C47 1.477 . S
C46 H66 0.931 . S
C47 C43 1.460 . S
C47 C46 1.477 . S
C47 H67 0.930 . S
C48 N44 1.362 . S
C48 C45 1.431 . S
C48 C58 1.476 . S
H49 C43 0.929 . S
C50 O41 1.250 . S
C50 O42 1.258 . S
O51 Mn36 2.162 . S
O51 C39 1.281 . S
O52 Mn36 2.297 . S
O52 C39 1.236 . S
N53 Mn37 2.282 . S
N53 C54 1.328 . S
N53 C58 1.318 . S
C54 N53 1.328 . S
C54 C55 1.457 . S
C54 H59 0.929 . S
C55 C54 1.457 . S
C55 C56 1.291 . S
C55 H68 0.931 . S
C56 C55 1.291 . S
C56 C57 1.373 . S
C56 H69 0.929 . S
C57 C56 1.373 . S
C57 C58 1.396 . S
C57 C64 1.403 . S
C58 C48 1.476 . S
C58 N53 1.318 . S
C58 C57 1.396 . S
H59 C54 0.929 . S
O60 Mn36 2.385 . S
O60 C38 1.234 . S
O61 Mn36 2.209 . S
O61 Mn37 2.215 . S
O61 C38 1.283 . S
O62 Mn36 2.094 . S
O62 C40 1.240 . S
O63 Mn37 2.117 . S
O63 C40 1.264 . S
C64 C57 1.403 . S
C64 C65 1.399 . S
C64 H70 0.929 . S
C65 C45 1.449 . S
C65 C64 1.399 . S
C65 H71 0.930 . S
H66 C46 0.931 . S
H67 C47 0.930 . S
H68 C55 0.931 . S
H69 C56 0.929 . S
H70 C64 0.929 . S
H71 C65 0.930 . S
Mn72 O77 2.095 . S
Mn72 O87 2.162 . S
Mn72 O88 2.297 . S
Mn72 O96 2.385 . S
Mn72 O97 2.209 . S
Mn72 O98 2.094 . S
Mn73 O78 2.121 . S
Mn73 N80 2.257 . S
Mn73 N89 2.282 . S
Mn73 O97 2.215 . S
Mn73 O99 2.117 . S
C74 O96 1.234 . S
C74 O97 1.283 . S
C75 O87 1.281 . S
C75 O88 1.236 . S
C76 O98 1.240 . S
C76 O99 1.264 . S
O77 Mn72 2.095 . S
O77 C86 1.250 . S
O78 Mn73 2.121 . S
O78 C86 1.258 . S
C79 N80 1.326 . S
C79 C83 1.460 . S
C79 H85 0.929 . S
N80 Mn73 2.257 . S
N80 C79 1.326 . S
N80 C84 1.362 . S
C81 C82 1.258 . S
C81 C84 1.431 . S
C81 C101 1.449 . S
C82 C81 1.258 . S
C82 C83 1.477 . S
C82 H102 0.931 . S
C83 C79 1.460 . S
C83 C82 1.477 . S
C83 H103 0.930 . S
C84 N80 1.362 . S
C84 C81 1.431 . S
C84 C94 1.476 . S
H85 C79 0.929 . S
C86 O77 1.250 . S
C86 O78 1.258 . S
O87 Mn72 2.162 . S
O87 C75 1.281 . S
O88 Mn72 2.297 . S
O88 C75 1.236 . S
N89 Mn73 2.282 . S
N89 C90 1.328 . S
N89 C94 1.318 . S
C90 N89 1.328 . S
C90 C91 1.457 . S
C90 H95 0.929 . S
C91 C90 1.457 . S
C91 C92 1.291 . S
C91 H104 0.931 . S
C92 C91 1.291 . S
C92 C93 1.373 . S
C92 H105 0.929 1_556 S
C93 C92 1.373 . S
C93 C94 1.396 . S
C93 C100 1.403 . S
C94 C84 1.476 . S
C94 N89 1.318 . S
C94 C93 1.396 . S
H95 C90 0.929 . S
O96 Mn72 2.385 . S
O96 C74 1.234 . S
O97 Mn72 2.209 . S
O97 Mn73 2.215 . S
O97 C74 1.283 . S
O98 Mn72 2.094 . S
O98 C76 1.240 . S
O99 Mn73 2.117 . S
O99 C76 1.264 . S
C100 C93 1.403 . S
C100 C101 1.399 . S
C100 H106 0.929 1_556 S
C101 C81 1.449 . S
C101 C100 1.399 . S
C101 H107 0.930 . S
H102 C82 0.931 . S
H103 C83 0.930 . S
H104 C91 0.931 . S
H105 C92 0.929 1_554 S
H106 C100 0.929 1_554 S
H107 C101 0.930 . S
Mn108 O113 2.095 . S
Mn108 O123 2.162 . S
Mn108 O124 2.297 . S
Mn108 O132 2.385 . S
Mn108 O133 2.209 . S
Mn108 O134 2.094 . S
Mn109 O114 2.121 . S
Mn109 N116 2.257 . S
Mn109 N125 2.282 . S
Mn109 O133 2.215 . S
Mn109 O135 2.117 . S
C110 O132 1.234 . S
C110 O133 1.283 . S
C111 O123 1.281 . S
C111 O124 1.236 . S
C112 O134 1.240 . S
C112 O135 1.264 . S
O113 Mn108 2.095 . S
O113 C122 1.250 . S
O114 Mn109 2.121 . S
O114 C122 1.258 . S
C115 N116 1.326 . S
C115 C119 1.460 . S
C115 H121 0.929 . S
N116 Mn109 2.257 . S
N116 C115 1.326 . S
N116 C120 1.362 . S
C117 C118 1.258 . S
C117 C120 1.431 . S
C117 C137 1.449 . S
C118 C117 1.258 . S
C118 C119 1.477 . S
C118 H138 0.931 . S
C119 C115 1.460 . S
C119 C118 1.477 . S
C119 H139 0.930 . S
C120 N116 1.362 . S
C120 C117 1.431 . S
C120 C130 1.476 . S
H121 C115 0.929 . S
C122 O113 1.250 . S
C122 O114 1.258 . S
O123 Mn108 2.162 . S
O123 C111 1.281 . S
O124 Mn108 2.297 . S
O124 C111 1.236 . S
N125 Mn109 2.282 . S
N125 C126 1.328 . S
N125 C130 1.318 . S
C126 N125 1.328 . S
C126 C127 1.457 . S
C126 H131 0.929 . S
C127 C126 1.457 . S
C127 C128 1.291 . S
C127 H140 0.931 . S
C128 C127 1.291 . S
C128 C129 1.373 . S
C128 H141 0.929 . S
C129 C128 1.373 . S
C129 C130 1.396 . S
C129 C136 1.403 . S
C130 C120 1.476 . S
C130 N125 1.318 . S
C130 C129 1.396 . S
H131 C126 0.929 . S
O132 Mn108 2.385 . S
O132 C110 1.234 . S
O133 Mn108 2.209 . S
O133 Mn109 2.215 . S
O133 C110 1.283 . S
O134 Mn108 2.094 . S
O134 C112 1.240 . S
O135 Mn109 2.117 . S
O135 C112 1.264 . S
C136 C129 1.403 . S
C136 C137 1.399 . S
C136 H142 0.929 . S
C137 C117 1.449 . S
C137 C136 1.399 . S
C137 H143 0.930 . S
H138 C118 0.931 . S
H139 C119 0.930 . S
H140 C127 0.931 . S
H141 C128 0.929 . S
H142 C136 0.929 . S
H143 C137 0.930 . S
Mn144 O149 2.095 . S
Mn144 O159 2.162 . S
Mn144 O160 2.297 . S
Mn144 O168 2.385 . S
Mn144 O169 2.209 . S
Mn144 O170 2.094 . S
Mn145 O150 2.121 . S
Mn145 N152 2.257 . S
Mn145 N161 2.282 . S
Mn145 O169 2.215 . S
Mn145 O171 2.117 . S
C146 O168 1.234 . S
C146 O169 1.283 . S
C147 O159 1.281 . S
C147 O160 1.236 . S
C148 O170 1.240 . S
C148 O171 1.264 . S
O149 Mn144 2.095 . S
O149 C158 1.250 . S
O150 Mn145 2.121 . S
O150 C158 1.258 . S
C151 N152 1.326 . S
C151 C155 1.460 . S
C151 H157 0.929 . S
N152 Mn145 2.257 . S
N152 C151 1.326 . S
N152 C156 1.362 . S
C153 C154 1.258 . S
C153 C156 1.431 . S
C153 C173 1.449 . S
C154 C153 1.258 . S
C154 C155 1.477 . S
C154 H174 0.931 . S
C155 C151 1.460 . S
C155 C154 1.477 . S
C155 H175 0.930 . S
C156 N152 1.362 . S
C156 C153 1.431 . S
C156 C166 1.476 . S
H157 C151 0.929 . S
C158 O149 1.250 . S
C158 O150 1.258 . S
O159 Mn144 2.162 . S
O159 C147 1.281 . S
O160 Mn144 2.297 . S
O160 C147 1.236 . S
N161 Mn145 2.282 . S
N161 C162 1.328 . S
N161 C166 1.318 . S
C162 N161 1.328 . S
C162 C163 1.457 . S
C162 H167 0.929 . S
C163 C162 1.457 . S
C163 C164 1.291 . S
C163 H176 0.931 . S
C164 C163 1.291 . S
C164 C165 1.373 . S
C164 H177 0.929 . S
C165 C164 1.373 . S
C165 C166 1.396 . S
C165 C172 1.403 . S
C166 C156 1.476 . S
C166 N161 1.318 . S
C166 C165 1.396 . S
H167 C162 0.929 . S
O168 Mn144 2.385 . S
O168 C146 1.234 . S
O169 Mn144 2.209 . S
O169 Mn145 2.215 . S
O169 C146 1.283 . S
O170 Mn144 2.094 . S
O170 C148 1.240 . S
O171 Mn145 2.117 . S
O171 C148 1.264 . S
C172 C165 1.403 . S
C172 C173 1.399 . S
C172 H178 0.929 . S
C173 C153 1.449 . S
C173 C172 1.399 . S
C173 H179 0.930 . S
H174 C154 0.931 . S
H175 C155 0.930 . S
H176 C163 0.931 . S
H177 C164 0.929 . S
H178 C172 0.929 . S
H179 C173 0.930 . S
Mn180 O185 2.095 . S
Mn180 O195 2.162 . S
Mn180 O196 2.297 . S
Mn180 O204 2.385 . S
Mn180 O205 2.209 . S
Mn180 O206 2.094 . S
Mn181 O186 2.121 . S
Mn181 N188 2.257 . S
Mn181 N197 2.282 . S
Mn181 O205 2.215 . S
Mn181 O207 2.117 . S
C182 O204 1.234 . S
C182 O205 1.283 . S
C183 O195 1.281 . S
C183 O196 1.236 . S
C184 O206 1.240 . S
C184 O207 1.264 . S
O185 Mn180 2.095 . S
O185 C194 1.250 . S
O186 Mn181 2.121 . S
O186 C194 1.258 . S
C187 N188 1.326 . S
C187 C191 1.460 . S
C187 H193 0.929 . S
N188 Mn181 2.257 . S
N188 C187 1.326 . S
N188 C192 1.362 . S
C189 C190 1.258 . S
C189 C192 1.431 . S
C189 C209 1.449 . S
C190 C189 1.258 . S
C190 C191 1.477 . S
C190 H210 0.931 . S
C191 C187 1.460 . S
C191 C190 1.477 . S
C191 H211 0.930 . S
C192 N188 1.362 . S
C192 C189 1.431 . S
C192 C202 1.476 . S
H193 C187 0.929 . S
C194 O185 1.250 . S
C194 O186 1.258 . S
O195 Mn180 2.162 . S
O195 C183 1.281 . S
O196 Mn180 2.297 . S
O196 C183 1.236 . S
N197 Mn181 2.282 . S
N197 C198 1.328 . S
N197 C202 1.318 . S
C198 N197 1.328 . S
C198 C199 1.457 . S
C198 H203 0.929 . S
C199 C198 1.457 . S
C199 C200 1.291 . S
C199 H212 0.931 . S
C200 C199 1.291 . S
C200 C201 1.373 . S
C200 H213 0.929 . S
C201 C200 1.373 . S
C201 C202 1.396 . S
C201 C208 1.403 . S
C202 C192 1.476 . S
C202 N197 1.318 . S
C202 C201 1.396 . S
H203 C198 0.929 . S
O204 Mn180 2.385 . S
O204 C182 1.234 . S
O205 Mn180 2.209 . S
O205 Mn181 2.215 . S
O205 C182 1.283 . S
O206 Mn180 2.094 . S
O206 C184 1.240 . S
O207 Mn181 2.117 . S
O207 C184 1.264 . S
C208 C201 1.403 . S
C208 C209 1.399 . S
C208 H214 0.929 . S
C209 C189 1.449 . S
C209 C208 1.399 . S
C209 H215 0.930 . S
H210 C190 0.931 . S
H211 C191 0.930 . S
H212 C199 0.931 . S
H213 C200 0.929 . S
H214 C208 0.929 . S
H215 C209 0.930 . S
C216 C217 1.391 . S
C216 C218 1.394 . S
C216 H232 0.931 . S
C217 C216 1.391 . S
C217 C221 1.376 . S
C218 C216 1.394 . S
C218 C219 1.369 . S
C218 C222 1.531 1_545 S
C219 C218 1.369 . S
C219 C220 1.410 . S
C219 C227 1.503 1_545 S
C220 C219 1.410 . S
C220 C221 1.392 . S
C220 C223 1.511 . S
C221 C217 1.376 . S
C221 C220 1.392 . S
C221 H233 0.929 . S
C222 C218 1.531 1_565 S
C222 H234 0.960 . S
C222 H235 0.962 . S
C222 H236 0.962 . S
C223 C220 1.511 . S
C223 H237 0.961 . S
C223 H238 0.961 . S
C223 H239 0.961 . S
C224 C225 1.370 . S
C224 C226 1.363 . S
C224 H240 0.931 . S
C225 C224 1.370 . S
C225 C229 1.408 . S
C226 C224 1.363 . S
C226 C227 1.370 . S
C226 C230 1.524 1_565 S
C227 C219 1.503 1_565 S
C227 C226 1.370 . S
C227 C228 1.403 . S
C228 C227 1.403 . S
C228 C229 1.404 . S
C228 C231 1.539 . S
C229 C225 1.408 . S
C229 C228 1.404 . S
C229 H241 0.930 . S
C230 C226 1.524 1_545 S
C230 H242 0.956 . S
C230 H243 0.961 . S
C230 H244 0.961 1_545 S
C231 C228 1.539 . S
C231 H245 0.958 . S
C231 H246 0.961 . S
C231 H247 0.960 . S
H232 C216 0.931 . S
H233 C221 0.929 . S
H234 C222 0.960 . S
H235 C222 0.962 . S
H236 C222 0.962 . S
H237 C223 0.961 . S
H238 C223 0.961 . S
H239 C223 0.961 . S
H240 C224 0.931 . S
H241 C229 0.930 . S
H242 C230 0.956 . S
H243 C230 0.961 . S
H244 C230 0.961 1_565 S
H245 C231 0.958 . S
H246 C231 0.961 . S
H247 C231 0.960 . S
C248 C249 1.391 . S
C248 C250 1.394 . S
C248 H264 0.931 . S
C249 C248 1.391 . S
C249 C253 1.376 . S
C250 C248 1.394 . S
C250 C251 1.369 . S
C250 C254 1.531 . S
C251 C250 1.369 . S
C251 C252 1.410 . S
C251 C259 1.503 . S
C252 C251 1.410 . S
C252 C253 1.392 . S
C252 C255 1.511 . S
C253 C249 1.376 . S
C253 C252 1.392 . S
C253 H265 0.929 . S
C254 C250 1.531 . S
C254 H266 0.960 . S
C254 H267 0.962 . S
C254 H268 0.960 . S
C255 C252 1.511 . S
C255 H269 0.961 . S
C255 H270 0.961 . S
C255 H271 0.961 . S
C256 C257 1.370 . S
C256 C258 1.363 . S
C256 H272 0.931 . S
C257 C256 1.370 . S
C257 C261 1.408 . S
C258 C256 1.363 . S
C258 C259 1.370 . S
C258 C262 1.524 . S
C259 C251 1.503 . S
C259 C258 1.370 . S
C259 C260 1.403 . S
C260 C259 1.403 . S
C260 C261 1.404 . S
C260 C263 1.539 . S
C261 C257 1.408 . S
C261 C260 1.404 . S
C261 H273 0.930 . S
C262 C258 1.524 . S
C262 H274 0.956 . S
C262 H275 0.961 . S
C262 H276 0.961 . S
C263 C260 1.539 . S
C263 H277 0.958 . S
C263 H278 0.961 . S
C263 H279 0.960 . S
H264 C248 0.931 . S
H265 C253 0.929 . S
H266 C254 0.960 . S
H267 C254 0.962 . S
H268 C254 0.960 . S
H269 C255 0.961 . S
H270 C255 0.961 . S
H271 C255 0.961 . S
H272 C256 0.931 . S
H273 C261 0.930 . S
H274 C262 0.956 . S
H275 C262 0.961 . S
H276 C262 0.961 . S
H277 C263 0.958 . S
H278 C263 0.961 . S
H279 C263 0.960 . S
C280 C281 1.391 . S
C280 C282 1.394 . S
C280 H296 0.931 . S
C281 C280 1.391 . S
C281 C285 1.376 . S
C282 C280 1.394 . S
C282 C283 1.369 . S
C282 C286 1.531 1_655 S
C283 C282 1.369 . S
C283 C284 1.410 . S
C283 C291 1.503 1_655 S
C284 C283 1.410 . S
C284 C285 1.392 . S
C284 C287 1.511 . S
C285 C281 1.376 . S
C285 C284 1.392 . S
C285 H297 0.929 . S
C286 C282 1.531 1_455 S
C286 H298 0.960 . S
C286 H299 0.962 . S
C286 H300 0.960 1_455 S
C287 C284 1.511 . S
C287 H301 0.961 . S
C287 H302 0.961 . S
C287 H303 0.961 . S
C288 C289 1.370 . S
C288 C290 1.363 . S
C288 H304 0.931 . S
C289 C288 1.370 . S
C289 C293 1.408 . S
C290 C288 1.363 . S
C290 C291 1.370 . S
C290 C294 1.524 . S
C291 C283 1.503 1_455 S
C291 C290 1.370 . S
C291 C292 1.403 . S
C292 C291 1.403 . S
C292 C293 1.404 . S
C292 C295 1.539 . S
C293 C289 1.408 . S
C293 C292 1.404 . S
C293 H305 0.930 . S
C294 C290 1.524 . S
C294 H306 0.956 . S
C294 H307 0.961 1_455 S
C294 H308 0.961 . S
C295 C292 1.539 . S
C295 H309 0.958 . S
C295 H310 0.961 . S
C295 H311 0.960 1_455 S
H296 C280 0.931 . S
H297 C285 0.929 . S
H298 C286 0.960 . S
H299 C286 0.962 . S
H300 C286 0.960 1_655 S
H301 C287 0.961 . S
H302 C287 0.961 . S
H303 C287 0.961 . S
H304 C288 0.931 . S
H305 C293 0.930 . S
H306 C294 0.956 . S
H307 C294 0.961 1_655 S
H308 C294 0.961 . S
H309 C295 0.958 . S
H310 C295 0.961 . S
H311 C295 0.960 1_655 S
C312 C313 1.391 . S
C312 C314 1.394 . S
C312 H328 0.931 . S
C313 C312 1.391 . S
C313 C317 1.376 . S
C314 C312 1.394 . S
C314 C315 1.369 . S
C314 C318 1.531 . S
C315 C314 1.369 . S
C315 C316 1.410 . S
C315 C323 1.503 1_564 S
C316 C315 1.410 . S
C316 C317 1.392 . S
C316 C319 1.511 . S
C317 C313 1.376 . S
C317 C316 1.392 . S
C317 H329 0.929 . S
C318 C314 1.531 . S
C318 H330 0.960 1_565 S
C318 H331 0.962 . S
C318 H332 0.960 . S
C319 C316 1.511 . S
C319 H333 0.961 . S
C319 H334 0.976 1_554 S
C319 H335 0.961 . S
C320 C321 1.370 . S
C320 C322 1.363 . S
C320 H336 0.931 . S
C321 C320 1.370 . S
C321 C325 1.408 1_556 S
C322 C320 1.363 . S
C322 C323 1.370 . S
C322 C326 1.524 1_545 S
C323 C315 1.503 1_546 S
C323 C322 1.370 . S
C323 C324 1.403 1_556 S
C324 C323 1.403 1_554 S
C324 C325 1.404 . S
C324 C327 1.539 . S
C325 C321 1.408 1_554 S
C325 C324 1.404 . S
C325 H337 0.930 . S
C326 C322 1.524 1_565 S
C326 H338 0.956 . S
C326 H339 0.961 . S
C326 H340 0.961 . S
C327 C324 1.539 . S
C327 H341 0.958 . S
C327 H342 0.961 . S
C327 H343 0.960 . S
H328 C312 0.931 . S
H329 C317 0.929 . S
H330 C318 0.960 1_545 S
H331 C318 0.962 . S
H332 C318 0.960 . S
H333 C319 0.961 . S
H334 C319 0.976 1_556 S
H335 C319 0.961 . S
H336 C320 0.931 . S
H337 C325 0.930 . S
H338 C326 0.956 . S
H339 C326 0.961 . S
H340 C326 0.961 . S
H341 C327 0.958 . S
H342 C327 0.961 . S
H343 C327 0.960 . S
C344 C345 1.391 . S
C344 C346 1.394 . S
C344 H360 0.931 . S
C345 C344 1.391 . S
C345 C349 1.376 . S
C346 C344 1.394 . S
C346 C347 1.369 . S
C346 C350 1.531 . S
C347 C346 1.369 . S
C347 C348 1.410 . S
C347 C355 1.503 . S
C348 C347 1.410 . S
C348 C349 1.392 . S
C348 C351 1.511 . S
C349 C345 1.376 . S
C349 C348 1.392 . S
C349 H361 0.929 . S
C350 C346 1.531 . S
C350 H362 0.960 . S
C350 H363 0.962 . S
C350 H364 0.960 . S
C351 C348 1.511 . S
C351 H365 0.961 . S
C351 H366 0.961 . S
C351 H367 0.961 . S
C352 C353 1.370 . S
C352 C354 1.363 . S
C352 H368 0.931 . S
C353 C352 1.370 . S
C353 C357 1.408 . S
C354 C352 1.363 . S
C354 C355 1.370 . S
C354 C358 1.524 . S
C355 C347 1.503 . S
C355 C354 1.370 . S
C355 C356 1.403 . S
C356 C355 1.403 . S
C356 C357 1.404 . S
C356 C359 1.539 . S
C357 C353 1.408 . S
C357 C356 1.404 . S
C357 H369 0.930 . S
C358 C354 1.524 . S
C358 H370 0.956 . S
C358 H371 0.961 . S
C358 H372 0.961 . S
C359 C356 1.539 . S
C359 H373 0.958 . S
C359 H374 0.961 . S
C359 H375 0.960 . S
H360 C344 0.931 . S
H361 C349 0.929 . S
H362 C350 0.960 . S
H363 C350 0.962 . S
H364 C350 0.960 . S
H365 C351 0.961 . S
H366 C351 0.961 . S
H367 C351 0.961 . S
H368 C352 0.931 . S
H369 C357 0.930 . S
H370 C358 0.956 . S
H371 C358 0.961 . S
H372 C358 0.961 . S
H373 C359 0.958 . S
H374 C359 0.961 . S
H375 C359 0.960 . S
C376 C377 1.391 . S
C376 C378 1.394 . S
C376 H392 0.931 . S
C377 C376 1.391 . S
C377 C381 1.376 . S
C378 C376 1.394 . S
C378 C379 1.369 . S
C378 C382 1.535 . S
C379 C378 1.369 . S
C379 C380 1.410 . S
C379 C387 1.503 1_455 S
C380 C379 1.410 . S
C380 C381 1.392 . S
C380 C383 1.511 . S
C381 C377 1.376 . S
C381 C380 1.392 . S
C381 H393 0.929 . S
C382 C378 1.535 . S
C382 H394 0.940 1_455 S
C382 H395 0.970 . S
C382 H396 0.968 . S
C383 C380 1.511 . S
C383 H397 0.961 . S
C383 H398 0.961 . S
C383 H399 0.961 . S
C384 C385 1.370 . S
C384 C386 1.363 . S
C384 H400 0.931 . S
C385 C384 1.370 . S
C385 C389 1.408 . S
C386 C384 1.363 . S
C386 C387 1.370 . S
C386 C390 1.524 1_655 S
C387 C379 1.503 1_655 S
C387 C386 1.370 . S
C387 C388 1.403 . S
C388 C387 1.403 . S
C388 C389 1.404 . S
C388 C391 1.539 . S
C389 C385 1.408 . S
C389 C388 1.404 . S
C389 H401 0.930 . S
C390 C386 1.524 1_455 S
C390 H402 0.956 . S
C390 H403 0.961 . S
C390 H404 0.962 . S
C391 C388 1.539 . S
C391 H405 0.958 . S
C391 H406 0.961 . S
C391 H407 0.960 . S
H392 C376 0.931 . S
H393 C381 0.929 . S
H394 C382 0.940 1_655 S
H395 C382 0.970 . S
H396 C382 0.968 . S
H397 C383 0.961 . S
H398 C383 0.961 . S
H399 C383 0.961 . S
H400 C384 0.931 . S
H401 C389 0.930 . S
H402 C390 0.956 . S
H403 C390 0.961 . S
H404 C390 0.962 . S
H405 C391 0.958 . S
H406 C391 0.961 . S
H407 C391 0.960 . S
C408 C409 1.391 . S
C408 C410 1.394 . S
C408 H424 0.931 . S
C409 C408 1.391 . S
C409 C413 1.376 . S
C410 C408 1.394 . S
C410 C411 1.369 . S
C410 C414 1.531 . S
C411 C410 1.369 . S
C411 C412 1.410 . S
C411 C419 1.503 . S
C412 C411 1.410 . S
C412 C413 1.392 . S
C412 C415 1.511 . S
C413 C409 1.376 . S
C413 C412 1.392 . S
C413 H425 0.929 . S
C414 C410 1.531 . S
C414 H426 0.960 . S
C414 H427 0.962 . S
C414 H428 0.960 . S
C415 C412 1.511 . S
C415 H429 0.961 . S
C415 H430 0.961 . S
C415 H431 0.961 . S
C416 C417 1.370 . S
C416 C418 1.363 . S
C416 H432 0.931 . S
C417 C416 1.370 . S
C417 C421 1.408 . S
C418 C416 1.363 . S
C418 C419 1.370 . S
C418 C422 1.524 . S
C419 C411 1.503 . S
C419 C418 1.370 . S
C419 C420 1.403 . S
C420 C419 1.403 . S
C420 C421 1.404 . S
C420 C423 1.539 . S
C421 C417 1.408 . S
C421 C420 1.404 . S
C421 H433 0.930 . S
C422 C418 1.524 . S
C422 H434 0.956 . S
C422 H435 0.961 . S
C422 H436 0.961 . S
C423 C420 1.539 . S
C423 H437 0.958 . S
C423 H438 0.961 . S
C423 H439 0.960 . S
H424 C408 0.931 . S
H425 C413 0.929 . S
H426 C414 0.960 . S
H427 C414 0.962 . S
H428 C414 0.960 . S
H429 C415 0.961 . S
H430 C415 0.961 . S
H431 C415 0.961 . S
H432 C416 0.931 . S
H433 C421 0.930 . S
H434 C422 0.956 . S
H435 C422 0.961 . S
H436 C422 0.961 . S
H437 C423 0.958 . S
H438 C423 0.961 . S
H439 C423 0.960 . S
C440 C441 1.391 . S
C440 C442 1.394 . S
C440 H456 0.931 . S
C441 C440 1.391 . S
C441 C445 1.376 . S
C442 C440 1.394 . S
C442 C443 1.369 . S
C442 C446 1.531 . S
C443 C442 1.369 . S
C443 C444 1.410 . S
C443 C451 1.503 . S
C444 C443 1.410 . S
C444 C445 1.392 . S
C444 C447 1.511 . S
C445 C441 1.376 . S
C445 C444 1.392 . S
C445 H457 0.929 . S
C446 C442 1.531 . S
C446 H458 0.960 . S
C446 H459 0.962 . S
C446 H460 0.960 . S
C447 C444 1.511 . S
C447 H461 0.961 . S
C447 H462 0.961 . S
C447 H463 0.961 . S
C448 C449 1.370 . S
C448 C450 1.363 . S
C448 H464 0.931 . S
C449 C448 1.370 . S
C449 C453 1.408 . S
C450 C448 1.363 . S
C450 C451 1.370 . S
C450 C454 1.524 . S
C451 C443 1.503 . S
C451 C450 1.370 . S
C451 C452 1.403 . S
C452 C451 1.403 . S
C452 C453 1.404 . S
C452 C455 1.539 . S
C453 C449 1.408 . S
C453 C452 1.404 . S
C453 H465 0.930 . S
C454 C450 1.524 . S
C454 H466 0.956 . S
C454 H467 0.961 . S
C454 H468 0.961 . S
C455 C452 1.539 . S
C455 H469 0.958 . S
C455 H470 0.961 . S
C455 H471 0.960 . S
H456 C440 0.931 . S
H457 C445 0.929 . S
H458 C446 0.960 . S
H459 C446 0.962 . S
H460 C446 0.960 . S
H461 C447 0.961 . S
H462 C447 0.961 . S
H463 C447 0.961 . S
H464 C448 0.931 . S
H465 C453 0.930 . S
H466 C454 0.956 . S
H467 C454 0.961 . S
H468 C454 0.961 . S
H469 C455 0.958 . S
H470 C455 0.961 . S
H471 C455 0.960 . S
C472 C473 1.391 . S
C472 C474 1.394 . S
C472 H488 0.931 . S
C473 C472 1.391 . S
C473 C477 1.376 . S
C474 C472 1.394 . S
C474 C475 1.369 . S
C474 C478 1.531 . S
C475 C474 1.369 . S
C475 C476 1.410 . S
C475 C483 1.503 . S
C476 C475 1.410 . S
C476 C477 1.392 . S
C476 C479 1.511 . S
C477 C473 1.376 . S
C477 C476 1.392 . S
C477 H489 0.929 . S
C478 C474 1.531 . S
C478 H490 0.960 . S
C478 H491 0.962 . S
C478 H492 0.960 . S
C479 C476 1.511 . S
C479 H493 0.961 . S
C479 H494 0.961 . S
C479 H495 0.961 . S
C480 C481 1.370 . S
C480 C482 1.363 . S
C480 H496 0.931 . S
C481 C480 1.370 . S
C481 C485 1.408 . S
C482 C480 1.363 . S
C482 C483 1.370 . S
C482 C486 1.524 . S
C483 C475 1.503 . S
C483 C482 1.370 . S
C483 C484 1.403 . S
C484 C483 1.403 . S
C484 C485 1.404 . S
C484 C487 1.539 . S
C485 C481 1.408 . S
C485 C484 1.404 . S
C485 H497 0.930 . S
C486 C482 1.524 . S
C486 H498 0.956 . S
C486 H499 0.961 . S
C486 H500 0.961 . S
C487 C484 1.539 . S
C487 H501 0.958 . S
C487 H502 0.961 . S
C487 H503 0.960 . S
H488 C472 0.931 . S
H489 C477 0.929 . S
H490 C478 0.960 . S
H491 C478 0.962 . S
H492 C478 0.960 . S
H493 C479 0.961 . S
H494 C479 0.961 . S
H495 C479 0.961 . S
H496 C480 0.931 . S
H497 C485 0.930 . S
H498 C486 0.956 . S
H499 C486 0.961 . S
H500 C486 0.961 . S
H501 C487 0.958 . S
H502 C487 0.961 . S
H503 C487 0.960 . S
C504 C505 1.391 . S
C504 C506 1.394 . S
C504 H520 0.931 . S
C505 C504 1.391 . S
C505 C509 1.376 . S
C506 C504 1.394 . S
C506 C507 1.369 . S
C506 C510 1.531 . S
C507 C506 1.369 . S
C507 C508 1.410 . S
C507 C515 1.503 . S
C508 C507 1.410 . S
C508 C509 1.392 . S
C508 C511 1.511 . S
C509 C505 1.376 . S
C509 C508 1.392 . S
C509 H521 0.929 . S
C510 C506 1.531 . S
C510 H522 0.960 . S
C510 H523 0.962 . S
C510 H524 0.960 . S
C511 C508 1.511 . S
C511 H525 0.961 . S
C511 H526 0.961 . S
C511 H527 0.961 . S
C512 C513 1.370 . S
C512 C514 1.363 . S
C512 H528 0.931 . S
C513 C512 1.370 . S
C513 C517 1.408 . S
C514 C512 1.363 . S
C514 C515 1.370 . S
C514 C518 1.524 . S
C515 C507 1.503 . S
C515 C514 1.370 . S
C515 C516 1.403 . S
C516 C515 1.403 . S
C516 C517 1.404 . S
C516 C519 1.539 . S
C517 C513 1.408 . S
C517 C516 1.404 . S
C517 H529 0.930 . S
C518 C514 1.524 . S
C518 H530 0.956 . S
C518 H531 0.961 . S
C518 H532 0.961 . S
C519 C516 1.539 . S
C519 H533 0.958 . S
C519 H534 0.961 . S
C519 H535 0.960 . S
H520 C504 0.931 . S
H521 C509 0.929 . S
H522 C510 0.960 . S
H523 C510 0.962 . S
H524 C510 0.960 . S
H525 C511 0.961 . S
H526 C511 0.961 . S
H527 C511 0.961 . S
H528 C512 0.931 . S
H529 C517 0.930 . S
H530 C518 0.956 . S
H531 C518 0.961 . S
H532 C518 0.961 . S
H533 C519 0.958 . S
H534 C519 0.961 . S
H535 C519 0.960 . S
C536 C537 1.391 . S
C536 C538 1.394 . S
C536 H552 0.931 1_554 S
C537 C536 1.391 . S
C537 C541 1.376 . S
C538 C536 1.394 . S
C538 C539 1.369 . S
C538 C542 1.531 . S
C539 C538 1.369 . S
C539 C540 1.410 . S
C539 C547 1.503 . S
C540 C539 1.410 . S
C540 C541 1.392 . S
C540 C543 1.511 . S
C541 C537 1.376 . S
C541 C540 1.392 . S
C541 H553 0.929 . S
C542 C538 1.531 . S
C542 H554 0.960 . S
C542 H555 0.962 . S
C542 H556 0.960 . S
C543 C540 1.511 . S
C543 H557 0.961 . S
C543 H558 0.961 . S
C543 H559 0.961 . S
C544 C545 1.370 . S
C544 C546 1.363 . S
C544 H560 0.931 . S
C545 C544 1.370 . S
C545 C549 1.408 . S
C546 C544 1.363 . S
C546 C547 1.370 . S
C546 C550 1.524 . S
C547 C539 1.503 . S
C547 C546 1.370 . S
C547 C548 1.403 . S
C548 C547 1.403 . S
C548 C549 1.404 . S
C548 C551 1.539 . S
C549 C545 1.408 . S
C549 C548 1.404 . S
C549 H561 0.930 . S
C550 C546 1.524 . S
C550 H562 0.956 . S
C550 H563 0.961 . S
C550 H564 0.961 . S
C551 C548 1.539 . S
C551 H565 0.958 . S
C551 H566 0.961 . S
C551 H567 0.960 . S
H552 C536 0.931 1_556 S
H553 C541 0.929 . S
H554 C542 0.960 . S
H555 C542 0.962 . S
H556 C542 0.960 . S
H557 C543 0.961 . S
H558 C543 0.961 . S
H559 C543 0.961 . S
H560 C544 0.931 . S
H561 C549 0.930 . S
H562 C550 0.956 . S
H563 C550 0.961 . S
H564 C550 0.961 . S
H565 C551 0.958 . S
H566 C551 0.961 . S
H567 C551 0.960 . S
C568 C569 1.391 . S
C568 C570 1.394 . S
C568 H584 0.931 . S
C569 C568 1.391 . S
C569 C573 1.376 . S
C570 C568 1.394 . S
C570 C571 1.369 . S
C570 C574 1.531 . S
C571 C570 1.369 . S
C571 C572 1.410 . S
C571 C579 1.503 . S
C572 C571 1.410 . S
C572 C573 1.392 . S
C572 C575 1.511 . S
C573 C569 1.376 . S
C573 C572 1.392 . S
C573 H585 0.929 . S
C574 C570 1.531 . S
C574 H586 0.960 . S
C574 H587 0.962 . S
C574 H588 0.960 . S
C575 C572 1.511 . S
C575 H589 0.961 . S
C575 H590 0.961 . S
C575 H591 0.961 . S
C576 C577 1.370 . S
C576 C578 1.363 . S
C576 H592 0.931 . S
C577 C576 1.370 . S
C577 C581 1.408 . S
C578 C576 1.363 . S
C578 C579 1.370 . S
C578 C582 1.524 . S
C579 C571 1.503 . S
C579 C578 1.370 . S
C579 C580 1.403 . S
C580 C579 1.403 . S
C580 C581 1.404 . S
C580 C583 1.539 . S
C581 C577 1.408 . S
C581 C580 1.404 . S
C581 H593 0.930 . S
C582 C578 1.524 . S
C582 H594 0.956 . S
C582 H595 0.961 . S
C582 H596 0.961 . S
C583 C580 1.539 . S
C583 H597 0.958 . S
C583 H598 0.961 . S
C583 H599 0.960 . S
H584 C568 0.931 . S
H585 C573 0.929 . S
H586 C574 0.960 . S
H587 C574 0.962 . S
H588 C574 0.960 . S
H589 C575 0.961 . S
H590 C575 0.961 . S
H591 C575 0.961 . S
H592 C576 0.931 . S
H593 C581 0.930 . S
H594 C582 0.956 . S
H595 C582 0.961 . S
H596 C582 0.961 . S
H597 C583 0.958 . S
H598 C583 0.961 . S
H599 C583 0.960 . S
C217 C4 1.573 . S
C225 C183 1.571 . S
C249 C3 1.573 . S
C257 C40 1.566 . S
C281 C76 1.573 . S
C289 C39 1.570 . S
C313 C112 1.568 . S
C321 C75 1.572 . S
C345 C148 1.560 . S
C353 C111 1.573 . S
C377 C184 1.571 . S
C385 C147 1.572 . S
C409 C14 1.403 . S
C417 C146 1.460 . S
C441 C182 1.452 . S
C449 C50 1.425 . S
C473 C86 1.435 . S
C481 C2 1.458 . S
C505 C38 1.465 . S
C513 C122 1.398 1_556 S
C537 C74 1.453 1_554 S
C545 C158 1.410 . S
C569 C194 1.438 . S
C577 C110 1.458 . S
