# Generated by pormake.
# Topology wir, (6)-cn, num edge types: 1
# Building blocks:
#     Node 0, Type 0, BuildingBlock: JUFBIX_clean_sbu_0, # of connection points: 6
#     Node 1, Type 0, BuildingBlock: JUFBIX_clean_sbu_0, # of connection points: 6
#     Node 2, Type 0, BuildingBlock: JUFBIX_clean_sbu_0, # of connection points: 6
#     Node 3, Type 0, BuildingBlock: JUFBIX_clean_sbu_0, # of connection points: 6
#     Node 4, Type 0, BuildingBlock: JUFBIX_clean_sbu_0, # of connection points: 6
#     Node 5, Type 0, BuildingBlock: JUFBIX_clean_sbu_0, # of connection points: 6
#     Node 6, Type 0, BuildingBlock: JUFBIX_clean_sbu_0, # of connection points: 6
#     Node 7, Type 0, BuildingBlock: JUFBIX_clean_sbu_0, # of connection points: 6
#     Node 8, Type 0, BuildingBlock: JUFBIX_clean_sbu_0, # of connection points: 6
#     Node 9, Type 0, BuildingBlock: JUFBIX_clean_sbu_0, # of connection points: 6
#     Node 10, Type 0, BuildingBlock: JUFBIX_clean_sbu_0, # of connection points: 6
#     Node 11, Type 0, BuildingBlock: JUFBIX_clean_sbu_0, # of connection points: 6
#     Node 12, Type 0, BuildingBlock: JUFBIX_clean_sbu_0, # of connection points: 6
#     Node 13, Type 0, BuildingBlock: JUFBIX_clean_sbu_0, # of connection points: 6
#     Node 14, Type 0, BuildingBlock: JUFBIX_clean_sbu_0, # of connection points: 6
#     Node 15, Type 0, BuildingBlock: JUFBIX_clean_sbu_0, # of connection points: 6
#     Node 16, Type 0, BuildingBlock: JUFBIX_clean_sbu_0, # of connection points: 6
#     Node 17, Type 0, BuildingBlock: JUFBIX_clean_sbu_0, # of connection points: 6
#     Node 18, Type 0, BuildingBlock: JUFBIX_clean_sbu_0, # of connection points: 6
#     Node 19, Type 0, BuildingBlock: JUFBIX_clean_sbu_0, # of connection points: 6
#     Node 20, Type 0, BuildingBlock: JUFBIX_clean_sbu_0, # of connection points: 6
#     Node 21, Type 0, BuildingBlock: JUFBIX_clean_sbu_0, # of connection points: 6
#     Node 22, Type 0, BuildingBlock: JUFBIX_clean_sbu_0, # of connection points: 6
#     Node 23, Type 0, BuildingBlock: JUFBIX_clean_sbu_0, # of connection points: 6
#     Node 24, Type 0, BuildingBlock: JUFBIX_clean_sbu_0, # of connection points: 6
#     Node 25, Type 0, BuildingBlock: JUFBIX_clean_sbu_0, # of connection points: 6
#     Node 26, Type 0, BuildingBlock: JUFBIX_clean_sbu_0, # of connection points: 6
#     Node 27, Type 0, BuildingBlock: JUFBIX_clean_sbu_0, # of connection points: 6
#     Node 28, Type 0, BuildingBlock: JUFBIX_clean_sbu_0, # of connection points: 6
#     Node 29, Type 0, BuildingBlock: JUFBIX_clean_sbu_0, # of connection points: 6
#     Node 30, Type 0, BuildingBlock: JUFBIX_clean_sbu_0, # of connection points: 6
#     Node 31, Type 0, BuildingBlock: JUFBIX_clean_sbu_0, # of connection points: 6
#     Edge 32, Type (0, 0), BuildingBlock: XIVTED_clean_linker_0, # of connection points: 2
#     Edge 33, Type (0, 0), BuildingBlock: XIVTED_clean_linker_0, # of connection points: 2
#     Edge 34, Type (0, 0), BuildingBlock: XIVTED_clean_linker_0, # of connection points: 2
#     Edge 35, Type (0, 0), BuildingBlock: XIVTED_clean_linker_0, # of connection points: 2
#     Edge 36, Type (0, 0), BuildingBlock: XIVTED_clean_linker_0, # of connection points: 2
#     Edge 37, Type (0, 0), BuildingBlock: XIVTED_clean_linker_0, # of connection points: 2
#     Edge 38, Type (0, 0), BuildingBlock: XIVTED_clean_linker_0, # of connection points: 2
#     Edge 39, Type (0, 0), BuildingBlock: XIVTED_clean_linker_0, # of connection points: 2
#     Edge 40, Type (0, 0), BuildingBlock: XIVTED_clean_linker_0, # of connection points: 2
#     Edge 41, Type (0, 0), BuildingBlock: XIVTED_clean_linker_0, # of connection points: 2
#     Edge 42, Type (0, 0), BuildingBlock: XIVTED_clean_linker_0, # of connection points: 2
#     Edge 43, Type (0, 0), BuildingBlock: XIVTED_clean_linker_0, # of connection points: 2
#     Edge 44, Type (0, 0), BuildingBlock: XIVTED_clean_linker_0, # of connection points: 2
#     Edge 45, Type (0, 0), BuildingBlock: XIVTED_clean_linker_0, # of connection points: 2
#     Edge 46, Type (0, 0), BuildingBlock: XIVTED_clean_linker_0, # of connection points: 2
#     Edge 47, Type (0, 0), BuildingBlock: XIVTED_clean_linker_0, # of connection points: 2
#     Edge 48, Type (0, 0), BuildingBlock: XIVTED_clean_linker_0, # of connection points: 2
#     Edge 49, Type (0, 0), BuildingBlock: XIVTED_clean_linker_0, # of connection points: 2
#     Edge 50, Type (0, 0), BuildingBlock: XIVTED_clean_linker_0, # of connection points: 2
#     Edge 51, Type (0, 0), BuildingBlock: XIVTED_clean_linker_0, # of connection points: 2
#     Edge 52, Type (0, 0), BuildingBlock: XIVTED_clean_linker_0, # of connection points: 2
#     Edge 53, Type (0, 0), BuildingBlock: XIVTED_clean_linker_0, # of connection points: 2
#     Edge 54, Type (0, 0), BuildingBlock: XIVTED_clean_linker_0, # of connection points: 2
#     Edge 55, Type (0, 0), BuildingBlock: XIVTED_clean_linker_0, # of connection points: 2
#     Edge 56, Type (0, 0), BuildingBlock: XIVTED_clean_linker_0, # of connection points: 2
#     Edge 57, Type (0, 0), BuildingBlock: XIVTED_clean_linker_0, # of connection points: 2
#     Edge 58, Type (0, 0), BuildingBlock: XIVTED_clean_linker_0, # of connection points: 2
#     Edge 59, Type (0, 0), BuildingBlock: XIVTED_clean_linker_0, # of connection points: 2
#     Edge 60, Type (0, 0), BuildingBlock: XIVTED_clean_linker_0, # of connection points: 2
#     Edge 61, Type (0, 0), BuildingBlock: XIVTED_clean_linker_0, # of connection points: 2
#     Edge 62, Type (0, 0), BuildingBlock: XIVTED_clean_linker_0, # of connection points: 2
#     Edge 63, Type (0, 0), BuildingBlock: XIVTED_clean_linker_0, # of connection points: 2
#     Edge 64, Type (0, 0), BuildingBlock: XIVTED_clean_linker_0, # of connection points: 2
#     Edge 65, Type (0, 0), BuildingBlock: XIVTED_clean_linker_0, # of connection points: 2
#     Edge 66, Type (0, 0), BuildingBlock: XIVTED_clean_linker_0, # of connection points: 2
#     Edge 67, Type (0, 0), BuildingBlock: XIVTED_clean_linker_0, # of connection points: 2
#     Edge 68, Type (0, 0), BuildingBlock: XIVTED_clean_linker_0, # of connection points: 2
#     Edge 69, Type (0, 0), BuildingBlock: XIVTED_clean_linker_0, # of connection points: 2
#     Edge 70, Type (0, 0), BuildingBlock: XIVTED_clean_linker_0, # of connection points: 2
#     Edge 71, Type (0, 0), BuildingBlock: XIVTED_clean_linker_0, # of connection points: 2
#     Edge 72, Type (0, 0), BuildingBlock: XIVTED_clean_linker_0, # of connection points: 2
#     Edge 73, Type (0, 0), BuildingBlock: XIVTED_clean_linker_0, # of connection points: 2
#     Edge 74, Type (0, 0), BuildingBlock: XIVTED_clean_linker_0, # of connection points: 2
#     Edge 75, Type (0, 0), BuildingBlock: XIVTED_clean_linker_0, # of connection points: 2
#     Edge 76, Type (0, 0), BuildingBlock: XIVTED_clean_linker_0, # of connection points: 2
#     Edge 77, Type (0, 0), BuildingBlock: XIVTED_clean_linker_0, # of connection points: 2
#     Edge 78, Type (0, 0), BuildingBlock: XIVTED_clean_linker_0, # of connection points: 2
#     Edge 79, Type (0, 0), BuildingBlock: XIVTED_clean_linker_0, # of connection points: 2
#     Edge 80, Type (0, 0), BuildingBlock: XIVTED_clean_linker_0, # of connection points: 2
#     Edge 81, Type (0, 0), BuildingBlock: XIVTED_clean_linker_0, # of connection points: 2
#     Edge 82, Type (0, 0), BuildingBlock: XIVTED_clean_linker_0, # of connection points: 2
#     Edge 83, Type (0, 0), BuildingBlock: XIVTED_clean_linker_0, # of connection points: 2
#     Edge 84, Type (0, 0), BuildingBlock: XIVTED_clean_linker_0, # of connection points: 2
#     Edge 85, Type (0, 0), BuildingBlock: XIVTED_clean_linker_0, # of connection points: 2
#     Edge 86, Type (0, 0), BuildingBlock: XIVTED_clean_linker_0, # of connection points: 2
#     Edge 87, Type (0, 0), BuildingBlock: XIVTED_clean_linker_0, # of connection points: 2
#     Edge 88, Type (0, 0), BuildingBlock: XIVTED_clean_linker_0, # of connection points: 2
#     Edge 89, Type (0, 0), BuildingBlock: XIVTED_clean_linker_0, # of connection points: 2
#     Edge 90, Type (0, 0), BuildingBlock: XIVTED_clean_linker_0, # of connection points: 2
#     Edge 91, Type (0, 0), BuildingBlock: XIVTED_clean_linker_0, # of connection points: 2
#     Edge 92, Type (0, 0), BuildingBlock: XIVTED_clean_linker_0, # of connection points: 2
#     Edge 93, Type (0, 0), BuildingBlock: XIVTED_clean_linker_0, # of connection points: 2
#     Edge 94, Type (0, 0), BuildingBlock: XIVTED_clean_linker_0, # of connection points: 2
#     Edge 95, Type (0, 0), BuildingBlock: XIVTED_clean_linker_0, # of connection points: 2
#     Edge 96, Type (0, 0), BuildingBlock: XIVTED_clean_linker_0, # of connection points: 2
#     Edge 97, Type (0, 0), BuildingBlock: XIVTED_clean_linker_0, # of connection points: 2
#     Edge 98, Type (0, 0), BuildingBlock: XIVTED_clean_linker_0, # of connection points: 2
#     Edge 99, Type (0, 0), BuildingBlock: XIVTED_clean_linker_0, # of connection points: 2
#     Edge 100, Type (0, 0), BuildingBlock: XIVTED_clean_linker_0, # of connection points: 2
#     Edge 101, Type (0, 0), BuildingBlock: XIVTED_clean_linker_0, # of connection points: 2
#     Edge 102, Type (0, 0), BuildingBlock: XIVTED_clean_linker_0, # of connection points: 2
#     Edge 103, Type (0, 0), BuildingBlock: XIVTED_clean_linker_0, # of connection points: 2
#     Edge 104, Type (0, 0), BuildingBlock: XIVTED_clean_linker_0, # of connection points: 2
#     Edge 105, Type (0, 0), BuildingBlock: XIVTED_clean_linker_0, # of connection points: 2
#     Edge 106, Type (0, 0), BuildingBlock: XIVTED_clean_linker_0, # of connection points: 2
#     Edge 107, Type (0, 0), BuildingBlock: XIVTED_clean_linker_0, # of connection points: 2
#     Edge 108, Type (0, 0), BuildingBlock: XIVTED_clean_linker_0, # of connection points: 2
#     Edge 109, Type (0, 0), BuildingBlock: XIVTED_clean_linker_0, # of connection points: 2
#     Edge 110, Type (0, 0), BuildingBlock: XIVTED_clean_linker_0, # of connection points: 2
#     Edge 111, Type (0, 0), BuildingBlock: XIVTED_clean_linker_0, # of connection points: 2
#     Edge 112, Type (0, 0), BuildingBlock: XIVTED_clean_linker_0, # of connection points: 2
#     Edge 113, Type (0, 0), BuildingBlock: XIVTED_clean_linker_0, # of connection points: 2
#     Edge 114, Type (0, 0), BuildingBlock: XIVTED_clean_linker_0, # of connection points: 2
#     Edge 115, Type (0, 0), BuildingBlock: XIVTED_clean_linker_0, # of connection points: 2
#     Edge 116, Type (0, 0), BuildingBlock: XIVTED_clean_linker_0, # of connection points: 2
#     Edge 117, Type (0, 0), BuildingBlock: XIVTED_clean_linker_0, # of connection points: 2
#     Edge 118, Type (0, 0), BuildingBlock: XIVTED_clean_linker_0, # of connection points: 2
#     Edge 119, Type (0, 0), BuildingBlock: XIVTED_clean_linker_0, # of connection points: 2
#     Edge 120, Type (0, 0), BuildingBlock: XIVTED_clean_linker_0, # of connection points: 2
#     Edge 121, Type (0, 0), BuildingBlock: XIVTED_clean_linker_0, # of connection points: 2
#     Edge 122, Type (0, 0), BuildingBlock: XIVTED_clean_linker_0, # of connection points: 2
#     Edge 123, Type (0, 0), BuildingBlock: XIVTED_clean_linker_0, # of connection points: 2
#     Edge 124, Type (0, 0), BuildingBlock: XIVTED_clean_linker_0, # of connection points: 2
#     Edge 125, Type (0, 0), BuildingBlock: XIVTED_clean_linker_0, # of connection points: 2
#     Edge 126, Type (0, 0), BuildingBlock: XIVTED_clean_linker_0, # of connection points: 2
#     Edge 127, Type (0, 0), BuildingBlock: XIVTED_clean_linker_0, # of connection points: 2
# Relax obj value: 0.551
# Max RMSD: 0.233
# Mean RMSD: 0.211
data_MOF--net-wir--node1-JUFBIX_clean_sbu_0--edge1-XIVTED_clean_linker_0
_symmetry_space_group_name_H-M    P1
_symmetry_Int_Tables_number       1
_symmetry_cell_setting            triclinic
loop_
_symmetry_equiv_pos_as_xyz
'x, y, z'
_cell_length_a     41.476677
_cell_length_b     37.211984
_cell_length_c     87.433704
_cell_angle_alpha  94.777595
_cell_angle_beta   89.959436
_cell_angle_gamma 89.943256
loop_
_atom_site_label
_atom_site_type_symbol
_atom_site_fract_x
_atom_site_fract_y
_atom_site_fract_z
_atom_type_partial_charge
Co0 Co 0.23248 0.15851 0.34807 0.0
C1 C 0.16764 0.18373 0.34172 0.0
Co2 Co 0.19423 0.1245 0.35605 0.0
C3 C 0.2611 0.19801 0.32576 0.0
C4 C 0.28873 0.20567 0.3464 0.0
N5 N 0.26287 0.18806 0.34019 0.0
N6 N 0.28462 0.22105 0.32256 0.0
C7 C 0.30213 0.22625 0.33555 0.0
H8 H 0.24196 0.18946 0.31787 0.0
H9 H 0.29686 0.20422 0.35808 0.0
C10 C 0.25816 0.10426 0.36589 0.0
N11 N 0.16316 0.09446 0.36269 0.0
C12 C 0.13242 0.10341 0.36605 0.0
C13 C 0.16393 0.05812 0.36185 0.0
N14 N 0.11358 0.07415 0.36684 0.0
C15 C 0.1334 0.04551 0.36444 0.0
C16 C 0.21572 0.10088 0.32645 0.0
O17 O 0.26661 0.12936 0.35749 0.0
O18 O 0.2281 0.09639 0.36601 0.0
O19 O 0.19657 0.09364 0.33711 0.0
O20 O 0.2343 0.12783 0.32894 0.0
O21 O 0.16033 0.1541 0.34719 0.0
H22 H 0.1848 0.04184 0.35853 0.0
H23 H 0.12384 0.13095 0.3673 0.0
O24 O 0.19775 0.18979 0.33999 0.0
O25 O 0.23054 0.18812 0.36626 0.0
O26 O 0.19089 0.15541 0.3743 0.0
C27 C 0.20903 0.18296 0.37617 0.0
H28 H 0.32291 0.24372 0.33712 0.0
H29 H 0.12615 1.0175 0.36378 0.0
Co30 Co 0.16919 0.95649 0.59605 0.0
C31 C 0.14396 0.88425 0.59211 0.0
Co32 Co 0.19993 0.91593 0.60637 0.0
C33 C 0.12602 0.98525 0.57296 0.0
C34 C 0.13513 1.02446 0.59171 0.0
N35 N 0.14259 0.99043 0.58647 0.0
N36 N 0.10838 1.01455 0.56959 0.0
C37 C 0.11442 0.03918 0.5815 0.0
H38 H 0.12661 0.96007 0.56583 0.0
H39 H 0.14399 0.03773 0.60236 0.0
C40 C 0.22556 0.98502 0.61329 0.0
N41 N 0.22544 0.881 0.61405 0.0
C42 C 0.21493 0.84857 0.61755 0.0
C43 C 0.25793 0.87786 0.61349 0.0
N44 N 0.23917 0.82497 0.61852 0.0
C45 C 0.26651 0.84317 0.61636 0.0
C46 C 0.21682 0.92739 0.57642 0.0
O47 O 0.20141 0.99514 0.60524 0.0
O48 O 0.22944 0.95146 0.61413 0.0
O49 O 0.22332 0.90941 0.58774 0.0
O50 O 0.19358 0.9497 0.57753 0.0
O51 O 0.17019 0.87941 0.59902 0.0
H52 H 0.27412 0.89843 0.61 0.0
H53 H 0.18974 0.84151 0.6185 0.0
O54 O 0.13784 0.9165 0.58874 0.0
O55 O 0.14627 0.96346 0.61432 0.0
O56 O 0.17622 0.92335 0.62508 0.0
C57 C 0.15397 0.9471 0.62599 0.0
H58 H 0.10478 0.06626 0.58286 0.0
H59 H 0.29049 0.83164 0.61586 0.0
Co60 Co 0.41553 0.90277 0.84082 0.0
C61 C 0.48285 0.88025 0.83885 0.0
Co62 Co 0.44939 0.94281 0.85129 0.0
C63 C 0.36518 0.86614 0.82215 0.0
C64 C 0.38931 0.83151 0.8368 0.0
N65 N 0.38844 0.86586 0.83297 0.0
N66 N 0.35147 0.8333 0.81913 0.0
C67 C 0.36665 0.81155 0.82839 0.0
H68 H 0.3586 0.88992 0.81653 0.0
H69 H 0.40591 0.82136 0.84496 0.0
C70 C 0.38262 0.96104 0.85689 0.0
N71 N 0.47534 0.9804 0.85864 0.0
C72 C 0.49641 0.99879 0.85043 0.0
C73 C 0.46977 1.00194 0.87154 0.0
N74 N 0.50279 0.03161 0.85739 0.0
C75 C 0.48663 0.03345 0.8708 0.0
C76 C 0.43227 0.95273 0.82018 0.0
O77 O 0.37752 0.9324 0.84804 0.0
O78 O 0.41177 0.97153 0.85841 0.0
O79 O 0.44851 0.96394 0.8319 0.0
O80 O 0.41587 0.92393 0.8209 0.0
O81 O 0.48735 0.91224 0.84512 0.0
H82 H 0.45282 0.99616 0.88042 0.0
H83 H 0.50529 0.98933 0.83916 0.0
O84 O 0.45381 0.87166 0.83506 0.0
O85 O 0.4147 0.88399 0.86014 0.0
O86 O 0.44932 0.92329 0.87059 0.0
C87 C 0.42993 0.89738 0.87185 0.0
H88 H 0.36256 0.7829 0.82868 0.0
H89 H 0.48697 0.05609 0.87942 0.0
Co90 Co 0.4741 0.09885 0.10385 0.0
C91 C 0.4106 0.06591 0.10584 0.0
Co92 Co 0.43648 0.12291 0.09034 0.0
C93 C 0.49397 0.05617 0.12705 0.0
C94 C 0.5297 0.05532 0.10942 0.0
N95 N 0.50311 0.07311 0.11473 0.0
N96 N 0.51211 1.02685 0.12904 0.0
C97 C 0.5353 1.02684 0.1182 0.0
H98 H 0.4724 0.06349 0.13351 0.0
H99 H 0.54198 0.06008 0.09885 0.0
C100 C 0.49806 0.16045 0.09153 0.0
N101 N 0.40643 0.14723 0.07951 0.0
C102 C 0.38561 0.13413 0.06857 0.0
C103 C 0.40159 0.18319 0.08074 0.0
N104 N 0.36815 0.16061 0.06285 0.0
C105 C 0.37814 0.19149 0.07053 0.0
C106 C 0.4394 0.14978 0.12072 0.0
O107 O 0.50669 0.13434 0.09926 0.0
O108 O 0.46934 0.15975 0.08614 0.0
O109 O 0.42483 0.15063 0.10806 0.0
O110 O 0.46323 0.12874 0.12185 0.0
O111 O 0.40285 0.08775 0.09587 0.0
H112 H 0.41456 0.20222 0.08849 0.0
H113 H 0.38399 0.10586 0.06459 0.0
O114 O 0.44038 0.06442 0.10925 0.0
O115 O 0.48598 0.06965 0.08531 0.0
O116 O 0.44936 0.09448 0.0717 0.0
C117 C 0.47358 0.07353 0.07225 0.0
H118 H 0.55354 1.0063 0.11593 0.0
H119 H 0.36916 0.21822 0.0689 0.0
Co120 Co 0.22777 0.90304 0.20055 0.0
C121 C 0.16308 0.8774 0.20637 0.0
Co122 Co 0.18997 0.93657 0.19175 0.0
C123 C 0.25506 0.86306 0.22297 0.0
C124 C 0.28578 0.85902 0.20326 0.0
N125 N 0.25821 0.87428 0.20881 0.0
N126 N 0.2791 0.84105 0.22655 0.0
C127 C 0.29884 0.83856 0.21424 0.0
H128 H 0.23534 0.87116 0.23061 0.0
H129 H 0.29545 0.86213 0.19195 0.0
C130 C 0.25374 0.95707 0.18251 0.0
N131 N 0.15863 0.96554 0.1844 0.0
C132 C 0.12855 0.96997 0.19007 0.0
C133 C 0.15913 0.98398 0.17177 0.0
N134 N 0.10991 0.98948 0.1813 0.0
C135 C 0.12913 0.99874 0.16983 0.0
C136 C 0.21064 0.96141 0.22146 0.0
O137 O 0.2618 0.93116 0.19055 0.0
O138 O 0.22391 0.96595 0.18269 0.0
O139 O 0.19035 0.96737 0.21103 0.0
O140 O 0.22989 0.93505 0.21896 0.0
O141 O 0.15615 0.90525 0.19949 0.0
H142 H 0.17931 0.9848 0.16397 0.0
H143 H 0.11982 0.95749 0.20002 0.0
O144 O 0.1929 0.87284 0.20942 0.0
O145 O 0.22587 0.87199 0.18285 0.0
O146 O 0.18893 0.90611 0.17335 0.0
C147 C 0.2063 0.87785 0.17221 0.0
H148 H 0.32063 0.82252 0.21311 0.0
H149 H 0.12129 1.01239 0.16002 0.0
Co150 Co 0.47764 0.95854 0.44649 0.0
C151 C 0.41727 0.99512 0.44184 0.0
Co152 Co 0.43737 0.93754 0.45922 0.0
C153 C 0.51618 1.01643 0.43868 0.0
C154 C 0.53856 0.96626 0.43099 0.0
N155 N 0.5115 0.98047 0.43753 0.0
N156 N 0.54516 1.02551 0.43326 0.0
C157 C 0.55927 0.99396 0.42827 0.0
H158 H 0.4988 0.03559 0.44375 0.0
H159 H 0.54314 0.93772 0.42863 0.0
C160 C 0.49584 0.89614 0.46049 0.0
N161 N 0.40362 0.91617 0.46905 0.0
C162 C 0.38399 0.93017 0.48038 0.0
C163 C 0.39539 0.88106 0.46695 0.0
N164 N 0.36413 0.90499 0.48552 0.0
C165 C 0.37121 0.87412 0.47702 0.0
C166 C 0.44407 0.909 0.42897 0.0
O167 O 0.50678 0.92183 0.45323 0.0
O168 O 0.46633 0.89805 0.46473 0.0
O169 O 0.42713 0.91036 0.44107 0.0
O170 O 0.46939 0.92803 0.42849 0.0
O171 O 0.40766 0.97539 0.45232 0.0
H172 H 0.4069 0.86144 0.45889 0.0
H173 H 0.38521 0.95788 0.48521 0.0
O174 O 0.4474 0.99414 0.43868 0.0
O175 O 0.48706 0.98854 0.46493 0.0
O176 O 0.44909 0.96544 0.47824 0.0
C177 C 0.47367 0.98582 0.47783 0.0
H178 H 0.58249 0.9911 0.42264 0.0
H179 H 0.36002 0.84821 0.47814 0.0
Co180 Co 0.42146 0.16076 0.70955 0.0
C181 C 0.48895 0.17918 0.71166 0.0
Co182 Co 0.45265 0.119 0.69828 0.0
C183 C 0.3736 0.19991 0.72908 0.0
C184 C 0.39892 0.2335 0.71442 0.0
N185 N 0.39615 0.19896 0.71787 0.0
N186 N 0.36224 0.23368 0.73271 0.0
C187 C 0.37812 0.25476 0.72343 0.0
H188 H 0.36603 0.17639 0.73463 0.0
H189 H 0.41581 0.24297 0.70623 0.0
C190 C 0.38575 0.10533 0.69228 0.0
N191 N 0.47727 0.08054 0.69055 0.0
C192 C 0.49758 0.06066 0.69852 0.0
C193 C 0.47101 0.05997 0.67746 0.0
N194 N 0.50285 1.0279 0.69124 0.0
C195 C 0.48673 1.02761 0.67785 0.0
C196 C 0.43479 0.10795 0.72929 0.0
O197 O 0.38214 0.13467 0.70093 0.0
O198 O 0.41411 0.09213 0.69129 0.0
O199 O 0.45154 0.09725 0.71763 0.0
O200 O 0.41876 0.13706 0.72874 0.0
O201 O 0.49166 0.14821 0.70413 0.0
H202 H 0.45434 0.06706 0.66868 0.0
H203 H 0.50672 0.06908 0.70985 0.0
O204 O 0.4608 0.18816 0.7167 0.0
O205 O 0.42413 0.18252 0.69098 0.0
O206 O 0.45295 0.13906 0.67924 0.0
C207 C 0.4379 0.16861 0.67894 0.0
H208 H 0.37596 0.28377 0.72357 0.0
H209 H 0.48635 1.00547 0.66899 0.0
Co210 Co 0.16943 0.10988 0.95426 0.0
C211 C 0.14266 0.1812 0.95892 0.0
Co212 Co 0.19899 0.15168 0.94423 0.0
C213 C 0.12733 0.07918 0.97705 0.0
C214 C 0.13699 0.04095 0.95798 0.0
N215 N 0.14389 0.0749 0.96352 0.0
N216 N 0.1102 0.0494 0.98013 0.0
C217 C 0.11655 1.02536 0.96804 0.0
H218 H 0.12744 0.10409 0.98437 0.0
H219 H 0.14599 1.02837 0.94721 0.0
C220 C 0.22588 0.08345 0.93677 0.0
N221 N 0.2232 0.18765 0.93671 0.0
C222 C 0.21038 0.21813 0.9322 0.0
C223 C 0.25474 0.19519 0.93912 0.0
N224 N 0.23192 0.24513 0.93265 0.0
C225 C 0.26021 0.2308 0.93658 0.0
C226 C 0.2165 0.13951 0.97393 0.0
O227 O 0.20216 0.07256 0.94486 0.0
O228 O 0.22918 0.11716 0.93607 0.0
O229 O 0.22248 0.15795 0.96272 0.0
O230 O 0.19377 0.11662 0.97277 0.0
O231 O 0.16866 0.18738 0.95204 0.0
H232 H 0.2718 0.17724 0.94394 0.0
H233 H 0.18494 0.22134 0.92991 0.0
O234 O 0.13732 0.14851 0.96186 0.0
O235 O 0.14651 0.10295 0.9361 0.0
O236 O 0.17512 0.14451 0.92562 0.0
C237 C 0.15352 0.12012 0.92458 0.0
H238 H 0.10728 0.99816 0.96648 0.0
H239 H 0.2824 0.24565 0.93873 0.0
Co240 Co 0.88974 0.93879 0.69251 0.0
C241 C 0.82608 0.95841 0.6829 0.0
Co242 Co 0.85216 0.90349 0.70027 0.0
C243 C 0.95058 0.97378 0.6914 0.0
C244 C 0.92052 0.98641 0.6727 0.0
N245 N 0.92087 0.96839 0.68544 0.0
N246 N 0.96921 0.99347 0.68268 0.0
C247 C 0.95025 1.00187 0.67098 0.0
H248 H 0.9591 0.9618 0.70151 0.0
H249 H 0.90072 0.98642 0.66466 0.0
C250 C 0.91685 0.87873 0.70646 0.0
N251 N 0.82175 0.87409 0.7082 0.0
C252 C 0.82356 0.86382 0.72258 0.0
C253 C 0.79503 0.85792 0.70217 0.0
N254 N 0.79914 0.84208 0.72593 0.0
C255 C 0.78108 0.83796 0.71308 0.0
C256 C 0.87424 0.88065 0.67206 0.0
O257 O 0.92377 0.90877 0.70121 0.0
O258 O 0.88685 0.87193 0.70798 0.0
O259 O 0.85316 0.87469 0.68203 0.0
O260 O 0.89273 0.90782 0.67422 0.0
O261 O 0.81789 0.93304 0.69119 0.0
H262 H 0.78642 0.86029 0.69062 0.0
H263 H 0.84306 0.87159 0.73038 0.0
O264 O 0.85597 0.96676 0.68281 0.0
O265 O 0.88717 0.97016 0.71135 0.0
O266 O 0.85129 0.93336 0.71942 0.0
C267 C 0.86851 0.96139 0.72197 0.0
H268 H 0.95819 1.01531 0.66112 0.0
H269 H 0.75936 0.82193 0.7117 0.0
Co270 Co 0.87276 0.14828 0.44037 0.0
C271 C 0.84563 0.08025 0.43451 0.0
Co272 Co 0.9028 0.10835 0.45136 0.0
C273 C 0.84585 0.2171 0.43836 0.0
C274 C 0.83622 0.18361 0.4178 0.0
N275 N 0.84882 0.18313 0.43195 0.0
N276 N 0.83398 0.23972 0.42852 0.0
C277 C 0.82711 0.21843 0.41565 0.0
H278 H 0.85542 0.22573 0.44958 0.0
H279 H 0.83653 0.16102 0.40917 0.0
C280 C 0.9295 0.17961 0.45388 0.0
N281 N 0.92846 0.07449 0.4615 0.0
C282 C 0.94529 0.08005 0.47493 0.0
C283 C 0.93497 0.03995 0.45667 0.0
N284 N 0.9622 0.05049 0.47862 0.0
C285 C 0.95539 1.02531 0.46702 0.0
C286 C 0.91875 0.11454 0.42137 0.0
O287 O 0.90382 0.184 0.44647 0.0
O288 O 0.93445 0.14816 0.45847 0.0
O289 O 0.92632 0.09974 0.43344 0.0
O290 O 0.89614 0.13781 0.42168 0.0
O291 O 0.87007 0.07002 0.44236 0.0
H292 H 0.92569 1.02627 0.44619 0.0
H293 H 0.9455 0.10567 0.48175 0.0
O294 O 0.84192 0.11376 0.43356 0.0
O295 O 0.8497 0.15776 0.45909 0.0
O296 O 0.87813 0.11669 0.46954 0.0
C297 C 0.85562 0.13988 0.47052 0.0
H298 H 0.81993 0.22793 0.40478 0.0
H299 H 0.9643 0.9979 0.46598 0.0
Co300 Co 0.62183 0.12375 0.19816 0.0
C301 C 0.68867 0.10842 0.19192 0.0
Co302 Co 0.65451 0.16484 0.20887 0.0
C303 C 0.57729 0.06499 0.19842 0.0
C304 C 0.60224 0.06621 0.17696 0.0
N305 N 0.59675 0.08575 0.1904 0.0
N306 N 0.57194 0.03267 0.19079 0.0
C307 C 0.58699 0.03357 0.17717 0.0
H308 H 0.56902 0.07235 0.21001 0.0
H309 H 0.61828 0.07406 0.16806 0.0
C310 C 0.58705 0.18452 0.21146 0.0
N311 N 0.68052 0.20239 0.21717 0.0
C312 C 0.70288 0.20267 0.22844 0.0
C313 C 0.67857 0.237 0.21373 0.0
N314 N 0.7149 0.23609 0.23213 0.0
C315 C 0.69964 0.25764 0.22282 0.0
C316 C 0.63766 0.17287 0.17849 0.0
O317 O 0.58326 0.15298 0.2046 0.0
O318 O 0.61576 0.19345 0.21564 0.0
O319 O 0.65274 0.18612 0.19025 0.0
O320 O 0.62115 0.14442 0.17917 0.0
O321 O 0.6932 0.13752 0.20058 0.0
H322 H 0.66203 0.24695 0.2055 0.0
H323 H 0.70983 0.17891 0.23398 0.0
O324 O 0.65989 0.09653 0.19082 0.0
O325 O 0.6234 0.10166 0.21724 0.0
O326 O 0.65631 0.1415 0.22816 0.0
C327 C 0.6403 0.11244 0.22879 0.0
H328 H 0.58717 1.01193 0.16809 0.0
H329 H 0.70241 0.28659 0.22299 0.0
Co330 Co 0.64188 0.9413 0.95915 0.0
C331 C 0.58061 0.90322 0.95786 0.0
Co332 Co 0.60415 0.96472 0.94549 0.0
C333 C 0.69203 0.93019 0.98143 0.0
C334 C 0.67687 0.88133 0.96882 0.0
N335 N 0.67189 0.91727 0.97016 0.0
N336 N 0.70915 0.90358 0.98726 0.0
C337 C 0.69969 0.87285 0.9793 0.0
H338 H 0.69329 0.95836 0.98561 0.0
H339 H 0.66429 0.86239 0.96089 0.0
C340 C 0.66727 0.99823 0.94352 0.0
N341 N 0.57514 0.98984 0.93441 0.0
C342 C 0.58417 1.00614 0.92191 0.0
C343 C 0.5482 1.00735 0.93946 0.0
N344 N 0.56547 0.03472 0.91947 0.0
C345 C 0.54217 0.03499 0.93027 0.0
C346 C 0.60421 0.99059 0.97702 0.0
O347 O 0.67537 0.97646 0.95347 0.0
O348 O 0.63744 0.99948 0.9402 0.0
O349 O 0.59167 0.99392 0.96394 0.0
O350 O 0.62877 0.97013 0.97765 0.0
O351 O 0.57195 0.92895 0.94994 0.0
H352 H 0.53584 1.00296 0.95004 0.0
H353 H 0.60591 0.99893 0.91556 0.0
O354 O 0.60913 0.90447 0.96349 0.0
O355 O 0.65373 0.91318 0.94157 0.0
O356 O 0.61556 0.93481 0.92759 0.0
C357 C 0.63933 0.91377 0.92886 0.0
H358 H 0.70853 0.84608 0.98096 0.0
H359 H 0.52355 0.05523 0.9322 0.0
Co360 Co 0.88649 0.12478 0.85571 0.0
C361 C 0.82349 0.10455 0.86607 0.0
Co362 Co 0.84826 0.15978 0.84851 0.0
C363 C 0.94881 0.10411 0.86478 0.0
C364 C 0.91784 0.05835 0.86089 0.0
N365 N 0.91808 0.09471 0.86177 0.0
N366 N 0.9681 0.07517 0.86533 0.0
C367 C 0.9487 0.04619 0.86316 0.0
H368 H 0.95704 0.13177 0.86607 0.0
H369 H 0.89703 0.04177 0.85785 0.0
C370 C 0.91239 0.18517 0.84166 0.0
N371 N 0.81734 0.18953 0.84117 0.0
C372 C 0.81853 0.19974 0.82678 0.0
C373 C 0.79124 0.20644 0.84756 0.0
N374 N 0.79433 0.22204 0.82373 0.0
C375 C 0.77705 0.22676 0.83682 0.0
C376 C 0.87208 0.1822 0.87655 0.0
O377 O 0.91986 0.15467 0.84635 0.0
O378 O 0.88226 0.19194 0.84073 0.0
O379 O 0.85004 0.18784 0.86699 0.0
O380 O 0.89093 0.1554 0.87399 0.0
O381 O 0.81469 0.1296 0.85772 0.0
H382 H 0.7833 0.20445 0.85925 0.0
H383 H 0.83757 0.19169 0.81873 0.0
O384 O 0.85355 0.09675 0.86606 0.0
O385 O 0.88262 0.09385 0.83689 0.0
O386 O 0.84666 0.13068 0.82905 0.0
C387 C 0.86392 0.1027 0.82635 0.0
H388 H 0.95644 1.01833 0.86253 0.0
H389 H 0.75578 0.24351 0.83847 0.0
Co390 Co 0.64205 0.11839 0.59 0.0
C391 C 0.58029 0.15584 0.59131 0.0
Co392 Co 0.6046 0.0953 0.60396 0.0
C393 C 0.69123 0.12983 0.56716 0.0
C394 C 0.67596 0.17856 0.57985 0.0
N395 N 0.67147 0.14254 0.57865 0.0
N396 N 0.7076 0.15664 0.56107 0.0
C397 C 0.69807 0.18729 0.56909 0.0
H398 H 0.69273 0.10164 0.56301 0.0
H399 H 0.66347 0.1974 0.58789 0.0
C400 C 0.66812 0.06229 0.60574 0.0
N401 N 0.57616 0.0701 0.61535 0.0
C402 C 0.58596 0.05379 0.62772 0.0
C403 C 0.54954 0.05193 0.61042 0.0
N404 N 0.56825 1.02441 0.6301 0.0
C405 C 0.54461 1.02381 0.61947 0.0
C406 C 0.60432 0.06845 0.57263 0.0
O407 O 0.67597 0.08356 0.59556 0.0
O408 O 0.63841 0.06128 0.60928 0.0
O409 O 0.59224 0.06537 0.58583 0.0
O410 O 0.62858 0.08915 0.57169 0.0
O411 O 0.57179 0.13032 0.59937 0.0
H412 H 0.53679 0.05614 0.59993 0.0
H413 H 0.60777 0.0615 0.63388 0.0
O414 O 0.60889 0.15478 0.58577 0.0
O415 O 0.65421 0.14685 0.60744 0.0
O416 O 0.61603 0.12588 0.62163 0.0
C417 C 0.63992 0.14661 0.6202 0.0
H418 H 0.70641 0.21416 0.56728 0.0
H419 H 0.52639 1.00318 0.61753 0.0
Co420 Co 0.61772 0.94613 0.34862 0.0
C421 C 0.68442 0.96356 0.35544 0.0
Co422 Co 0.65229 0.90481 0.33942 0.0
C423 C 0.59788 1.01542 0.36236 0.0
C424 C 0.5624 0.99198 0.34693 0.0
N425 N 0.59026 0.9845 0.35402 0.0
N426 N 0.57648 0.04203 0.36051 0.0
C427 C 0.55366 1.02719 0.35106 0.0
H428 H 0.619 1.01865 0.36958 0.0
H429 H 0.55019 0.97381 0.33855 0.0
C430 C 0.58559 0.88223 0.33638 0.0
N431 N 0.67975 0.8669 0.33267 0.0
C432 C 0.70146 0.86484 0.32106 0.0
C433 C 0.67937 0.83352 0.3376 0.0
N434 N 0.71448 0.83146 0.31852 0.0
C435 C 0.70064 0.81183 0.32902 0.0
C436 C 0.63365 0.90268 0.37021 0.0
O437 O 0.58054 0.91458 0.34209 0.0
O438 O 0.61485 0.87356 0.33317 0.0
O439 O 0.65028 0.88804 0.35915 0.0
O440 O 0.6152 0.92905 0.36817 0.0
O441 O 0.68967 0.93427 0.34705 0.0
H442 H 0.66364 0.82496 0.34647 0.0
H443 H 0.70709 0.88724 0.3144 0.0
O444 O 0.65535 0.97503 0.35621 0.0
O445 O 0.62078 0.96512 0.32905 0.0
O446 O 0.65436 0.92445 0.31922 0.0
C447 C 0.63822 0.95321 0.31785 0.0
H448 H 0.53262 0.041 0.34714 0.0
H449 H 0.70438 0.78334 0.32999 0.0
Co450 Co 0.87374 0.91436 0.10731 0.0
C451 C 0.84886 0.98381 0.11431 0.0
Co452 Co 0.90486 0.95475 0.09723 0.0
C453 C 0.85729 0.84698 0.11806 0.0
C454 C 0.81488 0.87755 0.11424 0.0
N455 N 0.84745 0.87974 0.11465 0.0
N456 N 0.83256 0.82415 0.11918 0.0
C457 C 0.80558 0.84317 0.11721 0.0
H458 H 0.88232 0.83932 0.11911 0.0
H459 H 0.79906 0.89875 0.111 0.0
C460 C 0.92938 0.88231 0.093 0.0
N461 N 0.93187 0.98861 0.08809 0.0
C462 C 0.94842 0.98404 0.07456 0.0
C463 C 0.93961 1.02224 0.09374 0.0
N464 N 0.96632 1.01335 0.07158 0.0
C465 C 0.9605 0.03736 0.08375 0.0
C466 C 0.91975 0.94408 0.12714 0.0
O467 O 0.90307 0.87748 0.09987 0.0
O468 O 0.93576 0.9146 0.0898 0.0
O469 O 0.92748 0.96072 0.11556 0.0
O470 O 0.89724 0.92068 0.12615 0.0
O471 O 0.87319 0.99364 0.10635 0.0
H472 H 0.93078 0.03496 0.10451 0.0
H473 H 0.94764 0.95929 0.06715 0.0
O474 O 0.84464 0.95031 0.11514 0.0
O475 O 0.85067 0.90887 0.08863 0.0
O476 O 0.88095 0.94896 0.07863 0.0
C477 C 0.85756 0.92696 0.0774 0.0
H478 H 0.78129 0.83254 0.1172 0.0
H479 H 0.97037 0.06428 0.0854 0.0
Co480 Co 0.72678 0.66069 0.84804 0.0
C481 C 0.66219 0.68493 0.84127 0.0
Co482 Co 0.68915 0.625 0.85525 0.0
C483 C 0.75594 0.70176 0.82646 0.0
C484 C 0.78373 0.70715 0.8471 0.0
N485 N 0.75729 0.69098 0.84076 0.0
N486 N 0.78041 0.72371 0.82342 0.0
C487 C 0.798 0.72757 0.83642 0.0
H488 H 0.73678 0.69407 0.81845 0.0
H489 H 0.792 0.70435 0.85867 0.0
C490 C 0.75244 0.60569 0.86556 0.0
N491 N 0.65806 0.59424 0.86126 0.0
C492 C 0.62699 0.60267 0.86403 0.0
C493 C 0.65933 0.55792 0.86061 0.0
N494 N 0.60852 0.57313 0.86466 0.0
C495 C 0.62879 0.5448 0.86278 0.0
C496 C 0.71215 0.6034 0.82584 0.0
O497 O 0.76088 0.63084 0.85718 0.0
O498 O 0.72247 0.59762 0.86562 0.0
O499 O 0.69371 0.59408 0.8364 0.0
O500 O 0.72876 0.63185 0.82852 0.0
O501 O 0.65537 0.65415 0.84585 0.0
H502 H 0.68067 0.54198 0.8578 0.0
H503 H 0.61793 0.63004 0.86509 0.0
O504 O 0.69217 0.69246 0.84037 0.0
O505 O 0.72467 0.68853 0.86658 0.0
O506 O 0.68404 0.65569 0.87354 0.0
C507 C 0.70263 0.68269 0.87611 0.0
H508 H 0.81967 0.74361 0.83804 0.0
H509 H 0.62186 0.5167 0.86229 0.0
Co510 Co 0.67096 0.45474 0.09646 0.0
C511 C 0.64619 0.38235 0.09189 0.0
Co512 Co 0.7019 0.41373 0.10634 0.0
C513 C 0.62754 0.48462 0.07377 0.0
C514 C 0.63615 0.52254 0.09305 0.0
N515 N 0.64398 0.48896 0.08734 0.0
N516 N 0.60964 0.51404 0.07082 0.0
C517 C 0.61536 0.53784 0.08306 0.0
H518 H 0.62842 0.45997 0.06629 0.0
H519 H 0.64485 0.53511 0.10387 0.0
C520 C 0.72682 0.48309 0.11393 0.0
N521 N 0.72804 0.37869 0.11353 0.0
C522 C 0.71814 0.34574 0.11663 0.0
C523 C 0.76061 0.37648 0.11326 0.0
N524 N 0.74284 0.32278 0.11768 0.0
C525 C 0.76986 0.34192 0.11601 0.0
C526 C 0.71852 0.42727 0.07661 0.0
O527 O 0.70268 0.49335 0.10593 0.0
O528 O 0.73096 0.44946 0.11449 0.0
O529 O 0.72522 0.40878 0.08773 0.0
O530 O 0.69514 0.44934 0.07791 0.0
O531 O 0.67254 0.37707 0.09864 0.0
H532 H 0.77651 0.39785 0.11028 0.0
H533 H 0.69308 0.3381 0.11755 0.0
O534 O 0.64002 0.41482 0.08884 0.0
O535 O 0.64817 0.46023 0.11472 0.0
O536 O 0.67814 0.41949 0.12507 0.0
C537 C 0.65568 0.443 0.12617 0.0
H538 H 0.60547 0.56477 0.08478 0.0
H539 H 0.79415 0.33129 0.11606 0.0
Co540 Co 0.91998 0.39939 0.34067 0.0
C541 C 0.98758 0.37792 0.33867 0.0
Co542 Co 0.95352 0.44026 0.35078 0.0
C543 C 0.872 0.36077 0.32127 0.0
C544 C 0.89479 0.32755 0.33692 0.0
N545 N 0.89369 0.36169 0.33284 0.0
N546 N 0.85962 0.32736 0.31796 0.0
C547 C 0.87391 0.30651 0.32788 0.0
H548 H 0.86584 0.38405 0.31523 0.0
H549 H 0.91066 0.31818 0.34556 0.0
C550 C 0.88627 0.45742 0.35627 0.0
N551 N 0.97882 0.47851 0.35806 0.0
C552 C 0.99897 0.49802 0.34983 0.0
C553 C 0.97317 0.49935 0.37115 0.0
N554 N 1.00467 0.53081 0.35698 0.0
C555 C 0.98906 0.53148 0.37052 0.0
C556 C 0.936 0.44923 0.31974 0.0
O557 O 0.88158 0.4283 0.34768 0.0
O558 O 0.9153 0.46846 0.35775 0.0
O559 O 0.95234 0.46093 0.33134 0.0
O560 O 0.91998 0.42024 0.32066 0.0
O561 O 0.99202 0.41013 0.34474 0.0
H562 H 0.95674 0.49264 0.38009 0.0
H563 H 1.00763 0.48936 0.33843 0.0
O564 O 0.95855 0.36906 0.33504 0.0
O565 O 0.91956 0.38092 0.36017 0.0
O566 O 0.95383 0.42123 0.37013 0.0
C567 C 0.93513 0.39488 0.37168 0.0
H568 H 0.87064 0.27773 0.32816 0.0
H569 H 0.98907 0.55379 0.37931 0.0
Co570 Co 0.97415 0.59928 0.60361 0.0
C571 C 0.91092 0.56501 0.60542 0.0
Co572 Co 0.93619 0.62172 0.5898 0.0
C573 C 0.99235 0.55993 0.62792 0.0
C574 C 1.02892 0.55542 0.61066 0.0
N575 N 1.00259 0.57467 0.61523 0.0
N576 N 1.00946 0.53053 0.63091 0.0
C577 C 1.03325 0.52828 0.6203 0.0
H578 H 0.97024 0.56828 0.6337 0.0
H579 H 0.04187 0.55822 0.60008 0.0
C580 C 0.99737 0.66079 0.59126 0.0
N581 N 0.90648 0.64535 0.57849 0.0
C582 C 0.88666 0.63221 0.56714 0.0
C583 C 0.90149 0.6813 0.57967 0.0
N584 N 0.86974 0.65869 0.56111 0.0
C585 C 0.879 0.68957 0.56901 0.0
C586 C 0.9377 0.64973 0.61992 0.0
O587 O 1.00652 0.63513 0.59912 0.0
O588 O 0.96875 0.65907 0.58574 0.0
O589 O 0.92327 0.64967 0.6072 0.0
O590 O 0.9621 0.62968 0.62123 0.0
O591 O 0.90281 0.58609 0.5952 0.0
H592 H 0.91383 0.70039 0.58763 0.0
H593 H 0.88544 0.60396 0.56307 0.0
O594 O 0.94067 0.56454 0.60893 0.0
O595 O 0.98721 0.56951 0.58542 0.0
O596 O 0.95029 0.59293 0.57146 0.0
C597 C 0.97487 0.57257 0.57226 0.0
H598 H 0.05126 0.50724 0.61887 0.0
H599 H 0.87018 0.71627 0.5672 0.0
Co600 Co 0.72891 0.40152 0.70058 0.0
C601 C 0.66471 0.37664 0.70694 0.0
Co602 Co 0.69153 0.43613 0.69217 0.0
C603 C 0.75847 0.36324 0.72299 0.0
C604 C 0.78588 0.35533 0.70227 0.0
N605 N 0.75978 0.3726 0.70847 0.0
N606 N 0.78254 0.34096 0.72627 0.0
C607 C 0.7999 0.33556 0.71323 0.0
H608 H 0.73935 0.37172 0.73092 0.0
H609 H 0.79383 0.35655 0.69053 0.0
C610 C 0.75454 0.45604 0.68234 0.0
N611 N 0.65979 0.46523 0.68546 0.0
C612 C 0.62987 0.45423 0.68156 0.0
C613 C 0.65831 0.50157 0.68677 0.0
N614 N 0.6093 0.48204 0.68097 0.0
C615 C 0.62714 0.51204 0.68396 0.0
C616 C 0.71288 0.45995 0.72179 0.0
O617 O 0.76271 0.43091 0.69082 0.0
O618 O 0.72461 0.46433 0.68215 0.0
O619 O 0.6941 0.4678 0.71108 0.0
O620 O 0.73051 0.43219 0.71945 0.0
O621 O 0.65799 0.40596 0.70105 0.0
H622 H 0.67799 0.51915 0.69059 0.0
H623 H 0.62301 0.42615 0.67986 0.0
O624 O 0.69462 0.37035 0.70907 0.0
O625 O 0.72715 0.37158 0.68254 0.0
O626 O 0.68846 0.40493 0.674 0.0
C627 C 0.70637 0.37714 0.67237 0.0
H628 H 0.82104 0.31854 0.71173 0.0
H629 H 0.618 0.53939 0.68494 0.0
Co630 Co 0.97289 0.46432 0.94442 0.0
C631 C 0.90968 0.49835 0.94234 0.0
Co632 Co 0.93483 0.44181 0.95818 0.0
C633 C 0.9924 0.50358 0.92018 0.0
C634 C 1.02798 0.50786 0.9379 0.0
N635 N 1.00177 0.48882 0.93301 0.0
N636 N 1.00999 0.53275 0.91741 0.0
C637 C 1.0331 0.53493 0.92831 0.0
H638 H 0.97092 0.49506 0.9139 0.0
H639 H 0.04022 0.50505 0.94865 0.0
C640 C 0.99617 0.40327 0.9572 0.0
N641 N 0.9048 0.41826 0.96937 0.0
C642 C 0.88486 0.43134 0.98072 0.0
C643 C 0.89962 0.38236 0.96805 0.0
N644 N 0.86768 0.40487 0.9866 0.0
C645 C 0.87689 0.37407 0.9786 0.0
C646 C 0.93732 0.41332 0.92808 0.0
O647 O 1.0053 0.42887 0.94932 0.0
O648 O 0.96735 0.40465 0.96249 0.0
O649 O 0.92252 0.41366 0.94073 0.0
O650 O 0.96162 0.43351 0.9268 0.0
O651 O 0.90155 0.47729 0.95255 0.0
H652 H 0.912 0.3633 0.96006 0.0
H653 H 0.88376 0.45953 0.9849 0.0
O654 O 0.93944 0.49879 0.93878 0.0
O655 O 0.98512 0.49443 0.96256 0.0
O656 O 0.94842 0.47076 0.97655 0.0
C657 C 0.97279 0.49136 0.97571 0.0
H658 H 0.05077 0.55623 0.93007 0.0
H659 H 0.86793 0.34737 0.98028 0.0
Co660 Co 0.92024 0.66134 0.21058 0.0
C661 C 0.98776 0.67985 0.21225 0.0
Co662 Co 0.95129 0.61956 0.19915 0.0
C663 C 0.87221 0.70005 0.2304 0.0
C664 C 0.89751 0.73394 0.21586 0.0
N665 N 0.89484 0.69932 0.2192 0.0
N666 N 0.86066 0.73375 0.23407 0.0
C667 C 0.87658 0.75499 0.22487 0.0
H668 H 0.86463 0.6764 0.23585 0.0
H669 H 0.91435 0.74358 0.20768 0.0
C670 C 0.88449 0.60559 0.19349 0.0
N671 N 0.97587 0.58134 0.19115 0.0
C672 C 0.99677 0.56158 0.19885 0.0
C673 C 0.96917 0.56083 0.17809 0.0
N674 N 1.00199 0.52895 0.19144 0.0
C675 C 0.98521 0.52862 0.17825 0.0
C676 C 0.93443 0.60828 0.23018 0.0
O677 O 0.88085 0.63501 0.2021 0.0
O678 O 0.91288 0.59252 0.19245 0.0
O679 O 0.95099 0.59764 0.21845 0.0
O680 O 0.91824 0.63732 0.22971 0.0
O681 O 0.99021 0.64885 0.20474 0.0
H682 H 0.95204 0.56786 0.1695 0.0
H683 H 1.00645 0.57001 0.21008 0.0
O684 O 0.95977 0.68891 0.21751 0.0
O685 O 0.92229 0.68337 0.19208 0.0
O686 O 0.95081 0.63988 0.18014 0.0
C687 C 0.93581 0.66951 0.17997 0.0
H688 H 0.87424 0.784 0.22504 0.0
H689 H 0.98465 0.50656 0.16935 0.0
Co690 Co 0.6703 0.60406 0.45313 0.0
C691 C 0.64308 0.67486 0.45851 0.0
Co692 Co 0.6987 0.64642 0.44283 0.0
C693 C 0.62952 0.57313 0.4763 0.0
C694 C 0.6395 0.53445 0.45743 0.0
N695 N 0.64601 0.56866 0.46276 0.0
N696 N 0.61276 0.54325 0.47959 0.0
C697 C 0.61933 0.51892 0.46763 0.0
H698 H 0.62927 0.59829 0.48344 0.0
H699 H 0.64843 0.52173 0.44668 0.0
C700 C 0.72635 0.57885 0.43493 0.0
N701 N 0.72109 0.68304 0.43475 0.0
C702 C 0.70649 0.71214 0.42985 0.0
C703 C 0.75242 0.69247 0.43643 0.0
N704 N 0.72677 0.74004 0.42923 0.0
C705 C 0.75601 0.72784 0.43299 0.0
C706 C 0.71845 0.63428 0.47211 0.0
O707 O 0.70325 0.56746 0.44329 0.0
O708 O 0.7288 0.61261 0.43408 0.0
O709 O 0.72381 0.65297 0.46088 0.0
O710 O 0.69572 0.61137 0.47117 0.0
O711 O 0.66857 0.68148 0.45133 0.0
H712 H 0.77072 0.67605 0.44126 0.0
H713 H 0.6807 0.71396 0.42811 0.0
O714 O 0.63811 0.64201 0.46125 0.0
O715 O 0.64613 0.5966 0.43541 0.0
O716 O 0.67317 0.63886 0.42467 0.0
C717 C 0.65185 0.61417 0.42387 0.0
H718 H 0.61027 0.4916 0.46623 0.0
H719 H 0.77758 0.74412 0.43444 0.0
Co720 Co 0.38219 0.43838 0.19274 0.0
C721 C 0.31937 0.45743 0.18196 0.0
Co722 Co 0.34429 0.40307 0.20001 0.0
C723 C 0.44431 0.45819 0.18316 0.0
C724 C 0.41422 0.50456 0.18772 0.0
N725 N 0.41384 0.46821 0.18655 0.0
N726 N 0.46412 0.48671 0.18269 0.0
C727 C 0.44521 0.51607 0.18531 0.0
H728 H 0.45195 0.43032 0.18165 0.0
H729 H 0.39379 0.5215 0.19111 0.0
C730 C 0.40843 0.37916 0.20739 0.0
N731 N 0.31353 0.37329 0.20749 0.0
C732 C 0.31484 0.36312 0.22189 0.0
C733 C 0.28775 0.35588 0.20108 0.0
N734 N 0.29109 0.3402 0.2249 0.0
C735 C 0.27394 0.33522 0.2118 0.0
C736 C 0.36912 0.37948 0.17232 0.0
O737 O 0.4155 0.40964 0.2026 0.0
O738 O 0.37843 0.37172 0.20816 0.0
O739 O 0.34671 0.3742 0.18174 0.0
O740 O 0.38751 0.4067 0.17474 0.0
O741 O 0.31069 0.43258 0.19045 0.0
H742 H 0.27992 0.35757 0.18936 0.0
H743 H 0.33378 0.37147 0.22992 0.0
O744 O 0.34937 0.46547 0.18194 0.0
O745 O 0.37736 0.47023 0.21131 0.0
O746 O 0.34198 0.43286 0.21923 0.0
C747 C 0.35854 0.46137 0.22181 0.0
H748 H 0.45337 0.54377 0.18621 0.0
H749 H 0.25308 0.3179 0.21008 0.0
Co750 Co 0.37558 0.64924 0.94178 0.0
C751 C 0.3491 0.58083 0.93585 0.0
Co752 Co 0.4062 0.60943 0.95249 0.0
C753 C 0.34822 0.71807 0.93977 0.0
C754 C 0.33642 0.68338 0.91982 0.0
N755 N 0.35102 0.68388 0.93357 0.0
N756 N 0.33416 0.73978 0.93016 0.0
C757 C 0.32607 0.71777 0.91768 0.0
H758 H 0.35893 0.72746 0.95065 0.0
H759 H 0.33576 0.66032 0.91143 0.0
C760 C 0.43242 0.68093 0.95507 0.0
N761 N 0.43225 0.57553 0.96232 0.0
C762 C 0.44902 0.58047 0.97579 0.0
C763 C 0.43898 0.54127 0.95713 0.0
N764 N 0.46609 0.55076 0.97915 0.0
C765 C 0.45946 0.52616 0.9673 0.0
C766 C 0.42093 0.61593 0.92239 0.0
O767 O 0.40663 0.68518 0.94771 0.0
O768 O 0.43764 0.64944 0.95958 0.0
O769 O 0.42932 0.60131 0.93439 0.0
O770 O 0.3982 0.63904 0.92293 0.0
O771 O 0.37385 0.57086 0.94352 0.0
H772 H 0.42976 0.5281 0.94654 0.0
H773 H 0.44907 0.60573 0.98287 0.0
O774 O 0.34477 0.61435 0.93513 0.0
O775 O 0.35314 0.65849 0.96062 0.0
O776 O 0.38178 0.61724 0.97084 0.0
C777 C 0.35928 0.64045 0.97198 0.0
H778 H 0.31682 0.72651 0.90702 0.0
H779 H 0.46852 0.49881 0.966 0.0
Co780 Co 0.12631 0.61889 0.69786 0.0
C781 C 0.19205 0.59919 0.69164 0.0
Co782 Co 0.16083 0.6584 0.70828 0.0
C783 C 0.07967 0.56223 0.69879 0.0
C784 C 0.10348 0.56232 0.67701 0.0
N785 N 0.09933 0.58215 0.6905 0.0
N786 N 0.07291 0.5301 0.69128 0.0
C787 C 0.08725 0.53034 0.67747 0.0
H788 H 0.07224 0.56997 0.71048 0.0
H789 H 0.11932 0.56941 0.6679 0.0
C790 C 0.09441 0.68234 0.71083 0.0
N791 N 0.18994 0.69368 0.71588 0.0
C792 C 0.1946 0.70833 0.7304 0.0
C793 C 0.21282 0.70881 0.70752 0.0
N794 N 0.21938 0.73209 0.73136 0.0
C795 C 0.23075 0.73242 0.71694 0.0
C796 C 0.14558 0.66492 0.67754 0.0
O797 O 0.08942 0.65058 0.70438 0.0
O798 O 0.12358 0.69038 0.71471 0.0
O799 O 0.16066 0.67818 0.6893 0.0
O800 O 0.12639 0.63879 0.67865 0.0
O801 O 0.19776 0.62783 0.70035 0.0
H802 H 0.21691 0.70236 0.69538 0.0
H803 H 0.18035 0.7014 0.7401 0.0
O804 O 0.16278 0.58908 0.69043 0.0
O805 O 0.12726 0.59751 0.71714 0.0
O806 O 0.1613 0.63631 0.72792 0.0
C807 C 0.14433 0.60797 0.72869 0.0
H808 H 0.08627 0.5087 0.66839 0.0
H809 H 0.25146 0.7475 0.71351 0.0
Co810 Co 0.1393 0.43956 0.45802 0.0
C811 C 0.07801 0.40149 0.45655 0.0
Co812 Co 0.10164 0.46307 0.44435 0.0
C813 C 0.18996 0.42818 0.47995 0.0
C814 C 0.17408 0.37936 0.46755 0.0
N815 N 0.16927 0.41532 0.46892 0.0
N816 N 0.20732 0.40152 0.4856 0.0
C817 C 0.1974 0.3708 0.47777 0.0
H818 H 0.19157 0.45638 0.48405 0.0
H819 H 0.16118 0.36048 0.45972 0.0
C820 C 0.1647 0.49678 0.44264 0.0
N821 N 0.07277 0.4886 0.43329 0.0
C822 C 0.08228 0.50484 0.42084 0.0
C823 C 0.04655 0.50725 0.4385 0.0
N824 N 0.06483 0.53457 0.41869 0.0
C825 C 0.04161 0.53556 0.42955 0.0
C826 C 0.10167 0.48861 0.47597 0.0
O827 O 0.17282 0.47483 0.4525 0.0
O828 O 0.13491 0.49794 0.43927 0.0
O829 O 0.08913 0.49195 0.46288 0.0
O830 O 0.12619 0.46811 0.4766 0.0
O831 O 0.06942 0.42723 0.44862 0.0
H832 H 1.03419 0.50325 0.44913 0.0
H833 H 0.1038 0.49685 0.41447 0.0
O834 O 0.10649 0.4027 0.46222 0.0
O835 O 0.15129 0.41171 0.44036 0.0
O836 O 0.11325 0.43346 0.42634 0.0
C837 C 0.13711 0.41255 0.4276 0.0
H838 H 0.20632 0.344 0.47931 0.0
H839 H 1.02387 0.55669 0.43172 0.0
Co840 Co 0.3833 0.62464 0.355 0.0
C841 C 0.32034 0.60547 0.36578 0.0
Co842 Co 0.3454 0.66081 0.34847 0.0
C843 C 0.44528 0.60196 0.36371 0.0
C844 C 0.4137 0.557 0.35903 0.0
N845 N 0.41448 0.59335 0.36044 0.0
N846 N 0.46412 0.57255 0.36396 0.0
C847 C 0.44429 0.54407 0.36125 0.0
H848 H 0.45381 0.62946 0.36547 0.0
H849 H 0.39266 0.54103 0.35574 0.0
C850 C 0.40976 0.68473 0.34111 0.0
N851 N 0.3149 0.69196 0.34179 0.0
C852 C 0.31781 0.70619 0.32822 0.0
C853 C 0.28743 0.70618 0.34796 0.0
N854 N 0.29375 0.72905 0.32559 0.0
C855 C 0.27418 0.72901 0.33791 0.0
C856 C 0.37122 0.68167 0.37635 0.0
O857 O 0.4169 0.6538 0.34545 0.0
O858 O 0.37977 0.69236 0.34067 0.0
O859 O 0.34862 0.68801 0.36718 0.0
O860 O 0.38941 0.65445 0.37339 0.0
O861 O 0.31161 0.63104 0.35769 0.0
H862 H 0.27785 0.70055 0.35903 0.0
H863 H 0.33727 0.69947 0.32023 0.0
O864 O 0.35029 0.59716 0.36551 0.0
O865 O 0.37768 0.5946 0.33609 0.0
O866 O 0.34229 0.63282 0.32876 0.0
C867 C 0.35873 0.60428 0.3258 0.0
H868 H 0.45154 0.51602 0.36031 0.0
H869 H 0.25231 0.74472 0.33964 0.0
Co870 Co 0.13997 0.62297 0.08889 0.0
C871 C 0.07863 0.66104 0.09045 0.0
Co872 Co 0.10236 0.59924 0.10256 0.0
C873 C 0.19015 0.63492 0.0666 0.0
C874 C 0.17456 0.68338 0.0794 0.0
N875 N 0.16988 0.64739 0.07793 0.0
N876 N 0.20705 0.66184 0.06088 0.0
C877 C 0.19731 0.69232 0.06897 0.0
H878 H 0.19173 0.60682 0.06233 0.0
H879 H 0.16185 0.70204 0.08743 0.0
C880 C 0.16556 0.5657 0.10419 0.0
N881 N 0.07338 0.5738 0.11353 0.0
C882 C 0.08234 0.55676 0.12584 0.0
C883 C 0.04619 0.55698 0.10845 0.0
N884 N 0.06328 0.52838 0.12812 0.0
C885 C 0.0399 0.52901 0.11741 0.0
C886 C 0.10235 0.57396 0.07099 0.0
O887 O 0.17345 0.5875 0.09422 0.0
O888 O 0.13582 0.56451 0.10771 0.0
O889 O 0.0901 0.57031 0.08411 0.0
O890 O 0.12664 0.59473 0.07028 0.0
O891 O 0.06992 0.63504 0.0982 0.0
H892 H 1.03378 0.56209 0.09797 0.0
H893 H 0.10419 0.56335 0.13219 0.0
O894 O 0.10723 0.66001 0.08491 0.0
O895 O 0.15205 0.6504 0.10662 0.0
O896 O 0.1137 0.62873 0.12052 0.0
C897 C 0.13771 0.64941 0.11935 0.0
H898 H 0.20596 0.71922 0.06744 0.0
H899 H 1.021 0.50918 0.11539 0.0
Co900 Co 0.12376 0.44372 0.85023 0.0
C901 C 0.19077 0.4613 0.85616 0.0
Co902 Co 0.15789 0.40334 0.84016 0.0
C903 C 0.07646 0.49925 0.84867 0.0
C904 C 0.10358 0.50463 0.86961 0.0
N905 N 0.09791 0.4819 0.85708 0.0
N906 N 0.06986 0.53254 0.85512 0.0
C907 C 0.08635 0.53577 0.86844 0.0
H908 H 0.06732 0.48859 0.83762 0.0
H909 H 0.12068 0.49979 0.87855 0.0
C910 C 0.09052 0.38109 0.838 0.0
N911 N 0.18452 0.36554 0.83268 0.0
C912 C 0.20624 0.36402 0.8211 0.0
C913 C 0.18349 0.33168 0.83709 0.0
N914 N 0.2187 0.33051 0.81812 0.0
C915 C 0.20444 0.31023 0.82825 0.0
C916 C 0.14253 0.39965 0.87114 0.0
O917 O 0.08567 0.4132 0.84409 0.0
O918 O 0.11966 0.37265 0.83435 0.0
O919 O 0.1578 0.38548 0.85958 0.0
O920 O 0.12302 0.42531 0.86962 0.0
O921 O 0.19599 0.43245 0.84745 0.0
H922 H 0.16756 0.32272 0.8458 0.0
H923 H 0.21231 0.38691 0.81481 0.0
O924 O 0.16162 0.4722 0.85737 0.0
O925 O 0.12537 0.46398 0.83074 0.0
O926 O 0.15848 0.42381 0.82015 0.0
C927 C 0.14213 0.45258 0.81921 0.0
H928 H 0.08583 0.55901 0.87675 0.0
H929 H 0.20771 0.28151 0.82879 0.0
Co930 Co 0.37279 0.40594 0.60504 0.0
C931 C 0.34822 0.47541 0.61218 0.0
Co932 Co 0.40413 0.44647 0.59518 0.0
C933 C 0.3559 0.33843 0.61549 0.0
C934 C 0.31366 0.36933 0.61174 0.0
N935 N 0.34624 0.37131 0.61218 0.0
N936 N 0.33105 0.31571 0.61653 0.0
C937 C 0.30417 0.33495 0.61463 0.0
H938 H 0.38088 0.33065 0.61663 0.0
H939 H 0.29795 0.39073 0.6086 0.0
C940 C 0.42863 0.37411 0.59096 0.0
N941 N 0.43136 0.48033 0.5862 0.0
C942 C 0.44793 0.47564 0.57269 0.0
C943 C 0.43933 0.51388 0.59188 0.0
N944 N 0.46605 0.5048 0.56973 0.0
C945 C 0.46037 0.52884 0.5819 0.0
C946 C 0.41846 0.43525 0.62504 0.0
O947 O 0.40216 0.36911 0.59765 0.0
O948 O 0.43502 0.40642 0.58781 0.0
O949 O 0.42645 0.45212 0.61357 0.0
O950 O 0.39593 0.4119 0.62392 0.0
O951 O 0.37263 0.48527 0.6043 0.0
H952 H 0.43055 0.52664 0.60265 0.0
H953 H 0.44698 0.45091 0.56527 0.0
O954 O 0.34372 0.4419 0.61285 0.0
O955 O 0.3501 0.40071 0.58634 0.0
O956 O 0.3804 0.44097 0.57648 0.0
C957 C 0.35706 0.4189 0.57517 0.0
H958 H 0.27982 0.32452 0.61467 0.0
H959 H 0.47046 0.55566 0.58357 0.0
H960 H 0.14981 0.19721 0.38877 0.0
H961 H 0.19691 0.39952 0.4167 0.0
H962 H 0.24643 0.23964 0.38669 0.0
H963 H 0.09876 0.3621 0.41279 0.0
H964 H 0.21545 0.34155 0.40484 0.0
H965 H 0.13091 0.25656 0.39902 0.0
C966 C 0.16723 0.21871 0.39095 0.0
C967 C 0.19973 0.21365 0.38686 0.0
C968 C 0.18979 0.34615 0.40623 0.0
C969 C 0.17812 0.28163 0.398 0.0
C970 C 0.17924 0.37941 0.41273 0.0
C971 C 0.14637 0.38533 0.4155 0.0
C972 C 0.16725 0.31857 0.4028 0.0
C973 C 0.12429 0.35848 0.41055 0.0
C974 C 0.15631 0.25274 0.39649 0.0
C975 C 0.22116 0.24251 0.38968 0.0
N976 N 0.13519 0.3258 0.40464 0.0
N977 N 0.2099 0.27541 0.39495 0.0
H978 H 0.139 1.01493 0.63664 0.0
H979 H 1.01005 0.94249 0.69191 0.0
H980 H 0.1339 0.90492 0.6485 0.0
H981 H 1.00728 0.04613 0.67324 0.0
H982 H 0.06659 0.93636 0.68465 0.0
H983 H 0.10366 0.03331 0.65813 0.0
C984 C 0.13066 0.99472 0.64396 0.0
C985 C 0.13825 0.95824 0.6406 0.0
C986 C 0.05391 0.96093 0.68255 0.0
C987 C 0.09747 0.97889 0.66496 0.0
C988 C 1.02162 0.96461 0.68678 0.0
C989 C 1.00378 0.99452 0.68274 0.0
C990 C 0.0682 0.98725 0.67418 0.0
C991 C 1.02006 1.02226 0.67613 0.0
C992 C 0.11067 1.00524 0.65626 0.0
C993 C 0.12788 0.93322 0.65062 0.0
N994 N 0.05124 1.01763 0.67175 0.0
N995 N 0.10716 0.94388 0.66218 0.0
H996 H 0.45987 0.86827 0.89615 0.0
H997 H 0.29967 0.78789 0.91522 0.0
H998 H 0.36987 0.91133 0.88122 0.0
H999 H 0.38132 0.77995 0.94528 0.0
H1000 H 0.32159 0.844 0.9072 0.0
H1001 H 0.43156 0.84548 0.91813 0.0
C1002 C 0.4344 0.8738 0.89781 0.0
C1003 C 0.41678 0.89065 0.88682 0.0
C1004 C 0.3344 0.83046 0.91585 0.0
C1005 C 0.38446 0.86503 0.91151 0.0
C1006 C 0.3218 0.79837 0.92041 0.0
C1007 C 0.33965 0.77798 0.93016 0.0
C1008 C 0.36542 0.84143 0.92079 0.0
C1009 C 0.36752 0.79361 0.93707 0.0
C1010 C 0.41823 0.86106 0.91033 0.0
C1011 C 0.38397 0.89767 0.88937 0.0
N1012 N 0.38033 0.82368 0.93177 0.0
N1013 N 0.36867 0.88422 0.90129 0.0
H1014 H 0.58629 0.96127 0.18957 0.0
H1015 H 0.45736 1.01801 0.14608 0.0
H1016 H 0.51064 0.03691 0.20222 0.0
H1017 H 0.55095 0.97093 0.13582 0.0
H1018 H 0.45314 0.98272 0.16799 0.0
H1019 H 0.54606 0.91841 0.17916 0.0
C1020 C 0.56101 0.96824 0.19082 0.0
C1021 C 0.55175 1.00396 0.19506 0.0
C1022 C 0.47411 0.97914 0.16061 0.0
C1023 C 0.50738 0.95761 0.18159 0.0
C1024 C 0.477 1.00007 0.14819 0.0
C1025 C 0.50584 0.99985 0.13965 0.0
C1026 C 0.50075 0.95914 0.16496 0.0
C1027 C 0.5291 0.97391 0.14253 0.0
C1028 C 0.53784 0.94366 0.18494 0.0
C1029 C 0.51889 1.01071 0.19748 0.0
N1030 N 0.52642 0.95531 0.15517 0.0
N1031 N 0.49724 0.98747 0.19044 0.0
H1032 H 0.14819 0.8638 0.15864 0.0
H1033 H 0.19757 0.66279 0.13002 0.0
H1034 H 0.24478 0.82187 0.16204 0.0
H1035 H 0.09898 0.69867 0.13469 0.0
H1036 H 0.21554 0.72061 0.1422 0.0
H1037 H 0.13023 0.80449 0.14796 0.0
C1038 C 0.16583 0.84243 0.15663 0.0
C1039 C 0.19799 0.84753 0.16122 0.0
C1040 C 0.18992 0.71567 0.14091 0.0
C1041 C 0.17747 0.77968 0.14962 0.0
C1042 C 0.17972 0.68252 0.13421 0.0
C1043 C 0.14688 0.67629 0.13154 0.0
C1044 C 0.16705 0.74279 0.14463 0.0
C1045 C 0.12451 0.70259 0.13682 0.0
C1046 C 0.15543 0.80842 0.15086 0.0
C1047 C 0.21975 0.81887 0.15865 0.0
N1048 N 0.13507 0.7352 0.1429 0.0
N1049 N 0.20901 0.78599 0.15313 0.0
H1050 H 0.62825 0.08274 0.37031 0.0
H1051 H 0.60694 0.0487 0.43068 0.0
H1052 H 0.5245 0.08355 0.36934 0.0
H1053 H 0.50858 0.08589 0.43063 0.0
H1054 H 0.62227 0.09793 0.41581 0.0
H1055 H 0.62696 0.12359 0.39362 0.0
C1056 C 0.60515 0.09205 0.37487 0.0
C1057 C 0.57634 0.07695 0.36888 0.0
C1058 C 0.59731 0.09624 0.41925 0.0
C1059 C 0.5748 0.12082 0.39593 0.0
C1060 C 0.58861 0.06766 0.42772 0.0
C1061 C 0.556 0.06115 0.43054 0.0
C1062 C 0.57279 0.11618 0.41262 0.0
C1063 C 0.53374 0.08821 0.42764 0.0
C1064 C 0.60438 0.1154 0.3882 0.0
C1065 C 0.54731 0.09233 0.37433 0.0
N1066 N 0.54236 0.11408 0.41837 0.0
N1067 N 0.54717 0.1127 0.38793 0.0
H1068 H 0.36621 0.26581 0.6001 0.0
H1069 H 0.43459 0.23865 0.67372 0.0
H1070 H 0.30597 0.28333 0.64007 0.0
H1071 H 0.41964 0.1313 0.65225 0.0
H1072 H 0.4009 0.26256 0.65401 0.0
H1073 H 0.39406 0.21711 0.61201 0.0
C1074 C 0.35764 0.2578 0.61101 0.0
C1075 C 0.33452 0.2788 0.6194 0.0
C1076 C 0.40573 0.23385 0.65347 0.0
C1077 C 0.36598 0.22428 0.63291 0.0
C1078 C 0.42524 0.22036 0.66448 0.0
C1079 C 0.42968 0.18315 0.66449 0.0
C1080 C 0.39063 0.20992 0.64254 0.0
C1081 C 0.41683 0.16028 0.65241 0.0
C1082 C 0.37351 0.23021 0.61776 0.0
C1083 C 0.32396 0.2678 0.63342 0.0
N1084 N 0.39712 0.17402 0.64191 0.0
N1085 N 0.34074 0.24203 0.64008 0.0
H1086 H 0.13783 0.05273 0.91368 0.0
H1087 H 1.00982 0.1271 0.85783 0.0
H1088 H 0.13335 0.16335 0.90253 0.0
H1089 H 1.00497 1.02444 0.87734 0.0
H1090 H 0.06559 0.13362 0.8664 0.0
H1091 H 0.10148 0.03563 0.89247 0.0
C1092 C 0.12942 0.07333 0.90656 0.0
C1093 C 0.13745 0.10963 0.91005 0.0
C1094 C 0.05249 0.10936 0.86853 0.0
C1095 C 0.09562 0.09046 0.88605 0.0
C1096 C 1.02056 0.10577 0.86381 0.0
C1097 C 1.00237 0.07586 0.8675 0.0
C1098 C 0.06616 0.08287 0.87699 0.0
C1099 C 1.01793 0.04823 0.87454 0.0
C1100 C 0.10884 0.06356 0.89445 0.0
C1101 C 0.127 0.13519 0.9003 0.0
N1102 N 0.04882 0.05275 0.87935 0.0
N1103 N 0.10577 0.12524 0.8889 0.0
H1104 H 0.93316 0.86458 0.65966 0.0
H1105 H 0.87761 0.66657 0.62952 0.0
H1106 H 0.83431 0.82836 0.65975 0.0
H1107 H 0.97719 0.69756 0.63557 0.0
H1108 H 0.86112 0.72563 0.641 0.0
H1109 H 0.94956 0.80484 0.64874 0.0
C1110 C 0.91478 0.84443 0.65685 0.0
C1111 C 0.88239 0.85111 0.66068 0.0
C1112 C 0.8866 0.71938 0.64013 0.0
C1113 C 0.90101 0.7828 0.64883 0.0
C1114 C 0.89593 0.68553 0.63385 0.0
C1115 C 0.92867 0.67756 0.63176 0.0
C1116 C 0.91027 0.74541 0.64407 0.0
C1117 C 0.95169 0.70285 0.63724 0.0
C1118 C 0.92423 0.81016 0.65095 0.0
C1119 C 0.85958 0.82405 0.65703 0.0
N1120 N 0.94202 0.73614 0.64295 0.0
N1121 N 0.8694 0.79083 0.65147 0.0
H1122 H 0.93602 0.15658 0.39839 0.0
H1123 H 0.0773 1.02079 0.37733 0.0
H1124 H 0.9421 0.04853 0.41257 0.0
H1125 H 0.07091 0.12672 0.36078 0.0
H1126 H 1.02058 1.02466 0.38428 0.0
H1127 H 0.97718 0.14087 0.37878 0.0
C1128 C 0.94543 0.12933 0.39706 0.0
C1129 C 0.93672 0.10408 0.40731 0.0
C1130 C 1.03146 0.04694 0.37895 0.0
C1131 C 0.98347 0.08604 0.38525 0.0
C1132 C 0.06392 0.04467 0.37497 0.0
C1133 C 0.07925 0.07402 0.36903 0.0
C1134 C 1.0144 0.07901 0.37722 0.0
C1135 C 0.06052 0.10413 0.36603 0.0
C1136 C 0.96891 0.12034 0.38593 0.0
C1137 C 0.94912 0.06903 0.40513 0.0
N1138 N 1.02921 0.10618 0.37046 0.0
N1139 N 0.97233 0.0612 0.39451 0.0
H1140 H 0.7699 0.28788 0.14007 0.0
H1141 H 0.65416 0.13409 0.15183 0.0
H1142 H 0.70607 0.27436 0.10127 0.0
H1143 H 0.64276 0.24244 0.17282 0.0
H1144 H 0.68827 0.15779 0.13179 0.0
H1145 H 0.74377 0.23656 0.15086 0.0
C1146 C 0.75167 0.27272 0.13343 0.0
C1147 C 0.73924 0.28558 0.1201 0.0
C1148 C 0.67742 0.17616 0.14059 0.0
C1149 C 0.70937 0.22813 0.13226 0.0
C1150 C 0.65759 0.16295 0.15178 0.0
C1151 C 0.64577 0.18661 0.16386 0.0
C1152 C 0.68511 0.21286 0.14181 0.0
C1153 C 0.65147 0.22354 0.16364 0.0
C1154 C 0.73671 0.2437 0.13957 0.0
C1155 C 0.71545 0.26539 0.11185 0.0
N1156 N 0.67129 0.23552 0.15292 0.0
N1157 N 0.7002 0.23831 0.11837 0.0
H1158 H 0.56434 1.02031 0.84754 0.0
H1159 H 0.62125 0.04606 0.90361 0.0
H1160 H 0.49391 0.10428 0.85626 0.0
H1161 H 0.52413 0.08603 0.91061 0.0
H1162 H 0.62602 0.08019 0.88129 0.0
H1163 H 0.60602 0.06217 0.85711 0.0
C1164 C 0.55776 0.04799 0.85096 0.0
C1165 C 0.52537 0.05788 0.85295 0.0
C1166 C 0.60389 0.08206 0.88789 0.0
C1167 C 0.57137 0.10276 0.86596 0.0
C1168 C 0.60087 0.06207 0.90061 0.0
C1169 C 0.57124 0.06087 0.90847 0.0
C1170 C 0.57665 0.0997 0.88261 0.0
C1171 C 0.54683 0.08438 0.90452 0.0
C1172 C 0.58155 0.07213 0.85659 0.0
C1173 C 0.51853 0.09463 0.85628 0.0
N1174 N 0.5498 0.10208 0.89166 0.0
N1175 N 0.54187 0.11651 0.86277 0.0
H1176 H 0.8319 0.23242 0.89033 0.0
H1177 H 0.97764 0.3671 0.91178 0.0
H1178 H 0.93197 0.20079 0.88695 0.0
H1179 H 0.8774 0.39412 0.91909 0.0
H1180 H 0.96157 0.30752 0.90024 0.0
H1181 H 0.84831 0.29212 0.90098 0.0
C1182 C 0.8573 0.2378 0.89232 0.0
C1183 C 0.88065 0.2119 0.88776 0.0
C1184 C 0.94309 0.32676 0.90411 0.0
C1185 C 0.89968 0.2803 0.89926 0.0
C1186 C 0.95224 0.36092 0.91034 0.0
C1187 C 0.92869 0.38513 0.91629 0.0
C1188 C 0.91029 0.31729 0.90392 0.0
C1189 C 0.89614 0.3759 0.91456 0.0
C1190 C 0.86671 0.272 0.89814 0.0
C1191 C 0.91324 0.22007 0.89044 0.0
N1192 N 0.88786 0.34244 0.90869 0.0
N1193 N 0.92189 0.25392 0.89581 0.0
H1194 H 0.62211 1.01942 0.64825 0.0
H1195 H 0.49245 0.95554 0.68932 0.0
H1196 H 0.53236 0.96549 0.63609 0.0
H1197 H 0.56342 0.03567 0.7033 0.0
H1198 H 0.53545 0.91515 0.67975 0.0
H1199 H 0.62623 0.98486 0.67037 0.0
C1200 C 0.60326 1.00022 0.65 0.0
C1201 C 0.5752 0.99794 0.64087 0.0
C1202 C 0.54199 0.94091 0.68562 0.0
C1203 C 0.5803 0.95798 0.6664 0.0
C1204 C 0.51724 0.96409 0.69098 0.0
C1205 C 0.52447 1.0003 0.6954 0.0
C1206 C 0.57206 0.95657 0.68288 0.0
C1207 C 0.55677 1.00904 0.69841 0.0
C1208 C 0.60618 0.97971 0.66256 0.0
C1209 C 0.55329 0.9703 0.6433 0.0
N1210 N 0.58002 0.98711 0.69183 0.0
N1211 N 0.55587 0.95208 0.65605 0.0
H1212 H 0.5993 0.86714 0.39099 0.0
H1213 H 0.67529 0.77336 0.44264 0.0
H1214 H 0.68975 0.91983 0.3837 0.0
H1215 H 0.75562 0.78942 0.41283 0.0
H1216 H 0.65047 0.82864 0.43512 0.0
H1217 H 0.62309 0.83978 0.41285 0.0
C1218 C 0.62374 0.87405 0.39446 0.0
C1219 C 0.64293 0.89506 0.38563 0.0
C1220 C 0.67369 0.82039 0.43036 0.0
C1221 C 0.67041 0.8642 0.41024 0.0
C1222 C 0.68788 0.78901 0.43468 0.0
C1223 C 0.71681 0.7764 0.42785 0.0
C1224 C 0.68847 0.8388 0.41894 0.0
C1225 C 0.73293 0.79804 0.41804 0.0
C1226 C 0.63739 0.85868 0.40696 0.0
C1227 C 0.67454 0.90324 0.39029 0.0
N1228 N 0.71811 0.82797 0.41356 0.0
N1229 N 0.68765 0.887 0.40208 0.0
H1230 H 0.0714 0.04314 0.17319 0.0
H1231 H 0.93939 0.90015 0.14914 0.0
H1232 H 0.06984 0.93627 0.18877 0.0
H1233 H 0.93771 1.01078 0.13792 0.0
H1234 H 0.9782 0.91697 0.16971 0.0
H1235 H 1.01433 0.03708 0.16664 0.0
C1236 C 0.05874 1.01877 0.17554 0.0
C1237 C 0.07535 0.98995 0.18117 0.0
C1238 C 0.96868 0.93774 0.163 0.0
C1239 C 1.01058 0.98211 0.17334 0.0
C1240 C 0.94658 0.92809 0.15131 0.0
C1241 C 0.93645 0.95396 0.14162 0.0
C1242 C 0.98047 0.97336 0.16481 0.0
C1243 C 0.94596 0.98988 0.1449 0.0
C1244 C 1.0262 1.01521 0.17184 0.0
C1245 C 0.05792 0.95906 0.18431 0.0
N1246 N 0.96789 0.99842 0.15604 0.0
N1247 N 1.02663 0.95554 0.17995 0.0
H1248 H 0.59857 0.86877 0.91224 0.0
H1249 H 0.74287 0.73174 0.89049 0.0
H1250 H 0.69907 0.89352 0.91989 0.0
H1251 H 0.64252 0.7023 0.88599 0.0
H1252 H 0.72696 0.79141 0.90145 0.0
H1253 H 0.61394 0.80919 0.90034 0.0
C1254 C 0.62389 0.86213 0.9108 0.0
C1255 C 0.64771 0.88571 0.91693 0.0
C1256 C 0.70836 0.77178 0.8983 0.0
C1257 C 0.6653 0.81781 0.90415 0.0
C1258 C 0.71748 0.73758 0.89229 0.0
C1259 C 0.69395 0.71229 0.88738 0.0
C1260 C 0.67549 0.78073 0.89923 0.0
C1261 C 0.66137 0.72107 0.8898 0.0
C1262 C 0.63263 0.82795 0.90436 0.0
C1263 C 0.68013 0.87583 0.91521 0.0
N1264 N 0.65302 0.75493 0.89536 0.0
N1265 N 0.688 0.84238 0.90913 0.0
H1266 H 0.50244 0.53923 0.1729 0.0
H1267 H 0.63559 0.39754 0.14742 0.0
H1268 H 0.50481 0.4316 0.18794 0.0
H1269 H 0.63703 0.50909 0.13746 0.0
H1270 H 0.59566 0.41278 0.16768 0.0
H1271 H 0.55878 0.5329 0.16552 0.0
C1272 C 0.51486 0.51444 0.17485 0.0
C1273 C 0.49844 0.4854 0.18045 0.0
C1274 C 0.60534 0.43408 0.16132 0.0
C1275 C 0.56283 0.47759 0.17175 0.0
C1276 C 0.62811 0.42534 0.14982 0.0
C1277 C 0.63851 0.45196 0.14057 0.0
C1278 C 0.5932 0.46954 0.16336 0.0
C1279 C 0.6286 0.48766 0.14412 0.0
C1280 C 0.54711 0.51077 0.17062 0.0
C1281 C 0.516 0.45407 0.18293 0.0
N1282 N 0.60603 0.49532 0.15506 0.0
N1283 N 0.54708 0.45067 0.17823 0.0
H1284 H 0.88112 0.27663 0.44513 0.0
H1285 H 0.87935 0.41915 0.38353 0.0
H1286 H 0.80434 0.29027 0.41281 0.0
H1287 H 0.96222 0.35568 0.39375 0.0
H1288 H 0.85077 0.39699 0.40522 0.0
H1289 H 0.90691 0.33061 0.43723 0.0
C1290 C 0.86898 0.29142 0.43673 0.0
C1291 C 0.84143 0.27757 0.42888 0.0
C1292 C 0.87561 0.38899 0.40308 0.0
C1293 C 0.87041 0.3401 0.42036 0.0
C1294 C 0.89187 0.40149 0.39073 0.0
C1295 C 0.9228 0.38867 0.38685 0.0
C1296 C 0.89044 0.36327 0.41149 0.0
C1297 C 0.9382 0.3658 0.39641 0.0
C1298 C 0.88384 0.3224 0.4323 0.0
C1299 C 0.82629 0.29916 0.41864 0.0
N1300 N 0.92151 0.35313 0.40823 0.0
N1301 N 0.84142 0.32903 0.41437 0.0
H1302 H 1.03614 0.46408 0.63403 0.0
H1303 H 1.01352 0.5379 0.7044 0.0
H1304 H 0.96108 0.53577 0.65251 0.0
H1305 H 0.0834 0.45724 0.68937 0.0
H1306 H 0.97083 0.49689 0.69508 0.0
H1307 H 1.02959 0.42863 0.65587 0.0
C1308 C 1.01829 0.4726 0.64258 0.0
C1309 C 1.0013 0.50511 0.64196 0.0
C1310 C 0.99552 0.48735 0.69428 0.0
C1311 C 0.99409 0.46471 0.6673 0.0
C1312 C 1.01992 0.511 0.69969 0.0
C1313 C 0.05193 0.50235 0.69583 0.0
C1314 C 1.00432 0.4591 0.6833 0.0
C1315 C 0.05872 0.46634 0.69084 0.0
C1316 C 1.01406 0.4518 0.655 0.0
C1317 C 0.97666 0.51264 0.65285 0.0
N1318 N 1.03463 0.4454 0.6845 0.0
N1319 N 0.9744 0.49321 0.66524 0.0
H1320 H 0.69991 0.1622 0.63018 0.0
H1321 H 0.64721 0.36151 0.6602 0.0
H1322 H 0.60071 0.19538 0.63564 0.0
H1323 H 0.74525 0.32267 0.66099 0.0
H1324 H 0.62986 0.30191 0.64955 0.0
H1325 H 0.71702 0.2206 0.64208 0.0
C1326 C 0.68177 0.18149 0.63446 0.0
C1327 C 0.64898 0.17429 0.63212 0.0
C1328 C 0.65522 0.3066 0.65186 0.0
C1329 C 0.66814 0.24148 0.64492 0.0
C1330 C 0.66523 0.34078 0.65761 0.0
C1331 C 0.6977 0.34682 0.66145 0.0
C1332 C 0.67795 0.27862 0.64988 0.0
C1333 C 0.71998 0.31895 0.65817 0.0
C1334 C 0.69148 0.21497 0.641 0.0
C1335 C 0.62623 0.20004 0.63752 0.0
N1336 N 0.70963 0.28588 0.6527 0.0
N1337 N 0.63628 0.23299 0.64348 0.0
H1338 H 1.00864 0.51839 0.84532 0.0
H1339 H 0.95339 0.54079 0.90174 0.0
H1340 H 0.07597 0.60553 0.85358 0.0
H1341 H 0.04903 0.58539 0.90794 0.0
H1342 H 0.94623 0.57468 0.8795 0.0
H1343 H 0.96564 0.55846 0.85501 0.0
C1344 C 1.01427 0.54635 0.84867 0.0
C1345 C 0.0463 0.55767 0.85055 0.0
C1346 C 0.96855 0.5776 0.8859 0.0
C1347 C 0.99898 0.60043 0.86374 0.0
C1348 C 0.97296 0.55777 0.89858 0.0
C1349 C 1.00288 0.55812 0.90623 0.0
C1350 C 0.99474 0.59664 0.88042 0.0
C1351 C 1.02617 0.58267 0.90204 0.0
C1352 C 0.9897 0.56946 0.85438 0.0
C1353 C 0.05176 0.59475 0.85375 0.0
N1354 N 1.0219 0.60021 0.88922 0.0
N1355 N 1.02774 0.61559 0.86032 0.0
H1356 H 0.8678 0.77494 0.10239 0.0
H1357 H 0.93618 0.73966 0.17487 0.0
H1358 H 0.80755 0.79064 0.14244 0.0
H1359 H 0.91474 0.63373 0.15346 0.0
H1360 H 0.90388 0.76609 0.15528 0.0
H1361 H 0.89466 0.72453 0.11358 0.0
C1362 C 0.85908 0.76631 0.11317 0.0
C1363 C 0.83617 0.78709 0.12179 0.0
C1364 C 0.90704 0.73709 0.1547 0.0
C1365 C 0.8664 0.7305 0.13445 0.0
C1366 C 0.92571 0.72214 0.16565 0.0
C1367 C 0.92799 0.6847 0.16562 0.0
C1368 C 0.8905 0.71436 0.14383 0.0
C1369 C 0.91366 0.66284 0.15362 0.0
C1370 C 0.87433 0.7377 0.11949 0.0
C1371 C 0.82536 0.77525 0.13561 0.0
N1372 N 0.89472 0.67804 0.14322 0.0
N1373 N 0.8415 0.74838 0.14186 0.0
H1374 H 0.63545 0.65723 0.40106 0.0
H1375 H 0.49979 0.51884 0.3746 0.0
H1376 H 0.62875 0.54844 0.4144 0.0
H1377 H 0.50698 0.62542 0.3588 0.0
H1378 H 0.5554 0.52361 0.38328 0.0
H1379 H 0.59727 0.64137 0.38014 0.0
C1380 C 0.6264 0.62989 0.39936 0.0
C1381 C 0.63411 0.60442 0.40968 0.0
C1382 C 0.54498 0.54583 0.37772 0.0
C1383 C 0.59095 0.5861 0.38605 0.0
C1384 C 0.51318 0.54302 0.37273 0.0
C1385 C 0.49828 0.57236 0.36658 0.0
C1386 C 0.56169 0.57843 0.37679 0.0
C1387 C 0.51702 0.60284 0.36421 0.0
C1388 C 0.60471 0.62079 0.38746 0.0
C1389 C 0.62236 0.56919 0.40695 0.0
N1390 N 0.54757 0.60546 0.36965 0.0
N1391 N 0.60095 0.56122 0.39554 0.0
H1392 H 0.33041 0.32706 0.15914 0.0
H1393 H 0.47931 0.19695 0.13668 0.0
H1394 H 0.42963 0.36174 0.16229 0.0
H1395 H 0.3796 0.16647 0.13073 0.0
H1396 H 0.46206 0.25583 0.14864 0.0
H1397 H 0.34833 0.26757 0.14887 0.0
C1398 C 0.35595 0.32237 0.15721 0.0
C1399 C 0.3786 0.34917 0.16153 0.0
C1400 C 0.44398 0.23595 0.145 0.0
C1401 C 0.39939 0.28096 0.15042 0.0
C1402 C 0.45383 0.20218 0.13853 0.0
C1403 C 0.4307 0.17721 0.13285 0.0
C1404 C 0.41091 0.24428 0.14568 0.0
C1405 C 0.39801 0.18526 0.13507 0.0
C1406 C 0.36623 0.28828 0.1516 0.0
C1407 C 0.4114 0.3418 0.15895 0.0
N1408 N 0.38904 0.21836 0.14114 0.0
N1409 N 0.42091 0.30808 0.15374 0.0
H1410 H 0.43941 0.54839 0.91297 0.0
H1411 H 0.56546 0.62295 0.85638 0.0
H1412 H 0.43881 0.657 0.89922 0.0
H1413 H 0.57293 0.52183 0.87698 0.0
H1414 H 0.50924 0.62773 0.86447 0.0
H1415 H 0.47658 0.53071 0.89212 0.0
C1416 C 0.44684 0.56837 0.90534 0.0
C1417 C 0.43715 0.6044 0.90799 0.0
C1418 C 0.52302 0.60416 0.86695 0.0
C1419 C 0.47999 0.58467 0.88443 0.0
C1420 C 0.55519 0.60158 0.8625 0.0
C1421 C 0.5742 0.57266 0.86663 0.0
C1422 C 0.50993 0.57769 0.87561 0.0
C1423 C 0.55931 0.5449 0.87385 0.0
C1424 C 0.46792 0.55827 0.89343 0.0
C1425 C 0.44644 0.6291 0.89763 0.0
N1426 N 0.52816 0.54847 0.8784 0.0
N1427 N 0.46819 0.61898 0.88647 0.0
H1428 H 0.11532 0.69238 0.65299 0.0
H1429 H 0.20066 0.77978 0.6014 0.0
H1430 H 0.20642 0.65394 0.66882 0.0
H1431 H 0.26785 0.78493 0.63891 0.0
H1432 H 0.17793 0.72418 0.61009 0.0
H1433 H 0.1435 0.71716 0.63148 0.0
C1434 C 0.14102 0.68809 0.65156 0.0
C1435 C 0.15891 0.6721 0.66269 0.0
C1436 C 0.19811 0.73701 0.6162 0.0
C1437 C 0.19106 0.69953 0.63844 0.0
C1438 C 0.21098 0.76853 0.61128 0.0
C1439 C 0.23491 0.78737 0.61996 0.0
C1440 C 0.2097 0.7245 0.62981 0.0
C1441 C 0.24892 0.77132 0.63217 0.0
C1442 C 0.15713 0.70185 0.63927 0.0
C1443 C 0.1921 0.66688 0.66051 0.0
N1444 N 0.23558 0.74098 0.63699 0.0
N1445 N 0.2073 0.68138 0.64883 0.0
H1446 H 0.12014 0.54164 0.40182 0.0
H1447 H 0.99329 0.60287 0.35772 0.0
H1448 H 1.02733 0.59124 0.41154 0.0
H1449 H 0.0659 0.52311 0.34561 0.0
H1450 H 1.03509 0.64378 0.36806 0.0
H1451 H 0.12551 0.57624 0.37974 0.0
C1452 C 0.1009 0.55998 0.39955 0.0
C1453 C 0.07189 0.56113 0.40799 0.0
C1454 C 0.04234 0.61802 0.3624 0.0
C1455 C 0.07841 0.60118 0.38255 0.0
C1456 C 1.01827 0.59455 0.35656 0.0
C1457 C 1.02608 0.55828 0.35254 0.0
C1458 C 0.07212 0.60262 0.36589 0.0
C1459 C 0.05867 0.5498 0.35021 0.0
C1460 C 0.10449 0.58053 0.38705 0.0
C1461 C 0.04926 0.58758 0.40493 0.0
N1462 N 0.08115 0.57207 0.35719 0.0
N1463 N 0.05262 0.60586 0.39223 0.0
H1464 H 0.48427 0.85928 0.41464 0.0
H1465 H 0.33345 0.73431 0.39017 0.0
H1466 H 0.38511 0.89399 0.41751 0.0
H1467 H 0.43195 0.69694 0.3867 0.0
H1468 H 0.35252 0.79276 0.40102 0.0
H1469 H 0.46653 0.80059 0.40274 0.0
C1470 C 0.45892 0.85496 0.41213 0.0
C1471 C 0.43599 0.88112 0.41694 0.0
C1472 C 0.37001 0.77168 0.39809 0.0
C1473 C 0.41553 0.81432 0.40417 0.0
C1474 C 0.35906 0.73816 0.39214 0.0
C1475 C 0.38119 0.71098 0.38751 0.0
C1476 C 0.40331 0.77803 0.3993 0.0
C1477 C 0.41411 0.71723 0.39023 0.0
C1478 C 0.44873 0.82133 0.40569 0.0
C1479 C 0.40339 0.87426 0.41388 0.0
N1480 N 0.42429 0.75044 0.39575 0.0
N1481 N 0.39406 0.84129 0.40786 0.0
H1482 H 0.06407 0.5379 0.20081 0.0
H1483 H 0.11901 0.51529 0.14367 0.0
H1484 H 0.99202 0.45621 0.19138 0.0
H1485 H 1.02131 0.47747 0.13672 0.0
H1486 H 0.12369 0.47967 0.16554 0.0
H1487 H 0.10466 0.49612 0.18995 0.0
C1488 C 0.05692 0.51066 0.19697 0.0
C1489 C 1.02432 0.50167 0.19519 0.0
C1490 C 0.10144 0.47862 0.15906 0.0
C1491 C 0.06906 0.457 0.18085 0.0
C1492 C 0.09849 0.49944 0.14659 0.0
C1493 C 0.0688 0.50161 0.13888 0.0
C1494 C 0.07407 0.46113 0.16426 0.0
C1495 C 0.04411 0.47834 0.14271 0.0
C1496 C 0.08009 0.48658 0.19059 0.0
C1497 C 1.01678 0.46533 0.19126 0.0
N1498 N 0.04704 0.45982 0.15534 0.0
N1499 N 0.03944 0.44361 0.18406 0.0
H1500 H 0.11026 0.38323 0.89725 0.0
H1501 H 0.26925 0.29606 0.92107 0.0
H1502 H 0.20433 0.40489 0.87921 0.0
H1503 H 0.17711 0.27931 0.94203 0.0
H1504 H 0.24956 0.35362 0.91316 0.0
H1505 H 0.13612 0.36297 0.92034 0.0
C1506 C 0.13626 0.38433 0.89834 0.0
C1507 C 0.15547 0.39384 0.88621 0.0
C1508 C 0.23381 0.33776 0.91983 0.0
C1509 C 0.18505 0.37134 0.91217 0.0
C1510 C 0.24516 0.30496 0.92432 0.0
C1511 C 0.22413 0.28228 0.93145 0.0
C1512 C 0.20112 0.34706 0.92225 0.0
C1513 C 0.19345 0.29531 0.93583 0.0
C1514 C 0.15107 0.37308 0.91149 0.0
C1515 C 0.18892 0.39613 0.88817 0.0
N1516 N 0.18247 0.32641 0.93078 0.0
N1517 N 0.20274 0.38427 0.90078 0.0
H1518 H 0.43221 0.50212 0.63715 0.0
H1519 H 0.57029 0.4269 0.68772 0.0
H1520 H 0.44222 0.39014 0.64555 0.0
H1521 H 0.56977 0.53147 0.66973 0.0
H1522 H 0.51414 0.41865 0.68006 0.0
H1523 H 0.47141 0.5182 0.65731 0.0
C1524 C 0.44228 0.48101 0.64354 0.0
C1525 C 0.43492 0.44473 0.63955 0.0
C1526 C 0.52618 0.44362 0.67802 0.0
C1527 C 0.48011 0.46271 0.66222 0.0
C1528 C 0.55835 0.44823 0.68221 0.0
C1529 C 0.57508 0.47939 0.67877 0.0
C1530 C 0.5107 0.47038 0.67038 0.0
C1531 C 0.55795 0.50682 0.67234 0.0
C1532 C 0.46459 0.49018 0.65501 0.0
C1533 C 0.44782 0.41836 0.64825 0.0
N1534 N 0.52679 0.5014 0.66809 0.0
N1535 N 0.4706 0.4278 0.659 0.0
H1536 H 0.1746 0.25727 0.33795 0.0
H1537 H 0.9835 0.3035 0.33248 0.0
H1538 H 0.10039 0.17736 0.34088 0.0
H1539 H 0.05476 0.38608 0.3426 0.0
H1540 H 1.02614 0.25754 0.33255 0.0
H1541 H 0.13251 0.30388 0.33673 0.0
C1542 C 0.14955 0.24917 0.3381 0.0
C1543 C 0.14168 0.21251 0.33936 0.0
C1544 C 1.03267 0.28568 0.33467 0.0
C1545 C 0.09225 0.26707 0.33796 0.0
C1546 C 1.00811 0.3123 0.33454 0.0
C1547 C 1.01488 0.34953 0.33743 0.0
C1548 C 0.06512 0.29554 0.33751 0.0
C1549 C 0.04777 0.35818 0.34021 0.0
C1550 C 0.12531 0.27614 0.33751 0.0
C1551 C 0.10825 0.20475 0.33978 0.0
N1552 N 0.07127 0.33179 0.3401 0.0
N1553 N 0.08523 0.23133 0.339 0.0
H1554 H 0.98166 0.7266 0.58009 0.0
H1555 H 0.15854 0.8136 0.59432 0.0
H1556 H 0.06183 0.67165 0.59908 0.0
H1557 H 0.0773 0.8795 0.5842 0.0
H1558 H 0.12374 0.76096 0.59354 0.0
H1559 H 1.01553 0.78084 0.57913 0.0
C1560 C 1.00644 0.72561 0.58393 0.0
C1561 C 1.01862 0.69376 0.5896 0.0
C1562 C 0.11324 0.78672 0.59139 0.0
C1563 C 0.05805 0.75684 0.58852 0.0
C1564 C 0.13333 0.81718 0.59182 0.0
C1565 C 0.1214 0.85181 0.58942 0.0
C1566 C 0.08013 0.7898 0.58838 0.0
C1567 C 0.0881 0.85375 0.58608 0.0
C1568 C 1.0258 0.75691 0.58344 0.0
C1569 C 0.05102 0.69501 0.59454 0.0
N1570 N 0.06879 0.82342 0.58569 0.0
N1571 N 0.06931 0.72557 0.59383 0.0
H1572 H 0.54953 0.88935 0.84295 0.0
H1573 H 0.59524 0.67643 0.83961 0.0
H1574 H 0.47973 0.80545 0.83235 0.0
H1575 H 0.66742 0.75921 0.83857 0.0
H1576 H 0.55304 0.72271 0.83816 0.0
H1577 H 0.59225 0.84308 0.8426 0.0
C1578 C 0.54298 0.86133 0.84041 0.0
C1579 C 0.51033 0.85207 0.83751 0.0
C1580 C 0.57807 0.7309 0.83813 0.0
C1581 C 0.56024 0.79761 0.83745 0.0
C1582 C 0.60247 0.7042 0.83891 0.0
C1583 C 0.63564 0.71312 0.839 0.0
C1584 C 0.58618 0.76771 0.83773 0.0
C1585 C 0.64259 0.75027 0.83832 0.0
C1586 C 0.56765 0.83466 0.84025 0.0
C1587 C 0.50418 0.81465 0.8345 0.0
N1588 N 0.61846 0.77574 0.83783 0.0
N1589 N 0.52846 0.78928 0.83465 0.0
H1590 H 0.5626 0.16856 0.09928 0.0
H1591 H 0.58028 0.37939 0.08329 0.0
H1592 H 0.4844 0.2271 0.08049 0.0
H1593 H 0.65893 0.31111 0.09497 0.0
H1594 H 0.54422 0.32608 0.08221 0.0
H1595 H 0.59715 0.22166 0.09808 0.0
C1596 C 0.5526 0.19242 0.09479 0.0
C1597 C 0.52023 0.19263 0.08989 0.0
C1598 C 0.56946 0.3228 0.08491 0.0
C1599 C 0.56032 0.25505 0.08866 0.0
C1600 C 0.5902 0.35337 0.08545 0.0
C1601 C 0.62315 0.35039 0.08923 0.0
C1602 C 0.58144 0.28869 0.08828 0.0
C1603 C 0.63398 0.31547 0.09206 0.0
C1604 C 0.57249 0.22305 0.09412 0.0
C1605 C 0.50911 0.22508 0.0843 0.0
N1606 N 0.61348 0.28663 0.09162 0.0
N1607 N 0.52886 0.25471 0.08392 0.0
H1608 H 1.03441 0.6887 0.19019 0.0
H1609 H 0.15424 0.83245 0.23049 0.0
H1610 H 1.00481 0.73565 0.23463 0.0
H1611 H 0.11292 0.85453 0.18712 0.0
H1612 H 0.11262 0.78532 0.23288 0.0
H1613 H 0.07573 0.73613 0.18927 0.0
C1614 C 1.03685 0.70843 0.19994 0.0
C1615 C 1.01569 0.70726 0.21259 0.0
C1616 C 0.1126 0.80056 0.22286 0.0
C1617 C 0.06447 0.7624 0.21166 0.0
C1618 C 0.13653 0.82763 0.22146 0.0
C1619 C 0.13732 0.8485 0.20866 0.0
C1620 C 0.0897 0.79265 0.21109 0.0
C1621 C 0.11342 0.84001 0.19734 0.0
C1622 C 0.0605 0.73586 0.19933 0.0
C1623 C 1.02031 0.73473 0.22464 0.0
N1624 N 0.09132 0.81281 0.1987 0.0
N1625 N 0.04415 0.76051 0.22397 0.0
H1626 H 0.4774 0.82761 0.46788 0.0
H1627 H 0.65806 0.74587 0.46427 0.0
H1628 H 0.56192 0.88808 0.45735 0.0
H1629 H 0.57512 0.67628 0.46117 0.0
H1630 H 0.62254 0.79843 0.4655 0.0
H1631 H 0.51139 0.77334 0.46898 0.0
C1632 C 0.50311 0.82978 0.466 0.0
C1633 C 0.51655 0.86309 0.46261 0.0
C1634 C 0.61185 0.7718 0.46466 0.0
C1635 C 0.55603 0.80024 0.46388 0.0
C1636 C 0.63226 0.74151 0.46394 0.0
C1637 C 0.61997 0.70608 0.46239 0.0
C1638 C 0.57818 0.76747 0.46408 0.0
C1639 C 0.58603 0.70276 0.46243 0.0
C1640 C 0.52254 0.79852 0.46653 0.0
C1641 C 0.55015 0.86346 0.46007 0.0
N1642 N 0.56646 0.73287 0.46318 0.0
N1643 N 0.56844 0.83294 0.46082 0.0
H1644 H 0.61132 0.36044 0.68875 0.0
H1645 H 0.50467 0.23363 0.73465 0.0
H1646 H 0.65777 0.3257 0.72899 0.0
H1647 H 0.53665 0.1898 0.69011 0.0
H1648 H 0.54735 0.28019 0.73444 0.0
H1649 H 0.57097 0.31224 0.6903 0.0
C1650 C 0.61292 0.34318 0.69811 0.0
C1651 C 0.63842 0.34804 0.70882 0.0
C1652 C 0.5452 0.26021 0.72476 0.0
C1653 C 0.59079 0.29207 0.71083 0.0
C1654 C 0.52071 0.23338 0.72486 0.0
C1655 C 0.51687 0.20665 0.71251 0.0
C1656 C 0.56568 0.26189 0.71192 0.0
C1657 C 0.53859 0.20893 0.70009 0.0
C1658 C 0.58977 0.3153 0.6989 0.0
C1659 C 0.63883 0.32367 0.72045 0.0
N1660 N 0.5613 0.23599 0.70002 0.0
N1661 N 0.61541 0.29744 0.72126 0.0
H1662 H 0.07479 0.18195 0.96154 0.0
H1663 H 0.06203 0.39571 0.95219 0.0
H1664 H 0.1567 0.25299 0.96293 0.0
H1665 H 0.98009 0.33562 0.96635 0.0
H1666 H 0.09602 0.34222 0.95422 0.0
H1667 H 0.0389 0.2354 0.96215 0.0
C1668 C 0.08535 0.20863 0.96219 0.0
C1669 C 0.11919 0.21251 0.962 0.0
C1670 C 0.07064 0.34064 0.95698 0.0
C1671 C 0.07789 0.27436 0.96224 0.0
C1672 C 0.05108 0.37142 0.95582 0.0
C1673 C 1.01786 0.37087 0.95922 0.0
C1674 C 0.05721 0.30815 0.96132 0.0
C1675 C 1.00548 0.33791 0.96374 0.0
C1676 C 0.06477 0.23929 0.96239 0.0
C1677 C 0.13099 0.24822 0.96266 0.0
N1678 N 1.02491 0.30812 0.96453 0.0
N1679 N 0.11069 0.27724 0.96257 0.0
H1680 H 1.02775 0.67385 0.70695 0.0
H1681 H 0.98387 0.88663 0.70767 0.0
H1682 H 0.09831 0.75729 0.71684 0.0
H1683 H 0.91105 0.80503 0.7103 0.0
H1684 H 1.02573 0.84019 0.70969 0.0
H1685 H 0.98547 0.72048 0.70686 0.0
C1686 C 1.03455 0.70186 0.70926 0.0
C1687 C 0.06728 0.71088 0.71209 0.0
C1688 C 1.00063 0.83232 0.70994 0.0
C1689 C 1.0179 0.76575 0.7116 0.0
C1690 C 0.97644 0.85909 0.70882 0.0
C1691 C 0.94321 0.85054 0.70899 0.0
C1692 C 0.99223 0.79578 0.71096 0.0
C1693 C 0.93596 0.81368 0.7103 0.0
C1694 C 1.01014 0.72873 0.70916 0.0
C1695 C 0.07378 0.74829 0.71478 0.0
N1696 N 0.95989 0.78811 0.7111 0.0
N1697 N 0.04974 0.77387 0.71435 0.0
H1698 H 0.92698 0.24087 0.43902 0.0
H1699 H 0.08861 0.33956 0.47187 0.0
H1700 H 0.98676 0.19165 0.47176 0.0
H1701 H 1.01754 0.38777 0.44403 0.0
H1702 H 0.05415 0.28553 0.47221 0.0
H1703 H 0.96156 0.29334 0.44084 0.0
C1704 C 0.94715 0.24108 0.44686 0.0
C1705 C 0.95294 0.21135 0.45554 0.0
C1706 C 0.046 0.308 0.46611 0.0
C1707 C 0.99452 0.27298 0.45735 0.0
C1708 C 0.0657 0.33912 0.46593 0.0
C1709 C 0.05622 0.36897 0.45797 0.0
C1710 C 1.01641 0.30612 0.45815 0.0
C1711 C 1.02619 0.36601 0.45042 0.0
C1712 C 0.96729 0.27142 0.44778 0.0
C1713 C 0.98074 0.21365 0.46493 0.0
N1714 N 1.00776 0.33552 0.45066 0.0
N1715 N 1.00035 0.24375 0.46558 0.0
H1716 H 0.52067 0.17503 0.20645 0.0
H1717 H 0.47523 0.38768 0.20969 0.0
H1718 H 0.58966 0.25889 0.21866 0.0
H1719 H 0.40272 0.3051 0.21021 0.0
H1720 H 0.51718 0.34134 0.21163 0.0
H1721 H 0.47791 0.22123 0.20647 0.0
C1722 C 0.527 0.20301 0.20931 0.0
C1723 C 0.5594 0.21233 0.21276 0.0
C1724 C 0.49212 0.33323 0.21144 0.0
C1725 C 0.50961 0.26663 0.21239 0.0
C1726 C 0.46789 0.35994 0.21038 0.0
C1727 C 0.43473 0.35105 0.21 0.0
C1728 C 0.48383 0.29648 0.21183 0.0
C1729 C 0.42757 0.31397 0.21068 0.0
C1730 C 0.50234 0.22962 0.20926 0.0
C1731 C 0.56536 0.24967 0.21612 0.0
N1732 N 0.45156 0.28847 0.21144 0.0
N1733 N 0.54114 0.27498 0.21573 0.0
H1734 H 0.59193 0.84057 0.97259 0.0
H1735 H 0.42756 0.74419 0.94173 0.0
H1736 H 0.5195 0.89011 0.94595 0.0
H1737 H 0.49131 0.69169 0.97178 0.0
H1738 H 0.46209 0.79671 0.94358 0.0
H1739 H 0.5575 0.78652 0.97291 0.0
C1740 C 0.56872 0.84042 0.96692 0.0
C1741 C 0.55886 0.87066 0.9593 0.0
C1742 C 0.46874 0.77403 0.94991 0.0
C1743 C 0.51904 0.80778 0.95948 0.0
C1744 C 0.44864 0.74365 0.94898 0.0
C1745 C 0.45559 0.71293 0.95687 0.0
C1746 C 0.49707 0.77468 0.95872 0.0
C1747 C 0.48438 0.71443 0.96556 0.0
C1748 C 0.54905 0.80928 0.96708 0.0
C1749 C 0.52846 0.86805 0.95207 0.0
N1750 N 0.50392 0.7446 0.96624 0.0
N1751 N 0.51002 0.83755 0.95232 0.0
H1752 H 0.09539 0.30671 0.8316 0.0
H1753 H 0.90495 0.25884 0.83857 0.0
H1754 H 1.02338 0.38836 0.84228 0.0
H1755 H 0.97977 0.17898 0.84006 0.0
H1756 H 0.9466 0.30568 0.83717 0.0
H1757 H 0.0533 0.26021 0.83184 0.0
C1758 C 0.07072 0.31519 0.83381 0.0
C1759 C 0.06357 0.35233 0.8368 0.0
C1760 C 0.95405 0.27792 0.83768 0.0
C1761 C 1.014 0.29771 0.83711 0.0
C1762 C 0.93005 0.2508 0.83838 0.0
C1763 C 0.93819 0.21407 0.83928 0.0
C1764 C 0.98717 0.26897 0.83767 0.0
C1765 C 0.97169 0.20641 0.83924 0.0
C1766 C 0.04649 0.28826 0.83404 0.0
C1767 C 1.03065 0.36055 0.83979 0.0
N1768 N 0.9945 0.23318 0.83839 0.0
N1769 N 1.00749 0.33388 0.8398 0.0
H1770 H 0.41526 0.30318 0.5941 0.0
H1771 H 0.5941 0.22142 0.5796 0.0
H1772 H 0.49471 0.37053 0.58263 0.0
H1773 H 0.51572 0.16456 0.5991 0.0
H1774 H 0.55863 0.27429 0.57828 0.0
H1775 H 0.45136 0.25161 0.59342 0.0
C1776 C 0.44032 0.30734 0.59129 0.0
C1777 C 0.45149 0.34203 0.58845 0.0
C1778 C 0.54911 0.25022 0.58278 0.0
C1779 C 0.49405 0.28131 0.58765 0.0
C1780 C 0.56938 0.21973 0.58348 0.0
C1781 C 0.55816 0.18784 0.58942 0.0
C1782 C 0.51694 0.2492 0.58792 0.0
C1783 C 0.52578 0.18807 0.59438 0.0
C1784 C 0.46113 0.27747 0.59095 0.0
C1785 C 0.48458 0.34467 0.58483 0.0
N1786 N 0.5066 0.21787 0.59349 0.0
N1787 N 0.50454 0.31494 0.58457 0.0
H1788 H 0.51872 0.89053 0.34007 0.0
H1789 H 0.47684 0.67714 0.33937 0.0
H1790 H 0.59006 0.80742 0.33084 0.0
H1791 H 0.40329 0.75843 0.33768 0.0
H1792 H 0.51824 0.72399 0.33733 0.0
H1793 H 0.4768 0.84356 0.34028 0.0
C1794 C 0.52576 0.86254 0.33792 0.0
C1795 C 0.55857 0.85367 0.33525 0.0
C1796 C 0.49307 0.7317 0.33729 0.0
C1797 C 0.50968 0.79848 0.33585 0.0
C1798 C 0.46916 0.70468 0.33841 0.0
C1799 C 0.43587 0.71305 0.33852 0.0
C1800 C 0.48432 0.76824 0.33652 0.0
C1801 C 0.42827 0.74993 0.33747 0.0
C1802 C 0.50157 0.83547 0.33809 0.0
C1803 C 0.56542 0.81628 0.33277 0.0
N1804 N 0.45194 0.77572 0.33663 0.0
N1805 N 0.5416 0.79056 0.33324 0.0
H1806 H 0.91566 0.81152 0.09624 0.0
H1807 H 0.09286 0.72714 0.07925 0.0
H1808 H 0.9951 0.87784 0.08388 0.0
H1809 H 1.01434 0.67047 0.09873 0.0
H1810 H 0.05801 0.78076 0.07869 0.0
H1811 H 0.9511 0.75934 0.09487 0.0
C1812 C 0.94058 0.81534 0.0931 0.0
C1813 C 0.95192 0.84994 0.09021 0.0
C1814 C 0.04832 0.75658 0.08301 0.0
C1815 C 0.99377 0.78844 0.08859 0.0
C1816 C 0.06824 0.72565 0.08328 0.0
C1817 C 0.0568 0.69356 0.08898 0.0
C1818 C 1.01629 0.75585 0.08838 0.0
C1819 C 1.02457 0.6941 0.09416 0.0
C1820 C 0.96103 0.78511 0.09236 0.0
C1821 C 0.98482 0.8521 0.08615 0.0
N1822 N 1.00574 0.72433 0.0937 0.0
N1823 N 1.00444 0.82201 0.0855 0.0
H1824 H 0.30883 0.28752 0.31863 0.0
H1825 H 0.26678 0.2737 0.22872 0.0
H1826 H 0.26775 0.19307 0.29413 0.0
H1827 H 0.30689 0.36842 0.25342 0.0
H1828 H 0.26587 0.24389 0.25269 0.0
H1829 H 0.30933 0.31734 0.29468 0.0
C1830 C 0.30025 0.27295 0.30819 0.0
C1831 C 0.28798 0.23791 0.3084 0.0
C1832 C 0.2748 0.27125 0.25286 0.0
C1833 C 0.28799 0.27189 0.28103 0.0
C1834 C 0.27504 0.28833 0.2392 0.0
C1835 C 0.28721 0.32342 0.23905 0.0
C1836 C 0.28675 0.28948 0.26643 0.0
C1837 C 0.2979 0.34108 0.25296 0.0
C1838 C 0.30024 0.29005 0.29455 0.0
C1839 C 0.27685 0.22036 0.29455 0.0
N1840 N 0.29754 0.3239 0.26605 0.0
N1841 N 0.27702 0.23755 0.28146 0.0
H1842 H 0.96709 0.09385 0.50568 0.0
H1843 H 0.10383 0.97169 0.54237 0.0
H1844 H 1.00681 0.99707 0.48231 0.0
H1845 H 0.0636 0.06793 0.56597 0.0
H1846 H 0.06863 0.98046 0.52045 0.0
H1847 H 1.00237 0.08522 0.52762 0.0
C1848 C 0.98314 0.07085 0.50502 0.0
C1849 C 0.98338 0.0462 0.49185 0.0
C1850 C 0.06753 0.9997 0.53043 0.0
C1851 C 1.02435 0.03593 0.51739 0.0
C1852 C 0.08771 0.99461 0.54309 0.0
C1853 C 0.08729 1.01903 0.55634 0.0
C1854 C 0.04637 1.02948 0.53079 0.0
C1855 C 0.06556 0.04837 0.55617 0.0
C1856 C 1.00334 0.06583 0.51768 0.0
C1857 C 1.00498 1.01677 0.49207 0.0
N1858 N 0.04625 0.05266 0.54375 0.0
N1859 N 1.02432 1.01257 0.50449 0.0
H1860 H 0.30886 0.77805 0.81951 0.0
H1861 H 0.25131 0.79583 0.73321 0.0
H1862 H 0.33959 0.86336 0.79234 0.0
H1863 H 0.21955 0.71115 0.76047 0.0
H1864 H 0.28 0.82385 0.75547 0.0
H1865 H 0.27252 0.75612 0.79886 0.0
C1866 C 0.30793 0.79226 0.80922 0.0
C1867 C 0.32765 0.8224 0.80762 0.0
C1868 C 0.26657 0.79929 0.75665 0.0
C1869 C 0.28583 0.79744 0.78387 0.0
C1870 C 0.25027 0.78318 0.74391 0.0
C1871 C 0.23327 0.75082 0.7449 0.0
C1872 C 0.26611 0.7829 0.77054 0.0
C1873 C 0.23223 0.7361 0.75917 0.0
C1874 C 0.28702 0.77979 0.79744 0.0
C1875 C 0.32482 0.84014 0.79413 0.0
N1876 N 0.2487 0.75205 0.77138 0.0
N1877 N 0.30456 0.82721 0.78273 0.0
H1878 H 0.45885 0.08258 0.04189 0.0
H1879 H 0.61908 0.98213 1.0074 0.0
H1880 H 0.52818 1.03105 0.06961 0.0
H1881 H 0.54926 0.03256 0.97956 0.0
H1882 H 0.58678 1.00068 0.03026 0.0
H1883 H 0.4911 0.06404 1.01901 0.0
C1884 C 0.48057 0.06694 0.0432 0.0
C1885 C 0.49048 0.05831 0.05785 0.0
C1886 C 0.57859 1.00792 1.01917 0.0
C1887 C 0.52823 0.03739 0.03147 0.0
C1888 C 0.59724 0.99754 1.00606 0.0
C1889 C 0.58722 1.00585 0.99138 0.0
C1890 C 0.54941 1.0268 1.01774 0.0
C1891 C 0.55828 1.02557 0.99054 0.0
C1892 C 0.49919 0.05655 0.03008 0.0
C1893 C 0.51925 0.03829 0.05865 0.0
N1894 N 0.54052 0.03518 1.00343 0.0
N1895 N 0.537 1.02872 0.04576 0.0
H1896 H 0.23855 0.74863 0.31176 0.0
H1897 H 0.33398 0.82223 0.24082 0.0
H1898 H 0.3422 0.75405 0.30876 0.0
H1899 H 0.23026 0.82047 0.24441 0.0
H1900 H 0.33754 0.79647 0.26567 0.0
H1901 H 0.23473 0.7764 0.28733 0.0
C1902 C 0.26043 0.75601 0.30604 0.0
C1903 C 0.29069 0.74862 0.31216 0.0
C1904 C 0.31399 0.80179 0.26101 0.0
C1905 C 0.28668 0.77983 0.28423 0.0
C1906 C 0.31201 0.81621 0.24679 0.0
C1907 C 0.28184 0.82383 0.24063 0.0
C1908 C 0.28558 0.7948 0.26906 0.0
C1909 C 0.25405 0.81573 0.24888 0.0
C1910 C 0.25831 0.77158 0.29206 0.0
C1911 C 0.31838 0.75852 0.30426 0.0
N1912 N 0.25659 0.80172 0.26266 0.0
N1913 N 0.31572 0.77343 0.29069 0.0
H1914 H 0.55135 1.02366 0.57094 0.0
H1915 H 0.52522 0.03218 0.48008 0.0
H1916 H 0.61597 0.07868 0.5421 0.0
H1917 H 0.46147 0.97434 0.5083 0.0
H1918 H 0.5575 0.05059 0.50275 0.0
H1919 H 0.51845 1.00524 0.5484 0.0
C1920 C 0.55898 0.03151 0.55985 0.0
C1921 C 0.58684 0.05272 0.55855 0.0
C1922 C 0.53635 0.0341 0.50407 0.0
C1923 C 0.54844 0.03202 0.53246 0.0
C1924 C 0.51762 1.0237 0.49108 0.0
C1925 C 0.49023 1.00167 0.49215 0.0
C1926 C 0.52799 1.02245 0.51843 0.0
C1927 C 0.48209 0.99152 0.50683 0.0
C1928 C 0.53993 1.02112 0.54695 0.0
C1929 C 0.595 0.06215 0.54377 0.0
N1930 N 0.50088 1.00181 0.51931 0.0
N1931 N 0.57592 0.05193 0.53141 0.0
H1932 H 0.3502 0.20276 0.75929 0.0
H1933 H 0.22861 0.35953 0.79089 0.0
H1934 H 0.32367 0.29278 0.73385 0.0
H1935 H 0.25809 0.27195 0.81715 0.0
H1936 H 0.26306 0.33532 0.76982 0.0
H1937 H 0.31515 0.22649 0.78028 0.0
C1938 C 0.33679 0.22729 0.75803 0.0
C1939 C 0.34005 0.24586 0.74478 0.0
C1940 C 0.26202 0.32142 0.78021 0.0
C1941 C 0.30017 0.27351 0.76888 0.0
C1942 C 0.24251 0.33543 0.79232 0.0
C1943 C 0.24028 0.31776 0.80586 0.0
C1944 C 0.27951 0.28947 0.78161 0.0
C1945 C 0.25861 0.28623 0.80688 0.0
C1946 C 0.31696 0.24102 0.77009 0.0
C1947 C 0.32232 0.27784 0.74393 0.0
N1948 N 0.27736 0.27311 0.79493 0.0
N1949 N 0.30324 0.29065 0.7558 0.0
H1950 H 0.06409 0.99722 0.98262 0.0
H1951 H 1.01306 0.06486 0.06915 0.0
H1952 H 0.1071 0.08923 1.00811 0.0
H1953 H 0.96905 0.97362 0.04355 0.0
H1954 H 0.04733 0.07383 0.04712 0.0
H1955 H 1.02979 0.98807 1.00465 0.0
C1956 C 0.06665 1.01553 0.99281 0.0
C1957 C 0.08912 0.0441 0.99325 0.0
C1958 C 1.03019 0.05183 0.04628 0.0
C1959 C 0.04885 0.03363 1.01892 0.0
C1960 C 1.01026 0.04667 0.05894 0.0
C1961 C 0.98749 1.0184 0.05846 0.0
C1962 C 1.0278 1.02865 0.03278 0.0
C1963 C 0.98606 0.99566 0.04472 0.0
C1964 C 0.04672 1.01027 1.00546 0.0
C1965 C 0.0903 0.06698 1.00696 0.0
N1966 N 1.00573 1.00131 0.03254 0.0
N1967 N 0.07066 0.06121 1.01913 0.0
H1968 H 0.76399 0.69529 0.79502 0.0
H1969 H 0.81732 0.87009 0.75419 0.0
H1970 H 0.80791 0.78846 0.8192 0.0
H1971 H 0.77132 0.7777 0.73041 0.0
H1972 H 0.81432 0.8407 0.77804 0.0
H1973 H 0.76748 0.72466 0.77121 0.0
C1974 C 0.77435 0.72202 0.79532 0.0
C1975 C 0.78533 0.73967 0.80916 0.0
C1976 C 0.80483 0.82683 0.76763 0.0
C1977 C 0.78959 0.77344 0.78184 0.0
C1978 C 0.80661 0.84354 0.75398 0.0
C1979 C 0.79483 0.82613 0.74024 0.0
C1980 C 0.79116 0.79237 0.76759 0.0
C1981 C 0.78054 0.79213 0.74073 0.0
C1982 C 0.77641 0.73874 0.78169 0.0
C1983 C 0.79927 0.77389 0.80878 0.0
N1984 N 0.77926 0.77626 0.75418 0.0
N1985 N 0.80084 0.78978 0.79534 0.0
H1986 H 0.84951 0.358 0.29112 0.0
H1987 H 0.72635 0.20412 0.25853 0.0
H1988 H 0.82022 0.26882 0.31646 0.0
H1989 H 0.75422 0.29459 0.23367 0.0
H1990 H 0.76168 0.22644 0.2796 0.0
H1991 H 0.81471 0.3352 0.26997 0.0
C1992 C 0.83559 0.33383 0.29233 0.0
C1993 C 0.83796 0.31532 0.30564 0.0
C1994 C 0.7601 0.24137 0.26952 0.0
C1995 C 0.79829 0.28867 0.28129 0.0
C1996 C 0.74009 0.22846 0.25741 0.0
C1997 C 0.73712 0.24755 0.24429 0.0
C1998 C 0.77737 0.27359 0.26851 0.0
C1999 C 0.7553 0.27925 0.24363 0.0
C2000 C 0.81587 0.32063 0.28017 0.0
C2001 C 0.81959 0.28375 0.30638 0.0
N2002 N 0.77455 0.29127 0.25555 0.0
N2003 N 0.80062 0.27144 0.29439 0.0
H2004 H 0.76664 0.37068 0.75456 0.0
H2005 H 0.80903 0.19226 0.79536 0.0
H2006 H 0.80716 0.27496 0.73072 0.0
H2007 H 0.76985 0.28829 0.81951 0.0
H2008 H 0.80754 0.2218 0.77153 0.0
H2009 H 0.76776 0.3412 0.77843 0.0
C2010 C 0.77583 0.3434 0.75436 0.0
C2011 C 0.78654 0.32507 0.7406 0.0
C2012 C 0.79918 0.23646 0.78201 0.0
C2013 C 0.78796 0.29115 0.76794 0.0
C2014 C 0.80006 0.21963 0.79563 0.0
C2015 C 0.78988 0.23804 0.80946 0.0
C2016 C 0.78802 0.27207 0.78216 0.0
C2017 C 0.7778 0.27314 0.80909 0.0
C2018 C 0.7765 0.32662 0.76801 0.0
C2019 C 0.79883 0.29009 0.74107 0.0
N2020 N 0.7774 0.28914 0.79565 0.0
N2021 N 0.79902 0.27416 0.75452 0.0
H2022 H 0.72452 0.85924 0.29101 0.0
H2023 H 0.84795 0.70291 0.26064 0.0
H2024 H 0.75409 0.77296 0.31798 0.0
H2025 H 0.82157 0.7924 0.23487 0.0
H2026 H 0.8121 0.72659 0.28139 0.0
H2027 H 0.75942 0.8346 0.27022 0.0
C2028 C 0.7385 0.83533 0.29266 0.0
C2029 C 0.73618 0.81822 0.30635 0.0
C2030 C 0.81413 0.741 0.27117 0.0
C2031 C 0.77602 0.78938 0.28236 0.0
C2032 C 0.83442 0.72731 0.25926 0.0
C2033 C 0.83799 0.74577 0.24599 0.0
C2034 C 0.79715 0.77333 0.2698 0.0
C2035 C 0.82005 0.77755 0.24496 0.0
C2036 C 0.75831 0.82106 0.2807 0.0
C2037 C 0.75466 0.78687 0.30761 0.0
N2038 N 0.80052 0.7903 0.25668 0.0
N2039 N 0.77371 0.77349 0.2958 0.0
H2040 H 0.56357 0.56645 0.06823 0.0
H2041 H 0.512 0.49836 0.98183 0.0
H2042 H 0.60644 0.47411 0.04281 0.0
H2043 H 0.46973 0.59144 1.00695 0.0
H2044 H 0.54614 0.48923 1.00388 0.0
H2045 H 0.5295 0.57581 0.04618 0.0
C2046 C 0.56618 0.54809 0.05806 0.0
C2047 C 0.58859 0.51938 0.05766 0.0
C2048 C 0.52942 0.51167 1.00462 0.0
C2049 C 0.54846 0.53013 0.03192 0.0
C2050 C 0.50955 0.51692 0.99195 0.0
C2051 C 0.48728 0.54575 0.99228 0.0
C2052 C 0.52748 0.53527 1.01802 0.0
C2053 C 0.48633 0.56895 1.0059 0.0
C2054 C 0.54635 0.55349 0.04538 0.0
C2055 C 0.58974 0.49649 0.04395 0.0
N2056 N 0.50591 0.56317 1.01811 0.0
N2057 N 0.57018 0.50239 0.03175 0.0
H2058 H 1.02918 0.52958 0.57005 0.0
H2059 H 0.04782 0.53218 0.47836 0.0
H2060 H 0.96084 0.58096 0.54178 0.0
H2061 H 0.11569 0.47945 0.50642 0.0
H2062 H 1.01648 0.55099 0.50139 0.0
H2063 H 0.06068 0.51064 0.54706 0.0
C2064 C 1.02046 0.53655 0.55901 0.0
C2065 C 0.99196 0.55686 0.558 0.0
C2066 C 0.03831 0.5355 0.50257 0.0
C2067 C 1.02869 0.53552 0.53135 0.0
C2068 C 0.05647 0.52487 0.48937 0.0
C2069 C 0.08479 0.50421 0.4903 0.0
C2070 C 0.04821 0.52547 0.51701 0.0
C2071 C 0.09428 0.49551 0.50502 0.0
C2072 C 0.0387 0.52585 0.54583 0.0
C2073 C 0.98238 0.56518 0.54324 0.0
N2074 N 0.07609 0.50602 0.51769 0.0
N2075 N 1.00066 0.55465 0.5306 0.0
H2076 H 0.04932 0.52939 0.06888 0.0
H2077 H 1.02609 0.53565 0.97767 0.0
H2078 H 0.1149 0.58446 0.04052 0.0
H2079 H 0.96008 0.48168 1.00622 0.0
H2080 H 0.05832 0.55422 1.00041 0.0
H2081 H 1.01715 0.51098 0.04612 0.0
C2082 C 0.0573 0.53728 0.05785 0.0
C2083 C 0.08521 0.55849 0.05676 0.0
C2084 C 1.03668 0.53854 1.00176 0.0
C2085 C 0.04767 0.53773 0.03038 0.0
C2086 C 1.01802 0.52805 0.98873 0.0
C2087 C 0.98997 0.50709 0.98989 0.0
C2088 C 1.02758 0.52801 1.01623 0.0
C2089 C 0.98123 0.49799 1.00465 0.0
C2090 C 0.03867 0.52689 0.04481 0.0
C2091 C 0.09385 0.56795 0.04203 0.0
N2092 N 0.99993 0.50832 1.01714 0.0
N2093 N 0.07518 0.55767 0.02951 0.0
H2094 H 0.46896 0.46426 0.54193 0.0
H2095 H 0.60931 0.58419 0.50724 0.0
H2096 H 0.51255 0.55653 0.567 0.0
H2097 H 0.56703 0.4908 0.48243 0.0
H2098 H 0.57384 0.57489 0.52899 0.0
H2099 H 0.50445 0.47346 0.52017 0.0
C2100 C 0.48591 0.48638 0.543 0.0
C2101 C 0.48723 0.50959 0.55659 0.0
C2102 C 0.57234 0.55639 0.51879 0.0
C2103 C 0.52837 0.52054 0.53127 0.0
C2104 C 0.59263 0.5618 0.50623 0.0
C2105 C 0.59167 0.53831 0.49273 0.0
C2106 C 0.55053 0.52726 0.51802 0.0
C2107 C 0.56935 0.50956 0.49248 0.0
C2108 C 0.50623 0.49173 0.53044 0.0
C2109 C 0.50992 0.53799 0.5569 0.0
N2110 N 0.54989 0.50496 0.50481 0.0
N2111 N 0.52935 0.54256 0.54456 0.0
H2112 H 0.24653 0.05443 0.38738 0.0
H2113 H 0.43014 0.04212 0.41933 0.0
H2114 H 0.32502 0.1146 0.36988 0.0
H2115 H 0.34962 0.99166 0.44004 0.0
H2116 H 0.39292 0.06768 0.40117 0.0
H2117 H 0.28371 1.03009 0.40586 0.0
C2118 C 0.27161 0.06244 0.38722 0.0
C2119 C 0.28208 0.08681 0.37664 0.0
C2120 C 0.38318 0.05126 0.40973 0.0
C2121 C 0.32587 0.05846 0.39847 0.0
C2122 C 0.40462 0.03662 0.42029 0.0
C2123 C 0.39357 1.01464 0.43168 0.0
C2124 C 0.34979 0.04395 0.41011 0.0
C2125 C 0.35982 1.00862 0.4318 0.0
C2126 C 0.29301 0.04849 0.39797 0.0
C2127 C 0.31528 0.09589 0.37751 0.0
N2128 N 0.33955 1.02283 0.42131 0.0
N2129 N 0.33559 0.08188 0.38804 0.0
H2130 H 0.32254 0.12969 0.68663 0.0
H2131 H 0.2896 0.97362 0.6178 0.0
H2132 H 0.38831 0.04378 0.67231 0.0
H2133 H 0.21569 0.05055 0.63198 0.0
H2134 H 0.32602 1.00284 0.63684 0.0
H2135 H 0.28364 0.10473 0.66701 0.0
C2136 C 0.32883 0.10538 0.6796 0.0
C2137 C 0.35919 0.08891 0.68156 0.0
C2138 C 0.30205 1.01392 0.6358 0.0
C2139 C 0.31428 0.06021 0.65842 0.0
C2140 C 0.28105 0.99729 0.62467 0.0
C2141 C 0.24917 1.0096 0.62276 0.0
C2142 C 0.29179 0.0436 0.64566 0.0
C2143 C 0.24004 0.04026 0.63253 0.0
C2144 C 0.3065 0.0912 0.66823 0.0
C2145 C 0.36549 0.05768 0.67162 0.0
N2146 N 0.26098 0.0559 0.64349 0.0
N2147 N 0.34367 0.04477 0.66071 0.0
H2148 H 0.28942 0.09598 0.93132 0.0
H2149 H 0.31842 0.9403 0.86201 0.0
H2150 H 0.21582 1.0178 0.91847 0.0
H2151 H 0.38756 1.0219 0.87714 0.0
H2152 H 0.28048 0.96608 0.88188 0.0
H2153 H 0.32517 0.06665 0.91194 0.0
C2154 C 0.28083 0.07205 0.92466 0.0
C2155 C 0.24929 0.05936 0.92701 0.0
C2156 C 0.30386 0.97852 0.88078 0.0
C2157 C 0.29094 1.02535 0.90377 0.0
C2158 C 0.32559 0.96395 0.86925 0.0
C2159 C 0.35663 0.97889 0.86749 0.0
C2160 C 0.31284 1.0085 0.89087 0.0
C2161 C 0.36416 1.00923 0.87769 0.0
C2162 C 0.30142 0.05536 0.91335 0.0
C2163 C 0.23997 1.02839 0.91753 0.0
N2164 N 0.34279 1.02266 0.88873 0.0
N2165 N 0.26045 1.01275 0.90637 0.0
H2166 H 0.31947 0.94286 0.17742 0.0
H2167 H 0.34394 0.07764 0.10937 0.0
H2168 H 0.24331 1.00979 0.16205 0.0
H2169 H 0.41991 1.01151 0.12535 0.0
H2170 H 0.30675 0.05241 0.12778 0.0
H2171 H 0.356 0.96728 0.15859 0.0
C2172 C 0.31029 0.96292 0.17025 0.0
C2173 C 0.27776 0.97415 0.17173 0.0
C2174 C 0.33151 0.04316 0.12724 0.0
C2175 C 0.32034 1.00246 0.14944 0.0
C2176 C 0.3529 0.05744 0.11652 0.0
C2177 C 0.38566 0.04692 0.11548 0.0
C2178 C 0.34243 1.01783 0.1373 0.0
C2179 C 0.39523 1.0209 0.12554 0.0
C2180 C 0.33134 0.97685 0.15933 0.0
C2181 C 0.26794 1.00014 0.16169 0.0
N2182 N 0.3741 1.00758 0.13585 0.0
N2183 N 0.2888 1.01311 0.15115 0.0
H2184 H 0.83717 1.01093 0.66263 0.0
H2185 H 0.65766 1.00899 0.62546 0.0
H2186 H 0.76039 0.94402 0.67735 0.0
H2187 H 0.73496 0.07332 0.60951 0.0
H2188 H 0.69455 0.98508 0.6441 0.0
H2189 H 0.80065 0.03414 0.64361 0.0
C2190 C 0.81256 1.00122 0.66207 0.0
C2191 C 0.80231 0.97534 0.67202 0.0
C2192 C 0.70372 1.00417 0.63648 0.0
C2193 C 0.75948 1.00218 0.64955 0.0
C2194 C 0.6825 1.01791 0.62567 0.0
C2195 C 0.69271 0.04335 0.61552 0.0
C2196 C 0.7361 1.01571 0.63754 0.0
C2197 C 0.72557 0.05353 0.61674 0.0
C2198 C 0.79158 1.01453 0.65101 0.0
C2199 C 0.76984 0.96402 0.67024 0.0
N2200 N 0.74571 0.03996 0.62744 0.0
N2201 N 0.74995 0.97734 0.65939 0.0
H2202 H 0.85524 1.01409 0.4165 0.0
H2203 H 0.67997 1.0254 0.3753 0.0
H2204 H 0.78186 0.0927 0.42942 0.0
H2205 H 0.74768 0.94109 0.36143 0.0
H2206 H 0.71809 0.04942 0.39489 0.0
H2207 H 0.81774 0.98528 0.39702 0.0
C2208 C 0.83107 1.02476 0.41565 0.0
C2209 C 0.82194 0.05584 0.42508 0.0
C2210 C 0.72494 1.02577 0.38755 0.0
C2211 C 0.7787 1.0234 0.40208 0.0
C2212 C 0.70302 1.01202 0.37614 0.0
C2213 C 0.71019 0.98107 0.36627 0.0
C2214 C 0.75497 1.00882 0.38951 0.0
C2215 C 0.74079 0.96519 0.36845 0.0
C2216 C 0.80968 1.00854 0.40428 0.0
C2217 C 0.79033 0.06873 0.42275 0.0
N2218 N 0.76175 0.97906 0.3797 0.0
N2219 N 0.77037 0.05282 0.41167 0.0
H2220 H 0.85889 0.05191 0.13083 0.0
H2221 H 0.68525 0.04461 0.17366 0.0
H2222 H 0.78577 0.97134 0.12081 0.0
H2223 H 0.75154 0.13177 0.18505 0.0
H2224 H 0.72334 1.01861 0.15456 0.0
H2225 H 0.82192 0.08317 0.15 0.0
C2226 C 0.83493 0.04119 0.13228 0.0
C2227 C 0.8257 1.00881 0.1238 0.0
C2228 C 0.72993 0.04333 0.16123 0.0
C2229 C 0.78312 0.04424 0.14634 0.0
C2230 C 0.70801 0.05828 0.17236 0.0
C2231 C 0.71477 0.0906 0.1814 0.0
C2232 C 0.75959 0.0604 0.15868 0.0
C2233 C 0.74501 0.10667 0.17867 0.0
C2234 C 0.81386 0.05887 0.14345 0.0
C2235 C 0.79437 0.99612 0.1268 0.0
N2236 N 0.76605 0.09158 0.16766 0.0
N2237 N 0.77473 1.01349 0.13764 0.0
H2238 H 0.65704 0.05394 0.92495 0.0
H2239 H 0.83519 0.05127 0.88598 0.0
H2240 H 0.73365 0.9857 0.93873 0.0
H2241 H 0.75797 0.11888 0.8722 0.0
H2242 H 0.79913 1.02741 0.90506 0.0
H2243 H 0.69346 0.07833 0.90619 0.0
C2244 C 0.68161 0.04418 0.9242 0.0
C2245 C 0.69174 1.01746 0.93376 0.0
C2246 C 0.78987 0.04733 0.89785 0.0
C2247 C 0.73466 0.04581 0.91168 0.0
C2248 C 0.81059 0.06102 0.88677 0.0
C2249 C 0.80008 0.08729 0.87706 0.0
C2250 C 0.75778 0.05972 0.89961 0.0
C2251 C 0.76762 0.0986 0.87911 0.0
C2252 C 0.70259 0.05823 0.91334 0.0
C2253 C 0.72433 1.00644 0.93197 0.0
N2254 N 0.74801 0.08497 0.89 0.0
N2255 N 0.74424 1.02038 0.92126 0.0
H2256 H 0.74123 0.55231 0.88544 0.0
H2257 H 0.91996 0.55393 0.92368 0.0
H2258 H 0.81807 0.62013 0.8715 0.0
H2259 H 0.84319 0.4865 0.93784 0.0
H2260 H 0.88337 0.57863 0.90505 0.0
H2261 H 0.77758 0.52828 0.90433 0.0
C2262 C 0.76581 0.56208 0.88616 0.0
C2263 C 0.7761 0.58847 0.87645 0.0
C2264 C 0.87425 0.55864 0.91226 0.0
C2265 C 0.81879 0.56064 0.89879 0.0
C2266 C 0.89533 0.54438 0.92302 0.0
C2267 C 0.88521 0.51778 0.93264 0.0
C2268 C 0.84207 0.54655 0.91075 0.0
C2269 C 0.85253 0.50711 0.93101 0.0
C2270 C 0.7867 0.54829 0.89713 0.0
C2271 C 0.80856 0.59978 0.87841 0.0
N2272 N 0.83252 0.52123 0.92039 0.0
N2273 N 0.82836 0.58601 0.8892 0.0
H2274 H 0.79035 0.47101 0.1195 0.0
H2275 H 0.82171 0.63031 0.18713 0.0
H2276 H 0.71658 0.54945 0.13202 0.0
H2277 H 0.88699 0.54285 0.17433 0.0
H2278 H 0.78333 0.60468 0.16739 0.0
H2279 H 0.82599 0.50076 0.13872 0.0
C2280 C 0.78166 0.49506 0.12606 0.0
C2281 C 0.75005 0.50761 0.12365 0.0
C2282 C 0.80596 0.59096 0.16898 0.0
C2283 C 0.79177 0.54232 0.14673 0.0
C2284 C 0.82797 0.60552 0.18042 0.0
C2285 C 0.85805 0.58883 0.18282 0.0
C2286 C 0.8138 0.55937 0.15957 0.0
C2287 C 0.86438 0.55698 0.17328 0.0
C2288 C 0.80222 0.51203 0.13729 0.0
C2289 C 0.74073 0.53887 0.133 0.0
N2290 N 0.84288 0.54372 0.1623 0.0
N2291 N 0.76125 0.55486 0.14406 0.0
H2292 H 0.82251 0.43548 0.36138 0.0
H2293 H 0.78929 0.59362 0.42917 0.0
H2294 H 0.88987 0.51938 0.376 0.0
H2295 H 0.71816 0.51195 0.41722 0.0
H2296 H 0.82584 0.5646 0.41006 0.0
H2297 H 0.7839 0.46115 0.38095 0.0
C2298 C 0.82913 0.45963 0.36843 0.0
C2299 C 0.85987 0.47526 0.36662 0.0
C2300 C 0.80246 0.5525 0.41161 0.0
C2301 C 0.81529 0.50476 0.38966 0.0
C2302 C 0.78141 0.56904 0.42275 0.0
C2303 C 0.75031 0.55528 0.42527 0.0
C2304 C 0.7929 0.52156 0.40237 0.0
C2305 C 0.74193 0.52344 0.41613 0.0
C2306 C 0.80702 0.47413 0.3798 0.0
C2307 C 0.8667 0.5062 0.37659 0.0
N2308 N 0.76284 0.50796 0.40513 0.0
N2309 N 0.84497 0.51958 0.38748 0.0
H2310 H 0.82108 0.44452 0.67832 0.0
H2311 H 0.84333 0.5712 0.60722 0.0
H2312 H 0.74337 0.50585 0.66075 0.0
H2313 H 0.92212 0.51612 0.62723 0.0
H2314 H 0.80632 0.54587 0.62568 0.0
H2315 H 0.85769 0.46899 0.65951 0.0
C2316 C 0.81155 0.46333 0.67066 0.0
C2317 C 0.77857 0.473 0.67152 0.0
C2318 C 0.83167 0.53901 0.62599 0.0
C2319 C 0.82122 0.50128 0.64924 0.0
C2320 C 0.85298 0.55334 0.61525 0.0
C2321 C 0.88642 0.54583 0.61524 0.0
C2322 C 0.84332 0.51663 0.6371 0.0
C2323 C 0.89681 0.52283 0.62643 0.0
C2324 C 0.83266 0.4773 0.65976 0.0
C2325 C 0.76835 0.49743 0.66087 0.0
N2326 N 0.87571 0.50934 0.6367 0.0
N2327 N 0.78923 0.51039 0.65035 0.0
H2328 H 0.2538 0.44346 0.17652 0.0
H2329 H 0.23191 0.57812 0.10832 0.0
H2330 H 0.3308 0.50947 0.16138 0.0
H2331 H 0.15597 0.51034 0.12308 0.0
H2332 H 0.26845 0.5529 0.12699 0.0
H2333 H 0.21805 0.46765 0.15732 0.0
C2334 C 0.26331 0.46327 0.16932 0.0
C2335 C 0.29583 0.4743 0.17095 0.0
C2336 C 0.24385 0.54329 0.12613 0.0
C2337 C 0.25422 0.50235 0.14828 0.0
C2338 C 0.22286 0.55754 0.11525 0.0
C2339 C 0.1903 0.54657 0.11383 0.0
C2340 C 0.23267 0.51758 0.13595 0.0
C2341 C 0.18052 0.5201 0.12362 0.0
C2342 C 0.24273 0.47705 0.15819 0.0
C2343 C 0.30615 0.49997 0.16087 0.0
N2344 N 0.20123 0.50685 0.1341 0.0
N2345 N 0.28573 0.51285 0.15015 0.0
H2346 H 0.36009 0.51483 0.91795 0.0
H2347 H 0.18571 0.52303 0.87582 0.0
H2348 H 0.28537 0.59229 0.9302 0.0
H2349 H 0.25443 0.43954 0.86225 0.0
H2350 H 0.22326 0.5477 0.89547 0.0
H2351 H 0.32353 0.48519 0.89824 0.0
C2352 C 0.33583 0.52508 0.9169 0.0
C2353 C 0.32602 0.55609 0.9262 0.0
C2354 C 0.23049 0.52411 0.8882 0.0
C2355 C 0.28389 0.52268 0.90297 0.0
C2356 C 0.20889 0.50997 0.87675 0.0
C2357 C 0.21649 0.47905 0.86693 0.0
C2358 C 0.26064 0.50759 0.89029 0.0
C2359 C 0.24723 0.46362 0.86922 0.0
C2360 C 0.31498 0.50838 0.9054 0.0
C2361 C 0.29435 0.56842 0.92363 0.0
N2362 N 0.26789 0.47785 0.88054 0.0
N2363 N 0.27493 0.55205 0.91244 0.0
H2364 H 0.35992 0.54172 0.62961 0.0
H2365 H 0.18602 0.5372 0.67232 0.0
H2366 H 0.28473 0.46436 0.61835 0.0
H2367 H 0.25592 0.61958 0.68543 0.0
H2368 H 0.22319 0.51131 0.65273 0.0
H2369 H 0.32386 0.57239 0.64931 0.0
C2370 C 0.33567 0.53167 0.6309 0.0
C2371 C 0.32556 0.50038 0.62191 0.0
C2372 C 0.23076 0.53492 0.65989 0.0
C2373 C 0.28404 0.53501 0.64505 0.0
C2374 C 0.20939 0.54975 0.6713 0.0
C2375 C 0.21746 0.58072 0.68095 0.0
C2376 C 0.2611 0.55081 0.65769 0.0
C2377 C 0.2484 0.59549 0.67858 0.0
C2378 C 0.31512 0.54897 0.64238 0.0
C2379 C 0.29393 0.48837 0.62472 0.0
N2380 N 0.26882 0.5806 0.66729 0.0
N2381 N 0.27478 0.50535 0.63587 0.0
H2382 H 0.15412 0.55272 0.42426 0.0
H2383 H 0.33213 0.55152 0.38532 0.0
H2384 H 0.23116 0.48486 0.43794 0.0
H2385 H 0.25496 0.61997 0.37213 0.0
H2386 H 0.29619 0.52712 0.4043 0.0
H2387 H 0.19047 0.5778 0.40567 0.0
C2388 C 0.17879 0.54321 0.42354 0.0
C2389 C 0.18908 0.5164 0.43301 0.0
C2390 C 0.28692 0.54735 0.39725 0.0
C2391 C 0.23186 0.54551 0.41111 0.0
C2392 C 0.30756 0.56135 0.38622 0.0
C2393 C 0.29702 0.58802 0.37672 0.0
C2394 C 0.25488 0.55979 0.39913 0.0
C2395 C 0.26462 0.59941 0.3789 0.0
C2396 C 0.19971 0.55765 0.41277 0.0
C2397 C 0.22173 0.50566 0.43123 0.0
N2398 N 0.24507 0.58543 0.38972 0.0
N2399 N 0.24158 0.51996 0.4206 0.0
H2400 H 0.16591 0.06083 0.31307 0.0
H2401 H 0.26266 0.97496 0.24039 0.0
H2402 H 0.26363 0.09296 0.30448 0.0
H2403 H 0.16124 0.99843 0.23721 0.0
H2404 H 0.26414 1.00923 0.26564 0.0
H2405 H 0.16422 1.02872 0.28731 0.0
C2406 C 0.18714 0.06089 0.30585 0.0
C2407 C 0.21502 0.07965 0.31107 0.0
C2408 C 0.24159 1.00701 0.2594 0.0
C2409 C 0.21329 0.04237 0.28151 0.0
C2410 C 0.24068 0.98739 0.24497 0.0
C2411 C 0.21181 0.98389 0.23653 0.0
C2412 C 0.21322 1.0225 0.2658 0.0
C2413 C 0.1841 1.00062 0.24318 0.0
C2414 C 0.18604 0.04275 0.29109 0.0
C2415 C 0.24163 0.07893 0.30103 0.0
N2416 N 0.1854 1.01873 0.25745 0.0
N2417 N 0.24023 0.06036 0.28687 0.0
H2418 H 0.26085 0.87451 0.56858 0.0
H2419 H 0.32937 0.96449 0.49538 0.0
H2420 H 0.21923 0.97087 0.55253 0.0
H2421 H 0.34865 0.85467 0.50491 0.0
H2422 H 0.29195 0.97016 0.51727 0.0
H2423 H 0.2961 0.86929 0.54617 0.0
C2424 C 0.25903 0.89453 0.5603 0.0
C2425 C 0.23702 0.92316 0.56243 0.0
C2426 C 0.3043 0.94481 0.51449 0.0
C2427 C 0.27765 0.91752 0.53676 0.0
C2428 C 0.32577 0.94166 0.50208 0.0
C2429 C 0.34202 0.90902 0.49828 0.0
C2430 C 0.29949 0.91527 0.52326 0.0
C2431 C 0.33632 0.88015 0.50728 0.0
C2432 C 0.27916 0.8915 0.54749 0.0
C2433 C 0.23577 0.94828 0.5513 0.0
N2434 N 0.3157 0.88401 0.51936 0.0
N2435 N 0.25598 0.94503 0.53898 0.0
H2436 H 0.44653 0.03547 0.72941 0.0
H2437 H 0.44391 1.02498 0.8199 0.0
H2438 H 0.41919 0.12746 0.7599 0.0
H2439 H 0.41845 0.93246 0.78935 0.0
H2440 H 0.44271 0.06255 0.79819 0.0
H2441 H 0.44406 0.99747 0.75101 0.0
C2442 C 0.44009 0.04783 0.74066 0.0
C2443 C 0.43311 0.08503 0.74272 0.0
C2444 C 0.43733 0.03407 0.79621 0.0
C2445 C 0.43077 0.04116 0.76777 0.0
C2446 C 0.43816 1.01239 0.80861 0.0
C2447 C 0.43132 0.97518 0.80658 0.0
C2448 C 0.43044 1.01863 0.78137 0.0
C2449 C 0.42385 0.96086 0.79158 0.0
C2450 C 0.43853 1.02592 0.75299 0.0
C2451 C 0.42474 0.09908 0.75765 0.0
N2452 N 0.42401 0.98243 0.77958 0.0
N2453 N 0.42421 0.07734 0.76957 0.0
H2454 H 0.26045 0.19242 0.9814 0.0
H2455 H 0.32914 0.10345 0.0548 0.0
H2456 H 0.21917 0.0965 0.99799 0.0
H2457 H 0.35434 0.20995 0.04275 0.0
H2458 H 0.29028 0.09849 0.03358 0.0
H2459 H 0.29631 0.19776 1.0035 0.0
C2460 C 0.25882 0.17253 0.98975 0.0
C2461 C 0.2368 0.14393 0.98783 0.0
C2462 C 0.30424 0.12299 0.03566 0.0
C2463 C 0.27811 0.14974 1.01317 0.0
C2464 C 0.32655 0.12572 0.04768 0.0
C2465 C 0.34497 0.15719 0.05056 0.0
C2466 C 0.30064 0.15178 0.02637 0.0
C2467 C 0.34039 0.18541 0.04109 0.0
C2468 C 0.27932 0.17562 1.00238 0.0
C2469 C 0.23576 0.11902 0.99904 0.0
N2470 N 0.31883 0.18196 0.02941 0.0
N2471 N 0.25631 0.12236 1.0112 0.0
H2472 H 0.85284 0.93693 0.74973 0.0
H2473 H 0.84817 0.12702 0.79848 0.0
H2474 H 0.88183 0.03358 0.72947 0.0
H2475 H 0.87904 1.03119 0.81886 0.0
H2476 H 0.84977 0.09332 0.77305 0.0
H2477 H 0.8518 0.97091 0.77504 0.0
C2478 C 0.85883 0.96536 0.75057 0.0
C2479 C 0.86749 0.98234 0.73737 0.0
C2480 C 0.85611 0.07969 0.7831 0.0
C2481 C 0.86568 1.02165 0.76643 0.0
C2482 C 0.85502 0.09882 0.79765 0.0
C2483 C 0.86346 0.08196 0.81091 0.0
C2484 C 0.86482 0.04305 0.78175 0.0
C2485 C 0.87239 0.04536 0.80901 0.0
C2486 C 0.85836 0.98467 0.76505 0.0
C2487 C 0.87515 1.01928 0.73928 0.0
N2488 N 0.87249 1.0271 0.79478 0.0
N2489 N 0.87372 0.03775 0.75347 0.0
H2490 H 0.74736 0.10069 0.55219 0.0
H2491 H 0.80947 0.1912 0.47775 0.0
H2492 H 0.71762 0.2061 0.54054 0.0
H2493 H 0.85505 0.09826 0.4949 0.0
H2494 H 0.77371 0.19549 0.50005 0.0
H2495 H 0.78473 0.09711 0.53036 0.0
C2496 C 0.74862 0.12299 0.54501 0.0
C2497 C 0.72946 0.15378 0.54822 0.0
C2498 C 0.79165 0.17427 0.49898 0.0
C2499 C 0.77209 0.14999 0.52331 0.0
C2500 C 0.81208 0.17181 0.48624 0.0
C2501 C 0.83528 0.14432 0.48445 0.0
C2502 C 0.79419 0.14884 0.50993 0.0
C2503 C 0.83755 0.11994 0.49584 0.0
C2504 C 0.77008 0.12106 0.53263 0.0
C2505 C 0.73225 0.18208 0.53863 0.0
N2506 N 0.81713 0.12263 0.50804 0.0
N2507 N 0.75306 0.17944 0.52659 0.0
H2508 H 0.65329 0.93168 0.2873 0.0
H2509 H 0.65662 0.13202 0.2592 0.0
H2510 H 0.6296 1.0257 0.3174 0.0
H2511 H 0.62856 0.04007 0.22889 0.0
H2512 H 0.65786 0.09286 0.28064 0.0
H2513 H 0.65531 0.97027 0.2656 0.0
C2514 C 0.64871 0.96033 0.28939 0.0
C2515 C 0.64097 0.97524 0.30424 0.0
C2516 C 0.65154 0.08131 0.26926 0.0
C2517 C 0.64402 1.01977 0.27951 0.0
C2518 C 0.65088 0.10367 0.25701 0.0
C2519 C 0.64218 0.08958 0.24217 0.0
C2520 C 0.64434 0.04426 0.26665 0.0
C2521 C 0.63509 0.05239 0.24011 0.0
C2522 C 0.64978 0.98235 0.27699 0.0
C2523 C 0.63532 1.01275 0.30617 0.0
N2524 N 0.63653 1.03113 0.2521 0.0
N2525 N 0.63718 0.03357 0.29407 0.0
H2526 H 0.85782 0.96929 0.05311 0.0
H2527 H 0.72059 0.85396 1.00752 0.0
H2528 H 0.81177 0.87609 0.06976 0.0
H2529 H 0.7483 0.96014 0.99603 0.0
H2530 H 0.75839 0.85902 0.02888 0.0
H2531 H 0.8223 0.96374 0.03062 0.0
C2532 C 0.8404 0.94755 0.05199 0.0
C2533 C 0.83768 0.92316 0.06334 0.0
C2534 C 0.75627 0.88126 1.02171 0.0
C2535 C 0.79715 0.9167 0.03771 0.0
C2536 C 0.73482 0.87828 1.00943 0.0
C2537 C 0.73136 0.90664 0.99995 0.0
C2538 C 0.77464 0.91276 0.02453 0.0
C2539 C 0.75005 0.93779 1.00315 0.0
C2540 C 0.82007 0.94452 0.03921 0.0
C2541 C 0.81465 0.89559 0.06133 0.0
N2542 N 0.77101 0.94 1.01516 0.0
N2543 N 0.79532 0.89311 0.04878 0.0
H2544 H 0.72742 0.62782 0.7979 0.0
H2545 H 0.72898 0.43683 0.74974 0.0
H2546 H 0.69897 0.53137 0.81845 0.0
H2547 H 0.69766 0.53191 0.72893 0.0
H2548 H 0.72863 0.47137 0.77493 0.0
H2549 H 0.72714 0.5937 0.77254 0.0
C2550 C 0.72135 0.59941 0.79712 0.0
C2551 C 0.71321 0.58251 0.81041 0.0
C2552 C 0.72189 0.48468 0.76485 0.0
C2553 C 0.71341 0.54311 0.78132 0.0
C2554 C 0.72222 0.46505 0.75042 0.0
C2555 C 0.71331 0.4814 0.7371 0.0
C2556 C 0.71349 0.52139 0.76605 0.0
C2557 C 0.7046 0.51809 0.73884 0.0
C2558 C 0.72102 0.58004 0.78261 0.0
C2559 C 0.70534 0.54561 0.80858 0.0
N2560 N 0.70525 0.5369 0.75297 0.0
N2561 N 0.70598 0.52714 0.79439 0.0
H2562 H 0.85633 0.35529 1.00686 0.0
H2563 H 0.71875 0.47037 0.05256 0.0
H2564 H 0.82869 0.46162 0.9955 0.0
H2565 H 0.76434 0.37643 0.06884 0.0
H2566 H 0.75462 0.46527 0.03015 0.0
H2567 H 0.81847 0.36028 0.02822 0.0
C2568 C 0.8421 0.37964 1.0088 0.0
C2569 C 0.84558 0.40804 0.99935 0.0
C2570 C 0.75667 0.4458 0.03864 0.0
C2571 C 0.80222 0.41409 1.02393 0.0
C2572 C 0.73614 0.44857 0.05138 0.0
C2573 C 0.73861 0.42382 0.0626 0.0
C2574 C 0.77956 0.41788 0.03708 0.0
C2575 C 0.76163 0.39619 0.06052 0.0
C2576 C 0.82062 0.38258 1.02108 0.0
C2577 C 0.82691 0.43924 1.0026 0.0
N2578 N 0.78115 0.39397 0.04802 0.0
N2579 N 0.80589 0.44141 1.01461 0.0
H2580 H 0.92116 0.42816 0.28915 0.0
H2581 H 0.91935 0.62809 0.26075 0.0
H2582 H 0.94686 0.52158 0.31912 0.0
H2583 H 0.94645 0.5358 0.23037 0.0
H2584 H 0.91882 0.5892 0.28228 0.0
H2585 H 0.91993 0.46662 0.26741 0.0
C2586 C 0.92642 0.45665 0.2912 0.0
C2587 C 0.93439 0.47137 0.30606 0.0
C2588 C 0.92481 0.5775 0.27088 0.0
C2589 C 0.93218 0.51589 0.28122 0.0
C2590 C 0.92504 0.59972 0.25856 0.0
C2591 C 0.9332 0.58548 0.24365 0.0
C2592 C 0.93185 0.54039 0.2683 0.0
C2593 C 0.94029 0.54825 0.24163 0.0
C2594 C 0.92578 0.47862 0.27877 0.0
C2595 C 0.94088 0.50873 0.30791 0.0
N2596 N 0.9392 0.52712 0.2537 0.0
N2597 N 0.93938 0.52955 0.29577 0.0
H2598 H 0.71981 0.59216 0.49638 0.0
H2599 H 0.85875 0.70762 0.5405 0.0
H2600 H 0.76469 0.68525 0.47904 0.0
H2601 H 0.83042 0.60218 0.55264 0.0
H2602 H 0.82068 0.70227 0.51922 0.0
H2603 H 0.75641 0.59788 0.51841 0.0
C2604 C 0.73723 0.6139 0.49724 0.0
C2605 C 0.73925 0.63824 0.48584 0.0
C2606 C 0.82276 0.68025 0.52652 0.0
C2607 C 0.78109 0.64488 0.51097 0.0
C2608 C 0.84434 0.6834 0.53874 0.0
C2609 C 0.84765 0.65534 0.54839 0.0
C2610 C 0.80409 0.64891 0.52395 0.0
C2611 C 0.82877 0.62429 0.54539 0.0
C2612 C 0.75818 0.61703 0.50978 0.0
C2613 C 0.76232 0.66583 0.48753 0.0
N2614 N 0.80765 0.62194 0.53345 0.0
N2615 N 0.7823 0.6684 0.49986 0.0
H2616 H 0.34261 0.62892 0.298 0.0
H2617 H 0.34182 0.43777 0.24964 0.0
H2618 H 0.3712 0.53223 0.31836 0.0
H2619 H 0.3721 0.53348 0.22902 0.0
H2620 H 0.34139 0.47224 0.27487 0.0
H2621 H 0.34226 0.59481 0.27263 0.0
C2622 C 0.34852 0.60046 0.29717 0.0
C2623 C 0.35694 0.58347 0.3104 0.0
C2624 C 0.34803 0.4857 0.26481 0.0
C2625 C 0.35605 0.54412 0.28134 0.0
C2626 C 0.34812 0.46611 0.25037 0.0
C2627 C 0.35703 0.48267 0.23711 0.0
C2628 C 0.35601 0.52252 0.26606 0.0
C2629 C 0.36516 0.51951 0.23889 0.0
C2630 C 0.3485 0.58109 0.28267 0.0
C2631 C 0.36463 0.54652 0.30852 0.0
N2632 N 0.36416 0.53823 0.25302 0.0
N2633 N 0.36369 0.52807 0.29435 0.0
H2634 H 0.35857 0.59842 0.99628 0.0
H2635 H 0.21861 0.71204 0.04086 0.0
H2636 H 0.31367 0.69213 0.97944 0.0
H2637 H 0.24697 0.60587 0.05213 0.0
H2638 H 0.25737 0.70796 1.01982 0.0
H2639 H 0.3221 0.60372 1.01838 0.0
C2640 C 0.34123 0.62028 0.99728 0.0
C2641 C 0.3391 0.64482 0.98596 0.0
C2642 C 0.25517 0.68552 0.02688 0.0
C2643 C 0.29732 0.65095 1.01119 0.0
C2644 C 0.23316 0.68793 0.03897 0.0
C2645 C 0.22961 0.65928 0.0483 0.0
C2646 C 0.27403 0.65433 1.02412 0.0
C2647 C 0.24875 0.62842 0.04513 0.0
C2648 C 0.32033 0.62315 1.00986 0.0
C2649 C 0.31611 0.67253 0.98785 0.0
N2650 N 0.27026 0.6268 0.03332 0.0
N2651 N 0.29613 0.67482 1.00021 0.0
H2652 H 0.13177 0.53588 0.72873 0.0
H2653 H 0.13135 0.52491 0.81899 0.0
H2654 H 0.15975 0.62736 0.75932 0.0
H2655 H 0.15721 0.43225 0.78854 0.0
H2656 H 0.13398 0.56266 0.79738 0.0
H2657 H 0.13335 0.49781 0.75028 0.0
C2658 C 0.13816 0.54811 0.74 0.0
C2659 C 0.14556 0.58517 0.74212 0.0
C2660 C 0.13915 0.53411 0.7954 0.0
C2661 C 0.14691 0.54124 0.76709 0.0
C2662 C 0.13748 0.51234 0.80774 0.0
C2663 C 0.14397 0.47504 0.80568 0.0
C2664 C 0.14654 0.51866 0.78063 0.0
C2665 C 0.15202 0.46072 0.79076 0.0
C2666 C 0.13922 0.52616 0.7523 0.0
C2667 C 0.15388 0.59908 0.75706 0.0
N2668 N 0.15265 0.48239 0.77881 0.0
N2669 N 0.15391 0.57729 0.76896 0.0
H2670 H 0.24649 0.45831 0.49404 0.0
H2671 H 0.31279 0.36675 0.56723 0.0
H2672 H 0.22038 0.35162 0.50552 0.0
H2673 H 0.35566 0.46253 0.55129 0.0
H2674 H 0.27744 0.36242 0.54497 0.0
H2675 H 0.28506 0.46242 0.51541 0.0
C2676 C 0.24883 0.43583 0.50106 0.0
C2677 C 0.23026 0.40454 0.49798 0.0
C2678 C 0.29467 0.38431 0.54626 0.0
C2679 C 0.2742 0.40898 0.52231 0.0
C2680 C 0.31487 0.38683 0.55899 0.0
C2681 C 0.33717 0.4151 0.56114 0.0
C2682 C 0.29645 0.41045 0.5356 0.0
C2683 C 0.33883 0.44026 0.55005 0.0
C2684 C 0.27097 0.43808 0.51317 0.0
C2685 C 0.23447 0.37604 0.50733 0.0
N2686 N 0.31853 0.4375 0.53778 0.0
N2687 N 0.25585 0.37902 0.51909 0.0
loop_
_geom_bond_atom_site_label_1
_geom_bond_atom_site_label_2
_geom_bond_distance
_geom_bond_site_symmetry_2
_ccdc_geom_bond_type
Co0 N5 2.057 . S
Co0 O17 2.021 . S
Co0 O20 2.062 . S
Co0 O24 2.117 . S
Co0 O25 2.020 . S
C1 O21 1.259 . S
C1 O24 1.258 . S
Co2 N11 2.057 . S
Co2 O18 2.117 . S
Co2 O19 2.020 . S
Co2 O21 2.021 . S
Co2 O26 2.062 . S
C3 N5 1.316 . S
C3 N6 1.347 . S
C3 H8 0.931 . S
C4 N5 1.375 . S
C4 C7 1.350 . S
C4 H9 0.930 . S
N5 Co0 2.057 . S
N5 C3 1.316 . S
N5 C4 1.375 . S
N6 C3 1.347 . S
N6 C7 1.373 . S
C7 C4 1.350 . S
C7 N6 1.373 . S
C7 H28 0.931 . S
H8 C3 0.931 . S
H9 C4 0.930 . S
C10 O17 1.259 . S
C10 O18 1.258 . S
N11 Co2 2.057 . S
N11 C12 1.316 . S
N11 C13 1.375 . S
C12 N11 1.316 . S
C12 N14 1.347 . S
C12 H23 0.931 . S
C13 N11 1.375 . S
C13 C15 1.350 . S
C13 H22 0.930 . S
N14 C12 1.347 . S
N14 C15 1.373 . S
C15 C13 1.350 . S
C15 N14 1.373 . S
C15 H29 0.931 . S
C16 O19 1.256 . S
C16 O20 1.255 . S
O17 Co0 2.021 . S
O17 C10 1.259 . S
O18 Co2 2.117 . S
O18 C10 1.258 . S
O19 Co2 2.020 . S
O19 C16 1.256 . S
O20 Co0 2.062 . S
O20 C16 1.255 . S
O21 C1 1.259 . S
O21 Co2 2.021 . S
H22 C13 0.930 . S
H23 C12 0.931 . S
O24 Co0 2.117 . S
O24 C1 1.258 . S
O25 Co0 2.020 . S
O25 C27 1.256 . S
O26 Co2 2.062 . S
O26 C27 1.255 . S
C27 O25 1.256 . S
C27 O26 1.255 . S
H28 C7 0.931 . S
H29 C15 0.931 . S
Co30 N35 2.057 . S
Co30 O47 2.021 . S
Co30 O50 2.062 . S
Co30 O54 2.117 . S
Co30 O55 2.020 . S
C31 O51 1.259 . S
C31 O54 1.258 . S
Co32 N41 2.057 . S
Co32 O48 2.117 . S
Co32 O49 2.020 . S
Co32 O51 2.021 . S
Co32 O56 2.062 . S
C33 N35 1.316 . S
C33 N36 1.347 . S
C33 H38 0.931 . S
C34 N35 1.375 . S
C34 C37 1.350 . S
C34 H39 0.930 . S
N35 Co30 2.057 . S
N35 C33 1.316 . S
N35 C34 1.375 . S
N36 C33 1.347 . S
N36 C37 1.373 . S
C37 C34 1.350 . S
C37 N36 1.373 . S
C37 H58 0.931 . S
H38 C33 0.931 . S
H39 C34 0.930 . S
C40 O47 1.259 . S
C40 O48 1.258 . S
N41 Co32 2.057 . S
N41 C42 1.316 . S
N41 C43 1.375 . S
C42 N41 1.316 . S
C42 N44 1.347 . S
C42 H53 0.931 . S
C43 N41 1.375 . S
C43 C45 1.350 . S
C43 H52 0.930 . S
N44 C42 1.347 . S
N44 C45 1.373 . S
C45 C43 1.350 . S
C45 N44 1.373 . S
C45 H59 0.931 . S
C46 O49 1.256 . S
C46 O50 1.255 . S
O47 Co30 2.021 . S
O47 C40 1.259 . S
O48 Co32 2.117 . S
O48 C40 1.258 . S
O49 Co32 2.020 . S
O49 C46 1.256 . S
O50 Co30 2.062 . S
O50 C46 1.255 . S
O51 C31 1.259 . S
O51 Co32 2.021 . S
H52 C43 0.930 . S
H53 C42 0.931 . S
O54 Co30 2.117 . S
O54 C31 1.258 . S
O55 Co30 2.020 . S
O55 C57 1.256 . S
O56 Co32 2.062 . S
O56 C57 1.255 . S
C57 O55 1.256 . S
C57 O56 1.255 . S
H58 C37 0.931 . S
H59 C45 0.931 . S
Co60 N65 2.057 . S
Co60 O77 2.021 . S
Co60 O80 2.062 . S
Co60 O84 2.117 . S
Co60 O85 2.020 . S
C61 O81 1.259 . S
C61 O84 1.258 . S
Co62 N71 2.057 . S
Co62 O78 2.117 . S
Co62 O79 2.020 . S
Co62 O81 2.021 . S
Co62 O86 2.062 . S
C63 N65 1.316 . S
C63 N66 1.347 . S
C63 H68 0.931 . S
C64 N65 1.375 . S
C64 C67 1.350 . S
C64 H69 0.930 . S
N65 Co60 2.057 . S
N65 C63 1.316 . S
N65 C64 1.375 . S
N66 C63 1.347 . S
N66 C67 1.373 . S
C67 C64 1.350 . S
C67 N66 1.373 . S
C67 H88 0.931 . S
H68 C63 0.931 . S
H69 C64 0.930 . S
C70 O77 1.259 . S
C70 O78 1.258 . S
N71 Co62 2.057 . S
N71 C72 1.316 . S
N71 C73 1.375 . S
C72 N71 1.316 . S
C72 N74 1.347 . S
C72 H83 0.931 . S
C73 N71 1.375 . S
C73 C75 1.350 . S
C73 H82 0.930 . S
N74 C72 1.347 . S
N74 C75 1.373 . S
C75 C73 1.350 . S
C75 N74 1.373 . S
C75 H89 0.931 . S
C76 O79 1.256 . S
C76 O80 1.255 . S
O77 Co60 2.021 . S
O77 C70 1.259 . S
O78 Co62 2.117 . S
O78 C70 1.258 . S
O79 Co62 2.020 . S
O79 C76 1.256 . S
O80 Co60 2.062 . S
O80 C76 1.255 . S
O81 C61 1.259 . S
O81 Co62 2.021 . S
H82 C73 0.930 . S
H83 C72 0.931 . S
O84 Co60 2.117 . S
O84 C61 1.258 . S
O85 Co60 2.020 . S
O85 C87 1.256 . S
O86 Co62 2.062 . S
O86 C87 1.255 . S
C87 O85 1.256 . S
C87 O86 1.255 . S
H88 C67 0.931 . S
H89 C75 0.931 . S
Co90 N95 2.057 . S
Co90 O107 2.021 . S
Co90 O110 2.062 . S
Co90 O114 2.117 . S
Co90 O115 2.020 . S
C91 O111 1.259 . S
C91 O114 1.258 . S
Co92 N101 2.057 . S
Co92 O108 2.117 . S
Co92 O109 2.020 . S
Co92 O111 2.021 . S
Co92 O116 2.062 . S
C93 N95 1.316 . S
C93 N96 1.347 . S
C93 H98 0.931 . S
C94 N95 1.375 . S
C94 C97 1.350 . S
C94 H99 0.930 . S
N95 Co90 2.057 . S
N95 C93 1.316 . S
N95 C94 1.375 . S
N96 C93 1.347 . S
N96 C97 1.373 . S
C97 C94 1.350 . S
C97 N96 1.373 . S
C97 H118 0.931 . S
H98 C93 0.931 . S
H99 C94 0.930 . S
C100 O107 1.259 . S
C100 O108 1.258 . S
N101 Co92 2.057 . S
N101 C102 1.316 . S
N101 C103 1.375 . S
C102 N101 1.316 . S
C102 N104 1.347 . S
C102 H113 0.931 . S
C103 N101 1.375 . S
C103 C105 1.350 . S
C103 H112 0.930 . S
N104 C102 1.347 . S
N104 C105 1.373 . S
C105 C103 1.350 . S
C105 N104 1.373 . S
C105 H119 0.931 . S
C106 O109 1.256 . S
C106 O110 1.255 . S
O107 Co90 2.021 . S
O107 C100 1.259 . S
O108 Co92 2.117 . S
O108 C100 1.258 . S
O109 Co92 2.020 . S
O109 C106 1.256 . S
O110 Co90 2.062 . S
O110 C106 1.255 . S
O111 C91 1.259 . S
O111 Co92 2.021 . S
H112 C103 0.930 . S
H113 C102 0.931 . S
O114 Co90 2.117 . S
O114 C91 1.258 . S
O115 Co90 2.020 . S
O115 C117 1.256 . S
O116 Co92 2.062 . S
O116 C117 1.255 . S
C117 O115 1.256 . S
C117 O116 1.255 . S
H118 C97 0.931 . S
H119 C105 0.931 . S
Co120 N125 2.057 . S
Co120 O137 2.021 . S
Co120 O140 2.062 . S
Co120 O144 2.117 . S
Co120 O145 2.020 . S
C121 O141 1.259 . S
C121 O144 1.258 . S
Co122 N131 2.057 . S
Co122 O138 2.117 . S
Co122 O139 2.020 . S
Co122 O141 2.021 . S
Co122 O146 2.062 . S
C123 N125 1.316 . S
C123 N126 1.347 . S
C123 H128 0.931 . S
C124 N125 1.375 . S
C124 C127 1.350 . S
C124 H129 0.930 . S
N125 Co120 2.057 . S
N125 C123 1.316 . S
N125 C124 1.375 . S
N126 C123 1.347 . S
N126 C127 1.373 . S
C127 C124 1.350 . S
C127 N126 1.373 . S
C127 H148 0.931 . S
H128 C123 0.931 . S
H129 C124 0.930 . S
C130 O137 1.259 . S
C130 O138 1.258 . S
N131 Co122 2.057 . S
N131 C132 1.316 . S
N131 C133 1.375 . S
C132 N131 1.316 . S
C132 N134 1.347 . S
C132 H143 0.931 . S
C133 N131 1.375 . S
C133 C135 1.350 . S
C133 H142 0.930 . S
N134 C132 1.347 . S
N134 C135 1.373 . S
C135 C133 1.350 . S
C135 N134 1.373 . S
C135 H149 0.931 . S
C136 O139 1.256 . S
C136 O140 1.255 . S
O137 Co120 2.021 . S
O137 C130 1.259 . S
O138 Co122 2.117 . S
O138 C130 1.258 . S
O139 Co122 2.020 . S
O139 C136 1.256 . S
O140 Co120 2.062 . S
O140 C136 1.255 . S
O141 C121 1.259 . S
O141 Co122 2.021 . S
H142 C133 0.930 . S
H143 C132 0.931 . S
O144 Co120 2.117 . S
O144 C121 1.258 . S
O145 Co120 2.020 . S
O145 C147 1.256 . S
O146 Co122 2.062 . S
O146 C147 1.255 . S
C147 O145 1.256 . S
C147 O146 1.255 . S
H148 C127 0.931 . S
H149 C135 0.931 . S
Co150 N155 2.057 . S
Co150 O167 2.021 . S
Co150 O170 2.062 . S
Co150 O174 2.117 . S
Co150 O175 2.020 . S
C151 O171 1.259 . S
C151 O174 1.258 . S
Co152 N161 2.057 . S
Co152 O168 2.117 . S
Co152 O169 2.020 . S
Co152 O171 2.021 . S
Co152 O176 2.062 . S
C153 N155 1.316 . S
C153 N156 1.347 . S
C153 H158 0.931 . S
C154 N155 1.375 . S
C154 C157 1.350 . S
C154 H159 0.930 . S
N155 Co150 2.057 . S
N155 C153 1.316 . S
N155 C154 1.375 . S
N156 C153 1.347 . S
N156 C157 1.373 . S
C157 C154 1.350 . S
C157 N156 1.373 . S
C157 H178 0.931 . S
H158 C153 0.931 . S
H159 C154 0.930 . S
C160 O167 1.259 . S
C160 O168 1.258 . S
N161 Co152 2.057 . S
N161 C162 1.316 . S
N161 C163 1.375 . S
C162 N161 1.316 . S
C162 N164 1.347 . S
C162 H173 0.931 . S
C163 N161 1.375 . S
C163 C165 1.350 . S
C163 H172 0.930 . S
N164 C162 1.347 . S
N164 C165 1.373 . S
C165 C163 1.350 . S
C165 N164 1.373 . S
C165 H179 0.931 . S
C166 O169 1.256 . S
C166 O170 1.255 . S
O167 Co150 2.021 . S
O167 C160 1.259 . S
O168 Co152 2.117 . S
O168 C160 1.258 . S
O169 Co152 2.020 . S
O169 C166 1.256 . S
O170 Co150 2.062 . S
O170 C166 1.255 . S
O171 C151 1.259 . S
O171 Co152 2.021 . S
H172 C163 0.930 . S
H173 C162 0.931 . S
O174 Co150 2.117 . S
O174 C151 1.258 . S
O175 Co150 2.020 . S
O175 C177 1.256 . S
O176 Co152 2.062 . S
O176 C177 1.255 . S
C177 O175 1.256 . S
C177 O176 1.255 . S
H178 C157 0.931 . S
H179 C165 0.931 . S
Co180 N185 2.057 . S
Co180 O197 2.021 . S
Co180 O200 2.062 . S
Co180 O204 2.117 . S
Co180 O205 2.020 . S
C181 O201 1.259 . S
C181 O204 1.258 . S
Co182 N191 2.057 . S
Co182 O198 2.117 . S
Co182 O199 2.020 . S
Co182 O201 2.021 . S
Co182 O206 2.062 . S
C183 N185 1.316 . S
C183 N186 1.347 . S
C183 H188 0.931 . S
C184 N185 1.375 . S
C184 C187 1.350 . S
C184 H189 0.930 . S
N185 Co180 2.057 . S
N185 C183 1.316 . S
N185 C184 1.375 . S
N186 C183 1.347 . S
N186 C187 1.373 . S
C187 C184 1.350 . S
C187 N186 1.373 . S
C187 H208 0.931 . S
H188 C183 0.931 . S
H189 C184 0.930 . S
C190 O197 1.259 . S
C190 O198 1.258 . S
N191 Co182 2.057 . S
N191 C192 1.316 . S
N191 C193 1.375 . S
C192 N191 1.316 . S
C192 N194 1.347 . S
C192 H203 0.931 . S
C193 N191 1.375 . S
C193 C195 1.350 . S
C193 H202 0.930 . S
N194 C192 1.347 . S
N194 C195 1.373 . S
C195 C193 1.350 . S
C195 N194 1.373 . S
C195 H209 0.931 . S
C196 O199 1.256 . S
C196 O200 1.255 . S
O197 Co180 2.021 . S
O197 C190 1.259 . S
O198 Co182 2.117 . S
O198 C190 1.258 . S
O199 Co182 2.020 . S
O199 C196 1.256 . S
O200 Co180 2.062 . S
O200 C196 1.255 . S
O201 C181 1.259 . S
O201 Co182 2.021 . S
H202 C193 0.930 . S
H203 C192 0.931 . S
O204 Co180 2.117 . S
O204 C181 1.258 . S
O205 Co180 2.020 . S
O205 C207 1.256 . S
O206 Co182 2.062 . S
O206 C207 1.255 . S
C207 O205 1.256 . S
C207 O206 1.255 . S
H208 C187 0.931 . S
H209 C195 0.931 . S
Co210 N215 2.057 . S
Co210 O227 2.021 . S
Co210 O230 2.062 . S
Co210 O234 2.117 . S
Co210 O235 2.020 . S
C211 O231 1.259 . S
C211 O234 1.258 . S
Co212 N221 2.057 . S
Co212 O228 2.117 . S
Co212 O229 2.020 . S
Co212 O231 2.021 . S
Co212 O236 2.062 . S
C213 N215 1.316 . S
C213 N216 1.347 . S
C213 H218 0.931 . S
C214 N215 1.375 . S
C214 C217 1.350 . S
C214 H219 0.930 . S
N215 Co210 2.057 . S
N215 C213 1.316 . S
N215 C214 1.375 . S
N216 C213 1.347 . S
N216 C217 1.373 . S
C217 C214 1.350 . S
C217 N216 1.373 . S
C217 H238 0.931 . S
H218 C213 0.931 . S
H219 C214 0.930 . S
C220 O227 1.259 . S
C220 O228 1.258 . S
N221 Co212 2.057 . S
N221 C222 1.316 . S
N221 C223 1.375 . S
C222 N221 1.316 . S
C222 N224 1.347 . S
C222 H233 0.931 . S
C223 N221 1.375 . S
C223 C225 1.350 . S
C223 H232 0.930 . S
N224 C222 1.347 . S
N224 C225 1.373 . S
C225 C223 1.350 . S
C225 N224 1.373 . S
C225 H239 0.931 . S
C226 O229 1.256 . S
C226 O230 1.255 . S
O227 Co210 2.021 . S
O227 C220 1.259 . S
O228 Co212 2.117 . S
O228 C220 1.258 . S
O229 Co212 2.020 . S
O229 C226 1.256 . S
O230 Co210 2.062 . S
O230 C226 1.255 . S
O231 C211 1.259 . S
O231 Co212 2.021 . S
H232 C223 0.930 . S
H233 C222 0.931 . S
O234 Co210 2.117 . S
O234 C211 1.258 . S
O235 Co210 2.020 . S
O235 C237 1.256 . S
O236 Co212 2.062 . S
O236 C237 1.255 . S
C237 O235 1.256 . S
C237 O236 1.255 . S
H238 C217 0.931 . S
H239 C225 0.931 . S
Co240 N245 2.057 . S
Co240 O257 2.021 . S
Co240 O260 2.062 . S
Co240 O264 2.117 . S
Co240 O265 2.020 . S
C241 O261 1.259 . S
C241 O264 1.258 . S
Co242 N251 2.057 . S
Co242 O258 2.117 . S
Co242 O259 2.020 . S
Co242 O261 2.021 . S
Co242 O266 2.062 . S
C243 N245 1.316 . S
C243 N246 1.347 . S
C243 H248 0.931 . S
C244 N245 1.375 . S
C244 C247 1.350 . S
C244 H249 0.930 . S
N245 Co240 2.057 . S
N245 C243 1.316 . S
N245 C244 1.375 . S
N246 C243 1.347 . S
N246 C247 1.373 . S
C247 C244 1.350 . S
C247 N246 1.373 . S
C247 H268 0.931 . S
H248 C243 0.931 . S
H249 C244 0.930 . S
C250 O257 1.259 . S
C250 O258 1.258 . S
N251 Co242 2.057 . S
N251 C252 1.316 . S
N251 C253 1.375 . S
C252 N251 1.316 . S
C252 N254 1.347 . S
C252 H263 0.931 . S
C253 N251 1.375 . S
C253 C255 1.350 . S
C253 H262 0.930 . S
N254 C252 1.347 . S
N254 C255 1.373 . S
C255 C253 1.350 . S
C255 N254 1.373 . S
C255 H269 0.931 . S
C256 O259 1.256 . S
C256 O260 1.255 . S
O257 Co240 2.021 . S
O257 C250 1.259 . S
O258 Co242 2.117 . S
O258 C250 1.258 . S
O259 Co242 2.020 . S
O259 C256 1.256 . S
O260 Co240 2.062 . S
O260 C256 1.255 . S
O261 C241 1.259 . S
O261 Co242 2.021 . S
H262 C253 0.930 . S
H263 C252 0.931 . S
O264 Co240 2.117 . S
O264 C241 1.258 . S
O265 Co240 2.020 . S
O265 C267 1.256 . S
O266 Co242 2.062 . S
O266 C267 1.255 . S
C267 O265 1.256 . S
C267 O266 1.255 . S
H268 C247 0.931 . S
H269 C255 0.931 . S
Co270 N275 2.057 . S
Co270 O287 2.021 . S
Co270 O290 2.062 . S
Co270 O294 2.117 . S
Co270 O295 2.020 . S
C271 O291 1.259 . S
C271 O294 1.258 . S
Co272 N281 2.057 . S
Co272 O288 2.117 . S
Co272 O289 2.020 . S
Co272 O291 2.021 . S
Co272 O296 2.062 . S
C273 N275 1.316 . S
C273 N276 1.347 . S
C273 H278 0.931 . S
C274 N275 1.375 . S
C274 C277 1.350 . S
C274 H279 0.930 . S
N275 Co270 2.057 . S
N275 C273 1.316 . S
N275 C274 1.375 . S
N276 C273 1.347 . S
N276 C277 1.373 . S
C277 C274 1.350 . S
C277 N276 1.373 . S
C277 H298 0.931 . S
H278 C273 0.931 . S
H279 C274 0.930 . S
C280 O287 1.259 . S
C280 O288 1.258 . S
N281 Co272 2.057 . S
N281 C282 1.316 . S
N281 C283 1.375 . S
C282 N281 1.316 . S
C282 N284 1.347 . S
C282 H293 0.931 . S
C283 N281 1.375 . S
C283 C285 1.350 . S
C283 H292 0.930 . S
N284 C282 1.347 . S
N284 C285 1.373 . S
C285 C283 1.350 . S
C285 N284 1.373 . S
C285 H299 0.931 . S
C286 O289 1.256 . S
C286 O290 1.255 . S
O287 Co270 2.021 . S
O287 C280 1.259 . S
O288 Co272 2.117 . S
O288 C280 1.258 . S
O289 Co272 2.020 . S
O289 C286 1.256 . S
O290 Co270 2.062 . S
O290 C286 1.255 . S
O291 C271 1.259 . S
O291 Co272 2.021 . S
H292 C283 0.930 . S
H293 C282 0.931 . S
O294 Co270 2.117 . S
O294 C271 1.258 . S
O295 Co270 2.020 . S
O295 C297 1.256 . S
O296 Co272 2.062 . S
O296 C297 1.255 . S
C297 O295 1.256 . S
C297 O296 1.255 . S
H298 C277 0.931 . S
H299 C285 0.931 . S
Co300 N305 2.057 . S
Co300 O317 2.021 . S
Co300 O320 2.062 . S
Co300 O324 2.117 . S
Co300 O325 2.020 . S
C301 O321 1.259 . S
C301 O324 1.258 . S
Co302 N311 2.057 . S
Co302 O318 2.117 . S
Co302 O319 2.020 . S
Co302 O321 2.021 . S
Co302 O326 2.062 . S
C303 N305 1.316 . S
C303 N306 1.347 . S
C303 H308 0.931 . S
C304 N305 1.375 . S
C304 C307 1.350 . S
C304 H309 0.930 . S
N305 Co300 2.057 . S
N305 C303 1.316 . S
N305 C304 1.375 . S
N306 C303 1.347 . S
N306 C307 1.373 . S
C307 C304 1.350 . S
C307 N306 1.373 . S
C307 H328 0.931 . S
H308 C303 0.931 . S
H309 C304 0.930 . S
C310 O317 1.259 . S
C310 O318 1.258 . S
N311 Co302 2.057 . S
N311 C312 1.316 . S
N311 C313 1.375 . S
C312 N311 1.316 . S
C312 N314 1.347 . S
C312 H323 0.931 . S
C313 N311 1.375 . S
C313 C315 1.350 . S
C313 H322 0.930 . S
N314 C312 1.347 . S
N314 C315 1.373 . S
C315 C313 1.350 . S
C315 N314 1.373 . S
C315 H329 0.931 . S
C316 O319 1.256 . S
C316 O320 1.255 . S
O317 Co300 2.021 . S
O317 C310 1.259 . S
O318 Co302 2.117 . S
O318 C310 1.258 . S
O319 Co302 2.020 . S
O319 C316 1.256 . S
O320 Co300 2.062 . S
O320 C316 1.255 . S
O321 C301 1.259 . S
O321 Co302 2.021 . S
H322 C313 0.930 . S
H323 C312 0.931 . S
O324 Co300 2.117 . S
O324 C301 1.258 . S
O325 Co300 2.020 . S
O325 C327 1.256 . S
O326 Co302 2.062 . S
O326 C327 1.255 . S
C327 O325 1.256 . S
C327 O326 1.255 . S
H328 C307 0.931 . S
H329 C315 0.931 . S
Co330 N335 2.057 . S
Co330 O347 2.021 . S
Co330 O350 2.062 . S
Co330 O354 2.117 . S
Co330 O355 2.020 . S
C331 O351 1.259 . S
C331 O354 1.258 . S
Co332 N341 2.057 . S
Co332 O348 2.117 . S
Co332 O349 2.020 . S
Co332 O351 2.021 . S
Co332 O356 2.062 . S
C333 N335 1.316 . S
C333 N336 1.347 . S
C333 H338 0.931 . S
C334 N335 1.375 . S
C334 C337 1.350 . S
C334 H339 0.930 . S
N335 Co330 2.057 . S
N335 C333 1.316 . S
N335 C334 1.375 . S
N336 C333 1.347 . S
N336 C337 1.373 . S
C337 C334 1.350 . S
C337 N336 1.373 . S
C337 H358 0.931 . S
H338 C333 0.931 . S
H339 C334 0.930 . S
C340 O347 1.259 . S
C340 O348 1.258 . S
N341 Co332 2.057 . S
N341 C342 1.316 . S
N341 C343 1.375 . S
C342 N341 1.316 . S
C342 N344 1.347 . S
C342 H353 0.931 . S
C343 N341 1.375 . S
C343 C345 1.350 . S
C343 H352 0.930 . S
N344 C342 1.347 . S
N344 C345 1.373 . S
C345 C343 1.350 . S
C345 N344 1.373 . S
C345 H359 0.931 . S
C346 O349 1.256 . S
C346 O350 1.255 . S
O347 Co330 2.021 . S
O347 C340 1.259 . S
O348 Co332 2.117 . S
O348 C340 1.258 . S
O349 Co332 2.020 . S
O349 C346 1.256 . S
O350 Co330 2.062 . S
O350 C346 1.255 . S
O351 C331 1.259 . S
O351 Co332 2.021 . S
H352 C343 0.930 . S
H353 C342 0.931 . S
O354 Co330 2.117 . S
O354 C331 1.258 . S
O355 Co330 2.020 . S
O355 C357 1.256 . S
O356 Co332 2.062 . S
O356 C357 1.255 . S
C357 O355 1.256 . S
C357 O356 1.255 . S
H358 C337 0.931 . S
H359 C345 0.931 . S
Co360 N365 2.057 . S
Co360 O377 2.021 . S
Co360 O380 2.062 . S
Co360 O384 2.117 . S
Co360 O385 2.020 . S
C361 O381 1.259 . S
C361 O384 1.258 . S
Co362 N371 2.057 . S
Co362 O378 2.117 . S
Co362 O379 2.020 . S
Co362 O381 2.021 . S
Co362 O386 2.062 . S
C363 N365 1.316 . S
C363 N366 1.347 . S
C363 H368 0.931 . S
C364 N365 1.375 . S
C364 C367 1.350 . S
C364 H369 0.930 . S
N365 Co360 2.057 . S
N365 C363 1.316 . S
N365 C364 1.375 . S
N366 C363 1.347 . S
N366 C367 1.373 . S
C367 C364 1.350 . S
C367 N366 1.373 . S
C367 H388 0.931 . S
H368 C363 0.931 . S
H369 C364 0.930 . S
C370 O377 1.259 . S
C370 O378 1.258 . S
N371 Co362 2.057 . S
N371 C372 1.316 . S
N371 C373 1.375 . S
C372 N371 1.316 . S
C372 N374 1.347 . S
C372 H383 0.931 . S
C373 N371 1.375 . S
C373 C375 1.350 . S
C373 H382 0.930 . S
N374 C372 1.347 . S
N374 C375 1.373 . S
C375 C373 1.350 . S
C375 N374 1.373 . S
C375 H389 0.931 . S
C376 O379 1.256 . S
C376 O380 1.255 . S
O377 Co360 2.021 . S
O377 C370 1.259 . S
O378 Co362 2.117 . S
O378 C370 1.258 . S
O379 Co362 2.020 . S
O379 C376 1.256 . S
O380 Co360 2.062 . S
O380 C376 1.255 . S
O381 C361 1.259 . S
O381 Co362 2.021 . S
H382 C373 0.930 . S
H383 C372 0.931 . S
O384 Co360 2.117 . S
O384 C361 1.258 . S
O385 Co360 2.020 . S
O385 C387 1.256 . S
O386 Co362 2.062 . S
O386 C387 1.255 . S
C387 O385 1.256 . S
C387 O386 1.255 . S
H388 C367 0.931 . S
H389 C375 0.931 . S
Co390 N395 2.057 . S
Co390 O407 2.021 . S
Co390 O410 2.062 . S
Co390 O414 2.117 . S
Co390 O415 2.020 . S
C391 O411 1.259 . S
C391 O414 1.258 . S
Co392 N401 2.057 . S
Co392 O408 2.117 . S
Co392 O409 2.020 . S
Co392 O411 2.021 . S
Co392 O416 2.062 . S
C393 N395 1.316 . S
C393 N396 1.347 . S
C393 H398 0.931 . S
C394 N395 1.375 . S
C394 C397 1.350 . S
C394 H399 0.930 . S
N395 Co390 2.057 . S
N395 C393 1.316 . S
N395 C394 1.375 . S
N396 C393 1.347 . S
N396 C397 1.373 . S
C397 C394 1.350 . S
C397 N396 1.373 . S
C397 H418 0.931 . S
H398 C393 0.931 . S
H399 C394 0.930 . S
C400 O407 1.259 . S
C400 O408 1.258 . S
N401 Co392 2.057 . S
N401 C402 1.316 . S
N401 C403 1.375 . S
C402 N401 1.316 . S
C402 N404 1.347 . S
C402 H413 0.931 . S
C403 N401 1.375 . S
C403 C405 1.350 . S
C403 H412 0.930 . S
N404 C402 1.347 . S
N404 C405 1.373 . S
C405 C403 1.350 . S
C405 N404 1.373 . S
C405 H419 0.931 . S
C406 O409 1.256 . S
C406 O410 1.255 . S
O407 Co390 2.021 . S
O407 C400 1.259 . S
O408 Co392 2.117 . S
O408 C400 1.258 . S
O409 Co392 2.020 . S
O409 C406 1.256 . S
O410 Co390 2.062 . S
O410 C406 1.255 . S
O411 C391 1.259 . S
O411 Co392 2.021 . S
H412 C403 0.930 . S
H413 C402 0.931 . S
O414 Co390 2.117 . S
O414 C391 1.258 . S
O415 Co390 2.020 . S
O415 C417 1.256 . S
O416 Co392 2.062 . S
O416 C417 1.255 . S
C417 O415 1.256 . S
C417 O416 1.255 . S
H418 C397 0.931 . S
H419 C405 0.931 . S
Co420 N425 2.057 . S
Co420 O437 2.021 . S
Co420 O440 2.062 . S
Co420 O444 2.117 . S
Co420 O445 2.020 . S
C421 O441 1.259 . S
C421 O444 1.258 . S
Co422 N431 2.057 . S
Co422 O438 2.117 . S
Co422 O439 2.020 . S
Co422 O441 2.021 . S
Co422 O446 2.062 . S
C423 N425 1.316 . S
C423 N426 1.347 . S
C423 H428 0.931 . S
C424 N425 1.375 . S
C424 C427 1.350 . S
C424 H429 0.930 . S
N425 Co420 2.057 . S
N425 C423 1.316 . S
N425 C424 1.375 . S
N426 C423 1.347 . S
N426 C427 1.373 . S
C427 C424 1.350 . S
C427 N426 1.373 . S
C427 H448 0.931 . S
H428 C423 0.931 . S
H429 C424 0.930 . S
C430 O437 1.259 . S
C430 O438 1.258 . S
N431 Co422 2.057 . S
N431 C432 1.316 . S
N431 C433 1.375 . S
C432 N431 1.316 . S
C432 N434 1.347 . S
C432 H443 0.931 . S
C433 N431 1.375 . S
C433 C435 1.350 . S
C433 H442 0.930 . S
N434 C432 1.347 . S
N434 C435 1.373 . S
C435 C433 1.350 . S
C435 N434 1.373 . S
C435 H449 0.931 . S
C436 O439 1.256 . S
C436 O440 1.255 . S
O437 Co420 2.021 . S
O437 C430 1.259 . S
O438 Co422 2.117 . S
O438 C430 1.258 . S
O439 Co422 2.020 . S
O439 C436 1.256 . S
O440 Co420 2.062 . S
O440 C436 1.255 . S
O441 C421 1.259 . S
O441 Co422 2.021 . S
H442 C433 0.930 . S
H443 C432 0.931 . S
O444 Co420 2.117 . S
O444 C421 1.258 . S
O445 Co420 2.020 . S
O445 C447 1.256 . S
O446 Co422 2.062 . S
O446 C447 1.255 . S
C447 O445 1.256 . S
C447 O446 1.255 . S
H448 C427 0.931 . S
H449 C435 0.931 . S
Co450 N455 2.057 . S
Co450 O467 2.021 . S
Co450 O470 2.062 . S
Co450 O474 2.117 . S
Co450 O475 2.020 . S
C451 O471 1.259 . S
C451 O474 1.258 . S
Co452 N461 2.057 . S
Co452 O468 2.117 . S
Co452 O469 2.020 . S
Co452 O471 2.021 . S
Co452 O476 2.062 . S
C453 N455 1.316 . S
C453 N456 1.347 . S
C453 H458 0.931 . S
C454 N455 1.375 . S
C454 C457 1.350 . S
C454 H459 0.930 . S
N455 Co450 2.057 . S
N455 C453 1.316 . S
N455 C454 1.375 . S
N456 C453 1.347 . S
N456 C457 1.373 . S
C457 C454 1.350 . S
C457 N456 1.373 . S
C457 H478 0.931 . S
H458 C453 0.931 . S
H459 C454 0.930 . S
C460 O467 1.259 . S
C460 O468 1.258 . S
N461 Co452 2.057 . S
N461 C462 1.316 . S
N461 C463 1.375 . S
C462 N461 1.316 . S
C462 N464 1.347 . S
C462 H473 0.931 . S
C463 N461 1.375 . S
C463 C465 1.350 . S
C463 H472 0.930 . S
N464 C462 1.347 . S
N464 C465 1.373 . S
C465 C463 1.350 . S
C465 N464 1.373 . S
C465 H479 0.931 . S
C466 O469 1.256 . S
C466 O470 1.255 . S
O467 Co450 2.021 . S
O467 C460 1.259 . S
O468 Co452 2.117 . S
O468 C460 1.258 . S
O469 Co452 2.020 . S
O469 C466 1.256 . S
O470 Co450 2.062 . S
O470 C466 1.255 . S
O471 C451 1.259 . S
O471 Co452 2.021 . S
H472 C463 0.930 . S
H473 C462 0.931 . S
O474 Co450 2.117 . S
O474 C451 1.258 . S
O475 Co450 2.020 . S
O475 C477 1.256 . S
O476 Co452 2.062 . S
O476 C477 1.255 . S
C477 O475 1.256 . S
C477 O476 1.255 . S
H478 C457 0.931 . S
H479 C465 0.931 . S
Co480 N485 2.057 . S
Co480 O497 2.021 . S
Co480 O500 2.062 . S
Co480 O504 2.117 . S
Co480 O505 2.020 . S
C481 O501 1.259 . S
C481 O504 1.258 . S
Co482 N491 2.057 . S
Co482 O498 2.117 . S
Co482 O499 2.020 . S
Co482 O501 2.021 . S
Co482 O506 2.062 . S
C483 N485 1.316 . S
C483 N486 1.347 . S
C483 H488 0.931 . S
C484 N485 1.375 . S
C484 C487 1.350 . S
C484 H489 0.930 . S
N485 Co480 2.057 . S
N485 C483 1.316 . S
N485 C484 1.375 . S
N486 C483 1.347 . S
N486 C487 1.373 . S
C487 C484 1.350 . S
C487 N486 1.373 . S
C487 H508 0.931 . S
H488 C483 0.931 . S
H489 C484 0.930 . S
C490 O497 1.259 . S
C490 O498 1.258 . S
N491 Co482 2.057 . S
N491 C492 1.316 . S
N491 C493 1.375 . S
C492 N491 1.316 . S
C492 N494 1.347 . S
C492 H503 0.931 . S
C493 N491 1.375 . S
C493 C495 1.350 . S
C493 H502 0.930 . S
N494 C492 1.347 . S
N494 C495 1.373 . S
C495 C493 1.350 . S
C495 N494 1.373 . S
C495 H509 0.931 . S
C496 O499 1.256 . S
C496 O500 1.255 . S
O497 Co480 2.021 . S
O497 C490 1.259 . S
O498 Co482 2.117 . S
O498 C490 1.258 . S
O499 Co482 2.020 . S
O499 C496 1.256 . S
O500 Co480 2.062 . S
O500 C496 1.255 . S
O501 C481 1.259 . S
O501 Co482 2.021 . S
H502 C493 0.930 . S
H503 C492 0.931 . S
O504 Co480 2.117 . S
O504 C481 1.258 . S
O505 Co480 2.020 . S
O505 C507 1.256 . S
O506 Co482 2.062 . S
O506 C507 1.255 . S
C507 O505 1.256 . S
C507 O506 1.255 . S
H508 C487 0.931 . S
H509 C495 0.931 . S
Co510 N515 2.057 . S
Co510 O527 2.021 . S
Co510 O530 2.062 . S
Co510 O534 2.117 . S
Co510 O535 2.020 . S
C511 O531 1.259 . S
C511 O534 1.258 . S
Co512 N521 2.057 . S
Co512 O528 2.117 . S
Co512 O529 2.020 . S
Co512 O531 2.021 . S
Co512 O536 2.062 . S
C513 N515 1.316 . S
C513 N516 1.347 . S
C513 H518 0.931 . S
C514 N515 1.375 . S
C514 C517 1.350 . S
C514 H519 0.930 . S
N515 Co510 2.057 . S
N515 C513 1.316 . S
N515 C514 1.375 . S
N516 C513 1.347 . S
N516 C517 1.373 . S
C517 C514 1.350 . S
C517 N516 1.373 . S
C517 H538 0.931 . S
H518 C513 0.931 . S
H519 C514 0.930 . S
C520 O527 1.259 . S
C520 O528 1.258 . S
N521 Co512 2.057 . S
N521 C522 1.316 . S
N521 C523 1.375 . S
C522 N521 1.316 . S
C522 N524 1.347 . S
C522 H533 0.931 . S
C523 N521 1.375 . S
C523 C525 1.350 . S
C523 H532 0.930 . S
N524 C522 1.347 . S
N524 C525 1.373 . S
C525 C523 1.350 . S
C525 N524 1.373 . S
C525 H539 0.931 . S
C526 O529 1.256 . S
C526 O530 1.255 . S
O527 Co510 2.021 . S
O527 C520 1.259 . S
O528 Co512 2.117 . S
O528 C520 1.258 . S
O529 Co512 2.020 . S
O529 C526 1.256 . S
O530 Co510 2.062 . S
O530 C526 1.255 . S
O531 C511 1.259 . S
O531 Co512 2.021 . S
H532 C523 0.930 . S
H533 C522 0.931 . S
O534 Co510 2.117 . S
O534 C511 1.258 . S
O535 Co510 2.020 . S
O535 C537 1.256 . S
O536 Co512 2.062 . S
O536 C537 1.255 . S
C537 O535 1.256 . S
C537 O536 1.255 . S
H538 C517 0.931 . S
H539 C525 0.931 . S
Co540 N545 2.057 . S
Co540 O557 2.021 . S
Co540 O560 2.062 . S
Co540 O564 2.117 . S
Co540 O565 2.020 . S
C541 O561 1.259 . S
C541 O564 1.258 . S
Co542 N551 2.057 . S
Co542 O558 2.117 . S
Co542 O559 2.020 . S
Co542 O561 2.021 . S
Co542 O566 2.062 . S
C543 N545 1.316 . S
C543 N546 1.347 . S
C543 H548 0.931 . S
C544 N545 1.375 . S
C544 C547 1.350 . S
C544 H549 0.930 . S
N545 Co540 2.057 . S
N545 C543 1.316 . S
N545 C544 1.375 . S
N546 C543 1.347 . S
N546 C547 1.373 . S
C547 C544 1.350 . S
C547 N546 1.373 . S
C547 H568 0.931 . S
H548 C543 0.931 . S
H549 C544 0.930 . S
C550 O557 1.259 . S
C550 O558 1.258 . S
N551 Co542 2.057 . S
N551 C552 1.316 . S
N551 C553 1.375 . S
C552 N551 1.316 . S
C552 N554 1.347 . S
C552 H563 0.931 . S
C553 N551 1.375 . S
C553 C555 1.350 . S
C553 H562 0.930 . S
N554 C552 1.347 . S
N554 C555 1.373 . S
C555 C553 1.350 . S
C555 N554 1.373 . S
C555 H569 0.931 . S
C556 O559 1.256 . S
C556 O560 1.255 . S
O557 Co540 2.021 . S
O557 C550 1.259 . S
O558 Co542 2.117 . S
O558 C550 1.258 . S
O559 Co542 2.020 . S
O559 C556 1.256 . S
O560 Co540 2.062 . S
O560 C556 1.255 . S
O561 C541 1.259 . S
O561 Co542 2.021 . S
H562 C553 0.930 . S
H563 C552 0.931 . S
O564 Co540 2.117 . S
O564 C541 1.258 . S
O565 Co540 2.020 . S
O565 C567 1.256 . S
O566 Co542 2.062 . S
O566 C567 1.255 . S
C567 O565 1.256 . S
C567 O566 1.255 . S
H568 C547 0.931 . S
H569 C555 0.931 . S
Co570 N575 2.057 . S
Co570 O587 2.021 . S
Co570 O590 2.062 . S
Co570 O594 2.117 . S
Co570 O595 2.020 . S
C571 O591 1.259 . S
C571 O594 1.258 . S
Co572 N581 2.057 . S
Co572 O588 2.117 . S
Co572 O589 2.020 . S
Co572 O591 2.021 . S
Co572 O596 2.062 . S
C573 N575 1.316 . S
C573 N576 1.347 . S
C573 H578 0.931 . S
C574 N575 1.375 . S
C574 C577 1.350 . S
C574 H579 0.930 . S
N575 Co570 2.057 . S
N575 C573 1.316 . S
N575 C574 1.375 . S
N576 C573 1.347 . S
N576 C577 1.373 . S
C577 C574 1.350 . S
C577 N576 1.373 . S
C577 H598 0.931 . S
H578 C573 0.931 . S
H579 C574 0.930 . S
C580 O587 1.259 . S
C580 O588 1.258 . S
N581 Co572 2.057 . S
N581 C582 1.316 . S
N581 C583 1.375 . S
C582 N581 1.316 . S
C582 N584 1.347 . S
C582 H593 0.931 . S
C583 N581 1.375 . S
C583 C585 1.350 . S
C583 H592 0.930 . S
N584 C582 1.347 . S
N584 C585 1.373 . S
C585 C583 1.350 . S
C585 N584 1.373 . S
C585 H599 0.931 . S
C586 O589 1.256 . S
C586 O590 1.255 . S
O587 Co570 2.021 . S
O587 C580 1.259 . S
O588 Co572 2.117 . S
O588 C580 1.258 . S
O589 Co572 2.020 . S
O589 C586 1.256 . S
O590 Co570 2.062 . S
O590 C586 1.255 . S
O591 C571 1.259 . S
O591 Co572 2.021 . S
H592 C583 0.930 . S
H593 C582 0.931 . S
O594 Co570 2.117 . S
O594 C571 1.258 . S
O595 Co570 2.020 . S
O595 C597 1.256 . S
O596 Co572 2.062 . S
O596 C597 1.255 . S
C597 O595 1.256 . S
C597 O596 1.255 . S
H598 C577 0.931 . S
H599 C585 0.931 . S
Co600 N605 2.057 . S
Co600 O617 2.021 . S
Co600 O620 2.062 . S
Co600 O624 2.117 . S
Co600 O625 2.020 . S
C601 O621 1.259 . S
C601 O624 1.258 . S
Co602 N611 2.057 . S
Co602 O618 2.117 . S
Co602 O619 2.020 . S
Co602 O621 2.021 . S
Co602 O626 2.062 . S
C603 N605 1.316 . S
C603 N606 1.347 . S
C603 H608 0.931 . S
C604 N605 1.375 . S
C604 C607 1.350 . S
C604 H609 0.930 . S
N605 Co600 2.057 . S
N605 C603 1.316 . S
N605 C604 1.375 . S
N606 C603 1.347 . S
N606 C607 1.373 . S
C607 C604 1.350 . S
C607 N606 1.373 . S
C607 H628 0.931 . S
H608 C603 0.931 . S
H609 C604 0.930 . S
C610 O617 1.259 . S
C610 O618 1.258 . S
N611 Co602 2.057 . S
N611 C612 1.316 . S
N611 C613 1.375 . S
C612 N611 1.316 . S
C612 N614 1.347 . S
C612 H623 0.931 . S
C613 N611 1.375 . S
C613 C615 1.350 . S
C613 H622 0.930 . S
N614 C612 1.347 . S
N614 C615 1.373 . S
C615 C613 1.350 . S
C615 N614 1.373 . S
C615 H629 0.931 . S
C616 O619 1.256 . S
C616 O620 1.255 . S
O617 Co600 2.021 . S
O617 C610 1.259 . S
O618 Co602 2.117 . S
O618 C610 1.258 . S
O619 Co602 2.020 . S
O619 C616 1.256 . S
O620 Co600 2.062 . S
O620 C616 1.255 . S
O621 C601 1.259 . S
O621 Co602 2.021 . S
H622 C613 0.930 . S
H623 C612 0.931 . S
O624 Co600 2.117 . S
O624 C601 1.258 . S
O625 Co600 2.020 . S
O625 C627 1.256 . S
O626 Co602 2.062 . S
O626 C627 1.255 . S
C627 O625 1.256 . S
C627 O626 1.255 . S
H628 C607 0.931 . S
H629 C615 0.931 . S
Co630 N635 2.057 . S
Co630 O647 2.021 . S
Co630 O650 2.062 . S
Co630 O654 2.117 . S
Co630 O655 2.020 . S
C631 O651 1.259 . S
C631 O654 1.258 . S
Co632 N641 2.057 . S
Co632 O648 2.117 . S
Co632 O649 2.020 . S
Co632 O651 2.021 . S
Co632 O656 2.062 . S
C633 N635 1.316 . S
C633 N636 1.347 . S
C633 H638 0.931 . S
C634 N635 1.375 . S
C634 C637 1.350 . S
C634 H639 0.930 . S
N635 Co630 2.057 . S
N635 C633 1.316 . S
N635 C634 1.375 . S
N636 C633 1.347 . S
N636 C637 1.373 . S
C637 C634 1.350 . S
C637 N636 1.373 . S
C637 H658 0.931 . S
H638 C633 0.931 . S
H639 C634 0.930 . S
C640 O647 1.259 . S
C640 O648 1.258 . S
N641 Co632 2.057 . S
N641 C642 1.316 . S
N641 C643 1.375 . S
C642 N641 1.316 . S
C642 N644 1.347 . S
C642 H653 0.931 . S
C643 N641 1.375 . S
C643 C645 1.350 . S
C643 H652 0.930 . S
N644 C642 1.347 . S
N644 C645 1.373 . S
C645 C643 1.350 . S
C645 N644 1.373 . S
C645 H659 0.931 . S
C646 O649 1.256 . S
C646 O650 1.255 . S
O647 Co630 2.021 . S
O647 C640 1.259 . S
O648 Co632 2.117 . S
O648 C640 1.258 . S
O649 Co632 2.020 . S
O649 C646 1.256 . S
O650 Co630 2.062 . S
O650 C646 1.255 . S
O651 C631 1.259 . S
O651 Co632 2.021 . S
H652 C643 0.930 . S
H653 C642 0.931 . S
O654 Co630 2.117 . S
O654 C631 1.258 . S
O655 Co630 2.020 . S
O655 C657 1.256 . S
O656 Co632 2.062 . S
O656 C657 1.255 . S
C657 O655 1.256 . S
C657 O656 1.255 . S
H658 C637 0.931 . S
H659 C645 0.931 . S
Co660 N665 2.057 . S
Co660 O677 2.021 . S
Co660 O680 2.062 . S
Co660 O684 2.117 . S
Co660 O685 2.020 . S
C661 O681 1.259 . S
C661 O684 1.258 . S
Co662 N671 2.057 . S
Co662 O678 2.117 . S
Co662 O679 2.020 . S
Co662 O681 2.021 . S
Co662 O686 2.062 . S
C663 N665 1.316 . S
C663 N666 1.347 . S
C663 H668 0.931 . S
C664 N665 1.375 . S
C664 C667 1.350 . S
C664 H669 0.930 . S
N665 Co660 2.057 . S
N665 C663 1.316 . S
N665 C664 1.375 . S
N666 C663 1.347 . S
N666 C667 1.373 . S
C667 C664 1.350 . S
C667 N666 1.373 . S
C667 H688 0.931 . S
H668 C663 0.931 . S
H669 C664 0.930 . S
C670 O677 1.259 . S
C670 O678 1.258 . S
N671 Co662 2.057 . S
N671 C672 1.316 . S
N671 C673 1.375 . S
C672 N671 1.316 . S
C672 N674 1.347 . S
C672 H683 0.931 . S
C673 N671 1.375 . S
C673 C675 1.350 . S
C673 H682 0.930 . S
N674 C672 1.347 . S
N674 C675 1.373 . S
C675 C673 1.350 . S
C675 N674 1.373 . S
C675 H689 0.931 . S
C676 O679 1.256 . S
C676 O680 1.255 . S
O677 Co660 2.021 . S
O677 C670 1.259 . S
O678 Co662 2.117 . S
O678 C670 1.258 . S
O679 Co662 2.020 . S
O679 C676 1.256 . S
O680 Co660 2.062 . S
O680 C676 1.255 . S
O681 C661 1.259 . S
O681 Co662 2.021 . S
H682 C673 0.930 . S
H683 C672 0.931 . S
O684 Co660 2.117 . S
O684 C661 1.258 . S
O685 Co660 2.020 . S
O685 C687 1.256 . S
O686 Co662 2.062 . S
O686 C687 1.255 . S
C687 O685 1.256 . S
C687 O686 1.255 . S
H688 C667 0.931 . S
H689 C675 0.931 . S
Co690 N695 2.057 . S
Co690 O707 2.021 . S
Co690 O710 2.062 . S
Co690 O714 2.117 . S
Co690 O715 2.020 . S
C691 O711 1.259 . S
C691 O714 1.258 . S
Co692 N701 2.057 . S
Co692 O708 2.117 . S
Co692 O709 2.020 . S
Co692 O711 2.021 . S
Co692 O716 2.062 . S
C693 N695 1.316 . S
C693 N696 1.347 . S
C693 H698 0.931 . S
C694 N695 1.375 . S
C694 C697 1.350 . S
C694 H699 0.930 . S
N695 Co690 2.057 . S
N695 C693 1.316 . S
N695 C694 1.375 . S
N696 C693 1.347 . S
N696 C697 1.373 . S
C697 C694 1.350 . S
C697 N696 1.373 . S
C697 H718 0.931 . S
H698 C693 0.931 . S
H699 C694 0.930 . S
C700 O707 1.259 . S
C700 O708 1.258 . S
N701 Co692 2.057 . S
N701 C702 1.316 . S
N701 C703 1.375 . S
C702 N701 1.316 . S
C702 N704 1.347 . S
C702 H713 0.931 . S
C703 N701 1.375 . S
C703 C705 1.350 . S
C703 H712 0.930 . S
N704 C702 1.347 . S
N704 C705 1.373 . S
C705 C703 1.350 . S
C705 N704 1.373 . S
C705 H719 0.931 . S
C706 O709 1.256 . S
C706 O710 1.255 . S
O707 Co690 2.021 . S
O707 C700 1.259 . S
O708 Co692 2.117 . S
O708 C700 1.258 . S
O709 Co692 2.020 . S
O709 C706 1.256 . S
O710 Co690 2.062 . S
O710 C706 1.255 . S
O711 C691 1.259 . S
O711 Co692 2.021 . S
H712 C703 0.930 . S
H713 C702 0.931 . S
O714 Co690 2.117 . S
O714 C691 1.258 . S
O715 Co690 2.020 . S
O715 C717 1.256 . S
O716 Co692 2.062 . S
O716 C717 1.255 . S
C717 O715 1.256 . S
C717 O716 1.255 . S
H718 C697 0.931 . S
H719 C705 0.931 . S
Co720 N725 2.057 . S
Co720 O737 2.021 . S
Co720 O740 2.062 . S
Co720 O744 2.117 . S
Co720 O745 2.020 . S
C721 O741 1.259 . S
C721 O744 1.258 . S
Co722 N731 2.057 . S
Co722 O738 2.117 . S
Co722 O739 2.020 . S
Co722 O741 2.021 . S
Co722 O746 2.062 . S
C723 N725 1.316 . S
C723 N726 1.347 . S
C723 H728 0.931 . S
C724 N725 1.375 . S
C724 C727 1.350 . S
C724 H729 0.930 . S
N725 Co720 2.057 . S
N725 C723 1.316 . S
N725 C724 1.375 . S
N726 C723 1.347 . S
N726 C727 1.373 . S
C727 C724 1.350 . S
C727 N726 1.373 . S
C727 H748 0.931 . S
H728 C723 0.931 . S
H729 C724 0.930 . S
C730 O737 1.259 . S
C730 O738 1.258 . S
N731 Co722 2.057 . S
N731 C732 1.316 . S
N731 C733 1.375 . S
C732 N731 1.316 . S
C732 N734 1.347 . S
C732 H743 0.931 . S
C733 N731 1.375 . S
C733 C735 1.350 . S
C733 H742 0.930 . S
N734 C732 1.347 . S
N734 C735 1.373 . S
C735 C733 1.350 . S
C735 N734 1.373 . S
C735 H749 0.931 . S
C736 O739 1.256 . S
C736 O740 1.255 . S
O737 Co720 2.021 . S
O737 C730 1.259 . S
O738 Co722 2.117 . S
O738 C730 1.258 . S
O739 Co722 2.020 . S
O739 C736 1.256 . S
O740 Co720 2.062 . S
O740 C736 1.255 . S
O741 C721 1.259 . S
O741 Co722 2.021 . S
H742 C733 0.930 . S
H743 C732 0.931 . S
O744 Co720 2.117 . S
O744 C721 1.258 . S
O745 Co720 2.020 . S
O745 C747 1.256 . S
O746 Co722 2.062 . S
O746 C747 1.255 . S
C747 O745 1.256 . S
C747 O746 1.255 . S
H748 C727 0.931 . S
H749 C735 0.931 . S
Co750 N755 2.057 . S
Co750 O767 2.021 . S
Co750 O770 2.062 . S
Co750 O774 2.117 . S
Co750 O775 2.020 . S
C751 O771 1.259 . S
C751 O774 1.258 . S
Co752 N761 2.057 . S
Co752 O768 2.117 . S
Co752 O769 2.020 . S
Co752 O771 2.021 . S
Co752 O776 2.062 . S
C753 N755 1.316 . S
C753 N756 1.347 . S
C753 H758 0.931 . S
C754 N755 1.375 . S
C754 C757 1.350 . S
C754 H759 0.930 . S
N755 Co750 2.057 . S
N755 C753 1.316 . S
N755 C754 1.375 . S
N756 C753 1.347 . S
N756 C757 1.373 . S
C757 C754 1.350 . S
C757 N756 1.373 . S
C757 H778 0.931 . S
H758 C753 0.931 . S
H759 C754 0.930 . S
C760 O767 1.259 . S
C760 O768 1.258 . S
N761 Co752 2.057 . S
N761 C762 1.316 . S
N761 C763 1.375 . S
C762 N761 1.316 . S
C762 N764 1.347 . S
C762 H773 0.931 . S
C763 N761 1.375 . S
C763 C765 1.350 . S
C763 H772 0.930 . S
N764 C762 1.347 . S
N764 C765 1.373 . S
C765 C763 1.350 . S
C765 N764 1.373 . S
C765 H779 0.931 . S
C766 O769 1.256 . S
C766 O770 1.255 . S
O767 Co750 2.021 . S
O767 C760 1.259 . S
O768 Co752 2.117 . S
O768 C760 1.258 . S
O769 Co752 2.020 . S
O769 C766 1.256 . S
O770 Co750 2.062 . S
O770 C766 1.255 . S
O771 C751 1.259 . S
O771 Co752 2.021 . S
H772 C763 0.930 . S
H773 C762 0.931 . S
O774 Co750 2.117 . S
O774 C751 1.258 . S
O775 Co750 2.020 . S
O775 C777 1.256 . S
O776 Co752 2.062 . S
O776 C777 1.255 . S
C777 O775 1.256 . S
C777 O776 1.255 . S
H778 C757 0.931 . S
H779 C765 0.931 . S
Co780 N785 2.057 . S
Co780 O797 2.021 . S
Co780 O800 2.062 . S
Co780 O804 2.117 . S
Co780 O805 2.020 . S
C781 O801 1.259 . S
C781 O804 1.258 . S
Co782 N791 2.057 . S
Co782 O798 2.117 . S
Co782 O799 2.020 . S
Co782 O801 2.021 . S
Co782 O806 2.062 . S
C783 N785 1.316 . S
C783 N786 1.347 . S
C783 H788 0.931 . S
C784 N785 1.375 . S
C784 C787 1.350 . S
C784 H789 0.930 . S
N785 Co780 2.057 . S
N785 C783 1.316 . S
N785 C784 1.375 . S
N786 C783 1.347 . S
N786 C787 1.373 . S
C787 C784 1.350 . S
C787 N786 1.373 . S
C787 H808 0.931 . S
H788 C783 0.931 . S
H789 C784 0.930 . S
C790 O797 1.259 . S
C790 O798 1.258 . S
N791 Co782 2.057 . S
N791 C792 1.316 . S
N791 C793 1.375 . S
C792 N791 1.316 . S
C792 N794 1.347 . S
C792 H803 0.931 . S
C793 N791 1.375 . S
C793 C795 1.350 . S
C793 H802 0.930 . S
N794 C792 1.347 . S
N794 C795 1.373 . S
C795 C793 1.350 . S
C795 N794 1.373 . S
C795 H809 0.931 . S
C796 O799 1.256 . S
C796 O800 1.255 . S
O797 Co780 2.021 . S
O797 C790 1.259 . S
O798 Co782 2.117 . S
O798 C790 1.258 . S
O799 Co782 2.020 . S
O799 C796 1.256 . S
O800 Co780 2.062 . S
O800 C796 1.255 . S
O801 C781 1.259 . S
O801 Co782 2.021 . S
H802 C793 0.930 . S
H803 C792 0.931 . S
O804 Co780 2.117 . S
O804 C781 1.258 . S
O805 Co780 2.020 . S
O805 C807 1.256 . S
O806 Co782 2.062 . S
O806 C807 1.255 . S
C807 O805 1.256 . S
C807 O806 1.255 . S
H808 C787 0.931 . S
H809 C795 0.931 . S
Co810 N815 2.057 . S
Co810 O827 2.021 . S
Co810 O830 2.062 . S
Co810 O834 2.117 . S
Co810 O835 2.020 . S
C811 O831 1.259 . S
C811 O834 1.258 . S
Co812 N821 2.057 . S
Co812 O828 2.117 . S
Co812 O829 2.020 . S
Co812 O831 2.021 . S
Co812 O836 2.062 . S
C813 N815 1.316 . S
C813 N816 1.347 . S
C813 H818 0.931 . S
C814 N815 1.375 . S
C814 C817 1.350 . S
C814 H819 0.930 . S
N815 Co810 2.057 . S
N815 C813 1.316 . S
N815 C814 1.375 . S
N816 C813 1.347 . S
N816 C817 1.373 . S
C817 C814 1.350 . S
C817 N816 1.373 . S
C817 H838 0.931 . S
H818 C813 0.931 . S
H819 C814 0.930 . S
C820 O827 1.259 . S
C820 O828 1.258 . S
N821 Co812 2.057 . S
N821 C822 1.316 . S
N821 C823 1.375 . S
C822 N821 1.316 . S
C822 N824 1.347 . S
C822 H833 0.931 . S
C823 N821 1.375 . S
C823 C825 1.350 . S
C823 H832 0.930 . S
N824 C822 1.347 . S
N824 C825 1.373 . S
C825 C823 1.350 . S
C825 N824 1.373 . S
C825 H839 0.931 . S
C826 O829 1.256 . S
C826 O830 1.255 . S
O827 Co810 2.021 . S
O827 C820 1.259 . S
O828 Co812 2.117 . S
O828 C820 1.258 . S
O829 Co812 2.020 . S
O829 C826 1.256 . S
O830 Co810 2.062 . S
O830 C826 1.255 . S
O831 C811 1.259 . S
O831 Co812 2.021 . S
H832 C823 0.930 . S
H833 C822 0.931 . S
O834 Co810 2.117 . S
O834 C811 1.258 . S
O835 Co810 2.020 . S
O835 C837 1.256 . S
O836 Co812 2.062 . S
O836 C837 1.255 . S
C837 O835 1.256 . S
C837 O836 1.255 . S
H838 C817 0.931 . S
H839 C825 0.931 . S
Co840 N845 2.057 . S
Co840 O857 2.021 . S
Co840 O860 2.062 . S
Co840 O864 2.117 . S
Co840 O865 2.020 . S
C841 O861 1.259 . S
C841 O864 1.258 . S
Co842 N851 2.057 . S
Co842 O858 2.117 . S
Co842 O859 2.020 . S
Co842 O861 2.021 . S
Co842 O866 2.062 . S
C843 N845 1.316 . S
C843 N846 1.347 . S
C843 H848 0.931 . S
C844 N845 1.375 . S
C844 C847 1.350 . S
C844 H849 0.930 . S
N845 Co840 2.057 . S
N845 C843 1.316 . S
N845 C844 1.375 . S
N846 C843 1.347 . S
N846 C847 1.373 . S
C847 C844 1.350 . S
C847 N846 1.373 . S
C847 H868 0.931 . S
H848 C843 0.931 . S
H849 C844 0.930 . S
C850 O857 1.259 . S
C850 O858 1.258 . S
N851 Co842 2.057 . S
N851 C852 1.316 . S
N851 C853 1.375 . S
C852 N851 1.316 . S
C852 N854 1.347 . S
C852 H863 0.931 . S
C853 N851 1.375 . S
C853 C855 1.350 . S
C853 H862 0.930 . S
N854 C852 1.347 . S
N854 C855 1.373 . S
C855 C853 1.350 . S
C855 N854 1.373 . S
C855 H869 0.931 . S
C856 O859 1.256 . S
C856 O860 1.255 . S
O857 Co840 2.021 . S
O857 C850 1.259 . S
O858 Co842 2.117 . S
O858 C850 1.258 . S
O859 Co842 2.020 . S
O859 C856 1.256 . S
O860 Co840 2.062 . S
O860 C856 1.255 . S
O861 C841 1.259 . S
O861 Co842 2.021 . S
H862 C853 0.930 . S
H863 C852 0.931 . S
O864 Co840 2.117 . S
O864 C841 1.258 . S
O865 Co840 2.020 . S
O865 C867 1.256 . S
O866 Co842 2.062 . S
O866 C867 1.255 . S
C867 O865 1.256 . S
C867 O866 1.255 . S
H868 C847 0.931 . S
H869 C855 0.931 . S
Co870 N875 2.057 . S
Co870 O887 2.021 . S
Co870 O890 2.062 . S
Co870 O894 2.117 . S
Co870 O895 2.020 . S
C871 O891 1.259 . S
C871 O894 1.258 . S
Co872 N881 2.057 . S
Co872 O888 2.117 . S
Co872 O889 2.020 . S
Co872 O891 2.021 . S
Co872 O896 2.062 . S
C873 N875 1.316 . S
C873 N876 1.347 . S
C873 H878 0.931 . S
C874 N875 1.375 . S
C874 C877 1.350 . S
C874 H879 0.930 . S
N875 Co870 2.057 . S
N875 C873 1.316 . S
N875 C874 1.375 . S
N876 C873 1.347 . S
N876 C877 1.373 . S
C877 C874 1.350 . S
C877 N876 1.373 . S
C877 H898 0.931 . S
H878 C873 0.931 . S
H879 C874 0.930 . S
C880 O887 1.259 . S
C880 O888 1.258 . S
N881 Co872 2.057 . S
N881 C882 1.316 . S
N881 C883 1.375 . S
C882 N881 1.316 . S
C882 N884 1.347 . S
C882 H893 0.931 . S
C883 N881 1.375 . S
C883 C885 1.350 . S
C883 H892 0.930 . S
N884 C882 1.347 . S
N884 C885 1.373 . S
C885 C883 1.350 . S
C885 N884 1.373 . S
C885 H899 0.931 . S
C886 O889 1.256 . S
C886 O890 1.255 . S
O887 Co870 2.021 . S
O887 C880 1.259 . S
O888 Co872 2.117 . S
O888 C880 1.258 . S
O889 Co872 2.020 . S
O889 C886 1.256 . S
O890 Co870 2.062 . S
O890 C886 1.255 . S
O891 C871 1.259 . S
O891 Co872 2.021 . S
H892 C883 0.930 . S
H893 C882 0.931 . S
O894 Co870 2.117 . S
O894 C871 1.258 . S
O895 Co870 2.020 . S
O895 C897 1.256 . S
O896 Co872 2.062 . S
O896 C897 1.255 . S
C897 O895 1.256 . S
C897 O896 1.255 . S
H898 C877 0.931 . S
H899 C885 0.931 . S
Co900 N905 2.057 . S
Co900 O917 2.021 . S
Co900 O920 2.062 . S
Co900 O924 2.117 . S
Co900 O925 2.020 . S
C901 O921 1.259 . S
C901 O924 1.258 . S
Co902 N911 2.057 . S
Co902 O918 2.117 . S
Co902 O919 2.020 . S
Co902 O921 2.021 . S
Co902 O926 2.062 . S
C903 N905 1.316 . S
C903 N906 1.347 . S
C903 H908 0.931 . S
C904 N905 1.375 . S
C904 C907 1.350 . S
C904 H909 0.930 . S
N905 Co900 2.057 . S
N905 C903 1.316 . S
N905 C904 1.375 . S
N906 C903 1.347 . S
N906 C907 1.373 . S
C907 C904 1.350 . S
C907 N906 1.373 . S
C907 H928 0.931 . S
H908 C903 0.931 . S
H909 C904 0.930 . S
C910 O917 1.259 . S
C910 O918 1.258 . S
N911 Co902 2.057 . S
N911 C912 1.316 . S
N911 C913 1.375 . S
C912 N911 1.316 . S
C912 N914 1.347 . S
C912 H923 0.931 . S
C913 N911 1.375 . S
C913 C915 1.350 . S
C913 H922 0.930 . S
N914 C912 1.347 . S
N914 C915 1.373 . S
C915 C913 1.350 . S
C915 N914 1.373 . S
C915 H929 0.931 . S
C916 O919 1.256 . S
C916 O920 1.255 . S
O917 Co900 2.021 . S
O917 C910 1.259 . S
O918 Co902 2.117 . S
O918 C910 1.258 . S
O919 Co902 2.020 . S
O919 C916 1.256 . S
O920 Co900 2.062 . S
O920 C916 1.255 . S
O921 C901 1.259 . S
O921 Co902 2.021 . S
H922 C913 0.930 . S
H923 C912 0.931 . S
O924 Co900 2.117 . S
O924 C901 1.258 . S
O925 Co900 2.020 . S
O925 C927 1.256 . S
O926 Co902 2.062 . S
O926 C927 1.255 . S
C927 O925 1.256 . S
C927 O926 1.255 . S
H928 C907 0.931 . S
H929 C915 0.931 . S
Co930 N935 2.057 . S
Co930 O947 2.021 . S
Co930 O950 2.062 . S
Co930 O954 2.117 . S
Co930 O955 2.020 . S
C931 O951 1.259 . S
C931 O954 1.258 . S
Co932 N941 2.057 . S
Co932 O948 2.117 . S
Co932 O949 2.020 . S
Co932 O951 2.021 . S
Co932 O956 2.062 . S
C933 N935 1.316 . S
C933 N936 1.347 . S
C933 H938 0.931 . S
C934 N935 1.375 . S
C934 C937 1.350 . S
C934 H939 0.930 . S
N935 Co930 2.057 . S
N935 C933 1.316 . S
N935 C934 1.375 . S
N936 C933 1.347 . S
N936 C937 1.373 . S
C937 C934 1.350 . S
C937 N936 1.373 . S
C937 H958 0.931 . S
H938 C933 0.931 . S
H939 C934 0.930 . S
C940 O947 1.259 . S
C940 O948 1.258 . S
N941 Co932 2.057 . S
N941 C942 1.316 . S
N941 C943 1.375 . S
C942 N941 1.316 . S
C942 N944 1.347 . S
C942 H953 0.931 . S
C943 N941 1.375 . S
C943 C945 1.350 . S
C943 H952 0.930 . S
N944 C942 1.347 . S
N944 C945 1.373 . S
C945 C943 1.350 . S
C945 N944 1.373 . S
C945 H959 0.931 . S
C946 O949 1.256 . S
C946 O950 1.255 . S
O947 Co930 2.021 . S
O947 C940 1.259 . S
O948 Co932 2.117 . S
O948 C940 1.258 . S
O949 Co932 2.020 . S
O949 C946 1.256 . S
O950 Co930 2.062 . S
O950 C946 1.255 . S
O951 C931 1.259 . S
O951 Co932 2.021 . S
H952 C943 0.930 . S
H953 C942 0.931 . S
O954 Co930 2.117 . S
O954 C931 1.258 . S
O955 Co930 2.020 . S
O955 C957 1.256 . S
O956 Co932 2.062 . S
O956 C957 1.255 . S
C957 O955 1.256 . S
C957 O956 1.255 . S
H958 C937 0.931 . S
H959 C945 0.931 . S
H960 C966 0.930 . S
H961 C970 0.930 . S
H962 C975 0.929 . S
H963 C973 0.929 . S
H964 C968 0.929 . S
H965 C974 0.929 . S
C966 H960 0.930 . S
C966 C967 1.367 . S
C966 C974 1.378 . S
C967 C966 1.367 . S
C967 C975 1.433 . S
C968 H964 0.929 . S
C968 C970 1.378 . S
C968 C972 1.350 . S
C969 C972 1.463 . S
C969 C974 1.350 . S
C969 N977 1.427 . S
C970 H961 0.930 . S
C970 C968 1.378 . S
C970 C971 1.367 . S
C971 C970 1.367 . S
C971 C973 1.433 . S
C972 C968 1.350 . S
C972 C969 1.463 . S
C972 N976 1.427 . S
C973 H963 0.929 . S
C973 C971 1.433 . S
C973 N976 1.384 . S
C974 H965 0.929 . S
C974 C966 1.378 . S
C974 C969 1.350 . S
C975 H962 0.929 . S
C975 C967 1.433 . S
C975 N977 1.384 . S
N976 C972 1.427 . S
N976 C973 1.384 . S
N977 C969 1.427 . S
N977 C975 1.384 . S
H978 C984 0.930 . S
H979 C988 0.930 . S
H980 C993 0.929 . S
H981 C991 0.929 . S
H982 C986 0.929 1_455 S
H983 C992 0.929 . S
C984 H978 0.930 . S
C984 C985 1.367 . S
C984 C992 1.378 . S
C985 C984 1.367 . S
C985 C993 1.433 . S
C986 H982 0.929 1_655 S
C986 C988 1.378 . S
C986 C990 1.360 . S
C987 C990 1.434 1_455 S
C987 C992 1.350 . S
C987 N995 1.427 . S
C988 H979 0.930 . S
C988 C986 1.378 . S
C988 C989 1.367 . S
C989 C988 1.367 . S
C989 C991 1.433 . S
C990 C986 1.360 . S
C990 C987 1.434 1_655 S
C990 N994 1.446 . S
C991 H981 0.929 . S
C991 C989 1.433 . S
C991 N994 1.384 . S
C992 H983 0.929 . S
C992 C984 1.378 . S
C992 C987 1.350 . S
C993 H980 0.929 . S
C993 C985 1.433 . S
C993 N995 1.384 . S
N994 C990 1.446 . S
N994 C991 1.384 . S
N995 C987 1.427 . S
N995 C993 1.384 . S
H996 C1002 0.930 . S
H997 C1006 0.930 . S
H998 C1011 0.929 . S
H999 C1009 0.929 . S
H1000 C1004 0.929 . S
H1001 C1010 0.929 . S
C1002 H996 0.930 . S
C1002 C1003 1.367 . S
C1002 C1010 1.378 . S
C1003 C1002 1.367 . S
C1003 C1011 1.433 . S
C1004 H1000 0.929 . S
C1004 C1006 1.378 . S
C1004 C1008 1.350 . S
C1005 C1008 1.463 . S
C1005 C1010 1.350 . S
C1005 N1013 1.427 . S
C1006 H997 0.930 . S
C1006 C1004 1.378 . S
C1006 C1007 1.367 . S
C1007 C1006 1.367 . S
C1007 C1009 1.433 . S
C1008 C1004 1.350 . S
C1008 C1005 1.463 . S
C1008 N1012 1.427 . S
C1009 H999 0.929 . S
C1009 C1007 1.433 . S
C1009 N1012 1.384 . S
C1010 H1001 0.929 . S
C1010 C1002 1.378 . S
C1010 C1005 1.350 . S
C1011 H998 0.929 . S
C1011 C1003 1.433 . S
C1011 N1013 1.384 . S
N1012 C1008 1.427 . S
N1012 C1009 1.384 . S
N1013 C1005 1.427 . S
N1013 C1011 1.384 . S
H1014 C1020 0.930 1_565 S
H1015 C1024 0.930 . S
H1016 C1029 0.929 . S
H1017 C1027 0.929 . S
H1018 C1022 0.929 . S
H1019 C1028 0.929 . S
C1020 H1014 0.930 1_545 S
C1020 C1021 1.367 . S
C1020 C1028 1.378 . S
C1021 C1020 1.367 . S
C1021 C1029 1.433 . S
C1022 H1018 0.929 . S
C1022 C1024 1.378 . S
C1022 C1026 1.350 . S
C1023 C1026 1.463 . S
C1023 C1028 1.350 . S
C1023 N1031 1.427 . S
C1024 H1015 0.930 . S
C1024 C1022 1.378 . S
C1024 C1025 1.367 . S
C1025 C1024 1.367 . S
C1025 C1027 1.433 . S
C1026 C1022 1.350 . S
C1026 C1023 1.463 . S
C1026 N1030 1.427 . S
C1027 H1017 0.929 . S
C1027 C1025 1.433 . S
C1027 N1030 1.384 . S
C1028 H1019 0.929 . S
C1028 C1020 1.378 . S
C1028 C1023 1.350 . S
C1029 H1016 0.929 . S
C1029 C1021 1.433 . S
C1029 N1031 1.384 . S
N1030 C1026 1.427 . S
N1030 C1027 1.384 . S
N1031 C1023 1.427 . S
N1031 C1029 1.384 . S
H1032 C1038 0.930 . S
H1033 C1042 0.930 . S
H1034 C1047 0.929 . S
H1035 C1045 0.929 . S
H1036 C1040 0.929 . S
H1037 C1046 0.929 . S
C1038 H1032 0.930 . S
C1038 C1039 1.367 . S
C1038 C1046 1.378 . S
C1039 C1038 1.367 . S
C1039 C1047 1.433 . S
C1040 H1036 0.929 . S
C1040 C1042 1.378 . S
C1040 C1044 1.350 . S
C1041 C1044 1.463 . S
C1041 C1046 1.350 . S
C1041 N1049 1.427 . S
C1042 H1033 0.930 . S
C1042 C1040 1.378 . S
C1042 C1043 1.367 . S
C1043 C1042 1.367 . S
C1043 C1045 1.433 . S
C1044 C1040 1.350 . S
C1044 C1041 1.463 . S
C1044 N1048 1.427 . S
C1045 H1035 0.929 . S
C1045 C1043 1.433 . S
C1045 N1048 1.384 . S
C1046 H1037 0.929 . S
C1046 C1038 1.378 . S
C1046 C1041 1.350 . S
C1047 H1034 0.929 . S
C1047 C1039 1.433 . S
C1047 N1049 1.384 . S
N1048 C1044 1.427 . S
N1048 C1045 1.384 . S
N1049 C1041 1.427 . S
N1049 C1047 1.384 . S
H1050 C1056 0.930 1_545 S
H1051 C1060 0.930 . S
H1052 C1065 0.929 . S
H1053 C1063 0.929 . S
H1054 C1058 0.929 . S
H1055 C1064 0.929 . S
C1056 H1050 0.930 1_565 S
C1056 C1057 1.367 . S
C1056 C1064 1.378 . S
C1057 C1056 1.367 . S
C1057 C1065 1.433 . S
C1058 H1054 0.929 . S
C1058 C1060 1.378 . S
C1058 C1062 1.350 . S
C1059 C1062 1.463 . S
C1059 C1064 1.350 . S
C1059 N1067 1.427 . S
C1060 H1051 0.930 . S
C1060 C1058 1.378 . S
C1060 C1061 1.367 . S
C1061 C1060 1.367 . S
C1061 C1063 1.433 . S
C1062 C1058 1.350 . S
C1062 C1059 1.463 . S
C1062 N1066 1.427 . S
C1063 H1053 0.929 . S
C1063 C1061 1.433 . S
C1063 N1066 1.384 . S
C1064 H1055 0.929 . S
C1064 C1056 1.378 . S
C1064 C1059 1.350 . S
C1065 H1052 0.929 . S
C1065 C1057 1.433 . S
C1065 N1067 1.384 . S
N1066 C1062 1.427 . S
N1066 C1063 1.384 . S
N1067 C1059 1.427 . S
N1067 C1065 1.384 . S
H1068 C1074 0.930 . S
H1069 C1078 0.930 . S
H1070 C1083 0.929 . S
H1071 C1081 0.929 . S
H1072 C1076 0.929 . S
H1073 C1082 0.929 . S
C1074 H1068 0.930 . S
C1074 C1075 1.367 . S
C1074 C1082 1.378 . S
C1075 C1074 1.367 . S
C1075 C1083 1.433 . S
C1076 H1072 0.929 . S
C1076 C1078 1.378 . S
C1076 C1080 1.350 . S
C1077 C1080 1.463 . S
C1077 C1082 1.350 . S
C1077 N1085 1.427 . S
C1078 H1069 0.930 . S
C1078 C1076 1.378 . S
C1078 C1079 1.367 . S
C1079 C1078 1.367 . S
C1079 C1081 1.433 . S
C1080 C1076 1.350 . S
C1080 C1077 1.463 . S
C1080 N1084 1.427 . S
C1081 H1071 0.929 . S
C1081 C1079 1.433 . S
C1081 N1084 1.384 . S
C1082 H1073 0.929 . S
C1082 C1074 1.378 . S
C1082 C1077 1.350 . S
C1083 H1070 0.929 . S
C1083 C1075 1.433 . S
C1083 N1085 1.384 . S
N1084 C1080 1.427 . S
N1084 C1081 1.384 . S
N1085 C1077 1.427 . S
N1085 C1083 1.384 . S
H1086 C1092 0.930 . S
H1087 C1096 0.930 . S
H1088 C1101 0.929 . S
H1089 C1099 0.929 . S
H1090 C1094 0.929 . S
H1091 C1100 0.929 . S
C1092 H1086 0.930 . S
C1092 C1093 1.367 . S
C1092 C1100 1.378 . S
C1093 C1092 1.367 . S
C1093 C1101 1.433 . S
C1094 H1090 0.929 . S
C1094 C1096 1.378 . S
C1094 C1098 1.350 . S
C1095 C1098 1.463 1_455 S
C1095 C1100 1.350 . S
C1095 N1103 1.427 . S
C1096 H1087 0.930 . S
C1096 C1094 1.378 . S
C1096 C1097 1.367 . S
C1097 C1096 1.367 . S
C1097 C1099 1.433 . S
C1098 C1094 1.350 . S
C1098 C1095 1.463 1_655 S
C1098 N1102 1.427 . S
C1099 H1089 0.929 . S
C1099 C1097 1.433 . S
C1099 N1102 1.384 . S
C1100 H1091 0.929 . S
C1100 C1092 1.378 . S
C1100 C1095 1.350 . S
C1101 H1088 0.929 . S
C1101 C1093 1.433 . S
C1101 N1103 1.384 . S
N1102 C1098 1.427 . S
N1102 C1099 1.384 . S
N1103 C1095 1.427 . S
N1103 C1101 1.384 . S
H1104 C1110 0.930 . S
H1105 C1114 0.930 . S
H1106 C1119 0.929 . S
H1107 C1117 0.929 . S
H1108 C1112 0.929 . S
H1109 C1118 0.929 . S
C1110 H1104 0.930 . S
C1110 C1111 1.367 . S
C1110 C1118 1.378 . S
C1111 C1110 1.367 . S
C1111 C1119 1.433 . S
C1112 H1108 0.929 . S
C1112 C1114 1.378 . S
C1112 C1116 1.350 . S
C1113 C1116 1.463 . S
C1113 C1118 1.350 . S
C1113 N1121 1.427 . S
C1114 H1105 0.930 . S
C1114 C1112 1.378 . S
C1114 C1115 1.367 . S
C1115 C1114 1.367 . S
C1115 C1117 1.433 . S
C1116 C1112 1.350 . S
C1116 C1113 1.463 . S
C1116 N1120 1.427 . S
C1117 H1107 0.929 . S
C1117 C1115 1.433 . S
C1117 N1120 1.384 . S
C1118 H1109 0.929 . S
C1118 C1110 1.378 . S
C1118 C1113 1.350 . S
C1119 H1106 0.929 . S
C1119 C1111 1.433 . S
C1119 N1121 1.384 . S
N1120 C1116 1.427 . S
N1120 C1117 1.384 . S
N1121 C1113 1.427 . S
N1121 C1119 1.384 . S
H1122 C1128 0.930 . S
H1123 C1132 0.930 . S
H1124 C1137 0.929 . S
H1125 C1135 0.929 . S
H1126 C1130 0.929 1_655 S
H1127 C1136 0.929 . S
C1128 H1122 0.930 . S
C1128 C1129 1.367 . S
C1128 C1136 1.378 . S
C1129 C1128 1.367 . S
C1129 C1137 1.433 . S
C1130 H1126 0.929 1_455 S
C1130 C1132 1.378 . S
C1130 C1134 1.356 . S
C1131 C1134 1.437 1_655 S
C1131 C1136 1.350 . S
C1131 N1139 1.427 . S
C1132 H1123 0.930 . S
C1132 C1130 1.378 . S
C1132 C1133 1.367 . S
C1133 C1132 1.367 . S
C1133 C1135 1.433 . S
C1134 C1130 1.356 . S
C1134 C1131 1.437 1_455 S
C1134 N1138 1.447 . S
C1135 H1125 0.929 . S
C1135 C1133 1.433 . S
C1135 N1138 1.384 . S
C1136 H1127 0.929 . S
C1136 C1128 1.378 . S
C1136 C1131 1.350 . S
C1137 H1124 0.929 . S
C1137 C1129 1.433 . S
C1137 N1139 1.384 . S
N1138 C1134 1.447 . S
N1138 C1135 1.384 . S
N1139 C1131 1.427 . S
N1139 C1137 1.384 . S
H1140 C1146 0.930 . S
H1141 C1150 0.930 . S
H1142 C1155 0.929 . S
H1143 C1153 0.929 . S
H1144 C1148 0.929 . S
H1145 C1154 0.929 . S
C1146 H1140 0.930 . S
C1146 C1147 1.367 . S
C1146 C1154 1.378 . S
C1147 C1146 1.367 . S
C1147 C1155 1.433 . S
C1148 H1144 0.929 . S
C1148 C1150 1.378 . S
C1148 C1152 1.350 . S
C1149 C1152 1.463 . S
C1149 C1154 1.350 . S
C1149 N1157 1.427 . S
C1150 H1141 0.930 . S
C1150 C1148 1.378 . S
C1150 C1151 1.367 . S
C1151 C1150 1.367 . S
C1151 C1153 1.433 . S
C1152 C1148 1.350 . S
C1152 C1149 1.463 . S
C1152 N1156 1.427 . S
C1153 H1143 0.929 . S
C1153 C1151 1.433 . S
C1153 N1156 1.384 . S
C1154 H1145 0.929 . S
C1154 C1146 1.378 . S
C1154 C1149 1.350 . S
C1155 H1142 0.929 . S
C1155 C1147 1.433 . S
C1155 N1157 1.384 . S
N1156 C1152 1.427 . S
N1156 C1153 1.384 . S
N1157 C1149 1.427 . S
N1157 C1155 1.384 . S
H1158 C1164 0.930 . S
H1159 C1168 0.930 . S
H1160 C1173 0.929 1_545 S
H1161 C1171 0.929 . S
H1162 C1166 0.929 . S
H1163 C1172 0.929 . S
C1164 H1158 0.930 . S
C1164 C1165 1.367 . S
C1164 C1172 1.378 . S
C1165 C1164 1.367 . S
C1165 C1173 1.433 . S
C1166 H1162 0.929 . S
C1166 C1168 1.378 . S
C1166 C1170 1.350 . S
C1167 C1170 1.463 . S
C1167 C1172 1.350 . S
C1167 N1175 1.427 . S
C1168 H1159 0.930 . S
C1168 C1166 1.378 . S
C1168 C1169 1.367 . S
C1169 C1168 1.367 . S
C1169 C1171 1.433 . S
C1170 C1166 1.350 . S
C1170 C1167 1.463 . S
C1170 N1174 1.427 . S
C1171 H1161 0.929 . S
C1171 C1169 1.433 . S
C1171 N1174 1.384 . S
C1172 H1163 0.929 . S
C1172 C1164 1.378 . S
C1172 C1167 1.350 . S
C1173 H1160 0.929 1_565 S
C1173 C1165 1.433 . S
C1173 N1175 1.384 . S
N1174 C1170 1.427 . S
N1174 C1171 1.384 . S
N1175 C1167 1.427 . S
N1175 C1173 1.384 . S
H1176 C1182 0.930 . S
H1177 C1186 0.930 . S
H1178 C1191 0.929 . S
H1179 C1189 0.929 . S
H1180 C1184 0.929 . S
H1181 C1190 0.929 . S
C1182 H1176 0.930 . S
C1182 C1183 1.367 . S
C1182 C1190 1.378 . S
C1183 C1182 1.367 . S
C1183 C1191 1.433 . S
C1184 H1180 0.929 . S
C1184 C1186 1.378 . S
C1184 C1188 1.350 . S
C1185 C1188 1.463 . S
C1185 C1190 1.350 . S
C1185 N1193 1.427 . S
C1186 H1177 0.930 . S
C1186 C1184 1.378 . S
C1186 C1187 1.367 . S
C1187 C1186 1.367 . S
C1187 C1189 1.433 . S
C1188 C1184 1.350 . S
C1188 C1185 1.463 . S
C1188 N1192 1.427 . S
C1189 H1179 0.929 . S
C1189 C1187 1.433 . S
C1189 N1192 1.384 . S
C1190 H1181 0.929 . S
C1190 C1182 1.378 . S
C1190 C1185 1.350 . S
C1191 H1178 0.929 . S
C1191 C1183 1.433 . S
C1191 N1193 1.384 . S
N1192 C1188 1.427 . S
N1192 C1189 1.384 . S
N1193 C1185 1.427 . S
N1193 C1191 1.384 . S
H1194 C1200 0.930 . S
H1195 C1204 0.930 1_565 S
H1196 C1209 0.929 . S
H1197 C1207 0.929 . S
H1198 C1202 0.929 . S
H1199 C1208 0.929 . S
C1200 H1194 0.930 . S
C1200 C1201 1.367 . S
C1200 C1208 1.378 . S
C1201 C1200 1.367 . S
C1201 C1209 1.433 . S
C1202 H1198 0.929 . S
C1202 C1204 1.378 . S
C1202 C1206 1.350 . S
C1203 C1206 1.463 . S
C1203 C1208 1.350 . S
C1203 N1211 1.427 . S
C1204 H1195 0.930 1_545 S
C1204 C1202 1.378 . S
C1204 C1205 1.367 . S
C1205 C1204 1.367 . S
C1205 C1207 1.433 . S
C1206 C1202 1.350 . S
C1206 C1203 1.463 . S
C1206 N1210 1.427 . S
C1207 H1197 0.929 . S
C1207 C1205 1.433 . S
C1207 N1210 1.384 . S
C1208 H1199 0.929 . S
C1208 C1200 1.378 . S
C1208 C1203 1.350 . S
C1209 H1196 0.929 . S
C1209 C1201 1.433 . S
C1209 N1211 1.384 . S
N1210 C1206 1.427 . S
N1210 C1207 1.384 . S
N1211 C1203 1.427 . S
N1211 C1209 1.384 . S
H1212 C1218 0.930 . S
H1213 C1222 0.930 . S
H1214 C1227 0.929 . S
H1215 C1225 0.929 . S
H1216 C1220 0.929 . S
H1217 C1226 0.929 . S
C1218 H1212 0.930 . S
C1218 C1219 1.367 . S
C1218 C1226 1.378 . S
C1219 C1218 1.367 . S
C1219 C1227 1.433 . S
C1220 H1216 0.929 . S
C1220 C1222 1.378 . S
C1220 C1224 1.350 . S
C1221 C1224 1.463 . S
C1221 C1226 1.350 . S
C1221 N1229 1.427 . S
C1222 H1213 0.930 . S
C1222 C1220 1.378 . S
C1222 C1223 1.367 . S
C1223 C1222 1.367 . S
C1223 C1225 1.433 . S
C1224 C1220 1.350 . S
C1224 C1221 1.463 . S
C1224 N1228 1.427 . S
C1225 H1215 0.929 . S
C1225 C1223 1.433 . S
C1225 N1228 1.384 . S
C1226 H1217 0.929 . S
C1226 C1218 1.378 . S
C1226 C1221 1.350 . S
C1227 H1214 0.929 . S
C1227 C1219 1.433 . S
C1227 N1229 1.384 . S
N1228 C1224 1.427 . S
N1228 C1225 1.384 . S
N1229 C1221 1.427 . S
N1229 C1227 1.384 . S
H1230 C1236 0.930 . S
H1231 C1240 0.930 . S
H1232 C1245 0.929 . S
H1233 C1243 0.929 . S
H1234 C1238 0.929 . S
H1235 C1244 0.929 . S
C1236 H1230 0.930 . S
C1236 C1237 1.367 . S
C1236 C1244 1.378 . S
C1237 C1236 1.367 . S
C1237 C1245 1.433 . S
C1238 H1234 0.929 . S
C1238 C1240 1.378 . S
C1238 C1242 1.350 . S
C1239 C1242 1.463 1_455 S
C1239 C1244 1.350 . S
C1239 N1247 1.427 . S
C1240 H1231 0.930 . S
C1240 C1238 1.378 . S
C1240 C1241 1.367 . S
C1241 C1240 1.367 . S
C1241 C1243 1.433 . S
C1242 C1238 1.350 . S
C1242 C1239 1.463 1_655 S
C1242 N1246 1.427 . S
C1243 H1233 0.929 . S
C1243 C1241 1.433 . S
C1243 N1246 1.384 . S
C1244 H1235 0.929 . S
C1244 C1236 1.378 . S
C1244 C1239 1.350 . S
C1245 H1232 0.929 . S
C1245 C1237 1.433 . S
C1245 N1247 1.384 . S
N1246 C1242 1.427 . S
N1246 C1243 1.384 . S
N1247 C1239 1.427 . S
N1247 C1245 1.384 . S
H1248 C1254 0.930 . S
H1249 C1258 0.930 . S
H1250 C1263 0.929 . S
H1251 C1261 0.929 . S
H1252 C1256 0.929 . S
H1253 C1262 0.929 . S
C1254 H1248 0.930 . S
C1254 C1255 1.367 . S
C1254 C1262 1.378 . S
C1255 C1254 1.367 . S
C1255 C1263 1.433 . S
C1256 H1252 0.929 . S
C1256 C1258 1.378 . S
C1256 C1260 1.350 . S
C1257 C1260 1.463 . S
C1257 C1262 1.350 . S
C1257 N1265 1.427 . S
C1258 H1249 0.930 . S
C1258 C1256 1.378 . S
C1258 C1259 1.367 . S
C1259 C1258 1.367 . S
C1259 C1261 1.433 . S
C1260 C1256 1.350 . S
C1260 C1257 1.463 . S
C1260 N1264 1.427 . S
C1261 H1251 0.929 . S
C1261 C1259 1.433 . S
C1261 N1264 1.384 . S
C1262 H1253 0.929 . S
C1262 C1254 1.378 . S
C1262 C1257 1.350 . S
C1263 H1250 0.929 . S
C1263 C1255 1.433 . S
C1263 N1265 1.384 . S
N1264 C1260 1.427 . S
N1264 C1261 1.384 . S
N1265 C1257 1.427 . S
N1265 C1263 1.384 . S
H1266 C1272 0.930 . S
H1267 C1276 0.930 . S
H1268 C1281 0.929 . S
H1269 C1279 0.929 . S
H1270 C1274 0.929 . S
H1271 C1280 0.929 . S
C1272 H1266 0.930 . S
C1272 C1273 1.367 . S
C1272 C1280 1.378 . S
C1273 C1272 1.367 . S
C1273 C1281 1.433 . S
C1274 H1270 0.929 . S
C1274 C1276 1.378 . S
C1274 C1278 1.350 . S
C1275 C1278 1.463 . S
C1275 C1280 1.350 . S
C1275 N1283 1.427 . S
C1276 H1267 0.930 . S
C1276 C1274 1.378 . S
C1276 C1277 1.367 . S
C1277 C1276 1.367 . S
C1277 C1279 1.433 . S
C1278 C1274 1.350 . S
C1278 C1275 1.463 . S
C1278 N1282 1.427 . S
C1279 H1269 0.929 . S
C1279 C1277 1.433 . S
C1279 N1282 1.384 . S
C1280 H1271 0.929 . S
C1280 C1272 1.378 . S
C1280 C1275 1.350 . S
C1281 H1268 0.929 . S
C1281 C1273 1.433 . S
C1281 N1283 1.384 . S
N1282 C1278 1.427 . S
N1282 C1279 1.384 . S
N1283 C1275 1.427 . S
N1283 C1281 1.384 . S
H1284 C1290 0.930 . S
H1285 C1294 0.930 . S
H1286 C1299 0.929 . S
H1287 C1297 0.929 . S
H1288 C1292 0.929 . S
H1289 C1298 0.929 . S
C1290 H1284 0.930 . S
C1290 C1291 1.367 . S
C1290 C1298 1.378 . S
C1291 C1290 1.367 . S
C1291 C1299 1.433 . S
C1292 H1288 0.929 . S
C1292 C1294 1.378 . S
C1292 C1296 1.350 . S
C1293 C1296 1.463 . S
C1293 C1298 1.350 . S
C1293 N1301 1.427 . S
C1294 H1285 0.930 . S
C1294 C1292 1.378 . S
C1294 C1295 1.367 . S
C1295 C1294 1.367 . S
C1295 C1297 1.433 . S
C1296 C1292 1.350 . S
C1296 C1293 1.463 . S
C1296 N1300 1.427 . S
C1297 H1287 0.929 . S
C1297 C1295 1.433 . S
C1297 N1300 1.384 . S
C1298 H1289 0.929 . S
C1298 C1290 1.378 . S
C1298 C1293 1.350 . S
C1299 H1286 0.929 . S
C1299 C1291 1.433 . S
C1299 N1301 1.384 . S
N1300 C1296 1.427 . S
N1300 C1297 1.384 . S
N1301 C1293 1.427 . S
N1301 C1299 1.384 . S
H1302 C1308 0.930 . S
H1303 C1312 0.930 . S
H1304 C1317 0.929 . S
H1305 C1315 0.929 . S
H1306 C1310 0.929 . S
H1307 C1316 0.929 1_455 S
C1308 H1302 0.930 . S
C1308 C1309 1.367 . S
C1308 C1316 1.378 . S
C1309 C1308 1.367 . S
C1309 C1317 1.433 . S
C1310 H1306 0.929 . S
C1310 C1312 1.378 . S
C1310 C1314 1.350 . S
C1311 C1314 1.463 . S
C1311 C1316 1.350 1_455 S
C1311 N1319 1.427 1_455 S
C1312 H1303 0.930 . S
C1312 C1310 1.378 . S
C1312 C1313 1.367 . S
C1313 C1312 1.367 . S
C1313 C1315 1.433 . S
C1314 C1310 1.350 . S
C1314 C1311 1.463 . S
C1314 N1318 1.427 . S
C1315 H1305 0.929 . S
C1315 C1313 1.433 . S
C1315 N1318 1.384 . S
C1316 H1307 0.929 1_655 S
C1316 C1308 1.378 . S
C1316 C1311 1.350 1_655 S
C1317 H1304 0.929 . S
C1317 C1309 1.433 . S
C1317 N1319 1.384 . S
N1318 C1314 1.427 . S
N1318 C1315 1.384 . S
N1319 C1311 1.427 1_655 S
N1319 C1317 1.384 . S
H1320 C1326 0.930 . S
H1321 C1330 0.930 . S
H1322 C1335 0.929 . S
H1323 C1333 0.929 . S
H1324 C1328 0.929 . S
H1325 C1334 0.929 . S
C1326 H1320 0.930 . S
C1326 C1327 1.367 . S
C1326 C1334 1.378 . S
C1327 C1326 1.367 . S
C1327 C1335 1.433 . S
C1328 H1324 0.929 . S
C1328 C1330 1.378 . S
C1328 C1332 1.350 . S
C1329 C1332 1.463 . S
C1329 C1334 1.350 . S
C1329 N1337 1.427 . S
C1330 H1321 0.930 . S
C1330 C1328 1.378 . S
C1330 C1331 1.367 . S
C1331 C1330 1.367 . S
C1331 C1333 1.433 . S
C1332 C1328 1.350 . S
C1332 C1329 1.463 . S
C1332 N1336 1.427 . S
C1333 H1323 0.929 . S
C1333 C1331 1.433 . S
C1333 N1336 1.384 . S
C1334 H1325 0.929 . S
C1334 C1326 1.378 . S
C1334 C1329 1.350 . S
C1335 H1322 0.929 . S
C1335 C1327 1.433 . S
C1335 N1337 1.384 . S
N1336 C1332 1.427 . S
N1336 C1333 1.384 . S
N1337 C1329 1.427 . S
N1337 C1335 1.384 . S
H1338 C1344 0.930 . S
H1339 C1348 0.930 . S
H1340 C1353 0.929 . S
H1341 C1351 0.929 . S
H1342 C1346 0.929 . S
H1343 C1352 0.925 . S
C1344 H1338 0.930 . S
C1344 C1345 1.367 . S
C1344 C1352 1.378 . S
C1345 C1344 1.367 . S
C1345 C1353 1.433 . S
C1346 H1342 0.929 . S
C1346 C1348 1.378 1_455 S
C1346 C1350 1.350 . S
C1347 C1350 1.463 . S
C1347 C1352 1.350 . S
C1347 N1355 1.427 . S
C1348 H1339 0.930 . S
C1348 C1346 1.378 1_655 S
C1348 C1349 1.367 . S
C1349 C1348 1.367 . S
C1349 C1351 1.433 . S
C1350 C1346 1.350 . S
C1350 C1347 1.463 . S
C1350 N1354 1.427 1_455 S
C1351 H1341 0.929 . S
C1351 C1349 1.433 . S
C1351 N1354 1.384 . S
C1352 H1343 0.925 . S
C1352 C1344 1.378 . S
C1352 C1347 1.350 . S
C1353 H1340 0.929 . S
C1353 C1345 1.433 . S
C1353 N1355 1.384 . S
N1354 C1350 1.427 1_655 S
N1354 C1351 1.384 . S
N1355 C1347 1.427 . S
N1355 C1353 1.384 . S
H1356 C1362 0.930 . S
H1357 C1366 0.930 . S
H1358 C1371 0.929 . S
H1359 C1369 0.929 . S
H1360 C1364 0.929 . S
H1361 C1370 0.929 . S
C1362 H1356 0.930 . S
C1362 C1363 1.367 . S
C1362 C1370 1.378 . S
C1363 C1362 1.367 . S
C1363 C1371 1.433 . S
C1364 H1360 0.929 . S
C1364 C1366 1.378 . S
C1364 C1368 1.350 . S
C1365 C1368 1.463 . S
C1365 C1370 1.350 . S
C1365 N1373 1.427 . S
C1366 H1357 0.930 . S
C1366 C1364 1.378 . S
C1366 C1367 1.367 . S
C1367 C1366 1.367 . S
C1367 C1369 1.433 . S
C1368 C1364 1.350 . S
C1368 C1365 1.463 . S
C1368 N1372 1.427 . S
C1369 H1359 0.929 . S
C1369 C1367 1.433 . S
C1369 N1372 1.384 . S
C1370 H1361 0.929 . S
C1370 C1362 1.378 . S
C1370 C1365 1.350 . S
C1371 H1358 0.929 . S
C1371 C1363 1.433 . S
C1371 N1373 1.384 . S
N1372 C1368 1.427 . S
N1372 C1369 1.384 . S
N1373 C1365 1.427 . S
N1373 C1371 1.384 . S
H1374 C1380 0.930 . S
H1375 C1384 0.930 . S
H1376 C1389 0.929 . S
H1377 C1387 0.929 . S
H1378 C1382 0.929 . S
H1379 C1388 0.929 . S
C1380 H1374 0.930 . S
C1380 C1381 1.367 . S
C1380 C1388 1.378 . S
C1381 C1380 1.367 . S
C1381 C1389 1.433 . S
C1382 H1378 0.929 . S
C1382 C1384 1.378 . S
C1382 C1386 1.350 . S
C1383 C1386 1.463 . S
C1383 C1388 1.350 . S
C1383 N1391 1.427 . S
C1384 H1375 0.930 . S
C1384 C1382 1.378 . S
C1384 C1385 1.367 . S
C1385 C1384 1.367 . S
C1385 C1387 1.433 . S
C1386 C1382 1.350 . S
C1386 C1383 1.463 . S
C1386 N1390 1.427 . S
C1387 H1377 0.929 . S
C1387 C1385 1.433 . S
C1387 N1390 1.384 . S
C1388 H1379 0.929 . S
C1388 C1380 1.378 . S
C1388 C1383 1.350 . S
C1389 H1376 0.929 . S
C1389 C1381 1.433 . S
C1389 N1391 1.384 . S
N1390 C1386 1.427 . S
N1390 C1387 1.384 . S
N1391 C1383 1.427 . S
N1391 C1389 1.384 . S
H1392 C1398 0.930 . S
H1393 C1402 0.930 . S
H1394 C1407 0.929 . S
H1395 C1405 0.929 . S
H1396 C1400 0.929 . S
H1397 C1406 0.929 . S
C1398 H1392 0.930 . S
C1398 C1399 1.367 . S
C1398 C1406 1.378 . S
C1399 C1398 1.367 . S
C1399 C1407 1.433 . S
C1400 H1396 0.929 . S
C1400 C1402 1.378 . S
C1400 C1404 1.350 . S
C1401 C1404 1.463 . S
C1401 C1406 1.350 . S
C1401 N1409 1.427 . S
C1402 H1393 0.930 . S
C1402 C1400 1.378 . S
C1402 C1403 1.367 . S
C1403 C1402 1.367 . S
C1403 C1405 1.433 . S
C1404 C1400 1.350 . S
C1404 C1401 1.463 . S
C1404 N1408 1.427 . S
C1405 H1395 0.929 . S
C1405 C1403 1.433 . S
C1405 N1408 1.384 . S
C1406 H1397 0.929 . S
C1406 C1398 1.378 . S
C1406 C1401 1.350 . S
C1407 H1394 0.929 . S
C1407 C1399 1.433 . S
C1407 N1409 1.384 . S
N1408 C1404 1.427 . S
N1408 C1405 1.384 . S
N1409 C1401 1.427 . S
N1409 C1407 1.384 . S
H1410 C1416 0.930 . S
H1411 C1420 0.930 . S
H1412 C1425 0.929 . S
H1413 C1423 0.929 . S
H1414 C1418 0.929 . S
H1415 C1424 0.929 . S
C1416 H1410 0.930 . S
C1416 C1417 1.367 . S
C1416 C1424 1.378 . S
C1417 C1416 1.367 . S
C1417 C1425 1.433 . S
C1418 H1414 0.929 . S
C1418 C1420 1.378 . S
C1418 C1422 1.350 . S
C1419 C1422 1.463 . S
C1419 C1424 1.350 . S
C1419 N1427 1.427 . S
C1420 H1411 0.930 . S
C1420 C1418 1.378 . S
C1420 C1421 1.367 . S
C1421 C1420 1.367 . S
C1421 C1423 1.433 . S
C1422 C1418 1.350 . S
C1422 C1419 1.463 . S
C1422 N1426 1.427 . S
C1423 H1413 0.929 . S
C1423 C1421 1.433 . S
C1423 N1426 1.384 . S
C1424 H1415 0.929 . S
C1424 C1416 1.378 . S
C1424 C1419 1.350 . S
C1425 H1412 0.929 . S
C1425 C1417 1.433 . S
C1425 N1427 1.384 . S
N1426 C1422 1.427 . S
N1426 C1423 1.384 . S
N1427 C1419 1.427 . S
N1427 C1425 1.384 . S
H1428 C1434 0.930 . S
H1429 C1438 0.930 . S
H1430 C1443 0.929 . S
H1431 C1441 0.929 . S
H1432 C1436 0.929 . S
H1433 C1442 0.929 . S
C1434 H1428 0.930 . S
C1434 C1435 1.367 . S
C1434 C1442 1.378 . S
C1435 C1434 1.367 . S
C1435 C1443 1.433 . S
C1436 H1432 0.929 . S
C1436 C1438 1.378 . S
C1436 C1440 1.350 . S
C1437 C1440 1.463 . S
C1437 C1442 1.350 . S
C1437 N1445 1.427 . S
C1438 H1429 0.930 . S
C1438 C1436 1.378 . S
C1438 C1439 1.367 . S
C1439 C1438 1.367 . S
C1439 C1441 1.433 . S
C1440 C1436 1.350 . S
C1440 C1437 1.463 . S
C1440 N1444 1.427 . S
C1441 H1431 0.929 . S
C1441 C1439 1.433 . S
C1441 N1444 1.384 . S
C1442 H1433 0.929 . S
C1442 C1434 1.378 . S
C1442 C1437 1.350 . S
C1443 H1430 0.929 . S
C1443 C1435 1.433 . S
C1443 N1445 1.384 . S
N1444 C1440 1.427 . S
N1444 C1441 1.384 . S
N1445 C1437 1.427 . S
N1445 C1443 1.384 . S
H1446 C1452 0.930 . S
H1447 C1456 0.930 . S
H1448 C1461 0.929 . S
H1449 C1459 0.929 . S
H1450 C1454 0.929 . S
H1451 C1460 0.916 1_655 S
C1452 H1446 0.930 . S
C1452 C1453 1.367 . S
C1452 C1460 1.378 . S
C1453 C1452 1.367 . S
C1453 C1461 1.433 . S
C1454 H1450 0.929 . S
C1454 C1456 1.378 . S
C1454 C1458 1.350 . S
C1455 C1458 1.463 . S
C1455 C1460 1.350 1_655 S
C1455 N1463 1.427 1_655 S
C1456 H1447 0.930 . S
C1456 C1454 1.378 . S
C1456 C1457 1.367 . S
C1457 C1456 1.367 . S
C1457 C1459 1.433 . S
C1458 C1454 1.350 . S
C1458 C1455 1.463 . S
C1458 N1462 1.427 . S
C1459 H1449 0.929 . S
C1459 C1457 1.433 . S
C1459 N1462 1.384 . S
C1460 H1451 0.916 1_455 S
C1460 C1452 1.378 . S
C1460 C1455 1.350 1_455 S
C1461 H1448 0.929 . S
C1461 C1453 1.433 . S
C1461 N1463 1.384 . S
N1462 C1458 1.427 . S
N1462 C1459 1.384 . S
N1463 C1455 1.427 1_455 S
N1463 C1461 1.384 . S
H1464 C1470 0.930 . S
H1465 C1474 0.930 . S
H1466 C1479 0.929 . S
H1467 C1477 0.929 . S
H1468 C1472 0.929 . S
H1469 C1478 0.929 . S
C1470 H1464 0.930 . S
C1470 C1471 1.367 . S
C1470 C1478 1.378 . S
C1471 C1470 1.367 . S
C1471 C1479 1.433 . S
C1472 H1468 0.929 . S
C1472 C1474 1.378 . S
C1472 C1476 1.350 . S
C1473 C1476 1.463 . S
C1473 C1478 1.350 . S
C1473 N1481 1.427 . S
C1474 H1465 0.930 . S
C1474 C1472 1.378 . S
C1474 C1475 1.367 . S
C1475 C1474 1.367 . S
C1475 C1477 1.433 . S
C1476 C1472 1.350 . S
C1476 C1473 1.463 . S
C1476 N1480 1.427 . S
C1477 H1467 0.929 . S
C1477 C1475 1.433 . S
C1477 N1480 1.384 . S
C1478 H1469 0.929 . S
C1478 C1470 1.378 . S
C1478 C1473 1.350 . S
C1479 H1466 0.929 . S
C1479 C1471 1.433 . S
C1479 N1481 1.384 . S
N1480 C1476 1.427 . S
N1480 C1477 1.384 . S
N1481 C1473 1.427 . S
N1481 C1479 1.384 . S
H1482 C1488 0.930 . S
H1483 C1492 0.930 . S
H1484 C1497 0.929 . S
H1485 C1495 0.929 . S
H1486 C1490 0.929 . S
H1487 C1496 0.929 . S
C1488 H1482 0.930 . S
C1488 C1489 1.367 . S
C1488 C1496 1.378 . S
C1489 C1488 1.367 . S
C1489 C1497 1.433 . S
C1490 H1486 0.929 . S
C1490 C1492 1.378 1_655 S
C1490 C1494 1.350 . S
C1491 C1494 1.463 . S
C1491 C1496 1.350 . S
C1491 N1499 1.427 . S
C1492 H1483 0.930 . S
C1492 C1490 1.378 1_455 S
C1492 C1493 1.367 . S
C1493 C1492 1.367 . S
C1493 C1495 1.433 . S
C1494 C1490 1.350 . S
C1494 C1491 1.463 . S
C1494 N1498 1.427 1_655 S
C1495 H1485 0.929 . S
C1495 C1493 1.433 . S
C1495 N1498 1.384 . S
C1496 H1487 0.929 . S
C1496 C1488 1.378 . S
C1496 C1491 1.350 . S
C1497 H1484 0.929 . S
C1497 C1489 1.433 . S
C1497 N1499 1.384 . S
N1498 C1494 1.427 1_455 S
N1498 C1495 1.384 . S
N1499 C1491 1.427 . S
N1499 C1497 1.384 . S
H1500 C1506 0.930 . S
H1501 C1510 0.930 . S
H1502 C1515 0.929 . S
H1503 C1513 0.929 . S
H1504 C1508 0.929 . S
H1505 C1514 0.929 . S
C1506 H1500 0.930 . S
C1506 C1507 1.367 . S
C1506 C1514 1.378 . S
C1507 C1506 1.367 . S
C1507 C1515 1.433 . S
C1508 H1504 0.929 . S
C1508 C1510 1.378 . S
C1508 C1512 1.350 . S
C1509 C1512 1.463 . S
C1509 C1514 1.350 . S
C1509 N1517 1.427 . S
C1510 H1501 0.930 . S
C1510 C1508 1.378 . S
C1510 C1511 1.367 . S
C1511 C1510 1.367 . S
C1511 C1513 1.433 . S
C1512 C1508 1.350 . S
C1512 C1509 1.463 . S
C1512 N1516 1.427 . S
C1513 H1503 0.929 . S
C1513 C1511 1.433 . S
C1513 N1516 1.384 . S
C1514 H1505 0.929 . S
C1514 C1506 1.378 . S
C1514 C1509 1.350 . S
C1515 H1502 0.929 . S
C1515 C1507 1.433 . S
C1515 N1517 1.384 . S
N1516 C1512 1.427 . S
N1516 C1513 1.384 . S
N1517 C1509 1.427 . S
N1517 C1515 1.384 . S
H1518 C1524 0.930 . S
H1519 C1528 0.930 . S
H1520 C1533 0.929 . S
H1521 C1531 0.929 . S
H1522 C1526 0.929 . S
H1523 C1532 0.929 . S
C1524 H1518 0.930 . S
C1524 C1525 1.367 . S
C1524 C1532 1.378 . S
C1525 C1524 1.367 . S
C1525 C1533 1.433 . S
C1526 H1522 0.929 . S
C1526 C1528 1.378 . S
C1526 C1530 1.350 . S
C1527 C1530 1.463 . S
C1527 C1532 1.350 . S
C1527 N1535 1.427 . S
C1528 H1519 0.930 . S
C1528 C1526 1.378 . S
C1528 C1529 1.367 . S
C1529 C1528 1.367 . S
C1529 C1531 1.433 . S
C1530 C1526 1.350 . S
C1530 C1527 1.463 . S
C1530 N1534 1.427 . S
C1531 H1521 0.929 . S
C1531 C1529 1.433 . S
C1531 N1534 1.384 . S
C1532 H1523 0.929 . S
C1532 C1524 1.378 . S
C1532 C1527 1.350 . S
C1533 H1520 0.929 . S
C1533 C1525 1.433 . S
C1533 N1535 1.384 . S
N1534 C1530 1.427 . S
N1534 C1531 1.384 . S
N1535 C1527 1.427 . S
N1535 C1533 1.384 . S
H1536 C1542 0.930 . S
H1537 C1546 0.930 . S
H1538 C1551 0.929 . S
H1539 C1549 0.929 . S
H1540 C1544 0.929 . S
H1541 C1550 0.929 . S
C1542 H1536 0.930 . S
C1542 C1543 1.367 . S
C1542 C1550 1.378 . S
C1543 C1542 1.367 . S
C1543 C1551 1.433 . S
C1544 H1540 0.929 . S
C1544 C1546 1.378 . S
C1544 C1548 1.350 . S
C1545 C1548 1.463 1_455 S
C1545 C1550 1.350 . S
C1545 N1553 1.427 . S
C1546 H1537 0.930 . S
C1546 C1544 1.378 . S
C1546 C1547 1.367 . S
C1547 C1546 1.367 . S
C1547 C1549 1.433 . S
C1548 C1544 1.350 . S
C1548 C1545 1.463 1_655 S
C1548 N1552 1.427 . S
C1549 H1539 0.929 . S
C1549 C1547 1.433 . S
C1549 N1552 1.384 . S
C1550 H1541 0.929 . S
C1550 C1542 1.378 . S
C1550 C1545 1.350 . S
C1551 H1538 0.929 . S
C1551 C1543 1.433 . S
C1551 N1553 1.384 . S
N1552 C1548 1.427 . S
N1552 C1549 1.384 . S
N1553 C1545 1.427 . S
N1553 C1551 1.384 . S
H1554 C1560 0.930 . S
H1555 C1564 0.930 . S
H1556 C1569 0.929 . S
H1557 C1567 0.929 . S
H1558 C1562 0.929 . S
H1559 C1568 0.929 . S
C1560 H1554 0.930 . S
C1560 C1561 1.367 . S
C1560 C1568 1.378 . S
C1561 C1560 1.367 . S
C1561 C1569 1.433 . S
C1562 H1558 0.929 . S
C1562 C1564 1.378 . S
C1562 C1566 1.350 . S
C1563 C1566 1.463 1_655 S
C1563 C1568 1.350 . S
C1563 N1571 1.427 . S
C1564 H1555 0.930 . S
C1564 C1562 1.378 . S
C1564 C1565 1.367 . S
C1565 C1564 1.367 . S
C1565 C1567 1.433 . S
C1566 C1562 1.350 . S
C1566 C1563 1.463 1_455 S
C1566 N1570 1.427 . S
C1567 H1557 0.929 . S
C1567 C1565 1.433 . S
C1567 N1570 1.384 . S
C1568 H1559 0.929 . S
C1568 C1560 1.378 . S
C1568 C1563 1.350 . S
C1569 H1556 0.929 . S
C1569 C1561 1.433 . S
C1569 N1571 1.384 . S
N1570 C1566 1.427 . S
N1570 C1567 1.384 . S
N1571 C1563 1.427 . S
N1571 C1569 1.384 . S
H1572 C1578 0.930 . S
H1573 C1582 0.930 . S
H1574 C1587 0.929 . S
H1575 C1585 0.929 . S
H1576 C1580 0.929 . S
H1577 C1586 0.929 . S
C1578 H1572 0.930 . S
C1578 C1579 1.367 . S
C1578 C1586 1.378 . S
C1579 C1578 1.367 . S
C1579 C1587 1.433 . S
C1580 H1576 0.929 . S
C1580 C1582 1.378 . S
C1580 C1584 1.350 . S
C1581 C1584 1.463 . S
C1581 C1586 1.350 . S
C1581 N1589 1.427 . S
C1582 H1573 0.930 . S
C1582 C1580 1.378 . S
C1582 C1583 1.367 . S
C1583 C1582 1.367 . S
C1583 C1585 1.433 . S
C1584 C1580 1.350 . S
C1584 C1581 1.463 . S
C1584 N1588 1.427 . S
C1585 H1575 0.929 . S
C1585 C1583 1.433 . S
C1585 N1588 1.384 . S
C1586 H1577 0.929 . S
C1586 C1578 1.378 . S
C1586 C1581 1.350 . S
C1587 H1574 0.929 . S
C1587 C1579 1.433 . S
C1587 N1589 1.384 . S
N1588 C1584 1.427 . S
N1588 C1585 1.384 . S
N1589 C1581 1.427 . S
N1589 C1587 1.384 . S
H1590 C1596 0.930 . S
H1591 C1600 0.930 . S
H1592 C1605 0.929 . S
H1593 C1603 0.929 . S
H1594 C1598 0.929 . S
H1595 C1604 0.929 . S
C1596 H1590 0.930 . S
C1596 C1597 1.367 . S
C1596 C1604 1.378 . S
C1597 C1596 1.367 . S
C1597 C1605 1.433 . S
C1598 H1594 0.929 . S
C1598 C1600 1.378 . S
C1598 C1602 1.350 . S
C1599 C1602 1.463 . S
C1599 C1604 1.350 . S
C1599 N1607 1.427 . S
C1600 H1591 0.930 . S
C1600 C1598 1.378 . S
C1600 C1601 1.367 . S
C1601 C1600 1.367 . S
C1601 C1603 1.433 . S
C1602 C1598 1.350 . S
C1602 C1599 1.463 . S
C1602 N1606 1.427 . S
C1603 H1593 0.929 . S
C1603 C1601 1.433 . S
C1603 N1606 1.384 . S
C1604 H1595 0.929 . S
C1604 C1596 1.378 . S
C1604 C1599 1.350 . S
C1605 H1592 0.929 . S
C1605 C1597 1.433 . S
C1605 N1607 1.384 . S
N1606 C1602 1.427 . S
N1606 C1603 1.384 . S
N1607 C1599 1.427 . S
N1607 C1605 1.384 . S
H1608 C1614 0.930 . S
H1609 C1618 0.930 . S
H1610 C1623 0.929 . S
H1611 C1621 0.929 . S
H1612 C1616 0.929 . S
H1613 C1622 0.929 . S
C1614 H1608 0.930 . S
C1614 C1615 1.367 . S
C1614 C1622 1.378 . S
C1615 C1614 1.367 . S
C1615 C1623 1.433 . S
C1616 H1612 0.929 . S
C1616 C1618 1.378 . S
C1616 C1620 1.350 . S
C1617 C1620 1.463 1_655 S
C1617 C1622 1.350 . S
C1617 N1625 1.427 . S
C1618 H1609 0.930 . S
C1618 C1616 1.378 . S
C1618 C1619 1.367 . S
C1619 C1618 1.367 . S
C1619 C1621 1.433 . S
C1620 C1616 1.350 . S
C1620 C1617 1.463 1_455 S
C1620 N1624 1.427 . S
C1621 H1611 0.929 . S
C1621 C1619 1.433 . S
C1621 N1624 1.384 . S
C1622 H1613 0.929 . S
C1622 C1614 1.378 . S
C1622 C1617 1.350 . S
C1623 H1610 0.929 . S
C1623 C1615 1.433 . S
C1623 N1625 1.384 . S
N1624 C1620 1.427 . S
N1624 C1621 1.384 . S
N1625 C1617 1.427 . S
N1625 C1623 1.384 . S
H1626 C1632 0.930 . S
H1627 C1636 0.930 . S
H1628 C1641 0.929 . S
H1629 C1639 0.929 . S
H1630 C1634 0.929 . S
H1631 C1640 0.929 . S
C1632 H1626 0.930 . S
C1632 C1633 1.367 . S
C1632 C1640 1.378 . S
C1633 C1632 1.367 . S
C1633 C1641 1.433 . S
C1634 H1630 0.929 . S
C1634 C1636 1.378 . S
C1634 C1638 1.350 . S
C1635 C1638 1.463 . S
C1635 C1640 1.350 . S
C1635 N1643 1.427 . S
C1636 H1627 0.930 . S
C1636 C1634 1.378 . S
C1636 C1637 1.367 . S
C1637 C1636 1.367 . S
C1637 C1639 1.433 . S
C1638 C1634 1.350 . S
C1638 C1635 1.463 . S
C1638 N1642 1.427 . S
C1639 H1629 0.929 . S
C1639 C1637 1.433 . S
C1639 N1642 1.384 . S
C1640 H1631 0.929 . S
C1640 C1632 1.378 . S
C1640 C1635 1.350 . S
C1641 H1628 0.929 . S
C1641 C1633 1.433 . S
C1641 N1643 1.384 . S
N1642 C1638 1.427 . S
N1642 C1639 1.384 . S
N1643 C1635 1.427 . S
N1643 C1641 1.384 . S
H1644 C1650 0.930 . S
H1645 C1654 0.930 . S
H1646 C1659 0.929 . S
H1647 C1657 0.929 . S
H1648 C1652 0.929 . S
H1649 C1658 0.929 . S
C1650 H1644 0.930 . S
C1650 C1651 1.367 . S
C1650 C1658 1.378 . S
C1651 C1650 1.367 . S
C1651 C1659 1.433 . S
C1652 H1648 0.929 . S
C1652 C1654 1.378 . S
C1652 C1656 1.350 . S
C1653 C1656 1.463 . S
C1653 C1658 1.350 . S
C1653 N1661 1.427 . S
C1654 H1645 0.930 . S
C1654 C1652 1.378 . S
C1654 C1655 1.367 . S
C1655 C1654 1.367 . S
C1655 C1657 1.433 . S
C1656 C1652 1.350 . S
C1656 C1653 1.463 . S
C1656 N1660 1.427 . S
C1657 H1647 0.929 . S
C1657 C1655 1.433 . S
C1657 N1660 1.384 . S
C1658 H1649 0.929 . S
C1658 C1650 1.378 . S
C1658 C1653 1.350 . S
C1659 H1646 0.929 . S
C1659 C1651 1.433 . S
C1659 N1661 1.384 . S
N1660 C1656 1.427 . S
N1660 C1657 1.384 . S
N1661 C1653 1.427 . S
N1661 C1659 1.384 . S
H1662 C1668 0.930 . S
H1663 C1672 0.930 . S
H1664 C1677 0.929 . S
H1665 C1675 0.929 . S
H1666 C1670 0.929 1_455 S
H1667 C1676 0.929 1_655 S
C1668 H1662 0.930 . S
C1668 C1669 1.367 . S
C1668 C1676 1.378 . S
C1669 C1668 1.367 . S
C1669 C1677 1.433 . S
C1670 H1666 0.929 1_655 S
C1670 C1672 1.378 . S
C1670 C1674 1.350 . S
C1671 C1674 1.463 1_455 S
C1671 C1676 1.350 . S
C1671 N1679 1.427 . S
C1672 H1663 0.930 . S
C1672 C1670 1.378 . S
C1672 C1673 1.367 . S
C1673 C1672 1.367 . S
C1673 C1675 1.433 . S
C1674 C1670 1.350 . S
C1674 C1671 1.463 1_655 S
C1674 N1678 1.427 . S
C1675 H1665 0.929 . S
C1675 C1673 1.433 . S
C1675 N1678 1.384 . S
C1676 H1667 0.929 1_455 S
C1676 C1668 1.378 . S
C1676 C1671 1.350 . S
C1677 H1664 0.929 . S
C1677 C1669 1.433 . S
C1677 N1679 1.384 . S
N1678 C1674 1.427 . S
N1678 C1675 1.384 . S
N1679 C1671 1.427 . S
N1679 C1677 1.384 . S
H1680 C1686 0.930 . S
H1681 C1690 0.930 . S
H1682 C1695 0.929 . S
H1683 C1693 0.929 . S
H1684 C1688 0.929 1_455 S
H1685 C1694 0.929 1_655 S
C1686 H1680 0.930 . S
C1686 C1687 1.367 . S
C1686 C1694 1.378 . S
C1687 C1686 1.367 . S
C1687 C1695 1.433 . S
C1688 H1684 0.929 1_655 S
C1688 C1690 1.378 . S
C1688 C1692 1.350 . S
C1689 C1692 1.463 1_455 S
C1689 C1694 1.350 . S
C1689 N1697 1.427 . S
C1690 H1681 0.930 . S
C1690 C1688 1.378 . S
C1690 C1691 1.367 . S
C1691 C1690 1.367 . S
C1691 C1693 1.433 . S
C1692 C1688 1.350 . S
C1692 C1689 1.463 1_655 S
C1692 N1696 1.427 . S
C1693 H1683 0.929 . S
C1693 C1691 1.433 . S
C1693 N1696 1.384 . S
C1694 H1685 0.929 1_455 S
C1694 C1686 1.378 . S
C1694 C1689 1.350 . S
C1695 H1682 0.929 . S
C1695 C1687 1.433 . S
C1695 N1697 1.384 . S
N1696 C1692 1.427 . S
N1696 C1693 1.384 . S
N1697 C1689 1.427 . S
N1697 C1695 1.384 . S
H1698 C1704 0.930 . S
H1699 C1708 0.930 . S
H1700 C1713 0.929 . S
H1701 C1711 0.929 . S
H1702 C1706 0.929 . S
H1703 C1712 0.929 . S
C1704 H1698 0.930 . S
C1704 C1705 1.367 . S
C1704 C1712 1.378 . S
C1705 C1704 1.367 . S
C1705 C1713 1.433 . S
C1706 H1702 0.929 . S
C1706 C1708 1.378 . S
C1706 C1710 1.350 . S
C1707 C1710 1.463 1_655 S
C1707 C1712 1.350 . S
C1707 N1715 1.427 . S
C1708 H1699 0.930 . S
C1708 C1706 1.378 . S
C1708 C1709 1.367 . S
C1709 C1708 1.367 . S
C1709 C1711 1.433 . S
C1710 C1706 1.350 . S
C1710 C1707 1.463 1_455 S
C1710 N1714 1.427 . S
C1711 H1701 0.929 . S
C1711 C1709 1.433 . S
C1711 N1714 1.384 . S
C1712 H1703 0.929 . S
C1712 C1704 1.378 . S
C1712 C1707 1.350 . S
C1713 H1700 0.929 . S
C1713 C1705 1.433 . S
C1713 N1715 1.384 . S
N1714 C1710 1.427 . S
N1714 C1711 1.384 . S
N1715 C1707 1.427 . S
N1715 C1713 1.384 . S
H1716 C1722 0.930 . S
H1717 C1726 0.930 . S
H1718 C1731 0.929 . S
H1719 C1729 0.929 . S
H1720 C1724 0.929 . S
H1721 C1730 0.929 . S
C1722 H1716 0.930 . S
C1722 C1723 1.367 . S
C1722 C1730 1.378 . S
C1723 C1722 1.367 . S
C1723 C1731 1.433 . S
C1724 H1720 0.929 . S
C1724 C1726 1.378 . S
C1724 C1728 1.350 . S
C1725 C1728 1.463 . S
C1725 C1730 1.350 . S
C1725 N1733 1.427 . S
C1726 H1717 0.930 . S
C1726 C1724 1.378 . S
C1726 C1727 1.367 . S
C1727 C1726 1.367 . S
C1727 C1729 1.433 . S
C1728 C1724 1.350 . S
C1728 C1725 1.463 . S
C1728 N1732 1.427 . S
C1729 H1719 0.929 . S
C1729 C1727 1.433 . S
C1729 N1732 1.384 . S
C1730 H1721 0.929 . S
C1730 C1722 1.378 . S
C1730 C1725 1.350 . S
C1731 H1718 0.929 . S
C1731 C1723 1.433 . S
C1731 N1733 1.384 . S
N1732 C1728 1.427 . S
N1732 C1729 1.384 . S
N1733 C1725 1.427 . S
N1733 C1731 1.384 . S
H1734 C1740 0.930 . S
H1735 C1744 0.930 . S
H1736 C1749 0.929 . S
H1737 C1747 0.929 . S
H1738 C1742 0.929 . S
H1739 C1748 0.929 . S
C1740 H1734 0.930 . S
C1740 C1741 1.367 . S
C1740 C1748 1.378 . S
C1741 C1740 1.367 . S
C1741 C1749 1.433 . S
C1742 H1738 0.929 . S
C1742 C1744 1.378 . S
C1742 C1746 1.350 . S
C1743 C1746 1.463 . S
C1743 C1748 1.350 . S
C1743 N1751 1.427 . S
C1744 H1735 0.930 . S
C1744 C1742 1.378 . S
C1744 C1745 1.367 . S
C1745 C1744 1.367 . S
C1745 C1747 1.433 . S
C1746 C1742 1.350 . S
C1746 C1743 1.463 . S
C1746 N1750 1.427 . S
C1747 H1737 0.929 . S
C1747 C1745 1.433 . S
C1747 N1750 1.384 . S
C1748 H1739 0.929 . S
C1748 C1740 1.378 . S
C1748 C1743 1.350 . S
C1749 H1736 0.929 . S
C1749 C1741 1.433 . S
C1749 N1751 1.384 . S
N1750 C1746 1.427 . S
N1750 C1747 1.384 . S
N1751 C1743 1.427 . S
N1751 C1749 1.384 . S
H1752 C1758 0.930 . S
H1753 C1762 0.930 . S
H1754 C1767 0.929 . S
H1755 C1765 0.929 . S
H1756 C1760 0.929 . S
H1757 C1766 0.929 . S
C1758 H1752 0.930 . S
C1758 C1759 1.367 . S
C1758 C1766 1.378 . S
C1759 C1758 1.367 . S
C1759 C1767 1.433 . S
C1760 H1756 0.929 . S
C1760 C1762 1.378 . S
C1760 C1764 1.350 . S
C1761 C1764 1.463 1_455 S
C1761 C1766 1.350 . S
C1761 N1769 1.427 . S
C1762 H1753 0.930 . S
C1762 C1760 1.378 . S
C1762 C1763 1.367 . S
C1763 C1762 1.367 . S
C1763 C1765 1.433 . S
C1764 C1760 1.350 . S
C1764 C1761 1.463 1_655 S
C1764 N1768 1.427 . S
C1765 H1755 0.929 . S
C1765 C1763 1.433 . S
C1765 N1768 1.384 . S
C1766 H1757 0.929 . S
C1766 C1758 1.378 . S
C1766 C1761 1.350 . S
C1767 H1754 0.929 . S
C1767 C1759 1.433 . S
C1767 N1769 1.384 . S
N1768 C1764 1.427 . S
N1768 C1765 1.384 . S
N1769 C1761 1.427 . S
N1769 C1767 1.384 . S
H1770 C1776 0.930 . S
H1771 C1780 0.930 . S
H1772 C1785 0.929 . S
H1773 C1783 0.929 . S
H1774 C1778 0.929 . S
H1775 C1784 0.929 . S
C1776 H1770 0.930 . S
C1776 C1777 1.367 . S
C1776 C1784 1.378 . S
C1777 C1776 1.367 . S
C1777 C1785 1.433 . S
C1778 H1774 0.929 . S
C1778 C1780 1.378 . S
C1778 C1782 1.350 . S
C1779 C1782 1.463 . S
C1779 C1784 1.350 . S
C1779 N1787 1.427 . S
C1780 H1771 0.930 . S
C1780 C1778 1.378 . S
C1780 C1781 1.367 . S
C1781 C1780 1.367 . S
C1781 C1783 1.433 . S
C1782 C1778 1.350 . S
C1782 C1779 1.463 . S
C1782 N1786 1.427 . S
C1783 H1773 0.929 . S
C1783 C1781 1.433 . S
C1783 N1786 1.384 . S
C1784 H1775 0.929 . S
C1784 C1776 1.378 . S
C1784 C1779 1.350 . S
C1785 H1772 0.929 . S
C1785 C1777 1.433 . S
C1785 N1787 1.384 . S
N1786 C1782 1.427 . S
N1786 C1783 1.384 . S
N1787 C1779 1.427 . S
N1787 C1785 1.384 . S
H1788 C1794 0.930 . S
H1789 C1798 0.930 . S
H1790 C1803 0.929 . S
H1791 C1801 0.929 . S
H1792 C1796 0.929 . S
H1793 C1802 0.929 . S
C1794 H1788 0.930 . S
C1794 C1795 1.367 . S
C1794 C1802 1.378 . S
C1795 C1794 1.367 . S
C1795 C1803 1.433 . S
C1796 H1792 0.929 . S
C1796 C1798 1.378 . S
C1796 C1800 1.350 . S
C1797 C1800 1.463 . S
C1797 C1802 1.350 . S
C1797 N1805 1.427 . S
C1798 H1789 0.930 . S
C1798 C1796 1.378 . S
C1798 C1799 1.367 . S
C1799 C1798 1.367 . S
C1799 C1801 1.433 . S
C1800 C1796 1.350 . S
C1800 C1797 1.463 . S
C1800 N1804 1.427 . S
C1801 H1791 0.929 . S
C1801 C1799 1.433 . S
C1801 N1804 1.384 . S
C1802 H1793 0.929 . S
C1802 C1794 1.378 . S
C1802 C1797 1.350 . S
C1803 H1790 0.929 . S
C1803 C1795 1.433 . S
C1803 N1805 1.384 . S
N1804 C1800 1.427 . S
N1804 C1801 1.384 . S
N1805 C1797 1.427 . S
N1805 C1803 1.384 . S
H1806 C1812 0.930 . S
H1807 C1816 0.930 . S
H1808 C1821 0.929 . S
H1809 C1819 0.929 . S
H1810 C1814 0.929 . S
H1811 C1820 0.929 . S
C1812 H1806 0.930 . S
C1812 C1813 1.367 . S
C1812 C1820 1.378 . S
C1813 C1812 1.367 . S
C1813 C1821 1.433 . S
C1814 H1810 0.929 . S
C1814 C1816 1.378 . S
C1814 C1818 1.350 . S
C1815 C1818 1.463 1_655 S
C1815 C1820 1.350 . S
C1815 N1823 1.427 . S
C1816 H1807 0.930 . S
C1816 C1814 1.378 . S
C1816 C1817 1.367 . S
C1817 C1816 1.367 . S
C1817 C1819 1.433 . S
C1818 C1814 1.350 . S
C1818 C1815 1.463 1_455 S
C1818 N1822 1.427 . S
C1819 H1809 0.929 . S
C1819 C1817 1.433 . S
C1819 N1822 1.384 . S
C1820 H1811 0.929 . S
C1820 C1812 1.378 . S
C1820 C1815 1.350 . S
C1821 H1808 0.929 . S
C1821 C1813 1.433 . S
C1821 N1823 1.384 . S
N1822 C1818 1.427 . S
N1822 C1819 1.384 . S
N1823 C1815 1.427 . S
N1823 C1821 1.384 . S
H1824 C1830 0.930 . S
H1825 C1834 0.930 . S
H1826 C1839 0.929 . S
H1827 C1837 0.929 . S
H1828 C1832 0.929 . S
H1829 C1838 0.929 . S
C1830 H1824 0.930 . S
C1830 C1831 1.367 . S
C1830 C1838 1.378 . S
C1831 C1830 1.367 . S
C1831 C1839 1.433 . S
C1832 H1828 0.929 . S
C1832 C1834 1.378 . S
C1832 C1836 1.350 . S
C1833 C1836 1.463 . S
C1833 C1838 1.350 . S
C1833 N1841 1.427 . S
C1834 H1825 0.930 . S
C1834 C1832 1.378 . S
C1834 C1835 1.367 . S
C1835 C1834 1.367 . S
C1835 C1837 1.433 . S
C1836 C1832 1.350 . S
C1836 C1833 1.463 . S
C1836 N1840 1.427 . S
C1837 H1827 0.929 . S
C1837 C1835 1.433 . S
C1837 N1840 1.384 . S
C1838 H1829 0.929 . S
C1838 C1830 1.378 . S
C1838 C1833 1.350 . S
C1839 H1826 0.929 . S
C1839 C1831 1.433 . S
C1839 N1841 1.384 . S
N1840 C1836 1.427 . S
N1840 C1837 1.384 . S
N1841 C1833 1.427 . S
N1841 C1839 1.384 . S
H1842 C1848 0.930 . S
H1843 C1852 0.930 . S
H1844 C1857 0.929 . S
H1845 C1855 0.929 . S
H1846 C1850 0.929 . S
H1847 C1856 0.929 . S
C1848 H1842 0.930 . S
C1848 C1849 1.367 . S
C1848 C1856 1.378 . S
C1849 C1848 1.367 . S
C1849 C1857 1.433 1_545 S
C1850 H1846 0.929 . S
C1850 C1852 1.378 . S
C1850 C1854 1.350 . S
C1851 C1854 1.463 1_645 S
C1851 C1856 1.350 . S
C1851 N1859 1.427 1_545 S
C1852 H1843 0.930 . S
C1852 C1850 1.378 . S
C1852 C1853 1.367 . S
C1853 C1852 1.367 . S
C1853 C1855 1.433 1_565 S
C1854 C1850 1.350 . S
C1854 C1851 1.463 1_465 S
C1854 N1858 1.427 1_565 S
C1855 H1845 0.929 . S
C1855 C1853 1.433 1_545 S
C1855 N1858 1.384 . S
C1856 H1847 0.929 . S
C1856 C1848 1.378 . S
C1856 C1851 1.350 . S
C1857 H1844 0.929 . S
C1857 C1849 1.433 1_565 S
C1857 N1859 1.384 . S
N1858 C1854 1.427 1_545 S
N1858 C1855 1.384 . S
N1859 C1851 1.427 1_565 S
N1859 C1857 1.384 . S
H1860 C1866 0.930 . S
H1861 C1870 0.930 . S
H1862 C1875 0.929 . S
H1863 C1873 0.929 . S
H1864 C1868 0.929 . S
H1865 C1874 0.929 . S
C1866 H1860 0.930 . S
C1866 C1867 1.367 . S
C1866 C1874 1.378 . S
C1867 C1866 1.367 . S
C1867 C1875 1.433 . S
C1868 H1864 0.929 . S
C1868 C1870 1.378 . S
C1868 C1872 1.350 . S
C1869 C1872 1.463 . S
C1869 C1874 1.350 . S
C1869 N1877 1.427 . S
C1870 H1861 0.930 . S
C1870 C1868 1.378 . S
C1870 C1871 1.367 . S
C1871 C1870 1.367 . S
C1871 C1873 1.433 . S
C1872 C1868 1.350 . S
C1872 C1869 1.463 . S
C1872 N1876 1.427 . S
C1873 H1863 0.929 . S
C1873 C1871 1.433 . S
C1873 N1876 1.384 . S
C1874 H1865 0.929 . S
C1874 C1866 1.378 . S
C1874 C1869 1.350 . S
C1875 H1862 0.929 . S
C1875 C1867 1.433 . S
C1875 N1877 1.384 . S
N1876 C1872 1.427 . S
N1876 C1873 1.384 . S
N1877 C1869 1.427 . S
N1877 C1875 1.384 . S
H1878 C1884 0.930 . S
H1879 C1888 0.930 . S
H1880 C1893 0.929 . S
H1881 C1891 0.929 . S
H1882 C1886 0.963 . S
H1883 C1892 0.963 . S
C1884 H1878 0.930 . S
C1884 C1885 1.367 . S
C1884 C1892 1.356 1_554 S
C1885 C1884 1.367 . S
C1885 C1893 1.433 . S
C1886 H1882 0.963 . S
C1886 C1888 1.356 1_554 S
C1886 C1890 1.337 1_554 S
C1887 C1890 1.463 1_544 S
C1887 C1892 1.337 1_554 S
C1887 N1895 1.427 . S
C1888 H1879 0.930 . S
C1888 C1886 1.356 1_556 S
C1888 C1889 1.367 . S
C1889 C1888 1.367 . S
C1889 C1891 1.433 . S
C1890 C1886 1.337 1_556 S
C1890 C1887 1.463 1_566 S
C1890 N1894 1.427 . S
C1891 H1881 0.929 . S
C1891 C1889 1.433 . S
C1891 N1894 1.384 . S
C1892 H1883 0.963 . S
C1892 C1884 1.356 1_556 S
C1892 C1887 1.337 1_556 S
C1893 H1880 0.929 . S
C1893 C1885 1.433 . S
C1893 N1895 1.384 . S
N1894 C1890 1.427 . S
N1894 C1891 1.384 . S
N1895 C1887 1.427 . S
N1895 C1893 1.384 . S
H1896 C1902 0.930 . S
H1897 C1906 0.930 . S
H1898 C1911 0.929 . S
H1899 C1909 0.929 . S
H1900 C1904 0.929 . S
H1901 C1910 0.929 . S
C1902 H1896 0.930 . S
C1902 C1903 1.367 . S
C1902 C1910 1.378 . S
C1903 C1902 1.367 . S
C1903 C1911 1.433 . S
C1904 H1900 0.929 . S
C1904 C1906 1.378 . S
C1904 C1908 1.350 . S
C1905 C1908 1.463 . S
C1905 C1910 1.350 . S
C1905 N1913 1.427 . S
C1906 H1897 0.930 . S
C1906 C1904 1.378 . S
C1906 C1907 1.367 . S
C1907 C1906 1.367 . S
C1907 C1909 1.433 . S
C1908 C1904 1.350 . S
C1908 C1905 1.463 . S
C1908 N1912 1.427 . S
C1909 H1899 0.929 . S
C1909 C1907 1.433 . S
C1909 N1912 1.384 . S
C1910 H1901 0.929 . S
C1910 C1902 1.378 . S
C1910 C1905 1.350 . S
C1911 H1898 0.929 . S
C1911 C1903 1.433 . S
C1911 N1913 1.384 . S
N1912 C1908 1.427 . S
N1912 C1909 1.384 . S
N1913 C1905 1.427 . S
N1913 C1911 1.384 . S
H1914 C1920 0.930 . S
H1915 C1924 0.930 . S
H1916 C1929 0.929 . S
H1917 C1927 0.929 . S
H1918 C1922 0.929 . S
H1919 C1928 0.929 . S
C1920 H1914 0.930 . S
C1920 C1921 1.367 1_565 S
C1920 C1928 1.378 . S
C1921 C1920 1.367 1_545 S
C1921 C1929 1.433 . S
C1922 H1918 0.929 . S
C1922 C1924 1.378 . S
C1922 C1926 1.350 1_545 S
C1923 C1926 1.463 1_545 S
C1923 C1928 1.350 1_545 S
C1923 N1931 1.427 . S
C1924 H1915 0.930 . S
C1924 C1922 1.378 . S
C1924 C1925 1.367 1_545 S
C1925 C1924 1.367 1_565 S
C1925 C1927 1.433 . S
C1926 C1922 1.350 1_565 S
C1926 C1923 1.463 1_565 S
C1926 N1930 1.427 . S
C1927 H1917 0.929 . S
C1927 C1925 1.433 . S
C1927 N1930 1.384 . S
C1928 H1919 0.929 . S
C1928 C1920 1.378 . S
C1928 C1923 1.350 1_565 S
C1929 H1916 0.929 . S
C1929 C1921 1.433 . S
C1929 N1931 1.384 . S
N1930 C1926 1.427 . S
N1930 C1927 1.384 . S
N1931 C1923 1.427 . S
N1931 C1929 1.384 . S
H1932 C1938 0.930 . S
H1933 C1942 0.930 . S
H1934 C1947 0.929 . S
H1935 C1945 0.929 . S
H1936 C1940 0.929 . S
H1937 C1946 0.929 . S
C1938 H1932 0.930 . S
C1938 C1939 1.367 . S
C1938 C1946 1.378 . S
C1939 C1938 1.367 . S
C1939 C1947 1.433 . S
C1940 H1936 0.929 . S
C1940 C1942 1.378 . S
C1940 C1944 1.350 . S
C1941 C1944 1.463 . S
C1941 C1946 1.350 . S
C1941 N1949 1.427 . S
C1942 H1933 0.930 . S
C1942 C1940 1.378 . S
C1942 C1943 1.367 . S
C1943 C1942 1.367 . S
C1943 C1945 1.433 . S
C1944 C1940 1.350 . S
C1944 C1941 1.463 . S
C1944 N1948 1.427 . S
C1945 H1935 0.929 . S
C1945 C1943 1.433 . S
C1945 N1948 1.384 . S
C1946 H1937 0.929 . S
C1946 C1938 1.378 . S
C1946 C1941 1.350 . S
C1947 H1934 0.929 . S
C1947 C1939 1.433 . S
C1947 N1949 1.384 . S
N1948 C1944 1.427 . S
N1948 C1945 1.384 . S
N1949 C1941 1.427 . S
N1949 C1947 1.384 . S
H1950 C1956 0.930 . S
H1951 C1960 0.930 . S
H1952 C1965 0.929 . S
H1953 C1963 0.929 . S
H1954 C1958 0.929 . S
H1955 C1964 0.929 . S
C1956 H1950 0.930 . S
C1956 C1957 1.367 1_565 S
C1956 C1964 1.378 . S
C1957 C1956 1.367 1_545 S
C1957 C1965 1.433 . S
C1958 H1954 0.929 . S
C1958 C1960 1.378 . S
C1958 C1962 1.350 1_545 S
C1959 C1962 1.463 1_446 S
C1959 C1964 1.350 1_545 S
C1959 N1967 1.427 . S
C1960 H1951 0.930 . S
C1960 C1958 1.378 . S
C1960 C1961 1.367 1_545 S
C1961 C1960 1.367 1_565 S
C1961 C1963 1.433 . S
C1962 C1958 1.350 1_565 S
C1962 C1959 1.463 1_664 S
C1962 N1966 1.427 . S
C1963 H1953 0.929 . S
C1963 C1961 1.433 . S
C1963 N1966 1.384 . S
C1964 H1955 0.929 . S
C1964 C1956 1.378 . S
C1964 C1959 1.350 1_565 S
C1965 H1952 0.929 . S
C1965 C1957 1.433 . S
C1965 N1967 1.384 . S
N1966 C1962 1.427 . S
N1966 C1963 1.384 . S
N1967 C1959 1.427 . S
N1967 C1965 1.384 . S
H1968 C1974 0.930 . S
H1969 C1978 0.930 . S
H1970 C1983 0.929 . S
H1971 C1981 0.929 . S
H1972 C1976 0.929 . S
H1973 C1982 0.929 . S
C1974 H1968 0.930 . S
C1974 C1975 1.367 . S
C1974 C1982 1.378 . S
C1975 C1974 1.367 . S
C1975 C1983 1.433 . S
C1976 H1972 0.929 . S
C1976 C1978 1.378 . S
C1976 C1980 1.350 . S
C1977 C1980 1.463 . S
C1977 C1982 1.350 . S
C1977 N1985 1.427 . S
C1978 H1969 0.930 . S
C1978 C1976 1.378 . S
C1978 C1979 1.367 . S
C1979 C1978 1.367 . S
C1979 C1981 1.433 . S
C1980 C1976 1.350 . S
C1980 C1977 1.463 . S
C1980 N1984 1.427 . S
C1981 H1971 0.929 . S
C1981 C1979 1.433 . S
C1981 N1984 1.384 . S
C1982 H1973 0.929 . S
C1982 C1974 1.378 . S
C1982 C1977 1.350 . S
C1983 H1970 0.929 . S
C1983 C1975 1.433 . S
C1983 N1985 1.384 . S
N1984 C1980 1.427 . S
N1984 C1981 1.384 . S
N1985 C1977 1.427 . S
N1985 C1983 1.384 . S
H1986 C1992 0.930 . S
H1987 C1996 0.930 . S
H1988 C2001 0.929 . S
H1989 C1999 0.929 . S
H1990 C1994 0.929 . S
H1991 C2000 0.929 . S
C1992 H1986 0.930 . S
C1992 C1993 1.367 . S
C1992 C2000 1.378 . S
C1993 C1992 1.367 . S
C1993 C2001 1.433 . S
C1994 H1990 0.929 . S
C1994 C1996 1.378 . S
C1994 C1998 1.350 . S
C1995 C1998 1.463 . S
C1995 C2000 1.350 . S
C1995 N2003 1.427 . S
C1996 H1987 0.930 . S
C1996 C1994 1.378 . S
C1996 C1997 1.367 . S
C1997 C1996 1.367 . S
C1997 C1999 1.433 . S
C1998 C1994 1.350 . S
C1998 C1995 1.463 . S
C1998 N2002 1.427 . S
C1999 H1989 0.929 . S
C1999 C1997 1.433 . S
C1999 N2002 1.384 . S
C2000 H1991 0.929 . S
C2000 C1992 1.378 . S
C2000 C1995 1.350 . S
C2001 H1988 0.929 . S
C2001 C1993 1.433 . S
C2001 N2003 1.384 . S
N2002 C1998 1.427 . S
N2002 C1999 1.384 . S
N2003 C1995 1.427 . S
N2003 C2001 1.384 . S
H2004 C2010 0.930 . S
H2005 C2014 0.930 . S
H2006 C2019 0.929 . S
H2007 C2017 0.929 . S
H2008 C2012 0.929 . S
H2009 C2018 0.929 . S
C2010 H2004 0.930 . S
C2010 C2011 1.367 . S
C2010 C2018 1.378 . S
C2011 C2010 1.367 . S
C2011 C2019 1.433 . S
C2012 H2008 0.929 . S
C2012 C2014 1.378 . S
C2012 C2016 1.350 . S
C2013 C2016 1.463 . S
C2013 C2018 1.350 . S
C2013 N2021 1.427 . S
C2014 H2005 0.930 . S
C2014 C2012 1.378 . S
C2014 C2015 1.367 . S
C2015 C2014 1.367 . S
C2015 C2017 1.433 . S
C2016 C2012 1.350 . S
C2016 C2013 1.463 . S
C2016 N2020 1.427 . S
C2017 H2007 0.929 . S
C2017 C2015 1.433 . S
C2017 N2020 1.384 . S
C2018 H2009 0.929 . S
C2018 C2010 1.378 . S
C2018 C2013 1.350 . S
C2019 H2006 0.929 . S
C2019 C2011 1.433 . S
C2019 N2021 1.384 . S
N2020 C2016 1.427 . S
N2020 C2017 1.384 . S
N2021 C2013 1.427 . S
N2021 C2019 1.384 . S
H2022 C2028 0.930 . S
H2023 C2032 0.930 . S
H2024 C2037 0.929 . S
H2025 C2035 0.929 . S
H2026 C2030 0.929 . S
H2027 C2036 0.929 . S
C2028 H2022 0.930 . S
C2028 C2029 1.367 . S
C2028 C2036 1.378 . S
C2029 C2028 1.367 . S
C2029 C2037 1.433 . S
C2030 H2026 0.929 . S
C2030 C2032 1.378 . S
C2030 C2034 1.350 . S
C2031 C2034 1.463 . S
C2031 C2036 1.350 . S
C2031 N2039 1.427 . S
C2032 H2023 0.930 . S
C2032 C2030 1.378 . S
C2032 C2033 1.367 . S
C2033 C2032 1.367 . S
C2033 C2035 1.433 . S
C2034 C2030 1.350 . S
C2034 C2031 1.463 . S
C2034 N2038 1.427 . S
C2035 H2025 0.929 . S
C2035 C2033 1.433 . S
C2035 N2038 1.384 . S
C2036 H2027 0.929 . S
C2036 C2028 1.378 . S
C2036 C2031 1.350 . S
C2037 H2024 0.929 . S
C2037 C2029 1.433 . S
C2037 N2039 1.384 . S
N2038 C2034 1.427 . S
N2038 C2035 1.384 . S
N2039 C2031 1.427 . S
N2039 C2037 1.384 . S
H2040 C2046 0.930 . S
H2041 C2050 0.930 . S
H2042 C2055 0.929 . S
H2043 C2053 0.929 . S
H2044 C2048 0.929 . S
H2045 C2054 0.929 . S
C2046 H2040 0.930 . S
C2046 C2047 1.367 . S
C2046 C2054 1.378 . S
C2047 C2046 1.367 . S
C2047 C2055 1.433 . S
C2048 H2044 0.929 . S
C2048 C2050 1.378 . S
C2048 C2052 1.350 . S
C2049 C2052 1.463 1_554 S
C2049 C2054 1.350 . S
C2049 N2057 1.427 . S
C2050 H2041 0.930 . S
C2050 C2048 1.378 . S
C2050 C2051 1.367 . S
C2051 C2050 1.367 . S
C2051 C2053 1.433 . S
C2052 C2048 1.350 . S
C2052 C2049 1.463 1_556 S
C2052 N2056 1.427 . S
C2053 H2043 0.929 . S
C2053 C2051 1.433 . S
C2053 N2056 1.384 . S
C2054 H2045 0.929 . S
C2054 C2046 1.378 . S
C2054 C2049 1.350 . S
C2055 H2042 0.929 . S
C2055 C2047 1.433 . S
C2055 N2057 1.384 . S
N2056 C2052 1.427 . S
N2056 C2053 1.384 . S
N2057 C2049 1.427 . S
N2057 C2055 1.384 . S
H2058 C2064 0.930 . S
H2059 C2068 0.930 . S
H2060 C2073 0.929 . S
H2061 C2071 0.929 . S
H2062 C2066 0.929 . S
H2063 C2072 0.929 . S
C2064 H2058 0.930 . S
C2064 C2065 1.367 . S
C2064 C2072 1.378 . S
C2065 C2064 1.367 . S
C2065 C2073 1.433 . S
C2066 H2062 0.929 . S
C2066 C2068 1.378 . S
C2066 C2070 1.350 . S
C2067 C2070 1.463 1_655 S
C2067 C2072 1.350 . S
C2067 N2075 1.427 . S
C2068 H2059 0.930 . S
C2068 C2066 1.378 . S
C2068 C2069 1.367 . S
C2069 C2068 1.367 . S
C2069 C2071 1.433 . S
C2070 C2066 1.350 . S
C2070 C2067 1.463 1_455 S
C2070 N2074 1.427 . S
C2071 H2061 0.929 . S
C2071 C2069 1.433 . S
C2071 N2074 1.384 . S
C2072 H2063 0.929 . S
C2072 C2064 1.378 . S
C2072 C2067 1.350 . S
C2073 H2060 0.929 . S
C2073 C2065 1.433 . S
C2073 N2075 1.384 . S
N2074 C2070 1.427 . S
N2074 C2071 1.384 . S
N2075 C2067 1.427 . S
N2075 C2073 1.384 . S
H2076 C2082 0.930 . S
H2077 C2086 0.930 . S
H2078 C2091 0.929 . S
H2079 C2089 0.929 . S
H2080 C2084 0.929 . S
H2081 C2090 0.929 . S
C2082 H2076 0.930 . S
C2082 C2083 1.367 . S
C2082 C2090 1.378 . S
C2083 C2082 1.367 . S
C2083 C2091 1.433 . S
C2084 H2080 0.929 . S
C2084 C2086 1.378 . S
C2084 C2088 1.350 . S
C2085 C2088 1.463 1_454 S
C2085 C2090 1.350 . S
C2085 N2093 1.427 . S
C2086 H2077 0.930 . S
C2086 C2084 1.378 . S
C2086 C2087 1.367 . S
C2087 C2086 1.367 . S
C2087 C2089 1.433 . S
C2088 C2084 1.350 . S
C2088 C2085 1.463 1_656 S
C2088 N2092 1.427 . S
C2089 H2079 0.929 . S
C2089 C2087 1.433 . S
C2089 N2092 1.384 . S
C2090 H2081 0.929 . S
C2090 C2082 1.378 . S
C2090 C2085 1.350 . S
C2091 H2078 0.929 . S
C2091 C2083 1.433 . S
C2091 N2093 1.384 . S
N2092 C2088 1.427 . S
N2092 C2089 1.384 . S
N2093 C2085 1.427 . S
N2093 C2091 1.384 . S
H2094 C2100 0.930 . S
H2095 C2104 0.930 . S
H2096 C2109 0.929 . S
H2097 C2107 0.929 . S
H2098 C2102 0.929 . S
H2099 C2108 0.929 . S
C2100 H2094 0.930 . S
C2100 C2101 1.367 . S
C2100 C2108 1.378 . S
C2101 C2100 1.367 . S
C2101 C2109 1.433 . S
C2102 H2098 0.929 . S
C2102 C2104 1.378 . S
C2102 C2106 1.350 . S
C2103 C2106 1.463 . S
C2103 C2108 1.350 . S
C2103 N2111 1.427 . S
C2104 H2095 0.930 . S
C2104 C2102 1.378 . S
C2104 C2105 1.367 . S
C2105 C2104 1.367 . S
C2105 C2107 1.433 . S
C2106 C2102 1.350 . S
C2106 C2103 1.463 . S
C2106 N2110 1.427 . S
C2107 H2097 0.929 . S
C2107 C2105 1.433 . S
C2107 N2110 1.384 . S
C2108 H2099 0.929 . S
C2108 C2100 1.378 . S
C2108 C2103 1.350 . S
C2109 H2096 0.929 . S
C2109 C2101 1.433 . S
C2109 N2111 1.384 . S
N2110 C2106 1.427 . S
N2110 C2107 1.384 . S
N2111 C2103 1.427 . S
N2111 C2109 1.384 . S
H2112 C2118 0.930 . S
H2113 C2122 0.930 . S
H2114 C2127 0.929 . S
H2115 C2125 0.929 . S
H2116 C2120 0.932 . S
H2117 C2126 0.929 . S
C2118 H2112 0.930 . S
C2118 C2119 1.367 . S
C2118 C2126 1.378 . S
C2119 C2118 1.367 . S
C2119 C2127 1.433 . S
C2120 H2116 0.932 . S
C2120 C2122 1.378 1_545 S
C2120 C2124 1.350 . S
C2121 C2124 1.463 . S
C2121 C2126 1.350 . S
C2121 N2129 1.427 . S
C2122 H2113 0.930 . S
C2122 C2120 1.378 1_565 S
C2122 C2123 1.367 . S
C2123 C2122 1.367 . S
C2123 C2125 1.433 1_565 S
C2124 C2120 1.350 . S
C2124 C2121 1.463 . S
C2124 N2128 1.427 . S
C2125 H2115 0.929 . S
C2125 C2123 1.433 1_545 S
C2125 N2128 1.384 . S
C2126 H2117 0.929 . S
C2126 C2118 1.378 . S
C2126 C2121 1.350 . S
C2127 H2114 0.929 . S
C2127 C2119 1.433 . S
C2127 N2129 1.384 . S
N2128 C2124 1.427 . S
N2128 C2125 1.384 . S
N2129 C2121 1.427 . S
N2129 C2127 1.384 . S
H2130 C2136 0.930 . S
H2131 C2140 0.930 . S
H2132 C2145 0.929 1_565 S
H2133 C2143 0.929 1_545 S
H2134 C2138 0.929 . S
H2135 C2144 0.929 . S
C2136 H2130 0.930 . S
C2136 C2137 1.367 . S
C2136 C2144 1.378 . S
C2137 C2136 1.367 . S
C2137 C2145 1.433 . S
C2138 H2134 0.929 . S
C2138 C2140 1.378 . S
C2138 C2142 1.350 . S
C2139 C2142 1.463 1_545 S
C2139 C2144 1.350 . S
C2139 N2147 1.427 1_545 S
C2140 H2131 0.930 . S
C2140 C2138 1.378 . S
C2140 C2141 1.367 . S
C2141 C2140 1.367 . S
C2141 C2143 1.433 . S
C2142 C2138 1.350 . S
C2142 C2139 1.463 1_565 S
C2142 N2146 1.427 1_565 S
C2143 H2133 0.929 1_565 S
C2143 C2141 1.433 . S
C2143 N2146 1.384 1_565 S
C2144 H2135 0.929 . S
C2144 C2136 1.378 . S
C2144 C2139 1.350 . S
C2145 H2132 0.929 1_545 S
C2145 C2137 1.433 . S
C2145 N2147 1.384 1_545 S
N2146 C2142 1.427 1_545 S
N2146 C2143 1.384 1_545 S
N2147 C2139 1.427 1_565 S
N2147 C2145 1.384 1_565 S
H2148 C2154 0.930 . S
H2149 C2158 0.930 . S
H2150 C2163 0.929 . S
H2151 C2161 0.929 . S
H2152 C2156 0.929 . S
H2153 C2162 0.929 . S
C2154 H2148 0.930 . S
C2154 C2155 1.367 . S
C2154 C2162 1.378 . S
C2155 C2154 1.367 . S
C2155 C2163 1.433 . S
C2156 H2152 0.929 . S
C2156 C2158 1.378 . S
C2156 C2160 1.350 . S
C2157 C2160 1.463 1_545 S
C2157 C2162 1.350 . S
C2157 N2165 1.427 . S
C2158 H2149 0.930 . S
C2158 C2156 1.378 . S
C2158 C2159 1.367 . S
C2159 C2158 1.367 . S
C2159 C2161 1.433 . S
C2160 C2156 1.350 . S
C2160 C2157 1.463 1_565 S
C2160 N2164 1.427 . S
C2161 H2151 0.929 . S
C2161 C2159 1.433 . S
C2161 N2164 1.384 . S
C2162 H2153 0.929 . S
C2162 C2154 1.378 . S
C2162 C2157 1.350 . S
C2163 H2150 0.929 . S
C2163 C2155 1.433 . S
C2163 N2165 1.384 . S
N2164 C2160 1.427 . S
N2164 C2161 1.384 . S
N2165 C2157 1.427 . S
N2165 C2163 1.384 . S
H2166 C2172 0.930 . S
H2167 C2176 0.930 . S
H2168 C2181 0.929 . S
H2169 C2179 0.929 . S
H2170 C2174 0.929 . S
H2171 C2180 0.929 . S
C2172 H2166 0.930 . S
C2172 C2173 1.367 . S
C2172 C2180 1.378 . S
C2173 C2172 1.367 . S
C2173 C2181 1.433 . S
C2174 H2170 0.929 . S
C2174 C2176 1.378 . S
C2174 C2178 1.350 . S
C2175 C2178 1.463 . S
C2175 C2180 1.350 . S
C2175 N2183 1.427 . S
C2176 H2167 0.930 . S
C2176 C2174 1.378 . S
C2176 C2177 1.367 1_565 S
C2177 C2176 1.367 1_545 S
C2177 C2179 1.433 . S
C2178 C2174 1.350 . S
C2178 C2175 1.463 . S
C2178 N2182 1.427 . S
C2179 H2169 0.929 . S
C2179 C2177 1.433 . S
C2179 N2182 1.384 1_545 S
C2180 H2171 0.929 . S
C2180 C2172 1.378 . S
C2180 C2175 1.350 . S
C2181 H2168 0.929 . S
C2181 C2173 1.433 . S
C2181 N2183 1.384 . S
N2182 C2178 1.427 . S
N2182 C2179 1.384 1_565 S
N2183 C2175 1.427 . S
N2183 C2181 1.384 . S
H2184 C2190 0.930 . S
H2185 C2194 0.930 . S
H2186 C2199 0.929 . S
H2187 C2197 0.929 . S
H2188 C2192 0.929 . S
H2189 C2198 0.929 . S
C2190 H2184 0.930 . S
C2190 C2191 1.367 . S
C2190 C2198 1.378 . S
C2191 C2190 1.367 . S
C2191 C2199 1.433 . S
C2192 H2188 0.929 . S
C2192 C2194 1.378 . S
C2192 C2196 1.350 1_545 S
C2193 C2196 1.463 . S
C2193 C2198 1.350 . S
C2193 N2201 1.427 . S
C2194 H2185 0.930 . S
C2194 C2192 1.378 . S
C2194 C2195 1.367 . S
C2195 C2194 1.367 . S
C2195 C2197 1.433 1_545 S
C2196 C2192 1.350 1_565 S
C2196 C2193 1.463 . S
C2196 N2200 1.427 . S
C2197 H2187 0.929 . S
C2197 C2195 1.433 1_565 S
C2197 N2200 1.384 . S
C2198 H2189 0.929 . S
C2198 C2190 1.378 . S
C2198 C2193 1.350 . S
C2199 H2186 0.929 . S
C2199 C2191 1.433 . S
C2199 N2201 1.384 . S
N2200 C2196 1.427 . S
N2200 C2197 1.384 . S
N2201 C2193 1.427 . S
N2201 C2199 1.384 . S
H2202 C2208 0.930 . S
H2203 C2212 0.930 . S
H2204 C2217 0.929 . S
H2205 C2215 0.929 . S
H2206 C2210 0.929 . S
H2207 C2216 0.929 . S
C2208 H2202 0.930 . S
C2208 C2209 1.367 . S
C2208 C2216 1.378 . S
C2209 C2208 1.367 . S
C2209 C2217 1.433 . S
C2210 H2206 0.929 . S
C2210 C2212 1.378 . S
C2210 C2214 1.350 . S
C2211 C2214 1.463 1_545 S
C2211 C2216 1.350 . S
C2211 N2219 1.427 . S
C2212 H2203 0.930 . S
C2212 C2210 1.378 . S
C2212 C2213 1.367 . S
C2213 C2212 1.367 . S
C2213 C2215 1.433 . S
C2214 C2210 1.350 . S
C2214 C2211 1.463 1_565 S
C2214 N2218 1.427 . S
C2215 H2205 0.929 . S
C2215 C2213 1.433 . S
C2215 N2218 1.384 . S
C2216 H2207 0.929 . S
C2216 C2208 1.378 . S
C2216 C2211 1.350 . S
C2217 H2204 0.929 . S
C2217 C2209 1.433 . S
C2217 N2219 1.384 . S
N2218 C2214 1.427 . S
N2218 C2215 1.384 . S
N2219 C2211 1.427 . S
N2219 C2217 1.384 . S
H2220 C2226 0.930 . S
H2221 C2230 0.930 . S
H2222 C2235 0.929 . S
H2223 C2233 0.929 . S
H2224 C2228 0.929 . S
H2225 C2234 0.929 . S
C2226 H2220 0.930 . S
C2226 C2227 1.367 . S
C2226 C2234 1.378 . S
C2227 C2226 1.367 . S
C2227 C2235 1.433 . S
C2228 H2224 0.929 . S
C2228 C2230 1.378 . S
C2228 C2232 1.350 . S
C2229 C2232 1.463 1_565 S
C2229 C2234 1.350 . S
C2229 N2237 1.427 . S
C2230 H2221 0.930 . S
C2230 C2228 1.378 . S
C2230 C2231 1.367 . S
C2231 C2230 1.367 . S
C2231 C2233 1.433 . S
C2232 C2228 1.350 . S
C2232 C2229 1.463 1_545 S
C2232 N2236 1.427 . S
C2233 H2223 0.929 . S
C2233 C2231 1.433 . S
C2233 N2236 1.384 . S
C2234 H2225 0.929 . S
C2234 C2226 1.378 . S
C2234 C2229 1.350 . S
C2235 H2222 0.929 . S
C2235 C2227 1.433 . S
C2235 N2237 1.384 . S
N2236 C2232 1.427 . S
N2236 C2233 1.384 . S
N2237 C2229 1.427 . S
N2237 C2235 1.384 . S
H2238 C2244 0.930 . S
H2239 C2248 0.930 . S
H2240 C2253 0.929 1_565 S
H2241 C2251 0.929 . S
H2242 C2246 0.929 . S
H2243 C2252 0.929 . S
C2244 H2238 0.930 . S
C2244 C2245 1.367 1_545 S
C2244 C2252 1.378 . S
C2245 C2244 1.367 1_565 S
C2245 C2253 1.433 1_565 S
C2246 H2242 0.929 . S
C2246 C2248 1.378 . S
C2246 C2250 1.350 . S
C2247 C2250 1.463 . S
C2247 C2252 1.350 . S
C2247 N2255 1.427 . S
C2248 H2239 0.930 . S
C2248 C2246 1.378 . S
C2248 C2249 1.367 . S
C2249 C2248 1.367 . S
C2249 C2251 1.433 . S
C2250 C2246 1.350 . S
C2250 C2247 1.463 . S
C2250 N2254 1.427 . S
C2251 H2241 0.929 . S
C2251 C2249 1.433 . S
C2251 N2254 1.384 . S
C2252 H2243 0.929 . S
C2252 C2244 1.378 . S
C2252 C2247 1.350 . S
C2253 H2240 0.929 1_545 S
C2253 C2245 1.433 1_545 S
C2253 N2255 1.384 . S
N2254 C2250 1.427 . S
N2254 C2251 1.384 . S
N2255 C2247 1.427 . S
N2255 C2253 1.384 . S
H2256 C2262 0.930 . S
H2257 C2266 0.930 . S
H2258 C2271 0.929 . S
H2259 C2269 0.929 . S
H2260 C2264 0.929 . S
H2261 C2270 0.929 . S
C2262 H2256 0.930 . S
C2262 C2263 1.367 . S
C2262 C2270 1.378 . S
C2263 C2262 1.367 . S
C2263 C2271 1.433 . S
C2264 H2260 0.929 . S
C2264 C2266 1.378 . S
C2264 C2268 1.350 . S
C2265 C2268 1.463 . S
C2265 C2270 1.350 . S
C2265 N2273 1.427 . S
C2266 H2257 0.930 . S
C2266 C2264 1.378 . S
C2266 C2267 1.367 . S
C2267 C2266 1.367 . S
C2267 C2269 1.433 . S
C2268 C2264 1.350 . S
C2268 C2265 1.463 . S
C2268 N2272 1.427 . S
C2269 H2259 0.929 . S
C2269 C2267 1.433 . S
C2269 N2272 1.384 . S
C2270 H2261 0.929 . S
C2270 C2262 1.378 . S
C2270 C2265 1.350 . S
C2271 H2258 0.929 . S
C2271 C2263 1.433 . S
C2271 N2273 1.384 . S
N2272 C2268 1.427 . S
N2272 C2269 1.384 . S
N2273 C2265 1.427 . S
N2273 C2271 1.384 . S
H2274 C2280 0.930 . S
H2275 C2284 0.930 . S
H2276 C2289 0.929 . S
H2277 C2287 0.929 . S
H2278 C2282 0.929 . S
H2279 C2288 0.929 . S
C2280 H2274 0.930 . S
C2280 C2281 1.367 . S
C2280 C2288 1.378 . S
C2281 C2280 1.367 . S
C2281 C2289 1.433 . S
C2282 H2278 0.929 . S
C2282 C2284 1.378 . S
C2282 C2286 1.350 . S
C2283 C2286 1.463 . S
C2283 C2288 1.350 . S
C2283 N2291 1.427 . S
C2284 H2275 0.930 . S
C2284 C2282 1.378 . S
C2284 C2285 1.367 . S
C2285 C2284 1.367 . S
C2285 C2287 1.433 . S
C2286 C2282 1.350 . S
C2286 C2283 1.463 . S
C2286 N2290 1.427 . S
C2287 H2277 0.929 . S
C2287 C2285 1.433 . S
C2287 N2290 1.384 . S
C2288 H2279 0.929 . S
C2288 C2280 1.378 . S
C2288 C2283 1.350 . S
C2289 H2276 0.929 . S
C2289 C2281 1.433 . S
C2289 N2291 1.384 . S
N2290 C2286 1.427 . S
N2290 C2287 1.384 . S
N2291 C2283 1.427 . S
N2291 C2289 1.384 . S
H2292 C2298 0.930 . S
H2293 C2302 0.930 . S
H2294 C2307 0.929 . S
H2295 C2305 0.929 . S
H2296 C2300 0.929 . S
H2297 C2306 0.929 . S
C2298 H2292 0.930 . S
C2298 C2299 1.367 . S
C2298 C2306 1.378 . S
C2299 C2298 1.367 . S
C2299 C2307 1.433 . S
C2300 H2296 0.929 . S
C2300 C2302 1.378 . S
C2300 C2304 1.350 . S
C2301 C2304 1.463 . S
C2301 C2306 1.350 . S
C2301 N2309 1.427 . S
C2302 H2293 0.930 . S
C2302 C2300 1.378 . S
C2302 C2303 1.367 . S
C2303 C2302 1.367 . S
C2303 C2305 1.433 . S
C2304 C2300 1.350 . S
C2304 C2301 1.463 . S
C2304 N2308 1.427 . S
C2305 H2295 0.929 . S
C2305 C2303 1.433 . S
C2305 N2308 1.384 . S
C2306 H2297 0.929 . S
C2306 C2298 1.378 . S
C2306 C2301 1.350 . S
C2307 H2294 0.929 . S
C2307 C2299 1.433 . S
C2307 N2309 1.384 . S
N2308 C2304 1.427 . S
N2308 C2305 1.384 . S
N2309 C2301 1.427 . S
N2309 C2307 1.384 . S
H2310 C2316 0.930 . S
H2311 C2320 0.930 . S
H2312 C2325 0.929 . S
H2313 C2323 0.929 . S
H2314 C2318 0.929 . S
H2315 C2324 0.929 . S
C2316 H2310 0.930 . S
C2316 C2317 1.367 . S
C2316 C2324 1.378 . S
C2317 C2316 1.367 . S
C2317 C2325 1.433 . S
C2318 H2314 0.929 . S
C2318 C2320 1.378 . S
C2318 C2322 1.350 . S
C2319 C2322 1.463 . S
C2319 C2324 1.350 . S
C2319 N2327 1.427 . S
C2320 H2311 0.930 . S
C2320 C2318 1.378 . S
C2320 C2321 1.367 . S
C2321 C2320 1.367 . S
C2321 C2323 1.433 . S
C2322 C2318 1.350 . S
C2322 C2319 1.463 . S
C2322 N2326 1.427 . S
C2323 H2313 0.929 . S
C2323 C2321 1.433 . S
C2323 N2326 1.384 . S
C2324 H2315 0.929 . S
C2324 C2316 1.378 . S
C2324 C2319 1.350 . S
C2325 H2312 0.929 . S
C2325 C2317 1.433 . S
C2325 N2327 1.384 . S
N2326 C2322 1.427 . S
N2326 C2323 1.384 . S
N2327 C2319 1.427 . S
N2327 C2325 1.384 . S
H2328 C2334 0.930 . S
H2329 C2338 0.930 . S
H2330 C2343 0.929 . S
H2331 C2341 0.929 . S
H2332 C2336 0.929 . S
H2333 C2342 0.929 . S
C2334 H2328 0.930 . S
C2334 C2335 1.367 . S
C2334 C2342 1.378 . S
C2335 C2334 1.367 . S
C2335 C2343 1.433 . S
C2336 H2332 0.929 . S
C2336 C2338 1.378 . S
C2336 C2340 1.350 . S
C2337 C2340 1.463 . S
C2337 C2342 1.350 . S
C2337 N2345 1.427 . S
C2338 H2329 0.930 . S
C2338 C2336 1.378 . S
C2338 C2339 1.367 . S
C2339 C2338 1.367 . S
C2339 C2341 1.433 . S
C2340 C2336 1.350 . S
C2340 C2337 1.463 . S
C2340 N2344 1.427 . S
C2341 H2331 0.929 . S
C2341 C2339 1.433 . S
C2341 N2344 1.384 . S
C2342 H2333 0.929 . S
C2342 C2334 1.378 . S
C2342 C2337 1.350 . S
C2343 H2330 0.929 . S
C2343 C2335 1.433 . S
C2343 N2345 1.384 . S
N2344 C2340 1.427 . S
N2344 C2341 1.384 . S
N2345 C2337 1.427 . S
N2345 C2343 1.384 . S
H2346 C2352 0.930 . S
H2347 C2356 0.930 . S
H2348 C2361 0.929 . S
H2349 C2359 0.929 . S
H2350 C2354 0.929 . S
H2351 C2360 0.929 . S
C2352 H2346 0.930 . S
C2352 C2353 1.367 . S
C2352 C2360 1.378 . S
C2353 C2352 1.367 . S
C2353 C2361 1.433 . S
C2354 H2350 0.929 . S
C2354 C2356 1.378 . S
C2354 C2358 1.350 . S
C2355 C2358 1.463 . S
C2355 C2360 1.350 . S
C2355 N2363 1.427 . S
C2356 H2347 0.930 . S
C2356 C2354 1.378 . S
C2356 C2357 1.367 . S
C2357 C2356 1.367 . S
C2357 C2359 1.433 . S
C2358 C2354 1.350 . S
C2358 C2355 1.463 . S
C2358 N2362 1.427 . S
C2359 H2349 0.929 . S
C2359 C2357 1.433 . S
C2359 N2362 1.384 . S
C2360 H2351 0.929 . S
C2360 C2352 1.378 . S
C2360 C2355 1.350 . S
C2361 H2348 0.929 . S
C2361 C2353 1.433 . S
C2361 N2363 1.384 . S
N2362 C2358 1.427 . S
N2362 C2359 1.384 . S
N2363 C2355 1.427 . S
N2363 C2361 1.384 . S
H2364 C2370 0.930 . S
H2365 C2374 0.930 . S
H2366 C2379 0.929 . S
H2367 C2377 0.929 . S
H2368 C2372 0.929 . S
H2369 C2378 0.929 . S
C2370 H2364 0.930 . S
C2370 C2371 1.367 . S
C2370 C2378 1.378 . S
C2371 C2370 1.367 . S
C2371 C2379 1.433 . S
C2372 H2368 0.929 . S
C2372 C2374 1.378 . S
C2372 C2376 1.350 . S
C2373 C2376 1.463 . S
C2373 C2378 1.350 . S
C2373 N2381 1.427 . S
C2374 H2365 0.930 . S
C2374 C2372 1.378 . S
C2374 C2375 1.367 . S
C2375 C2374 1.367 . S
C2375 C2377 1.433 . S
C2376 C2372 1.350 . S
C2376 C2373 1.463 . S
C2376 N2380 1.427 . S
C2377 H2367 0.929 . S
C2377 C2375 1.433 . S
C2377 N2380 1.384 . S
C2378 H2369 0.929 . S
C2378 C2370 1.378 . S
C2378 C2373 1.350 . S
C2379 H2366 0.929 . S
C2379 C2371 1.433 . S
C2379 N2381 1.384 . S
N2380 C2376 1.427 . S
N2380 C2377 1.384 . S
N2381 C2373 1.427 . S
N2381 C2379 1.384 . S
H2382 C2388 0.930 . S
H2383 C2392 0.930 . S
H2384 C2397 0.929 . S
H2385 C2395 0.929 . S
H2386 C2390 0.929 . S
H2387 C2396 0.929 . S
C2388 H2382 0.930 . S
C2388 C2389 1.367 . S
C2388 C2396 1.378 . S
C2389 C2388 1.367 . S
C2389 C2397 1.433 . S
C2390 H2386 0.929 . S
C2390 C2392 1.378 . S
C2390 C2394 1.350 . S
C2391 C2394 1.463 . S
C2391 C2396 1.350 . S
C2391 N2399 1.427 . S
C2392 H2383 0.930 . S
C2392 C2390 1.378 . S
C2392 C2393 1.367 . S
C2393 C2392 1.367 . S
C2393 C2395 1.433 . S
C2394 C2390 1.350 . S
C2394 C2391 1.463 . S
C2394 N2398 1.427 . S
C2395 H2385 0.929 . S
C2395 C2393 1.433 . S
C2395 N2398 1.384 . S
C2396 H2387 0.929 . S
C2396 C2388 1.378 . S
C2396 C2391 1.350 . S
C2397 H2384 0.929 . S
C2397 C2389 1.433 . S
C2397 N2399 1.384 . S
N2398 C2394 1.427 . S
N2398 C2395 1.384 . S
N2399 C2391 1.427 . S
N2399 C2397 1.384 . S
H2400 C2406 0.930 . S
H2401 C2410 0.930 . S
H2402 C2415 0.929 . S
H2403 C2413 0.929 . S
H2404 C2408 0.929 1_545 S
H2405 C2414 0.929 1_565 S
C2406 H2400 0.930 . S
C2406 C2407 1.367 . S
C2406 C2414 1.378 . S
C2407 C2406 1.367 . S
C2407 C2415 1.433 . S
C2408 H2404 0.929 1_565 S
C2408 C2410 1.378 . S
C2408 C2412 1.350 . S
C2409 C2412 1.463 1_545 S
C2409 C2414 1.350 . S
C2409 N2417 1.427 . S
C2410 H2401 0.930 . S
C2410 C2408 1.378 . S
C2410 C2411 1.367 . S
C2411 C2410 1.367 . S
C2411 C2413 1.433 . S
C2412 C2408 1.350 . S
C2412 C2409 1.463 1_565 S
C2412 N2416 1.427 . S
C2413 H2403 0.929 . S
C2413 C2411 1.433 . S
C2413 N2416 1.384 . S
C2414 H2405 0.929 1_545 S
C2414 C2406 1.378 . S
C2414 C2409 1.350 . S
C2415 H2402 0.929 . S
C2415 C2407 1.433 . S
C2415 N2417 1.384 . S
N2416 C2412 1.427 . S
N2416 C2413 1.384 . S
N2417 C2409 1.427 . S
N2417 C2415 1.384 . S
H2418 C2424 0.930 . S
H2419 C2428 0.930 . S
H2420 C2433 0.929 . S
H2421 C2431 0.929 . S
H2422 C2426 0.929 . S
H2423 C2432 0.929 . S
C2424 H2418 0.930 . S
C2424 C2425 1.367 . S
C2424 C2432 1.378 . S
C2425 C2424 1.367 . S
C2425 C2433 1.433 . S
C2426 H2422 0.929 . S
C2426 C2428 1.378 . S
C2426 C2430 1.350 . S
C2427 C2430 1.463 . S
C2427 C2432 1.350 . S
C2427 N2435 1.427 . S
C2428 H2419 0.930 . S
C2428 C2426 1.378 . S
C2428 C2429 1.367 . S
C2429 C2428 1.367 . S
C2429 C2431 1.433 . S
C2430 C2426 1.350 . S
C2430 C2427 1.463 . S
C2430 N2434 1.427 . S
C2431 H2421 0.929 . S
C2431 C2429 1.433 . S
C2431 N2434 1.384 . S
C2432 H2423 0.929 . S
C2432 C2424 1.378 . S
C2432 C2427 1.350 . S
C2433 H2420 0.929 . S
C2433 C2425 1.433 . S
C2433 N2435 1.384 . S
N2434 C2430 1.427 . S
N2434 C2431 1.384 . S
N2435 C2427 1.427 . S
N2435 C2433 1.384 . S
H2436 C2442 0.931 1_565 S
H2437 C2446 0.931 1_545 S
H2438 C2451 0.929 . S
H2439 C2449 0.929 . S
H2440 C2444 0.929 . S
H2441 C2450 0.929 . S
C2442 H2436 0.931 1_545 S
C2442 C2443 1.367 . S
C2442 C2450 1.378 1_545 S
C2443 C2442 1.367 . S
C2443 C2451 1.433 . S
C2444 H2440 0.929 . S
C2444 C2446 1.378 1_545 S
C2444 C2448 1.350 1_545 S
C2445 C2448 1.463 1_545 S
C2445 C2450 1.350 1_545 S
C2445 N2453 1.427 . S
C2446 H2437 0.931 1_565 S
C2446 C2444 1.378 1_565 S
C2446 C2447 1.367 . S
C2447 C2446 1.367 . S
C2447 C2449 1.433 . S
C2448 C2444 1.350 1_565 S
C2448 C2445 1.463 1_565 S
C2448 N2452 1.427 . S
C2449 H2439 0.929 . S
C2449 C2447 1.433 . S
C2449 N2452 1.384 . S
C2450 H2441 0.929 . S
C2450 C2442 1.378 1_565 S
C2450 C2445 1.350 1_565 S
C2451 H2438 0.929 . S
C2451 C2443 1.433 . S
C2451 N2453 1.384 . S
N2452 C2448 1.427 . S
N2452 C2449 1.384 . S
N2453 C2445 1.427 . S
N2453 C2451 1.384 . S
H2454 C2460 0.930 . S
H2455 C2464 0.930 . S
H2456 C2469 0.929 . S
H2457 C2467 0.929 . S
H2458 C2462 0.929 . S
H2459 C2468 0.929 . S
C2460 H2454 0.930 . S
C2460 C2461 1.367 . S
C2460 C2468 1.378 . S
C2461 C2460 1.367 . S
C2461 C2469 1.433 . S
C2462 H2458 0.929 . S
C2462 C2464 1.378 . S
C2462 C2466 1.350 1_554 S
C2463 C2466 1.463 . S
C2463 C2468 1.350 . S
C2463 N2471 1.427 . S
C2464 H2455 0.930 . S
C2464 C2462 1.378 . S
C2464 C2465 1.367 . S
C2465 C2464 1.367 . S
C2465 C2467 1.433 1_554 S
C2466 C2462 1.350 1_556 S
C2466 C2463 1.463 . S
C2466 N2470 1.427 . S
C2467 H2457 0.929 . S
C2467 C2465 1.433 1_556 S
C2467 N2470 1.384 . S
C2468 H2459 0.929 . S
C2468 C2460 1.378 . S
C2468 C2463 1.350 . S
C2469 H2456 0.929 . S
C2469 C2461 1.433 . S
C2469 N2471 1.384 . S
N2470 C2466 1.427 . S
N2470 C2467 1.384 . S
N2471 C2463 1.427 . S
N2471 C2469 1.384 . S
H2472 C2478 0.930 . S
H2473 C2482 0.930 . S
H2474 C2487 0.929 . S
H2475 C2485 0.929 . S
H2476 C2480 0.929 . S
H2477 C2486 0.929 . S
C2478 H2472 0.930 . S
C2478 C2479 1.367 . S
C2478 C2486 1.378 . S
C2479 C2478 1.367 . S
C2479 C2487 1.433 . S
C2480 H2476 0.929 . S
C2480 C2482 1.378 . S
C2480 C2484 1.350 . S
C2481 C2484 1.463 1_565 S
C2481 C2486 1.350 . S
C2481 N2489 1.427 1_565 S
C2482 H2473 0.930 . S
C2482 C2480 1.378 . S
C2482 C2483 1.367 . S
C2483 C2482 1.367 . S
C2483 C2485 1.433 . S
C2484 C2480 1.350 . S
C2484 C2481 1.463 1_545 S
C2484 N2488 1.427 1_545 S
C2485 H2475 0.929 . S
C2485 C2483 1.433 . S
C2485 N2488 1.384 1_545 S
C2486 H2477 0.929 . S
C2486 C2478 1.378 . S
C2486 C2481 1.350 . S
C2487 H2474 0.929 . S
C2487 C2479 1.433 . S
C2487 N2489 1.384 1_565 S
N2488 C2484 1.427 1_565 S
N2488 C2485 1.384 1_565 S
N2489 C2481 1.427 1_545 S
N2489 C2487 1.384 1_545 S
H2490 C2496 0.930 . S
H2491 C2500 0.930 . S
H2492 C2505 0.929 . S
H2493 C2503 0.929 . S
H2494 C2498 0.929 . S
H2495 C2504 0.929 . S
C2496 H2490 0.930 . S
C2496 C2497 1.367 . S
C2496 C2504 1.378 . S
C2497 C2496 1.367 . S
C2497 C2505 1.433 . S
C2498 H2494 0.929 . S
C2498 C2500 1.378 . S
C2498 C2502 1.350 . S
C2499 C2502 1.463 . S
C2499 C2504 1.350 . S
C2499 N2507 1.427 . S
C2500 H2491 0.930 . S
C2500 C2498 1.378 . S
C2500 C2501 1.367 . S
C2501 C2500 1.367 . S
C2501 C2503 1.433 . S
C2502 C2498 1.350 . S
C2502 C2499 1.463 . S
C2502 N2506 1.427 . S
C2503 H2493 0.929 . S
C2503 C2501 1.433 . S
C2503 N2506 1.384 . S
C2504 H2495 0.929 . S
C2504 C2496 1.378 . S
C2504 C2499 1.350 . S
C2505 H2492 0.929 . S
C2505 C2497 1.433 . S
C2505 N2507 1.384 . S
N2506 C2502 1.427 . S
N2506 C2503 1.384 . S
N2507 C2499 1.427 . S
N2507 C2505 1.384 . S
H2508 C2514 0.930 . S
H2509 C2518 0.930 . S
H2510 C2523 0.919 1_545 S
H2511 C2521 0.919 1_565 S
H2512 C2516 0.929 . S
H2513 C2522 0.929 . S
C2514 H2508 0.930 . S
C2514 C2515 1.367 . S
C2514 C2522 1.378 . S
C2515 C2514 1.367 . S
C2515 C2523 1.433 . S
C2516 H2512 0.929 . S
C2516 C2518 1.378 . S
C2516 C2520 1.350 . S
C2517 C2520 1.463 1_565 S
C2517 C2522 1.350 . S
C2517 N2525 1.427 1_565 S
C2518 H2509 0.930 . S
C2518 C2516 1.378 . S
C2518 C2519 1.367 . S
C2519 C2518 1.367 . S
C2519 C2521 1.433 . S
C2520 C2516 1.350 . S
C2520 C2517 1.463 1_545 S
C2520 N2524 1.427 1_545 S
C2521 H2511 0.919 1_545 S
C2521 C2519 1.433 . S
C2521 N2524 1.384 1_545 S
C2522 H2513 0.929 . S
C2522 C2514 1.378 . S
C2522 C2517 1.350 . S
C2523 H2510 0.919 1_565 S
C2523 C2515 1.433 . S
C2523 N2525 1.384 1_565 S
N2524 C2520 1.427 1_565 S
N2524 C2521 1.384 1_565 S
N2525 C2517 1.427 1_545 S
N2525 C2523 1.384 1_545 S
H2526 C2532 0.930 . S
H2527 C2536 0.930 . S
H2528 C2541 0.929 . S
H2529 C2539 0.929 . S
H2530 C2534 0.929 . S
H2531 C2540 0.929 . S
C2532 H2526 0.930 . S
C2532 C2533 1.367 . S
C2532 C2540 1.378 . S
C2533 C2532 1.367 . S
C2533 C2541 1.433 . S
C2534 H2530 0.929 . S
C2534 C2536 1.378 1_554 S
C2534 C2538 1.350 . S
C2535 C2538 1.463 . S
C2535 C2540 1.350 . S
C2535 N2543 1.427 . S
C2536 H2527 0.930 . S
C2536 C2534 1.378 1_556 S
C2536 C2537 1.367 . S
C2537 C2536 1.367 . S
C2537 C2539 1.433 . S
C2538 C2534 1.350 . S
C2538 C2535 1.463 . S
C2538 N2542 1.427 . S
C2539 H2529 0.929 . S
C2539 C2537 1.433 . S
C2539 N2542 1.384 1_556 S
C2540 H2531 0.929 . S
C2540 C2532 1.378 . S
C2540 C2535 1.350 . S
C2541 H2528 0.929 . S
C2541 C2533 1.433 . S
C2541 N2543 1.384 . S
N2542 C2538 1.427 . S
N2542 C2539 1.384 1_554 S
N2543 C2535 1.427 . S
N2543 C2541 1.384 . S
H2544 C2550 0.930 . S
H2545 C2554 0.930 . S
H2546 C2559 0.929 . S
H2547 C2557 0.929 . S
H2548 C2552 0.929 . S
H2549 C2558 0.929 . S
C2550 H2544 0.930 . S
C2550 C2551 1.367 . S
C2550 C2558 1.378 . S
C2551 C2550 1.367 . S
C2551 C2559 1.433 . S
C2552 H2548 0.929 . S
C2552 C2554 1.378 . S
C2552 C2556 1.350 . S
C2553 C2556 1.463 . S
C2553 C2558 1.350 . S
C2553 N2561 1.427 . S
C2554 H2545 0.930 . S
C2554 C2552 1.378 . S
C2554 C2555 1.367 . S
C2555 C2554 1.367 . S
C2555 C2557 1.433 . S
C2556 C2552 1.350 . S
C2556 C2553 1.463 . S
C2556 N2560 1.427 . S
C2557 H2547 0.929 . S
C2557 C2555 1.433 . S
C2557 N2560 1.384 . S
C2558 H2549 0.929 . S
C2558 C2550 1.378 . S
C2558 C2553 1.350 . S
C2559 H2546 0.929 . S
C2559 C2551 1.433 . S
C2559 N2561 1.384 . S
N2560 C2556 1.427 . S
N2560 C2557 1.384 . S
N2561 C2553 1.427 . S
N2561 C2559 1.384 . S
H2562 C2568 0.930 . S
H2563 C2572 0.930 . S
H2564 C2577 0.929 . S
H2565 C2575 0.929 . S
H2566 C2570 0.929 . S
H2567 C2576 0.929 . S
C2568 H2562 0.930 . S
C2568 C2569 1.367 . S
C2568 C2576 1.378 1_556 S
C2569 C2568 1.367 . S
C2569 C2577 1.433 . S
C2570 H2566 0.929 . S
C2570 C2572 1.378 . S
C2570 C2574 1.350 . S
C2571 C2574 1.463 . S
C2571 C2576 1.350 . S
C2571 N2579 1.427 . S
C2572 H2563 0.930 . S
C2572 C2570 1.378 . S
C2572 C2573 1.367 . S
C2573 C2572 1.367 . S
C2573 C2575 1.433 . S
C2574 C2570 1.350 . S
C2574 C2571 1.463 . S
C2574 N2578 1.427 . S
C2575 H2565 0.929 . S
C2575 C2573 1.433 . S
C2575 N2578 1.384 . S
C2576 H2567 0.929 . S
C2576 C2568 1.378 1_554 S
C2576 C2571 1.350 . S
C2577 H2564 0.929 . S
C2577 C2569 1.433 . S
C2577 N2579 1.384 1_556 S
N2578 C2574 1.427 . S
N2578 C2575 1.384 . S
N2579 C2571 1.427 . S
N2579 C2577 1.384 1_554 S
H2580 C2586 0.930 . S
H2581 C2590 0.930 . S
H2582 C2595 0.929 . S
H2583 C2593 0.929 . S
H2584 C2588 0.929 . S
H2585 C2594 0.929 . S
C2586 H2580 0.930 . S
C2586 C2587 1.367 . S
C2586 C2594 1.378 . S
C2587 C2586 1.367 . S
C2587 C2595 1.433 . S
C2588 H2584 0.929 . S
C2588 C2590 1.378 . S
C2588 C2592 1.350 . S
C2589 C2592 1.463 . S
C2589 C2594 1.350 . S
C2589 N2597 1.427 . S
C2590 H2581 0.930 . S
C2590 C2588 1.378 . S
C2590 C2591 1.367 . S
C2591 C2590 1.367 . S
C2591 C2593 1.433 . S
C2592 C2588 1.350 . S
C2592 C2589 1.463 . S
C2592 N2596 1.427 . S
C2593 H2583 0.929 . S
C2593 C2591 1.433 . S
C2593 N2596 1.384 . S
C2594 H2585 0.929 . S
C2594 C2586 1.378 . S
C2594 C2589 1.350 . S
C2595 H2582 0.929 . S
C2595 C2587 1.433 . S
C2595 N2597 1.384 . S
N2596 C2592 1.427 . S
N2596 C2593 1.384 . S
N2597 C2589 1.427 . S
N2597 C2595 1.384 . S
H2598 C2604 0.930 . S
H2599 C2608 0.930 . S
H2600 C2613 0.929 . S
H2601 C2611 0.929 . S
H2602 C2606 0.929 . S
H2603 C2612 0.929 . S
C2604 H2598 0.930 . S
C2604 C2605 1.367 . S
C2604 C2612 1.378 . S
C2605 C2604 1.367 . S
C2605 C2613 1.433 . S
C2606 H2602 0.929 . S
C2606 C2608 1.378 . S
C2606 C2610 1.350 . S
C2607 C2610 1.463 . S
C2607 C2612 1.350 . S
C2607 N2615 1.427 . S
C2608 H2599 0.930 . S
C2608 C2606 1.378 . S
C2608 C2609 1.367 . S
C2609 C2608 1.367 . S
C2609 C2611 1.433 . S
C2610 C2606 1.350 . S
C2610 C2607 1.463 . S
C2610 N2614 1.427 . S
C2611 H2601 0.929 . S
C2611 C2609 1.433 . S
C2611 N2614 1.384 . S
C2612 H2603 0.929 . S
C2612 C2604 1.378 . S
C2612 C2607 1.350 . S
C2613 H2600 0.929 . S
C2613 C2605 1.433 . S
C2613 N2615 1.384 . S
N2614 C2610 1.427 . S
N2614 C2611 1.384 . S
N2615 C2607 1.427 . S
N2615 C2613 1.384 . S
H2616 C2622 0.930 . S
H2617 C2626 0.930 . S
H2618 C2631 0.929 . S
H2619 C2629 0.929 . S
H2620 C2624 0.929 . S
H2621 C2630 0.929 . S
C2622 H2616 0.930 . S
C2622 C2623 1.367 . S
C2622 C2630 1.378 . S
C2623 C2622 1.367 . S
C2623 C2631 1.433 . S
C2624 H2620 0.929 . S
C2624 C2626 1.378 . S
C2624 C2628 1.350 . S
C2625 C2628 1.463 . S
C2625 C2630 1.350 . S
C2625 N2633 1.427 . S
C2626 H2617 0.930 . S
C2626 C2624 1.378 . S
C2626 C2627 1.367 . S
C2627 C2626 1.367 . S
C2627 C2629 1.433 . S
C2628 C2624 1.350 . S
C2628 C2625 1.463 . S
C2628 N2632 1.427 . S
C2629 H2619 0.929 . S
C2629 C2627 1.433 . S
C2629 N2632 1.384 . S
C2630 H2621 0.929 . S
C2630 C2622 1.378 . S
C2630 C2625 1.350 . S
C2631 H2618 0.929 . S
C2631 C2623 1.433 . S
C2631 N2633 1.384 . S
N2632 C2628 1.427 . S
N2632 C2629 1.384 . S
N2633 C2625 1.427 . S
N2633 C2631 1.384 . S
H2634 C2640 0.930 . S
H2635 C2644 0.930 . S
H2636 C2649 0.929 . S
H2637 C2647 0.929 . S
H2638 C2642 0.929 . S
H2639 C2648 0.929 . S
C2640 H2634 0.930 . S
C2640 C2641 1.367 . S
C2640 C2648 1.378 . S
C2641 C2640 1.367 . S
C2641 C2649 1.433 . S
C2642 H2638 0.929 . S
C2642 C2644 1.378 . S
C2642 C2646 1.350 . S
C2643 C2646 1.463 . S
C2643 C2648 1.350 . S
C2643 N2651 1.427 . S
C2644 H2635 0.930 . S
C2644 C2642 1.378 . S
C2644 C2645 1.367 1_556 S
C2645 C2644 1.367 1_554 S
C2645 C2647 1.433 . S
C2646 C2642 1.350 . S
C2646 C2643 1.463 . S
C2646 N2650 1.427 . S
C2647 H2637 0.929 . S
C2647 C2645 1.433 . S
C2647 N2650 1.384 1_554 S
C2648 H2639 0.929 . S
C2648 C2640 1.378 . S
C2648 C2643 1.350 . S
C2649 H2636 0.929 . S
C2649 C2641 1.433 . S
C2649 N2651 1.384 . S
N2650 C2646 1.427 . S
N2650 C2647 1.384 1_556 S
N2651 C2643 1.427 . S
N2651 C2649 1.384 . S
H2652 C2658 0.930 . S
H2653 C2662 0.930 . S
H2654 C2667 0.929 . S
H2655 C2665 0.929 . S
H2656 C2660 0.929 . S
H2657 C2666 0.929 . S
C2658 H2652 0.930 . S
C2658 C2659 1.367 . S
C2658 C2666 1.378 . S
C2659 C2658 1.367 . S
C2659 C2667 1.433 . S
C2660 H2656 0.929 . S
C2660 C2662 1.378 . S
C2660 C2664 1.350 . S
C2661 C2664 1.463 . S
C2661 C2666 1.350 . S
C2661 N2669 1.427 . S
C2662 H2653 0.930 . S
C2662 C2660 1.378 . S
C2662 C2663 1.367 . S
C2663 C2662 1.367 . S
C2663 C2665 1.433 . S
C2664 C2660 1.350 . S
C2664 C2661 1.463 . S
C2664 N2668 1.427 . S
C2665 H2655 0.929 . S
C2665 C2663 1.433 . S
C2665 N2668 1.384 . S
C2666 H2657 0.929 . S
C2666 C2658 1.378 . S
C2666 C2661 1.350 . S
C2667 H2654 0.929 . S
C2667 C2659 1.433 . S
C2667 N2669 1.384 . S
N2668 C2664 1.427 . S
N2668 C2665 1.384 . S
N2669 C2661 1.427 . S
N2669 C2667 1.384 . S
H2670 C2676 0.930 . S
H2671 C2680 0.930 . S
H2672 C2685 0.929 . S
H2673 C2683 0.929 . S
H2674 C2678 0.929 . S
H2675 C2684 0.929 . S
C2676 H2670 0.930 . S
C2676 C2677 1.367 . S
C2676 C2684 1.378 . S
C2677 C2676 1.367 . S
C2677 C2685 1.433 . S
C2678 H2674 0.929 . S
C2678 C2680 1.378 . S
C2678 C2682 1.350 . S
C2679 C2682 1.463 . S
C2679 C2684 1.350 . S
C2679 N2687 1.427 . S
C2680 H2671 0.930 . S
C2680 C2678 1.378 . S
C2680 C2681 1.367 . S
C2681 C2680 1.367 . S
C2681 C2683 1.433 . S
C2682 C2678 1.350 . S
C2682 C2679 1.463 . S
C2682 N2686 1.427 . S
C2683 H2673 0.929 . S
C2683 C2681 1.433 . S
C2683 N2686 1.384 . S
C2684 H2675 0.929 . S
C2684 C2676 1.378 . S
C2684 C2679 1.350 . S
C2685 H2672 0.929 . S
C2685 C2677 1.433 . S
C2685 N2687 1.384 . S
N2686 C2682 1.427 . S
N2686 C2683 1.384 . S
N2687 C2679 1.427 . S
N2687 C2685 1.384 . S
C967 C27 1.199 . S
C971 C837 1.178 . S
C985 C57 0.141 . S
C989 N246 0.127 . S
C1003 C87 0.214 . S
C1007 N756 0.238 . S
C1021 N306 0.722 . S
C1025 N96 0.858 . S
C1039 C147 1.197 . S
C1043 C897 1.185 . S
C1057 N426 0.722 . S
C1061 N156 0.858 . S
C1075 N936 0.261 . S
C1079 C207 0.204 . S
C1093 C237 0.163 . S
C1097 N366 0.118 . S
C1111 C256 1.198 . S
C1115 C586 1.185 . S
C1129 C286 0.173 . S
C1133 N14 0.169 . S
C1147 N524 0.229 . S
C1151 C316 0.217 . S
C1165 N74 0.707 . S
C1169 N344 0.833 . S
C1183 C376 1.200 . S
C1187 C646 1.174 . S
C1201 N404 0.855 . S
C1205 N194 0.718 . S
C1219 C436 0.204 . S
C1223 N704 0.261 . S
C1237 N134 0.162 . S
C1241 C466 0.185 . S
C1255 C357 1.175 . S
C1259 C507 1.198 . S
C1273 N726 0.169 . S
C1277 C537 0.167 . S
C1291 N276 0.243 . S
C1295 C567 0.211 . S
C1309 N576 0.834 . S
C1313 N786 0.708 . S
C1327 C417 1.185 . S
C1331 C627 1.198 . S
C1345 N906 0.718 . S
C1349 N636 0.847 . S
C1363 N456 0.255 . S
C1367 C687 0.207 . S
C1381 C717 0.188 . S
C1385 N846 0.151 . S
C1399 C736 1.198 . S
C1403 C106 1.178 . S
C1417 C766 0.149 . S
C1421 N494 0.120 . S
C1435 C796 0.205 . S
C1439 N44 0.262 . S
C1453 N824 0.858 . S
C1457 N554 0.721 . S
C1471 C166 1.179 . S
C1475 C856 1.197 . S
C1489 N674 0.714 . S
C1493 N884 0.841 . S
C1507 C916 0.207 . S
C1511 N224 0.257 . S
C1525 C946 0.156 . S
C1529 N614 0.118 . S
C1543 C1 1.904 . S
C1547 C541 1.879 . S
C1561 C580 1.579 . S
C1565 C31 1.584 . S
C1579 C61 1.881 . S
C1583 C481 1.901 . S
C1597 C100 1.568 . S
C1601 C511 1.593 . S
C1615 C661 1.870 . S
C1619 C121 1.908 . S
C1633 C160 1.579 . S
C1637 C691 1.584 . S
C1651 C601 1.901 . S
C1655 C181 1.881 . S
C1669 C211 1.587 . S
C1673 C640 1.574 . S
C1687 C790 1.879 . S
C1691 C250 1.901 . S
C1705 C280 1.585 . S
C1709 C811 1.577 . S
C1723 C310 1.871 . S
C1727 C730 1.906 . S
C1741 C331 1.578 . S
C1745 C760 1.585 . S
C1759 C910 1.881 . S
C1763 C370 1.901 . S
C1777 C940 1.585 . S
C1781 C391 1.579 . S
C1795 C430 1.879 . S
C1799 C850 1.901 . S
C1813 C460 1.593 . S
C1817 C871 1.571 . S
C1831 N6 1.008 . S
C1835 N734 1.008 . S
C1849 N284 1.263 . S
C1853 N36 1.263 . S
C1867 N66 0.673 . S
C1871 N794 0.673 . S
C1885 C117 2.403 . S
C1889 C346 2.403 . S
C1903 N854 1.021 . S
C1907 N126 1.021 . S
C1921 C406 2.403 . S
C1925 C177 2.403 . S
C1939 N186 0.665 . S
C1943 N914 0.665 . S
C1957 N216 1.285 . S
C1961 N464 1.285 . S
C1975 N486 1.014 . S
C1979 N254 1.014 . S
C1993 N546 0.667 . S
C1997 N314 0.667 . S
C2011 N606 1.004 . S
C2015 N374 1.004 . S
C2029 N434 0.685 . S
C2033 N666 0.685 . S
C2047 N516 1.279 . S
C2051 N764 1.279 . S
C2065 C597 2.405 . S
C2069 C826 2.405 . S
C2083 C886 2.403 . S
C2087 C657 2.403 . S
C2101 N944 1.260 . S
C2105 N696 1.260 . S
C2119 C10 3.393 . S
C2123 C151 3.358 . S
C2137 C190 2.737 . S
C2141 C40 2.750 . S
C2155 C220 2.753 . S
C2159 C70 2.741 . S
C2173 C130 3.396 . S
C2177 C91 3.361 . S
C2191 C241 3.392 . S
C2195 C400 3.357 . S
C2209 C271 2.750 . S
C2213 C421 2.737 . S
C2227 C451 2.749 . S
C2231 C301 2.737 . S
C2245 C340 3.359 . S
C2249 C361 3.393 . S
C2263 C490 3.393 . S
C2267 C631 3.359 . S
C2281 C520 2.749 . S
C2285 C670 2.737 . S
C2299 C550 2.737 . S
C2303 C700 2.749 . S
C2317 C610 3.397 . S
C2321 C571 3.362 . S
C2335 C721 3.393 . S
C2339 C880 3.356 . S
C2353 C751 2.749 . S
C2357 C901 2.737 . S
C2371 C931 2.754 . S
C2375 C781 2.742 . S
C2389 C820 3.360 . S
C2393 C841 3.394 . S
C2407 C16 2.309 . S
C2411 C136 2.307 . S
C2425 C46 1.372 . S
C2429 N164 1.354 . S
C2443 C196 1.797 . S
C2447 C76 1.797 . S
C2461 C226 1.370 . S
C2465 N104 1.351 . S
C2479 C267 2.307 . S
C2483 C387 2.306 . S
C2497 N396 1.360 . S
C2501 C297 1.377 . S
C2515 C447 1.794 . S
C2519 C327 1.794 . S
C2533 C477 1.369 . S
C2537 N336 1.347 . S
C2551 C496 2.306 . S
C2555 C616 2.307 . S
C2569 N644 1.347 . S
C2573 C526 1.369 . S
C2587 C556 1.794 . S
C2591 C676 1.795 . S
C2605 C706 1.369 . S
C2609 N584 1.349 . S
C2623 C867 2.307 . S
C2627 C747 2.306 . S
C2641 C777 1.371 . S
C2645 N876 1.350 . S
C2659 C807 1.797 . S
C2663 C927 1.797 . S
C2677 N816 1.356 . S
C2681 C957 1.373 . S
