# Generated by pormake.
# Topology snp, (6)-cn, num edge types: 1
# Building blocks:
#     Node 0, Type 0, BuildingBlock: CUKXOW_clean_sbu_0, # of connection points: 6
#     Node 1, Type 0, BuildingBlock: CUKXOW_clean_sbu_0, # of connection points: 6
#     Node 2, Type 0, BuildingBlock: CUKXOW_clean_sbu_0, # of connection points: 6
#     Node 3, Type 0, BuildingBlock: CUKXOW_clean_sbu_0, # of connection points: 6
#     Edge 4, Type (0, 0), BuildingBlock: XUDNAN_clean_linker_2, # of connection points: 2
#     Edge 5, Type (0, 0), BuildingBlock: XUDNAN_clean_linker_2, # of connection points: 2
#     Edge 6, Type (0, 0), BuildingBlock: XUDNAN_clean_linker_2, # of connection points: 2
#     Edge 7, Type (0, 0), BuildingBlock: XUDNAN_clean_linker_2, # of connection points: 2
#     Edge 8, Type (0, 0), BuildingBlock: XUDNAN_clean_linker_2, # of connection points: 2
#     Edge 9, Type (0, 0), BuildingBlock: XUDNAN_clean_linker_2, # of connection points: 2
#     Edge 10, Type (0, 0), BuildingBlock: XUDNAN_clean_linker_2, # of connection points: 2
#     Edge 11, Type (0, 0), BuildingBlock: XUDNAN_clean_linker_2, # of connection points: 2
#     Edge 12, Type (0, 0), BuildingBlock: XUDNAN_clean_linker_2, # of connection points: 2
#     Edge 13, Type (0, 0), BuildingBlock: XUDNAN_clean_linker_2, # of connection points: 2
#     Edge 14, Type (0, 0), BuildingBlock: XUDNAN_clean_linker_2, # of connection points: 2
#     Edge 15, Type (0, 0), BuildingBlock: XUDNAN_clean_linker_2, # of connection points: 2
# Relax obj value: 0.224
# Max RMSD: 0.185
# Mean RMSD: 0.180
data_MOF--net-snp--node1-CUKXOW_clean_sbu_0--edge1-XUDNAN_clean_linker_2
_symmetry_space_group_name_H-M    P1
_symmetry_Int_Tables_number       1
_symmetry_cell_setting            triclinic
loop_
_symmetry_equiv_pos_as_xyz
'x, y, z'
_cell_length_a     24.775508
_cell_length_b     25.201971
_cell_length_c     26.911542
_cell_angle_alpha  101.18216
_cell_angle_beta   98.257934
_cell_angle_gamma 103.10696
loop_
_atom_site_label
_atom_site_type_symbol
_atom_site_fract_x
_atom_site_fract_y
_atom_site_fract_z
_atom_type_partial_charge
Tb0 Tb 0.27934 0.02435 0.14507 0.0
C1 C 0.37983 0.06178 0.08655 0.0
Tb2 Tb 0.28307 0.12525 0.09676 0.0
O3 O 0.20991 0.97035 0.08331 0.0
O4 O 0.26674 0.03689 0.06812 0.0
O5 O 0.35637 0.0261 0.11305 0.0
C6 C 0.25468 0.18086 1.0279 0.0
O7 O 0.3587 0.10347 0.07616 0.0
C8 C 0.30326 0.15599 0.20063 0.0
C9 C 0.1852 0.08522 0.14841 0.0
O10 O 0.30541 0.19194 0.05554 0.0
O11 O 0.22168 0.13901 0.03902 0.0
O12 O 0.29317 0.18823 0.1701 0.0
O13 O 0.30979 0.11294 0.17086 0.0
O14 O 0.1966 0.09439 0.10415 0.0
O15 O 0.21418 0.05805 0.17416 0.0
C16 C 0.3015 0.96787 0.21658 0.0
O17 O 0.25791 0.95196 0.17888 0.0
O18 O 0.334 0.01385 0.21159 0.0
C19 C 0.22091 0.99918 0.04902 0.0
Tb20 Tb 0.14127 0.29516 0.61674 0.0
C21 C 0.11051 0.40095 0.58527 0.0
Tb22 Tb 0.02933 0.27833 0.54188 0.0
O23 O 0.19833 0.28391 0.56226 0.0
O24 O 0.11392 0.27622 0.53504 0.0
O25 O 0.14744 0.38292 0.6145 0.0
C26 C 0.94609 0.26143 0.46049 0.0
O27 O 0.06328 0.36747 0.55482 0.0
C28 C 0.01495 0.27768 0.63935 0.0
C29 C 0.05517 0.18009 0.5692 0.0
O30 O 0.99144 0.30284 0.47327 0.0
O31 O 0.9482 0.23025 0.4933 0.0
O32 O 0.9757 0.25729 0.5982 0.0
O33 O 0.05799 0.30395 0.62452 0.0
O34 O 0.05274 0.20113 0.52846 0.0
O35 O 0.08862 0.21185 0.61241 0.0
C36 C 0.20976 0.29211 0.7023 0.0
O37 O 0.19507 0.25501 0.65884 0.0
O38 O 0.18765 0.3331 0.6961 0.0
C39 C 0.15988 0.27173 0.52067 0.0
Tb40 Tb 0.84113 0.02636 0.11012 0.0
C41 C 0.92818 0.14675 0.13743 0.0
Tb42 Tb 0.85455 0.10092 1.02435 0.0
O43 O 0.85048 0.95436 0.05674 0.0
O44 O 0.8855 0.03477 0.04778 0.0
O45 O 0.89874 0.10471 0.15337 0.0
C46 C 0.89444 0.13992 0.94405 0.0
O47 O 0.92406 0.14942 0.08806 0.0
C48 C 0.8084 0.13968 0.10221 0.0
C49 C 0.73759 0.00985 1.01888 0.0
O50 O 0.92135 0.12068 0.97881 0.0
O51 O 0.84362 0.1359 0.9539 0.0
O52 O 0.82901 0.17052 0.0719 0.0
O53 O 0.81191 0.09092 0.08448 0.0
O54 O 0.77218 0.03736 0.99241 0.0
O55 O 0.75496 0.004 0.06654 0.0
C56 C 0.84741 0.98302 0.19577 0.0
O57 O 0.80191 0.99019 0.16956 0.0
O58 O 0.88912 1.00065 0.17356 0.0
C59 C 0.87404 0.98298 1.02688 0.0
Tb60 Tb 0.05613 0.89377 0.56807 0.0
C61 C 0.05332 0.76754 0.57742 0.0
Tb62 Tb 0.9567 0.82188 0.60525 0.0
O63 O 0.09198 0.94789 0.64585 0.0
O64 O 0.04401 0.86587 0.63653 0.0
O65 O 0.08183 0.81578 0.56935 0.0
C66 C 0.8972 0.80317 0.67837 0.0
O67 O 0.00282 0.75932 0.59038 0.0
C68 C 0.92771 0.82409 0.50505 0.0
C69 C 0.95458 0.93681 0.59408 0.0
O70 O 0.93276 0.77548 0.66341 0.0
O71 O 0.89192 0.83689 0.64849 0.0
O72 O 0.89421 0.79716 0.53061 0.0
O73 O 0.97432 0.84293 0.53656 0.0
O74 O 0.95781 0.90817 0.6295 0.0
O75 O 0.98848 0.936 0.56011 0.0
C76 C 0.12539 0.92054 0.50464 0.0
O77 O 0.08624 0.87427 0.4964 0.0
O78 O 0.12543 0.95273 0.54872 0.0
C79 C 0.06851 0.91143 0.66993 0.0
H80 H 0.00228 0.23857 0.12585 0.0
H81 H 0.94294 0.1574 0.24198 0.0
H82 H 0.03479 0.19633 0.29855 0.0
H83 H 0.0804 0.206 0.09471 0.0
H84 H 0.14724 0.25554 0.09993 0.0
H85 H 0.08479 0.27962 0.10044 0.0
H86 H 0.13715 0.35064 0.18429 0.0
H87 H 0.19788 0.32227 0.18687 0.0
H88 H 0.16213 0.32828 0.24059 0.0
H89 H 0.10348 0.14647 0.2856 0.0
H90 H 0.14233 0.07733 0.2355 0.0
H91 H 0.17728 0.18487 0.13053 0.0
C92 C 0.00928 0.23183 0.16446 0.0
C93 C 0.96884 0.19117 0.17783 0.0
C94 C 0.9755 0.18501 0.2291 0.0
C95 C 0.02764 0.20817 0.26206 0.0
C96 C 0.07289 0.23155 0.24088 0.0
C97 C 0.06359 0.25111 0.19576 0.0
C98 C 0.11675 0.25941 0.17327 0.0
C99 C 0.10649 0.24928 0.11355 0.0
C100 C 0.15581 0.31854 0.19779 0.0
C101 C 0.14057 0.21611 0.19367 0.0
C102 C 0.11884 0.20491 0.23639 0.0
C103 C 0.12176 0.15613 0.2532 0.0
C104 C 0.14232 0.11608 0.22375 0.0
C105 C 0.16084 0.12535 0.17845 0.0
C106 C 0.16228 0.17677 0.16484 0.0
H107 H 0.8971 0.94865 0.50542 0.0
H108 H 0.89631 0.96973 0.66768 0.0
H109 H 0.84146 0.03835 0.66308 0.0
H110 H 0.92832 0.01652 0.46479 0.0
H111 H 0.89093 0.05338 0.42738 0.0
H112 H 0.85676 0.98338 0.42994 0.0
H113 H 0.77462 0.02292 0.45816 0.0
H114 H 0.81411 0.0917 0.4567 0.0
H115 H 0.78904 0.08018 0.51398 0.0
H116 H 0.9326 0.11212 0.66922 0.0
H117 H 0.02502 0.15785 0.65816 0.0
H118 H 0.96414 0.12284 0.49337 0.0
C119 C 0.8831 0.96736 0.53912 0.0
C120 C 0.90589 0.96012 0.58753 0.0
C121 C 0.88372 0.97908 0.63078 0.0
C122 C 0.85155 0.01736 0.62801 0.0
C123 C 0.85107 0.04108 0.58516 0.0
C124 C 0.853 0.00854 0.53713 0.0
C125 C 0.86234 0.0466 0.50021 0.0
C126 C 0.88619 0.0235 0.45289 0.0
C127 C 0.80686 0.0613 0.48136 0.0
C128 C 0.90293 0.09582 0.53875 0.0
C129 C 0.89335 0.09352 0.58826 0.0
C130 C 0.93746 0.1177 0.63127 0.0
C131 C 0.99132 0.14158 0.62439 0.0
C132 C 0.00135 0.14497 0.57488 0.0
C133 C 0.95652 0.12249 0.53194 0.0
H134 H 0.65454 0.95422 0.06112 0.0
H135 H 0.68099 0.04989 0.94481 0.0
H136 H 0.58585 0.06484 0.94296 0.0
H137 H 0.49542 0.89475 1.01724 0.0
H138 H 0.48662 0.90264 0.08339 0.0
H139 H 0.54982 0.88727 0.06556 0.0
H140 H 0.60996 0.97449 0.13552 0.0
H141 H 0.54733 0.99141 0.15255 0.0
H142 H 0.59892 0.04237 0.13341 0.0
H143 H 0.4983 0.08723 0.96786 0.0
H144 H 0.41921 0.10469 1.00874 0.0
H145 H 0.45021 0.99594 0.11044 0.0
C146 C 0.63949 0.97614 1.03343 0.0
C147 C 0.67559 1.00088 1.00312 0.0
C148 C 0.65424 0.02992 0.96803 0.0
C149 C 0.60024 0.03905 0.96703 0.0
C150 C 0.56781 0.01817 1.00076 0.0
C151 C 0.58607 0.98605 1.0324 0.0
C152 C 0.54648 0.97398 0.06931 0.0
C153 C 0.51787 0.91091 0.05819 0.0
C154 C 0.57755 0.99695 0.12602 0.0
C155 C 0.50439 0.00635 0.05511 0.0
C156 C 0.51716 0.03114 1.01518 0.0
C157 C 0.48717 0.06694 0.99829 0.0
C158 C 0.4426 0.07707 1.02224 0.0
C159 C 0.42825 0.0516 0.06286 0.0
C160 C 0.4596 0.01555 0.07916 0.0
H161 H 0.03865 0.44834 0.53468 0.0
H162 H 0.20174 0.49077 0.63808 0.0
H163 H 0.21101 0.59146 0.63951 0.0
H164 H 0.07103 0.55485 0.46191 0.0
H165 H 1.00118 0.56556 0.45772 0.0
H166 H 0.01161 0.49769 0.46067 0.0
H167 H 0.96394 0.49854 0.54049 0.0
H168 H 0.95316 0.56609 0.5377 0.0
H169 H 0.99089 0.55644 0.59631 0.0
H170 H 0.19794 0.68897 0.63194 0.0
H171 H 0.16053 0.77104 0.62335 0.0
H172 H 0.00481 0.65959 0.52887 0.0
C173 C 0.077 0.47821 0.5573 0.0
C174 C 0.11966 0.46137 0.58617 0.0
C175 C 0.16855 0.50261 0.6155 0.0
C176 C 0.17423 0.55978 0.61629 0.0
C177 C 0.13072 0.5746 0.58747 0.0
C178 C 0.08301 0.5346 0.55877 0.0
C179 C 0.03965 0.56019 0.53447 0.0
C180 C 0.03035 0.54358 0.47518 0.0
C181 C 0.98366 0.54439 0.55341 0.0
C182 C 0.0694 0.62137 0.55505 0.0
C183 C 0.12246 0.62932 0.58456 0.0
C184 C 0.15668 0.68299 0.6086 0.0
C185 C 0.13533 0.72927 0.60334 0.0
C186 C 0.08004 0.72105 0.5753 0.0
C187 C 0.04734 0.66666 0.55025 0.0
H188 H 0.21135 0.32187 0.45035 0.0
H189 H 0.13631 0.16003 0.47748 0.0
H190 H 0.17303 0.11354 0.40463 0.0
H191 H 0.17952 0.28476 0.31681 0.0
H192 H 0.24474 0.32068 0.30169 0.0
H193 H 0.2229 0.34782 0.36031 0.0
H194 H 0.31053 0.34687 0.42001 0.0
H195 H 0.34002 0.32653 0.36405 0.0
H196 H 0.33725 0.28559 0.41206 0.0
H197 H 0.2325 0.0863 0.33591 0.0
H198 H 0.27789 0.07683 0.25982 0.0
H199 H 0.29778 0.25325 0.26533 0.0
C200 C 0.20114 0.27654 0.43988 0.0
C201 C 0.16919 0.24455 0.46893 0.0
C202 C 0.15886 0.18542 0.45498 0.0
C203 C 0.18059 0.15868 0.41413 0.0
C204 C 0.21281 0.1914 0.38693 0.0
C205 C 0.22165 0.24902 0.39834 0.0
C206 C 0.2556 0.27427 0.36164 0.0
C207 C 0.22384 0.3088 0.33325 0.0
C208 C 0.31432 0.31046 0.39121 0.0
C209 C 0.26094 0.22163 0.32554 0.0
C210 C 0.23969 0.17472 0.34317 0.0
C211 C 0.24703 0.12253 0.32063 0.0
C212 C 0.27308 0.11744 0.27706 0.0
C213 C 0.28875 0.16331 0.25406 0.0
C214 C 0.28432 0.21658 0.28033 0.0
H215 H 0.91557 0.23321 0.67133 0.0
H216 H 0.09476 0.30433 0.73044 0.0
H217 H 0.08271 0.27979 0.81397 0.0
H218 H 0.87861 0.28646 0.79802 0.0
H219 H 0.81779 0.22816 0.78934 0.0
H220 H 0.83925 0.2508 0.73393 0.0
H221 H 0.84914 0.14987 0.69327 0.0
H222 H 0.82052 0.13038 0.74694 0.0
H223 H 0.88602 0.1163 0.73585 0.0
H224 H 0.05322 0.2309 0.88625 0.0
H225 H 0.00648 0.18533 0.94801 0.0
H226 H 0.84343 0.15632 0.84892 0.0
C227 C 0.95256 0.24343 0.70174 0.0
C228 C 0.00711 0.26907 0.69285 0.0
C229 C 0.05329 0.28318 0.73485 0.0
C230 C 0.04669 0.26889 0.78254 0.0
C231 C 0.99326 0.2408 0.78882 0.0
C232 C 0.94647 0.22998 0.75008 0.0
C233 C 0.89287 0.20434 0.76884 0.0
C234 C 0.85487 0.24485 0.77277 0.0
C235 C 0.86028 0.14689 0.73394 0.0
C236 C 0.91718 0.19831 0.82243 0.0
C237 C 0.97532 0.21957 0.83305 0.0
C238 C 0.00771 0.21507 0.87833 0.0
C239 C 0.98055 0.18869 0.91334 0.0
C240 C 0.92087 0.16735 0.90437 0.0
C241 C 0.88892 0.17278 0.85793 0.0
H242 H 0.99022 0.8776 0.43952 0.0
H243 H 0.81939 0.81406 0.4611 0.0
H244 H 0.78214 0.84822 0.3871 0.0
H245 H 0.97488 0.00271 0.3956 0.0
H246 H 0.01685 0.99249 0.34727 0.0
H247 H 0.02852 0.9656 0.40411 0.0
H248 H 0.01329 0.867 0.34322 0.0
H249 H 1.00069 0.89625 0.28785 0.0
H250 H 0.94881 0.83715 0.29578 0.0
H251 H 0.762 0.89345 0.31316 0.0
H252 H 0.76004 0.93828 0.23926 0.0
H253 H 0.94205 0.96861 0.25785 0.0
C254 C 0.94502 0.87068 0.42853 0.0
C255 C 0.90792 0.84289 0.45697 0.0
C256 C 0.84898 0.83467 0.44044 0.0
C257 C 0.82724 0.85425 0.39828 0.0
C258 C 0.86451 0.88148 0.37134 0.0
C259 C 0.92219 0.88914 0.38522 0.0
C260 C 0.95214 0.91721 0.3473 0.0
C261 C 0.99563 0.97276 0.37534 0.0
C262 C 0.98042 0.87702 0.31666 0.0
C263 C 0.90263 0.92686 0.31205 0.0
C264 C 0.85252 0.90557 0.32679 0.0
C265 C 0.801 0.90972 0.30104 0.0
C266 C 0.80026 0.93551 0.25894 0.0
C267 C 0.85056 0.95708 0.24203 0.0
C268 C 0.9026 0.95258 0.26939 0.0
H269 H 0.15428 0.99091 0.74252 0.0
H270 H 0.01428 0.84676 0.72812 0.0
H271 H 0.03517 0.85715 0.82265 0.0
H272 H 0.24782 0.95573 0.83997 0.0
H273 H 0.28072 0.0274 0.87432 0.0
H274 H 0.25255 0.01112 0.80598 0.0
H275 H 0.19006 0.08003 0.82136 0.0
H276 H 0.21885 0.09652 0.88955 0.0
H277 H 0.14331 0.07202 0.86647 0.0
H278 H 0.07191 0.88261 0.91909 0.0
H279 H 0.12433 0.91661 1.00905 0.0
H280 H 0.24545 0.04249 0.96347 0.0
C281 C 0.12773 0.96176 0.75933 0.0
C282 C 0.08164 0.91824 0.7275 0.0
C283 C 0.04894 0.88061 0.75127 0.0
C284 C 0.06073 0.88628 0.80515 0.0
C285 C 0.1064 0.92934 0.83529 0.0
C286 C 0.13989 0.96611 0.81321 0.0
C287 C 0.18835 0.0068 0.85427 0.0
C288 C 0.24576 0.99983 0.84295 0.0
C289 C 0.18491 0.06747 0.85813 0.0
C290 C 0.17666 0.98754 0.90299 0.0
C291 C 0.12889 0.94291 0.89089 0.0
C292 C 0.10943 0.91736 0.9288 0.0
C293 C 0.13967 0.93711 0.98005 0.0
C294 C 0.18935 0.98217 0.99386 0.0
C295 C 0.20772 0.00802 0.95451 0.0
H296 H 0.86751 0.00936 0.93173 0.0
H297 H 0.91518 0.89262 1.01735 0.0
H298 H 0.9255 0.8328 0.93714 0.0
H299 H 0.78319 0.91081 0.8255 0.0
H300 H 0.80368 0.94724 0.77696 0.0
H301 H 0.80823 0.98623 0.84165 0.0
H302 H 0.91444 0.03285 0.84874 0.0
H303 H 0.90977 0.99533 0.7834 0.0
H304 H 0.96162 0.9894 0.83488 0.0
H305 H 0.92289 0.78134 0.84733 0.0
H306 H 0.91613 0.74632 0.75342 0.0
H307 H 0.86536 0.89351 0.72549 0.0
C308 C 0.88235 0.97245 0.93365 0.0
C309 C 0.89154 0.95593 0.98062 0.0
C310 C 0.90858 0.90612 0.98161 0.0
C311 C 0.91437 0.87177 0.93629 0.0
C312 C 0.90268 0.88768 0.89013 0.0
C313 C 0.88793 0.93724 0.88839 0.0
C314 C 0.87477 0.94267 0.83313 0.0
C315 C 0.81383 0.94696 0.81848 0.0
C316 C 0.91771 0.99304 0.82454 0.0
C317 C 0.88232 0.88759 0.80438 0.0
C318 C 0.89913 0.85683 0.83798 0.0
C319 C 0.90972 0.80498 0.82049 0.0
C320 C 0.90509 0.78502 0.76717 0.0
C321 C 0.88919 0.81652 0.7322 0.0
C322 C 0.87641 0.86778 0.75117 0.0
H323 H 0.22594 0.88275 0.23764 0.0
H324 H 0.3694 0.02513 0.30908 0.0
H325 H 0.34467 0.0232 0.39432 0.0
H326 H 0.1322 0.92493 0.3033 0.0
H327 H 0.096 0.85678 0.30994 0.0
H328 H 0.1323 0.86238 0.25744 0.0
H329 H 0.19016 0.79575 0.28689 0.0
H330 H 0.15339 0.79119 0.33969 0.0
H331 H 0.22951 0.81329 0.35226 0.0
H332 H 0.29207 0.01959 0.46713 0.0
H333 H 0.22388 0.00383 0.52522 0.0
H334 H 0.11626 0.86281 0.4065 0.0
C335 C 0.25377 0.91156 0.27162 0.0
C336 C 0.29957 0.95386 0.26697 0.0
C337 C 0.33446 0.99188 0.31197 0.0
C338 C 0.3205 0.99138 0.36055 0.0
C339 C 0.27241 0.95174 0.3634 0.0
C340 C 0.24058 0.91134 0.32036 0.0
C341 C 0.18802 0.87683 0.33274 0.0
C342 C 0.13401 0.88059 0.29885 0.0
C343 C 0.19044 0.81564 0.32761 0.0
C344 C 0.19357 0.90618 0.38853 0.0
C345 C 0.24268 0.94902 0.40575 0.0
C346 C 0.25428 0.98514 0.45461 0.0
C347 C 0.21519 0.97633 0.48708 0.0
C348 C 0.16541 0.93187 0.4703 0.0
C349 C 0.15458 0.89657 0.42049 0.0
H350 H 0.29188 0.32844 0.79254 0.0
H351 H 0.13042 0.21055 0.71809 0.0
H352 H 0.12088 0.18165 0.79895 0.0
H353 H 0.33495 0.22906 0.86105 0.0
H354 H 0.37488 0.28178 0.91764 0.0
H355 H 0.36696 0.29891 0.85554 0.0
H356 H 0.32604 0.38069 0.89297 0.0
H357 H 0.33269 0.36286 0.95489 0.0
H358 H 0.26511 0.36639 0.92252 0.0
H359 H 0.12235 0.1726 0.88664 0.0
H360 H 0.15032 0.1525 0.97041 0.0
H361 H 0.31873 0.26124 0.9876 0.0
C362 C 0.25461 0.29694 0.79385 0.0
C363 C 0.21082 0.27297 0.7501 0.0
C364 C 0.1637 0.23009 0.75185 0.0
C365 C 0.15761 0.21376 0.79757 0.0
C366 C 0.19976 0.23986 0.84082 0.0
C367 C 0.24876 0.27819 0.83911 0.0
C368 C 0.29114 0.29178 0.88951 0.0
C369 C 0.34517 0.27432 0.88038 0.0
C370 C 0.30452 0.35415 0.91657 0.0
C371 C 0.25773 0.25513 0.91924 0.0
C372 C 0.20421 0.22796 0.8908 0.0
C373 C 0.16433 0.19286 0.90928 0.0
C374 C 0.18074 0.18177 0.95693 0.0
C375 C 0.237 0.20441 0.98466 0.0
C376 C 0.2756 0.24321 0.96672 0.0
H377 H 0.8519 0.24556 0.1664 0.0
H378 H 0.75241 0.0778 0.15871 0.0
H379 H 0.76044 0.10089 0.25285 0.0
H380 H 0.95343 0.27451 0.27718 0.0
H381 H 0.94786 0.34411 0.29803 0.0
H382 H 0.92635 0.30969 0.23069 0.0
H383 H 0.83139 0.33953 0.24454 0.0
H384 H 0.85615 0.36223 0.31358 0.0
H385 H 0.79076 0.30904 0.28725 0.0
H386 H 0.79753 0.13123 0.34464 0.0
H387 H 0.86003 0.16843 0.42974 0.0
H388 H 0.93602 0.31873 0.38299 0.0
C389 C 0.82983 0.21487 0.18465 0.0
C390 C 0.80167 0.15982 0.15564 0.0
C391 C 0.77417 0.12004 0.1804 0.0
C392 C 0.77822 0.13293 0.23385 0.0
C393 C 0.80879 0.18636 0.26201 0.0
C394 C 0.83317 0.22743 0.23849 0.0
C395 C 0.86697 0.28007 0.27909 0.0
C396 C 0.92703 0.30318 0.27038 0.0
C397 C 0.83437 0.32537 0.28124 0.0
C398 C 0.86722 0.25755 0.32761 0.0
C399 C 0.82994 0.20491 0.31707 0.0
C400 C 0.8257 0.17296 0.35379 0.0
C401 C 0.86172 0.19425 0.40198 0.0
C402 C 0.90263 0.24626 0.41283 0.0
C403 C 0.90442 0.27916 0.37577 0.0
loop_
_geom_bond_atom_site_label_1
_geom_bond_atom_site_label_2
_geom_bond_distance
_geom_bond_site_symmetry_2
_ccdc_geom_bond_type
Tb0 O3 2.453 . S
Tb0 O4 2.596 . S
Tb0 O5 2.374 . S
Tb0 O13 2.343 . S
Tb0 O15 2.353 . S
Tb0 O17 2.427 . S
Tb0 O18 2.513 . S
C1 O5 1.251 . S
C1 O7 1.263 . S
Tb2 O4 2.343 . S
Tb2 O7 2.353 . S
Tb2 O10 2.427 . S
Tb2 O11 2.513 1_554 S
Tb2 O12 2.453 . S
Tb2 O13 2.596 . S
Tb2 O14 2.374 . S
O3 Tb0 2.453 . S
O3 C19 1.235 1_554 S
O4 Tb0 2.596 . S
O4 Tb2 2.343 . S
O4 C19 1.249 1_554 S
O5 Tb0 2.374 . S
O5 C1 1.251 . S
C6 O10 1.275 1_556 S
C6 O11 1.246 . S
O7 C1 1.263 . S
O7 Tb2 2.353 . S
C8 O12 1.245 . S
C8 O13 1.259 . S
C9 O14 1.250 . S
C9 O15 1.263 . S
O10 Tb2 2.427 . S
O10 C6 1.275 1_554 S
O11 Tb2 2.513 1_556 S
O11 C6 1.246 . S
O12 Tb2 2.453 . S
O12 C8 1.245 . S
O13 Tb0 2.343 . S
O13 Tb2 2.596 . S
O13 C8 1.259 . S
O14 Tb2 2.374 . S
O14 C9 1.250 . S
O15 Tb0 2.353 . S
O15 C9 1.263 . S
C16 O17 1.275 . S
C16 O18 1.246 . S
O17 Tb0 2.427 . S
O17 C16 1.275 . S
O18 Tb0 2.513 . S
O18 C16 1.246 . S
C19 O3 1.235 1_556 S
C19 O4 1.249 1_556 S
Tb20 O23 2.453 . S
Tb20 O24 2.596 . S
Tb20 O25 2.374 . S
Tb20 O33 2.343 . S
Tb20 O35 2.353 . S
Tb20 O37 2.427 . S
Tb20 O38 2.513 . S
C21 O25 1.251 . S
C21 O27 1.263 1_455 S
Tb22 O24 2.343 1_655 S
Tb22 O27 2.353 . S
Tb22 O30 2.427 . S
Tb22 O31 2.513 . S
Tb22 O32 2.453 . S
Tb22 O33 2.596 1_655 S
Tb22 O34 2.374 . S
O23 Tb20 2.453 . S
O23 C39 1.245 . S
O24 Tb20 2.596 . S
O24 Tb22 2.343 1_455 S
O24 C39 1.259 . S
O25 Tb20 2.374 . S
O25 C21 1.251 . S
C26 O30 1.275 . S
C26 O31 1.246 . S
O27 C21 1.263 1_655 S
O27 Tb22 2.353 . S
C28 O32 1.245 . S
C28 O33 1.259 1_655 S
C29 O34 1.250 1_455 S
C29 O35 1.263 . S
O30 Tb22 2.427 . S
O30 C26 1.275 . S
O31 Tb22 2.513 . S
O31 C26 1.246 . S
O32 Tb22 2.453 . S
O32 C28 1.245 . S
O33 Tb20 2.343 . S
O33 Tb22 2.596 1_455 S
O33 C28 1.259 1_455 S
O34 Tb22 2.374 . S
O34 C29 1.250 1_655 S
O35 Tb20 2.353 . S
O35 C29 1.263 . S
C36 O37 1.275 . S
C36 O38 1.246 . S
O37 Tb20 2.427 . S
O37 C36 1.275 . S
O38 Tb20 2.513 . S
O38 C36 1.246 . S
C39 O23 1.245 . S
C39 O24 1.259 . S
Tb40 O43 2.453 1_554 S
Tb40 O44 2.596 1_564 S
Tb40 O45 2.374 . S
Tb40 O53 2.343 1_565 S
Tb40 O55 2.353 . S
Tb40 O57 2.427 . S
Tb40 O58 2.513 . S
C41 O45 1.251 1_545 S
C41 O47 1.263 . S
Tb42 O44 2.343 1_554 S
Tb42 O47 2.353 . S
Tb42 O50 2.427 1_554 S
Tb42 O51 2.513 1_554 S
Tb42 O52 2.453 . S
Tb42 O53 2.596 . S
Tb42 O54 2.374 . S
O43 Tb40 2.453 1_556 S
O43 C59 1.245 . S
O44 Tb40 2.596 1_546 S
O44 Tb42 2.343 1_556 S
O44 C59 1.259 1_545 S
O45 Tb40 2.374 . S
O45 C41 1.251 1_565 S
C46 O50 1.275 . S
C46 O51 1.246 . S
O47 C41 1.263 . S
O47 Tb42 2.353 . S
C48 O52 1.245 . S
C48 O53 1.259 . S
C49 O54 1.250 . S
C49 O55 1.263 1_545 S
O50 Tb42 2.427 1_556 S
O50 C46 1.275 . S
O51 Tb42 2.513 1_556 S
O51 C46 1.246 . S
O52 Tb42 2.453 . S
O52 C48 1.245 . S
O53 Tb40 2.343 1_545 S
O53 Tb42 2.596 . S
O53 C48 1.259 . S
O54 Tb42 2.374 . S
O54 C49 1.250 . S
O55 Tb40 2.353 . S
O55 C49 1.263 1_565 S
C56 O57 1.275 . S
C56 O58 1.246 . S
O57 Tb40 2.427 . S
O57 C56 1.275 . S
O58 Tb40 2.513 . S
O58 C56 1.246 . S
C59 O43 1.245 . S
C59 O44 1.259 1_565 S
Tb60 O63 2.453 . S
Tb60 O64 2.596 . S
Tb60 O65 2.374 . S
Tb60 O73 2.343 . S
Tb60 O75 2.353 . S
Tb60 O77 2.427 . S
Tb60 O78 2.513 . S
C61 O65 1.251 . S
C61 O67 1.263 . S
Tb62 O64 2.343 1_655 S
Tb62 O67 2.353 1_655 S
Tb62 O70 2.427 . S
Tb62 O71 2.513 . S
Tb62 O72 2.453 . S
Tb62 O73 2.596 1_655 S
Tb62 O74 2.374 1_655 S
O63 Tb60 2.453 . S
O63 C79 1.245 . S
O64 Tb60 2.596 . S
O64 Tb62 2.343 1_455 S
O64 C79 1.259 . S
O65 Tb60 2.374 . S
O65 C61 1.251 . S
C66 O70 1.275 . S
C66 O71 1.246 . S
O67 C61 1.263 . S
O67 Tb62 2.353 1_455 S
C68 O72 1.245 . S
C68 O73 1.259 1_655 S
C69 O74 1.250 . S
C69 O75 1.263 . S
O70 Tb62 2.427 . S
O70 C66 1.275 . S
O71 Tb62 2.513 . S
O71 C66 1.246 . S
O72 Tb62 2.453 . S
O72 C68 1.245 . S
O73 Tb60 2.343 . S
O73 Tb62 2.596 1_455 S
O73 C68 1.259 1_455 S
O74 Tb62 2.374 1_455 S
O74 C69 1.250 . S
O75 Tb60 2.353 . S
O75 C69 1.263 . S
C76 O77 1.275 . S
C76 O78 1.246 . S
O77 Tb60 2.427 . S
O77 C76 1.275 . S
O78 Tb60 2.513 . S
O78 C76 1.246 . S
C79 O63 1.245 . S
C79 O64 1.259 . S
H80 C92 0.930 . S
H81 C94 0.930 1_556 S
H82 C95 0.930 . S
H83 C99 0.959 . S
H84 C99 0.959 . S
H85 C99 0.961 1_655 S
H86 C100 0.960 1_655 S
H87 C100 0.961 . S
H88 C100 0.959 . S
H89 C103 0.929 . S
H90 C104 0.931 . S
H91 C106 0.930 . S
C92 H80 0.930 . S
C92 C93 1.399 1_545 S
C92 C97 1.399 . S
C93 C92 1.399 1_565 S
C93 C94 1.376 . S
C94 H81 0.930 1_554 S
C94 C93 1.376 . S
C94 C95 1.388 1_655 S
C95 H82 0.930 . S
C95 C94 1.388 1_455 S
C95 C96 1.390 1_565 S
C96 C95 1.390 1_545 S
C96 C97 1.394 1_455 S
C96 C102 1.465 . S
C97 C92 1.399 . S
C97 C96 1.394 1_655 S
C97 C98 1.516 1_655 S
C98 C97 1.516 1_455 S
C98 C99 1.502 . S
C98 C100 1.561 . S
C98 C101 1.526 . S
C99 H83 0.959 . S
C99 H84 0.959 . S
C99 H85 0.961 1_455 S
C99 C98 1.502 . S
C100 H86 0.960 1_455 S
C100 H87 0.961 . S
C100 H88 0.959 . S
C100 C98 1.561 . S
C101 C98 1.526 . S
C101 C102 1.396 . S
C101 C106 1.390 . S
C102 C96 1.465 . S
C102 C101 1.396 . S
C102 C103 1.399 . S
C103 H89 0.929 . S
C103 C102 1.399 . S
C103 C104 1.385 . S
C104 H90 0.931 . S
C104 C103 1.385 . S
C104 C105 1.389 . S
C105 C104 1.389 . S
C105 C106 1.387 . S
C106 H91 0.930 . S
C106 C101 1.390 . S
C106 C105 1.387 . S
H107 C119 0.930 . S
H108 C121 0.930 . S
H109 C122 0.930 . S
H110 C126 0.959 . S
H111 C126 0.959 . S
H112 C126 0.961 . S
H113 C127 0.960 . S
H114 C127 0.961 . S
H115 C127 0.959 1_655 S
H116 C130 0.929 1_655 S
H117 C131 0.931 1_655 S
H118 C133 0.930 . S
C119 H107 0.930 . S
C119 C120 1.399 . S
C119 C124 1.399 1_565 S
C120 C119 1.399 . S
C120 C121 1.376 . S
C121 H108 0.930 . S
C121 C120 1.376 . S
C121 C122 1.388 1_565 S
C122 H109 0.930 . S
C122 C121 1.388 1_545 S
C122 C123 1.390 . S
C123 C122 1.390 . S
C123 C124 1.394 . S
C123 C129 1.465 . S
C124 C119 1.399 1_545 S
C124 C123 1.394 . S
C124 C125 1.516 . S
C125 C124 1.516 . S
C125 C126 1.502 . S
C125 C127 1.561 . S
C125 C128 1.526 . S
C126 H110 0.959 . S
C126 H111 0.959 . S
C126 H112 0.961 . S
C126 C125 1.502 . S
C127 H113 0.960 . S
C127 H114 0.961 . S
C127 H115 0.959 1_455 S
C127 C125 1.561 . S
C128 C125 1.526 . S
C128 C129 1.396 . S
C128 C133 1.390 . S
C129 C123 1.465 . S
C129 C128 1.396 . S
C129 C130 1.399 . S
C130 H116 0.929 1_455 S
C130 C129 1.399 . S
C130 C131 1.385 . S
C131 H117 0.931 1_455 S
C131 C130 1.385 . S
C131 C132 1.389 . S
C132 C131 1.389 . S
C132 C133 1.387 . S
C133 H118 0.930 . S
C133 C128 1.390 . S
C133 C132 1.387 . S
H134 C146 0.930 1_565 S
H135 C148 0.930 1_556 S
H136 C149 0.930 . S
H137 C153 0.959 . S
H138 C153 0.959 . S
H139 C153 0.961 . S
H140 C154 0.960 . S
H141 C154 0.961 . S
H142 C154 0.959 . S
H143 C157 0.929 . S
H144 C158 0.931 . S
H145 C160 0.930 . S
C146 H134 0.930 1_545 S
C146 C147 1.399 . S
C146 C151 1.399 . S
C147 C146 1.399 . S
C147 C148 1.376 . S
C148 H135 0.930 1_554 S
C148 C147 1.376 . S
C148 C149 1.388 . S
C149 H136 0.930 . S
C149 C148 1.388 . S
C149 C150 1.390 . S
C150 C149 1.390 . S
C150 C151 1.394 . S
C150 C156 1.465 . S
C151 C146 1.399 . S
C151 C150 1.394 . S
C151 C152 1.516 . S
C152 C151 1.516 . S
C152 C153 1.502 1_545 S
C152 C154 1.561 . S
C152 C155 1.526 . S
C153 H137 0.959 . S
C153 H138 0.959 . S
C153 H139 0.961 . S
C153 C152 1.502 1_565 S
C154 H140 0.960 . S
C154 H141 0.961 . S
C154 H142 0.959 . S
C154 C152 1.561 . S
C155 C152 1.526 . S
C155 C156 1.396 . S
C155 C160 1.390 . S
C156 C150 1.465 . S
C156 C155 1.396 . S
C156 C157 1.399 . S
C157 H143 0.929 . S
C157 C156 1.399 . S
C157 C158 1.385 . S
C158 H144 0.931 . S
C158 C157 1.385 . S
C158 C159 1.389 . S
C159 C158 1.389 . S
C159 C160 1.387 . S
C160 H145 0.930 . S
C160 C155 1.390 . S
C160 C159 1.387 . S
H161 C173 0.930 . S
H162 C175 0.930 . S
H163 C176 0.930 . S
H164 C180 0.959 . S
H165 C180 0.959 . S
H166 C180 0.961 . S
H167 C181 0.960 . S
H168 C181 0.961 . S
H169 C181 0.959 1_655 S
H170 C184 0.929 . S
H171 C185 0.931 . S
H172 C187 0.930 . S
C173 H161 0.930 . S
C173 C174 1.399 . S
C173 C178 1.399 . S
C174 C173 1.399 . S
C174 C175 1.376 . S
C175 H162 0.930 . S
C175 C174 1.376 . S
C175 C176 1.388 . S
C176 H163 0.930 . S
C176 C175 1.388 . S
C176 C177 1.390 . S
C177 C176 1.390 . S
C177 C178 1.394 . S
C177 C183 1.465 . S
C178 C173 1.399 . S
C178 C177 1.394 . S
C178 C179 1.516 . S
C179 C178 1.516 . S
C179 C180 1.502 . S
C179 C181 1.561 . S
C179 C182 1.526 . S
C180 H164 0.959 . S
C180 H165 0.959 . S
C180 H166 0.961 . S
C180 C179 1.502 . S
C181 H167 0.960 . S
C181 H168 0.961 . S
C181 H169 0.959 1_455 S
C181 C179 1.561 . S
C182 C179 1.526 . S
C182 C183 1.396 . S
C182 C187 1.390 . S
C183 C177 1.465 . S
C183 C182 1.396 . S
C183 C184 1.399 . S
C184 H170 0.929 . S
C184 C183 1.399 . S
C184 C185 1.385 . S
C185 H171 0.931 . S
C185 C184 1.385 . S
C185 C186 1.389 . S
C186 C185 1.389 . S
C186 C187 1.387 . S
C187 H172 0.930 . S
C187 C182 1.390 . S
C187 C186 1.387 . S
H188 C200 0.930 . S
H189 C202 0.930 . S
H190 C203 0.930 . S
H191 C207 0.959 . S
H192 C207 0.959 . S
H193 C207 0.961 . S
H194 C208 0.960 . S
H195 C208 0.961 . S
H196 C208 0.959 . S
H197 C211 0.929 . S
H198 C212 0.931 . S
H199 C214 0.930 . S
C200 H188 0.930 . S
C200 C201 1.399 . S
C200 C205 1.399 . S
C201 C200 1.399 . S
C201 C202 1.376 . S
C202 H189 0.930 . S
C202 C201 1.376 . S
C202 C203 1.388 . S
C203 H190 0.930 . S
C203 C202 1.388 . S
C203 C204 1.390 . S
C204 C203 1.390 . S
C204 C205 1.394 . S
C204 C210 1.465 . S
C205 C200 1.399 . S
C205 C204 1.394 . S
C205 C206 1.516 . S
C206 C205 1.516 . S
C206 C207 1.502 . S
C206 C208 1.561 . S
C206 C209 1.526 . S
C207 H191 0.959 . S
C207 H192 0.959 . S
C207 H193 0.961 . S
C207 C206 1.502 . S
C208 H194 0.960 . S
C208 H195 0.961 . S
C208 H196 0.959 . S
C208 C206 1.561 . S
C209 C206 1.526 . S
C209 C210 1.396 . S
C209 C214 1.390 . S
C210 C204 1.465 . S
C210 C209 1.396 . S
C210 C211 1.399 . S
C211 H197 0.929 . S
C211 C210 1.399 . S
C211 C212 1.385 . S
C212 H198 0.931 . S
C212 C211 1.385 . S
C212 C213 1.389 . S
C213 C212 1.389 . S
C213 C214 1.387 . S
C214 H199 0.930 . S
C214 C209 1.390 . S
C214 C213 1.387 . S
H215 C227 0.930 . S
H216 C229 0.930 . S
H217 C230 0.930 . S
H218 C234 0.959 . S
H219 C234 0.959 . S
H220 C234 0.961 . S
H221 C235 0.960 . S
H222 C235 0.961 . S
H223 C235 0.959 . S
H224 C238 0.929 . S
H225 C239 0.931 . S
H226 C241 0.930 . S
C227 H215 0.930 . S
C227 C228 1.399 . S
C227 C232 1.399 . S
C228 C227 1.399 . S
C228 C229 1.376 . S
C229 H216 0.930 . S
C229 C228 1.376 . S
C229 C230 1.388 . S
C230 H217 0.930 . S
C230 C229 1.388 . S
C230 C231 1.390 . S
C231 C230 1.390 . S
C231 C232 1.394 . S
C231 C237 1.465 . S
C232 C227 1.399 . S
C232 C231 1.394 . S
C232 C233 1.516 . S
C233 C232 1.516 . S
C233 C234 1.502 . S
C233 C235 1.561 . S
C233 C236 1.526 . S
C234 H218 0.959 . S
C234 H219 0.959 . S
C234 H220 0.961 . S
C234 C233 1.502 . S
C235 H221 0.960 . S
C235 H222 0.961 . S
C235 H223 0.959 . S
C235 C233 1.561 . S
C236 C233 1.526 . S
C236 C237 1.396 . S
C236 C241 1.390 . S
C237 C231 1.465 . S
C237 C236 1.396 . S
C237 C238 1.399 . S
C238 H224 0.929 . S
C238 C237 1.399 . S
C238 C239 1.385 . S
C239 H225 0.931 . S
C239 C238 1.385 . S
C239 C240 1.389 . S
C240 C239 1.389 . S
C240 C241 1.387 . S
C241 H226 0.930 . S
C241 C236 1.390 . S
C241 C240 1.387 . S
H242 C254 0.930 . S
H243 C256 0.930 . S
H244 C257 0.930 . S
H245 C261 0.959 . S
H246 C261 0.959 . S
H247 C261 0.961 . S
H248 C262 0.960 . S
H249 C262 0.961 . S
H250 C262 0.959 . S
H251 C265 0.929 1_545 S
H252 C266 0.931 1_545 S
H253 C268 0.930 . S
C254 H242 0.930 . S
C254 C255 1.399 . S
C254 C259 1.399 . S
C255 C254 1.399 . S
C255 C256 1.376 . S
C256 H243 0.930 . S
C256 C255 1.376 . S
C256 C257 1.388 . S
C257 H244 0.930 . S
C257 C256 1.388 . S
C257 C258 1.390 . S
C258 C257 1.390 . S
C258 C259 1.394 . S
C258 C264 1.465 . S
C259 C254 1.399 . S
C259 C258 1.394 . S
C259 C260 1.516 . S
C260 C259 1.516 . S
C260 C261 1.502 . S
C260 C262 1.561 . S
C260 C263 1.526 . S
C261 H245 0.959 . S
C261 H246 0.959 . S
C261 H247 0.961 . S
C261 C260 1.502 . S
C262 H248 0.960 . S
C262 H249 0.961 . S
C262 H250 0.959 . S
C262 C260 1.561 . S
C263 C260 1.526 . S
C263 C264 1.396 . S
C263 C268 1.390 . S
C264 C258 1.465 . S
C264 C263 1.396 . S
C264 C265 1.399 . S
C265 H251 0.929 1_565 S
C265 C264 1.399 . S
C265 C266 1.385 . S
C266 H252 0.931 1_565 S
C266 C265 1.385 . S
C266 C267 1.389 . S
C267 C266 1.389 . S
C267 C268 1.387 . S
C268 H253 0.930 . S
C268 C263 1.390 . S
C268 C267 1.387 . S
H269 C281 0.930 . S
H270 C283 0.930 . S
H271 C284 0.930 . S
H272 C288 0.959 . S
H273 C288 0.959 . S
H274 C288 0.961 . S
H275 C289 0.960 . S
H276 C289 0.961 . S
H277 C289 0.959 . S
H278 C292 0.929 . S
H279 C293 0.931 . S
H280 C295 0.930 . S
C281 H269 0.930 . S
C281 C282 1.399 . S
C281 C286 1.399 . S
C282 C281 1.399 . S
C282 C283 1.376 . S
C283 H270 0.930 . S
C283 C282 1.376 . S
C283 C284 1.388 . S
C284 H271 0.930 . S
C284 C283 1.388 . S
C284 C285 1.390 . S
C285 C284 1.390 . S
C285 C286 1.394 . S
C285 C291 1.465 . S
C286 C281 1.399 . S
C286 C285 1.394 . S
C286 C287 1.516 1_565 S
C287 C286 1.516 1_545 S
C287 C288 1.502 . S
C287 C289 1.561 . S
C287 C290 1.526 . S
C288 H272 0.959 . S
C288 H273 0.959 . S
C288 H274 0.961 . S
C288 C287 1.502 . S
C289 H275 0.960 . S
C289 H276 0.961 . S
C289 H277 0.959 . S
C289 C287 1.561 . S
C290 C287 1.526 . S
C290 C291 1.396 1_545 S
C290 C295 1.390 . S
C291 C285 1.465 . S
C291 C290 1.396 1_565 S
C291 C292 1.399 . S
C292 H278 0.929 . S
C292 C291 1.399 . S
C292 C293 1.385 . S
C293 H279 0.931 . S
C293 C292 1.385 . S
C293 C294 1.389 1_565 S
C294 C293 1.389 1_545 S
C294 C295 1.387 . S
C295 H280 0.930 . S
C295 C290 1.390 . S
C295 C294 1.387 . S
H296 C308 0.930 . S
H297 C310 0.930 . S
H298 C311 0.930 . S
H299 C315 0.959 . S
H300 C315 0.959 . S
H301 C315 0.961 . S
H302 C316 0.960 . S
H303 C316 0.961 . S
H304 C316 0.959 . S
H305 C319 0.929 1_455 S
H306 C320 0.910 1_455 S
H307 C322 0.930 . S
C308 H296 0.930 . S
C308 C309 1.399 . S
C308 C313 1.399 . S
C309 C308 1.399 . S
C309 C310 1.376 . S
C310 H297 0.930 . S
C310 C309 1.376 . S
C310 C311 1.388 . S
C311 H298 0.930 . S
C311 C310 1.388 . S
C311 C312 1.390 . S
C312 C311 1.390 . S
C312 C313 1.394 . S
C312 C318 1.465 . S
C313 C308 1.399 . S
C313 C312 1.394 . S
C313 C314 1.516 . S
C314 C313 1.516 . S
C314 C315 1.502 . S
C314 C316 1.561 . S
C314 C317 1.526 . S
C315 H299 0.959 . S
C315 H300 0.959 . S
C315 H301 0.961 . S
C315 C314 1.502 . S
C316 H302 0.960 . S
C316 H303 0.961 . S
C316 H304 0.959 . S
C316 C314 1.561 . S
C317 C314 1.526 . S
C317 C318 1.396 . S
C317 C322 1.390 . S
C318 C312 1.465 . S
C318 C317 1.396 . S
C318 C319 1.399 . S
C319 H305 0.929 1_655 S
C319 C318 1.399 . S
C319 C320 1.394 . S
C320 H306 0.910 1_655 S
C320 C319 1.394 . S
C320 C321 1.401 . S
C321 C320 1.401 . S
C321 C322 1.387 . S
C322 H307 0.930 . S
C322 C317 1.390 . S
C322 C321 1.387 . S
H323 C335 0.930 . S
H324 C337 0.930 . S
H325 C338 0.930 . S
H326 C342 0.959 . S
H327 C342 0.959 . S
H328 C342 0.961 . S
H329 C343 0.960 . S
H330 C343 0.961 . S
H331 C343 0.959 . S
H332 C346 0.929 1_545 S
H333 C347 0.931 . S
H334 C349 0.930 . S
C335 H323 0.930 . S
C335 C336 1.399 1_565 S
C335 C340 1.399 . S
C336 C335 1.399 1_545 S
C336 C337 1.376 . S
C337 H324 0.930 . S
C337 C336 1.376 . S
C337 C338 1.388 . S
C338 H325 0.930 . S
C338 C337 1.388 . S
C338 C339 1.390 . S
C339 C338 1.390 . S
C339 C340 1.394 1_545 S
C339 C345 1.465 1_545 S
C340 C335 1.399 . S
C340 C339 1.394 1_565 S
C340 C341 1.516 . S
C341 C340 1.516 . S
C341 C342 1.502 . S
C341 C343 1.561 . S
C341 C344 1.526 . S
C342 H326 0.959 . S
C342 H327 0.959 . S
C342 H328 0.961 . S
C342 C341 1.502 . S
C343 H329 0.960 . S
C343 H330 0.961 . S
C343 H331 0.959 . S
C343 C341 1.561 . S
C344 C341 1.526 . S
C344 C345 1.396 . S
C344 C349 1.390 . S
C345 C339 1.465 1_565 S
C345 C344 1.396 . S
C345 C346 1.399 . S
C346 H332 0.929 1_565 S
C346 C345 1.399 . S
C346 C347 1.385 . S
C347 H333 0.931 . S
C347 C346 1.385 . S
C347 C348 1.389 . S
C348 C347 1.389 . S
C348 C349 1.387 . S
C349 H334 0.930 . S
C349 C344 1.390 . S
C349 C348 1.387 . S
H350 C362 0.930 . S
H351 C364 0.930 . S
H352 C365 0.930 . S
H353 C369 0.959 . S
H354 C369 0.959 . S
H355 C369 0.961 . S
H356 C370 0.960 . S
H357 C370 0.961 . S
H358 C370 0.959 . S
H359 C373 0.929 . S
H360 C374 0.931 . S
H361 C376 0.930 . S
C362 H350 0.930 . S
C362 C363 1.399 . S
C362 C367 1.399 . S
C363 C362 1.399 . S
C363 C364 1.376 . S
C364 H351 0.930 . S
C364 C363 1.376 . S
C364 C365 1.388 . S
C365 H352 0.930 . S
C365 C364 1.388 . S
C365 C366 1.390 . S
C366 C365 1.390 . S
C366 C367 1.394 . S
C366 C372 1.465 . S
C367 C362 1.399 . S
C367 C366 1.394 . S
C367 C368 1.516 . S
C368 C367 1.516 . S
C368 C369 1.502 . S
C368 C370 1.561 . S
C368 C371 1.526 . S
C369 H353 0.959 . S
C369 H354 0.959 . S
C369 H355 0.961 . S
C369 C368 1.502 . S
C370 H356 0.960 . S
C370 H357 0.961 . S
C370 H358 0.959 . S
C370 C368 1.561 . S
C371 C368 1.526 . S
C371 C372 1.396 . S
C371 C376 1.390 . S
C372 C366 1.465 . S
C372 C371 1.396 . S
C372 C373 1.399 . S
C373 H359 0.929 . S
C373 C372 1.399 . S
C373 C374 1.385 . S
C374 H360 0.931 . S
C374 C373 1.385 . S
C374 C375 1.389 . S
C375 C374 1.389 . S
C375 C376 1.387 . S
C376 H361 0.930 . S
C376 C371 1.390 . S
C376 C375 1.387 . S
H377 C389 0.930 . S
H378 C391 0.930 . S
H379 C392 0.930 . S
H380 C396 0.959 . S
H381 C396 0.959 . S
H382 C396 0.961 . S
H383 C397 0.960 . S
H384 C397 0.961 . S
H385 C397 0.959 . S
H386 C400 0.929 . S
H387 C401 0.931 . S
H388 C403 0.930 . S
C389 H377 0.930 . S
C389 C390 1.399 . S
C389 C394 1.399 . S
C390 C389 1.399 . S
C390 C391 1.376 . S
C391 H378 0.930 . S
C391 C390 1.376 . S
C391 C392 1.388 . S
C392 H379 0.930 . S
C392 C391 1.388 . S
C392 C393 1.390 . S
C393 C392 1.390 . S
C393 C394 1.394 . S
C393 C399 1.465 . S
C394 C389 1.399 . S
C394 C393 1.394 . S
C394 C395 1.516 . S
C395 C394 1.516 . S
C395 C396 1.502 . S
C395 C397 1.561 . S
C395 C398 1.526 . S
C396 H380 0.959 . S
C396 H381 0.959 . S
C396 H382 0.961 . S
C396 C395 1.502 . S
C397 H383 0.960 . S
C397 H384 0.961 . S
C397 H385 0.959 . S
C397 C395 1.561 . S
C398 C395 1.526 . S
C398 C399 1.396 . S
C398 C403 1.390 . S
C399 C393 1.465 . S
C399 C398 1.396 . S
C399 C400 1.399 . S
C400 H386 0.929 . S
C400 C399 1.399 . S
C400 C401 1.385 . S
C401 H387 0.931 . S
C401 C400 1.385 . S
C401 C402 1.389 . S
C402 C401 1.389 . S
C402 C403 1.387 . S
C403 H388 0.930 . S
C403 C398 1.390 . S
C403 C402 1.387 . S
C93 C41 1.122 1_565 S
C105 C9 1.031 . S
C120 C69 1.077 . S
C132 C29 1.150 . S
C147 C49 1.314 . S
C159 C1 1.371 . S
C174 C21 1.122 . S
C186 C61 1.159 . S
C201 C39 2.079 . S
C213 C8 2.239 . S
C228 C28 2.187 . S
C240 C46 2.163 . S
C255 C68 1.960 . S
C267 C56 1.983 . S
C282 C79 1.779 . S
C294 C19 1.721 . S
C309 C59 1.348 . S
C321 C66 1.354 . S
C336 C16 1.515 . S
C348 C76 1.446 . S
C363 C36 1.325 . S
C375 C6 1.269 . S
C390 C48 1.015 . S
C402 C26 0.917 . S
