# Generated by pormake.
# Topology lcy-e, (6)-cn, num edge types: 1
# Building blocks:
#     Node 0, Type 0, BuildingBlock: FUNLAD_clean_sbu_0, # of connection points: 6
#     Node 1, Type 0, BuildingBlock: FUNLAD_clean_sbu_0, # of connection points: 6
#     Node 2, Type 0, BuildingBlock: FUNLAD_clean_sbu_0, # of connection points: 6
#     Node 3, Type 0, BuildingBlock: FUNLAD_clean_sbu_0, # of connection points: 6
#     Node 4, Type 0, BuildingBlock: FUNLAD_clean_sbu_0, # of connection points: 6
#     Node 5, Type 0, BuildingBlock: FUNLAD_clean_sbu_0, # of connection points: 6
#     Node 6, Type 0, BuildingBlock: FUNLAD_clean_sbu_0, # of connection points: 6
#     Node 7, Type 0, BuildingBlock: FUNLAD_clean_sbu_0, # of connection points: 6
#     Node 8, Type 0, BuildingBlock: FUNLAD_clean_sbu_0, # of connection points: 6
#     Node 9, Type 0, BuildingBlock: FUNLAD_clean_sbu_0, # of connection points: 6
#     Node 10, Type 0, BuildingBlock: FUNLAD_clean_sbu_0, # of connection points: 6
#     Node 11, Type 0, BuildingBlock: FUNLAD_clean_sbu_0, # of connection points: 6
#     Edge 12, Type (0, 0), BuildingBlock: EZIPEK_clean_linker_0, # of connection points: 2
#     Edge 13, Type (0, 0), BuildingBlock: EZIPEK_clean_linker_0, # of connection points: 2
#     Edge 14, Type (0, 0), BuildingBlock: EZIPEK_clean_linker_0, # of connection points: 2
#     Edge 15, Type (0, 0), BuildingBlock: EZIPEK_clean_linker_0, # of connection points: 2
#     Edge 16, Type (0, 0), BuildingBlock: EZIPEK_clean_linker_0, # of connection points: 2
#     Edge 17, Type (0, 0), BuildingBlock: EZIPEK_clean_linker_0, # of connection points: 2
#     Edge 18, Type (0, 0), BuildingBlock: EZIPEK_clean_linker_0, # of connection points: 2
#     Edge 19, Type (0, 0), BuildingBlock: EZIPEK_clean_linker_0, # of connection points: 2
#     Edge 20, Type (0, 0), BuildingBlock: EZIPEK_clean_linker_0, # of connection points: 2
#     Edge 21, Type (0, 0), BuildingBlock: EZIPEK_clean_linker_0, # of connection points: 2
#     Edge 22, Type (0, 0), BuildingBlock: EZIPEK_clean_linker_0, # of connection points: 2
#     Edge 23, Type (0, 0), BuildingBlock: EZIPEK_clean_linker_0, # of connection points: 2
#     Edge 24, Type (0, 0), BuildingBlock: EZIPEK_clean_linker_0, # of connection points: 2
#     Edge 25, Type (0, 0), BuildingBlock: EZIPEK_clean_linker_0, # of connection points: 2
#     Edge 26, Type (0, 0), BuildingBlock: EZIPEK_clean_linker_0, # of connection points: 2
#     Edge 27, Type (0, 0), BuildingBlock: EZIPEK_clean_linker_0, # of connection points: 2
#     Edge 28, Type (0, 0), BuildingBlock: EZIPEK_clean_linker_0, # of connection points: 2
#     Edge 29, Type (0, 0), BuildingBlock: EZIPEK_clean_linker_0, # of connection points: 2
#     Edge 30, Type (0, 0), BuildingBlock: EZIPEK_clean_linker_0, # of connection points: 2
#     Edge 31, Type (0, 0), BuildingBlock: EZIPEK_clean_linker_0, # of connection points: 2
#     Edge 32, Type (0, 0), BuildingBlock: EZIPEK_clean_linker_0, # of connection points: 2
#     Edge 33, Type (0, 0), BuildingBlock: EZIPEK_clean_linker_0, # of connection points: 2
#     Edge 34, Type (0, 0), BuildingBlock: EZIPEK_clean_linker_0, # of connection points: 2
#     Edge 35, Type (0, 0), BuildingBlock: EZIPEK_clean_linker_0, # of connection points: 2
#     Edge 36, Type (0, 0), BuildingBlock: EZIPEK_clean_linker_0, # of connection points: 2
#     Edge 37, Type (0, 0), BuildingBlock: EZIPEK_clean_linker_0, # of connection points: 2
#     Edge 38, Type (0, 0), BuildingBlock: EZIPEK_clean_linker_0, # of connection points: 2
#     Edge 39, Type (0, 0), BuildingBlock: EZIPEK_clean_linker_0, # of connection points: 2
#     Edge 40, Type (0, 0), BuildingBlock: EZIPEK_clean_linker_0, # of connection points: 2
#     Edge 41, Type (0, 0), BuildingBlock: EZIPEK_clean_linker_0, # of connection points: 2
#     Edge 42, Type (0, 0), BuildingBlock: EZIPEK_clean_linker_0, # of connection points: 2
#     Edge 43, Type (0, 0), BuildingBlock: EZIPEK_clean_linker_0, # of connection points: 2
#     Edge 44, Type (0, 0), BuildingBlock: EZIPEK_clean_linker_0, # of connection points: 2
#     Edge 45, Type (0, 0), BuildingBlock: EZIPEK_clean_linker_0, # of connection points: 2
#     Edge 46, Type (0, 0), BuildingBlock: EZIPEK_clean_linker_0, # of connection points: 2
#     Edge 47, Type (0, 0), BuildingBlock: EZIPEK_clean_linker_0, # of connection points: 2
# Relax obj value: 0.688
# Max RMSD: 0.378
# Mean RMSD: 0.292
data_MOF--net-lcy-e--node1-FUNLAD_clean_sbu_0--edge1-EZIPEK_clean_linker_0
_symmetry_space_group_name_H-M    P1
_symmetry_Int_Tables_number       1
_symmetry_cell_setting            triclinic
loop_
_symmetry_equiv_pos_as_xyz
'x, y, z'
_cell_length_a     31.613294
_cell_length_b     28.675567
_cell_length_c     27.85558
_cell_angle_alpha  92.450086
_cell_angle_beta   86.66095
_cell_angle_gamma 97.18574
loop_
_atom_site_label
_atom_site_type_symbol
_atom_site_fract_x
_atom_site_fract_y
_atom_site_fract_z
_atom_type_partial_charge
C0 C 0.13785 0.18007 0.55226 0.0
N1 N 0.06087 0.18289 0.43464 0.0
C2 C 0.06122 0.13569 0.42836 0.0
C3 C 0.02836 0.10884 0.4048 0.0
C4 C 0.99572 0.13132 0.38744 0.0
C5 C 0.99631 0.1799 0.39396 0.0
C6 C 0.02911 0.2051 0.41853 0.0
Zn7 Zn 0.10846 0.22426 0.46482 0.0
C8 C 0.07717 0.28553 0.54267 0.0
N9 N 0.2078 0.31696 0.52374 0.0
C10 C 0.24628 0.31243 0.54148 0.0
C11 C 0.19489 0.36011 0.51962 0.0
C12 C 0.22098 0.40062 0.5313 0.0
C13 C 0.26003 0.39746 0.55082 0.0
C14 C 0.273 0.35284 0.55625 0.0
Zn15 Zn 0.16337 0.26653 0.4963 0.0
O16 O 0.11013 0.1759 0.52051 0.0
C17 C 0.19582 0.19797 0.42904 0.0
O18 O 0.166 0.21632 0.55265 0.0
H19 H 0.16396 0.36367 0.50691 0.0
H20 H 0.08701 0.11907 0.44138 0.0
H21 H 0.25605 0.27786 0.54437 0.0
O22 O 0.15574 0.18775 0.4245 0.0
O23 O 0.20938 0.23344 0.45527 0.0
H24 H 0.02936 0.24263 0.42434 0.0
O25 O 0.16077 0.31478 0.43625 0.0
O26 O 0.10643 0.27199 0.40653 0.0
O27 O 0.11721 0.29663 0.54231 0.0
O28 O 0.06195 0.25792 0.50935 0.0
C29 C 0.13403 0.30787 0.40362 0.0
H30 H 0.02831 0.07113 0.4001 0.0
H31 H 0.97127 0.19783 0.38092 0.0
H32 H 0.20984 0.4344 0.52707 0.0
H33 H 0.30304 0.34946 0.57177 0.0
C34 C 0.10139 0.98485 0.81567 0.0
N35 N 0.13844 0.88695 0.71017 0.0
C36 C 0.18001 0.90425 0.7159 0.0
C37 C 0.21182 0.87439 0.70974 0.0
C38 C 0.20041 0.82672 0.69743 0.0
C39 C 0.1576 0.81004 0.69081 0.0
C40 C 0.12693 0.8409 0.69754 0.0
Zn41 Zn 0.09021 0.92762 0.72277 0.0
C42 C 0.01914 0.87635 0.78865 0.0
N43 N 0.98604 0.00765 0.74946 0.0
C44 C 0.97981 0.0316 0.70962 0.0
C45 C 0.95376 0.99747 0.78334 0.0
C46 C 0.91252 0.00708 0.77514 0.0
C47 C 0.90503 0.0273 0.73193 0.0
C48 C 0.93934 0.04178 0.70013 0.0
Zn49 Zn 0.03741 0.96996 0.74316 0.0
O50 O 0.11785 0.95777 0.78457 0.0
C51 C 0.10759 0.02254 0.67964 0.0
O52 O 0.06478 0.99736 0.80939 0.0
H53 H 0.95898 0.97818 0.81453 0.0
H54 H 0.18834 0.94091 0.72615 0.0
H55 H 0.0049 0.03852 0.6821 0.0
O56 O 0.12403 0.98411 0.67986 0.0
O57 O 0.07345 0.02622 0.70504 0.0
H58 H 0.09369 0.82778 0.69361 0.0
O59 O 0.01168 0.94196 0.67764 0.0
O60 O 0.06277 0.89843 0.6596 0.0
O61 O 0.00196 0.91312 0.78168 0.0
O62 O 0.05559 0.87221 0.76783 0.0
C63 C 0.02874 0.91348 0.64879 0.0
H64 H 0.24475 0.88799 0.71547 0.0
H65 H 0.14795 0.77326 0.68179 0.0
H66 H 0.8863 0.99589 0.80051 0.0
H67 H 0.93433 0.05754 0.66657 0.0
C68 C 0.35933 0.78445 0.93018 0.0
N69 N 0.26157 0.8683 0.97418 0.0
C70 C 0.25312 0.86502 0.92669 0.0
C71 C 0.22171 0.88914 0.90961 0.0
C72 C 0.1995 0.91795 0.94136 0.0
C73 C 0.20666 0.91837 0.99055 0.0
C74 C 0.23741 0.89231 1.00642 0.0
Zn75 Zn 0.31966 0.85102 0.9937 0.0
C76 C 0.31268 0.76597 0.0571 0.0
N77 N 0.44246 0.8284 0.03561 0.0
C78 C 0.47646 0.85239 0.01087 0.0
C79 C 0.44821 0.80534 0.07579 0.0
C80 C 0.48799 0.81064 0.09531 0.0
C81 C 0.5209 0.84311 0.0756 0.0
C82 C 0.51551 0.86271 0.03182 0.0
Zn83 Zn 0.38175 0.83833 0.02011 0.0
O84 O 0.32319 0.7997 0.93595 0.0
C85 C 0.3902 0.91361 0.94798 0.0
O86 O 0.38725 0.7954 0.96074 0.0
H87 H 0.42152 0.78584 0.09494 0.0
H88 H 0.27268 0.84664 0.9012 0.0
H89 H 0.47314 0.86727 0.97669 0.0
O90 O 0.35038 0.90265 0.94444 0.0
O91 O 0.40855 0.89543 0.9801 0.0
H92 H 0.24386 0.89417 0.04414 0.0
O93 O 0.3782 0.88461 0.08157 0.0
O94 O 0.32109 0.90578 0.05201 0.0
O95 O 0.35291 0.77781 0.05663 0.0
O96 O 0.2895 0.79402 0.03961 0.0
C97 C 0.34959 0.91209 0.08302 0.0
H98 H 0.21701 0.88809 0.87133 0.0
H99 H 0.19022 0.94039 0.01602 0.0
H100 H 0.49149 0.79397 0.12881 0.0
H101 H 0.53984 0.88801 0.0155 0.0
C102 C 0.33602 0.11373 0.34801 0.0
N103 N 0.38916 0.21427 0.25167 0.0
C104 C 0.35203 0.20799 0.22842 0.0
C105 C 0.33758 0.24555 0.20669 0.0
C106 C 0.36115 0.29022 0.20962 0.0
C107 C 0.40003 0.29568 0.23229 0.0
C108 C 0.4137 0.25685 0.25297 0.0
Zn109 Zn 0.40725 0.15709 0.28373 0.0
C110 C 0.44977 0.17851 0.37854 0.0
N111 N 0.44395 0.03508 0.34452 0.0
C112 C 0.42926 0.99105 0.32752 0.0
C113 C 0.4832 0.04412 0.36306 0.0
C114 C 0.51204 0.01155 0.35635 0.0
C115 C 0.50035 0.96992 0.33004 0.0
C116 C 0.4576 0.95747 0.31923 0.0
Zn117 Zn 0.42268 0.09246 0.31668 0.0
O118 O 0.34907 0.14717 0.32057 0.0
C119 C 0.38351 0.06596 0.22371 0.0
O120 O 0.3602 0.08222 0.35462 0.0
H121 H 0.49517 0.07885 0.3762 0.0
H122 H 0.33274 0.17409 0.22801 0.0
H123 H 0.39765 0.98397 0.31398 0.0
O124 O 0.38182 0.11026 0.22334 0.0
O125 O 0.39925 0.0496 0.25904 0.0
H126 H 0.44325 0.26104 0.27126 0.0
O127 O 0.48434 0.10571 0.27637 0.0
O128 O 0.46453 0.16817 0.24695 0.0
O129 O 0.44675 0.13419 0.37453 0.0
O130 O 0.43452 0.20059 0.34578 0.0
C131 C 0.49297 0.14144 0.25019 0.0
H132 H 0.30688 0.24053 0.19059 0.0
H133 H 0.41842 0.33002 0.23607 0.0
H134 H 0.54486 0.02164 0.36556 0.0
H135 H 0.44778 0.92502 0.29933 0.0
C136 C 0.66772 0.30633 0.49929 0.0
N137 N 0.59465 0.35499 0.61837 0.0
C138 C 0.61266 0.40008 0.6117 0.0
C139 C 0.59048 0.43762 0.62776 0.0
C140 C 0.55019 0.42809 0.65169 0.0
C141 C 0.533 0.38144 0.65888 0.0
C142 C 0.55539 0.34536 0.64098 0.0
Zn143 Zn 0.62324 0.29747 0.59653 0.0
C144 C 0.56459 0.23369 0.53282 0.0
N145 N 0.67949 0.17302 0.55037 0.0
C146 C 0.71688 0.17554 0.52317 0.0
C147 C 0.65981 0.13085 0.56582 0.0
C148 C 0.67756 0.0893 0.55394 0.0
C149 C 0.71494 0.09077 0.52405 0.0
C150 C 0.73494 0.13463 0.50907 0.0
Zn151 Zn 0.65243 0.23371 0.56989 0.0
O152 O 0.64796 0.32835 0.53236 0.0
C153 C 0.71294 0.30381 0.62577 0.0
O154 O 0.67549 0.26475 0.50535 0.0
H155 H 0.62999 0.12913 0.58708 0.0
H156 H 0.64379 0.40687 0.59339 0.0
H157 H 0.73261 0.20926 0.51189 0.0
O158 O 0.67981 0.32491 0.63125 0.0
O159 O 0.71038 0.2644 0.60232 0.0
H160 H 0.54092 0.30945 0.64479 0.0
O161 O 0.62878 0.20321 0.63716 0.0
O162 O 0.59967 0.26612 0.66109 0.0
O163 O 0.59437 0.20745 0.53341 0.0
O164 O 0.56694 0.27111 0.5592 0.0
C165 C 0.60822 0.22545 0.66922 0.0
H166 H 0.60421 0.47345 0.62116 0.0
H167 H 0.50169 0.37304 0.67658 0.0
H168 H 0.66142 0.05609 0.56639 0.0
H169 H 0.76399 0.13711 0.4862 0.0
C170 C 0.86911 0.38334 0.71562 0.0
N171 N 0.89643 0.30323 0.83006 0.0
C172 C 0.87788 0.27001 0.79901 0.0
C173 C 0.85233 0.23075 0.81623 0.0
C174 C 0.8478 0.22399 0.8657 0.0
C175 C 0.87114 0.25575 0.89695 0.0
C176 C 0.89465 0.29626 0.87827 0.0
Zn177 Zn 0.9233 0.3648 0.80052 0.0
C178 C 0.98422 0.34798 0.716 0.0
N179 N 0.97466 0.49179 0.73331 0.0
C180 C 0.98341 0.52638 0.76776 0.0
C181 C 0.00158 0.48844 0.69362 0.0
C182 C 0.04311 0.51187 0.69376 0.0
C183 C 0.05538 0.53988 0.73427 0.0
C184 C 0.02423 0.55079 0.76914 0.0
Zn185 Zn 0.94408 0.42993 0.76075 0.0
O186 O 0.87418 0.35834 0.75089 0.0
C187 C 0.8839 0.45028 0.84084 0.0
O188 O 0.89593 0.41967 0.70751 0.0
H189 H 0.99376 0.46198 0.66566 0.0
H190 H 0.88094 0.27508 0.76083 0.0
H191 H 0.96205 0.52948 0.79904 0.0
O192 O 0.88453 0.40697 0.84972 0.0
O193 O 0.90492 0.46699 0.80425 0.0
H194 H 0.90984 0.32292 0.90242 0.0
O195 O 0.99163 0.43861 0.81704 0.0
O196 O 0.9712 0.37144 0.85061 0.0
O197 O 0.98255 0.39174 0.71501 0.0
O198 O 0.96293 0.32535 0.74974 0.0
C199 C 0.99583 0.40979 0.84961 0.0
H200 H 0.83413 0.20743 0.79135 0.0
H201 H 0.86805 0.25141 0.93548 0.0
H202 H 0.0666 0.50327 0.66599 0.0
H203 H 0.03286 0.57265 0.80062 0.0
C204 C 0.86164 0.6215 0.94125 0.0
N205 N 0.94902 0.66602 0.05023 0.0
C206 C 0.95103 0.62 0.0591 0.0
C207 C 0.98347 0.60738 0.08656 0.0
C208 C 0.01326 0.64252 0.1064 0.0
C209 C 0.01024 0.68952 0.09673 0.0
C210 C 0.97872 0.70034 0.06742 0.0
Zn211 Zn 0.89857 0.68887 0.0164 0.0
C212 C 0.92903 0.7494 0.93072 0.0
N213 N 0.7953 0.74803 0.95529 0.0
C214 C 0.75343 0.73237 0.96642 0.0
C215 C 0.80644 0.79181 0.93769 0.0
C216 C 0.77575 0.82206 0.93274 0.0
C217 C 0.733 0.80799 0.94693 0.0
C218 C 0.72168 0.76213 0.96302 0.0
Zn219 Zn 0.84511 0.71646 0.98185 0.0
O220 O 0.89373 0.63121 0.96717 0.0
C221 C 0.81232 0.65498 0.06345 0.0
O222 O 0.83465 0.65116 0.93942 0.0
H223 H 0.83959 0.80516 0.93084 0.0
H224 H 0.92717 0.59312 0.04555 0.0
H225 H 0.74469 0.698 0.98099 0.0
O226 O 0.85148 0.64804 0.06345 0.0
O227 O 0.80207 0.68514 0.03563 0.0
H228 H 0.97759 0.73661 0.05929 0.0
O229 O 0.85683 0.77856 0.02674 0.0
O230 O 0.90092 0.7456 0.06735 0.0
O231 O 0.88894 0.74682 0.92732 0.0
O232 O 0.94342 0.73012 0.96597 0.0
C233 C 0.88032 0.77993 0.06227 0.0
H234 H 0.98482 0.57064 0.09308 0.0
H235 H 0.03254 0.71766 0.11122 0.0
H236 H 0.78573 0.8573 0.92049 0.0
H237 H 0.68896 0.75016 0.97458 0.0
C238 C 0.58085 0.62664 0.35982 0.0
N239 N 0.63531 0.50777 0.31099 0.0
C240 C 0.60757 0.48733 0.34539 0.0
C241 C 0.61698 0.44762 0.36783 0.0
C242 C 0.65494 0.429 0.35413 0.0
C243 C 0.68124 0.44821 0.31623 0.0
C244 C 0.67071 0.48789 0.29503 0.0
Zn245 Zn 0.62722 0.57239 0.28767 0.0
C246 C 0.53688 0.57253 0.24703 0.0
N247 N 0.60541 0.70089 0.23723 0.0
C248 C 0.61614 0.73984 0.26585 0.0
C249 C 0.59302 0.70402 0.19184 0.0
C250 C 0.59102 0.7476 0.17344 0.0
C251 C 0.603 0.78835 0.20154 0.0
C252 C 0.61582 0.78451 0.24822 0.0
Zn253 Zn 0.61179 0.63656 0.25826 0.0
O254 O 0.60152 0.59139 0.3565 0.0
C255 C 0.69393 0.6456 0.30729 0.0
O256 O 0.57788 0.65032 0.32315 0.0
H257 H 0.58526 0.67264 0.16961 0.0
H258 H 0.57916 0.50299 0.35703 0.0
H259 H 0.62592 0.73637 0.30193 0.0
O260 O 0.69042 0.60115 0.3102 0.0
O261 O 0.66469 0.66408 0.28933 0.0
H262 H 0.692 0.50363 0.2673 0.0
O263 O 0.64996 0.62597 0.19444 0.0
O264 O 0.65748 0.55566 0.21701 0.0
O265 O 0.55503 0.60913 0.22724 0.0
O266 O 0.55979 0.54788 0.26973 0.0
C267 C 0.66751 0.58869 0.18767 0.0
H268 H 0.59609 0.43304 0.39712 0.0
H269 H 0.7107 0.43423 0.30505 0.0
H270 H 0.58041 0.74954 0.13735 0.0
H271 H 0.62512 0.81542 0.27067 0.0
C272 C 0.14486 0.56785 0.19637 0.0
N273 N 0.15616 0.45934 0.09287 0.0
C274 C 0.11274 0.45099 0.09828 0.0
C275 C 0.0878 0.44161 0.058 0.0
C276 C 0.10749 0.44104 0.01145 0.0
C277 C 0.15232 0.44829 1.00692 0.0
C278 C 0.17608 0.45729 0.04817 0.0
Zn279 Zn 0.19153 0.48773 0.15131 0.0
C280 C 0.24898 0.57658 0.12253 0.0
N281 N 0.26343 0.55633 0.26745 0.0
C282 C 0.27826 0.52321 0.2937 0.0
C283 C 0.28997 0.5958 0.25541 0.0
C284 C 0.33417 0.5974 0.25904 0.0
C285 C 0.35099 0.55911 0.27743 0.0
C286 C 0.3223 0.52342 0.29837 0.0
Zn287 Zn 0.22111 0.5279 0.21516 0.0
O288 O 0.14678 0.5351 0.16453 0.0
C289 C 0.16337 0.44299 0.24893 0.0
O290 O 0.1731 0.57507 0.22791 0.0
H291 H 0.27796 0.62344 0.23699 0.0
H292 H 0.0972 0.45368 0.13375 0.0
H293 H 0.25696 0.49299 0.30529 0.0
O294 O 0.15664 0.43793 0.20382 0.0
O295 O 0.18768 0.47897 0.26347 0.0
H296 H 0.21047 0.4647 0.04418 0.0
O297 O 0.26753 0.47988 0.19959 0.0
O298 O 0.23716 0.43861 0.14017 0.0
O299 O 0.25179 0.57692 0.16753 0.0
O300 O 0.2279 0.54066 0.10262 0.0
C301 C 0.26615 0.44446 0.17049 0.0
H302 H 0.05332 0.43629 0.06303 0.0
H303 H 0.16872 0.44825 0.97169 0.0
H304 H 0.3552 0.62689 0.24474 0.0
H305 H 0.3339 0.49436 0.315 0.0
C306 C 0.53599 1.00477 0.86567 0.0
N307 N 0.59333 0.08351 0.97936 0.0
C308 C 0.56672 0.05527 1.00907 0.0
C309 C 0.55792 0.06989 0.0566 0.0
C310 C 0.57728 0.11356 0.07376 0.0
C311 C 0.60502 0.1418 0.04274 0.0
C312 C 0.61209 0.12633 0.99512 0.0
Zn313 Zn 0.61009 0.05776 0.91252 0.0
C314 C 0.64067 0.96309 0.9183 0.0
N315 N 0.6499 1.0019 0.77261 0.0
C316 C 0.67485 0.96655 0.77391 0.0
C317 C 0.65653 0.03274 0.73602 0.0
C318 C 0.69496 0.03638 0.70807 0.0
C319 C 0.72616 0.00849 0.71917 0.0
C320 C 0.71418 0.97006 0.74842 0.0
Zn321 Zn 0.62778 0.02699 0.84002 0.0
O322 O 0.5482 0.02758 0.90343 0.0
C323 C 0.59647 0.11908 0.83207 0.0
O324 O 0.56365 0.99502 0.83274 0.0
H325 H 0.63526 0.05882 0.73222 0.0
H326 H 0.55281 0.02099 0.99613 0.0
H327 H 0.66775 0.93901 0.7993 0.0
O328 O 0.59323 0.11979 0.87798 0.0
O329 O 0.61101 0.08489 0.80957 0.0
H330 H 0.63317 0.14823 0.97103 0.0
O331 O 0.69106 0.06289 0.84834 0.0
O332 O 0.67246 0.08943 0.92043 0.0
O333 O 0.64389 0.96807 0.87333 0.0
O334 O 0.62599 0.99495 0.94524 0.0
C335 C 0.70043 0.08732 0.88628 0.0
H336 H 0.53638 0.04735 0.07982 0.0
H337 H 0.62039 0.17572 0.0551 0.0
H338 H 0.70254 0.0649 0.68351 0.0
H339 H 0.73671 0.94601 0.75563 0.0
C340 C 0.87176 0.99275 0.32071 0.0
N341 N 0.89597 0.87464 0.39372 0.0
C342 C 0.93787 0.89142 0.38546 0.0
C343 C 0.96646 0.89088 0.42191 0.0
C344 C 0.95122 0.87318 0.46675 0.0
C345 C 0.90907 0.85209 0.47252 0.0
C346 C 0.88179 0.85334 0.43543 0.0
Zn347 Zn 0.84915 0.89312 0.35355 0.0
C348 C 0.78966 0.94631 0.417 0.0
N349 N 0.75142 0.94153 0.27867 0.0
C350 C 0.73056 0.90832 0.24938 0.0
C351 C 0.73298 0.97973 0.29585 0.0
C352 C 0.6897 0.98128 0.29045 0.0
C353 C 0.66614 0.94346 0.26679 0.0
C354 C 0.68723 0.90834 0.24328 0.0
Zn355 Zn 0.80116 0.92315 0.31333 0.0
O356 O 0.8839 0.9592 0.34252 0.0
C357 C 0.85868 0.87308 0.24711 0.0
O358 O 0.836 0.98793 0.30168 0.0
H359 H 0.75035 0.00616 0.3185 0.0
H360 H 0.94834 0.90869 0.35231 0.0
H361 H 0.74594 0.87869 0.2357 0.0
O362 O 0.8763 0.86485 0.28558 0.0
O363 O 0.82764 0.89728 0.24988 0.0
H364 H 0.84831 0.84121 0.44201 0.0
O365 O 0.76549 0.85624 0.32634 0.0
O366 O 0.81417 0.82768 0.36436 0.0
O367 O 0.77514 0.95038 0.37635 0.0
O368 O 0.82046 0.92217 0.41984 0.0
C369 C 0.77739 0.82243 0.34805 0.0
H370 H 0.99896 0.90766 0.4167 0.0
H371 H 0.89643 0.83849 0.50686 0.0
H372 H 0.67398 0.00905 0.30869 0.0
H373 H 0.66972 0.87892 0.22486 0.0
C374 C 0.43704 0.56517 0.70604 0.0
N375 N 0.44033 0.67935 0.6175 0.0
C376 C 0.48296 0.67887 0.62155 0.0
C377 C 0.51034 0.68039 0.5804 0.0
C378 C 0.49327 0.68287 0.53545 0.0
C379 C 0.45033 0.68954 0.53297 0.0
C380 C 0.42408 0.68751 0.57492 0.0
Zn381 Zn 0.3993 0.64909 0.66898 0.0
C382 C 0.34319 0.56908 0.62895 0.0
N383 N 0.31764 0.57711 0.77515 0.0
C384 C 0.29827 0.53381 0.7619 0.0
C385 C 0.29637 0.60741 0.80352 0.0
C386 C 0.25202 0.59947 0.80942 0.0
C387 C 0.23061 0.55983 0.78637 0.0
C388 C 0.25394 0.52473 0.76619 0.0
Zn389 Zn 0.36158 0.60831 0.72611 0.0
O390 O 0.4414 0.59826 0.67665 0.0
C391 C 0.41461 0.68703 0.76776 0.0
O392 O 0.4048 0.56018 0.73558 0.0
H393 H 0.3124 0.64133 0.81452 0.0
H394 H 0.49503 0.6722 0.65582 0.0
H395 H 0.31601 0.50961 0.74065 0.0
O396 O 0.42802 0.69394 0.72437 0.0
O397 O 0.38804 0.65159 0.77765 0.0
H398 H 0.39004 0.68726 0.57256 0.0
O399 O 0.31739 0.6572 0.71556 0.0
O400 O 0.35698 0.69899 0.66192 0.0
O401 O 0.33534 0.56485 0.67352 0.0
O402 O 0.36879 0.60371 0.614 0.0
C403 C 0.32305 0.69226 0.6886 0.0
H404 H 0.54343 0.67506 0.58313 0.0
H405 H 0.43645 0.69133 0.49854 0.0
H406 H 0.23459 0.62661 0.82622 0.0
H407 H 0.23803 0.49314 0.74922 0.0
C408 C 0.26252 0.46939 0.60379 0.0
C409 C 0.28391 0.44174 0.56915 0.0
C410 C 0.34471 0.50383 0.56511 0.0
C411 C 0.32144 0.53229 0.59728 0.0
N412 N 0.25325 0.54809 0.63297 0.0
N413 N 0.34121 0.43688 0.50857 0.0
C414 C 0.27846 0.517 0.61137 0.0
C415 C 0.32382 0.4602 0.54714 0.0
N416 N 0.22777 0.44974 0.63067 0.0
N417 N 0.38697 0.51692 0.55363 0.0
H418 H 0.32688 0.40485 0.49458 0.0
H419 H 0.368 0.45119 0.48817 0.0
H420 H 0.40329 0.54879 0.56522 0.0
H421 H 0.40649 0.49477 0.53502 0.0
H422 H 0.21335 0.46777 0.65916 0.0
H423 H 0.21633 0.41403 0.62794 0.0
H424 H 0.22068 0.53943 0.64109 0.0
H425 H 0.26423 0.58379 0.63784 0.0
C426 C 0.79419 0.06251 0.73247 0.0
C427 C 0.77243 0.02254 0.70815 0.0
C428 C 0.83992 0.9903 0.69087 0.0
C429 C 0.86091 0.02868 0.71767 0.0
N430 N 0.86217 0.10851 0.74765 0.0
N431 N 0.77588 0.95805 0.6508 0.0
C432 C 0.83938 0.06737 0.73275 0.0
C433 C 0.79598 0.98977 0.68254 0.0
N434 N 0.77202 0.09386 0.75856 0.0
N435 N 0.86147 0.95358 0.67524 0.0
H436 H 0.74368 0.95778 0.64416 0.0
H437 H 0.79178 0.9355 0.62795 0.0
H438 H 0.894 0.95336 0.67959 0.0
H439 H 0.84671 0.92227 0.66025 0.0
H440 H 0.78649 0.12096 0.78028 0.0
H441 H 0.73895 0.09181 0.76125 0.0
H442 H 0.84877 0.13973 0.75297 0.0
H443 H 0.89529 0.11258 0.74962 0.0
C444 C 0.26422 0.68756 0.04493 0.0
C445 C 0.29471 0.71694 0.07238 0.0
C446 C 0.3048 0.64699 0.1166 0.0
C447 C 0.26812 0.6207 0.09714 0.0
N448 N 0.2092 0.62067 0.04507 0.0
N449 N 0.33724 0.72405 0.14227 0.0
C450 C 0.24678 0.64214 0.06178 0.0
C451 C 0.31307 0.6964 0.11045 0.0
N452 N 0.25349 0.70128 1.00135 0.0
N453 N 0.33259 0.62452 0.1402 0.0
H454 H 0.3416 0.76067 0.14144 0.0
H455 H 0.34842 0.71087 0.17281 0.0
H456 H 0.32906 0.58801 0.14282 0.0
H457 H 0.36156 0.64149 0.15169 0.0
H458 H 0.2349 0.67907 0.97808 0.0
H459 H 0.26715 0.73221 0.98557 0.0
H460 H 0.19074 0.63718 0.02282 0.0
H461 H 0.19446 0.58817 0.05609 0.0
C462 C 0.55812 0.91931 0.33224 0.0
C463 C 0.53519 0.94714 0.3052 0.0
C464 C 0.5936 0.95537 0.24327 0.0
C465 C 0.6194 0.9365 0.27524 0.0
N466 N 0.62693 0.89552 0.3476 0.0
N467 N 0.5285 0.9895 0.23335 0.0
C468 C 0.60163 0.91607 0.31864 0.0
C469 C 0.55177 0.96362 0.25958 0.0
N470 N 0.53807 0.89676 0.37105 0.0
N471 N 0.60925 0.96515 0.19756 0.0
H472 H 0.49742 0.99567 0.24358 0.0
H473 H 0.54008 0.00586 0.20179 0.0
H474 H 0.64008 0.95956 0.18522 0.0
H475 H 0.59072 0.97436 0.17063 0.0
H476 H 0.55167 0.87306 0.3908 0.0
H477 H 0.50597 0.89895 0.38089 0.0
H478 H 0.61732 0.88433 0.38201 0.0
H479 H 0.6585 0.89083 0.33773 0.0
C480 C 0.70761 0.01297 0.4771 0.0
C481 C 0.73225 0.04663 0.5063 0.0
C482 C 0.79515 1.00517 0.48809 0.0
C483 C 0.77023 0.97191 0.45864 0.0
N484 N 0.70019 0.93403 0.44163 0.0
N485 N 0.79488 0.0653 0.55218 0.0
C486 C 0.72544 0.97228 0.45937 0.0
C487 C 0.77457 0.0395 0.51605 0.0
N488 N 0.66866 0.02128 0.46285 0.0
N489 N 0.83849 0.00625 0.48732 0.0
H490 H 0.78026 0.09004 0.5737 0.0
H491 H 0.82418 0.05867 0.56392 0.0
H492 H 0.85503 0.98132 0.46878 0.0
H493 H 0.85839 0.0335 0.50334 0.0
H494 H 0.65179 0.99988 0.43744 0.0
H495 H 0.65507 0.05186 0.47231 0.0
H496 H 0.66694 0.93085 0.44462 0.0
H497 H 0.71273 0.90355 0.42886 0.0
C498 C 0.12887 0.58505 0.73085 0.0
C499 C 0.10051 0.54627 0.74721 0.0
C500 C 0.15523 0.52294 0.79683 0.0
C501 C 0.18508 0.55816 0.77614 0.0
N502 N 0.20252 0.61817 0.71701 0.0
N503 N 0.08916 0.47246 0.7877 0.0
C504 C 0.17255 0.58828 0.74152 0.0
C505 C 0.11435 0.51357 0.77804 0.0
N506 N 0.11405 0.61883 0.70549 0.0
N507 N 0.16576 0.49892 0.83487 0.0
H508 H 0.05971 0.46333 0.7729 0.0
H509 H 0.09945 0.44529 0.80587 0.0
H510 H 0.19562 0.50524 0.84965 0.0
H511 H 0.14366 0.47621 0.85462 0.0
H512 H 0.13224 0.65057 0.69714 0.0
H513 H 0.08239 0.61658 0.69597 0.0
H514 H 0.19572 0.63718 0.68798 0.0
H515 H 0.23501 0.621 0.72266 0.0
C516 C 0.68882 0.92449 0.97006 0.0
C517 C 0.65563 0.9205 0.93731 0.0
C518 C 0.66823 0.83909 0.91603 0.0
C519 C 0.70172 0.84326 0.9483 0.0
N520 N 0.73345 0.88358 0.01748 0.0
N521 N 0.60471 0.8697 0.89211 0.0
C522 C 0.70844 0.88393 0.97918 0.0
C523 C 0.64231 0.87617 0.91474 0.0
N524 N 0.70391 0.96732 0.98988 0.0
N525 N 0.6627 0.80121 0.8846 0.0
H526 H 0.58474 0.89605 0.89165 0.0
H527 H 0.59132 0.83712 0.87851 0.0
H528 H 0.68115 0.77349 0.8841 0.0
H529 H 0.64196 0.79899 0.85665 0.0
H530 H 0.73152 0.97289 1.00908 0.0
H531 H 0.6909 0.99814 0.98441 0.0
H532 H 0.73633 0.91043 0.04393 0.0
H533 H 0.74741 0.85399 0.02556 0.0
C534 C 0.46852 0.60294 0.28107 0.0
C535 C 0.48889 0.56692 0.25494 0.0
C536 C 0.41746 0.52324 0.24409 0.0
C537 C 0.39841 0.55732 0.27413 0.0
N538 N 0.40845 0.6202 0.33372 0.0
N539 N 0.48205 0.4889 0.2182 0.0
C540 C 0.42491 0.5939 0.29678 0.0
C541 C 0.46313 0.52554 0.23903 0.0
N542 N 0.48939 0.64699 0.28917 0.0
N543 N 0.39221 0.49019 0.21839 0.0
H544 H 0.515 0.49046 0.21153 0.0
H545 H 0.46531 0.45603 0.21051 0.0
H546 H 0.359 0.48773 0.22041 0.0
H547 H 0.40423 0.46757 0.19224 0.0
H548 H 0.47415 0.67465 0.30452 0.0
H549 H 0.51961 0.65865 0.27494 0.0
H550 H 0.42748 0.64415 0.35498 0.0
H551 H 0.37663 0.61406 0.34656 0.0
C552 C 0.50672 0.23884 0.4159 0.0
C553 C 0.47282 0.20153 0.42112 0.0
C554 C 0.49771 0.18661 0.50112 0.0
C555 C 0.53071 0.22462 0.49648 0.0
N556 N 0.55742 0.29598 0.45542 0.0
N557 N 0.42848 0.1512 0.47583 0.0
C558 C 0.53203 0.25381 0.45599 0.0
C559 C 0.46605 0.17898 0.46608 0.0
N560 N 0.51714 0.25806 0.37209 0.0
N561 N 0.49657 0.15749 0.53883 0.0
H562 H 0.40389 0.14733 0.45207 0.0
H563 H 0.41985 0.13681 0.50922 0.0
H564 H 0.51806 0.1632 0.56611 0.0
H565 H 0.47614 0.12613 0.54126 0.0
H566 H 0.54475 0.28119 0.36515 0.0
H567 H 0.50043 0.24825 0.34145 0.0
H568 H 0.556 0.32074 0.42942 0.0
H569 H 0.57735 0.3081 0.48287 0.0
C570 C 0.06063 0.34549 0.60714 0.0
C571 C 0.05054 0.29998 0.58585 0.0
C572 C 0.99703 0.28174 0.65287 0.0
C573 C 0.01035 0.32603 0.67612 0.0
N574 N 0.06731 0.39021 0.68218 0.0
N575 N 0.01809 0.21983 0.59832 0.0
C576 C 0.04607 0.35481 0.65529 0.0
C577 C 0.02118 0.26659 0.61132 0.0
N578 N 0.08336 0.38045 0.58119 0.0
N579 N 0.96113 0.25413 0.66902 0.0
H580 H 0.03647 0.2061 0.57026 0.0
H581 H 0.00064 0.1939 0.61902 0.0
H582 H 0.94331 0.26138 0.70029 0.0
H583 H 0.94748 0.22497 0.64924 0.0
H584 H 0.08869 0.41518 0.59429 0.0
H585 H 0.0923 0.37588 0.54481 0.0
H586 H 0.09533 0.41011 0.66961 0.0
H587 H 0.06002 0.39523 0.7189 0.0
C588 C 0.9908 0.85807 0.87398 0.0
C589 C 0.99903 0.84188 0.82554 0.0
C590 C 0.96447 0.76267 0.8473 0.0
C591 C 0.95772 0.77889 0.89582 0.0
N592 N 0.97124 0.83957 0.95726 0.0
N593 N 0.99809 0.77707 0.76742 0.0
C594 C 0.9731 0.82579 0.90963 0.0
C595 C 0.98749 0.7935 0.81275 0.0
N596 N 0.99886 0.90485 0.88606 0.0
N597 N 0.94772 0.71803 0.83399 0.0
H598 H 0.01207 0.79888 0.74038 0.0
H599 H 0.99514 0.74156 0.75708 0.0
H600 H 0.93274 0.69409 0.85868 0.0
H601 H 0.94675 0.70524 0.7985 0.0
H602 H 0.98701 0.91995 0.91791 0.0
H603 H 0.01531 0.92936 0.86319 0.0
H604 H 0.98663 0.87125 0.97072 0.0
H605 H 0.95723 0.81767 0.98421 0.0
C606 C 0.62183 0.84117 0.13558 0.0
C607 C 0.59967 0.83384 0.18066 0.0
C608 C 0.54305 0.8743 0.15398 0.0
C609 C 0.55612 0.86165 0.10639 0.0
N610 N 0.61253 0.84144 0.04999 0.0
N611 N 0.54114 0.84952 0.23592 0.0
C612 C 0.59791 0.8498 0.09619 0.0
C613 C 0.5618 0.85448 0.19173 0.0
N614 N 0.66344 0.83312 0.1299 0.0
N615 N 0.50877 0.89869 0.16178 0.0
H616 H 0.55454 0.83554 0.26451 0.0
H617 H 0.51041 0.85816 0.2438 0.0
H618 H 0.49463 0.91208 0.13316 0.0
H619 H 0.49628 0.90769 0.1958 0.0
H620 H 0.68208 0.8396 0.09826 0.0
H621 H 0.67967 0.8234 0.1588 0.0
H622 H 0.64073 0.82699 0.04121 0.0
H623 H 0.59563 0.84747 0.02038 0.0
C624 C 0.14654 0.32493 0.31432 0.0
C625 C 0.13584 0.34075 0.36217 0.0
C626 C 0.13079 0.41937 0.33109 0.0
C627 C 0.14797 0.40553 0.28497 0.0
N628 N 0.17798 0.34514 0.23538 0.0
N629 N 0.11881 0.40422 0.41639 0.0
C630 C 0.1568 0.35812 0.27706 0.0
C631 C 0.12832 0.38838 0.37055 0.0
N632 N 0.14723 0.27801 0.30415 0.0
N633 N 0.11532 0.4618 0.33671 0.0
H634 H 0.11333 0.38207 0.44542 0.0
H635 H 0.11846 0.43964 0.42612 0.0
H636 H 0.11519 0.48438 0.30834 0.0
H637 H 0.09873 0.47253 0.36778 0.0
H638 H 0.14988 0.26374 0.26924 0.0
H639 H 0.14126 0.25271 0.33015 0.0
H640 H 0.19053 0.31327 0.23048 0.0
H641 H 0.18685 0.36752 0.20715 0.0
C642 C 0.00328 0.94044 0.57249 0.0
C643 C 0.01175 0.90276 0.60057 0.0
C644 C 0.99011 0.84688 0.5348 0.0
C645 C 0.97595 0.88388 0.51027 0.0
N646 N 0.96105 0.96472 0.51091 0.0
N647 N 0.00766 0.81912 0.61128 0.0
C648 C 0.98041 0.9304 0.5304 0.0
C649 C 0.00402 0.8556 0.58238 0.0
N650 N 0.01842 0.98587 0.58482 0.0
N651 N 0.99042 0.80358 0.51245 0.0
H652 H 0.0163 0.82396 0.64687 0.0
H653 H 0.99826 0.78406 0.60153 0.0
H654 H 0.98036 0.79629 0.47759 0.0
H655 H 0.00417 0.77636 0.52661 0.0
H656 H 0.01681 0.01392 0.56268 0.0
H657 H 0.03695 0.99505 0.61424 0.0
H658 H 0.95927 0.99762 0.52777 0.0
H659 H 0.94322 0.95921 0.48041 0.0
C660 C 0.39953 0.76459 0.80072 0.0
C661 C 0.41954 0.72377 0.80611 0.0
C662 C 0.39585 0.72091 0.89066 0.0
C663 C 0.37365 0.76031 0.8855 0.0
N664 N 0.36123 0.82581 0.83798 0.0
N665 N 0.45058 0.67457 0.85758 0.0
C666 C 0.37723 0.78393 0.8411 0.0
C667 C 0.42294 0.70665 0.85212 0.0
N668 N 0.39992 0.7832 0.75634 0.0
N669 N 0.38949 0.69601 0.9318 0.0
H670 H 0.46987 0.66363 0.82855 0.0
H671 H 0.45708 0.66258 0.89082 0.0
H672 H 0.36807 0.70426 0.95991 0.0
H673 H 0.40215 0.66473 0.93614 0.0
H674 H 0.37983 0.80727 0.74748 0.0
H675 H 0.42057 0.77409 0.72795 0.0
H676 H 0.36733 0.84733 0.80861 0.0
H677 H 0.34428 0.84136 0.86605 0.0
C678 C 0.53159 0.1814 0.18007 0.0
C679 C 0.53114 0.14775 0.21575 0.0
C680 C 0.57982 0.10614 0.16338 0.0
C681 C 0.56712 0.13003 0.1238 0.0
N682 N 0.53015 0.19173 0.09502 0.0
N683 N 0.57035 0.09207 0.24961 0.0
C684 C 0.54363 0.16885 0.13224 0.0
C685 C 0.56048 0.11432 0.21017 0.0
N686 N 0.52089 0.22517 0.19218 0.0
N687 N 0.61023 0.07633 0.15585 0.0
H688 H 0.55952 0.10184 0.28426 0.0
H689 H 0.59062 0.06613 0.24877 0.0
H690 H 0.62502 0.07067 0.12199 0.0
H691 H 0.62283 0.05962 0.18309 0.0
H692 H 0.5232 0.25199 0.16769 0.0
H693 H 0.51527 0.23591 0.22805 0.0
H694 H 0.50928 0.21713 0.10024 0.0
H695 H 0.53657 0.18269 0.05895 0.0
C696 C 0.61523 0.22392 0.75865 0.0
C697 C 0.5954 0.20474 0.71639 0.0
C698 C 0.55889 0.1389 0.76152 0.0
C699 C 0.58265 0.15529 0.80196 0.0
N700 N 0.61646 0.222 0.84571 0.0
N701 N 0.5391 0.15279 0.68076 0.0
C702 C 0.60513 0.2009 0.80281 0.0
C703 C 0.56395 0.16507 0.71895 0.0
N704 N 0.6456 0.26222 0.75607 0.0
N705 N 0.53331 0.09686 0.76355 0.0
H706 H 0.54222 0.17175 0.64934 0.0
H707 H 0.51337 0.12633 0.68131 0.0
H708 H 0.52738 0.07882 0.79547 0.0
H709 H 0.51896 0.07942 0.73406 0.0
H710 H 0.66447 0.27432 0.78454 0.0
H711 H 0.65411 0.28005 0.72443 0.0
H712 H 0.63024 0.25683 0.84928 0.0
H713 H 0.60737 0.20603 0.87828 0.0
C714 C 0.08047 0.39299 0.93805 0.0
C715 C 0.08118 0.4347 0.96764 0.0
C716 C 0.0267 0.46148 0.9188 0.0
C717 C 0.02782 0.42096 0.88759 0.0
N718 N 0.06333 0.35409 0.86122 0.0
N719 N 0.06212 0.5134 0.97929 0.0
C720 C 0.057 0.38849 0.89542 0.0
C721 C 0.05645 0.4704 0.95585 0.0
N722 N 0.10077 0.35671 0.95167 0.0
N723 N 0.99576 0.49023 0.91497 0.0
H724 H 0.08371 0.52142 1.00624 0.0
H725 H 0.04845 0.54239 0.96899 0.0
H726 H 0.97312 0.48507 0.88892 0.0
H727 H 0.99012 0.51687 0.94025 0.0
H728 H 0.09748 0.32352 0.93461 0.0
H729 H 0.118 0.35841 0.98263 0.0
H730 H 0.08721 0.33227 0.86235 0.0
H731 H 0.04763 0.35054 0.82909 0.0
C732 C 0.83223 0.82962 0.17374 0.0
C733 C 0.86789 0.84948 0.19951 0.0
C734 C 0.91433 0.83165 0.1291 0.0
C735 C 0.87756 0.81525 0.1029 0.0
N736 N 0.80194 0.81944 0.0964 0.0
N737 N 0.94304 0.8774 0.19822 0.0
C738 C 0.83669 0.82137 0.12368 0.0
C739 C 0.90923 0.85284 0.17627 0.0
N740 N 0.79417 0.81628 0.19766 0.0
N741 N 0.95398 0.82727 0.10864 0.0
H742 H 0.94011 0.8932 0.23247 0.0
H743 H 0.97319 0.88491 0.18119 0.0
H744 H 0.95866 0.81665 0.07264 0.0
H745 H 0.98173 0.83305 0.12755 0.0
H746 H 0.76757 0.79969 0.18065 0.0
H747 H 0.79133 0.81686 0.23507 0.0
H748 H 0.77215 0.8267 0.11073 0.0
H749 H 0.80393 0.81825 0.05902 0.0
C750 C 0.55006 0.70008 0.46955 0.0
C751 C 0.51734 0.66843 0.49143 0.0
C752 C 0.52515 0.61015 0.42583 0.0
C753 C 0.56001 0.64026 0.40586 0.0
N754 N 0.61107 0.70993 0.41236 0.0
N755 N 0.48026 0.58961 0.49679 0.0
C756 C 0.57406 0.68422 0.42873 0.0
C757 C 0.50681 0.62229 0.47147 0.0
N758 N 0.55741 0.74545 0.48707 0.0
N759 N 0.50834 0.57104 0.40035 0.0
H760 H 0.46659 0.59679 0.53085 0.0
H761 H 0.47507 0.55419 0.48612 0.0
H762 H 0.52069 0.56103 0.36647 0.0
H763 H 0.47981 0.5509 0.41083 0.0
H764 H 0.57767 0.77159 0.46959 0.0
H765 H 0.54074 0.75785 0.51744 0.0
H766 H 0.62515 0.74002 0.43026 0.0
H767 H 0.62988 0.69888 0.38307 0.0
C768 C 0.2536 0.14718 0.4412 0.0
C769 C 0.22638 0.16542 0.40941 0.0
C770 C 0.26024 0.124 0.34175 0.0
C771 C 0.29284 0.11498 0.37166 0.0
N772 N 0.31864 0.11232 0.45077 0.0
N773 N 0.20356 0.17077 0.32883 0.0
C774 C 0.28839 0.12388 0.42189 0.0
C775 C 0.22888 0.15271 0.35962 0.0
N776 N 0.24571 0.1513 0.48987 0.0
N777 N 0.26036 0.10585 0.29562 0.0
H778 H 0.18041 0.1921 0.34035 0.0
H779 H 0.20742 0.16746 0.29152 0.0
H780 H 0.28362 0.08532 0.282 0.0
H781 H 0.23573 0.10731 0.27271 0.0
H782 H 0.26127 0.1345 0.51477 0.0
H783 H 0.22087 0.16821 0.5056 0.0
H784 H 0.32137 0.12423 0.48641 0.0
H785 H 0.34184 0.09123 0.43852 0.0
C786 C 0.13979 0.09403 0.56659 0.0
C787 C 0.13801 0.14057 0.58597 0.0
C788 C 0.12984 0.10911 0.66741 0.0
C789 C 0.12492 0.06225 0.64761 0.0
N790 N 0.1213 0.01039 0.57672 0.0
N791 N 0.12678 0.19194 0.65506 0.0
C792 C 0.12955 0.05473 0.5968 0.0
C793 C 0.13238 0.14809 0.63654 0.0
N794 N 0.15172 0.08724 0.51908 0.0
N795 N 0.13273 0.11634 0.71597 0.0
H796 H 0.12806 0.22122 0.63385 0.0
H797 H 0.11742 0.19861 0.6909 0.0
H798 H 0.13169 0.08871 0.73935 0.0
H799 H 0.14045 0.14938 0.73238 0.0
H800 H 0.1588 0.05503 0.50412 0.0
H801 H 0.15837 0.1146 0.49532 0.0
H802 H 0.11818 1.00362 0.53998 0.0
H803 H 0.11393 0.9803 0.59662 0.0
C804 C 0.1052 0.9763 0.90325 0.0
C805 C 0.1244 0.9956 0.86051 0.0
C806 C 0.19428 0.98536 0.88877 0.0
C807 C 0.17367 0.9518 0.92129 0.0
N808 N 0.1081 0.91719 0.96184 0.0
N809 N 0.18785 0.02889 0.81713 0.0
C810 C 0.12872 0.94862 0.93034 0.0
C811 C 0.1694 1.0047 0.85563 0.0
N812 N 0.0649 0.98459 0.91766 0.0
N813 N 0.23739 0.9979 0.88936 0.0
H814 H 0.16952 0.0445 0.79383 0.0
H815 H 0.2204 0.03209 0.80761 0.0
H816 H 0.256 0.9847 0.91411 0.0
H817 H 0.25387 0.02438 0.86866 0.0
H818 H 0.0504 0.97428 0.95075 0.0
H819 H 0.04828 0.00617 0.89836 0.0
H820 H 0.07491 0.91059 0.96561 0.0
H821 H 0.12403 0.89545 0.98161 0.0
C822 C 0.39248 0.0327 0.13877 0.0
C823 C 0.36874 0.03221 0.18368 0.0
C824 C 0.3265 0.9576 0.15804 0.0
C825 C 0.35363 0.95519 0.11591 0.0
N826 N 0.41283 0.99006 0.06554 0.0
N827 N 0.3147 0.9929 0.23774 0.0
C828 C 0.38649 0.99291 0.10597 0.0
C829 C 0.3359 0.99445 0.19353 0.0
N830 N 0.42124 0.07097 0.12772 0.0
N831 N 0.29167 0.92458 0.1641 0.0
H832 H 0.31922 0.01992 0.26384 0.0
H833 H 0.29441 0.96384 0.24976 0.0
H834 H 0.28471 0.89653 0.13957 0.0
H835 H 0.2679 0.92679 0.19128 0.0
H836 H 0.43656 0.07615 0.09396 0.0
H837 H 0.42798 0.09965 0.15146 0.0
H838 H 0.44086 0.01249 0.05882 0.0
H839 H 0.40762 0.9636 0.03911 0.0
C840 C 0.82517 0.31744 0.67319 0.0
C841 C 0.83302 0.36644 0.68405 0.0
C842 C 0.76652 0.37552 0.64588 0.0
C843 C 0.75453 0.32568 0.64537 0.0
N844 N 0.77107 0.25054 0.67108 0.0
N845 N 0.8073 0.44233 0.68486 0.0
C846 C 0.78354 0.29688 0.6623 0.0
C847 C 0.80272 0.39573 0.67141 0.0
N848 N 0.85784 0.2905 0.67229 0.0
N849 N 0.74506 0.40361 0.62015 0.0
H850 H 0.83337 0.45874 0.70288 0.0
H851 H 0.78344 0.46377 0.68123 0.0
H852 H 0.72082 0.39053 0.59769 0.0
H853 H 0.75501 0.43937 0.61632 0.0
H854 H 0.85435 0.25506 0.6613 0.0
H855 H 0.88927 0.30531 0.67689 0.0
H856 H 0.79073 0.22964 0.68694 0.0
H857 H 0.73972 0.2347 0.66873 0.0
C858 C 0.84306 0.51889 0.84891 0.0
C859 C 0.86196 0.48427 0.87241 0.0
C860 C 0.86117 0.53421 0.94582 0.0
C861 C 0.85444 0.57319 0.9184 0.0
N862 N 0.83978 0.60212 0.84157 0.0
N863 N 0.88918 0.45957 0.94542 0.0
C864 C 0.8446 0.56533 0.86949 0.0
C865 C 0.87027 0.49153 0.92182 0.0
N866 N 0.82462 0.50728 0.80623 0.0
N867 N 0.8579 0.53766 0.9949 0.0
H868 H 0.89496 0.42699 0.93044 0.0
H869 H 0.9012 0.46668 0.97938 0.0
H870 H 0.84871 0.5674 0.0135 0.0
H871 H 0.85916 0.50922 0.01663 0.0
H872 H 0.80761 0.52984 0.78886 0.0
H873 H 0.82255 0.47306 0.79137 0.0
H874 H 0.83715 0.5985 0.80445 0.0
H875 H 0.84198 0.63688 0.85455 0.0
C876 C 0.78226 0.61855 0.14221 0.0
C877 C 0.77759 0.62701 0.09315 0.0
C878 C 0.70081 0.59802 0.10324 0.0
C879 C 0.70549 0.58954 0.15227 0.0
N880 N 0.75437 0.57734 0.21308 0.0
N881 N 0.73564 0.60722 0.02375 0.0
C882 C 0.74755 0.59383 0.1694 0.0
C883 C 0.73779 0.61126 0.07261 0.0
N884 N 0.81804 0.63781 0.16461 0.0
N885 N 0.66093 0.59415 0.08598 0.0
H886 H 0.76258 0.6133 1.00037 0.0
H887 H 0.70832 0.59256 1.00679 0.0
H888 H 0.63356 0.58162 0.10662 0.0
H889 H 0.65506 0.60543 0.0522 0.0
H890 H 0.8207 0.63746 0.20171 0.0
H891 H 0.84333 0.6586 0.14749 0.0
H892 H 0.78477 0.57494 0.22464 0.0
H893 H 0.72989 0.56305 0.23621 0.0
C894 C 0.70243 0.37483 0.45624 0.0
C895 C 0.67933 0.32955 0.45355 0.0
C896 C 0.6549 0.34521 0.37486 0.0
C897 C 0.66952 0.39335 0.38357 0.0
N898 N 0.70969 0.4549 0.43007 0.0
N899 N 0.63913 0.26754 0.40778 0.0
C900 C 0.69494 0.40835 0.42299 0.0
C901 C 0.6582 0.31295 0.41139 0.0
N902 N 0.73108 0.38534 0.49116 0.0
N903 N 0.63738 0.33095 0.33213 0.0
H904 H 0.64229 0.24255 0.43292 0.0
H905 H 0.61915 0.25455 0.38067 0.0
H906 H 0.63433 0.35436 0.30522 0.0
H907 H 0.62874 0.29597 0.32165 0.0
H908 H 0.75143 0.41673 0.49349 0.0
H909 H 0.73727 0.36018 0.515 0.0
H910 H 0.72401 0.46869 0.46117 0.0
H911 H 0.70571 0.48049 0.40577 0.0
C912 C 0.32006 0.38852 0.14295 0.0
C913 C 0.29234 0.40588 0.17969 0.0
C914 C 0.31193 0.3486 0.23562 0.0
C915 C 0.34008 0.33201 0.1994 0.0
N916 N 0.37519 0.33778 0.1207 0.0
N917 N 0.26525 0.4049 0.26299 0.0
C918 C 0.3454 0.35248 0.15356 0.0
C919 C 0.28959 0.38679 0.22654 0.0
N920 N 0.32214 0.40659 0.09814 0.0
N921 N 0.3047 0.32607 0.27833 0.0
H922 H 0.24198 0.42587 0.25718 0.0
H923 H 0.2686 0.39982 0.2993 0.0
H924 H 0.32238 0.30012 0.28848 0.0
H925 H 0.27934 0.33078 0.30287 0.0
H926 H 0.33839 0.39302 0.06825 0.0
H927 H 0.30617 0.43476 0.09019 0.0
H928 H 0.3836 0.35316 0.08782 0.0
H929 H 0.39356 0.31125 0.12758 0.0
C930 C 0.77292 0.20272 0.89617 0.0
C931 C 0.81329 0.18803 0.88342 0.0
C932 C 0.78079 0.10548 0.88182 0.0
C933 C 0.73988 0.12109 0.88708 0.0
N934 N 0.69706 0.18553 0.88996 0.0
N935 N 0.85689 0.12614 0.86376 0.0
C936 C 0.73594 0.16989 0.89254 0.0
C937 C 0.81767 0.13943 0.87663 0.0
N938 N 0.76953 0.24844 0.9103 0.0
N939 N 0.78424 0.05846 0.88213 0.0
H940 H 0.88457 0.15016 0.8622 0.0
H941 H 0.86181 0.092 0.85275 0.0
H942 H 0.75769 0.03303 0.88571 0.0
H943 H 0.81321 0.0448 0.88232 0.0
H944 H 0.74146 0.25946 0.92572 0.0
H945 H 0.79534 0.27475 0.91103 0.0
H946 H 0.69314 0.2209 0.88809 0.0
H947 H 0.66916 0.1633 0.88413 0.0
C948 C 0.12344 0.63407 0.15415 0.0
C949 C 0.11277 0.60017 0.18962 0.0
C950 C 0.0368 0.6049 0.17963 0.0
C951 C 0.04767 0.63038 0.13696 0.0
N952 N 0.10289 0.66472 0.08061 0.0
N953 N 0.05945 0.55265 0.23689 0.0
C954 C 0.09147 0.64456 0.1238 0.0
C955 C 0.06939 0.58589 0.20307 0.0
N956 N 0.16464 0.65471 0.14842 0.0
N957 N 0.99563 0.59977 0.19831 0.0
H958 H 0.08286 0.54018 0.2561 0.0
H959 H 0.02858 0.53626 0.24423 0.0
H960 H 0.9713 0.61458 0.18305 0.0
H961 H 0.98654 0.58495 0.2314 0.0
H962 H 0.17404 0.68264 0.1259 0.0
H963 H 0.18839 0.64695 0.17026 0.0
H964 H 0.13444 0.67263 0.06779 0.0
H965 H 0.081 0.6694 0.05522 0.0
C966 C 0.75578 0.73972 0.37864 0.0
C967 C 0.75384 0.77444 0.34386 0.0
C968 C 0.74085 0.71318 0.28323 0.0
C969 C 0.73194 0.67878 0.31825 0.0
N970 N 0.73113 0.65914 0.40125 0.0
N971 N 0.71832 0.7881 0.27227 0.0
C972 C 0.74035 0.69171 0.36675 0.0
C973 C 0.7391 0.75986 0.29838 0.0
N974 N 0.77008 0.75271 0.42307 0.0
N975 N 0.74124 0.70057 0.23566 0.0
H976 H 0.70754 0.81864 0.28724 0.0
H977 H 0.70602 0.77712 0.23913 0.0
H978 H 0.73816 0.66542 0.22458 0.0
H979 H 0.74704 0.72497 0.20865 0.0
H980 H 0.77595 0.72853 0.448 0.0
H981 H 0.7766 0.7879 0.43439 0.0
H982 H 0.73208 0.66745 0.43797 0.0
H983 H 0.7212 0.62388 0.39242 0.0
C984 C 0.53393 0.49886 0.70343 0.0
C985 C 0.52322 0.46568 0.66536 0.0
C986 C 0.45253 0.49105 0.66445 0.0
C987 C 0.46485 0.5279 0.69807 0.0
N988 N 0.51856 0.57104 0.74604 0.0
N989 N 0.47658 0.4386 0.60157 0.0
C990 C 0.50605 0.53317 0.71652 0.0
C991 C 0.48374 0.46432 0.64343 0.0
N992 N 0.56963 0.4965 0.72814 0.0
N993 N 0.41083 0.48098 0.65314 0.0
H994 H 0.49952 0.41993 0.58386 0.0
H995 H 0.44979 0.43996 0.58181 0.0
H996 H 0.3867 0.49901 0.66897 0.0
H997 H 0.39959 0.45152 0.63223 0.0
H998 H 0.57667 0.51673 0.75926 0.0
H999 H 0.59064 0.47172 0.71968 0.0
H1000 H 0.54978 0.57959 0.75642 0.0
H1001 H 0.49803 0.59547 0.75793 0.0
C1002 C 0.27544 0.7404 0.6476 0.0
C1003 C 0.29129 0.7264 0.69072 0.0
C1004 C 0.24452 0.77529 0.73815 0.0
C1005 C 0.23252 0.79315 0.69499 0.0
N1006 N 0.24041 0.79806 0.60874 0.0
N1007 N 0.29609 0.73671 0.7771 0.0
C1008 C 0.24918 0.77731 0.64969 0.0
C1009 C 0.2771 0.74535 0.73608 0.0
N1010 N 0.28351 0.71677 0.60503 0.0
N1011 N 0.22413 0.78617 0.7811 0.0
H1012 H 0.32124 0.71662 0.77745 0.0
H1013 H 0.28989 0.75325 0.8103 0.0
H1014 H 0.20077 0.80895 0.78439 0.0
H1015 H 0.22772 0.76966 0.81294 0.0
H1016 H 0.26926 0.72229 0.57333 0.0
H1017 H 0.30105 0.6882 0.60229 0.0
H1018 H 0.25531 0.79157 0.57521 0.0
H1019 H 0.22079 0.82477 0.60895 0.0
C1020 C 0.44572 0.915 0.87969 0.0
C1021 C 0.41766 0.9396 0.91056 0.0
C1022 C 0.45974 0.01381 0.88943 0.0
C1023 C 0.48979 0.98777 0.86368 0.0
N1024 N 0.49747 0.9197 0.81218 0.0
N1025 N 0.391 0.01246 0.9344 0.0
C1026 C 0.47777 0.94049 0.8508 0.0
C1027 C 0.42191 0.98929 0.91124 0.0
N1028 N 0.44444 0.86751 0.88084 0.0
N1029 N 0.46876 0.06153 0.89448 0.0
H1030 H 0.36358 0.99465 0.95102 0.0
H1031 H 0.39094 0.04873 0.93453 0.0
H1032 H 0.49507 0.07981 0.87621 0.0
H1033 H 0.4509 0.08276 0.91658 0.0
H1034 H 0.4674 0.84876 0.86334 0.0
H1035 H 0.42244 0.84758 0.90268 0.0
H1036 H 0.48769 0.88541 0.79988 0.0
H1037 H 0.51916 0.93889 0.78865 0.0
C1038 C 0.88613 0.06779 0.36532 0.0
C1039 C 0.89678 0.03879 0.32529 0.0
C1040 C 0.968 0.08205 0.31764 0.0
C1041 C 0.96019 0.10366 0.36349 0.0
N1042 N 0.91277 0.11559 0.43312 0.0
N1043 N 0.94592 0.01802 0.26124 0.0
C1044 C 0.91922 0.097 0.38761 0.0
C1045 C 0.937 0.04641 0.3002 0.0
N1046 N 0.84469 0.06595 0.38288 0.0
N1047 N 0.0049 0.09567 0.29114 0.0
H1048 H 0.92271 0.99318 0.2466 0.0
H1049 H 0.9763 0.01783 0.24472 0.0
H1050 H 0.02809 0.12205 0.30312 0.0
H1051 H 0.01086 0.08384 0.25583 0.0
H1052 H 0.83439 0.08897 0.40975 0.0
H1053 H 0.8198 0.04442 0.36719 0.0
H1054 H 0.88479 0.10753 0.45432 0.0
H1055 H 0.93653 0.13622 0.45157 0.0
loop_
_geom_bond_atom_site_label_1
_geom_bond_atom_site_label_2
_geom_bond_distance
_geom_bond_site_symmetry_2
_ccdc_geom_bond_type
C0 O16 1.251 . S
C0 O18 1.254 . S
N1 C2 1.333 . S
N1 C6 1.307 . S
N1 Zn7 2.020 . S
C2 N1 1.333 . S
C2 C3 1.379 . S
C2 H20 0.952 . S
C3 C2 1.379 . S
C3 C4 1.390 1_455 S
C3 H30 0.949 . S
C4 C3 1.390 1_655 S
C4 C5 1.357 . S
C5 C4 1.357 . S
C5 C6 1.370 1_655 S
C5 H31 0.950 . S
C6 N1 1.307 . S
C6 C5 1.370 1_455 S
C6 H24 0.948 . S
Zn7 N1 2.020 . S
Zn7 O16 2.039 . S
Zn7 O22 2.034 . S
Zn7 O26 2.025 . S
Zn7 O28 2.024 . S
C8 O27 1.246 . S
C8 O28 1.249 . S
N9 C10 1.307 . S
N9 C11 1.333 . S
N9 Zn15 2.020 . S
C10 N9 1.307 . S
C10 C14 1.370 . S
C10 H21 0.948 . S
C11 N9 1.333 . S
C11 C12 1.379 . S
C11 H19 0.952 . S
C12 C11 1.379 . S
C12 C13 1.390 . S
C12 H32 0.949 . S
C13 C12 1.390 . S
C13 C14 1.357 . S
C14 C10 1.370 . S
C14 C13 1.357 . S
C14 H33 0.950 . S
Zn15 N9 2.020 . S
Zn15 O18 2.025 . S
Zn15 O23 2.024 . S
Zn15 O25 2.039 . S
Zn15 O27 2.034 . S
O16 C0 1.251 . S
O16 Zn7 2.039 . S
C17 O22 1.246 . S
C17 O23 1.249 . S
O18 C0 1.254 . S
O18 Zn15 2.025 . S
H19 C11 0.952 . S
H20 C2 0.952 . S
H21 C10 0.948 . S
O22 Zn7 2.034 . S
O22 C17 1.246 . S
O23 Zn15 2.024 . S
O23 C17 1.249 . S
H24 C6 0.948 . S
O25 Zn15 2.039 . S
O25 C29 1.251 . S
O26 Zn7 2.025 . S
O26 C29 1.254 . S
O27 C8 1.246 . S
O27 Zn15 2.034 . S
O28 Zn7 2.024 . S
O28 C8 1.249 . S
C29 O25 1.251 . S
C29 O26 1.254 . S
H30 C3 0.949 . S
H31 C5 0.950 . S
H32 C12 0.949 . S
H33 C14 0.950 . S
C34 O50 1.251 . S
C34 O52 1.254 . S
N35 C36 1.333 . S
N35 C40 1.307 . S
N35 Zn41 2.020 . S
C36 N35 1.333 . S
C36 C37 1.379 . S
C36 H54 0.952 . S
C37 C36 1.379 . S
C37 C38 1.390 . S
C37 H64 0.949 . S
C38 C37 1.390 . S
C38 C39 1.357 . S
C39 C38 1.357 . S
C39 C40 1.370 . S
C39 H65 0.950 . S
C40 N35 1.307 . S
C40 C39 1.370 . S
C40 H58 0.948 . S
Zn41 N35 2.020 . S
Zn41 O50 2.039 . S
Zn41 O56 2.034 . S
Zn41 O60 2.025 . S
Zn41 O62 2.024 . S
C42 O61 1.246 . S
C42 O62 1.249 . S
N43 C44 1.307 1_565 S
N43 C45 1.333 1_455 S
N43 Zn49 2.020 . S
C44 N43 1.307 1_545 S
C44 C48 1.370 1_455 S
C44 H55 0.948 . S
C45 N43 1.333 1_655 S
C45 C46 1.379 . S
C45 H53 0.952 . S
C46 C45 1.379 . S
C46 C47 1.390 1_565 S
C46 H66 0.949 . S
C47 C46 1.390 1_545 S
C47 C48 1.357 . S
C48 C44 1.370 1_655 S
C48 C47 1.357 . S
C48 H67 0.952 . S
Zn49 N43 2.020 . S
Zn49 O52 2.025 . S
Zn49 O57 2.024 . S
Zn49 O59 2.039 . S
Zn49 O61 2.034 . S
O50 C34 1.251 . S
O50 Zn41 2.039 . S
C51 O56 1.246 . S
C51 O57 1.249 . S
O52 C34 1.254 . S
O52 Zn49 2.025 . S
H53 C45 0.952 . S
H54 C36 0.952 . S
H55 C44 0.948 . S
O56 Zn41 2.034 . S
O56 C51 1.246 . S
O57 Zn49 2.024 . S
O57 C51 1.249 . S
H58 C40 0.948 . S
O59 Zn49 2.039 . S
O59 C63 1.251 . S
O60 Zn41 2.025 . S
O60 C63 1.254 . S
O61 C42 1.246 . S
O61 Zn49 2.034 . S
O62 Zn41 2.024 . S
O62 C42 1.249 . S
C63 O59 1.251 . S
C63 O60 1.254 . S
H64 C37 0.949 . S
H65 C39 0.950 . S
H66 C46 0.949 . S
H67 C48 0.952 . S
C68 O84 1.251 . S
C68 O86 1.254 . S
N69 C70 1.333 . S
N69 C74 1.307 . S
N69 Zn75 2.020 . S
C70 N69 1.333 . S
C70 C71 1.379 . S
C70 H88 0.952 . S
C71 C70 1.379 . S
C71 C72 1.390 . S
C71 H98 0.949 . S
C72 C71 1.390 . S
C72 C73 1.357 . S
C73 C72 1.357 . S
C73 C74 1.370 . S
C73 H99 0.950 . S
C74 N69 1.307 . S
C74 C73 1.370 . S
C74 H92 0.948 . S
Zn75 N69 2.020 . S
Zn75 O84 2.039 . S
Zn75 O90 2.034 . S
Zn75 O94 2.025 . S
Zn75 O96 2.024 . S
C76 O95 1.246 1_556 S
C76 O96 1.249 . S
N77 C78 1.307 . S
N77 C79 1.333 . S
N77 Zn83 2.020 1_554 S
C78 N77 1.307 . S
C78 C82 1.370 . S
C78 H89 0.948 1_554 S
C79 N77 1.333 . S
C79 C80 1.379 . S
C79 H87 0.952 . S
C80 C79 1.379 . S
C80 C81 1.390 . S
C80 H100 0.949 . S
C81 C80 1.390 . S
C81 C82 1.357 . S
C82 C78 1.370 . S
C82 C81 1.357 . S
C82 H101 0.950 . S
Zn83 N77 2.020 1_556 S
Zn83 O86 2.025 . S
Zn83 O91 2.024 . S
Zn83 O93 2.039 1_556 S
Zn83 O95 2.034 1_556 S
O84 C68 1.251 . S
O84 Zn75 2.039 . S
C85 O90 1.246 . S
C85 O91 1.249 . S
O86 C68 1.254 . S
O86 Zn83 2.025 . S
H87 C79 0.952 . S
H88 C70 0.952 . S
H89 C78 0.948 1_556 S
O90 Zn75 2.034 . S
O90 C85 1.246 . S
O91 Zn83 2.024 . S
O91 C85 1.249 . S
H92 C74 0.948 . S
O93 Zn83 2.039 1_554 S
O93 C97 1.251 . S
O94 Zn75 2.025 . S
O94 C97 1.254 1_556 S
O95 C76 1.246 1_554 S
O95 Zn83 2.034 1_554 S
O96 Zn75 2.024 . S
O96 C76 1.249 . S
C97 O93 1.251 . S
C97 O94 1.254 1_554 S
H98 C71 0.949 . S
H99 C73 0.950 . S
H100 C80 0.949 . S
H101 C82 0.950 . S
C102 O118 1.251 . S
C102 O120 1.254 . S
N103 C104 1.333 . S
N103 C108 1.307 . S
N103 Zn109 2.020 . S
C104 N103 1.333 . S
C104 C105 1.379 . S
C104 H122 0.952 . S
C105 C104 1.379 . S
C105 C106 1.390 . S
C105 H132 0.949 . S
C106 C105 1.390 . S
C106 C107 1.357 . S
C107 C106 1.357 . S
C107 C108 1.370 . S
C107 H133 0.950 . S
C108 N103 1.307 . S
C108 C107 1.370 . S
C108 H126 0.948 . S
Zn109 N103 2.020 . S
Zn109 O118 2.039 . S
Zn109 O124 2.034 . S
Zn109 O128 2.025 . S
Zn109 O130 2.024 . S
C110 O129 1.246 . S
C110 O130 1.249 . S
N111 C112 1.307 . S
N111 C113 1.333 . S
N111 Zn117 2.020 . S
C112 N111 1.307 . S
C112 C116 1.370 1_545 S
C112 H123 0.948 . S
C113 N111 1.333 . S
C113 C114 1.379 . S
C113 H121 0.952 . S
C114 C113 1.379 . S
C114 C115 1.390 1_545 S
C114 H134 0.949 . S
C115 C114 1.390 1_565 S
C115 C116 1.357 . S
C116 C112 1.370 1_565 S
C116 C115 1.357 . S
C116 H135 0.950 . S
Zn117 N111 2.020 . S
Zn117 O120 2.025 . S
Zn117 O125 2.024 . S
Zn117 O127 2.039 . S
Zn117 O129 2.034 . S
O118 C102 1.251 . S
O118 Zn109 2.039 . S
C119 O124 1.246 . S
C119 O125 1.249 . S
O120 C102 1.254 . S
O120 Zn117 2.025 . S
H121 C113 0.952 . S
H122 C104 0.952 . S
H123 C112 0.948 . S
O124 Zn109 2.034 . S
O124 C119 1.246 . S
O125 Zn117 2.024 . S
O125 C119 1.249 . S
H126 C108 0.948 . S
O127 Zn117 2.039 . S
O127 C131 1.251 . S
O128 Zn109 2.025 . S
O128 C131 1.254 . S
O129 C110 1.246 . S
O129 Zn117 2.034 . S
O130 Zn109 2.024 . S
O130 C110 1.249 . S
C131 O127 1.251 . S
C131 O128 1.254 . S
H132 C105 0.949 . S
H133 C107 0.950 . S
H134 C114 0.949 . S
H135 C116 0.950 . S
C136 O152 1.251 . S
C136 O154 1.254 . S
N137 C138 1.333 . S
N137 C142 1.307 . S
N137 Zn143 2.020 . S
C138 N137 1.333 . S
C138 C139 1.379 . S
C138 H156 0.952 . S
C139 C138 1.379 . S
C139 C140 1.390 . S
C139 H166 0.949 . S
C140 C139 1.390 . S
C140 C141 1.357 . S
C141 C140 1.357 . S
C141 C142 1.370 . S
C141 H167 0.950 . S
C142 N137 1.307 . S
C142 C141 1.370 . S
C142 H160 0.948 . S
Zn143 N137 2.020 . S
Zn143 O152 2.039 . S
Zn143 O158 2.034 . S
Zn143 O162 2.025 . S
Zn143 O164 2.024 . S
C144 O163 1.246 . S
C144 O164 1.249 . S
N145 C146 1.307 . S
N145 C147 1.333 . S
N145 Zn151 2.020 . S
C146 N145 1.307 . S
C146 C150 1.370 . S
C146 H157 0.948 . S
C147 N145 1.333 . S
C147 C148 1.379 . S
C147 H155 0.952 . S
C148 C147 1.379 . S
C148 C149 1.390 . S
C148 H168 0.949 . S
C149 C148 1.390 . S
C149 C150 1.357 . S
C150 C146 1.370 . S
C150 C149 1.357 . S
C150 H169 0.950 . S
Zn151 N145 2.020 . S
Zn151 O154 2.025 . S
Zn151 O159 2.024 . S
Zn151 O161 2.039 . S
Zn151 O163 2.034 . S
O152 C136 1.251 . S
O152 Zn143 2.039 . S
C153 O158 1.246 . S
C153 O159 1.249 . S
O154 C136 1.254 . S
O154 Zn151 2.025 . S
H155 C147 0.952 . S
H156 C138 0.952 . S
H157 C146 0.948 . S
O158 Zn143 2.034 . S
O158 C153 1.246 . S
O159 Zn151 2.024 . S
O159 C153 1.249 . S
H160 C142 0.948 . S
O161 Zn151 2.039 . S
O161 C165 1.251 . S
O162 Zn143 2.025 . S
O162 C165 1.254 . S
O163 C144 1.246 . S
O163 Zn151 2.034 . S
O164 Zn143 2.024 . S
O164 C144 1.249 . S
C165 O161 1.251 . S
C165 O162 1.254 . S
H166 C139 0.949 . S
H167 C141 0.950 . S
H168 C148 0.949 . S
H169 C150 0.950 . S
C170 O186 1.251 . S
C170 O188 1.254 . S
N171 C172 1.333 . S
N171 C176 1.307 . S
N171 Zn177 2.020 . S
C172 N171 1.333 . S
C172 C173 1.379 . S
C172 H190 0.952 . S
C173 C172 1.379 . S
C173 C174 1.390 . S
C173 H200 0.949 . S
C174 C173 1.390 . S
C174 C175 1.357 . S
C175 C174 1.357 . S
C175 C176 1.370 . S
C175 H201 0.950 . S
C176 N171 1.307 . S
C176 C175 1.370 . S
C176 H194 0.948 . S
Zn177 N171 2.020 . S
Zn177 O186 2.039 . S
Zn177 O192 2.034 . S
Zn177 O196 2.025 . S
Zn177 O198 2.024 . S
C178 O197 1.246 . S
C178 O198 1.249 . S
N179 C180 1.307 . S
N179 C181 1.333 1_655 S
N179 Zn185 2.020 . S
C180 N179 1.307 . S
C180 C184 1.370 1_655 S
C180 H191 0.948 . S
C181 N179 1.333 1_455 S
C181 C182 1.379 . S
C181 H189 0.952 . S
C182 C181 1.379 . S
C182 C183 1.390 . S
C182 H202 0.949 . S
C183 C182 1.390 . S
C183 C184 1.357 . S
C184 C180 1.370 1_455 S
C184 C183 1.357 . S
C184 H203 0.950 . S
Zn185 N179 2.020 . S
Zn185 O188 2.025 . S
Zn185 O193 2.024 . S
Zn185 O195 2.039 . S
Zn185 O197 2.034 . S
O186 C170 1.251 . S
O186 Zn177 2.039 . S
C187 O192 1.246 . S
C187 O193 1.249 . S
O188 C170 1.254 . S
O188 Zn185 2.025 . S
H189 C181 0.952 . S
H190 C172 0.952 . S
H191 C180 0.948 . S
O192 Zn177 2.034 . S
O192 C187 1.246 . S
O193 Zn185 2.024 . S
O193 C187 1.249 . S
H194 C176 0.948 . S
O195 Zn185 2.039 . S
O195 C199 1.251 . S
O196 Zn177 2.025 . S
O196 C199 1.254 . S
O197 C178 1.246 . S
O197 Zn185 2.034 . S
O198 Zn177 2.024 . S
O198 C178 1.249 . S
C199 O195 1.251 . S
C199 O196 1.254 . S
H200 C173 0.949 . S
H201 C175 0.950 . S
H202 C182 0.949 . S
H203 C184 0.950 . S
C204 O220 1.243 1_556 S
C204 O222 1.254 . S
N205 C206 1.333 . S
N205 C210 1.307 . S
N205 Zn211 2.020 . S
C206 N205 1.333 . S
C206 C207 1.379 . S
C206 H224 0.952 . S
C207 C206 1.379 . S
C207 C208 1.390 1_655 S
C207 H234 0.949 . S
C208 C207 1.390 1_455 S
C208 C209 1.357 . S
C209 C208 1.357 . S
C209 C210 1.370 1_455 S
C209 H235 0.950 . S
C210 N205 1.307 . S
C210 C209 1.370 1_655 S
C210 H228 0.948 . S
Zn211 N205 2.020 . S
Zn211 O220 2.047 . S
Zn211 O226 2.034 . S
Zn211 O230 2.025 . S
Zn211 O232 2.024 . S
C212 O231 1.246 . S
C212 O232 1.249 1_556 S
N213 C214 1.307 . S
N213 C215 1.333 . S
N213 Zn219 2.020 1_556 S
C214 N213 1.307 . S
C214 C218 1.370 . S
C214 H225 0.948 . S
C215 N213 1.333 . S
C215 C216 1.379 . S
C215 H223 0.952 1_556 S
C216 C215 1.379 . S
C216 C217 1.390 . S
C216 H236 0.949 . S
C217 C216 1.390 . S
C217 C218 1.357 . S
C218 C214 1.370 . S
C218 C217 1.357 . S
C218 H237 0.950 . S
Zn219 N213 2.020 1_554 S
Zn219 O222 2.025 1_554 S
Zn219 O227 2.024 . S
Zn219 O229 2.039 . S
Zn219 O231 2.034 1_554 S
O220 C204 1.243 1_554 S
O220 Zn211 2.047 . S
C221 O226 1.246 . S
C221 O227 1.249 . S
O222 C204 1.254 . S
O222 Zn219 2.025 1_556 S
H223 C215 0.952 1_554 S
H224 C206 0.952 . S
H225 C214 0.948 . S
O226 Zn211 2.034 . S
O226 C221 1.246 . S
O227 Zn219 2.024 . S
O227 C221 1.249 . S
H228 C210 0.948 . S
O229 Zn219 2.039 . S
O229 C233 1.251 . S
O230 Zn211 2.025 . S
O230 C233 1.254 . S
O231 C212 1.246 . S
O231 Zn219 2.034 1_556 S
O232 Zn211 2.024 . S
O232 C212 1.249 1_554 S
C233 O229 1.251 . S
C233 O230 1.254 . S
H234 C207 0.949 . S
H235 C209 0.950 . S
H236 C216 0.949 . S
H237 C218 0.950 . S
C238 O254 1.251 . S
C238 O256 1.254 . S
N239 C240 1.333 . S
N239 C244 1.307 . S
N239 Zn245 2.020 . S
C240 N239 1.333 . S
C240 C241 1.379 . S
C240 H258 0.952 . S
C241 C240 1.379 . S
C241 C242 1.390 . S
C241 H268 0.949 . S
C242 C241 1.390 . S
C242 C243 1.357 . S
C243 C242 1.357 . S
C243 C244 1.370 . S
C243 H269 0.950 . S
C244 N239 1.307 . S
C244 C243 1.370 . S
C244 H262 0.948 . S
Zn245 N239 2.020 . S
Zn245 O254 2.039 . S
Zn245 O260 2.034 . S
Zn245 O264 2.025 . S
Zn245 O266 2.024 . S
C246 O265 1.246 . S
C246 O266 1.249 . S
N247 C248 1.307 . S
N247 C249 1.333 . S
N247 Zn253 2.020 . S
C248 N247 1.307 . S
C248 C252 1.370 . S
C248 H259 0.948 . S
C249 N247 1.333 . S
C249 C250 1.379 . S
C249 H257 0.952 . S
C250 C249 1.379 . S
C250 C251 1.390 . S
C250 H270 0.949 . S
C251 C250 1.390 . S
C251 C252 1.357 . S
C252 C248 1.370 . S
C252 C251 1.357 . S
C252 H271 0.950 . S
Zn253 N247 2.020 . S
Zn253 O256 2.025 . S
Zn253 O261 2.024 . S
Zn253 O263 2.039 . S
Zn253 O265 2.034 . S
O254 C238 1.251 . S
O254 Zn245 2.039 . S
C255 O260 1.246 . S
C255 O261 1.249 . S
O256 C238 1.254 . S
O256 Zn253 2.025 . S
H257 C249 0.952 . S
H258 C240 0.952 . S
H259 C248 0.948 . S
O260 Zn245 2.034 . S
O260 C255 1.246 . S
O261 Zn253 2.024 . S
O261 C255 1.249 . S
H262 C244 0.948 . S
O263 Zn253 2.039 . S
O263 C267 1.251 . S
O264 Zn245 2.025 . S
O264 C267 1.254 . S
O265 C246 1.246 . S
O265 Zn253 2.034 . S
O266 Zn245 2.024 . S
O266 C246 1.249 . S
C267 O263 1.251 . S
C267 O264 1.254 . S
H268 C241 0.949 . S
H269 C243 0.950 . S
H270 C250 0.949 . S
H271 C252 0.950 . S
C272 O288 1.251 . S
C272 O290 1.254 . S
N273 C274 1.333 . S
N273 C278 1.307 . S
N273 Zn279 2.020 . S
C274 N273 1.333 . S
C274 C275 1.379 . S
C274 H292 0.952 . S
C275 C274 1.379 . S
C275 C276 1.390 . S
C275 H302 0.949 . S
C276 C275 1.390 . S
C276 C277 1.357 . S
C277 C276 1.357 . S
C277 C278 1.370 . S
C277 H303 0.950 1_554 S
C278 N273 1.307 . S
C278 C277 1.370 . S
C278 H296 0.948 . S
Zn279 N273 2.020 . S
Zn279 O288 2.039 . S
Zn279 O294 2.034 . S
Zn279 O298 2.025 . S
Zn279 O300 2.024 . S
C280 O299 1.246 . S
C280 O300 1.249 . S
N281 C282 1.307 . S
N281 C283 1.333 . S
N281 Zn287 2.020 . S
C282 N281 1.307 . S
C282 C286 1.370 . S
C282 H293 0.948 . S
C283 N281 1.333 . S
C283 C284 1.379 . S
C283 H291 0.952 . S
C284 C283 1.379 . S
C284 C285 1.390 . S
C284 H304 0.949 . S
C285 C284 1.390 . S
C285 C286 1.357 . S
C286 C282 1.370 . S
C286 C285 1.357 . S
C286 H305 0.950 . S
Zn287 N281 2.020 . S
Zn287 O290 2.025 . S
Zn287 O295 2.024 . S
Zn287 O297 2.039 . S
Zn287 O299 2.034 . S
O288 C272 1.251 . S
O288 Zn279 2.039 . S
C289 O294 1.246 . S
C289 O295 1.249 . S
O290 C272 1.254 . S
O290 Zn287 2.025 . S
H291 C283 0.952 . S
H292 C274 0.952 . S
H293 C282 0.948 . S
O294 Zn279 2.034 . S
O294 C289 1.246 . S
O295 Zn287 2.024 . S
O295 C289 1.249 . S
H296 C278 0.948 . S
O297 Zn287 2.039 . S
O297 C301 1.251 . S
O298 Zn279 2.025 . S
O298 C301 1.254 . S
O299 C280 1.246 . S
O299 Zn287 2.034 . S
O300 Zn279 2.024 . S
O300 C280 1.249 . S
C301 O297 1.251 . S
C301 O298 1.254 . S
H302 C275 0.949 . S
H303 C277 0.950 1_556 S
H304 C284 0.949 . S
H305 C286 0.950 . S
C306 O322 1.251 1_565 S
C306 O324 1.254 . S
N307 C308 1.333 . S
N307 C312 1.307 1_556 S
N307 Zn313 2.020 . S
C308 N307 1.333 . S
C308 C309 1.379 . S
C308 H326 0.952 . S
C309 C308 1.379 . S
C309 C310 1.390 1_556 S
C309 H336 0.949 . S
C310 C309 1.390 1_554 S
C310 C311 1.357 . S
C311 C310 1.357 . S
C311 C312 1.370 . S
C311 H337 0.950 . S
C312 N307 1.307 1_554 S
C312 C311 1.370 . S
C312 H330 0.948 . S
Zn313 N307 2.020 . S
Zn313 O322 2.039 . S
Zn313 O328 2.034 . S
Zn313 O332 2.025 . S
Zn313 O334 2.024 . S
C314 O333 1.246 . S
C314 O334 1.249 . S
N315 C316 1.307 1_545 S
N315 C317 1.333 . S
N315 Zn321 2.020 . S
C316 N315 1.307 1_565 S
C316 C320 1.370 . S
C316 H327 0.948 . S
C317 N315 1.333 . S
C317 C318 1.379 . S
C317 H325 0.952 . S
C318 C317 1.379 . S
C318 C319 1.390 1_545 S
C318 H338 0.949 . S
C319 C318 1.390 1_565 S
C319 C320 1.357 . S
C320 C316 1.370 . S
C320 C319 1.357 . S
C320 H339 0.950 . S
Zn321 N315 2.020 . S
Zn321 O324 2.025 1_545 S
Zn321 O329 2.024 . S
Zn321 O331 2.039 . S
Zn321 O333 2.034 . S
O322 C306 1.251 1_545 S
O322 Zn313 2.039 . S
C323 O328 1.246 . S
C323 O329 1.249 . S
O324 C306 1.254 . S
O324 Zn321 2.025 1_565 S
H325 C317 0.952 . S
H326 C308 0.952 . S
H327 C316 0.948 . S
O328 Zn313 2.034 . S
O328 C323 1.246 . S
O329 Zn321 2.024 . S
O329 C323 1.249 . S
H330 C312 0.948 . S
O331 Zn321 2.039 . S
O331 C335 1.251 . S
O332 Zn313 2.025 . S
O332 C335 1.254 . S
O333 C314 1.246 . S
O333 Zn321 2.034 . S
O334 Zn313 2.024 . S
O334 C314 1.249 . S
C335 O331 1.251 . S
C335 O332 1.254 . S
H336 C309 0.949 . S
H337 C311 0.950 . S
H338 C318 0.949 . S
H339 C320 0.950 . S
C340 O356 1.251 . S
C340 O358 1.254 . S
N341 C342 1.333 . S
N341 C346 1.307 . S
N341 Zn347 2.020 . S
C342 N341 1.333 . S
C342 C343 1.379 . S
C342 H360 0.952 . S
C343 C342 1.379 . S
C343 C344 1.390 . S
C343 H370 0.949 . S
C344 C343 1.390 . S
C344 C345 1.357 . S
C345 C344 1.357 . S
C345 C346 1.370 . S
C345 H371 0.950 . S
C346 N341 1.307 . S
C346 C345 1.370 . S
C346 H364 0.948 . S
Zn347 N341 2.020 . S
Zn347 O356 2.039 . S
Zn347 O362 2.034 . S
Zn347 O366 2.025 . S
Zn347 O368 2.024 . S
C348 O367 1.246 . S
C348 O368 1.249 . S
N349 C350 1.307 . S
N349 C351 1.333 . S
N349 Zn355 2.020 . S
C350 N349 1.307 . S
C350 C354 1.370 . S
C350 H361 0.948 . S
C351 N349 1.333 . S
C351 C352 1.379 . S
C351 H359 0.952 . S
C352 C351 1.379 . S
C352 C353 1.390 . S
C352 H372 0.949 . S
C353 C352 1.390 . S
C353 C354 1.357 . S
C354 C350 1.370 . S
C354 C353 1.357 . S
C354 H373 0.950 1_565 S
Zn355 N349 2.020 . S
Zn355 O358 2.025 . S
Zn355 O363 2.024 . S
Zn355 O365 2.039 . S
Zn355 O367 2.034 . S
O356 C340 1.251 . S
O356 Zn347 2.039 . S
C357 O362 1.246 . S
C357 O363 1.249 . S
O358 C340 1.254 . S
O358 Zn355 2.025 . S
H359 C351 0.952 . S
H360 C342 0.952 . S
H361 C350 0.948 . S
O362 Zn347 2.034 . S
O362 C357 1.246 . S
O363 Zn355 2.024 . S
O363 C357 1.249 . S
H364 C346 0.948 . S
O365 Zn355 2.039 . S
O365 C369 1.251 . S
O366 Zn347 2.025 . S
O366 C369 1.254 . S
O367 C348 1.246 . S
O367 Zn355 2.034 . S
O368 Zn347 2.024 . S
O368 C348 1.249 . S
C369 O365 1.251 . S
C369 O366 1.254 . S
H370 C343 0.949 . S
H371 C345 0.950 . S
H372 C352 0.949 . S
H373 C354 0.950 1_545 S
C374 O390 1.251 . S
C374 O392 1.254 . S
N375 C376 1.333 . S
N375 C380 1.307 . S
N375 Zn381 2.020 . S
C376 N375 1.333 . S
C376 C377 1.379 . S
C376 H394 0.952 . S
C377 C376 1.379 . S
C377 C378 1.390 . S
C377 H404 0.949 . S
C378 C377 1.390 . S
C378 C379 1.357 . S
C379 C378 1.357 . S
C379 C380 1.370 . S
C379 H405 0.950 . S
C380 N375 1.307 . S
C380 C379 1.370 . S
C380 H398 0.948 . S
Zn381 N375 2.020 . S
Zn381 O390 2.039 . S
Zn381 O396 2.034 . S
Zn381 O400 2.025 . S
Zn381 O402 2.024 . S
C382 O401 1.246 . S
C382 O402 1.249 . S
N383 C384 1.307 . S
N383 C385 1.333 . S
N383 Zn389 2.020 . S
C384 N383 1.307 . S
C384 C388 1.370 . S
C384 H395 0.948 . S
C385 N383 1.333 . S
C385 C386 1.379 . S
C385 H393 0.952 . S
C386 C385 1.379 . S
C386 C387 1.390 . S
C386 H406 0.949 . S
C387 C386 1.390 . S
C387 C388 1.357 . S
C388 C384 1.370 . S
C388 C387 1.357 . S
C388 H407 0.950 . S
Zn389 N383 2.020 . S
Zn389 O392 2.025 . S
Zn389 O397 2.024 . S
Zn389 O399 2.039 . S
Zn389 O401 2.034 . S
O390 C374 1.251 . S
O390 Zn381 2.039 . S
C391 O396 1.246 . S
C391 O397 1.249 . S
O392 C374 1.254 . S
O392 Zn389 2.025 . S
H393 C385 0.952 . S
H394 C376 0.952 . S
H395 C384 0.948 . S
O396 Zn381 2.034 . S
O396 C391 1.246 . S
O397 Zn389 2.024 . S
O397 C391 1.249 . S
H398 C380 0.948 . S
O399 Zn389 2.039 . S
O399 C403 1.251 . S
O400 Zn381 2.025 . S
O400 C403 1.254 . S
O401 C382 1.246 . S
O401 Zn389 2.034 . S
O402 Zn381 2.024 . S
O402 C382 1.249 . S
C403 O399 1.251 . S
C403 O400 1.254 . S
H404 C377 0.949 . S
H405 C379 0.950 . S
H406 C386 0.949 . S
H407 C388 0.950 . S
C408 C409 1.363 . S
C408 C414 1.379 . S
C408 N416 1.356 . S
C409 C408 1.363 . S
C409 C415 1.363 . S
C410 C411 1.363 . S
C410 C415 1.379 . S
C410 N417 1.356 . S
C411 C410 1.363 . S
C411 C414 1.363 . S
N412 C414 1.356 . S
N412 H424 0.984 . S
N412 H425 0.985 . S
N413 C415 1.356 . S
N413 H418 0.984 . S
N413 H419 0.985 . S
C414 C408 1.379 . S
C414 C411 1.363 . S
C414 N412 1.356 . S
C415 C409 1.363 . S
C415 C410 1.379 . S
C415 N413 1.356 . S
N416 C408 1.356 . S
N416 H422 0.984 . S
N416 H423 0.984 . S
N417 C410 1.356 . S
N417 H420 0.984 . S
N417 H421 0.985 . S
H418 N413 0.984 . S
H419 N413 0.985 . S
H420 N417 0.984 . S
H421 N417 0.985 . S
H422 N416 0.984 . S
H423 N416 0.984 . S
H424 N412 0.984 . S
H425 N412 0.985 . S
C426 C427 1.363 . S
C426 C432 1.377 1_565 S
C426 N434 1.356 . S
C427 C426 1.363 . S
C427 C433 1.363 1_565 S
C428 C429 1.363 . S
C428 C433 1.379 . S
C428 N435 1.356 . S
C429 C428 1.363 . S
C429 C432 1.366 . S
N430 C432 1.356 . S
N430 H442 0.984 1_545 S
N430 H443 0.985 . S
N431 C433 1.356 . S
N431 H436 0.984 1_545 S
N431 H437 0.985 . S
C432 C426 1.377 1_545 S
C432 C429 1.366 . S
C432 N430 1.356 . S
C433 C427 1.363 1_545 S
C433 C428 1.379 . S
C433 N431 1.356 . S
N434 C426 1.356 . S
N434 H440 0.984 . S
N434 H441 0.984 . S
N435 C428 1.356 . S
N435 H438 0.984 . S
N435 H439 0.985 . S
H436 N431 0.984 1_565 S
H437 N431 0.985 . S
H438 N435 0.984 . S
H439 N435 0.985 . S
H440 N434 0.984 . S
H441 N434 0.984 . S
H442 N430 0.984 1_565 S
H443 N430 0.985 . S
C444 C445 1.363 . S
C444 C450 1.379 . S
C444 N452 1.356 1_554 S
C445 C444 1.363 . S
C445 C451 1.363 . S
C446 C447 1.363 . S
C446 C451 1.379 . S
C446 N453 1.356 . S
C447 C446 1.363 . S
C447 C450 1.363 . S
N448 C450 1.356 . S
N448 H460 0.984 1_554 S
N448 H461 0.985 . S
N449 C451 1.356 . S
N449 H454 0.984 . S
N449 H455 0.985 . S
C450 C444 1.379 . S
C450 C447 1.363 . S
C450 N448 1.356 . S
C451 C445 1.363 . S
C451 C446 1.379 . S
C451 N449 1.356 . S
N452 C444 1.356 1_556 S
N452 H458 0.984 . S
N452 H459 0.984 . S
N453 C446 1.356 . S
N453 H456 0.984 . S
N453 H457 0.985 . S
H454 N449 0.984 . S
H455 N449 0.985 . S
H456 N453 0.984 . S
H457 N453 0.985 . S
H458 N452 0.984 . S
H459 N452 0.984 . S
H460 N448 0.984 1_556 S
H461 N448 0.985 . S
C462 C463 1.363 . S
C462 C468 1.379 . S
C462 N470 1.356 . S
C463 C462 1.363 . S
C463 C469 1.354 1_565 S
C464 C465 1.363 1_545 S
C464 C469 1.379 . S
C464 N471 1.356 . S
C465 C464 1.363 1_565 S
C465 C468 1.363 . S
N466 C468 1.356 . S
N466 H478 0.984 . S
N466 H479 0.985 . S
N467 C469 1.363 . S
N467 H472 0.984 . S
N467 H473 0.985 . S
C468 C462 1.379 . S
C468 C465 1.363 . S
C468 N466 1.356 . S
C469 C463 1.354 1_545 S
C469 C464 1.379 . S
C469 N467 1.363 . S
N470 C462 1.356 . S
N470 H476 0.984 . S
N470 H477 0.984 . S
N471 C464 1.356 . S
N471 H474 0.984 . S
N471 H475 0.985 . S
H472 N467 0.984 . S
H473 N467 0.985 . S
H474 N471 0.984 . S
H475 N471 0.985 . S
H476 N470 0.984 . S
H477 N470 0.984 . S
H478 N466 0.984 . S
H479 N466 0.985 . S
C480 C481 1.363 . S
C480 C486 1.379 . S
C480 N488 1.356 . S
C481 C480 1.363 . S
C481 C487 1.363 . S
C482 C483 1.363 1_545 S
C482 C487 1.379 . S
C482 N489 1.356 1_545 S
C483 C482 1.363 1_565 S
C483 C486 1.363 1_565 S
N484 C486 1.356 1_565 S
N484 H496 0.984 . S
N484 H497 0.985 . S
N485 C487 1.356 . S
N485 H490 0.984 . S
N485 H491 0.985 . S
C486 C480 1.379 . S
C486 C483 1.363 1_545 S
C486 N484 1.356 1_545 S
C487 C481 1.363 . S
C487 C482 1.379 . S
C487 N485 1.356 . S
N488 C480 1.356 . S
N488 H494 0.984 . S
N488 H495 0.984 . S
N489 C482 1.356 1_565 S
N489 H492 0.984 . S
N489 H493 0.985 1_565 S
H490 N485 0.984 . S
H491 N485 0.985 . S
H492 N489 0.984 . S
H493 N489 0.985 1_545 S
H494 N488 0.984 . S
H495 N488 0.984 . S
H496 N484 0.984 . S
H497 N484 0.985 . S
C498 C499 1.363 . S
C498 C504 1.379 . S
C498 N506 1.356 . S
C499 C498 1.363 . S
C499 C505 1.363 . S
C500 C501 1.363 . S
C500 C505 1.379 . S
C500 N507 1.356 . S
C501 C500 1.363 . S
C501 C504 1.363 . S
N502 C504 1.356 . S
N502 H514 0.984 . S
N502 H515 0.985 . S
N503 C505 1.356 . S
N503 H508 0.984 . S
N503 H509 0.985 . S
C504 C498 1.379 . S
C504 C501 1.363 . S
C504 N502 1.356 . S
C505 C499 1.363 . S
C505 C500 1.379 . S
C505 N503 1.356 . S
N506 C498 1.356 . S
N506 H512 0.984 . S
N506 H513 0.984 . S
N507 C500 1.356 . S
N507 H510 0.984 . S
N507 H511 0.985 . S
H508 N503 0.984 . S
H509 N503 0.985 . S
H510 N507 0.984 . S
H511 N507 0.985 . S
H512 N506 0.984 . S
H513 N506 0.984 . S
H514 N502 0.984 . S
H515 N502 0.985 . S
C516 C517 1.363 . S
C516 C522 1.379 . S
C516 N524 1.356 1_556 S
C517 C516 1.363 . S
C517 C523 1.363 . S
C518 C519 1.363 . S
C518 C523 1.379 . S
C518 N525 1.356 . S
C519 C518 1.363 . S
C519 C522 1.363 . S
N520 C522 1.356 1_554 S
N520 H532 0.984 . S
N520 H533 0.985 1_554 S
N521 C523 1.356 . S
N521 H526 0.984 . S
N521 H527 0.985 . S
C522 C516 1.379 . S
C522 C519 1.363 . S
C522 N520 1.356 1_556 S
C523 C517 1.363 . S
C523 C518 1.379 . S
C523 N521 1.356 . S
N524 C516 1.356 1_554 S
N524 H530 0.984 . S
N524 H531 0.984 1_565 S
N525 C518 1.356 . S
N525 H528 0.984 . S
N525 H529 0.985 . S
H526 N521 0.984 . S
H527 N521 0.985 . S
H528 N525 0.984 . S
H529 N525 0.985 . S
H530 N524 0.984 . S
H531 N524 0.984 1_545 S
H532 N520 0.984 . S
H533 N520 0.985 1_556 S
C534 C535 1.363 . S
C534 C540 1.379 . S
C534 N542 1.356 . S
C535 C534 1.363 . S
C535 C541 1.363 . S
C536 C537 1.363 . S
C536 C541 1.379 . S
C536 N543 1.356 . S
C537 C536 1.363 . S
C537 C540 1.363 . S
N538 C540 1.356 . S
N538 H550 0.984 . S
N538 H551 0.985 . S
N539 C541 1.356 . S
N539 H544 0.984 . S
N539 H545 0.985 . S
C540 C534 1.379 . S
C540 C537 1.363 . S
C540 N538 1.356 . S
C541 C535 1.363 . S
C541 C536 1.379 . S
C541 N539 1.356 . S
N542 C534 1.356 . S
N542 H548 0.984 . S
N542 H549 0.984 . S
N543 C536 1.356 . S
N543 H546 0.984 . S
N543 H547 0.985 . S
H544 N539 0.984 . S
H545 N539 0.985 . S
H546 N543 0.984 . S
H547 N543 0.985 . S
H548 N542 0.984 . S
H549 N542 0.984 . S
H550 N538 0.984 . S
H551 N538 0.985 . S
C552 C553 1.363 . S
C552 C558 1.379 . S
C552 N560 1.356 . S
C553 C552 1.363 . S
C553 C559 1.363 . S
C554 C555 1.363 . S
C554 C559 1.379 . S
C554 N561 1.356 . S
C555 C554 1.363 . S
C555 C558 1.363 . S
N556 C558 1.356 . S
N556 H568 0.984 . S
N556 H569 0.985 . S
N557 C559 1.356 . S
N557 H562 0.984 . S
N557 H563 0.985 . S
C558 C552 1.379 . S
C558 C555 1.363 . S
C558 N556 1.356 . S
C559 C553 1.363 . S
C559 C554 1.379 . S
C559 N557 1.356 . S
N560 C552 1.356 . S
N560 H566 0.984 . S
N560 H567 0.984 . S
N561 C554 1.356 . S
N561 H564 0.984 . S
N561 H565 0.985 . S
H562 N557 0.984 . S
H563 N557 0.985 . S
H564 N561 0.984 . S
H565 N561 0.985 . S
H566 N560 0.984 . S
H567 N560 0.984 . S
H568 N556 0.984 . S
H569 N556 0.985 . S
C570 C571 1.363 . S
C570 C576 1.379 . S
C570 N578 1.356 . S
C571 C570 1.363 . S
C571 C577 1.363 1_455 S
C572 C573 1.363 . S
C572 C577 1.379 . S
C572 N579 1.356 . S
C573 C572 1.363 . S
C573 C576 1.363 1_655 S
N574 C576 1.356 . S
N574 H586 0.984 . S
N574 H587 0.985 1_455 S
N575 C577 1.356 . S
N575 H580 0.984 1_655 S
N575 H581 0.985 . S
C576 C570 1.379 . S
C576 C573 1.363 1_455 S
C576 N574 1.356 . S
C577 C571 1.363 1_655 S
C577 C572 1.379 . S
C577 N575 1.356 . S
N578 C570 1.356 . S
N578 H584 0.984 . S
N578 H585 0.984 . S
N579 C572 1.356 . S
N579 H582 0.984 . S
N579 H583 0.985 . S
H580 N575 0.984 1_455 S
H581 N575 0.985 . S
H582 N579 0.984 . S
H583 N579 0.985 . S
H584 N578 0.984 . S
H585 N578 0.984 . S
H586 N574 0.984 . S
H587 N574 0.985 1_655 S
C588 C589 1.363 . S
C588 C594 1.379 . S
C588 N596 1.356 . S
C589 C588 1.363 . S
C589 C595 1.363 1_455 S
C590 C591 1.363 . S
C590 C595 1.379 . S
C590 N597 1.356 . S
C591 C590 1.363 . S
C591 C594 1.363 1_655 S
N592 C594 1.356 . S
N592 H604 0.984 . S
N592 H605 0.985 1_455 S
N593 C595 1.356 . S
N593 H598 0.984 . S
N593 H599 0.985 . S
C594 C588 1.379 . S
C594 C591 1.363 1_455 S
C594 N592 1.356 . S
C595 C589 1.363 1_655 S
C595 C590 1.379 . S
C595 N593 1.356 . S
N596 C588 1.356 . S
N596 H602 0.984 . S
N596 H603 0.984 . S
N597 C590 1.356 . S
N597 H600 0.984 . S
N597 H601 0.985 . S
H598 N593 0.984 . S
H599 N593 0.985 . S
H600 N597 0.984 . S
H601 N597 0.985 . S
H602 N596 0.984 . S
H603 N596 0.984 . S
H604 N592 0.984 . S
H605 N592 0.985 1_655 S
C606 C607 1.363 . S
C606 C612 1.379 . S
C606 N614 1.356 . S
C607 C606 1.363 . S
C607 C613 1.363 . S
C608 C609 1.363 . S
C608 C613 1.379 . S
C608 N615 1.356 . S
C609 C608 1.363 . S
C609 C612 1.363 . S
N610 C612 1.356 . S
N610 H622 0.984 . S
N610 H623 0.985 . S
N611 C613 1.356 . S
N611 H616 0.984 . S
N611 H617 0.985 . S
C612 C606 1.379 . S
C612 C609 1.363 . S
C612 N610 1.356 . S
C613 C607 1.363 . S
C613 C608 1.379 . S
C613 N611 1.356 . S
N614 C606 1.356 . S
N614 H620 0.984 . S
N614 H621 0.984 . S
N615 C608 1.356 . S
N615 H618 0.984 . S
N615 H619 0.985 . S
H616 N611 0.984 . S
H617 N611 0.985 . S
H618 N615 0.984 . S
H619 N615 0.985 . S
H620 N614 0.984 . S
H621 N614 0.984 . S
H622 N610 0.984 . S
H623 N610 0.985 . S
C624 C625 1.363 . S
C624 C630 1.379 . S
C624 N632 1.356 . S
C625 C624 1.363 . S
C625 C631 1.363 . S
C626 C627 1.363 . S
C626 C631 1.379 . S
C626 N633 1.356 . S
C627 C626 1.363 . S
C627 C630 1.363 . S
N628 C630 1.356 . S
N628 H640 0.984 . S
N628 H641 0.985 . S
N629 C631 1.356 . S
N629 H634 0.984 . S
N629 H635 0.985 . S
C630 C624 1.379 . S
C630 C627 1.363 . S
C630 N628 1.356 . S
C631 C625 1.363 . S
C631 C626 1.379 . S
C631 N629 1.356 . S
N632 C624 1.356 . S
N632 H638 0.984 . S
N632 H639 0.984 . S
N633 C626 1.356 . S
N633 H636 0.984 . S
N633 H637 0.985 . S
H634 N629 0.984 . S
H635 N629 0.985 . S
H636 N633 0.984 . S
H637 N633 0.985 . S
H638 N632 0.984 . S
H639 N632 0.984 . S
H640 N628 0.984 . S
H641 N628 0.985 . S
C642 C643 1.363 1_655 S
C642 C648 1.379 . S
C642 N650 1.356 . S
C643 C642 1.363 1_455 S
C643 C649 1.363 . S
C644 C645 1.363 . S
C644 C649 1.379 1_655 S
C644 N651 1.356 . S
C645 C644 1.363 . S
C645 C648 1.363 . S
N646 C648 1.356 . S
N646 H658 0.984 . S
N646 H659 0.985 . S
N647 C649 1.356 . S
N647 H652 0.984 . S
N647 H653 0.985 . S
C648 C642 1.379 . S
C648 C645 1.363 . S
C648 N646 1.356 . S
C649 C643 1.363 . S
C649 C644 1.379 1_455 S
C649 N647 1.356 . S
N650 C642 1.356 . S
N650 H656 0.984 . S
N650 H657 0.984 1_655 S
N651 C644 1.356 . S
N651 H654 0.984 . S
N651 H655 0.985 1_655 S
H652 N647 0.984 . S
H653 N647 0.985 . S
H654 N651 0.984 . S
H655 N651 0.985 1_455 S
H656 N650 0.984 . S
H657 N650 0.984 1_455 S
H658 N646 0.984 . S
H659 N646 0.985 . S
C660 C661 1.363 . S
C660 C666 1.379 . S
C660 N668 1.356 . S
C661 C660 1.363 . S
C661 C667 1.363 . S
C662 C663 1.363 . S
C662 C667 1.379 . S
C662 N669 1.356 . S
C663 C662 1.363 . S
C663 C666 1.363 . S
N664 C666 1.356 . S
N664 H676 0.984 . S
N664 H677 0.985 . S
N665 C667 1.356 . S
N665 H670 0.984 . S
N665 H671 0.985 . S
C666 C660 1.379 . S
C666 C663 1.363 . S
C666 N664 1.356 . S
C667 C661 1.363 . S
C667 C662 1.379 . S
C667 N665 1.356 . S
N668 C660 1.356 . S
N668 H674 0.984 . S
N668 H675 0.984 . S
N669 C662 1.356 . S
N669 H672 0.984 . S
N669 H673 0.985 . S
H670 N665 0.984 . S
H671 N665 0.985 . S
H672 N669 0.984 . S
H673 N669 0.985 . S
H674 N668 0.984 . S
H675 N668 0.984 . S
H676 N664 0.984 . S
H677 N664 0.985 . S
C678 C679 1.363 . S
C678 C684 1.379 . S
C678 N686 1.356 . S
C679 C678 1.363 . S
C679 C685 1.363 . S
C680 C681 1.363 . S
C680 C685 1.379 . S
C680 N687 1.356 . S
C681 C680 1.363 . S
C681 C684 1.363 . S
N682 C684 1.356 . S
N682 H694 0.984 . S
N682 H695 0.985 . S
N683 C685 1.356 . S
N683 H688 0.984 . S
N683 H689 0.985 . S
C684 C678 1.379 . S
C684 C681 1.363 . S
C684 N682 1.356 . S
C685 C679 1.363 . S
C685 C680 1.379 . S
C685 N683 1.356 . S
N686 C678 1.356 . S
N686 H692 0.984 . S
N686 H693 0.984 . S
N687 C680 1.356 . S
N687 H690 0.984 . S
N687 H691 0.985 . S
H688 N683 0.984 . S
H689 N683 0.985 . S
H690 N687 0.984 . S
H691 N687 0.985 . S
H692 N686 0.984 . S
H693 N686 0.984 . S
H694 N682 0.984 . S
H695 N682 0.985 . S
C696 C697 1.363 . S
C696 C702 1.379 . S
C696 N704 1.356 . S
C697 C696 1.363 . S
C697 C703 1.363 . S
C698 C699 1.363 . S
C698 C703 1.379 . S
C698 N705 1.356 . S
C699 C698 1.363 . S
C699 C702 1.363 . S
N700 C702 1.356 . S
N700 H712 0.984 . S
N700 H713 0.985 . S
N701 C703 1.356 . S
N701 H706 0.984 . S
N701 H707 0.985 . S
C702 C696 1.379 . S
C702 C699 1.363 . S
C702 N700 1.356 . S
C703 C697 1.363 . S
C703 C698 1.379 . S
C703 N701 1.356 . S
N704 C696 1.356 . S
N704 H710 0.984 . S
N704 H711 0.984 . S
N705 C698 1.356 . S
N705 H708 0.984 . S
N705 H709 0.985 . S
H706 N701 0.984 . S
H707 N701 0.985 . S
H708 N705 0.984 . S
H709 N705 0.985 . S
H710 N704 0.984 . S
H711 N704 0.984 . S
H712 N700 0.984 . S
H713 N700 0.985 . S
C714 C715 1.363 . S
C714 C720 1.379 . S
C714 N722 1.356 . S
C715 C714 1.363 . S
C715 C721 1.363 . S
C716 C717 1.363 . S
C716 C721 1.379 1_655 S
C716 N723 1.356 . S
C717 C716 1.363 . S
C717 C720 1.363 1_655 S
N718 C720 1.356 . S
N718 H730 0.984 . S
N718 H731 0.968 1_455 S
N719 C721 1.356 1_554 S
N719 H724 0.984 . S
N719 H725 0.985 1_455 S
C720 C714 1.379 . S
C720 C717 1.363 1_455 S
C720 N718 1.356 . S
C721 C715 1.363 . S
C721 C716 1.379 1_455 S
C721 N719 1.356 1_556 S
N722 C714 1.356 . S
N722 H728 0.984 . S
N722 H729 0.984 . S
N723 C716 1.356 . S
N723 H726 0.984 . S
N723 H727 0.985 . S
H724 N719 0.984 . S
H725 N719 0.985 1_655 S
H726 N723 0.984 . S
H727 N723 0.985 . S
H728 N722 0.984 . S
H729 N722 0.984 . S
H730 N718 0.984 . S
H731 N718 0.968 1_655 S
C732 C733 1.363 . S
C732 C738 1.379 . S
C732 N740 1.356 . S
C733 C732 1.363 . S
C733 C739 1.363 . S
C734 C735 1.363 . S
C734 C739 1.379 . S
C734 N741 1.356 . S
C735 C734 1.363 . S
C735 C738 1.363 . S
N736 C738 1.356 . S
N736 H748 0.984 . S
N736 H749 0.985 . S
N737 C739 1.356 . S
N737 H742 0.984 . S
N737 H743 0.985 . S
C738 C732 1.379 . S
C738 C735 1.363 . S
C738 N736 1.356 . S
C739 C733 1.363 . S
C739 C734 1.379 . S
C739 N737 1.356 . S
N740 C732 1.356 . S
N740 H746 0.984 . S
N740 H747 0.984 . S
N741 C734 1.356 . S
N741 H744 0.984 . S
N741 H745 0.985 . S
H742 N737 0.984 . S
H743 N737 0.985 . S
H744 N741 0.984 . S
H745 N741 0.985 . S
H746 N740 0.984 . S
H747 N740 0.984 . S
H748 N736 0.984 . S
H749 N736 0.985 . S
C750 C751 1.363 . S
C750 C756 1.379 . S
C750 N758 1.356 . S
C751 C750 1.363 . S
C751 C757 1.363 . S
C752 C753 1.363 . S
C752 C757 1.379 . S
C752 N759 1.356 . S
C753 C752 1.363 . S
C753 C756 1.363 . S
N754 C756 1.356 . S
N754 H766 0.984 . S
N754 H767 0.985 . S
N755 C757 1.356 . S
N755 H760 0.984 . S
N755 H761 0.985 . S
C756 C750 1.379 . S
C756 C753 1.363 . S
C756 N754 1.356 . S
C757 C751 1.363 . S
C757 C752 1.379 . S
C757 N755 1.356 . S
N758 C750 1.356 . S
N758 H764 0.984 . S
N758 H765 0.984 . S
N759 C752 1.356 . S
N759 H762 0.984 . S
N759 H763 0.985 . S
H760 N755 0.984 . S
H761 N755 0.985 . S
H762 N759 0.984 . S
H763 N759 0.985 . S
H764 N758 0.984 . S
H765 N758 0.984 . S
H766 N754 0.984 . S
H767 N754 0.985 . S
C768 C769 1.363 . S
C768 C774 1.379 . S
C768 N776 1.356 . S
C769 C768 1.363 . S
C769 C775 1.363 . S
C770 C771 1.363 . S
C770 C775 1.379 . S
C770 N777 1.356 . S
C771 C770 1.363 . S
C771 C774 1.363 . S
N772 C774 1.356 . S
N772 H784 0.984 . S
N772 H785 0.985 . S
N773 C775 1.356 . S
N773 H778 0.984 . S
N773 H779 0.985 . S
C774 C768 1.379 . S
C774 C771 1.363 . S
C774 N772 1.356 . S
C775 C769 1.363 . S
C775 C770 1.379 . S
C775 N773 1.356 . S
N776 C768 1.356 . S
N776 H782 0.984 . S
N776 H783 0.984 . S
N777 C770 1.356 . S
N777 H780 0.984 . S
N777 H781 0.985 . S
H778 N773 0.984 . S
H779 N773 0.985 . S
H780 N777 0.984 . S
H781 N777 0.985 . S
H782 N776 0.984 . S
H783 N776 0.984 . S
H784 N772 0.984 . S
H785 N772 0.985 . S
C786 C787 1.363 . S
C786 C792 1.379 . S
C786 N794 1.356 . S
C787 C786 1.363 . S
C787 C793 1.363 . S
C788 C789 1.363 . S
C788 C793 1.379 . S
C788 N795 1.356 . S
C789 C788 1.363 . S
C789 C792 1.363 . S
N790 C792 1.356 1_565 S
N790 H802 0.984 . S
N790 H803 0.985 . S
N791 C793 1.356 . S
N791 H796 0.984 . S
N791 H797 0.985 . S
C792 C786 1.379 . S
C792 C789 1.363 . S
C792 N790 1.356 1_545 S
C793 C787 1.363 . S
C793 C788 1.379 . S
C793 N791 1.356 . S
N794 C786 1.356 . S
N794 H800 0.984 . S
N794 H801 0.984 . S
N795 C788 1.356 . S
N795 H798 0.984 . S
N795 H799 0.985 . S
H796 N791 0.984 . S
H797 N791 0.985 . S
H798 N795 0.984 . S
H799 N795 0.985 . S
H800 N794 0.984 . S
H801 N794 0.984 . S
H802 N790 0.984 . S
H803 N790 0.985 . S
C804 C805 1.363 . S
C804 C810 1.379 . S
C804 N812 1.356 . S
C805 C804 1.363 . S
C805 C811 1.363 . S
C806 C807 1.363 . S
C806 C811 1.379 . S
C806 N813 1.356 . S
C807 C806 1.363 . S
C807 C810 1.363 . S
N808 C810 1.356 . S
N808 H820 0.984 . S
N808 H821 0.985 . S
N809 C811 1.356 . S
N809 H814 0.984 . S
N809 H815 0.985 1_565 S
C810 C804 1.379 . S
C810 C807 1.363 . S
C810 N808 1.356 . S
C811 C805 1.363 . S
C811 C806 1.379 . S
C811 N809 1.356 . S
N812 C804 1.356 . S
N812 H818 0.984 . S
N812 H819 0.984 . S
N813 C806 1.356 . S
N813 H816 0.984 . S
N813 H817 0.985 1_565 S
H814 N809 0.984 . S
H815 N809 0.985 1_545 S
H816 N813 0.984 . S
H817 N813 0.985 1_545 S
H818 N812 0.984 . S
H819 N812 0.984 . S
H820 N808 0.984 . S
H821 N808 0.985 . S
C822 C823 1.363 . S
C822 C828 1.379 1_545 S
C822 N830 1.356 . S
C823 C822 1.363 . S
C823 C829 1.363 1_545 S
C824 C825 1.363 . S
C824 C829 1.379 . S
C824 N831 1.356 . S
C825 C824 1.363 . S
C825 C828 1.363 . S
N826 C828 1.356 . S
N826 H838 0.984 1_565 S
N826 H839 0.985 . S
N827 C829 1.356 . S
N827 H832 0.984 1_565 S
N827 H833 0.985 . S
C828 C822 1.379 1_565 S
C828 C825 1.363 . S
C828 N826 1.356 . S
C829 C823 1.363 1_565 S
C829 C824 1.379 . S
C829 N827 1.356 . S
N830 C822 1.356 . S
N830 H836 0.984 . S
N830 H837 0.984 . S
N831 C824 1.356 . S
N831 H834 0.984 . S
N831 H835 0.985 . S
H832 N827 0.984 1_545 S
H833 N827 0.985 . S
H834 N831 0.984 . S
H835 N831 0.985 . S
H836 N830 0.984 . S
H837 N830 0.984 . S
H838 N826 0.984 1_545 S
H839 N826 0.985 . S
C840 C841 1.363 . S
C840 C846 1.379 . S
C840 N848 1.356 . S
C841 C840 1.363 . S
C841 C847 1.363 . S
C842 C843 1.363 . S
C842 C847 1.379 . S
C842 N849 1.356 . S
C843 C842 1.363 . S
C843 C846 1.363 . S
N844 C846 1.356 . S
N844 H856 0.984 . S
N844 H857 0.985 . S
N845 C847 1.356 . S
N845 H850 0.984 . S
N845 H851 0.985 . S
C846 C840 1.379 . S
C846 C843 1.363 . S
C846 N844 1.356 . S
C847 C841 1.363 . S
C847 C842 1.379 . S
C847 N845 1.356 . S
N848 C840 1.356 . S
N848 H854 0.984 . S
N848 H855 0.984 . S
N849 C842 1.356 . S
N849 H852 0.984 . S
N849 H853 0.985 . S
H850 N845 0.984 . S
H851 N845 0.985 . S
H852 N849 0.984 . S
H853 N849 0.985 . S
H854 N848 0.984 . S
H855 N848 0.984 . S
H856 N844 0.984 . S
H857 N844 0.985 . S
C858 C859 1.363 . S
C858 C864 1.379 . S
C858 N866 1.356 . S
C859 C858 1.363 . S
C859 C865 1.363 . S
C860 C861 1.363 . S
C860 C865 1.379 . S
C860 N867 1.356 . S
C861 C860 1.363 . S
C861 C864 1.363 . S
N862 C864 1.356 . S
N862 H874 0.984 . S
N862 H875 0.985 . S
N863 C865 1.356 . S
N863 H868 0.984 . S
N863 H869 0.985 . S
C864 C858 1.379 . S
C864 C861 1.363 . S
C864 N862 1.356 . S
C865 C859 1.363 . S
C865 C860 1.379 . S
C865 N863 1.356 . S
N866 C858 1.356 . S
N866 H872 0.984 . S
N866 H873 0.984 . S
N867 C860 1.356 . S
N867 H870 0.984 1_556 S
N867 H871 0.985 1_556 S
H868 N863 0.984 . S
H869 N863 0.985 . S
H870 N867 0.984 1_554 S
H871 N867 0.985 1_554 S
H872 N866 0.984 . S
H873 N866 0.984 . S
H874 N862 0.984 . S
H875 N862 0.985 . S
C876 C877 1.363 . S
C876 C882 1.379 . S
C876 N884 1.356 . S
C877 C876 1.363 . S
C877 C883 1.363 . S
C878 C879 1.363 . S
C878 C883 1.379 . S
C878 N885 1.356 . S
C879 C878 1.363 . S
C879 C882 1.363 . S
N880 C882 1.356 . S
N880 H892 0.984 . S
N880 H893 0.985 . S
N881 C883 1.356 . S
N881 H886 0.984 . S
N881 H887 0.985 . S
C882 C876 1.379 . S
C882 C879 1.363 . S
C882 N880 1.356 . S
C883 C877 1.363 . S
C883 C878 1.379 . S
C883 N881 1.356 . S
N884 C876 1.356 . S
N884 H890 0.984 . S
N884 H891 0.984 . S
N885 C878 1.356 . S
N885 H888 0.984 . S
N885 H889 0.985 . S
H886 N881 0.984 . S
H887 N881 0.985 . S
H888 N885 0.984 . S
H889 N885 0.985 . S
H890 N884 0.984 . S
H891 N884 0.984 . S
H892 N880 0.984 . S
H893 N880 0.985 . S
C894 C895 1.363 . S
C894 C900 1.379 . S
C894 N902 1.356 . S
C895 C894 1.363 . S
C895 C901 1.363 . S
C896 C897 1.363 . S
C896 C901 1.379 . S
C896 N903 1.356 . S
C897 C896 1.363 . S
C897 C900 1.363 . S
N898 C900 1.356 . S
N898 H910 0.984 . S
N898 H911 0.985 . S
N899 C901 1.356 . S
N899 H904 0.984 . S
N899 H905 0.985 . S
C900 C894 1.379 . S
C900 C897 1.363 . S
C900 N898 1.356 . S
C901 C895 1.363 . S
C901 C896 1.379 . S
C901 N899 1.356 . S
N902 C894 1.356 . S
N902 H908 0.984 . S
N902 H909 0.984 . S
N903 C896 1.356 . S
N903 H906 0.984 . S
N903 H907 0.985 . S
H904 N899 0.984 . S
H905 N899 0.985 . S
H906 N903 0.984 . S
H907 N903 0.985 . S
H908 N902 0.984 . S
H909 N902 0.984 . S
H910 N898 0.984 . S
H911 N898 0.985 . S
C912 C913 1.363 . S
C912 C918 1.379 . S
C912 N920 1.356 . S
C913 C912 1.363 . S
C913 C919 1.363 . S
C914 C915 1.363 . S
C914 C919 1.379 . S
C914 N921 1.356 . S
C915 C914 1.363 . S
C915 C918 1.363 . S
N916 C918 1.356 . S
N916 H928 0.984 . S
N916 H929 0.985 . S
N917 C919 1.356 . S
N917 H922 0.984 . S
N917 H923 0.985 . S
C918 C912 1.379 . S
C918 C915 1.363 . S
C918 N916 1.356 . S
C919 C913 1.363 . S
C919 C914 1.379 . S
C919 N917 1.356 . S
N920 C912 1.356 . S
N920 H926 0.984 . S
N920 H927 0.984 . S
N921 C914 1.356 . S
N921 H924 0.984 . S
N921 H925 0.985 . S
H922 N917 0.984 . S
H923 N917 0.985 . S
H924 N921 0.984 . S
H925 N921 0.985 . S
H926 N920 0.984 . S
H927 N920 0.984 . S
H928 N916 0.984 . S
H929 N916 0.985 . S
C930 C931 1.363 . S
C930 C936 1.379 . S
C930 N938 1.356 . S
C931 C930 1.363 . S
C931 C937 1.363 . S
C932 C933 1.363 . S
C932 C937 1.379 . S
C932 N939 1.356 . S
C933 C932 1.363 . S
C933 C936 1.363 . S
N934 C936 1.356 . S
N934 H946 0.984 . S
N934 H947 0.985 . S
N935 C937 1.356 . S
N935 H940 0.984 . S
N935 H941 0.985 . S
C936 C930 1.379 . S
C936 C933 1.363 . S
C936 N934 1.356 . S
C937 C931 1.363 . S
C937 C932 1.379 . S
C937 N935 1.356 . S
N938 C930 1.356 . S
N938 H944 0.984 . S
N938 H945 0.984 . S
N939 C932 1.356 . S
N939 H942 0.984 . S
N939 H943 0.985 . S
H940 N935 0.984 . S
H941 N935 0.985 . S
H942 N939 0.984 . S
H943 N939 0.985 . S
H944 N938 0.984 . S
H945 N938 0.984 . S
H946 N934 0.984 . S
H947 N934 0.985 . S
C948 C949 1.363 . S
C948 C954 1.379 . S
C948 N956 1.356 . S
C949 C948 1.363 . S
C949 C955 1.363 . S
C950 C951 1.363 . S
C950 C955 1.379 . S
C950 N957 1.356 . S
C951 C950 1.363 . S
C951 C954 1.363 . S
N952 C954 1.356 . S
N952 H964 0.984 . S
N952 H965 0.985 . S
N953 C955 1.356 . S
N953 H958 0.984 . S
N953 H959 0.985 . S
C954 C948 1.379 . S
C954 C951 1.363 . S
C954 N952 1.356 . S
C955 C949 1.363 . S
C955 C950 1.379 . S
C955 N953 1.356 . S
N956 C948 1.356 . S
N956 H962 0.984 . S
N956 H963 0.984 . S
N957 C950 1.356 . S
N957 H960 0.984 1_455 S
N957 H961 0.985 . S
H958 N953 0.984 . S
H959 N953 0.985 . S
H960 N957 0.984 1_655 S
H961 N957 0.985 . S
H962 N956 0.984 . S
H963 N956 0.984 . S
H964 N952 0.984 . S
H965 N952 0.985 . S
C966 C967 1.363 . S
C966 C972 1.379 . S
C966 N974 1.356 . S
C967 C966 1.363 . S
C967 C973 1.363 . S
C968 C969 1.363 . S
C968 C973 1.379 . S
C968 N975 1.356 . S
C969 C968 1.363 . S
C969 C972 1.363 . S
N970 C972 1.356 . S
N970 H982 0.984 . S
N970 H983 0.985 . S
N971 C973 1.356 . S
N971 H976 0.984 . S
N971 H977 0.985 . S
C972 C966 1.379 . S
C972 C969 1.363 . S
C972 N970 1.356 . S
C973 C967 1.363 . S
C973 C968 1.379 . S
C973 N971 1.356 . S
N974 C966 1.356 . S
N974 H980 0.984 . S
N974 H981 0.984 . S
N975 C968 1.356 . S
N975 H978 0.984 . S
N975 H979 0.985 . S
H976 N971 0.984 . S
H977 N971 0.985 . S
H978 N975 0.984 . S
H979 N975 0.985 . S
H980 N974 0.984 . S
H981 N974 0.984 . S
H982 N970 0.984 . S
H983 N970 0.985 . S
C984 C985 1.363 . S
C984 C990 1.379 . S
C984 N992 1.356 . S
C985 C984 1.363 . S
C985 C991 1.363 . S
C986 C987 1.363 . S
C986 C991 1.379 . S
C986 N993 1.356 . S
C987 C986 1.363 . S
C987 C990 1.363 . S
N988 C990 1.356 . S
N988 H1000 0.984 . S
N988 H1001 0.985 . S
N989 C991 1.356 . S
N989 H994 0.984 . S
N989 H995 0.985 . S
C990 C984 1.379 . S
C990 C987 1.363 . S
C990 N988 1.356 . S
C991 C985 1.363 . S
C991 C986 1.379 . S
C991 N989 1.356 . S
N992 C984 1.356 . S
N992 H998 0.984 . S
N992 H999 0.984 . S
N993 C986 1.356 . S
N993 H996 0.984 . S
N993 H997 0.985 . S
H994 N989 0.984 . S
H995 N989 0.985 . S
H996 N993 0.984 . S
H997 N993 0.985 . S
H998 N992 0.984 . S
H999 N992 0.984 . S
H1000 N988 0.984 . S
H1001 N988 0.985 . S
C1002 C1003 1.363 . S
C1002 C1008 1.379 . S
C1002 N1010 1.356 . S
C1003 C1002 1.363 . S
C1003 C1009 1.363 . S
C1004 C1005 1.363 . S
C1004 C1009 1.379 . S
C1004 N1011 1.356 . S
C1005 C1004 1.363 . S
C1005 C1008 1.363 . S
N1006 C1008 1.356 . S
N1006 H1018 0.984 . S
N1006 H1019 0.985 . S
N1007 C1009 1.356 . S
N1007 H1012 0.984 . S
N1007 H1013 0.985 . S
C1008 C1002 1.379 . S
C1008 C1005 1.363 . S
C1008 N1006 1.356 . S
C1009 C1003 1.363 . S
C1009 C1004 1.379 . S
C1009 N1007 1.356 . S
N1010 C1002 1.356 . S
N1010 H1016 0.984 . S
N1010 H1017 0.984 . S
N1011 C1004 1.356 . S
N1011 H1014 0.984 . S
N1011 H1015 0.985 . S
H1012 N1007 0.984 . S
H1013 N1007 0.985 . S
H1014 N1011 0.984 . S
H1015 N1011 0.985 . S
H1016 N1010 0.984 . S
H1017 N1010 0.984 . S
H1018 N1006 0.984 . S
H1019 N1006 0.985 . S
C1020 C1021 1.363 . S
C1020 C1026 1.379 . S
C1020 N1028 1.356 . S
C1021 C1020 1.363 . S
C1021 C1027 1.363 . S
C1022 C1023 1.363 . S
C1022 C1027 1.379 . S
C1022 N1029 1.356 1_565 S
C1023 C1022 1.363 . S
C1023 C1026 1.363 . S
N1024 C1026 1.356 . S
N1024 H1036 0.984 . S
N1024 H1037 0.985 . S
N1025 C1027 1.356 . S
N1025 H1030 0.984 . S
N1025 H1031 0.985 1_565 S
C1026 C1020 1.379 . S
C1026 C1023 1.363 . S
C1026 N1024 1.356 . S
C1027 C1021 1.363 . S
C1027 C1022 1.379 . S
C1027 N1025 1.356 . S
N1028 C1020 1.356 . S
N1028 H1034 0.984 . S
N1028 H1035 0.984 . S
N1029 C1022 1.356 1_545 S
N1029 H1032 0.984 . S
N1029 H1033 0.985 . S
H1030 N1025 0.984 . S
H1031 N1025 0.985 1_545 S
H1032 N1029 0.984 . S
H1033 N1029 0.985 . S
H1034 N1028 0.984 . S
H1035 N1028 0.984 . S
H1036 N1024 0.984 . S
H1037 N1024 0.985 . S
C1038 C1039 1.357 1_545 S
C1038 C1044 1.379 . S
C1038 N1046 1.356 . S
C1039 C1038 1.357 1_565 S
C1039 C1045 1.363 . S
C1040 C1041 1.363 . S
C1040 C1045 1.370 1_545 S
C1040 N1047 1.356 1_655 S
C1041 C1040 1.363 . S
C1041 C1044 1.363 . S
N1042 C1044 1.356 . S
N1042 H1054 0.984 . S
N1042 H1055 0.985 . S
N1043 C1045 1.368 . S
N1043 H1048 0.984 . S
N1043 H1049 0.985 . S
C1044 C1038 1.379 . S
C1044 C1041 1.363 . S
C1044 N1042 1.356 . S
C1045 C1039 1.363 . S
C1045 C1040 1.370 1_565 S
C1045 N1043 1.368 . S
N1046 C1038 1.356 . S
N1046 H1052 0.984 . S
N1046 H1053 0.984 1_545 S
N1047 C1040 1.356 1_455 S
N1047 H1050 0.984 . S
N1047 H1051 0.985 . S
H1048 N1043 0.984 . S
H1049 N1043 0.985 . S
H1050 N1047 0.984 . S
H1051 N1047 0.985 . S
H1052 N1046 0.984 . S
H1053 N1046 0.984 1_565 S
H1054 N1042 0.984 . S
H1055 N1042 0.985 . S
C409 C13 1.396 . S
C411 C382 1.377 . S
C427 C319 1.889 . S
C429 C47 1.975 . S
C445 C76 2.605 1_554 S
C447 C280 2.596 . S
C463 C115 2.118 . S
C465 C353 2.093 . S
C481 C149 1.588 . S
C483 C348 1.544 . S
C499 C183 1.744 . S
C501 C387 1.719 . S
C517 C314 1.831 1_565 S
C519 C217 1.864 . S
C535 C246 2.536 . S
C537 C285 2.487 . S
C553 C110 2.596 . S
C555 C144 2.653 . S
C571 C8 2.576 . S
C573 C178 2.515 . S
C589 C42 2.594 . S
C591 C212 2.636 . S
C607 C251 0.773 . S
C609 C81 0.787 . S
C625 C29 2.074 . S
C627 C289 2.060 . S
C643 C63 1.022 . S
C645 C344 0.965 . S
C661 C391 1.499 . S
C663 C68 1.564 . S
C679 C131 0.834 . S
C681 C310 0.824 . S
C697 C165 1.644 . S
C699 C323 1.598 . S
C715 C276 1.271 1_556 S
C717 C199 1.306 . S
C733 C357 1.403 . S
C735 C233 1.395 . S
C751 C378 0.995 . S
C753 C238 1.058 . S
C769 C17 1.582 . S
C771 C102 1.524 . S
C787 C0 1.993 . S
C789 C51 1.971 1_545 S
C805 C34 0.783 . S
C807 C72 0.783 . S
C823 C119 1.672 . S
C825 C97 1.735 . S
C841 C170 1.777 . S
C843 C153 1.821 . S
C859 C187 1.804 . S
C861 C204 1.823 . S
C877 C221 1.434 . S
C879 C267 1.408 . S
C895 C136 1.411 . S
C897 C242 1.340 . S
C913 C301 0.955 . S
C915 C106 0.969 . S
C931 C174 0.641 . S
C933 C335 0.622 . S
C949 C272 1.230 . S
C951 C208 1.292 . S
C967 C369 0.837 . S
C969 C255 0.828 . S
C985 C140 1.287 . S
C987 C374 1.328 . S
C1003 C403 1.161 . S
C1005 C38 1.104 . S
C1021 C85 1.180 . S
C1023 C306 1.168 . S
C1039 C340 0.922 . S
C1041 C4 0.915 . S
