# Generated by pormake.
# Topology sml, (6)-cn, num edge types: 1
# Building blocks:
#     Node 0, Type 0, BuildingBlock: BETGAK_clean_sbu_0, # of connection points: 6
#     Node 1, Type 0, BuildingBlock: BETGAK_clean_sbu_0, # of connection points: 6
#     Node 2, Type 0, BuildingBlock: BETGAK_clean_sbu_0, # of connection points: 6
#     Node 3, Type 0, BuildingBlock: BETGAK_clean_sbu_0, # of connection points: 6
#     Node 4, Type 0, BuildingBlock: BETGAK_clean_sbu_0, # of connection points: 6
#     Node 5, Type 0, BuildingBlock: BETGAK_clean_sbu_0, # of connection points: 6
#     Edge 6, Type (0, 0), BuildingBlock: EZIPEK_clean_linker_0, # of connection points: 2
#     Edge 7, Type (0, 0), BuildingBlock: EZIPEK_clean_linker_0, # of connection points: 2
#     Edge 8, Type (0, 0), BuildingBlock: EZIPEK_clean_linker_0, # of connection points: 2
#     Edge 9, Type (0, 0), BuildingBlock: EZIPEK_clean_linker_0, # of connection points: 2
#     Edge 10, Type (0, 0), BuildingBlock: EZIPEK_clean_linker_0, # of connection points: 2
#     Edge 11, Type (0, 0), BuildingBlock: EZIPEK_clean_linker_0, # of connection points: 2
#     Edge 12, Type (0, 0), BuildingBlock: EZIPEK_clean_linker_0, # of connection points: 2
#     Edge 13, Type (0, 0), BuildingBlock: EZIPEK_clean_linker_0, # of connection points: 2
#     Edge 14, Type (0, 0), BuildingBlock: EZIPEK_clean_linker_0, # of connection points: 2
#     Edge 15, Type (0, 0), BuildingBlock: EZIPEK_clean_linker_0, # of connection points: 2
#     Edge 16, Type (0, 0), BuildingBlock: EZIPEK_clean_linker_0, # of connection points: 2
#     Edge 17, Type (0, 0), BuildingBlock: EZIPEK_clean_linker_0, # of connection points: 2
#     Edge 18, Type (0, 0), BuildingBlock: EZIPEK_clean_linker_0, # of connection points: 2
#     Edge 19, Type (0, 0), BuildingBlock: EZIPEK_clean_linker_0, # of connection points: 2
#     Edge 20, Type (0, 0), BuildingBlock: EZIPEK_clean_linker_0, # of connection points: 2
#     Edge 21, Type (0, 0), BuildingBlock: EZIPEK_clean_linker_0, # of connection points: 2
#     Edge 22, Type (0, 0), BuildingBlock: EZIPEK_clean_linker_0, # of connection points: 2
#     Edge 23, Type (0, 0), BuildingBlock: EZIPEK_clean_linker_0, # of connection points: 2
# Relax obj value: 0.268
# Max RMSD: 0.272
# Mean RMSD: 0.272
data_MOF--net-sml--node1-BETGAK_clean_sbu_0--edge1-EZIPEK_clean_linker_0
_symmetry_space_group_name_H-M    P1
_symmetry_Int_Tables_number       1
_symmetry_cell_setting            triclinic
loop_
_symmetry_equiv_pos_as_xyz
'x, y, z'
_cell_length_a     21.933087
_cell_length_b     21.741012
_cell_length_c     20.147756
_cell_angle_alpha  90.536842
_cell_angle_beta   90.035873
_cell_angle_gamma 119.94042
loop_
_atom_site_label
_atom_site_type_symbol
_atom_site_fract_x
_atom_site_fract_y
_atom_site_fract_z
_atom_type_partial_charge
La0 La 0.1402 0.41096 0.15539 0.0
La1 La 0.2222 0.38587 0.27085 0.0
C2 C 0.1071 0.45448 0.05357 0.0
C3 C 0.10604 0.43955 0.98211 0.0
C4 C 0.0763 0.46595 0.93699 0.0
C5 C 0.07798 0.45401 0.86877 0.0
C6 C 0.11104 0.41699 0.84465 0.0
C7 C 0.13977 0.38982 0.89034 0.0
C8 C 0.13619 0.4 0.95843 0.0
C9 C 0.06451 0.32544 0.25296 0.0
C10 C 0.16761 0.28274 0.14646 0.0
C11 C 0.24282 0.35028 0.38299 0.0
C12 C 0.2159 0.35636 0.44829 0.0
C13 C 0.24934 0.35423 0.50682 0.0
C14 C 0.22577 0.36394 0.56855 0.0
C15 C 0.16794 0.37506 0.57254 0.0
C16 C 0.13377 0.37595 0.51395 0.0
C17 C 0.15851 0.36812 0.45229 0.0
C18 C 0.30621 0.45357 0.16878 0.0
C19 C 0.19782 0.51879 0.27842 0.0
O20 O 0.06156 0.40163 0.08961 0.0
O21 O 0.16971 0.48757 0.08129 0.0
O22 O 0.04308 0.31995 0.19189 0.0
O23 O 0.12352 0.38083 0.25735 0.0
O24 O 0.15901 0.33013 0.11316 0.0
O25 O 0.17989 0.28859 0.21134 0.0
O26 O 0.28666 0.41092 0.3554 0.0
O27 O 0.19545 0.30563 0.34071 0.0
O28 O 0.32702 0.43624 0.22223 0.0
O29 O 0.2415 0.42916 0.17571 0.0
O30 O 0.21891 0.4783 0.30762 0.0
O31 O 0.16725 0.50373 0.21902 0.0
H32 H 0.05225 0.49614 0.95443 0.0
H33 H 0.05496 0.47506 0.83465 0.0
H34 H 0.16502 0.36066 0.87323 0.0
H35 H 0.15767 0.37768 0.99263 0.0
H36 H 0.2941 0.34597 0.50474 0.0
H37 H 0.25257 0.36277 0.61329 0.0
H38 H 0.08905 0.38429 0.51596 0.0
H39 H 0.13331 0.37201 0.40762 0.0
La40 La 0.82566 0.27557 0.59252 0.0
La41 La 0.73915 0.16438 0.48897 0.0
C42 C 0.87032 0.33986 0.70141 0.0
C43 C 0.85361 0.31687 0.77117 0.0
C44 C 0.90801 0.32996 0.81566 0.0
C45 C 0.8932 0.30764 0.8816 0.0
C46 C 0.82328 0.27084 0.90363 0.0
C47 C 0.76863 0.25724 0.85918 0.0
C48 C 0.78366 0.2802 0.79358 0.0
C49 C 0.89532 0.27078 0.48708 0.0
C50 C 0.75891 0.11088 0.62674 0.0
C51 C 0.71153 0.10278 0.37707 0.0
C52 C 0.7267 0.12522 0.30685 0.0
C53 C 0.67344 0.12216 0.26565 0.0
C54 C 0.68795 0.14541 0.19998 0.0
C55 C 0.75589 0.17165 0.17438 0.0
C56 C 0.80882 0.17347 0.2148 0.0
C57 C 0.79429 0.14996 0.28023 0.0
C58 C 0.6614 0.17273 0.58126 0.0
C59 C 0.77692 0.3309 0.47759 0.0
O60 O 0.90328 0.31351 0.66753 0.0
O61 O 0.81992 0.34035 0.6668 0.0
O62 O 0.91154 0.3281 0.52064 0.0
O63 O 0.84655 0.2186 0.51683 0.0
O64 O 0.79192 0.17785 0.64589 0.0
O65 O 0.73762 0.09123 0.56443 0.0
O66 O 0.6686 0.11812 0.40872 0.0
O67 O 0.76528 0.11404 0.41421 0.0
O68 O 0.64619 0.11406 0.54985 0.0
O69 O 0.71803 0.22348 0.55914 0.0
O70 O 0.74608 0.26466 0.45332 0.0
O71 O 0.80799 0.34731 0.53573 0.0
H72 H 0.9618 0.35679 0.79878 0.0
H73 H 0.93601 0.31821 0.91518 0.0
H74 H 0.71436 0.22885 0.87532 0.0
H75 H 0.74048 0.26852 0.76031 0.0
H76 H 0.62059 0.10188 0.2843 0.0
H77 H 0.64631 0.14305 0.16917 0.0
H78 H 0.86147 0.1933 0.19568 0.0
H79 H 0.83641 0.15219 0.31011 0.0
La80 La 0.56005 0.73689 0.84512 0.0
La81 La 0.57054 0.83765 0.95983 0.0
C82 C 0.52234 0.66104 0.74124 0.0
C83 C 0.53697 0.68254 0.67112 0.0
C84 C 0.48826 0.64267 0.62102 0.0
C85 C 0.49853 0.66805 0.55585 0.0
C86 C 0.55723 0.73404 0.54023 0.0
C87 C 0.60613 0.77342 0.59031 0.0
C88 C 0.59615 0.74766 0.65498 0.0
C89 C 0.66503 0.77408 0.93189 0.0
C90 C 0.6595 0.89972 0.83066 0.0
C91 C 0.59165 0.90259 0.06929 0.0
C92 C 0.59318 0.88371 0.13897 0.0
C93 C 0.59371 0.92746 0.19084 0.0
C94 C 0.59226 0.90738 0.25703 0.0
C95 C 0.58857 0.84245 0.27194 0.0
C96 C 0.58977 0.79983 0.21972 0.0
C97 C 0.59299 0.82087 0.15394 0.0
C98 C 0.49024 0.82765 0.85777 0.0
C99 C 0.47595 0.66796 0.97708 0.0
O100 O 0.57627 0.67172 0.77787 0.0
O101 O 0.48341 0.6823 0.77157 0.0
O102 O 0.66848 0.7632 0.86872 0.0
O103 O 0.60423 0.76292 0.94268 0.0
O104 O 0.6145 0.84054 0.79948 0.0
O105 O 0.66043 0.90484 0.89634 0.0
O106 O 0.53002 0.86877 1.03968 0.0
O107 O 0.64195 0.90561 1.03183 0.0
O108 O 0.52144 0.88342 0.89581 0.0
O109 O 0.50028 0.78087 0.88227 0.0
O110 O 0.5011 0.73291 1.00282 0.0
O111 O 0.49277 0.65617 0.91673 0.0
H112 H 0.44154 0.5929 0.6326 0.0
H113 H 0.45994 0.63711 0.51794 0.0
H114 H 0.65147 0.82459 0.5795 0.0
H115 H 0.63372 0.77936 0.69298 0.0
H116 H 0.59469 0.97669 0.18017 0.0
H117 H 0.59229 0.94154 0.29655 0.0
H118 H 0.58833 0.75033 0.23004 0.0
H119 H 0.5951 0.78825 0.11438 0.0
La120 La 0.71718 0.5768 0.25831 0.0
La121 La 0.82325 0.5824 0.15318 0.0
C122 C 0.65642 0.56316 0.36776 0.0
C123 C 0.6786 0.56485 0.43729 0.0
C124 C 0.64355 0.57705 0.48954 0.0
C125 C 0.66529 0.57917 0.55544 0.0
C126 C 0.7216 0.56773 0.56998 0.0
C127 C 0.75597 0.55472 0.51757 0.0
C128 C 0.73511 0.55401 0.45189 0.0
C129 C 0.72881 0.65124 0.15117 0.0
C130 C 0.88341 0.67566 0.282 0.0
C131 C 0.88815 0.60048 0.04486 0.0
C132 C 0.86977 0.59657 0.97323 0.0
C133 C 0.85076 0.53459 0.93576 0.0
C134 C 0.82766 0.52841 0.86992 0.0
C135 C 0.82298 0.58417 0.84034 0.0
C136 C 0.84432 0.64709 0.87678 0.0
C137 C 0.86846 0.65367 0.94215 0.0
C138 C 0.8074 0.50424 0.25709 0.0
C139 C 0.65491 0.47594 0.13673 0.0
O140 O 0.68915 0.62338 0.33579 0.0
O141 O 0.64995 0.50963 0.33171 0.0
O142 O 0.67398 0.62285 0.18922 0.0
O143 O 0.77774 0.6462 0.17901 0.0
O144 O 0.81981 0.63776 0.30745 0.0
O145 O 0.89596 0.66648 0.2195 0.0
O146 O 0.85854 0.54063 0.07741 0.0
O147 O 0.8889 0.65201 0.07983 0.0
O148 O 0.8637 0.53214 0.22068 0.0
O149 O 0.76193 0.51441 0.22948 0.0
O150 O 0.71934 0.50624 0.11224 0.0
O151 O 0.64119 0.4889 0.19748 0.0
H152 H 0.59968 0.58533 0.47934 0.0
H153 H 0.6383 0.58974 0.59508 0.0
H154 H 0.79972 0.54629 0.5276 0.0
H155 H 0.76318 0.54516 0.41237 0.0
H156 H 0.85301 0.4906 0.95773 0.0
H157 H 0.81253 0.47983 0.8423 0.0
H158 H 0.84179 0.691 0.85468 0.0
H159 H 0.88369 0.70265 0.96903 0.0
La160 La 0.26647 0.82866 0.50974 0.0
La161 La 0.16044 0.72862 0.60991 0.0
C162 C 0.32835 0.87768 0.40138 0.0
C163 C 0.30784 0.86347 0.33027 0.0
C164 C 0.3221 0.91991 0.28782 0.0
C165 C 0.30445 0.90736 0.22016 0.0
C166 C 0.27065 0.8378 0.19425 0.0
C167 C 0.25593 0.78128 0.23669 0.0
C168 C 0.27468 0.79398 0.30388 0.0
C169 C 0.25761 0.88979 0.62103 0.0
C170 C 0.10033 0.75793 0.48088 0.0
C171 C 0.09993 0.69061 0.72087 0.0
C172 C 0.12172 0.71069 0.79137 0.0
C173 C 0.13534 0.66679 0.83228 0.0
C174 C 0.15996 0.68779 0.89745 0.0
C175 C 0.17183 0.75336 0.92278 0.0
C176 C 0.15679 0.79653 0.88254 0.0
C177 C 0.13086 0.77492 0.81806 0.0
C178 C 0.17208 0.66228 0.50558 0.0
C179 C 0.32836 0.78299 0.62358 0.0
O180 O 0.30012 0.90793 0.43677 0.0
O181 O 0.33003 0.82644 0.4336 0.0
O182 O 0.31369 0.91431 0.58474 0.0
O183 O 0.20747 0.83877 0.59 0.0
O184 O 0.16617 0.79805 0.46189 0.0
O185 O 0.08362 0.7274 0.53983 0.0
O186 O 0.12625 0.65632 0.68912 0.0
O187 O 0.09935 0.73954 0.68384 0.0
O188 O 0.11589 0.63842 0.54194 0.0
O189 O 0.22038 0.7185 0.53261 0.0
O190 O 0.26287 0.74504 0.64572 0.0
O191 O 0.34294 0.8178 0.56751 0.0
H192 H 0.34664 0.97366 0.30727 0.0
H193 H 0.31591 0.95161 0.18823 0.0
H194 H 0.22981 0.72722 0.21776 0.0
H195 H 0.26264 0.74924 0.33519 0.0
H196 H 0.12735 0.61644 0.8137 0.0
H197 H 0.17037 0.65322 0.92793 0.0
H198 H 0.16522 0.84713 0.90115 0.0
H199 H 0.12013 0.80984 0.7885 0.0
La200 La 0.41953 0.15879 0.92914 0.0
La201 La 0.38812 0.23707 0.82067 0.0
C202 C 0.46923 0.12798 1.02846 0.0
C203 C 0.46371 0.13831 0.10056 0.0
C204 C 0.45821 0.08737 0.14617 0.0
C205 C 0.45006 0.09598 0.21413 0.0
C206 C 0.4473 0.1557 0.23767 0.0
C207 C 0.45444 0.20734 0.19202 0.0
C208 C 0.46226 0.19864 0.12429 0.0
C209 C 0.31433 0.07656 0.84542 0.0
C210 C 0.30878 0.20704 0.95595 0.0
C211 C 0.36254 0.26741 0.70776 0.0
C212 C 0.37508 0.24942 0.6393 0.0
C213 C 0.43688 0.29545 0.60461 0.0
C214 C 0.44915 0.27744 0.54087 0.0
C215 C 0.40006 0.21294 0.51051 0.0
C216 C 0.33855 0.16687 0.54507 0.0
C217 C 0.32595 0.18522 0.60834 0.0
C218 C 0.47076 0.31974 0.91784 0.0
C219 C 0.50539 0.19328 0.79693 0.0
O220 O 0.41129 0.08214 0.9979 0.0
O221 O 0.50401 0.18594 0.99423 0.0
O222 O 0.31553 0.06537 0.90842 0.0
O223 O 0.3709 0.13215 0.83305 0.0
O224 O 0.3572 0.19464 0.98078 0.0
O225 O 0.30331 0.21434 0.8911 0.0
O226 O 0.41852 0.31022 0.7429 0.0
O227 O 0.31542 0.21487 0.74348 0.0
O228 O 0.42788 0.33243 0.88404 0.0
O229 O 0.46683 0.26435 0.89362 0.0
O230 O 0.47252 0.22659 0.77633 0.0
O231 O 0.49216 0.15998 0.8545 0.0
H232 H 0.45943 0.04057 0.12917 0.0
H233 H 0.44584 0.05602 0.24832 0.0
H234 H 0.45261 0.2539 0.20875 0.0
H235 H 0.46641 0.23883 0.09034 0.0
H236 H 0.47584 0.34546 0.62668 0.0
H237 H 0.49681 0.31399 0.51506 0.0
H238 H 0.29974 0.11704 0.52256 0.0
H239 H 0.2776 0.14909 0.63308 0.0
C240 C 0.19169 0.19509 0.99374 0.0
C241 C 0.26405 0.21781 1.00538 0.0
C242 C 0.24784 0.23729 0.12181 0.0
C243 C 0.18425 0.23518 0.10657 0.0
N244 N 0.09147 0.20687 1.02737 0.0
N245 N 0.36393 0.2836 0.08003 0.0
C246 C 0.1546 0.21209 1.04214 0.0
C247 C 0.29308 0.24524 0.06941 0.0
N248 N 0.15761 0.15524 0.93895 0.0
N249 N 0.26664 0.2341 0.18564 0.0
H250 H 0.39983 0.2991 1.04162 0.0
H251 H 0.38599 0.30844 0.12536 0.0
H252 H 0.23105 0.21903 0.2247 0.0
H253 H 0.31368 0.2356 0.19733 0.0
H254 H 0.10368 0.13328 0.93128 0.0
H255 H 0.18128 0.13752 0.90489 0.0
H256 H 0.07118 0.19882 0.97927 0.0
H257 H 0.06099 0.21317 0.06367 0.0
C258 C 0.97126 0.33228 0.31753 0.0
C259 C 0.0149 0.30225 0.30917 0.0
C260 C 0.97486 0.24261 0.41655 0.0
C261 C 0.928 0.26948 0.42216 0.0
N262 N 0.85825 0.3034 0.35741 0.0
N263 N 0.04351 0.21318 0.34156 0.0
C264 C 0.92028 0.30564 0.36764 0.0
C265 C 0.01212 0.25226 0.35582 0.0
N266 N 0.97639 0.38463 0.27695 0.0
N267 N 0.98542 0.21003 0.46926 0.0
H268 H 0.06845 0.21745 0.29636 0.0
H269 H 0.03883 0.17228 0.37156 0.0
H270 H 0.95766 0.20086 0.51353 0.0
H271 H 0.02473 0.19642 0.47026 0.0
H272 H 0.94829 0.41097 0.28569 0.0
H273 H 0.01251 0.4059 0.23845 0.0
H274 H 0.84845 0.32804 0.31795 0.0
H275 H 0.81386 0.2599 0.37566 0.0
C276 C 0.70943 0.06719 0.74052 0.0
C277 C 0.7395 0.05783 0.68106 0.0
C278 C 0.73626 0.95317 0.73044 0.0
C279 C 0.70463 0.9625 0.78852 0.0
N280 N 0.69096 0.0461 0.85796 0.0
N281 N 0.79614 0.00125 0.62569 0.0
C282 C 0.70154 0.02544 0.79679 0.0
C283 C 0.75722 0.00334 0.67772 0.0
N284 N 0.684 0.11308 0.74267 0.0
N285 N 0.74725 0.89671 0.72677 0.0
H286 H 0.81337 0.03797 0.58737 0.0
H287 H 0.81577 0.96657 0.62234 0.0
H288 H 0.73929 0.86412 0.76739 0.0
H289 H 0.7626 0.88114 0.68391 0.0
H290 H 0.6528 0.11425 0.78111 0.0
H291 H 0.68754 0.14501 0.70346 0.0
H292 H 0.69404 0.09488 0.86678 0.0
H293 H 0.68899 0.02025 0.90165 0.0
C294 C 0.6843 0.67919 0.97959 0.0
C295 C 0.69752 0.75 0.98211 0.0
C296 C 0.74194 0.76152 0.09629 0.0
C297 C 0.73408 0.69286 0.09071 0.0
N298 N 0.72684 0.60321 1.01586 0.0
N299 N 0.75284 0.86377 1.03769 0.0
C300 C 0.71404 0.65683 1.02892 0.0
C301 C 0.73111 0.79306 1.03889 0.0
N302 N 0.64053 0.63147 0.93288 0.0
N303 N 0.75784 0.79561 0.1564 0.0
H304 H 0.7475 0.88803 0.99534 0.0
H305 H 0.78183 0.89896 0.0759 0.0
H306 H 0.76897 0.77497 0.19831 0.0
H307 H 0.75631 0.84212 0.16521 0.0
H308 H 0.62483 0.57763 0.93451 0.0
H309 H 0.61342 0.64289 0.89726 0.0
H310 H 0.71465 0.57535 0.97087 0.0
H311 H 0.76344 0.59921 0.04486 0.0
C312 C 0.0556 0.72936 0.3632 0.0
C313 C 0.04481 0.74354 0.43003 0.0
C314 C 0.93274 0.73431 0.39512 0.0
C315 C 0.94419 0.71854 0.32892 0.0
N316 N 0.03518 0.74384 0.24867 0.0
N317 N 0.98223 0.77935 0.50497 0.0
C318 C 0.01155 0.72984 0.31237 0.0
C319 C -0.0143 0.75147 0.44497 0.0
N320 N 0.10615 0.71257 0.34769 0.0
N321 N 0.87253 0.73542 0.40969 0.0
H322 H 0.0209 0.79455 0.54154 0.0
H323 H 0.94456 0.79346 0.51649 0.0
H324 H 0.83987 0.73687 0.37281 0.0
H325 H 0.85552 0.73575 0.45784 0.0
H326 H 0.11002 0.6942 0.30077 0.0
H327 H 0.139 0.70917 0.3827 0.0
H328 H 0.08497 0.75348 0.23518 0.0
H329 H 0.01022 0.75734 0.2123 0.0
C330 C 0.30289 0.96359 0.7961 0.0
C331 C 0.28393 0.01737 0.79538 0.0
C332 C 0.23267 0.97723 0.68333 0.0
C333 C 0.253 0.92476 0.68415 0.0
N334 N 0.27685 0.84978 0.75251 0.0
N335 N 0.21252 0.06096 0.7475 0.0
C336 C 0.27935 0.91277 0.74386 0.0
C337 C 0.24288 0.01957 0.74172 0.0
N338 N 0.34525 0.96158 0.84491 0.0
N339 N 0.20479 0.98721 0.62658 0.0
H340 H 0.21749 0.09018 0.7906 0.0
H341 H 0.17751 0.06123 0.71278 0.0
H342 H 0.19495 0.95549 0.58428 0.0
H343 H 0.19331 0.02781 0.62055 0.0
H344 H 0.36676 0.92836 0.8426 0.0
H345 H 0.36618 -0.00217 0.88394 0.0
H346 H 0.29253 0.83523 0.79558 0.0
H347 H 0.24379 0.80748 0.72241 0.0
C348 C 0.15178 0.46557 0.7291 0.0
C349 C 0.11642 0.40629 0.7718 0.0
C350 C 0.10607 0.32579 0.68058 0.0
C351 C 0.14323 0.38505 0.63858 0.0
N352 N 0.18684 0.50899 0.61675 0.0
N353 N 0.04053 0.27986 0.78238 0.0
C354 C 0.1603 0.45413 0.66068 0.0
C355 C 0.08771 0.33625 0.74572 0.0
N356 N 0.18092 0.53287 0.7548 0.0
N357 N 0.08914 0.25945 0.65844 0.0
H358 H 0.02408 0.28571 0.82941 0.0
H359 H 0.0122 0.22816 0.76383 0.0
H360 H 0.09697 0.2488 0.60956 0.0
H361 H 0.07053 0.21558 0.68923 0.0
H362 H 0.20386 0.57864 0.72673 0.0
H363 H 0.18551 0.54401 0.80551 0.0
H364 H 0.19207 0.55838 0.62688 0.0
H365 H 0.19894 0.50391 0.56772 0.0
C366 C 0.77905 0.15354 0.05582 0.0
C367 C 0.77193 0.19684 0.10482 0.0
C368 C 0.79442 0.28697 1.02108 0.0
C369 C 0.80686 0.24605 0.97333 0.0
N370 N 0.82199 0.14607 0.94689 0.0
N371 N 0.78219 0.30864 0.13752 0.0
C372 C 0.80251 0.181 0.99125 0.0
C373 C 0.7821 0.2647 0.08839 0.0
N374 N 0.76091 0.08519 0.07041 0.0
N375 N 0.79368 0.3467 1.00176 0.0
H376 H 0.77273 0.29388 0.18722 0.0
H377 H 0.79661 0.36152 0.13024 0.0
H378 H 0.80412 0.36537 0.95326 0.0
H379 H 0.77855 0.37549 1.03236 0.0
H380 H 0.75761 0.04846 1.03499 0.0
H381 H 0.74324 0.06308 0.11709 0.0
H382 H 0.82785 0.10294 0.95938 0.0
H383 H 0.83689 0.16295 0.89828 0.0
C384 C 0.62291 0.77123 0.43179 0.0
C385 C 0.56639 0.76347 0.47202 0.0
C386 C 0.5225 0.80441 0.38024 0.0
C387 C 0.58224 0.81791 0.34193 0.0
N388 N 0.69725 0.82888 0.33718 0.0
N389 N 0.47277 0.78935 0.49015 0.0
C390 C 0.6348 0.8055 0.36944 0.0
C391 C 0.51923 0.78504 0.44791 0.0
N392 N 0.66418 0.74426 0.45232 0.0
N393 N 0.4673 0.80684 0.35142 0.0
H394 H 0.46893 0.77613 0.5402 0.0
H395 H 0.44254 0.81209 0.47692 0.0
H396 H 0.46587 0.81776 0.30136 0.0
H397 H 0.41981 0.79096 0.37548 0.0
H398 H 0.70101 0.74118 0.42195 0.0
H399 H 0.65762 0.71945 0.49789 0.0
H400 H 0.74007 0.82741 0.35777 0.0
H401 H 0.70891 0.85633 0.29255 0.0
C402 C 0.72534 0.52866 0.75455 0.0
C403 C 0.79677 0.57764 0.77079 0.0
C404 C 0.81545 0.6253 0.65821 0.0
C405 C 0.74653 0.5715 0.63976 0.0
N406 N 0.64019 0.46339 0.66744 0.0
N407 N 0.91372 0.66159 0.73365 0.0
C408 C 0.70258 0.52062 0.68714 0.0
C409 C 0.843 0.62274 0.72126 0.0
N410 N 0.67863 0.49168 0.80368 0.0
N411 N 0.8537 0.68067 0.61663 0.0
H412 H 0.93631 0.65995 0.77871 0.0
H413 H 0.95053 0.68977 0.69708 0.0
H414 H 0.83457 0.68589 0.57091 0.0
H415 H 0.90118 0.72506 0.63054 0.0
H416 H 0.6246 0.46071 0.79566 0.0
H417 H 0.69288 0.49679 0.85368 0.0
H418 H 0.6091 0.42113 0.69843 0.0
H419 H 0.62247 0.45479 0.61836 0.0
C420 C 0.1562 0.78635 1.03915 0.0
C421 C 0.19884 0.77681 0.99187 0.0
C422 C 0.29035 0.80877 0.07726 0.0
C423 C 0.24943 0.82303 0.12289 0.0
N424 N 0.15257 0.84395 0.14106 0.0
N425 N 0.31275 0.79368 0.96194 0.0
C426 C 0.18529 0.81778 0.10183 0.0
C427 C 0.2678 0.79212 1.00978 0.0
N428 N 0.08673 0.76219 1.02559 0.0
N429 N 0.35052 0.81076 0.09846 0.0
H430 H 0.29871 0.7833 0.91192 0.0
H431 H 0.3658 0.8114 0.97071 0.0
H432 H 0.37084 0.8268 0.14634 0.0
H433 H 0.37796 0.79257 0.06985 0.0
H434 H 0.05156 0.76104 0.06099 0.0
H435 H 0.06248 0.73654 0.98119 0.0
H436 H 0.10981 0.84843 0.1249 0.0
H437 H 0.17163 0.86677 0.18768 0.0
C438 C 0.46658 0.18017 0.42755 0.0
C439 C 0.41135 0.19473 0.4414 0.0
C440 C 0.3716 0.16608 0.3257 0.0
C441 C 0.43306 0.16332 0.30921 0.0
N442 N 0.54233 0.17189 0.34398 0.0
N443 N 0.31858 0.2136 0.40001 0.0
C444 C 0.48137 0.17098 0.36017 0.0
C445 C 0.36574 0.19083 0.38948 0.0
N446 N 0.50402 0.17409 0.47881 0.0
N447 N 0.31722 0.14213 0.28126 0.0
H448 H 0.31365 0.23408 0.44543 0.0
H449 H 0.28939 0.21873 0.36181 0.0
H450 H 0.26833 0.13607 0.29336 0.0
H451 H 0.31842 0.12116 0.23479 0.0
H452 H 0.5408 0.15759 0.47278 0.0
H453 H 0.49428 0.18008 0.52844 0.0
H454 H 0.58155 0.18059 0.37805 0.0
H455 H 0.55661 0.16932 0.29517 0.0
C456 C 0.13213 0.56618 0.33973 0.0
C457 C 0.19768 0.57426 0.32177 0.0
C458 C 0.24822 0.63708 0.42737 0.0
C459 C 0.18038 0.62426 0.44676 0.0
N460 N 0.05475 0.54355 0.43118 0.0
N461 N 0.32179 0.62987 0.34019 0.0
C462 C 0.12122 0.57935 0.40611 0.0
C463 C 0.25706 0.61413 0.36325 0.0
N464 N 0.08007 0.5469 0.29357 0.0
N465 N 0.30175 0.66301 0.4729 0.0
H466 H 0.32836 0.61536 0.2923 0.0
H467 H 0.3689 0.66122 0.36538 0.0
H468 H 0.29442 0.67026 0.52275 0.0
H469 H 0.35072 0.6681 0.46416 0.0
H470 H 0.03288 0.5455 0.30432 0.0
H471 H 0.08789 0.54254 0.24318 0.0
H472 H 0.01258 0.50465 0.40362 0.0
H473 H 0.04304 0.54231 0.48119 0.0
C474 C 0.55106 0.11981 0.6491 0.0
C475 C 0.61329 0.18051 0.62792 0.0
C476 C 0.60641 0.24956 0.72042 0.0
C477 C 0.5505 0.18642 0.74714 0.0
N478 N 0.47237 0.05966 0.73963 0.0
N479 N 0.67153 0.3077 0.6223 0.0
C480 C 0.5239 0.12086 0.71242 0.0
C481 C 0.63373 0.24711 0.65772 0.0
N482 N 0.51344 0.06471 0.60591 0.0
N483 N 0.63362 0.31203 0.75509 0.0
H484 H 0.67917 0.30597 0.5716 0.0
H485 H 0.68448 0.35814 0.63939 0.0
H486 H 0.61239 0.31684 0.79945 0.0
H487 H 0.68038 0.35746 0.74249 0.0
H488 H 0.46365 0.02242 0.61633 0.0
H489 H 0.52612 0.06676 0.55589 0.0
H490 H 0.45388 0.00953 0.71847 0.0
H491 H 0.45262 0.0582 0.78667 0.0
C492 C 0.41534 0.56711 0.13699 0.0
C493 C 0.35257 0.50463 0.1177 0.0
C494 C 0.37073 0.54722 1.00311 0.0
C495 C 0.43555 0.60721 1.02218 0.0
N496 N 0.53177 0.65211 0.10049 0.0
N497 N 0.29135 0.42391 1.02703 0.0
C498 C 0.46172 0.61071 0.08717 0.0
C499 C 0.33573 0.49117 0.04911 0.0
N500 N 0.43035 0.58699 0.20213 0.0
N501 N 0.34156 0.5437 0.94237 0.0
H502 H 0.27279 0.38079 0.05866 0.0
H503 H 0.28256 0.41056 0.97671 0.0
H504 H 0.36463 0.58422 0.90774 0.0
H505 H 0.29143 0.50295 0.92917 0.0
H506 H 0.47357 0.63531 0.21665 0.0
H507 H 0.39622 0.55988 0.24079 0.0
H508 H 0.55399 0.65092 0.14591 0.0
H509 H 0.56813 0.68008 0.06345 0.0
C510 C 0.71984 0.3684 0.39358 0.0
C511 C 0.77699 0.38739 0.43661 0.0
C512 C 0.85063 0.49196 0.36983 0.0
C513 C 0.79697 0.46505 0.31991 0.0
N514 N 0.68158 0.37214 0.28304 0.0
N515 N 0.88106 0.48643 0.48458 0.0
C516 C 0.73118 0.40277 0.33203 0.0
C517 C 0.83814 0.45506 0.43077 0.0
N518 N 0.65381 0.31962 0.41348 0.0
N519 N 0.91346 0.55234 0.35929 0.0
H520 H 0.86811 0.46644 0.5323 0.0
H521 H 0.92348 0.53796 0.48539 0.0
H522 H 0.92582 0.5817 0.31627 0.0
H523 H 0.95601 0.57275 0.39175 0.0
H524 H 0.60861 0.31131 0.38861 0.0
H525 H 0.64451 0.2948 0.4594 0.0
H526 H 0.63637 0.32265 0.28764 0.0
H527 H 0.68868 0.39181 0.23533 0.0
C528 C 0.44723 0.85698 0.68013 0.0
C529 C 0.38579 0.79049 0.66848 0.0
C530 C 0.39503 0.75047 0.7782 0.0
C531 C 0.45256 0.81879 0.79382 0.0
N532 N 0.53159 0.93991 0.75976 0.0
N533 N 0.33131 0.66661 0.6902 0.0
C534 C 0.47865 0.87293 0.74472 0.0
C535 C 0.36922 0.73487 0.71258 0.0
N536 N 0.47906 0.90196 0.6285 0.0
N537 N 0.3614 0.70156 0.82675 0.0
H538 H 0.31415 0.65482 0.64095 0.0
H539 H 0.3258 0.62379 0.71781 0.0
H540 H 0.37369 0.7125 0.87705 0.0
H541 H 0.31582 0.65313 0.81762 0.0
H542 H 0.52847 0.94726 0.63175 0.0
H543 H 0.46173 0.88901 0.57966 0.0
H544 H 0.54819 0.98289 0.72825 0.0
H545 H 0.55619 0.95498 0.80569 0.0
C546 C 0.60715 0.37631 0.05576 0.0
C547 C 0.59789 0.42765 0.09062 0.0
C548 C 0.51359 0.41916 1.00551 0.0
C549 C 0.52123 0.36544 0.97167 0.0
N550 N 0.60176 0.32205 0.95046 0.0
N551 N 0.53005 0.48607 0.10718 0.0
C552 C 0.5749 0.35146 0.99309 0.0
C553 C 0.54729 0.44536 0.06824 0.0
N554 N 0.64628 0.35003 0.08324 0.0
N555 N 0.48001 0.45034 0.97567 0.0
H556 H 0.55342 0.5072 0.15291 0.0
H557 H 0.48648 0.49173 0.09781 0.0
H558 H 0.46324 0.44123 0.92657 0.0
H559 H 0.47889 0.49412 0.99556 0.0
H560 H 0.64707 0.30566 0.06423 0.0
H561 H 0.67195 0.36795 0.12868 0.0
H562 H 0.64612 0.31794 0.96097 0.0
H563 H 0.58602 0.31074 0.90137 0.0
loop_
_geom_bond_atom_site_label_1
_geom_bond_atom_site_label_2
_geom_bond_distance
_geom_bond_site_symmetry_2
_ccdc_geom_bond_type
La0 C2 2.928 . S
La0 O20 2.521 . S
La0 O21 2.628 . S
La0 O22 2.554 . S
La0 O23 2.757 . S
La0 O24 2.470 . S
La0 O29 2.482 . S
La0 O31 2.503 . S
La1 C11 2.928 . S
La1 O23 2.482 . S
La1 O25 2.503 . S
La1 O26 2.521 . S
La1 O27 2.628 . S
La1 O28 2.554 . S
La1 O29 2.757 . S
La1 O30 2.470 . S
C2 La0 2.928 . S
C2 C3 1.503 1_554 S
C2 O20 1.261 . S
C2 O21 1.243 . S
C3 C2 1.503 1_556 S
C3 C4 1.394 . S
C3 C8 1.373 . S
C4 C3 1.394 . S
C4 C5 1.380 . S
C4 H32 0.930 . S
C5 C4 1.380 . S
C5 C6 1.376 . S
C5 H33 0.930 . S
C6 C5 1.376 . S
C6 C7 1.370 . S
C7 C6 1.370 . S
C7 C8 1.396 . S
C7 H34 0.929 . S
C8 C3 1.373 . S
C8 C7 1.396 . S
C8 H35 0.929 . S
C9 O22 1.240 . S
C9 O23 1.289 . S
C10 O24 1.258 . S
C10 O25 1.256 . S
C11 La1 2.928 . S
C11 C12 1.503 . S
C11 O26 1.261 . S
C11 O27 1.243 . S
C12 C11 1.503 . S
C12 C13 1.394 . S
C12 C17 1.373 . S
C13 C12 1.394 . S
C13 C14 1.380 . S
C13 H36 0.930 . S
C14 C13 1.380 . S
C14 C15 1.376 . S
C14 H37 0.930 . S
C15 C14 1.376 . S
C15 C16 1.370 . S
C16 C15 1.370 . S
C16 C17 1.396 . S
C16 H38 0.929 . S
C17 C12 1.373 . S
C17 C16 1.396 . S
C17 H39 0.929 . S
C18 O28 1.240 . S
C18 O29 1.289 . S
C19 O30 1.258 . S
C19 O31 1.256 . S
O20 La0 2.521 . S
O20 C2 1.261 . S
O21 La0 2.628 . S
O21 C2 1.243 . S
O22 La0 2.554 . S
O22 C9 1.240 . S
O23 La0 2.757 . S
O23 La1 2.482 . S
O23 C9 1.289 . S
O24 La0 2.470 . S
O24 C10 1.258 . S
O25 La1 2.503 . S
O25 C10 1.256 . S
O26 La1 2.521 . S
O26 C11 1.261 . S
O27 La1 2.628 . S
O27 C11 1.243 . S
O28 La1 2.554 . S
O28 C18 1.240 . S
O29 La0 2.482 . S
O29 La1 2.757 . S
O29 C18 1.289 . S
O30 La1 2.470 . S
O30 C19 1.258 . S
O31 La0 2.503 . S
O31 C19 1.256 . S
H32 C4 0.930 . S
H33 C5 0.930 . S
H34 C7 0.929 . S
H35 C8 0.929 . S
H36 C13 0.930 . S
H37 C14 0.930 . S
H38 C16 0.929 . S
H39 C17 0.929 . S
La40 C42 2.928 . S
La40 O60 2.521 . S
La40 O61 2.628 . S
La40 O62 2.554 . S
La40 O63 2.757 . S
La40 O64 2.470 . S
La40 O69 2.482 . S
La40 O71 2.503 . S
La41 C51 2.928 . S
La41 O63 2.482 . S
La41 O65 2.503 . S
La41 O66 2.521 . S
La41 O67 2.628 . S
La41 O68 2.554 . S
La41 O69 2.757 . S
La41 O70 2.470 . S
C42 La40 2.928 . S
C42 C43 1.503 . S
C42 O60 1.261 . S
C42 O61 1.243 . S
C43 C42 1.503 . S
C43 C44 1.394 . S
C43 C48 1.373 . S
C44 C43 1.394 . S
C44 C45 1.380 . S
C44 H72 0.930 . S
C45 C44 1.380 . S
C45 C46 1.376 . S
C45 H73 0.930 . S
C46 C45 1.376 . S
C46 C47 1.370 . S
C47 C46 1.370 . S
C47 C48 1.396 . S
C47 H74 0.929 . S
C48 C43 1.373 . S
C48 C47 1.396 . S
C48 H75 0.929 . S
C49 O62 1.240 . S
C49 O63 1.289 . S
C50 O64 1.258 . S
C50 O65 1.256 . S
C51 La41 2.928 . S
C51 C52 1.503 . S
C51 O66 1.261 . S
C51 O67 1.243 . S
C52 C51 1.503 . S
C52 C53 1.394 . S
C52 C57 1.373 . S
C53 C52 1.394 . S
C53 C54 1.380 . S
C53 H76 0.930 . S
C54 C53 1.380 . S
C54 C55 1.376 . S
C54 H77 0.930 . S
C55 C54 1.376 . S
C55 C56 1.370 . S
C56 C55 1.370 . S
C56 C57 1.396 . S
C56 H78 0.929 . S
C57 C52 1.373 . S
C57 C56 1.396 . S
C57 H79 0.929 . S
C58 O68 1.240 . S
C58 O69 1.289 . S
C59 O70 1.258 . S
C59 O71 1.256 . S
O60 La40 2.521 . S
O60 C42 1.261 . S
O61 La40 2.628 . S
O61 C42 1.243 . S
O62 La40 2.554 . S
O62 C49 1.240 . S
O63 La40 2.757 . S
O63 La41 2.482 . S
O63 C49 1.289 . S
O64 La40 2.470 . S
O64 C50 1.258 . S
O65 La41 2.503 . S
O65 C50 1.256 . S
O66 La41 2.521 . S
O66 C51 1.261 . S
O67 La41 2.628 . S
O67 C51 1.243 . S
O68 La41 2.554 . S
O68 C58 1.240 . S
O69 La40 2.482 . S
O69 La41 2.757 . S
O69 C58 1.289 . S
O70 La41 2.470 . S
O70 C59 1.258 . S
O71 La40 2.503 . S
O71 C59 1.256 . S
H72 C44 0.930 . S
H73 C45 0.930 . S
H74 C47 0.929 . S
H75 C48 0.929 . S
H76 C53 0.930 . S
H77 C54 0.930 . S
H78 C56 0.929 . S
H79 C57 0.929 . S
La80 C82 2.928 . S
La80 O100 2.521 . S
La80 O101 2.628 . S
La80 O102 2.554 . S
La80 O103 2.757 . S
La80 O104 2.470 . S
La80 O109 2.482 . S
La80 O111 2.503 . S
La81 C91 2.928 1_556 S
La81 O103 2.482 . S
La81 O105 2.503 . S
La81 O106 2.521 1_556 S
La81 O107 2.628 1_556 S
La81 O108 2.554 . S
La81 O109 2.757 . S
La81 O110 2.470 . S
C82 La80 2.928 . S
C82 C83 1.503 . S
C82 O100 1.261 . S
C82 O101 1.243 . S
C83 C82 1.503 . S
C83 C84 1.394 . S
C83 C88 1.373 . S
C84 C83 1.394 . S
C84 C85 1.380 . S
C84 H112 0.930 . S
C85 C84 1.380 . S
C85 C86 1.376 . S
C85 H113 0.930 . S
C86 C85 1.376 . S
C86 C87 1.370 . S
C87 C86 1.370 . S
C87 C88 1.396 . S
C87 H114 0.929 . S
C88 C83 1.373 . S
C88 C87 1.396 . S
C88 H115 0.929 . S
C89 O102 1.240 . S
C89 O103 1.289 . S
C90 O104 1.258 . S
C90 O105 1.256 . S
C91 La81 2.928 1_554 S
C91 C92 1.503 . S
C91 O106 1.261 . S
C91 O107 1.243 . S
C92 C91 1.503 . S
C92 C93 1.394 . S
C92 C97 1.373 . S
C93 C92 1.394 . S
C93 C94 1.380 . S
C93 H116 0.930 . S
C94 C93 1.380 . S
C94 C95 1.376 . S
C94 H117 0.930 . S
C95 C94 1.376 . S
C95 C96 1.370 . S
C96 C95 1.370 . S
C96 C97 1.396 . S
C96 H118 0.929 . S
C97 C92 1.373 . S
C97 C96 1.396 . S
C97 H119 0.929 . S
C98 O108 1.240 . S
C98 O109 1.289 . S
C99 O110 1.258 . S
C99 O111 1.256 . S
O100 La80 2.521 . S
O100 C82 1.261 . S
O101 La80 2.628 . S
O101 C82 1.243 . S
O102 La80 2.554 . S
O102 C89 1.240 . S
O103 La80 2.757 . S
O103 La81 2.482 . S
O103 C89 1.289 . S
O104 La80 2.470 . S
O104 C90 1.258 . S
O105 La81 2.503 . S
O105 C90 1.256 . S
O106 La81 2.521 1_554 S
O106 C91 1.261 . S
O107 La81 2.628 1_554 S
O107 C91 1.243 . S
O108 La81 2.554 . S
O108 C98 1.240 . S
O109 La80 2.482 . S
O109 La81 2.757 . S
O109 C98 1.289 . S
O110 La81 2.470 . S
O110 C99 1.258 . S
O111 La80 2.503 . S
O111 C99 1.256 . S
H112 C84 0.930 . S
H113 C85 0.930 . S
H114 C87 0.929 . S
H115 C88 0.929 . S
H116 C93 0.930 . S
H117 C94 0.930 . S
H118 C96 0.929 . S
H119 C97 0.929 . S
La120 C122 2.928 . S
La120 O140 2.521 . S
La120 O141 2.628 . S
La120 O142 2.554 . S
La120 O143 2.757 . S
La120 O144 2.470 . S
La120 O149 2.482 . S
La120 O151 2.503 . S
La121 C131 2.928 1_554 S
La121 O143 2.482 . S
La121 O145 2.503 . S
La121 O146 2.521 1_554 S
La121 O147 2.628 1_554 S
La121 O148 2.554 . S
La121 O149 2.757 . S
La121 O150 2.470 . S
C122 La120 2.928 . S
C122 C123 1.503 . S
C122 O140 1.261 . S
C122 O141 1.243 . S
C123 C122 1.503 . S
C123 C124 1.394 . S
C123 C128 1.373 . S
C124 C123 1.394 . S
C124 C125 1.380 . S
C124 H152 0.930 . S
C125 C124 1.380 . S
C125 C126 1.376 . S
C125 H153 0.930 . S
C126 C125 1.376 . S
C126 C127 1.370 . S
C127 C126 1.370 . S
C127 C128 1.396 . S
C127 H154 0.929 . S
C128 C123 1.373 . S
C128 C127 1.396 . S
C128 H155 0.929 . S
C129 O142 1.240 . S
C129 O143 1.289 . S
C130 O144 1.258 . S
C130 O145 1.256 . S
C131 La121 2.928 1_556 S
C131 C132 1.503 . S
C131 O146 1.261 . S
C131 O147 1.243 . S
C132 C131 1.503 . S
C132 C133 1.394 . S
C132 C137 1.373 . S
C133 C132 1.394 . S
C133 C134 1.380 . S
C133 H156 0.930 . S
C134 C133 1.380 . S
C134 C135 1.376 . S
C134 H157 0.930 . S
C135 C134 1.376 . S
C135 C136 1.370 . S
C136 C135 1.370 . S
C136 C137 1.396 . S
C136 H158 0.929 . S
C137 C132 1.373 . S
C137 C136 1.396 . S
C137 H159 0.929 . S
C138 O148 1.240 . S
C138 O149 1.289 . S
C139 O150 1.258 . S
C139 O151 1.256 . S
O140 La120 2.521 . S
O140 C122 1.261 . S
O141 La120 2.628 . S
O141 C122 1.243 . S
O142 La120 2.554 . S
O142 C129 1.240 . S
O143 La120 2.757 . S
O143 La121 2.482 . S
O143 C129 1.289 . S
O144 La120 2.470 . S
O144 C130 1.258 . S
O145 La121 2.503 . S
O145 C130 1.256 . S
O146 La121 2.521 1_556 S
O146 C131 1.261 . S
O147 La121 2.628 1_556 S
O147 C131 1.243 . S
O148 La121 2.554 . S
O148 C138 1.240 . S
O149 La120 2.482 . S
O149 La121 2.757 . S
O149 C138 1.289 . S
O150 La121 2.470 . S
O150 C139 1.258 . S
O151 La120 2.503 . S
O151 C139 1.256 . S
H152 C124 0.930 . S
H153 C125 0.930 . S
H154 C127 0.929 . S
H155 C128 0.929 . S
H156 C133 0.930 . S
H157 C134 0.930 . S
H158 C136 0.929 . S
H159 C137 0.929 . S
La160 C162 2.928 . S
La160 O180 2.521 . S
La160 O181 2.628 . S
La160 O182 2.554 . S
La160 O183 2.757 . S
La160 O184 2.470 . S
La160 O189 2.482 . S
La160 O191 2.503 . S
La161 C171 2.928 . S
La161 O183 2.482 . S
La161 O185 2.503 . S
La161 O186 2.521 . S
La161 O187 2.628 . S
La161 O188 2.554 . S
La161 O189 2.757 . S
La161 O190 2.470 . S
C162 La160 2.928 . S
C162 C163 1.503 . S
C162 O180 1.261 . S
C162 O181 1.243 . S
C163 C162 1.503 . S
C163 C164 1.394 . S
C163 C168 1.373 . S
C164 C163 1.394 . S
C164 C165 1.380 . S
C164 H192 0.930 . S
C165 C164 1.380 . S
C165 C166 1.376 . S
C165 H193 0.930 . S
C166 C165 1.376 . S
C166 C167 1.370 . S
C167 C166 1.370 . S
C167 C168 1.396 . S
C167 H194 0.929 . S
C168 C163 1.373 . S
C168 C167 1.396 . S
C168 H195 0.929 . S
C169 O182 1.240 . S
C169 O183 1.289 . S
C170 O184 1.258 . S
C170 O185 1.256 . S
C171 La161 2.928 . S
C171 C172 1.503 . S
C171 O186 1.261 . S
C171 O187 1.243 . S
C172 C171 1.503 . S
C172 C173 1.394 . S
C172 C177 1.373 . S
C173 C172 1.394 . S
C173 C174 1.380 . S
C173 H196 0.930 . S
C174 C173 1.380 . S
C174 C175 1.376 . S
C174 H197 0.930 . S
C175 C174 1.376 . S
C175 C176 1.370 . S
C176 C175 1.370 . S
C176 C177 1.396 . S
C176 H198 0.929 . S
C177 C172 1.373 . S
C177 C176 1.396 . S
C177 H199 0.929 . S
C178 O188 1.240 . S
C178 O189 1.289 . S
C179 O190 1.258 . S
C179 O191 1.256 . S
O180 La160 2.521 . S
O180 C162 1.261 . S
O181 La160 2.628 . S
O181 C162 1.243 . S
O182 La160 2.554 . S
O182 C169 1.240 . S
O183 La160 2.757 . S
O183 La161 2.482 . S
O183 C169 1.289 . S
O184 La160 2.470 . S
O184 C170 1.258 . S
O185 La161 2.503 . S
O185 C170 1.256 . S
O186 La161 2.521 . S
O186 C171 1.261 . S
O187 La161 2.628 . S
O187 C171 1.243 . S
O188 La161 2.554 . S
O188 C178 1.240 . S
O189 La160 2.482 . S
O189 La161 2.757 . S
O189 C178 1.289 . S
O190 La161 2.470 . S
O190 C179 1.258 . S
O191 La160 2.503 . S
O191 C179 1.256 . S
H192 C164 0.930 . S
H193 C165 0.930 . S
H194 C167 0.929 . S
H195 C168 0.929 . S
H196 C173 0.930 . S
H197 C174 0.930 . S
H198 C176 0.929 . S
H199 C177 0.929 . S
La200 C202 2.928 . S
La200 O220 2.521 . S
La200 O221 2.628 . S
La200 O222 2.554 . S
La200 O223 2.757 . S
La200 O224 2.470 . S
La200 O229 2.482 . S
La200 O231 2.503 . S
La201 C211 2.928 . S
La201 O223 2.482 . S
La201 O225 2.503 . S
La201 O226 2.521 . S
La201 O227 2.628 . S
La201 O228 2.554 . S
La201 O229 2.757 . S
La201 O230 2.470 . S
C202 La200 2.928 . S
C202 C203 1.503 1_556 S
C202 O220 1.261 . S
C202 O221 1.243 . S
C203 C202 1.503 1_554 S
C203 C204 1.394 . S
C203 C208 1.373 . S
C204 C203 1.394 . S
C204 C205 1.380 . S
C204 H232 0.930 . S
C205 C204 1.380 . S
C205 C206 1.376 . S
C205 H233 0.930 . S
C206 C205 1.376 . S
C206 C207 1.370 . S
C207 C206 1.370 . S
C207 C208 1.396 . S
C207 H234 0.929 . S
C208 C203 1.373 . S
C208 C207 1.396 . S
C208 H235 0.929 . S
C209 O222 1.240 . S
C209 O223 1.289 . S
C210 O224 1.258 . S
C210 O225 1.256 . S
C211 La201 2.928 . S
C211 C212 1.503 . S
C211 O226 1.261 . S
C211 O227 1.243 . S
C212 C211 1.503 . S
C212 C213 1.394 . S
C212 C217 1.373 . S
C213 C212 1.394 . S
C213 C214 1.380 . S
C213 H236 0.930 . S
C214 C213 1.380 . S
C214 C215 1.376 . S
C214 H237 0.930 . S
C215 C214 1.376 . S
C215 C216 1.370 . S
C216 C215 1.370 . S
C216 C217 1.396 . S
C216 H238 0.929 . S
C217 C212 1.373 . S
C217 C216 1.396 . S
C217 H239 0.929 . S
C218 O228 1.240 . S
C218 O229 1.289 . S
C219 O230 1.258 . S
C219 O231 1.256 . S
O220 La200 2.521 . S
O220 C202 1.261 . S
O221 La200 2.628 . S
O221 C202 1.243 . S
O222 La200 2.554 . S
O222 C209 1.240 . S
O223 La200 2.757 . S
O223 La201 2.482 . S
O223 C209 1.289 . S
O224 La200 2.470 . S
O224 C210 1.258 . S
O225 La201 2.503 . S
O225 C210 1.256 . S
O226 La201 2.521 . S
O226 C211 1.261 . S
O227 La201 2.628 . S
O227 C211 1.243 . S
O228 La201 2.554 . S
O228 C218 1.240 . S
O229 La200 2.482 . S
O229 La201 2.757 . S
O229 C218 1.289 . S
O230 La201 2.470 . S
O230 C219 1.258 . S
O231 La200 2.503 . S
O231 C219 1.256 . S
H232 C204 0.930 . S
H233 C205 0.930 . S
H234 C207 0.929 . S
H235 C208 0.929 . S
H236 C213 0.930 . S
H237 C214 0.930 . S
H238 C216 0.929 . S
H239 C217 0.929 . S
C240 C241 1.363 . S
C240 C246 1.379 1_556 S
C240 N248 1.356 . S
C241 C240 1.363 . S
C241 C247 1.363 . S
C242 C243 1.363 . S
C242 C247 1.379 1_554 S
C242 N249 1.356 . S
C243 C242 1.363 . S
C243 C246 1.363 . S
N244 C246 1.356 . S
N244 H256 0.984 . S
N244 H257 0.985 . S
N245 C247 1.356 . S
N245 H250 0.984 . S
N245 H251 0.985 . S
C246 C240 1.379 1_554 S
C246 C243 1.363 . S
C246 N244 1.356 . S
C247 C241 1.363 . S
C247 C242 1.379 1_556 S
C247 N245 1.356 . S
N248 C240 1.356 . S
N248 H254 0.984 . S
N248 H255 0.984 . S
N249 C242 1.356 . S
N249 H252 0.984 . S
N249 H253 0.985 . S
H250 N245 0.984 . S
H251 N245 0.985 . S
H252 N249 0.984 . S
H253 N249 0.985 . S
H254 N248 0.984 . S
H255 N248 0.984 . S
H256 N244 0.984 . S
H257 N244 0.985 . S
C258 C259 1.363 . S
C258 C264 1.379 1_455 S
C258 N266 1.356 . S
C259 C258 1.363 . S
C259 C265 1.363 . S
C260 C261 1.363 . S
C260 C265 1.379 1_655 S
C260 N267 1.356 . S
C261 C260 1.363 . S
C261 C264 1.363 . S
N262 C264 1.356 . S
N262 H274 0.984 . S
N262 H275 0.985 . S
N263 C265 1.356 . S
N263 H268 0.984 . S
N263 H269 0.985 . S
C264 C258 1.379 1_655 S
C264 C261 1.363 . S
C264 N262 1.356 . S
C265 C259 1.363 . S
C265 C260 1.379 1_455 S
C265 N263 1.356 . S
N266 C258 1.356 . S
N266 H272 0.984 1_455 S
N266 H273 0.984 . S
N267 C260 1.356 . S
N267 H270 0.984 . S
N267 H271 0.985 1_655 S
H268 N263 0.984 . S
H269 N263 0.985 . S
H270 N267 0.984 . S
H271 N267 0.985 1_455 S
H272 N266 0.984 1_655 S
H273 N266 0.984 . S
H274 N262 0.984 . S
H275 N262 0.985 . S
C276 C277 1.363 1_565 S
C276 C282 1.379 . S
C276 N284 1.356 . S
C277 C276 1.363 1_545 S
C277 C283 1.363 . S
C278 C279 1.363 1_545 S
C278 C283 1.379 . S
C278 N285 1.356 . S
C279 C278 1.363 1_565 S
C279 C282 1.363 . S
N280 C282 1.356 . S
N280 H292 0.984 . S
N280 H293 0.985 . S
N281 C283 1.356 . S
N281 H286 0.984 . S
N281 H287 0.985 . S
C282 C276 1.379 . S
C282 C279 1.363 . S
C282 N280 1.356 . S
C283 C277 1.363 . S
C283 C278 1.379 . S
C283 N281 1.356 . S
N284 C276 1.356 . S
N284 H290 0.984 . S
N284 H291 0.984 . S
N285 C278 1.356 . S
N285 H288 0.984 . S
N285 H289 0.985 . S
H286 N281 0.984 . S
H287 N281 0.985 . S
H288 N285 0.984 . S
H289 N285 0.985 . S
H290 N284 0.984 . S
H291 N284 0.984 . S
H292 N280 0.984 . S
H293 N280 0.985 . S
C294 C295 1.363 . S
C294 C300 1.379 . S
C294 N302 1.356 . S
C295 C294 1.363 . S
C295 C301 1.363 1_556 S
C296 C297 1.363 . S
C296 C301 1.379 . S
C296 N303 1.356 . S
C297 C296 1.363 . S
C297 C300 1.363 1_554 S
N298 C300 1.357 . S
N298 H310 0.993 . S
N298 H311 0.975 1_556 S
N299 C301 1.356 . S
N299 H304 0.984 1_554 S
N299 H305 0.985 . S
C300 C294 1.379 . S
C300 C297 1.363 1_556 S
C300 N298 1.357 . S
C301 C295 1.363 1_554 S
C301 C296 1.379 . S
C301 N299 1.356 . S
N302 C294 1.356 . S
N302 H308 0.984 . S
N302 H309 0.984 . S
N303 C296 1.356 . S
N303 H306 0.984 . S
N303 H307 0.985 . S
H304 N299 0.984 1_556 S
H305 N299 0.985 . S
H306 N303 0.984 . S
H307 N303 0.985 . S
H308 N302 0.984 . S
H309 N302 0.984 . S
H310 N298 0.993 . S
H311 N298 0.975 1_554 S
C312 C313 1.363 . S
C312 C318 1.379 . S
C312 N320 1.356 . S
C313 C312 1.363 . S
C313 C319 1.363 1_455 S
C314 C315 1.363 . S
C314 C319 1.379 . S
C314 N321 1.356 . S
C315 C314 1.363 . S
C315 C318 1.363 1_655 S
N316 C318 1.356 . S
N316 H328 0.984 . S
N316 H329 0.985 . S
N317 C319 1.356 . S
N317 H322 0.984 . S
N317 H323 0.985 . S
C318 C312 1.379 . S
C318 C315 1.363 1_455 S
C318 N316 1.356 . S
C319 C313 1.363 1_655 S
C319 C314 1.379 . S
C319 N317 1.356 . S
N320 C312 1.356 . S
N320 H326 0.984 . S
N320 H327 0.984 . S
N321 C314 1.356 . S
N321 H324 0.984 . S
N321 H325 0.985 . S
H322 N317 0.984 . S
H323 N317 0.985 . S
H324 N321 0.984 . S
H325 N321 0.985 . S
H326 N320 0.984 . S
H327 N320 0.984 . S
H328 N316 0.984 . S
H329 N316 0.985 . S
C330 C331 1.363 . S
C330 C336 1.379 1_545 S
C330 N338 1.356 . S
C331 C330 1.363 . S
C331 C337 1.363 . S
C332 C333 1.363 . S
C332 C337 1.379 1_565 S
C332 N339 1.356 . S
C333 C332 1.363 . S
C333 C336 1.363 . S
N334 C336 1.356 . S
N334 H346 0.984 . S
N334 H347 0.985 . S
N335 C337 1.356 . S
N335 H340 0.984 . S
N335 H341 0.985 . S
C336 C330 1.379 1_565 S
C336 C333 1.363 . S
C336 N334 1.356 . S
C337 C331 1.363 . S
C337 C332 1.379 1_545 S
C337 N335 1.356 . S
N338 C330 1.356 . S
N338 H344 0.984 1_545 S
N338 H345 0.984 . S
N339 C332 1.356 . S
N339 H342 0.984 . S
N339 H343 0.985 1_565 S
H340 N335 0.984 . S
H341 N335 0.985 . S
H342 N339 0.984 . S
H343 N339 0.985 1_545 S
H344 N338 0.984 1_565 S
H345 N338 0.984 . S
H346 N334 0.984 . S
H347 N334 0.985 . S
C348 C349 1.363 . S
C348 C354 1.379 . S
C348 N356 1.356 . S
C349 C348 1.363 . S
C349 C355 1.363 . S
C350 C351 1.363 . S
C350 C355 1.379 . S
C350 N357 1.356 . S
C351 C350 1.363 . S
C351 C354 1.363 . S
N352 C354 1.356 . S
N352 H364 0.984 . S
N352 H365 0.985 . S
N353 C355 1.356 . S
N353 H358 0.984 . S
N353 H359 0.985 . S
C354 C348 1.379 . S
C354 C351 1.363 . S
C354 N352 1.356 . S
C355 C349 1.363 . S
C355 C350 1.379 . S
C355 N353 1.356 . S
N356 C348 1.356 . S
N356 H362 0.984 . S
N356 H363 0.984 . S
N357 C350 1.356 . S
N357 H360 0.984 . S
N357 H361 0.985 . S
H358 N353 0.984 . S
H359 N353 0.985 . S
H360 N357 0.984 . S
H361 N357 0.985 . S
H362 N356 0.984 . S
H363 N356 0.984 . S
H364 N352 0.984 . S
H365 N352 0.985 . S
C366 C367 1.363 . S
C366 C372 1.379 . S
C366 N374 1.356 . S
C367 C366 1.363 . S
C367 C373 1.363 . S
C368 C369 1.363 . S
C368 C373 1.379 . S
C368 N375 1.356 . S
C369 C368 1.363 . S
C369 C372 1.363 . S
N370 C372 1.356 . S
N370 H382 0.984 . S
N370 H383 0.985 . S
N371 C373 1.356 . S
N371 H376 0.984 . S
N371 H377 0.985 . S
C372 C366 1.379 . S
C372 C369 1.363 . S
C372 N370 1.356 . S
C373 C367 1.363 . S
C373 C368 1.379 . S
C373 N371 1.356 . S
N374 C366 1.356 . S
N374 H380 0.984 1_545 S
N374 H381 0.984 1_556 S
N375 C368 1.356 . S
N375 H378 0.984 . S
N375 H379 0.985 . S
H376 N371 0.984 . S
H377 N371 0.985 . S
H378 N375 0.984 . S
H379 N375 0.985 . S
H380 N374 0.984 1_565 S
H381 N374 0.984 1_554 S
H382 N370 0.984 . S
H383 N370 0.985 . S
C384 C385 1.363 . S
C384 C390 1.379 . S
C384 N392 1.356 . S
C385 C384 1.363 . S
C385 C391 1.363 . S
C386 C387 1.363 . S
C386 C391 1.379 . S
C386 N393 1.356 . S
C387 C386 1.363 . S
C387 C390 1.363 . S
N388 C390 1.356 . S
N388 H400 0.984 . S
N388 H401 0.985 . S
N389 C391 1.356 . S
N389 H394 0.984 . S
N389 H395 0.985 . S
C390 C384 1.379 . S
C390 C387 1.363 . S
C390 N388 1.356 . S
C391 C385 1.363 . S
C391 C386 1.379 . S
C391 N389 1.356 . S
N392 C384 1.356 . S
N392 H398 0.984 . S
N392 H399 0.984 . S
N393 C386 1.356 . S
N393 H396 0.984 . S
N393 H397 0.985 . S
H394 N389 0.984 . S
H395 N389 0.985 . S
H396 N393 0.984 . S
H397 N393 0.985 . S
H398 N392 0.984 . S
H399 N392 0.984 . S
H400 N388 0.984 . S
H401 N388 0.985 . S
C402 C403 1.363 . S
C402 C408 1.379 . S
C402 N410 1.356 . S
C403 C402 1.363 . S
C403 C409 1.363 . S
C404 C405 1.363 . S
C404 C409 1.379 . S
C404 N411 1.356 . S
C405 C404 1.363 . S
C405 C408 1.363 . S
N406 C408 1.356 . S
N406 H418 0.984 . S
N406 H419 0.985 . S
N407 C409 1.356 . S
N407 H412 0.984 . S
N407 H413 0.985 . S
C408 C402 1.379 . S
C408 C405 1.363 . S
C408 N406 1.356 . S
C409 C403 1.363 . S
C409 C404 1.379 . S
C409 N407 1.356 . S
N410 C402 1.356 . S
N410 H416 0.984 . S
N410 H417 0.984 . S
N411 C404 1.356 . S
N411 H414 0.984 . S
N411 H415 0.985 . S
H412 N407 0.984 . S
H413 N407 0.985 . S
H414 N411 0.984 . S
H415 N411 0.985 . S
H416 N410 0.984 . S
H417 N410 0.984 . S
H418 N406 0.984 . S
H419 N406 0.985 . S
C420 C421 1.363 . S
C420 C426 1.379 . S
C420 N428 1.356 . S
C421 C420 1.363 . S
C421 C427 1.363 . S
C422 C423 1.363 . S
C422 C427 1.379 . S
C422 N429 1.356 . S
C423 C422 1.363 . S
C423 C426 1.363 . S
N424 C426 1.356 . S
N424 H436 0.984 . S
N424 H437 0.985 . S
N425 C427 1.356 1_556 S
N425 H430 0.984 . S
N425 H431 0.985 . S
C426 C420 1.379 . S
C426 C423 1.363 . S
C426 N424 1.356 . S
C427 C421 1.363 . S
C427 C422 1.379 . S
C427 N425 1.356 1_554 S
N428 C420 1.356 . S
N428 H434 0.984 1_455 S
N428 H435 0.984 . S
N429 C422 1.356 . S
N429 H432 0.984 . S
N429 H433 0.985 . S
H430 N425 0.984 . S
H431 N425 0.985 . S
H432 N429 0.984 . S
H433 N429 0.985 . S
H434 N428 0.984 1_655 S
H435 N428 0.984 . S
H436 N424 0.984 . S
H437 N424 0.985 . S
C438 C439 1.363 . S
C438 C444 1.379 . S
C438 N446 1.356 . S
C439 C438 1.363 . S
C439 C445 1.363 . S
C440 C441 1.363 . S
C440 C445 1.379 . S
C440 N447 1.356 . S
C441 C440 1.363 . S
C441 C444 1.363 . S
N442 C444 1.356 . S
N442 H454 0.984 . S
N442 H455 0.985 . S
N443 C445 1.356 . S
N443 H448 0.984 . S
N443 H449 0.985 . S
C444 C438 1.379 . S
C444 C441 1.363 . S
C444 N442 1.356 . S
C445 C439 1.363 . S
C445 C440 1.379 . S
C445 N443 1.356 . S
N446 C438 1.356 . S
N446 H452 0.984 . S
N446 H453 0.984 . S
N447 C440 1.356 . S
N447 H450 0.984 . S
N447 H451 0.985 . S
H448 N443 0.984 . S
H449 N443 0.985 . S
H450 N447 0.984 . S
H451 N447 0.985 . S
H452 N446 0.984 . S
H453 N446 0.984 . S
H454 N442 0.984 . S
H455 N442 0.985 . S
C456 C457 1.363 . S
C456 C462 1.379 . S
C456 N464 1.356 . S
C457 C456 1.363 . S
C457 C463 1.363 . S
C458 C459 1.363 . S
C458 C463 1.379 . S
C458 N465 1.356 . S
C459 C458 1.363 . S
C459 C462 1.363 . S
N460 C462 1.356 . S
N460 H472 0.984 1_455 S
N460 H473 0.985 . S
N461 C463 1.356 . S
N461 H466 0.984 . S
N461 H467 0.985 . S
C462 C456 1.379 . S
C462 C459 1.363 . S
C462 N460 1.356 . S
C463 C457 1.363 . S
C463 C458 1.379 . S
C463 N461 1.356 . S
N464 C456 1.356 . S
N464 H470 0.984 . S
N464 H471 0.984 . S
N465 C458 1.356 . S
N465 H468 0.984 . S
N465 H469 0.985 . S
H466 N461 0.984 . S
H467 N461 0.985 . S
H468 N465 0.984 . S
H469 N465 0.985 . S
H470 N464 0.984 . S
H471 N464 0.984 . S
H472 N460 0.984 1_655 S
H473 N460 0.985 . S
C474 C475 1.363 . S
C474 C480 1.379 . S
C474 N482 1.356 . S
C475 C474 1.363 . S
C475 C481 1.363 . S
C476 C477 1.363 . S
C476 C481 1.379 . S
C476 N483 1.356 . S
C477 C476 1.363 . S
C477 C480 1.363 . S
N478 C480 1.356 . S
N478 H490 0.984 . S
N478 H491 0.985 . S
N479 C481 1.356 . S
N479 H484 0.984 . S
N479 H485 0.985 . S
C480 C474 1.379 . S
C480 C477 1.363 . S
C480 N478 1.356 . S
C481 C475 1.363 . S
C481 C476 1.379 . S
C481 N479 1.356 . S
N482 C474 1.356 . S
N482 H488 0.984 . S
N482 H489 0.984 . S
N483 C476 1.356 . S
N483 H486 0.984 . S
N483 H487 0.985 . S
H484 N479 0.984 . S
H485 N479 0.985 . S
H486 N483 0.984 . S
H487 N483 0.985 . S
H488 N482 0.984 . S
H489 N482 0.984 . S
H490 N478 0.984 . S
H491 N478 0.985 . S
C492 C493 1.363 . S
C492 C498 1.379 . S
C492 N500 1.356 . S
C493 C492 1.363 . S
C493 C499 1.363 . S
C494 C495 1.363 . S
C494 C499 1.379 . S
C494 N501 1.356 1_554 S
C495 C494 1.363 . S
C495 C498 1.363 . S
N496 C498 1.356 . S
N496 H508 0.984 . S
N496 H509 0.985 . S
N497 C499 1.356 . S
N497 H502 0.984 . S
N497 H503 0.985 . S
C498 C492 1.379 . S
C498 C495 1.363 . S
C498 N496 1.356 . S
C499 C493 1.363 . S
C499 C494 1.379 . S
C499 N497 1.356 . S
N500 C492 1.356 . S
N500 H506 0.984 . S
N500 H507 0.984 . S
N501 C494 1.356 1_556 S
N501 H504 0.984 . S
N501 H505 0.985 . S
H502 N497 0.984 . S
H503 N497 0.985 . S
H504 N501 0.984 . S
H505 N501 0.985 . S
H506 N500 0.984 . S
H507 N500 0.984 . S
H508 N496 0.984 . S
H509 N496 0.985 . S
C510 C511 1.363 . S
C510 C516 1.379 . S
C510 N518 1.356 . S
C511 C510 1.363 . S
C511 C517 1.363 . S
C512 C513 1.363 . S
C512 C517 1.379 . S
C512 N519 1.356 . S
C513 C512 1.363 . S
C513 C516 1.363 . S
N514 C516 1.356 . S
N514 H526 0.984 . S
N514 H527 0.985 . S
N515 C517 1.356 . S
N515 H520 0.984 . S
N515 H521 0.985 . S
C516 C510 1.379 . S
C516 C513 1.363 . S
C516 N514 1.356 . S
C517 C511 1.363 . S
C517 C512 1.379 . S
C517 N515 1.356 . S
N518 C510 1.356 . S
N518 H524 0.984 . S
N518 H525 0.984 . S
N519 C512 1.356 . S
N519 H522 0.984 . S
N519 H523 0.985 . S
H520 N515 0.984 . S
H521 N515 0.985 . S
H522 N519 0.984 . S
H523 N519 0.985 . S
H524 N518 0.984 . S
H525 N518 0.984 . S
H526 N514 0.984 . S
H527 N514 0.985 . S
C528 C529 1.363 . S
C528 C534 1.379 . S
C528 N536 1.356 . S
C529 C528 1.363 . S
C529 C535 1.363 . S
C530 C531 1.363 . S
C530 C535 1.379 . S
C530 N537 1.356 . S
C531 C530 1.363 . S
C531 C534 1.363 . S
N532 C534 1.356 . S
N532 H544 0.984 1_565 S
N532 H545 0.985 . S
N533 C535 1.356 . S
N533 H538 0.984 . S
N533 H539 0.985 . S
C534 C528 1.379 . S
C534 C531 1.363 . S
C534 N532 1.356 . S
C535 C529 1.363 . S
C535 C530 1.379 . S
C535 N533 1.356 . S
N536 C528 1.356 . S
N536 H542 0.984 . S
N536 H543 0.984 . S
N537 C530 1.356 . S
N537 H540 0.984 . S
N537 H541 0.985 . S
H538 N533 0.984 . S
H539 N533 0.985 . S
H540 N537 0.984 . S
H541 N537 0.985 . S
H542 N536 0.984 . S
H543 N536 0.984 . S
H544 N532 0.984 1_545 S
H545 N532 0.985 . S
C546 C547 1.363 . S
C546 C552 1.379 . S
C546 N554 1.356 . S
C547 C546 1.363 . S
C547 C553 1.363 . S
C548 C549 1.363 . S
C548 C553 1.379 . S
C548 N555 1.356 . S
C549 C548 1.363 . S
C549 C552 1.363 . S
N550 C552 1.356 . S
N550 H562 0.984 . S
N550 H563 0.985 . S
N551 C553 1.356 . S
N551 H556 0.982 1_556 S
N551 H557 0.985 . S
C552 C546 1.379 . S
C552 C549 1.363 . S
C552 N550 1.356 . S
C553 C547 1.363 . S
C553 C548 1.379 . S
C553 N551 1.356 . S
N554 C546 1.356 . S
N554 H560 0.984 . S
N554 H561 0.984 . S
N555 C548 1.356 . S
N555 H558 0.984 . S
N555 H559 0.985 . S
H556 N551 0.982 1_554 S
H557 N551 0.985 . S
H558 N555 0.984 . S
H559 N555 0.985 . S
H560 N554 0.984 . S
H561 N554 0.984 . S
H562 N550 0.984 . S
H563 N550 0.985 . S
C241 C210 2.018 . S
C243 C10 2.018 . S
C259 C9 1.443 . S
C261 C49 1.443 . S
C277 C50 2.018 . S
C279 C90 2.018 . S
C295 C89 1.443 . S
C297 C129 1.443 . S
C313 C170 2.019 . S
C315 C130 2.019 . S
C331 C209 1.443 . S
C333 C169 1.443 . S
C349 C6 1.943 . S
C351 C15 1.943 . S
C367 C55 1.943 1_556 S
C369 C46 1.943 . S
C385 C86 1.943 . S
C387 C95 1.943 . S
C403 C135 1.943 . S
C405 C126 1.943 . S
C421 C175 1.943 1_554 S
C423 C166 1.943 . S
C439 C215 1.943 . S
C441 C206 1.943 . S
C457 C19 1.970 . S
C459 C178 1.959 . S
C475 C58 1.959 . S
C477 C219 1.970 . S
C493 C18 1.959 . S
C495 C99 1.970 1_554 S
C511 C59 1.970 . S
C513 C138 1.959 . S
C529 C179 1.970 . S
C531 C98 1.959 . S
C547 C139 1.970 1_556 S
C549 C218 1.959 . S
