# Generated by pormake.
# Topology rob, (6)-cn, num edge types: 1
# Building blocks:
#     Node 0, Type 0, BuildingBlock: KUMBUR_clean_sbu_1, # of connection points: 6
#     Node 1, Type 0, BuildingBlock: KUMBUR_clean_sbu_1, # of connection points: 6
#     Node 2, Type 0, BuildingBlock: KUMBUR_clean_sbu_1, # of connection points: 6
#     Node 3, Type 0, BuildingBlock: KUMBUR_clean_sbu_1, # of connection points: 6
#     Edge 4, Type (0, 0), BuildingBlock: FUNLAD_clean_linker_0, # of connection points: 2
#     Edge 5, Type (0, 0), BuildingBlock: FUNLAD_clean_linker_0, # of connection points: 2
#     Edge 6, Type (0, 0), BuildingBlock: FUNLAD_clean_linker_0, # of connection points: 2
#     Edge 7, Type (0, 0), BuildingBlock: FUNLAD_clean_linker_0, # of connection points: 2
#     Edge 8, Type (0, 0), BuildingBlock: FUNLAD_clean_linker_0, # of connection points: 2
#     Edge 9, Type (0, 0), BuildingBlock: FUNLAD_clean_linker_0, # of connection points: 2
#     Edge 10, Type (0, 0), BuildingBlock: FUNLAD_clean_linker_0, # of connection points: 2
#     Edge 11, Type (0, 0), BuildingBlock: FUNLAD_clean_linker_0, # of connection points: 2
#     Edge 12, Type (0, 0), BuildingBlock: FUNLAD_clean_linker_0, # of connection points: 2
#     Edge 13, Type (0, 0), BuildingBlock: FUNLAD_clean_linker_0, # of connection points: 2
#     Edge 14, Type (0, 0), BuildingBlock: FUNLAD_clean_linker_0, # of connection points: 2
#     Edge 15, Type (0, 0), BuildingBlock: FUNLAD_clean_linker_0, # of connection points: 2
# Relax obj value: 0.018
# Max RMSD: 0.104
# Mean RMSD: 0.104
data_MOF--net-rob--node1-KUMBUR_clean_sbu_1--edge1-FUNLAD_clean_linker_0
_symmetry_space_group_name_H-M    P1
_symmetry_Int_Tables_number       1
_symmetry_cell_setting            triclinic
loop_
_symmetry_equiv_pos_as_xyz
'x, y, z'
_cell_length_a     21.204804
_cell_length_b     27.493886
_cell_length_c     38.071514
_cell_angle_alpha  108.60568
_cell_angle_beta   89.783557
_cell_angle_gamma 90.009508
loop_
_atom_site_label
_atom_site_type_symbol
_atom_site_fract_x
_atom_site_fract_y
_atom_site_fract_z
_atom_type_partial_charge
Tb0 Tb 0.29586 0.20353 0.97764 0.0
C1 C 0.10528 0.37747 0.02801 0.0
N2 N 0.16529 0.37858 0.04074 0.0
C3 C 0.18099 0.46186 0.03458 0.0
C4 C 0.08123 0.41827 0.01718 0.0
C5 C 0.20307 0.42018 0.04459 0.0
C6 C 0.11988 0.46087 0.02071 0.0
C7 C 0.00689 0.3313 1.01097 0.0
C8 C 0.06914 0.33404 0.02442 0.0
C9 C 0.98284 0.37161 0.99974 0.0
C10 C 0.01993 0.41495 1.00279 0.0
Tb11 Tb 0.19586 0.30919 0.05702 0.0
N12 N 0.09431 0.29535 0.03513 0.0
C13 C 0.97005 0.2888 1.01019 0.0
C14 C 0.05598 0.25688 0.03813 0.0
C15 C 0.99429 0.25202 0.0246 0.0
H16 H 0.25008 0.42128 0.05558 0.0
H17 H 0.96486 0.22067 0.02632 0.0
H18 H 0.22399 0.09218 0.96584 0.0
H19 H 0.53775 0.26368 1.01178 0.0
H20 H 0.07101 0.23115 0.05255 0.0
H21 H 0.92198 0.28526 1.00013 0.0
H22 H 0.43017 0.2723 0.99164 0.0
H23 H 0.21111 0.4947 0.03754 0.0
H24 H 0.93528 0.36995 0.98909 0.0
H25 H 1.0007 0.44572 0.99404 0.0
H26 H 0.24887 0.00898 0.97423 0.0
H27 H 0.10306 0.49308 0.01277 0.0
H28 H 0.57084 0.1839 0.02329 0.0
N29 N 0.31418 0.1243 0.98303 0.0
C30 C 0.3737 0.11563 0.99273 0.0
C31 C 0.28429 0.03882 0.97989 0.0
C32 C 0.39053 0.06834 0.99721 0.0
C33 C 0.26987 0.08638 0.97586 0.0
C34 C 0.34479 0.02981 0.99082 0.0
N35 N 0.39877 0.20043 0.99529 0.0
C36 C 0.44201 0.23838 0.99834 0.0
C37 C 0.47948 0.14777 1.00974 0.0
C38 C 0.41745 0.15496 0.9991 0.0
C39 C 0.5227 0.18787 0.01516 0.0
C40 C 0.50406 0.2331 1.00895 0.0
H41 H 0.35584 0.99293 0.99394 0.0
H42 H 0.46587 0.02517 1.01182 0.0
H43 H 0.54386 0.09465 0.02266 0.0
O44 O 0.33875 0.21494 0.92974 0.0
O45 O 0.3103 0.20399 0.03508 0.0
O46 O 0.28463 0.28483 0.07578 0.0
O47 O 0.29304 0.14325 0.92791 0.0
O48 O 0.31909 0.28541 0.98884 0.0
O49 O 0.29389 0.32925 0.05053 0.0
O50 O 0.14199 0.31115 0.10475 0.0
O51 O 0.19951 0.31261 1.00007 0.0
O52 O 0.20251 0.2281 0.96592 0.0
O53 O 0.19987 0.37575 0.1033 0.0
O54 O 0.18457 0.22774 0.05184 0.0
O55 O 0.19849 0.18714 0.98935 0.0
C56 C 0.31348 0.24003 0.06764 0.0
C57 C 0.3346 0.14516 0.86943 0.0
C58 C 0.39175 0.13949 0.81233 0.0
C59 C 0.35559 0.09627 0.7935 0.0
C60 C 0.29943 0.10166 0.84978 0.0
C61 C 0.30977 0.07761 0.81209 0.0
C62 C 0.38046 0.16452 0.85042 0.0
C63 C 0.32545 0.32463 0.01969 0.0
C64 C 0.32292 0.16862 0.90965 0.0
C65 C 0.4521 0.06118 1.00814 0.0
C66 C 0.49647 0.10079 0.01438 0.0
C67 C 0.18955 0.27573 0.96887 0.0
C68 C 0.14106 0.38747 0.1602 0.0
C69 C 0.08075 0.39665 0.21686 0.0
C70 C 0.0992 0.4483 0.23034 0.0
C71 C 0.15927 0.43917 0.17469 0.0
C72 C 0.10228 0.366 0.18167 0.0
C73 C 0.13854 0.46927 0.20958 0.0
C74 C 0.17778 0.18749 0.02204 0.0
C75 C 0.16064 0.35761 0.12215 0.0
H76 H 0.3626 0.07714 0.76416 0.0
H77 H 0.26361 0.08611 0.86354 0.0
H78 H 0.28229 0.04425 0.79723 0.0
H79 H 0.40823 0.19778 0.86525 0.0
H80 H 0.08322 0.47228 0.25723 0.0
H81 H 0.18894 0.4567 0.15886 0.0
H82 H 0.08772 0.32623 0.17081 0.0
H83 H 0.15266 0.50909 0.2204 0.0
Tb84 Tb 0.81503 0.70422 0.97264 0.0
C85 C 0.5906 0.85292 0.01999 0.0
N86 N 0.65134 0.85953 0.03151 0.0
C87 C 0.653 0.94254 0.02343 0.0
C88 C 0.55925 0.88997 1.00805 0.0
C89 C 0.68213 0.90441 0.03482 0.0
C90 C 0.59157 0.93499 1.00949 0.0
C91 C 0.49603 0.80135 1.0106 0.0
C92 C 0.55981 0.80929 0.02117 0.0
C93 C 0.46501 0.83693 0.99708 0.0
C94 C 0.49656 0.88124 0.99587 0.0
Tb95 Tb 0.6956 0.7952 0.04896 0.0
N96 N 0.59126 0.77647 0.03505 0.0
C97 C 0.46482 0.75898 0.01526 0.0
C98 C 0.55929 0.73784 0.04269 0.0
C99 C 0.49631 0.72765 0.03204 0.0
H100 H 0.72942 0.91046 0.04577 0.0
H101 H 0.47178 0.6962 0.0374 0.0
H102 H 0.7493 0.58698 0.95086 0.0
H103 H 0.05093 0.76503 0.01758 0.0
H104 H 0.5816 0.71533 0.05772 0.0
H105 H 0.41581 0.75143 1.00748 0.0
H106 H 0.94621 0.77124 0.99059 0.0
H107 H 0.67793 0.97765 0.02538 0.0
H108 H 0.41615 0.83127 0.98851 0.0
H109 H 0.47167 0.909 0.98627 0.0
H110 H 0.7662 0.50793 0.96655 0.0
H111 H 0.56916 0.96451 1.00063 0.0
H112 H 0.07586 0.69056 0.03838 0.0
N113 N 0.82768 0.62637 0.98217 0.0
C114 C 0.88206 0.62069 0.99931 0.0
C115 C 0.79859 0.53975 0.97661 0.0
C116 C 0.89537 0.57517 1.00742 0.0
C117 C 0.78819 0.58537 0.96862 0.0
C118 C 0.85182 0.53496 0.99674 0.0
N119 N 0.91237 0.70195 0.9973 0.0
C120 C 0.95696 0.73876 0.9997 0.0
C121 C 0.98527 0.65413 0.02197 0.0
C122 C 0.92655 0.65934 1.00639 0.0
C123 C 0.03007 0.69311 0.02656 0.0
C124 C 0.01615 0.73525 0.01487 0.0
H125 H 0.86025 0.49931 1.0024 0.0
H126 H 0.96345 0.53613 0.0314 0.0
H127 H 0.04225 0.60532 0.04411 0.0
O128 O 0.85717 0.72762 0.93049 0.0
O129 O 0.84196 0.73665 0.03166 0.0
O130 O 0.74877 0.73454 0.06076 0.0
O131 O 0.84632 0.64788 0.92393 0.0
O132 O 0.82284 0.78688 0.98317 0.0
O133 O 0.78954 0.82699 0.04398 0.0
O134 O 0.64024 0.81601 0.09783 0.0
O135 O 0.70052 0.80162 0.99284 0.0
O136 O 0.72118 0.71985 0.95437 0.0
O137 O 0.73021 0.85078 0.09651 0.0
O138 O 0.68872 0.71121 0.03614 0.0
O139 O 0.71863 0.67489 0.97473 0.0
C140 C 0.81031 0.73275 0.06033 0.0
C141 C 0.8399 0.67242 0.87005 0.0
C142 C 0.85929 0.6714 0.80641 0.0
C143 C 0.79536 0.65925 0.79833 0.0
C144 C 0.77653 0.65993 0.86127 0.0
C145 C 0.75443 0.65353 0.82559 0.0
C146 C 0.88116 0.67795 0.84258 0.0
C147 C 0.82233 0.82605 0.01414 0.0
C148 C 0.86308 0.68115 0.90797 0.0
C149 C 0.95269 0.57055 0.02455 0.0
C150 C 0.99763 0.60992 0.03174 0.0
C151 C 0.69552 0.76541 0.96063 0.0
C152 C 0.70275 0.83469 0.15221 0.0
C153 C 0.67419 0.81361 0.20813 0.0
C154 C 0.73849 0.81418 0.21714 0.0
C155 C 0.76669 0.83542 0.16223 0.0
C156 C 0.65655 0.82436 0.17566 0.0
C157 C 0.78419 0.82532 0.19446 0.0
C158 C 0.68463 0.67468 1.0038 0.0
C159 C 0.68444 0.84463 0.11751 0.0
H160 H 0.77713 0.65343 0.77075 0.0
H161 H 0.74426 0.65515 0.88201 0.0
H162 H 0.70541 0.644 0.81901 0.0
H163 H 0.92998 0.68816 0.84956 0.0
H164 H 0.75346 0.80664 0.24209 0.0
H165 H 0.80352 0.84345 0.14508 0.0
H166 H 0.60715 0.82379 0.16833 0.0
H167 H 0.83352 0.82582 0.20178 0.0
Tb168 Tb 0.31297 0.81428 0.54798 0.0
C169 C 0.11388 0.64298 0.50254 0.0
N170 N 0.17335 0.64238 0.48893 0.0
C171 C 0.19037 0.55834 0.49345 0.0
C172 C 0.0907 0.60141 0.51286 0.0
C173 C 0.21149 0.60066 0.48388 0.0
C174 C 0.12977 0.55873 0.50809 0.0
C175 C 0.01583 0.68903 0.52228 0.0
C176 C 0.07731 0.68655 0.50751 0.0
C177 C 0.99256 0.64783 0.5328 0.0
C178 C 0.02985 0.6041 0.52805 0.0
Tb179 Tb 0.2023 0.71302 0.47366 0.0
N180 N 0.10182 0.72615 0.49758 0.0
C181 C 0.97912 0.73244 0.52536 0.0
C182 C 0.06383 0.7662 0.49739 0.0
C183 C 1.00284 0.77072 0.51221 0.0
H184 H 0.25776 0.59958 0.47181 0.0
H185 H 0.9736 0.80317 0.51263 0.0
H186 H 0.2538 0.92907 0.55589 0.0
H187 H 0.54587 0.73312 0.50882 0.0
H188 H 0.07865 0.79375 0.48447 0.0
H189 H 0.93166 0.73586 0.53654 0.0
H190 H 0.43964 0.73675 0.5348 0.0
H191 H 0.22076 0.52536 0.4894 0.0
H192 H 0.94555 0.64921 0.54434 0.0
H193 H 0.01121 0.57259 0.53623 0.0
H194 H 0.28769 0.0072 0.54256 0.0
H195 H 0.11366 0.52596 0.51561 0.0
H196 H 0.58584 0.80547 0.48981 0.0
N197 N 0.3395 0.88892 0.53731 0.0
C198 C 0.39904 0.8913 0.5246 0.0
C199 C 0.31933 0.97472 0.53711 0.0
C200 C 0.42074 0.9354 0.51699 0.0
C201 C 0.29986 0.93006 0.54411 0.0
C202 C 0.37997 0.97738 0.52337 0.0
N203 N 0.4144 0.80655 0.5255 0.0
C204 C 0.45383 0.76669 0.52408 0.0
C205 C 0.49943 0.84929 0.50463 0.0
C206 C 0.43753 0.84855 0.51816 0.0
C207 C 0.53797 0.80645 0.50007 0.0
C208 C 0.51539 0.76536 0.51046 0.0
H209 H 0.39489 0.01201 0.51794 0.0
H210 H 0.49951 0.96943 0.49686 0.0
H211 H 0.56856 0.89416 0.48626 0.0
O212 O 0.3606 0.80477 0.59474 0.0
O213 O 0.31708 0.81431 0.49007 0.0
O214 O 0.29317 0.73168 0.45348 0.0
O215 O 0.31897 0.87766 0.59608 0.0
O216 O 0.3266 0.73137 0.53854 0.0
O217 O 0.29958 0.6894 0.47734 0.0
O218 O 0.15075 0.71759 0.42672 0.0
O219 O 0.2049 0.71293 0.53156 0.0
O220 O 0.21982 0.79719 0.56611 0.0
O221 O 0.19676 0.64709 0.42733 0.0
O222 O 0.19205 0.79513 0.48038 0.0
O223 O 0.21618 0.83774 0.54174 0.0
C224 C 0.31955 0.77669 0.45838 0.0
C225 C 0.37081 0.87767 0.65262 0.0
C226 C 0.42564 0.8768 0.70894 0.0
C227 C 0.4105 0.92899 0.72534 0.0
C228 C 0.35651 0.92982 0.66986 0.0
C229 C 0.3761 0.95509 0.70592 0.0
C230 C 0.40507 0.851 0.67248 0.0
C231 C 0.33094 0.692 0.50768 0.0
C232 C 0.35032 0.85261 0.61391 0.0
C233 C 0.482 0.93596 0.50296 0.0
C234 C 0.52123 0.89301 0.49679 0.0
C235 C 0.1955 0.75175 0.56182 0.0
C236 C 0.13962 0.64137 0.37135 0.0
C237 C 0.0987 0.63851 0.31075 0.0
C238 C 0.10074 0.58471 0.29966 0.0
C239 C 0.1413 0.58748 0.35937 0.0
C240 C 0.11736 0.66698 0.34704 0.0
C241 C 0.12176 0.55945 0.32385 0.0
C242 C 0.18876 0.83574 0.51034 0.0
C243 C 0.16239 0.66952 0.40896 0.0
H244 H 0.42482 0.94959 0.75345 0.0
H245 H 0.33022 0.95137 0.65543 0.0
H246 H 0.36461 0.99514 0.71881 0.0
H247 H 0.4167 0.81086 0.65948 0.0
H248 H 0.08545 0.56235 0.27218 0.0
H249 H 0.1577 0.5668 0.37752 0.0
H250 H 0.11616 0.70855 0.35583 0.0
H251 H 0.12326 0.51799 0.31516 0.0
Tb252 Tb 0.81277 0.31761 0.55589 0.0
C253 C 0.61554 0.1403 0.51274 0.0
N254 N 0.67431 0.14148 0.49867 0.0
C255 C 0.69531 0.05723 0.50186 0.0
C256 C 0.59473 0.09772 0.52264 0.0
C257 C 0.71393 0.10044 0.49262 0.0
C258 C 0.63554 0.05591 0.51708 0.0
C259 C 0.51577 0.18325 0.53293 0.0
C260 C 0.57694 0.1828 0.51815 0.0
C261 C 0.49489 0.14109 0.54312 0.0
C262 C 0.53427 0.09843 0.53799 0.0
Tb263 Tb 0.69976 0.21396 0.48466 0.0
N264 N 0.59917 0.2233 0.50848 0.0
C265 C 0.47694 0.2256 0.5363 0.0
C266 C 0.55928 0.2624 0.50872 0.0
C267 C 0.49843 0.26489 0.52351 0.0
H268 H 0.75929 0.1004 0.47977 0.0
H269 H 0.46762 0.29659 0.52422 0.0
H270 H 0.75582 0.43037 0.55725 0.0
H271 H 0.04036 0.227 0.51384 0.0
H272 H 0.57258 0.29079 0.49625 0.0
H273 H 0.42959 0.22744 0.54746 0.0
H274 H 0.93671 0.23697 0.5437 0.0
H275 H 0.72694 0.02483 0.49701 0.0
H276 H 0.44813 0.14089 0.55466 0.0
H277 H 0.51744 0.06614 0.54586 0.0
H278 H 0.79084 0.50378 0.53804 0.0
H279 H 0.62127 0.0224 0.52424 0.0
H280 H 0.08014 0.29342 0.48836 0.0
N281 N 0.83988 0.38746 0.53915 0.0
C282 C 0.89851 0.38649 0.52436 0.0
C283 C 0.82144 0.47089 0.53385 0.0
C284 C 0.92057 0.4276 0.51311 0.0
C285 C 0.80145 0.42903 0.54436 0.0
C286 C 0.88121 0.47017 0.5181 0.0
N287 N 0.91189 0.30384 0.53006 0.0
C288 C 0.95041 0.26403 0.53011 0.0
C289 C 0.99605 0.34022 0.5034 0.0
C290 C 0.93532 0.34299 0.51919 0.0
C291 C 0.0332 0.29702 0.50027 0.0
C292 C 0.01068 0.25924 0.51431 0.0
H293 H 0.89647 0.50259 0.50988 0.0
H294 H 0.99841 0.45577 0.48801 0.0
H295 H 0.06467 0.37942 0.47971 0.0
O296 O 0.86695 0.31408 0.60195 0.0
O297 O 0.80787 0.31565 0.49756 0.0
O298 O 0.79178 0.23077 0.46509 0.0
O299 O 0.82049 0.38454 0.60178 0.0
O300 O 0.82362 0.23595 0.55061 0.0
O301 O 0.79734 0.19143 0.48991 0.0
O302 O 0.65126 0.22051 0.43723 0.0
O303 O 0.69948 0.21681 0.5432 0.0
O304 O 0.72276 0.30045 0.57794 0.0
O305 O 0.69205 0.14836 0.43819 0.0
O306 O 0.68517 0.29642 0.49254 0.0
O307 O 0.71514 0.34092 0.55288 0.0
C308 C 0.81341 0.27628 0.46718 0.0
C309 C 0.88093 0.39001 0.65701 0.0
C310 C 0.93696 0.39149 0.7135 0.0
C311 C 0.92966 0.44514 0.72688 0.0
C312 C 0.8743 0.44362 0.67119 0.0
C313 C 0.89848 0.47087 0.70588 0.0
C314 C 0.91208 0.36396 0.67844 0.0
C315 C 0.82608 0.19456 0.52117 0.0
C316 C 0.85614 0.36229 0.61969 0.0
C317 C 0.98061 0.42459 0.49687 0.0
C318 C 0.01823 0.38101 0.49201 0.0
C319 C 0.69604 0.25581 0.57402 0.0
C320 C 0.63862 0.14478 0.38134 0.0
C321 C 0.59451 0.14391 0.32171 0.0
C322 C 0.60121 0.09019 0.30875 0.0
C323 C 0.64468 0.09109 0.36743 0.0
C324 C 0.61277 0.17116 0.35841 0.0
C325 C 0.62594 0.06412 0.33148 0.0
C326 C 0.68215 0.33684 0.52282 0.0
C327 C 0.66064 0.17205 0.41943 0.0
H328 H 0.9475 0.46724 0.75388 0.0
H329 H 0.85073 0.46468 0.65535 0.0
H330 H 0.89308 0.51216 0.71653 0.0
H331 H 0.91774 0.32266 0.66774 0.0
H332 H 0.5866 0.06813 0.28099 0.0
H333 H 0.664 0.0697 0.38438 0.0
H334 H 0.60815 0.21257 0.36871 0.0
H335 H 0.63067 0.02276 0.32116 0.0
C336 C 0.63179 0.61544 0.03265 0.0
C337 C 0.64427 0.62974 1.00105 0.0
C338 C 0.59333 0.57331 0.03041 0.0
C339 C 0.56602 0.54464 0.99644 0.0
C340 C 0.5797 0.55836 0.9647 0.0
C341 C 0.61821 0.60061 0.96698 0.0
C342 C 0.52471 0.49948 0.99294 0.0
C343 C 0.49073 0.49392 0.02148 0.0
C344 C 0.44934 0.44921 0.01949 0.0
C345 C 0.426 0.44455 0.05285 0.0
C346 C 0.3864 0.404 0.0529 0.0
C347 C 0.36872 0.36697 0.01948 0.0
H348 H 0.44718 0.41426 0.95942 0.0
C349 C 0.3919 0.3714 0.98598 0.0
C350 C 0.43164 0.41206 0.98591 0.0
H351 H 0.37876 0.34377 0.95969 0.0
H352 H 0.65231 0.63657 0.05915 0.0
H353 H 0.58626 0.56296 0.05526 0.0
H354 H 0.55996 0.53668 0.93811 0.0
H355 H 0.62721 0.61072 0.94214 0.0
H356 H 0.52186 0.4709 0.96576 0.0
H357 H 0.493 0.52382 0.04817 0.0
H358 H 0.43852 0.47247 0.07917 0.0
H359 H 0.36961 0.40179 0.07926 0.0
C360 C 0.39552 0.64206 0.53958 0.0
C361 C 0.37342 0.64873 0.50667 0.0
C362 C 0.43647 0.60166 0.5384 0.0
C363 C 0.45589 0.56673 0.50416 0.0
C364 C 0.43399 0.57375 0.47136 0.0
C365 C 0.39312 0.61409 0.47255 0.0
C366 C 0.50038 0.52364 0.50123 0.0
C367 C 0.51058 0.50358 0.52874 0.0
C368 C 0.5554 0.46076 0.52589 0.0
C369 C 0.57832 0.45457 0.55874 0.0
C370 C 0.61974 0.41465 0.55767 0.0
C371 C 0.63894 0.37954 0.52362 0.0
H372 H 0.5564 0.42764 0.46573 0.0
C373 C 0.61575 0.38532 0.49065 0.0
C374 C 0.57429 0.42539 0.49172 0.0
H375 H 0.62941 0.35872 0.46399 0.0
H376 H 0.3815 0.66829 0.56631 0.0
H377 H 0.45357 0.59885 0.56439 0.0
H378 H 0.44847 0.54783 0.44461 0.0
H379 H 0.37745 0.61835 0.44664 0.0
H380 H 0.52509 0.50782 0.47504 0.0
H381 H 0.48594 0.51937 0.55494 0.0
H382 H 0.56426 0.48087 0.58545 0.0
H383 H 0.63624 0.41105 0.58362 0.0
C384 C 0.10486 0.11387 0.99361 0.0
C385 C 0.13742 0.14486 0.02474 0.0
C386 C 0.06536 0.07458 0.99637 0.0
C387 C 0.05654 0.06593 0.03063 0.0
C388 C 0.08965 0.09676 0.06165 0.0
C389 C 0.12943 0.13594 0.05882 0.0
C390 C 0.01512 0.02428 0.03486 0.0
C391 C 0.96949 1.00169 1.01058 0.0
C392 C 0.93141 0.95755 0.01305 0.0
C393 C 0.90919 0.9224 0.98004 0.0
C394 C 0.87395 0.87986 0.98061 0.0
C395 C 0.85895 0.87192 0.01435 0.0
H396 H 0.93083 0.97727 0.07306 0.0
C397 C 0.87959 0.90778 0.04762 0.0
C398 C 0.91588 0.95016 0.047 0.0
H399 H 0.86841 0.90277 0.07404 0.0
H400 H 0.10973 0.12005 0.96702 0.0
H401 H 0.04282 0.0509 0.97135 0.0
H402 H 0.08442 0.09075 0.08829 0.0
H403 H 0.15399 0.15923 0.08331 0.0
H404 H 0.02314 0.01163 0.05874 0.0
H405 H 0.96097 0.01405 0.98667 0.0
H406 H 0.91992 0.92743 0.95356 0.0
H407 H 0.85808 0.85333 0.95449 0.0
C408 C 0.88962 0.11553 0.49011 0.0
C409 C 0.866 0.15115 0.52275 0.0
C410 C 0.92856 0.07527 0.49172 0.0
C411 C 0.94511 0.07004 0.52613 0.0
C412 C 0.92056 0.10523 0.55866 0.0
C413 C 0.88176 0.14553 0.55704 0.0
C414 C 0.98634 0.02785 0.52931 0.0
C415 C 0.02886 1.00324 0.50327 0.0
C416 C 0.0701 0.96094 0.50626 0.0
C417 C 0.09589 0.92676 0.47368 0.0
C418 C 0.13467 0.88633 0.47503 0.0
C419 C 0.14912 0.87947 0.50912 0.0
H420 H 0.06833 0.98079 0.5664 0.0
C421 C 0.12425 0.91406 0.54183 0.0
C422 C 0.08539 0.9545 0.54049 0.0
H423 H 0.13454 0.90973 0.56853 0.0
H424 H 0.87824 0.11886 0.46325 0.0
H425 H 0.94463 0.04811 0.4659 0.0
H426 H 0.93196 0.10186 0.58551 0.0
H427 H 0.86399 0.17222 0.58268 0.0
H428 H 0.98167 0.01757 0.55444 0.0
H429 H 0.03352 0.01371 0.47821 0.0
H430 H 0.08548 0.93102 0.44697 0.0
H431 H 0.15339 0.86045 0.44934 0.0
C432 C 0.58827 0.15576 0.25925 0.0
C433 C 0.56798 0.17016 0.29637 0.0
C434 C 0.55798 0.17453 0.23368 0.0
C435 C 0.50609 0.20795 0.24451 0.0
C436 C 0.4884 0.22498 0.28214 0.0
C437 C 0.51893 0.2062 0.30784 0.0
C438 C 0.46915 0.22477 0.21711 0.0
C439 C 0.46349 0.19542 0.18126 0.0
C440 C 0.42426 0.20869 0.15314 0.0
C441 C 0.40685 0.16905 0.121 0.0
C442 C 0.37063 0.17918 0.09355 0.0
C443 C 0.3516 0.22947 0.09711 0.0
H444 H 0.41874 0.29107 0.18074 0.0
C445 C 0.36917 0.26938 0.12921 0.0
C446 C 0.40518 0.25918 0.1569 0.0
H447 H 0.35566 0.30868 0.13283 0.0
H448 H 0.62702 0.12905 0.24976 0.0
H449 H 0.57511 0.16231 0.2054 0.0
H450 H 0.44926 0.25136 0.29142 0.0
H451 H 0.50229 0.21808 0.33626 0.0
H452 H 0.44244 0.26017 0.22748 0.0
H453 H 0.48591 0.15793 0.17219 0.0
H454 H 0.42081 0.12977 0.1172 0.0
H455 H 0.35691 0.1473 0.06977 0.0
C456 C 0.57241 0.83251 0.2444 0.0
C457 C 0.62641 0.80177 0.23294 0.0
C458 C 0.53054 0.82358 0.2703 0.0
C459 C 0.54182 0.78351 0.28514 0.0
C460 C 0.59441 0.75164 0.2724 0.0
C461 C 0.63636 0.7608 0.24685 0.0
C462 C 0.50018 0.77318 0.31362 0.0
C463 C 0.46362 0.80906 0.33749 0.0
C464 C 0.42586 0.79943 0.36781 0.0
C465 C 0.40739 0.84145 0.39827 0.0
C466 C 0.37259 0.83419 0.4275 0.0
C467 C 0.35544 0.78462 0.42708 0.0
H468 H 0.41829 0.71646 0.3435 0.0
C469 C 0.37261 0.7426 0.39624 0.0
C470 C 0.40716 0.74985 0.3669 0.0
H471 H 0.35958 0.70389 0.39473 0.0
H472 H 0.56346 0.86431 0.23412 0.0
H473 H 0.48954 0.84805 0.27849 0.0
H474 H 0.60392 0.72007 0.28287 0.0
H475 H 0.677 0.73592 0.23811 0.0
H476 H 0.50382 0.73536 0.31665 0.0
H477 H 0.46432 0.84809 0.3365 0.0
H478 H 0.42023 0.88015 0.39962 0.0
H479 H 0.35858 0.86755 0.45021 0.0
C480 C 0.64124 0.73941 0.8987 0.0
C481 C 0.66541 0.77802 0.92953 0.0
C482 C 0.61364 0.75188 0.86922 0.0
C483 C 0.60925 0.80348 0.87017 0.0
C484 C 0.63341 0.84179 0.90118 0.0
C485 C 0.66125 0.82928 0.93032 0.0
C486 C 0.58102 0.81999 0.83988 0.0
C487 C 0.55285 0.78899 0.80905 0.0
C488 C 0.52448 0.80914 0.78057 0.0
C489 C 0.47328 0.78331 0.75926 0.0
C490 C 0.44263 0.80381 0.73452 0.0
C491 C 0.46282 0.8505 0.73061 0.0
H492 H 0.58823 0.87384 0.78901 0.0
C493 C 0.51635 0.87458 0.7502 0.0
C494 C 0.54708 0.85405 0.77464 0.0
H495 H 0.53389 0.91 0.74707 0.0
H496 H 0.64319 0.69955 0.89747 0.0
H497 H 0.59623 0.72086 0.84599 0.0
H498 H 0.6312 0.88185 0.90285 0.0
H499 H 0.6805 0.85989 0.95323 0.0
H500 H 0.58221 0.86093 0.84402 0.0
H501 H 0.54702 0.74846 0.80521 0.0
H502 H 0.45549 0.74819 0.76275 0.0
H503 H 0.40154 0.78438 0.71973 0.0
C504 C 0.64928 0.20032 0.60841 0.0
C505 C 0.66026 0.24943 0.60577 0.0
C506 C 0.61555 0.19429 0.63838 0.0
C507 C 0.59225 0.23737 0.66659 0.0
C508 C 0.60244 0.28637 0.66363 0.0
C509 C 0.63656 0.29242 0.63374 0.0
C510 C 0.55486 0.2322 0.69844 0.0
C511 C 0.56358 0.19336 0.7124 0.0
C512 C 0.5232 0.18343 0.74157 0.0
C513 C 0.52472 0.13407 0.74494 0.0
C514 C 0.48407 0.1208 0.7693 0.0
C515 C 0.44125 0.15678 0.79134 0.0
H516 H 0.48104 0.25935 0.76429 0.0
C517 C 0.44202 0.20715 0.78984 0.0
C518 C 0.48254 0.22043 0.7651 0.0
H519 H 0.40943 0.23557 0.80658 0.0
H520 H 0.66725 0.16646 0.58747 0.0
H521 H 0.60693 0.15575 0.63895 0.0
H522 H 0.58434 0.32015 0.68465 0.0
H523 H 0.64373 0.33078 0.63236 0.0
H524 H 0.51932 0.26123 0.71025 0.0
H525 H 0.60056 0.16554 0.7006 0.0
H526 H 0.55592 0.1049 0.72764 0.0
H527 H 0.48482 0.08177 0.77015 0.0
C528 C 0.90709 0.74203 0.09995 0.0
C529 C 0.84355 0.72781 0.09321 0.0
C530 C 0.93759 0.738 0.13151 0.0
C531 C 0.90502 0.71953 0.15702 0.0
C532 C 0.84129 0.70595 0.15036 0.0
C533 C 0.81096 0.70992 0.11886 0.0
C534 C 0.93506 0.71425 0.19102 0.0
C535 C 0.99767 0.70868 0.19458 0.0
C536 C 0.02608 0.69628 0.22647 0.0
C537 C 0.08112 0.66636 0.22031 0.0
C538 C 0.10622 0.64967 0.24835 0.0
C539 C 0.07761 0.66341 0.28351 0.0
H540 H 0.95764 0.73648 0.26832 0.0
C541 C 0.02484 0.69599 0.29058 0.0
C542 C 0.99905 0.71217 0.26225 0.0
H543 H 1.00191 0.70701 0.31746 0.0
H544 H 0.93294 0.75727 0.08125 0.0
H545 H 0.98615 0.75034 0.13605 0.0
H546 H 0.81474 0.69202 0.16957 0.0
H547 H 0.7618 0.69893 0.11466 0.0
H548 H 0.90367 0.71057 0.21265 0.0
H549 H 0.02885 0.70766 0.17168 0.0
H550 H 0.10336 0.65401 0.19322 0.0
H551 H 0.14711 0.62468 0.24225 0.0
C552 C 0.8553 0.33192 0.43146 0.0
C553 C 0.847 0.28288 0.43477 0.0
C554 C 0.88707 0.33812 0.4009 0.0
C555 C 0.91076 0.29523 0.37266 0.0
C556 C 0.90317 0.24631 0.37628 0.0
C557 C 0.87124 0.24011 0.40681 0.0
C558 C 0.94531 0.30041 0.33983 0.0
C559 C 0.93405 0.3389 0.32584 0.0
C560 C 0.96923 0.34806 0.29442 0.0
C561 C 0.95085 0.39012 0.28344 0.0
C562 C 0.98526 0.40408 0.25685 0.0
C563 C 0.03902 0.3762 0.24027 0.0
H564 H 0.03783 0.28585 0.28383 0.0
C565 C 0.05593 0.3325 0.2496 0.0
C566 C 0.02162 0.3186 0.27654 0.0
H567 H 0.09748 0.31057 0.23741 0.0
H568 H 0.83678 0.3656 0.45234 0.0
H569 H 0.89367 0.37666 0.39985 0.0
H570 H 0.92153 0.21267 0.35523 0.0
H571 H 0.86605 0.2018 0.40865 0.0
H572 H 0.97932 0.27075 0.32661 0.0
H573 H 0.89672 0.36603 0.33832 0.0
H574 H 0.91066 0.41345 0.29632 0.0
H575 H 0.97084 0.43776 0.24999 0.0
C576 C 0.02682 0.38576 0.75455 0.0
C577 C 0.97037 0.36523 0.7367 0.0
C578 C 0.05524 0.36495 0.77958 0.0
C579 C 0.02738 0.32337 0.78787 0.0
C580 C 0.97277 0.30107 0.76849 0.0
C581 C 0.94446 0.32178 0.74317 0.0
C582 C 0.05374 0.30297 0.81675 0.0
C583 C 0.08765 0.33231 0.84578 0.0
C584 C 0.11312 0.31534 0.87652 0.0
C585 C 0.13769 0.35306 0.90768 0.0
C586 C 0.16284 0.33997 0.93727 0.0
C587 C 0.16383 0.28871 0.93677 0.0
H588 H 0.09807 0.23308 0.85194 0.0
C589 C 0.14018 0.25057 0.90547 0.0
C590 C 0.11511 0.26366 0.87559 0.0
H591 H 0.14078 0.21061 0.90408 0.0
H592 H 0.04878 0.41845 0.74942 0.0
H593 H 0.09891 0.38181 0.79241 0.0
H594 H 0.95076 0.26855 0.77383 0.0
H595 H 0.90102 0.30508 0.72979 0.0
H596 H 0.04125 0.26405 0.81506 0.0
H597 H 0.09525 0.37235 0.84836 0.0
H598 H 0.13757 0.39311 0.90923 0.0
H599 H 0.18209 0.37022 0.96043 0.0
C600 C 0.14408 0.69646 0.595 0.0
C601 C 0.15334 0.74507 0.59105 0.0
C602 C 0.10311 0.69024 0.6222 0.0
C603 C 0.07083 0.73274 0.64626 0.0
C604 C 0.07992 0.78118 0.64203 0.0
C605 C 0.121 0.78739 0.61496 0.0
C606 C 0.02596 0.72809 0.67528 0.0
C607 C 0.02876 0.69052 0.69098 0.0
C608 C 0.98464 0.687 0.72071 0.0
C609 C 1.00394 0.66051 0.74488 0.0
C610 C 0.96371 0.65594 0.77291 0.0
C611 C 0.90275 0.6772 0.77715 0.0
H612 H 0.9059 0.72746 0.70619 0.0
C613 C 0.88313 0.70324 0.75272 0.0
C614 C 0.92345 0.70804 0.72481 0.0
H615 H 0.83655 0.7202 0.75526 0.0
H616 H 0.16871 0.6632 0.57713 0.0
H617 H 0.0962 0.65202 0.62379 0.0
H618 H 0.05531 0.81452 0.65987 0.0
H619 H 0.12668 0.82528 0.61241 0.0
H620 H 0.99156 0.75866 0.68544 0.0
H621 H 0.0668 0.66264 0.6833 0.0
H622 H 0.05047 0.64341 0.74218 0.0
H623 H 0.97997 0.63494 0.79087 0.0
loop_
_geom_bond_atom_site_label_1
_geom_bond_atom_site_label_2
_geom_bond_distance
_geom_bond_site_symmetry_2
_ccdc_geom_bond_type
Tb0 N29 2.617 . S
Tb0 N35 2.572 . S
Tb0 O44 2.465 . S
Tb0 O45 2.387 1_556 S
Tb0 O47 2.428 . S
Tb0 O48 2.308 . S
Tb0 O52 2.349 . S
Tb0 O55 2.393 . S
Tb0 C64 2.802 . S
C1 N2 1.379 . S
C1 C4 1.416 . S
C1 C8 1.424 . S
N2 C1 1.379 . S
N2 C5 1.334 . S
N2 Tb11 2.617 . S
C3 C5 1.390 . S
C3 C6 1.339 . S
C3 H23 0.930 . S
C4 C1 1.416 . S
C4 C6 1.416 . S
C4 C10 1.448 1_455 S
C5 N2 1.334 . S
C5 C3 1.390 . S
C5 H16 0.930 . S
C6 C3 1.339 . S
C6 C4 1.416 . S
C6 H27 0.930 . S
C7 C8 1.413 1_655 S
C7 C9 1.427 1_554 S
C7 C13 1.416 1_554 S
C8 C1 1.424 . S
C8 C7 1.413 1_455 S
C8 N12 1.361 . S
C9 C7 1.427 1_556 S
C9 C10 1.328 1_556 S
C9 H24 0.929 . S
C10 C4 1.448 1_655 S
C10 C9 1.328 1_554 S
C10 H25 0.930 . S
Tb11 N2 2.617 . S
Tb11 N12 2.572 . S
Tb11 O46 2.349 . S
Tb11 O49 2.393 . S
Tb11 O50 2.465 . S
Tb11 O51 2.387 1_554 S
Tb11 O53 2.428 . S
Tb11 O54 2.308 . S
Tb11 C75 2.802 . S
N12 C8 1.361 . S
N12 Tb11 2.572 . S
N12 C14 1.340 . S
C13 C7 1.416 1_556 S
C13 C15 1.341 . S
C13 H21 0.931 . S
C14 N12 1.340 . S
C14 C15 1.400 1_454 S
C14 H20 0.930 . S
C15 C13 1.341 . S
C15 C14 1.400 1_656 S
C15 H17 0.928 . S
H16 C5 0.930 . S
H17 C15 0.928 . S
H18 C33 0.930 . S
H19 C40 0.929 . S
H20 C14 0.930 . S
H21 C13 0.931 . S
H22 C36 0.930 . S
H23 C3 0.930 . S
H24 C9 0.929 . S
H25 C10 0.930 . S
H26 C31 0.930 1_565 S
H27 C6 0.930 . S
H28 C39 0.931 . S
N29 Tb0 2.617 . S
N29 C30 1.379 . S
N29 C33 1.334 . S
C30 N29 1.379 . S
C30 C32 1.416 . S
C30 C38 1.424 . S
C31 H26 0.930 1_545 S
C31 C33 1.390 . S
C31 C34 1.339 . S
C32 C30 1.416 . S
C32 C34 1.416 . S
C32 C65 1.448 . S
C33 H18 0.930 . S
C33 N29 1.334 . S
C33 C31 1.390 . S
C34 C31 1.339 . S
C34 C32 1.416 . S
C34 H41 0.930 1_545 S
N35 Tb0 2.572 . S
N35 C36 1.340 . S
N35 C38 1.361 . S
C36 H22 0.930 . S
C36 N35 1.340 . S
C36 C40 1.407 1_556 S
C37 C38 1.413 . S
C37 C39 1.416 1_556 S
C37 C66 1.427 1_556 S
C38 C30 1.424 . S
C38 N35 1.361 . S
C38 C37 1.413 . S
C39 H28 0.931 . S
C39 C37 1.416 1_554 S
C39 C40 1.332 . S
C40 H19 0.929 . S
C40 C36 1.407 1_554 S
C40 C39 1.332 . S
H41 C34 0.930 1_565 S
H42 C65 0.930 . S
H43 C66 0.929 . S
O44 Tb0 2.465 . S
O44 C64 1.264 . S
O45 Tb0 2.387 1_554 S
O45 C56 1.264 . S
O46 Tb11 2.349 . S
O46 C56 1.243 . S
O47 Tb0 2.428 . S
O47 C64 1.256 . S
O48 Tb0 2.308 . S
O48 C63 1.266 1_556 S
O49 Tb11 2.393 . S
O49 C63 1.248 . S
O50 Tb11 2.465 . S
O50 C75 1.264 . S
O51 Tb11 2.387 1_556 S
O51 C67 1.264 . S
O52 Tb0 2.349 . S
O52 C67 1.243 . S
O53 Tb11 2.428 . S
O53 C75 1.256 . S
O54 Tb11 2.308 . S
O54 C74 1.266 1_554 S
O55 Tb0 2.393 . S
O55 C74 1.248 . S
C56 O45 1.264 . S
C56 O46 1.243 . S
C57 C60 1.399 . S
C57 C62 1.383 . S
C57 C64 1.496 . S
C58 C59 1.399 . S
C58 C62 1.389 . S
C59 C58 1.399 . S
C59 C61 1.380 . S
C59 H76 0.929 . S
C60 C57 1.399 . S
C60 C61 1.392 . S
C60 H77 0.929 . S
C61 C59 1.380 . S
C61 C60 1.392 . S
C61 H78 0.929 . S
C62 C57 1.383 . S
C62 C58 1.389 . S
C62 H79 0.931 . S
C63 O48 1.266 1_554 S
C63 O49 1.248 . S
C64 Tb0 2.802 . S
C64 O44 1.264 . S
C64 O47 1.256 . S
C64 C57 1.496 . S
C65 C32 1.448 . S
C65 H42 0.930 . S
C65 C66 1.328 1_556 S
C66 C37 1.427 1_554 S
C66 H43 0.929 . S
C66 C65 1.328 1_554 S
C67 O51 1.264 . S
C67 O52 1.243 . S
C68 C71 1.399 . S
C68 C72 1.383 . S
C68 C75 1.496 . S
C69 C70 1.399 . S
C69 C72 1.389 . S
C70 C69 1.399 . S
C70 C73 1.380 . S
C70 H80 0.929 . S
C71 C68 1.399 . S
C71 C73 1.392 . S
C71 H81 0.929 . S
C72 C68 1.383 . S
C72 C69 1.389 . S
C72 H82 0.931 . S
C73 C70 1.380 . S
C73 C71 1.392 . S
C73 H83 0.929 . S
C74 O54 1.266 1_556 S
C74 O55 1.248 . S
C75 Tb11 2.802 . S
C75 O50 1.264 . S
C75 O53 1.256 . S
C75 C68 1.496 . S
H76 C59 0.929 . S
H77 C60 0.929 . S
H78 C61 0.929 . S
H79 C62 0.931 . S
H80 C70 0.929 . S
H81 C71 0.929 . S
H82 C72 0.931 . S
H83 C73 0.929 . S
Tb84 N113 2.617 . S
Tb84 N119 2.572 . S
Tb84 O128 2.465 . S
Tb84 O129 2.387 1_556 S
Tb84 O131 2.428 . S
Tb84 O132 2.308 . S
Tb84 O136 2.349 . S
Tb84 O139 2.393 . S
Tb84 C148 2.802 . S
C85 N86 1.379 . S
C85 C88 1.416 . S
C85 C92 1.424 . S
N86 C85 1.379 . S
N86 C89 1.334 . S
N86 Tb95 2.617 . S
C87 C89 1.390 . S
C87 C90 1.339 . S
C87 H107 0.930 1_565 S
C88 C85 1.416 . S
C88 C90 1.416 . S
C88 C94 1.448 . S
C89 N86 1.334 . S
C89 C87 1.390 . S
C89 H100 0.930 . S
C90 C87 1.339 . S
C90 C88 1.416 . S
C90 H111 0.930 1_565 S
C91 C92 1.413 . S
C91 C93 1.427 1_554 S
C91 C97 1.416 1_554 S
C92 C85 1.424 . S
C92 C91 1.413 . S
C92 N96 1.361 . S
C93 C91 1.427 1_556 S
C93 C94 1.328 1_556 S
C93 H108 0.929 . S
C94 C88 1.448 . S
C94 C93 1.328 1_554 S
C94 H109 0.930 . S
Tb95 N86 2.617 . S
Tb95 N96 2.572 . S
Tb95 O130 2.349 . S
Tb95 O133 2.393 . S
Tb95 O134 2.465 . S
Tb95 O135 2.387 1_554 S
Tb95 O137 2.428 . S
Tb95 O138 2.308 . S
Tb95 C159 2.802 . S
N96 C92 1.361 . S
N96 Tb95 2.572 . S
N96 C98 1.340 . S
C97 C91 1.416 1_556 S
C97 C99 1.341 . S
C97 H105 0.931 . S
C98 N96 1.340 . S
C98 C99 1.400 1_554 S
C98 H104 0.930 . S
C99 C97 1.341 . S
C99 C98 1.400 1_556 S
C99 H101 0.928 . S
H100 C89 0.930 . S
H101 C99 0.928 . S
H102 C117 0.930 . S
H103 C124 0.929 . S
H104 C98 0.930 . S
H105 C97 0.931 . S
H106 C120 0.930 . S
H107 C87 0.930 1_545 S
H108 C93 0.929 . S
H109 C94 0.930 . S
H110 C115 0.930 . S
H111 C90 0.930 1_545 S
H112 C123 0.931 . S
N113 Tb84 2.617 . S
N113 C114 1.379 . S
N113 C117 1.334 . S
C114 N113 1.379 . S
C114 C116 1.416 . S
C114 C122 1.424 . S
C115 H110 0.930 . S
C115 C117 1.390 . S
C115 C118 1.339 . S
C116 C114 1.416 . S
C116 C118 1.416 . S
C116 C149 1.448 1_655 S
C117 H102 0.930 . S
C117 N113 1.334 . S
C117 C115 1.390 . S
C118 C115 1.339 . S
C118 C116 1.416 . S
C118 H125 0.930 . S
N119 Tb84 2.572 . S
N119 C120 1.340 . S
N119 C122 1.361 . S
C120 H106 0.930 . S
C120 N119 1.340 . S
C120 C124 1.407 1_656 S
C121 C122 1.413 1_455 S
C121 C123 1.416 1_556 S
C121 C150 1.427 1_556 S
C122 C114 1.424 . S
C122 N119 1.361 . S
C122 C121 1.413 1_655 S
C123 H112 0.931 . S
C123 C121 1.416 1_554 S
C123 C124 1.332 . S
C124 H103 0.929 . S
C124 C120 1.407 1_454 S
C124 C123 1.332 . S
H125 C118 0.930 . S
H126 C149 0.930 . S
H127 C150 0.929 . S
O128 Tb84 2.465 . S
O128 C148 1.264 . S
O129 Tb84 2.387 1_554 S
O129 C140 1.264 . S
O130 Tb95 2.349 . S
O130 C140 1.243 . S
O131 Tb84 2.428 . S
O131 C148 1.256 . S
O132 Tb84 2.308 . S
O132 C147 1.266 1_556 S
O133 Tb95 2.393 . S
O133 C147 1.248 . S
O134 Tb95 2.465 . S
O134 C159 1.264 . S
O135 Tb95 2.387 1_556 S
O135 C151 1.264 . S
O136 Tb84 2.349 . S
O136 C151 1.243 . S
O137 Tb95 2.428 . S
O137 C159 1.256 . S
O138 Tb95 2.308 . S
O138 C158 1.266 1_554 S
O139 Tb84 2.393 . S
O139 C158 1.248 . S
C140 O129 1.264 . S
C140 O130 1.243 . S
C141 C144 1.399 . S
C141 C146 1.383 . S
C141 C148 1.496 . S
C142 C143 1.399 . S
C142 C146 1.389 . S
C143 C142 1.399 . S
C143 C145 1.380 . S
C143 H160 0.929 . S
C144 C141 1.399 . S
C144 C145 1.392 . S
C144 H161 0.929 . S
C145 C143 1.380 . S
C145 C144 1.392 . S
C145 H162 0.929 . S
C146 C141 1.383 . S
C146 C142 1.389 . S
C146 H163 0.931 . S
C147 O132 1.266 1_554 S
C147 O133 1.248 . S
C148 Tb84 2.802 . S
C148 O128 1.264 . S
C148 O131 1.256 . S
C148 C141 1.496 . S
C149 C116 1.448 1_455 S
C149 H126 0.930 . S
C149 C150 1.328 1_556 S
C150 C121 1.427 1_554 S
C150 H127 0.929 . S
C150 C149 1.328 1_554 S
C151 O135 1.264 . S
C151 O136 1.243 . S
C152 C155 1.399 . S
C152 C156 1.383 . S
C152 C159 1.496 . S
C153 C154 1.399 . S
C153 C156 1.389 . S
C154 C153 1.399 . S
C154 C157 1.380 . S
C154 H164 0.929 . S
C155 C152 1.399 . S
C155 C157 1.392 . S
C155 H165 0.929 . S
C156 C152 1.383 . S
C156 C153 1.389 . S
C156 H166 0.931 . S
C157 C154 1.380 . S
C157 C155 1.392 . S
C157 H167 0.929 . S
C158 O138 1.266 1_556 S
C158 O139 1.248 . S
C159 Tb95 2.802 . S
C159 O134 1.264 . S
C159 O137 1.256 . S
C159 C152 1.496 . S
H160 C143 0.929 . S
H161 C144 0.929 . S
H162 C145 0.929 . S
H163 C146 0.931 . S
H164 C154 0.929 . S
H165 C155 0.929 . S
H166 C156 0.931 . S
H167 C157 0.929 . S
Tb168 N197 2.617 . S
Tb168 N203 2.572 . S
Tb168 O212 2.465 . S
Tb168 O213 2.387 . S
Tb168 O215 2.428 . S
Tb168 O216 2.308 . S
Tb168 O220 2.349 . S
Tb168 O223 2.393 . S
Tb168 C232 2.802 . S
C169 N170 1.379 . S
C169 C172 1.416 . S
C169 C176 1.424 . S
N170 C169 1.379 . S
N170 C173 1.334 . S
N170 Tb179 2.617 . S
C171 C173 1.390 . S
C171 C174 1.339 . S
C171 H191 0.930 . S
C172 C169 1.416 . S
C172 C174 1.416 . S
C172 C178 1.448 1_455 S
C173 N170 1.334 . S
C173 C171 1.390 . S
C173 H184 0.930 . S
C174 C171 1.339 . S
C174 C172 1.416 . S
C174 H195 0.930 . S
C175 C176 1.413 1_655 S
C175 C177 1.427 . S
C175 C181 1.416 . S
C176 C169 1.424 . S
C176 C175 1.413 1_455 S
C176 N180 1.361 . S
C177 C175 1.427 . S
C177 C178 1.328 . S
C177 H192 0.929 . S
C178 C172 1.448 1_655 S
C178 C177 1.328 . S
C178 H193 0.930 . S
Tb179 N170 2.617 . S
Tb179 N180 2.572 . S
Tb179 O214 2.349 . S
Tb179 O217 2.393 . S
Tb179 O218 2.465 . S
Tb179 O219 2.387 . S
Tb179 O221 2.428 . S
Tb179 O222 2.308 . S
Tb179 C243 2.802 . S
N180 C176 1.361 . S
N180 Tb179 2.572 . S
N180 C182 1.340 . S
C181 C175 1.416 . S
C181 C183 1.332 . S
C181 H189 0.931 . S
C182 N180 1.340 . S
C182 C183 1.407 1_455 S
C182 H188 0.930 . S
C183 C181 1.332 . S
C183 C182 1.407 1_655 S
C183 H185 0.929 . S
H184 C173 0.930 . S
H185 C183 0.929 . S
H186 C201 0.930 . S
H187 C208 0.929 . S
H188 C182 0.930 . S
H189 C181 0.931 . S
H190 C204 0.930 . S
H191 C171 0.930 . S
H192 C177 0.929 . S
H193 C178 0.930 . S
H194 C199 0.930 1_545 S
H195 C174 0.930 . S
H196 C207 0.931 . S
N197 Tb168 2.617 . S
N197 C198 1.379 . S
N197 C201 1.334 . S
C198 N197 1.379 . S
C198 C200 1.416 . S
C198 C206 1.424 . S
C199 H194 0.930 1_565 S
C199 C201 1.390 . S
C199 C202 1.339 . S
C200 C198 1.416 . S
C200 C202 1.416 . S
C200 C233 1.448 . S
C201 H186 0.930 . S
C201 N197 1.334 . S
C201 C199 1.390 . S
C202 C199 1.339 . S
C202 C200 1.416 . S
C202 H209 0.930 1_565 S
N203 Tb168 2.572 . S
N203 C204 1.340 . S
N203 C206 1.361 . S
C204 H190 0.930 . S
C204 N203 1.340 . S
C204 C208 1.407 . S
C205 C206 1.413 . S
C205 C207 1.416 . S
C205 C234 1.427 . S
C206 C198 1.424 . S
C206 N203 1.361 . S
C206 C205 1.413 . S
C207 H196 0.931 . S
C207 C205 1.416 . S
C207 C208 1.332 . S
C208 H187 0.929 . S
C208 C204 1.407 . S
C208 C207 1.332 . S
H209 C202 0.930 1_545 S
H210 C233 0.930 . S
H211 C234 0.929 . S
O212 Tb168 2.465 . S
O212 C232 1.264 . S
O213 Tb168 2.387 . S
O213 C224 1.264 . S
O214 Tb179 2.349 . S
O214 C224 1.243 . S
O215 Tb168 2.428 . S
O215 C232 1.256 . S
O216 Tb168 2.308 . S
O216 C231 1.266 . S
O217 Tb179 2.393 . S
O217 C231 1.248 . S
O218 Tb179 2.465 . S
O218 C243 1.264 . S
O219 Tb179 2.387 . S
O219 C235 1.264 . S
O220 Tb168 2.349 . S
O220 C235 1.243 . S
O221 Tb179 2.428 . S
O221 C243 1.256 . S
O222 Tb179 2.308 . S
O222 C242 1.266 . S
O223 Tb168 2.393 . S
O223 C242 1.248 . S
C224 O213 1.264 . S
C224 O214 1.243 . S
C225 C228 1.399 . S
C225 C230 1.383 . S
C225 C232 1.496 . S
C226 C227 1.399 . S
C226 C230 1.389 . S
C227 C226 1.399 . S
C227 C229 1.380 . S
C227 H244 0.929 . S
C228 C225 1.399 . S
C228 C229 1.392 . S
C228 H245 0.929 . S
C229 C227 1.380 . S
C229 C228 1.392 . S
C229 H246 0.929 . S
C230 C225 1.383 . S
C230 C226 1.389 . S
C230 H247 0.931 . S
C231 O216 1.266 . S
C231 O217 1.248 . S
C232 Tb168 2.802 . S
C232 O212 1.264 . S
C232 O215 1.256 . S
C232 C225 1.496 . S
C233 C200 1.448 . S
C233 H210 0.930 . S
C233 C234 1.328 . S
C234 C205 1.427 . S
C234 H211 0.929 . S
C234 C233 1.328 . S
C235 O219 1.264 . S
C235 O220 1.243 . S
C236 C239 1.399 . S
C236 C240 1.383 . S
C236 C243 1.496 . S
C237 C238 1.399 . S
C237 C240 1.389 . S
C238 C237 1.399 . S
C238 C241 1.380 . S
C238 H248 0.929 . S
C239 C236 1.399 . S
C239 C241 1.392 . S
C239 H249 0.929 . S
C240 C236 1.383 . S
C240 C237 1.389 . S
C240 H250 0.931 . S
C241 C238 1.380 . S
C241 C239 1.392 . S
C241 H251 0.929 . S
C242 O222 1.266 . S
C242 O223 1.248 . S
C243 Tb179 2.802 . S
C243 O218 1.264 . S
C243 O221 1.256 . S
C243 C236 1.496 . S
H244 C227 0.929 . S
H245 C228 0.929 . S
H246 C229 0.929 . S
H247 C230 0.931 . S
H248 C238 0.929 . S
H249 C239 0.929 . S
H250 C240 0.931 . S
H251 C241 0.929 . S
Tb252 N281 2.617 . S
Tb252 N287 2.572 . S
Tb252 O296 2.465 . S
Tb252 O297 2.387 . S
Tb252 O299 2.428 . S
Tb252 O300 2.308 . S
Tb252 O304 2.349 . S
Tb252 O307 2.393 . S
Tb252 C316 2.802 . S
C253 N254 1.379 . S
C253 C256 1.416 . S
C253 C260 1.424 . S
N254 C253 1.379 . S
N254 C257 1.334 . S
N254 Tb263 2.617 . S
C255 C257 1.390 . S
C255 C258 1.339 . S
C255 H275 0.930 1_545 S
C256 C253 1.416 . S
C256 C258 1.416 . S
C256 C262 1.448 . S
C257 N254 1.334 . S
C257 C255 1.390 . S
C257 H268 0.930 . S
C258 C255 1.339 . S
C258 C256 1.416 . S
C258 H279 0.930 1_545 S
C259 C260 1.413 . S
C259 C261 1.427 . S
C259 C265 1.416 . S
C260 C253 1.424 . S
C260 C259 1.413 . S
C260 N264 1.361 . S
C261 C259 1.427 . S
C261 C262 1.328 . S
C261 H276 0.929 . S
C262 C256 1.448 . S
C262 C261 1.328 . S
C262 H277 0.930 . S
Tb263 N254 2.617 . S
Tb263 N264 2.572 . S
Tb263 O298 2.349 . S
Tb263 O301 2.393 . S
Tb263 O302 2.465 . S
Tb263 O303 2.387 . S
Tb263 O305 2.428 . S
Tb263 O306 2.308 . S
Tb263 C327 2.802 . S
N264 C260 1.361 . S
N264 Tb263 2.572 . S
N264 C266 1.340 . S
C265 C259 1.416 . S
C265 C267 1.332 . S
C265 H273 0.931 . S
C266 N264 1.340 . S
C266 C267 1.407 . S
C266 H272 0.930 . S
C267 C265 1.332 . S
C267 C266 1.407 . S
C267 H269 0.929 . S
H268 C257 0.930 . S
H269 C267 0.929 . S
H270 C285 0.930 . S
H271 C292 0.929 . S
H272 C266 0.930 . S
H273 C265 0.931 . S
H274 C288 0.930 . S
H275 C255 0.930 1_565 S
H276 C261 0.929 . S
H277 C262 0.930 . S
H278 C283 0.930 . S
H279 C258 0.930 1_565 S
H280 C291 0.931 . S
N281 Tb252 2.617 . S
N281 C282 1.379 . S
N281 C285 1.334 . S
C282 N281 1.379 . S
C282 C284 1.416 . S
C282 C290 1.424 . S
C283 H278 0.930 . S
C283 C285 1.390 . S
C283 C286 1.339 . S
C284 C282 1.416 . S
C284 C286 1.416 . S
C284 C317 1.448 1_655 S
C285 H270 0.930 . S
C285 N281 1.334 . S
C285 C283 1.390 . S
C286 C283 1.339 . S
C286 C284 1.416 . S
C286 H293 0.930 . S
N287 Tb252 2.572 . S
N287 C288 1.340 . S
N287 C290 1.361 . S
C288 H274 0.930 . S
C288 N287 1.340 . S
C288 C292 1.407 1_655 S
C289 C290 1.413 1_455 S
C289 C291 1.416 . S
C289 C318 1.427 . S
C290 C282 1.424 . S
C290 N287 1.361 . S
C290 C289 1.413 1_655 S
C291 H280 0.931 . S
C291 C289 1.416 . S
C291 C292 1.332 . S
C292 H271 0.929 . S
C292 C288 1.407 1_455 S
C292 C291 1.332 . S
H293 C286 0.930 . S
H294 C317 0.930 . S
H295 C318 0.929 . S
O296 Tb252 2.465 . S
O296 C316 1.264 . S
O297 Tb252 2.387 . S
O297 C308 1.264 . S
O298 Tb263 2.349 . S
O298 C308 1.243 . S
O299 Tb252 2.428 . S
O299 C316 1.256 . S
O300 Tb252 2.308 . S
O300 C315 1.266 . S
O301 Tb263 2.393 . S
O301 C315 1.248 . S
O302 Tb263 2.465 . S
O302 C327 1.264 . S
O303 Tb263 2.387 . S
O303 C319 1.264 . S
O304 Tb252 2.349 . S
O304 C319 1.243 . S
O305 Tb263 2.428 . S
O305 C327 1.256 . S
O306 Tb263 2.308 . S
O306 C326 1.266 . S
O307 Tb252 2.393 . S
O307 C326 1.248 . S
C308 O297 1.264 . S
C308 O298 1.243 . S
C309 C312 1.399 . S
C309 C314 1.383 . S
C309 C316 1.496 . S
C310 C311 1.399 . S
C310 C314 1.389 . S
C311 C310 1.399 . S
C311 C313 1.380 . S
C311 H328 0.929 . S
C312 C309 1.399 . S
C312 C313 1.392 . S
C312 H329 0.929 . S
C313 C311 1.380 . S
C313 C312 1.392 . S
C313 H330 0.929 . S
C314 C309 1.383 . S
C314 C310 1.389 . S
C314 H331 0.931 . S
C315 O300 1.266 . S
C315 O301 1.248 . S
C316 Tb252 2.802 . S
C316 O296 1.264 . S
C316 O299 1.256 . S
C316 C309 1.496 . S
C317 C284 1.448 1_455 S
C317 H294 0.930 . S
C317 C318 1.328 . S
C318 C289 1.427 . S
C318 H295 0.929 . S
C318 C317 1.328 . S
C319 O303 1.264 . S
C319 O304 1.243 . S
C320 C323 1.399 . S
C320 C324 1.383 . S
C320 C327 1.496 . S
C321 C322 1.399 . S
C321 C324 1.389 . S
C322 C321 1.399 . S
C322 C325 1.380 . S
C322 H332 0.929 . S
C323 C320 1.399 . S
C323 C325 1.392 . S
C323 H333 0.929 . S
C324 C320 1.383 . S
C324 C321 1.389 . S
C324 H334 0.931 . S
C325 C322 1.380 . S
C325 C323 1.392 . S
C325 H335 0.929 . S
C326 O306 1.266 . S
C326 O307 1.248 . S
C327 Tb263 2.802 . S
C327 O302 1.264 . S
C327 O305 1.256 . S
C327 C320 1.496 . S
H328 C311 0.929 . S
H329 C312 0.929 . S
H330 C313 0.929 . S
H331 C314 0.931 . S
H332 C322 0.929 . S
H333 C323 0.929 . S
H334 C324 0.931 . S
H335 C325 0.929 . S
C336 C337 1.395 . S
C336 C338 1.383 . S
C336 H352 0.951 . S
C337 C336 1.395 . S
C337 C341 1.378 1_554 S
C338 C336 1.383 . S
C338 C339 1.402 . S
C338 H353 0.951 . S
C339 C338 1.402 . S
C339 C340 1.375 1_554 S
C339 C342 1.481 . S
C340 C339 1.375 1_556 S
C340 C341 1.367 . S
C340 H354 0.951 . S
C341 C337 1.378 1_556 S
C341 C340 1.367 . S
C341 H355 0.950 . S
C342 C339 1.481 . S
C342 C343 1.297 . S
C342 H356 0.950 1_554 S
C343 C342 1.297 . S
C343 C344 1.479 . S
C343 H357 0.950 . S
C344 C343 1.479 . S
C344 C345 1.375 . S
C344 C350 1.404 . S
C345 C344 1.375 . S
C345 C346 1.369 . S
C345 H358 0.950 . S
C346 C345 1.369 . S
C346 C347 1.392 . S
C346 H359 0.951 . S
C347 C346 1.392 . S
C347 C349 1.384 . S
H348 C350 0.949 . S
C349 C347 1.384 . S
C349 C350 1.385 . S
C349 H351 0.950 1_554 S
C350 C344 1.404 . S
C350 H348 0.949 . S
C350 C349 1.385 . S
H351 C349 0.950 1_556 S
H352 C336 0.951 . S
H353 C338 0.951 . S
H354 C340 0.951 . S
H355 C341 0.950 . S
H356 C342 0.950 1_556 S
H357 C343 0.950 . S
H358 C345 0.950 . S
H359 C346 0.951 . S
C360 C361 1.386 . S
C360 C362 1.383 . S
C360 H376 0.951 . S
C361 C360 1.386 . S
C361 C365 1.383 . S
C362 C360 1.383 . S
C362 C363 1.402 . S
C362 H377 0.951 . S
C363 C362 1.402 . S
C363 C364 1.375 . S
C363 C366 1.481 . S
C364 C363 1.375 . S
C364 C365 1.367 . S
C364 H378 0.951 . S
C365 C361 1.383 . S
C365 C364 1.367 . S
C365 H379 0.950 . S
C366 C363 1.481 . S
C366 C367 1.297 . S
C366 H380 0.950 . S
C367 C366 1.297 . S
C367 C368 1.479 . S
C367 H381 0.950 . S
C368 C367 1.479 . S
C368 C369 1.375 . S
C368 C374 1.404 . S
C369 C368 1.375 . S
C369 C370 1.369 . S
C369 H382 0.950 . S
C370 C369 1.369 . S
C370 C371 1.392 . S
C370 H383 0.951 . S
C371 C370 1.392 . S
C371 C373 1.384 . S
H372 C374 0.949 . S
C373 C371 1.384 . S
C373 C374 1.385 . S
C373 H375 0.950 . S
C374 C368 1.404 . S
C374 H372 0.949 . S
C374 C373 1.385 . S
H375 C373 0.950 . S
H376 C360 0.951 . S
H377 C362 0.951 . S
H378 C364 0.951 . S
H379 C365 0.950 . S
H380 C366 0.950 . S
H381 C367 0.950 . S
H382 C369 0.950 . S
H383 C370 0.951 . S
C384 C385 1.384 1_556 S
C384 C386 1.383 . S
C384 H400 0.951 . S
C385 C384 1.384 1_554 S
C385 C389 1.386 . S
C386 C384 1.383 . S
C386 C387 1.402 1_556 S
C386 H401 0.951 . S
C387 C386 1.402 1_554 S
C387 C388 1.375 . S
C387 C390 1.481 1_545 S
C388 C387 1.375 . S
C388 C389 1.367 . S
C388 H402 0.951 . S
C389 C385 1.386 . S
C389 C388 1.367 . S
C389 H403 0.950 . S
C390 C387 1.481 1_565 S
C390 C391 1.297 1_454 S
C390 H404 0.950 . S
C391 C390 1.297 1_656 S
C391 C392 1.479 . S
C391 H405 0.950 . S
C392 C391 1.479 . S
C392 C393 1.375 . S
C392 C398 1.404 1_556 S
C393 C392 1.375 . S
C393 C394 1.369 . S
C393 H406 0.950 . S
C394 C393 1.369 . S
C394 C395 1.392 . S
C394 H407 0.951 . S
C395 C394 1.392 . S
C395 C397 1.384 1_556 S
H396 C398 0.949 . S
C397 C395 1.384 1_554 S
C397 C398 1.385 . S
C397 H399 0.950 . S
C398 C392 1.404 1_554 S
C398 H396 0.949 . S
C398 C397 1.385 . S
H399 C397 0.950 . S
H400 C384 0.951 . S
H401 C386 0.951 . S
H402 C388 0.951 . S
H403 C389 0.950 . S
H404 C390 0.950 . S
H405 C391 0.950 . S
H406 C393 0.950 . S
H407 C394 0.951 . S
C408 C409 1.386 . S
C408 C410 1.383 . S
C408 H424 0.951 . S
C409 C408 1.386 . S
C409 C413 1.383 . S
C410 C408 1.383 . S
C410 C411 1.402 . S
C410 H425 0.951 . S
C411 C410 1.402 . S
C411 C412 1.375 . S
C411 C414 1.481 1_655 S
C412 C411 1.375 . S
C412 C413 1.367 . S
C412 H426 0.951 . S
C413 C409 1.383 . S
C413 C412 1.367 . S
C413 H427 0.950 . S
C414 C411 1.481 1_455 S
C414 C415 1.297 1_545 S
C414 H428 0.950 . S
C415 C414 1.297 1_565 S
C415 C416 1.479 . S
C415 H429 0.950 . S
C416 C415 1.479 . S
C416 C417 1.375 . S
C416 C422 1.404 . S
C417 C416 1.375 . S
C417 C418 1.369 . S
C417 H430 0.950 . S
C418 C417 1.369 . S
C418 C419 1.392 . S
C418 H431 0.951 . S
C419 C418 1.392 . S
C419 C421 1.384 . S
H420 C422 0.949 . S
C421 C419 1.384 . S
C421 C422 1.385 . S
C421 H423 0.950 . S
C422 C416 1.404 . S
C422 H420 0.949 . S
C422 C421 1.385 . S
H423 C421 0.950 . S
H424 C408 0.951 . S
H425 C410 0.951 . S
H426 C412 0.951 . S
H427 C413 0.950 . S
H428 C414 0.950 . S
H429 C415 0.950 . S
H430 C417 0.950 . S
H431 C418 0.951 . S
C432 C433 1.386 . S
C432 C434 1.383 . S
C432 H448 0.951 . S
C433 C432 1.386 . S
C433 C437 1.383 . S
C434 C432 1.383 . S
C434 C435 1.402 . S
C434 H449 0.951 . S
C435 C434 1.402 . S
C435 C436 1.375 . S
C435 C438 1.481 . S
C436 C435 1.375 . S
C436 C437 1.367 . S
C436 H450 0.951 . S
C437 C433 1.383 . S
C437 C436 1.367 . S
C437 H451 0.950 . S
C438 C435 1.481 . S
C438 C439 1.297 . S
C438 H452 0.950 . S
C439 C438 1.297 . S
C439 C440 1.479 . S
C439 H453 0.950 . S
C440 C439 1.479 . S
C440 C441 1.375 . S
C440 C446 1.404 . S
C441 C440 1.375 . S
C441 C442 1.369 . S
C441 H454 0.950 . S
C442 C441 1.369 . S
C442 C443 1.392 . S
C442 H455 0.951 . S
C443 C442 1.392 . S
C443 C445 1.384 . S
H444 C446 0.949 . S
C445 C443 1.384 . S
C445 C446 1.385 . S
C445 H447 0.950 . S
C446 C440 1.404 . S
C446 H444 0.949 . S
C446 C445 1.385 . S
H447 C445 0.950 . S
H448 C432 0.951 . S
H449 C434 0.951 . S
H450 C436 0.951 . S
H451 C437 0.950 . S
H452 C438 0.950 . S
H453 C439 0.950 . S
H454 C441 0.950 . S
H455 C442 0.951 . S
C456 C457 1.386 . S
C456 C458 1.383 . S
C456 H472 0.951 . S
C457 C456 1.386 . S
C457 C461 1.383 . S
C458 C456 1.383 . S
C458 C459 1.402 . S
C458 H473 0.951 . S
C459 C458 1.402 . S
C459 C460 1.375 . S
C459 C462 1.481 . S
C460 C459 1.375 . S
C460 C461 1.367 . S
C460 H474 0.951 . S
C461 C457 1.383 . S
C461 C460 1.367 . S
C461 H475 0.950 . S
C462 C459 1.481 . S
C462 C463 1.297 . S
C462 H476 0.950 . S
C463 C462 1.297 . S
C463 C464 1.479 . S
C463 H477 0.950 . S
C464 C463 1.479 . S
C464 C465 1.375 . S
C464 C470 1.404 . S
C465 C464 1.375 . S
C465 C466 1.369 . S
C465 H478 0.950 . S
C466 C465 1.369 . S
C466 C467 1.392 . S
C466 H479 0.951 . S
C467 C466 1.392 . S
C467 C469 1.384 . S
H468 C470 0.949 . S
C469 C467 1.384 . S
C469 C470 1.385 . S
C469 H471 0.950 . S
C470 C464 1.404 . S
C470 H468 0.949 . S
C470 C469 1.385 . S
H471 C469 0.950 . S
H472 C456 0.951 . S
H473 C458 0.951 . S
H474 C460 0.951 . S
H475 C461 0.950 . S
H476 C462 0.950 . S
H477 C463 0.950 . S
H478 C465 0.950 . S
H479 C466 0.951 . S
C480 C481 1.386 . S
C480 C482 1.383 . S
C480 H496 0.951 . S
C481 C480 1.386 . S
C481 C485 1.383 . S
C482 C480 1.383 . S
C482 C483 1.402 . S
C482 H497 0.951 . S
C483 C482 1.402 . S
C483 C484 1.375 . S
C483 C486 1.481 . S
C484 C483 1.375 . S
C484 C485 1.367 . S
C484 H498 0.951 . S
C485 C481 1.383 . S
C485 C484 1.367 . S
C485 H499 0.950 . S
C486 C483 1.481 . S
C486 C487 1.297 . S
C486 H500 0.950 . S
C487 C486 1.297 . S
C487 C488 1.479 . S
C487 H501 0.950 . S
C488 C487 1.479 . S
C488 C489 1.375 . S
C488 C494 1.404 . S
C489 C488 1.375 . S
C489 C490 1.369 . S
C489 H502 0.950 . S
C490 C489 1.369 . S
C490 C491 1.392 . S
C490 H503 0.951 . S
C491 C490 1.392 . S
C491 C493 1.384 . S
H492 C494 0.949 . S
C493 C491 1.384 . S
C493 C494 1.385 . S
C493 H495 0.950 . S
C494 C488 1.404 . S
C494 H492 0.949 . S
C494 C493 1.385 . S
H495 C493 0.950 . S
H496 C480 0.951 . S
H497 C482 0.951 . S
H498 C484 0.951 . S
H499 C485 0.950 . S
H500 C486 0.950 . S
H501 C487 0.950 . S
H502 C489 0.950 . S
H503 C490 0.951 . S
C504 C505 1.386 . S
C504 C506 1.383 . S
C504 H520 0.951 . S
C505 C504 1.386 . S
C505 C509 1.383 . S
C506 C504 1.383 . S
C506 C507 1.402 . S
C506 H521 0.951 . S
C507 C506 1.402 . S
C507 C508 1.375 . S
C507 C510 1.481 . S
C508 C507 1.375 . S
C508 C509 1.367 . S
C508 H522 0.951 . S
C509 C505 1.383 . S
C509 C508 1.367 . S
C509 H523 0.950 . S
C510 C507 1.481 . S
C510 C511 1.297 . S
C510 H524 0.950 . S
C511 C510 1.297 . S
C511 C512 1.479 . S
C511 H525 0.950 . S
C512 C511 1.479 . S
C512 C513 1.375 . S
C512 C518 1.404 . S
C513 C512 1.375 . S
C513 C514 1.369 . S
C513 H526 0.950 . S
C514 C513 1.369 . S
C514 C515 1.392 . S
C514 H527 0.951 . S
C515 C514 1.392 . S
C515 C517 1.384 . S
H516 C518 0.949 . S
C517 C515 1.384 . S
C517 C518 1.385 . S
C517 H519 0.950 . S
C518 C512 1.404 . S
C518 H516 0.949 . S
C518 C517 1.385 . S
H519 C517 0.950 . S
H520 C504 0.951 . S
H521 C506 0.951 . S
H522 C508 0.951 . S
H523 C509 0.950 . S
H524 C510 0.950 . S
H525 C511 0.950 . S
H526 C513 0.950 . S
H527 C514 0.951 . S
C528 C529 1.386 . S
C528 C530 1.383 . S
C528 H544 0.951 . S
C529 C528 1.386 . S
C529 C533 1.383 . S
C530 C528 1.383 . S
C530 C531 1.402 . S
C530 H545 0.951 . S
C531 C530 1.402 . S
C531 C532 1.375 . S
C531 C534 1.481 . S
C532 C531 1.375 . S
C532 C533 1.367 . S
C532 H546 0.951 . S
C533 C529 1.383 . S
C533 C532 1.367 . S
C533 H547 0.950 . S
C534 C531 1.481 . S
C534 C535 1.297 . S
C534 H548 0.950 . S
C535 C534 1.297 . S
C535 C536 1.479 . S
C535 H549 0.950 . S
C536 C535 1.479 . S
C536 C537 1.375 1_655 S
C536 C542 1.404 . S
C537 C536 1.375 1_455 S
C537 C538 1.369 . S
C537 H550 0.950 . S
C538 C537 1.369 . S
C538 C539 1.392 . S
C538 H551 0.951 . S
C539 C538 1.392 . S
C539 C541 1.384 1_455 S
H540 C542 0.949 . S
C541 C539 1.384 1_655 S
C541 C542 1.385 . S
C541 H543 0.950 . S
C542 C536 1.404 . S
C542 H540 0.949 . S
C542 C541 1.385 . S
H543 C541 0.950 . S
H544 C528 0.951 . S
H545 C530 0.951 . S
H546 C532 0.951 . S
H547 C533 0.950 . S
H548 C534 0.950 . S
H549 C535 0.950 . S
H550 C537 0.950 . S
H551 C538 0.951 . S
C552 C553 1.386 . S
C552 C554 1.383 . S
C552 H568 0.951 . S
C553 C552 1.386 . S
C553 C557 1.383 . S
C554 C552 1.383 . S
C554 C555 1.402 . S
C554 H569 0.951 . S
C555 C554 1.402 . S
C555 C556 1.375 . S
C555 C558 1.481 . S
C556 C555 1.375 . S
C556 C557 1.367 . S
C556 H570 0.951 . S
C557 C553 1.383 . S
C557 C556 1.367 . S
C557 H571 0.950 . S
C558 C555 1.481 . S
C558 C559 1.297 . S
C558 H572 0.950 . S
C559 C558 1.297 . S
C559 C560 1.479 . S
C559 H573 0.950 . S
C560 C559 1.479 . S
C560 C561 1.376 . S
C560 C566 1.404 1_655 S
C561 C560 1.376 . S
C561 C562 1.367 1_655 S
C561 H574 0.952 . S
C562 C561 1.367 1_455 S
C562 C563 1.392 . S
C562 H575 0.951 . S
C563 C562 1.392 . S
C563 C565 1.384 . S
H564 C566 0.949 . S
C565 C563 1.384 . S
C565 C566 1.385 . S
C565 H567 0.950 . S
C566 C560 1.404 1_455 S
C566 H564 0.949 . S
C566 C565 1.385 . S
H567 C565 0.950 . S
H568 C552 0.951 . S
H569 C554 0.951 . S
H570 C556 0.951 . S
H571 C557 0.950 . S
H572 C558 0.950 . S
H573 C559 0.950 . S
H574 C561 0.952 . S
H575 C562 0.951 . S
C576 C577 1.386 1_455 S
C576 C578 1.383 . S
C576 H592 0.951 . S
C577 C576 1.386 1_655 S
C577 C581 1.383 . S
C578 C576 1.383 . S
C578 C579 1.402 . S
C578 H593 0.951 . S
C579 C578 1.402 . S
C579 C580 1.375 1_455 S
C579 C582 1.481 . S
C580 C579 1.375 1_655 S
C580 C581 1.367 . S
C580 H594 0.951 . S
C581 C577 1.383 . S
C581 C580 1.367 . S
C581 H595 0.950 . S
C582 C579 1.481 . S
C582 C583 1.297 . S
C582 H596 0.950 . S
C583 C582 1.297 . S
C583 C584 1.479 . S
C583 H597 0.950 . S
C584 C583 1.479 . S
C584 C585 1.375 . S
C584 C590 1.404 . S
C585 C584 1.375 . S
C585 C586 1.369 . S
C585 H598 0.950 . S
C586 C585 1.369 . S
C586 C587 1.392 . S
C586 H599 0.951 . S
C587 C586 1.392 . S
C587 C589 1.384 . S
H588 C590 0.949 . S
C589 C587 1.384 . S
C589 C590 1.385 . S
C589 H591 0.950 . S
C590 C584 1.404 . S
C590 H588 0.949 . S
C590 C589 1.385 . S
H591 C589 0.950 . S
H592 C576 0.951 . S
H593 C578 0.951 . S
H594 C580 0.951 . S
H595 C581 0.950 . S
H596 C582 0.950 . S
H597 C583 0.950 . S
H598 C585 0.950 . S
H599 C586 0.951 . S
C600 C601 1.386 . S
C600 C602 1.383 . S
C600 H616 0.951 . S
C601 C600 1.386 . S
C601 C605 1.383 . S
C602 C600 1.383 . S
C602 C603 1.402 . S
C602 H617 0.951 . S
C603 C602 1.402 . S
C603 C604 1.375 . S
C603 C606 1.481 . S
C604 C603 1.375 . S
C604 C605 1.367 . S
C604 H618 0.951 . S
C605 C601 1.383 . S
C605 C604 1.367 . S
C605 H619 0.950 . S
C606 C603 1.481 . S
C606 C607 1.297 . S
C606 H620 0.950 . S
C607 C606 1.297 . S
C607 C608 1.479 . S
C607 H621 0.950 . S
C608 C607 1.479 . S
C608 C609 1.375 . S
C608 C614 1.404 . S
C609 C608 1.375 . S
C609 C610 1.369 . S
C609 H622 0.950 . S
C610 C609 1.369 . S
C610 C611 1.392 1_455 S
C610 H623 0.951 . S
C611 C610 1.392 1_655 S
C611 C613 1.384 . S
H612 C614 0.949 1_655 S
C613 C611 1.384 . S
C613 C614 1.385 1_655 S
C613 H615 0.950 . S
C614 C608 1.404 . S
C614 H612 0.949 1_455 S
C614 C613 1.385 1_455 S
H615 C613 0.950 . S
H616 C600 0.951 . S
H617 C602 0.951 . S
H618 C604 0.951 . S
H619 C605 0.950 . S
H620 C606 0.950 . S
H621 C607 0.950 . S
H622 C609 0.950 . S
H623 C610 0.951 . S
C337 C158 1.495 1_554 S
C347 C63 1.468 . S
C361 C231 1.486 . S
C371 C326 1.496 . S
C385 C74 1.510 1_554 S
C395 C147 1.504 1_556 S
C409 C315 1.504 . S
C419 C242 1.515 . S
C433 C321 1.227 . S
C443 C56 1.253 . S
C457 C153 1.247 . S
C467 C224 1.255 . S
C481 C151 1.278 . S
C491 C226 1.139 . S
C505 C319 1.291 . S
C515 C58 1.270 . S
C529 C140 1.281 . S
C539 C237 1.250 . S
C553 C308 1.294 . S
C563 C69 1.156 . S
C577 C310 1.203 . S
C587 C67 1.287 . S
C601 C235 1.287 . S
C611 C142 1.259 . S
