# Generated by pormake.
# Topology cag, (4)-cn, num edge types: 1
# Building blocks:
#     Node 0, Type 0, BuildingBlock: TATPOV_clean_sbu_0, # of connection points: 4
#     Node 1, Type 0, BuildingBlock: TATPOV_clean_sbu_0, # of connection points: 4
#     Node 2, Type 0, BuildingBlock: TATPOV_clean_sbu_0, # of connection points: 4
#     Node 3, Type 0, BuildingBlock: TATPOV_clean_sbu_0, # of connection points: 4
#     Node 4, Type 0, BuildingBlock: TATPOV_clean_sbu_0, # of connection points: 4
#     Node 5, Type 0, BuildingBlock: TATPOV_clean_sbu_0, # of connection points: 4
#     Node 6, Type 0, BuildingBlock: TATPOV_clean_sbu_0, # of connection points: 4
#     Node 7, Type 0, BuildingBlock: TATPOV_clean_sbu_0, # of connection points: 4
#     Node 8, Type 0, BuildingBlock: TATPOV_clean_sbu_0, # of connection points: 4
#     Node 9, Type 0, BuildingBlock: TATPOV_clean_sbu_0, # of connection points: 4
#     Node 10, Type 0, BuildingBlock: TATPOV_clean_sbu_0, # of connection points: 4
#     Node 11, Type 0, BuildingBlock: TATPOV_clean_sbu_0, # of connection points: 4
#     Node 12, Type 0, BuildingBlock: TATPOV_clean_sbu_0, # of connection points: 4
#     Node 13, Type 0, BuildingBlock: TATPOV_clean_sbu_0, # of connection points: 4
#     Node 14, Type 0, BuildingBlock: TATPOV_clean_sbu_0, # of connection points: 4
#     Node 15, Type 0, BuildingBlock: TATPOV_clean_sbu_0, # of connection points: 4
#     Edge 16, Type (0, 0), BuildingBlock: CIFDUS_clean_linker_0, # of connection points: 2
#     Edge 17, Type (0, 0), BuildingBlock: CIFDUS_clean_linker_0, # of connection points: 2
#     Edge 18, Type (0, 0), BuildingBlock: CIFDUS_clean_linker_0, # of connection points: 2
#     Edge 19, Type (0, 0), BuildingBlock: CIFDUS_clean_linker_0, # of connection points: 2
#     Edge 20, Type (0, 0), BuildingBlock: CIFDUS_clean_linker_0, # of connection points: 2
#     Edge 21, Type (0, 0), BuildingBlock: CIFDUS_clean_linker_0, # of connection points: 2
#     Edge 22, Type (0, 0), BuildingBlock: CIFDUS_clean_linker_0, # of connection points: 2
#     Edge 23, Type (0, 0), BuildingBlock: CIFDUS_clean_linker_0, # of connection points: 2
#     Edge 24, Type (0, 0), BuildingBlock: CIFDUS_clean_linker_0, # of connection points: 2
#     Edge 25, Type (0, 0), BuildingBlock: CIFDUS_clean_linker_0, # of connection points: 2
#     Edge 26, Type (0, 0), BuildingBlock: CIFDUS_clean_linker_0, # of connection points: 2
#     Edge 27, Type (0, 0), BuildingBlock: CIFDUS_clean_linker_0, # of connection points: 2
#     Edge 28, Type (0, 0), BuildingBlock: CIFDUS_clean_linker_0, # of connection points: 2
#     Edge 29, Type (0, 0), BuildingBlock: CIFDUS_clean_linker_0, # of connection points: 2
#     Edge 30, Type (0, 0), BuildingBlock: CIFDUS_clean_linker_0, # of connection points: 2
#     Edge 31, Type (0, 0), BuildingBlock: CIFDUS_clean_linker_0, # of connection points: 2
#     Edge 32, Type (0, 0), BuildingBlock: CIFDUS_clean_linker_0, # of connection points: 2
#     Edge 33, Type (0, 0), BuildingBlock: CIFDUS_clean_linker_0, # of connection points: 2
#     Edge 34, Type (0, 0), BuildingBlock: CIFDUS_clean_linker_0, # of connection points: 2
#     Edge 35, Type (0, 0), BuildingBlock: CIFDUS_clean_linker_0, # of connection points: 2
#     Edge 36, Type (0, 0), BuildingBlock: CIFDUS_clean_linker_0, # of connection points: 2
#     Edge 37, Type (0, 0), BuildingBlock: CIFDUS_clean_linker_0, # of connection points: 2
#     Edge 38, Type (0, 0), BuildingBlock: CIFDUS_clean_linker_0, # of connection points: 2
#     Edge 39, Type (0, 0), BuildingBlock: CIFDUS_clean_linker_0, # of connection points: 2
#     Edge 40, Type (0, 0), BuildingBlock: CIFDUS_clean_linker_0, # of connection points: 2
#     Edge 41, Type (0, 0), BuildingBlock: CIFDUS_clean_linker_0, # of connection points: 2
#     Edge 42, Type (0, 0), BuildingBlock: CIFDUS_clean_linker_0, # of connection points: 2
#     Edge 43, Type (0, 0), BuildingBlock: CIFDUS_clean_linker_0, # of connection points: 2
#     Edge 44, Type (0, 0), BuildingBlock: CIFDUS_clean_linker_0, # of connection points: 2
#     Edge 45, Type (0, 0), BuildingBlock: CIFDUS_clean_linker_0, # of connection points: 2
#     Edge 46, Type (0, 0), BuildingBlock: CIFDUS_clean_linker_0, # of connection points: 2
#     Edge 47, Type (0, 0), BuildingBlock: CIFDUS_clean_linker_0, # of connection points: 2
# Relax obj value: 0.024
# Max RMSD: 0.072
# Mean RMSD: 0.062
data_MOF--net-cag--node1-TATPOV_clean_sbu_0--edge1-CIFDUS_clean_linker_0
_symmetry_space_group_name_H-M    P1
_symmetry_Int_Tables_number       1
_symmetry_cell_setting            triclinic
loop_
_symmetry_equiv_pos_as_xyz
'x, y, z'
_cell_length_a     38.079967
_cell_length_b     42.506827
_cell_length_c     37.774471
_cell_angle_alpha  89.948255
_cell_angle_beta   89.44291
_cell_angle_gamma 90.074833
loop_
_atom_site_label
_atom_site_type_symbol
_atom_site_fract_x
_atom_site_fract_y
_atom_site_fract_z
_atom_type_partial_charge
Zn0 Zn 0.32448 0.1454 1.00053 0.0
Zn1 Zn 0.29207 0.1369 0.06319 0.0
O2 O 0.34338 0.14834 0.07511 0.0
O3 O 0.36926 0.15827 0.02397 0.0
O4 O 0.26927 0.13047 0.11181 0.0
O5 O 0.28897 0.17705 0.98738 0.0
O6 O 0.26243 0.17205 0.03926 0.0
C7 C 0.37049 0.15666 0.05737 0.0
C8 C 0.29792 0.08299 0.00885 0.0
O9 O 0.28765 0.09334 0.03894 0.0
O10 O 0.31477 0.10063 0.9877 0.0
C11 C 0.27921 0.14601 0.13876 0.0
O12 O 0.30396 0.16732 0.1348 0.0
C13 C 0.26453 0.1846 0.00857 0.0
Zn14 Zn 0.18629 0.84437 0.51668 0.0
Zn15 Zn 0.2173 0.8478 0.58062 0.0
O16 O 0.16472 0.84359 0.5921 0.0
O17 O 0.13874 0.83904 0.54058 0.0
O18 O 0.238 0.84863 0.62974 0.0
O19 O 0.21562 0.80657 0.50482 0.0
O20 O 0.24115 0.80932 0.55676 0.0
C21 C 0.1369 0.84023 0.57405 0.0
C22 C 0.22243 0.90334 0.52873 0.0
O23 O 0.22929 0.89096 0.55867 0.0
O24 O 0.20495 0.88811 0.50605 0.0
C25 C 0.22661 0.8682 0.65259 0.0
O26 O 0.20279 0.88881 0.64311 0.0
C27 C 0.23763 0.79601 0.52673 0.0
Zn28 Zn 0.33521 0.83748 0.98161 0.0
Zn29 Zn 0.3019 0.84811 0.92011 0.0
O30 O 0.35381 0.84141 0.90676 0.0
O31 O 0.38123 0.83026 0.95615 0.0
O32 O 0.28108 0.85384 0.87127 0.0
O33 O 0.30217 0.80225 0.992 0.0
O34 O 0.27414 0.8107 0.94214 0.0
C35 C 0.38193 0.83451 0.92299 0.0
C36 C 0.30365 0.89903 0.97752 0.0
O37 O 0.29438 0.88983 0.94685 0.0
O38 O 0.32125 0.88108 0.99738 0.0
C39 C 0.26482 0.87804 0.86033 0.0
O40 O 0.2588 0.90142 0.88227 0.0
C41 C 0.27745 0.79561 0.97114 0.0
Zn42 Zn 0.18777 0.13848 0.48499 0.0
Zn43 Zn 0.21363 0.14013 0.41937 0.0
O44 O 0.16051 0.14803 0.41248 0.0
O45 O 0.13939 0.14713 0.46697 0.0
O46 O 0.23388 0.14349 0.36951 0.0
O47 O 0.21717 0.17454 0.49962 0.0
O48 O 0.23999 0.17602 0.4459 0.0
C49 C 0.13467 0.1504 0.43407 0.0
C50 C 0.22015 0.08032 0.46519 0.0
O51 O 0.22464 0.09444 0.43562 0.0
O52 O 0.20556 0.09441 0.4909 0.0
C53 C 0.22034 0.13061 0.34244 0.0
O54 O 0.19203 0.11322 0.34648 0.0
C55 C 0.238 0.18689 0.47736 0.0
Zn56 Zn 0.62517 0.92229 0.85981 0.0
Zn57 Zn 0.65529 0.88191 0.90683 0.0
O58 O 0.60673 0.8634 0.89805 0.0
O59 O 0.58065 0.89575 0.86126 0.0
O60 O 0.67594 0.8507 0.94074 0.0
O61 O 0.6643 0.91176 0.82484 0.0
O62 O 0.69039 0.88267 0.86514 0.0
C63 C 0.57988 0.87119 0.8803 0.0
C64 C 0.64368 0.9503 0.92773 0.0
O65 O 0.65324 0.9224 0.93507 0.0
O66 O 0.6319 0.95674 0.89725 0.0
C67 C 0.6584 0.83911 0.96649 0.0
O68 O 0.62585 0.84829 0.97189 0.0
C69 C 0.68993 0.89485 0.83432 0.0
Zn70 Zn 0.89304 0.07842 0.33843 0.0
Zn71 Zn 0.86875 0.12331 0.38343 0.0
O72 O 0.92054 0.1359 0.37602 0.0
O73 O 0.94045 0.09956 0.33937 0.0
O74 O 0.8471 0.15718 0.41408 0.0
O75 O 0.85832 0.09094 0.30124 0.0
O76 O 0.83613 0.12427 0.34008 0.0
C77 C 0.94562 0.12391 0.35791 0.0
C78 C 0.8692 0.05477 0.40698 0.0
O79 O 0.8642 0.08378 0.41364 0.0
O80 O 0.88007 0.04624 0.37662 0.0
C81 C 0.8601 0.17126 0.44063 0.0
O82 O 0.89211 0.16444 0.45073 0.0
C83 C 0.83546 0.1112 0.30975 0.0
Zn84 Zn 0.60299 0.0788 0.16907 0.0
Zn85 Zn 0.62871 0.12467 0.12601 0.0
O86 O 0.5767 0.13604 0.13204 0.0
O87 O 0.55508 0.09905 0.16684 0.0
O88 O 0.64926 0.16102 0.09856 0.0
O89 O 0.63634 0.09093 0.20792 0.0
O90 O 0.65993 0.12461 0.17024 0.0
C91 C 0.55077 0.12372 0.14857 0.0
C92 C 0.63045 0.05727 0.10037 0.0
O93 O 0.63543 0.08642 0.09437 0.0
O94 O 0.6183 0.04817 0.13007 0.0
C95 C 0.64565 0.16808 0.06605 0.0
O96 O 0.62602 0.15034 0.04577 0.0
C97 C 0.65963 0.11117 0.2004 0.0
Zn98 Zn 0.89175 0.91946 0.6461 0.0
Zn99 Zn 0.85972 0.8784 0.60155 0.0
O100 O 0.90963 0.861 0.60495 0.0
O101 O 0.93648 0.89364 0.64096 0.0
O102 O 0.83425 0.84661 0.57196 0.0
O103 O 0.85612 0.90962 0.68495 0.0
O104 O 0.82878 0.87976 0.64639 0.0
C105 C 0.93723 0.86965 0.62105 0.0
C106 C 0.86768 0.9466 0.57921 0.0
O107 O 0.85844 0.91847 0.57248 0.0
O108 O 0.88127 0.95332 0.60883 0.0
C109 C 0.84624 0.83251 0.54475 0.0
O110 O 0.87824 0.83874 0.53342 0.0
C111 C 0.83041 0.89218 0.67701 0.0
Zn112 Zn 0.80988 0.64075 0.03401 0.0
Zn113 Zn 0.77247 0.6387 0.09473 0.0
O114 O 0.82407 0.63947 0.1104 0.0
O115 O 0.85499 0.64174 0.06087 0.0
O116 O 0.74833 0.63718 0.14313 0.0
O117 O 0.78799 0.68165 0.02233 0.0
O118 O 0.75532 0.68032 0.07087 0.0
C119 C 0.85356 0.64103 0.09432 0.0
C120 C 0.76709 0.58556 0.03891 0.0
O121 O 0.75903 0.59728 0.06902 0.0
O122 O 0.78799 0.60003 0.01831 0.0
C123 C 0.73696 0.61181 0.15708 0.0
O124 O 0.73812 0.58565 0.13865 0.0
C125 C 0.76513 0.6941 0.04233 0.0
Zn126 Zn 0.6654 0.34388 0.50535 0.0
Zn127 Zn 0.70396 0.3506 0.56481 0.0
O128 O 0.65273 0.34245 0.57994 0.0
O129 O 0.62003 0.33755 0.53272 0.0
O130 O 0.72531 0.35548 0.61375 0.0
O131 O 0.69548 0.30668 0.49341 0.0
O132 O 0.72946 0.31312 0.5398 0.0
C133 C 0.62281 0.33814 0.56606 0.0
C134 C 0.70028 0.40444 0.51071 0.0
O135 O 0.7109 0.39368 0.54029 0.0
O136 O 0.68123 0.38763 0.4909 0.0
C137 C 0.70742 0.37251 0.63502 0.0
O138 O 0.68006 0.38778 0.62295 0.0
C139 C 0.72168 0.29827 0.51151 0.0
Zn140 Zn 0.79747 0.35518 0.97382 0.0
Zn141 Zn 0.76819 0.3579 0.90946 0.0
O142 O 0.82126 0.35084 0.90159 0.0
O143 O 0.84599 0.34793 0.95381 0.0
O144 O 0.75146 0.35966 0.85827 0.0
O145 O 0.76662 0.31894 0.98568 0.0
O146 O 0.74093 0.32063 0.93371 0.0
C147 C 0.84855 0.34748 0.92041 0.0
C148 C 0.76349 0.41436 0.96024 0.0
O149 O 0.75728 0.40209 0.93009 0.0
O150 O 0.77985 0.39894 0.98353 0.0
C151 C 0.7716 0.3733 0.83587 0.0
O152 O 0.80013 0.38735 0.84704 0.0
C153 C 0.74398 0.30838 0.96446 0.0
Zn154 Zn 0.66273 0.64775 0.50277 0.0
Zn155 Zn 0.69236 0.64475 0.43824 0.0
O156 O 0.63934 0.64899 0.42905 0.0
O157 O 0.6146 0.65172 0.48186 0.0
O158 O 0.7117 0.64457 0.38798 0.0
O159 O 0.68946 0.68678 0.51341 0.0
O160 O 0.71646 0.68355 0.46169 0.0
C161 C 0.61198 0.65155 0.4485 0.0
C162 C 0.69977 0.58953 0.49015 0.0
O163 O 0.70501 0.60125 0.45941 0.0
O164 O 0.68337 0.60512 0.51359 0.0
C165 C 0.6995 0.62525 0.36549 0.0
O166 O 0.67604 0.60446 0.376 0.0
C167 C 0.71162 0.69744 0.49131 0.0
Zn168 Zn 0.09936 0.4199 0.86223 0.0
Zn169 Zn 0.12813 0.37179 0.90027 0.0
O170 O 0.07711 0.35865 0.89494 0.0
O171 O 0.05261 0.39654 0.86406 0.0
O172 O 0.14861 0.33553 0.92663 0.0
O173 O 0.13452 0.41097 0.82271 0.0
O174 O 0.15941 0.37487 0.85605 0.0
C175 C 0.05021 0.37059 0.88047 0.0
C176 C 0.12636 0.43733 0.93169 0.0
O177 O 0.13339 0.40819 0.93372 0.0
O178 O 0.1127 0.44856 0.90389 0.0
C179 C 0.14534 0.33094 0.95978 0.0
O180 O 0.12766 0.35116 0.97924 0.0
C181 C 0.1585 0.39085 0.82757 0.0
Zn182 Zn 0.3837 0.54963 0.35302 0.0
Zn183 Zn 0.35466 0.59907 0.38822 0.0
O184 O 0.40573 0.61248 0.38122 0.0
O185 O 0.42955 0.57408 0.35014 0.0
O186 O 0.33113 0.63687 0.40976 0.0
O187 O 0.34727 0.55222 0.31502 0.0
O188 O 0.32468 0.59251 0.34387 0.0
C189 C 0.43227 0.6004 0.36562 0.0
C190 C 0.35788 0.53538 0.42424 0.0
O191 O 0.34975 0.56441 0.42543 0.0
O192 O 0.37208 0.52377 0.39672 0.0
C193 C 0.33572 0.64802 0.44059 0.0
O194 O 0.35818 0.63445 0.46189 0.0
C195 C 0.32414 0.57342 0.31791 0.0
Zn196 Zn 0.10096 0.57627 0.1572 0.0
Zn197 Zn 0.12907 0.62724 0.12372 0.0
O198 O 0.07819 0.64031 0.13077 0.0
O199 O 0.055 0.60056 0.16031 0.0
O200 O 0.1528 0.66442 0.10132 0.0
O201 O 0.13808 0.57883 0.19472 0.0
O202 O 0.1589 0.62116 0.1681 0.0
C203 C 0.05181 0.62727 0.1457 0.0
C204 C 0.12581 0.56408 0.08581 0.0
O205 O 0.13389 0.59312 0.08617 0.0
O206 O 0.11185 0.55126 0.1128 0.0
C207 C 0.15257 0.67134 0.06857 0.0
O208 O 0.13399 0.65421 0.04668 0.0
C209 C 0.1601 0.60111 0.19309 0.0
Zn210 Zn 0.38993 0.41515 0.67049 0.0
Zn211 Zn 0.35292 0.37339 0.63022 0.0
O212 O 0.40236 0.35554 0.62895 0.0
O213 O 0.43349 0.38821 0.66119 0.0
O214 O 0.32491 0.34135 0.60395 0.0
O215 O 0.35713 0.40632 0.71242 0.0
O216 O 0.32629 0.37601 0.67711 0.0
C217 C 0.43168 0.36398 0.6417 0.0
C218 C 0.36007 0.44081 0.60525 0.0
O219 O 0.34963 0.41268 0.60075 0.0
O220 O 0.37666 0.44829 0.63302 0.0
C221 C 0.33291 0.3301 0.57378 0.0
O222 O 0.36135 0.34009 0.55729 0.0
C223 C 0.33058 0.38905 0.70704 0.0
H224 H 0.22679 0.22772 0.04732 0.0
H225 H 0.24376 0.19245 0.94137 0.0
H226 H 0.20634 0.23333 0.91749 0.0
H227 H 0.17293 0.28116 0.92561 0.0
H228 H 0.15613 0.31888 0.03038 0.0
H229 H 0.18907 0.27494 0.05584 0.0
C230 C 0.22179 0.22884 0.01913 0.0
C231 C 0.2383 0.20739 0.99609 0.0
C232 C 0.20061 0.25297 0.0053 0.0
C233 C 0.23174 0.20902 0.95958 0.0
C234 C 0.21033 0.23236 0.94585 0.0
C235 C 0.1763 0.27979 0.95406 0.0
C236 C 0.16254 0.30343 0.97601 0.0
C237 C 0.19538 0.25485 0.96832 0.0
C238 C 0.16667 0.301 0.01287 0.0
C239 C 0.18555 0.27593 0.02742 0.0
H240 H 0.33794 0.67868 0.50435 0.0
H241 H 0.28736 0.6802 0.40244 0.0
H242 H 0.253 0.7257 0.42035 0.0
H243 H 0.23698 0.76487 0.46433 0.0
H244 H 0.28669 0.76469 0.56655 0.0
H245 H 0.32169 0.71884 0.54903 0.0
C246 C 0.31942 0.68899 0.48607 0.0
C247 C 0.31531 0.67593 0.45208 0.0
C248 C 0.29955 0.71537 0.49654 0.0
C249 C 0.29116 0.68965 0.42875 0.0
C250 C 0.27142 0.71573 0.43895 0.0
C251 C 0.25542 0.7549 0.48293 0.0
C252 C 0.25912 0.76825 0.51675 0.0
C253 C 0.27537 0.72873 0.47272 0.0
C254 C 0.28327 0.75491 0.54034 0.0
C255 C 0.3033 0.72868 0.53033 0.0
H256 H 0.26592 0.77536 0.03759 0.0
H257 H 0.22959 0.76322 0.93064 0.0
H258 H 0.18664 0.72399 0.95141 0.0
H259 H 0.16051 0.69249 1.00037 0.0
H260 H 0.19722 0.70722 0.10703 0.0
H261 H 0.23884 0.74636 0.08579 0.0
C262 C 0.24879 0.76407 0.01864 0.0
C263 C 0.25126 0.77187 0.98254 0.0
C264 C 0.22412 0.74212 0.03077 0.0
C265 C 0.22832 0.75746 0.95855 0.0
C266 C 0.20379 0.73508 0.97044 0.0
C267 C 0.17749 0.70441 0.01895 0.0
C268 C 0.17581 0.69673 0.05523 0.0
C269 C 0.20155 0.72715 0.00655 0.0
C270 C 0.19791 0.71252 0.07897 0.0
C271 C 0.22185 0.7349 0.06687 0.0
H272 H 0.34257 0.29863 0.51112 0.0
H273 H 0.27367 0.30477 0.60248 0.0
H274 H 0.23845 0.2617 0.58002 0.0
H275 H 0.22786 0.22158 0.53604 0.0
H276 H 0.29512 0.21414 0.44383 0.0
H277 H 0.33027 0.25866 0.46502 0.0
C278 C 0.31976 0.29061 0.52599 0.0
C279 C 0.31096 0.30486 0.55857 0.0
C280 C 0.2994 0.26561 0.5129 0.0
C281 C 0.28123 0.29424 0.57744 0.0
C282 C 0.261 0.26955 0.56465 0.0
C283 C 0.25024 0.22955 0.52045 0.0
C284 C 0.25907 0.21434 0.48857 0.0
C285 C 0.27004 0.25493 0.53267 0.0
C286 C 0.28784 0.22539 0.46854 0.0
C287 C 0.30794 0.25079 0.48068 0.0
H288 H 0.69955 0.71867 0.05529 0.0
H289 H 0.79939 0.7387 0.005 0.0
H290 H 0.77585 0.78663 0.97951 0.0
H291 H 0.7261 0.82032 0.96693 0.0
H292 H 0.62512 0.80087 0.01492 0.0
H293 H 0.64989 0.75559 0.04602 0.0
C294 C 0.71617 0.73386 0.03924 0.0
C295 C 0.75099 0.72498 0.03169 0.0
C296 C 0.70222 0.76135 0.02392 0.0
C297 C 0.77231 0.7448 0.01078 0.0
C298 C 0.75892 0.77225 0.99616 0.0
C299 C 0.70949 0.80635 0.98438 0.0
C300 C 0.67377 0.81374 0.98824 0.0
C301 C 0.72373 0.7803 1.00177 0.0
C302 C 0.65275 0.7956 0.01134 0.0
C303 C 0.66687 0.76964 0.02908 0.0
H304 H 0.79187 0.18551 0.42993 0.0
H305 H 0.88041 0.21082 0.49439 0.0
H306 H 0.84505 0.25139 0.52391 0.0
H307 H 0.78909 0.28127 0.52944 0.0
H308 H 0.7018 0.25467 0.46358 0.0
H309 H 0.73653 0.21305 0.43694 0.0
C310 C 0.80357 0.19981 0.45047 0.0
C311 C 0.83885 0.19524 0.45968 0.0
C312 C 0.78322 0.22298 0.46718 0.0
C313 C 0.85333 0.21389 0.48663 0.0
C314 C 0.83311 0.23712 0.50353 0.0
C315 C 0.77764 0.26613 0.50954 0.0
C316 C 0.74292 0.27137 0.49842 0.0
C317 C 0.79802 0.24209 0.49381 0.0
C318 C 0.72852 0.25152 0.4725 0.0
C319 C 0.74836 0.2276 0.45715 0.0
H320 H 0.7379 0.28687 0.03119 0.0
H321 H 0.69908 0.27062 0.92581 0.0
H322 H 0.66435 0.2258 0.94793 0.0
H323 H 0.64658 0.19039 0.99759 0.0
H324 H 0.68705 0.20864 0.10215 0.0
H325 H 0.71966 0.25355 0.0797 0.0
C326 C 0.72193 0.27362 0.01281 0.0
C327 C 0.72137 0.282 0.97678 0.0
C328 C 0.70235 0.24814 0.02561 0.0
C329 C 0.70006 0.26467 0.95367 0.0
C330 C 0.68028 0.23901 0.96632 0.0
C331 C 0.66247 0.20427 0.01543 0.0
C332 C 0.6644 0.19593 0.05154 0.0
C333 C 0.68144 0.23038 1.00228 0.0
C334 C 0.68506 0.21428 0.07427 0.0
C335 C 0.70379 0.24006 0.06148 0.0
H336 H 0.77915 0.81686 0.56064 0.0
H337 H 0.86481 0.79301 0.49006 0.0
H338 H 0.8298 0.75023 0.46498 0.0
H339 H 0.77571 0.71746 0.46596 0.0
H340 H 0.69179 0.74174 0.53861 0.0
H341 H 0.72521 0.78652 0.55974 0.0
C342 C 0.79023 0.80246 0.53964 0.0
C343 C 0.82466 0.808 0.52749 0.0
C344 C 0.77023 0.77784 0.52571 0.0
C345 C 0.83838 0.7892 0.50003 0.0
C346 C 0.81839 0.76469 0.48571 0.0
C347 C 0.76469 0.73281 0.48609 0.0
C348 C 0.73145 0.72608 0.50088 0.0
C349 C 0.7844 0.75848 0.49872 0.0
C350 C 0.71749 0.74613 0.52705 0.0
C351 C 0.73655 0.77181 0.53918 0.0
H352 H 0.29375 0.03147 0.0514 0.0
H353 H 0.28844 0.06103 0.94234 0.0
H354 H 0.28535 0.00631 0.92313 0.0
H355 H 0.29029 0.95015 0.93679 0.0
H356 H 0.3006 0.92044 0.04542 0.0
H357 H 0.29529 0.97488 0.06534 0.0
C358 C 0.29129 0.02584 0.02353 0.0
C359 C 0.29148 0.05011 0.99831 0.0
C360 C 0.29074 0.99426 0.01255 0.0
C361 C 0.28864 0.04263 0.96221 0.0
C362 C 0.28688 0.01138 0.95119 0.0
C363 C 0.29078 0.95556 0.96484 0.0
C364 C 0.29602 0.93138 0.98955 0.0
C365 C 0.28886 0.98699 0.97604 0.0
C366 C 0.29688 0.93874 0.02583 0.0
C367 C 0.29387 0.96985 0.03726 0.0
H368 H 0.22531 0.93278 0.46474 0.0
H369 H 0.23943 0.94885 0.57654 0.0
H370 H 0.24397 0.00538 0.5659 0.0
H371 H 0.23654 0.05038 0.52596 0.0
H372 H 0.2229 0.03475 0.41413 0.0
H373 H 0.2261 0.97781 0.42357 0.0
C374 C 0.2299 0.94862 0.48672 0.0
C375 C 0.23145 0.93665 0.52147 0.0
C376 C 0.23234 0.98114 0.48042 0.0
C377 C 0.23798 0.95742 0.54958 0.0
C378 C 0.2404 0.98978 0.54353 0.0
C379 C 0.23482 0.0345 0.50356 0.0
C380 C 0.22895 0.04667 0.46947 0.0
C381 C 0.23648 0.00192 0.50925 0.0
C382 C 0.22737 0.02593 0.44062 0.0
C383 C 0.22895 0.99338 0.44606 0.0
H384 H 0.64945 0.94127 0.99844 0.0
H385 H 0.63895 0.01416 0.91962 0.0
H386 H 0.63654 0.05403 0.96621 0.0
H387 H 0.6343 0.06781 0.02945 0.0
H388 H 0.64111 0.99427 0.10795 0.0
H389 H 0.64829 0.95503 0.0613 0.0
C390 C 0.64699 0.96591 0.99138 0.0
C391 C 0.64441 0.97472 0.9556 0.0
C392 C 0.64482 0.98857 0.01827 0.0
C393 C 0.64088 0.00673 0.94697 0.0
C394 C 0.6395 0.02954 0.97359 0.0
C395 C 0.63774 0.04323 0.03633 0.0
C396 C 0.63718 0.03396 0.0721 0.0
C397 C 0.641 0.02068 0.00934 0.0
C398 C 0.64129 0.00199 0.08061 0.0
C399 C 0.6454 0.97954 0.05396 0.0
H400 H 0.86809 0.06473 0.47799 0.0
H401 H 0.85987 0.99151 0.39939 0.0
H402 H 0.85601 0.95182 0.44606 0.0
H403 H 0.8584 0.93767 0.50885 0.0
H404 H 0.87043 0.01047 0.58742 0.0
H405 H 0.8692 0.0506 0.54106 0.0
C406 C 0.86506 0.04012 0.47109 0.0
C407 C 0.86427 0.03108 0.43528 0.0
C408 C 0.86373 0.01735 0.49802 0.0
C409 C 0.8607 -0.00093 0.42675 0.0
C410 C 0.85848 0.97636 0.45341 0.0
C411 C 0.86038 0.96234 0.51591 0.0
C412 C 0.8645 0.97106 0.55155 0.0
C413 C 0.86049 0.98519 0.48909 0.0
C414 C 0.86737 0.00312 0.56017 0.0
C415 C 0.86666 0.02608 0.53369 0.0
H416 H 0.74769 0.43994 0.02392 0.0
H417 H 0.7604 0.46324 0.9134 0.0
H418 H 0.75838 0.51937 0.92783 0.0
H419 H 0.76136 0.56122 0.9728 0.0
H420 H 0.74779 0.53771 0.08324 0.0
H421 H 0.74117 0.4822 0.06788 0.0
C422 C 0.74936 0.45734 1.00294 0.0
C423 C 0.75475 0.44757 0.96772 0.0
C424 C 0.7483 0.48945 0.01147 0.0
C425 C 0.7563 0.47023 0.94069 0.0
C426 C 0.7554 0.5023 0.94899 0.0
C427 C 0.75631 0.54399 0.99344 0.0
C428 C 0.75566 0.55346 0.02916 0.0
C429 C 0.75269 0.51212 0.98441 0.0
C430 C 0.74851 0.53102 0.05558 0.0
C431 C 0.74496 0.49924 0.04682 0.0
H432 H 0.71651 0.45377 0.55347 0.0
H433 H 0.69972 0.42915 0.44416 0.0
H434 H 0.70328 0.48451 0.42722 0.0
H435 H 0.70414 0.54032 0.4444 0.0
H436 H 0.71605 0.56494 0.55435 0.0
H437 H 0.72197 0.50945 0.56999 0.0
C438 C 0.71432 0.46049 0.52587 0.0
C439 C 0.70764 0.4374 0.50018 0.0
C440 C 0.71527 0.4925 0.51643 0.0
C441 C 0.70457 0.44651 0.46453 0.0
C442 C 0.70658 0.47818 0.45479 0.0
C443 C 0.70884 0.53353 0.47163 0.0
C444 C 0.70956 0.55665 0.49818 0.0
C445 C 0.7109 0.50146 0.48064 0.0
C446 C 0.71522 0.54752 0.53345 0.0
C447 C 0.7185 0.51579 0.54244 0.0
H448 H 0.13488 0.5013 0.08118 0.0
H449 H 0.12765 0.58533 0.0176 0.0
H450 H 0.12886 0.55356 0.96359 0.0
H451 H 0.12756 0.50146 0.93488 0.0
H452 H 0.13692 0.41792 0.99928 0.0
H453 H 0.13955 0.44999 0.05247 0.0
C454 C 0.13385 0.51265 0.05547 0.0
C455 C 0.13074 0.54547 0.05328 0.0
C456 C 0.13478 0.49434 0.0247 0.0
C457 C 0.13002 0.56001 0.01988 0.0
C458 C 0.13054 0.54188 0.98903 0.0
C459 C 0.13045 0.49034 0.96054 0.0
C460 C 0.1316 0.45736 0.96311 0.0
C461 C 0.13222 0.50896 0.99117 0.0
C462 C 0.13586 0.44326 0.9965 0.0
C463 C 0.13726 0.46156 0.02701 0.0
H464 H 0.36085 0.55157 0.49376 0.0
H465 H 0.34224 0.47329 0.42375 0.0
H466 H 0.33764 0.43773 0.47433 0.0
H467 H 0.34351 0.42818 0.53746 0.0
H468 H 0.36722 0.50506 0.60791 0.0
H469 H 0.36502 0.542 0.55816 0.0
C470 C 0.35529 0.5268 0.48976 0.0
C471 C 0.3519 0.51496 0.45522 0.0
C472 C 0.35386 0.50628 0.51893 0.0
C473 C 0.34514 0.48281 0.45016 0.0
C474 C 0.34251 0.4625 0.47902 0.0
C475 C 0.34775 0.45307 0.54213 0.0
C476 C 0.35554 0.46386 0.57633 0.0
C477 C 0.34753 0.47387 0.5134 0.0
C478 C 0.36129 0.49616 0.58178 0.0
C479 C 0.36007 0.51726 0.55336 0.0
H480 H 0.52934 0.16346 0.09689 0.0
H481 H 0.49114 0.10936 0.18607 0.0
H482 H 0.43066 0.1193 0.16842 0.0
H483 H 0.38937 0.13629 0.1227 0.0
H484 H 0.4283 0.18685 0.03124 0.0
H485 H 0.4876 0.18573 0.05499 0.0
C486 C 0.5078 0.15444 0.11296 0.0
C487 C 0.51475 0.13533 0.14244 0.0
C488 C 0.47315 0.15928 0.10197 0.0
C489 C 0.48651 0.12386 0.16298 0.0
C490 C 0.4519 0.12943 0.15286 0.0
C491 C 0.4107 0.14766 0.10836 0.0
C492 C 0.40456 0.1612 0.07503 0.0
C493 C 0.44497 0.14602 0.1216 0.0
C494 C 0.43245 0.17587 0.05675 0.0
C495 C 0.46639 0.17521 0.07028 0.0
H496 H -0.00128 0.87536 0.65668 0.0
H497 H 0.95247 0.83043 0.56586 0.0
H498 H 0.01053 0.81449 0.54489 0.0
H499 H 0.07471 0.8193 0.54837 0.0
H500 H 0.12104 0.86358 0.6395 0.0
H501 H 0.0627 0.87345 0.66445 0.0
C502 C 0.00129 0.8616 0.63263 0.0
C503 C 0.97133 0.85458 0.61259 0.0
C504 C 0.03481 0.85266 0.62055 0.0
C505 C 0.97507 0.83633 0.58175 0.0
C506 C 0.00832 0.82734 0.56958 0.0
C507 C 0.07203 0.8307 0.57394 0.0
C508 C 0.10211 0.84116 0.59176 0.0
C509 C 0.03842 0.83634 0.58813 0.0
C510 C 0.09829 0.85541 0.62514 0.0
C511 C 0.06492 0.86121 0.63937 0.0
H512 H 0.44402 0.81017 0.94451 0.0
H513 H 0.39675 0.86269 0.85959 0.0
H514 H 0.45483 0.8754 0.83565 0.0
H515 H 0.51867 0.8783 0.8443 0.0
H516 H 0.56566 0.82576 0.9295 0.0
H517 H 0.50813 0.80602 0.94743 0.0
C518 C 0.44642 0.82389 0.92038 0.0
C519 C 0.41617 0.83598 0.90427 0.0
C520 C 0.47987 0.83142 0.90698 0.0
C521 C 0.41964 0.85324 0.87266 0.0
C522 C 0.45287 0.86071 0.85906 0.0
C523 C 0.51642 0.86206 0.86638 0.0
C524 C 0.54637 0.85413 0.88598 0.0
C525 C 0.48315 0.85098 0.87684 0.0
C526 C 0.54304 0.83261 0.91414 0.0
C527 C 0.51009 0.82137 0.92456 0.0
H528 H 0.10904 0.13642 0.36893 0.0
H529 H 0.07914 0.17436 0.47075 0.0
H530 H 0.01762 0.17454 0.45348 0.0
H531 H 0.97186 0.15715 0.41286 0.0
H532 H 0.00119 0.11522 0.31291 0.0
H533 H 0.0632 0.12393 0.32568 0.0
C534 C 0.0891 0.1453 0.38701 0.0
C535 C 0.09854 0.15499 0.42118 0.0
C536 C 0.05357 0.14443 0.37733 0.0
C537 C 0.07245 0.16637 0.44443 0.0
C538 C 0.03725 0.1665 0.4346 0.0
C539 C 0.99178 0.15065 0.39349 0.0
C540 C 0.98199 0.13534 0.36216 0.0
C541 C 0.0274 0.15458 0.40159 0.0
C542 C 0.00811 0.12684 0.3374 0.0
C543 C 0.04359 0.13169 0.34473 0.0
H544 H 0.99042 0.60866 0.17705 0.0
H545 H 0.03339 0.67527 0.10176 0.0
H546 H 0.97455 0.68776 0.08152 0.0
H547 H 0.91219 0.67375 0.0788 0.0
H548 H 0.8684 0.60816 0.15433 0.0
H549 H 0.92631 0.60135 0.18107 0.0
C550 C 0.98686 0.62641 0.15676 0.0
C551 C 0.01634 0.64046 0.14041 0.0
C552 C 0.9529 0.63328 0.1449 0.0
C553 C 0.01124 0.66384 0.1146 0.0
C554 C 0.97758 0.67087 0.10278 0.0
C555 C 0.91532 0.65835 0.10148 0.0
C556 C 0.88652 0.64098 0.11425 0.0
C557 C 0.94846 0.65473 0.11668 0.0
C558 C 0.89045 0.62159 0.14403 0.0
C559 C 0.92351 0.61762 0.15918 0.0
H560 H 0.55791 0.31633 0.54925 0.0
H561 H 0.61622 0.35904 0.63403 0.0
H562 H 0.562 0.36744 0.6675 0.0
H563 H 0.49745 0.36913 0.66892 0.0
H564 H 0.43929 0.32512 0.58479 0.0
H565 H 0.49396 0.3102 0.55535 0.0
C566 C 0.55878 0.32702 0.57529 0.0
C567 C 0.59094 0.33768 0.58874 0.0
C568 C 0.52748 0.3317 0.59451 0.0
C569 C 0.59178 0.35091 0.62284 0.0
C570 C 0.56074 0.35583 0.642 0.0
C571 C 0.49675 0.35572 0.64452 0.0
C572 C 0.46433 0.34881 0.62879 0.0
C573 C 0.52833 0.34731 0.62754 0.0
C574 C 0.46386 0.33096 0.59744 0.0
C575 C 0.49514 0.32257 0.58039 0.0
H576 H 0.99038 0.37936 0.84295 0.0
H577 H 0.03163 0.33066 0.9338 0.0
H578 H 0.97233 0.31613 0.95247 0.0
H579 H 0.90862 0.32346 0.94729 0.0
H580 H 0.86725 0.37062 0.85555 0.0
H581 H 0.92664 0.37914 0.83271 0.0
C582 C 0.98638 0.36508 0.86647 0.0
C583 C 0.01527 0.35659 0.88727 0.0
C584 C 0.95218 0.35677 0.8771 0.0
C585 C 0.00981 0.33764 0.91737 0.0
C586 C 0.97588 0.32947 0.92822 0.0
C587 C 0.91263 0.33512 0.92201 0.0
C588 C 0.88367 0.34694 0.9035 0.0
C589 C 0.94684 0.33987 0.90897 0.0
C590 C 0.88912 0.36148 0.87046 0.0
C591 C 0.92311 0.36652 0.85744 0.0
H592 H 0.59293 0.62665 0.38536 0.0
H593 H 0.55199 0.67607 0.47652 0.0
H594 H 0.49222 0.66904 0.45515 0.0
H595 H 0.4516 0.64278 0.41518 0.0
H596 H 0.49203 0.58893 0.32702 0.0
H597 H 0.55194 0.60421 0.34218 0.0
C598 C 0.57094 0.63643 0.40012 0.0
C599 C 0.57676 0.65162 0.43258 0.0
C600 C 0.53654 0.63127 0.38834 0.0
C601 C 0.54808 0.66401 0.45161 0.0
C602 C 0.51391 0.65998 0.43943 0.0
C603 C 0.47343 0.63496 0.39876 0.0
C604 C 0.4674 0.61456 0.37019 0.0
C605 C 0.50779 0.64274 0.40849 0.0
C606 C 0.49602 0.60449 0.34932 0.0
C607 C 0.53028 0.61311 0.35806 0.0
H608 H 0.30033 0.17011 0.20177 0.0
H609 H 0.22378 0.10754 0.15612 0.0
H610 H 0.19903 0.09708 0.21494 0.0
H611 H 0.199 0.10584 0.27944 0.0
H612 H 0.27626 0.16799 0.32473 0.0
H613 H 0.30081 0.17831 0.26599 0.0
C614 C 0.27817 0.15422 0.20458 0.0
C615 C 0.2639 0.13973 0.17443 0.0
C616 C 0.2642 0.14815 0.23851 0.0
C617 C 0.23531 0.11906 0.17878 0.0
C618 C 0.22113 0.11305 0.21245 0.0
C619 C 0.22125 0.12161 0.27651 0.0
C620 C 0.23567 0.13612 0.30661 0.0
C621 C 0.23536 0.12746 0.24253 0.0
C622 C 0.26457 0.15645 0.30216 0.0
C623 C 0.27864 0.16243 0.26851 0.0
H624 H 0.28307 0.83906 0.80598 0.0
H625 H 0.2234 0.92281 0.82989 0.0
H626 H 0.20697 0.92748 0.76777 0.0
H627 H 0.2092 0.90766 0.70672 0.0
H628 H 0.26971 0.82443 0.68265 0.0
H629 H 0.28629 0.81987 0.74471 0.0
C630 C 0.26635 0.85829 0.79767 0.0
C631 C 0.25434 0.88045 0.82269 0.0
C632 C 0.25727 0.86103 0.76181 0.0
C633 C 0.23298 0.90536 0.81129 0.0
C634 C 0.22358 0.90808 0.77573 0.0
C635 C 0.22611 0.88856 0.71498 0.0
C636 C 0.23811 0.8664 0.68997 0.0
C637 C 0.23557 0.88606 0.75076 0.0
C638 C 0.26011 0.84187 0.70124 0.0
C639 C 0.26954 0.83918 0.73679 0.0
H640 H 0.68799 0.88868 0.7631 0.0
H641 H 0.75921 0.89171 0.85104 0.0
H642 H 0.80948 0.89038 0.81011 0.0
H643 H 0.83297 0.8916 0.74895 0.0
H644 H 0.7615 0.88442 0.66142 0.0
H645 H 0.71152 0.88385 0.70248 0.0
C646 C 0.71456 0.88879 0.77323 0.0
C647 C 0.72002 0.89064 0.80989 0.0
C648 C 0.74322 0.88736 0.74962 0.0
C649 C 0.75446 0.89028 0.82285 0.0
C650 C 0.78316 0.88966 0.79948 0.0
C651 C 0.80644 0.88964 0.73897 0.0
C652 C 0.80084 0.88838 0.70226 0.0
C653 C 0.77784 0.8887 0.76278 0.0
C654 C 0.76643 0.88539 0.6896 0.0
C655 C 0.73784 0.88521 0.71303 0.0
H656 H 0.76663 0.11751 0.32607 0.0
H657 H 0.83994 0.11808 0.23844 0.0
H658 H 0.79145 0.12252 0.19667 0.0
H659 H 0.72812 0.12099 0.18498 0.0
H660 H 0.65485 0.11331 0.27226 0.0
H661 H 0.70314 0.11714 0.31438 0.0
C662 C 0.77186 0.11921 0.29785 0.0
C663 C 0.8066 0.11771 0.28519 0.0
C664 C 0.74382 0.12021 0.27401 0.0
C665 C 0.81327 0.11925 0.24861 0.0
C666 C 0.7856 0.12171 0.2248 0.0
C667 C 0.72278 0.12074 0.21325 0.0
C668 C 0.68814 0.11705 0.22564 0.0
C669 C 0.75075 0.12146 0.23715 0.0
C670 C 0.68143 0.11612 0.26224 0.0
C671 C 0.70899 0.11826 0.28627 0.0
H672 H 0.68298 0.58443 0.31274 0.0
H673 H 0.73895 0.67088 0.33271 0.0
H674 H 0.7539 0.67526 0.26983 0.0
H675 H 0.75144 0.65433 0.20905 0.0
H676 H 0.69731 0.56684 0.18982 0.0
H677 H 0.68106 0.56328 0.25238 0.0
C678 C 0.69849 0.60424 0.3034 0.0
C679 C 0.7098 0.62728 0.32752 0.0
C680 C 0.70717 0.60654 0.26722 0.0
C681 C 0.72999 0.65271 0.31484 0.0
C682 C 0.73846 0.65531 0.27882 0.0
C683 C 0.7358 0.63464 0.2185 0.0
C684 C 0.72543 0.61098 0.1947 0.0
C685 C 0.72714 0.63239 0.25474 0.0
C686 C 0.70562 0.58539 0.20751 0.0
C687 C 0.69635 0.5833 0.24333 0.0
H688 H 0.77031 0.36729 0.66863 0.0
H689 H 0.6591 0.37751 0.68772 0.0
H690 H 0.66853 0.37685 0.75153 0.0
H691 H 0.70856 0.37417 0.80236 0.0
H692 H 0.8202 0.36911 0.78329 0.0
H693 H 0.81059 0.36689 0.71947 0.0
C694 C 0.74824 0.36931 0.68685 0.0
C695 C 0.71411 0.37238 0.67353 0.0
C696 C 0.75394 0.36985 0.72363 0.0
C697 C 0.68569 0.37532 0.69735 0.0
C698 C 0.69102 0.37485 0.73387 0.0
C699 C 0.73068 0.37244 0.78415 0.0
C700 C 0.76497 0.37164 0.79743 0.0
C701 C 0.72503 0.37222 0.74737 0.0
C702 C 0.79351 0.36986 0.77362 0.0
C703 C 0.78806 0.36854 0.73712 0.0
H704 H 0.26097 0.38518 0.69611 0.0
H705 H 0.33808 0.38754 0.77888 0.0
H706 H 0.29122 0.38529 0.82382 0.0
H707 H 0.2281 0.38525 0.8393 0.0
H708 H 0.15147 0.38939 0.75618 0.0
H709 H 0.19828 0.38631 0.71143 0.0
C710 C 0.26748 0.38484 0.72401 0.0
C711 C 0.3028 0.38621 0.73431 0.0
C712 C 0.24047 0.38482 0.74949 0.0
C713 C 0.31099 0.38645 0.77046 0.0
C714 C 0.28425 0.38516 0.79607 0.0
C715 C 0.22178 0.38511 0.81135 0.0
C716 C 0.18656 0.38723 0.80084 0.0
C717 C 0.24888 0.38468 0.78588 0.0
C718 C 0.17849 0.38772 0.76469 0.0
C719 C 0.20519 0.38597 0.73919 0.0
H720 H 0.28568 0.62417 0.2977 0.0
H721 H 0.29661 0.52404 0.28239 0.0
H722 H 0.24541 0.5237 0.24411 0.0
H723 H 0.19734 0.5516 0.21535 0.0
H724 H 0.18916 0.6523 0.22517 0.0
H725 H 0.23937 0.65283 0.26549 0.0
C726 C 0.27684 0.60236 0.28581 0.0
C727 C 0.29474 0.57417 0.29286 0.0
C728 C 0.24781 0.60244 0.26315 0.0
C729 C 0.28336 0.54607 0.27712 0.0
C730 C 0.25399 0.54581 0.25542 0.0
C731 C 0.20644 0.5736 0.22661 0.0
C732 C 0.18946 0.60179 0.21802 0.0
C733 C 0.23594 0.57379 0.24843 0.0
C734 C 0.20186 0.63031 0.23182 0.0
C735 C 0.23051 0.63059 0.25473 0.0
loop_
_geom_bond_atom_site_label_1
_geom_bond_atom_site_label_2
_geom_bond_distance
_geom_bond_site_symmetry_2
_ccdc_geom_bond_type
Zn0 O3 2.031 . S
Zn0 O5 2.049 . S
Zn0 O10 2.067 . S
Zn1 O2 1.962 . S
Zn1 O4 1.986 . S
Zn1 O6 1.996 . S
Zn1 O9 1.943 . S
O2 Zn1 1.962 . S
O2 C7 1.254 . S
O3 Zn0 2.031 . S
O3 C7 1.269 . S
O4 Zn1 1.986 . S
O4 C11 1.262 . S
O5 Zn0 2.049 . S
O5 C13 1.260 . S
O6 Zn1 1.996 . S
O6 C13 1.257 . S
C7 O2 1.254 . S
C7 O3 1.269 . S
C8 O9 1.249 . S
C8 O10 1.270 . S
O9 Zn1 1.943 . S
O9 C8 1.249 . S
O10 Zn0 2.067 . S
O10 C8 1.270 . S
C11 O4 1.262 . S
C11 O12 1.232 . S
O12 C11 1.232 . S
C13 O5 1.260 . S
C13 O6 1.257 . S
Zn14 O17 2.031 . S
Zn14 O19 2.049 . S
Zn14 O24 2.067 . S
Zn15 O16 1.962 . S
Zn15 O18 1.986 . S
Zn15 O20 1.996 . S
Zn15 O23 1.943 . S
O16 Zn15 1.962 . S
O16 C21 1.254 . S
O17 Zn14 2.031 . S
O17 C21 1.269 . S
O18 Zn15 1.986 . S
O18 C25 1.262 . S
O19 Zn14 2.049 . S
O19 C27 1.260 . S
O20 Zn15 1.996 . S
O20 C27 1.257 . S
C21 O16 1.254 . S
C21 O17 1.269 . S
C22 O23 1.249 . S
C22 O24 1.270 . S
O23 Zn15 1.943 . S
O23 C22 1.249 . S
O24 Zn14 2.067 . S
O24 C22 1.270 . S
C25 O18 1.262 . S
C25 O26 1.232 . S
O26 C25 1.232 . S
C27 O19 1.260 . S
C27 O20 1.257 . S
Zn28 O31 2.031 . S
Zn28 O33 2.049 . S
Zn28 O38 2.067 . S
Zn29 O30 1.962 . S
Zn29 O32 1.986 . S
Zn29 O34 1.996 . S
Zn29 O37 1.943 . S
O30 Zn29 1.962 . S
O30 C35 1.254 . S
O31 Zn28 2.031 . S
O31 C35 1.269 . S
O32 Zn29 1.986 . S
O32 C39 1.262 . S
O33 Zn28 2.049 . S
O33 C41 1.260 . S
O34 Zn29 1.996 . S
O34 C41 1.257 . S
C35 O30 1.254 . S
C35 O31 1.269 . S
C36 O37 1.249 . S
C36 O38 1.270 . S
O37 Zn29 1.943 . S
O37 C36 1.249 . S
O38 Zn28 2.067 . S
O38 C36 1.270 . S
C39 O32 1.262 . S
C39 O40 1.232 . S
O40 C39 1.232 . S
C41 O33 1.260 . S
C41 O34 1.257 . S
Zn42 O45 2.031 . S
Zn42 O47 2.049 . S
Zn42 O52 2.067 . S
Zn43 O44 1.962 . S
Zn43 O46 1.986 . S
Zn43 O48 1.996 . S
Zn43 O51 1.943 . S
O44 Zn43 1.962 . S
O44 C49 1.254 . S
O45 Zn42 2.031 . S
O45 C49 1.269 . S
O46 Zn43 1.986 . S
O46 C53 1.262 . S
O47 Zn42 2.049 . S
O47 C55 1.260 . S
O48 Zn43 1.996 . S
O48 C55 1.257 . S
C49 O44 1.254 . S
C49 O45 1.269 . S
C50 O51 1.249 . S
C50 O52 1.270 . S
O51 Zn43 1.943 . S
O51 C50 1.249 . S
O52 Zn42 2.067 . S
O52 C50 1.270 . S
C53 O46 1.262 . S
C53 O54 1.232 . S
O54 C53 1.232 . S
C55 O47 1.260 . S
C55 O48 1.257 . S
Zn56 O59 2.031 . S
Zn56 O61 2.049 . S
Zn56 O66 2.067 . S
Zn57 O58 1.962 . S
Zn57 O60 1.986 . S
Zn57 O62 1.996 . S
Zn57 O65 1.943 . S
O58 Zn57 1.962 . S
O58 C63 1.254 . S
O59 Zn56 2.031 . S
O59 C63 1.269 . S
O60 Zn57 1.986 . S
O60 C67 1.262 . S
O61 Zn56 2.049 . S
O61 C69 1.260 . S
O62 Zn57 1.996 . S
O62 C69 1.257 . S
C63 O58 1.254 . S
C63 O59 1.269 . S
C64 O65 1.249 . S
C64 O66 1.270 . S
O65 Zn57 1.943 . S
O65 C64 1.249 . S
O66 Zn56 2.067 . S
O66 C64 1.270 . S
C67 O60 1.262 . S
C67 O68 1.232 . S
O68 C67 1.232 . S
C69 O61 1.260 . S
C69 O62 1.257 . S
Zn70 O73 2.031 . S
Zn70 O75 2.049 . S
Zn70 O80 2.067 . S
Zn71 O72 1.962 . S
Zn71 O74 1.986 . S
Zn71 O76 1.996 . S
Zn71 O79 1.943 . S
O72 Zn71 1.962 . S
O72 C77 1.254 . S
O73 Zn70 2.031 . S
O73 C77 1.269 . S
O74 Zn71 1.986 . S
O74 C81 1.262 . S
O75 Zn70 2.049 . S
O75 C83 1.260 . S
O76 Zn71 1.996 . S
O76 C83 1.257 . S
C77 O72 1.254 . S
C77 O73 1.269 . S
C78 O79 1.249 . S
C78 O80 1.270 . S
O79 Zn71 1.943 . S
O79 C78 1.249 . S
O80 Zn70 2.067 . S
O80 C78 1.270 . S
C81 O74 1.262 . S
C81 O82 1.232 . S
O82 C81 1.232 . S
C83 O75 1.260 . S
C83 O76 1.257 . S
Zn84 O87 2.031 . S
Zn84 O89 2.049 . S
Zn84 O94 2.067 . S
Zn85 O86 1.962 . S
Zn85 O88 1.986 . S
Zn85 O90 1.996 . S
Zn85 O93 1.943 . S
O86 Zn85 1.962 . S
O86 C91 1.254 . S
O87 Zn84 2.031 . S
O87 C91 1.269 . S
O88 Zn85 1.986 . S
O88 C95 1.262 . S
O89 Zn84 2.049 . S
O89 C97 1.260 . S
O90 Zn85 1.996 . S
O90 C97 1.257 . S
C91 O86 1.254 . S
C91 O87 1.269 . S
C92 O93 1.249 . S
C92 O94 1.270 . S
O93 Zn85 1.943 . S
O93 C92 1.249 . S
O94 Zn84 2.067 . S
O94 C92 1.270 . S
C95 O88 1.262 . S
C95 O96 1.232 . S
O96 C95 1.232 . S
C97 O89 1.260 . S
C97 O90 1.257 . S
Zn98 O101 2.031 . S
Zn98 O103 2.049 . S
Zn98 O108 2.067 . S
Zn99 O100 1.962 . S
Zn99 O102 1.986 . S
Zn99 O104 1.996 . S
Zn99 O107 1.943 . S
O100 Zn99 1.962 . S
O100 C105 1.254 . S
O101 Zn98 2.031 . S
O101 C105 1.269 . S
O102 Zn99 1.986 . S
O102 C109 1.262 . S
O103 Zn98 2.049 . S
O103 C111 1.260 . S
O104 Zn99 1.996 . S
O104 C111 1.257 . S
C105 O100 1.254 . S
C105 O101 1.269 . S
C106 O107 1.249 . S
C106 O108 1.270 . S
O107 Zn99 1.943 . S
O107 C106 1.249 . S
O108 Zn98 2.067 . S
O108 C106 1.270 . S
C109 O102 1.262 . S
C109 O110 1.232 . S
O110 C109 1.232 . S
C111 O103 1.260 . S
C111 O104 1.257 . S
Zn112 O115 2.031 . S
Zn112 O117 2.049 . S
Zn112 O122 2.067 . S
Zn113 O114 1.962 . S
Zn113 O116 1.986 . S
Zn113 O118 1.996 . S
Zn113 O121 1.943 . S
O114 Zn113 1.962 . S
O114 C119 1.254 . S
O115 Zn112 2.031 . S
O115 C119 1.269 . S
O116 Zn113 1.986 . S
O116 C123 1.262 . S
O117 Zn112 2.049 . S
O117 C125 1.260 . S
O118 Zn113 1.996 . S
O118 C125 1.257 . S
C119 O114 1.254 . S
C119 O115 1.269 . S
C120 O121 1.249 . S
C120 O122 1.270 . S
O121 Zn113 1.943 . S
O121 C120 1.249 . S
O122 Zn112 2.067 . S
O122 C120 1.270 . S
C123 O116 1.262 . S
C123 O124 1.232 . S
O124 C123 1.232 . S
C125 O117 1.260 . S
C125 O118 1.257 . S
Zn126 O129 2.031 . S
Zn126 O131 2.049 . S
Zn126 O136 2.067 . S
Zn127 O128 1.962 . S
Zn127 O130 1.986 . S
Zn127 O132 1.996 . S
Zn127 O135 1.943 . S
O128 Zn127 1.962 . S
O128 C133 1.254 . S
O129 Zn126 2.031 . S
O129 C133 1.269 . S
O130 Zn127 1.986 . S
O130 C137 1.262 . S
O131 Zn126 2.049 . S
O131 C139 1.260 . S
O132 Zn127 1.996 . S
O132 C139 1.257 . S
C133 O128 1.254 . S
C133 O129 1.269 . S
C134 O135 1.249 . S
C134 O136 1.270 . S
O135 Zn127 1.943 . S
O135 C134 1.249 . S
O136 Zn126 2.067 . S
O136 C134 1.270 . S
C137 O130 1.262 . S
C137 O138 1.232 . S
O138 C137 1.232 . S
C139 O131 1.260 . S
C139 O132 1.257 . S
Zn140 O143 2.031 . S
Zn140 O145 2.049 . S
Zn140 O150 2.067 . S
Zn141 O142 1.962 . S
Zn141 O144 1.986 . S
Zn141 O146 1.996 . S
Zn141 O149 1.943 . S
O142 Zn141 1.962 . S
O142 C147 1.254 . S
O143 Zn140 2.031 . S
O143 C147 1.269 . S
O144 Zn141 1.986 . S
O144 C151 1.262 . S
O145 Zn140 2.049 . S
O145 C153 1.260 . S
O146 Zn141 1.996 . S
O146 C153 1.257 . S
C147 O142 1.254 . S
C147 O143 1.269 . S
C148 O149 1.249 . S
C148 O150 1.270 . S
O149 Zn141 1.943 . S
O149 C148 1.249 . S
O150 Zn140 2.067 . S
O150 C148 1.270 . S
C151 O144 1.262 . S
C151 O152 1.232 . S
O152 C151 1.232 . S
C153 O145 1.260 . S
C153 O146 1.257 . S
Zn154 O157 2.031 . S
Zn154 O159 2.049 . S
Zn154 O164 2.067 . S
Zn155 O156 1.962 . S
Zn155 O158 1.986 . S
Zn155 O160 1.996 . S
Zn155 O163 1.943 . S
O156 Zn155 1.962 . S
O156 C161 1.254 . S
O157 Zn154 2.031 . S
O157 C161 1.269 . S
O158 Zn155 1.986 . S
O158 C165 1.262 . S
O159 Zn154 2.049 . S
O159 C167 1.260 . S
O160 Zn155 1.996 . S
O160 C167 1.257 . S
C161 O156 1.254 . S
C161 O157 1.269 . S
C162 O163 1.249 . S
C162 O164 1.270 . S
O163 Zn155 1.943 . S
O163 C162 1.249 . S
O164 Zn154 2.067 . S
O164 C162 1.270 . S
C165 O158 1.262 . S
C165 O166 1.232 . S
O166 C165 1.232 . S
C167 O159 1.260 . S
C167 O160 1.257 . S
Zn168 O171 2.031 . S
Zn168 O173 2.049 . S
Zn168 O178 2.067 . S
Zn169 O170 1.962 . S
Zn169 O172 1.986 . S
Zn169 O174 1.996 . S
Zn169 O177 1.943 . S
O170 Zn169 1.962 . S
O170 C175 1.254 . S
O171 Zn168 2.031 . S
O171 C175 1.269 . S
O172 Zn169 1.986 . S
O172 C179 1.262 . S
O173 Zn168 2.049 . S
O173 C181 1.260 . S
O174 Zn169 1.996 . S
O174 C181 1.257 . S
C175 O170 1.254 . S
C175 O171 1.269 . S
C176 O177 1.249 . S
C176 O178 1.270 . S
O177 Zn169 1.943 . S
O177 C176 1.249 . S
O178 Zn168 2.067 . S
O178 C176 1.270 . S
C179 O172 1.262 . S
C179 O180 1.232 . S
O180 C179 1.232 . S
C181 O173 1.260 . S
C181 O174 1.257 . S
Zn182 O185 2.031 . S
Zn182 O187 2.049 . S
Zn182 O192 2.067 . S
Zn183 O184 1.962 . S
Zn183 O186 1.986 . S
Zn183 O188 1.996 . S
Zn183 O191 1.943 . S
O184 Zn183 1.962 . S
O184 C189 1.254 . S
O185 Zn182 2.031 . S
O185 C189 1.269 . S
O186 Zn183 1.986 . S
O186 C193 1.262 . S
O187 Zn182 2.049 . S
O187 C195 1.260 . S
O188 Zn183 1.996 . S
O188 C195 1.257 . S
C189 O184 1.254 . S
C189 O185 1.269 . S
C190 O191 1.249 . S
C190 O192 1.270 . S
O191 Zn183 1.943 . S
O191 C190 1.249 . S
O192 Zn182 2.067 . S
O192 C190 1.270 . S
C193 O186 1.262 . S
C193 O194 1.232 . S
O194 C193 1.232 . S
C195 O187 1.260 . S
C195 O188 1.257 . S
Zn196 O199 2.031 . S
Zn196 O201 2.049 . S
Zn196 O206 2.067 . S
Zn197 O198 1.962 . S
Zn197 O200 1.986 . S
Zn197 O202 1.996 . S
Zn197 O205 1.943 . S
O198 Zn197 1.962 . S
O198 C203 1.254 . S
O199 Zn196 2.031 . S
O199 C203 1.269 . S
O200 Zn197 1.986 . S
O200 C207 1.262 . S
O201 Zn196 2.049 . S
O201 C209 1.260 . S
O202 Zn197 1.996 . S
O202 C209 1.257 . S
C203 O198 1.254 . S
C203 O199 1.269 . S
C204 O205 1.249 . S
C204 O206 1.270 . S
O205 Zn197 1.943 . S
O205 C204 1.249 . S
O206 Zn196 2.067 . S
O206 C204 1.270 . S
C207 O200 1.262 . S
C207 O208 1.232 . S
O208 C207 1.232 . S
C209 O201 1.260 . S
C209 O202 1.257 . S
Zn210 O213 2.031 . S
Zn210 O215 2.049 . S
Zn210 O220 2.067 . S
Zn211 O212 1.962 . S
Zn211 O214 1.986 . S
Zn211 O216 1.996 . S
Zn211 O219 1.943 . S
O212 Zn211 1.962 . S
O212 C217 1.254 . S
O213 Zn210 2.031 . S
O213 C217 1.269 . S
O214 Zn211 1.986 . S
O214 C221 1.262 . S
O215 Zn210 2.049 . S
O215 C223 1.260 . S
O216 Zn211 1.996 . S
O216 C223 1.257 . S
C217 O212 1.254 . S
C217 O213 1.269 . S
C218 O219 1.249 . S
C218 O220 1.270 . S
O219 Zn211 1.943 . S
O219 C218 1.249 . S
O220 Zn210 2.067 . S
O220 C218 1.270 . S
C221 O214 1.262 . S
C221 O222 1.232 . S
O222 C221 1.232 . S
C223 O215 1.260 . S
C223 O216 1.257 . S
H224 C230 0.930 . S
H225 C233 0.930 . S
H226 C234 0.930 . S
H227 C235 0.930 . S
H228 C238 0.930 . S
H229 C239 0.930 . S
C230 H224 0.930 . S
C230 C231 1.355 . S
C230 C232 1.415 . S
C231 C230 1.355 . S
C231 C233 1.419 1_554 S
C232 C230 1.415 . S
C232 C237 1.425 1_554 S
C232 C239 1.409 . S
C233 H225 0.930 . S
C233 C231 1.419 1_556 S
C233 C234 1.362 . S
C234 H226 0.930 . S
C234 C233 1.362 . S
C234 C237 1.409 . S
C235 H227 0.930 . S
C235 C236 1.355 . S
C235 C237 1.415 . S
C236 C235 1.355 . S
C236 C238 1.419 1_556 S
C237 C232 1.425 1_556 S
C237 C234 1.409 . S
C237 C235 1.415 . S
C238 H228 0.930 . S
C238 C236 1.419 1_554 S
C238 C239 1.362 . S
C239 H229 0.930 . S
C239 C232 1.409 . S
C239 C238 1.362 . S
H240 C246 0.930 . S
H241 C249 0.930 . S
H242 C250 0.930 . S
H243 C251 0.930 . S
H244 C254 0.930 . S
H245 C255 0.930 . S
C246 H240 0.930 . S
C246 C247 1.355 . S
C246 C248 1.415 . S
C247 C246 1.355 . S
C247 C249 1.419 . S
C248 C246 1.415 . S
C248 C253 1.425 . S
C248 C255 1.409 . S
C249 H241 0.930 . S
C249 C247 1.419 . S
C249 C250 1.362 . S
C250 H242 0.930 . S
C250 C249 1.362 . S
C250 C253 1.409 . S
C251 H243 0.930 . S
C251 C252 1.355 . S
C251 C253 1.415 . S
C252 C251 1.355 . S
C252 C254 1.419 . S
C253 C248 1.425 . S
C253 C250 1.409 . S
C253 C251 1.415 . S
C254 H244 0.930 . S
C254 C252 1.419 . S
C254 C255 1.362 . S
C255 H245 0.930 . S
C255 C248 1.409 . S
C255 C254 1.362 . S
H256 C262 0.911 1_554 S
H257 C265 0.930 . S
H258 C266 0.930 . S
H259 C267 0.930 1_556 S
H260 C270 0.930 . S
H261 C271 0.930 . S
C262 H256 0.911 1_556 S
C262 C263 1.384 . S
C262 C264 1.404 1_556 S
C263 C262 1.384 . S
C263 C265 1.419 . S
C264 C262 1.404 1_554 S
C264 C269 1.425 1_554 S
C264 C271 1.409 . S
C265 H257 0.930 . S
C265 C263 1.419 . S
C265 C266 1.362 . S
C266 H258 0.930 . S
C266 C265 1.362 . S
C266 C269 1.409 . S
C267 H259 0.930 1_554 S
C267 C268 1.355 . S
C267 C269 1.415 1_554 S
C268 C267 1.355 . S
C268 C270 1.419 . S
C269 C264 1.425 1_556 S
C269 C266 1.409 . S
C269 C267 1.415 1_556 S
C270 H260 0.930 . S
C270 C268 1.419 . S
C270 C271 1.362 . S
C271 H261 0.930 . S
C271 C264 1.409 . S
C271 C270 1.362 . S
H272 C278 0.930 . S
H273 C281 0.930 . S
H274 C282 0.930 . S
H275 C283 0.930 . S
H276 C286 0.930 . S
H277 C287 0.930 . S
C278 H272 0.930 . S
C278 C279 1.355 . S
C278 C280 1.415 . S
C279 C278 1.355 . S
C279 C281 1.419 . S
C280 C278 1.415 . S
C280 C285 1.425 . S
C280 C287 1.409 . S
C281 H273 0.930 . S
C281 C279 1.419 . S
C281 C282 1.362 . S
C282 H274 0.930 . S
C282 C281 1.362 . S
C282 C285 1.409 . S
C283 H275 0.930 . S
C283 C284 1.355 . S
C283 C285 1.415 . S
C284 C283 1.355 . S
C284 C286 1.419 . S
C285 C280 1.425 . S
C285 C282 1.409 . S
C285 C283 1.415 . S
C286 H276 0.930 . S
C286 C284 1.419 . S
C286 C287 1.362 . S
C287 H277 0.930 . S
C287 C280 1.409 . S
C287 C286 1.362 . S
H288 C294 0.930 . S
H289 C297 0.930 . S
H290 C298 0.930 . S
H291 C299 0.930 . S
H292 C302 0.930 . S
H293 C303 0.930 . S
C294 H288 0.930 . S
C294 C295 1.355 . S
C294 C296 1.415 1_554 S
C295 C294 1.355 . S
C295 C297 1.419 . S
C296 C294 1.415 1_556 S
C296 C301 1.425 1_556 S
C296 C303 1.409 . S
C297 H289 0.930 . S
C297 C295 1.419 . S
C297 C298 1.362 . S
C298 H290 0.930 . S
C298 C297 1.362 . S
C298 C301 1.409 . S
C299 H291 0.930 . S
C299 C300 1.355 . S
C299 C301 1.415 1_556 S
C300 C299 1.355 . S
C300 C302 1.419 . S
C301 C296 1.425 1_554 S
C301 C298 1.409 . S
C301 C299 1.415 1_554 S
C302 H292 0.930 . S
C302 C300 1.419 . S
C302 C303 1.362 . S
C303 H293 0.930 . S
C303 C296 1.409 . S
C303 C302 1.362 . S
H304 C310 0.930 . S
H305 C313 0.930 . S
H306 C314 0.930 . S
H307 C315 0.930 . S
H308 C318 0.930 . S
H309 C319 0.930 . S
C310 H304 0.930 . S
C310 C311 1.355 . S
C310 C312 1.415 . S
C311 C310 1.355 . S
C311 C313 1.419 . S
C312 C310 1.415 . S
C312 C317 1.425 . S
C312 C319 1.409 . S
C313 H305 0.930 . S
C313 C311 1.419 . S
C313 C314 1.362 . S
C314 H306 0.930 . S
C314 C313 1.362 . S
C314 C317 1.409 . S
C315 H307 0.930 . S
C315 C316 1.355 . S
C315 C317 1.415 . S
C316 C315 1.355 . S
C316 C318 1.419 . S
C317 C312 1.425 . S
C317 C314 1.409 . S
C317 C315 1.415 . S
C318 H308 0.930 . S
C318 C316 1.419 . S
C318 C319 1.362 . S
C319 H309 0.930 . S
C319 C312 1.409 . S
C319 C318 1.362 . S
H320 C326 0.934 . S
H321 C329 0.930 . S
H322 C330 0.930 . S
H323 C331 0.930 . S
H324 C334 0.930 . S
H325 C335 0.930 . S
C326 H320 0.934 . S
C326 C327 1.355 . S
C326 C328 1.415 1_556 S
C327 C326 1.355 . S
C327 C329 1.419 . S
C328 C326 1.415 1_554 S
C328 C333 1.425 1_554 S
C328 C335 1.409 . S
C329 H321 0.930 . S
C329 C327 1.419 . S
C329 C330 1.362 . S
C330 H322 0.930 . S
C330 C329 1.362 . S
C330 C333 1.409 . S
C331 H323 0.930 . S
C331 C332 1.355 . S
C331 C333 1.415 1_554 S
C332 C331 1.355 . S
C332 C334 1.419 . S
C333 C328 1.425 1_556 S
C333 C330 1.409 . S
C333 C331 1.415 1_556 S
C334 H324 0.930 . S
C334 C332 1.419 . S
C334 C335 1.362 . S
C335 H325 0.930 . S
C335 C328 1.409 . S
C335 C334 1.362 . S
H336 C342 0.930 . S
H337 C345 0.930 . S
H338 C346 0.930 . S
H339 C347 0.930 . S
H340 C350 0.930 . S
H341 C351 0.930 . S
C342 H336 0.930 . S
C342 C343 1.355 . S
C342 C344 1.415 . S
C343 C342 1.355 . S
C343 C345 1.419 . S
C344 C342 1.415 . S
C344 C349 1.425 . S
C344 C351 1.409 . S
C345 H337 0.930 . S
C345 C343 1.419 . S
C345 C346 1.362 . S
C346 H338 0.930 . S
C346 C345 1.362 . S
C346 C349 1.409 . S
C347 H339 0.930 . S
C347 C348 1.355 . S
C347 C349 1.415 . S
C348 C347 1.355 . S
C348 C350 1.419 . S
C349 C344 1.425 . S
C349 C346 1.409 . S
C349 C347 1.415 . S
C350 H340 0.930 . S
C350 C348 1.419 . S
C350 C351 1.362 . S
C351 H341 0.930 . S
C351 C344 1.409 . S
C351 C350 1.362 . S
H352 C358 0.930 . S
H353 C361 0.930 . S
H354 C362 0.930 . S
H355 C363 0.930 . S
H356 C366 0.930 . S
H357 C367 0.930 . S
C358 H352 0.930 . S
C358 C359 1.355 . S
C358 C360 1.397 1_545 S
C359 C358 1.355 . S
C359 C361 1.419 . S
C360 C358 1.397 1_565 S
C360 C365 1.424 1_564 S
C360 C367 1.428 . S
C361 H353 0.930 . S
C361 C359 1.419 . S
C361 C362 1.362 1_554 S
C362 H354 0.930 . S
C362 C361 1.362 1_556 S
C362 C365 1.428 . S
C363 H355 0.930 . S
C363 C364 1.355 . S
C363 C365 1.397 1_565 S
C364 C363 1.355 . S
C364 C366 1.419 . S
C365 C360 1.424 1_546 S
C365 C362 1.428 . S
C365 C363 1.397 1_545 S
C366 H356 0.930 . S
C366 C364 1.419 . S
C366 C367 1.362 1_556 S
C367 H357 0.930 . S
C367 C360 1.428 . S
C367 C366 1.362 1_554 S
H368 C374 0.930 . S
H369 C377 0.930 . S
H370 C378 0.930 . S
H371 C379 0.930 . S
H372 C382 0.930 . S
H373 C383 0.930 . S
C374 H368 0.930 . S
C374 C375 1.355 . S
C374 C376 1.415 . S
C375 C374 1.355 . S
C375 C377 1.419 . S
C376 C374 1.415 . S
C376 C381 1.425 1_565 S
C376 C383 1.409 . S
C377 H369 0.930 . S
C377 C375 1.419 . S
C377 C378 1.362 1_565 S
C378 H370 0.930 . S
C378 C377 1.362 1_545 S
C378 C381 1.409 . S
C379 H371 0.930 . S
C379 C380 1.355 . S
C379 C381 1.415 . S
C380 C379 1.355 . S
C380 C382 1.419 . S
C381 C376 1.425 1_545 S
C381 C378 1.409 . S
C381 C379 1.415 . S
C382 H372 0.930 . S
C382 C380 1.419 . S
C382 C383 1.362 1_545 S
C383 H373 0.930 . S
C383 C376 1.409 . S
C383 C382 1.362 1_565 S
H384 C390 0.930 1_554 S
H385 C393 0.930 . S
H386 C394 0.930 . S
H387 C395 0.930 1_556 S
H388 C398 0.930 . S
H389 C399 0.930 . S
C390 H384 0.930 1_556 S
C390 C391 1.355 . S
C390 C392 1.415 1_556 S
C391 C390 1.355 . S
C391 C393 1.419 . S
C392 C390 1.415 1_554 S
C392 C397 1.425 1_564 S
C392 C399 1.409 . S
C393 H385 0.930 . S
C393 C391 1.419 . S
C393 C394 1.362 1_565 S
C394 H386 0.930 . S
C394 C393 1.362 1_545 S
C394 C397 1.409 . S
C395 H387 0.930 1_554 S
C395 C396 1.355 . S
C395 C397 1.415 1_554 S
C396 C395 1.355 . S
C396 C398 1.419 . S
C397 C392 1.425 1_546 S
C397 C394 1.409 . S
C397 C395 1.415 1_556 S
C398 H388 0.930 . S
C398 C396 1.419 . S
C398 C399 1.362 1_545 S
C399 H389 0.930 . S
C399 C392 1.409 . S
C399 C398 1.362 1_565 S
H400 C406 0.930 . S
H401 C409 0.930 . S
H402 C410 0.930 . S
H403 C411 0.930 . S
H404 C414 0.930 . S
H405 C415 0.930 . S
C406 H400 0.930 . S
C406 C407 1.355 . S
C406 C408 1.415 . S
C407 C406 1.355 . S
C407 C409 1.419 . S
C408 C406 1.415 . S
C408 C413 1.425 1_545 S
C408 C415 1.409 . S
C409 H401 0.930 . S
C409 C407 1.419 . S
C409 C410 1.362 1_545 S
C410 H402 0.930 . S
C410 C409 1.362 1_565 S
C410 C413 1.409 . S
C411 H403 0.930 . S
C411 C412 1.355 . S
C411 C413 1.415 . S
C412 C411 1.355 . S
C412 C414 1.419 . S
C413 C408 1.425 1_565 S
C413 C410 1.409 . S
C413 C411 1.415 . S
C414 H404 0.930 . S
C414 C412 1.419 . S
C414 C415 1.362 1_565 S
C415 H405 0.930 . S
C415 C408 1.409 . S
C415 C414 1.362 1_545 S
H416 C422 0.930 1_554 S
H417 C425 0.930 . S
H418 C426 0.930 . S
H419 C427 0.930 1_556 S
H420 C430 0.930 . S
H421 C431 0.930 . S
C422 H416 0.930 1_556 S
C422 C423 1.355 . S
C422 C424 1.415 1_556 S
C423 C422 1.355 . S
C423 C425 1.419 . S
C424 C422 1.415 1_554 S
C424 C429 1.425 1_554 S
C424 C431 1.409 . S
C425 H417 0.930 . S
C425 C423 1.419 . S
C425 C426 1.362 . S
C426 H418 0.930 . S
C426 C425 1.362 . S
C426 C429 1.409 . S
C427 H419 0.930 1_554 S
C427 C428 1.355 . S
C427 C429 1.415 1_554 S
C428 C427 1.355 . S
C428 C430 1.419 . S
C429 C424 1.425 1_556 S
C429 C426 1.409 . S
C429 C427 1.415 1_556 S
C430 H420 0.930 . S
C430 C428 1.419 . S
C430 C431 1.362 . S
C431 H421 0.930 . S
C431 C424 1.409 . S
C431 C430 1.362 . S
H432 C438 0.930 . S
H433 C441 0.930 . S
H434 C442 0.930 . S
H435 C443 0.930 . S
H436 C446 0.930 . S
H437 C447 0.930 . S
C438 H432 0.930 . S
C438 C439 1.355 . S
C438 C440 1.415 . S
C439 C438 1.355 . S
C439 C441 1.419 . S
C440 C438 1.415 . S
C440 C445 1.425 . S
C440 C447 1.409 . S
C441 H433 0.930 . S
C441 C439 1.419 . S
C441 C442 1.362 . S
C442 H434 0.930 . S
C442 C441 1.362 . S
C442 C445 1.409 . S
C443 H435 0.930 . S
C443 C444 1.355 . S
C443 C445 1.415 . S
C444 C443 1.355 . S
C444 C446 1.419 . S
C445 C440 1.425 . S
C445 C442 1.409 . S
C445 C443 1.415 . S
C446 H436 0.930 . S
C446 C444 1.419 . S
C446 C447 1.362 . S
C447 H437 0.930 . S
C447 C440 1.409 . S
C447 C446 1.362 . S
H448 C454 0.930 . S
H449 C457 0.930 . S
H450 C458 0.930 . S
H451 C459 0.930 . S
H452 C462 0.930 . S
H453 C463 0.930 . S
C454 H448 0.930 . S
C454 C455 1.355 . S
C454 C456 1.415 . S
C455 C454 1.355 . S
C455 C457 1.419 . S
C456 C454 1.415 . S
C456 C461 1.425 1_554 S
C456 C463 1.409 . S
C457 H449 0.930 . S
C457 C455 1.419 . S
C457 C458 1.362 1_554 S
C458 H450 0.930 . S
C458 C457 1.362 1_556 S
C458 C461 1.409 . S
C459 H451 0.930 . S
C459 C460 1.355 . S
C459 C461 1.415 . S
C460 C459 1.355 . S
C460 C462 1.419 . S
C461 C456 1.425 1_556 S
C461 C458 1.409 . S
C461 C459 1.415 . S
C462 H452 0.930 . S
C462 C460 1.419 . S
C462 C463 1.362 1_556 S
C463 H453 0.930 . S
C463 C456 1.409 . S
C463 C462 1.362 1_554 S
H464 C470 0.930 . S
H465 C473 0.930 . S
H466 C474 0.930 . S
H467 C475 0.930 . S
H468 C478 0.930 . S
H469 C479 0.930 . S
C470 H464 0.930 . S
C470 C471 1.355 . S
C470 C472 1.415 . S
C471 C470 1.355 . S
C471 C473 1.419 . S
C472 C470 1.415 . S
C472 C477 1.425 . S
C472 C479 1.409 . S
C473 H465 0.930 . S
C473 C471 1.419 . S
C473 C474 1.362 . S
C474 H466 0.930 . S
C474 C473 1.362 . S
C474 C477 1.409 . S
C475 H467 0.930 . S
C475 C476 1.355 . S
C475 C477 1.415 . S
C476 C475 1.355 . S
C476 C478 1.419 . S
C477 C472 1.425 . S
C477 C474 1.409 . S
C477 C475 1.415 . S
C478 H468 0.930 . S
C478 C476 1.419 . S
C478 C479 1.362 . S
C479 H469 0.930 . S
C479 C472 1.409 . S
C479 C478 1.362 . S
H480 C486 0.930 . S
H481 C489 0.930 . S
H482 C490 0.930 . S
H483 C491 0.930 . S
H484 C494 0.930 . S
H485 C495 0.930 . S
C486 H480 0.930 . S
C486 C487 1.355 . S
C486 C488 1.415 . S
C487 C486 1.355 . S
C487 C489 1.419 . S
C488 C486 1.415 . S
C488 C493 1.425 . S
C488 C495 1.409 . S
C489 H481 0.930 . S
C489 C487 1.419 . S
C489 C490 1.362 . S
C490 H482 0.930 . S
C490 C489 1.362 . S
C490 C493 1.409 . S
C491 H483 0.930 . S
C491 C492 1.355 . S
C491 C493 1.415 . S
C492 C491 1.355 . S
C492 C494 1.419 . S
C493 C488 1.425 . S
C493 C490 1.409 . S
C493 C491 1.415 . S
C494 H484 0.930 . S
C494 C492 1.419 . S
C494 C495 1.362 . S
C495 H485 0.930 . S
C495 C488 1.409 . S
C495 C494 1.362 . S
H496 C502 0.930 . S
H497 C505 0.930 . S
H498 C506 0.930 . S
H499 C507 0.930 . S
H500 C510 0.930 . S
H501 C511 0.930 . S
C502 H496 0.930 . S
C502 C503 1.355 . S
C502 C504 1.415 . S
C503 C502 1.355 . S
C503 C505 1.419 . S
C504 C502 1.415 . S
C504 C509 1.425 1_655 S
C504 C511 1.409 1_655 S
C505 H497 0.930 . S
C505 C503 1.419 . S
C505 C506 1.362 . S
C506 H498 0.930 . S
C506 C505 1.362 . S
C506 C509 1.409 1_655 S
C507 H499 0.930 . S
C507 C508 1.355 . S
C507 C509 1.415 . S
C508 C507 1.355 . S
C508 C510 1.419 . S
C509 C504 1.425 1_455 S
C509 C506 1.409 1_455 S
C509 C507 1.415 . S
C510 H500 0.930 . S
C510 C508 1.419 . S
C510 C511 1.362 . S
C511 H501 0.930 . S
C511 C504 1.409 1_455 S
C511 C510 1.362 . S
H512 C518 0.930 . S
H513 C521 0.930 . S
H514 C522 0.930 . S
H515 C523 0.930 . S
H516 C526 0.930 . S
H517 C527 0.930 . S
C518 H512 0.930 . S
C518 C519 1.355 . S
C518 C520 1.415 . S
C519 C518 1.355 . S
C519 C521 1.419 . S
C520 C518 1.415 . S
C520 C525 1.425 . S
C520 C527 1.409 . S
C521 H513 0.930 . S
C521 C519 1.419 . S
C521 C522 1.362 . S
C522 H514 0.930 . S
C522 C521 1.362 . S
C522 C525 1.409 . S
C523 H515 0.930 . S
C523 C524 1.355 . S
C523 C525 1.415 . S
C524 C523 1.355 . S
C524 C526 1.419 . S
C525 C520 1.425 . S
C525 C522 1.409 . S
C525 C523 1.415 . S
C526 H516 0.930 . S
C526 C524 1.419 . S
C526 C527 1.362 . S
C527 H517 0.930 . S
C527 C520 1.409 . S
C527 C526 1.362 . S
H528 C534 0.930 . S
H529 C537 0.930 . S
H530 C538 0.930 . S
H531 C539 0.930 . S
H532 C542 0.930 . S
H533 C543 0.930 . S
C534 H528 0.930 . S
C534 C535 1.355 . S
C534 C536 1.415 . S
C535 C534 1.355 . S
C535 C537 1.419 . S
C536 C534 1.415 . S
C536 C541 1.425 1_455 S
C536 C543 1.409 1_455 S
C537 H529 0.930 . S
C537 C535 1.419 . S
C537 C538 1.362 . S
C538 H530 0.930 . S
C538 C537 1.362 . S
C538 C541 1.409 1_455 S
C539 H531 0.930 . S
C539 C540 1.355 . S
C539 C541 1.415 . S
C540 C539 1.355 . S
C540 C542 1.419 . S
C541 C536 1.425 1_655 S
C541 C538 1.409 1_655 S
C541 C539 1.415 . S
C542 H532 0.930 . S
C542 C540 1.419 . S
C542 C543 1.362 . S
C543 H533 0.930 . S
C543 C536 1.409 1_655 S
C543 C542 1.362 . S
H544 C550 0.930 . S
H545 C553 0.930 . S
H546 C554 0.930 . S
H547 C555 0.930 . S
H548 C558 0.930 . S
H549 C559 0.930 . S
C550 H544 0.930 . S
C550 C551 1.355 . S
C550 C552 1.415 . S
C551 C550 1.355 . S
C551 C553 1.419 . S
C552 C550 1.415 . S
C552 C557 1.425 1_455 S
C552 C559 1.409 1_455 S
C553 H545 0.930 . S
C553 C551 1.419 . S
C553 C554 1.362 . S
C554 H546 0.930 . S
C554 C553 1.362 . S
C554 C557 1.409 1_455 S
C555 H547 0.930 . S
C555 C556 1.355 . S
C555 C557 1.415 . S
C556 C555 1.355 . S
C556 C558 1.419 . S
C557 C552 1.425 1_655 S
C557 C554 1.409 1_655 S
C557 C555 1.415 . S
C558 H548 0.930 . S
C558 C556 1.419 . S
C558 C559 1.362 . S
C559 H549 0.930 . S
C559 C552 1.409 1_655 S
C559 C558 1.362 . S
H560 C566 0.930 . S
H561 C569 0.930 . S
H562 C570 0.930 . S
H563 C571 0.930 . S
H564 C574 0.930 . S
H565 C575 0.930 . S
C566 H560 0.930 . S
C566 C567 1.355 . S
C566 C568 1.415 . S
C567 C566 1.355 . S
C567 C569 1.419 . S
C568 C566 1.415 . S
C568 C573 1.425 . S
C568 C575 1.409 . S
C569 H561 0.930 . S
C569 C567 1.419 . S
C569 C570 1.362 . S
C570 H562 0.930 . S
C570 C569 1.362 . S
C570 C573 1.409 . S
C571 H563 0.930 . S
C571 C572 1.355 . S
C571 C573 1.415 . S
C572 C571 1.355 . S
C572 C574 1.419 . S
C573 C568 1.425 . S
C573 C570 1.409 . S
C573 C571 1.415 . S
C574 H564 0.930 . S
C574 C572 1.419 . S
C574 C575 1.362 . S
C575 H565 0.930 . S
C575 C568 1.409 . S
C575 C574 1.362 . S
H576 C582 0.930 . S
H577 C585 0.930 . S
H578 C586 0.930 . S
H579 C587 0.930 . S
H580 C590 0.930 . S
H581 C591 0.930 . S
C582 H576 0.930 . S
C582 C583 1.355 . S
C582 C584 1.415 . S
C583 C582 1.355 . S
C583 C585 1.419 . S
C584 C582 1.415 . S
C584 C589 1.425 1_455 S
C584 C591 1.409 1_455 S
C585 H577 0.930 . S
C585 C583 1.419 . S
C585 C586 1.362 . S
C586 H578 0.930 . S
C586 C585 1.362 . S
C586 C589 1.409 1_455 S
C587 H579 0.930 . S
C587 C588 1.355 . S
C587 C589 1.415 . S
C588 C587 1.355 . S
C588 C590 1.419 . S
C589 C584 1.425 1_655 S
C589 C586 1.409 1_655 S
C589 C587 1.415 . S
C590 H580 0.930 . S
C590 C588 1.419 . S
C590 C591 1.362 . S
C591 H581 0.930 . S
C591 C584 1.409 1_655 S
C591 C590 1.362 . S
H592 C598 0.930 . S
H593 C601 0.930 . S
H594 C602 0.930 . S
H595 C603 0.930 . S
H596 C606 0.930 . S
H597 C607 0.930 . S
C598 H592 0.930 . S
C598 C599 1.355 . S
C598 C600 1.415 . S
C599 C598 1.355 . S
C599 C601 1.419 . S
C600 C598 1.415 . S
C600 C605 1.425 . S
C600 C607 1.409 . S
C601 H593 0.930 . S
C601 C599 1.419 . S
C601 C602 1.362 . S
C602 H594 0.930 . S
C602 C601 1.362 . S
C602 C605 1.409 . S
C603 H595 0.930 . S
C603 C604 1.355 . S
C603 C605 1.415 . S
C604 C603 1.355 . S
C604 C606 1.419 . S
C605 C600 1.425 . S
C605 C602 1.409 . S
C605 C603 1.415 . S
C606 H596 0.930 . S
C606 C604 1.419 . S
C606 C607 1.362 . S
C607 H597 0.930 . S
C607 C600 1.409 . S
C607 C606 1.362 . S
H608 C614 0.930 . S
H609 C617 0.930 . S
H610 C618 0.930 . S
H611 C619 0.930 . S
H612 C622 0.930 . S
H613 C623 0.930 . S
C614 H608 0.930 . S
C614 C615 1.355 . S
C614 C616 1.415 . S
C615 C614 1.355 . S
C615 C617 1.419 . S
C616 C614 1.415 . S
C616 C621 1.425 . S
C616 C623 1.409 . S
C617 H609 0.930 . S
C617 C615 1.419 . S
C617 C618 1.362 . S
C618 H610 0.930 . S
C618 C617 1.362 . S
C618 C621 1.409 . S
C619 H611 0.930 . S
C619 C620 1.355 . S
C619 C621 1.415 . S
C620 C619 1.355 . S
C620 C622 1.419 . S
C621 C616 1.425 . S
C621 C618 1.409 . S
C621 C619 1.415 . S
C622 H612 0.930 . S
C622 C620 1.419 . S
C622 C623 1.362 . S
C623 H613 0.930 . S
C623 C616 1.409 . S
C623 C622 1.362 . S
H624 C630 0.930 . S
H625 C633 0.930 . S
H626 C634 0.930 . S
H627 C635 0.930 . S
H628 C638 0.930 . S
H629 C639 0.930 . S
C630 H624 0.930 . S
C630 C631 1.355 . S
C630 C632 1.415 . S
C631 C630 1.355 . S
C631 C633 1.419 . S
C632 C630 1.415 . S
C632 C637 1.425 . S
C632 C639 1.409 . S
C633 H625 0.930 . S
C633 C631 1.419 . S
C633 C634 1.362 . S
C634 H626 0.930 . S
C634 C633 1.362 . S
C634 C637 1.409 . S
C635 H627 0.930 . S
C635 C636 1.355 . S
C635 C637 1.415 . S
C636 C635 1.355 . S
C636 C638 1.419 . S
C637 C632 1.425 . S
C637 C634 1.409 . S
C637 C635 1.415 . S
C638 H628 0.930 . S
C638 C636 1.419 . S
C638 C639 1.362 . S
C639 H629 0.930 . S
C639 C632 1.409 . S
C639 C638 1.362 . S
H640 C646 0.930 . S
H641 C649 0.930 . S
H642 C650 0.930 . S
H643 C651 0.930 . S
H644 C654 0.930 . S
H645 C655 0.930 . S
C646 H640 0.930 . S
C646 C647 1.355 . S
C646 C648 1.415 . S
C647 C646 1.355 . S
C647 C649 1.419 . S
C648 C646 1.415 . S
C648 C653 1.425 . S
C648 C655 1.409 . S
C649 H641 0.930 . S
C649 C647 1.419 . S
C649 C650 1.362 . S
C650 H642 0.930 . S
C650 C649 1.362 . S
C650 C653 1.409 . S
C651 H643 0.930 . S
C651 C652 1.355 . S
C651 C653 1.415 . S
C652 C651 1.355 . S
C652 C654 1.419 . S
C653 C648 1.425 . S
C653 C650 1.409 . S
C653 C651 1.415 . S
C654 H644 0.930 . S
C654 C652 1.419 . S
C654 C655 1.362 . S
C655 H645 0.930 . S
C655 C648 1.409 . S
C655 C654 1.362 . S
H656 C662 0.930 . S
H657 C665 0.930 . S
H658 C666 0.930 . S
H659 C667 0.930 . S
H660 C670 0.930 . S
H661 C671 0.930 . S
C662 H656 0.930 . S
C662 C663 1.355 . S
C662 C664 1.415 . S
C663 C662 1.355 . S
C663 C665 1.419 . S
C664 C662 1.415 . S
C664 C669 1.425 . S
C664 C671 1.409 . S
C665 H657 0.930 . S
C665 C663 1.419 . S
C665 C666 1.362 . S
C666 H658 0.930 . S
C666 C665 1.362 . S
C666 C669 1.409 . S
C667 H659 0.930 . S
C667 C668 1.355 . S
C667 C669 1.415 . S
C668 C667 1.355 . S
C668 C670 1.419 . S
C669 C664 1.425 . S
C669 C666 1.409 . S
C669 C667 1.415 . S
C670 H660 0.930 . S
C670 C668 1.419 . S
C670 C671 1.362 . S
C671 H661 0.930 . S
C671 C664 1.409 . S
C671 C670 1.362 . S
H672 C678 0.930 . S
H673 C681 0.930 . S
H674 C682 0.930 . S
H675 C683 0.930 . S
H676 C686 0.930 . S
H677 C687 0.930 . S
C678 H672 0.930 . S
C678 C679 1.355 . S
C678 C680 1.415 . S
C679 C678 1.355 . S
C679 C681 1.419 . S
C680 C678 1.415 . S
C680 C685 1.425 . S
C680 C687 1.409 . S
C681 H673 0.930 . S
C681 C679 1.419 . S
C681 C682 1.362 . S
C682 H674 0.930 . S
C682 C681 1.362 . S
C682 C685 1.409 . S
C683 H675 0.930 . S
C683 C684 1.355 . S
C683 C685 1.415 . S
C684 C683 1.355 . S
C684 C686 1.419 . S
C685 C680 1.425 . S
C685 C682 1.409 . S
C685 C683 1.415 . S
C686 H676 0.930 . S
C686 C684 1.419 . S
C686 C687 1.362 . S
C687 H677 0.930 . S
C687 C680 1.409 . S
C687 C686 1.362 . S
H688 C694 0.930 . S
H689 C697 0.930 . S
H690 C698 0.930 . S
H691 C699 0.930 . S
H692 C702 0.930 . S
H693 C703 0.930 . S
C694 H688 0.930 . S
C694 C695 1.355 . S
C694 C696 1.415 . S
C695 C694 1.355 . S
C695 C697 1.419 . S
C696 C694 1.415 . S
C696 C701 1.425 . S
C696 C703 1.409 . S
C697 H689 0.930 . S
C697 C695 1.419 . S
C697 C698 1.362 . S
C698 H690 0.930 . S
C698 C697 1.362 . S
C698 C701 1.409 . S
C699 H691 0.930 . S
C699 C700 1.355 . S
C699 C701 1.415 . S
C700 C699 1.355 . S
C700 C702 1.419 . S
C701 C696 1.425 . S
C701 C698 1.409 . S
C701 C699 1.415 . S
C702 H692 0.930 . S
C702 C700 1.419 . S
C702 C703 1.362 . S
C703 H693 0.930 . S
C703 C696 1.409 . S
C703 C702 1.362 . S
H704 C710 0.930 . S
H705 C713 0.930 . S
H706 C714 0.930 . S
H707 C715 0.930 . S
H708 C718 0.930 . S
H709 C719 0.930 . S
C710 H704 0.930 . S
C710 C711 1.355 . S
C710 C712 1.415 . S
C711 C710 1.355 . S
C711 C713 1.419 . S
C712 C710 1.415 . S
C712 C717 1.425 . S
C712 C719 1.409 . S
C713 H705 0.930 . S
C713 C711 1.419 . S
C713 C714 1.362 . S
C714 H706 0.930 . S
C714 C713 1.362 . S
C714 C717 1.409 . S
C715 H707 0.930 . S
C715 C716 1.355 . S
C715 C717 1.415 . S
C716 C715 1.355 . S
C716 C718 1.419 . S
C717 C712 1.425 . S
C717 C714 1.409 . S
C717 C715 1.415 . S
C718 H708 0.930 . S
C718 C716 1.419 . S
C718 C719 1.362 . S
C719 H709 0.930 . S
C719 C712 1.409 . S
C719 C718 1.362 . S
H720 C726 0.930 . S
H721 C729 0.930 . S
H722 C730 0.930 . S
H723 C731 0.930 . S
H724 C734 0.930 . S
H725 C735 0.930 . S
C726 H720 0.930 . S
C726 C727 1.355 . S
C726 C728 1.415 . S
C727 C726 1.355 . S
C727 C729 1.419 . S
C728 C726 1.415 . S
C728 C733 1.425 . S
C728 C735 1.409 . S
C729 H721 0.930 . S
C729 C727 1.419 . S
C729 C730 1.362 . S
C730 H722 0.930 . S
C730 C729 1.362 . S
C730 C733 1.409 . S
C731 H723 0.930 . S
C731 C732 1.355 . S
C731 C733 1.415 . S
C732 C731 1.355 . S
C732 C734 1.419 . S
C733 C728 1.425 . S
C733 C730 1.409 . S
C733 C731 1.415 . S
C734 H724 0.930 . S
C734 C732 1.419 . S
C734 C735 1.362 . S
C735 H725 0.930 . S
C735 C728 1.409 . S
C735 C734 1.362 . S
C231 C13 1.328 . S
C236 C179 1.441 . S
C247 C193 1.447 . S
C252 C27 1.355 . S
C263 C41 1.349 . S
C268 C207 1.431 . S
C279 C221 1.453 . S
C284 C55 1.398 . S
C295 C125 1.322 . S
C300 C67 1.427 . S
C311 C81 1.431 . S
C316 C139 1.305 . S
C327 C153 1.328 . S
C332 C95 1.428 . S
C343 C109 1.427 . S
C348 C167 1.310 . S
C359 C8 1.361 . S
C364 C36 1.365 . S
C375 C22 1.398 . S
C380 C50 1.400 . S
C391 C64 1.497 . S
C396 C92 1.499 . S
C407 C78 1.505 . S
C412 C106 1.509 . S
C423 C148 1.401 . S
C428 C120 1.401 . S
C439 C134 1.347 . S
C444 C162 1.348 . S
C455 C204 1.522 . S
C460 C176 1.525 . S
C471 C190 1.495 . S
C476 C218 1.495 . S
C487 C91 1.472 . S
C492 C7 1.474 . S
C503 C105 1.504 . S
C508 C21 1.498 . S
C519 C35 1.480 . S
C524 C63 1.489 . S
C535 C49 1.491 . S
C540 C77 1.483 . S
C551 C203 1.503 . S
C556 C119 1.507 . S
C567 C133 1.507 . S
C572 C217 1.503 . S
C583 C175 1.507 . S
C588 C147 1.505 . S
C599 C161 1.474 . S
C604 C189 1.472 . S
C615 C11 1.350 . S
C620 C53 1.348 . S
C631 C39 1.334 . S
C636 C25 1.332 . S
C647 C69 1.461 . S
C652 C111 1.485 . S
C663 C83 1.410 . S
C668 C97 1.462 . S
C679 C165 1.352 . S
C684 C123 1.354 . S
C695 C137 1.330 . S
C700 C151 1.332 . S
C711 C223 1.394 . S
C716 C181 1.439 . S
C727 C195 1.419 . S
C732 C209 1.470 . S
