# Generated by pormake.
# Topology wjt, (5)-cn, num edge types: 1
# Building blocks:
#     Node 0, Type 0, BuildingBlock: BEQFEK_clean_sbu_0, # of connection points: 5
#     Node 1, Type 0, BuildingBlock: BEQFEK_clean_sbu_0, # of connection points: 5
#     Node 2, Type 0, BuildingBlock: BEQFEK_clean_sbu_0, # of connection points: 5
#     Node 3, Type 0, BuildingBlock: BEQFEK_clean_sbu_0, # of connection points: 5
#     Node 4, Type 0, BuildingBlock: BEQFEK_clean_sbu_0, # of connection points: 5
#     Node 5, Type 0, BuildingBlock: BEQFEK_clean_sbu_0, # of connection points: 5
#     Node 6, Type 0, BuildingBlock: BEQFEK_clean_sbu_0, # of connection points: 5
#     Node 7, Type 0, BuildingBlock: BEQFEK_clean_sbu_0, # of connection points: 5
#     Node 8, Type 0, BuildingBlock: BEQFEK_clean_sbu_0, # of connection points: 5
#     Node 9, Type 0, BuildingBlock: BEQFEK_clean_sbu_0, # of connection points: 5
#     Node 10, Type 0, BuildingBlock: BEQFEK_clean_sbu_0, # of connection points: 5
#     Node 11, Type 0, BuildingBlock: BEQFEK_clean_sbu_0, # of connection points: 5
#     Edge 12, Type (0, 0), BuildingBlock: UVAHIK_clean_linker_0, # of connection points: 2
#     Edge 13, Type (0, 0), BuildingBlock: UVAHIK_clean_linker_0, # of connection points: 2
#     Edge 14, Type (0, 0), BuildingBlock: UVAHIK_clean_linker_0, # of connection points: 2
#     Edge 15, Type (0, 0), BuildingBlock: UVAHIK_clean_linker_0, # of connection points: 2
#     Edge 16, Type (0, 0), BuildingBlock: UVAHIK_clean_linker_0, # of connection points: 2
#     Edge 17, Type (0, 0), BuildingBlock: UVAHIK_clean_linker_0, # of connection points: 2
#     Edge 18, Type (0, 0), BuildingBlock: UVAHIK_clean_linker_0, # of connection points: 2
#     Edge 19, Type (0, 0), BuildingBlock: UVAHIK_clean_linker_0, # of connection points: 2
#     Edge 20, Type (0, 0), BuildingBlock: UVAHIK_clean_linker_0, # of connection points: 2
#     Edge 21, Type (0, 0), BuildingBlock: UVAHIK_clean_linker_0, # of connection points: 2
#     Edge 22, Type (0, 0), BuildingBlock: UVAHIK_clean_linker_0, # of connection points: 2
#     Edge 23, Type (0, 0), BuildingBlock: UVAHIK_clean_linker_0, # of connection points: 2
#     Edge 24, Type (0, 0), BuildingBlock: UVAHIK_clean_linker_0, # of connection points: 2
#     Edge 25, Type (0, 0), BuildingBlock: UVAHIK_clean_linker_0, # of connection points: 2
#     Edge 26, Type (0, 0), BuildingBlock: UVAHIK_clean_linker_0, # of connection points: 2
#     Edge 27, Type (0, 0), BuildingBlock: UVAHIK_clean_linker_0, # of connection points: 2
#     Edge 28, Type (0, 0), BuildingBlock: UVAHIK_clean_linker_0, # of connection points: 2
#     Edge 29, Type (0, 0), BuildingBlock: UVAHIK_clean_linker_0, # of connection points: 2
#     Edge 30, Type (0, 0), BuildingBlock: UVAHIK_clean_linker_0, # of connection points: 2
#     Edge 31, Type (0, 0), BuildingBlock: UVAHIK_clean_linker_0, # of connection points: 2
#     Edge 32, Type (0, 0), BuildingBlock: UVAHIK_clean_linker_0, # of connection points: 2
#     Edge 33, Type (0, 0), BuildingBlock: UVAHIK_clean_linker_0, # of connection points: 2
#     Edge 34, Type (0, 0), BuildingBlock: UVAHIK_clean_linker_0, # of connection points: 2
#     Edge 35, Type (0, 0), BuildingBlock: UVAHIK_clean_linker_0, # of connection points: 2
#     Edge 36, Type (0, 0), BuildingBlock: UVAHIK_clean_linker_0, # of connection points: 2
#     Edge 37, Type (0, 0), BuildingBlock: UVAHIK_clean_linker_0, # of connection points: 2
#     Edge 38, Type (0, 0), BuildingBlock: UVAHIK_clean_linker_0, # of connection points: 2
#     Edge 39, Type (0, 0), BuildingBlock: UVAHIK_clean_linker_0, # of connection points: 2
#     Edge 40, Type (0, 0), BuildingBlock: UVAHIK_clean_linker_0, # of connection points: 2
#     Edge 41, Type (0, 0), BuildingBlock: UVAHIK_clean_linker_0, # of connection points: 2
# Relax obj value: 0.272
# Max RMSD: 0.176
# Mean RMSD: 0.176
data_MOF--net-wjt--node1-BEQFEK_clean_sbu_0--edge1-UVAHIK_clean_linker_0
_symmetry_space_group_name_H-M    P1
_symmetry_Int_Tables_number       1
_symmetry_cell_setting            triclinic
loop_
_symmetry_equiv_pos_as_xyz
'x, y, z'
_cell_length_a     89.404518
_cell_length_b     89.412571
_cell_length_c     22.287488
_cell_angle_alpha  89.896683
_cell_angle_beta   90.063163
_cell_angle_gamma 120.02449
loop_
_atom_site_label
_atom_site_type_symbol
_atom_site_fract_x
_atom_site_fract_y
_atom_site_fract_z
_atom_type_partial_charge
Co0 Co 0.32359 0.44724 0.27396 0.0
Co1 Co 0.34132 0.4539 0.14907 0.0
C2 C 0.33693 0.4248 0.22657 0.0
O3 O 0.32955 0.42889 0.26671 0.0
O4 O 0.34222 0.43336 0.17797 0.0
C5 C 0.30061 0.42698 0.36772 0.0
O6 O 0.29901 0.41386 0.33614 0.0
C7 C 0.3433 0.44745 0.02236 0.0
C8 C 0.36069 0.47387 0.98875 0.0
C9 C 0.3499 0.45699 0.97014 0.0
N10 N 0.34948 0.45832 0.06914 0.0
N11 N 0.36033 0.47398 0.049 0.0
C12 C 0.3297 0.4288 0.02792 0.0
H13 H 0.32357 0.42611 0.07289 0.0
H14 H 0.3197 0.42511 0.99262 0.0
H15 H 0.33582 0.42074 0.02196 0.0
C16 C 0.29584 0.44708 0.20188 0.0
N17 N 0.31124 0.4479 0.20656 0.0
N18 N 0.31867 0.4511 0.15349 0.0
C19 C 0.30828 0.4528 0.11332 0.0
C20 C 0.29344 0.45014 0.14268 0.0
C21 C 0.28439 0.44478 0.25417 0.0
H22 H 0.29212 0.45394 0.29027 0.0
H23 H 0.27899 0.43148 0.2721 0.0
H24 H 0.27365 0.447 0.24155 0.0
O25 O 0.34495 0.46998 0.28548 0.0
O26 O 0.35736 0.47435 0.19605 0.0
H27 H 0.32604 0.46756 0.04322 0.0
H28 H 0.30388 0.46078 0.02572 0.0
C29 C 0.3125 0.45698 0.04822 0.0
H30 H 0.31089 0.44538 0.02479 0.0
H31 H 0.3665 0.48494 0.07603 0.0
O32 O 0.3098 0.44223 0.34756 0.0
C33 C 0.35726 0.47922 0.24957 0.0
Co34 Co 0.87006 0.32466 0.62157 0.0
Co35 Co 0.88345 0.33984 0.49382 0.0
C36 C 0.90674 0.33754 0.58383 0.0
O37 O 0.89456 0.33121 0.62186 0.0
O38 O 0.90435 0.34143 0.53119 0.0
C39 C 0.86654 0.30207 0.71397 0.0
O40 O 0.87531 0.29837 0.67537 0.0
C41 C 0.89553 0.33917 0.37356 0.0
C42 C 0.8871 0.35477 0.32209 0.0
C43 C 0.89441 0.34436 0.31587 0.0
N44 N 0.8887 0.34575 0.41166 0.0
N45 N 0.88409 0.35544 0.38092 0.0
C46 C 0.90288 0.3281 0.39293 0.0
H47 H 0.9138 0.33561 0.4241 0.0
H48 H 0.89303 0.31672 0.41815 0.0
H49 H 0.90774 0.32392 0.35444 0.0
C50 C 0.84371 0.29542 0.55044 0.0
N51 N 0.85831 0.31084 0.55483 0.0
N52 N 0.86366 0.31723 0.50074 0.0
C53 C 0.8524 0.30611 0.46011 0.0
C54 C 0.83949 0.29192 0.4903 0.0
C55 C 0.83325 0.28508 0.60306 0.0
H56 H 0.83253 0.29377 0.63693 0.0
H57 H 0.83972 0.27855 0.62408 0.0
H58 H 0.81999 0.27516 0.58951 0.0
O59 O 0.86834 0.34587 0.62181 0.0
O60 O 0.87827 0.35688 0.53131 0.0
H61 H 0.85561 0.32196 0.38349 0.0
H62 H 0.84253 0.2991 0.36892 0.0
C63 C 0.85389 0.30906 0.39369 0.0
H64 H 0.86528 0.30857 0.37727 0.0
H65 H 0.87807 0.36176 0.39967 0.0
O66 O 0.86125 0.3123 0.69815 0.0
C67 C 0.87223 0.35759 0.58237 0.0
Co68 Co 0.54171 0.87487 0.93662 0.0
Co69 Co 0.53842 0.88635 0.80754 0.0
C70 C 0.56548 0.91079 0.89091 0.0
O71 O 0.55992 0.8992 0.93122 0.0
O72 O 0.55853 0.90772 0.83923 0.0
C73 C 0.56161 0.87213 0.02911 0.0
O74 O 0.57416 0.88145 0.99133 0.0
C75 C 0.54831 0.89508 0.68276 0.0
C76 C 0.52306 0.8865 0.63948 0.0
C77 C 0.54038 0.89257 0.62718 0.0
N78 N 0.53613 0.89021 0.72537 0.0
N79 N 0.52116 0.88562 0.69942 0.0
C80 C 0.56663 0.89987 0.6956 0.0
H81 H 0.57498 0.91408 0.69132 0.0
H82 H 0.56787 0.89603 0.74188 0.0
H83 H 0.57123 0.8937 0.66301 0.0
C84 C 0.54319 0.84718 0.86966 0.0
N85 N 0.54259 0.86191 0.87158 0.0
N86 N 0.54079 0.86634 0.81682 0.0
C87 C 0.53982 0.85425 0.77825 0.0
C88 C 0.54147 0.84184 0.81053 0.0
C89 C 0.54392 0.8377 0.92396 0.0
H90 H 0.53474 0.83725 0.95833 0.0
H91 H 0.55712 0.84475 0.94324 0.0
H92 H 0.54074 0.82433 0.91289 0.0
O93 O 0.51886 0.87343 0.93986 0.0
O94 O 0.517 0.8822 0.84819 0.0
H95 H 0.52675 0.85739 0.70269 0.0
H96 H 0.53382 0.842 0.69027 0.0
C97 C 0.53715 0.85441 0.71192 0.0
H98 H 0.54927 0.86442 0.69102 0.0
H99 H 0.50949 0.88079 0.7224 0.0
O100 O 0.54607 0.8668 0.01343 0.0
C101 C 0.51075 0.87695 0.90038 0.0
Co102 Co 0.66521 0.54382 0.26672 0.0
Co103 Co 0.64984 0.53943 0.13803 0.0
C104 C 0.64969 0.56474 0.225 0.0
O105 O 0.65737 0.5608 0.2644 0.0
O106 O 0.6458 0.55732 0.17423 0.0
C107 C 0.68707 0.564 0.35909 0.0
O108 O 0.6897 0.57626 0.32071 0.0
C109 C 0.65251 0.55244 0.01755 0.0
C110 C 0.63569 0.52893 0.9653 0.0
C111 C 0.64736 0.54646 0.95965 0.0
N112 N 0.64467 0.539 0.05539 0.0
N113 N 0.63432 0.52503 0.02416 0.0
C114 C 0.6647 0.5706 0.03721 0.0
H115 H 0.65922 0.57384 0.0763 0.0
H116 H 0.6771 0.57177 0.05177 0.0
H117 H 0.66714 0.57999 0.00068 0.0
C118 C 0.69573 0.54892 0.19785 0.0
N119 N 0.67964 0.54655 0.20114 0.0
N120 N 0.67305 0.54421 0.1468 0.0
C121 C 0.68468 0.54462 0.10729 0.0
C122 C 0.69947 0.54798 0.13817 0.0
C123 C 0.70703 0.55158 0.25102 0.0
H124 H 0.69978 0.54132 0.28474 0.0
H125 H 0.71065 0.56419 0.27192 0.0
H126 H 0.71901 0.55157 0.23839 0.0
O127 O 0.64468 0.52008 0.26743 0.0
O128 O 0.63398 0.51687 0.17508 0.0
H129 H 0.66725 0.52922 0.03709 0.0
H130 H 0.6892 0.53411 0.02657 0.0
C131 C 0.68096 0.53928 0.04285 0.0
H132 H 0.6838 0.55065 0.01495 0.0
H133 H 0.62697 0.51272 0.04269 0.0
O134 O 0.67761 0.54831 0.34359 0.0
C135 C 0.63347 0.51103 0.22773 0.0
Co136 Co 0.11765 0.66645 0.5966 0.0
Co137 Co 0.10795 0.65115 0.46769 0.0
C138 C 0.0818 0.65192 0.54832 0.0
O139 O 0.09299 0.6591 0.58945 0.0
O140 O 0.08572 0.64797 0.49831 0.0
C141 C 0.11875 0.68831 0.68954 0.0
O142 O 0.10857 0.69055 0.65263 0.0
C143 C 0.09985 0.65277 0.34314 0.0
C144 C 0.10863 0.63639 0.29914 0.0
C145 C 0.10249 0.64761 0.2874 0.0
N146 N 0.10461 0.64527 0.38542 0.0
N147 N 0.10938 0.6351 0.35907 0.0
C148 C 0.0951 0.66628 0.35653 0.0
H149 H 0.09859 0.67097 0.40333 0.0
H150 H 0.1016 0.67731 0.32492 0.0
H151 H 0.08094 0.66056 0.35106 0.0
C152 C 0.14427 0.6967 0.52984 0.0
N153 N 0.13041 0.68068 0.53186 0.0
N154 N 0.12665 0.67424 0.47724 0.0
C155 C 0.13829 0.68597 0.43879 0.0
C156 C 0.14954 0.7006 0.47074 0.0
C157 C 0.15237 0.70788 0.58362 0.0
H158 H 0.14317 0.71143 0.60314 0.0
H159 H 0.1645 0.71989 0.57202 0.0
H160 H 0.15506 0.70056 0.61805 0.0
O161 O 0.12047 0.64573 0.60126 0.0
O162 O 0.11355 0.63506 0.50895 0.0
H163 H 0.1537 0.69113 0.35858 0.0
H164 H 0.13169 0.68546 0.34626 0.0
C165 C 0.14023 0.68264 0.37422 0.0
H166 H 0.13682 0.66903 0.36781 0.0
H167 H 0.11418 0.62818 0.3818 0.0
O168 O 0.12507 0.679 0.67323 0.0
C169 C 0.11836 0.63442 0.56223 0.0
Co170 Co 0.44524 0.11959 0.94126 0.0
Co171 Co 0.45202 0.10805 0.81751 0.0
C172 C 0.4225 0.08381 0.89467 0.0
O173 O 0.42663 0.0954 0.93435 0.0
O174 O 0.43122 0.08682 0.84659 0.0
C175 C 0.42534 0.12269 0.03549 0.0
O176 O 0.41208 0.1112 0.00433 0.0
C177 C 0.4456 0.09931 0.69094 0.0
C178 C 0.47191 0.10751 0.6582 0.0
C179 C 0.45513 0.10177 0.63905 0.0
N180 N 0.45639 0.10393 0.73799 0.0
N181 N 0.47197 0.10825 0.71841 0.0
C182 C 0.42708 0.09476 0.69585 0.0
H183 H 0.42448 0.09846 0.74048 0.0
H184 H 0.42369 0.10117 0.66001 0.0
H185 H 0.41872 0.08059 0.69032 0.0
C186 C 0.44539 0.14705 0.86737 0.0
N187 N 0.44618 0.13249 0.87312 0.0
N188 N 0.44954 0.12811 0.8206 0.0
C189 C 0.45144 0.14013 0.77978 0.0
C190 C 0.44869 0.1524 0.80807 0.0
C191 C 0.44281 0.15626 0.91879 0.0
H192 H 0.45195 0.15797 0.95538 0.0
H193 H 0.4295 0.14824 0.93647 0.0
H194 H 0.44484 0.1691 0.90534 0.0
O195 O 0.46782 0.1207 0.95368 0.0
O196 O 0.47235 0.11235 0.86517 0.0
H197 H 0.46616 0.13654 0.71111 0.0
H198 H 0.46026 0.1525 0.69259 0.0
C199 C 0.45589 0.13996 0.71508 0.0
H200 H 0.44425 0.13027 0.69092 0.0
H201 H 0.48288 0.11288 0.74572 0.0
O202 O 0.4405 0.12872 0.01454 0.0
C203 C 0.47709 0.11745 0.91869 0.0
Co204 Co 0.54243 0.66673 0.39723 0.0
Co205 Co 0.53755 0.65078 0.52522 0.0
C206 C 0.56332 0.65121 0.43865 0.0
O207 O 0.55956 0.65911 0.39952 0.0
O208 O 0.55564 0.64702 0.48899 0.0
C209 C 0.56252 0.68876 0.3047 0.0
O210 O 0.57487 0.69136 0.34255 0.0
C211 C 0.55032 0.65344 0.6459 0.0
C212 C 0.52683 0.63615 0.69756 0.0
C213 C 0.54427 0.64811 0.70365 0.0
N214 N 0.53701 0.64542 0.60773 0.0
N215 N 0.52305 0.6348 0.63859 0.0
C216 C 0.56844 0.666 0.62673 0.0
H217 H 0.5718 0.66109 0.58636 0.0
H218 H 0.56947 0.6785 0.61446 0.0
H219 H 0.57785 0.66814 0.66288 0.0
C220 C 0.54692 0.6968 0.46706 0.0
N221 N 0.54478 0.68082 0.46327 0.0
N222 N 0.54214 0.67397 0.51727 0.0
C223 C 0.54211 0.68531 0.55706 0.0
C224 C 0.54549 0.7002 0.52673 0.0
C225 C 0.54976 0.7083 0.41429 0.0
H226 H 0.56229 0.71173 0.39308 0.0
H227 H 0.55001 0.72038 0.4274 0.0
H228 H 0.53943 0.70126 0.38063 0.0
O229 O 0.51881 0.64606 0.39559 0.0
O230 O 0.51515 0.63487 0.48733 0.0
H231 H 0.53066 0.6891 0.63677 0.0
H232 H 0.54742 0.6841 0.64995 0.0
C233 C 0.53623 0.68116 0.62093 0.0
H234 H 0.52634 0.66735 0.6256 0.0
H235 H 0.51082 0.62727 0.61976 0.0
O236 O 0.54687 0.67931 0.32071 0.0
C237 C 0.50959 0.6346 0.43441 0.0
Co238 Co 0.87252 0.54542 0.71284 0.0
Co239 Co 0.88358 0.54022 0.8406 0.0
C240 C 0.90876 0.56695 0.75628 0.0
O241 O 0.89715 0.56304 0.71682 0.0
O242 O 0.90532 0.55903 0.80618 0.0
C243 C 0.87039 0.56564 0.62053 0.0
O244 O 0.87983 0.57805 0.65857 0.0
C245 C 0.89507 0.55193 0.96171 0.0
C246 C 0.88539 0.52756 0.0123 0.0
C247 C 0.89328 0.54532 0.01923 0.0
N248 N 0.88806 0.53868 0.92296 0.0
N249 N 0.88269 0.52415 0.95318 0.0
C250 C 0.90304 0.57048 0.94318 0.0
H251 H 0.91383 0.57363 0.91175 0.0
H252 H 0.8934 0.57253 0.91866 0.0
H253 H 0.90822 0.57938 0.98202 0.0
C254 C 0.84592 0.54813 0.78282 0.0
N255 N 0.86021 0.54674 0.77907 0.0
N256 N 0.86462 0.54434 0.83306 0.0
C257 C 0.85307 0.54391 0.87296 0.0
C258 C 0.84092 0.54637 0.84244 0.0
C259 C 0.83644 0.54952 0.72968 0.0
H260 H 0.83538 0.54025 0.69459 0.0
H261 H 0.84388 0.56274 0.7107 0.0
H262 H 0.82332 0.54689 0.74194 0.0
O263 O 0.87024 0.52219 0.70874 0.0
O264 O 0.87773 0.51827 0.80015 0.0
H265 H 0.85455 0.52932 0.94684 0.0
H266 H 0.84216 0.53976 0.96297 0.0
C267 C 0.85358 0.54105 0.93899 0.0
H268 H 0.86506 0.55229 0.95837 0.0
H269 H 0.87637 0.51189 0.93384 0.0
O270 O 0.86445 0.55002 0.63651 0.0
C271 C 0.87268 0.51296 0.74686 0.0
Co272 Co 0.32262 0.87596 0.04742 0.0
Co273 Co 0.34084 0.88781 0.17136 0.0
C274 C 0.33538 0.91176 0.09302 0.0
O275 O 0.32804 0.9001 0.05345 0.0
O276 O 0.34103 0.90885 0.14151 0.0
C277 C 0.29946 0.87236 0.95296 0.0
O278 O 0.2975 0.88376 0.98388 0.0
C279 C 0.34281 0.89647 0.29786 0.0
C280 C 0.36136 0.88889 0.33111 0.0
C281 C 0.34997 0.8942 0.34995 0.0
N282 N 0.34928 0.89215 0.25099 0.0
N283 N 0.3608 0.8882 0.27089 0.0
C284 C 0.32853 0.90056 0.29256 0.0
H285 H 0.32232 0.89678 0.24775 0.0
H286 H 0.31871 0.89393 0.32815 0.0
H287 H 0.33401 0.91468 0.29822 0.0
C288 C 0.29532 0.84856 0.12151 0.0
N289 N 0.31067 0.86314 0.11568 0.0
N290 N 0.31841 0.86758 0.16822 0.0
C291 C 0.30834 0.85555 0.20908 0.0
C292 C 0.29331 0.84327 0.18084 0.0
C293 C 0.28346 0.83931 0.07018 0.0
H294 H 0.29083 0.83747 0.03377 0.0
H295 H 0.27826 0.84737 0.05218 0.0
H296 H 0.27259 0.82654 0.08386 0.0
O297 O 0.34425 0.8751 0.03572 0.0
O298 O 0.35706 0.88373 0.12431 0.0
H299 H 0.32685 0.85959 0.27774 0.0
H300 H 0.30521 0.84297 0.29557 0.0
C301 C 0.31302 0.85569 0.27373 0.0
H302 H 0.31059 0.86496 0.29847 0.0
H303 H 0.36734 0.88385 0.24376 0.0
O304 O 0.30879 0.86658 0.97408 0.0
C305 C 0.35681 0.87859 0.07095 0.0
Co306 Co 0.44585 0.32439 0.37488 0.0
Co307 Co 0.45195 0.34157 0.50094 0.0
C308 C 0.42381 0.33833 0.42018 0.0
O309 O 0.42787 0.33083 0.38045 0.0
O310 O 0.4321 0.34334 0.46933 0.0
C311 C 0.42577 0.30193 0.28115 0.0
O312 O 0.41292 0.29957 0.31599 0.0
C313 C 0.44287 0.34101 0.62582 0.0
C314 C 0.46808 0.35885 0.6672 0.0
C315 C 0.45097 0.3471 0.68076 0.0
N316 N 0.45473 0.3485 0.58235 0.0
N317 N 0.46967 0.35954 0.60711 0.0
C318 C 0.42479 0.32669 0.61453 0.0
H319 H 0.42346 0.32163 0.56823 0.0
H320 H 0.42105 0.31605 0.64732 0.0
H321 H 0.4158 0.33176 0.61992 0.0
C322 C 0.44361 0.29557 0.44698 0.0
N323 N 0.44533 0.31136 0.44205 0.0
N324 N 0.44841 0.31866 0.49534 0.0
C325 C 0.44911 0.30776 0.53579 0.0
C326 C 0.44578 0.29275 0.50663 0.0
C327 C 0.44011 0.28359 0.39536 0.0
H328 H 0.45026 0.29019 0.36073 0.0
H329 H 0.42753 0.28032 0.37483 0.0
H330 H 0.43969 0.27149 0.40957 0.0
O331 O 0.46893 0.34554 0.36732 0.0
O332 O 0.47323 0.35769 0.45727 0.0
H333 H 0.4609 0.30457 0.61578 0.0
H334 H 0.44391 0.30925 0.62858 0.0
C335 C 0.45509 0.31226 0.59941 0.0
H336 H 0.46484 0.32614 0.6032 0.0
H337 H 0.48117 0.36665 0.5833 0.0
O338 O 0.4412 0.31125 0.29963 0.0
C339 C 0.47826 0.35761 0.40389 0.0
Co340 Co 0.11796 0.44732 0.7163 0.0
Co341 Co 0.10687 0.45398 0.841 0.0
C342 C 0.08185 0.42559 0.76213 0.0
O343 O 0.09329 0.42983 0.72172 0.0
O344 O 0.08532 0.43364 0.8118 0.0
C345 C 0.12006 0.42699 0.62196 0.0
O346 O 0.10783 0.41405 0.65233 0.0
C347 C 0.09905 0.44724 0.96763 0.0
C348 C 0.10706 0.47336 0.00184 0.0
C349 C 0.10178 0.45659 0.02002 0.0
N350 N 0.10303 0.4581 0.92104 0.0
N351 N 0.10724 0.47357 0.94155 0.0
C352 C 0.095 0.4289 0.96166 0.0
H353 H 0.09825 0.42647 0.91602 0.0
H354 H 0.10209 0.4258 -0.00422 0.0
H355 H 0.08098 0.42019 0.96934 0.0
C356 C 0.14428 0.4451 0.78986 0.0
N357 N 0.13029 0.44694 0.78432 0.0
N358 N 0.12622 0.45046 0.83712 0.0
C359 C 0.13784 0.45137 0.87782 0.0
C360 C 0.14939 0.4477 0.84936 0.0
C361 C 0.15257 0.44109 0.7389 0.0
H362 H 0.15696 0.45147 0.70468 0.0
H363 H 0.14288 0.42883 0.71753 0.0
H364 H 0.1637 0.43981 0.75403 0.0
O365 O 0.12043 0.47053 0.70579 0.0
O366 O 0.11187 0.47474 0.7944 0.0
H367 H 0.15314 0.46394 0.95639 0.0
H368 H 0.13156 0.44701 0.97115 0.0
C369 C 0.13956 0.45793 0.94069 0.0
H370 H 0.1354 0.46766 0.9433 0.0
H371 H 0.11148 0.48452 0.91467 0.0
O372 O 0.12678 0.44221 0.64302 0.0
C373 C 0.11735 0.47979 0.74137 0.0
Co374 Co 0.666 0.12199 0.04951 0.0
Co375 Co 0.65001 0.10807 0.17525 0.0
C376 C 0.65185 0.08494 0.0834 0.0
O377 O 0.65859 0.09722 0.04573 0.0
O378 O 0.64806 0.08735 0.13607 0.0
C379 C 0.68866 0.12596 0.9565 0.0
O380 O 0.69131 0.11567 0.99153 0.0
C381 C 0.65066 0.09611 0.2956 0.0
C382 C 0.63236 0.10162 0.34358 0.0
C383 C 0.64413 0.096 0.35205 0.0
N384 N 0.64346 0.102 0.25614 0.0
N385 N 0.63222 0.10488 0.28471 0.0
C386 C 0.66339 0.09058 0.27866 0.0
H387 H 0.65853 0.08195 0.2391 0.0
H388 H 0.67583 0.102 0.26554 0.0
H389 H 0.66554 0.08365 0.31599 0.0
C390 C 0.69559 0.14673 0.12383 0.0
N391 N 0.67975 0.13276 0.11774 0.0
N392 N 0.67284 0.12737 0.17116 0.0
C393 C 0.68397 0.13804 0.21296 0.0
C394 C 0.69882 0.15039 0.18442 0.0
C395 C 0.70721 0.15639 0.07242 0.0
H396 H 0.70021 0.16022 0.04038 0.0
H397 H 0.71079 0.14778 0.0485 0.0
H398 H 0.71922 0.16801 0.08746 0.0
O399 O 0.64519 0.12462 0.04889 0.0
O400 O 0.6337 0.11422 0.13839 0.0
H401 H 0.66583 0.13381 0.28344 0.0
H402 H 0.6874 0.15131 0.2972 0.0
C403 C 0.67972 0.13816 0.27789 0.0
H404 H 0.68291 0.12949 0.30331 0.0
H405 H 0.62508 0.10985 0.26455 0.0
O406 O 0.67899 0.13166 0.97483 0.0
C407 C 0.6334 0.12079 0.08797 0.0
C408 C 0.26181 0.43616 0.12304 0.0
C409 C 0.27844 0.45052 0.11683 0.0
C410 C 0.24769 0.4361 0.09591 0.0
C411 C 0.23644 0.45325 0.96805 0.0
H412 H 0.19494 0.44276 0.05612 0.0
C413 C 0.18105 0.45903 0.8588 0.0
C414 C 0.16414 0.44735 0.87701 0.0
C415 C 0.19504 0.45944 0.88828 0.0
C416 C 0.2063 0.44541 0.03051 0.0
H417 H 0.29337 0.47643 0.08099 0.0
H418 H 0.26873 0.47606 0.03129 0.0
H419 H 0.21917 0.44335 0.10863 0.0
H420 H 0.1483 0.42679 0.9388 0.0
H421 H 0.17262 0.42681 0.98865 0.0
H422 H 0.22353 0.45472 0.88952 0.0
C423 C 0.26666 0.46485 0.05676 0.0
C424 C 0.22019 0.44586 0.06081 0.0
C425 C 0.2807 0.46503 0.08484 0.0
C426 C 0.16132 0.43589 0.92425 0.0
C427 C 0.17526 0.43607 0.95307 0.0
C428 C 0.22245 0.4525 0.93749 0.0
C429 C 0.25008 0.45033 0.06167 0.0
C430 C 0.23538 0.44986 0.02984 0.0
C431 C 0.19233 0.44799 0.93599 0.0
C432 C 0.2072 0.44863 0.96835 0.0
H433 H 0.25981 0.42487 0.1478 0.0
H434 H 0.235 0.42476 0.10019 0.0
H435 H 0.248 0.45617 0.94319 0.0
H436 H 0.18342 0.46814 0.82289 0.0
H437 H 0.20796 0.46901 0.87452 0.0
C438 C 0.72288 0.16123 0.25805 0.0
C439 C 0.71406 0.16473 0.2132 0.0
C440 C 0.73671 0.17474 0.28825 0.0
C441 C 0.76775 0.22181 0.27893 0.0
H442 H 0.7723 0.21722 0.45016 0.0
C443 C 0.81306 0.27949 0.42655 0.0
C444 C 0.82417 0.27696 0.4642 0.0
C445 C 0.79943 0.2655 0.39754 0.0
C446 C 0.77124 0.2186 0.40229 0.0
H447 H 0.7123 0.18481 0.16504 0.0
H448 H 0.73631 0.20856 0.21839 0.0
H449 H 0.74909 0.19338 0.39472 0.0
H450 H 0.82938 0.25797 0.50422 0.0
H451 H 0.80523 0.23326 0.45404 0.0
H452 H 0.7897 0.2472 0.28698 0.0
C453 C 0.73294 0.19543 0.2293 0.0
C454 C 0.75801 0.20494 0.37042 0.0
C455 C 0.7192 0.18189 0.19877 0.0
C456 C 0.82096 0.26015 0.47503 0.0
C457 C 0.80719 0.24609 0.44644 0.0
C458 C 0.78086 0.23551 0.3109 0.0
C459 C 0.74181 0.19201 0.27464 0.0
C460 C 0.75608 0.2064 0.30836 0.0
C461 C 0.79653 0.2487 0.40649 0.0
C462 C 0.78269 0.23405 0.37288 0.0
H463 H 0.71903 0.14802 0.26982 0.0
H464 H 0.74341 0.17164 0.3222 0.0
H465 H 0.76686 0.22326 0.23102 0.0
H466 H 0.81512 0.29235 0.41874 0.0
H467 H 0.79119 0.26781 0.36788 0.0
C468 C 0.55783 0.72465 0.59861 0.0
C469 C 0.54599 0.71552 0.5529 0.0
C470 C 0.55763 0.73846 0.62684 0.0
C471 C 0.54051 0.76855 0.6112 0.0
H472 H 0.5495 0.77462 0.78237 0.0
C473 C 0.52713 0.81425 0.75295 0.0
C474 C 0.54116 0.82629 0.7872 0.0
C475 C 0.52755 0.80036 0.72632 0.0
C476 C 0.54705 0.77309 0.73452 0.0
H477 H 0.52446 0.71317 0.50108 0.0
H478 H 0.52369 0.73704 0.55129 0.0
H479 H 0.5507 0.75126 0.73029 0.0
H480 H 0.5661 0.83285 0.82415 0.0
H481 H 0.56671 0.8082 0.77856 0.0
H482 H 0.53642 0.79015 0.61613 0.0
C483 C 0.53353 0.73399 0.56429 0.0
C484 C 0.54783 0.7598 0.70453 0.0
C485 C 0.53391 0.72032 0.53557 0.0
C486 C 0.5552 0.82372 0.79748 0.0
C487 C 0.55553 0.80968 0.77153 0.0
C488 C 0.5395 0.78167 0.64137 0.0
C489 C 0.54534 0.74318 0.61055 0.0
C490 C 0.54461 0.75739 0.64243 0.0
C491 C 0.54187 0.79811 0.73466 0.0
C492 C 0.54277 0.78406 0.70323 0.0
H493 H 0.5672 0.72103 0.61264 0.0
H494 H 0.5671 0.74541 0.66145 0.0
H495 H 0.53827 0.7673 0.56325 0.0
H496 H 0.51597 0.81577 0.74589 0.0
H497 H 0.51673 0.79142 0.69894 0.0
C498 C 0.81374 0.53209 0.90229 0.0
C499 C 0.82558 0.54616 0.8676 0.0
C500 C 0.80008 0.53253 0.93073 0.0
C501 C 0.77293 0.55222 0.9272 0.0
H502 H 0.76746 0.54222 0.09782 0.0
C503 C 0.72428 0.56145 0.06786 0.0
C504 C 0.71511 0.54909 0.1122 0.0
C505 C 0.73827 0.56173 0.03909 0.0
C506 C 0.76863 0.54482 0.05007 0.0
H507 H 0.83204 0.57122 0.83204 0.0
H508 H 0.80777 0.57187 0.88088 0.0
H509 H 0.79025 0.54082 0.04266 0.0
H510 H 0.71291 0.5272 0.16124 0.0
H511 H 0.73712 0.52729 0.11008 0.0
H512 H 0.75107 0.55576 0.93385 0.0
C513 C 0.80924 0.56063 0.88676 0.0
C514 C 0.78172 0.54406 0.01859 0.0
C515 C 0.82305 0.56028 0.85893 0.0
C516 C 0.72009 0.53704 0.12783 0.0
C517 C 0.73395 0.53715 0.09857 0.0
C518 C 0.75968 0.55276 0.95849 0.0
C519 C 0.79785 0.54691 0.92391 0.0
C520 C 0.78397 0.54774 0.95692 0.0
C521 C 0.74313 0.54941 0.05343 0.0
C522 C 0.75738 0.54908 0.02035 0.0
H523 H 0.81526 0.5209 0.90832 0.0
H524 H 0.79128 0.52166 0.95827 0.0
H525 H 0.77433 0.55496 0.87952 0.0
H526 H 0.72052 0.57081 0.05515 0.0
H527 H 0.74521 0.57155 0.00544 0.0
C528 C 0.1812 0.72093 0.46195 0.0
C529 C 0.16428 0.71635 0.44628 0.0
C530 C 0.19517 0.73495 0.43401 0.0
C531 C 0.20584 0.76224 0.29722 0.0
H532 H 0.24869 0.79117 0.38218 0.0
C533 C 0.26188 0.82635 0.20401 0.0
C534 C 0.27836 0.82816 0.20804 0.0
C535 C 0.24779 0.81251 0.23211 0.0
C536 C 0.23681 0.7831 0.35795 0.0
H537 H 0.14835 0.72268 0.39091 0.0
H538 H 0.17265 0.7477 0.34387 0.0
H539 H 0.22427 0.76801 0.43575 0.0
H540 H 0.29304 0.81661 0.24121 0.0
H541 H 0.26846 0.79264 0.29236 0.0
H542 H 0.21837 0.77777 0.21989 0.0
C543 C 0.17531 0.74029 0.37624 0.0
C544 C 0.22284 0.7698 0.38846 0.0
C545 C 0.16139 0.72612 0.40352 0.0
C546 C 0.2805 0.81569 0.23903 0.0
C547 C 0.26649 0.80201 0.26798 0.0
C548 C 0.21973 0.77571 0.26703 0.0
C549 C 0.19239 0.74472 0.39036 0.0
C550 C 0.20719 0.75915 0.35842 0.0
C551 C 0.25005 0.80038 0.26509 0.0
C552 C 0.23533 0.78619 0.29708 0.0
H553 H 0.18361 0.71331 0.4943 0.0
H554 H 0.2081 0.73778 0.44535 0.0
H555 H 0.19415 0.75409 0.2722 0.0
H556 H 0.25998 0.83583 0.18007 0.0
H557 H 0.23522 0.81151 0.22937 0.0
C558 C 0.4334 0.26854 0.57962 0.0
C559 C 0.44533 0.27756 0.534 0.0
C560 C 0.4336 0.25485 0.60892 0.0
C561 C 0.45127 0.22504 0.59782 0.0
H562 H 0.44056 0.21884 0.76787 0.0
C563 C 0.46359 0.17992 0.74961 0.0
C564 C 0.44899 0.1676 0.78104 0.0
C565 C 0.46335 0.19362 0.72044 0.0
C566 C 0.44351 0.22042 0.72035 0.0
H567 H 0.46693 0.27981 0.48315 0.0
H568 H 0.4678 0.25623 0.53563 0.0
H569 H 0.43981 0.24217 0.71372 0.0
H570 H 0.42309 0.16028 0.80978 0.0
H571 H 0.42285 0.18467 0.76018 0.0
H572 H 0.45552 0.20355 0.60551 0.0
C573 C 0.45788 0.25924 0.54771 0.0
C574 C 0.44297 0.23369 0.68911 0.0
C575 C 0.45746 0.27276 0.51774 0.0
C576 C 0.43446 0.16963 0.78549 0.0
C577 C 0.43432 0.18352 0.75723 0.0
C578 C 0.4521 0.21197 0.62936 0.0
C579 C 0.44601 0.25016 0.59399 0.0
C580 C 0.44673 0.23611 0.62731 0.0
C581 C 0.44866 0.19543 0.7236 0.0
C582 C 0.44814 0.20951 0.69076 0.0
H583 H 0.42396 0.27215 0.59269 0.0
H584 H 0.42403 0.24796 0.64332 0.0
H585 H 0.45395 0.22628 0.55015 0.0
H586 H 0.47511 0.17883 0.7471 0.0
H587 H 0.47464 0.20283 0.6955 0.0
C588 C 0.48733 0.61766 0.35622 0.0
C589 C 0.49245 0.62014 0.41674 0.0
C590 C 0.47183 0.6032 0.33882 0.0
C591 C 0.42964 0.56883 0.39325 0.0
H592 H 0.43277 0.54296 0.25919 0.0
C593 C 0.37455 0.50021 0.33102 0.0
C594 C 0.37179 0.49597 0.26978 0.0
C595 C 0.38871 0.51586 0.34957 0.0
C596 C 0.43155 0.55014 0.29608 0.0
H597 H 0.48491 0.60974 0.50678 0.0
H598 H 0.4578 0.58454 0.4762 0.0
H599 H 0.45814 0.56974 0.28975 0.0
H600 H 0.38134 0.50511 0.17987 0.0
H601 H 0.40562 0.53244 0.21195 0.0
H602 H 0.40298 0.54928 0.39929 0.0
C603 C 0.46582 0.59379 0.44234 0.0
C604 C 0.44613 0.56548 0.31363 0.0
C605 C 0.4814 0.60818 0.45974 0.0
C606 C 0.38322 0.50786 0.22748 0.0
C607 C 0.39722 0.52353 0.24592 0.0
C608 C 0.41497 0.55352 0.37533 0.0
C609 C 0.46105 0.591 0.38158 0.0
C610 C 0.44534 0.57498 0.36239 0.0
C611 C 0.40029 0.52764 0.3072 0.0
C612 C 0.41576 0.54398 0.32651 0.0
H613 H 0.49549 0.62663 0.32193 0.0
H614 H 0.46835 0.60147 0.29173 0.0
H615 H 0.42866 0.57597 0.43079 0.0
H616 H 0.36599 0.4913 0.36472 0.0
H617 H 0.39078 0.51852 0.39716 0.0
C618 C 0.86999 0.48433 0.77114 0.0
C619 C 0.87015 0.49596 0.72826 0.0
C620 C 0.86836 0.46861 0.75329 0.0
C621 C 0.87718 0.44841 0.6268 0.0
H622 H 0.84674 0.40543 0.70884 0.0
C623 C 0.87113 0.38399 0.55131 0.0
C624 C 0.87006 0.37256 0.59668 0.0
C625 C 0.86962 0.39841 0.56522 0.0
C626 C 0.85545 0.41735 0.68586 0.0
H627 H 0.86849 0.50009 0.63303 0.0
H628 H 0.86584 0.4727 0.60201 0.0
H629 H 0.84692 0.43184 0.73779 0.0
H630 H 0.86646 0.36725 0.69223 0.0
H631 H 0.86433 0.39261 0.71669 0.0
H632 H 0.88617 0.43419 0.57619 0.0
C633 C 0.86698 0.47579 0.64938 0.0
C634 C 0.85549 0.43244 0.70234 0.0
C635 C 0.86841 0.49142 0.66722 0.0
C636 C 0.86726 0.37575 0.65614 0.0
C637 C 0.86592 0.39026 0.67012 0.0
C638 C 0.87728 0.43337 0.61072 0.0
C639 C 0.86706 0.46429 0.6922 0.0
C640 C 0.86642 0.44812 0.67317 0.0
C641 C 0.86718 0.40183 0.6249 0.0
C642 C 0.86649 0.41766 0.64029 0.0
H643 H 0.87125 0.48741 0.81853 0.0
H644 H 0.8686 0.46004 0.78721 0.0
H645 H 0.8859 0.46038 0.60409 0.0
H646 H 0.87314 0.38181 0.50495 0.0
H647 H 0.87034 0.40686 0.52909 0.0
C648 C 0.48808 0.87297 0.97505 0.0
C649 C 0.49377 0.87509 0.91528 0.0
C650 C 0.47231 0.87182 0.98909 0.0
C651 C 0.44026 0.88252 0.92787 0.0
H652 H 0.41194 0.85328 0.05812 0.0
C653 C 0.37365 0.87449 0.98888 0.0
C654 C 0.37141 0.87658 0.05012 0.0
C655 C 0.38774 0.87299 0.96968 0.0
C656 C 0.41975 0.86153 0.02172 0.0
H657 H 0.4871 0.87713 0.82313 0.0
H658 H 0.45945 0.8747 0.84744 0.0
H659 H 0.43803 0.85284 0.02935 0.0
H660 H 0.382 0.87838 0.13929 0.0
H661 H 0.40642 0.87565 0.10573 0.0
H662 H 0.42187 0.89113 0.92031 0.0
C663 C 0.46735 0.87437 0.88371 0.0
C664 C 0.43474 0.86135 0.00538 0.0
C665 C 0.48319 0.87568 0.86974 0.0
C666 C 0.38337 0.87685 0.09175 0.0
C667 C 0.3973 0.87516 0.07265 0.0
C668 C 0.42519 0.88258 0.94388 0.0
C669 C 0.46179 0.87259 0.94361 0.0
C670 C 0.44531 0.87202 0.95879 0.0
C671 C 0.39969 0.87332 0.01144 0.0
C672 C 0.41493 0.87226 0.9915 0.0
H673 H 0.49596 0.87254 0.01122 0.0
H674 H 0.46858 0.87073 0.0358 0.0
H675 H 0.44821 0.8911 0.8924 0.0
H676 H 0.36466 0.87423 0.9557 0.0
H677 H 0.38924 0.87149 0.92223 0.0
C678 C 0.60824 0.48243 0.19882 0.0
C679 C 0.61911 0.49366 0.24366 0.0
C680 C 0.59399 0.4665 0.21401 0.0
C681 C 0.5742 0.43504 0.33943 0.0
H682 H 0.53175 0.42143 0.25205 0.0
C683 C 0.5068 0.38391 0.4257 0.0
C684 C 0.4952 0.37194 0.38394 0.0
C685 C 0.52261 0.3977 0.40686 0.0
C686 C 0.54356 0.42494 0.27635 0.0
H687 H 0.62371 0.49678 0.33963 0.0
H688 H 0.59863 0.46921 0.36621 0.0
H689 H 0.55819 0.44742 0.2224 0.0
H690 H 0.49123 0.365 0.28964 0.0
H691 H 0.51882 0.38922 0.25678 0.0
H692 H 0.5593 0.41275 0.39455 0.0
C693 C 0.60129 0.47254 0.31918 0.0
C694 C 0.55874 0.43982 0.2593 0.0
C695 C 0.61564 0.48841 0.30395 0.0
C696 C 0.49985 0.37399 0.32297 0.0
C697 C 0.51561 0.38789 0.30408 0.0
C698 C 0.55896 0.42023 0.35679 0.0
C699 C 0.59016 0.46147 0.27443 0.0
C700 C 0.57423 0.44513 0.29087 0.0
C701 C 0.5271 0.39992 0.34581 0.0
C702 C 0.54347 0.4151 0.32567 0.0
H703 H 0.61064 0.486 0.15187 0.0
H704 H 0.58591 0.45816 0.17831 0.0
H705 H 0.58594 0.43857 0.36411 0.0
H706 H 0.50365 0.3827 0.47304 0.0
H707 H 0.53114 0.40688 0.43994 0.0
C708 C 0.11933 0.50821 0.76239 0.0
C709 C 0.11998 0.4967 0.72095 0.0
C710 C 0.12128 0.52396 0.7433 0.0
C711 C 0.11515 0.54479 0.61222 0.0
H712 H 0.14289 0.58709 0.70147 0.0
C713 C 0.12185 0.60923 0.53453 0.0
C714 C 0.12111 0.61995 0.57907 0.0
C715 C 0.12354 0.59503 0.55015 0.0
C716 C 0.13495 0.57536 0.67638 0.0
H717 H 0.12341 0.49285 0.62698 0.0
H718 H 0.12666 0.52038 0.59361 0.0
H719 H 0.14252 0.56066 0.73175 0.0
H720 H 0.12188 0.62433 0.67499 0.0
H721 H 0.1244 0.59929 0.70238 0.0
H722 H 0.10713 0.55922 0.55795 0.0
C723 C 0.12462 0.51712 0.64087 0.0
C724 C 0.1348 0.56025 0.69362 0.0
C725 C 0.12283 0.50141 0.66003 0.0
C726 C 0.12246 0.61636 0.63959 0.0
C727 C 0.12401 0.60204 0.65525 0.0
C728 C 0.1152 0.55984 0.59525 0.0
C729 C 0.12377 0.52851 0.68231 0.0
C730 C 0.1248 0.54479 0.66197 0.0
C731 C 0.12439 0.5911 0.61072 0.0
C732 C 0.125 0.5753 0.62737 0.0
H733 H 0.11722 0.50503 0.80969 0.0
H734 H 0.12038 0.5324 0.77616 0.0
H735 H 0.10713 0.53299 0.58752 0.0
H736 H 0.12103 0.61174 0.48742 0.0
H737 H 0.12415 0.58709 0.51464 0.0
C738 C 0.60753 0.1226 0.12 0.0
C739 C 0.61872 0.12347 0.07413 0.0
C740 C 0.59308 0.12412 0.10672 0.0
C741 C 0.57314 0.1374 0.98643 0.0
H742 H 0.53059 0.10636 0.06972 0.0
C743 C 0.5058 0.12004 0.89849 0.0
C744 C 0.49383 0.11982 0.9399 0.0
C745 C 0.5216 0.12221 0.91793 0.0
C746 C 0.54242 0.11526 0.04667 0.0
H747 H 0.62367 0.12691 0.97844 0.0
H748 H 0.59821 0.12906 0.95497 0.0
H749 H 0.55728 0.10707 0.09769 0.0
H750 H 0.48912 0.12176 0.03428 0.0
H751 H 0.51674 0.1253 0.06832 0.0
H752 H 0.558 0.14506 0.93395 0.0
C753 C 0.60078 0.12759 0.00146 0.0
C754 C 0.55775 0.11573 0.06275 0.0
C755 C 0.61534 0.12626 0.01484 0.0
C756 C 0.49806 0.12187 0.00127 0.0
C757 C 0.51382 0.12384 0.02079 0.0
C758 C 0.55776 0.1368 0.96998 0.0
C759 C 0.58935 0.12635 0.04716 0.0
C760 C 0.57328 0.12667 0.03241 0.0
C761 C 0.52573 0.12404 0.97924 0.0
C762 C 0.54223 0.12559 -0.00047 0.0
H763 H 0.60986 0.12064 0.16628 0.0
H764 H 0.58478 0.12346 0.1432 0.0
H765 H 0.58489 0.14623 0.96291 0.0
H766 H 0.50299 0.11857 0.85087 0.0
H767 H 0.53046 0.12212 0.88501 0.0
C768 C 0.35366 0.4097 0.20787 0.0
C769 C 0.34064 0.41077 0.2394 0.0
C770 C 0.35892 0.39808 0.226 0.0
C771 C 0.35952 0.37478 0.36198 0.0
H772 H 0.37933 0.35579 0.25245 0.0
C773 C 0.40899 0.35541 0.4376 0.0
C774 C 0.40997 0.34227 0.40661 0.0
C775 C 0.39737 0.36064 0.4193 0.0
C776 C 0.37357 0.36069 0.28382 0.0
H777 H 0.322 0.39958 0.31172 0.0
H778 H 0.33076 0.37893 0.34202 0.0
H779 H 0.36399 0.36965 0.21269 0.0
H780 H 0.39867 0.32344 0.33497 0.0
H781 H 0.37801 0.33216 0.30439 0.0
H782 H 0.36888 0.36559 0.43312 0.0
C783 C 0.33734 0.38746 0.30463 0.0
C784 C 0.36499 0.36889 0.26089 0.0
C785 C 0.33224 0.39923 0.287 0.0
C786 C 0.39839 0.33378 0.35924 0.0
C787 C 0.38662 0.33885 0.34146 0.0
C788 C 0.36794 0.36641 0.38491 0.0
C789 C 0.35111 0.38711 0.27557 0.0
C790 C 0.35824 0.37643 0.29965 0.0
C791 C 0.38629 0.35268 0.37012 0.0
C792 C 0.37546 0.35965 0.34613 0.0
H793 H 0.36041 0.41844 0.1711 0.0
H794 H 0.36969 0.39834 0.2029 0.0
H795 H 0.35465 0.38056 0.39332 0.0
H796 H 0.41777 0.36222 0.47419 0.0
H797 H 0.39765 0.37147 0.44204 0.0
C798 C 0.0515 0.40491 0.79476 0.0
C799 C 0.06398 0.41184 0.7491 0.0
C800 C 0.03428 0.39307 0.78099 0.0
C801 C 0.00526 0.36565 0.65688 0.0
H802 H 0.97172 0.37364 0.7392 0.0
C803 C 0.93812 0.34841 0.56263 0.0
C804 C 0.92418 0.34145 0.60304 0.0
C805 C 0.95485 0.35368 0.58282 0.0
C806 C 0.98089 0.37107 0.7164 0.0
H807 H 0.0683 0.4113 0.65348 0.0
H808 H 0.03835 0.3913 0.62929 0.0
H809 H 0.00166 0.38889 0.77167 0.0
H810 H 0.91677 0.33373 0.69578 0.0
H811 H 0.94595 0.34316 0.73074 0.0
H812 H 0.9844 0.34849 0.59952 0.0
C813 C 0.04179 0.39458 0.67594 0.0
C814 C -0.00193 0.37975 0.73518 0.0
C815 C 0.05901 0.40621 0.6898 0.0
C816 C 0.92721 0.33918 0.66345 0.0
C817 C 0.94392 0.34459 0.68363 0.0
C818 C 0.98807 0.35714 0.63756 0.0
C819 C 0.02913 0.3881 0.72117 0.0
C820 C 0.01055 0.37737 0.70513 0.0
C821 C 0.95793 0.35221 0.6438 0.0
C822 C 0.9758 0.35996 0.66674 0.0
H823 H 0.05497 0.40884 0.84101 0.0
H824 H 0.02495 0.38806 0.81716 0.0
H825 H 0.01443 0.36323 0.63339 0.0
H826 H 0.9362 0.35025 0.5158 0.0
H827 H 0.96547 0.35962 0.55128 0.0
C828 C 0.64667 0.06339 0.00314 0.0
C829 C 0.64753 0.06741 0.06443 0.0
C830 C 0.64104 0.04647 0.98478 0.0
C831 C 0.61494 0.00176 0.04054 0.0
H832 H 0.63001 0.99049 0.89279 0.0
C833 C 0.58644 0.93177 0.96486 0.0
C834 C 0.57933 0.92841 0.90676 0.0
C835 C 0.5977 0.94865 0.98331 0.0
C836 C 0.62573 0.9935 0.93415 0.0
H837 H 0.64421 0.05709 0.15462 0.0
H838 H 0.635 0.0277 0.12274 0.0
H839 H 0.64478 0.02033 0.92878 0.0
H840 H 0.57946 0.94007 0.82113 0.0
H841 H 0.59925 0.96969 0.85368 0.0
H842 H 0.59593 0.97498 0.04591 0.0
C843 C 0.63808 0.03747 0.0887 0.0
C844 C 0.63411 0.01057 0.9547 0.0
C845 C 0.64345 0.05434 0.10705 0.0
C846 C 0.58463 0.94224 0.86627 0.0
C847 C 0.59601 0.95917 0.88477 0.0
C848 C 0.60675 0.98474 0.02043 0.0
C849 C 0.63639 0.03323 0.02732 0.0
C850 C 0.62864 0.01494 0.00777 0.0
C851 C 0.6022 0.96254 0.94404 0.0
C852 C 0.61191 0.98047 0.96673 0.0
H853 H 0.64971 0.07318 0.96914 0.0
H854 H 0.6397 0.0437 0.93718 0.0
H855 H 0.61008 0.00463 0.08076 0.0
H856 H 0.58283 0.92143 -0.00295 0.0
H857 H 0.6025 0.95089 0.02898 0.0
C858 C 0.5871 0.65317 0.37413 0.0
C859 C 0.57581 0.64563 0.42301 0.0
C860 C 0.5974 0.64649 0.35455 0.0
C861 C 0.59596 0.60578 0.34343 0.0
H862 H 0.64514 0.63199 0.31028 0.0
C863 C 0.63049 0.57727 0.20906 0.0
C864 C 0.64408 0.57722 0.24059 0.0
C865 C 0.62364 0.58741 0.2289 0.0
C866 C 0.6314 0.62459 0.31923 0.0
H867 H 0.56701 0.62566 0.49128 0.0
H868 H 0.58479 0.61376 0.45601 0.0
H869 H 0.63062 0.64651 0.35468 0.0
H870 H 0.66191 0.58856 0.31514 0.0
H871 H 0.65011 0.60656 0.34892 0.0
H872 H 0.59659 0.58395 0.30729 0.0
C873 C 0.58566 0.62489 0.43324 0.0
C874 C 0.62314 0.63285 0.34448 0.0
C875 C 0.57557 0.63175 0.4535 0.0
C876 C 0.65135 0.58825 0.29018 0.0
C877 C 0.64468 0.59861 0.30936 0.0
C878 C 0.60412 0.59762 0.31722 0.0
C879 C 0.59639 0.632 0.38293 0.0
C880 C 0.60538 0.62345 0.35717 0.0
C881 C 0.63047 0.59789 0.27986 0.0
C882 C 0.62191 0.60693 0.30511 0.0
H883 H 0.58762 0.66396 0.34997 0.0
H884 H 0.60555 0.65213 0.31552 0.0
H885 H 0.58221 0.59832 0.35224 0.0
H886 H 0.62463 0.56891 0.17069 0.0
H887 H 0.61274 0.58677 0.20527 0.0
C888 C 0.05012 0.63336 0.52934 0.0
C889 C 0.06369 0.64687 0.56129 0.0
C890 C 0.03303 0.62684 0.54769 0.0
C891 C 0.00344 0.63515 0.63542 0.0
H892 H 0.98032 0.58611 0.67131 0.0
C893 C 0.93047 0.59093 0.69186 0.0
C894 C 0.9268 0.57978 0.74117 0.0
C895 C 0.94746 0.60132 0.67219 0.0
C896 C 0.98667 0.59982 0.66166 0.0
H897 H 0.06998 0.66499 0.63467 0.0
H898 H 0.04004 0.65378 0.66582 0.0
H899 H 0.00906 0.60018 0.62607 0.0
H900 H 0.93812 0.57143 0.81039 0.0
H901 H 0.96778 0.58935 0.77501 0.0
H902 H 0.98081 0.63463 0.67048 0.0
C903 C 0.04268 0.64815 0.62711 0.0
C904 C 0.00298 0.6078 0.63524 0.0
C905 C 0.05978 0.65448 0.60944 0.0
C906 C 0.94053 0.57986 0.77223 0.0
C907 C 0.95747 0.59003 0.75192 0.0
C908 C 0.98692 0.62706 0.66088 0.0
C909 C 0.02923 0.63395 0.59752 0.0
C910 C 0.01154 0.62554 0.62217 0.0
C911 C 0.96101 0.60053 0.70094 0.0
C912 C 0.97851 0.60936 0.67469 0.0
H913 H 0.05273 0.62724 0.49207 0.0
H914 H 0.02281 0.61593 0.52402 0.0
H915 H 0.00985 0.64886 0.62578 0.0
H916 H 0.92016 0.59123 0.66725 0.0
H917 H 0.94991 0.6093 0.63268 0.0
C918 C 0.40695 0.05188 0.87725 0.0
C919 C 0.40814 0.06621 0.90743 0.0
C920 C 0.39493 0.03513 0.89552 0.0
C921 C 0.3706 0.01202 0.03094 0.0
H922 H 0.35193 0.97274 0.92351 0.0
C923 C 0.35154 0.94367 0.11062 0.0
C924 C 0.33868 0.92935 0.07954 0.0
C925 C 0.35648 0.96042 0.09174 0.0
C926 C 0.35672 0.98353 0.95426 0.0
H927 H 0.39678 0.07425 0.97726 0.0
H928 H 0.37546 0.04508 0.00775 0.0
H929 H 0.36618 0.00178 0.88218 0.0
H930 H 0.31994 0.9213 0.00728 0.0
H931 H 0.32816 0.95048 0.9756 0.0
H932 H 0.36098 0.99377 0.103 0.0
C933 C 0.38419 0.04673 0.97139 0.0
C934 C 0.36514 0.00022 0.93046 0.0
C935 C 0.39635 0.06346 0.95365 0.0
C936 C 0.33008 0.93209 0.03168 0.0
C937 C 0.33486 0.94883 0.01327 0.0
C938 C 0.36202 0.99532 0.05472 0.0
C939 C 0.38369 0.03235 0.94384 0.0
C940 C 0.37262 0.01468 0.96852 0.0
C941 C 0.3485 0.9632 0.04183 0.0
C942 C 0.3554 0.98087 0.01674 0.0
H943 H 0.41588 0.05358 0.84154 0.0
H944 H 0.39509 0.02442 0.87363 0.0
H945 H 0.37631 0.0228 0.06179 0.0
H946 H 0.35844 0.94199 0.1476 0.0
H947 H 0.36716 0.97114 0.11448 0.0
C948 C 0.29469 0.43791 0.46181 0.0
C949 C 0.29584 0.42478 0.43159 0.0
C950 C 0.2955 0.43874 0.52421 0.0
C951 C 0.2982 0.41755 0.66407 0.0
H952 H 0.33518 0.46394 0.69963 0.0
C953 C 0.3386 0.43615 0.88393 0.0
C954 C 0.34259 0.45207 0.90935 0.0
C955 C 0.33068 0.43144 0.82755 0.0
C956 C 0.32467 0.45099 0.69088 0.0
H957 H 0.29659 0.40105 0.44257 0.0
H958 H 0.29842 0.40273 0.55173 0.0
H959 H 0.32259 0.45733 0.60031 0.0
H960 H 0.34124 0.47542 0.89676 0.0
H961 H 0.3274 0.46724 0.79932 0.0
H962 H 0.30062 0.41128 0.75521 0.0
C963 C 0.29677 0.41231 0.52741 0.0
C964 C 0.31737 0.44721 0.63394 0.0
C965 C 0.29575 0.41137 0.46484 0.0
C966 C 0.3386 0.4632 0.8777 0.0
C967 C 0.33063 0.45848 0.82191 0.0
C968 C 0.30549 0.42138 0.72157 0.0
C969 C 0.29772 0.42659 0.55726 0.0
C970 C 0.30406 0.43048 0.61981 0.0
C971 C 0.32665 0.44261 0.796 0.0
C972 C 0.31881 0.43818 0.73542 0.0
H973 H 0.29445 0.44824 0.43712 0.0
H974 H 0.29573 0.44963 0.54633 0.0
H975 H 0.28801 0.40452 0.65421 0.0
H976 H 0.34167 0.42741 0.90743 0.0
H977 H 0.32796 0.41922 0.80831 0.0
C978 C 0.88777 0.31879 0.25253 0.0
C979 C 0.89554 0.3368 0.25851 0.0
C980 C 0.88589 0.31133 0.1961 0.0
C981 C 0.89991 0.31985 0.0387 0.0
H982 H 0.8521 0.28653 0.00196 0.0
C983 C 0.87899 0.29411 0.80017 0.0
C984 C 0.86667 0.29813 0.77818 0.0
C985 C 0.882 0.2944 0.86175 0.0
C986 C 0.86552 0.29563 0.01185 0.0
H987 H 0.90782 0.36116 0.2108 0.0
H988 H 0.90477 0.34813 0.11176 0.0
H989 H 0.86038 0.29665 0.10505 0.0
H990 H 0.8467 0.30393 0.80331 0.0
H991 H 0.85174 0.3041 0.91099 0.0
H992 H 0.90492 0.31932 0.94509 0.0
C993 C 0.9003 0.33981 0.15088 0.0
C994 C 0.87029 0.30135 0.07073 0.0
C995 C 0.90201 0.34726 0.20734 0.0
C996 C 0.85634 0.30088 0.81902 0.0
C997 C 0.85918 0.30092 0.88062 0.0
C998 C 0.89519 0.31395 0.97997 0.0
C999 C 0.89178 0.32175 0.14465 0.0
C1000 C 0.88743 0.31387 0.08432 0.0
C1001 C 0.87252 0.29839 0.90231 0.0
C1002 C 0.87786 0.30216 0.96578 0.0
H1003 H 0.88222 0.31034 0.29086 0.0
H1004 H 0.87927 0.29738 0.19241 0.0
H1005 H 0.91321 0.32945 0.04818 0.0
H1006 H 0.88715 0.29192 0.76981 0.0
H1007 H 0.89225 0.29227 0.87754 0.0
C1008 C 0.55237 0.85932 0.13108 0.0
C1009 C 0.56553 0.87081 0.09249 0.0
C1010 C 0.55496 0.86049 0.19297 0.0
C1011 C 0.5776 0.89394 0.30202 0.0
H1012 H 0.55579 0.85577 0.4142 0.0
C1013 C 0.56407 0.90289 0.55019 0.0
C1014 C 0.54715 0.89106 0.56854 0.0
C1015 C 0.57051 0.90038 0.4962 0.0
C1016 C 0.56202 0.86657 0.38344 0.0
H1017 H 0.59219 0.89157 0.08784 0.0
H1018 H 0.59662 0.89373 0.19638 0.0
H1019 H 0.56036 0.85027 0.31046 0.0
H1020 H 0.52361 0.86757 0.54465 0.0
H1021 H 0.5346 0.86343 0.45046 0.0
H1022 H 0.57829 0.9101 0.37392 0.0
C1023 C 0.58432 0.88388 0.17862 0.0
C1024 C 0.56469 0.86343 0.32427 0.0
C1025 C 0.58178 0.88258 0.11656 0.0
C1026 C 0.53669 0.87693 0.53161 0.0
C1027 C 0.5431 0.8744 0.47809 0.0
C1028 C 0.57487 0.89709 0.36121 0.0
C1029 C 0.57072 0.87326 0.21742 0.0
C1030 C 0.57184 0.87698 0.28242 0.0
C1031 C 0.56011 0.88598 0.46 0.0
C1032 C 0.56635 0.88331 0.40171 0.0
H1033 H 0.53976 0.85004 0.1137 0.0
H1034 H 0.54419 0.8522 0.22177 0.0
H1035 H 0.58302 0.90463 0.27059 0.0
H1036 H 0.57231 0.91405 0.57741 0.0
H1037 H 0.58362 0.90959 0.48306 0.0
C1038 C 0.64499 0.55193 0.85141 0.0
C1039 C 0.65526 0.55532 0.90277 0.0
C1040 C 0.65266 0.55836 0.79566 0.0
C1041 C 0.67278 0.57942 0.68634 0.0
H1042 H 0.70615 0.56549 0.64424 0.0
C1043 C 0.69601 0.58463 0.44478 0.0
C1044 C 0.69185 0.56828 0.42264 0.0
C1045 C 0.69668 0.58752 0.5065 0.0
C1046 C 0.69706 0.56969 0.65567 0.0
H1047 H 0.68161 0.56803 0.93616 0.0
H1048 H 0.69494 0.57922 0.8389 0.0
H1049 H 0.69621 0.56268 0.74796 0.0
H1050 H 0.68691 0.54273 0.44725 0.0
H1051 H 0.68826 0.54783 0.555 0.0
H1052 H 0.673 0.58567 0.59358 0.0
C1053 C 0.68098 0.57183 0.84195 0.0
C1054 C 0.69144 0.56817 0.71492 0.0
C1055 C 0.67331 0.56556 0.89771 0.0
C1056 C 0.68999 0.55541 0.46309 0.0
C1057 C 0.69087 0.55837 0.52476 0.0
C1058 C 0.67855 0.58113 0.62725 0.0
C1059 C 0.67074 0.56802 0.7903 0.0
C1060 C 0.67882 0.57249 0.73029 0.0
C1061 C 0.69348 0.57419 0.54695 0.0
C1062 C 0.6903 0.57573 0.61106 0.0
H1063 H 0.63107 0.5439 0.85414 0.0
H1064 H 0.64449 0.55504 0.75631 0.0
H1065 H 0.66313 0.58293 0.69726 0.0
H1066 H 0.69759 0.59485 0.41467 0.0
H1067 H 0.69887 0.59988 0.52263 0.0
C1068 C 0.09148 0.66065 0.21168 0.0
C1069 C 0.10363 0.65588 0.22897 0.0
C1070 C 0.09356 0.66956 0.15786 0.0
C1071 C 0.12648 0.69536 0.043 0.0
H1072 H 0.0877 0.67732 0.93317 0.0
C1073 C 0.13244 0.6929 0.79032 0.0
C1074 C 0.12031 0.69378 0.75265 0.0
C1075 C 0.13164 0.69453 0.85223 0.0
C1076 C 0.09857 0.68288 0.96374 0.0
H1077 H 0.12727 0.65638 0.20342 0.0
H1078 H 0.13069 0.6715 0.10933 0.0
H1079 H 0.08308 0.66721 0.03662 0.0
H1080 H 0.09881 0.69859 0.74952 0.0
H1081 H 0.09733 0.70126 0.85812 0.0
H1082 H 0.14214 0.71025 0.96901 0.0
C1083 C 0.11979 0.66878 0.13774 0.0
C1084 C 0.09592 0.67704 0.02301 0.0
C1085 C 0.11768 0.65986 0.19116 0.0
C1086 C 0.10828 0.69775 0.77753 0.0
C1087 C 0.10737 0.69922 0.83964 0.0
C1088 C 0.12914 0.70116 0.98373 0.0
C1089 C 0.10785 0.67385 0.12069 0.0
C1090 C 0.10998 0.68266 0.0624 0.0
C1091 C 0.11863 0.69697 0.87764 0.0
C1092 C 0.11533 0.69441 0.94292 0.0
H1093 H 0.08038 0.65747 0.23958 0.0
H1094 H 0.08409 0.67319 0.14554 0.0
H1095 H 0.13749 0.70021 0.0729 0.0
H1096 H 0.14195 0.69001 0.7723 0.0
H1097 H 0.14042 0.69261 0.88037 0.0
C1098 C 0.46197 0.11861 0.54471 0.0
C1099 C 0.4504 0.10395 0.57762 0.0
C1100 C 0.45742 0.12178 0.48842 0.0
C1101 C 0.42032 0.11099 0.3894 0.0
H1102 H 0.45584 0.12833 0.26681 0.0
C1103 C 0.40987 0.11184 0.13281 0.0
C1104 C 0.42346 0.12506 0.09983 0.0
C1105 C 0.41096 0.11138 0.19528 0.0
C1106 C 0.44586 0.12383 0.30082 0.0
H1107 H 0.42519 0.08082 0.5771 0.0
H1108 H 0.41727 0.08621 0.47728 0.0
H1109 H 0.46229 0.12188 0.36581 0.0
H1110 H 0.4475 0.1494 0.10613 0.0
H1111 H 0.4492 0.14881 0.21516 0.0
H1112 H 0.40374 0.11251 0.32279 0.0
C1113 C 0.42971 0.09544 0.49592 0.0
C1114 C 0.44954 0.12005 0.35755 0.0
C1115 C 0.43426 0.09231 0.55275 0.0
C1116 C 0.43701 0.13891 0.13051 0.0
C1117 C 0.43801 0.13852 0.19281 0.0
C1118 C 0.41658 0.1147 0.33211 0.0
C1119 C 0.44128 0.11025 0.46327 0.0
C1120 C 0.43688 0.11369 0.40263 0.0
C1121 C 0.42558 0.1242 0.22533 0.0
C1122 C 0.42938 0.12126 0.28744 0.0
H1123 H 0.4744 0.12795 0.5632 0.0
H1124 H 0.4665 0.13346 0.46497 0.0
H1125 H 0.41034 0.10622 0.42345 0.0
H1126 H 0.39922 0.10102 0.11025 0.0
H1127 H 0.40116 0.10021 0.21924 0.0
C1128 C 0.58287 0.69748 0.21814 0.0
C1129 C 0.56662 0.69345 0.24098 0.0
C1130 C 0.58552 0.69795 0.15629 0.0
C1131 C 0.56719 0.69795 0.00778 0.0
H1132 H 0.58031 0.66392 0.96639 0.0
C1133 C 0.54953 0.64576 0.81213 0.0
C1134 C 0.55292 0.65603 0.76076 0.0
C1135 C 0.55584 0.65342 0.86795 0.0
C1136 C 0.57682 0.67358 0.97725 0.0
H1137 H 0.54102 0.68856 0.21743 0.0
H1138 H 0.54572 0.68958 0.10948 0.0
H1139 H 0.58328 0.67398 0.06985 0.0
H1140 H 0.56547 0.6824 0.72749 0.0
H1141 H 0.57647 0.69571 0.82479 0.0
H1142 H 0.55999 0.69694 0.91567 0.0
C1143 C 0.55635 0.69223 0.13926 0.0
C1144 C 0.57866 0.67947 0.03621 0.0
C1145 C 0.55362 0.69155 0.20105 0.0
C1146 C 0.56301 0.67409 0.76591 0.0
C1147 C 0.56917 0.68175 0.82172 0.0
C1148 C 0.56553 0.69221 0.94866 0.0
C1149 C 0.57206 0.69468 0.11642 0.0
C1150 C 0.57335 0.69129 0.05234 0.0
C1151 C 0.56538 0.6715 0.87336 0.0
C1152 C 0.56982 0.67957 0.93335 0.0
H1153 H 0.59317 0.69908 0.24781 0.0
H1154 H 0.5978 0.70003 0.13966 0.0
H1155 H 0.56304 0.70709 0.01916 0.0
H1156 H 0.54163 0.63183 0.80934 0.0
H1157 H 0.55254 0.64523 0.90728 0.0
C1158 C 0.9006 0.54977 0.12807 0.0
C1159 C 0.89451 0.55405 0.07659 0.0
C1160 C 0.89943 0.55607 0.18413 0.0
C1161 C 0.90107 0.57728 0.29423 0.0
H1162 H 0.85435 0.56626 0.33348 0.0
C1163 C 0.88315 0.58553 0.53311 0.0
C1164 C 0.87025 0.56964 0.55642 0.0
C1165 C 0.88572 0.58782 0.47123 0.0
C1166 C 0.86749 0.56963 0.32285 0.0
H1167 H 0.88223 0.56811 0.04331 0.0
H1168 H 0.88021 0.5791 0.14102 0.0
H1169 H 0.86145 0.56269 0.23052 0.0
H1170 H 0.84884 0.54439 0.53352 0.0
H1171 H 0.85316 0.5485 0.42543 0.0
H1172 H 0.90695 0.58356 0.38704 0.0
C1173 C 0.88615 0.57112 0.1379 0.0
C1174 C 0.87158 0.56767 0.26405 0.0
C1175 C 0.88749 0.56498 0.08189 0.0
C1176 C 0.85895 0.55672 0.51675 0.0
C1177 C 0.86138 0.5591 0.4549 0.0
C1178 C 0.89704 0.57945 0.35287 0.0
C1179 C 0.89181 0.56647 0.18963 0.0
C1180 C 0.88828 0.571 0.24964 0.0
C1181 C 0.87525 0.57438 0.43178 0.0
C1182 C 0.8801 0.57517 0.36801 0.0
H1183 H 0.90582 0.54116 0.12513 0.0
H1184 H 0.90367 0.55211 0.22352 0.0
H1185 H 0.91405 0.58002 0.28409 0.0
H1186 H 0.89205 0.59574 0.5626 0.0
H1187 H 0.89641 0.59976 0.45433 0.0
C1188 C 0.34002 0.87708 0.44372 0.0
C1189 C 0.34287 0.89172 0.41113 0.0
C1190 C 0.33219 0.87363 0.4998 0.0
C1191 C 0.30528 0.88353 0.59893 0.0
H1192 H 0.32415 0.86681 0.7214 0.0
C1193 C 0.29431 0.88276 0.85547 0.0
C1194 C 0.29508 0.86979 0.8887 0.0
C1195 C 0.29571 0.88311 0.79297 0.0
C1196 C 0.31847 0.87112 0.68743 0.0
H1197 H 0.34017 0.91447 0.41193 0.0
H1198 H 0.32668 0.90862 0.51144 0.0
H1199 H 0.33696 0.87346 0.62236 0.0
H1200 H 0.29532 0.84572 0.88288 0.0
H1201 H 0.29735 0.84611 0.77381 0.0
H1202 H 0.28708 0.88163 0.66563 0.0
C1203 C 0.33017 0.89961 0.4927 0.0
C1204 C 0.32588 0.87502 0.63066 0.0
C1205 C 0.33796 0.90302 0.43606 0.0
C1206 C 0.29502 0.85603 0.85829 0.0
C1207 C 0.29625 0.8563 0.79596 0.0
C1208 C 0.29788 0.8797 0.65626 0.0
C1209 C 0.32722 0.88486 0.52508 0.0
C1210 C 0.31935 0.88119 0.58565 0.0
C1211 C 0.29775 0.87042 0.76314 0.0
C1212 C 0.30438 0.87337 0.70091 0.0
H1213 H 0.34341 0.86798 0.42514 0.0
H1214 H 0.32981 0.86199 0.52303 0.0
H1215 H 0.29989 0.88813 0.56493 0.0
H1216 H 0.29429 0.8935 0.8778 0.0
H1217 H 0.29678 0.89412 0.76878 0.0
C1218 C 0.42755 0.33363 0.75857 0.0
C1219 C 0.44458 0.33922 0.74029 0.0
C1220 C 0.42139 0.32489 0.81309 0.0
C1221 C 0.43071 0.3004 0.9267 0.0
H1222 H 0.40754 0.31548 0.03747 0.0
C1223 C 0.43631 0.29902 0.18076 0.0
C1224 C 0.42267 0.29717 0.21715 0.0
C1225 C 0.43471 0.29846 0.11846 0.0
C1226 C 0.41358 0.31075 0.0066 0.0
H1227 H 0.46865 0.3405 0.76511 0.0
H1228 H 0.45808 0.32564 0.86035 0.0
H1229 H 0.41315 0.32655 0.93513 0.0
H1230 H 0.3961 0.29163 0.21716 0.0
H1231 H 0.39337 0.2907 0.10803 0.0
H1232 H 0.43188 0.28525 -0.00092 0.0
C1233 C 0.44933 0.3276 0.83219 0.0
C1234 C 0.41685 0.31716 0.94801 0.0
C1235 C 0.45546 0.33636 0.77806 0.0
C1236 C 0.40688 0.29321 0.19025 0.0
C1237 C 0.40533 0.29278 0.1278 0.0
C1238 C 0.42746 0.29401 0.98526 0.0
C1239 C 0.43218 0.32159 0.85001 0.0
C1240 C 0.42603 0.31255 0.90824 0.0
C1241 C 0.41948 0.2961 0.09135 0.0
C1242 C 0.41944 0.29963 0.02642 0.0
H1243 H 0.41898 0.33595 0.73077 0.0
H1244 H 0.40815 0.32051 0.82597 0.0
H1245 H 0.43747 0.29633 0.89648 0.0
H1246 H 0.44858 0.30194 0.20025 0.0
H1247 H 0.44589 0.30116 0.09165 0.0
C1248 C 0.1099 0.41154 0.52443 0.0
C1249 C 0.12305 0.42484 0.55846 0.0
C1250 C 0.1104 0.41248 0.46183 0.0
C1251 C 0.12596 0.44737 0.3547 0.0
H1252 H 0.1067 0.41126 0.23442 0.0
C1253 C 0.1199 0.46306 0.11096 0.0
C1254 C 0.10466 0.45177 0.08028 0.0
C1255 C 0.12355 0.45843 0.16632 0.0
C1256 C 0.11199 0.42143 0.26774 0.0
H1257 H 0.14816 0.44808 0.55451 0.0
H1258 H 0.14923 0.44948 0.44528 0.0
H1259 H 0.11222 0.40456 0.33598 0.0
H1260 H 0.08118 0.42689 0.08315 0.0
H1261 H 0.08731 0.4189 0.18166 0.0
H1262 H 0.12516 0.46409 0.28824 0.0
C1263 C 0.13828 0.43867 0.46677 0.0
C1264 C 0.11525 0.41762 0.32557 0.0
C1265 C 0.1377 0.43784 0.5292 0.0
C1266 C 0.09304 0.43576 0.10604 0.0
C1267 C 0.09662 0.43116 0.16203 0.0
C1268 C 0.12262 0.45112 0.29741 0.0
C1269 C 0.12412 0.42664 0.43271 0.0
C1270 C 0.12225 0.43058 0.36959 0.0
C1271 C 0.11192 0.44251 0.19277 0.0
C1272 C 0.11557 0.43823 0.25327 0.0
H1273 H 0.09849 0.40131 0.54591 0.0
H1274 H 0.09932 0.40299 0.43674 0.0
H1275 H 0.13084 0.45752 0.38807 0.0
H1276 H 0.12924 0.47534 0.09145 0.0
H1277 H 0.13559 0.46732 0.18822 0.0
C1278 C 0.63998 0.08862 0.46051 0.0
C1279 C 0.6511 0.0951 0.411 0.0
C1280 C 0.6467 0.09114 0.51847 0.0
C1281 C 0.68651 0.1059 0.60868 0.0
H1282 H 0.66388 0.12325 0.71269 0.0
C1283 C 0.69568 0.1146 0.86529 0.0
C1284 C 0.6929 0.12721 0.89221 0.0
C1285 C 0.69467 0.1126 0.80306 0.0
C1286 C 0.67056 0.11872 0.68398 0.0
H1287 H 0.67798 0.10885 0.38319 0.0
H1288 H 0.68965 0.1132 0.4841 0.0
H1289 H 0.65268 0.11344 0.61273 0.0
H1290 H 0.68937 0.14912 0.87534 0.0
H1291 H 0.68812 0.14596 0.76658 0.0
H1292 H 0.70453 0.11143 0.6805 0.0
C1293 C 0.67577 0.10587 0.47819 0.0
C1294 C 0.66389 0.11274 0.62707 0.0
C1295 C 0.66904 0.10328 0.4202 0.0
C1296 C 0.69122 0.13909 0.85573 0.0
C1297 C 0.69042 0.13721 0.79356 0.0
C1298 C 0.6932 0.11189 0.66601 0.0
C1299 C 0.66466 0.10041 0.52792 0.0
C1300 C 0.67168 0.10614 0.58898 0.0
C1301 C 0.69105 0.12329 0.76696 0.0
C1302 C 0.68525 0.11835 0.70422 0.0
H1303 H 0.62611 0.08231 0.45453 0.0
H1304 H 0.63783 0.08652 0.55607 0.0
H1305 H 0.69279 0.10092 0.58007 0.0
H1306 H 0.69711 0.10531 0.89232 0.0
H1307 H 0.69526 0.10178 0.78392 0.0
loop_
_geom_bond_atom_site_label_1
_geom_bond_atom_site_label_2
_geom_bond_distance
_geom_bond_site_symmetry_2
_ccdc_geom_bond_type
Co0 O3 1.970 . S
Co0 N17 1.989 . S
Co0 O25 1.967 . S
Co0 O32 1.920 . S
Co1 O4 1.966 . S
Co1 N10 2.022 . S
Co1 N18 1.993 . S
Co1 O26 1.941 . S
C2 O3 1.258 . S
C2 O4 1.263 . S
O3 Co0 1.970 . S
O3 C2 1.258 . S
O4 Co1 1.966 . S
O4 C2 1.263 . S
C5 O6 1.235 . S
C5 O32 1.289 . S
O6 C5 1.235 . S
C7 C9 1.400 1_554 S
C7 N10 1.351 . S
C7 C12 1.501 . S
C8 C9 1.387 . S
C8 N11 1.341 1_556 S
C9 C7 1.400 1_556 S
C9 C8 1.387 . S
N10 Co1 2.022 . S
N10 C7 1.351 . S
N10 N11 1.365 . S
N11 C8 1.341 1_554 S
N11 N10 1.365 . S
N11 H31 0.862 . S
C12 C7 1.501 . S
C12 H13 0.961 . S
C12 H14 0.961 . S
C12 H15 0.960 . S
H13 C12 0.961 . S
H14 C12 0.961 . S
H15 C12 0.960 . S
C16 N17 1.342 . S
C16 C20 1.401 . S
C16 C21 1.499 . S
N17 Co0 1.989 . S
N17 C16 1.342 . S
N17 N18 1.388 . S
N18 Co1 1.993 . S
N18 N17 1.388 . S
N18 C19 1.346 . S
C19 N18 1.346 . S
C19 C20 1.396 . S
C19 C29 1.510 . S
C20 C16 1.401 . S
C20 C19 1.396 . S
C21 C16 1.499 . S
C21 H22 0.959 . S
C21 H23 0.960 . S
C21 H24 0.961 . S
H22 C21 0.959 . S
H23 C21 0.960 . S
H24 C21 0.961 . S
O25 Co0 1.967 . S
O25 C33 1.258 . S
O26 Co1 1.941 . S
O26 C33 1.266 . S
H27 C29 0.959 . S
H28 C29 0.961 . S
C29 C19 1.510 . S
C29 H27 0.959 . S
C29 H28 0.961 . S
C29 H30 0.960 . S
H30 C29 0.960 . S
H31 N11 0.862 . S
O32 Co0 1.920 . S
O32 C5 1.289 . S
C33 O25 1.258 . S
C33 O26 1.266 . S
Co34 O37 1.970 . S
Co34 N51 1.989 . S
Co34 O59 1.967 . S
Co34 O66 1.920 . S
Co35 O38 1.966 . S
Co35 N44 2.022 . S
Co35 N52 1.993 . S
Co35 O60 1.941 . S
C36 O37 1.258 . S
C36 O38 1.263 . S
O37 Co34 1.970 . S
O37 C36 1.258 . S
O38 Co35 1.966 . S
O38 C36 1.263 . S
C39 O40 1.235 . S
C39 O66 1.289 . S
O40 C39 1.235 . S
C41 C43 1.400 . S
C41 N44 1.351 . S
C41 C46 1.501 . S
C42 C43 1.387 . S
C42 N45 1.341 . S
C43 C41 1.400 . S
C43 C42 1.387 . S
N44 Co35 2.022 . S
N44 C41 1.351 . S
N44 N45 1.365 . S
N45 C42 1.341 . S
N45 N44 1.365 . S
N45 H65 0.862 . S
C46 C41 1.501 . S
C46 H47 0.961 . S
C46 H48 0.961 . S
C46 H49 0.960 . S
H47 C46 0.961 . S
H48 C46 0.961 . S
H49 C46 0.960 . S
C50 N51 1.342 . S
C50 C54 1.401 . S
C50 C55 1.499 . S
N51 Co34 1.989 . S
N51 C50 1.342 . S
N51 N52 1.388 . S
N52 Co35 1.993 . S
N52 N51 1.388 . S
N52 C53 1.346 . S
C53 N52 1.346 . S
C53 C54 1.396 . S
C53 C63 1.510 . S
C54 C50 1.401 . S
C54 C53 1.396 . S
C55 C50 1.499 . S
C55 H56 0.959 . S
C55 H57 0.960 . S
C55 H58 0.961 . S
H56 C55 0.959 . S
H57 C55 0.960 . S
H58 C55 0.961 . S
O59 Co34 1.967 . S
O59 C67 1.258 . S
O60 Co35 1.941 . S
O60 C67 1.266 . S
H61 C63 0.959 . S
H62 C63 0.961 . S
C63 C53 1.510 . S
C63 H61 0.959 . S
C63 H62 0.961 . S
C63 H64 0.960 . S
H64 C63 0.960 . S
H65 N45 0.862 . S
O66 Co34 1.920 . S
O66 C39 1.289 . S
C67 O59 1.258 . S
C67 O60 1.266 . S
Co68 O71 1.970 . S
Co68 N85 1.989 . S
Co68 O93 1.967 . S
Co68 O100 1.920 1_556 S
Co69 O72 1.966 . S
Co69 N78 2.022 . S
Co69 N86 1.993 . S
Co69 O94 1.941 . S
C70 O71 1.258 . S
C70 O72 1.263 . S
O71 Co68 1.970 . S
O71 C70 1.258 . S
O72 Co69 1.966 . S
O72 C70 1.263 . S
C73 O74 1.235 . S
C73 O100 1.289 . S
O74 C73 1.235 . S
C75 C77 1.400 . S
C75 N78 1.351 . S
C75 C80 1.501 . S
C76 C77 1.387 . S
C76 N79 1.341 . S
C77 C75 1.400 . S
C77 C76 1.387 . S
N78 Co69 2.022 . S
N78 C75 1.351 . S
N78 N79 1.365 . S
N79 C76 1.341 . S
N79 N78 1.365 . S
N79 H99 0.862 . S
C80 C75 1.501 . S
C80 H81 0.961 . S
C80 H82 0.961 . S
C80 H83 0.960 . S
H81 C80 0.961 . S
H82 C80 0.961 . S
H83 C80 0.960 . S
C84 N85 1.342 . S
C84 C88 1.401 . S
C84 C89 1.499 . S
N85 Co68 1.989 . S
N85 C84 1.342 . S
N85 N86 1.388 . S
N86 Co69 1.993 . S
N86 N85 1.388 . S
N86 C87 1.346 . S
C87 N86 1.346 . S
C87 C88 1.396 . S
C87 C97 1.510 . S
C88 C84 1.401 . S
C88 C87 1.396 . S
C89 C84 1.499 . S
C89 H90 0.959 . S
C89 H91 0.960 . S
C89 H92 0.961 . S
H90 C89 0.959 . S
H91 C89 0.960 . S
H92 C89 0.961 . S
O93 Co68 1.967 . S
O93 C101 1.258 . S
O94 Co69 1.941 . S
O94 C101 1.266 . S
H95 C97 0.959 . S
H96 C97 0.961 . S
C97 C87 1.510 . S
C97 H95 0.959 . S
C97 H96 0.961 . S
C97 H98 0.960 . S
H98 C97 0.960 . S
H99 N79 0.862 . S
O100 Co68 1.920 1_554 S
O100 C73 1.289 . S
C101 O93 1.258 . S
C101 O94 1.266 . S
Co102 O105 1.970 . S
Co102 N119 1.989 . S
Co102 O127 1.967 . S
Co102 O134 1.920 . S
Co103 O106 1.966 . S
Co103 N112 2.022 . S
Co103 N120 1.993 . S
Co103 O128 1.941 . S
C104 O105 1.258 . S
C104 O106 1.263 . S
O105 Co102 1.970 . S
O105 C104 1.258 . S
O106 Co103 1.966 . S
O106 C104 1.263 . S
C107 O108 1.235 . S
C107 O134 1.289 . S
O108 C107 1.235 . S
C109 C111 1.400 1_554 S
C109 N112 1.351 . S
C109 C114 1.501 . S
C110 C111 1.387 . S
C110 N113 1.341 1_556 S
C111 C109 1.400 1_556 S
C111 C110 1.387 . S
N112 Co103 2.022 . S
N112 C109 1.351 . S
N112 N113 1.365 . S
N113 C110 1.341 1_554 S
N113 N112 1.365 . S
N113 H133 0.862 . S
C114 C109 1.501 . S
C114 H115 0.961 . S
C114 H116 0.961 . S
C114 H117 0.960 . S
H115 C114 0.961 . S
H116 C114 0.961 . S
H117 C114 0.960 . S
C118 N119 1.342 . S
C118 C122 1.401 . S
C118 C123 1.499 . S
N119 Co102 1.989 . S
N119 C118 1.342 . S
N119 N120 1.388 . S
N120 Co103 1.993 . S
N120 N119 1.388 . S
N120 C121 1.346 . S
C121 N120 1.346 . S
C121 C122 1.396 . S
C121 C131 1.510 . S
C122 C118 1.401 . S
C122 C121 1.396 . S
C123 C118 1.499 . S
C123 H124 0.959 . S
C123 H125 0.960 . S
C123 H126 0.961 . S
H124 C123 0.959 . S
H125 C123 0.960 . S
H126 C123 0.961 . S
O127 Co102 1.967 . S
O127 C135 1.258 . S
O128 Co103 1.941 . S
O128 C135 1.266 . S
H129 C131 0.959 . S
H130 C131 0.961 . S
C131 C121 1.510 . S
C131 H129 0.959 . S
C131 H130 0.961 . S
C131 H132 0.960 . S
H132 C131 0.960 . S
H133 N113 0.862 . S
O134 Co102 1.920 . S
O134 C107 1.289 . S
C135 O127 1.258 . S
C135 O128 1.266 . S
Co136 O139 1.970 . S
Co136 N153 1.989 . S
Co136 O161 1.967 . S
Co136 O168 1.920 . S
Co137 O140 1.966 . S
Co137 N146 2.022 . S
Co137 N154 1.993 . S
Co137 O162 1.941 . S
C138 O139 1.258 . S
C138 O140 1.263 . S
O139 Co136 1.970 . S
O139 C138 1.258 . S
O140 Co137 1.966 . S
O140 C138 1.263 . S
C141 O142 1.235 . S
C141 O168 1.289 . S
O142 C141 1.235 . S
C143 C145 1.400 . S
C143 N146 1.351 . S
C143 C148 1.501 . S
C144 C145 1.387 . S
C144 N147 1.341 . S
C145 C143 1.400 . S
C145 C144 1.387 . S
N146 Co137 2.022 . S
N146 C143 1.351 . S
N146 N147 1.365 . S
N147 C144 1.341 . S
N147 N146 1.365 . S
N147 H167 0.862 . S
C148 C143 1.501 . S
C148 H149 0.961 . S
C148 H150 0.961 . S
C148 H151 0.960 . S
H149 C148 0.961 . S
H150 C148 0.961 . S
H151 C148 0.960 . S
C152 N153 1.342 . S
C152 C156 1.401 . S
C152 C157 1.499 . S
N153 Co136 1.989 . S
N153 C152 1.342 . S
N153 N154 1.388 . S
N154 Co137 1.993 . S
N154 N153 1.388 . S
N154 C155 1.346 . S
C155 N154 1.346 . S
C155 C156 1.396 . S
C155 C165 1.510 . S
C156 C152 1.401 . S
C156 C155 1.396 . S
C157 C152 1.499 . S
C157 H158 0.959 . S
C157 H159 0.960 . S
C157 H160 0.961 . S
H158 C157 0.959 . S
H159 C157 0.960 . S
H160 C157 0.961 . S
O161 Co136 1.967 . S
O161 C169 1.258 . S
O162 Co137 1.941 . S
O162 C169 1.266 . S
H163 C165 0.959 . S
H164 C165 0.961 . S
C165 C155 1.510 . S
C165 H163 0.959 . S
C165 H164 0.961 . S
C165 H166 0.960 . S
H166 C165 0.960 . S
H167 N147 0.862 . S
O168 Co136 1.920 . S
O168 C141 1.289 . S
C169 O161 1.258 . S
C169 O162 1.266 . S
Co170 O173 1.970 . S
Co170 N187 1.989 . S
Co170 O195 1.967 . S
Co170 O202 1.920 1_556 S
Co171 O174 1.966 . S
Co171 N180 2.022 . S
Co171 N188 1.993 . S
Co171 O196 1.941 . S
C172 O173 1.258 . S
C172 O174 1.263 . S
O173 Co170 1.970 . S
O173 C172 1.258 . S
O174 Co171 1.966 . S
O174 C172 1.263 . S
C175 O176 1.235 . S
C175 O202 1.289 . S
O176 C175 1.235 . S
C177 C179 1.400 . S
C177 N180 1.351 . S
C177 C182 1.501 . S
C178 C179 1.387 . S
C178 N181 1.341 . S
C179 C177 1.400 . S
C179 C178 1.387 . S
N180 Co171 2.022 . S
N180 C177 1.351 . S
N180 N181 1.365 . S
N181 C178 1.341 . S
N181 N180 1.365 . S
N181 H201 0.862 . S
C182 C177 1.501 . S
C182 H183 0.961 . S
C182 H184 0.961 . S
C182 H185 0.960 . S
H183 C182 0.961 . S
H184 C182 0.961 . S
H185 C182 0.960 . S
C186 N187 1.342 . S
C186 C190 1.401 . S
C186 C191 1.499 . S
N187 Co170 1.989 . S
N187 C186 1.342 . S
N187 N188 1.388 . S
N188 Co171 1.993 . S
N188 N187 1.388 . S
N188 C189 1.346 . S
C189 N188 1.346 . S
C189 C190 1.396 . S
C189 C199 1.510 . S
C190 C186 1.401 . S
C190 C189 1.396 . S
C191 C186 1.499 . S
C191 H192 0.959 . S
C191 H193 0.960 . S
C191 H194 0.961 . S
H192 C191 0.959 . S
H193 C191 0.960 . S
H194 C191 0.961 . S
O195 Co170 1.967 . S
O195 C203 1.258 . S
O196 Co171 1.941 . S
O196 C203 1.266 . S
H197 C199 0.959 . S
H198 C199 0.961 . S
C199 C189 1.510 . S
C199 H197 0.959 . S
C199 H198 0.961 . S
C199 H200 0.960 . S
H200 C199 0.960 . S
H201 N181 0.862 . S
O202 Co170 1.920 1_554 S
O202 C175 1.289 . S
C203 O195 1.258 . S
C203 O196 1.266 . S
Co204 O207 1.970 . S
Co204 N221 1.989 . S
Co204 O229 1.967 . S
Co204 O236 1.920 . S
Co205 O208 1.966 . S
Co205 N214 2.022 . S
Co205 N222 1.993 . S
Co205 O230 1.941 . S
C206 O207 1.258 . S
C206 O208 1.263 . S
O207 Co204 1.970 . S
O207 C206 1.258 . S
O208 Co205 1.966 . S
O208 C206 1.263 . S
C209 O210 1.235 . S
C209 O236 1.289 . S
O210 C209 1.235 . S
C211 C213 1.400 . S
C211 N214 1.351 . S
C211 C216 1.501 . S
C212 C213 1.387 . S
C212 N215 1.341 . S
C213 C211 1.400 . S
C213 C212 1.387 . S
N214 Co205 2.022 . S
N214 C211 1.351 . S
N214 N215 1.365 . S
N215 C212 1.341 . S
N215 N214 1.365 . S
N215 H235 0.862 . S
C216 C211 1.501 . S
C216 H217 0.961 . S
C216 H218 0.961 . S
C216 H219 0.960 . S
H217 C216 0.961 . S
H218 C216 0.961 . S
H219 C216 0.960 . S
C220 N221 1.342 . S
C220 C224 1.401 . S
C220 C225 1.499 . S
N221 Co204 1.989 . S
N221 C220 1.342 . S
N221 N222 1.388 . S
N222 Co205 1.993 . S
N222 N221 1.388 . S
N222 C223 1.346 . S
C223 N222 1.346 . S
C223 C224 1.396 . S
C223 C233 1.510 . S
C224 C220 1.401 . S
C224 C223 1.396 . S
C225 C220 1.499 . S
C225 H226 0.959 . S
C225 H227 0.960 . S
C225 H228 0.961 . S
H226 C225 0.959 . S
H227 C225 0.960 . S
H228 C225 0.961 . S
O229 Co204 1.967 . S
O229 C237 1.258 . S
O230 Co205 1.941 . S
O230 C237 1.266 . S
H231 C233 0.959 . S
H232 C233 0.961 . S
C233 C223 1.510 . S
C233 H231 0.959 . S
C233 H232 0.961 . S
C233 H234 0.960 . S
H234 C233 0.960 . S
H235 N215 0.862 . S
O236 Co204 1.920 . S
O236 C209 1.289 . S
C237 O229 1.258 . S
C237 O230 1.266 . S
Co238 O241 1.970 . S
Co238 N255 1.989 . S
Co238 O263 1.967 . S
Co238 O270 1.920 . S
Co239 O242 1.966 . S
Co239 N248 2.022 . S
Co239 N256 1.993 . S
Co239 O264 1.941 . S
C240 O241 1.258 . S
C240 O242 1.263 . S
O241 Co238 1.970 . S
O241 C240 1.258 . S
O242 Co239 1.966 . S
O242 C240 1.263 . S
C243 O244 1.235 . S
C243 O270 1.289 . S
O244 C243 1.235 . S
C245 C247 1.400 1_556 S
C245 N248 1.351 . S
C245 C250 1.501 . S
C246 C247 1.387 . S
C246 N249 1.341 1_554 S
C247 C245 1.400 1_554 S
C247 C246 1.387 . S
N248 Co239 2.022 . S
N248 C245 1.351 . S
N248 N249 1.365 . S
N249 C246 1.341 1_556 S
N249 N248 1.365 . S
N249 H269 0.862 . S
C250 C245 1.501 . S
C250 H251 0.961 . S
C250 H252 0.961 . S
C250 H253 0.960 . S
H251 C250 0.961 . S
H252 C250 0.961 . S
H253 C250 0.960 . S
C254 N255 1.342 . S
C254 C258 1.401 . S
C254 C259 1.499 . S
N255 Co238 1.989 . S
N255 C254 1.342 . S
N255 N256 1.388 . S
N256 Co239 1.993 . S
N256 N255 1.388 . S
N256 C257 1.346 . S
C257 N256 1.346 . S
C257 C258 1.396 . S
C257 C267 1.510 . S
C258 C254 1.401 . S
C258 C257 1.396 . S
C259 C254 1.499 . S
C259 H260 0.959 . S
C259 H261 0.960 . S
C259 H262 0.961 . S
H260 C259 0.959 . S
H261 C259 0.960 . S
H262 C259 0.961 . S
O263 Co238 1.967 . S
O263 C271 1.258 . S
O264 Co239 1.941 . S
O264 C271 1.266 . S
H265 C267 0.959 . S
H266 C267 0.961 . S
C267 C257 1.510 . S
C267 H265 0.959 . S
C267 H266 0.961 . S
C267 H268 0.960 . S
H268 C267 0.960 . S
H269 N249 0.862 . S
O270 Co238 1.920 . S
O270 C243 1.289 . S
C271 O263 1.258 . S
C271 O264 1.266 . S
Co272 O275 1.970 . S
Co272 N289 1.989 . S
Co272 O297 1.967 . S
Co272 O304 1.920 1_554 S
Co273 O276 1.966 . S
Co273 N282 2.022 . S
Co273 N290 1.993 . S
Co273 O298 1.941 . S
C274 O275 1.258 . S
C274 O276 1.263 . S
O275 Co272 1.970 . S
O275 C274 1.258 . S
O276 Co273 1.966 . S
O276 C274 1.263 . S
C277 O278 1.235 . S
C277 O304 1.289 . S
O278 C277 1.235 . S
C279 C281 1.400 . S
C279 N282 1.351 . S
C279 C284 1.501 . S
C280 C281 1.387 . S
C280 N283 1.341 . S
C281 C279 1.400 . S
C281 C280 1.387 . S
N282 Co273 2.022 . S
N282 C279 1.351 . S
N282 N283 1.365 . S
N283 C280 1.341 . S
N283 N282 1.365 . S
N283 H303 0.862 . S
C284 C279 1.501 . S
C284 H285 0.961 . S
C284 H286 0.961 . S
C284 H287 0.960 . S
H285 C284 0.961 . S
H286 C284 0.961 . S
H287 C284 0.960 . S
C288 N289 1.342 . S
C288 C292 1.401 . S
C288 C293 1.499 . S
N289 Co272 1.989 . S
N289 C288 1.342 . S
N289 N290 1.388 . S
N290 Co273 1.993 . S
N290 N289 1.388 . S
N290 C291 1.346 . S
C291 N290 1.346 . S
C291 C292 1.396 . S
C291 C301 1.510 . S
C292 C288 1.401 . S
C292 C291 1.396 . S
C293 C288 1.499 . S
C293 H294 0.959 . S
C293 H295 0.960 . S
C293 H296 0.961 . S
H294 C293 0.959 . S
H295 C293 0.960 . S
H296 C293 0.961 . S
O297 Co272 1.967 . S
O297 C305 1.258 . S
O298 Co273 1.941 . S
O298 C305 1.266 . S
H299 C301 0.959 . S
H300 C301 0.961 . S
C301 C291 1.510 . S
C301 H299 0.959 . S
C301 H300 0.961 . S
C301 H302 0.960 . S
H302 C301 0.960 . S
H303 N283 0.862 . S
O304 Co272 1.920 1_556 S
O304 C277 1.289 . S
C305 O297 1.258 . S
C305 O298 1.266 . S
Co306 O309 1.970 . S
Co306 N323 1.989 . S
Co306 O331 1.967 . S
Co306 O338 1.920 . S
Co307 O310 1.966 . S
Co307 N316 2.022 . S
Co307 N324 1.993 . S
Co307 O332 1.941 . S
C308 O309 1.258 . S
C308 O310 1.263 . S
O309 Co306 1.970 . S
O309 C308 1.258 . S
O310 Co307 1.966 . S
O310 C308 1.263 . S
C311 O312 1.235 . S
C311 O338 1.289 . S
O312 C311 1.235 . S
C313 C315 1.400 . S
C313 N316 1.351 . S
C313 C318 1.501 . S
C314 C315 1.387 . S
C314 N317 1.341 . S
C315 C313 1.400 . S
C315 C314 1.387 . S
N316 Co307 2.022 . S
N316 C313 1.351 . S
N316 N317 1.365 . S
N317 C314 1.341 . S
N317 N316 1.365 . S
N317 H337 0.862 . S
C318 C313 1.501 . S
C318 H319 0.961 . S
C318 H320 0.961 . S
C318 H321 0.960 . S
H319 C318 0.961 . S
H320 C318 0.961 . S
H321 C318 0.960 . S
C322 N323 1.342 . S
C322 C326 1.401 . S
C322 C327 1.499 . S
N323 Co306 1.989 . S
N323 C322 1.342 . S
N323 N324 1.388 . S
N324 Co307 1.993 . S
N324 N323 1.388 . S
N324 C325 1.346 . S
C325 N324 1.346 . S
C325 C326 1.396 . S
C325 C335 1.510 . S
C326 C322 1.401 . S
C326 C325 1.396 . S
C327 C322 1.499 . S
C327 H328 0.959 . S
C327 H329 0.960 . S
C327 H330 0.961 . S
H328 C327 0.959 . S
H329 C327 0.960 . S
H330 C327 0.961 . S
O331 Co306 1.967 . S
O331 C339 1.258 . S
O332 Co307 1.941 . S
O332 C339 1.266 . S
H333 C335 0.959 . S
H334 C335 0.961 . S
C335 C325 1.510 . S
C335 H333 0.959 . S
C335 H334 0.961 . S
C335 H336 0.960 . S
H336 C335 0.960 . S
H337 N317 0.862 . S
O338 Co306 1.920 . S
O338 C311 1.289 . S
C339 O331 1.258 . S
C339 O332 1.266 . S
Co340 O343 1.970 . S
Co340 N357 1.989 . S
Co340 O365 1.967 . S
Co340 O372 1.920 . S
Co341 O344 1.966 . S
Co341 N350 2.022 . S
Co341 N358 1.993 . S
Co341 O366 1.941 . S
C342 O343 1.258 . S
C342 O344 1.263 . S
O343 Co340 1.970 . S
O343 C342 1.258 . S
O344 Co341 1.966 . S
O344 C342 1.263 . S
C345 O346 1.235 . S
C345 O372 1.289 . S
O346 C345 1.235 . S
C347 C349 1.400 1_556 S
C347 N350 1.351 . S
C347 C352 1.501 . S
C348 C349 1.387 . S
C348 N351 1.341 1_554 S
C349 C347 1.400 1_554 S
C349 C348 1.387 . S
N350 Co341 2.022 . S
N350 C347 1.351 . S
N350 N351 1.365 . S
N351 C348 1.341 1_556 S
N351 N350 1.365 . S
N351 H371 0.862 . S
C352 C347 1.501 . S
C352 H353 0.961 . S
C352 H354 0.961 . S
C352 H355 0.960 . S
H353 C352 0.961 . S
H354 C352 0.961 . S
H355 C352 0.960 . S
C356 N357 1.342 . S
C356 C360 1.401 . S
C356 C361 1.499 . S
N357 Co340 1.989 . S
N357 C356 1.342 . S
N357 N358 1.388 . S
N358 Co341 1.993 . S
N358 N357 1.388 . S
N358 C359 1.346 . S
C359 N358 1.346 . S
C359 C360 1.396 . S
C359 C369 1.510 . S
C360 C356 1.401 . S
C360 C359 1.396 . S
C361 C356 1.499 . S
C361 H362 0.959 . S
C361 H363 0.960 . S
C361 H364 0.961 . S
H362 C361 0.959 . S
H363 C361 0.960 . S
H364 C361 0.961 . S
O365 Co340 1.967 . S
O365 C373 1.258 . S
O366 Co341 1.941 . S
O366 C373 1.266 . S
H367 C369 0.959 . S
H368 C369 0.961 . S
C369 C359 1.510 . S
C369 H367 0.959 . S
C369 H368 0.961 . S
C369 H370 0.960 . S
H370 C369 0.960 . S
H371 N351 0.862 . S
O372 Co340 1.920 . S
O372 C345 1.289 . S
C373 O365 1.258 . S
C373 O366 1.266 . S
Co374 O377 1.970 . S
Co374 N391 1.989 . S
Co374 O399 1.967 . S
Co374 O406 1.920 1_554 S
Co375 O378 1.966 . S
Co375 N384 2.022 . S
Co375 N392 1.993 . S
Co375 O400 1.941 . S
C376 O377 1.258 . S
C376 O378 1.263 . S
O377 Co374 1.970 . S
O377 C376 1.258 . S
O378 Co375 1.966 . S
O378 C376 1.263 . S
C379 O380 1.235 . S
C379 O406 1.289 . S
O380 C379 1.235 . S
C381 C383 1.400 . S
C381 N384 1.351 . S
C381 C386 1.501 . S
C382 C383 1.387 . S
C382 N385 1.341 . S
C383 C381 1.400 . S
C383 C382 1.387 . S
N384 Co375 2.022 . S
N384 C381 1.351 . S
N384 N385 1.365 . S
N385 C382 1.341 . S
N385 N384 1.365 . S
N385 H405 0.862 . S
C386 C381 1.501 . S
C386 H387 0.961 . S
C386 H388 0.961 . S
C386 H389 0.960 . S
H387 C386 0.961 . S
H388 C386 0.961 . S
H389 C386 0.960 . S
C390 N391 1.342 . S
C390 C394 1.401 . S
C390 C395 1.499 . S
N391 Co374 1.989 . S
N391 C390 1.342 . S
N391 N392 1.388 . S
N392 Co375 1.993 . S
N392 N391 1.388 . S
N392 C393 1.346 . S
C393 N392 1.346 . S
C393 C394 1.396 . S
C393 C403 1.510 . S
C394 C390 1.401 . S
C394 C393 1.396 . S
C395 C390 1.499 . S
C395 H396 0.959 . S
C395 H397 0.960 . S
C395 H398 0.961 . S
H396 C395 0.959 . S
H397 C395 0.960 . S
H398 C395 0.961 . S
O399 Co374 1.967 . S
O399 C407 1.258 . S
O400 Co375 1.941 . S
O400 C407 1.266 . S
H401 C403 0.959 . S
H402 C403 0.961 . S
C403 C393 1.510 . S
C403 H401 0.959 . S
C403 H402 0.961 . S
C403 H404 0.960 . S
H404 C403 0.960 . S
H405 N385 0.862 . S
O406 Co374 1.920 1_556 S
O406 C379 1.289 . S
C407 O399 1.258 . S
C407 O400 1.266 . S
C408 C409 1.349 . S
C408 C410 1.327 . S
C408 H433 0.950 . S
C409 C408 1.349 . S
C409 C425 1.349 . S
C410 C408 1.327 . S
C410 C429 1.429 . S
C410 H434 0.950 . S
C411 C428 1.574 . S
C411 C430 1.368 1_556 S
C411 H435 0.949 . S
H412 C416 0.949 . S
C413 C414 1.349 . S
C413 C415 1.327 . S
C413 H436 0.950 . S
C414 C413 1.349 . S
C414 C426 1.349 . S
C415 C413 1.327 . S
C415 C431 1.429 . S
C415 H437 0.950 . S
C416 H412 0.949 . S
C416 C424 1.574 . S
C416 C432 1.368 1_554 S
H417 C425 0.950 . S
H418 C423 0.950 . S
H419 C424 0.949 . S
H420 C426 0.950 . S
H421 C427 0.950 . S
H422 C428 0.949 . S
C423 H418 0.950 . S
C423 C425 1.327 . S
C423 C429 1.429 . S
C424 C416 1.574 . S
C424 H419 0.949 . S
C424 C430 1.368 . S
C425 C409 1.349 . S
C425 H417 0.950 . S
C425 C423 1.327 . S
C426 C414 1.349 . S
C426 H420 0.950 . S
C426 C427 1.327 . S
C427 H421 0.950 . S
C427 C426 1.327 . S
C427 C431 1.429 . S
C428 C411 1.574 . S
C428 H422 0.949 . S
C428 C432 1.368 . S
C429 C410 1.429 . S
C429 C423 1.429 . S
C429 C430 1.523 . S
C430 C411 1.368 1_554 S
C430 C424 1.368 . S
C430 C429 1.523 . S
C431 C415 1.429 . S
C431 C427 1.429 . S
C431 C432 1.523 . S
C432 C416 1.368 1_556 S
C432 C428 1.368 . S
C432 C431 1.523 . S
H433 C408 0.950 . S
H434 C410 0.950 . S
H435 C411 0.949 . S
H436 C413 0.950 . S
H437 C415 0.950 . S
C438 C439 1.349 . S
C438 C440 1.327 . S
C438 H463 0.950 . S
C439 C438 1.349 . S
C439 C455 1.349 . S
C440 C438 1.327 . S
C440 C459 1.429 . S
C440 H464 0.950 . S
C441 C458 1.574 . S
C441 C460 1.368 . S
C441 H465 0.949 . S
H442 C446 0.949 . S
C443 C444 1.349 . S
C443 C445 1.327 . S
C443 H466 0.950 . S
C444 C443 1.349 . S
C444 C456 1.349 . S
C445 C443 1.327 . S
C445 C461 1.429 . S
C445 H467 0.950 . S
C446 H442 0.949 . S
C446 C454 1.574 . S
C446 C462 1.368 . S
H447 C455 0.950 . S
H448 C453 0.950 . S
H449 C454 0.949 . S
H450 C456 0.950 . S
H451 C457 0.950 . S
H452 C458 0.949 . S
C453 H448 0.950 . S
C453 C455 1.327 . S
C453 C459 1.429 . S
C454 C446 1.574 . S
C454 H449 0.949 . S
C454 C460 1.368 . S
C455 C439 1.349 . S
C455 H447 0.950 . S
C455 C453 1.327 . S
C456 C444 1.349 . S
C456 H450 0.950 . S
C456 C457 1.327 . S
C457 H451 0.950 . S
C457 C456 1.327 . S
C457 C461 1.429 . S
C458 C441 1.574 . S
C458 H452 0.949 . S
C458 C462 1.368 . S
C459 C440 1.429 . S
C459 C453 1.429 . S
C459 C460 1.523 . S
C460 C441 1.368 . S
C460 C454 1.368 . S
C460 C459 1.523 . S
C461 C445 1.429 . S
C461 C457 1.429 . S
C461 C462 1.523 . S
C462 C446 1.368 . S
C462 C458 1.368 . S
C462 C461 1.523 . S
H463 C438 0.950 . S
H464 C440 0.950 . S
H465 C441 0.949 . S
H466 C443 0.950 . S
H467 C445 0.950 . S
C468 C469 1.349 . S
C468 C470 1.327 . S
C468 H493 0.950 . S
C469 C468 1.349 . S
C469 C485 1.349 . S
C470 C468 1.327 . S
C470 C489 1.429 . S
C470 H494 0.950 . S
C471 C488 1.574 . S
C471 C490 1.368 . S
C471 H495 0.949 . S
H472 C476 0.949 . S
C473 C474 1.349 . S
C473 C475 1.327 . S
C473 H496 0.950 . S
C474 C473 1.349 . S
C474 C486 1.349 . S
C475 C473 1.327 . S
C475 C491 1.429 . S
C475 H497 0.950 . S
C476 H472 0.949 . S
C476 C484 1.574 . S
C476 C492 1.368 . S
H477 C485 0.950 . S
H478 C483 0.950 . S
H479 C484 0.949 . S
H480 C486 0.950 . S
H481 C487 0.950 . S
H482 C488 0.949 . S
C483 H478 0.950 . S
C483 C485 1.327 . S
C483 C489 1.429 . S
C484 C476 1.574 . S
C484 H479 0.949 . S
C484 C490 1.368 . S
C485 C469 1.349 . S
C485 H477 0.950 . S
C485 C483 1.327 . S
C486 C474 1.349 . S
C486 H480 0.950 . S
C486 C487 1.327 . S
C487 H481 0.950 . S
C487 C486 1.327 . S
C487 C491 1.429 . S
C488 C471 1.574 . S
C488 H482 0.949 . S
C488 C492 1.368 . S
C489 C470 1.429 . S
C489 C483 1.429 . S
C489 C490 1.523 . S
C490 C471 1.368 . S
C490 C484 1.368 . S
C490 C489 1.523 . S
C491 C475 1.429 . S
C491 C487 1.429 . S
C491 C492 1.523 . S
C492 C476 1.368 . S
C492 C488 1.368 . S
C492 C491 1.523 . S
H493 C468 0.950 . S
H494 C470 0.950 . S
H495 C471 0.949 . S
H496 C473 0.950 . S
H497 C475 0.950 . S
C498 C499 1.349 . S
C498 C500 1.327 . S
C498 H523 0.950 . S
C499 C498 1.349 . S
C499 C515 1.349 . S
C500 C498 1.327 . S
C500 C519 1.429 . S
C500 H524 0.950 . S
C501 C518 1.574 . S
C501 C520 1.368 . S
C501 H525 0.949 . S
H502 C506 0.949 . S
C503 C504 1.349 . S
C503 C505 1.327 . S
C503 H526 0.950 . S
C504 C503 1.349 . S
C504 C516 1.349 . S
C505 C503 1.327 . S
C505 C521 1.429 . S
C505 H527 0.950 . S
C506 H502 0.949 . S
C506 C514 1.574 . S
C506 C522 1.368 . S
H507 C515 0.950 . S
H508 C513 0.950 . S
H509 C514 0.949 . S
H510 C516 0.950 . S
H511 C517 0.950 . S
H512 C518 0.949 . S
C513 H508 0.950 . S
C513 C515 1.327 . S
C513 C519 1.429 . S
C514 C506 1.574 . S
C514 H509 0.949 . S
C514 C520 1.368 1_554 S
C515 C499 1.349 . S
C515 H507 0.950 . S
C515 C513 1.327 . S
C516 C504 1.349 . S
C516 H510 0.950 . S
C516 C517 1.327 . S
C517 H511 0.950 . S
C517 C516 1.327 . S
C517 C521 1.429 . S
C518 C501 1.574 . S
C518 H512 0.949 . S
C518 C522 1.368 1_556 S
C519 C500 1.429 . S
C519 C513 1.429 . S
C519 C520 1.523 . S
C520 C501 1.368 . S
C520 C514 1.368 1_556 S
C520 C519 1.523 . S
C521 C505 1.429 . S
C521 C517 1.429 . S
C521 C522 1.523 . S
C522 C506 1.368 . S
C522 C518 1.368 1_554 S
C522 C521 1.523 . S
H523 C498 0.950 . S
H524 C500 0.950 . S
H525 C501 0.949 . S
H526 C503 0.950 . S
H527 C505 0.950 . S
C528 C529 1.349 . S
C528 C530 1.327 . S
C528 H553 0.950 . S
C529 C528 1.349 . S
C529 C545 1.349 . S
C530 C528 1.327 . S
C530 C549 1.429 . S
C530 H554 0.950 . S
C531 C548 1.574 . S
C531 C550 1.368 . S
C531 H555 0.949 . S
H532 C536 0.949 . S
C533 C534 1.349 . S
C533 C535 1.327 . S
C533 H556 0.950 . S
C534 C533 1.349 . S
C534 C546 1.349 . S
C535 C533 1.327 . S
C535 C551 1.429 . S
C535 H557 0.950 . S
C536 H532 0.949 . S
C536 C544 1.574 . S
C536 C552 1.368 . S
H537 C545 0.950 . S
H538 C543 0.950 . S
H539 C544 0.949 . S
H540 C546 0.950 . S
H541 C547 0.950 . S
H542 C548 0.949 . S
C543 H538 0.950 . S
C543 C545 1.327 . S
C543 C549 1.429 . S
C544 C536 1.574 . S
C544 H539 0.949 . S
C544 C550 1.368 . S
C545 C529 1.349 . S
C545 H537 0.950 . S
C545 C543 1.327 . S
C546 C534 1.349 . S
C546 H540 0.950 . S
C546 C547 1.327 . S
C547 H541 0.950 . S
C547 C546 1.327 . S
C547 C551 1.429 . S
C548 C531 1.574 . S
C548 H542 0.949 . S
C548 C552 1.368 . S
C549 C530 1.429 . S
C549 C543 1.429 . S
C549 C550 1.523 . S
C550 C531 1.368 . S
C550 C544 1.368 . S
C550 C549 1.523 . S
C551 C535 1.429 . S
C551 C547 1.429 . S
C551 C552 1.523 . S
C552 C536 1.368 . S
C552 C548 1.368 . S
C552 C551 1.523 . S
H553 C528 0.950 . S
H554 C530 0.950 . S
H555 C531 0.949 . S
H556 C533 0.950 . S
H557 C535 0.950 . S
C558 C559 1.349 . S
C558 C560 1.327 . S
C558 H583 0.950 . S
C559 C558 1.349 . S
C559 C575 1.349 . S
C560 C558 1.327 . S
C560 C579 1.429 . S
C560 H584 0.950 . S
C561 C578 1.574 . S
C561 C580 1.368 . S
C561 H585 0.949 . S
H562 C566 0.949 . S
C563 C564 1.349 . S
C563 C565 1.327 . S
C563 H586 0.950 . S
C564 C563 1.349 . S
C564 C576 1.349 . S
C565 C563 1.327 . S
C565 C581 1.429 . S
C565 H587 0.950 . S
C566 H562 0.949 . S
C566 C574 1.574 . S
C566 C582 1.368 . S
H567 C575 0.950 . S
H568 C573 0.950 . S
H569 C574 0.949 . S
H570 C576 0.950 . S
H571 C577 0.950 . S
H572 C578 0.949 . S
C573 H568 0.950 . S
C573 C575 1.327 . S
C573 C579 1.429 . S
C574 C566 1.574 . S
C574 H569 0.949 . S
C574 C580 1.368 . S
C575 C559 1.349 . S
C575 H567 0.950 . S
C575 C573 1.327 . S
C576 C564 1.349 . S
C576 H570 0.950 . S
C576 C577 1.327 . S
C577 H571 0.950 . S
C577 C576 1.327 . S
C577 C581 1.429 . S
C578 C561 1.574 . S
C578 H572 0.949 . S
C578 C582 1.368 . S
C579 C560 1.429 . S
C579 C573 1.429 . S
C579 C580 1.523 . S
C580 C561 1.368 . S
C580 C574 1.368 . S
C580 C579 1.523 . S
C581 C565 1.429 . S
C581 C577 1.429 . S
C581 C582 1.523 . S
C582 C566 1.368 . S
C582 C578 1.368 . S
C582 C581 1.523 . S
H583 C558 0.950 . S
H584 C560 0.950 . S
H585 C561 0.949 . S
H586 C563 0.950 . S
H587 C565 0.950 . S
C588 C589 1.349 . S
C588 C590 1.327 . S
C588 H613 0.950 . S
C589 C588 1.349 . S
C589 C605 1.349 . S
C590 C588 1.327 . S
C590 C609 1.429 . S
C590 H614 0.950 . S
C591 C608 1.574 . S
C591 C610 1.368 . S
C591 H615 0.949 . S
H592 C596 0.949 . S
C593 C594 1.349 . S
C593 C595 1.327 . S
C593 H616 0.950 . S
C594 C593 1.349 . S
C594 C606 1.349 . S
C595 C593 1.327 . S
C595 C611 1.429 . S
C595 H617 0.950 . S
C596 H592 0.949 . S
C596 C604 1.574 . S
C596 C612 1.368 . S
H597 C605 0.950 . S
H598 C603 0.950 . S
H599 C604 0.949 . S
H600 C606 0.950 . S
H601 C607 0.950 . S
H602 C608 0.949 . S
C603 H598 0.950 . S
C603 C605 1.327 . S
C603 C609 1.429 . S
C604 C596 1.574 . S
C604 H599 0.949 . S
C604 C610 1.368 . S
C605 C589 1.349 . S
C605 H597 0.950 . S
C605 C603 1.327 . S
C606 C594 1.349 . S
C606 H600 0.950 . S
C606 C607 1.327 . S
C607 H601 0.950 . S
C607 C606 1.327 . S
C607 C611 1.429 . S
C608 C591 1.574 . S
C608 H602 0.949 . S
C608 C612 1.368 . S
C609 C590 1.429 . S
C609 C603 1.429 . S
C609 C610 1.523 . S
C610 C591 1.368 . S
C610 C604 1.368 . S
C610 C609 1.523 . S
C611 C595 1.429 . S
C611 C607 1.429 . S
C611 C612 1.523 . S
C612 C596 1.368 . S
C612 C608 1.368 . S
C612 C611 1.523 . S
H613 C588 0.950 . S
H614 C590 0.950 . S
H615 C591 0.949 . S
H616 C593 0.950 . S
H617 C595 0.950 . S
C618 C619 1.349 . S
C618 C620 1.327 . S
C618 H643 0.950 . S
C619 C618 1.349 . S
C619 C635 1.349 . S
C620 C618 1.327 . S
C620 C639 1.429 . S
C620 H644 0.950 . S
C621 C638 1.574 . S
C621 C640 1.368 . S
C621 H645 0.949 . S
H622 C626 0.949 . S
C623 C624 1.349 . S
C623 C625 1.327 . S
C623 H646 0.950 . S
C624 C623 1.349 . S
C624 C636 1.349 . S
C625 C623 1.327 . S
C625 C641 1.429 . S
C625 H647 0.950 . S
C626 H622 0.949 . S
C626 C634 1.574 . S
C626 C642 1.368 . S
H627 C635 0.950 . S
H628 C633 0.950 . S
H629 C634 0.949 . S
H630 C636 0.950 . S
H631 C637 0.950 . S
H632 C638 0.949 . S
C633 H628 0.950 . S
C633 C635 1.327 . S
C633 C639 1.429 . S
C634 C626 1.574 . S
C634 H629 0.949 . S
C634 C640 1.368 . S
C635 C619 1.349 . S
C635 H627 0.950 . S
C635 C633 1.327 . S
C636 C624 1.349 . S
C636 H630 0.950 . S
C636 C637 1.327 . S
C637 H631 0.950 . S
C637 C636 1.327 . S
C637 C641 1.429 . S
C638 C621 1.574 . S
C638 H632 0.949 . S
C638 C642 1.368 . S
C639 C620 1.429 . S
C639 C633 1.429 . S
C639 C640 1.523 . S
C640 C621 1.368 . S
C640 C634 1.368 . S
C640 C639 1.523 . S
C641 C625 1.429 . S
C641 C637 1.429 . S
C641 C642 1.523 . S
C642 C626 1.368 . S
C642 C638 1.368 . S
C642 C641 1.523 . S
H643 C618 0.950 . S
H644 C620 0.950 . S
H645 C621 0.949 . S
H646 C623 0.950 . S
H647 C625 0.950 . S
C648 C649 1.349 . S
C648 C650 1.327 . S
C648 H673 0.950 . S
C649 C648 1.349 . S
C649 C665 1.349 . S
C650 C648 1.327 . S
C650 C669 1.429 . S
C650 H674 0.954 . S
C651 C668 1.574 . S
C651 C670 1.368 . S
C651 H675 0.949 . S
H652 C656 0.949 . S
C653 C654 1.349 . S
C653 C655 1.327 . S
C653 H676 0.950 . S
C654 C653 1.349 . S
C654 C666 1.349 . S
C655 C653 1.327 . S
C655 C671 1.429 . S
C655 H677 0.952 . S
C656 H652 0.949 . S
C656 C664 1.574 . S
C656 C672 1.368 . S
H657 C665 0.950 . S
H658 C663 0.950 . S
H659 C664 0.949 . S
H660 C666 0.950 . S
H661 C667 0.950 . S
H662 C668 0.949 . S
C663 H658 0.950 . S
C663 C665 1.327 . S
C663 C669 1.429 . S
C664 C656 1.574 . S
C664 H659 0.949 . S
C664 C670 1.368 1_554 S
C665 C649 1.349 . S
C665 H657 0.950 . S
C665 C663 1.327 . S
C666 C654 1.349 . S
C666 H660 0.950 . S
C666 C667 1.327 . S
C667 H661 0.950 . S
C667 C666 1.327 . S
C667 C671 1.429 . S
C668 C651 1.574 . S
C668 H662 0.949 . S
C668 C672 1.368 1_556 S
C669 C650 1.429 . S
C669 C663 1.429 . S
C669 C670 1.523 . S
C670 C651 1.368 . S
C670 C664 1.368 1_556 S
C670 C669 1.523 . S
C671 C655 1.429 . S
C671 C667 1.429 . S
C671 C672 1.523 . S
C672 C656 1.368 . S
C672 C668 1.368 1_554 S
C672 C671 1.523 . S
H673 C648 0.950 . S
H674 C650 0.954 . S
H675 C651 0.949 . S
H676 C653 0.950 . S
H677 C655 0.952 . S
C678 C679 1.349 . S
C678 C680 1.327 . S
C678 H703 0.950 . S
C679 C678 1.349 . S
C679 C695 1.349 . S
C680 C678 1.327 . S
C680 C699 1.429 . S
C680 H704 0.950 . S
C681 C698 1.574 . S
C681 C700 1.368 . S
C681 H705 0.949 . S
H682 C686 0.949 . S
C683 C684 1.349 . S
C683 C685 1.327 . S
C683 H706 0.950 . S
C684 C683 1.349 . S
C684 C696 1.349 . S
C685 C683 1.327 . S
C685 C701 1.429 . S
C685 H707 0.950 . S
C686 H682 0.949 . S
C686 C694 1.574 . S
C686 C702 1.368 . S
H687 C695 0.950 . S
H688 C693 0.950 . S
H689 C694 0.949 . S
H690 C696 0.950 . S
H691 C697 0.950 . S
H692 C698 0.949 . S
C693 H688 0.950 . S
C693 C695 1.327 . S
C693 C699 1.429 . S
C694 C686 1.574 . S
C694 H689 0.949 . S
C694 C700 1.368 . S
C695 C679 1.349 . S
C695 H687 0.950 . S
C695 C693 1.327 . S
C696 C684 1.349 . S
C696 H690 0.950 . S
C696 C697 1.327 . S
C697 H691 0.950 . S
C697 C696 1.327 . S
C697 C701 1.429 . S
C698 C681 1.574 . S
C698 H692 0.949 . S
C698 C702 1.368 . S
C699 C680 1.429 . S
C699 C693 1.429 . S
C699 C700 1.523 . S
C700 C681 1.368 . S
C700 C694 1.368 . S
C700 C699 1.523 . S
C701 C685 1.429 . S
C701 C697 1.429 . S
C701 C702 1.523 . S
C702 C686 1.368 . S
C702 C698 1.368 . S
C702 C701 1.523 . S
H703 C678 0.950 . S
H704 C680 0.950 . S
H705 C681 0.949 . S
H706 C683 0.950 . S
H707 C685 0.950 . S
C708 C709 1.349 . S
C708 C710 1.327 . S
C708 H733 0.950 . S
C709 C708 1.349 . S
C709 C725 1.349 . S
C710 C708 1.327 . S
C710 C729 1.429 . S
C710 H734 0.950 . S
C711 C728 1.574 . S
C711 C730 1.368 . S
C711 H735 0.949 . S
H712 C716 0.949 . S
C713 C714 1.349 . S
C713 C715 1.327 . S
C713 H736 0.950 . S
C714 C713 1.349 . S
C714 C726 1.349 . S
C715 C713 1.327 . S
C715 C731 1.429 . S
C715 H737 0.950 . S
C716 H712 0.949 . S
C716 C724 1.574 . S
C716 C732 1.368 . S
H717 C725 0.950 . S
H718 C723 0.950 . S
H719 C724 0.949 . S
H720 C726 0.950 . S
H721 C727 0.950 . S
H722 C728 0.949 . S
C723 H718 0.950 . S
C723 C725 1.327 . S
C723 C729 1.429 . S
C724 C716 1.574 . S
C724 H719 0.949 . S
C724 C730 1.368 . S
C725 C709 1.349 . S
C725 H717 0.950 . S
C725 C723 1.327 . S
C726 C714 1.349 . S
C726 H720 0.950 . S
C726 C727 1.327 . S
C727 H721 0.950 . S
C727 C726 1.327 . S
C727 C731 1.429 . S
C728 C711 1.574 . S
C728 H722 0.949 . S
C728 C732 1.368 . S
C729 C710 1.429 . S
C729 C723 1.429 . S
C729 C730 1.523 . S
C730 C711 1.368 . S
C730 C724 1.368 . S
C730 C729 1.523 . S
C731 C715 1.429 . S
C731 C727 1.429 . S
C731 C732 1.523 . S
C732 C716 1.368 . S
C732 C728 1.368 . S
C732 C731 1.523 . S
H733 C708 0.950 . S
H734 C710 0.950 . S
H735 C711 0.949 . S
H736 C713 0.950 . S
H737 C715 0.950 . S
C738 C739 1.349 . S
C738 C740 1.327 . S
C738 H763 0.950 . S
C739 C738 1.349 . S
C739 C755 1.349 . S
C740 C738 1.327 . S
C740 C759 1.429 . S
C740 H764 0.950 . S
C741 C758 1.574 . S
C741 C760 1.368 1_556 S
C741 H765 0.949 . S
H742 C746 0.949 . S
C743 C744 1.349 . S
C743 C745 1.327 . S
C743 H766 0.950 . S
C744 C743 1.349 . S
C744 C756 1.349 . S
C745 C743 1.327 . S
C745 C761 1.429 . S
C745 H767 0.950 . S
C746 H742 0.949 . S
C746 C754 1.574 . S
C746 C762 1.368 1_554 S
H747 C755 0.950 . S
H748 C753 0.952 . S
H749 C754 0.949 . S
H750 C756 0.950 . S
H751 C757 0.954 . S
H752 C758 0.949 . S
C753 H748 0.952 . S
C753 C755 1.327 . S
C753 C759 1.429 . S
C754 C746 1.574 . S
C754 H749 0.949 . S
C754 C760 1.368 . S
C755 C739 1.349 . S
C755 H747 0.950 . S
C755 C753 1.327 . S
C756 C744 1.349 . S
C756 H750 0.950 . S
C756 C757 1.327 . S
C757 H751 0.954 . S
C757 C756 1.327 . S
C757 C761 1.429 . S
C758 C741 1.574 . S
C758 H752 0.949 . S
C758 C762 1.368 . S
C759 C740 1.429 . S
C759 C753 1.429 . S
C759 C760 1.523 . S
C760 C741 1.368 1_554 S
C760 C754 1.368 . S
C760 C759 1.523 . S
C761 C745 1.429 . S
C761 C757 1.429 . S
C761 C762 1.523 . S
C762 C746 1.368 1_556 S
C762 C758 1.368 . S
C762 C761 1.523 . S
H763 C738 0.950 . S
H764 C740 0.950 . S
H765 C741 0.949 . S
H766 C743 0.950 . S
H767 C745 0.950 . S
C768 C769 1.349 . S
C768 C770 1.327 . S
C768 H793 0.950 . S
C769 C768 1.349 . S
C769 C785 1.349 . S
C770 C768 1.327 . S
C770 C789 1.429 . S
C770 H794 0.950 . S
C771 C788 1.574 . S
C771 C790 1.368 . S
C771 H795 0.949 . S
H772 C776 0.949 . S
C773 C774 1.349 . S
C773 C775 1.327 . S
C773 H796 0.950 . S
C774 C773 1.349 . S
C774 C786 1.349 . S
C775 C773 1.327 . S
C775 C791 1.429 . S
C775 H797 0.950 . S
C776 H772 0.949 . S
C776 C784 1.574 . S
C776 C792 1.368 . S
H777 C785 0.950 . S
H778 C783 0.950 . S
H779 C784 0.949 . S
H780 C786 0.950 . S
H781 C787 0.950 . S
H782 C788 0.949 . S
C783 H778 0.950 . S
C783 C785 1.327 . S
C783 C789 1.429 . S
C784 C776 1.574 . S
C784 H779 0.949 . S
C784 C790 1.368 . S
C785 C769 1.349 . S
C785 H777 0.950 . S
C785 C783 1.327 . S
C786 C774 1.349 . S
C786 H780 0.950 . S
C786 C787 1.327 . S
C787 H781 0.950 . S
C787 C786 1.327 . S
C787 C791 1.429 . S
C788 C771 1.574 . S
C788 H782 0.949 . S
C788 C792 1.368 . S
C789 C770 1.429 . S
C789 C783 1.429 . S
C789 C790 1.523 . S
C790 C771 1.368 . S
C790 C784 1.368 . S
C790 C789 1.523 . S
C791 C775 1.429 . S
C791 C787 1.429 . S
C791 C792 1.523 . S
C792 C776 1.368 . S
C792 C788 1.368 . S
C792 C791 1.523 . S
H793 C768 0.950 . S
H794 C770 0.950 . S
H795 C771 0.949 . S
H796 C773 0.950 . S
H797 C775 0.950 . S
C798 C799 1.349 . S
C798 C800 1.327 . S
C798 H823 0.950 . S
C799 C798 1.349 . S
C799 C815 1.349 . S
C800 C798 1.327 . S
C800 C819 1.429 . S
C800 H824 0.950 . S
C801 C818 1.574 1_455 S
C801 C820 1.368 . S
C801 H825 0.949 . S
H802 C806 0.949 . S
C803 C804 1.349 . S
C803 C805 1.327 . S
C803 H826 0.950 . S
C804 C803 1.349 . S
C804 C816 1.349 . S
C805 C803 1.327 . S
C805 C821 1.429 . S
C805 H827 0.950 . S
C806 H802 0.949 . S
C806 C814 1.574 1_655 S
C806 C822 1.368 . S
H807 C815 0.950 . S
H808 C813 0.950 . S
H809 C814 0.949 . S
H810 C816 0.950 . S
H811 C817 0.950 . S
H812 C818 0.949 . S
C813 H808 0.950 . S
C813 C815 1.327 . S
C813 C819 1.429 . S
C814 C806 1.574 1_455 S
C814 H809 0.949 . S
C814 C820 1.368 . S
C815 C799 1.349 . S
C815 H807 0.950 . S
C815 C813 1.327 . S
C816 C804 1.349 . S
C816 H810 0.950 . S
C816 C817 1.327 . S
C817 H811 0.950 . S
C817 C816 1.327 . S
C817 C821 1.429 . S
C818 C801 1.574 1_655 S
C818 H812 0.949 . S
C818 C822 1.368 . S
C819 C800 1.429 . S
C819 C813 1.429 . S
C819 C820 1.523 . S
C820 C801 1.368 . S
C820 C814 1.368 . S
C820 C819 1.523 . S
C821 C805 1.429 . S
C821 C817 1.429 . S
C821 C822 1.523 . S
C822 C806 1.368 . S
C822 C818 1.368 . S
C822 C821 1.523 . S
H823 C798 0.950 . S
H824 C800 0.950 . S
H825 C801 0.949 . S
H826 C803 0.950 . S
H827 C805 0.950 . S
C828 C829 1.349 . S
C828 C830 1.327 . S
C828 H853 0.950 . S
C829 C828 1.349 . S
C829 C845 1.349 . S
C830 C828 1.327 . S
C830 C849 1.429 . S
C830 H854 0.950 1_554 S
C831 C848 1.574 1_545 S
C831 C850 1.368 . S
C831 H855 0.949 . S
H832 C836 0.949 . S
C833 C834 1.349 . S
C833 C835 1.327 . S
C833 H856 0.950 . S
C834 C833 1.349 . S
C834 C846 1.349 . S
C835 C833 1.327 . S
C835 C851 1.429 . S
C835 H857 0.950 1_556 S
C836 H832 0.949 . S
C836 C844 1.574 1_565 S
C836 C852 1.368 . S
H837 C845 0.950 . S
H838 C843 0.950 . S
H839 C844 0.949 . S
H840 C846 0.950 . S
H841 C847 0.950 . S
H842 C848 0.949 . S
C843 H838 0.950 . S
C843 C845 1.327 . S
C843 C849 1.429 . S
C844 C836 1.574 1_545 S
C844 H839 0.949 . S
C844 C850 1.368 1_556 S
C845 C829 1.349 . S
C845 H837 0.950 . S
C845 C843 1.327 . S
C846 C834 1.349 . S
C846 H840 0.950 . S
C846 C847 1.327 . S
C847 H841 0.950 . S
C847 C846 1.327 . S
C847 C851 1.429 . S
C848 C831 1.574 1_565 S
C848 H842 0.949 . S
C848 C852 1.368 1_554 S
C849 C830 1.429 . S
C849 C843 1.429 . S
C849 C850 1.523 . S
C850 C831 1.368 . S
C850 C844 1.368 1_554 S
C850 C849 1.523 . S
C851 C835 1.429 . S
C851 C847 1.429 . S
C851 C852 1.523 . S
C852 C836 1.368 . S
C852 C848 1.368 1_556 S
C852 C851 1.523 . S
H853 C828 0.950 . S
H854 C830 0.950 1_556 S
H855 C831 0.949 . S
H856 C833 0.950 . S
H857 C835 0.950 1_554 S
C858 C859 1.349 . S
C858 C860 1.327 . S
C858 H883 0.950 . S
C859 C858 1.349 . S
C859 C875 1.349 . S
C860 C858 1.327 . S
C860 C879 1.429 . S
C860 H884 0.950 . S
C861 C878 1.574 . S
C861 C880 1.368 . S
C861 H885 0.949 . S
H862 C866 0.949 . S
C863 C864 1.349 . S
C863 C865 1.327 . S
C863 H886 0.950 . S
C864 C863 1.349 . S
C864 C876 1.349 . S
C865 C863 1.327 . S
C865 C881 1.429 . S
C865 H887 0.950 . S
C866 H862 0.949 . S
C866 C874 1.574 . S
C866 C882 1.368 . S
H867 C875 0.950 . S
H868 C873 0.950 . S
H869 C874 0.949 . S
H870 C876 0.950 . S
H871 C877 0.950 . S
H872 C878 0.949 . S
C873 H868 0.950 . S
C873 C875 1.327 . S
C873 C879 1.429 . S
C874 C866 1.574 . S
C874 H869 0.949 . S
C874 C880 1.368 . S
C875 C859 1.349 . S
C875 H867 0.950 . S
C875 C873 1.327 . S
C876 C864 1.349 . S
C876 H870 0.950 . S
C876 C877 1.327 . S
C877 H871 0.950 . S
C877 C876 1.327 . S
C877 C881 1.429 . S
C878 C861 1.574 . S
C878 H872 0.949 . S
C878 C882 1.368 . S
C879 C860 1.429 . S
C879 C873 1.429 . S
C879 C880 1.523 . S
C880 C861 1.368 . S
C880 C874 1.368 . S
C880 C879 1.523 . S
C881 C865 1.429 . S
C881 C877 1.429 . S
C881 C882 1.523 . S
C882 C866 1.368 . S
C882 C878 1.368 . S
C882 C881 1.523 . S
H883 C858 0.950 . S
H884 C860 0.950 . S
H885 C861 0.949 . S
H886 C863 0.950 . S
H887 C865 0.950 . S
C888 C889 1.349 . S
C888 C890 1.327 . S
C888 H913 0.950 . S
C889 C888 1.349 . S
C889 C905 1.349 . S
C890 C888 1.327 . S
C890 C909 1.429 . S
C890 H914 0.950 . S
C891 C908 1.574 1_455 S
C891 C910 1.368 . S
C891 H915 0.949 . S
H892 C896 0.949 . S
C893 C894 1.349 . S
C893 C895 1.327 . S
C893 H916 0.950 . S
C894 C893 1.349 . S
C894 C906 1.349 . S
C895 C893 1.327 . S
C895 C911 1.429 . S
C895 H917 0.950 . S
C896 H892 0.949 . S
C896 C904 1.574 1_655 S
C896 C912 1.368 . S
H897 C905 0.950 . S
H898 C903 0.950 . S
H899 C904 0.949 . S
H900 C906 0.950 . S
H901 C907 0.950 . S
H902 C908 0.949 . S
C903 H898 0.950 . S
C903 C905 1.327 . S
C903 C909 1.429 . S
C904 C896 1.574 1_455 S
C904 H899 0.949 . S
C904 C910 1.368 . S
C905 C889 1.349 . S
C905 H897 0.950 . S
C905 C903 1.327 . S
C906 C894 1.349 . S
C906 H900 0.950 . S
C906 C907 1.327 . S
C907 H901 0.950 . S
C907 C906 1.327 . S
C907 C911 1.429 . S
C908 C891 1.574 1_655 S
C908 H902 0.949 . S
C908 C912 1.368 . S
C909 C890 1.429 . S
C909 C903 1.429 . S
C909 C910 1.523 . S
C910 C891 1.368 . S
C910 C904 1.368 . S
C910 C909 1.523 . S
C911 C895 1.429 . S
C911 C907 1.429 . S
C911 C912 1.523 . S
C912 C896 1.368 . S
C912 C908 1.368 . S
C912 C911 1.523 . S
H913 C888 0.950 . S
H914 C890 0.950 . S
H915 C891 0.949 . S
H916 C893 0.950 . S
H917 C895 0.950 . S
C918 C919 1.349 . S
C918 C920 1.327 . S
C918 H943 0.950 . S
C919 C918 1.349 . S
C919 C935 1.349 . S
C920 C918 1.327 . S
C920 C939 1.429 . S
C920 H944 0.950 . S
C921 C938 1.574 1_545 S
C921 C940 1.368 1_554 S
C921 H945 0.949 . S
H922 C926 0.949 . S
C923 C924 1.349 . S
C923 C925 1.327 . S
C923 H946 0.950 . S
C924 C923 1.349 . S
C924 C936 1.349 . S
C925 C923 1.327 . S
C925 C941 1.429 . S
C925 H947 0.950 . S
C926 H922 0.949 . S
C926 C934 1.574 1_565 S
C926 C942 1.368 1_556 S
H927 C935 0.950 . S
H928 C933 0.950 1_554 S
H929 C934 0.949 . S
H930 C936 0.950 . S
H931 C937 0.950 1_556 S
H932 C938 0.949 . S
C933 H928 0.950 1_556 S
C933 C935 1.327 . S
C933 C939 1.429 . S
C934 C926 1.574 1_545 S
C934 H929 0.949 . S
C934 C940 1.368 . S
C935 C919 1.349 . S
C935 H927 0.950 . S
C935 C933 1.327 . S
C936 C924 1.349 . S
C936 H930 0.950 . S
C936 C937 1.327 . S
C937 H931 0.950 1_554 S
C937 C936 1.327 . S
C937 C941 1.429 . S
C938 C921 1.574 1_565 S
C938 H932 0.949 . S
C938 C942 1.368 . S
C939 C920 1.429 . S
C939 C933 1.429 . S
C939 C940 1.523 . S
C940 C921 1.368 1_556 S
C940 C934 1.368 . S
C940 C939 1.523 . S
C941 C925 1.429 . S
C941 C937 1.429 . S
C941 C942 1.523 . S
C942 C926 1.368 1_554 S
C942 C938 1.368 . S
C942 C941 1.523 . S
H943 C918 0.950 . S
H944 C920 0.950 . S
H945 C921 0.949 . S
H946 C923 0.950 . S
H947 C925 0.950 . S
C948 C949 1.349 . S
C948 C950 1.327 . S
C948 H973 0.950 . S
C949 C948 1.349 . S
C949 C965 1.349 . S
C950 C948 1.327 . S
C950 C969 1.429 . S
C950 H974 0.950 . S
C951 C968 1.574 . S
C951 C970 1.368 . S
C951 H975 0.949 . S
H952 C956 0.949 . S
C953 C954 1.349 . S
C953 C955 1.327 . S
C953 H976 0.950 . S
C954 C953 1.349 . S
C954 C966 1.349 . S
C955 C953 1.327 . S
C955 C971 1.429 . S
C955 H977 0.950 . S
C956 H952 0.949 . S
C956 C964 1.574 . S
C956 C972 1.368 . S
H957 C965 0.950 . S
H958 C963 0.950 . S
H959 C964 0.949 . S
H960 C966 0.950 . S
H961 C967 0.950 . S
H962 C968 0.949 . S
C963 H958 0.950 . S
C963 C965 1.327 . S
C963 C969 1.429 . S
C964 C956 1.574 . S
C964 H959 0.949 . S
C964 C970 1.368 . S
C965 C949 1.349 . S
C965 H957 0.950 . S
C965 C963 1.327 . S
C966 C954 1.349 . S
C966 H960 0.950 . S
C966 C967 1.327 . S
C967 H961 0.950 . S
C967 C966 1.327 . S
C967 C971 1.429 . S
C968 C951 1.574 . S
C968 H962 0.949 . S
C968 C972 1.368 . S
C969 C950 1.429 . S
C969 C963 1.429 . S
C969 C970 1.523 . S
C970 C951 1.368 . S
C970 C964 1.368 . S
C970 C969 1.523 . S
C971 C955 1.429 . S
C971 C967 1.429 . S
C971 C972 1.523 . S
C972 C956 1.368 . S
C972 C968 1.368 . S
C972 C971 1.523 . S
H973 C948 0.950 . S
H974 C950 0.950 . S
H975 C951 0.949 . S
H976 C953 0.950 . S
H977 C955 0.950 . S
C978 C979 1.349 . S
C978 C980 1.327 . S
C978 H1003 0.950 . S
C979 C978 1.349 . S
C979 C995 1.349 . S
C980 C978 1.327 . S
C980 C999 1.429 . S
C980 H1004 0.950 . S
C981 C998 1.574 1_554 S
C981 C1000 1.368 . S
C981 H1005 0.949 . S
H982 C986 0.949 . S
C983 C984 1.349 . S
C983 C985 1.327 . S
C983 H1006 0.950 . S
C984 C983 1.349 . S
C984 C996 1.349 . S
C985 C983 1.327 . S
C985 C1001 1.429 . S
C985 H1007 0.950 . S
C986 H982 0.949 . S
C986 C994 1.574 1_556 S
C986 C1002 1.368 . S
H987 C995 0.950 . S
H988 C993 0.950 . S
H989 C994 0.949 . S
H990 C996 0.950 . S
H991 C997 0.950 . S
H992 C998 0.949 . S
C993 H988 0.950 . S
C993 C995 1.327 . S
C993 C999 1.429 . S
C994 C986 1.574 1_554 S
C994 H989 0.949 . S
C994 C1000 1.368 . S
C995 C979 1.349 . S
C995 H987 0.950 . S
C995 C993 1.327 . S
C996 C984 1.349 . S
C996 H990 0.950 . S
C996 C997 1.327 . S
C997 H991 0.950 . S
C997 C996 1.327 . S
C997 C1001 1.429 . S
C998 C981 1.574 1_556 S
C998 H992 0.949 . S
C998 C1002 1.368 . S
C999 C980 1.429 . S
C999 C993 1.429 . S
C999 C1000 1.523 . S
C1000 C981 1.368 . S
C1000 C994 1.368 . S
C1000 C999 1.523 . S
C1001 C985 1.429 . S
C1001 C997 1.429 . S
C1001 C1002 1.523 . S
C1002 C986 1.368 . S
C1002 C998 1.368 . S
C1002 C1001 1.523 . S
H1003 C978 0.950 . S
H1004 C980 0.950 . S
H1005 C981 0.949 . S
H1006 C983 0.950 . S
H1007 C985 0.950 . S
C1008 C1009 1.349 . S
C1008 C1010 1.327 . S
C1008 H1033 0.950 . S
C1009 C1008 1.349 . S
C1009 C1025 1.349 . S
C1010 C1008 1.327 . S
C1010 C1029 1.429 . S
C1010 H1034 0.950 . S
C1011 C1028 1.574 . S
C1011 C1030 1.368 . S
C1011 H1035 0.949 . S
H1012 C1016 0.949 . S
C1013 C1014 1.349 . S
C1013 C1015 1.327 . S
C1013 H1036 0.950 . S
C1014 C1013 1.349 . S
C1014 C1026 1.349 . S
C1015 C1013 1.327 . S
C1015 C1031 1.429 . S
C1015 H1037 0.950 . S
C1016 H1012 0.949 . S
C1016 C1024 1.574 . S
C1016 C1032 1.368 . S
H1017 C1025 0.950 . S
H1018 C1023 0.950 . S
H1019 C1024 0.949 . S
H1020 C1026 0.950 . S
H1021 C1027 0.950 . S
H1022 C1028 0.949 . S
C1023 H1018 0.950 . S
C1023 C1025 1.327 . S
C1023 C1029 1.429 . S
C1024 C1016 1.574 . S
C1024 H1019 0.949 . S
C1024 C1030 1.368 . S
C1025 C1009 1.349 . S
C1025 H1017 0.950 . S
C1025 C1023 1.327 . S
C1026 C1014 1.349 . S
C1026 H1020 0.950 . S
C1026 C1027 1.327 . S
C1027 H1021 0.950 . S
C1027 C1026 1.327 . S
C1027 C1031 1.429 . S
C1028 C1011 1.574 . S
C1028 H1022 0.949 . S
C1028 C1032 1.368 . S
C1029 C1010 1.429 . S
C1029 C1023 1.429 . S
C1029 C1030 1.523 . S
C1030 C1011 1.368 . S
C1030 C1024 1.368 . S
C1030 C1029 1.523 . S
C1031 C1015 1.429 . S
C1031 C1027 1.429 . S
C1031 C1032 1.523 . S
C1032 C1016 1.368 . S
C1032 C1028 1.368 . S
C1032 C1031 1.523 . S
H1033 C1008 0.950 . S
H1034 C1010 0.950 . S
H1035 C1011 0.949 . S
H1036 C1013 0.950 . S
H1037 C1015 0.950 . S
C1038 C1039 1.349 . S
C1038 C1040 1.327 . S
C1038 H1063 0.950 . S
C1039 C1038 1.349 . S
C1039 C1055 1.349 . S
C1040 C1038 1.327 . S
C1040 C1059 1.429 . S
C1040 H1064 0.950 . S
C1041 C1058 1.574 . S
C1041 C1060 1.368 . S
C1041 H1065 0.949 . S
H1042 C1046 0.949 . S
C1043 C1044 1.349 . S
C1043 C1045 1.327 . S
C1043 H1066 0.950 . S
C1044 C1043 1.349 . S
C1044 C1056 1.349 . S
C1045 C1043 1.327 . S
C1045 C1061 1.429 . S
C1045 H1067 0.950 . S
C1046 H1042 0.949 . S
C1046 C1054 1.574 . S
C1046 C1062 1.368 . S
H1047 C1055 0.950 . S
H1048 C1053 0.950 . S
H1049 C1054 0.949 . S
H1050 C1056 0.950 . S
H1051 C1057 0.950 . S
H1052 C1058 0.949 . S
C1053 H1048 0.950 . S
C1053 C1055 1.327 . S
C1053 C1059 1.429 . S
C1054 C1046 1.574 . S
C1054 H1049 0.949 . S
C1054 C1060 1.368 . S
C1055 C1039 1.349 . S
C1055 H1047 0.950 . S
C1055 C1053 1.327 . S
C1056 C1044 1.349 . S
C1056 H1050 0.950 . S
C1056 C1057 1.327 . S
C1057 H1051 0.950 . S
C1057 C1056 1.327 . S
C1057 C1061 1.429 . S
C1058 C1041 1.574 . S
C1058 H1052 0.949 . S
C1058 C1062 1.368 . S
C1059 C1040 1.429 . S
C1059 C1053 1.429 . S
C1059 C1060 1.523 . S
C1060 C1041 1.368 . S
C1060 C1054 1.368 . S
C1060 C1059 1.523 . S
C1061 C1045 1.429 . S
C1061 C1057 1.429 . S
C1061 C1062 1.523 . S
C1062 C1046 1.368 . S
C1062 C1058 1.368 . S
C1062 C1061 1.523 . S
H1063 C1038 0.950 . S
H1064 C1040 0.950 . S
H1065 C1041 0.949 . S
H1066 C1043 0.950 . S
H1067 C1045 0.950 . S
C1068 C1069 1.349 . S
C1068 C1070 1.327 . S
C1068 H1093 0.950 . S
C1069 C1068 1.349 . S
C1069 C1085 1.349 . S
C1070 C1068 1.327 . S
C1070 C1089 1.429 . S
C1070 H1094 0.950 . S
C1071 C1088 1.574 1_554 S
C1071 C1090 1.368 . S
C1071 H1095 0.949 . S
H1072 C1076 0.949 . S
C1073 C1074 1.349 . S
C1073 C1075 1.327 . S
C1073 H1096 0.950 . S
C1074 C1073 1.349 . S
C1074 C1086 1.349 . S
C1075 C1073 1.327 . S
C1075 C1091 1.429 . S
C1075 H1097 0.950 . S
C1076 H1072 0.949 . S
C1076 C1084 1.574 1_556 S
C1076 C1092 1.368 . S
H1077 C1085 0.950 . S
H1078 C1083 0.950 . S
H1079 C1084 0.949 . S
H1080 C1086 0.950 . S
H1081 C1087 0.950 . S
H1082 C1088 0.949 . S
C1083 H1078 0.950 . S
C1083 C1085 1.327 . S
C1083 C1089 1.429 . S
C1084 C1076 1.574 1_554 S
C1084 H1079 0.949 . S
C1084 C1090 1.368 . S
C1085 C1069 1.349 . S
C1085 H1077 0.950 . S
C1085 C1083 1.327 . S
C1086 C1074 1.349 . S
C1086 H1080 0.950 . S
C1086 C1087 1.327 . S
C1087 H1081 0.950 . S
C1087 C1086 1.327 . S
C1087 C1091 1.429 . S
C1088 C1071 1.574 1_556 S
C1088 H1082 0.949 . S
C1088 C1092 1.368 . S
C1089 C1070 1.429 . S
C1089 C1083 1.429 . S
C1089 C1090 1.523 . S
C1090 C1071 1.368 . S
C1090 C1084 1.368 . S
C1090 C1089 1.523 . S
C1091 C1075 1.429 . S
C1091 C1087 1.429 . S
C1091 C1092 1.523 . S
C1092 C1076 1.368 . S
C1092 C1088 1.368 . S
C1092 C1091 1.523 . S
H1093 C1068 0.950 . S
H1094 C1070 0.950 . S
H1095 C1071 0.949 . S
H1096 C1073 0.950 . S
H1097 C1075 0.950 . S
C1098 C1099 1.349 . S
C1098 C1100 1.327 . S
C1098 H1123 0.950 . S
C1099 C1098 1.349 . S
C1099 C1115 1.349 . S
C1100 C1098 1.327 . S
C1100 C1119 1.429 . S
C1100 H1124 0.950 . S
C1101 C1118 1.574 . S
C1101 C1120 1.368 . S
C1101 H1125 0.949 . S
H1102 C1106 0.949 . S
C1103 C1104 1.349 . S
C1103 C1105 1.327 . S
C1103 H1126 0.950 . S
C1104 C1103 1.349 . S
C1104 C1116 1.349 . S
C1105 C1103 1.327 . S
C1105 C1121 1.429 . S
C1105 H1127 0.950 . S
C1106 H1102 0.949 . S
C1106 C1114 1.574 . S
C1106 C1122 1.368 . S
H1107 C1115 0.950 . S
H1108 C1113 0.950 . S
H1109 C1114 0.949 . S
H1110 C1116 0.950 . S
H1111 C1117 0.950 . S
H1112 C1118 0.949 . S
C1113 H1108 0.950 . S
C1113 C1115 1.327 . S
C1113 C1119 1.429 . S
C1114 C1106 1.574 . S
C1114 H1109 0.949 . S
C1114 C1120 1.368 . S
C1115 C1099 1.349 . S
C1115 H1107 0.950 . S
C1115 C1113 1.327 . S
C1116 C1104 1.349 . S
C1116 H1110 0.950 . S
C1116 C1117 1.327 . S
C1117 H1111 0.950 . S
C1117 C1116 1.327 . S
C1117 C1121 1.429 . S
C1118 C1101 1.574 . S
C1118 H1112 0.949 . S
C1118 C1122 1.368 . S
C1119 C1100 1.429 . S
C1119 C1113 1.429 . S
C1119 C1120 1.523 . S
C1120 C1101 1.368 . S
C1120 C1114 1.368 . S
C1120 C1119 1.523 . S
C1121 C1105 1.429 . S
C1121 C1117 1.429 . S
C1121 C1122 1.523 . S
C1122 C1106 1.368 . S
C1122 C1118 1.368 . S
C1122 C1121 1.523 . S
H1123 C1098 0.950 . S
H1124 C1100 0.950 . S
H1125 C1101 0.949 . S
H1126 C1103 0.950 . S
H1127 C1105 0.950 . S
C1128 C1129 1.349 . S
C1128 C1130 1.327 . S
C1128 H1153 0.950 . S
C1129 C1128 1.349 . S
C1129 C1145 1.349 . S
C1130 C1128 1.327 . S
C1130 C1149 1.429 . S
C1130 H1154 0.950 . S
C1131 C1148 1.574 1_554 S
C1131 C1150 1.368 . S
C1131 H1155 0.949 . S
H1132 C1136 0.949 . S
C1133 C1134 1.349 . S
C1133 C1135 1.327 . S
C1133 H1156 0.950 . S
C1134 C1133 1.349 . S
C1134 C1146 1.349 . S
C1135 C1133 1.327 . S
C1135 C1151 1.429 . S
C1135 H1157 0.950 . S
C1136 H1132 0.949 . S
C1136 C1144 1.574 1_556 S
C1136 C1152 1.368 . S
H1137 C1145 0.950 . S
H1138 C1143 0.950 . S
H1139 C1144 0.949 . S
H1140 C1146 0.950 . S
H1141 C1147 0.950 . S
H1142 C1148 0.949 . S
C1143 H1138 0.950 . S
C1143 C1145 1.327 . S
C1143 C1149 1.429 . S
C1144 C1136 1.574 1_554 S
C1144 H1139 0.949 . S
C1144 C1150 1.368 . S
C1145 C1129 1.349 . S
C1145 H1137 0.950 . S
C1145 C1143 1.327 . S
C1146 C1134 1.349 . S
C1146 H1140 0.950 . S
C1146 C1147 1.327 . S
C1147 H1141 0.950 . S
C1147 C1146 1.327 . S
C1147 C1151 1.429 . S
C1148 C1131 1.574 1_556 S
C1148 H1142 0.949 . S
C1148 C1152 1.368 . S
C1149 C1130 1.429 . S
C1149 C1143 1.429 . S
C1149 C1150 1.523 . S
C1150 C1131 1.368 . S
C1150 C1144 1.368 . S
C1150 C1149 1.523 . S
C1151 C1135 1.429 . S
C1151 C1147 1.429 . S
C1151 C1152 1.523 . S
C1152 C1136 1.368 . S
C1152 C1148 1.368 . S
C1152 C1151 1.523 . S
H1153 C1128 0.950 . S
H1154 C1130 0.950 . S
H1155 C1131 0.949 . S
H1156 C1133 0.950 . S
H1157 C1135 0.950 . S
C1158 C1159 1.349 . S
C1158 C1160 1.327 . S
C1158 H1183 0.950 . S
C1159 C1158 1.349 . S
C1159 C1175 1.349 . S
C1160 C1158 1.327 . S
C1160 C1179 1.429 . S
C1160 H1184 0.950 . S
C1161 C1178 1.574 . S
C1161 C1180 1.368 . S
C1161 H1185 0.949 . S
H1162 C1166 0.949 . S
C1163 C1164 1.349 . S
C1163 C1165 1.327 . S
C1163 H1186 0.950 . S
C1164 C1163 1.349 . S
C1164 C1176 1.349 . S
C1165 C1163 1.327 . S
C1165 C1181 1.429 . S
C1165 H1187 0.950 . S
C1166 H1162 0.949 . S
C1166 C1174 1.574 . S
C1166 C1182 1.368 . S
H1167 C1175 0.950 . S
H1168 C1173 0.950 . S
H1169 C1174 0.949 . S
H1170 C1176 0.950 . S
H1171 C1177 0.950 . S
H1172 C1178 0.949 . S
C1173 H1168 0.950 . S
C1173 C1175 1.327 . S
C1173 C1179 1.429 . S
C1174 C1166 1.574 . S
C1174 H1169 0.949 . S
C1174 C1180 1.368 . S
C1175 C1159 1.349 . S
C1175 H1167 0.950 . S
C1175 C1173 1.327 . S
C1176 C1164 1.349 . S
C1176 H1170 0.950 . S
C1176 C1177 1.327 . S
C1177 H1171 0.950 . S
C1177 C1176 1.327 . S
C1177 C1181 1.429 . S
C1178 C1161 1.574 . S
C1178 H1172 0.949 . S
C1178 C1182 1.368 . S
C1179 C1160 1.429 . S
C1179 C1173 1.429 . S
C1179 C1180 1.523 . S
C1180 C1161 1.368 . S
C1180 C1174 1.368 . S
C1180 C1179 1.523 . S
C1181 C1165 1.429 . S
C1181 C1177 1.429 . S
C1181 C1182 1.523 . S
C1182 C1166 1.368 . S
C1182 C1178 1.368 . S
C1182 C1181 1.523 . S
H1183 C1158 0.950 . S
H1184 C1160 0.950 . S
H1185 C1161 0.949 . S
H1186 C1163 0.950 . S
H1187 C1165 0.950 . S
C1188 C1189 1.349 . S
C1188 C1190 1.327 . S
C1188 H1213 0.950 . S
C1189 C1188 1.349 . S
C1189 C1205 1.349 . S
C1190 C1188 1.327 . S
C1190 C1209 1.429 . S
C1190 H1214 0.950 . S
C1191 C1208 1.574 . S
C1191 C1210 1.368 . S
C1191 H1215 0.949 . S
H1192 C1196 0.949 . S
C1193 C1194 1.349 . S
C1193 C1195 1.327 . S
C1193 H1216 0.950 . S
C1194 C1193 1.349 . S
C1194 C1206 1.349 . S
C1195 C1193 1.327 . S
C1195 C1211 1.429 . S
C1195 H1217 0.950 . S
C1196 H1192 0.949 . S
C1196 C1204 1.574 . S
C1196 C1212 1.368 . S
H1197 C1205 0.950 . S
H1198 C1203 0.950 . S
H1199 C1204 0.949 . S
H1200 C1206 0.950 . S
H1201 C1207 0.950 . S
H1202 C1208 0.949 . S
C1203 H1198 0.950 . S
C1203 C1205 1.327 . S
C1203 C1209 1.429 . S
C1204 C1196 1.574 . S
C1204 H1199 0.949 . S
C1204 C1210 1.368 . S
C1205 C1189 1.349 . S
C1205 H1197 0.950 . S
C1205 C1203 1.327 . S
C1206 C1194 1.349 . S
C1206 H1200 0.950 . S
C1206 C1207 1.327 . S
C1207 H1201 0.950 . S
C1207 C1206 1.327 . S
C1207 C1211 1.429 . S
C1208 C1191 1.574 . S
C1208 H1202 0.949 . S
C1208 C1212 1.368 . S
C1209 C1190 1.429 . S
C1209 C1203 1.429 . S
C1209 C1210 1.523 . S
C1210 C1191 1.368 . S
C1210 C1204 1.368 . S
C1210 C1209 1.523 . S
C1211 C1195 1.429 . S
C1211 C1207 1.429 . S
C1211 C1212 1.523 . S
C1212 C1196 1.368 . S
C1212 C1208 1.368 . S
C1212 C1211 1.523 . S
H1213 C1188 0.950 . S
H1214 C1190 0.950 . S
H1215 C1191 0.949 . S
H1216 C1193 0.950 . S
H1217 C1195 0.950 . S
C1218 C1219 1.349 . S
C1218 C1220 1.327 . S
C1218 H1243 0.950 . S
C1219 C1218 1.349 . S
C1219 C1235 1.349 . S
C1220 C1218 1.327 . S
C1220 C1239 1.429 . S
C1220 H1244 0.950 . S
C1221 C1238 1.574 1_556 S
C1221 C1240 1.368 . S
C1221 H1245 0.949 . S
H1222 C1226 0.949 . S
C1223 C1224 1.349 . S
C1223 C1225 1.327 . S
C1223 H1246 0.950 . S
C1224 C1223 1.349 . S
C1224 C1236 1.349 . S
C1225 C1223 1.327 . S
C1225 C1241 1.429 . S
C1225 H1247 0.950 . S
C1226 H1222 0.949 . S
C1226 C1234 1.574 1_554 S
C1226 C1242 1.368 . S
H1227 C1235 0.950 . S
H1228 C1233 0.950 . S
H1229 C1234 0.949 . S
H1230 C1236 0.950 . S
H1231 C1237 0.950 . S
H1232 C1238 0.949 . S
C1233 H1228 0.950 . S
C1233 C1235 1.327 . S
C1233 C1239 1.429 . S
C1234 C1226 1.574 1_556 S
C1234 H1229 0.949 . S
C1234 C1240 1.368 . S
C1235 C1219 1.349 . S
C1235 H1227 0.950 . S
C1235 C1233 1.327 . S
C1236 C1224 1.349 . S
C1236 H1230 0.950 . S
C1236 C1237 1.327 . S
C1237 H1231 0.950 . S
C1237 C1236 1.327 . S
C1237 C1241 1.429 . S
C1238 C1221 1.574 1_554 S
C1238 H1232 0.949 . S
C1238 C1242 1.368 . S
C1239 C1220 1.429 . S
C1239 C1233 1.429 . S
C1239 C1240 1.523 . S
C1240 C1221 1.368 . S
C1240 C1234 1.368 . S
C1240 C1239 1.523 . S
C1241 C1225 1.429 . S
C1241 C1237 1.429 . S
C1241 C1242 1.523 . S
C1242 C1226 1.368 . S
C1242 C1238 1.368 . S
C1242 C1241 1.523 . S
H1243 C1218 0.950 . S
H1244 C1220 0.950 . S
H1245 C1221 0.949 . S
H1246 C1223 0.950 . S
H1247 C1225 0.950 . S
C1248 C1249 1.349 . S
C1248 C1250 1.327 . S
C1248 H1273 0.950 . S
C1249 C1248 1.349 . S
C1249 C1265 1.349 . S
C1250 C1248 1.327 . S
C1250 C1269 1.429 . S
C1250 H1274 0.950 . S
C1251 C1268 1.574 . S
C1251 C1270 1.368 . S
C1251 H1275 0.949 . S
H1252 C1256 0.949 . S
C1253 C1254 1.349 . S
C1253 C1255 1.327 . S
C1253 H1276 0.950 . S
C1254 C1253 1.349 . S
C1254 C1266 1.349 . S
C1255 C1253 1.327 . S
C1255 C1271 1.429 . S
C1255 H1277 0.950 . S
C1256 H1252 0.949 . S
C1256 C1264 1.574 . S
C1256 C1272 1.368 . S
H1257 C1265 0.950 . S
H1258 C1263 0.950 . S
H1259 C1264 0.949 . S
H1260 C1266 0.950 . S
H1261 C1267 0.950 . S
H1262 C1268 0.949 . S
C1263 H1258 0.950 . S
C1263 C1265 1.327 . S
C1263 C1269 1.429 . S
C1264 C1256 1.574 . S
C1264 H1259 0.949 . S
C1264 C1270 1.368 . S
C1265 C1249 1.349 . S
C1265 H1257 0.950 . S
C1265 C1263 1.327 . S
C1266 C1254 1.349 . S
C1266 H1260 0.950 . S
C1266 C1267 1.327 . S
C1267 H1261 0.950 . S
C1267 C1266 1.327 . S
C1267 C1271 1.429 . S
C1268 C1251 1.574 . S
C1268 H1262 0.949 . S
C1268 C1272 1.368 . S
C1269 C1250 1.429 . S
C1269 C1263 1.429 . S
C1269 C1270 1.523 . S
C1270 C1251 1.368 . S
C1270 C1264 1.368 . S
C1270 C1269 1.523 . S
C1271 C1255 1.429 . S
C1271 C1267 1.429 . S
C1271 C1272 1.523 . S
C1272 C1256 1.368 . S
C1272 C1268 1.368 . S
C1272 C1271 1.523 . S
H1273 C1248 0.950 . S
H1274 C1250 0.950 . S
H1275 C1251 0.949 . S
H1276 C1253 0.950 . S
H1277 C1255 0.950 . S
C1278 C1279 1.349 . S
C1278 C1280 1.327 . S
C1278 H1303 0.950 . S
C1279 C1278 1.349 . S
C1279 C1295 1.349 . S
C1280 C1278 1.327 . S
C1280 C1299 1.429 . S
C1280 H1304 0.950 . S
C1281 C1298 1.574 . S
C1281 C1300 1.368 . S
C1281 H1305 0.949 . S
H1282 C1286 0.949 . S
C1283 C1284 1.349 . S
C1283 C1285 1.327 . S
C1283 H1306 0.950 . S
C1284 C1283 1.349 . S
C1284 C1296 1.349 . S
C1285 C1283 1.327 . S
C1285 C1301 1.429 . S
C1285 H1307 0.950 . S
C1286 H1282 0.949 . S
C1286 C1294 1.574 . S
C1286 C1302 1.368 . S
H1287 C1295 0.950 . S
H1288 C1293 0.950 . S
H1289 C1294 0.949 . S
H1290 C1296 0.950 . S
H1291 C1297 0.950 . S
H1292 C1298 0.949 . S
C1293 H1288 0.950 . S
C1293 C1295 1.327 . S
C1293 C1299 1.429 . S
C1294 C1286 1.574 . S
C1294 H1289 0.949 . S
C1294 C1300 1.368 . S
C1295 C1279 1.349 . S
C1295 H1287 0.950 . S
C1295 C1293 1.327 . S
C1296 C1284 1.349 . S
C1296 H1290 0.950 . S
C1296 C1297 1.327 . S
C1297 H1291 0.950 . S
C1297 C1296 1.327 . S
C1297 C1301 1.429 . S
C1298 C1281 1.574 . S
C1298 H1292 0.949 . S
C1298 C1302 1.368 . S
C1299 C1280 1.429 . S
C1299 C1293 1.429 . S
C1299 C1300 1.523 . S
C1300 C1281 1.368 . S
C1300 C1294 1.368 . S
C1300 C1299 1.523 . S
C1301 C1285 1.429 . S
C1301 C1297 1.429 . S
C1301 C1302 1.523 . S
C1302 C1286 1.368 . S
C1302 C1298 1.368 . S
C1302 C1301 1.523 . S
H1303 C1278 0.950 . S
H1304 C1280 0.950 . S
H1305 C1281 0.949 . S
H1306 C1283 0.950 . S
H1307 C1285 0.950 . S
C409 C20 1.567 . S
C414 C360 1.567 . S
C439 C394 1.567 . S
C444 C54 1.567 . S
C469 C224 1.567 . S
C474 C88 1.567 . S
C499 C258 1.567 . S
C504 C122 1.567 . S
C529 C156 1.567 . S
C534 C292 1.567 . S
C559 C326 1.567 . S
C564 C190 1.567 . S
C589 C237 1.428 . S
C594 C33 1.428 . S
C619 C271 1.429 . S
C624 C67 1.429 . S
C649 C101 1.429 . S
C654 C305 1.429 . S
C679 C135 1.428 . S
C684 C339 1.428 . S
C709 C373 1.428 . S
C714 C169 1.428 . S
C739 C407 1.428 . S
C744 C203 1.428 . S
C769 C2 1.470 . S
C774 C308 1.470 . S
C799 C342 1.470 . S
C804 C36 1.470 . S
C829 C376 1.470 . S
C834 C70 1.470 . S
C859 C206 1.470 . S
C864 C104 1.470 . S
C889 C138 1.470 . S
C894 C240 1.470 . S
C919 C172 1.470 . S
C924 C274 1.470 . S
C949 C5 0.742 . S
C954 C9 0.744 . S
C979 C43 0.744 . S
C984 C39 0.742 . S
C1009 C73 0.742 . S
C1014 C77 0.744 . S
C1039 C111 0.744 . S
C1044 C107 0.742 . S
C1069 C145 0.744 . S
C1074 C141 0.742 . S
C1099 C179 0.744 . S
C1104 C175 0.742 . S
C1129 C209 0.742 . S
C1134 C213 0.744 . S
C1159 C247 0.744 . S
C1164 C243 0.742 . S
C1189 C281 0.744 . S
C1194 C277 0.742 . S
C1219 C315 0.744 . S
C1224 C311 0.742 . S
C1249 C345 0.742 . S
C1254 C349 0.744 . S
C1279 C383 0.744 . S
C1284 C379 0.742 . S
